# Generated by pormake.
# Topology ptr, (4,4)-cn, num edge types: 1
# Building blocks:
#     Node 0, Type 0, BuildingBlock: UXUYUI_clean_sbu_0, # of connection points: 4
#     Node 1, Type 0, BuildingBlock: UXUYUI_clean_sbu_0, # of connection points: 4
#     Node 2, Type 0, BuildingBlock: UXUYUI_clean_sbu_0, # of connection points: 4
#     Node 3, Type 0, BuildingBlock: UXUYUI_clean_sbu_0, # of connection points: 4
#     Node 4, Type 0, BuildingBlock: UXUYUI_clean_sbu_0, # of connection points: 4
#     Node 5, Type 0, BuildingBlock: UXUYUI_clean_sbu_0, # of connection points: 4
#     Node 6, Type 0, BuildingBlock: UXUYUI_clean_sbu_0, # of connection points: 4
#     Node 7, Type 0, BuildingBlock: UXUYUI_clean_sbu_0, # of connection points: 4
#     Node 8, Type 0, BuildingBlock: UXUYUI_clean_sbu_0, # of connection points: 4
#     Node 9, Type 0, BuildingBlock: UXUYUI_clean_sbu_0, # of connection points: 4
#     Node 10, Type 0, BuildingBlock: UXUYUI_clean_sbu_0, # of connection points: 4
#     Node 11, Type 0, BuildingBlock: UXUYUI_clean_sbu_0, # of connection points: 4
#     Node 12, Type 0, BuildingBlock: UXUYUI_clean_sbu_0, # of connection points: 4
#     Node 13, Type 0, BuildingBlock: UXUYUI_clean_sbu_0, # of connection points: 4
#     Node 14, Type 0, BuildingBlock: UXUYUI_clean_sbu_0, # of connection points: 4
#     Node 15, Type 0, BuildingBlock: UXUYUI_clean_sbu_0, # of connection points: 4
#     Node 16, Type 0, BuildingBlock: UXUYUI_clean_sbu_0, # of connection points: 4
#     Node 17, Type 0, BuildingBlock: UXUYUI_clean_sbu_0, # of connection points: 4
#     Node 18, Type 1, BuildingBlock: MUDLON_clean_linker_0, # of connection points: 4
#     Node 19, Type 1, BuildingBlock: MUDLON_clean_linker_0, # of connection points: 4
#     Node 20, Type 1, BuildingBlock: MUDLON_clean_linker_0, # of connection points: 4
#     Node 21, Type 1, BuildingBlock: MUDLON_clean_linker_0, # of connection points: 4
#     Node 22, Type 1, BuildingBlock: MUDLON_clean_linker_0, # of connection points: 4
#     Node 23, Type 1, BuildingBlock: MUDLON_clean_linker_0, # of connection points: 4
#     Node 24, Type 1, BuildingBlock: MUDLON_clean_linker_0, # of connection points: 4
#     Node 25, Type 1, BuildingBlock: MUDLON_clean_linker_0, # of connection points: 4
#     Node 26, Type 1, BuildingBlock: MUDLON_clean_linker_0, # of connection points: 4
#     Node 27, Type 1, BuildingBlock: MUDLON_clean_linker_0, # of connection points: 4
#     Node 28, Type 1, BuildingBlock: MUDLON_clean_linker_0, # of connection points: 4
#     Node 29, Type 1, BuildingBlock: MUDLON_clean_linker_0, # of connection points: 4
#     Node 30, Type 1, BuildingBlock: MUDLON_clean_linker_0, # of connection points: 4
#     Node 31, Type 1, BuildingBlock: MUDLON_clean_linker_0, # of connection points: 4
#     Node 32, Type 1, BuildingBlock: MUDLON_clean_linker_0, # of connection points: 4
#     Node 33, Type 1, BuildingBlock: MUDLON_clean_linker_0, # of connection points: 4
#     Node 34, Type 1, BuildingBlock: MUDLON_clean_linker_0, # of connection points: 4
#     Node 35, Type 1, BuildingBlock: MUDLON_clean_linker_0, # of connection points: 4
#     Edge 36, Type (0, 1), BuildingBlock: XUDNAN_clean_linker_2, # of connection points: 2
#     Edge 37, Type (0, 1), BuildingBlock: XUDNAN_clean_linker_2, # of connection points: 2
#     Edge 38, Type (0, 1), BuildingBlock: XUDNAN_clean_linker_2, # of connection points: 2
#     Edge 39, Type (0, 1), BuildingBlock: XUDNAN_clean_linker_2, # of connection points: 2
#     Edge 40, Type (0, 1), BuildingBlock: XUDNAN_clean_linker_2, # of connection points: 2
#     Edge 41, Type (0, 1), BuildingBlock: XUDNAN_clean_linker_2, # of connection points: 2
#     Edge 42, Type (0, 1), BuildingBlock: XUDNAN_clean_linker_2, # of connection points: 2
#     Edge 43, Type (0, 1), BuildingBlock: XUDNAN_clean_linker_2, # of connection points: 2
#     Edge 44, Type (0, 1), BuildingBlock: XUDNAN_clean_linker_2, # of connection points: 2
#     Edge 45, Type (0, 1), BuildingBlock: XUDNAN_clean_linker_2, # of connection points: 2
#     Edge 46, Type (0, 1), BuildingBlock: XUDNAN_clean_linker_2, # of connection points: 2
#     Edge 47, Type (0, 1), BuildingBlock: XUDNAN_clean_linker_2, # of connection points: 2
#     Edge 48, Type (0, 1), BuildingBlock: XUDNAN_clean_linker_2, # of connection points: 2
#     Edge 49, Type (0, 1), BuildingBlock: XUDNAN_clean_linker_2, # of connection points: 2
#     Edge 50, Type (0, 1), BuildingBlock: XUDNAN_clean_linker_2, # of connection points: 2
#     Edge 51, Type (0, 1), BuildingBlock: XUDNAN_clean_linker_2, # of connection points: 2
#     Edge 52, Type (0, 1), BuildingBlock: XUDNAN_clean_linker_2, # of connection points: 2
#     Edge 53, Type (0, 1), BuildingBlock: XUDNAN_clean_linker_2, # of connection points: 2
#     Edge 54, Type (0, 1), BuildingBlock: XUDNAN_clean_linker_2, # of connection points: 2
#     Edge 55, Type (0, 1), BuildingBlock: XUDNAN_clean_linker_2, # of connection points: 2
#     Edge 56, Type (0, 1), BuildingBlock: XUDNAN_clean_linker_2, # of connection points: 2
#     Edge 57, Type (0, 1), BuildingBlock: XUDNAN_clean_linker_2, # of connection points: 2
#     Edge 58, Type (0, 1), BuildingBlock: XUDNAN_clean_linker_2, # of connection points: 2
#     Edge 59, Type (0, 1), BuildingBlock: XUDNAN_clean_linker_2, # of connection points: 2
#     Edge 60, Type (0, 1), BuildingBlock: XUDNAN_clean_linker_2, # of connection points: 2
#     Edge 61, Type (0, 1), BuildingBlock: XUDNAN_clean_linker_2, # of connection points: 2
#     Edge 62, Type (0, 1), BuildingBlock: XUDNAN_clean_linker_2, # of connection points: 2
#     Edge 63, Type (0, 1), BuildingBlock: XUDNAN_clean_linker_2, # of connection points: 2
#     Edge 64, Type (0, 1), BuildingBlock: XUDNAN_clean_linker_2, # of connection points: 2
#     Edge 65, Type (0, 1), BuildingBlock: XUDNAN_clean_linker_2, # of connection points: 2
#     Edge 66, Type (0, 1), BuildingBlock: XUDNAN_clean_linker_2, # of connection points: 2
#     Edge 67, Type (0, 1), BuildingBlock: XUDNAN_clean_linker_2, # of connection points: 2
#     Edge 68, Type (0, 1), BuildingBlock: XUDNAN_clean_linker_2, # of connection points: 2
#     Edge 69, Type (0, 1), BuildingBlock: XUDNAN_clean_linker_2, # of connection points: 2
#     Edge 70, Type (0, 1), BuildingBlock: XUDNAN_clean_linker_2, # of connection points: 2
#     Edge 71, Type (0, 1), BuildingBlock: XUDNAN_clean_linker_2, # of connection points: 2
#     Edge 72, Type (0, 1), BuildingBlock: XUDNAN_clean_linker_2, # of connection points: 2
#     Edge 73, Type (0, 1), BuildingBlock: XUDNAN_clean_linker_2, # of connection points: 2
#     Edge 74, Type (0, 1), BuildingBlock: XUDNAN_clean_linker_2, # of connection points: 2
#     Edge 75, Type (0, 1), BuildingBlock: XUDNAN_clean_linker_2, # of connection points: 2
#     Edge 76, Type (0, 1), BuildingBlock: XUDNAN_clean_linker_2, # of connection points: 2
#     Edge 77, Type (0, 1), BuildingBlock: XUDNAN_clean_linker_2, # of connection points: 2
#     Edge 78, Type (0, 1), BuildingBlock: XUDNAN_clean_linker_2, # of connection points: 2
#     Edge 79, Type (0, 1), BuildingBlock: XUDNAN_clean_linker_2, # of connection points: 2
#     Edge 80, Type (0, 1), BuildingBlock: XUDNAN_clean_linker_2, # of connection points: 2
#     Edge 81, Type (0, 1), BuildingBlock: XUDNAN_clean_linker_2, # of connection points: 2
#     Edge 82, Type (0, 1), BuildingBlock: XUDNAN_clean_linker_2, # of connection points: 2
#     Edge 83, Type (0, 1), BuildingBlock: XUDNAN_clean_linker_2, # of connection points: 2
#     Edge 84, Type (0, 1), BuildingBlock: XUDNAN_clean_linker_2, # of connection points: 2
#     Edge 85, Type (0, 1), BuildingBlock: XUDNAN_clean_linker_2, # of connection points: 2
#     Edge 86, Type (0, 1), BuildingBlock: XUDNAN_clean_linker_2, # of connection points: 2
#     Edge 87, Type (0, 1), BuildingBlock: XUDNAN_clean_linker_2, # of connection points: 2
#     Edge 88, Type (0, 1), BuildingBlock: XUDNAN_clean_linker_2, # of connection points: 2
#     Edge 89, Type (0, 1), BuildingBlock: XUDNAN_clean_linker_2, # of connection points: 2
#     Edge 90, Type (0, 1), BuildingBlock: XUDNAN_clean_linker_2, # of connection points: 2
#     Edge 91, Type (0, 1), BuildingBlock: XUDNAN_clean_linker_2, # of connection points: 2
#     Edge 92, Type (0, 1), BuildingBlock: XUDNAN_clean_linker_2, # of connection points: 2
#     Edge 93, Type (0, 1), BuildingBlock: XUDNAN_clean_linker_2, # of connection points: 2
#     Edge 94, Type (0, 1), BuildingBlock: XUDNAN_clean_linker_2, # of connection points: 2
#     Edge 95, Type (0, 1), BuildingBlock: XUDNAN_clean_linker_2, # of connection points: 2
#     Edge 96, Type (0, 1), BuildingBlock: XUDNAN_clean_linker_2, # of connection points: 2
#     Edge 97, Type (0, 1), BuildingBlock: XUDNAN_clean_linker_2, # of connection points: 2
#     Edge 98, Type (0, 1), BuildingBlock: XUDNAN_clean_linker_2, # of connection points: 2
#     Edge 99, Type (0, 1), BuildingBlock: XUDNAN_clean_linker_2, # of connection points: 2
#     Edge 100, Type (0, 1), BuildingBlock: XUDNAN_clean_linker_2, # of connection points: 2
#     Edge 101, Type (0, 1), BuildingBlock: XUDNAN_clean_linker_2, # of connection points: 2
#     Edge 102, Type (0, 1), BuildingBlock: XUDNAN_clean_linker_2, # of connection points: 2
#     Edge 103, Type (0, 1), BuildingBlock: XUDNAN_clean_linker_2, # of connection points: 2
#     Edge 104, Type (0, 1), BuildingBlock: XUDNAN_clean_linker_2, # of connection points: 2
#     Edge 105, Type (0, 1), BuildingBlock: XUDNAN_clean_linker_2, # of connection points: 2
#     Edge 106, Type (0, 1), BuildingBlock: XUDNAN_clean_linker_2, # of connection points: 2
#     Edge 107, Type (0, 1), BuildingBlock: XUDNAN_clean_linker_2, # of connection points: 2
# Relax obj value: 0.080
# Max RMSD: 0.221
# Mean RMSD: 0.104
data_MOF--net-ptr--node1-UXUYUI_clean_sbu_0--node2-MUDLON_clean_linker_0--edge1-XUDNAN_clean_linker_2
_symmetry_space_group_name_H-M    P1
_symmetry_Int_Tables_number       1
_symmetry_cell_setting            triclinic
loop_
_symmetry_equiv_pos_as_xyz
'x, y, z'
_cell_length_a     124.27588
_cell_length_b     124.31201
_cell_length_c     70.160402
_cell_angle_alpha  89.986571
_cell_angle_beta   90.015929
_cell_angle_gamma 120.03071
loop_
_atom_site_label
_atom_site_type_symbol
_atom_site_fract_x
_atom_site_fract_y
_atom_site_fract_z
_atom_type_partial_charge
Li0 Li 0.99071 0.34872 0.00884 0.0
Li1 Li 0.01299 0.36205 0.01286 0.0
Li2 Li 0.99829 0.36861 0.02632 0.0
Li3 Li 0.0025 0.36924 0.99197 0.0
C4 C 0.99461 0.34652 0.04866 0.0
N5 N 0.9836 0.33154 0.0801 0.0
C6 C 0.99853 0.33836 0.05495 0.0
C7 C 0.98529 0.34726 0.05872 0.0
C8 C 0.99279 0.3308 0.07076 0.0
C9 C 0.97978 0.33956 0.07448 0.0
C10 C 0.01118 0.34985 0.98136 0.0
C11 C 0.03016 0.35375 0.96598 0.0
N12 N 0.02642 0.34145 0.96722 0.0
C13 C 0.00747 0.33723 0.98233 0.0
C14 C 0.02257 0.35817 0.97297 0.0
C15 C 0.01532 0.33318 0.97515 0.0
C16 C 0.96747 0.32919 0.99588 0.0
N17 N 0.97764 0.33186 0.00655 0.0
C18 C 0.96967 0.31027 0.01285 0.0
C19 C 0.97892 0.32269 0.01488 0.0
C20 C 0.95892 0.30722 0.00219 0.0
C21 C 0.95789 0.31692 0.99375 0.0
H22 H 0.96681 0.33659 0.98891 0.0
H23 H 0.98731 0.32499 0.02261 0.0
C24 C 0.03907 0.37238 0.01831 0.0
N25 N 0.02793 0.36167 0.01776 0.0
C26 C 0.0499 0.37212 0.0228 0.0
C27 C 0.03759 0.34982 0.02604 0.0
C28 C 0.02704 0.3505 0.02124 0.0
C29 C 0.04925 0.36074 0.02709 0.0
H30 H 0.03954 0.38115 0.01552 0.0
H31 H 0.01809 0.34211 0.02053 0.0
C32 C 0.97427 0.35962 0.00746 0.0
N33 N 0.95028 0.35512 0.01237 0.0
C34 C 0.96986 0.36597 0.99642 0.0
C35 C 0.96639 0.35085 0.0208 0.0
C36 C 0.95773 0.36361 0.99918 0.0
C37 C 0.95432 0.34873 0.02311 0.0
C38 C 0.02054 0.39053 0.00585 0.0
C39 C 0.01751 0.39931 0.0124 0.0
C40 C 0.02969 0.3939 0.99187 0.0
C41 C 0.02359 0.41128 0.00468 0.0
C42 C 0.03554 0.40595 0.98448 0.0
N43 N 0.03239 0.41432 0.99098 0.0
C44 C 0.00451 0.38208 0.06038 0.0
C45 C 0.98638 0.38009 0.04591 0.0
C46 C 0.00408 0.38976 0.07454 0.0
N47 N 0.99581 0.37753 0.04635 0.0
C48 C 0.9855 0.38758 0.05989 0.0
C49 C 0.99454 0.39273 0.0743 0.0
H50 H 0.01202 0.38004 0.06022 0.0
H51 H 0.97969 0.3766 0.0345 0.0
C52 C 0.00745 0.37665 0.95276 0.0
N53 N 0.00353 0.37858 0.96983 0.0
C54 C 0.00843 0.38399 0.93702 0.0
C55 C 0.00119 0.39504 0.95671 0.0
C56 C 1.00037 0.38752 0.97201 0.0
C57 C 0.00529 0.39335 0.9389 0.0
H58 H 0.00982 0.36942 0.95138 0.0
H59 H 0.99733 0.38889 0.98578 0.0
O60 O 1.00026 0.35412 0.0333 0.0
O61 O 0.00373 0.35403 0.98865 0.0
O62 O 0.98617 0.36189 0.00498 0.0
O63 O 0.01451 0.37869 0.01296 0.0
H64 H 0.00588 0.33779 0.04766 0.0
H65 H 0.98238 0.35377 0.05459 0.0
H66 H 0.99567 0.32437 0.07563 0.0
H67 H 0.97252 0.34001 0.0823 0.0
H68 H 0.03904 0.36011 0.95959 0.0
H69 H 0.99867 0.33065 0.98863 0.0
H70 H 0.02556 0.36794 0.97203 0.0
H71 H 0.0126 0.32345 0.97591 0.0
H72 H 0.97112 0.30315 0.01915 0.0
H73 H 0.94978 0.3151 0.98552 0.0
H74 H 0.05867 0.38078 0.02305 0.0
H75 H 0.03649 0.34083 0.02947 0.0
H76 H 0.97571 0.37265 0.98582 0.0
H77 H 0.96945 0.34553 0.02898 0.0
H78 H 0.95424 0.3685 0.99079 0.0
H79 H 0.94814 0.34196 0.03337 0.0
H80 H 0.01045 0.3969 0.02317 0.0
H81 H 0.03217 0.38726 0.98664 0.0
H82 H 0.02128 0.41813 0.00954 0.0
H83 H 0.04257 0.40865 0.97355 0.0
H84 H 0.0114 0.39365 0.08512 0.0
H85 H 0.97787 0.38944 0.05923 0.0
H86 H 0.01149 0.38227 0.92349 0.0
H87 H 0.99884 0.40225 0.95889 0.0
Li88 Li 0.65282 0.64168 0.00965 0.0
Li89 Li 0.64109 0.65237 0.01451 0.0
Li90 Li 0.63337 0.63114 0.0285 0.0
Li91 Li 0.63194 0.63428 0.99419 0.0
C92 C 0.65738 0.6488 0.04819 0.0
N93 N 0.67432 0.65243 0.07657 0.0
C94 C 0.66663 0.66082 0.05313 0.0
C95 C 0.65661 0.63865 0.058 0.0
C96 C 0.67515 0.66246 0.06741 0.0
C97 C 0.66529 0.64066 0.07222 0.0
C98 C 0.65253 0.66163 0.98216 0.0
C99 C 0.64937 0.67708 0.9664 0.0
N100 N 0.66182 0.68519 0.96712 0.0
C101 C 0.6653 0.67008 0.98258 0.0
C102 C 0.64451 0.66512 0.97385 0.0
C103 C 0.66981 0.68196 0.97496 0.0
C104 C 0.67009 0.63475 0.99679 0.0
N105 N 0.66902 0.64374 0.0062 0.0
C106 C 0.69112 0.65607 0.0092 0.0
C107 C 0.67924 0.65428 0.01234 0.0
C108 C 0.69248 0.64686 -0.00023 0.0
C109 C 0.68178 0.63605 0.99363 0.0
H110 H 0.66187 0.62664 0.9915 0.0
H111 H 0.67819 0.66145 0.01928 0.0
C112 C 0.63182 0.66855 0.02185 0.0
N113 N 0.64244 0.66809 0.01958 0.0
C114 C 0.63234 0.67963 0.02711 0.0
C115 C 0.65476 0.68964 0.02743 0.0
C116 C 0.65379 0.67838 0.022 0.0
C117 C 0.64392 0.69033 0.03037 0.0
H118 H 0.62291 0.66024 0.02004 0.0
H119 H 0.6621 0.67776 0.02016 0.0
C120 C 0.63776 0.61322 0.01028 0.0
N121 N 0.63627 0.59062 0.01723 0.0
C122 C 0.62862 0.60245 0.00134 0.0
C123 C 0.64627 0.61251 0.02251 0.0
C124 C 0.62798 0.5911 0.00511 0.0
C125 C 0.64533 0.601 0.0259 0.0
C126 C 0.61183 0.63336 0.01016 0.0
C127 C 0.60242 0.62253 0.01861 0.0
C128 C 0.60879 0.6393 0.996 0.0
C129 C 0.59015 0.61772 0.01254 0.0
C130 C 0.59641 0.63419 0.99029 0.0
N131 N 0.58743 0.62359 0.9986 0.0
C132 C 0.62464 0.62709 0.06577 0.0
C133 C 0.61832 0.60832 0.04895 0.0
C134 C 0.61759 0.62051 0.08156 0.0
N135 N 0.62482 0.62094 0.04986 0.0
C136 C 0.61118 0.60136 0.06446 0.0
C137 C 0.6106 0.60748 0.08093 0.0
H138 H 0.62979 0.63714 0.066 0.0
H139 H 0.61826 0.60363 0.03599 0.0
C140 C 0.62573 0.6323 0.95494 0.0
N141 N 0.62195 0.62672 0.97222 0.0
C142 C 0.61827 0.62706 0.93886 0.0
C143 C 0.60324 0.61038 0.95865 0.0
C144 C 0.61103 0.61588 0.97428 0.0
C145 C 0.60679 0.61598 0.9406 0.0
H146 H 0.63453 0.64082 0.95363 0.0
H147 H 0.6083 0.61157 0.98815 0.0
O148 O 0.64893 0.64705 0.03426 0.0
O149 O 0.64791 0.65003 0.98988 0.0
O150 O 0.63849 0.6244 0.00674 0.0
O151 O 0.62393 0.63812 0.01578 0.0
H152 H 0.66729 0.66881 0.04591 0.0
H153 H 0.64931 0.62931 0.05485 0.0
H154 H 0.68242 0.67171 0.07123 0.0
H155 H 0.66481 0.63287 0.07986 0.0
H156 H 0.64325 0.67992 0.96004 0.0
H157 H 0.67166 0.66753 0.98879 0.0
H158 H 0.63463 0.65867 0.97322 0.0
H159 H 0.67966 0.68861 0.97529 0.0
H160 H 0.69917 0.66455 0.01406 0.0
H161 H 0.68246 0.62885 0.98597 0.0
H162 H 0.62374 0.67973 0.02889 0.0
H163 H 0.66388 0.69757 0.03 0.0
H164 H 0.62206 0.60282 0.99164 0.0
H165 H 0.65365 0.62078 0.02907 0.0
H166 H 0.6209 0.58269 0.99838 0.0
H167 H 0.65185 0.60033 0.03535 0.0
H168 H 0.60455 0.61783 0.02966 0.0
H169 H 0.6159 0.64772 0.9894 0.0
H170 H 0.58279 0.60932 0.01888 0.0
H171 H 0.59395 0.63865 0.97925 0.0
H172 H 0.61751 0.62558 0.09405 0.0
H173 H 0.60578 0.59134 0.06328 0.0
H174 H 0.62154 0.63158 0.92519 0.0
H175 H 0.59444 0.60193 0.96079 0.0
Li176 Li 0.36878 0.00079 0.99445 0.0
Li177 Li 0.36884 0.00533 0.02877 0.0
Li178 Li 0.34897 0.9924 0.01259 0.0
Li179 Li 0.36178 0.01498 0.00682 0.0
C180 C 0.36066 0.97743 0.01165 0.0
N181 N 0.35682 0.95428 0.00162 0.0
C182 C 0.36679 0.97228 0.02147 0.0
C183 C 0.35256 0.97081 0.99678 0.0
C184 C 0.36474 0.96057 0.01617 0.0
C185 C 0.35074 0.95912 0.99191 0.0
C186 C 0.38561 0.02884 0.00179 0.0
C187 C 0.39447 0.05089 0.0067 0.0
N188 N 0.39873 0.05298 0.98845 0.0
C189 C 0.39013 0.03122 0.98312 0.0
C190 C 0.38785 0.03876 0.01373 0.0
C191 C 0.39673 0.04348 0.97664 0.0
C192 C 0.37713 0.99996 0.95662 0.0
N193 N 0.37764 0.9975 0.97538 0.0
C194 C 0.39277 0.99149 0.96894 0.0
C195 C 0.38523 0.99332 0.98168 0.0
C196 C 0.39275 0.99426 0.94952 0.0
C197 C 0.38466 0.99841 0.94337 0.0
H198 H 0.37121 0.00354 0.95206 0.0
H199 H 0.38562 0.99165 0.99671 0.0
C200 C 0.37389 0.99686 0.06309 0.0
N201 N 0.37796 0.00686 0.05138 0.0
C202 C 0.38094 0.99734 0.07891 0.0
C203 C 0.3961 0.01848 0.0705 0.0
C204 C 0.38879 0.01756 0.05479 0.0
C205 C 0.39228 0.00822 0.08267 0.0
H206 H 0.36527 0.98844 0.05992 0.0
H207 H 0.39191 0.02529 0.04507 0.0
C208 C 0.34538 0.99839 0.97335 0.0
N209 N 0.3283 0.99232 0.94423 0.0
C210 C 0.33831 0.00426 0.97203 0.0
C211 C 0.34385 0.98953 0.95973 0.0
C212 C 0.3297 0.00104 0.95724 0.0
C213 C 0.33514 0.98656 0.94516 0.0
C214 C 0.35306 0.0072 0.05004 0.0
C215 C 0.34485 0.99688 0.06084 0.0
C216 C 0.36127 0.01831 0.05924 0.0
C217 C 0.34508 0.99779 0.0807 0.0
C218 C 0.36124 0.01885 0.07913 0.0
N219 N 0.35321 0.00866 0.08936 0.0
C220 C 0.33042 0.96925 0.02721 0.0
C221 C 0.32281 0.97878 0.00611 0.0
C222 C 0.31837 0.95949 0.03055 0.0
N223 N 0.33241 0.97867 0.01522 0.0
C224 C 0.31064 0.96909 0.00871 0.0
C225 C 0.30832 0.95938 0.02123 0.0
H226 H 0.33818 0.96947 0.03457 0.0
H227 H 0.3245 0.98652 0.99718 0.0
C228 C 0.36293 0.03393 0.98286 0.0
N229 N 0.36067 0.02936 0.00092 0.0
C230 C 0.36183 0.04428 0.97829 0.0
C231 C 0.35624 0.04509 0.01105 0.0
C232 C 0.35733 0.03467 0.01493 0.0
C233 C 0.35844 0.04998 0.99251 0.0
H234 H 0.3655 0.02947 0.97197 0.0
H235 H 0.3554 0.03074 0.02908 0.0
O236 O 0.36268 0.98894 0.01657 0.0
O237 O 0.37887 0.01687 0.00826 0.0
O238 O 0.35398 0.00155 0.98759 0.0
O239 O 0.35318 0.00639 0.03059 0.0
H240 H 0.37311 0.97731 0.03301 0.0
H241 H 0.34767 0.97462 0.98919 0.0
H242 H 0.36945 0.95648 0.0236 0.0
H243 H 0.34448 0.95388 0.98044 0.0
H244 H 0.39617 0.05864 0.01573 0.0
H245 H 0.3885 0.02369 0.97369 0.0
H246 H 0.38434 0.03711 0.02816 0.0
H247 H 0.40023 0.04544 0.96219 0.0
H248 H 0.39868 0.98809 0.97435 0.0
H249 H 0.38445 0.00086 0.92862 0.0
H250 H 0.37761 0.98926 0.08804 0.0
H251 H 0.40485 0.02698 0.07273 0.0
H252 H 0.3393 0.01109 0.98249 0.0
H253 H 0.34936 0.98501 0.96031 0.0
H254 H 0.32411 0.00545 0.95614 0.0
H255 H 0.33385 0.97969 0.93456 0.0
H256 H 0.33839 0.98823 0.054 0.0
H257 H 0.36776 0.02638 0.05115 0.0
H258 H 0.33881 0.98985 0.08923 0.0
H259 H 0.36762 0.02735 0.08643 0.0
H260 H 0.3169 0.95214 0.04035 0.0
H261 H 0.30308 0.96939 0.00152 0.0
H262 H 0.36369 0.04783 0.96385 0.0
H263 H 0.35345 0.04912 0.02235 0.0
Li264 Li 0.0107 0.65246 0.01431 0.0
Li265 Li 0.99567 0.63191 0.02689 0.0
Li266 Li 0.99944 0.63511 0.99179 0.0
Li267 Li 0.98769 0.64321 0.00854 0.0
C268 C 0.02334 0.63973 0.00997 0.0
N269 N 0.04788 0.64602 0.00513 0.0
C270 C 0.02915 0.636 0.02338 0.0
C271 C 0.02997 0.64653 0.99401 0.0
C272 C 0.04157 0.63931 0.02071 0.0
C273 C 0.04238 0.64965 0.99183 0.0
C274 C 0.99508 0.64823 0.05211 0.0
C275 C 0.98133 0.6444 0.07874 0.0
N276 N 0.99112 0.64828 0.09088 0.0
C277 C 0.00502 0.65236 0.06484 0.0
C278 C 0.98315 0.64436 0.0591 0.0
C279 C 0.00282 0.65224 0.08438 0.0
C280 C 0.02648 0.67842 0.01426 0.0
N281 N 0.02536 0.66755 0.02053 0.0
C282 C 0.04294 0.67847 0.04095 0.0
C283 C 0.03351 0.66739 0.03327 0.0
C284 C 0.04393 0.68981 0.03552 0.0
C285 C 0.03583 0.68975 0.02151 0.0
H286 H 0.0197 0.67825 0.00442 0.0
H287 H 0.03224 0.65864 0.03841 0.0
C288 C 0.983 0.60934 0.04827 0.0
N289 N 0.99326 0.62083 0.0473 0.0
C290 C 0.98204 0.60096 0.06238 0.0
C291 C 0.00224 0.61638 0.07412 0.0
C292 C 0.00276 0.62446 0.0599 0.0
C293 C 0.99182 0.60438 0.07541 0.0
H294 H 0.97571 0.60651 0.03781 0.0
H295 H 0.01095 0.63352 0.0585 0.0
C296 C 0.00419 0.6566 0.97231 0.0
N297 N 0.00883 0.66563 0.93543 0.0
C298 C 0.99433 0.65387 0.95993 0.0
C299 C 0.01641 0.66416 0.96604 0.0
C300 C 0.99687 0.65845 0.94131 0.0
C301 C 0.01856 0.66857 0.94732 0.0
C302 C 0.97065 0.61867 0.00533 0.0
C303 C 0.96445 0.61226 0.98883 0.0
C304 C 0.96379 0.61807 0.02147 0.0
C305 C 0.95147 0.60553 0.98867 0.0
C306 C 0.95083 0.61124 0.02076 0.0
N307 N 0.94498 0.60517 0.0045 0.0
C308 C 0.00733 0.62176 0.96818 0.0
C309 C 0.99155 0.62491 0.95504 0.0
C310 C 0.00633 0.61408 0.95295 0.0
N311 N 0.99994 0.62694 0.96902 0.0
C312 C 0.99007 0.6171 0.93974 0.0
C313 C 0.99738 0.61143 0.93878 0.0
H314 H 0.01357 0.62304 0.97977 0.0
H315 H 0.9855 0.62877 0.95629 0.0
C316 C 0.97677 0.65747 0.01718 0.0
N317 N 0.97529 0.64787 0.00607 0.0
C318 C 0.96912 0.66259 0.01472 0.0
C319 C 0.95836 0.64771 0.9896 0.0
C320 C 0.96621 0.64284 0.99261 0.0
C321 C 0.95994 0.65791 0.00047 0.0
H322 H 0.98421 0.66145 0.02754 0.0
H323 H 0.9654 0.63542 0.98361 0.0
O324 O 0.01125 0.63678 0.01251 0.0
O325 O 0.99705 0.64823 0.0329 0.0
O326 O 0.00187 0.65226 0.99065 0.0
O327 O 0.98337 0.62548 0.00568 0.0
H328 H 0.02414 0.63062 0.03573 0.0
H329 H 0.02554 0.64924 0.98333 0.0
H330 H 0.04619 0.63654 0.03102 0.0
H331 H 0.04761 0.65493 0.97954 0.0
H332 H 0.97214 0.64139 0.08433 0.0
H333 H 0.01432 0.6555 0.05972 0.0
H334 H 0.97539 0.64148 0.04949 0.0
H335 H 0.01043 0.6553 0.09439 0.0
H336 H 0.04904 0.67813 0.05166 0.0
H337 H 0.03619 0.69828 0.01713 0.0
H338 H 0.97379 0.59186 0.06289 0.0
H339 H 0.01014 0.61937 0.08353 0.0
H340 H 0.98482 0.64818 0.96459 0.0
H341 H 0.02416 0.6667 0.97556 0.0
H342 H 0.98932 0.6563 0.93153 0.0
H343 H 0.02798 0.67439 0.94226 0.0
H344 H 0.96957 0.61246 0.97628 0.0
H345 H 0.96844 0.62274 0.03444 0.0
H346 H 0.94655 0.60057 0.97597 0.0
H347 H 0.94541 0.61073 0.03315 0.0
H348 H 0.01197 0.60969 0.95284 0.0
H349 H 0.98303 0.61521 0.92909 0.0
H350 H 0.97059 0.67035 0.02356 0.0
H351 H 0.95155 0.64393 0.97824 0.0
Li352 Li 0.34935 0.35917 0.01538 0.0
Li353 Li 0.37056 0.36633 0.02647 0.0
Li354 Li 0.36698 0.36664 0.99279 0.0
Li355 Li 0.35964 0.34737 0.00936 0.0
C356 C 0.367 0.38578 0.02489 0.0
N357 N 0.37338 0.40516 0.05005 0.0
C358 C 0.36034 0.3838 0.04184 0.0
C359 C 0.37688 0.39763 0.02073 0.0
C360 C 0.36371 0.39371 0.05437 0.0
C361 C 0.37996 0.40731 0.03363 0.0
C362 C 0.35508 0.34261 0.04603 0.0
C363 C 0.36606 0.33362 0.06154 0.0
N364 N 0.35507 0.3242 0.06813 0.0
C365 C 0.34389 0.33285 0.05296 0.0
C366 C 0.36626 0.34301 0.05034 0.0
C367 C 0.34409 0.32363 0.06411 0.0
C368 C 0.32427 0.34715 0.02641 0.0
N369 N 0.33388 0.35821 0.02052 0.0
C370 C 0.32145 0.36783 0.02342 0.0
C371 C 0.33262 0.3684 0.01856 0.0
C372 C 0.31148 0.35664 0.03025 0.0
C373 C 0.31294 0.34615 0.03143 0.0
H374 H 0.32548 0.33914 0.02744 0.0
H375 H 0.34035 0.37703 0.01348 0.0
C376 C 0.39383 0.38354 0.04294 0.0
N377 N 0.38167 0.37535 0.04661 0.0
C378 C 0.40158 0.39128 0.05742 0.0
C379 C 0.38412 0.38184 0.0791 0.0
C380 C 0.37678 0.37419 0.06433 0.0
C381 C 0.39662 0.39064 0.07565 0.0
H382 H 0.3974 0.38433 0.02863 0.0
H383 H 0.36705 0.36766 0.06678 0.0
C384 C 0.34259 0.3526 0.97801 0.0
N385 N 0.32728 0.35494 0.95182 0.0
C386 C 0.33399 0.34228 0.96757 0.0
C387 C 0.34338 0.36411 0.97518 0.0
C388 C 0.32634 0.34365 0.95438 0.0
C389 C 0.33556 0.3651 0.96186 0.0
C390 C 0.38284 0.35726 0.99207 0.0
C391 C 0.37603 0.35022 0.97635 0.0
C392 C 0.39543 0.36094 0.99363 0.0
C393 C 0.38194 0.34696 0.96248 0.0
C394 C 0.401 0.35749 0.97945 0.0
N395 N 0.3942 0.35063 0.96429 0.0
C396 C 0.38501 0.38643 0.97101 0.0
C397 C 0.36948 0.37017 0.95239 0.0
C398 C 0.39129 0.39287 0.95459 0.0
N399 N 0.37429 0.37534 0.96964 0.0
C400 C 0.37543 0.37629 0.93563 0.0
C401 C 0.38655 0.38775 0.93657 0.0
H402 H 0.38887 0.3901 0.98489 0.0
H403 H 0.36119 0.36115 0.95158 0.0
C404 C 0.34367 0.32196 0.00581 0.0
N405 N 0.35592 0.33055 0.00755 0.0
C406 C 0.33988 0.30938 0.0042 0.0
C407 C 0.36142 0.31468 0.00614 0.0
C408 C 0.36477 0.32717 0.00808 0.0
C409 C 0.34883 0.30564 0.00414 0.0
H410 H 0.33684 0.32494 0.0056 0.0
H411 H 0.37443 0.33414 0.00992 0.0
O412 O 0.36403 0.3761 0.01268 0.0
O413 O 0.35508 0.35149 0.03451 0.0
O414 O 0.35002 0.3513 0.9911 0.0
O415 O 0.37736 0.36072 0.00581 0.0
H416 H 0.35281 0.37464 0.04547 0.0
H417 H 0.38213 0.39936 0.0077 0.0
H418 H 0.3587 0.39228 0.06759 0.0
H419 H 0.38761 0.41652 0.03061 0.0
H420 H 0.37464 0.33379 0.0649 0.0
H421 H 0.33515 0.33234 0.04971 0.0
H422 H 0.37499 0.35039 0.04483 0.0
H423 H 0.3355 0.316 0.06953 0.0
H424 H 0.32066 0.37608 0.02195 0.0
H425 H 0.30554 0.33735 0.03673 0.0
H426 H 0.41117 0.39801 0.05424 0.0
H427 H 0.38 0.38102 0.09303 0.0
H428 H 0.33324 0.3333 0.96966 0.0
H429 H 0.34998 0.37221 0.98309 0.0
H430 H 0.31965 0.33575 0.94618 0.0
H431 H 0.33609 0.37395 0.95951 0.0
H432 H 0.36628 0.34725 0.97486 0.0
H433 H 0.40083 0.36642 0.00568 0.0
H434 H 0.37678 0.34151 0.95026 0.0
H435 H 0.41074 0.36027 0.98048 0.0
H436 H 0.39998 0.40154 0.95601 0.0
H437 H 0.3714 0.37201 0.92206 0.0
H438 H 0.33009 0.30267 0.00256 0.0
H439 H 0.36855 0.3121 0.0063 0.0
Li440 Li 0.64151 0.98874 0.01435 0.0
Li441 Li 0.63656 0.00389 0.02849 0.0
Li442 Li 0.63317 0.99882 0.9947 0.0
Li443 Li 0.65435 0.01107 0.00776 0.0
C444 C 0.61321 0.98102 0.01102 0.0
N445 N 0.58897 0.96845 0.99806 0.0
C446 C 0.60496 0.98511 0.01602 0.0
C447 C 0.60913 0.97052 0.99948 0.0
C448 C 0.59274 0.97862 0.00932 0.0
C449 C 0.59684 0.9643 0.99305 0.0
C450 C 0.65273 0.00336 0.05161 0.0
C451 C 0.65902 0.01573 0.08025 0.0
N452 N 0.65406 0.00516 0.09087 0.0
C453 C 0.64774 0.99262 0.06278 0.0
C454 C 0.65847 0.01502 0.06037 0.0
C455 C 0.6485 0.99373 0.08262 0.0
C456 C 0.65392 0.97527 0.01886 0.0
N457 N 0.64249 0.9742 0.01942 0.0
C458 C 0.63328 0.95297 0.02917 0.0
C459 C 0.63225 0.96336 0.0245 0.0
C460 C 0.64498 0.95376 0.02856 0.0
C461 C 0.65535 0.9651 0.02309 0.0
H462 H 0.66196 0.9841 0.01526 0.0
H463 H 0.62333 0.96285 0.02538 0.0
C464 C 0.62969 0.01815 0.05193 0.0
N465 N 0.62927 0.00707 0.05 0.0
C466 C 0.62294 0.01984 0.06637 0.0
C467 C 0.61565 0.99875 0.07675 0.0
C468 C 0.62254 0.99748 0.06212 0.0
C469 C 0.61561 0.00998 0.07883 0.0
H470 H 0.6349 0.02553 0.04187 0.0
H471 H 0.62214 0.98867 0.05995 0.0
C472 C 0.65241 0.9904 0.98075 0.0
N473 N 0.66182 0.97648 0.96476 0.0
C474 C 0.66524 0.9955 0.9786 0.0
C475 C 0.64437 0.97825 0.97461 0.0
C476 C 0.66981 0.98831 0.97051 0.0
C477 C 0.6493 0.97135 0.96662 0.0
C478 C 0.6473 0.02765 0.00172 0.0
C479 C 0.64625 0.03113 0.98316 0.0
C480 C 0.65512 0.03672 0.01474 0.0
C481 C 0.65307 0.04364 0.97794 0.0
C482 C 0.66181 0.04913 0.00896 0.0
N483 N 0.66065 0.0523 0.99083 0.0
C484 C 0.61611 0.00342 0.97563 0.0
C485 C 0.61987 0.98875 0.95985 0.0
C486 C 0.60754 0.00214 0.9617 0.0
N487 N 0.62211 0.99682 0.97441 0.0
C488 C 0.61118 0.98701 0.94577 0.0
C489 C 0.60495 0.9938 0.9466 0.0
H490 H 0.61794 0.00962 0.98755 0.0
H491 H 0.6247 0.98356 0.95928 0.0
C492 C 0.67984 0.02416 0.0156 0.0
N493 N 0.67118 0.02354 0.00309 0.0
C494 C 0.69248 0.03176 0.01176 0.0
C495 C 0.68709 0.03841 0.98268 0.0
C496 C 0.67454 0.03045 0.98685 0.0
C497 C 0.69618 0.03888 0.99505 0.0
H498 H 0.67694 0.01834 0.02815 0.0
H499 H 0.66752 0.02941 0.97675 0.0
O500 O 0.62527 0.98739 0.01712 0.0
O501 O 0.65186 0.00247 0.03219 0.0
O502 O 0.64777 0.99726 0.98879 0.0
O503 O 0.64071 0.01545 0.00711 0.0
H504 H 0.608 0.99327 0.02484 0.0
H505 H 0.61542 0.96729 0.99536 0.0
H506 H 0.58626 0.98169 0.01302 0.0
H507 H 0.59358 0.9562 0.98402 0.0
H508 H 0.66339 0.02469 0.08724 0.0
H509 H 0.64323 0.98352 0.05622 0.0
H510 H 0.6624 0.02341 0.05191 0.0
H511 H 0.64462 0.9855 0.09146 0.0
H512 H 0.62505 0.94455 0.0337 0.0
H513 H 0.66453 0.96617 0.02212 0.0
H514 H 0.62326 0.02868 0.06754 0.0
H515 H 0.60998 0.99083 0.08577 0.0
H516 H 0.67163 0.00488 0.9832 0.0
H517 H 0.63443 0.9741 0.97631 0.0
H518 H 0.67972 0.99213 0.96884 0.0
H519 H 0.64318 0.96191 0.96196 0.0
H520 H 0.64036 0.02424 0.97281 0.0
H521 H 0.65611 0.03419 0.02911 0.0
H522 H 0.65239 0.04645 0.96361 0.0
H523 H 0.66794 0.05623 0.01887 0.0
H524 H 0.6028 0.00743 0.9629 0.0
H525 H 0.60944 0.98053 0.93426 0.0
H526 H 0.6993 0.03182 0.02145 0.0
H527 H 0.68968 0.04361 0.96946 0.0
Li528 Li 0.65751 0.68298 0.3371 0.0
Li529 Li 0.67946 0.69338 0.34517 0.0
Li530 Li 0.66614 0.70129 0.35774 0.0
Li531 Li 0.67231 0.70383 0.32485 0.0
C532 C 0.65621 0.67847 0.37611 0.0
N533 N 0.63828 0.66513 0.40321 0.0
C534 C 0.65856 0.67214 0.3905 0.0
C535 C 0.64472 0.67797 0.37544 0.0
C536 C 0.64937 0.66545 0.40408 0.0
C537 C 0.63579 0.6712 0.3893 0.0
C538 C 0.67837 0.68326 0.31105 0.0
C539 C 0.69775 0.68601 0.29888 0.0
N540 N 0.69203 0.67368 0.29472 0.0
C541 C 0.67266 0.67064 0.30645 0.0
C542 C 0.69099 0.69103 0.30704 0.0
C543 C 0.67974 0.66597 0.29827 0.0
C544 C 0.63249 0.6637 0.32622 0.0
N545 N 0.64377 0.66651 0.33342 0.0
C546 C 0.637 0.64494 0.33749 0.0
C547 C 0.64609 0.65743 0.33922 0.0
C548 C 0.62536 0.64173 0.32974 0.0
C549 C 0.62313 0.65129 0.32412 0.0
H550 H 0.63065 0.67099 0.32216 0.0
H551 H 0.65509 0.65993 0.34507 0.0
C552 C 0.70411 0.69875 0.35475 0.0
N553 N 0.69225 0.68973 0.3509 0.0
C554 C 0.71332 0.69561 0.35787 0.0
C555 C 0.69789 0.67402 0.35293 0.0
C556 C 0.68897 0.67753 0.3503 0.0
C557 C 0.71024 0.68312 0.35668 0.0
H558 H 0.70642 0.70837 0.35521 0.0
H559 H 0.67943 0.67056 0.34741 0.0
C560 C 0.64705 0.69599 0.32064 0.0
N561 N 0.63059 0.69209 0.29134 0.0
C562 C 0.6488 0.69225 0.30264 0.0
C563 C 0.63692 0.69777 0.32366 0.0
C564 C 0.64038 0.69034 0.28803 0.0
C565 C 0.6287 0.69573 0.30869 0.0
C566 C 0.69058 0.72293 0.34276 0.0
C567 C 0.68746 0.73172 0.34887 0.0
C568 C 0.70108 0.72667 0.33134 0.0
C569 C 0.69482 0.7441 0.34324 0.0
C570 C 0.70818 0.73913 0.32597 0.0
N571 N 0.70492 0.74751 0.33197 0.0
C572 C 0.67096 0.71356 0.39362 0.0
C573 C 0.65201 0.70899 0.37873 0.0
C574 C 0.66843 0.71914 0.40898 0.0
N575 N 0.66276 0.70864 0.37895 0.0
C576 C 0.64908 0.71438 0.39378 0.0
C577 C 0.65732 0.71952 0.40919 0.0
H578 H 0.67946 0.71317 0.39336 0.0
H579 H 0.6457 0.70505 0.36686 0.0
C580 C 0.68196 0.71351 0.28803 0.0
N581 N 0.6766 0.71507 0.30386 0.0
C582 C 0.68567 0.72205 0.27309 0.0
C583 C 0.67804 0.73352 0.29082 0.0
C584 C 0.67436 0.72468 0.30534 0.0
C585 C 0.6839 0.73234 0.27446 0.0
H586 H 0.68337 0.70564 0.28697 0.0
H587 H 0.66991 0.72559 0.31799 0.0
O588 O 0.66508 0.68494 0.36263 0.0
O589 O 0.67163 0.68796 0.3194 0.0
O590 O 0.65516 0.69798 0.33526 0.0
O591 O 0.68337 0.71073 0.34785 0.0
H592 H 0.66738 0.67238 0.39113 0.0
H593 H 0.64269 0.68269 0.36429 0.0
H594 H 0.65106 0.66051 0.4153 0.0
H595 H 0.62687 0.67074 0.38897 0.0
H596 H 0.70754 0.6919 0.2959 0.0
H597 H 0.66287 0.66453 0.3091 0.0
H598 H 0.69555 0.70082 0.31046 0.0
H599 H 0.67544 0.65621 0.29473 0.0
H600 H 0.63918 0.63789 0.34182 0.0
H601 H 0.61421 0.64922 0.31834 0.0
H602 H 0.72276 0.70286 0.36079 0.0
H603 H 0.69516 0.66427 0.35218 0.0
H604 H 0.6565 0.69077 0.29988 0.0
H605 H 0.63538 0.70066 0.33743 0.0
H606 H 0.64163 0.68744 0.27407 0.0
H607 H 0.62081 0.69703 0.31088 0.0
H608 H 0.67934 0.729 0.35766 0.0
H609 H 0.70368 0.72001 0.32658 0.0
H610 H 0.69246 0.75098 0.34776 0.0
H611 H 0.71627 0.74213 0.31702 0.0
H612 H 0.67498 0.72292 0.42067 0.0
H613 H 0.64049 0.71462 0.39327 0.0
H614 H 0.68984 0.72055 0.26056 0.0
H615 H 0.67653 0.74132 0.2926 0.0
Li616 Li 0.29434 0.96634 0.32701 0.0
Li617 Li 0.29793 0.96547 0.36204 0.0
Li618 Li 0.30527 0.9862 0.34494 0.0
Li619 Li 0.31461 0.97383 0.3392 0.0
C620 C 0.27581 0.96737 0.35227 0.0
N621 N 0.25075 0.9577 0.35922 0.0
C622 C 0.26814 0.95464 0.35545 0.0
C623 C 0.27071 0.97516 0.35238 0.0
C624 C 0.25551 0.94994 0.35904 0.0
C625 C 0.25802 0.9701 0.35595 0.0
C626 C 0.30697 0.95025 0.34203 0.0
C627 C 0.31765 0.94211 0.3606 0.0
N628 N 0.32063 0.93828 0.34429 0.0
C629 C 0.31015 0.94623 0.32546 0.0
C630 C 0.31079 0.9482 0.35975 0.0
C631 C 0.31706 0.94021 0.3269 0.0
C632 C 0.28687 0.95235 0.29333 0.0
N633 N 0.28292 0.95747 0.30675 0.0
C634 C 0.26282 0.94818 0.29223 0.0
C635 C 0.27125 0.95584 0.30608 0.0
C636 C 0.26644 0.94222 0.2788 0.0
C637 C 0.27875 0.94462 0.27921 0.0
H638 H 0.29629 0.95411 0.29378 0.0
H639 H 0.26838 0.96034 0.31634 0.0
C640 C 0.29029 0.96303 0.40045 0.0
N641 N 0.29031 0.95661 0.38481 0.0
C642 C 0.28359 0.9567 0.41668 0.0
C643 C 0.27727 0.93727 0.40047 0.0
C644 C 0.28409 0.94398 0.38458 0.0
C645 C 0.27681 0.94363 0.41673 0.0
H646 H 0.29524 0.97308 0.40014 0.0
H647 H 0.28408 0.93911 0.37181 0.0
C648 C 0.30634 0.98785 0.30595 0.0
N649 N 0.30001 0.99978 0.27863 0.0
C650 C 0.31452 0.99428 0.29102 0.0
C651 C 0.29497 0.98758 0.30701 0.0
C652 C 0.31115 1.00024 0.27735 0.0
C653 C 0.29193 0.99362 0.29305 0.0
C654 C 0.32536 0.9866 0.37168 0.0
C655 C 0.33508 0.99739 0.36365 0.0
C656 C 0.32757 0.98129 0.38768 0.0
C657 C 0.34695 0.00259 0.37163 0.0
C658 C 0.33956 0.98679 0.39526 0.0
N659 N 0.34892 0.99723 0.38713 0.0
C660 C 0.30142 0.00486 0.36126 0.0
C661 C 0.3173 0.01192 0.33793 0.0
C662 C 0.30383 0.01698 0.36428 0.0
N663 N 0.30809 0.00258 0.34819 0.0
C664 C 0.32011 0.02418 0.3406 0.0
C665 C 0.31336 0.02688 0.35397 0.0
H666 H 0.29434 0.99729 0.36954 0.0
H667 H 0.32267 0.00988 0.32794 0.0
C668 C 0.33446 0.97976 0.31489 0.0
N669 N 0.33055 0.97565 0.33289 0.0
C670 C 0.34633 0.98271 0.30899 0.0
C671 C 0.3498 0.97642 0.33989 0.0
C672 C 0.33783 0.97366 0.34525 0.0
C673 C 0.35426 0.98131 0.32168 0.0
H674 H 0.32841 0.98093 0.30515 0.0
H675 H 0.33452 0.97021 0.35942 0.0
O676 O 0.28822 0.9722 0.34883 0.0
O677 O 0.30034 0.95632 0.34094 0.0
O678 O 0.30966 0.98211 0.31955 0.0
O679 O 0.31371 0.98131 0.36404 0.0
H680 H 0.27186 0.94843 0.35484 0.0
H681 H 0.27644 0.98499 0.34953 0.0
H682 H 0.24946 0.94011 0.36157 0.0
H683 H 0.25396 0.97602 0.35608 0.0
H684 H 0.3207 0.94052 0.37421 0.0
H685 H 0.30741 0.94781 0.31161 0.0
H686 H 0.30869 0.95149 0.3727 0.0
H687 H 0.31961 0.93709 0.31418 0.0
H688 H 0.25353 0.94689 0.29213 0.0
H689 H 0.28199 0.94026 0.26915 0.0
H690 H 0.28363 0.96198 0.42898 0.0
H691 H 0.27205 0.92723 0.39973 0.0
H692 H 0.32344 0.99477 0.29002 0.0
H693 H 0.28853 0.98281 0.31844 0.0
H694 H 0.3174 0.00525 0.26575 0.0
H695 H 0.28314 0.99344 0.29371 0.0
H696 H 0.3335 0.00159 0.35126 0.0
H697 H 0.32011 0.97296 0.39408 0.0
H698 H 0.35459 0.01088 0.36549 0.0
H699 H 0.34144 0.98275 0.40758 0.0
H700 H 0.29831 0.01857 0.37463 0.0
H701 H 0.32773 0.03148 0.33264 0.0
H702 H 0.3493 0.98616 0.29465 0.0
H703 H 0.35563 0.97516 0.35006 0.0
Li704 Li 0.03533 0.33185 0.32786 0.0
Li705 Li 0.03652 0.33587 0.36164 0.0
Li706 Li 0.01651 0.32217 0.34723 0.0
Li707 Li 0.02733 0.3451 0.3414 0.0
C708 C 0.03941 0.3156 0.34994 0.0
N709 N 0.05665 0.30778 0.35147 0.0
C710 C 0.05209 0.32429 0.35069 0.0
C711 C 0.03548 0.30292 0.34998 0.0
C712 C 0.06067 0.32016 0.35146 0.0
C713 C 0.04434 0.29915 0.35075 0.0
C714 C 0.05545 0.35888 0.34197 0.0
C715 C 0.0673 0.38075 0.34945 0.0
N716 N 0.07786 0.38094 0.34381 0.0
C717 C 0.06643 0.35933 0.33612 0.0
C718 C 0.05589 0.36971 0.34857 0.0
C719 C 0.07766 0.37055 0.33721 0.0
C720 C 0.05113 0.34129 0.2967 0.0
N721 N 0.04396 0.33057 0.30641 0.0
C722 C 0.0513 0.31976 0.28704 0.0
C723 C 0.04367 0.31982 0.30163 0.0
C724 C 0.05932 0.33088 0.27752 0.0
C725 C 0.059 0.34168 0.28223 0.0
H726 H 0.05102 0.34964 0.30064 0.0
H727 H 0.03778 0.31138 0.30943 0.0
C728 C 0.04358 0.32836 0.39515 0.0
N729 N 0.04628 0.33843 0.38421 0.0
C730 C 0.05089 0.32952 0.41102 0.0
C731 C 0.06342 0.35148 0.40441 0.0
C732 C 0.05587 0.34988 0.38872 0.0
C733 C 0.06105 0.3412 0.41573 0.0
H734 H 0.03582 0.31936 0.39138 0.0
H735 H 0.05776 0.35781 0.38012 0.0
C736 C 0.01336 0.32321 0.30766 0.0
N737 N 0.00139 0.30702 0.27789 0.0
C738 C 0.00835 0.32672 0.29271 0.0
C739 C 0.0123 0.31147 0.30749 0.0
C740 C 0.00232 0.3184 0.27778 0.0
C741 C 0.00621 0.30342 0.29231 0.0
C742 C 0.0207 0.33893 0.38407 0.0
C743 C 0.01249 0.33009 0.39701 0.0
C744 C 0.02888 0.35103 0.39025 0.0
C745 C 0.01257 0.33354 0.41599 0.0
C746 C 0.02872 0.35409 0.40936 0.0
N747 N 0.02062 0.34536 0.42172 0.0
C748 C 0.99817 0.29718 0.35667 0.0
C749 C 0.9909 0.31025 0.34478 0.0
C750 C 0.98597 0.28728 0.3583 0.0
N751 N 1.00034 0.30835 0.35 0.0
C752 C 0.97862 0.30065 0.34614 0.0
C753 C 0.976 0.28896 0.35295 0.0
H754 H 0.0059 0.29596 0.3607 0.0
H755 H 0.99296 0.31928 0.3396 0.0
C756 C 0.02942 0.36527 0.32048 0.0
N757 N 0.0249 0.3587 0.33687 0.0
C758 C 0.0279 0.37545 0.31672 0.0
C759 C 0.01712 0.37191 0.3468 0.0
C760 C 0.01873 0.36172 0.34988 0.0
C761 C 0.02174 0.37891 0.33004 0.0
H762 H 0.03426 0.36261 0.31041 0.0
H763 H 0.01505 0.3562 0.36264 0.0
O764 O 0.03082 0.3194 0.34892 0.0
O765 O 0.04431 0.34803 0.34067 0.0
O766 O 0.01928 0.33127 0.32235 0.0
O767 O 0.02051 0.33583 0.36533 0.0
H768 H 0.05527 0.3341 0.35078 0.0
H769 H 0.02569 0.29606 0.34931 0.0
H770 H 0.07052 0.3268 0.35207 0.0
H771 H 0.04144 0.28936 0.35075 0.0
H772 H 0.06777 0.38917 0.3546 0.0
H773 H 0.06631 0.35114 0.33066 0.0
H774 H 0.04753 0.36961 0.35309 0.0
H775 H 0.08621 0.37101 0.33275 0.0
H776 H 0.0513 0.31124 0.28378 0.0
H777 H 0.06492 0.35039 0.27499 0.0
H778 H 0.04858 0.32138 0.41952 0.0
H779 H 0.0712 0.36064 0.40737 0.0
H780 H 0.00911 0.33578 0.29265 0.0
H781 H 0.01611 0.30858 0.31895 0.0
H782 H 0.99839 0.32098 0.2661 0.0
H783 H 0.00532 0.2943 0.29199 0.0
H784 H 0.00606 0.3207 0.39239 0.0
H785 H 0.03527 0.35798 0.38039 0.0
H786 H 0.00621 0.32682 0.42616 0.0
H787 H 0.03501 0.36342 0.41434 0.0
H788 H 0.98437 0.2784 0.36354 0.0
H789 H 0.97124 0.30245 0.34221 0.0
H790 H 0.03167 0.38069 0.30369 0.0
H791 H 0.01219 0.37421 0.35728 0.0
Li792 Li 0.67981 0.98474 0.34779 0.0
Li793 Li 0.66577 0.96255 0.3577 0.0
Li794 Li 0.67346 0.96881 0.32362 0.0
Li795 Li 0.65861 0.9738 0.33722 0.0
C796 C 0.69515 0.97655 0.35333 0.0
N797 N 0.7194 0.9895 0.36616 0.0
C798 C 0.69807 0.97449 0.3717 0.0
C799 C 0.70455 0.98515 0.34144 0.0
C800 C 0.7104 0.98114 0.37793 0.0
C801 C 0.71676 0.99162 0.34821 0.0
C802 C 0.65643 0.97949 0.37313 0.0
C803 C 0.6375 0.9721 0.39112 0.0
N804 N 0.63893 0.98368 0.39046 0.0
C805 C 0.65777 0.99133 0.37273 0.0
C806 C 0.64627 0.96979 0.38246 0.0
C807 C 0.64879 0.99326 0.38154 0.0
C808 C 0.69795 0.01067 0.34694 0.0
N809 N 0.6922 1.00027 0.3579 0.0
C810 C 0.70158 0.01211 0.38603 0.0
C811 C 0.69401 0.00075 0.37706 0.0
C812 C 0.70731 0.02308 0.37519 0.0
C813 C 0.70569 0.02224 0.35533 0.0
H814 H 0.6961 0.01008 0.33184 0.0
H815 H 0.68917 0.99234 0.38544 0.0
C816 C 0.65523 0.93817 0.37196 0.0
N817 N 0.6617 0.95038 0.37689 0.0
C818 C 0.65166 0.92899 0.38589 0.0
C819 C 0.66209 0.94512 0.40954 0.0
C820 C 0.66521 0.95401 0.39521 0.0
C821 C 0.65511 0.93247 0.4049 0.0
H822 H 0.65278 0.93558 0.35722 0.0
H823 H 0.67037 0.9638 0.39867 0.0
C824 C 0.67456 0.98772 0.30297 0.0
N825 N 0.6766 0.99331 0.26452 0.0
C826 C 0.66397 0.98266 0.29144 0.0
C827 C 0.68618 0.99572 0.29493 0.0
C828 C 0.66519 0.98558 0.27204 0.0
C829 C 0.68702 0.9984 0.27547 0.0
C830 C 0.64505 0.94941 0.3252 0.0
C831 C 0.64341 0.94992 0.30557 0.0
C832 C 0.63509 0.94091 0.33637 0.0
C833 C 0.63176 0.94211 0.29752 0.0
C834 C 0.62358 0.93326 0.32778 0.0
N835 N 0.62216 0.93402 0.3087 0.0
C836 C 0.67121 0.95016 0.29888 0.0
C837 C 0.68888 0.96972 0.29223 0.0
C838 C 0.67442 0.94457 0.28446 0.0
N839 N 0.67833 0.96254 0.30237 0.0
C840 C 0.69248 0.96449 0.27769 0.0
C841 C 0.68522 0.95174 0.27368 0.0
H842 H 0.66318 0.94451 0.30764 0.0
H843 H 0.69468 0.97942 0.29566 0.0
C844 C 0.64672 0.98711 0.32553 0.0
N845 N 0.64462 0.9762 0.33331 0.0
C846 C 0.63696 0.98951 0.32316 0.0
C847 C 0.62309 0.9696 0.33742 0.0
C848 C 0.63313 0.96763 0.33959 0.0
C849 C 0.6249 0.98065 0.32904 0.0
H850 H 0.65604 0.99403 0.32135 0.0
H851 H 0.63175 0.95936 0.34673 0.0
O852 O 0.68311 0.97036 0.34711 0.0
O853 O 0.66494 0.97734 0.36418 0.0
O854 O 0.67358 0.985 0.32204 0.0
O855 O 0.65643 0.95692 0.33334 0.0
H856 H 0.6909 0.96787 0.38107 0.0
H857 H 0.70241 0.98695 0.32728 0.0
H858 H 0.7128 0.97966 0.39213 0.0
H859 H 0.72411 0.99836 0.33921 0.0
H860 H 0.62954 0.96468 0.39829 0.0
H861 H 0.6656 0.99891 0.36552 0.0
H862 H 0.64508 0.96056 0.38279 0.0
H863 H 0.64965 0.00235 0.38125 0.0
H864 H 0.70266 0.01236 0.40138 0.0
H865 H 0.70981 0.0305 0.34651 0.0
H866 H 0.64632 0.91928 0.38189 0.0
H867 H 0.66485 0.94807 0.42413 0.0
H868 H 0.65488 0.9766 0.29738 0.0
H869 H 0.69451 0.99965 0.30354 0.0
H870 H 0.65706 0.9817 0.26298 0.0
H871 H 0.69598 0.00449 0.26906 0.0
H872 H 0.65108 0.95615 0.2966 0.0
H873 H 0.63615 0.9404 0.35159 0.0
H874 H 0.63037 0.94244 0.28235 0.0
H875 H 0.61576 0.92673 0.33631 0.0
H876 H 0.66872 0.93465 0.28218 0.0
H877 H 0.7009 0.97036 0.26974 0.0
H878 H 0.63888 0.9983 0.31703 0.0
H879 H 0.61399 0.96246 0.34215 0.0
Li880 Li 0.03599 0.70264 0.36307 0.0
Li881 Li 0.01482 0.69707 0.35077 0.0
Li882 Li 0.02509 0.68454 0.34292 0.0
Li883 Li 0.03276 0.70493 0.32973 0.0
C884 C 0.02009 0.68627 0.38749 0.0
N885 N 0.02137 0.68465 0.42661 0.0
C886 C 0.01276 0.68907 0.39928 0.0
C887 C 0.02803 0.6826 0.39558 0.0
C888 C 0.01354 0.68819 0.41904 0.0
C889 C 0.02856 0.68186 0.41539 0.0
C890 C 0.03516 0.72524 0.34537 0.0
C891 C 0.03417 0.74045 0.32524 0.0
N892 N 0.04593 0.74899 0.33059 0.0
C893 C 0.0472 0.73418 0.35076 0.0
C894 C 0.02855 0.72839 0.33259 0.0
C895 C 0.05249 0.74613 0.3431 0.0
C896 C 0.05962 0.71307 0.37922 0.0
N897 N 0.04783 0.71048 0.38297 0.0
C898 C 0.05427 0.7212 0.41277 0.0
C899 C 0.045 0.71442 0.39932 0.0
C900 C 0.06657 0.72421 0.40903 0.0
C901 C 0.06918 0.71997 0.39209 0.0
H902 H 0.06169 0.71011 0.36592 0.0
H903 H 0.03564 0.71259 0.40168 0.0
C904 C 0.98936 0.68446 0.35862 0.0
N905 N 0.99951 0.69598 0.35714 0.0
C906 C 0.97798 0.68304 0.36444 0.0
C907 C 0.98768 0.7054 0.36662 0.0
C908 C 0.9989 0.70637 0.3609 0.0
C909 C 0.97704 0.6936 0.3687 0.0
H910 H 0.9902 0.67637 0.35569 0.0
H911 H 0.00716 0.71541 0.35972 0.0
C912 C 0.04818 0.69192 0.33425 0.0
N913 N 0.05918 0.67892 0.32041 0.0
C914 C 0.05027 0.69177 0.3147 0.0
C915 C 0.05173 0.68551 0.34677 0.0
C916 C 0.05584 0.68515 0.30799 0.0
C917 C 0.05725 0.67897 0.33949 0.0
C918 C 0.01181 0.69143 0.30829 0.0
C919 C 0.01511 0.68747 0.29177 0.0
C920 C 0.00404 0.69653 0.30694 0.0
C921 C 0.01059 0.68872 0.27415 0.0
C922 C 0.99973 0.69762 0.28906 0.0
N923 N 0.00307 0.69372 0.27317 0.0
C924 C 0.01835 0.65997 0.35374 0.0
C925 C 0.02324 0.66447 0.32103 0.0
C926 C 0.01631 0.64794 0.35121 0.0
N927 N 0.02186 0.66798 0.33878 0.0
C928 C 0.02129 0.65254 0.31784 0.0
C929 C 0.01781 0.64411 0.33306 0.0
H930 H 0.01715 0.66291 0.36767 0.0
H931 H 0.02607 0.67098 0.30939 0.0
C932 C 0.05443 0.72233 0.31335 0.0
N933 N 0.04207 0.71612 0.30938 0.0
C934 C 0.06291 0.73089 0.30049 0.0
C935 C 0.04586 0.72673 0.27951 0.0
C936 C 0.03763 0.71838 0.29304 0.0
C937 C 0.05874 0.73301 0.28305 0.0
H938 H 0.05771 0.72065 0.32668 0.0
H939 H 0.02778 0.71379 0.29041 0.0
O940 O 0.01953 0.68716 0.36812 0.0
O941 O 0.02996 0.71339 0.35227 0.0
O942 O 0.04257 0.69819 0.34111 0.0
O943 O 0.0159 0.69002 0.32572 0.0
H944 H 0.00658 0.69195 0.39328 0.0
H945 H 0.03382 0.68047 0.38665 0.0
H946 H 0.00794 0.69036 0.42835 0.0
H947 H 0.03471 0.6791 0.42185 0.0
H948 H 0.02921 0.743 0.31523 0.0
H949 H 0.05245 0.73187 0.36059 0.0
H950 H 0.01925 0.72155 0.32819 0.0
H951 H 0.06183 0.75313 0.34705 0.0
H952 H 0.05195 0.72447 0.42557 0.0
H953 H 0.07855 0.7221 0.38873 0.0
H954 H 0.97013 0.67376 0.36616 0.0
H955 H 0.98738 0.7138 0.3695 0.0
H956 H 0.04746 0.69657 0.30478 0.0
H957 H 0.05016 0.68551 0.36194 0.0
H958 H 0.05746 0.6849 0.29289 0.0
H959 H 0.05999 0.67391 0.349 0.0
H960 H 0.0212 0.68363 0.29246 0.0
H961 H 0.00137 0.69962 0.31952 0.0
H962 H 0.01311 0.68574 0.26125 0.0
H963 H 0.99373 0.70157 0.28781 0.0
H964 H 0.0135 0.64168 0.36329 0.0
H965 H 0.02274 0.65006 0.30367 0.0
H966 H 0.07266 0.73579 0.30428 0.0
H967 H 0.04215 0.72804 0.26631 0.0
Li968 Li 0.30136 0.33886 0.35561 0.0
Li969 Li 0.30754 0.32325 0.34733 0.0
Li970 Li 0.32004 0.34491 0.33704 0.0
Li971 Li 0.3 0.33196 0.3236 0.0
C972 C 0.31733 0.33611 0.38218 0.0
N973 N 0.31872 0.33138 0.4203 0.0
C974 C 0.30714 0.32628 0.39126 0.0
C975 C 0.32821 0.34354 0.39247 0.0
C976 C 0.30804 0.32402 0.41054 0.0
C977 C 0.32872 0.34101 0.41174 0.0
C978 C 0.28074 0.3121 0.33788 0.0
C979 C 0.27142 0.29393 0.31776 0.0
N980 N 0.26021 0.29325 0.31973 0.0
C981 C 0.26912 0.31118 0.3398 0.0
C982 C 0.28191 0.30338 0.32684 0.0
C983 C 0.25886 0.3016 0.33047 0.0
C984 C 0.28205 0.34218 0.36697 0.0
N985 N 0.29282 0.34331 0.3737 0.0
C986 C 0.28831 0.3475 0.40506 0.0
C987 C 0.29631 0.34641 0.39219 0.0
C988 C 0.2767 0.34548 0.39875 0.0
C989 C 0.27382 0.34322 0.37928 0.0
H990 H 0.27969 0.34004 0.35209 0.0
H991 H 0.30506 0.34762 0.39716 0.0
C992 C 0.31959 0.30973 0.3557 0.0
N993 N 0.30845 0.30929 0.35636 0.0
C994 C 0.32086 0.30004 0.36333 0.0
C995 C 0.2991 0.28953 0.37188 0.0
C996 C 0.29827 0.29944 0.36415 0.0
C997 C 0.31054 0.2898 0.37175 0.0
H998 H 0.32755 0.31776 0.34959 0.0
H999 H 0.28954 0.29938 0.36469 0.0
C1000 C 0.31136 0.36147 0.33733 0.0
N1001 N 0.32043 0.38603 0.3473 0.0
C1002 C 0.30895 0.36919 0.32579 0.0
C1003 C 0.31838 0.36625 0.35396 0.0
C1004 C 0.31362 0.38158 0.33107 0.0
C1005 C 0.32288 0.37868 0.35875 0.0
C1006 C 0.32011 0.33268 0.3042 0.0
C1007 C 0.31996 0.34212 0.29359 0.0
C1008 C 0.32613 0.32661 0.29694 0.0
C1009 C 0.32582 0.34532 0.27584 0.0
C1010 C 0.33188 0.33008 0.27912 0.0
N1011 N 0.33161 0.33928 0.26903 0.0
C1012 C 0.34535 0.35492 0.34159 0.0
C1013 C 0.34054 0.36671 0.32026 0.0
C1014 C 0.358 0.36238 0.33784 0.0
N1015 N 0.33693 0.35708 0.33264 0.0
C1016 C 0.35315 0.37441 0.31601 0.0
C1017 C 0.36204 0.37212 0.32456 0.0
H1018 H 0.34217 0.34712 0.35124 0.0
H1019 H 0.33362 0.36813 0.31317 0.0
C1020 C 0.28118 0.33211 0.30214 0.0
N1021 N 0.28948 0.32802 0.30177 0.0
C1022 C 0.27233 0.32875 0.28771 0.0
C1023 C 0.28095 0.31732 0.27246 0.0
C1024 C 0.28955 0.32078 0.28732 0.0
C1025 C 0.27207 0.32119 0.27261 0.0
H1026 H 0.28123 0.3377 0.31399 0.0
H1027 H 0.2961 0.31746 0.28751 0.0
O1028 O 0.31674 0.33852 0.36332 0.0
O1029 O 0.291 0.32164 0.34637 0.0
O1030 O 0.30686 0.34935 0.33216 0.0
O1031 O 0.31459 0.32945 0.32174 0.0
H1032 H 0.2986 0.32054 0.38356 0.0
H1033 H 0.33615 0.35122 0.38564 0.0
H1034 H 0.30023 0.31646 0.41777 0.0
H1035 H 0.33708 0.34671 0.41989 0.0
H1036 H 0.27221 0.28718 0.30905 0.0
H1037 H 0.26801 0.3178 0.34834 0.0
H1038 H 0.29087 0.30403 0.32503 0.0
H1039 H 0.24981 0.30081 0.33176 0.0
H1040 H 0.29093 0.34928 0.41994 0.0
H1041 H 0.26512 0.34192 0.37369 0.0
H1042 H 0.3299 0.30075 0.36316 0.0
H1043 H 0.29087 0.28178 0.378 0.0
H1044 H 0.30354 0.36563 0.31287 0.0
H1045 H 0.32038 0.36047 0.36309 0.0
H1046 H 0.31183 0.38766 0.32226 0.0
H1047 H 0.32832 0.3825 0.37157 0.0
H1048 H 0.31538 0.34694 0.29898 0.0
H1049 H 0.32637 0.31931 0.30503 0.0
H1050 H 0.32577 0.35261 0.26748 0.0
H1051 H 0.33657 0.32546 0.27332 0.0
H1052 H 0.36453 0.36038 0.34497 0.0
H1053 H 0.35583 0.38172 0.30554 0.0
H1054 H 0.26557 0.33179 0.2887 0.0
H1055 H 0.28126 0.31163 0.26103 0.0
Li1056 Li 0.32331 0.01642 0.67231 0.0
Li1057 Li 0.34523 0.02943 0.67918 0.0
Li1058 Li 0.32927 0.03406 0.69195 0.0
Li1059 Li 0.33481 0.03758 0.65802 0.0
C1060 C 0.3266 0.00834 0.70563 0.0
N1061 N 0.316 0.98462 0.72059 0.0
C1062 C 0.33344 0.00221 0.70653 0.0
C1063 C 0.31444 0.00247 0.71262 0.0
C1064 C 0.3279 0.99021 0.71409 0.0
C1065 C 0.30922 0.99046 0.72003 0.0
C1066 C 0.34584 0.02582 0.63937 0.0
C1067 C 0.3656 0.03972 0.62481 0.0
N1068 N 0.36275 0.03158 0.61015 0.0
C1069 C 0.3431 0.01758 0.62418 0.0
C1070 C 0.35716 0.03698 0.63972 0.0
C1071 C 0.35177 0.02066 0.60953 0.0
C1072 C 0.29887 0.9961 0.6656 0.0
N1073 N 0.31106 0.99954 0.66763 0.0
C1074 C 0.30629 0.97846 0.66455 0.0
C1075 C 0.31491 0.99106 0.66679 0.0
C1076 C 0.29362 0.97461 0.66267 0.0
C1077 C 0.28994 0.9836 0.66297 0.0
H1078 H 0.29608 0.00305 0.6661 0.0
H1079 H 0.32469 0.9941 0.6681 0.0
C1080 C 0.36873 0.03734 0.6968 0.0
N1081 N 0.36039 0.02934 0.68392 0.0
C1082 C 0.37962 0.03711 0.70069 0.0
C1083 C 0.37303 0.02011 0.67848 0.0
C1084 C 0.36233 0.02079 0.6748 0.0
C1085 C 0.38185 0.02839 0.69154 0.0
H1086 H 0.36688 0.04374 0.70439 0.0
H1087 H 0.35544 0.01434 0.66491 0.0
C1088 C 0.30943 0.03209 0.67535 0.0
N1089 N 0.2929 0.0392 0.68823 0.0
C1090 C 0.30978 0.04269 0.66793 0.0
C1091 C 0.30055 0.025 0.68911 0.0
C1092 C 0.30137 0.04616 0.67467 0.0
C1093 C 0.29231 0.02878 0.69551 0.0
C1094 C 0.35535 0.05582 0.68789 0.0
C1095 C 0.35626 0.05743 0.70768 0.0
C1096 C 0.36452 0.06488 0.6762 0.0
C1097 C 0.36634 0.06805 0.71542 0.0
C1098 C 0.37447 0.07536 0.68449 0.0
N1099 N 0.37516 0.07672 0.70376 0.0
C1100 C 0.32135 0.03567 0.72957 0.0
C1101 C 0.327 0.05301 0.70942 0.0
C1102 C 0.31911 0.04165 0.74464 0.0
N1103 N 0.32527 0.04145 0.71245 0.0
C1104 C 0.3249 0.05932 0.72406 0.0
C1105 C 0.32101 0.05369 0.74202 0.0
H1106 H 0.3202 0.02654 0.73164 0.0
H1107 H 0.33022 0.0574 0.69567 0.0
C1108 C 0.33461 0.04505 0.61913 0.0
N1109 N 0.33706 0.04861 0.63769 0.0
C1110 C 0.33577 0.05364 0.60517 0.0
C1111 C 0.34218 0.06931 0.62972 0.0
C1112 C 0.34084 0.06046 0.64312 0.0
C1113 C 0.33945 0.06593 0.61047 0.0
H1114 H 0.33151 0.03552 0.61524 0.0
H1115 H 0.34253 0.06298 0.65801 0.0
O1116 O 0.3318 0.02001 0.69797 0.0
O1117 O 0.33737 0.02296 0.6537 0.0
O1118 O 0.31778 0.0287 0.66924 0.0
O1119 O 0.34541 0.0456 0.67998 0.0
H1120 H 0.34289 0.00663 0.70135 0.0
H1121 H 0.30903 0.00708 0.71216 0.0
H1122 H 0.33306 0.98533 0.71475 0.0
H1123 H 0.29978 0.98577 0.72532 0.0
H1124 H 0.37441 0.04832 0.62491 0.0
H1125 H 0.33435 0.00891 0.62372 0.0
H1126 H 0.35944 0.04341 0.6514 0.0
H1127 H 0.34978 0.01438 0.59767 0.0
H1128 H 0.30949 0.97181 0.66409 0.0
H1129 H 0.28025 0.98096 0.66152 0.0
H1130 H 0.38605 0.04347 0.71118 0.0
H1131 H 0.37441 0.01321 0.67119 0.0
H1132 H 0.31648 0.04822 0.65715 0.0
H1133 H 0.30009 0.01674 0.69493 0.0
H1134 H 0.30159 0.05439 0.66914 0.0
H1135 H 0.28547 0.02343 0.70628 0.0
H1136 H 0.3494 0.05045 0.71701 0.0
H1137 H 0.36397 0.06387 0.66086 0.0
H1138 H 0.36718 0.06937 0.7307 0.0
H1139 H 0.38162 0.08243 0.6756 0.0
H1140 H 0.31628 0.03704 0.75832 0.0
H1141 H 0.32635 0.06853 0.72135 0.0
H1142 H 0.33347 0.05059 0.59053 0.0
H1143 H 0.34525 0.07869 0.63446 0.0
Li1144 Li 0.98167 0.30246 0.67181 0.0
Li1145 Li 0.97058 0.31223 0.68113 0.0
Li1146 Li 0.96444 0.2914 0.6941 0.0
Li1147 Li 0.96052 0.29479 0.65904 0.0
C1148 C 0.99109 0.3129 0.70682 0.0
N1149 N 0.01403 0.32469 0.72446 0.0
C1150 C 1.00017 0.32476 0.70095 0.0
C1151 C 0.99361 0.30707 0.7218 0.0
C1152 C 0.01173 0.33055 0.71001 0.0
C1153 C 0.00529 0.31318 0.7305 0.0
C1154 C 0.97825 0.32109 0.6444 0.0
C1155 C 0.97259 0.33149 0.6208 0.0
N1156 N 0.98383 0.34195 0.62312 0.0
C1157 C 0.9898 0.33189 0.6464 0.0
C1158 C 0.96961 0.32083 0.63138 0.0
C1159 C 0.99242 0.34236 0.63557 0.0
C1160 C 0.00169 0.31065 0.64681 0.0
N1161 N 0.998 0.30587 0.66458 0.0
C1162 C 0.01811 0.30856 0.67114 0.0
C1163 C 0.00582 0.30443 0.67654 0.0
C1164 C 0.02235 0.31416 0.65323 0.0
C1165 C 0.01385 0.31488 0.64083 0.0
H1166 H 0.99525 0.31143 0.63737 0.0
H1167 H 0.00264 0.30034 0.69044 0.0
C1168 C 0.97636 0.33117 0.70728 0.0
N1169 N 0.9726 0.32799 0.68893 0.0
C1170 C 0.97953 0.3429 0.71413 0.0
C1171 C 0.97409 0.34771 0.68351 0.0
C1172 C 0.97102 0.33583 0.67723 0.0
C1173 C 0.97874 0.35148 0.70203 0.0
H1174 H 0.97714 0.32465 0.71655 0.0
H1175 H 0.96757 0.33301 0.66294 0.0
C1176 C 0.97483 0.27939 0.66685 0.0
N1177 N 0.98992 0.26937 0.66006 0.0
C1178 C 0.97716 0.27721 0.64818 0.0
C1179 C 0.98019 0.27649 0.68208 0.0
C1180 C 0.98482 0.27214 0.64504 0.0
C1181 C 0.98778 0.27141 0.67835 0.0
C1182 C 0.94732 0.30371 0.68732 0.0
C1183 C 0.94479 0.30505 0.7063 0.0
C1184 C 0.94403 0.30926 0.67285 0.0
C1185 C 0.93902 0.31195 0.7105 0.0
C1186 C 0.93826 0.31606 0.67763 0.0
N1187 N 0.9359 0.31727 0.6962 0.0
C1188 C 0.95559 0.28367 0.7319 0.0
C1189 C 0.95315 0.26776 0.71074 0.0
C1190 C 0.94902 0.27491 0.74611 0.0
N1191 N 0.9573 0.27993 0.71453 0.0
C1192 C 0.94685 0.25874 0.72466 0.0
C1193 C 0.94439 0.26218 0.74254 0.0
H1194 H 0.95903 0.29343 0.73454 0.0
H1195 H 0.95453 0.26502 0.69675 0.0
C1196 C 0.95267 0.28474 0.62174 0.0
N1197 N 0.949 0.28696 0.63881 0.0
C1198 C 0.94388 0.27809 0.60759 0.0
C1199 C 0.92783 0.27675 0.62854 0.0
C1200 C 0.93687 0.28313 0.6424 0.0
C1201 C 0.9312 0.27389 0.61092 0.0
H1202 H 0.96239 0.28792 0.61924 0.0
H1203 H 0.93415 0.28488 0.65617 0.0
O1204 O 0.97971 0.30707 0.69819 0.0
O1205 O 0.97556 0.3107 0.65468 0.0
O1206 O 0.96764 0.28467 0.67023 0.0
O1207 O 0.95332 0.29732 0.68294 0.0
H1208 H 0.9983 0.32943 0.68952 0.0
H1209 H 0.98663 0.2979 0.72655 0.0
H1210 H 0.01887 0.33972 0.70556 0.0
H1211 H 0.0074 0.30877 0.74205 0.0
H1212 H 0.96597 0.33144 0.61074 0.0
H1213 H 0.99667 0.33219 0.65618 0.0
H1214 H 0.96067 0.31251 0.62951 0.0
H1215 H 0.0013 0.35081 0.63704 0.0
H1216 H 0.02432 0.30776 0.68112 0.0
H1217 H 0.01661 0.31879 0.62668 0.0
H1218 H 0.98271 0.34529 0.72871 0.0
H1219 H 0.97323 0.35399 0.67376 0.0
H1220 H 0.97317 0.27949 0.63624 0.0
H1221 H 0.97869 0.27835 0.69661 0.0
H1222 H 0.98673 0.27044 0.63065 0.0
H1223 H 0.99204 0.26918 0.68998 0.0
H1224 H 0.94732 0.30088 0.71767 0.0
H1225 H 0.94609 0.30848 0.6581 0.0
H1226 H 0.93704 0.31309 0.72513 0.0
H1227 H 0.93572 0.32046 0.66658 0.0
H1228 H 0.94729 0.2781 0.75949 0.0
H1229 H 0.94385 0.24916 0.72125 0.0
H1230 H 0.94701 0.27602 0.59443 0.0
H1231 H 0.9183 0.27407 0.63175 0.0
Li1232 Li 0.69628 0.68098 0.6747 0.0
Li1233 Li 0.68411 0.65949 0.68041 0.0
Li1234 Li 0.70447 0.67091 0.69486 0.0
Li1235 Li 0.70206 0.66614 0.65955 0.0
C1236 C 0.68775 0.68168 0.70729 0.0
N1237 N 0.68375 0.70016 0.72131 0.0
C1238 C 0.67688 0.68182 0.7026 0.0
C1239 C 0.69654 0.69089 0.71922 0.0
C1240 C 0.67505 0.69126 0.7098 0.0
C1241 C 0.69435 0.70017 0.72614 0.0
C1242 C 0.6766 0.65993 0.64523 0.0
C1243 C 0.66611 0.64407 0.62135 0.0
N1244 N 0.65533 0.64394 0.62524 0.0
C1245 C 0.66541 0.65964 0.64898 0.0
C1246 C 0.67696 0.65207 0.6313 0.0
C1247 C 0.65476 0.65149 0.63873 0.0
C1248 C 0.70578 0.70732 0.67501 0.0
N1249 N 0.69617 0.69608 0.66964 0.0
C1250 C 0.68555 0.70574 0.65586 0.0
C1251 C 0.6862 0.69514 0.66017 0.0
C1252 C 0.69535 0.71748 0.66109 0.0
C1253 C 0.70559 0.71822 0.67079 0.0
H1254 H 0.71363 0.70787 0.68245 0.0
H1255 H 0.67877 0.68616 0.65585 0.0
C1256 C 0.66205 0.64798 0.70145 0.0
N1257 N 0.66741 0.64629 0.68573 0.0
C1258 C 0.64967 0.63964 0.70582 0.0
C1259 C 0.64864 0.62737 0.67846 0.0
C1260 C 0.66107 0.63605 0.67451 0.0
C1261 C 0.64273 0.6293 0.69406 0.0
H1262 H 0.66733 0.65592 0.71056 0.0
H1263 H 0.66552 0.63476 0.66221 0.0
C1264 C 0.72512 0.68941 0.67734 0.0
N1265 N 0.75002 0.70344 0.68667 0.0
C1266 C 0.73404 0.68838 0.6666 0.0
C1267 C 0.72889 0.69762 0.69277 0.0
C1268 C 0.74658 0.69555 0.67155 0.0
C1269 C 0.74151 0.70461 0.69728 0.0
C1270 C 0.6906 0.64237 0.68531 0.0
C1271 C 0.68682 0.63842 0.70401 0.0
C1272 C 0.68723 0.63362 0.67071 0.0
C1273 C 0.6796 0.62571 0.70778 0.0
C1274 C 0.68002 0.62099 0.67507 0.0
N1275 N 0.67637 0.61734 0.69335 0.0
C1276 C 0.70877 0.67032 0.73404 0.0
C1277 C 0.72533 0.67253 0.71451 0.0
C1278 C 0.71497 0.66991 0.75038 0.0
N1279 N 0.71404 0.67166 0.71657 0.0
C1280 C 0.73197 0.67243 0.73051 0.0
C1281 C 0.72671 0.67098 0.74868 0.0
H1282 H 0.69963 0.66929 0.73523 0.0
H1283 H 0.7291 0.67307 0.70044 0.0
C1284 C 0.71148 0.67081 0.62263 0.0
N1285 N 0.70998 0.66377 0.63828 0.0
C1286 C 0.71861 0.67078 0.60731 0.0
C1287 C 0.7223 0.65601 0.62435 0.0
C1288 C 0.7151 0.65635 0.63939 0.0
C1289 C 0.72432 0.66348 0.60819 0.0
H1290 H 0.7074 0.67672 0.62231 0.0
H1291 H 0.71396 0.65106 0.65222 0.0
O1292 O 0.68987 0.67271 0.69992 0.0
O1293 O 0.68718 0.66789 0.65502 0.0
O1294 O 0.7128 0.68242 0.67274 0.0
O1295 O 0.69751 0.65476 0.68129 0.0
H1296 H 0.67003 0.67483 0.69324 0.0
H1297 H 0.70498 0.69093 0.72304 0.0
H1298 H 0.66673 0.69153 0.70615 0.0
H1299 H 0.7011 0.70738 0.73533 0.0
H1300 H 0.66626 0.63792 0.61056 0.0
H1301 H 0.66483 0.66542 0.65999 0.0
H1302 H 0.68548 0.65207 0.62827 0.0
H1303 H 0.64602 0.65111 0.6416 0.0
H1304 H 0.67759 0.70478 0.64807 0.0
H1305 H 0.71333 0.72711 0.67508 0.0
H1306 H 0.64556 0.64128 0.71829 0.0
H1307 H 0.6436 0.61947 0.6691 0.0
H1308 H 0.73134 0.68213 0.65458 0.0
H1309 H 0.72213 0.69843 0.7014 0.0
H1310 H 0.75357 0.69482 0.66338 0.0
H1311 H 0.74453 0.71093 0.70927 0.0
H1312 H 0.68935 0.64511 0.71544 0.0
H1313 H 0.69002 0.63655 0.65614 0.0
H1314 H 0.67654 0.62251 0.72216 0.0
H1315 H 0.67727 0.61411 0.66391 0.0
H1316 H 0.71061 0.66871 0.76419 0.0
H1317 H 0.74092 0.67304 0.72866 0.0
H1318 H 0.71979 0.67654 0.59503 0.0
H1319 H 0.72665 0.65037 0.62568 0.0
Li1320 Li 0.34798 0.31734 0.68066 0.0
Li1321 Li 0.33193 0.29726 0.69335 0.0
Li1322 Li 0.33825 0.29961 0.65997 0.0
Li1323 Li 0.3262 0.30882 0.67225 0.0
C1324 C 0.35386 0.29497 0.67812 0.0
N1325 N 0.3638 0.2805 0.66658 0.0
C1326 C 0.34889 0.28283 0.68491 0.0
C1327 C 0.36391 0.29976 0.66549 0.0
C1328 C 0.35405 0.27567 0.67892 0.0
C1329 C 0.36879 0.29229 0.65981 0.0
C1330 C 0.33243 0.31357 0.71689 0.0
C1331 C 0.31942 0.30597 0.74484 0.0
N1332 N 0.32969 0.31187 0.75606 0.0
C1333 C 0.34285 0.31954 0.72871 0.0
C1334 C 0.3206 0.30674 0.72502 0.0
C1335 C 0.34127 0.31858 0.74847 0.0
C1336 C 0.36145 0.34233 0.69192 0.0
N1337 N 0.36275 0.33255 0.68646 0.0
C1338 C 0.38483 0.34483 0.6893 0.0
C1339 C 0.37413 0.33358 0.6851 0.0
C1340 C 0.38381 0.35509 0.69523 0.0
C1341 C 0.37189 0.35372 0.69645 0.0
H1342 H 0.35227 0.34123 0.69295 0.0
H1343 H 0.37491 0.32567 0.68079 0.0
C1344 C 0.31532 0.2762 0.71501 0.0
N1345 N 0.32697 0.28623 0.71462 0.0
C1346 C 0.31146 0.26798 0.73038 0.0
C1347 C 0.33179 0.2804 0.74452 0.0
C1348 C 0.33523 0.28841 0.72888 0.0
C1349 C 0.31974 0.27003 0.74542 0.0
H1350 H 0.30903 0.27453 0.70331 0.0
H1351 H 0.3445 0.29639 0.72808 0.0
C1352 C 0.34832 0.32816 0.64879 0.0
N1353 N 0.36411 0.35258 0.63839 0.0
C1354 C 0.34444 0.33692 0.65037 0.0
C1355 C 0.36021 0.33182 0.64187 0.0
C1356 C 0.35257 0.34922 0.64502 0.0
C1357 C 0.36806 0.34421 0.63672 0.0
C1358 C 0.30974 0.28621 0.66277 0.0
C1359 C 0.30816 0.28382 0.64319 0.0
C1360 C 0.2996 0.2843 0.67391 0.0
C1361 C 0.29643 0.27952 0.63509 0.0
C1362 C 0.28804 0.28003 0.66525 0.0
N1363 N 0.28671 0.27774 0.64619 0.0
C1364 C 0.3344 0.27809 0.64178 0.0
C1365 C 0.34826 0.29635 0.62485 0.0
C1366 C 0.33635 0.27075 0.62881 0.0
N1367 N 0.34045 0.29064 0.63974 0.0
C1368 C 0.35055 0.28935 0.61155 0.0
C1369 C 0.34467 0.27636 0.61359 0.0
H1370 H 0.32825 0.27382 0.65379 0.0
H1371 H 0.35297 0.30634 0.62358 0.0
C1372 C 0.30833 0.31592 0.68068 0.0
N1373 N 0.31368 0.31289 0.66634 0.0
C1374 C 0.29879 0.31843 0.67677 0.0
C1375 C 0.3007 0.31505 0.64331 0.0
C1376 C 0.31019 0.31257 0.64788 0.0
C1377 C 0.2948 0.31793 0.6579 0.0
H1378 H 0.31145 0.31636 0.69516 0.0
H1379 H 0.31469 0.31023 0.63675 0.0
O1380 O 0.34872 0.30202 0.68342 0.0
O1381 O 0.33379 0.31419 0.6975 0.0
O1382 O 0.34062 0.31615 0.65442 0.0
O1383 O 0.32121 0.29069 0.6709 0.0
H1384 H 0.34103 0.27889 0.69449 0.0
H1385 H 0.3677 0.30902 0.65971 0.0
H1386 H 0.35026 0.26624 0.684 0.0
H1387 H 0.37648 0.29584 0.64989 0.0
H1388 H 0.31034 0.30064 0.75131 0.0
H1389 H 0.35209 0.32472 0.72273 0.0
H1390 H 0.31245 0.30185 0.71612 0.0
H1391 H 0.34927 0.32312 0.75778 0.0
H1392 H 0.39381 0.34547 0.68788 0.0
H1393 H 0.37057 0.36125 0.70129 0.0
H1394 H 0.30217 0.25998 0.73033 0.0
H1395 H 0.33843 0.28238 0.75586 0.0
H1396 H 0.33533 0.3343 0.65586 0.0
H1397 H 0.36345 0.32522 0.64089 0.0
H1398 H 0.34971 0.35611 0.64624 0.0
H1399 H 0.37732 0.34719 0.6315 0.0
H1400 H 0.31592 0.2854 0.63429 0.0
H1401 H 0.3007 0.28632 0.68901 0.0
H1402 H 0.29509 0.27766 0.61996 0.0
H1403 H 0.28014 0.27859 0.67368 0.0
H1404 H 0.3314 0.26077 0.63076 0.0
H1405 H 0.35711 0.2941 0.60016 0.0
H1406 H 0.29465 0.32083 0.68839 0.0
H1407 H 0.29786 0.31448 0.62858 0.0
Li1408 Li 0.68298 0.02517 0.67994 0.0
Li1409 Li 0.70254 0.03255 0.69638 0.0
Li1410 Li 0.70185 0.03513 0.66118 0.0
Li1411 Li 0.69425 0.01408 0.67574 0.0
C1412 C 0.69517 0.05236 0.68099 0.0
N1413 N 0.69149 0.07248 0.67911 0.0
C1414 C 0.69662 0.05942 0.6973 0.0
C1415 C 0.69201 0.05562 0.66369 0.0
C1416 C 0.69467 0.06953 0.69607 0.0
C1417 C 0.69015 0.0658 0.66304 0.0
C1418 C 0.67996 0.0146 0.7153 0.0
C1419 C 0.6648 0.00124 0.73844 0.0
N1420 N 0.66514 0.01133 0.7466 0.0
C1421 C 0.68011 0.02483 0.72385 0.0
C1422 C 0.6722 0.00269 0.72256 0.0
C1423 C 0.67257 0.02299 0.73967 0.0
C1424 C 0.65714 0.01014 0.6809 0.0
N1425 N 0.66633 0.02212 0.68321 0.0
C1426 C 0.65158 0.0277 0.69437 0.0
C1427 C 0.66376 0.0309 0.68971 0.0
C1428 C 0.64187 0.01535 0.69217 0.0
C1429 C 0.64482 0.00661 0.68485 0.0
H1430 H 0.65944 0.00319 0.67664 0.0
H1431 H 0.67118 0.04026 0.69218 0.0
C1432 C 0.72158 0.05253 0.71592 0.0
N1433 N 0.71218 0.04064 0.71829 0.0
C1434 C 0.72859 0.05942 0.73156 0.0
C1435 C 0.71616 0.04165 0.75173 0.0
C1436 C 0.70956 0.03502 0.73564 0.0
C1437 C 0.72572 0.05403 0.74975 0.0
H1438 H 0.72345 0.05672 0.7019 0.0
H1439 H 0.70222 0.02548 0.73709 0.0
C1440 C 0.67623 0.01418 0.6445 0.0
N1441 N 0.65515 0.00391 0.62199 0.0
C1442 C 0.66885 0.00128 0.64287 0.0
C1443 C 0.67298 0.02185 0.63447 0.0
C1444 C 0.6582 0.99626 0.63147 0.0
C1445 C 0.66226 0.01648 0.62323 0.0
C1446 C 0.7197 0.02581 0.6836 0.0
C1447 C 0.7313 0.03005 0.67511 0.0
C1448 C 0.71655 0.01843 0.69997 0.0
C1449 C 0.73958 0.02682 0.68314 0.0
C1450 C 0.72508 0.0154 0.70757 0.0
N1451 N 0.73633 0.01962 0.69907 0.0
C1452 C 0.71978 0.05709 0.64292 0.0
C1453 C 0.70783 0.03993 0.62256 0.0
C1454 C 0.72699 0.06416 0.62754 0.0
N1455 N 0.71052 0.04519 0.64015 0.0
C1456 C 0.7148 0.04664 0.60681 0.0
C1457 C 0.72466 0.05886 0.60923 0.0
H1458 H 0.72175 0.06095 0.65716 0.0
H1459 H 0.70045 0.03041 0.62086 0.0
C1460 C 0.69033 0.99012 0.6855 0.0
N1461 N 0.69312 0.99855 0.6713 0.0
C1462 C 0.68879 0.97842 0.68143 0.0
C1463 C 0.69317 0.98444 0.6483 0.0
C1464 C 0.69475 0.99603 0.65304 0.0
C1465 C 0.69 0.97541 0.66256 0.0
H1466 H 0.6891 0.99241 0.69991 0.0
H1467 H 0.697 0.00297 0.64208 0.0
O1468 O 0.6971 0.04247 0.68197 0.0
O1469 O 0.68708 0.01618 0.69954 0.0
O1470 O 0.6867 0.01925 0.65556 0.0
O1471 O 0.71151 0.02891 0.67589 0.0
H1472 H 0.69918 0.05709 0.71078 0.0
H1473 H 0.69108 0.0504 0.65089 0.0
H1474 H 0.6957 0.07505 0.70858 0.0
H1475 H 0.68767 0.06841 0.64975 0.0
H1476 H 0.65877 0.99208 0.74426 0.0
H1477 H 0.68595 0.03409 0.71825 0.0
H1478 H 0.67187 0.99466 0.71598 0.0
H1479 H 0.6726 0.03083 0.74642 0.0
H1480 H 0.64994 0.03476 0.70041 0.0
H1481 H 0.63775 0.99701 0.68258 0.0
H1482 H 0.73588 0.06897 0.72957 0.0
H1483 H 0.71381 0.03719 0.76556 0.0
H1484 H 0.6712 0.99519 0.65053 0.0
H1485 H 0.67866 0.03184 0.63534 0.0
H1486 H 0.65235 0.9863 0.6302 0.0
H1487 H 0.65961 0.02231 0.61546 0.0
H1488 H 0.73387 0.03579 0.66244 0.0
H1489 H 0.70762 0.01508 0.70675 0.0
H1490 H 0.7486 0.03004 0.67672 0.0
H1491 H 0.72276 0.00969 0.72022 0.0
H1492 H 0.73458 0.07351 0.63006 0.0
H1493 H 0.71256 0.04226 0.59292 0.0
H1494 H 0.68627 0.97167 0.69279 0.0
H1495 H 0.69431 0.98251 0.63361 0.0
Li1496 Li 0.96596 0.67093 0.69191 0.0
Li1497 Li 0.97422 0.65837 0.67804 0.0
Li1498 Li 0.98495 0.68084 0.67301 0.0
Li1499 Li 0.96542 0.66755 0.65651 0.0
C1500 C 0.98321 0.67066 0.71652 0.0
N1501 N 0.98567 0.66831 0.75524 0.0
C1502 C 0.97778 0.6589 0.72494 0.0
C1503 C 0.99002 0.68122 0.7278 0.0
C1504 C 0.9791 0.6579 0.74453 0.0
C1505 C 0.99111 0.67985 0.74735 0.0
C1506 C 0.94846 0.64329 0.68281 0.0
C1507 C 0.93275 0.62221 0.67549 0.0
N1508 N 0.93134 0.61949 0.69443 0.0
C1509 C 0.94678 0.6403 0.70221 0.0
C1510 C 0.94133 0.63419 0.66934 0.0
C1511 C 0.9381 0.62822 0.70779 0.0
C1512 C 0.94382 0.66503 0.71044 0.0
N1513 N 0.95635 0.67237 0.71204 0.0
C1514 C 0.95401 0.68043 0.74174 0.0
C1515 C 0.96152 0.68026 0.72704 0.0
C1516 C 0.94109 0.67244 0.74091 0.0
C1517 C 0.93599 0.66481 0.72486 0.0
H1518 H 0.93988 0.65921 0.69802 0.0
H1519 H 0.97144 0.68639 0.72767 0.0
C1520 C 0.99079 0.65032 0.68185 0.0
N1521 N 0.9783 0.64563 0.68209 0.0
C1522 C 0.99581 0.6429 0.68685 0.0
C1523 C 0.97499 0.62571 0.69157 0.0
C1524 C 0.97035 0.63347 0.68628 0.0
C1525 C 0.98791 0.63051 0.69242 0.0
H1526 H 0.99688 0.66001 0.67836 0.0
H1527 H 0.96046 0.62986 0.68626 0.0
C1528 C 0.97601 0.69574 0.66934 0.0
N1529 N 0.9884 0.7213 0.66606 0.0
C1530 C 0.9762 0.70126 0.65191 0.0
C1531 C 0.98205 0.70319 0.68513 0.0
C1532 C 0.98252 0.71422 0.65054 0.0
C1533 C 0.98829 0.7161 0.68317 0.0
C1534 C 0.98081 0.66063 0.63873 0.0
C1535 C 0.98962 0.66576 0.62416 0.0
C1536 C 0.9714 0.64821 0.63763 0.0
C1537 C 0.98884 0.65835 0.60865 0.0
C1538 C 0.97094 0.6411 0.62191 0.0
N1539 N 0.97959 0.64628 0.60786 0.0
C1540 C 0.00986 0.69635 0.68337 0.0
C1541 C 0.00475 0.7012 0.65326 0.0
C1542 C 0.02242 0.70483 0.68046 0.0
N1543 N 0.00134 0.69461 0.6698 0.0
C1544 C 0.01725 0.70983 0.64975 0.0
C1545 C 0.02631 0.71148 0.66326 0.0
H1546 H 0.007 0.69068 0.69605 0.0
H1547 H 0.99785 0.69932 0.64239 0.0
C1548 C 0.9434 0.65918 0.63563 0.0
N1549 N 0.956 0.6656 0.6343 0.0
C1550 C 0.93611 0.65852 0.62004 0.0
C1551 C 0.95493 0.67103 0.60199 0.0
C1552 C 0.96185 0.67138 0.6179 0.0
C1553 C 0.94188 0.66466 0.60304 0.0
H1554 H 0.93903 0.6549 0.649 0.0
H1555 H 0.9719 0.67655 0.61737 0.0
O1556 O 0.98214 0.67185 0.69731 0.0
O1557 O 0.95682 0.65511 0.67703 0.0
O1558 O 0.97006 0.6831 0.67091 0.0
O1559 O 0.98138 0.66783 0.65386 0.0
H1560 H 0.97263 0.6506 0.71648 0.0
H1561 H 0.99424 0.69042 0.7216 0.0
H1562 H 0.9749 0.64885 0.75121 0.0
H1563 H 0.99627 0.68796 0.75626 0.0
H1564 H 0.92721 0.61507 0.66522 0.0
H1565 H 0.95207 0.64723 0.71286 0.0
H1566 H 0.9424 0.63634 0.65427 0.0
H1567 H 0.93674 0.62578 0.72275 0.0
H1568 H 0.95829 0.68653 0.75384 0.0
H1569 H 0.92605 0.65872 0.72347 0.0
H1570 H 0.00581 0.64693 0.68686 0.0
H1571 H 0.96854 0.61624 0.69582 0.0
H1572 H 0.97156 0.69561 0.63956 0.0
H1573 H 0.98206 0.69903 0.69868 0.0
H1574 H 0.98278 0.71863 0.63712 0.0
H1575 H 0.99307 0.72199 0.69524 0.0
H1576 H 0.99694 0.67539 0.6248 0.0
H1577 H 0.96454 0.6441 0.64879 0.0
H1578 H 0.99558 0.66221 0.59725 0.0
H1579 H 0.9637 0.63147 0.62088 0.0
H1580 H 0.02908 0.70585 0.69128 0.0
H1581 H 0.01987 0.71461 0.63617 0.0
H1582 H 0.92609 0.65367 0.62153 0.0
H1583 H 0.95972 0.67581 0.5891 0.0
H1584 H 0.21564 0.33282 0.13791 0.0
N1585 N 0.19736 0.31334 0.11778 0.0
H1586 H 0.22581 0.33121 0.16647 0.0
H1587 H 0.18938 0.29356 0.14024 0.0
H1588 H 0.19891 0.29194 0.16977 0.0
H1589 H 0.20928 0.30326 0.10098 0.0
H1590 H 0.2284 0.31383 0.08245 0.0
H1591 H 0.20782 0.33717 0.10338 0.0
H1592 H 0.22648 0.3476 0.08405 0.0
H1593 H 0.19544 0.33282 0.13213 0.0
H1594 H 0.17576 0.29837 0.10124 0.0
H1595 H 0.17739 0.33561 0.12993 0.0
H1596 H 0.15733 0.30058 0.09995 0.0
H1597 H 0.1261 0.34069 0.13391 0.0
H1598 H 0.11838 0.34404 0.16383 0.0
H1599 H 0.09646 0.30432 0.1723 0.0
H1600 H 0.10393 0.30105 0.14167 0.0
H1601 H 0.0974 0.30818 0.09987 0.0
H1602 H 0.08948 0.31864 0.07966 0.0
H1603 H 0.12578 0.35171 0.07994 0.0
H1604 H 0.1335 0.34121 0.10065 0.0
H1605 H 0.13862 0.32862 0.14366 0.0
H1606 H 0.15766 0.32809 0.14253 0.0
H1607 H 0.14781 0.31093 0.08688 0.0
N1608 N 0.11931 0.3183 0.11713 0.0
H1609 H 0.12812 0.31075 0.08852 0.0
C1610 C 0.20188 0.31321 0.13669 0.0
C1611 C 0.21184 0.32389 0.14487 0.0
C1612 C 0.21762 0.32295 0.1614 0.0
C1613 C 0.21338 0.31137 0.17036 0.0
C1614 C 0.20272 0.30093 0.16298 0.0
C1615 C 0.19713 0.30185 0.14624 0.0
C1616 C 0.20704 0.31931 0.10364 0.0
C1617 C 0.21286 0.31287 0.09694 0.0
C1618 C 0.22379 0.31895 0.08627 0.0
C1619 C 0.2291 0.33165 0.08185 0.0
C1620 C 0.22281 0.3379 0.08753 0.0
C1621 C 0.21197 0.33185 0.09845 0.0
C1622 C 0.18695 0.3154 0.11668 0.0
C1623 C 0.18721 0.32584 0.12487 0.0
C1624 C 0.1768 0.32735 0.12373 0.0
C1625 C 0.1658 0.31832 0.11475 0.0
C1626 C 0.16565 0.30789 0.1066 0.0
C1627 C 0.17613 0.30652 0.10748 0.0
C1628 C 0.1155 0.32056 0.13546 0.0
C1629 C 0.11958 0.33268 0.14209 0.0
C1630 C 0.11526 0.33459 0.15938 0.0
C1631 C 0.10682 0.32445 0.17053 0.0
C1632 C 0.10286 0.31233 0.16397 0.0
C1633 C 0.10717 0.31043 0.14659 0.0
C1634 C 0.11597 0.32388 0.10185 0.0
C1635 C 0.10371 0.31756 0.0951 0.0
C1636 C 0.09923 0.32358 0.0835 0.0
C1637 C 0.10695 0.33609 0.07831 0.0
C1638 C 0.11952 0.34215 0.08395 0.0
C1639 C 0.12399 0.33612 0.09564 0.0
C1640 C 0.13165 0.31972 0.11602 0.0
C1641 C 0.1404 0.32482 0.13099 0.0
C1642 C 0.15152 0.3246 0.13033 0.0
C1643 C 0.15437 0.31943 0.11466 0.0
C1644 C 0.14588 0.31477 0.09939 0.0
C1645 C 0.13465 0.31481 0.10019 0.0
H1646 H 0.71194 0.81158 0.13668 0.0
N1647 N 0.69113 0.80475 0.11723 0.0
H1648 H 0.71428 0.8024 0.16614 0.0
H1649 H 0.67218 0.78796 0.13993 0.0
H1650 H 0.67439 0.77825 0.16855 0.0
H1651 H 0.66647 0.7941 0.10765 0.0
H1652 H 0.65459 0.77516 0.08894 0.0
H1653 H 0.70001 0.79294 0.09702 0.0
H1654 H 0.68821 0.77377 0.07892 0.0
H1655 H 0.70355 0.82427 0.09476 0.0
H1656 H 0.67492 0.80928 0.13768 0.0
H1657 H 0.70225 0.84322 0.09353 0.0
H1658 H 0.67395 0.8284 0.13728 0.0
H1659 H 0.70815 0.90604 0.12709 0.0
H1660 H 0.71072 0.91779 0.15632 0.0
H1661 H 0.67635 0.88738 0.17803 0.0
H1662 H 0.67382 0.8758 0.14853 0.0
H1663 H 0.6643 0.87694 0.11874 0.0
H1664 H 0.65369 0.88467 0.0984 0.0
H1665 H 0.68747 0.90615 0.06624 0.0
H1666 H 0.698 0.89813 0.08644 0.0
H1667 H 0.70816 0.88067 0.11282 0.0
H1668 H 0.70809 0.861 0.11242 0.0
H1669 H 0.66819 0.84121 0.11985 0.0
N1670 N 0.68906 0.88423 0.11739 0.0
H1671 H 0.66849 0.86097 0.12107 0.0
C1672 C 0.69196 0.80039 0.13595 0.0
C1673 C 0.70372 0.8045 0.14387 0.0
C1674 C 0.70502 0.79913 0.16059 0.0
C1675 C 0.69454 0.78939 0.16961 0.0
C1676 C 0.68269 0.78576 0.16217 0.0
C1677 C 0.6814 0.79126 0.14561 0.0
C1678 C 0.68418 0.79495 0.10368 0.0
C1679 C 0.67133 0.78992 0.10095 0.0
C1680 C 0.66453 0.77899 0.09041 0.0
C1681 C 0.6704 0.77283 0.08255 0.0
C1682 C 0.68336 0.7783 0.08449 0.0
C1683 C 0.69015 0.78924 0.09489 0.0
C1684 C 0.68953 0.81546 0.11645 0.0
C1685 C 0.69701 0.82511 0.10396 0.0
C1686 C 0.69631 0.83597 0.10341 0.0
C1687 C 0.68813 0.83747 0.11553 0.0
C1688 C 0.68031 0.82758 0.12767 0.0
C1689 C 0.68094 0.81665 0.12805 0.0
C1690 C 0.69086 0.8901 0.13568 0.0
C1691 C 0.7013 0.90187 0.13832 0.0
C1692 C 0.70275 0.90853 0.15505 0.0
C1693 C 0.69373 0.90353 0.16952 0.0
C1694 C 0.68339 0.89155 0.16705 0.0
C1695 C 0.68196 0.88488 0.15026 0.0
C1696 C 0.68195 0.88685 0.10391 0.0
C1697 C 0.66932 0.88293 0.10691 0.0
C1698 C 0.66326 0.8874 0.09532 0.0
C1699 C 0.66978 0.89603 0.08082 0.0
C1700 C 0.68225 0.89954 0.07738 0.0
C1701 C 0.68824 0.89493 0.08878 0.0
C1702 C 0.68838 0.87233 0.11677 0.0
C1703 C 0.69941 0.87206 0.11431 0.0
C1704 C 0.69931 0.86079 0.11394 0.0
C1705 C 0.6881 0.84945 0.1159 0.0
C1706 C 0.677 0.84974 0.11844 0.0
C1707 C 0.67714 0.86107 0.11897 0.0
H1708 H 0.11846 0.7848 0.13435 0.0
N1709 N 0.11716 0.80503 0.12169 0.0
H1710 H 0.11145 0.77442 0.16474 0.0
H1711 H 0.1078 0.8116 0.15089 0.0
H1712 H 0.10084 0.80117 0.18199 0.0
H1713 H 0.09404 0.79616 0.10945 0.0
H1714 H 0.08159 0.77668 0.09199 0.0
H1715 H 0.1268 0.79321 0.1004 0.0
H1716 H 0.11437 0.77385 0.08281 0.0
H1717 H 0.13763 0.80495 0.13745 0.0
H1718 H 0.12665 0.82523 0.09976 0.0
H1719 H 0.15898 0.82076 0.13431 0.0
H1720 H 0.14853 0.84091 0.09523 0.0
H1721 H 0.22735 0.87403 0.13617 0.0
H1722 H 0.23513 0.88459 0.16687 0.0
H1723 H 0.20316 0.88941 0.17152 0.0
H1724 H 0.1956 0.87917 0.14095 0.0
H1725 H 0.21093 0.89369 0.11226 0.0
H1726 H 0.225 0.90877 0.08875 0.0
H1727 H 0.23074 0.88044 0.06333 0.0
H1728 H 0.2171 0.86551 0.08743 0.0
H1729 H 0.19801 0.84587 0.1182 0.0
H1730 H 0.17632 0.82953 0.11588 0.0
H1731 H 0.16556 0.85752 0.10941 0.0
N1732 N 0.20713 0.87019 0.11749 0.0
H1733 H 0.18746 0.87365 0.10989 0.0
C1734 C 0.11372 0.79911 0.14024 0.0
C1735 C 0.11466 0.78853 0.14454 0.0
C1736 C 0.11074 0.78262 0.16209 0.0
C1737 C 0.1057 0.78704 0.17585 0.0
C1738 C 0.10467 0.79755 0.17163 0.0
C1739 C 0.10871 0.80356 0.15398 0.0
C1740 C 0.11131 0.79614 0.10642 0.0
C1741 C 0.09865 0.79166 0.10291 0.0
C1742 C 0.09156 0.78056 0.09298 0.0
C1743 C 0.0971 0.7739 0.08612 0.0
C1744 C 0.10999 0.77898 0.08781 0.0
C1745 C 0.11708 0.79006 0.09787 0.0
C1746 C 0.13026 0.81391 0.11911 0.0
C1747 C 0.1397 0.81271 0.12828 0.0
C1748 C 0.15215 0.82182 0.1262 0.0
C1749 C 0.15566 0.83223 0.11444 0.0
C1750 C 0.14626 0.8332 0.10472 0.0
C1751 C 0.13373 0.82418 0.10715 0.0
C1752 C 0.21082 0.87557 0.13628 0.0
C1753 C 0.22198 0.87725 0.14394 0.0
C1754 C 0.22644 0.88334 0.16136 0.0
C1755 C 0.21971 0.88777 0.17157 0.0
C1756 C 0.20844 0.88594 0.16406 0.0
C1757 C 0.20409 0.88002 0.14651 0.0
C1758 C 0.21321 0.87852 0.10179 0.0
C1759 C 0.21507 0.89066 0.10151 0.0
C1760 C 0.22307 0.89926 0.08807 0.0
C1761 C 0.22895 0.89572 0.07438 0.0
C1762 C 0.22625 0.88334 0.07371 0.0
C1763 C 0.2185 0.87484 0.08742 0.0
C1764 C 0.19428 0.86091 0.11478 0.0
C1765 C 0.19093 0.8484 0.11605 0.0
C1766 C 0.17849 0.8391 0.11493 0.0
C1767 C 0.16902 0.84212 0.11303 0.0
C1768 C 0.1725 0.85474 0.11086 0.0
C1769 C 0.18503 0.86403 0.11142 0.0
H1770 H 0.33139 0.21919 0.88785 0.0
N1771 N 0.31283 0.19801 0.90442 0.0
H1772 H 0.32949 0.22977 0.86002 0.0
H1773 H 0.29325 0.19014 0.88146 0.0
H1774 H 0.29136 0.20047 0.85293 0.0
H1775 H 0.29802 0.20218 0.92656 0.0
H1776 H 0.30407 0.21796 0.95136 0.0
H1777 H 0.33639 0.21261 0.9184 0.0
H1778 H 0.34258 0.22838 0.94341 0.0
H1779 H 0.33036 0.19844 0.87955 0.0
H1780 H 0.30669 0.17872 0.9272 0.0
H1781 H 0.33694 0.18322 0.87742 0.0
H1782 H 0.31408 0.16388 0.9262 0.0
H1783 H 0.35542 0.13166 0.86858 0.0
H1784 H 0.34881 0.11683 0.84224 0.0
H1785 H 0.31079 0.10786 0.85113 0.0
H1786 H 0.3174 0.12231 0.87768 0.0
H1787 H 0.32246 0.11395 0.90769 0.0
H1788 H 0.32496 0.10132 0.93208 0.0
H1789 H 0.36352 0.12951 0.93863 0.0
H1790 H 0.36099 0.14205 0.91395 0.0
H1791 H 0.35456 0.15965 0.8853 0.0
H1792 H 0.34868 0.17548 0.88982 0.0
H1793 H 0.31255 0.14714 0.91001 0.0
N1794 N 0.34114 0.13554 0.89234 0.0
H1795 H 0.31903 0.13172 0.90703 0.0
C1796 C 0.31237 0.20388 0.88689 0.0
C1797 C 0.32262 0.21502 0.88037 0.0
C1798 C 0.32155 0.22101 0.86426 0.0
C1799 C 0.31025 0.21601 0.85424 0.0
C1800 C 0.30014 0.20468 0.86048 0.0
C1801 C 0.30121 0.19871 0.87666 0.0
C1802 C 0.31671 0.20623 0.92066 0.0
C1803 C 0.30773 0.20772 0.93046 0.0
C1804 C 0.31122 0.21671 0.94467 0.0
C1805 C 0.32382 0.22446 0.94935 0.0
C1806 C 0.33281 0.22265 0.93999 0.0
C1807 C 0.32929 0.21359 0.92579 0.0
C1808 C 0.31778 0.18967 0.90344 0.0
C1809 C 0.32663 0.19094 0.88977 0.0
C1810 C 0.33056 0.18221 0.8887 0.0
C1811 C 0.32606 0.17218 0.90158 0.0
C1812 C 0.31756 0.17123 0.91567 0.0
C1813 C 0.3134 0.17979 0.91643 0.0
C1814 C 0.33701 0.12821 0.87512 0.0
C1815 C 0.3457 0.12666 0.86456 0.0
C1816 C 0.34189 0.11819 0.84949 0.0
C1817 C 0.32924 0.11109 0.84462 0.0
C1818 C 0.32058 0.11303 0.8547 0.0
C1819 C 0.3244 0.12146 0.86984 0.0
C1820 C 0.34163 0.12892 0.90886 0.0
C1821 C 0.33139 0.11754 0.91457 0.0
C1822 C 0.33283 0.11029 0.92847 0.0
C1823 C 0.34446 0.1144 0.9371 0.0
C1824 C 0.35444 0.12615 0.93229 0.0
C1825 C 0.35303 0.13331 0.91822 0.0
C1826 C 0.3372 0.1445 0.89543 0.0
C1827 C 0.34541 0.15693 0.8908 0.0
C1828 C 0.34195 0.16594 0.89324 0.0
C1829 C 0.33002 0.16266 0.90004 0.0
C1830 C 0.32185 0.15014 0.90495 0.0
C1831 C 0.32547 0.1412 0.90295 0.0
H1832 H 0.79297 0.12784 0.88415 0.0
N1833 N 0.80594 0.11781 0.90081 0.0
H1834 H 0.77829 0.11875 0.85766 0.0
H1835 H 0.8034 0.09978 0.87758 0.0
H1836 H 0.78902 0.0909 0.85059 0.0
H1837 H 0.80615 0.10045 0.92267 0.0
H1838 H 0.79043 0.08697 0.94554 0.0
H1839 H 0.7872 0.12114 0.91496 0.0
H1840 H 0.77052 0.1068 0.93544 0.0
H1841 H 0.81816 0.1355 0.87331 0.0
H1842 H 0.81612 0.12974 0.9344 0.0
H1843 H 0.83614 0.15591 0.8776 0.0
H1844 H 0.83433 0.15016 0.93837 0.0
H1845 H 0.88714 0.2171 0.8924 0.0
H1846 H 0.89603 0.22566 0.86134 0.0
H1847 H 0.90336 0.19562 0.85211 0.0
H1848 H 0.89488 0.18725 0.88384 0.0
H1849 H 0.90547 0.20212 0.93131 0.0
H1850 H 0.91502 0.21874 0.95518 0.0
H1851 H 0.88616 0.22779 0.94557 0.0
H1852 H 0.87634 0.21079 0.92232 0.0
H1853 H 0.86546 0.19563 0.893 0.0
H1854 H 0.84437 0.17759 0.89254 0.0
H1855 H 0.85657 0.15746 0.92831 0.0
N1856 N 0.88596 0.19654 0.90946 0.0
H1857 H 0.87765 0.17541 0.92838 0.0
C1858 C 0.79914 0.11433 0.88302 0.0
C1859 C 0.79223 0.11983 0.87684 0.0
C1860 C 0.78389 0.11467 0.86168 0.0
C1861 C 0.78248 0.10408 0.85224 0.0
C1862 C 0.78999 0.09911 0.85758 0.0
C1863 C 0.79819 0.10416 0.87294 0.0
C1864 C 0.79765 0.1115 0.91657 0.0
C1865 C 0.79853 0.10203 0.9259 0.0
C1866 C 0.78934 0.09417 0.93871 0.0
C1867 C 0.77871 0.09527 0.94191 0.0
C1868 C 0.77838 0.10543 0.93354 0.0
C1869 C 0.78789 0.11362 0.9214 0.0
C1870 C 0.81507 0.13091 0.90355 0.0
C1871 C 0.8211 0.13867 0.88774 0.0
C1872 C 0.83154 0.15044 0.89014 0.0
C1873 C 0.83658 0.15466 0.90832 0.0
C1874 C 0.83058 0.14715 0.92418 0.0
C1875 C 0.82002 0.13544 0.92184 0.0
C1876 C 0.89058 0.2016 0.89074 0.0
C1877 C 0.89078 0.21237 0.88398 0.0
C1878 C 0.89584 0.21728 0.86614 0.0
C1879 C 0.90046 0.21134 0.85449 0.0
C1880 C 0.89987 0.20036 0.8609 0.0
C1881 C 0.89506 0.1956 0.87895 0.0
C1882 C 0.89035 0.20535 0.92491 0.0
C1883 C 0.90107 0.20752 0.93469 0.0
C1884 C 0.90647 0.21696 0.94829 0.0
C1885 C 0.90131 0.22451 0.95206 0.0
C1886 C 0.89029 0.22207 0.9428 0.0
C1887 C 0.88472 0.21241 0.92954 0.0
C1888 C 0.87318 0.18674 0.9105 0.0
C1889 C 0.86358 0.18737 0.90084 0.0
C1890 C 0.85154 0.17708 0.90061 0.0
C1891 C 0.84885 0.16612 0.91036 0.0
C1892 C 0.85833 0.1658 0.92082 0.0
C1893 C 0.87037 0.176 0.9208 0.0
H1894 H 0.79786 0.70122 0.88696 0.0
N1895 N 0.80271 0.68552 0.90557 0.0
H1896 H 0.78466 0.69679 0.85867 0.0
H1897 H 0.79387 0.66479 0.88283 0.0
H1898 H 0.78068 0.66032 0.85496 0.0
H1899 H 0.7877 0.66092 0.91458 0.0
H1900 H 0.77069 0.65264 0.93727 0.0
H1901 H 0.79849 0.69821 0.93202 0.0
H1902 H 0.78175 0.68997 0.95563 0.0
H1903 H 0.82444 0.70608 0.90925 0.0
H1904 H 0.80776 0.66633 0.90489 0.0
H1905 H 0.84505 0.70819 0.90999 0.0
H1906 H 0.82823 0.66833 0.90408 0.0
H1907 H 0.90922 0.70673 0.8839 0.0
H1908 H 0.91593 0.70065 0.85522 0.0
H1909 H 0.87885 0.66916 0.84851 0.0
H1910 H 0.87253 0.67487 0.87788 0.0
H1911 H 0.88639 0.67205 0.90689 0.0
H1912 H 0.8983 0.66787 0.93008 0.0
H1913 H 0.90999 0.7035 0.95656 0.0
H1914 H 0.89886 0.70801 0.932 0.0
H1915 H 0.8801 0.70976 0.88866 0.0
H1916 H 0.85939 0.70729 0.8901 0.0
H1917 H 0.8462 0.67266 0.92059 0.0
N1918 N 0.88741 0.6944 0.90142 0.0
H1919 H 0.86676 0.67486 0.91785 0.0
C1920 C 0.79683 0.68337 0.88716 0.0
C1921 C 0.79439 0.6924 0.87971 0.0
C1922 C 0.78687 0.68987 0.86359 0.0
C1923 C 0.78155 0.67816 0.85479 0.0
C1924 C 0.78455 0.66936 0.86164 0.0
C1925 C 0.79215 0.67195 0.87761 0.0
C1926 C 0.79433 0.68025 0.92145 0.0
C1927 C 0.78665 0.66735 0.92365 0.0
C1928 C 0.7769 0.66259 0.93681 0.0
C1929 C 0.77469 0.67063 0.94817 0.0
C1930 C 0.78297 0.68351 0.94684 0.0
C1931 C 0.79264 0.68824 0.93354 0.0
C1932 C 0.81457 0.68613 0.90664 0.0
C1933 C 0.82526 0.69782 0.90827 0.0
C1934 C 0.83703 0.69899 0.90849 0.0
C1935 C 0.83841 0.68846 0.90675 0.0
C1936 C 0.82761 0.67667 0.90557 0.0
C1937 C 0.81581 0.67551 0.90573 0.0
C1938 C 0.8904 0.69137 0.883 0.0
C1939 C 0.90253 0.69861 0.87605 0.0
C1940 C 0.90631 0.69513 0.85956 0.0
C1941 C 0.89796 0.68436 0.84946 0.0
C1942 C 0.88563 0.67737 0.85607 0.0
C1943 C 0.88192 0.68074 0.87277 0.0
C1944 C 0.89209 0.69057 0.91734 0.0
C1945 C 0.89147 0.67895 0.91771 0.0
C1946 C 0.89822 0.67651 0.93125 0.0
C1947 C 0.90544 0.68546 0.94508 0.0
C1948 C 0.90497 0.69655 0.94575 0.0
C1949 C 0.89848 0.69911 0.93188 0.0
C1950 C 0.87507 0.69265 0.90334 0.0
C1951 C 0.87271 0.70166 0.89567 0.0
C1952 C 0.86086 0.70026 0.89668 0.0
C1953 C 0.85105 0.68984 0.90569 0.0
C1954 C 0.85343 0.68076 0.91338 0.0
C1955 C 0.86528 0.68207 0.91204 0.0
H1956 H 0.75796 0.62911 0.46814 0.0
N1957 N 0.77969 0.64161 0.45054 0.0
H1958 H 0.75132 0.63503 0.49715 0.0
H1959 H 0.79471 0.66083 0.47443 0.0
H1960 H 0.78834 0.66657 0.50377 0.0
H1961 H 0.78683 0.66608 0.44423 0.0
H1962 H 0.77812 0.67392 0.42057 0.0
H1963 H 0.76423 0.62893 0.4224 0.0
H1964 H 0.75511 0.63663 0.39899 0.0
H1965 H 0.78329 0.62278 0.45814 0.0
H1966 H 0.80259 0.66101 0.43975 0.0
H1967 H 0.80286 0.62251 0.45728 0.0
H1968 H 0.82208 0.66081 0.4389 0.0
H1969 H 0.86928 0.62844 0.46704 0.0
H1970 H 0.88279 0.63428 0.49506 0.0
H1971 H 0.8787 0.66651 0.50304 0.0
H1972 H 0.86535 0.6607 0.47494 0.0
H1973 H 0.87125 0.6667 0.44249 0.0
H1974 H 0.89048 0.6792 0.4249 0.0
H1975 H 0.89155 0.64591 0.41066 0.0
H1976 H 0.87198 0.63345 0.42759 0.0
H1977 H 0.84202 0.63208 0.47602 0.0
H1978 H 0.82249 0.63211 0.4754 0.0
H1979 H 0.83235 0.65083 0.42104 0.0
N1980 N 0.86059 0.64177 0.45017 0.0
H1981 H 0.85183 0.6508 0.42143 0.0
C1982 C 0.77678 0.64445 0.46911 0.0
C1983 C 0.76467 0.63717 0.47608 0.0
C1984 C 0.76092 0.64056 0.49271 0.0
C1985 C 0.76928 0.65133 0.50278 0.0
C1986 C 0.78161 0.65833 0.4962 0.0
C1987 C 0.78531 0.65498 0.47949 0.0
C1988 C 0.7762 0.64685 0.43502 0.0
C1989 C 0.78017 0.65962 0.4341 0.0
C1990 C 0.77507 0.66409 0.42067 0.0
C1991 C 0.76582 0.6559 0.40798 0.0
C1992 C 0.76231 0.64324 0.40837 0.0
C1993 C 0.76748 0.63879 0.42176 0.0
C1994 C 0.79137 0.64182 0.44892 0.0
C1995 C 0.79173 0.63108 0.45381 0.0
C1996 C 0.80291 0.63097 0.45342 0.0
C1997 C 0.81402 0.64166 0.44806 0.0
C1998 C 0.81365 0.6524 0.44289 0.0
C1999 C 0.80246 0.65252 0.44341 0.0
C2000 C 0.86636 0.64412 0.46879 0.0
C2001 C 0.87106 0.63659 0.47514 0.0
C2002 C 0.87877 0.63994 0.49115 0.0
C2003 C 0.88194 0.65095 0.50112 0.0
C2004 C 0.87661 0.6581 0.49544 0.0
C2005 C 0.86891 0.65475 0.47944 0.0
C2006 C 0.87011 0.64906 0.43631 0.0
C2007 C 0.87541 0.66205 0.43508 0.0
C2008 C 0.8865 0.66922 0.42516 0.0
C2009 C 0.89273 0.66362 0.41662 0.0
C2010 C 0.887 0.65057 0.41685 0.0
C2011 C 0.8758 0.6434 0.42654 0.0
C2012 C 0.8491 0.64225 0.44953 0.0
C2013 C 0.84021 0.63648 0.46411 0.0
C2014 C 0.8289 0.63633 0.46364 0.0
C2015 C 0.82598 0.64168 0.44834 0.0
C2016 C 0.83451 0.64697 0.43331 0.0
C2017 C 0.84581 0.64704 0.43369 0.0
H2018 H 0.37128 0.13167 0.46467 0.0
N2019 N 0.3565 0.13849 0.44776 0.0
H2020 H 0.36831 0.12146 0.49567 0.0
H2021 H 0.33789 0.13346 0.47346 0.0
H2022 H 0.33464 0.12301 0.50395 0.0
H2023 H 0.33193 0.12038 0.44507 0.0
H2024 H 0.32319 0.10317 0.42241 0.0
H2025 H 0.3675 0.13594 0.41706 0.0
H2026 H 0.35869 0.11878 0.39402 0.0
H2027 H 0.37632 0.161 0.44801 0.0
H2028 H 0.3364 0.14188 0.44344 0.0
H2029 H 0.377 0.18097 0.44683 0.0
H2030 H 0.33689 0.16175 0.4432 0.0
H2031 H 0.37371 0.24299 0.46424 0.0
H2032 H 0.37273 0.25097 0.49579 0.0
H2033 H 0.34255 0.21472 0.51129 0.0
H2034 H 0.34346 0.20684 0.4797 0.0
H2035 H 0.33338 0.20919 0.45081 0.0
H2036 H 0.32107 0.21721 0.43587 0.0
H2037 H 0.35439 0.24656 0.40971 0.0
H2038 H 0.36647 0.23811 0.42412 0.0
H2039 H 0.37325 0.21332 0.46801 0.0
H2040 H 0.37243 0.19342 0.46658 0.0
H2041 H 0.34251 0.18035 0.42564 0.0
N2042 N 0.35878 0.22037 0.45029 0.0
H2043 H 0.34301 0.20005 0.42752 0.0
C2044 C 0.35491 0.13341 0.46673 0.0
C2045 C 0.36337 0.12994 0.47336 0.0
C2046 C 0.36158 0.12401 0.49096 0.0
C2047 C 0.35121 0.12137 0.5023 0.0
C2048 C 0.34283 0.12505 0.49575 0.0
C2049 C 0.34466 0.13102 0.47819 0.0
C2050 C 0.35048 0.1294 0.43289 0.0
C2051 C 0.33783 0.12025 0.43387 0.0
C2052 C 0.33282 0.11038 0.42092 0.0
C2053 C 0.3403 0.10961 0.40659 0.0
C2054 C 0.35271 0.11919 0.40487 0.0
C2055 C 0.35775 0.12896 0.41799 0.0
C2056 C 0.35637 0.14998 0.44599 0.0
C2057 C 0.3677 0.16114 0.44678 0.0
C2058 C 0.36804 0.17254 0.44628 0.0
C2059 C 0.35698 0.17302 0.44519 0.0
C2060 C 0.3456 0.16177 0.44391 0.0
C2061 C 0.34529 0.15036 0.44421 0.0
C2062 C 0.35877 0.22435 0.46966 0.0
C2063 C 0.367 0.23675 0.47456 0.0
C2064 C 0.36638 0.2413 0.49248 0.0
C2065 C 0.35756 0.23346 0.50593 0.0
C2066 C 0.34951 0.22093 0.50123 0.0
C2067 C 0.35002 0.21643 0.4832 0.0
C2068 C 0.35088 0.22304 0.43846 0.0
C2069 C 0.33795 0.21712 0.44139 0.0
C2070 C 0.33095 0.22181 0.43298 0.0
C2071 C 0.33674 0.23267 0.4218 0.0
C2072 C 0.34954 0.23812 0.41802 0.0
C2073 C 0.3565 0.23331 0.42625 0.0
C2074 C 0.3579 0.20828 0.44862 0.0
C2075 C 0.36637 0.20614 0.45889 0.0
C2076 C 0.366 0.19475 0.45786 0.0
C2077 C 0.35735 0.18519 0.44606 0.0
C2078 C 0.3491 0.18739 0.43524 0.0
C2079 C 0.3494 0.19879 0.43639 0.0
H2080 H 0.79555 0.12613 0.47131 0.0
N2081 N 0.78489 0.13901 0.45659 0.0
H2082 H 0.78814 0.11224 0.49879 0.0
H2083 H 0.76791 0.13667 0.48186 0.0
H2084 H 0.76012 0.12248 0.50902 0.0
H2085 H 0.76317 0.13419 0.44231 0.0
H2086 H 0.74845 0.11539 0.42515 0.0
H2087 H 0.79112 0.12349 0.43789 0.0
H2088 H 0.77633 0.10446 0.42114 0.0
H2089 H 0.80397 0.15101 0.48235 0.0
H2090 H 0.79507 0.14955 0.42239 0.0
H2091 H 0.82432 0.16858 0.4764 0.0
H2092 H 0.81559 0.16741 0.41669 0.0
H2093 H 0.88493 0.2177 0.46062 0.0
H2094 H 0.89361 0.22626 0.49178 0.0
H2095 H 0.86483 0.23547 0.50077 0.0
H2096 H 0.85635 0.2273 0.46895 0.0
H2097 H 0.87156 0.23744 0.42176 0.0
H2098 H 0.8883 0.24639 0.39807 0.0
H2099 H 0.8954 0.21618 0.4074 0.0
H2100 H 0.87832 0.20701 0.43055 0.0
H2101 H 0.86345 0.19661 0.45863 0.0
H2102 H 0.84484 0.17595 0.45959 0.0
H2103 H 0.82486 0.1897 0.4267 0.0
N2104 N 0.86495 0.21764 0.44342 0.0
H2105 H 0.84347 0.21035 0.42597 0.0
C2106 C 0.78226 0.13247 0.47456 0.0
C2107 C 0.78798 0.12557 0.47971 0.0
C2108 C 0.78367 0.11756 0.49536 0.0
C2109 C 0.77342 0.11611 0.506 0.0
C2110 C 0.76811 0.12345 0.50133 0.0
C2111 C 0.77252 0.13156 0.48579 0.0
C2112 C 0.77813 0.13015 0.44167 0.0
C2113 C 0.76625 0.12799 0.43705 0.0
C2114 C 0.75783 0.11719 0.42743 0.0
C2115 C 0.76116 0.10832 0.42225 0.0
C2116 C 0.7735 0.11111 0.42502 0.0
C2117 C 0.78195 0.12196 0.43466 0.0
C2118 C 0.79784 0.14817 0.45269 0.0
C2119 C 0.80642 0.15398 0.46773 0.0
C2120 C 0.81818 0.1642 0.46438 0.0
C2121 C 0.82163 0.16928 0.44605 0.0
C2122 C 0.81322 0.16361 0.43096 0.0
C2123 C 0.80148 0.15326 0.43425 0.0
C2124 C 0.87006 0.22209 0.46217 0.0
C2125 C 0.88051 0.22167 0.46901 0.0
C2126 C 0.88549 0.22655 0.4869 0.0
C2127 C 0.87993 0.23159 0.49851 0.0
C2128 C 0.86927 0.23164 0.49201 0.0
C2129 C 0.86445 0.227 0.47391 0.0
C2130 C 0.87379 0.22169 0.42803 0.0
C2131 C 0.87656 0.23263 0.41836 0.0
C2132 C 0.88608 0.23769 0.40487 0.0
C2133 C 0.89313 0.23197 0.40104 0.0
C2134 C 0.8901 0.22076 0.41021 0.0
C2135 C 0.88036 0.21554 0.42341 0.0
C2136 C 0.85474 0.20506 0.44243 0.0
C2137 C 0.85511 0.19515 0.45145 0.0
C2138 C 0.84448 0.18335 0.452 0.0
C2139 C 0.83338 0.18122 0.44328 0.0
C2140 C 0.83329 0.19101 0.43338 0.0
C2141 C 0.84387 0.2028 0.43303 0.0
H2142 H 0.03041 0.5703 0.21043 0.0
N2143 N 0.01669 0.55053 0.23198 0.0
H2144 H 0.02414 0.57651 0.1812 0.0
H2145 H 0.99422 0.53746 0.21389 0.0
H2146 H 0.98791 0.54355 0.18476 0.0
H2147 H 0.99482 0.54795 0.24501 0.0
H2148 H 0.99268 0.5601 0.2708 0.0
H2149 H 0.03394 0.56471 0.25708 0.0
H2150 H 0.03183 0.57659 0.2832 0.0
H2151 H 0.0365 0.54802 0.2288 0.0
H2152 H 0.99711 0.52734 0.23923 0.0
H2153 H 0.0374 0.5289 0.22986 0.0
H2154 H 0.99758 0.5079 0.23857 0.0
H2155 H 0.03323 0.46377 0.20958 0.0
H2156 H 0.026 0.45064 0.18109 0.0
H2157 H 0.99163 0.45137 0.18292 0.0
H2158 H 0.99893 0.46447 0.21152 0.0
H2159 H 0.99931 0.45224 0.24187 0.0
H2160 H 0.99733 0.43774 0.2671 0.0
H2161 H 0.03593 0.46156 0.28179 0.0
H2162 H 0.038 0.47582 0.25599 0.0
H2163 H 0.03439 0.49323 0.21076 0.0
H2164 H 0.03272 0.5119 0.21148 0.0
H2165 H 0.0032 0.49464 0.25317 0.0
N2166 N 0.02108 0.47231 0.22983 0.0
H2167 H 0.00432 0.47563 0.2511 0.0
C2168 C 0.01287 0.5534 0.21423 0.0
C2169 C 0.02116 0.56439 0.20476 0.0
C2170 C 0.01754 0.56795 0.18819 0.0
C2171 C 0.00552 0.56052 0.18073 0.0
C2172 C 0.99727 0.54939 0.19007 0.0
C2173 C 0.00088 0.54589 0.20675 0.0
C2174 C 0.01462 0.55564 0.24901 0.0
C2175 C 0.00288 0.55404 0.25346 0.0
C2176 C 0.00167 0.56096 0.26817 0.0
C2177 C 0.01211 0.56931 0.2789 0.0
C2178 C 0.02362 0.57016 0.27527 0.0
C2179 C 0.02486 0.56342 0.26037 0.0
C2180 C 0.01674 0.53904 0.23343 0.0
C2181 C 0.02801 0.53926 0.23107 0.0
C2182 C 0.02845 0.52828 0.23147 0.0
C2183 C 0.01751 0.51672 0.2338 0.0
C2184 C 0.00621 0.51657 0.23675 0.0
C2185 C 0.00586 0.52766 0.23682 0.0
C2186 C 0.0167 0.46517 0.2125 0.0
C2187 C 0.02418 0.46115 0.20372 0.0
C2188 C 0.01999 0.45359 0.1876 0.0
C2189 C 0.00823 0.44995 0.17986 0.0
C2190 C 0.00077 0.45412 0.18852 0.0
C2191 C 0.00493 0.4616 0.20481 0.0
C2192 C 0.01892 0.465 0.24683 0.0
C2193 C 0.0073 0.45445 0.25065 0.0
C2194 C 0.00616 0.44619 0.26508 0.0
C2195 C 0.0165 0.44855 0.27622 0.0
C2196 C 0.02781 0.4596 0.27343 0.0
C2197 C 0.02902 0.46772 0.25874 0.0
C2198 C 0.01968 0.48312 0.23103 0.0
C2199 C 0.02754 0.4935 0.22 0.0
C2200 C 0.02664 0.50422 0.22062 0.0
C2201 C 0.01799 0.50497 0.2327 0.0
C2202 C 0.00994 0.49444 0.24361 0.0
C2203 C 0.01066 0.48357 0.24262 0.0
H2204 H 0.57492 0.53936 0.22103 0.0
N2205 N 0.55315 0.53053 0.23844 0.0
H2206 H 0.58214 0.55246 0.19256 0.0
H2207 H 0.539 0.5364 0.21558 0.0
H2208 H 0.54603 0.54931 0.18685 0.0
H2209 H 0.54553 0.54723 0.24671 0.0
H2210 H 0.55508 0.56404 0.27001 0.0
H2211 H 0.56896 0.533 0.26589 0.0
H2212 H 0.57856 0.5498 0.28936 0.0
H2213 H 0.54777 0.51005 0.21946 0.0
H2214 H 0.53156 0.52505 0.25801 0.0
H2215 H 0.5282 0.49056 0.21826 0.0
H2216 H 0.51223 0.50529 0.25802 0.0
H2217 H 0.4672 0.42866 0.21194 0.0
H2218 H 0.45476 0.42171 0.18276 0.0
H2219 H 0.45462 0.45638 0.18043 0.0
H2220 H 0.46671 0.46307 0.20969 0.0
H2221 H 0.4526 0.45103 0.23816 0.0
H2222 H 0.43559 0.43789 0.25946 0.0
H2223 H 0.45784 0.42333 0.28333 0.0
H2224 H 0.47438 0.43578 0.26068 0.0
H2225 H 0.49631 0.45309 0.23154 0.0
H2226 H 0.5156 0.47282 0.23499 0.0
H2227 H 0.49442 0.49162 0.24126 0.0
N2228 N 0.47334 0.44908 0.23189 0.0
H2229 H 0.47518 0.47157 0.23945 0.0
C2230 C 0.55649 0.53694 0.22039 0.0
C2231 C 0.56854 0.54136 0.21341 0.0
C2232 C 0.57261 0.5488 0.19712 0.0
C2233 C 0.56467 0.55197 0.18746 0.0
C2234 C 0.55242 0.54717 0.19412 0.0
C2235 C 0.54836 0.53973 0.21045 0.0
C2236 C 0.55661 0.53887 0.25451 0.0
C2237 C 0.55254 0.54756 0.2562 0.0
C2238 C 0.55805 0.55721 0.26947 0.0
C2239 C 0.56767 0.55832 0.28136 0.0
C2240 C 0.57112 0.54915 0.2805 0.0
C2241 C 0.56565 0.53954 0.26713 0.0
C2242 C 0.5413 0.51909 0.23879 0.0
C2243 C 0.54002 0.50908 0.22787 0.0
C2244 C 0.52881 0.49786 0.22739 0.0
C2245 C 0.51856 0.49617 0.23826 0.0
C2246 C 0.51982 0.50622 0.24927 0.0
C2247 C 0.53101 0.51759 0.24941 0.0
C2248 C 0.46793 0.44635 0.21306 0.0
C2249 C 0.46471 0.43485 0.20485 0.0
C2250 C 0.45763 0.43092 0.18816 0.0
C2251 C 0.45361 0.43845 0.17936 0.0
C2252 C 0.45742 0.45028 0.18703 0.0
C2253 C 0.46447 0.45418 0.20374 0.0
C2254 C 0.46462 0.44406 0.24743 0.0
C2255 C 0.45386 0.4451 0.24809 0.0
C2256 C 0.44414 0.43761 0.26049 0.0
C2257 C 0.44512 0.4292 0.27283 0.0
C2258 C 0.4565 0.4293 0.27354 0.0
C2259 C 0.46607 0.43654 0.26081 0.0
C2260 C 0.48438 0.46092 0.23479 0.0
C2261 C 0.49589 0.4615 0.23381 0.0
C2262 C 0.50691 0.47283 0.23558 0.0
C2263 C 0.50669 0.48398 0.23794 0.0
C2264 C 0.49505 0.4833 0.2395 0.0
C2265 C 0.48399 0.47185 0.23819 0.0
H2266 H 0.54024 0.97115 0.20842 0.0
N2267 N 0.5331 0.98402 0.22979 0.0
H2268 H 0.55395 0.97841 0.18059 0.0
H2269 H 0.54243 0.00677 0.21267 0.0
H2270 H 0.55628 0.01419 0.18504 0.0
H2271 H 0.55228 0.00579 0.24364 0.0
H2272 H 0.56653 0.00755 0.26918 0.0
H2273 H 0.52971 0.96654 0.25469 0.0
H2274 H 0.54368 0.96832 0.28071 0.0
H2275 H 0.51088 0.96543 0.22084 0.0
H2276 H 0.5297 0.00317 0.24116 0.0
H2277 H 0.49107 0.96509 0.22143 0.0
H2278 H 0.50993 0.00316 0.24116 0.0
H2279 H 0.43086 0.96796 0.20812 0.0
H2280 H 0.42345 0.97577 0.18236 0.0
H2281 H 0.45668 0.01178 0.18738 0.0
H2282 H 0.46378 0.00387 0.21364 0.0
H2283 H 0.45786 0.00288 0.24751 0.0
H2284 H 0.44536 0.00666 0.27031 0.0
H2285 H 0.41815 0.96741 0.27014 0.0
H2286 H 0.43126 0.96371 0.24852 0.0
H2287 H 0.46029 0.97196 0.20425 0.0
H2288 H 0.48063 0.97359 0.20418 0.0
H2289 H 0.48977 0.9943 0.25687 0.0
N2290 N 0.45085 0.98076 0.22964 0.0
H2291 H 0.46964 0.993 0.25667 0.0
C2292 C 0.54027 0.98835 0.21252 0.0
C2293 C 0.54361 0.9805 0.20319 0.0
C2294 C 0.55153 0.98471 0.18745 0.0
C2295 C 0.55629 0.99692 0.18071 0.0
C2296 C 0.55269 0.00471 0.1898 0.0
C2297 C 0.54477 0.00048 0.20561 0.0
C2298 C 0.54004 0.98594 0.24709 0.0
C2299 C 0.55022 0.99761 0.25185 0.0
C2300 C 0.55835 0.99862 0.26643 0.0
C2301 C 0.55622 0.98805 0.27678 0.0
C2302 C 0.54548 0.97662 0.27302 0.0
C2303 C 0.53751 0.97558 0.2582 0.0
C2304 C 0.52169 0.9843 0.23079 0.0
C2305 C 0.51069 0.97367 0.22533 0.0
C2306 C 0.49941 0.97355 0.22555 0.0
C2307 C 0.4989 0.98416 0.2311 0.0
C2308 C 0.50997 0.99481 0.23689 0.0
C2309 C 0.52129 0.99488 0.23676 0.0
C2310 C 0.44782 0.98529 0.21272 0.0
C2311 C 0.43661 0.97747 0.20339 0.0
C2312 C 0.43244 0.98197 0.18862 0.0
C2313 C 0.43945 0.99444 0.18277 0.0
C2314 C 0.45096 0.00218 0.1917 0.0
C2315 C 0.45509 0.99767 0.2066 0.0
C2316 C 0.44556 0.98294 0.24648 0.0
C2317 C 0.44949 0.99503 0.25307 0.0
C2318 C 0.44217 0.9972 0.26588 0.0
C2319 C 0.43053 0.9874 0.27183 0.0
C2320 C 0.42706 0.97522 0.26617 0.0
C2321 C 0.43455 0.97304 0.25375 0.0
C2322 C 0.46329 0.98247 0.23018 0.0
C2323 C 0.46672 0.977 0.21569 0.0
C2324 C 0.47834 0.97784 0.21577 0.0
C2325 C 0.48684 0.98401 0.2306 0.0
C2326 C 0.48352 0.98961 0.24509 0.0
C2327 C 0.47187 0.98884 0.24495 0.0
H2328 H 0.43503 0.97465 0.79988 0.0
N2329 N 0.45649 0.99271 0.78628 0.0
H2330 H 0.42588 0.97346 0.83136 0.0
H2331 H 0.46739 0.0092 0.81601 0.0
H2332 H 0.45836 0.00812 0.84702 0.0
H2333 H 0.45898 0.01588 0.78904 0.0
H2334 H 0.45 0.02473 0.76777 0.0
H2335 H 0.44443 0.98312 0.75383 0.0
H2336 H 0.43545 0.99204 0.73216 0.0
H2337 H 0.46412 0.9764 0.7816 0.0
H2338 H 0.47774 0.01569 0.78657 0.0
H2339 H 0.48547 0.98044 0.78009 0.0
H2340 H 0.49893 0.01978 0.78666 0.0
H2341 H 0.5442 0.98996 0.79829 0.0
H2342 H 0.5512 0.98391 0.8264 0.0
H2343 H 0.55836 0.01783 0.85451 0.0
H2344 H 0.55193 0.02416 0.82558 0.0
H2345 H 0.56775 0.02933 0.78227 0.0
H2346 H 0.58119 0.0272 0.75898 0.0
H2347 H 0.55069 0.99132 0.74246 0.0
H2348 H 0.53738 0.99348 0.76602 0.0
H2349 H 0.52379 0.99017 0.80199 0.0
H2350 H 0.50255 0.98565 0.79882 0.0
H2351 H 0.51545 0.02091 0.77036 0.0
N2352 N 0.54495 0.01217 0.79239 0.0
H2353 H 0.53688 0.02579 0.7751 0.0
C2354 C 0.45194 0.99188 0.80549 0.0
C2355 C 0.44021 0.98188 0.81025 0.0
C2356 C 0.43498 0.98127 0.82815 0.0
C2357 C 0.44141 0.99068 0.8417 0.0
C2358 C 0.45324 0.00061 0.83704 0.0
C2359 C 0.45844 0.00124 0.81915 0.0
C2360 C 0.45239 0.99878 0.773 0.0
C2361 C 0.45406 0.01067 0.77653 0.0
C2362 C 0.44893 0.01576 0.76427 0.0
C2363 C 0.44199 0.00909 0.74826 0.0
C2364 C 0.44063 0.99736 0.74447 0.0
C2365 C 0.44581 0.99229 0.75673 0.0
C2366 C 0.46925 0.99565 0.78445 0.0
C2367 C 0.47173 0.98589 0.78246 0.0
C2368 C 0.48397 0.98824 0.7818 0.0
C2369 C 0.49406 0.00045 0.78349 0.0
C2370 C 0.49151 0.01026 0.78503 0.0
C2371 C 0.47928 0.00791 0.78524 0.0
C2372 C 0.54771 0.00767 0.80968 0.0
C2373 C 0.54728 0.99614 0.81042 0.0
C2374 C 0.55116 0.9926 0.82672 0.0
C2375 C 0.55542 0.00038 0.84281 0.0
C2376 C 0.55537 0.01169 0.84229 0.0
C2377 C 0.5516 0.01529 0.82586 0.0
C2378 C 0.55164 0.01159 0.77597 0.0
C2379 C 0.5639 0.02117 0.77324 0.0
C2380 C 0.57154 0.01994 0.75988 0.0
C2381 C 0.56704 0.00903 0.74898 0.0
C2382 C 0.55447 0.99977 0.75083 0.0
C2383 C 0.54683 0.00103 0.76419 0.0
C2384 C 0.53207 0.00855 0.78921 0.0
C2385 C 0.52215 0.99702 0.7952 0.0
C2386 C 0.50986 0.99434 0.79311 0.0
C2387 C 0.50714 0.00294 0.78449 0.0
C2388 C 0.51709 0.01417 0.77759 0.0
C2389 C 0.52938 0.01696 0.7801 0.0
H2390 H 0.98243 0.54112 0.79712 0.0
N2391 N 0.00427 0.54211 0.78737 0.0
H2392 H 0.97874 0.55026 0.82504 0.0
H2393 H 0.01915 0.55177 0.81749 0.0
H2394 H 0.01524 0.56032 0.84645 0.0
H2395 H 0.02462 0.56137 0.77344 0.0
H2396 H 0.02568 0.57725 0.75186 0.0
H2397 H 0.98505 0.53969 0.7651 0.0
H2398 H 0.98571 0.5561 0.74514 0.0
H2399 H 0.98454 0.52191 0.80524 0.0
H2400 H 0.01279 0.53227 0.76197 0.0
H2401 H 0.97931 0.50051 0.80251 0.0
H2402 H 0.00696 0.51052 0.75834 0.0
H2403 H 0.97016 0.4361 0.81109 0.0
H2404 H 0.97642 0.42815 0.83821 0.0
H2405 H 0.01421 0.45829 0.83182 0.0
H2406 H 0.00799 0.46581 0.80444 0.0
H2407 H 0.00681 0.45823 0.77138 0.0
H2408 H 0.00929 0.44409 0.75066 0.0
H2409 H 0.96943 0.41969 0.75007 0.0
H2410 H 0.96701 0.43456 0.76963 0.0
H2411 H 0.96783 0.46089 0.78921 0.0
H2412 H 0.97072 0.48177 0.78566 0.0
H2413 H 0.00992 0.49617 0.77555 0.0
N2414 N 0.98491 0.45413 0.78745 0.0
H2415 H 0.0068 0.47547 0.77795 0.0
C2416 C 0.00119 0.54591 0.80505 0.0
C2417 C 0.98969 0.54534 0.80769 0.0
C2418 C 0.98752 0.55043 0.82393 0.0
C2419 C 0.9967 0.55609 0.83809 0.0
C2420 C 0.00803 0.55624 0.83572 0.0
C2421 C 0.01024 0.55124 0.81931 0.0
C2422 C 0.00475 0.54962 0.77137 0.0
C2423 C 0.01617 0.56002 0.76675 0.0
C2424 C 0.0167 0.56917 0.75465 0.0
C2425 C 0.00572 0.56829 0.74737 0.0
C2426 C 0.99438 0.55723 0.75056 0.0
C2427 C 0.99393 0.54788 0.76222 0.0
C2428 C 0.99922 0.52897 0.78382 0.0
C2429 C 0.98946 0.51967 0.79473 0.0
C2430 C 0.98635 0.50724 0.79307 0.0
C2431 C 0.99279 0.50371 0.78035 0.0
C2432 C 0.00199 0.51289 0.76864 0.0
C2433 C 0.00523 0.52534 0.77051 0.0
C2434 C 0.98851 0.45156 0.80568 0.0
C2435 C 0.97973 0.44116 0.81589 0.0
C2436 C 0.98334 0.43664 0.8314 0.0
C2437 C 0.99587 0.44249 0.83709 0.0
C2438 C 0.00453 0.45339 0.82759 0.0
C2439 C 0.00092 0.45783 0.81197 0.0
C2440 C 0.98664 0.44761 0.77186 0.0
C2441 C 0.99854 0.45025 0.76601 0.0
C2442 C 0.99997 0.44192 0.75443 0.0
C2443 C 0.98959 0.43056 0.74899 0.0
C2444 C 0.97766 0.42835 0.75378 0.0
C2445 C 0.97623 0.43685 0.76501 0.0
C2446 C 0.98704 0.4665 0.78411 0.0
C2447 C 0.977 0.46858 0.78599 0.0
C2448 C 0.97871 0.48054 0.78408 0.0
C2449 C 0.99059 0.49076 0.78045 0.0
C2450 C 1.00059 0.48857 0.77806 0.0
C2451 C 0.99882 0.4766 0.77971 0.0
H2452 H 0.4589 0.44873 0.79818 0.0
N2453 N 0.45429 0.46675 0.78464 0.0
H2454 H 0.44827 0.43455 0.82426 0.0
H2455 H 0.43893 0.46808 0.80984 0.0
H2456 H 0.42775 0.45343 0.83579 0.0
H2457 H 0.43233 0.45569 0.76745 0.0
H2458 H 0.42427 0.43787 0.74612 0.0
H2459 H 0.46862 0.45919 0.76517 0.0
H2460 H 0.46083 0.44181 0.74308 0.0
H2461 H 0.47531 0.46873 0.80185 0.0
H2462 H 0.46193 0.48853 0.7678 0.0
H2463 H 0.49599 0.48656 0.80142 0.0
H2464 H 0.48302 0.5065 0.76669 0.0
H2465 H 0.55349 0.53752 0.81722 0.0
H2466 H 0.5626 0.55212 0.84361 0.0
H2467 H 0.54499 0.57234 0.82284 0.0
H2468 H 0.53683 0.55828 0.79582 0.0
H2469 H 0.53474 0.55146 0.76155 0.0
H2470 H 0.54856 0.56619 0.73763 0.0
H2471 H 0.57718 0.55781 0.75372 0.0
H2472 H 0.56309 0.54278 0.77686 0.0
H2473 H 0.53428 0.51558 0.78277 0.0
H2474 H 0.51316 0.49787 0.78077 0.0
H2475 H 0.49853 0.5228 0.78612 0.0
N2476 N 0.5412 0.53926 0.78763 0.0
H2477 H 0.51962 0.5404 0.78726 0.0
C2478 C 0.44981 0.45964 0.80208 0.0
C2479 C 0.45244 0.45015 0.80663 0.0
C2480 C 0.44619 0.44188 0.82144 0.0
C2481 C 0.43699 0.44271 0.83189 0.0
C2482 C 0.43483 0.45258 0.82806 0.0
C2483 C 0.4412 0.46096 0.81327 0.0
C2484 C 0.45101 0.45877 0.7681 0.0
C2485 C 0.43868 0.45294 0.76169 0.0
C2486 C 0.4341 0.44273 0.74944 0.0
C2487 C 0.44184 0.43822 0.74311 0.0
C2488 C 0.45452 0.44483 0.74806 0.0
C2489 C 0.45905 0.45493 0.76055 0.0
C2490 C 0.46684 0.47723 0.78497 0.0
C2491 C 0.47671 0.47685 0.79423 0.0
C2492 C 0.48871 0.48712 0.79379 0.0
C2493 C 0.49124 0.49799 0.78393 0.0
C2494 C 0.4814 0.49835 0.77463 0.0
C2495 C 0.46935 0.48808 0.77517 0.0
C2496 C 0.54433 0.54664 0.80472 0.0
C2497 C 0.55142 0.54497 0.81866 0.0
C2498 C 0.55657 0.55333 0.83379 0.0
C2499 C 0.55462 0.56352 0.83541 0.0
C2500 C 0.54692 0.56477 0.82192 0.0
C2501 C 0.54198 0.55654 0.80659 0.0
C2502 C 0.54793 0.54601 0.77096 0.0
C2503 C 0.54384 0.55252 0.75948 0.0
C2504 C 0.55183 0.56106 0.74593 0.0
C2505 C 0.56409 0.56335 0.74382 0.0
C2506 C 0.5678 0.55623 0.75462 0.0
C2507 C 0.55978 0.54763 0.76795 0.0
C2508 C 0.52859 0.52928 0.78539 0.0
C2509 C 0.52649 0.51719 0.78333 0.0
C2510 C 0.51441 0.50709 0.78236 0.0
C2511 C 0.5041 0.50886 0.78357 0.0
C2512 C 0.50623 0.52107 0.78504 0.0
C2513 C 0.51835 0.53119 0.78587 0.0
H2514 H 0.66568 0.88411 0.55034 0.0
N2515 N 0.64693 0.86331 0.56759 0.0
H2516 H 0.66423 0.89336 0.52084 0.0
H2517 H 0.62861 0.85329 0.54211 0.0
H2518 H 0.62748 0.8618 0.51131 0.0
H2519 H 0.63494 0.87283 0.58586 0.0
H2520 H 0.64371 0.89056 0.60774 0.0
H2521 H 0.67059 0.875 0.58201 0.0
H2522 H 0.67944 0.89274 0.604 0.0
H2523 H 0.66185 0.8585 0.54414 0.0
H2524 H 0.6386 0.84578 0.59416 0.0
H2525 H 0.66392 0.84007 0.54493 0.0
H2526 H 0.64157 0.82788 0.5962 0.0
H2527 H 0.67199 0.78594 0.54929 0.0
H2528 H 0.67053 0.77432 0.52054 0.0
H2529 H 0.6322 0.76501 0.5137 0.0
H2530 H 0.63353 0.77575 0.54345 0.0
H2531 H 0.64292 0.76379 0.58418 0.0
H2532 H 0.6535 0.75615 0.60454 0.0
H2533 H 0.68609 0.79285 0.60502 0.0
H2534 H 0.67567 0.80013 0.58368 0.0
H2535 H 0.67128 0.80844 0.55591 0.0
H2536 H 0.6716 0.82825 0.55792 0.0
H2537 H 0.63452 0.80907 0.58193 0.0
N2538 N 0.65249 0.78583 0.56769 0.0
H2539 H 0.63488 0.78969 0.58127 0.0
C2540 C 0.64704 0.86815 0.5488 0.0
C2541 C 0.65725 0.87921 0.54203 0.0
C2542 C 0.65647 0.88443 0.52483 0.0
C2543 C 0.64564 0.87849 0.51355 0.0
C2544 C 0.6358 0.86694 0.51978 0.0
C2545 C 0.63646 0.86194 0.5373 0.0
C2546 C 0.65207 0.8726 0.58239 0.0
C2547 C 0.6446 0.877 0.59007 0.0
C2548 C 0.64964 0.88715 0.60242 0.0
C2549 C 0.66227 0.89306 0.60743 0.0
C2550 C 0.66965 0.88829 0.60047 0.0
C2551 C 0.66461 0.87817 0.58794 0.0
C2552 C 0.64974 0.85337 0.56887 0.0
C2553 C 0.65731 0.85183 0.55549 0.0
C2554 C 0.65863 0.84129 0.55612 0.0
C2555 C 0.65273 0.83224 0.57044 0.0
C2556 C 0.64589 0.83433 0.58452 0.0
C2557 C 0.64429 0.84465 0.58355 0.0
C2558 C 0.65271 0.78138 0.54881 0.0
C2559 C 0.6633 0.78144 0.54154 0.0
C2560 C 0.66246 0.77485 0.52491 0.0
C2561 C 0.65113 0.76838 0.51492 0.0
C2562 C 0.64094 0.76942 0.52134 0.0
C2563 C 0.64171 0.77571 0.53821 0.0
C2564 C 0.6584 0.78249 0.5824 0.0
C2565 C 0.65226 0.77021 0.58901 0.0
C2566 C 0.65835 0.7659 0.60076 0.0
C2567 C 0.67073 0.77385 0.60646 0.0
C2568 C 0.67665 0.78637 0.60065 0.0
C2569 C 0.67061 0.79062 0.58858 0.0
C2570 C 0.65314 0.79769 0.56887 0.0
C2571 C 0.66338 0.80865 0.56202 0.0
C2572 C 0.66344 0.81993 0.56294 0.0
C2573 C 0.65311 0.82041 0.57023 0.0
C2574 C 0.64283 0.80929 0.57679 0.0
C2575 C 0.64293 0.79813 0.57627 0.0
H2576 H 0.2397 0.87236 0.55349 0.0
N2577 N 0.21835 0.86428 0.57174 0.0
H2578 H 0.24724 0.88615 0.52586 0.0
H2579 H 0.20466 0.87146 0.55031 0.0
H2580 H 0.21196 0.88503 0.52227 0.0
H2581 H 0.21125 0.88098 0.58256 0.0
H2582 H 0.22144 0.8972 0.60654 0.0
H2583 H 0.23505 0.86627 0.59716 0.0
H2584 H 0.24567 0.88275 0.62073 0.0
H2585 H 0.21336 0.84313 0.55538 0.0
H2586 H 0.19639 0.85969 0.58898 0.0
H2587 H 0.19381 0.82349 0.55512 0.0
H2588 H 0.17705 0.83992 0.58985 0.0
H2589 H 0.13126 0.75984 0.55601 0.0
H2590 H 0.12158 0.75147 0.52494 0.0
H2591 H 0.12639 0.78725 0.50969 0.0
H2592 H 0.13572 0.79545 0.5407 0.0
H2593 H 0.11651 0.78183 0.5676 0.0
H2594 H 0.09915 0.77077 0.58929 0.0
H2595 H 0.12297 0.76485 0.62768 0.0
H2596 H 0.13995 0.77488 0.60482 0.0
H2597 H 0.16191 0.78667 0.57233 0.0
H2598 H 0.18108 0.80668 0.57421 0.0
H2599 H 0.15961 0.82536 0.57259 0.0
N2600 N 0.13887 0.78243 0.56979 0.0
H2601 H 0.14044 0.80513 0.57204 0.0
C2602 C 0.22167 0.8709 0.55389 0.0
C2603 C 0.23355 0.87494 0.54649 0.0
C2604 C 0.23781 0.88278 0.53066 0.0
C2605 C 0.23022 0.88675 0.52185 0.0
C2606 C 0.2181 0.8823 0.52888 0.0
C2607 C 0.21387 0.87446 0.5448 0.0
C2608 C 0.22236 0.87232 0.58817 0.0
C2609 C 0.21848 0.88105 0.59126 0.0
C2610 C 0.22443 0.89043 0.60484 0.0
C2611 C 0.2345 0.89141 0.61543 0.0
C2612 C 0.23788 0.88224 0.61303 0.0
C2613 C 0.23184 0.8728 0.59956 0.0
C2614 C 0.2065 0.85289 0.5723 0.0
C2615 C 0.20544 0.84248 0.56289 0.0
C2616 C 0.19425 0.83121 0.56294 0.0
C2617 C 0.1838 0.82997 0.57273 0.0
C2618 C 0.18482 0.84049 0.58202 0.0
C2619 C 0.19601 0.85186 0.58168 0.0
C2620 C 0.1344 0.77829 0.55067 0.0
C2621 C 0.13036 0.76589 0.54583 0.0
C2622 C 0.12478 0.76112 0.5282 0.0
C2623 C 0.12328 0.76874 0.51495 0.0
C2624 C 0.12758 0.78123 0.51958 0.0
C2625 C 0.13297 0.78594 0.53734 0.0
C2626 C 0.12945 0.7788 0.58431 0.0
C2627 C 0.11803 0.77821 0.58073 0.0
C2628 C 0.10807 0.77195 0.59335 0.0
C2629 C 0.10945 0.76651 0.61012 0.0
C2630 C 0.12133 0.7684 0.61458 0.0
C2631 C 0.13115 0.77431 0.60167 0.0
C2632 C 0.14984 0.79445 0.57178 0.0
C2633 C 0.1614 0.79512 0.57256 0.0
C2634 C 0.17234 0.80659 0.57341 0.0
C2635 C 0.17199 0.81774 0.57316 0.0
C2636 C 0.1603 0.81703 0.57291 0.0
C2637 C 0.14932 0.80547 0.57241 0.0
H2638 H 0.21458 0.32856 0.54822 0.0
N2639 N 0.2159 0.34937 0.56404 0.0
H2640 H 0.22183 0.32692 0.51667 0.0
H2641 H 0.22659 0.36715 0.53785 0.0
H2642 H 0.23432 0.36563 0.50625 0.0
H2643 H 0.23812 0.36427 0.57887 0.0
H2644 H 0.24979 0.35877 0.60115 0.0
H2645 H 0.20684 0.32703 0.5831 0.0
H2646 H 0.21839 0.32155 0.60522 0.0
H2647 H 0.19563 0.32655 0.55536 0.0
H2648 H 0.20654 0.36313 0.57673 0.0
H2649 H 0.17396 0.3208 0.55748 0.0
H2650 H 0.18462 0.35751 0.57832 0.0
H2651 H 0.10622 0.30998 0.5452 0.0
H2652 H 0.09731 0.31571 0.51873 0.0
H2653 H 0.12767 0.3536 0.52239 0.0
H2654 H 0.13627 0.3478 0.54927 0.0
H2655 H 0.13005 0.34687 0.58275 0.0
H2656 H 0.11612 0.34924 0.60454 0.0
H2657 H 0.09258 0.30925 0.60653 0.0
H2658 H 0.10711 0.30707 0.58592 0.0
H2659 H 0.13798 0.31929 0.54123 0.0
H2660 H 0.15982 0.32519 0.54119 0.0
H2661 H 0.16501 0.34454 0.59453 0.0
N2662 N 0.1257 0.32501 0.56648 0.0
H2663 H 0.14332 0.3389 0.59442 0.0
C2664 C 0.21981 0.34797 0.54528 0.0
C2665 C 0.2186 0.33665 0.53908 0.0
C2666 C 0.22281 0.33572 0.52106 0.0
C2667 C 0.22856 0.34613 0.50904 0.0
C2668 C 0.22992 0.35748 0.51529 0.0
C2669 C 0.22548 0.35834 0.53322 0.0
C2670 C 0.22159 0.34618 0.5793 0.0
C2671 C 0.23369 0.35501 0.58489 0.0
C2672 C 0.24036 0.35182 0.59747 0.0
C2673 C 0.23501 0.33971 0.60483 0.0
C2674 C 0.2227 0.33099 0.59991 0.0
C2675 C 0.21607 0.33415 0.58718 0.0
C2676 C 0.20284 0.34537 0.56589 0.0
C2677 C 0.19344 0.3334 0.56052 0.0
C2678 C 0.18095 0.33011 0.56161 0.0
C2679 C 0.17751 0.33872 0.56788 0.0
C2680 C 0.18691 0.35061 0.57358 0.0
C2681 C 0.19943 0.35386 0.5726 0.0
C2682 C 0.12186 0.32842 0.54917 0.0
C2683 C 0.11103 0.31947 0.54003 0.0
C2684 C 0.106 0.32277 0.52486 0.0
C2685 C 0.11174 0.33514 0.51846 0.0
C2686 C 0.1229 0.34403 0.52716 0.0
C2687 C 0.12789 0.34072 0.54243 0.0
C2688 C 0.11968 0.32674 0.58285 0.0
C2689 C 0.12218 0.33862 0.58855 0.0
C2690 C 0.11405 0.33995 0.6008 0.0
C2691 C 0.103 0.32946 0.60704 0.0
C2692 C 0.10101 0.31759 0.60231 0.0
C2693 C 0.10931 0.31628 0.59046 0.0
C2694 C 0.13883 0.32888 0.56738 0.0
C2695 C 0.14383 0.32492 0.55285 0.0
C2696 C 0.15632 0.3282 0.55295 0.0
C2697 C 0.16421 0.33537 0.56785 0.0
C2698 C 0.15925 0.33921 0.58264 0.0
C2699 C 0.1467 0.33596 0.5825 0.0
H2700 H 0.00112 0.39533 0.11226 0.0
H2701 H 0.98786 0.41046 0.06827 0.0
H2702 H 0.98832 0.42565 0.09125 0.0
H2703 H 0.98509 0.39975 0.15239 0.0
H2704 H 0.99797 0.40418 0.16844 0.0
H2705 H 0.99542 0.39366 0.14905 0.0
H2706 H 0.01787 0.40824 0.13701 0.0
H2707 H 0.02048 0.41879 0.15634 0.0
H2708 H 0.02286 0.4243 0.13209 0.0
H2709 H 0.99126 0.43998 0.11857 0.0
H2710 H 0.9973 0.4528 0.14784 0.0
H2711 H 0.00943 0.42888 0.17339 0.0
C2712 C 0.99829 0.4018 0.10741 0.0
C2713 C 0.99434 0.40157 0.08843 0.0
C2714 C 0.99064 0.41021 0.08281 0.0
C2715 C 0.99094 0.41894 0.09574 0.0
C2716 C 0.99499 0.41898 0.11425 0.0
C2717 C 0.99862 0.41066 0.12007 0.0
C2718 C 0.00327 0.4131 0.14043 0.0
C2719 C 0.99494 0.40201 0.15334 0.0
C2720 C 0.01693 0.4163 0.14152 0.0
C2721 C 0.00193 0.42427 0.14501 0.0
C2722 C 0.99697 0.42741 0.12983 0.0
C2723 C 0.99508 0.43756 0.1306 0.0
C2724 C 0.99849 0.44475 0.14727 0.0
C2725 C 0.00385 0.44184 0.16281 0.0
C2726 C 0.00545 0.43138 0.16166 0.0
H2727 H 0.60736 0.58586 0.09695 0.0
H2728 H 0.59519 0.61297 0.10122 0.0
H2729 H 0.58145 0.60122 0.12803 0.0
H2730 H 0.57751 0.55871 0.10787 0.0
H2731 H 0.58426 0.55127 0.1215 0.0
H2732 H 0.59291 0.56163 0.10229 0.0
H2733 H 0.61107 0.57482 0.12544 0.0
H2734 H 0.6025 0.5645 0.1447 0.0
H2735 H 0.60809 0.58091 0.14686 0.0
H2736 H 0.56936 0.5868 0.15469 0.0
H2737 H 0.56033 0.57112 0.18024 0.0
H2738 H 0.58005 0.55313 0.15831 0.0
C2739 C 0.60171 0.58926 0.10342 0.0
C2740 C 0.60236 0.60035 0.09703 0.0
C2741 C 0.59496 0.60459 0.10604 0.0
C2742 C 0.58706 0.59793 0.12118 0.0
C2743 C 0.58665 0.58705 0.12714 0.0
C2744 C 0.5938 0.58275 0.11859 0.0
C2745 C 0.5919 0.57098 0.12812 0.0
C2746 C 0.58631 0.56 0.11411 0.0
C2747 C 0.60412 0.57293 0.1368 0.0
C2748 C 0.58265 0.56941 0.14346 0.0
C2749 C 0.57968 0.57873 0.14255 0.0
C2750 C 0.57153 0.5794 0.15547 0.0
C2751 C 0.56638 0.57039 0.16985 0.0
C2752 C 0.56942 0.56085 0.17125 0.0
C2753 C 0.57758 0.56034 0.1577 0.0
H2754 H 0.39784 0.99036 0.09342 0.0
H2755 H 0.40495 0.02728 0.10803 0.0
H2756 H 0.41867 0.02825 0.13433 0.0
H2757 H 0.39661 0.97969 0.14116 0.0
H2758 H 0.40417 0.97095 0.13542 0.0
H2759 H 0.39518 0.97336 0.11757 0.0
H2760 H 0.41427 0.983 0.09504 0.0
H2761 H 0.42335 0.98069 0.11287 0.0
H2762 H 0.42872 0.99597 0.10317 0.0
H2763 H 0.43107 0.02484 0.15968 0.0
H2764 H 0.44091 0.01724 0.18241 0.0
H2765 H 0.42615 0.98281 0.15043 0.0
C2766 C 0.4022 0.99862 0.10224 0.0
C2767 C 0.40031 0.00874 0.09872 0.0
C2768 C 0.40636 0.01946 0.11039 0.0
C2769 C 0.41414 0.02008 0.12537 0.0
C2770 C 0.41583 0.00994 0.1284 0.0
C2771 C 0.41004 0.99942 0.11715 0.0
C2772 C 0.41331 0.98976 0.12347 0.0
C2773 C 0.40162 0.97773 0.12978 0.0
C2774 C 0.42033 0.98721 0.1077 0.0
C2775 C 0.42171 0.99642 0.14021 0.0
C2776 C 0.42309 0.00806 0.14279 0.0
C2777 C 0.43015 0.01579 0.15769 0.0
C2778 C 0.4358 0.01142 0.17045 0.0
C2779 C 0.43437 0.99943 0.16822 0.0
C2780 C 0.42736 0.99196 0.15268 0.0
H2781 H 0.38891 0.98679 0.91181 0.0
H2782 H 0.41682 1.00024 0.95657 0.0
H2783 H 0.43166 0.99925 0.93448 0.0
H2784 H 0.39765 0.966 0.88902 0.0
H2785 H 0.39504 0.96971 0.86525 0.0
H2786 H 0.38618 0.97057 0.88493 0.0
H2787 H 0.39334 0.99347 0.87638 0.0
H2788 H 0.40216 0.99265 0.85665 0.0
H2789 H 0.40972 0.00453 0.87453 0.0
H2790 H 0.44384 0.99772 0.90741 0.0
H2791 H 0.45272 0.99635 0.87667 0.0
H2792 H 0.41732 0.98475 0.84902 0.0
C2793 C 0.39813 0.98953 0.917 0.0
C2794 C 0.40159 0.99344 0.93608 0.0
C2795 C 0.41378 0.9969 0.94222 0.0
C2796 C 0.42234 0.99645 0.92973 0.0
C2797 C 0.41862 0.99256 0.91109 0.0
C2798 C 0.40684 0.9892 0.90469 0.0
C2799 C 0.40542 0.98591 0.88368 0.0
C2800 C 0.39548 0.97223 0.88054 0.0
C2801 C 0.40249 0.99467 0.87213 0.0
C2802 C 0.41831 0.98813 0.87925 0.0
C2803 C 0.42574 0.99186 0.89531 0.0
C2804 C 0.43811 0.99478 0.89473 0.0
C2805 C 0.44309 0.99404 0.87719 0.0
C2806 C 0.43573 0.99046 0.86043 0.0
C2807 C 0.42313 0.98733 0.86161 0.0
H2808 H 0.98893 0.40106 0.9284 0.0
H2809 H 0.02393 0.40377 0.91232 0.0
H2810 H 0.02568 0.41724 0.88519 0.0
H2811 H 0.97764 0.39983 0.88124 0.0
H2812 H 0.97052 0.40901 0.88676 0.0
H2813 H 0.97215 0.39977 0.90505 0.0
H2814 H 0.98402 0.41935 0.92623 0.0
H2815 H 0.98245 0.42867 0.90798 0.0
H2816 H 0.99763 0.43279 0.91692 0.0
H2817 H 0.02343 0.4301 0.85959 0.0
H2818 H 0.0171 0.44093 0.83672 0.0
H2819 H 0.98389 0.43045 0.8702 0.0
C2820 C 0.99703 0.40458 0.9193 0.0
C2821 C 0.00631 0.40136 0.92249 0.0
C2822 C 0.01665 0.40599 0.91002 0.0
C2823 C 0.01776 0.41372 0.89467 0.0
C2824 C 0.00847 0.41674 0.89199 0.0
C2825 C 0.9983 0.4123 0.90393 0.0
C2826 C 0.98949 0.41672 0.89769 0.0
C2827 C 0.97669 0.40567 0.89237 0.0
C2828 C 0.98833 0.42487 0.91312 0.0
C2829 C 0.99627 0.4243 0.8803 0.0
C2830 C 0.00722 0.42423 0.87731 0.0
C2831 C 0.01493 0.43032 0.86189 0.0
C2832 C 0.01129 0.43655 0.84905 0.0
C2833 C 1.00003 0.43667 0.8517 0.0
C2834 C 0.99252 0.43052 0.86768 0.0
H2835 H 0.59233 0.59111 0.93206 0.0
H2836 H 0.60269 0.62788 0.91084 0.0
H2837 H 0.58966 0.61841 0.88239 0.0
H2838 H 0.59215 0.57754 0.88799 0.0
H2839 H 0.5788 0.56263 0.89332 0.0
H2840 H 0.58862 0.57227 0.91233 0.0
H2841 H 0.56956 0.57142 0.92887 0.0
H2842 H 0.55967 0.56174 0.90992 0.0
H2843 H 0.56003 0.57603 0.91582 0.0
H2844 H 0.57656 0.60502 0.85539 0.0
H2845 H 0.56415 0.58874 0.832 0.0
H2846 H 0.56088 0.56059 0.87211 0.0
C2847 C 0.59172 0.5972 0.92164 0.0
C2848 C 0.59861 0.61027 0.92372 0.0
C2849 C 0.59769 0.61786 0.90946 0.0
C2850 C 0.59022 0.61256 0.89332 0.0
C2851 C 0.58361 0.59967 0.89171 0.0
C2852 C 0.58422 0.59208 0.90554 0.0
C2853 C 0.5764 0.5785 0.90019 0.0
C2854 C 0.58448 0.57238 0.89834 0.0
C2855 C 0.56578 0.57151 0.91456 0.0
C2856 C 0.57149 0.57965 0.881 0.0
C2857 C 0.57574 0.59193 0.8764 0.0
C2858 C 0.57299 0.59535 0.85898 0.0
C2859 C 0.56581 0.58598 0.84582 0.0
C2860 C 0.56135 0.57328 0.85016 0.0
C2861 C 0.56414 0.57015 0.86818 0.0
H2862 H 0.0141 0.61002 0.91486 0.0
H2863 H 0.97505 0.59127 0.93009 0.0
H2864 H 0.97079 0.57459 0.90699 0.0
H2865 H 0.00911 0.60317 0.86452 0.0
H2866 H 0.02242 0.60115 0.86185 0.0
H2867 H 0.02239 0.61141 0.87994 0.0
H2868 H 0.02695 0.59924 0.90564 0.0
H2869 H 0.02686 0.58886 0.88764 0.0
H2870 H 0.01668 0.58271 0.90796 0.0
H2871 H 0.97091 0.55966 0.88318 0.0
H2872 H 0.97491 0.54847 0.85774 0.0
H2873 H 0.01366 0.57768 0.85626 0.0
C2874 C 0.00467 0.60239 0.91327 0.0
C2875 C 0.99488 0.60188 0.92418 0.0
C2876 C 0.98263 0.59185 0.92169 0.0
C2877 C 0.98015 0.5823 0.90874 0.0
C2878 C 0.99001 0.58302 0.89827 0.0
C2879 C 0.00199 0.59287 0.90018 0.0
C2880 C 0.01079 0.59162 0.88663 0.0
C2881 C 0.01651 0.60248 0.87239 0.0
C2882 C 0.02092 0.59054 0.89763 0.0
C2883 C 0.00188 0.5795 0.87686 0.0
C2884 C 0.98998 0.57463 0.88396 0.0
C2885 C 0.98017 0.56345 0.87734 0.0
C2886 C 0.98253 0.5572 0.86278 0.0
C2887 C 0.99457 0.56222 0.85475 0.0
C2888 C 0.00438 0.57347 0.86214 0.0
H2889 H 0.39884 0.41278 0.92814 0.0
H2890 H 0.39007 0.37686 0.90514 0.0
H2891 H 0.40162 0.38705 0.87586 0.0
H2892 H 0.39667 0.42631 0.88374 0.0
H2893 H 0.40955 0.44153 0.88906 0.0
H2894 H 0.4003 0.43143 0.90814 0.0
H2895 H 0.42011 0.43339 0.92371 0.0
H2896 H 0.42942 0.4435 0.9047 0.0
H2897 H 0.43003 0.42962 0.90996 0.0
H2898 H 0.4142 0.40092 0.84939 0.0
H2899 H 0.42722 0.41775 0.82709 0.0
H2900 H 0.42859 0.44495 0.86735 0.0
C2901 C 0.39939 0.40707 0.91698 0.0
C2902 C 0.39345 0.39399 0.9189 0.0
C2903 C 0.39432 0.38685 0.90387 0.0
C2904 C 0.40093 0.39256 0.88722 0.0
C2905 C 0.40665 0.40543 0.8858 0.0
C2906 C 0.40597 0.41262 0.90023 0.0
C2907 C 0.41312 0.4263 0.89507 0.0
C2908 C 0.40438 0.43171 0.89393 0.0
C2909 C 0.4238 0.43363 0.9092 0.0
C2910 C 0.41798 0.42566 0.87554 0.0
C2911 C 0.4141 0.41351 0.87051 0.0
C2912 C 0.41737 0.41049 0.8532 0.0
C2913 C 0.42485 0.42013 0.8407 0.0
C2914 C 0.42908 0.4327 0.84555 0.0
C2915 C 0.4255 0.43545 0.8632 0.0
H2916 H 0.60391 0.01198 0.92617 0.0
H2917 H 0.58539 0.97203 0.93369 0.0
H2918 H 0.56993 0.96938 0.90912 0.0
H2919 H 0.5764 0.01437 0.91787 0.0
H2920 H 0.58371 0.02626 0.89993 0.0
H2921 H 0.59292 0.02502 0.91872 0.0
H2922 H 0.60722 0.02315 0.89366 0.0
H2923 H 0.59811 0.02446 0.87481 0.0
H2924 H 0.60044 0.01128 0.87558 0.0
H2925 H 0.55648 0.97119 0.88388 0.0
H2926 H 0.547 0.97708 0.85802 0.0
H2927 H 0.57522 0.01583 0.86569 0.0
C2928 C 0.59652 0.00269 0.92273 0.0
C2929 C 0.59575 0.9922 0.93184 0.0
C2930 C 0.58612 0.98017 0.92679 0.0
C2931 C 0.57728 0.97859 0.91296 0.0
C2932 C 0.57829 0.98914 0.90425 0.0
C2933 C 0.58774 0.00095 0.90881 0.0
C2934 C 0.58712 0.0107 0.89666 0.0
C2935 C 0.5849 0.01961 0.90904 0.0
C2936 C 0.59892 0.01781 0.88445 0.0
C2937 C 0.57588 0.00253 0.8845 0.0
C2938 C 0.57083 0.99015 0.88925 0.0
C2939 C 0.56041 0.98086 0.87995 0.0
C2940 C 0.55514 0.98431 0.86517 0.0
C2941 C 0.56039 0.99693 0.85962 0.0
C2942 C 0.57083 0.00612 0.86966 0.0
H2943 H 0.61065 0.00094 0.11549 0.0
H2944 H 0.60151 0.02111 0.07411 0.0
H2945 H 0.58641 0.02136 0.09665 0.0
H2946 H 0.58023 0.98117 0.13117 0.0
H2947 H 0.58431 0.98106 0.1558 0.0
H2948 H 0.5954 0.98368 0.13733 0.0
H2949 H 0.61138 0.00441 0.15332 0.0
H2950 H 0.60035 0.00181 0.17193 0.0
H2951 H 0.60709 0.016 0.15829 0.0
H2952 H 0.57103 0.01789 0.12271 0.0
H2953 H 0.55674 0.01107 0.15032 0.0
H2954 H 0.57585 0.99304 0.17439 0.0
C2955 C 0.60555 0.00551 0.11121 0.0
C2956 C 0.60733 0.01107 0.09304 0.0
C2957 C 0.6005 0.01699 0.08807 0.0
C2958 C 0.59184 0.01712 0.10074 0.0
C2959 C 0.59015 0.01135 0.11838 0.0
C2960 C 0.59687 0.00572 0.12366 0.0
C2961 C 0.59287 0.99962 0.14303 0.0
C2962 C 0.5879 0.98555 0.14174 0.0
C2963 C 0.60356 0.00584 0.1575 0.0
C2964 C 0.58259 0.00238 0.14756 0.0
C2965 C 0.58125 0.00928 0.13329 0.0
C2966 C 0.57208 0.01261 0.13407 0.0
C2967 C 0.56403 0.00872 0.14982 0.0
C2968 C 0.56515 0.0015 0.16448 0.0
C2969 C 0.57466 0.99843 0.16333 0.0
H2970 H 1.00059 0.60901 0.11226 0.0
H2971 H 0.98263 0.57931 0.07071 0.0
H2972 H 0.9832 0.5646 0.0937 0.0
H2973 H 0.02171 0.59999 0.12931 0.0
H2974 H 0.02117 0.60423 0.15371 0.0
H2975 H 0.01835 0.61219 0.13464 0.0
H2976 H 0.99708 0.60655 0.14954 0.0
H2977 H 0.99985 0.5986 0.16872 0.0
H2978 H 0.98594 0.59052 0.15453 0.0
H2979 H 0.98661 0.55329 0.12079 0.0
H2980 H 0.99287 0.54641 0.14975 0.0
H2981 H 0.00923 0.5837 0.17289 0.0
C2982 C 0.99676 0.59942 0.10795 0.0
C2983 C 0.9915 0.59535 0.08966 0.0
C2984 C 0.98648 0.58265 0.08474 0.0
C2985 C 0.98684 0.57422 0.09767 0.0
C2986 C 0.99225 0.57862 0.11545 0.0
C2987 C 0.99711 0.59092 0.1206 0.0
C2988 C 0.00289 0.59341 0.14025 0.0
C2989 C 0.01686 0.60302 0.13942 0.0
C2990 C 0.99603 0.59751 0.15408 0.0
C2991 C 0.00069 0.58062 0.14525 0.0
C2992 C 0.99444 0.57218 0.13085 0.0
C2993 C 0.99146 0.55981 0.1322 0.0
C2994 C 0.99502 0.55598 0.14869 0.0
C2995 C 0.00156 0.56453 0.1635 0.0
C2996 C 0.00436 0.57699 0.1617 0.0
H2997 H 0.4199 0.39642 0.08798 0.0
H2998 H 0.3903 0.40468 0.09753 0.0
H2999 H 0.4024 0.41895 0.12368 0.0
H3000 H 0.42694 0.39566 0.13672 0.0
H3001 H 0.44348 0.40268 0.13328 0.0
H3002 H 0.43298 0.39389 0.11431 0.0
H3003 H 0.44424 0.41284 0.09173 0.0
H3004 H 0.45478 0.42169 0.11066 0.0
H3005 H 0.44592 0.42756 0.09872 0.0
H3006 H 0.4171 0.43147 0.14949 0.0
H3007 H 0.43313 0.44088 0.17442 0.0
H3008 H 0.45335 0.42454 0.14851 0.0
C3009 C 0.41608 0.40139 0.09543 0.0
C3010 C 0.40419 0.39949 0.0908 0.0
C3011 C 0.39936 0.40596 0.10101 0.0
C3012 C 0.40619 0.41413 0.11577 0.0
C3013 C 0.41782 0.4157 0.12016 0.0
C3014 C 0.42273 0.4095 0.11036 0.0
C3015 C 0.43513 0.41233 0.11872 0.0
C3016 C 0.43459 0.40043 0.1262 0.0
C3017 C 0.44564 0.41901 0.10408 0.0
C3018 C 0.43631 0.42093 0.13489 0.0
C3019 C 0.42629 0.42286 0.1353 0.0
C3020 C 0.42507 0.43015 0.14922 0.0
C3021 C 0.43428 0.43553 0.16325 0.0
C3022 C 0.44457 0.43355 0.16335 0.0
C3023 C 0.4456 0.42622 0.14884 0.0
H3024 H 0.67248 0.7416 0.42768 0.0
H3025 H 0.63498 0.70996 0.42736 0.0
H3026 H 0.62931 0.71927 0.45377 0.0
H3027 H 0.67503 0.74593 0.47885 0.0
H3028 H 0.68369 0.76265 0.47745 0.0
H3029 H 0.68488 0.75347 0.45859 0.0
H3030 H 0.67836 0.76471 0.434 0.0
H3031 H 0.6771 0.77389 0.4528 0.0
H3032 H 0.66401 0.76479 0.4374 0.0
H3033 H 0.62781 0.73156 0.48053 0.0
H3034 H 0.63035 0.74621 0.50591 0.0
H3035 H 0.66855 0.77068 0.48798 0.0
C3036 C 0.66311 0.7366 0.43329 0.0
C3037 C 0.65415 0.72506 0.42545 0.0
C3038 C 0.64195 0.71887 0.43302 0.0
C3039 C 0.63866 0.72405 0.44805 0.0
C3040 C 0.64766 0.73547 0.45534 0.0
C3041 C 0.65963 0.74169 0.44824 0.0
C3042 C 0.66746 0.7539 0.45862 0.0
C3043 C 0.67841 0.75399 0.46899 0.0
C3044 C 0.67199 0.76497 0.44488 0.0
C3045 C 0.658 0.75353 0.47264 0.0
C3046 C 0.64667 0.74278 0.47052 0.0
C3047 C 0.63659 0.7401 0.48217 0.0
C3048 C 0.63811 0.74861 0.49647 0.0
C3049 C 0.64961 0.7598 0.49892 0.0
C3050 C 0.65964 0.76225 0.48667 0.0
H3051 H 0.27349 0.92188 0.43245 0.0
H3052 H 0.26206 0.9495 0.4383 0.0
H3053 H 0.2485 0.93769 0.46524 0.0
H3054 H 0.2435 0.8952 0.44259 0.0
H3055 H 0.24986 0.88714 0.45557 0.0
H3056 H 0.25877 0.89782 0.43683 0.0
H3057 H 0.27696 0.91015 0.46036 0.0
H3058 H 0.26813 0.89949 0.47914 0.0
H3059 H 0.27412 0.91591 0.48225 0.0
H3060 H 0.23621 0.9229 0.4916 0.0
H3061 H 0.22668 0.9066 0.51621 0.0
H3062 H 0.24549 0.88821 0.49229 0.0
C3063 C 0.26808 0.92542 0.4393 0.0
C3064 C 0.26889 0.93666 0.43327 0.0
C3065 C 0.26177 0.94103 0.44283 0.0
C3066 C 0.25395 0.93433 0.45805 0.0
C3067 C 0.25332 0.92326 0.46353 0.0
C3068 C 0.26022 0.91885 0.45448 0.0
C3069 C 0.25795 0.90676 0.46328 0.0
C3070 C 0.25217 0.8961 0.4487 0.0
C3071 C 0.27001 0.90817 0.47176 0.0
C3072 C 0.24874 0.90509 0.47874 0.0
C3073 C 0.24616 0.91469 0.4786 0.0
C3074 C 0.23809 0.91529 0.49177 0.0
C3075 C 0.23264 0.90592 0.5056 0.0
C3076 C 0.23527 0.89606 0.50618 0.0
C3077 C 0.24334 0.89564 0.49237 0.0
H3078 H 0.06923 0.32535 0.42728 0.0
H3079 H 0.07143 0.3604 0.44145 0.0
H3080 H 0.08546 0.36314 0.46822 0.0
H3081 H 0.06844 0.31539 0.47559 0.0
H3082 H 0.07763 0.30819 0.47065 0.0
H3083 H 0.06808 0.30919 0.45222 0.0
H3084 H 0.08738 0.32046 0.43029 0.0
H3085 H 0.097 0.31955 0.44869 0.0
H3086 H 0.10089 0.3344 0.43862 0.0
H3087 H 0.09884 0.36186 0.49391 0.0
H3088 H 0.1101 0.35633 0.51728 0.0
H3089 H 0.09929 0.32217 0.48626 0.0
C3090 C 0.07257 0.33356 0.43609 0.0
C3091 C 0.06924 0.34268 0.43218 0.0
C3092 C 0.07398 0.35337 0.44395 0.0
C3093 C 0.08192 0.35499 0.45925 0.0
C3094 C 0.08503 0.34585 0.46263 0.0
C3095 C 0.08048 0.33532 0.45144 0.0
C3096 C 0.08508 0.32678 0.45835 0.0
C3097 C 0.07416 0.31414 0.46457 0.0
C3098 C 0.09306 0.32522 0.44307 0.0
C3099 C 0.09287 0.33413 0.47526 0.0
C3100 C 0.09276 0.34511 0.47743 0.0
C3101 C 0.09907 0.35332 0.49228 0.0
C3102 C 0.10553 0.35014 0.5054 0.0
C3103 C 0.10566 0.33884 0.5036 0.0
C3104 C 0.09932 0.33083 0.48815 0.0
H3105 H 0.05522 0.31525 0.24723 0.0
H3106 H 0.08404 0.3478 0.27617 0.0
H3107 H 0.09949 0.34905 0.25283 0.0
H3108 H 0.07423 0.30168 0.23436 0.0
H3109 H 0.06704 0.29643 0.21134 0.0
H3110 H 0.05829 0.29771 0.23081 0.0
H3111 H 0.05342 0.31215 0.21044 0.0
H3112 H 0.0621 0.31087 0.1909 0.0
H3113 H 0.06604 0.32596 0.19998 0.0
H3114 H 0.11173 0.34693 0.22642 0.0
H3115 H 0.11987 0.34227 0.19746 0.0
H3116 H 0.08298 0.31158 0.18473 0.0
C3117 C 0.06481 0.32255 0.2487 0.0
C3118 C 0.06847 0.33143 0.26347 0.0
C3119 C 0.08105 0.34098 0.26485 0.0
C3120 C 0.0899 0.34171 0.25175 0.0
C3121 C 0.08599 0.33286 0.23731 0.0
C3122 C 0.07375 0.32351 0.23561 0.0
C3123 C 0.07194 0.31552 0.21824 0.0
C3124 C 0.06762 0.30204 0.22404 0.0
C3125 C 0.06284 0.31617 0.20405 0.0
C3126 C 0.08507 0.3219 0.21042 0.0
C3127 C 0.09303 0.33181 0.22175 0.0
C3128 C 0.10558 0.33922 0.21738 0.0
C3129 C 0.1101 0.33654 0.20083 0.0
C3130 C 0.10206 0.32661 0.18872 0.0
C3131 C 0.0894 0.31914 0.19378 0.0
H3132 H 0.67242 0.74487 0.26069 0.0
H3133 H 0.70517 0.74128 0.2531 0.0
H3134 H 0.71196 0.75627 0.22659 0.0
H3135 H 0.66659 0.74711 0.21221 0.0
H3136 H 0.66191 0.75856 0.2156 0.0
H3137 H 0.65984 0.74792 0.23453 0.0
H3138 H 0.6726 0.76644 0.25732 0.0
H3139 H 0.67468 0.77715 0.23845 0.0
H3140 H 0.68803 0.77832 0.25055 0.0
H3141 H 0.71455 0.77063 0.19975 0.0
H3142 H 0.71289 0.78348 0.17455 0.0
H3143 H 0.67924 0.77899 0.20093 0.0
C3144 C 0.68113 0.74738 0.2537 0.0
C3145 C 0.68821 0.74179 0.25897 0.0
C3146 C 0.69945 0.74522 0.24915 0.0
C3147 C 0.70345 0.75383 0.23417 0.0
C3148 C 0.6962 0.75906 0.22928 0.0
C3149 C 0.68533 0.75604 0.23881 0.0
C3150 C 0.67912 0.76279 0.2304 0.0
C3151 C 0.66609 0.75354 0.22273 0.0
C3152 C 0.67858 0.7717 0.24505 0.0
C3153 C 0.68806 0.76985 0.21437 0.0
C3154 C 0.69788 0.76762 0.21405 0.0
C3155 C 0.70702 0.77262 0.20003 0.0
C3156 C 0.70604 0.78002 0.18584 0.0
C3157 C 0.696 0.78241 0.18575 0.0
C3158 C 0.68701 0.77734 0.20044 0.0
H3159 H 0.27025 0.93905 0.24102 0.0
H3160 H 0.24205 0.92486 0.28528 0.0
H3161 H 0.227 0.90953 0.26265 0.0
H3162 H 0.24982 0.93549 0.20195 0.0
H3163 H 0.25772 0.93083 0.18522 0.0
H3164 H 0.26617 0.94095 0.20476 0.0
H3165 H 0.27331 0.92555 0.21553 0.0
H3166 H 0.26485 0.91537 0.19605 0.0
H3167 H 0.26182 0.90957 0.22016 0.0
H3168 H 0.21502 0.89563 0.23528 0.0
H3169 H 0.20707 0.88405 0.20504 0.0
H3170 H 0.24323 0.90684 0.17901 0.0
C3171 C 0.26093 0.93269 0.246 0.0
C3172 C 0.25733 0.93323 0.26493 0.0
C3173 C 0.24498 0.92481 0.27077 0.0
C3174 C 0.23638 0.916 0.25806 0.0
C3175 C 0.24026 0.9157 0.23955 0.0
C3176 C 0.25223 0.92382 0.23351 0.0
C3177 C 0.25405 0.92148 0.2129 0.0
C3178 C 0.25712 0.93286 0.20048 0.0
C3179 C 0.2641 0.91777 0.21106 0.0
C3180 C 0.24127 0.91068 0.20835 0.0
C3181 C 0.23342 0.90754 0.22388 0.0
C3182 C 0.22108 0.89799 0.22303 0.0
C3183 C 0.21664 0.8915 0.20582 0.0
C3184 C 0.22455 0.89453 0.18978 0.0
C3185 C 0.23703 0.90423 0.19115 0.0
H3186 H 0.67045 0.93423 0.24728 0.0
H3187 H 0.70865 0.95571 0.26673 0.0
H3188 H 0.71492 0.94533 0.24278 0.0
H3189 H 0.67048 0.90569 0.23878 0.0
H3190 H 0.66087 0.90177 0.21779 0.0
H3191 H 0.65939 0.91093 0.2364 0.0
H3192 H 0.6635 0.92822 0.21196 0.0
H3193 H 0.66491 0.91908 0.19327 0.0
H3194 H 0.67735 0.93472 0.19752 0.0
H3195 H 0.71695 0.9324 0.21695 0.0
H3196 H 0.71479 0.9186 0.19012 0.0
H3197 H 0.67527 0.90574 0.18744 0.0
C3198 C 0.68012 0.93671 0.24658 0.0
C3199 C 0.68906 0.94579 0.25887 0.0
C3200 C 0.70166 0.9489 0.2573 0.0
C3201 C 0.70529 0.94298 0.24385 0.0
C3202 C 0.69622 0.934 0.23206 0.0
C3203 C 0.68391 0.93092 0.23322 0.0
C3204 C 0.67602 0.92111 0.21868 0.0
C3205 C 0.66611 0.90917 0.22851 0.0
C3206 C 0.6701 0.92608 0.20452 0.0
C3207 C 0.68583 0.91914 0.20914 0.0
C3208 C 0.69741 0.92662 0.21712 0.0
C3209 C 0.70793 0.92652 0.21056 0.0
C3210 C 0.70662 0.91869 0.19526 0.0
C3211 C 0.69487 0.91109 0.18663 0.0
C3212 C 0.68435 0.91128 0.19387 0.0
H3213 H 0.05632 0.74868 0.25742 0.0
H3214 H 0.08181 0.73626 0.27541 0.0
H3215 H 0.09718 0.75033 0.25219 0.0
H3216 H 0.06313 0.74949 0.20779 0.0
H3217 H 0.06171 0.76295 0.2028 0.0
H3218 H 0.05304 0.75272 0.22211 0.0
H3219 H 0.06268 0.77138 0.24546 0.0
H3220 H 0.07148 0.78165 0.22623 0.0
H3221 H 0.07935 0.7808 0.24727 0.0
H3222 H 0.1096 0.76506 0.22663 0.0
H3223 H 0.11769 0.7784 0.1982 0.0
H3224 H 0.08388 0.78046 0.19494 0.0
C3225 C 0.06511 0.74887 0.25649 0.0
C3226 C 0.06787 0.74147 0.26863 0.0
C3227 C 0.07954 0.74208 0.26682 0.0
C3228 C 0.08835 0.75001 0.25355 0.0
C3229 C 0.08536 0.75721 0.24198 0.0
C3230 C 0.07399 0.75665 0.24312 0.0
C3231 C 0.07288 0.76481 0.22807 0.0
C3232 C 0.06205 0.75703 0.21438 0.0
C3233 C 0.07152 0.77528 0.23732 0.0
C3234 C 0.08535 0.7699 0.21818 0.0
C3235 C 0.09243 0.7655 0.22665 0.0
C3236 C 0.10415 0.76857 0.21985 0.0
C3237 C 0.10864 0.77611 0.20366 0.0
C3238 C 0.1014 0.78041 0.1943 0.0
C3239 C 0.08969 0.77744 0.20193 0.0
H3240 H 0.26206 0.33451 0.2565 0.0
H3241 H 0.26006 0.29862 0.25426 0.0
H3242 H 0.24441 0.29203 0.22874 0.0
H3243 H 0.22889 0.3224 0.24921 0.0
H3244 H 0.2313 0.33554 0.23508 0.0
H3245 H 0.24236 0.33745 0.25328 0.0
H3246 H 0.26006 0.34661 0.22825 0.0
H3247 H 0.24907 0.34471 0.20998 0.0
H3248 H 0.25872 0.33779 0.20709 0.0
H3249 H 0.22971 0.28967 0.20247 0.0
H3250 H 0.21679 0.29154 0.17766 0.0
H3251 H 0.22687 0.32827 0.19885 0.0
C3252 C 0.25823 0.32519 0.25088 0.0
C3253 C 0.26243 0.31714 0.25739 0.0
C3254 C 0.25725 0.3051 0.24931 0.0
C3255 C 0.24824 0.3012 0.23491 0.0
C3256 C 0.24437 0.30939 0.22884 0.0
C3257 C 0.24913 0.3211 0.23664 0.0
C3258 C 0.24342 0.32812 0.22746 0.0
C3259 C 0.23605 0.33104 0.24213 0.0
C3260 C 0.25342 0.34001 0.21761 0.0
C3261 C 0.23486 0.31859 0.21305 0.0
C3262 C 0.23554 0.30786 0.21411 0.0
C3263 C 0.22893 0.29795 0.20171 0.0
C3264 C 0.22149 0.29908 0.18773 0.0
C3265 C 0.2206 0.31 0.18628 0.0
C3266 C 0.22733 0.31981 0.19937 0.0
H3267 H 0.28022 0.36033 0.43009 0.0
H3268 H 0.25185 0.32861 0.3989 0.0
H3269 H 0.23621 0.3263 0.42257 0.0
H3270 H 0.26969 0.348 0.47616 0.0
H3271 H 0.27313 0.36257 0.48684 0.0
H3272 H 0.28198 0.36242 0.46663 0.0
H3273 H 0.27638 0.37707 0.44834 0.0
H3274 H 0.26751 0.37727 0.46851 0.0
H3275 H 0.26029 0.3727 0.44539 0.0
H3276 H 0.22401 0.32622 0.4508 0.0
H3277 H 0.21589 0.3289 0.48152 0.0
H3278 H 0.25191 0.36079 0.4944 0.0
C3279 C 0.2707 0.35296 0.42817 0.0
C3280 C 0.26726 0.34473 0.41251 0.0
C3281 C 0.25469 0.3352 0.41053 0.0
C3282 C 0.24573 0.33376 0.42397 0.0
C3283 C 0.24945 0.34195 0.43929 0.0
C3284 C 0.26161 0.35142 0.44144 0.0
C3285 C 0.26321 0.35866 0.45962 0.0
C3286 C 0.27255 0.35786 0.47311 0.0
C3287 C 0.26707 0.37223 0.45519 0.0
C3288 C 0.25011 0.35161 0.46752 0.0
C3289 C 0.24232 0.34203 0.45552 0.0
C3290 C 0.22997 0.33379 0.4602 0.0
C3291 C 0.22545 0.33534 0.47767 0.0
C3292 C 0.23326 0.34509 0.49016 0.0
C3293 C 0.2457 0.3534 0.4849 0.0
H3294 H 0.66988 0.92731 0.42742 0.0
H3295 H 0.63146 0.91624 0.41592 0.0
H3296 H 0.62467 0.9006 0.44179 0.0
H3297 H 0.66404 0.89594 0.43736 0.0
H3298 H 0.67575 0.90108 0.45569 0.0
H3299 H 0.6775 0.91129 0.43623 0.0
H3300 H 0.67969 0.92809 0.4603 0.0
H3301 H 0.67792 0.91793 0.47981 0.0
H3302 H 0.66768 0.92423 0.47782 0.0
H3303 H 0.62234 0.88749 0.47046 0.0
H3304 H 0.6243 0.87674 0.49844 0.0
H3305 H 0.66418 0.89461 0.48884 0.0
C3306 C 0.66005 0.92153 0.43038 0.0
C3307 C 0.65114 0.92292 0.4199 0.0
C3308 C 0.63836 0.91522 0.4239 0.0
C3309 C 0.63444 0.90635 0.43853 0.0
C3310 C 0.64346 0.9052 0.4487 0.0
C3311 C 0.65598 0.91246 0.44465 0.0
C3312 C 0.66373 0.90925 0.45757 0.0
C3313 C 0.67066 0.90408 0.44602 0.0
C3314 C 0.67279 0.92055 0.46959 0.0
C3315 C 0.65363 0.89926 0.46981 0.0
C3316 C 0.64203 0.89712 0.46453 0.0
C3317 C 0.63136 0.88888 0.47448 0.0
C3318 C 0.63258 0.8827 0.49032 0.0
C3319 C 0.64439 0.8846 0.49597 0.0
C3320 C 0.655 0.89292 0.48525 0.0
H3321 H 0.06743 0.72193 0.44783 0.0
H3322 H 0.08865 0.74467 0.39986 0.0
H3323 H 0.10568 0.75838 0.42165 0.0
H3324 H 0.07633 0.74667 0.48144 0.0
H3325 H 0.0773 0.73801 0.50132 0.0
H3326 H 0.06683 0.72998 0.48193 0.0
H3327 H 0.07714 0.71649 0.47719 0.0
H3328 H 0.08767 0.7245 0.49655 0.0
H3329 H 0.09369 0.72396 0.47342 0.0
H3330 H 0.11999 0.77007 0.44876 0.0
H3331 H 0.13105 0.77839 0.47931 0.0
H3332 H 0.10088 0.74761 0.50944 0.0
C3333 C 0.07566 0.72982 0.44197 0.0
C3334 C 0.07677 0.73227 0.4222 0.0
C3335 C 0.0877 0.74259 0.41497 0.0
C3336 C 0.09739 0.75045 0.42722 0.0
C3337 C 0.09603 0.74777 0.44664 0.0
C3338 C 0.08549 0.73766 0.45398 0.0
C3339 C 0.08644 0.73679 0.47538 0.0
C3340 C 0.07611 0.73793 0.48562 0.0
C3341 C 0.08623 0.72472 0.48096 0.0
C3342 C 0.09909 0.74806 0.47895 0.0
C3343 C 0.10444 0.7543 0.46219 0.0
C3344 C 0.11594 0.76522 0.46196 0.0
C3345 C 0.12213 0.76989 0.47933 0.0
C3346 C 0.11685 0.76358 0.49662 0.0
C3347 C 0.10521 0.7525 0.49636 0.0
H3348 H 0.33608 0.07816 0.75159 0.0
H3349 H 0.30247 0.04469 0.76891 0.0
H3350 H 0.30032 0.05603 0.79625 0.0
H3351 H 0.34798 0.08857 0.79778 0.0
H3352 H 0.35421 0.10481 0.79251 0.0
H3353 H 0.35273 0.09423 0.77383 0.0
H3354 H 0.33952 0.101 0.75398 0.0
H3355 H 0.34099 0.11163 0.77259 0.0
H3356 H 0.3258 0.10003 0.76438 0.0
H3357 H 0.30237 0.07083 0.82238 0.0
H3358 H 0.30862 0.0878 0.84567 0.0
H3359 H 0.34056 0.11175 0.81056 0.0
C3360 C 0.32814 0.07325 0.76093 0.0
C3361 C 0.31941 0.06054 0.75808 0.0
C3362 C 0.30932 0.0544 0.77091 0.0
C3363 C 0.30798 0.06078 0.78639 0.0
C3364 C 0.31679 0.0733 0.78881 0.0
C3365 C 0.32667 0.07947 0.77642 0.0
C3366 C 0.33511 0.0928 0.78256 0.0
C3367 C 0.34828 0.09524 0.78693 0.0
C3368 C 0.33536 0.1019 0.76748 0.0
C3369 C 0.32853 0.09313 0.80049 0.0
C3370 C 0.31795 0.08182 0.80379 0.0
C3371 C 0.31056 0.07978 0.81982 0.0
C3372 C 0.31415 0.08951 0.83291 0.0
C3373 C 0.32505 0.10116 0.82992 0.0
C3374 C 0.33222 0.10296 0.81334 0.0
H3375 H 0.9457 0.26404 0.78198 0.0
H3376 H 0.92518 0.23832 0.7361 0.0
H3377 H 0.9126 0.22234 0.75968 0.0
H3378 H 0.94543 0.24203 0.81528 0.0
H3379 H 0.94285 0.24922 0.83573 0.0
H3380 H 0.95097 0.25849 0.81526 0.0
H3381 H 0.93515 0.26623 0.81282 0.0
H3382 H 0.92701 0.25702 0.83332 0.0
H3383 H 0.91878 0.25506 0.81125 0.0
H3384 H 0.9022 0.20894 0.78827 0.0
H3385 H 0.89366 0.19981 0.81993 0.0
H3386 H 0.91942 0.23478 0.84688 0.0
C3387 C 0.93853 0.25511 0.77676 0.0
C3388 C 0.93669 0.2525 0.75699 0.0
C3389 C 0.92717 0.24056 0.75105 0.0
C3390 C 0.91984 0.23139 0.76437 0.0
C3391 C 0.92194 0.23431 0.78365 0.0
C3392 C 0.93093 0.24592 0.78984 0.0
C3393 C 0.93085 0.24686 0.81137 0.0
C3394 C 0.94326 0.24929 0.81991 0.0
C3395 C 0.92776 0.25689 0.81755 0.0
C3396 C 0.9204 0.23396 0.81627 0.0
C3397 C 0.91549 0.2268 0.80009 0.0
C3398 C 0.90591 0.21447 0.80104 0.0
C3399 C 0.90116 0.20935 0.81902 0.0
C3400 C 0.90586 0.21664 0.83569 0.0
C3401 C 0.91561 0.22907 0.83427 0.0
H3402 H 0.75059 0.68698 0.76033 0.0
H3403 H 0.71728 0.65257 0.77524 0.0
H3404 H 0.72797 0.6504 0.80345 0.0
H3405 H 0.77293 0.67816 0.77502 0.0
H3406 H 0.78376 0.69322 0.78463 0.0
H3407 H 0.77363 0.69192 0.76529 0.0
H3408 H 0.76528 0.70374 0.78519 0.0
H3409 H 0.77541 0.70511 0.80456 0.0
H3410 H 0.75892 0.69809 0.80856 0.0
H3411 H 0.74228 0.65173 0.82947 0.0
H3412 H 0.75882 0.65728 0.85337 0.0
H3413 H 0.78268 0.69135 0.82257 0.0
C3414 C 0.74561 0.67898 0.76953 0.0
C3415 C 0.73315 0.66991 0.76568 0.0
C3416 C 0.72681 0.65964 0.77809 0.0
C3417 C 0.73282 0.6583 0.79404 0.0
C3418 C 0.74511 0.66739 0.79747 0.0
C3419 C 0.75141 0.67761 0.78571 0.0
C3420 C 0.76442 0.68627 0.79308 0.0
C3421 C 0.77427 0.68745 0.77864 0.0
C3422 C 0.7661 0.69906 0.79815 0.0
C3423 C 0.76446 0.67929 0.81077 0.0
C3424 C 0.75327 0.66837 0.81289 0.0
C3425 C 0.75108 0.66026 0.82799 0.0
C3426 C 0.76055 0.66345 0.84141 0.0
C3427 C 0.77202 0.6747 0.83974 0.0
C3428 C 0.77398 0.68271 0.82419 0.0
H3429 H 0.72599 0.64424 0.59175 0.0
H3430 H 0.74186 0.68427 0.58975 0.0
H3431 H 0.75575 0.68556 0.56366 0.0
H3432 H 0.75484 0.6442 0.58202 0.0
H3433 H 0.7473 0.63039 0.56754 0.0
H3434 H 0.73888 0.63261 0.58657 0.0
H3435 H 0.72178 0.62987 0.56268 0.0
H3436 H 0.73015 0.62764 0.54359 0.0
H3437 H 0.72605 0.63962 0.5418 0.0
H3438 H 0.76732 0.68251 0.53712 0.0
H3439 H 0.77556 0.67527 0.51132 0.0
H3440 H 0.75276 0.63726 0.53107 0.0
C3441 C 0.73249 0.65329 0.58596 0.0
C3442 C 0.73279 0.66415 0.59272 0.0
C3443 C 0.74132 0.6758 0.5846 0.0
C3444 C 0.74932 0.67665 0.56989 0.0
C3445 C 0.74872 0.66577 0.56347 0.0
C3446 C 0.74054 0.65431 0.57123 0.0
C3447 C 0.74153 0.64401 0.56128 0.0
C3448 C 0.7459 0.63742 0.57518 0.0
C3449 C 0.72914 0.63474 0.55177 0.0
C3450 C 0.75143 0.65148 0.54657 0.0
C3451 C 0.7555 0.66401 0.54819 0.0
C3452 C 0.76432 0.67273 0.53584 0.0
C3453 C 0.76902 0.66852 0.5213 0.0
C3454 C 0.76491 0.65569 0.5192 0.0
C3455 C 0.75607 0.64711 0.5322 0.0
H3456 H 0.34797 0.06939 0.57334 0.0
H3457 H 0.33228 0.08328 0.61541 0.0
H3458 H 0.33407 0.09917 0.59266 0.0
H3459 H 0.36979 0.0988 0.55309 0.0
H3460 H 0.3676 0.09313 0.52894 0.0
H3461 H 0.36519 0.08279 0.54853 0.0
H3462 H 0.34288 0.06766 0.53653 0.0
H3463 H 0.34525 0.0779 0.51682 0.0
H3464 H 0.33226 0.07335 0.53268 0.0
H3465 H 0.33782 0.11378 0.56573 0.0
H3466 H 0.34248 0.12562 0.53572 0.0
H3467 H 0.35477 0.10169 0.51047 0.0
C3468 C 0.3448 0.07569 0.57772 0.0
C3469 C 0.34012 0.07515 0.59629 0.0
C3470 C 0.33616 0.08366 0.60145 0.0
C3471 C 0.33706 0.09269 0.58858 0.0
C3472 C 0.34186 0.09307 0.57052 0.0
C3473 C 0.34558 0.08475 0.56501 0.0
C3474 C 0.35028 0.08713 0.54464 0.0
C3475 C 0.36403 0.09067 0.54376 0.0
C3476 C 0.34218 0.07584 0.53192 0.0
C3477 C 0.34863 0.09809 0.53964 0.0
C3478 C 0.3438 0.10137 0.5548 0.0
C3479 C 0.34152 0.11124 0.55369 0.0
C3480 C 0.34414 0.11787 0.53654 0.0
C3481 C 0.34894 0.11457 0.52066 0.0
C3482 C 0.35125 0.10456 0.52237 0.0
H3483 H 0.93331 0.27499 0.57153 0.0
H3484 H 0.90702 0.25532 0.61719 0.0
H3485 H 0.89092 0.24321 0.59345 0.0
H3486 H 0.91208 0.27592 0.53807 0.0
H3487 H 0.91899 0.27292 0.51767 0.0
H3488 H 0.92837 0.2807 0.53821 0.0
H3489 H 0.93501 0.26403 0.54072 0.0
H3490 H 0.9257 0.25623 0.52013 0.0
H3491 H 0.92325 0.24785 0.54216 0.0
H3492 H 0.87743 0.23333 0.56473 0.0
H3493 H 0.86821 0.22517 0.53296 0.0
H3494 H 0.90372 0.24972 0.50637 0.0
C3495 C 0.92424 0.26808 0.57667 0.0
C3496 C 0.92151 0.26636 0.59641 0.0
C3497 C 0.90937 0.25721 0.60225 0.0
C3498 C 0.90013 0.25016 0.58885 0.0
C3499 C 0.90316 0.25216 0.5696 0.0
C3500 C 0.91496 0.26077 0.56351 0.0
C3501 C 0.91595 0.26068 0.542 0.0
C3502 C 0.91903 0.27331 0.53349 0.0
C3503 C 0.92555 0.25697 0.5359 0.0
C3504 C 0.90286 0.25068 0.53697 0.0
C3505 C 0.89558 0.24599 0.55308 0.0
C3506 C 0.88306 0.23686 0.55201 0.0
C3507 C 0.8779 0.23232 0.53398 0.0
C3508 C 0.8853 0.23679 0.51738 0.0
C3509 C 0.89792 0.24609 0.51892 0.0
H3510 H 0.3483 0.27923 0.57475 0.0
H3511 H 0.34713 0.25615 0.6221 0.0
H3512 H 0.35067 0.24289 0.59985 0.0
H3513 H 0.33288 0.25509 0.54092 0.0
H3514 H 0.34244 0.26395 0.5211 0.0
H3515 H 0.34002 0.27178 0.54079 0.0
H3516 H 0.36384 0.28532 0.54549 0.0
H3517 H 0.36634 0.27754 0.52578 0.0
H3518 H 0.37299 0.27789 0.54876 0.0
H3519 H 0.3534 0.23156 0.57227 0.0
H3520 H 0.35597 0.22352 0.54134 0.0
H3521 H 0.35631 0.2545 0.51232 0.0
C3522 C 0.34896 0.2715 0.58051 0.0
C3523 C 0.34731 0.26869 0.6002 0.0
C3524 C 0.34809 0.25836 0.60705 0.0
C3525 C 0.3502 0.25082 0.59454 0.0
C3526 C 0.35165 0.25378 0.57523 0.0
C3527 C 0.35116 0.26392 0.56825 0.0
C3528 C 0.35291 0.265 0.54684 0.0
C3529 C 0.34137 0.26389 0.53683 0.0
C3530 C 0.36472 0.27716 0.5414 0.0
C3531 C 0.35434 0.25381 0.54285 0.0
C3532 C 0.35356 0.24744 0.55941 0.0
C3533 C 0.35413 0.23653 0.55923 0.0
C3534 C 0.35554 0.232 0.54163 0.0
C3535 C 0.35643 0.23844 0.52453 0.0
C3536 C 0.35587 0.24951 0.52523 0.0
H3537 H 0.73403 0.08348 0.5999 0.0
H3538 H 0.73365 0.04992 0.58165 0.0
H3539 H 0.74683 0.0612 0.55414 0.0
H3540 H 0.73241 0.09428 0.55365 0.0
H3541 H 0.7427 0.11046 0.559 0.0
H3542 H 0.73358 0.09988 0.57769 0.0
H3543 H 0.75361 0.10628 0.59716 0.0
H3544 H 0.76281 0.11688 0.57852 0.0
H3545 H 0.76614 0.10506 0.58644 0.0
H3546 H 0.75935 0.07577 0.52812 0.0
H3547 H 0.77016 0.09264 0.50481 0.0
H3548 H 0.76318 0.1171 0.54043 0.0
C3549 C 0.73684 0.07855 0.59023 0.0
C3550 C 0.73276 0.0658 0.59288 0.0
C3551 C 0.7365 0.05964 0.57976 0.0
C3552 C 0.74407 0.06598 0.56417 0.0
C3553 C 0.74787 0.07851 0.56193 0.0
C3554 C 0.74441 0.08475 0.57457 0.0
C3555 C 0.74951 0.09815 0.56854 0.0
C3556 C 0.73892 0.10084 0.56447 0.0
C3557 C 0.75856 0.10712 0.58356 0.0
C3558 C 0.75626 0.0984 0.55042 0.0
C3559 C 0.75524 0.08699 0.54695 0.0
C3560 C 0.76035 0.0848 0.53079 0.0
C3561 C 0.76657 0.0945 0.51769 0.0
C3562 C 0.76766 0.10628 0.52083 0.0
C3563 C 0.7625 0.10822 0.53755 0.0
H3564 H 0.92026 0.64536 0.58848 0.0
H3565 H 0.94639 0.68473 0.58128 0.0
H3566 H 0.93359 0.68556 0.55503 0.0
H3567 H 0.91365 0.63828 0.53867 0.0
H3568 H 0.89744 0.62718 0.54241 0.0
H3569 H 0.90863 0.6297 0.56071 0.0
H3570 H 0.896 0.63474 0.58488 0.0
H3571 H 0.8848 0.63229 0.56662 0.0
H3572 H 0.89245 0.64681 0.57941 0.0
H3573 H 0.91796 0.68221 0.5299 0.0
H3574 H 0.90105 0.67467 0.50623 0.0
H3575 H 0.8849 0.63748 0.5298 0.0
C3576 C 0.92325 0.65416 0.58141 0.0
C3577 C 0.93434 0.66498 0.58688 0.0
C3578 C 0.93802 0.67629 0.57716 0.0
C3579 C 0.93077 0.67688 0.56234 0.0
C3580 C 0.91987 0.66606 0.55738 0.0
C3581 C 0.91615 0.6549 0.56652 0.0
C3582 C 0.90415 0.6446 0.55816 0.0
C3583 C 0.90609 0.63434 0.54947 0.0
C3584 C 0.89374 0.6393 0.57316 0.0
C3585 C 0.90172 0.65173 0.54287 0.0
C3586 C 0.91087 0.66411 0.54276 0.0
C3587 C 0.9107 0.67255 0.52988 0.0
C3588 C 0.901 0.66819 0.5166 0.0
C3589 C 0.8916 0.6555 0.51624 0.0
C3590 C 0.89197 0.64721 0.52967 0.0
H3591 H 0.94126 0.6918 0.76013 0.0
H3592 H 0.92259 0.65156 0.75767 0.0
H3593 H 0.90905 0.65022 0.78441 0.0
H3594 H 0.94114 0.69446 0.81089 0.0
H3595 H 0.93825 0.70729 0.81062 0.0
H3596 H 0.94632 0.70509 0.79104 0.0
H3597 H 0.93008 0.70471 0.76745 0.0
H3598 H 0.92195 0.7069 0.78697 0.0
H3599 H 0.9138 0.69382 0.77118 0.0
H3600 H 0.89831 0.65324 0.81232 0.0
H3601 H 0.89064 0.66033 0.83904 0.0
H3602 H 0.9154 0.69868 0.82223 0.0
C3603 C 0.93434 0.68272 0.76527 0.0
C3604 C 0.93295 0.67177 0.75684 0.0
C3605 C 0.92371 0.66005 0.76381 0.0
C3606 C 0.91601 0.6592 0.77902 0.0
C3607 C 0.91761 0.67016 0.787 0.0
C3608 C 0.92648 0.6817 0.78032 0.0
C3609 C 0.92625 0.69202 0.79146 0.0
C3610 C 0.93873 0.7002 0.8016 0.0
C3611 C 0.92281 0.69982 0.77849 0.0
C3612 C 0.91598 0.68447 0.8056 0.0
C3613 C 0.91114 0.67189 0.80279 0.0
C3614 C 0.9019 0.66307 0.8145 0.0
C3615 C 0.89751 0.66722 0.82958 0.0
C3616 C 0.90228 0.6801 0.83276 0.0
C3617 C 0.91158 0.68878 0.8204 0.0
H3618 H 0.33313 0.26095 0.76357 0.0
H3619 H 0.2975 0.2595 0.76442 0.0
H3620 H 0.29089 0.24492 0.79159 0.0
H3621 H 0.32154 0.22877 0.77543 0.0
H3622 H 0.3347 0.23197 0.79015 0.0
H3623 H 0.33654 0.24211 0.77055 0.0
H3624 H 0.3455 0.26094 0.79357 0.0
H3625 H 0.34372 0.25087 0.81322 0.0
H3626 H 0.33663 0.26045 0.81422 0.0
H3627 H 0.28839 0.23095 0.8192 0.0
H3628 H 0.29023 0.21875 0.84543 0.0
H3629 H 0.32737 0.22903 0.82614 0.0
C3630 C 0.32397 0.25763 0.76955 0.0
C3631 C 0.31582 0.26135 0.76185 0.0
C3632 C 0.30384 0.25666 0.76993 0.0
C3633 C 0.30002 0.24842 0.7854 0.0
C3634 C 0.30827 0.24492 0.7926 0.0
C3635 C 0.31999 0.24937 0.78494 0.0
C3636 C 0.3271 0.24424 0.79542 0.0
C3637 C 0.33015 0.2363 0.78209 0.0
C3638 C 0.33894 0.25475 0.80466 0.0
C3639 C 0.3176 0.23631 0.8103 0.0
C3640 C 0.30679 0.23679 0.8084 0.0
C3641 C 0.29678 0.23041 0.82074 0.0
C3642 C 0.29788 0.22343 0.83552 0.0
C3643 C 0.30892 0.22286 0.83785 0.0
C3644 C 0.31884 0.22934 0.8249 0.0
H3645 H 0.7508 0.06684 0.75635 0.0
H3646 H 0.71533 0.05784 0.78123 0.0
H3647 H 0.72615 0.07061 0.80949 0.0
H3648 H 0.76476 0.06506 0.80019 0.0
H3649 H 0.78003 0.07764 0.79425 0.0
H3650 H 0.76953 0.06833 0.7756 0.0
H3651 H 0.77179 0.08821 0.75978 0.0
H3652 H 0.78226 0.09757 0.77845 0.0
H3653 H 0.7685 0.09848 0.77352 0.0
H3654 H 0.74076 0.0845 0.83464 0.0
H3655 H 0.7581 0.097 0.85672 0.0
H3656 H 0.78408 0.09608 0.8164 0.0
C3657 C 0.74536 0.06765 0.76775 0.0
C3658 C 0.73227 0.06146 0.76671 0.0
C3659 C 0.72538 0.06252 0.78191 0.0
C3660 C 0.73144 0.06978 0.79791 0.0
C3661 C 0.74437 0.0758 0.79853 0.0
C3662 C 0.75126 0.07469 0.78398 0.0
C3663 C 0.76501 0.0816 0.78867 0.0
C3664 C 0.77013 0.07262 0.78974 0.0
C3665 C 0.77232 0.09209 0.77425 0.0
C3666 C 0.76477 0.08674 0.80813 0.0
C3667 C 0.75278 0.08343 0.81341 0.0
C3668 C 0.75018 0.08715 0.83069 0.0
C3669 C 0.76008 0.0943 0.84307 0.0
C3670 C 0.77238 0.09751 0.83818 0.0
C3671 C 0.77474 0.09372 0.82045 0.0
H3672 H 0.05524 0.34241 0.02051 0.0
H3673 H 0.06856 0.37787 0.0491 0.0
H3674 H 0.0863 0.37653 0.06179 0.0
H3675 H 0.0613 0.32804 0.05858 0.0
H3676 H 0.06585 0.31905 0.044 0.0
H3677 H 0.05521 0.3236 0.03477 0.0
H3678 H 0.06976 0.3341 0.0059 0.0
H3679 H 0.08047 0.32959 0.01508 0.0
H3680 H 0.08579 0.34569 0.00995 0.0
H3681 H 0.10138 0.37049 0.07409 0.0
H3682 H 0.1122 0.35982 0.08607 0.0
H3683 H 0.08897 0.32802 0.05024 0.0
C3684 C 0.0619 0.34996 0.02933 0.0
C3685 C 0.06047 0.36031 0.03359 0.0
C3686 C 0.06952 0.36998 0.04515 0.0
C3687 C 0.07964 0.36928 0.05254 0.0
C3688 C 0.08062 0.35886 0.04832 0.0
C3689 C 0.07199 0.34936 0.037 0.0
C3690 C 0.07461 0.3387 0.03597 0.0
C3691 C 0.06359 0.32664 0.0438 0.0
C3692 C 0.07785 0.33692 0.0155 0.0
C3693 C 0.08584 0.34354 0.04894 0.0
C3694 C 0.08926 0.35527 0.05566 0.0
C3695 C 0.09892 0.36139 0.06868 0.0
C3696 C 0.10508 0.35527 0.07531 0.0
C3697 C 0.10154 0.34309 0.06901 0.0
C3698 C 0.09193 0.33731 0.05535 0.0
H3699 H 0.6612 0.71469 0.02189 0.0
H3700 H 0.62854 0.69214 0.05658 0.0
H3701 H 0.63039 0.71109 0.07076 0.0
H3702 H 0.67828 0.73605 0.05772 0.0
H3703 H 0.68552 0.7494 0.04225 0.0
H3704 H 0.68071 0.73418 0.03289 0.0
H3705 H 0.66736 0.73714 0.00732 0.0
H3706 H 0.67212 0.7524 0.01663 0.0
H3707 H 0.65583 0.74106 0.01464 0.0
H3708 H 0.6369 0.73217 0.08361 0.0
H3709 H 0.64792 0.75385 0.09476 0.0
H3710 H 0.67639 0.76295 0.05183 0.0
C3711 C 0.65436 0.71372 0.03234 0.0
C3712 C 0.64464 0.70187 0.03792 0.0
C3713 C 0.6359 0.70107 0.05167 0.0
C3714 C 0.6369 0.7118 0.0599 0.0
C3715 C 0.64667 0.7233 0.05425 0.0
C3716 C 0.65525 0.72434 0.04077 0.0
C3717 C 0.66539 0.73776 0.03826 0.0
C3718 C 0.67823 0.73944 0.04307 0.0
C3719 C 0.66516 0.74236 0.01801 0.0
C3720 C 0.66138 0.74402 0.05288 0.0
C3721 C 0.65047 0.73553 0.06174 0.0
C3722 C 0.64534 0.73896 0.07654 0.0
C3723 C 0.65164 0.75135 0.08269 0.0
C3724 C 0.663 0.7602 0.0741 0.0
C3725 C 0.66775 0.75645 0.05873 0.0
H3726 H 0.29711 0.95194 0.0559 0.0
H3727 H 0.29053 0.94473 0.99535 0.0
H3728 H 0.26892 0.92809 0.00205 0.0
H3729 H 0.27951 0.92065 0.0719 0.0
H3730 H 0.27354 0.9244 0.09273 0.0
H3731 H 0.28834 0.9357 0.08295 0.0
H3732 H 0.28061 0.95152 0.08013 0.0
H3733 H 0.26575 0.94023 0.08979 0.0
H3734 H 0.26657 0.94733 0.06703 0.0
H3735 H 0.24851 0.91127 0.01579 0.0
H3736 H 0.23057 0.89638 0.03543 0.0
H3737 H 0.25021 0.91577 0.0866 0.0
C3738 C 0.2911 0.94681 0.04409 0.0
C3739 C 0.29543 0.94947 0.02514 0.0
C3740 C 0.28732 0.94276 0.00997 0.0
C3741 C 0.27507 0.93333 0.01364 0.0
C3742 C 0.27107 0.93092 0.03253 0.0
C3743 C 0.27882 0.93756 0.04748 0.0
C3744 C 0.27227 0.93324 0.06646 0.0
C3745 C 0.2788 0.9282 0.07926 0.0
C3746 C 0.27124 0.94371 0.07643 0.0
C3747 C 0.25969 0.92297 0.05992 0.0
C3748 C 0.25917 0.92172 0.04031 0.0
C3749 C 0.24873 0.91231 0.03113 0.0
C3750 C 0.23862 0.90391 0.04232 0.0
C3751 C 0.23899 0.90515 0.06239 0.0
C3752 C 0.2496 0.91487 0.07122 0.0
H3753 H 0.34652 0.05298 0.96189 0.0
H3754 H 0.36714 0.0715 0.013 0.0
H3755 H 0.36485 0.08968 0.00541 0.0
H3756 H 0.35928 0.07971 0.93204 0.0
H3757 H 0.34492 0.07511 0.91961 0.0
H3758 H 0.34788 0.06348 0.9295 0.0
H3759 H 0.32731 0.0543 0.94863 0.0
H3760 H 0.32432 0.06597 0.93887 0.0
H3761 H 0.32468 0.06424 0.96434 0.0
H3762 H 0.36128 0.1063 0.99119 0.0
H3763 H 0.35634 0.11989 0.97169 0.0
H3764 H 0.33765 0.0902 0.93045 0.0
C3765 C 0.35058 0.06089 0.97145 0.0
C3766 C 0.35703 0.06087 0.98801 0.0
C3767 C 0.36208 0.0713 0.00032 0.0
C3768 C 0.36085 0.08167 0.9961 0.0
C3769 C 0.35444 0.08139 0.97964 0.0
C3770 C 0.34934 0.07124 0.96756 0.0
C3771 C 0.34302 0.07332 0.95067 0.0
C3772 C 0.34914 0.07288 0.93185 0.0
C3773 C 0.329 0.0639 0.95064 0.0
C3774 C 0.34554 0.08631 0.95496 0.0
C3775 C 0.35212 0.09081 0.97173 0.0
C3776 C 0.35601 0.10283 0.97814 0.0
C3777 C 0.3532 0.11047 0.96698 0.0
C3778 C 0.3465 0.10603 0.94972 0.0
C3779 C 0.34253 0.09374 0.94381 0.0
H3780 H 0.94466 0.2966 0.97017 0.0
H3781 H 0.95101 0.28771 0.02748 0.0
H3782 H 0.93592 0.2656 0.02165 0.0
H3783 H 0.91104 0.2742 0.96956 0.0
H3784 H 0.91122 0.27072 0.94466 0.0
H3785 H 0.92213 0.28592 0.95371 0.0
H3786 H 0.94038 0.28371 0.94038 0.0
H3787 H 0.92955 0.26851 0.93136 0.0
H3788 H 0.94181 0.2705 0.94726 0.0
H3789 H 0.92162 0.24419 0.0084 0.0
H3790 H 0.90838 0.22535 0.98918 0.0
H3791 H 0.91012 0.24854 0.94183 0.0
C3792 C 0.94269 0.29012 0.98173 0.0
C3793 C 0.94913 0.29399 0.99928 0.0
C3794 C 0.94642 0.28502 0.01377 0.0
C3795 C 0.93775 0.27243 0.01067 0.0
C3796 C 0.93171 0.26896 0.99314 0.0
C3797 C 0.93395 0.27757 0.979 0.0
C3798 C 0.92649 0.27142 0.96123 0.0
C3799 C 0.91716 0.27583 0.95705 0.0
C3800 C 0.93507 0.27367 0.94405 0.0
C3801 C 0.91992 0.25795 0.96739 0.0
C3802 C 0.92305 0.2567 0.98585 0.0
C3803 C 0.91889 0.24507 0.99409 0.0
C3804 C 0.91142 0.23445 0.98312 0.0
C3805 C 0.90809 0.23559 0.96426 0.0
C3806 C 0.91227 0.24748 0.95643 0.0
H3807 H 0.7122 0.66725 0.98383 0.0
H3808 H 0.70077 0.63047 0.00582 0.0
H3809 H 0.72134 0.6332 0.99741 0.0
H3810 H 0.72811 0.66513 0.94381 0.0
H3811 H 0.74026 0.68119 0.94437 0.0
H3812 H 0.72514 0.67676 0.95381 0.0
H3813 H 0.73514 0.68689 0.98618 0.0
H3814 H 0.7503 0.69132 0.97684 0.0
H3815 H 0.7449 0.68219 0.99832 0.0
H3816 H 0.74291 0.63971 0.98536 0.0
H3817 H 0.76321 0.6489 0.969 0.0
H3818 H 0.75989 0.68095 0.95357 0.0
C3819 C 0.71413 0.65988 0.98722 0.0
C3820 C 0.70498 0.6487 0.99564 0.0
C3821 C 0.70769 0.63911 0.99938 0.0
C3822 C 0.71936 0.64061 0.99475 0.0
C3823 C 0.72816 0.65172 0.98631 0.0
C3824 C 0.72565 0.66117 0.98249 0.0
C3825 C 0.73634 0.67181 0.97207 0.0
C3826 C 0.73222 0.67383 0.95235 0.0
C3827 C 0.742 0.68376 0.98407 0.0
C3828 C 0.74519 0.66683 0.9704 0.0
C3829 C 0.74039 0.65531 0.97891 0.0
C3830 C 0.74677 0.64874 0.97868 0.0
C3831 C 0.75827 0.65401 0.96925 0.0
C3832 C 0.76321 0.66567 0.95996 0.0
C3833 C 0.75658 0.67217 0.96083 0.0
H3834 H 0.93519 0.64741 0.99062 0.0
H3835 H 0.96883 0.68293 0.99918 0.0
H3836 H 0.95774 0.69378 0.98929 0.0
H3837 H 0.92582 0.65566 0.9487 0.0
H3838 H 0.90941 0.64716 0.95386 0.0
H3839 H 0.91949 0.64209 0.96377 0.0
H3840 H 0.91196 0.64319 0.99776 0.0
H3841 H 0.90181 0.64824 0.98795 0.0
H3842 H 0.91305 0.65746 0.00591 0.0
H3843 H 0.944 0.70075 0.97501 0.0
H3844 H 0.92841 0.70349 0.95772 0.0
H3845 H 0.90305 0.66357 0.95959 0.0
C3846 C 0.94018 0.65747 0.99063 0.0
C3847 C 0.95286 0.6643 0.99589 0.0
C3848 C 0.95905 0.67747 0.99565 0.0
C3849 C 0.95285 0.68373 0.98996 0.0
C3850 C 0.94042 0.67673 0.98465 0.0
C3851 C 0.9341 0.66389 0.98504 0.0
C3852 C 0.92097 0.65862 0.97754 0.0
C3853 C 0.9188 0.6504 0.95992 0.0
C3854 C 0.91138 0.65146 0.99323 0.0
C3855 C 0.92105 0.67049 0.97231 0.0
C3856 C 0.93234 0.68082 0.97668 0.0
C3857 C 0.93501 0.69277 0.97193 0.0
C3858 C 0.92598 0.69422 0.9622 0.0
C3859 C 0.91431 0.68379 0.95738 0.0
C3860 C 0.91182 0.67179 0.96291 0.0
H3861 H 0.35785 0.29589 0.97798 0.0
H3862 H 0.3308 0.28561 0.02338 0.0
H3863 H 0.32303 0.26337 0.01665 0.0
H3864 H 0.33799 0.27331 0.946 0.0
H3865 H 0.34954 0.2703 0.93585 0.0
H3866 H 0.35414 0.28526 0.94603 0.0
H3867 H 0.36952 0.28309 0.96847 0.0
H3868 H 0.36495 0.26808 0.95833 0.0
H3869 H 0.36391 0.26966 0.9837 0.0
H3870 H 0.31704 0.24244 0.00319 0.0
H3871 H 0.31262 0.22436 0.98313 0.0
H3872 H 0.34311 0.24838 0.94574 0.0
C3873 C 0.35052 0.28893 0.98682 0.0
C3874 C 0.34499 0.2924 0.00133 0.0
C3875 C 0.33516 0.28309 0.01225 0.0
C3876 C 0.33075 0.27047 0.00859 0.0
C3877 C 0.33626 0.26733 0.99394 0.0
C3878 C 0.34592 0.2763 0.98321 0.0
C3879 C 0.34939 0.27051 0.9671 0.0
C3880 C 0.34765 0.27512 0.9476 0.0
C3881 C 0.36274 0.27298 0.96955 0.0
C3882 C 0.33997 0.25691 0.97015 0.0
C3883 C 0.33261 0.25526 0.98588 0.0
C3884 C 0.32282 0.2436 0.99094 0.0
C3885 C 0.32033 0.2334 0.9794 0.0
C3886 C 0.32753 0.23494 0.96288 0.0
C3887 C 0.33761 0.24684 0.95848 0.0
H3888 H 0.71113 0.06398 0.98957 0.0
H3889 H 0.71075 0.02894 0.98765 0.0
H3890 H 0.73243 0.03978 0.97593 0.0
H3891 H 0.72869 0.07724 0.94813 0.0
H3892 H 0.73762 0.09278 0.95748 0.0
H3893 H 0.72233 0.08242 0.96671 0.0
H3894 H 0.73131 0.08555 0.0009 0.0
H3895 H 0.74664 0.09598 0.99178 0.0
H3896 H 0.74388 0.08264 0.00566 0.0
H3897 H 0.75289 0.05388 0.96081 0.0
H3898 H 0.77156 0.07042 0.9457 0.0
H3899 H 0.76009 0.09711 0.9614 0.0
C3900 C 0.71573 0.05868 0.9869 0.0
C3901 C 0.7094 0.04568 0.98948 0.0
C3902 C 0.71557 0.03894 0.98585 0.0
C3903 C 0.72784 0.045 0.97918 0.0
C3904 C 0.73385 0.05783 0.97662 0.0
C3905 C 0.7281 0.06464 0.98066 0.0
C3906 C 0.73666 0.07832 0.97645 0.0
C3907 C 0.73098 0.08295 0.96129 0.0
C3908 C 0.73981 0.08608 0.99479 0.0
C3909 C 0.74793 0.07804 0.9688 0.0
C3910 C 0.74607 0.06613 0.96899 0.0
C3911 C 0.75464 0.06333 0.96111 0.0
C3912 C 0.76538 0.07294 0.95269 0.0
C3913 C 0.76769 0.08536 0.95246 0.0
C3914 C 0.75882 0.08785 0.96103 0.0
H3915 H 0.66459 0.95432 0.04763 0.0
H3916 H 0.62874 0.92877 0.02252 0.0
H3917 H 0.63115 0.91109 0.0328 0.0
H3918 H 0.67977 0.93723 0.03335 0.0
H3919 H 0.68889 0.94101 0.05486 0.0
H3920 H 0.6842 0.95157 0.04569 0.0
H3921 H 0.67391 0.95099 0.07811 0.0
H3922 H 0.67856 0.94042 0.08737 0.0
H3923 H 0.66242 0.93624 0.08789 0.0
H3924 H 0.63729 0.8961 0.04708 0.0
H3925 H 0.6471 0.88529 0.0629 0.0
H3926 H 0.67932 0.9209 0.07642 0.0
C3927 C 0.6573 0.94505 0.04393 0.0
C3928 C 0.64646 0.94301 0.03422 0.0
C3929 C 0.63706 0.93063 0.03019 0.0
C3930 C 0.63837 0.92051 0.03585 0.0
C3931 C 0.6492 0.92291 0.04537 0.0
C3932 C 0.65853 0.93489 0.04923 0.0
C3933 C 0.66927 0.93504 0.0596 0.0
C3934 C 0.68124 0.9416 0.04765 0.0
C3935 C 0.67114 0.94102 0.07941 0.0
C3936 C 0.66452 0.92125 0.06108 0.0
C3937 C 0.65289 0.91437 0.05291 0.0
C3938 C 0.64645 0.9014 0.05333 0.0
C3939 C 0.65205 0.89535 0.06235 0.0
C3940 C 0.66401 0.90228 0.07059 0.0
C3941 C 0.67029 0.91538 0.06984 0.0
H3942 H 0.0595 0.71327 0.02106 0.0
H3943 H 0.04686 0.69246 0.07393 0.0
H3944 H 0.05954 0.71167 0.09218 0.0
H3945 H 0.0913 0.73467 0.03725 0.0
H3946 H 0.09232 0.74779 0.02466 0.0
H3947 H 0.08264 0.73229 0.01553 0.0
H3948 H 0.06373 0.73573 0.01543 0.0
H3949 H 0.07332 0.7512 0.02464 0.0
H3950 H 0.05939 0.74035 0.03714 0.0
H3951 H 0.07232 0.73293 0.10484 0.0
H3952 H 0.0857 0.75536 0.11132 0.0
H3953 H 0.09078 0.76281 0.05066 0.0
C3954 C 0.0595 0.71278 0.03647 0.0
C3955 C 0.0523 0.70136 0.04609 0.0
C3956 C 0.0525 0.70106 0.06626 0.0
C3957 C 0.05961 0.71193 0.07677 0.0
C3958 C 0.06653 0.72303 0.0669 0.0
C3959 C 0.06667 0.72357 0.04723 0.0
C3960 C 0.0749 0.7368 0.04029 0.0
C3961 C 0.08595 0.73795 0.02875 0.0
C3962 C 0.06738 0.74128 0.02869 0.0
C3963 C 0.07916 0.74361 0.05917 0.0
C3964 C 0.07418 0.73543 0.07429 0.0
C3965 C 0.07638 0.73942 0.09315 0.0
C3966 C 0.08393 0.75213 0.09669 0.0
C3967 C 0.0892 0.76065 0.08147 0.0
C3968 C 0.08685 0.75638 0.06247 0.0
H3969 H 0.28739 0.33771 0.02508 0.0
H3970 H 0.3093 0.37404 0.05114 0.0
H3971 H 0.29019 0.37247 0.06441 0.0
H3972 H 0.2598 0.34041 0.01412 0.0
H3973 H 0.24918 0.32436 0.01982 0.0
H3974 H 0.26441 0.32892 0.01059 0.0
H3975 H 0.26875 0.31899 0.03994 0.0
H3976 H 0.25358 0.31443 0.04926 0.0
H3977 H 0.26719 0.32377 0.06355 0.0
H3978 H 0.26917 0.36606 0.07764 0.0
H3979 H 0.24773 0.35538 0.08976 0.0
H3980 H 0.23922 0.32337 0.05444 0.0
C3981 C 0.28817 0.34539 0.03343 0.0
C3982 C 0.29985 0.35604 0.03696 0.0
C3983 C 0.30044 0.36589 0.04793 0.0
C3984 C 0.28964 0.36507 0.0556 0.0
C3985 C 0.27831 0.35436 0.05208 0.0
C3986 C 0.27748 0.34473 0.04116 0.0
C3987 C 0.26425 0.33395 0.04046 0.0
C3988 C 0.25911 0.33179 0.02003 0.0
C3989 C 0.2634 0.32209 0.0488 0.0
C3990 C 0.25785 0.33888 0.05316 0.0
C3991 C 0.2661 0.35072 0.05957 0.0
C3992 C 0.26256 0.35689 0.07243 0.0
C3993 C 0.25029 0.35075 0.07913 0.0
C3994 C 0.24166 0.33854 0.07295 0.0
C3995 C 0.24553 0.33267 0.05952 0.0
H3996 H 0.72613 0.6888 0.38682 0.0
H3997 H 0.71539 0.66879 0.33322 0.0
H3998 H 0.73011 0.66121 0.33907 0.0
H3999 H 0.75918 0.69722 0.38617 0.0
H4000 H 0.75942 0.69471 0.41143 0.0
H4001 H 0.7492 0.69975 0.40192 0.0
H4002 H 0.73035 0.68087 0.41771 0.0
H4003 H 0.7405 0.67578 0.42725 0.0
H4004 H 0.72743 0.66541 0.41267 0.0
H4005 H 0.74486 0.65467 0.35182 0.0
H4006 H 0.75791 0.64897 0.37105 0.0
H4007 H 0.75823 0.67255 0.41695 0.0
C4008 C 0.72712 0.68307 0.37614 0.0
C4009 C 0.71976 0.67945 0.3595 0.0
C4010 C 0.72101 0.67166 0.34604 0.0
C4011 C 0.72937 0.66737 0.3492 0.0
C4012 C 0.73636 0.67093 0.36592 0.0
C4013 C 0.73531 0.67858 0.37919 0.0
C4014 C 0.74306 0.68014 0.39673 0.0
C4015 C 0.75332 0.69377 0.3992 0.0
C4016 C 0.73484 0.67526 0.41464 0.0
C4017 C 0.74846 0.67201 0.39139 0.0
C4018 C 0.74462 0.66691 0.37347 0.0
C4019 C 0.74799 0.65867 0.36582 0.0
C4020 C 0.75534 0.65543 0.3769 0.0
C4021 C 0.75915 0.66032 0.3955 0.0
C4022 C 0.75575 0.66885 0.40264 0.0
H4023 H 0.31337 0.03757 0.38831 0.0
H4024 H 0.3209 0.04596 0.32804 0.0
H4025 H 0.32773 0.06796 0.33462 0.0
H4026 H 0.30138 0.05877 0.39698 0.0
H4027 H 0.3082 0.06285 0.42042 0.0
H4028 H 0.30343 0.04768 0.41077 0.0
H4029 H 0.32562 0.05126 0.41619 0.0
H4030 H 0.33047 0.06643 0.42578 0.0
H4031 H 0.33874 0.06476 0.40596 0.0
H4032 H 0.33523 0.08939 0.34823 0.0
H4033 H 0.34195 0.10832 0.36775 0.0
H4034 H 0.32837 0.08554 0.41857 0.0
C4035 C 0.31617 0.04393 0.37638 0.0
C4036 C 0.31661 0.03997 0.35764 0.0
C4037 C 0.32065 0.04875 0.34257 0.0
C4038 C 0.32446 0.06127 0.34613 0.0
C4039 C 0.32404 0.06485 0.3648 0.0
C4040 C 0.31988 0.0564 0.37964 0.0
C4041 C 0.32064 0.06266 0.39849 0.0
C4042 C 0.30764 0.0577 0.40717 0.0
C4043 C 0.32939 0.06119 0.41241 0.0
C4044 C 0.32608 0.07599 0.392 0.0
C4045 C 0.32799 0.07709 0.37252 0.0
C4046 C 0.33361 0.08862 0.36345 0.0
C4047 C 0.33743 0.0993 0.37461 0.0
C4048 C 0.33551 0.09834 0.39457 0.0
C4049 C 0.32967 0.08651 0.40327 0.0
H4050 H 0.96556 0.27241 0.38253 0.0
H4051 H 0.95677 0.28269 0.32803 0.0
H4052 H 0.93458 0.26744 0.33296 0.0
H4053 H 0.94167 0.23872 0.37985 0.0
H4054 H 0.93846 0.23795 0.40502 0.0
H4055 H 0.95381 0.24863 0.39621 0.0
H4056 H 0.95294 0.26686 0.4126 0.0
H4057 H 0.9376 0.25627 0.42138 0.0
H4058 H 0.94024 0.26949 0.40727 0.0
H4059 H 0.91325 0.2532 0.34558 0.0
H4060 H 0.8943 0.24032 0.36467 0.0
H4061 H 0.91693 0.23851 0.41017 0.0
C4062 C 0.95903 0.2712 0.37138 0.0
C4063 C 0.96291 0.27878 0.35492 0.0
C4064 C 0.954 0.2771 0.34087 0.0
C4065 C 0.94139 0.26839 0.34346 0.0
C4066 C 0.93783 0.2613 0.36006 0.0
C4067 C 0.9464 0.2625 0.3737 0.0
C4068 C 0.94005 0.25437 0.39085 0.0
C4069 C 0.94372 0.24432 0.39311 0.0
C4070 C 0.94287 0.26222 0.40909 0.0
C4071 C 0.92656 0.24874 0.385 0.0
C4072 C 0.92548 0.25279 0.36713 0.0
C4073 C 0.91396 0.24973 0.3594 0.0
C4074 C 0.90327 0.24246 0.37032 0.0
C4075 C 0.9042 0.23829 0.38867 0.0
C4076 C 0.91598 0.2413 0.39593 0.0
H4077 H 0.0139 0.38468 0.29719 0.0
H4078 H 0.02621 0.39772 0.35477 0.0
H4079 H 0.02465 0.41645 0.34821 0.0
H4080 H 0.0304 0.41372 0.27449 0.0
H4081 H 0.01838 0.41069 0.2574 0.0
H4082 H 0.01969 0.39801 0.26717 0.0
H4083 H 0.99676 0.38745 0.27845 0.0
H4084 H 0.99539 0.40013 0.26874 0.0
H4085 H 0.99181 0.39593 0.29348 0.0
H4086 H 0.02378 0.43473 0.33415 0.0
H4087 H 0.02265 0.45058 0.31408 0.0
H4088 H 0.00994 0.42497 0.26644 0.0
C4089 C 0.0162 0.39145 0.30844 0.0
C4090 C 0.0202 0.3898 0.32647 0.0
C4091 C 0.02303 0.39879 0.34091 0.0
C4092 C 0.02219 0.40945 0.3373 0.0
C4093 C 0.01834 0.41086 0.31928 0.0
C4094 C 0.01527 0.40204 0.30515 0.0
C4095 C 0.01174 0.4059 0.28683 0.0
C4096 C 0.02058 0.40716 0.27052 0.0
C4097 C 0.99812 0.39681 0.28157 0.0
C4098 C 0.01356 0.41841 0.2927 0.0
C4099 C 0.01738 0.42114 0.31146 0.0
C4100 C 0.02056 0.4326 0.31957 0.0
C4101 C 0.01991 0.44153 0.30813 0.0
C4102 C 0.01597 0.43884 0.28894 0.0
C4103 C 0.01263 0.42709 0.28126 0.0
H4104 H 0.61028 0.63101 0.29873 0.0
H4105 H 0.61894 0.62241 0.35463 0.0
H4106 H 0.60401 0.60014 0.34928 0.0
H4107 H 0.57705 0.60767 0.29905 0.0
H4108 H 0.57694 0.60422 0.27407 0.0
H4109 H 0.58765 0.61955 0.28291 0.0
H4110 H 0.60607 0.61802 0.26865 0.0
H4111 H 0.59544 0.60271 0.2598 0.0
H4112 H 0.60809 0.6051 0.27512 0.0
H4113 H 0.58917 0.57863 0.33687 0.0
H4114 H 0.57553 0.55964 0.31835 0.0
H4115 H 0.57652 0.58247 0.27086 0.0
C4116 C 0.60884 0.62448 0.31002 0.0
C4117 C 0.61575 0.62846 0.32712 0.0
C4118 C 0.61381 0.61957 0.34135 0.0
C4119 C 0.6053 0.60691 0.3385 0.0
C4120 C 0.59876 0.60329 0.32137 0.0
C4121 C 0.6004 0.61183 0.3074 0.0
C4122 C 0.59272 0.60548 0.28988 0.0
C4123 C 0.58301 0.60947 0.28627 0.0
C4124 C 0.60108 0.60797 0.27233 0.0
C4125 C 0.58662 0.59203 0.29606 0.0
C4126 C 0.59017 0.59094 0.31429 0.0
C4127 C 0.58622 0.57938 0.32266 0.0
C4128 C 0.57852 0.56866 0.31203 0.0
C4129 C 0.57486 0.56958 0.29326 0.0
C4130 C 0.5789 0.58145 0.28534 0.0
H4131 H 0.36713 0.96875 0.32612 0.0
H4132 H 0.37055 0.00293 0.30403 0.0
H4133 H 0.39154 0.00922 0.29209 0.0
H4134 H 0.40039 0.98208 0.33987 0.0
H4135 H 0.40069 0.96833 0.33263 0.0
H4136 H 0.38648 0.96709 0.34141 0.0
H4137 H 0.37516 0.95569 0.31044 0.0
H4138 H 0.38931 0.95691 0.30157 0.0
H4139 H 0.38129 0.96295 0.28771 0.0
H4140 H 0.41089 0.0108 0.27958 0.0
H4141 H 0.42741 0.00758 0.26686 0.0
H4142 H 0.41237 0.97283 0.29824 0.0
C4143 C 0.37244 0.97768 0.31915 0.0
C4144 C 0.36723 0.98535 0.31595 0.0
C4145 C 0.37433 0.99686 0.30645 0.0
C4146 C 0.38629 0.00056 0.29976 0.0
C4147 C 0.39108 0.99269 0.30279 0.0
C4148 C 0.38443 0.98151 0.31232 0.0
C4149 C 0.39142 0.97441 0.31238 0.0
C4150 C 0.39495 0.97289 0.33279 0.0
C4151 C 0.38384 0.96175 0.30243 0.0
C4152 C 0.40282 0.98317 0.30087 0.0
C4153 C 0.40247 0.99371 0.29571 0.0
C4154 C 0.41144 0.00273 0.28389 0.0
C4155 C 0.4209 0.00084 0.27685 0.0
C4156 C 0.42142 0.99001 0.28167 0.0
C4157 C 0.41233 0.98121 0.29421 0.0
H4158 H 0.62042 0.99171 0.2985 0.0
H4159 H 0.60512 0.97429 0.35309 0.0
H4160 H 0.58656 0.97612 0.34702 0.0
H4161 H 0.60846 0.01375 0.30004 0.0
H4162 H 0.60547 0.01241 0.27476 0.0
H4163 H 0.61804 0.01071 0.28418 0.0
H4164 H 0.60886 0.98916 0.26794 0.0
H4165 H 0.59629 0.99078 0.25851 0.0
H4166 H 0.593 0.97743 0.27282 0.0
H4167 H 0.56866 0.97766 0.33338 0.0
H4168 H 0.55315 0.97943 0.31346 0.0
H4169 H 0.58065 0.99696 0.26883 0.0
C4170 C 0.61334 0.98858 0.30944 0.0
C4171 C 0.61424 0.98279 0.32624 0.0
C4172 C 0.60458 0.97856 0.33995 0.0
C4173 C 0.59404 0.97968 0.33673 0.0
C4174 C 0.59336 0.98521 0.31986 0.0
C4175 C 0.60282 0.98972 0.30654 0.0
C4176 C 0.59953 0.99467 0.28911 0.0
C4177 C 0.6084 0.00872 0.2869 0.0
C4178 C 0.59941 0.98758 0.27104 0.0
C4179 C 0.58658 0.99186 0.29443 0.0
C4180 C 0.5832 0.98648 0.31228 0.0
C4181 C 0.57128 0.98211 0.31956 0.0
C4182 C 0.56254 0.98312 0.30818 0.0
C4183 C 0.56581 0.98853 0.28982 0.0
C4184 C 0.57804 0.99313 0.28306 0.0
H4185 H 0.00626 0.62837 0.303 0.0
H4186 H 0.02567 0.6315 0.35597 0.0
H4187 H 0.0241 0.61121 0.34967 0.0
H4188 H 0.98539 0.59439 0.30431 0.0
H4189 H 0.98643 0.59287 0.27892 0.0
H4190 H 0.98782 0.60693 0.28867 0.0
H4191 H 0.0091 0.61989 0.27181 0.0
H4192 H 0.00774 0.60591 0.26198 0.0
H4193 H 0.0212 0.61618 0.27592 0.0
H4194 H 0.02261 0.59186 0.33575 0.0
H4195 H 0.02104 0.57484 0.31543 0.0
H4196 H 0.00239 0.58427 0.2719 0.0
C4197 C 0.01008 0.62473 0.31337 0.0
C4198 C 0.01606 0.63151 0.33 0.0
C4199 C 0.02088 0.6264 0.34326 0.0
C4200 C 0.02007 0.6149 0.33979 0.0
C4201 C 0.01428 0.60856 0.32309 0.0
C4202 C 0.0093 0.61327 0.31016 0.0
C4203 C 0.00428 0.60504 0.29274 0.0
C4204 C 0.99014 0.59948 0.29107 0.0
C4205 C 0.01098 0.61218 0.27455 0.0
C4206 C 0.00754 0.59516 0.29761 0.0
C4207 C 0.01323 0.59729 0.31524 0.0
C4208 C 0.01797 0.58996 0.32209 0.0
C4209 C 0.01706 0.58035 0.31048 0.0
C4210 C 0.01142 0.57815 0.29228 0.0
C4211 C 0.00641 0.58552 0.28599 0.0
H4212 H 0.37657 0.39729 0.31738 0.0
H4213 H 0.37748 0.36282 0.31798 0.0
H4214 H 0.39926 0.37407 0.30736 0.0
H4215 H 0.39435 0.40944 0.27518 0.0
H4216 H 0.40258 0.42533 0.28328 0.0
H4217 H 0.38729 0.4148 0.29235 0.0
H4218 H 0.39582 0.41957 0.32688 0.0
H4219 H 0.41115 0.43012 0.3179 0.0
H4220 H 0.4087 0.41749 0.33332 0.0
H4221 H 0.42019 0.38846 0.29444 0.0
H4222 H 0.43915 0.40514 0.2799 0.0
H4223 H 0.42542 0.43082 0.28848 0.0
C4224 C 0.38138 0.39213 0.31536 0.0
C4225 C 0.37533 0.37917 0.31874 0.0
C4226 C 0.38196 0.37277 0.31592 0.0
C4227 C 0.39434 0.37907 0.30979 0.0
C4228 C 0.40001 0.3918 0.30657 0.0
C4229 C 0.3938 0.3983 0.30929 0.0
C4230 C 0.40199 0.41189 0.30407 0.0
C4231 C 0.39621 0.41558 0.28775 0.0
C4232 C 0.40457 0.42026 0.32159 0.0
C4233 C 0.41366 0.41192 0.2976 0.0
C4234 C 0.4123 0.40023 0.2993 0.0
C4235 C 0.42148 0.39771 0.29337 0.0
C4236 C 0.43232 0.40735 0.28527 0.0
C4237 C 0.43401 0.41947 0.28323 0.0
C4238 C 0.42452 0.42173 0.28976 0.0
H4239 H 0.3243 0.27923 0.35966 0.0
H4240 H 0.29994 0.27778 0.4052 0.0
H4241 H 0.30257 0.26166 0.42138 0.0
H4242 H 0.3146 0.24613 0.35975 0.0
H4243 H 0.3301 0.24897 0.35541 0.0
H4244 H 0.32549 0.25967 0.34649 0.0
H4245 H 0.34408 0.27778 0.36405 0.0
H4246 H 0.34874 0.26716 0.37299 0.0
H4247 H 0.34587 0.27662 0.38934 0.0
H4248 H 0.309 0.24691 0.43385 0.0
H4249 H 0.31904 0.23479 0.44207 0.0
H4250 H 0.33911 0.24547 0.38834 0.0
C4251 C 0.31948 0.2755 0.373 0.0
C4252 C 0.31182 0.27973 0.38105 0.0
C4253 C 0.30564 0.27454 0.39851 0.0
C4254 C 0.30713 0.2654 0.40788 0.0
C4255 C 0.31479 0.26151 0.39961 0.0
C4256 C 0.32085 0.26637 0.38256 0.0
C4257 C 0.32902 0.26098 0.37723 0.0
C4258 C 0.32453 0.25349 0.35861 0.0
C4259 C 0.34274 0.27125 0.37583 0.0
C4260 C 0.32681 0.25256 0.39417 0.0
C4261 C 0.31848 0.25293 0.40681 0.0
C4262 C 0.31539 0.24639 0.42393 0.0
C4263 C 0.32109 0.23943 0.42839 0.0
C4264 C 0.3298 0.23901 0.41579 0.0
C4265 C 0.33252 0.24557 0.39833 0.0
H4266 H 0.72996 0.0434 0.36579 0.0
H4267 H 0.69942 0.03051 0.40597 0.0
H4268 H 0.70974 0.05101 0.42162 0.0
H4269 H 0.75428 0.06188 0.39962 0.0
H4270 H 0.76338 0.07409 0.38284 0.0
H4271 H 0.75356 0.05842 0.37454 0.0
H4272 H 0.74248 0.06607 0.35156 0.0
H4273 H 0.75223 0.08176 0.35986 0.0
H4274 H 0.73556 0.07471 0.36094 0.0
H4275 H 0.72287 0.07271 0.43251 0.0
H4276 H 0.73889 0.09427 0.43963 0.0
H4277 H 0.76148 0.09347 0.39306 0.0
C4278 C 0.72548 0.04494 0.37787 0.0
C4279 C 0.71392 0.03536 0.38475 0.0
C4280 C 0.70835 0.03766 0.40066 0.0
C4281 C 0.71409 0.0493 0.40955 0.0
C4282 C 0.72544 0.05853 0.40243 0.0
C4283 C 0.73116 0.0565 0.38708 0.0
C4284 C 0.74352 0.06803 0.38265 0.0
C4285 C 0.75432 0.06545 0.38506 0.0
C4286 C 0.74344 0.07293 0.36256 0.0
C4287 C 0.74381 0.07682 0.3979 0.0
C4288 C 0.73321 0.07114 0.409 0.0
C4289 C 0.7312 0.07729 0.42391 0.0
C4290 C 0.74032 0.08957 0.42773 0.0
C4291 C 0.75137 0.0956 0.41677 0.0
C4292 C 0.75312 0.0891 0.40165 0.0
H4293 H 0.95305 0.6765 0.35817 0.0
H4294 H 0.97424 0.7074 0.39669 0.0
H4295 H 0.95476 0.70441 0.41063 0.0
H4296 H 0.92656 0.68161 0.35143 0.0
H4297 H 0.91538 0.66521 0.35144 0.0
H4298 H 0.93094 0.67066 0.34287 0.0
H4299 H 0.93346 0.65622 0.36689 0.0
H4300 H 0.91793 0.65074 0.37552 0.0
H4301 H 0.93084 0.65734 0.3919 0.0
H4302 H 0.93328 0.69691 0.42255 0.0
H4303 H 0.91129 0.68526 0.43196 0.0
H4304 H 0.90377 0.65918 0.38571 0.0
C4305 C 0.95361 0.6827 0.36945 0.0
C4306 C 0.96523 0.69226 0.37619 0.0
C4307 C 0.9655 0.70019 0.39095 0.0
C4308 C 0.95446 0.69853 0.39904 0.0
C4309 C 0.94321 0.68893 0.39223 0.0
C4310 C 0.94268 0.68115 0.37775 0.0
C4311 C 0.92941 0.67103 0.37393 0.0
C4312 C 0.92534 0.6722 0.35372 0.0
C4313 C 0.92782 0.65807 0.37727 0.0
C4314 C 0.92261 0.67414 0.3889 0.0
C4315 C 0.93073 0.68457 0.39914 0.0
C4316 C 0.92678 0.68886 0.41441 0.0
C4317 C 0.91421 0.6822 0.41955 0.0
C4318 C 0.90568 0.67134 0.40946 0.0
C4319 C 0.90999 0.66742 0.39373 0.0
H4320 H 0.38316 0.00765 0.70058 0.0
H4321 H 0.40578 0.0476 0.69398 0.0
H4322 H 0.42423 0.04672 0.70492 0.0
H4323 H 0.39659 0.0058 0.74309 0.0
H4324 H 0.39585 0.99126 0.7378 0.0
H4325 H 0.38482 0.99481 0.7272 0.0
H4326 H 0.39116 0.99135 0.69355 0.0
H4327 H 0.40222 0.98776 0.70408 0.0
H4328 H 0.40725 0.99991 0.68648 0.0
H4329 H 0.43975 0.04173 0.71905 0.0
H4330 H 0.45115 0.03307 0.73598 0.0
H4331 H 0.41826 0.99643 0.73405 0.0
C4332 C 0.39207 0.01616 0.70096 0.0
C4333 C 0.3931 0.02769 0.6963 0.0
C4334 C 0.40482 0.03868 0.6975 0.0
C4335 C 0.41535 0.03826 0.7036 0.0
C4336 C 0.41399 0.02677 0.70843 0.0
C4337 C 0.40265 0.01591 0.70715 0.0
C4338 C 0.40347 0.00492 0.71466 0.0
C4339 C 0.39467 0.99885 0.7317 0.0
C4340 C 0.40087 0.99543 0.69874 0.0
C4341 C 0.41697 0.01134 0.72078 0.0
C4342 C 0.42291 0.02391 0.71684 0.0
C4343 C 0.43523 0.03188 0.72205 0.0
C4344 C 0.4416 0.02689 0.73176 0.0
C4345 C 0.43562 0.01407 0.7363 0.0
C4346 C 0.42318 0.00621 0.73045 0.0
H4347 H 0.96781 0.36584 0.69654 0.0
H4348 H 0.99975 0.36626 0.72245 0.0
H4349 H 0.00687 0.3873 0.73484 0.0
H4350 H 0.98405 0.39912 0.68329 0.0
H4351 H 0.97074 0.40074 0.68862 0.0
H4352 H 0.96858 0.38603 0.68048 0.0
H4353 H 0.95535 0.37525 0.71044 0.0
H4354 H 0.95747 0.38989 0.71867 0.0
H4355 H 0.9618 0.38094 0.73376 0.0
H4356 H 0.00965 0.40732 0.74655 0.0
H4357 H 0.00789 0.42514 0.75734 0.0
H4358 H 0.97475 0.4126 0.7226 0.0
C4359 C 0.97642 0.37045 0.70453 0.0
C4360 C 0.98319 0.36437 0.70862 0.0
C4361 C 0.9943 0.37065 0.71939 0.0
C4362 C 0.99849 0.38265 0.72633 0.0
C4363 C 0.99153 0.38832 0.72227 0.0
C4364 C 0.98076 0.38248 0.71157 0.0
C4365 C 0.97471 0.39045 0.71015 0.0
C4366 C 0.97451 0.39431 0.6894 0.0
C4367 C 0.96156 0.38373 0.71878 0.0
C4368 C 0.98358 0.40149 0.72219 0.0
C4369 C 0.99328 0.4001 0.72883 0.0
C4370 C 0.00225 0.40866 0.74113 0.0
C4371 C 0.00122 0.41885 0.74705 0.0
C4372 C 0.99128 0.42047 0.74064 0.0
C4373 C 0.98247 0.41171 0.72778 0.0
H4374 H 0.63019 0.60377 0.695 0.0
H4375 H 0.62524 0.63565 0.7027 0.0
H4376 H 0.60347 0.62174 0.71234 0.0
H4377 H 0.59801 0.58191 0.6776 0.0
H4378 H 0.59731 0.56896 0.69026 0.0
H4379 H 0.612 0.58124 0.6815 0.0
H4380 H 0.62124 0.58456 0.71554 0.0
H4381 H 0.60661 0.57233 0.72439 0.0
H4382 H 0.61359 0.58759 0.7349 0.0
H4383 H 0.58326 0.60486 0.72464 0.0
H4384 H 0.56615 0.58625 0.7395 0.0
H4385 H 0.58361 0.56492 0.72274 0.0
C4386 C 0.6244 0.60777 0.69823 0.0
C4387 C 0.62937 0.62077 0.6981 0.0
C4388 C 0.62163 0.62571 0.70285 0.0
C4389 C 0.60922 0.61788 0.70819 0.0
C4390 C 0.60467 0.60512 0.70857 0.0
C4391 C 0.61199 0.60007 0.70365 0.0
C4392 C 0.60512 0.58614 0.70687 0.0
C4393 C 0.60298 0.57915 0.68793 0.0
C4394 C 0.61205 0.58245 0.72129 0.0
C4395 C 0.593 0.58425 0.71503 0.0
C4396 C 0.59287 0.59529 0.71561 0.0
C4397 C 0.58311 0.59609 0.72388 0.0
C4398 C 0.57336 0.5854 0.73219 0.0
C4399 C 0.5734 0.57401 0.73222 0.0
C4400 C 0.58325 0.57344 0.72303 0.0
H4401 H 0.67589 0.72179 0.66438 0.0
H4402 H 0.71401 0.73855 0.64473 0.0
H4403 H 0.71268 0.75638 0.63193 0.0
H4404 H 0.66414 0.72895 0.62498 0.0
H4405 H 0.65351 0.73222 0.63774 0.0
H4406 H 0.65801 0.72174 0.64775 0.0
H4407 H 0.6656 0.7351 0.67844 0.0
H4408 H 0.66104 0.74561 0.66855 0.0
H4409 H 0.67677 0.75145 0.67667 0.0
H4410 H 0.70618 0.77062 0.61721 0.0
H4411 H 0.69536 0.78058 0.60268 0.0
H4412 H 0.66175 0.75524 0.63355 0.0
C4413 C 0.68402 0.72933 0.65768 0.0
C4414 C 0.69506 0.72883 0.65557 0.0
C4415 C 0.70552 0.73885 0.64672 0.0
C4416 C 0.70484 0.74899 0.63938 0.0
C4417 C 0.6937 0.74905 0.64128 0.0
C4418 C 0.68353 0.73956 0.65045 0.0
C4419 C 0.6724 0.74142 0.64948 0.0
C4420 C 0.66137 0.73043 0.63938 0.0
C4421 C 0.66874 0.74352 0.66948 0.0
C4422 C 0.67772 0.75314 0.63761 0.0
C4423 C 0.69005 0.75747 0.63318 0.0
C4424 C 0.69662 0.76752 0.62099 0.0
C4425 C 0.69038 0.77318 0.61288 0.0
C4426 C 0.67767 0.76881 0.61702 0.0
C4427 C 0.67143 0.75882 0.62995 0.0
H4428 H 0.27558 0.96409 0.63534 0.0
H4429 H 0.29105 0.95512 0.68412 0.0
H4430 H 0.27623 0.93273 0.67909 0.0
H4431 H 0.24317 0.93933 0.64167 0.0
H4432 H 0.24062 0.93651 0.61642 0.0
H4433 H 0.25161 0.95182 0.625 0.0
H4434 H 0.26886 0.95188 0.60414 0.0
H4435 H 0.25792 0.93662 0.59547 0.0
H4436 H 0.27218 0.9394 0.60655 0.0
H4437 H 0.26037 0.91131 0.66774 0.0
H4438 H 0.24558 0.89249 0.64997 0.0
H4439 H 0.24127 0.91564 0.6078 0.0
C4440 C 0.27567 0.95741 0.64516 0.0
C4441 C 0.28436 0.96128 0.6602 0.0
C4442 C 0.28444 0.95229 0.6725 0.0
C4443 C 0.27603 0.93959 0.66982 0.0
C4444 C 0.26764 0.93605 0.65472 0.0
C4445 C 0.26744 0.9447 0.64254 0.0
C4446 C 0.25817 0.93845 0.62657 0.0
C4447 C 0.24777 0.94172 0.62748 0.0
C4448 C 0.26467 0.94178 0.60703 0.0
C4449 C 0.2533 0.92493 0.6315 0.0
C4450 C 0.25875 0.92373 0.64792 0.0
C4451 C 0.25601 0.91213 0.6549 0.0
C4452 C 0.24765 0.9015 0.64464 0.0
C4453 C 0.24221 0.90253 0.62747 0.0
C4454 C 0.24501 0.91444 0.62106 0.0
H4455 H 0.03776 0.30444 0.65895 0.0
H4456 H 0.03685 0.33609 0.63463 0.0
H4457 H 0.05835 0.34457 0.62328 0.0
H4458 H 0.07102 0.32194 0.67378 0.0
H4459 H 0.07345 0.3092 0.6679 0.0
H4460 H 0.05838 0.30617 0.67582 0.0
H4461 H 0.04839 0.29331 0.64523 0.0
H4462 H 0.06339 0.29632 0.63723 0.0
H4463 H 0.05416 0.30035 0.62224 0.0
H4464 H 0.07883 0.34847 0.61163 0.0
H4465 H 0.09697 0.34756 0.60017 0.0
H4466 H 0.08559 0.31417 0.6338 0.0
C4467 C 0.04218 0.31328 0.65161 0.0
C4468 C 0.03558 0.31955 0.64757 0.0
C4469 C 0.04164 0.33101 0.63762 0.0
C4470 C 0.0539 0.33598 0.63128 0.0
C4471 C 0.06006 0.32947 0.6352 0.0
C4472 C 0.05447 0.31842 0.64523 0.0
C4473 C 0.06294 0.31293 0.64646 0.0
C4474 C 0.06667 0.31254 0.66723 0.0
C4475 C 0.05686 0.29997 0.63723 0.0
C4476 C 0.07395 0.32238 0.63491 0.0
C4477 C 0.07214 0.33192 0.62878 0.0
C4478 C 0.08051 0.34123 0.61671 0.0
C4479 C 0.09091 0.34066 0.61039 0.0
C4480 C 0.09293 0.33087 0.61619 0.0
C4481 C 0.0844 0.32179 0.62901 0.0
H4482 H 0.29336 0.33168 0.62841 0.0
H4483 H 0.27293 0.30951 0.67737 0.0
H4484 H 0.25568 0.31332 0.66993 0.0
H4485 H 0.28381 0.35465 0.63254 0.0
H4486 H 0.28266 0.35606 0.60715 0.0
H4487 H 0.29352 0.35184 0.61662 0.0
H4488 H 0.28366 0.33197 0.59575 0.0
H4489 H 0.27282 0.33615 0.58616 0.0
H4490 H 0.26719 0.32122 0.59734 0.0
H4491 H 0.2403 0.31887 0.65634 0.0
H4492 H 0.22811 0.32606 0.63785 0.0
H4493 H 0.25869 0.34459 0.59796 0.0
C4494 C 0.28524 0.32758 0.63753 0.0
C4495 C 0.2845 0.32031 0.65349 0.0
C4496 C 0.27377 0.31524 0.6652 0.0
C4497 C 0.2639 0.3173 0.66105 0.0
C4498 C 0.26494 0.32451 0.64519 0.0
C4499 C 0.27534 0.32959 0.63364 0.0
C4500 C 0.27409 0.33686 0.61733 0.0
C4501 C 0.28412 0.35067 0.61849 0.0
C4502 C 0.27446 0.33121 0.59801 0.0
C4503 C 0.2613 0.33498 0.62141 0.0
C4504 C 0.25617 0.32783 0.63753 0.0
C4505 C 0.24426 0.32454 0.64376 0.0
C4506 C 0.23739 0.32862 0.63316 0.0
C4507 C 0.2425 0.33595 0.61659 0.0
C4508 C 0.25464 0.3392 0.61078 0.0
H4509 H 0.67568 0.96096 0.63324 0.0
H4510 H 0.69826 0.96127 0.68059 0.0
H4511 H 0.69376 0.9401 0.67177 0.0
H4512 H 0.65206 0.92904 0.6375 0.0
H4513 H 0.64979 0.92668 0.61213 0.0
H4514 H 0.65502 0.94185 0.62209 0.0
H4515 H 0.67425 0.95119 0.59983 0.0
H4516 H 0.66907 0.93605 0.58977 0.0
H4517 H 0.6844 0.94473 0.59997 0.0
H4518 H 0.68705 0.91894 0.65691 0.0
H4519 H 0.67785 0.89932 0.63839 0.0
H4520 H 0.65943 0.91314 0.60155 0.0
C4521 C 0.67977 0.95662 0.64165 0.0
C4522 C 0.6874 0.96276 0.65749 0.0
C4523 C 0.69237 0.95668 0.66842 0.0
C4524 C 0.6899 0.9447 0.66347 0.0
C4525 C 0.68237 0.93893 0.64768 0.0
C4526 C 0.67732 0.94468 0.63703 0.0
C4527 C 0.66932 0.93646 0.62099 0.0
C4528 C 0.65574 0.93332 0.62333 0.0
C4529 C 0.67458 0.94247 0.60149 0.0
C4530 C 0.67066 0.92517 0.62419 0.0
C4531 C 0.67827 0.92675 0.63956 0.0
C4532 C 0.68103 0.91759 0.64492 0.0
C4533 C 0.67581 0.90651 0.63431 0.0
C4534 C 0.66785 0.90469 0.61871 0.0
C4535 C 0.66531 0.91419 0.61363 0.0
H4536 H 0.03885 0.73458 0.64616 0.0
H4537 H 0.0441 0.70519 0.66954 0.0
H4538 H 0.06622 0.71689 0.66067 0.0
H4539 H 0.05834 0.74101 0.60603 0.0
H4540 H 0.06464 0.75759 0.60654 0.0
H4541 H 0.04936 0.7474 0.61596 0.0
H4542 H 0.05594 0.75895 0.64833 0.0
H4543 H 0.07125 0.7692 0.63899 0.0
H4544 H 0.06943 0.76051 0.66048 0.0
H4545 H 0.08705 0.73056 0.6468 0.0
H4546 H 0.10564 0.74569 0.62955 0.0
H4547 H 0.08771 0.76723 0.61659 0.0
C4548 C 0.0447 0.73068 0.64954 0.0
C4549 C 0.03976 0.71903 0.65873 0.0
C4550 C 0.04771 0.71421 0.66288 0.0
C4551 C 0.06028 0.72076 0.65781 0.0
C4552 C 0.06483 0.73217 0.64872 0.0
C4553 C 0.05735 0.73716 0.64472 0.0
C4554 C 0.06458 0.74944 0.63427 0.0
C4555 C 0.05889 0.74882 0.61453 0.0
C4556 C 0.06534 0.76016 0.64624 0.0
C4557 C 0.07719 0.75037 0.63261 0.0
C4558 C 0.0771 0.74031 0.64111 0.0
C4559 C 0.08735 0.73864 0.64046 0.0
C4560 C 0.09797 0.74742 0.63072 0.0
C4561 C 0.09839 0.75791 0.62185 0.0
C4562 C 0.08782 0.75939 0.6231 0.0
H4563 H 0.97975 0.60547 0.68751 0.0
H4564 H 0.00777 0.63868 0.71638 0.0
H4565 H 0.01628 0.6266 0.73112 0.0
H4566 H 0.97381 0.58497 0.72633 0.0
H4567 H 0.97165 0.57202 0.71195 0.0
H4568 H 0.96831 0.58341 0.70215 0.0
H4569 H 0.98345 0.58728 0.67421 0.0
H4570 H 0.98685 0.57589 0.68394 0.0
H4571 H 0.9993 0.59146 0.67927 0.0
H4572 H 0.02074 0.61102 0.74483 0.0
H4573 H 0.02103 0.59271 0.75693 0.0
H4574 H 0.9906 0.56917 0.71882 0.0
C4575 C 0.98773 0.61021 0.69684 0.0
C4576 C 0.99319 0.62309 0.70053 0.0
C4577 C 0.0036 0.62891 0.71288 0.0
C4578 C 0.00848 0.62211 0.72144 0.0
C4579 C 0.00287 0.60947 0.71755 0.0
C4580 C 0.99275 0.60354 0.70554 0.0
C4581 C 0.98818 0.58971 0.70457 0.0
C4582 C 0.97469 0.58208 0.71167 0.0
C4583 C 0.98953 0.58586 0.68429 0.0
C4584 C 0.99717 0.58882 0.71824 0.0
C4585 C 0.00559 0.60036 0.72542 0.0
C4586 C 0.01437 0.60194 0.73904 0.0
C4587 C 0.01453 0.59142 0.74568 0.0
C4588 C 0.00601 0.57939 0.73863 0.0
C4589 C 0.99728 0.57816 0.72454 0.0
H4590 H 0.38842 0.37903 0.68971 0.0
H4591 H 0.40446 0.3581 0.71418 0.0
H4592 H 0.42243 0.37758 0.72532 0.0
H4593 H 0.41785 0.40687 0.67594 0.0
H4594 H 0.41237 0.4173 0.68265 0.0
H4595 H 0.40153 0.40189 0.67425 0.0
H4596 H 0.38856 0.39761 0.70512 0.0
H4597 H 0.39933 0.41298 0.71358 0.0
H4598 H 0.39603 0.39965 0.72794 0.0
H4599 H 0.43747 0.39885 0.73679 0.0
H4600 H 0.44822 0.42031 0.74867 0.0
H4601 H 0.4226 0.42775 0.71697 0.0
C4602 C 0.39574 0.37852 0.69729 0.0
C4603 C 0.39502 0.36697 0.70088 0.0
C4604 C 0.40487 0.36679 0.71081 0.0
C4605 C 0.41513 0.37783 0.7173 0.0
C4606 C 0.41544 0.389 0.71374 0.0
C4607 C 0.40602 0.38945 0.70398 0.0
C4608 C 0.40814 0.40256 0.7034 0.0
C4609 C 0.41009 0.40744 0.68283 0.0
C4610 C 0.39738 0.40323 0.71309 0.0
C4611 C 0.42003 0.40934 0.71489 0.0
C4612 C 0.42416 0.40137 0.72047 0.0
C4613 C 0.43448 0.40525 0.73221 0.0
C4614 C 0.4406 0.41754 0.73877 0.0
C4615 C 0.43639 0.42586 0.73363 0.0
C4616 C 0.42609 0.42169 0.72118 0.0
H4617 H 0.62981 0.02904 0.69236 0.0
H4618 H 0.62469 0.99286 0.70765 0.0
H4619 H 0.60384 0.98657 0.71962 0.0
H4620 H 0.61658 0.03248 0.7345 0.0
H4621 H 0.60945 0.04047 0.72347 0.0
H4622 H 0.62324 0.04157 0.71324 0.0
H4623 H 0.61181 0.03356 0.68099 0.0
H4624 H 0.59794 0.03238 0.69116 0.0
H4625 H 0.59736 0.01899 0.68017 0.0
H4626 H 0.5843 0.98459 0.73242 0.0
H4627 H 0.56812 0.98767 0.74737 0.0
H4628 H 0.58614 0.02545 0.72574 0.0
C4629 C 0.62433 0.01976 0.69811 0.0
C4630 C 0.62897 0.01141 0.69863 0.0
C4631 C 0.62134 0.99935 0.70636 0.0
C4632 C 0.60945 0.99568 0.71337 0.0
C4633 C 0.60527 0.00417 0.71278 0.0
C4634 C 0.61249 0.016 0.7055 0.0
C4635 C 0.60627 0.02371 0.70828 0.0
C4636 C 0.61437 0.03524 0.72061 0.0
C4637 C 0.60316 0.02737 0.689 0.0
C4638 C 0.59458 0.01446 0.71872 0.0
C4639 C 0.59408 0.00317 0.72081 0.0
C4640 C 0.58449 0.99333 0.73067 0.0
C4641 C 0.57528 0.99515 0.73901 0.0
C4642 C 0.57579 0.00676 0.7376 0.0
C4643 C 0.58548 0.01646 0.72701 0.0
loop_
_geom_bond_atom_site_label_1
_geom_bond_atom_site_label_2
_geom_bond_distance
_geom_bond_site_symmetry_2
_ccdc_geom_bond_type
Li0 N17 1.990 . S
Li0 O60 1.956 . S
Li0 O61 1.970 1_654 S
Li0 O62 1.961 . S
Li1 N25 1.990 . S
Li1 O60 1.970 1_455 S
Li1 O61 1.956 1_554 S
Li1 O63 1.961 . S
Li2 N47 1.990 . S
Li2 O60 1.961 . S
Li2 O62 1.956 . S
Li2 O63 1.970 1_655 S
Li3 N53 1.990 . S
Li3 O61 1.961 . S
Li3 O62 1.970 1_456 S
Li3 O63 1.956 1_556 S
C4 C6 1.348 1_655 S
C4 C7 1.356 . S
C4 O60 1.325 . S
N5 C8 1.314 . S
N5 C9 1.279 . S
C6 C4 1.348 1_455 S
C6 C8 1.353 1_455 S
C6 H64 0.929 . S
C7 C4 1.356 . S
C7 C9 1.358 . S
C7 H65 0.930 . S
C8 N5 1.314 . S
C8 C6 1.353 1_655 S
C8 H66 0.930 1_655 S
C9 N5 1.279 . S
C9 C7 1.358 . S
C9 H67 0.930 . S
C10 C13 1.348 1_455 S
C10 C14 1.356 . S
C10 O61 1.325 . S
C11 N12 1.279 . S
C11 C14 1.358 . S
C11 H68 0.930 . S
N12 C11 1.279 . S
N12 C15 1.314 . S
C13 C10 1.348 1_655 S
C13 C15 1.326 1_655 S
C13 H69 0.958 . S
C14 C10 1.356 . S
C14 C11 1.358 . S
C14 H70 0.930 . S
C15 N12 1.314 . S
C15 C13 1.326 1_455 S
C15 H71 0.930 1_455 S
C16 N17 1.314 1_556 S
C16 C21 1.353 . S
C16 H22 0.930 . S
N17 Li0 1.990 . S
N17 C16 1.314 1_554 S
N17 C19 1.279 . S
C18 C19 1.358 . S
C18 C20 1.356 1_554 S
C18 H72 0.930 . S
C19 N17 1.279 . S
C19 C18 1.358 . S
C19 H23 0.930 . S
C20 C18 1.356 1_556 S
C20 C21 1.348 . S
C21 C16 1.353 . S
C21 C20 1.348 . S
C21 H73 0.929 . S
H22 C16 0.930 . S
H23 C19 0.930 . S
C24 N25 1.314 . S
C24 C26 1.353 . S
C24 H30 0.930 . S
N25 Li1 1.990 . S
N25 C24 1.314 . S
N25 C28 1.279 . S
C26 C24 1.353 . S
C26 C29 1.348 . S
C26 H74 0.929 . S
C27 C28 1.358 . S
C27 C29 1.356 . S
C27 H75 0.930 . S
C28 N25 1.279 . S
C28 C27 1.358 . S
C28 H31 0.930 1_554 S
C29 C26 1.348 . S
C29 C27 1.356 . S
H30 C24 0.930 . S
H31 C28 0.930 1_556 S
C32 C34 1.348 1_554 S
C32 C35 1.356 . S
C32 O62 1.325 . S
N33 C36 1.314 . S
N33 C37 1.279 1_556 S
C34 C32 1.348 1_556 S
C34 C36 1.353 . S
C34 H76 0.929 . S
C35 C32 1.356 . S
C35 C37 1.358 . S
C35 H77 0.930 . S
C36 N33 1.314 . S
C36 C34 1.353 . S
C36 H78 0.930 . S
C37 N33 1.279 1_554 S
C37 C35 1.358 . S
C37 H79 0.930 . S
C38 C39 1.348 . S
C38 C40 1.356 . S
C38 O63 1.325 . S
C39 C38 1.348 . S
C39 C41 1.353 . S
C39 H80 0.929 . S
C40 C38 1.356 . S
C40 C42 1.358 . S
C40 H81 0.930 . S
C41 C39 1.353 . S
C41 N43 1.314 . S
C41 H82 0.930 . S
C42 C40 1.358 . S
C42 N43 1.279 . S
C42 H83 0.930 . S
N43 C41 1.314 . S
N43 C42 1.279 . S
C44 C46 1.353 . S
C44 N47 1.314 . S
C44 H50 0.930 1_655 S
C45 N47 1.279 . S
C45 C48 1.358 . S
C45 H51 0.930 . S
C46 C44 1.353 . S
C46 C49 1.348 . S
C46 H84 0.930 1_655 S
N47 Li2 1.990 . S
N47 C44 1.314 . S
N47 C45 1.279 . S
C48 C45 1.358 . S
C48 C49 1.356 . S
C48 H85 0.930 . S
C49 C46 1.348 . S
C49 C48 1.356 . S
H50 C44 0.930 1_455 S
H51 C45 0.930 . S
C52 N53 1.314 . S
C52 C54 1.353 . S
C52 H58 0.930 1_455 S
N53 Li3 1.990 . S
N53 C52 1.314 . S
N53 C56 1.279 . S
C54 C52 1.353 . S
C54 C57 1.348 . S
C54 H86 0.949 . S
C55 C56 1.358 . S
C55 C57 1.356 . S
C55 H87 0.930 . S
C56 N53 1.279 . S
C56 C55 1.358 . S
C56 H59 0.930 . S
C57 C54 1.348 . S
C57 C55 1.356 . S
H58 C52 0.930 1_655 S
H59 C56 0.930 . S
O60 Li0 1.956 . S
O60 Li1 1.970 1_655 S
O60 Li2 1.961 . S
O60 C4 1.325 . S
O61 Li0 1.970 1_456 S
O61 Li1 1.956 1_556 S
O61 Li3 1.961 . S
O61 C10 1.325 . S
O62 Li0 1.961 . S
O62 Li2 1.956 . S
O62 Li3 1.970 1_654 S
O62 C32 1.325 . S
O63 Li1 1.961 . S
O63 Li2 1.970 1_455 S
O63 Li3 1.956 1_554 S
O63 C38 1.325 . S
H64 C6 0.929 . S
H65 C7 0.930 . S
H66 C8 0.930 1_455 S
H67 C9 0.930 . S
H68 C11 0.930 . S
H69 C13 0.958 . S
H70 C14 0.930 . S
H71 C15 0.930 1_655 S
H72 C18 0.930 . S
H73 C21 0.929 . S
H74 C26 0.929 . S
H75 C27 0.930 . S
H76 C34 0.929 . S
H77 C35 0.930 . S
H78 C36 0.930 . S
H79 C37 0.930 . S
H80 C39 0.929 . S
H81 C40 0.930 . S
H82 C41 0.930 . S
H83 C42 0.930 . S
H84 C46 0.930 1_455 S
H85 C48 0.930 . S
H86 C54 0.949 . S
H87 C55 0.930 . S
Li88 N105 1.990 . S
Li88 O148 1.956 . S
Li88 O149 1.970 1_554 S
Li88 O150 1.961 . S
Li89 N113 1.990 . S
Li89 O148 1.970 . S
Li89 O149 1.956 1_554 S
Li89 O151 1.961 . S
Li90 N135 1.990 . S
Li90 O148 1.961 . S
Li90 O150 1.956 . S
Li90 O151 1.970 . S
Li91 N141 1.990 . S
Li91 O149 1.961 . S
Li91 O150 1.970 1_556 S
Li91 O151 1.956 1_556 S
C92 C94 1.348 . S
C92 C95 1.356 . S
C92 O148 1.325 . S
N93 C96 1.314 . S
N93 C97 1.279 . S
C94 C92 1.348 . S
C94 C96 1.353 . S
C94 H152 0.929 . S
C95 C92 1.356 . S
C95 C97 1.358 . S
C95 H153 0.930 . S
C96 N93 1.314 . S
C96 C94 1.353 . S
C96 H154 0.930 . S
C97 N93 1.279 . S
C97 C95 1.358 . S
C97 H155 0.930 . S
C98 C101 1.348 . S
C98 C102 1.356 . S
C98 O149 1.325 . S
C99 N100 1.279 . S
C99 C102 1.358 . S
C99 H156 0.930 . S
N100 C99 1.279 . S
N100 C103 1.314 . S
C101 C98 1.348 . S
C101 C103 1.353 . S
C101 H157 0.929 . S
C102 C98 1.356 . S
C102 C99 1.358 . S
C102 H158 0.930 . S
C103 N100 1.314 . S
C103 C101 1.353 . S
C103 H159 0.930 . S
C104 N105 1.314 1_556 S
C104 C109 1.353 . S
C104 H110 0.930 . S
N105 Li88 1.990 . S
N105 C104 1.314 1_554 S
N105 C107 1.279 . S
C106 C107 1.358 . S
C106 C108 1.356 1_554 S
C106 H160 0.930 . S
C107 N105 1.279 . S
C107 C106 1.358 . S
C107 H111 0.930 . S
C108 C106 1.356 1_556 S
C108 C109 1.348 . S
C109 C104 1.353 . S
C109 C108 1.348 . S
C109 H161 0.929 . S
H110 C104 0.930 . S
H111 C107 0.930 . S
C112 N113 1.314 . S
C112 C114 1.353 . S
C112 H118 0.930 . S
N113 Li89 1.990 . S
N113 C112 1.314 . S
N113 C116 1.279 . S
C114 C112 1.353 . S
C114 C117 1.348 . S
C114 H162 0.929 . S
C115 C116 1.358 . S
C115 C117 1.356 . S
C115 H163 0.930 . S
C116 N113 1.279 . S
C116 C115 1.358 . S
C116 H119 0.947 . S
C117 C114 1.348 . S
C117 C115 1.356 . S
H118 C112 0.930 . S
H119 C116 0.947 . S
C120 C122 1.348 1_554 S
C120 C123 1.356 . S
C120 O150 1.325 . S
N121 C124 1.314 . S
N121 C125 1.279 1_556 S
C122 C120 1.348 1_556 S
C122 C124 1.353 . S
C122 H164 0.929 . S
C123 C120 1.356 . S
C123 C125 1.358 . S
C123 H165 0.930 . S
C124 N121 1.314 . S
C124 C122 1.353 . S
C124 H166 0.930 . S
C125 N121 1.279 1_554 S
C125 C123 1.358 . S
C125 H167 0.930 . S
C126 C127 1.348 . S
C126 C128 1.356 . S
C126 O151 1.325 . S
C127 C126 1.348 . S
C127 C129 1.353 . S
C127 H168 0.929 . S
C128 C126 1.356 . S
C128 C130 1.358 . S
C128 H169 0.930 . S
C129 C127 1.353 . S
C129 N131 1.314 . S
C129 H170 0.930 . S
C130 C128 1.358 . S
C130 N131 1.279 . S
C130 H171 0.930 . S
N131 C129 1.314 . S
N131 C130 1.279 . S
C132 C134 1.353 . S
C132 N135 1.314 . S
C132 H138 0.930 . S
C133 N135 1.279 . S
C133 C136 1.358 . S
C133 H139 0.930 . S
C134 C132 1.353 . S
C134 C137 1.348 . S
C134 H172 0.929 . S
N135 Li90 1.990 . S
N135 C132 1.314 . S
N135 C133 1.279 . S
C136 C133 1.358 . S
C136 C137 1.356 . S
C136 H173 0.930 . S
C137 C134 1.348 . S
C137 C136 1.356 . S
H138 C132 0.930 . S
H139 C133 0.930 . S
C140 N141 1.314 . S
C140 C142 1.353 . S
C140 H146 0.930 . S
N141 Li91 1.990 . S
N141 C140 1.314 . S
N141 C144 1.279 . S
C142 C140 1.353 . S
C142 C145 1.348 . S
C142 H174 0.929 . S
C143 C144 1.358 . S
C143 C145 1.356 . S
C143 H175 0.930 . S
C144 N141 1.279 . S
C144 C143 1.358 . S
C144 H147 0.930 . S
C145 C142 1.348 . S
C145 C143 1.356 . S
H146 C140 0.930 . S
H147 C144 0.930 . S
O148 Li88 1.956 . S
O148 Li89 1.970 . S
O148 Li90 1.961 . S
O148 C92 1.325 . S
O149 Li88 1.970 1_556 S
O149 Li89 1.956 1_556 S
O149 Li91 1.961 . S
O149 C98 1.325 . S
O150 Li88 1.961 . S
O150 Li90 1.956 . S
O150 Li91 1.970 1_554 S
O150 C120 1.325 . S
O151 Li89 1.961 . S
O151 Li90 1.970 . S
O151 Li91 1.956 1_554 S
O151 C126 1.325 . S
H152 C94 0.929 . S
H153 C95 0.930 . S
H154 C96 0.930 . S
H155 C97 0.930 . S
H156 C99 0.930 . S
H157 C101 0.929 . S
H158 C102 0.930 . S
H159 C103 0.930 . S
H160 C106 0.930 . S
H161 C109 0.929 . S
H162 C114 0.929 . S
H163 C115 0.930 . S
H164 C122 0.929 . S
H165 C123 0.930 . S
H166 C124 0.930 . S
H167 C125 0.930 . S
H168 C127 0.929 . S
H169 C128 0.930 . S
H170 C129 0.930 . S
H171 C130 0.930 . S
H172 C134 0.929 . S
H173 C136 0.930 . S
H174 C142 0.929 . S
H175 C143 0.930 . S
Li176 N193 1.990 . S
Li176 O236 1.956 1_556 S
Li176 O237 1.970 1_566 S
Li176 O238 1.961 . S
Li177 N201 1.990 . S
Li177 O236 1.970 1_545 S
Li177 O237 1.956 . S
Li177 O239 1.961 . S
Li178 N223 1.990 . S
Li178 O236 1.961 . S
Li178 O238 1.956 1_554 S
Li178 O239 1.970 1_565 S
Li179 N229 1.990 . S
Li179 O237 1.961 . S
Li179 O238 1.970 1_544 S
Li179 O239 1.956 . S
C180 C182 1.348 . S
C180 C183 1.356 . S
C180 O236 1.325 . S
N181 C184 1.314 . S
N181 C185 1.279 . S
C182 C180 1.348 . S
C182 C184 1.353 . S
C182 H240 0.929 . S
C183 C180 1.356 . S
C183 C185 1.358 . S
C183 H241 0.930 . S
C184 N181 1.314 . S
C184 C182 1.353 . S
C184 H242 0.930 . S
C185 N181 1.279 . S
C185 C183 1.358 . S
C185 H243 0.930 . S
C186 C189 1.348 1_554 S
C186 C190 1.356 . S
C186 O237 1.325 . S
C187 N188 1.279 1_554 S
C187 C190 1.358 . S
C187 H244 0.930 . S
N188 C187 1.279 1_556 S
N188 C191 1.314 . S
C189 C186 1.348 1_556 S
C189 C191 1.353 . S
C189 H245 0.929 . S
C190 C186 1.356 . S
C190 C187 1.358 . S
C190 H246 0.930 . S
C191 N188 1.314 . S
C191 C189 1.353 . S
C191 H247 0.930 . S
C192 N193 1.314 . S
C192 C197 1.353 . S
C192 H198 0.930 1_565 S
N193 Li176 1.990 . S
N193 C192 1.314 . S
N193 C195 1.279 . S
C194 C195 1.358 . S
C194 C196 1.356 . S
C194 H248 0.930 . S
C195 N193 1.279 . S
C195 C194 1.358 . S
C195 H199 0.930 . S
C196 C194 1.356 . S
C196 C197 1.348 . S
C197 C192 1.353 . S
C197 C196 1.348 . S
C197 H249 0.930 1_565 S
H198 C192 0.930 1_545 S
H199 C195 0.930 . S
C200 N201 1.314 . S
C200 C202 1.353 . S
C200 H206 0.930 1_545 S
N201 Li177 1.990 . S
N201 C200 1.314 . S
N201 C204 1.279 . S
C202 C200 1.353 . S
C202 C205 1.348 . S
C202 H250 0.949 . S
C203 C204 1.358 . S
C203 C205 1.356 . S
C203 H251 0.930 . S
C204 N201 1.279 . S
C204 C203 1.358 . S
C204 H207 0.930 . S
C205 C202 1.348 . S
C205 C203 1.356 . S
H206 C200 0.930 1_565 S
H207 C204 0.930 . S
C208 C210 1.348 1_565 S
C208 C211 1.356 . S
C208 O238 1.325 . S
N209 C212 1.314 . S
N209 C213 1.279 . S
C210 C208 1.348 1_545 S
C210 C212 1.353 1_545 S
C210 H252 0.929 . S
C211 C208 1.356 . S
C211 C213 1.358 . S
C211 H253 0.930 . S
C212 N209 1.314 . S
C212 C210 1.353 1_565 S
C212 H254 0.930 1_565 S
C213 N209 1.279 . S
C213 C211 1.358 . S
C213 H255 0.930 . S
C214 C215 1.348 1_545 S
C214 C216 1.356 . S
C214 O239 1.325 . S
C215 C214 1.348 1_565 S
C215 C217 1.326 1_565 S
C215 H256 0.959 . S
C216 C214 1.356 . S
C216 C218 1.358 . S
C216 H257 0.930 . S
C217 C215 1.326 1_545 S
C217 N219 1.314 . S
C217 H258 0.930 1_545 S
C218 C216 1.358 . S
C218 N219 1.279 . S
C218 H259 0.930 . S
N219 C217 1.314 . S
N219 C218 1.279 . S
C220 C222 1.353 . S
C220 N223 1.314 . S
C220 H226 0.930 . S
C221 N223 1.279 . S
C221 C224 1.358 . S
C221 H227 0.930 1_554 S
C222 C220 1.353 . S
C222 C225 1.348 . S
C222 H260 0.929 . S
N223 Li178 1.990 . S
N223 C220 1.314 . S
N223 C221 1.279 . S
C224 C221 1.358 . S
C224 C225 1.356 . S
C224 H261 0.930 . S
C225 C222 1.348 . S
C225 C224 1.356 . S
H226 C220 0.930 . S
H227 C221 0.930 1_556 S
C228 N229 1.314 1_556 S
C228 C230 1.353 . S
C228 H234 0.930 . S
N229 Li179 1.990 . S
N229 C228 1.314 1_554 S
N229 C232 1.279 . S
C230 C228 1.353 . S
C230 C233 1.348 . S
C230 H262 0.929 . S
C231 C232 1.358 . S
C231 C233 1.356 1_554 S
C231 H263 0.930 . S
C232 N229 1.279 . S
C232 C231 1.358 . S
C232 H235 0.930 . S
C233 C230 1.348 . S
C233 C231 1.356 1_556 S
H234 C228 0.930 . S
H235 C232 0.930 . S
O236 Li176 1.956 1_554 S
O236 Li177 1.970 1_565 S
O236 Li178 1.961 . S
O236 C180 1.325 . S
O237 Li176 1.970 1_544 S
O237 Li177 1.956 . S
O237 Li179 1.961 . S
O237 C186 1.325 . S
O238 Li176 1.961 . S
O238 Li178 1.956 1_556 S
O238 Li179 1.970 1_566 S
O238 C208 1.325 . S
O239 Li177 1.961 . S
O239 Li178 1.970 1_545 S
O239 Li179 1.956 . S
O239 C214 1.325 . S
H240 C182 0.929 . S
H241 C183 0.930 . S
H242 C184 0.930 . S
H243 C185 0.930 . S
H244 C187 0.930 . S
H245 C189 0.929 . S
H246 C190 0.930 . S
H247 C191 0.930 . S
H248 C194 0.930 . S
H249 C197 0.930 1_545 S
H250 C202 0.949 . S
H251 C203 0.930 . S
H252 C210 0.929 . S
H253 C211 0.930 . S
H254 C212 0.930 1_545 S
H255 C213 0.930 . S
H256 C215 0.959 . S
H257 C216 0.930 . S
H258 C217 0.930 1_565 S
H259 C218 0.930 . S
H260 C222 0.929 . S
H261 C224 0.930 . S
H262 C230 0.929 . S
H263 C231 0.930 . S
Li264 N281 1.990 . S
Li264 O324 1.956 . S
Li264 O325 1.970 1_455 S
Li264 O326 1.961 1_554 S
Li265 N289 1.990 . S
Li265 O324 1.970 1_655 S
Li265 O325 1.956 . S
Li265 O327 1.961 . S
Li266 N311 1.990 . S
Li266 O324 1.961 1_556 S
Li266 O326 1.956 . S
Li266 O327 1.970 1_456 S
Li267 N317 1.990 . S
Li267 O325 1.961 . S
Li267 O326 1.970 1_654 S
Li267 O327 1.956 . S
C268 C270 1.348 . S
C268 C271 1.356 . S
C268 O324 1.325 . S
N269 C272 1.314 . S
N269 C273 1.279 . S
C270 C268 1.348 . S
C270 C272 1.353 . S
C270 H328 0.929 . S
C271 C268 1.356 . S
C271 C273 1.358 . S
C271 H329 0.930 1_554 S
C272 N269 1.314 . S
C272 C270 1.353 . S
C272 H330 0.930 . S
C273 N269 1.279 . S
C273 C271 1.358 . S
C273 H331 0.924 1_554 S
C274 C277 1.348 1_655 S
C274 C278 1.356 . S
C274 O325 1.325 . S
C275 N276 1.279 . S
C275 C278 1.358 . S
C275 H332 0.930 . S
N276 C275 1.279 . S
N276 C279 1.251 1_655 S
C277 C274 1.348 1_455 S
C277 C279 1.391 . S
C277 H333 0.929 . S
C278 C274 1.356 . S
C278 C275 1.358 . S
C278 H334 0.930 . S
C279 N276 1.251 1_455 S
C279 C277 1.391 . S
C279 H335 0.963 . S
C280 N281 1.314 . S
C280 C285 1.353 . S
C280 H286 0.930 . S
N281 Li264 1.990 . S
N281 C280 1.314 . S
N281 C283 1.279 . S
C282 C283 1.358 . S
C282 C284 1.356 . S
C282 H336 0.930 . S
C283 N281 1.279 . S
C283 C282 1.358 . S
C283 H287 0.930 . S
C284 C282 1.356 . S
C284 C285 1.348 . S
C285 C280 1.353 . S
C285 C284 1.348 . S
C285 H337 0.929 . S
H286 C280 0.930 . S
H287 C283 0.930 . S
C288 N289 1.314 . S
C288 C290 1.353 . S
C288 H294 0.930 . S
N289 Li265 1.990 . S
N289 C288 1.314 . S
N289 C292 1.279 . S
C290 C288 1.353 . S
C290 C293 1.348 . S
C290 H338 0.929 . S
C291 C292 1.358 . S
C291 C293 1.356 . S
C291 H339 0.930 . S
C292 N289 1.279 . S
C292 C291 1.358 . S
C292 H295 0.930 . S
C293 C290 1.348 . S
C293 C291 1.356 . S
H294 C288 0.930 . S
H295 C292 0.930 . S
C296 C298 1.348 1_455 S
C296 C299 1.356 . S
C296 O326 1.325 . S
N297 C300 1.266 1_455 S
N297 C301 1.279 . S
C298 C296 1.348 1_655 S
C298 C300 1.351 . S
C298 H340 0.929 . S
C299 C296 1.356 . S
C299 C301 1.358 . S
C299 H341 0.930 . S
C300 N297 1.266 1_655 S
C300 C298 1.351 . S
C300 H342 0.991 . S
C301 N297 1.279 . S
C301 C299 1.358 . S
C301 H343 0.930 . S
C302 C303 1.348 1_554 S
C302 C304 1.356 . S
C302 O327 1.325 . S
C303 C302 1.348 1_556 S
C303 C305 1.353 . S
C303 H344 0.929 . S
C304 C302 1.356 . S
C304 C306 1.358 . S
C304 H345 0.930 . S
C305 C303 1.353 . S
C305 N307 1.314 . S
C305 H346 0.930 . S
C306 C304 1.358 . S
C306 N307 1.279 1_554 S
C306 H347 0.930 . S
N307 C305 1.314 . S
N307 C306 1.279 1_556 S
C308 C310 1.353 . S
C308 N311 1.314 . S
C308 H314 0.930 . S
C309 N311 1.279 . S
C309 C312 1.358 . S
C309 H315 0.930 . S
C310 C308 1.353 . S
C310 C313 1.348 . S
C310 H348 0.929 . S
N311 Li266 1.990 . S
N311 C308 1.314 . S
N311 C309 1.279 . S
C312 C309 1.358 . S
C312 C313 1.356 . S
C312 H349 0.930 . S
C313 C310 1.348 . S
C313 C312 1.356 . S
H314 C308 0.930 . S
H315 C309 0.930 . S
C316 N317 1.314 . S
C316 C318 1.353 . S
C316 H322 0.930 . S
N317 Li267 1.990 . S
N317 C316 1.314 . S
N317 C320 1.279 1_554 S
C318 C316 1.353 . S
C318 C321 1.348 1_554 S
C318 H350 0.929 . S
C319 C320 1.358 . S
C319 C321 1.356 . S
C319 H351 0.930 . S
C320 N317 1.279 1_556 S
C320 C319 1.358 . S
C320 H323 0.930 . S
C321 C318 1.348 1_556 S
C321 C319 1.356 . S
H322 C316 0.930 . S
H323 C320 0.930 . S
O324 Li264 1.956 . S
O324 Li265 1.970 1_455 S
O324 Li266 1.961 1_554 S
O324 C268 1.325 . S
O325 Li264 1.970 1_655 S
O325 Li265 1.956 . S
O325 Li267 1.961 . S
O325 C274 1.325 . S
O326 Li264 1.961 1_556 S
O326 Li266 1.956 . S
O326 Li267 1.970 1_456 S
O326 C296 1.325 . S
O327 Li265 1.961 . S
O327 Li266 1.970 1_654 S
O327 Li267 1.956 . S
O327 C302 1.325 . S
H328 C270 0.929 . S
H329 C271 0.930 1_556 S
H330 C272 0.930 . S
H331 C273 0.924 1_556 S
H332 C275 0.930 . S
H333 C277 0.929 . S
H334 C278 0.930 . S
H335 C279 0.963 . S
H336 C282 0.930 . S
H337 C285 0.929 . S
H338 C290 0.929 . S
H339 C291 0.930 . S
H340 C298 0.929 . S
H341 C299 0.930 . S
H342 C300 0.991 . S
H343 C301 0.930 . S
H344 C303 0.929 . S
H345 C304 0.930 . S
H346 C305 0.930 . S
H347 C306 0.930 . S
H348 C310 0.929 . S
H349 C312 0.930 . S
H350 C318 0.929 . S
H351 C319 0.930 . S
Li352 N369 1.990 . S
Li352 O412 1.956 . S
Li352 O413 1.970 . S
Li352 O414 1.961 1_554 S
Li353 N377 1.990 . S
Li353 O412 1.970 . S
Li353 O413 1.956 . S
Li353 O415 1.961 . S
Li354 N399 1.990 . S
Li354 O412 1.961 1_556 S
Li354 O414 1.956 . S
Li354 O415 1.970 1_556 S
Li355 N405 2.002 . S
Li355 O413 1.961 . S
Li355 O414 1.970 1_554 S
Li355 O415 1.956 . S
C356 C358 1.348 . S
C356 C359 1.356 . S
C356 O412 1.325 . S
N357 C360 1.314 . S
N357 C361 1.279 . S
C358 C356 1.348 . S
C358 C360 1.353 . S
C358 H416 0.929 . S
C359 C356 1.356 . S
C359 C361 1.358 . S
C359 H417 0.930 1_554 S
C360 N357 1.314 . S
C360 C358 1.353 . S
C360 H418 0.930 . S
C361 N357 1.279 . S
C361 C359 1.358 . S
C361 H419 0.930 . S
C362 C365 1.348 . S
C362 C366 1.356 . S
C362 O413 1.325 . S
C363 N364 1.279 . S
C363 C366 1.358 . S
C363 H420 0.930 . S
N364 C363 1.279 . S
N364 C367 1.314 . S
C365 C362 1.348 . S
C365 C367 1.353 . S
C365 H421 0.929 . S
C366 C362 1.356 . S
C366 C363 1.358 . S
C366 H422 0.930 . S
C367 N364 1.314 . S
C367 C365 1.353 . S
C367 H423 0.930 . S
C368 N369 1.314 . S
C368 C373 1.353 . S
C368 H374 0.930 . S
N369 Li352 1.990 . S
N369 C368 1.314 . S
N369 C371 1.279 . S
C370 C371 1.358 . S
C370 C372 1.356 . S
C370 H424 0.930 . S
C371 N369 1.279 . S
C371 C370 1.358 . S
C371 H375 0.930 . S
C372 C370 1.356 . S
C372 C373 1.348 . S
C373 C368 1.353 . S
C373 C372 1.348 . S
C373 H425 0.929 . S
H374 C368 0.930 . S
H375 C371 0.930 . S
C376 N377 1.314 . S
C376 C378 1.353 . S
C376 H382 0.930 . S
N377 Li353 1.990 . S
N377 C376 1.314 . S
N377 C380 1.279 . S
C378 C376 1.353 . S
C378 C381 1.348 . S
C378 H426 0.929 . S
C379 C380 1.358 . S
C379 C381 1.356 . S
C379 H427 0.930 . S
C380 N377 1.279 . S
C380 C379 1.358 . S
C380 H383 0.930 . S
C381 C378 1.348 . S
C381 C379 1.356 . S
H382 C376 0.930 . S
H383 C380 0.930 . S
C384 C386 1.348 . S
C384 C387 1.356 . S
C384 O414 1.325 . S
N385 C388 1.314 . S
N385 C389 1.279 . S
C386 C384 1.348 . S
C386 C388 1.353 . S
C386 H428 0.929 . S
C387 C384 1.356 . S
C387 C389 1.358 . S
C387 H429 0.930 . S
C388 N385 1.314 . S
C388 C386 1.353 . S
C388 H430 0.930 . S
C389 N385 1.279 . S
C389 C387 1.358 . S
C389 H431 0.930 . S
C390 C391 1.348 1_554 S
C390 C392 1.356 . S
C390 O415 1.325 . S
C391 C390 1.348 1_556 S
C391 C393 1.353 . S
C391 H432 0.929 . S
C392 C390 1.356 . S
C392 C394 1.358 . S
C392 H433 0.930 . S
C393 C391 1.353 . S
C393 N395 1.314 . S
C393 H434 0.930 . S
C394 C392 1.358 . S
C394 N395 1.279 1_554 S
C394 H435 0.930 . S
N395 C393 1.314 . S
N395 C394 1.279 1_556 S
C396 C398 1.353 . S
C396 N399 1.314 . S
C396 H402 0.930 . S
C397 N399 1.279 . S
C397 C400 1.358 . S
C397 H403 0.930 . S
C398 C396 1.353 . S
C398 C401 1.348 . S
C398 H436 0.929 . S
N399 Li354 1.990 . S
N399 C396 1.314 . S
N399 C397 1.279 . S
C400 C397 1.358 . S
C400 C401 1.356 . S
C400 H437 0.930 . S
C401 C398 1.348 . S
C401 C400 1.356 . S
H402 C396 0.930 . S
H403 C397 0.930 . S
C404 N405 1.328 . S
C404 C406 1.353 . S
C404 H410 0.930 . S
N405 Li355 2.002 . S
N405 C404 1.328 . S
N405 C408 1.253 1_554 S
C406 C404 1.353 . S
C406 C409 1.348 1_554 S
C406 H438 0.929 . S
C407 C408 1.358 . S
C407 C409 1.356 . S
C407 H439 0.930 . S
C408 N405 1.253 1_556 S
C408 C407 1.358 . S
C408 H411 0.930 . S
C409 C406 1.348 1_556 S
C409 C407 1.356 . S
H410 C404 0.930 . S
H411 C408 0.930 . S
O412 Li352 1.956 . S
O412 Li353 1.970 . S
O412 Li354 1.961 1_554 S
O412 C356 1.325 . S
O413 Li352 1.970 . S
O413 Li353 1.956 . S
O413 Li355 1.961 . S
O413 C362 1.325 . S
O414 Li352 1.961 1_556 S
O414 Li354 1.956 . S
O414 Li355 1.970 1_556 S
O414 C384 1.325 . S
O415 Li353 1.961 . S
O415 Li354 1.970 1_554 S
O415 Li355 1.956 . S
O415 C390 1.325 . S
H416 C358 0.929 . S
H417 C359 0.930 1_556 S
H418 C360 0.930 . S
H419 C361 0.930 . S
H420 C363 0.930 . S
H421 C365 0.929 . S
H422 C366 0.930 . S
H423 C367 0.930 . S
H424 C370 0.930 . S
H425 C373 0.929 . S
H426 C378 0.929 . S
H427 C379 0.930 . S
H428 C386 0.929 . S
H429 C387 0.930 . S
H430 C388 0.930 . S
H431 C389 0.930 . S
H432 C391 0.929 . S
H433 C392 0.930 . S
H434 C393 0.930 . S
H435 C394 0.930 . S
H436 C398 0.929 . S
H437 C400 0.930 . S
H438 C406 0.929 . S
H439 C407 0.930 . S
Li440 N457 1.990 . S
Li440 O500 1.956 . S
Li440 O501 1.970 1_565 S
Li440 O502 1.961 1_554 S
Li441 N465 1.990 . S
Li441 O500 1.970 1_545 S
Li441 O501 1.956 . S
Li441 O503 1.961 . S
Li442 N487 1.990 . S
Li442 O500 1.961 1_556 S
Li442 O502 1.956 . S
Li442 O503 1.970 1_566 S
Li443 N493 1.990 . S
Li443 O501 1.961 . S
Li443 O502 1.970 1_544 S
Li443 O503 1.956 . S
C444 C446 1.348 . S
C444 C447 1.356 . S
C444 O500 1.325 . S
N445 C448 1.314 . S
N445 C449 1.279 . S
C446 C444 1.348 . S
C446 C448 1.353 . S
C446 H504 0.929 . S
C447 C444 1.356 . S
C447 C449 1.358 . S
C447 H505 0.930 1_554 S
C448 N445 1.314 . S
C448 C446 1.353 . S
C448 H506 0.930 . S
C449 N445 1.279 . S
C449 C447 1.358 . S
C449 H507 0.964 . S
C450 C453 1.348 1_545 S
C450 C454 1.356 . S
C450 O501 1.325 . S
C451 N452 1.279 . S
C451 C454 1.358 . S
C451 H508 0.930 . S
N452 C451 1.279 . S
N452 C455 1.266 1_545 S
C453 C450 1.348 1_565 S
C453 C455 1.351 . S
C453 H509 0.929 . S
C454 C450 1.356 . S
C454 C451 1.358 . S
C454 H510 0.930 . S
C455 N452 1.266 1_565 S
C455 C453 1.351 . S
C455 H511 0.991 . S
C456 N457 1.314 . S
C456 C461 1.353 . S
C456 H462 0.930 . S
N457 Li440 1.990 . S
N457 C456 1.314 . S
N457 C459 1.279 . S
C458 C459 1.358 . S
C458 C460 1.356 . S
C458 H512 0.930 . S
C459 N457 1.279 . S
C459 C458 1.358 . S
C459 H463 0.930 . S
C460 C458 1.356 . S
C460 C461 1.348 . S
C461 C456 1.353 . S
C461 C460 1.348 . S
C461 H513 0.929 . S
H462 C456 0.930 . S
H463 C459 0.930 . S
C464 N465 1.314 . S
C464 C466 1.353 . S
C464 H470 0.930 . S
N465 Li441 1.990 . S
N465 C464 1.314 . S
N465 C468 1.279 . S
C466 C464 1.353 . S
C466 C469 1.348 . S
C466 H514 0.929 . S
C467 C468 1.358 . S
C467 C469 1.356 . S
C467 H515 0.930 . S
C468 N465 1.279 . S
C468 C467 1.358 . S
C468 H471 0.930 . S
C469 C466 1.348 . S
C469 C467 1.356 . S
H470 C464 0.930 . S
H471 C468 0.930 . S
C472 C474 1.348 1_565 S
C472 C475 1.356 . S
C472 O502 1.325 . S
N473 C476 1.251 1_565 S
N473 C477 1.279 . S
C474 C472 1.348 1_545 S
C474 C476 1.391 . S
C474 H516 0.929 . S
C475 C472 1.356 . S
C475 C477 1.358 . S
C475 H517 0.930 . S
C476 N473 1.251 1_545 S
C476 C474 1.391 . S
C476 H518 0.963 . S
C477 N473 1.279 . S
C477 C475 1.358 . S
C477 H519 0.930 . S
C478 C479 1.348 1_554 S
C478 C480 1.356 . S
C478 O503 1.325 . S
C479 C478 1.348 1_556 S
C479 C481 1.353 . S
C479 H520 0.929 . S
C480 C478 1.356 . S
C480 C482 1.358 . S
C480 H521 0.930 . S
C481 C479 1.353 . S
C481 N483 1.314 . S
C481 H522 0.930 . S
C482 C480 1.358 . S
C482 N483 1.279 1_554 S
C482 H523 0.930 . S
N483 C481 1.314 . S
N483 C482 1.279 1_556 S
C484 C486 1.353 . S
C484 N487 1.314 . S
C484 H490 0.930 . S
C485 N487 1.279 . S
C485 C488 1.358 . S
C485 H491 0.930 . S
C486 C484 1.353 . S
C486 C489 1.348 . S
C486 H524 0.929 . S
N487 Li442 1.990 . S
N487 C484 1.314 . S
N487 C485 1.279 . S
C488 C485 1.358 . S
C488 C489 1.356 . S
C488 H525 0.930 . S
C489 C486 1.348 . S
C489 C488 1.356 . S
H490 C484 0.930 . S
H491 C485 0.930 . S
C492 N493 1.314 . S
C492 C494 1.353 . S
C492 H498 0.930 . S
N493 Li443 1.990 . S
N493 C492 1.314 . S
N493 C496 1.279 1_554 S
C494 C492 1.353 . S
C494 C497 1.348 1_554 S
C494 H526 0.929 . S
C495 C496 1.358 . S
C495 C497 1.356 . S
C495 H527 0.930 . S
C496 N493 1.279 1_556 S
C496 C495 1.358 . S
C496 H499 0.930 . S
C497 C494 1.348 1_556 S
C497 C495 1.356 . S
H498 C492 0.930 . S
H499 C496 0.930 . S
O500 Li440 1.956 . S
O500 Li441 1.970 1_565 S
O500 Li442 1.961 1_554 S
O500 C444 1.325 . S
O501 Li440 1.970 1_545 S
O501 Li441 1.956 . S
O501 Li443 1.961 . S
O501 C450 1.325 . S
O502 Li440 1.961 1_556 S
O502 Li442 1.956 . S
O502 Li443 1.970 1_566 S
O502 C472 1.325 . S
O503 Li441 1.961 . S
O503 Li442 1.970 1_544 S
O503 Li443 1.956 . S
O503 C478 1.325 . S
H504 C446 0.929 . S
H505 C447 0.930 1_556 S
H506 C448 0.930 . S
H507 C449 0.964 . S
H508 C451 0.930 . S
H509 C453 0.929 . S
H510 C454 0.930 . S
H511 C455 0.991 . S
H512 C458 0.930 . S
H513 C461 0.929 . S
H514 C466 0.929 . S
H515 C467 0.930 . S
H516 C474 0.929 . S
H517 C475 0.930 . S
H518 C476 0.963 . S
H519 C477 0.930 . S
H520 C479 0.929 . S
H521 C480 0.930 . S
H522 C481 0.930 . S
H523 C482 0.930 . S
H524 C486 0.929 . S
H525 C488 0.930 . S
H526 C494 0.929 . S
H527 C495 0.930 . S
Li528 N545 1.990 . S
Li528 O588 1.956 . S
Li528 O589 1.970 . S
Li528 O590 1.961 . S
Li529 N553 1.990 . S
Li529 O588 1.970 . S
Li529 O589 1.956 . S
Li529 O591 1.961 . S
Li530 N575 1.990 . S
Li530 O588 1.961 . S
Li530 O590 1.956 . S
Li530 O591 1.970 . S
Li531 N581 1.990 . S
Li531 O589 1.961 . S
Li531 O590 1.970 . S
Li531 O591 1.956 . S
C532 C534 1.348 . S
C532 C535 1.356 . S
C532 O588 1.325 . S
N533 C536 1.314 . S
N533 C537 1.279 . S
C534 C532 1.348 . S
C534 C536 1.353 . S
C534 H592 0.929 . S
C535 C532 1.356 . S
C535 C537 1.358 . S
C535 H593 0.930 . S
C536 N533 1.314 . S
C536 C534 1.353 . S
C536 H594 0.930 . S
C537 N533 1.279 . S
C537 C535 1.358 . S
C537 H595 0.930 . S
C538 C541 1.348 . S
C538 C542 1.356 . S
C538 O589 1.325 . S
C539 N540 1.279 . S
C539 C542 1.358 . S
C539 H596 0.930 . S
N540 C539 1.279 . S
N540 C543 1.314 . S
C541 C538 1.348 . S
C541 C543 1.353 . S
C541 H597 0.929 . S
C542 C538 1.356 . S
C542 C539 1.358 . S
C542 H598 0.930 . S
C543 N540 1.314 . S
C543 C541 1.353 . S
C543 H599 0.930 . S
C544 N545 1.314 . S
C544 C549 1.353 . S
C544 H550 0.930 . S
N545 Li528 1.990 . S
N545 C544 1.314 . S
N545 C547 1.279 . S
C546 C547 1.358 . S
C546 C548 1.356 . S
C546 H600 0.930 . S
C547 N545 1.279 . S
C547 C546 1.358 . S
C547 H551 0.930 . S
C548 C546 1.356 . S
C548 C549 1.348 . S
C549 C544 1.353 . S
C549 C548 1.348 . S
C549 H601 0.929 . S
H550 C544 0.930 . S
H551 C547 0.930 . S
C552 N553 1.314 . S
C552 C554 1.353 . S
C552 H558 0.930 . S
N553 Li529 1.990 . S
N553 C552 1.314 . S
N553 C556 1.279 . S
C554 C552 1.353 . S
C554 C557 1.348 . S
C554 H602 0.929 . S
C555 C556 1.358 . S
C555 C557 1.356 . S
C555 H603 0.930 . S
C556 N553 1.279 . S
C556 C555 1.358 . S
C556 H559 0.930 . S
C557 C554 1.348 . S
C557 C555 1.356 . S
H558 C552 0.930 . S
H559 C556 0.930 . S
C560 C562 1.348 . S
C560 C563 1.356 . S
C560 O590 1.325 . S
N561 C564 1.314 . S
N561 C565 1.279 . S
C562 C560 1.348 . S
C562 C564 1.353 . S
C562 H604 0.929 . S
C563 C560 1.356 . S
C563 C565 1.358 . S
C563 H605 0.930 . S
C564 N561 1.314 . S
C564 C562 1.353 . S
C564 H606 0.930 . S
C565 N561 1.279 . S
C565 C563 1.358 . S
C565 H607 0.930 . S
C566 C567 1.348 . S
C566 C568 1.356 . S
C566 O591 1.325 . S
C567 C566 1.348 . S
C567 C569 1.353 . S
C567 H608 0.929 . S
C568 C566 1.356 . S
C568 C570 1.358 . S
C568 H609 0.930 . S
C569 C567 1.353 . S
C569 N571 1.314 . S
C569 H610 0.930 . S
C570 C568 1.358 . S
C570 N571 1.279 . S
C570 H611 0.930 . S
N571 C569 1.314 . S
N571 C570 1.279 . S
C572 C574 1.353 . S
C572 N575 1.314 . S
C572 H578 0.930 . S
C573 N575 1.279 . S
C573 C576 1.358 . S
C573 H579 0.930 . S
C574 C572 1.353 . S
C574 C577 1.348 . S
C574 H612 0.929 . S
N575 Li530 1.990 . S
N575 C572 1.314 . S
N575 C573 1.279 . S
C576 C573 1.358 . S
C576 C577 1.356 . S
C576 H613 0.930 . S
C577 C574 1.348 . S
C577 C576 1.356 . S
H578 C572 0.930 . S
H579 C573 0.930 . S
C580 N581 1.314 . S
C580 C582 1.353 . S
C580 H586 0.930 . S
N581 Li531 1.990 . S
N581 C580 1.314 . S
N581 C584 1.279 . S
C582 C580 1.353 . S
C582 C585 1.348 . S
C582 H614 0.929 . S
C583 C584 1.358 . S
C583 C585 1.356 . S
C583 H615 0.930 . S
C584 N581 1.279 . S
C584 C583 1.358 . S
C584 H587 0.930 . S
C585 C582 1.348 . S
C585 C583 1.356 . S
H586 C580 0.930 . S
H587 C584 0.930 . S
O588 Li528 1.956 . S
O588 Li529 1.970 . S
O588 Li530 1.961 . S
O588 C532 1.325 . S
O589 Li528 1.970 . S
O589 Li529 1.956 . S
O589 Li531 1.961 . S
O589 C538 1.325 . S
O590 Li528 1.961 . S
O590 Li530 1.956 . S
O590 Li531 1.970 . S
O590 C560 1.325 . S
O591 Li529 1.961 . S
O591 Li530 1.970 . S
O591 Li531 1.956 . S
O591 C566 1.325 . S
H592 C534 0.929 . S
H593 C535 0.930 . S
H594 C536 0.930 . S
H595 C537 0.930 . S
H596 C539 0.930 . S
H597 C541 0.929 . S
H598 C542 0.930 . S
H599 C543 0.930 . S
H600 C546 0.930 . S
H601 C549 0.929 . S
H602 C554 0.929 . S
H603 C555 0.930 . S
H604 C562 0.929 . S
H605 C563 0.930 . S
H606 C564 0.930 . S
H607 C565 0.930 . S
H608 C567 0.929 . S
H609 C568 0.930 . S
H610 C569 0.930 . S
H611 C570 0.930 . S
H612 C574 0.929 . S
H613 C576 0.930 . S
H614 C582 0.929 . S
H615 C583 0.930 . S
Li616 N633 1.990 . S
Li616 O676 1.956 . S
Li616 O677 1.970 . S
Li616 O678 1.961 . S
Li617 N641 1.990 . S
Li617 O676 1.970 . S
Li617 O677 1.956 . S
Li617 O679 1.961 . S
Li618 N663 1.990 1_565 S
Li618 O676 1.961 . S
Li618 O678 1.956 . S
Li618 O679 1.970 . S
Li619 N669 1.990 . S
Li619 O677 1.961 . S
Li619 O678 1.970 . S
Li619 O679 1.956 . S
C620 C622 1.348 . S
C620 C623 1.356 . S
C620 O676 1.325 . S
N621 C624 1.314 . S
N621 C625 1.279 . S
C622 C620 1.348 . S
C622 C624 1.353 . S
C622 H680 0.929 . S
C623 C620 1.356 . S
C623 C625 1.358 . S
C623 H681 0.930 . S
C624 N621 1.314 . S
C624 C622 1.353 . S
C624 H682 0.930 . S
C625 N621 1.279 . S
C625 C623 1.358 . S
C625 H683 0.930 . S
C626 C629 1.348 . S
C626 C630 1.356 . S
C626 O677 1.325 . S
C627 N628 1.279 . S
C627 C630 1.358 . S
C627 H684 0.930 . S
N628 C627 1.279 . S
N628 C631 1.314 . S
C629 C626 1.348 . S
C629 C631 1.353 . S
C629 H685 0.929 . S
C630 C626 1.356 . S
C630 C627 1.358 . S
C630 H686 0.930 . S
C631 N628 1.314 . S
C631 C629 1.353 . S
C631 H687 0.930 . S
C632 N633 1.314 . S
C632 C637 1.353 . S
C632 H638 0.930 . S
N633 Li616 1.990 . S
N633 C632 1.314 . S
N633 C635 1.279 . S
C634 C635 1.358 . S
C634 C636 1.356 . S
C634 H688 0.930 . S
C635 N633 1.279 . S
C635 C634 1.358 . S
C635 H639 0.930 . S
C636 C634 1.356 . S
C636 C637 1.348 . S
C637 C632 1.353 . S
C637 C636 1.348 . S
C637 H689 0.929 . S
H638 C632 0.930 . S
H639 C635 0.930 . S
C640 N641 1.314 . S
C640 C642 1.353 . S
C640 H646 0.930 . S
N641 Li617 1.990 . S
N641 C640 1.314 . S
N641 C644 1.279 . S
C642 C640 1.353 . S
C642 C645 1.348 . S
C642 H690 0.929 . S
C643 C644 1.358 . S
C643 C645 1.356 . S
C643 H691 0.930 . S
C644 N641 1.279 . S
C644 C643 1.358 . S
C644 H647 0.930 . S
C645 C642 1.348 . S
C645 C643 1.356 . S
H646 C640 0.930 . S
H647 C644 0.930 . S
C648 C650 1.348 . S
C648 C651 1.356 . S
C648 O678 1.325 . S
N649 C652 1.314 . S
N649 C653 1.279 . S
C650 C648 1.348 . S
C650 C652 1.353 1_565 S
C650 H692 0.929 . S
C651 C648 1.356 . S
C651 C653 1.358 1_565 S
C651 H693 0.930 . S
C652 N649 1.314 . S
C652 C650 1.353 1_545 S
C652 H694 0.930 . S
C653 N649 1.279 . S
C653 C651 1.358 1_545 S
C653 H695 0.930 . S
C654 C655 1.348 . S
C654 C656 1.356 . S
C654 O679 1.325 . S
C655 C654 1.348 . S
C655 C657 1.354 1_565 S
C655 H696 0.929 1_565 S
C656 C654 1.356 . S
C656 C658 1.358 . S
C656 H697 0.930 . S
C657 C655 1.354 1_545 S
C657 N659 1.273 1_545 S
C657 H698 0.977 . S
C658 C656 1.358 . S
C658 N659 1.279 . S
C658 H699 0.930 . S
N659 C657 1.273 1_565 S
N659 C658 1.279 . S
C660 C662 1.353 . S
C660 N663 1.314 . S
C660 H666 0.889 1_545 S
C661 N663 1.279 . S
C661 C664 1.358 . S
C661 H667 0.930 . S
C662 C660 1.353 . S
C662 C665 1.348 . S
C662 H700 0.929 . S
N663 Li618 1.990 1_545 S
N663 C660 1.314 . S
N663 C661 1.279 . S
C664 C661 1.358 . S
C664 C665 1.356 . S
C664 H701 0.930 . S
C665 C662 1.348 . S
C665 C664 1.356 . S
H666 C660 0.889 1_565 S
H667 C661 0.930 . S
C668 N669 1.314 . S
C668 C670 1.353 . S
C668 H674 0.930 . S
N669 Li619 1.990 . S
N669 C668 1.314 . S
N669 C672 1.279 . S
C670 C668 1.353 . S
C670 C673 1.348 . S
C670 H702 0.929 . S
C671 C672 1.358 . S
C671 C673 1.356 . S
C671 H703 0.930 . S
C672 N669 1.279 . S
C672 C671 1.358 . S
C672 H675 0.930 . S
C673 C670 1.348 . S
C673 C671 1.356 . S
H674 C668 0.930 . S
H675 C672 0.930 . S
O676 Li616 1.956 . S
O676 Li617 1.970 . S
O676 Li618 1.961 . S
O676 C620 1.325 . S
O677 Li616 1.970 . S
O677 Li617 1.956 . S
O677 Li619 1.961 . S
O677 C626 1.325 . S
O678 Li616 1.961 . S
O678 Li618 1.956 . S
O678 Li619 1.970 . S
O678 C648 1.325 . S
O679 Li617 1.961 . S
O679 Li618 1.970 . S
O679 Li619 1.956 . S
O679 C654 1.325 . S
H680 C622 0.929 . S
H681 C623 0.930 . S
H682 C624 0.930 . S
H683 C625 0.930 . S
H684 C627 0.930 . S
H685 C629 0.929 . S
H686 C630 0.930 . S
H687 C631 0.930 . S
H688 C634 0.930 . S
H689 C637 0.929 . S
H690 C642 0.929 . S
H691 C643 0.930 . S
H692 C650 0.929 . S
H693 C651 0.930 . S
H694 C652 0.930 . S
H695 C653 0.930 . S
H696 C655 0.929 1_545 S
H697 C656 0.930 . S
H698 C657 0.977 . S
H699 C658 0.930 . S
H700 C662 0.929 . S
H701 C664 0.930 . S
H702 C670 0.929 . S
H703 C671 0.930 . S
Li704 N721 1.990 . S
Li704 O764 1.956 . S
Li704 O765 1.970 . S
Li704 O766 1.961 . S
Li705 N729 1.990 . S
Li705 O764 1.970 . S
Li705 O765 1.956 . S
Li705 O767 1.961 . S
Li706 N751 1.990 1_455 S
Li706 O764 1.961 . S
Li706 O766 1.956 . S
Li706 O767 1.970 . S
Li707 N757 1.990 . S
Li707 O765 1.961 . S
Li707 O766 1.970 . S
Li707 O767 1.956 . S
C708 C710 1.348 . S
C708 C711 1.356 . S
C708 O764 1.325 . S
N709 C712 1.314 . S
N709 C713 1.279 . S
C710 C708 1.348 . S
C710 C712 1.353 . S
C710 H768 0.929 . S
C711 C708 1.356 . S
C711 C713 1.358 . S
C711 H769 0.930 . S
C712 N709 1.314 . S
C712 C710 1.353 . S
C712 H770 0.930 . S
C713 N709 1.279 . S
C713 C711 1.358 . S
C713 H771 0.930 . S
C714 C717 1.348 . S
C714 C718 1.356 . S
C714 O765 1.325 . S
C715 N716 1.279 . S
C715 C718 1.358 . S
C715 H772 0.930 . S
N716 C715 1.279 . S
N716 C719 1.314 . S
C717 C714 1.348 . S
C717 C719 1.353 . S
C717 H773 0.929 . S
C718 C714 1.356 . S
C718 C715 1.358 . S
C718 H774 0.930 . S
C719 N716 1.314 . S
C719 C717 1.353 . S
C719 H775 0.930 . S
C720 N721 1.314 . S
C720 C725 1.353 . S
C720 H726 0.930 . S
N721 Li704 1.990 . S
N721 C720 1.314 . S
N721 C723 1.279 . S
C722 C723 1.358 . S
C722 C724 1.356 . S
C722 H776 0.930 . S
C723 N721 1.279 . S
C723 C722 1.358 . S
C723 H727 0.930 . S
C724 C722 1.356 . S
C724 C725 1.348 . S
C725 C720 1.353 . S
C725 C724 1.348 . S
C725 H777 0.929 . S
H726 C720 0.930 . S
H727 C723 0.930 . S
C728 N729 1.314 . S
C728 C730 1.353 . S
C728 H734 0.930 . S
N729 Li705 1.990 . S
N729 C728 1.314 . S
N729 C732 1.279 . S
C730 C728 1.353 . S
C730 C733 1.348 . S
C730 H778 0.929 . S
C731 C732 1.358 . S
C731 C733 1.356 . S
C731 H779 0.930 . S
C732 N729 1.279 . S
C732 C731 1.358 . S
C732 H735 0.930 . S
C733 C730 1.348 . S
C733 C731 1.356 . S
H734 C728 0.930 . S
H735 C732 0.930 . S
C736 C738 1.348 . S
C736 C739 1.356 . S
C736 O766 1.325 . S
N737 C740 1.314 . S
N737 C741 1.279 . S
C738 C736 1.348 . S
C738 C740 1.353 1_455 S
C738 H780 0.929 . S
C739 C736 1.356 . S
C739 C741 1.358 1_455 S
C739 H781 0.930 . S
C740 N737 1.314 . S
C740 C738 1.353 1_655 S
C740 H782 0.930 . S
C741 N737 1.279 . S
C741 C739 1.358 1_655 S
C741 H783 0.930 . S
C742 C743 1.348 . S
C742 C744 1.356 . S
C742 O767 1.325 . S
C743 C742 1.348 . S
C743 C745 1.357 1_455 S
C743 H784 0.929 1_455 S
C744 C742 1.356 . S
C744 C746 1.358 . S
C744 H785 0.930 . S
C745 C743 1.357 1_655 S
C745 N747 1.316 1_655 S
C745 H786 0.923 . S
C746 C744 1.358 . S
C746 N747 1.279 . S
C746 H787 0.930 . S
N747 C745 1.316 1_455 S
N747 C746 1.279 . S
C748 C750 1.353 . S
C748 N751 1.314 . S
C748 H754 0.930 1_655 S
C749 N751 1.279 . S
C749 C752 1.358 . S
C749 H755 0.930 . S
C750 C748 1.353 . S
C750 C753 1.348 . S
C750 H788 0.929 . S
N751 Li706 1.990 1_655 S
N751 C748 1.314 . S
N751 C749 1.279 . S
C752 C749 1.358 . S
C752 C753 1.356 . S
C752 H789 0.930 . S
C753 C750 1.348 . S
C753 C752 1.356 . S
H754 C748 0.930 1_455 S
H755 C749 0.930 . S
C756 N757 1.314 . S
C756 C758 1.353 . S
C756 H762 0.930 . S
N757 Li707 1.990 . S
N757 C756 1.314 . S
N757 C760 1.279 . S
C758 C756 1.353 . S
C758 C761 1.348 . S
C758 H790 0.929 . S
C759 C760 1.358 . S
C759 C761 1.356 . S
C759 H791 0.930 . S
C760 N757 1.279 . S
C760 C759 1.358 . S
C760 H763 0.930 . S
C761 C758 1.348 . S
C761 C759 1.356 . S
H762 C756 0.930 . S
H763 C760 0.930 . S
O764 Li704 1.956 . S
O764 Li705 1.970 . S
O764 Li706 1.961 . S
O764 C708 1.325 . S
O765 Li704 1.970 . S
O765 Li705 1.956 . S
O765 Li707 1.961 . S
O765 C714 1.325 . S
O766 Li704 1.961 . S
O766 Li706 1.956 . S
O766 Li707 1.970 . S
O766 C736 1.325 . S
O767 Li705 1.961 . S
O767 Li706 1.970 . S
O767 Li707 1.956 . S
O767 C742 1.325 . S
H768 C710 0.929 . S
H769 C711 0.930 . S
H770 C712 0.930 . S
H771 C713 0.930 . S
H772 C715 0.930 . S
H773 C717 0.929 . S
H774 C718 0.930 . S
H775 C719 0.930 . S
H776 C722 0.930 . S
H777 C725 0.929 . S
H778 C730 0.929 . S
H779 C731 0.930 . S
H780 C738 0.929 . S
H781 C739 0.930 . S
H782 C740 0.930 . S
H783 C741 0.930 . S
H784 C743 0.929 1_655 S
H785 C744 0.930 . S
H786 C745 0.923 . S
H787 C746 0.930 . S
H788 C750 0.929 . S
H789 C752 0.930 . S
H790 C758 0.929 . S
H791 C759 0.930 . S
Li792 N809 1.990 1_565 S
Li792 O852 1.956 . S
Li792 O853 1.970 . S
Li792 O854 1.961 . S
Li793 N817 1.990 . S
Li793 O852 1.970 . S
Li793 O853 1.956 . S
Li793 O855 1.961 . S
Li794 N839 1.990 . S
Li794 O852 1.961 . S
Li794 O854 1.956 . S
Li794 O855 1.970 . S
Li795 N845 1.990 . S
Li795 O853 1.961 . S
Li795 O854 1.970 . S
Li795 O855 1.956 . S
C796 C798 1.348 . S
C796 C799 1.356 . S
C796 O852 1.325 . S
N797 C800 1.314 . S
N797 C801 1.279 . S
C798 C796 1.348 . S
C798 C800 1.353 . S
C798 H856 0.929 . S
C799 C796 1.356 . S
C799 C801 1.358 . S
C799 H857 0.930 . S
C800 N797 1.314 . S
C800 C798 1.353 . S
C800 H858 0.930 . S
C801 N797 1.279 . S
C801 C799 1.358 . S
C801 H859 0.930 . S
C802 C805 1.348 . S
C802 C806 1.356 . S
C802 O853 1.325 . S
C803 N804 1.279 . S
C803 C806 1.358 . S
C803 H860 0.930 . S
N804 C803 1.279 . S
N804 C807 1.314 . S
C805 C802 1.348 . S
C805 C807 1.353 . S
C805 H861 0.929 . S
C806 C802 1.356 . S
C806 C803 1.358 . S
C806 H862 0.930 . S
C807 N804 1.314 . S
C807 C805 1.353 . S
C807 H863 0.930 1_565 S
C808 N809 1.314 . S
C808 C813 1.353 . S
C808 H814 0.930 . S
N809 Li792 1.990 1_545 S
N809 C808 1.314 . S
N809 C811 1.279 . S
C810 C811 1.358 . S
C810 C812 1.356 . S
C810 H864 0.930 . S
C811 N809 1.279 . S
C811 C810 1.358 . S
C811 H815 0.930 1_545 S
C812 C810 1.356 . S
C812 C813 1.348 . S
C813 C808 1.353 . S
C813 C812 1.348 . S
C813 H865 0.929 . S
H814 C808 0.930 . S
H815 C811 0.930 1_565 S
C816 N817 1.314 . S
C816 C818 1.353 . S
C816 H822 0.930 . S
N817 Li793 1.990 . S
N817 C816 1.314 . S
N817 C820 1.279 . S
C818 C816 1.353 . S
C818 C821 1.348 . S
C818 H866 0.929 . S
C819 C820 1.358 . S
C819 C821 1.356 . S
C819 H867 0.930 . S
C820 N817 1.279 . S
C820 C819 1.358 . S
C820 H823 0.930 . S
C821 C818 1.348 . S
C821 C819 1.356 . S
H822 C816 0.930 . S
H823 C820 0.930 . S
C824 C826 1.348 . S
C824 C827 1.356 . S
C824 O854 1.325 . S
N825 C828 1.314 1_545 S
N825 C829 1.279 . S
C826 C824 1.348 . S
C826 C828 1.353 . S
C826 H868 0.929 . S
C827 C824 1.356 . S
C827 C829 1.358 1_565 S
C827 H869 0.930 . S
C828 N825 1.314 1_565 S
C828 C826 1.353 . S
C828 H870 0.930 . S
C829 N825 1.279 . S
C829 C827 1.358 1_545 S
C829 H871 0.930 . S
C830 C831 1.348 . S
C830 C832 1.356 . S
C830 O855 1.325 . S
C831 C830 1.348 . S
C831 C833 1.353 . S
C831 H872 0.929 . S
C832 C830 1.356 . S
C832 C834 1.358 . S
C832 H873 0.930 . S
C833 C831 1.353 . S
C833 N835 1.314 . S
C833 H874 0.930 . S
C834 C832 1.358 . S
C834 N835 1.279 . S
C834 H875 0.930 . S
N835 C833 1.314 . S
N835 C834 1.279 . S
C836 C838 1.353 . S
C836 N839 1.314 . S
C836 H842 0.930 . S
C837 N839 1.279 . S
C837 C840 1.358 . S
C837 H843 0.930 . S
C838 C836 1.353 . S
C838 C841 1.348 . S
C838 H876 0.929 . S
N839 Li794 1.990 . S
N839 C836 1.314 . S
N839 C837 1.279 . S
C840 C837 1.358 . S
C840 C841 1.356 . S
C840 H877 0.930 . S
C841 C838 1.348 . S
C841 C840 1.356 . S
H842 C836 0.930 . S
H843 C837 0.930 . S
C844 N845 1.314 . S
C844 C846 1.353 . S
C844 H850 0.930 . S
N845 Li795 1.990 . S
N845 C844 1.314 . S
N845 C848 1.279 . S
C846 C844 1.353 . S
C846 C849 1.348 . S
C846 H878 0.929 . S
C847 C848 1.358 . S
C847 C849 1.356 . S
C847 H879 0.930 . S
C848 N845 1.279 . S
C848 C847 1.358 . S
C848 H851 0.930 . S
C849 C846 1.348 . S
C849 C847 1.356 . S
H850 C844 0.930 . S
H851 C848 0.930 . S
O852 Li792 1.956 . S
O852 Li793 1.970 . S
O852 Li794 1.961 . S
O852 C796 1.325 . S
O853 Li792 1.970 . S
O853 Li793 1.956 . S
O853 Li795 1.961 . S
O853 C802 1.325 . S
O854 Li792 1.961 . S
O854 Li794 1.956 . S
O854 Li795 1.970 . S
O854 C824 1.325 . S
O855 Li793 1.961 . S
O855 Li794 1.970 . S
O855 Li795 1.956 . S
O855 C830 1.325 . S
H856 C798 0.929 . S
H857 C799 0.930 . S
H858 C800 0.930 . S
H859 C801 0.930 . S
H860 C803 0.930 . S
H861 C805 0.929 . S
H862 C806 0.930 . S
H863 C807 0.930 1_545 S
H864 C810 0.930 . S
H865 C813 0.929 . S
H866 C818 0.929 . S
H867 C819 0.930 . S
H868 C826 0.929 . S
H869 C827 0.930 . S
H870 C828 0.930 . S
H871 C829 0.930 . S
H872 C831 0.929 . S
H873 C832 0.930 . S
H874 C833 0.930 . S
H875 C834 0.930 . S
H876 C838 0.929 . S
H877 C840 0.930 . S
H878 C846 0.929 . S
H879 C847 0.930 . S
Li880 N897 1.990 . S
Li880 O940 1.956 . S
Li880 O941 1.970 . S
Li880 O942 1.961 . S
Li881 N905 1.990 1_455 S
Li881 O940 1.970 . S
Li881 O941 1.956 . S
Li881 O943 1.961 . S
Li882 N927 1.990 . S
Li882 O940 1.961 . S
Li882 O942 1.956 . S
Li882 O943 1.970 . S
Li883 N933 1.990 . S
Li883 O941 1.961 . S
Li883 O942 1.970 . S
Li883 O943 1.956 . S
C884 C886 1.348 . S
C884 C887 1.356 . S
C884 O940 1.325 . S
N885 C888 1.314 . S
N885 C889 1.279 . S
C886 C884 1.348 . S
C886 C888 1.353 . S
C886 H944 0.929 . S
C887 C884 1.356 . S
C887 C889 1.358 . S
C887 H945 0.930 . S
C888 N885 1.314 . S
C888 C886 1.353 . S
C888 H946 0.930 1_455 S
C889 N885 1.279 . S
C889 C887 1.358 . S
C889 H947 0.930 . S
C890 C893 1.348 . S
C890 C894 1.356 . S
C890 O941 1.325 . S
C891 N892 1.279 . S
C891 C894 1.358 . S
C891 H948 0.930 . S
N892 C891 1.279 . S
N892 C895 1.314 . S
C893 C890 1.348 . S
C893 C895 1.353 . S
C893 H949 0.929 . S
C894 C890 1.356 . S
C894 C891 1.358 . S
C894 H950 0.930 . S
C895 N892 1.314 . S
C895 C893 1.353 . S
C895 H951 0.930 . S
C896 N897 1.314 . S
C896 C901 1.353 . S
C896 H902 0.930 . S
N897 Li880 1.990 . S
N897 C896 1.314 . S
N897 C899 1.279 . S
C898 C899 1.358 . S
C898 C900 1.356 . S
C898 H952 0.930 . S
C899 N897 1.279 . S
C899 C898 1.358 . S
C899 H903 0.930 . S
C900 C898 1.356 . S
C900 C901 1.348 . S
C901 C896 1.353 . S
C901 C900 1.348 . S
C901 H953 0.929 . S
H902 C896 0.930 . S
H903 C899 0.930 . S
C904 N905 1.314 . S
C904 C906 1.353 . S
C904 H910 0.930 . S
N905 Li881 1.990 1_655 S
N905 C904 1.314 . S
N905 C908 1.279 . S
C906 C904 1.353 . S
C906 C909 1.348 . S
C906 H954 0.929 . S
C907 C908 1.358 . S
C907 C909 1.356 . S
C907 H955 0.930 . S
C908 N905 1.279 . S
C908 C907 1.358 . S
C908 H911 0.930 1_655 S
C909 C906 1.348 . S
C909 C907 1.356 . S
H910 C904 0.930 . S
H911 C908 0.930 1_455 S
C912 C914 1.348 . S
C912 C915 1.356 . S
C912 O942 1.325 . S
N913 C916 1.314 . S
N913 C917 1.279 . S
C914 C912 1.348 . S
C914 C916 1.353 . S
C914 H956 0.929 . S
C915 C912 1.356 . S
C915 C917 1.358 . S
C915 H957 0.930 . S
C916 N913 1.314 . S
C916 C914 1.353 . S
C916 H958 0.930 . S
C917 N913 1.279 . S
C917 C915 1.358 . S
C917 H959 0.930 . S
C918 C919 1.348 . S
C918 C920 1.356 . S
C918 O943 1.325 . S
C919 C918 1.348 . S
C919 C921 1.353 . S
C919 H960 0.929 . S
C920 C918 1.356 . S
C920 C922 1.358 1_455 S
C920 H961 0.930 . S
C921 C919 1.353 . S
C921 N923 1.314 1_455 S
C921 H962 0.930 . S
C922 C920 1.358 1_655 S
C922 N923 1.279 . S
C922 H963 0.930 . S
N923 C921 1.314 1_655 S
N923 C922 1.279 . S
C924 C926 1.353 . S
C924 N927 1.314 . S
C924 H930 0.930 . S
C925 N927 1.279 . S
C925 C928 1.358 . S
C925 H931 0.930 . S
C926 C924 1.353 . S
C926 C929 1.348 . S
C926 H964 0.929 . S
N927 Li882 1.990 . S
N927 C924 1.314 . S
N927 C925 1.279 . S
C928 C925 1.358 . S
C928 C929 1.356 . S
C928 H965 0.930 . S
C929 C926 1.348 . S
C929 C928 1.356 . S
H930 C924 0.930 . S
H931 C925 0.930 . S
C932 N933 1.314 . S
C932 C934 1.353 . S
C932 H938 0.930 . S
N933 Li883 1.990 . S
N933 C932 1.314 . S
N933 C936 1.279 . S
C934 C932 1.353 . S
C934 C937 1.348 . S
C934 H966 0.929 . S
C935 C936 1.358 . S
C935 C937 1.356 . S
C935 H967 0.930 . S
C936 N933 1.279 . S
C936 C935 1.358 . S
C936 H939 0.930 . S
C937 C934 1.348 . S
C937 C935 1.356 . S
H938 C932 0.930 . S
H939 C936 0.930 . S
O940 Li880 1.956 . S
O940 Li881 1.970 . S
O940 Li882 1.961 . S
O940 C884 1.325 . S
O941 Li880 1.970 . S
O941 Li881 1.956 . S
O941 Li883 1.961 . S
O941 C890 1.325 . S
O942 Li880 1.961 . S
O942 Li882 1.956 . S
O942 Li883 1.970 . S
O942 C912 1.325 . S
O943 Li881 1.961 . S
O943 Li882 1.970 . S
O943 Li883 1.956 . S
O943 C918 1.325 . S
H944 C886 0.929 . S
H945 C887 0.930 . S
H946 C888 0.930 1_655 S
H947 C889 0.930 . S
H948 C891 0.930 . S
H949 C893 0.929 . S
H950 C894 0.930 . S
H951 C895 0.930 . S
H952 C898 0.930 . S
H953 C901 0.929 . S
H954 C906 0.929 . S
H955 C907 0.930 . S
H956 C914 0.929 . S
H957 C915 0.930 . S
H958 C916 0.930 . S
H959 C917 0.930 . S
H960 C919 0.929 . S
H961 C920 0.930 . S
H962 C921 0.930 . S
H963 C922 0.930 . S
H964 C926 0.929 . S
H965 C928 0.930 . S
H966 C934 0.929 . S
H967 C935 0.930 . S
Li968 N985 1.990 . S
Li968 O1028 1.956 . S
Li968 O1029 1.970 . S
Li968 O1030 1.961 . S
Li969 N993 1.990 . S
Li969 O1028 1.970 . S
Li969 O1029 1.956 . S
Li969 O1031 1.961 . S
Li970 N1015 1.990 . S
Li970 O1028 1.961 . S
Li970 O1030 1.956 . S
Li970 O1031 1.970 . S
Li971 N1021 1.990 . S
Li971 O1029 1.961 . S
Li971 O1030 1.970 . S
Li971 O1031 1.956 . S
C972 C974 1.348 . S
C972 C975 1.356 . S
C972 O1028 1.325 . S
N973 C976 1.314 . S
N973 C977 1.279 . S
C974 C972 1.348 . S
C974 C976 1.353 . S
C974 H1032 0.929 . S
C975 C972 1.356 . S
C975 C977 1.358 . S
C975 H1033 0.930 . S
C976 N973 1.314 . S
C976 C974 1.353 . S
C976 H1034 0.930 . S
C977 N973 1.279 . S
C977 C975 1.358 . S
C977 H1035 0.930 . S
C978 C981 1.348 . S
C978 C982 1.356 . S
C978 O1029 1.325 . S
C979 N980 1.279 . S
C979 C982 1.358 . S
C979 H1036 0.930 . S
N980 C979 1.279 . S
N980 C983 1.314 . S
C981 C978 1.348 . S
C981 C983 1.353 . S
C981 H1037 0.929 . S
C982 C978 1.356 . S
C982 C979 1.358 . S
C982 H1038 0.930 . S
C983 N980 1.314 . S
C983 C981 1.353 . S
C983 H1039 0.930 . S
C984 N985 1.314 . S
C984 C989 1.353 . S
C984 H990 0.930 . S
N985 Li968 1.990 . S
N985 C984 1.314 . S
N985 C987 1.279 . S
C986 C987 1.358 . S
C986 C988 1.356 . S
C986 H1040 0.930 . S
C987 N985 1.279 . S
C987 C986 1.358 . S
C987 H991 0.930 . S
C988 C986 1.356 . S
C988 C989 1.348 . S
C989 C984 1.353 . S
C989 C988 1.348 . S
C989 H1041 0.929 . S
H990 C984 0.930 . S
H991 C987 0.930 . S
C992 N993 1.314 . S
C992 C994 1.353 . S
C992 H998 0.930 . S
N993 Li969 1.990 . S
N993 C992 1.314 . S
N993 C996 1.279 . S
C994 C992 1.353 . S
C994 C997 1.348 . S
C994 H1042 0.929 . S
C995 C996 1.358 . S
C995 C997 1.356 . S
C995 H1043 0.930 . S
C996 N993 1.279 . S
C996 C995 1.358 . S
C996 H999 0.930 . S
C997 C994 1.348 . S
C997 C995 1.356 . S
H998 C992 0.930 . S
H999 C996 0.930 . S
C1000 C1002 1.348 . S
C1000 C1003 1.356 . S
C1000 O1030 1.325 . S
N1001 C1004 1.314 . S
N1001 C1005 1.279 . S
C1002 C1000 1.348 . S
C1002 C1004 1.353 . S
C1002 H1044 0.929 . S
C1003 C1000 1.356 . S
C1003 C1005 1.358 . S
C1003 H1045 0.930 . S
C1004 N1001 1.314 . S
C1004 C1002 1.353 . S
C1004 H1046 0.930 . S
C1005 N1001 1.279 . S
C1005 C1003 1.358 . S
C1005 H1047 0.930 . S
C1006 C1007 1.348 . S
C1006 C1008 1.356 . S
C1006 O1031 1.325 . S
C1007 C1006 1.348 . S
C1007 C1009 1.353 . S
C1007 H1048 0.929 . S
C1008 C1006 1.356 . S
C1008 C1010 1.358 . S
C1008 H1049 0.930 . S
C1009 C1007 1.353 . S
C1009 N1011 1.314 . S
C1009 H1050 0.930 . S
C1010 C1008 1.358 . S
C1010 N1011 1.279 . S
C1010 H1051 0.930 . S
N1011 C1009 1.314 . S
N1011 C1010 1.279 . S
C1012 C1014 1.353 . S
C1012 N1015 1.314 . S
C1012 H1018 0.930 . S
C1013 N1015 1.279 . S
C1013 C1016 1.358 . S
C1013 H1019 0.930 . S
C1014 C1012 1.353 . S
C1014 C1017 1.348 . S
C1014 H1052 0.929 . S
N1015 Li970 1.990 . S
N1015 C1012 1.314 . S
N1015 C1013 1.279 . S
C1016 C1013 1.358 . S
C1016 C1017 1.356 . S
C1016 H1053 0.930 . S
C1017 C1014 1.348 . S
C1017 C1016 1.356 . S
H1018 C1012 0.930 . S
H1019 C1013 0.930 . S
C1020 N1021 1.314 . S
C1020 C1022 1.353 . S
C1020 H1026 0.930 . S
N1021 Li971 1.990 . S
N1021 C1020 1.314 . S
N1021 C1024 1.279 . S
C1022 C1020 1.353 . S
C1022 C1025 1.348 . S
C1022 H1054 0.929 . S
C1023 C1024 1.358 . S
C1023 C1025 1.356 . S
C1023 H1055 0.930 . S
C1024 N1021 1.279 . S
C1024 C1023 1.358 . S
C1024 H1027 0.930 . S
C1025 C1022 1.348 . S
C1025 C1023 1.356 . S
H1026 C1020 0.930 . S
H1027 C1024 0.930 . S
O1028 Li968 1.956 . S
O1028 Li969 1.970 . S
O1028 Li970 1.961 . S
O1028 C972 1.325 . S
O1029 Li968 1.970 . S
O1029 Li969 1.956 . S
O1029 Li971 1.961 . S
O1029 C978 1.325 . S
O1030 Li968 1.961 . S
O1030 Li970 1.956 . S
O1030 Li971 1.970 . S
O1030 C1000 1.325 . S
O1031 Li969 1.961 . S
O1031 Li970 1.970 . S
O1031 Li971 1.956 . S
O1031 C1006 1.325 . S
H1032 C974 0.929 . S
H1033 C975 0.930 . S
H1034 C976 0.930 . S
H1035 C977 0.930 . S
H1036 C979 0.930 . S
H1037 C981 0.929 . S
H1038 C982 0.930 . S
H1039 C983 0.930 . S
H1040 C986 0.930 . S
H1041 C989 0.929 . S
H1042 C994 0.929 . S
H1043 C995 0.930 . S
H1044 C1002 0.929 . S
H1045 C1003 0.930 . S
H1046 C1004 0.930 . S
H1047 C1005 0.930 . S
H1048 C1007 0.929 . S
H1049 C1008 0.930 . S
H1050 C1009 0.930 . S
H1051 C1010 0.930 . S
H1052 C1014 0.929 . S
H1053 C1016 0.930 . S
H1054 C1022 0.929 . S
H1055 C1023 0.930 . S
Li1056 N1073 1.990 1_545 S
Li1056 O1116 1.956 . S
Li1056 O1117 1.970 . S
Li1056 O1118 1.961 . S
Li1057 N1081 1.990 . S
Li1057 O1116 1.970 . S
Li1057 O1117 1.956 . S
Li1057 O1119 1.961 . S
Li1058 N1103 1.990 . S
Li1058 O1116 1.961 . S
Li1058 O1118 1.956 . S
Li1058 O1119 1.970 . S
Li1059 N1109 1.990 . S
Li1059 O1117 1.961 . S
Li1059 O1118 1.970 . S
Li1059 O1119 1.956 . S
C1060 C1062 1.348 . S
C1060 C1063 1.356 . S
C1060 O1116 1.325 . S
N1061 C1064 1.314 . S
N1061 C1065 1.279 . S
C1062 C1060 1.348 . S
C1062 C1064 1.353 1_545 S
C1062 H1120 0.929 . S
C1063 C1060 1.356 . S
C1063 C1065 1.358 1_545 S
C1063 H1121 0.930 . S
C1064 N1061 1.314 . S
C1064 C1062 1.353 1_565 S
C1064 H1122 0.930 . S
C1065 N1061 1.279 . S
C1065 C1063 1.358 1_565 S
C1065 H1123 0.930 . S
C1066 C1069 1.348 . S
C1066 C1070 1.356 . S
C1066 O1117 1.325 . S
C1067 N1068 1.279 . S
C1067 C1070 1.358 . S
C1067 H1124 0.930 . S
N1068 C1067 1.279 . S
N1068 C1071 1.315 1_545 S
C1069 C1066 1.348 . S
C1069 C1071 1.357 1_545 S
C1069 H1125 0.929 1_545 S
C1070 C1066 1.356 . S
C1070 C1067 1.358 . S
C1070 H1126 0.930 . S
C1071 N1068 1.315 1_565 S
C1071 C1069 1.357 1_565 S
C1071 H1127 0.924 . S
C1072 N1073 1.314 . S
C1072 C1077 1.353 . S
C1072 H1078 0.930 1_565 S
N1073 Li1056 1.990 1_565 S
N1073 C1072 1.314 . S
N1073 C1075 1.279 . S
C1074 C1075 1.358 . S
C1074 C1076 1.356 . S
C1074 H1128 0.930 . S
C1075 N1073 1.279 . S
C1075 C1074 1.358 . S
C1075 H1079 0.930 . S
C1076 C1074 1.356 . S
C1076 C1077 1.348 . S
C1077 C1072 1.353 . S
C1077 C1076 1.348 . S
C1077 H1129 0.929 . S
H1078 C1072 0.930 1_545 S
H1079 C1075 0.930 . S
C1080 N1081 1.314 . S
C1080 C1082 1.353 . S
C1080 H1086 0.930 . S
N1081 Li1057 1.990 . S
N1081 C1080 1.314 . S
N1081 C1084 1.279 . S
C1082 C1080 1.353 . S
C1082 C1085 1.348 . S
C1082 H1130 0.929 . S
C1083 C1084 1.358 . S
C1083 C1085 1.356 . S
C1083 H1131 0.930 . S
C1084 N1081 1.279 . S
C1084 C1083 1.358 . S
C1084 H1087 0.930 . S
C1085 C1082 1.348 . S
C1085 C1083 1.356 . S
H1086 C1080 0.930 . S
H1087 C1084 0.930 . S
C1088 C1090 1.348 . S
C1088 C1091 1.356 . S
C1088 O1118 1.325 . S
N1089 C1092 1.314 . S
N1089 C1093 1.279 . S
C1090 C1088 1.348 . S
C1090 C1092 1.353 . S
C1090 H1132 0.929 . S
C1091 C1088 1.356 . S
C1091 C1093 1.358 . S
C1091 H1133 0.930 . S
C1092 N1089 1.314 . S
C1092 C1090 1.353 . S
C1092 H1134 0.930 . S
C1093 N1089 1.279 . S
C1093 C1091 1.358 . S
C1093 H1135 0.930 . S
C1094 C1095 1.348 . S
C1094 C1096 1.356 . S
C1094 O1119 1.325 . S
C1095 C1094 1.348 . S
C1095 C1097 1.353 . S
C1095 H1136 0.929 . S
C1096 C1094 1.356 . S
C1096 C1098 1.358 . S
C1096 H1137 0.930 . S
C1097 C1095 1.353 . S
C1097 N1099 1.314 . S
C1097 H1138 0.930 . S
C1098 C1096 1.358 . S
C1098 N1099 1.279 . S
C1098 H1139 0.930 . S
N1099 C1097 1.314 . S
N1099 C1098 1.279 . S
C1100 C1102 1.353 . S
C1100 N1103 1.314 . S
C1100 H1106 0.930 . S
C1101 N1103 1.279 . S
C1101 C1104 1.358 . S
C1101 H1107 0.930 . S
C1102 C1100 1.353 . S
C1102 C1105 1.348 . S
C1102 H1140 0.929 . S
N1103 Li1058 1.990 . S
N1103 C1100 1.314 . S
N1103 C1101 1.279 . S
C1104 C1101 1.358 . S
C1104 C1105 1.356 . S
C1104 H1141 0.930 . S
C1105 C1102 1.348 . S
C1105 C1104 1.356 . S
H1106 C1100 0.930 . S
H1107 C1101 0.930 . S
C1108 N1109 1.314 . S
C1108 C1110 1.353 . S
C1108 H1114 0.930 . S
N1109 Li1059 1.990 . S
N1109 C1108 1.314 . S
N1109 C1112 1.279 . S
C1110 C1108 1.353 . S
C1110 C1113 1.348 . S
C1110 H1142 0.929 . S
C1111 C1112 1.358 . S
C1111 C1113 1.356 . S
C1111 H1143 0.930 . S
C1112 N1109 1.279 . S
C1112 C1111 1.358 . S
C1112 H1115 0.930 . S
C1113 C1110 1.348 . S
C1113 C1111 1.356 . S
H1114 C1108 0.930 . S
H1115 C1112 0.930 . S
O1116 Li1056 1.956 . S
O1116 Li1057 1.970 . S
O1116 Li1058 1.961 . S
O1116 C1060 1.325 . S
O1117 Li1056 1.970 . S
O1117 Li1057 1.956 . S
O1117 Li1059 1.961 . S
O1117 C1066 1.325 . S
O1118 Li1056 1.961 . S
O1118 Li1058 1.956 . S
O1118 Li1059 1.970 . S
O1118 C1088 1.325 . S
O1119 Li1057 1.961 . S
O1119 Li1058 1.970 . S
O1119 Li1059 1.956 . S
O1119 C1094 1.325 . S
H1120 C1062 0.929 . S
H1121 C1063 0.930 . S
H1122 C1064 0.930 . S
H1123 C1065 0.930 . S
H1124 C1067 0.930 . S
H1125 C1069 0.929 1_565 S
H1126 C1070 0.930 . S
H1127 C1071 0.924 . S
H1128 C1074 0.930 . S
H1129 C1077 0.929 . S
H1130 C1082 0.929 . S
H1131 C1083 0.930 . S
H1132 C1090 0.929 . S
H1133 C1091 0.930 . S
H1134 C1092 0.930 . S
H1135 C1093 0.930 . S
H1136 C1095 0.929 . S
H1137 C1096 0.930 . S
H1138 C1097 0.930 . S
H1139 C1098 0.930 . S
H1140 C1102 0.929 . S
H1141 C1104 0.930 . S
H1142 C1110 0.929 . S
H1143 C1111 0.930 . S
Li1144 N1161 1.990 1_655 S
Li1144 O1204 1.956 . S
Li1144 O1205 1.970 . S
Li1144 O1206 1.961 . S
Li1145 N1169 1.990 . S
Li1145 O1204 1.970 . S
Li1145 O1205 1.956 . S
Li1145 O1207 1.961 . S
Li1146 N1191 1.990 . S
Li1146 O1204 1.961 . S
Li1146 O1206 1.956 . S
Li1146 O1207 1.970 . S
Li1147 N1197 1.990 . S
Li1147 O1205 1.961 . S
Li1147 O1206 1.970 . S
Li1147 O1207 1.956 . S
C1148 C1150 1.348 . S
C1148 C1151 1.356 . S
C1148 O1204 1.325 . S
N1149 C1152 1.314 . S
N1149 C1153 1.279 . S
C1150 C1148 1.348 . S
C1150 C1152 1.353 1_655 S
C1150 H1208 0.929 . S
C1151 C1148 1.356 . S
C1151 C1153 1.358 1_655 S
C1151 H1209 0.930 . S
C1152 N1149 1.314 . S
C1152 C1150 1.353 1_455 S
C1152 H1210 0.930 . S
C1153 N1149 1.279 . S
C1153 C1151 1.358 1_455 S
C1153 H1211 0.930 . S
C1154 C1157 1.348 . S
C1154 C1158 1.356 . S
C1154 O1205 1.325 . S
C1155 N1156 1.279 . S
C1155 C1158 1.358 . S
C1155 H1212 0.930 . S
N1156 C1155 1.279 . S
N1156 C1159 1.272 1_655 S
C1157 C1154 1.348 . S
C1157 C1159 1.354 1_655 S
C1157 H1213 0.929 1_655 S
C1158 C1154 1.356 . S
C1158 C1155 1.358 . S
C1158 H1214 0.930 . S
C1159 N1156 1.272 1_455 S
C1159 C1157 1.354 1_455 S
C1159 H1215 0.978 . S
C1160 N1161 1.314 . S
C1160 C1165 1.353 . S
C1160 H1166 0.889 1_455 S
N1161 Li1144 1.990 1_455 S
N1161 C1160 1.314 . S
N1161 C1163 1.279 . S
C1162 C1163 1.358 . S
C1162 C1164 1.356 . S
C1162 H1216 0.930 . S
C1163 N1161 1.279 . S
C1163 C1162 1.358 . S
C1163 H1167 0.930 . S
C1164 C1162 1.356 . S
C1164 C1165 1.348 . S
C1165 C1160 1.353 . S
C1165 C1164 1.348 . S
C1165 H1217 0.929 . S
H1166 C1160 0.889 1_655 S
H1167 C1163 0.930 . S
C1168 N1169 1.314 . S
C1168 C1170 1.353 . S
C1168 H1174 0.930 . S
N1169 Li1145 1.990 . S
N1169 C1168 1.314 . S
N1169 C1172 1.279 . S
C1170 C1168 1.353 . S
C1170 C1173 1.348 . S
C1170 H1218 0.929 . S
C1171 C1172 1.358 . S
C1171 C1173 1.356 . S
C1171 H1219 0.930 . S
C1172 N1169 1.279 . S
C1172 C1171 1.358 . S
C1172 H1175 0.930 . S
C1173 C1170 1.348 . S
C1173 C1171 1.356 . S
H1174 C1168 0.930 . S
H1175 C1172 0.930 . S
C1176 C1178 1.348 . S
C1176 C1179 1.356 . S
C1176 O1206 1.325 . S
N1177 C1180 1.314 . S
N1177 C1181 1.279 . S
C1178 C1176 1.348 . S
C1178 C1180 1.353 . S
C1178 H1220 0.929 . S
C1179 C1176 1.356 . S
C1179 C1181 1.358 . S
C1179 H1221 0.930 . S
C1180 N1177 1.314 . S
C1180 C1178 1.353 . S
C1180 H1222 0.930 . S
C1181 N1177 1.279 . S
C1181 C1179 1.358 . S
C1181 H1223 0.930 . S
C1182 C1183 1.348 . S
C1182 C1184 1.356 . S
C1182 O1207 1.325 . S
C1183 C1182 1.348 . S
C1183 C1185 1.353 . S
C1183 H1224 0.929 . S
C1184 C1182 1.356 . S
C1184 C1186 1.358 . S
C1184 H1225 0.930 . S
C1185 C1183 1.353 . S
C1185 N1187 1.314 . S
C1185 H1226 0.930 . S
C1186 C1184 1.358 . S
C1186 N1187 1.279 . S
C1186 H1227 0.930 . S
N1187 C1185 1.314 . S
N1187 C1186 1.279 . S
C1188 C1190 1.353 . S
C1188 N1191 1.314 . S
C1188 H1194 0.930 . S
C1189 N1191 1.279 . S
C1189 C1192 1.358 . S
C1189 H1195 0.930 . S
C1190 C1188 1.353 . S
C1190 C1193 1.348 . S
C1190 H1228 0.929 . S
N1191 Li1146 1.990 . S
N1191 C1188 1.314 . S
N1191 C1189 1.279 . S
C1192 C1189 1.358 . S
C1192 C1193 1.356 . S
C1192 H1229 0.930 . S
C1193 C1190 1.348 . S
C1193 C1192 1.356 . S
H1194 C1188 0.930 . S
H1195 C1189 0.930 . S
C1196 N1197 1.314 . S
C1196 C1198 1.353 . S
C1196 H1202 0.930 . S
N1197 Li1147 1.990 . S
N1197 C1196 1.314 . S
N1197 C1200 1.279 . S
C1198 C1196 1.353 . S
C1198 C1201 1.348 . S
C1198 H1230 0.929 . S
C1199 C1200 1.358 . S
C1199 C1201 1.356 . S
C1199 H1231 0.930 . S
C1200 N1197 1.279 . S
C1200 C1199 1.358 . S
C1200 H1203 0.930 . S
C1201 C1198 1.348 . S
C1201 C1199 1.356 . S
H1202 C1196 0.930 . S
H1203 C1200 0.930 . S
O1204 Li1144 1.956 . S
O1204 Li1145 1.970 . S
O1204 Li1146 1.961 . S
O1204 C1148 1.325 . S
O1205 Li1144 1.970 . S
O1205 Li1145 1.956 . S
O1205 Li1147 1.961 . S
O1205 C1154 1.325 . S
O1206 Li1144 1.961 . S
O1206 Li1146 1.956 . S
O1206 Li1147 1.970 . S
O1206 C1176 1.325 . S
O1207 Li1145 1.961 . S
O1207 Li1146 1.970 . S
O1207 Li1147 1.956 . S
O1207 C1182 1.325 . S
H1208 C1150 0.929 . S
H1209 C1151 0.930 . S
H1210 C1152 0.930 . S
H1211 C1153 0.930 . S
H1212 C1155 0.930 . S
H1213 C1157 0.929 1_455 S
H1214 C1158 0.930 . S
H1215 C1159 0.978 . S
H1216 C1162 0.930 . S
H1217 C1165 0.929 . S
H1218 C1170 0.929 . S
H1219 C1171 0.930 . S
H1220 C1178 0.929 . S
H1221 C1179 0.930 . S
H1222 C1180 0.930 . S
H1223 C1181 0.930 . S
H1224 C1183 0.929 . S
H1225 C1184 0.930 . S
H1226 C1185 0.930 . S
H1227 C1186 0.930 . S
H1228 C1190 0.929 . S
H1229 C1192 0.930 . S
H1230 C1198 0.929 . S
H1231 C1199 0.930 . S
Li1232 N1249 1.990 . S
Li1232 O1292 1.956 . S
Li1232 O1293 1.970 . S
Li1232 O1294 1.961 . S
Li1233 N1257 1.990 . S
Li1233 O1292 1.970 . S
Li1233 O1293 1.956 . S
Li1233 O1295 1.961 . S
Li1234 N1279 1.990 . S
Li1234 O1292 1.961 . S
Li1234 O1294 1.956 . S
Li1234 O1295 1.970 . S
Li1235 N1285 1.990 . S
Li1235 O1293 1.961 . S
Li1235 O1294 1.970 . S
Li1235 O1295 1.956 . S
C1236 C1238 1.348 . S
C1236 C1239 1.356 . S
C1236 O1292 1.325 . S
N1237 C1240 1.314 . S
N1237 C1241 1.279 . S
C1238 C1236 1.348 . S
C1238 C1240 1.353 . S
C1238 H1296 0.929 . S
C1239 C1236 1.356 . S
C1239 C1241 1.358 . S
C1239 H1297 0.930 . S
C1240 N1237 1.314 . S
C1240 C1238 1.353 . S
C1240 H1298 0.930 . S
C1241 N1237 1.279 . S
C1241 C1239 1.358 . S
C1241 H1299 0.930 . S
C1242 C1245 1.348 . S
C1242 C1246 1.356 . S
C1242 O1293 1.325 . S
C1243 N1244 1.279 . S
C1243 C1246 1.358 . S
C1243 H1300 0.930 . S
N1244 C1243 1.279 . S
N1244 C1247 1.314 . S
C1245 C1242 1.348 . S
C1245 C1247 1.353 . S
C1245 H1301 0.929 . S
C1246 C1242 1.356 . S
C1246 C1243 1.358 . S
C1246 H1302 0.930 . S
C1247 N1244 1.314 . S
C1247 C1245 1.353 . S
C1247 H1303 0.930 . S
C1248 N1249 1.314 . S
C1248 C1253 1.353 . S
C1248 H1254 0.930 . S
N1249 Li1232 1.990 . S
N1249 C1248 1.314 . S
N1249 C1251 1.279 . S
C1250 C1251 1.358 . S
C1250 C1252 1.356 . S
C1250 H1304 0.930 . S
C1251 N1249 1.279 . S
C1251 C1250 1.358 . S
C1251 H1255 0.930 . S
C1252 C1250 1.356 . S
C1252 C1253 1.348 . S
C1253 C1248 1.353 . S
C1253 C1252 1.348 . S
C1253 H1305 0.929 . S
H1254 C1248 0.930 . S
H1255 C1251 0.930 . S
C1256 N1257 1.314 . S
C1256 C1258 1.353 . S
C1256 H1262 0.930 . S
N1257 Li1233 1.990 . S
N1257 C1256 1.314 . S
N1257 C1260 1.279 . S
C1258 C1256 1.353 . S
C1258 C1261 1.348 . S
C1258 H1306 0.929 . S
C1259 C1260 1.358 . S
C1259 C1261 1.356 . S
C1259 H1307 0.930 . S
C1260 N1257 1.279 . S
C1260 C1259 1.358 . S
C1260 H1263 0.930 . S
C1261 C1258 1.348 . S
C1261 C1259 1.356 . S
H1262 C1256 0.930 . S
H1263 C1260 0.930 . S
C1264 C1266 1.348 . S
C1264 C1267 1.356 . S
C1264 O1294 1.325 . S
N1265 C1268 1.314 . S
N1265 C1269 1.279 . S
C1266 C1264 1.348 . S
C1266 C1268 1.353 . S
C1266 H1308 0.929 . S
C1267 C1264 1.356 . S
C1267 C1269 1.358 . S
C1267 H1309 0.930 . S
C1268 N1265 1.314 . S
C1268 C1266 1.353 . S
C1268 H1310 0.930 . S
C1269 N1265 1.279 . S
C1269 C1267 1.358 . S
C1269 H1311 0.930 . S
C1270 C1271 1.348 . S
C1270 C1272 1.356 . S
C1270 O1295 1.325 . S
C1271 C1270 1.348 . S
C1271 C1273 1.353 . S
C1271 H1312 0.929 . S
C1272 C1270 1.356 . S
C1272 C1274 1.358 . S
C1272 H1313 0.930 . S
C1273 C1271 1.353 . S
C1273 N1275 1.314 . S
C1273 H1314 0.930 . S
C1274 C1272 1.358 . S
C1274 N1275 1.279 . S
C1274 H1315 0.930 . S
N1275 C1273 1.314 . S
N1275 C1274 1.279 . S
C1276 C1278 1.353 . S
C1276 N1279 1.314 . S
C1276 H1282 0.930 . S
C1277 N1279 1.279 . S
C1277 C1280 1.358 . S
C1277 H1283 0.930 . S
C1278 C1276 1.353 . S
C1278 C1281 1.348 . S
C1278 H1316 0.929 . S
N1279 Li1234 1.990 . S
N1279 C1276 1.314 . S
N1279 C1277 1.279 . S
C1280 C1277 1.358 . S
C1280 C1281 1.356 . S
C1280 H1317 0.930 . S
C1281 C1278 1.348 . S
C1281 C1280 1.356 . S
H1282 C1276 0.930 . S
H1283 C1277 0.930 . S
C1284 N1285 1.314 . S
C1284 C1286 1.353 . S
C1284 H1290 0.930 . S
N1285 Li1235 1.990 . S
N1285 C1284 1.314 . S
N1285 C1288 1.279 . S
C1286 C1284 1.353 . S
C1286 C1289 1.348 . S
C1286 H1318 0.929 . S
C1287 C1288 1.358 . S
C1287 C1289 1.356 . S
C1287 H1319 0.930 . S
C1288 N1285 1.279 . S
C1288 C1287 1.358 . S
C1288 H1291 0.930 . S
C1289 C1286 1.348 . S
C1289 C1287 1.356 . S
H1290 C1284 0.930 . S
H1291 C1288 0.930 . S
O1292 Li1232 1.956 . S
O1292 Li1233 1.970 . S
O1292 Li1234 1.961 . S
O1292 C1236 1.325 . S
O1293 Li1232 1.970 . S
O1293 Li1233 1.956 . S
O1293 Li1235 1.961 . S
O1293 C1242 1.325 . S
O1294 Li1232 1.961 . S
O1294 Li1234 1.956 . S
O1294 Li1235 1.970 . S
O1294 C1264 1.325 . S
O1295 Li1233 1.961 . S
O1295 Li1234 1.970 . S
O1295 Li1235 1.956 . S
O1295 C1270 1.325 . S
H1296 C1238 0.929 . S
H1297 C1239 0.930 . S
H1298 C1240 0.930 . S
H1299 C1241 0.930 . S
H1300 C1243 0.930 . S
H1301 C1245 0.929 . S
H1302 C1246 0.930 . S
H1303 C1247 0.930 . S
H1304 C1250 0.930 . S
H1305 C1253 0.929 . S
H1306 C1258 0.929 . S
H1307 C1259 0.930 . S
H1308 C1266 0.929 . S
H1309 C1267 0.930 . S
H1310 C1268 0.930 . S
H1311 C1269 0.930 . S
H1312 C1271 0.929 . S
H1313 C1272 0.930 . S
H1314 C1273 0.930 . S
H1315 C1274 0.930 . S
H1316 C1278 0.929 . S
H1317 C1280 0.930 . S
H1318 C1286 0.929 . S
H1319 C1287 0.930 . S
Li1320 N1337 1.990 . S
Li1320 O1380 1.956 . S
Li1320 O1381 1.970 . S
Li1320 O1382 1.961 . S
Li1321 N1345 1.990 . S
Li1321 O1380 1.970 . S
Li1321 O1381 1.956 . S
Li1321 O1383 1.961 . S
Li1322 N1367 1.990 . S
Li1322 O1380 1.961 . S
Li1322 O1382 1.956 . S
Li1322 O1383 1.970 . S
Li1323 N1373 1.990 . S
Li1323 O1381 1.961 . S
Li1323 O1382 1.970 . S
Li1323 O1383 1.956 . S
C1324 C1326 1.348 . S
C1324 C1327 1.356 . S
C1324 O1380 1.325 . S
N1325 C1328 1.314 . S
N1325 C1329 1.279 . S
C1326 C1324 1.348 . S
C1326 C1328 1.353 . S
C1326 H1384 0.929 . S
C1327 C1324 1.356 . S
C1327 C1329 1.358 . S
C1327 H1385 0.930 . S
C1328 N1325 1.314 . S
C1328 C1326 1.353 . S
C1328 H1386 0.930 . S
C1329 N1325 1.279 . S
C1329 C1327 1.358 . S
C1329 H1387 0.930 . S
C1330 C1333 1.348 . S
C1330 C1334 1.356 . S
C1330 O1381 1.325 . S
C1331 N1332 1.279 . S
C1331 C1334 1.358 . S
C1331 H1388 0.930 . S
N1332 C1331 1.279 . S
N1332 C1335 1.314 . S
C1333 C1330 1.348 . S
C1333 C1335 1.353 . S
C1333 H1389 0.929 . S
C1334 C1330 1.356 . S
C1334 C1331 1.358 . S
C1334 H1390 0.930 . S
C1335 N1332 1.314 . S
C1335 C1333 1.353 . S
C1335 H1391 0.930 . S
C1336 N1337 1.314 . S
C1336 C1341 1.353 . S
C1336 H1342 0.930 . S
N1337 Li1320 1.990 . S
N1337 C1336 1.314 . S
N1337 C1339 1.279 . S
C1338 C1339 1.358 . S
C1338 C1340 1.356 . S
C1338 H1392 0.930 . S
C1339 N1337 1.279 . S
C1339 C1338 1.358 . S
C1339 H1343 0.930 . S
C1340 C1338 1.356 . S
C1340 C1341 1.348 . S
C1341 C1336 1.353 . S
C1341 C1340 1.348 . S
C1341 H1393 0.929 . S
H1342 C1336 0.930 . S
H1343 C1339 0.930 . S
C1344 N1345 1.314 . S
C1344 C1346 1.353 . S
C1344 H1350 0.930 . S
N1345 Li1321 1.990 . S
N1345 C1344 1.314 . S
N1345 C1348 1.279 . S
C1346 C1344 1.353 . S
C1346 C1349 1.348 . S
C1346 H1394 0.929 . S
C1347 C1348 1.358 . S
C1347 C1349 1.356 . S
C1347 H1395 0.930 . S
C1348 N1345 1.279 . S
C1348 C1347 1.358 . S
C1348 H1351 0.930 . S
C1349 C1346 1.348 . S
C1349 C1347 1.356 . S
H1350 C1344 0.930 . S
H1351 C1348 0.930 . S
C1352 C1354 1.348 . S
C1352 C1355 1.356 . S
C1352 O1382 1.325 . S
N1353 C1356 1.314 . S
N1353 C1357 1.279 . S
C1354 C1352 1.348 . S
C1354 C1356 1.353 . S
C1354 H1396 0.929 . S
C1355 C1352 1.356 . S
C1355 C1357 1.358 . S
C1355 H1397 0.930 . S
C1356 N1353 1.314 . S
C1356 C1354 1.353 . S
C1356 H1398 0.930 . S
C1357 N1353 1.279 . S
C1357 C1355 1.358 . S
C1357 H1399 0.930 . S
C1358 C1359 1.348 . S
C1358 C1360 1.356 . S
C1358 O1383 1.325 . S
C1359 C1358 1.348 . S
C1359 C1361 1.353 . S
C1359 H1400 0.929 . S
C1360 C1358 1.356 . S
C1360 C1362 1.358 . S
C1360 H1401 0.930 . S
C1361 C1359 1.353 . S
C1361 N1363 1.314 . S
C1361 H1402 0.930 . S
C1362 C1360 1.358 . S
C1362 N1363 1.279 . S
C1362 H1403 0.930 . S
N1363 C1361 1.314 . S
N1363 C1362 1.279 . S
C1364 C1366 1.353 . S
C1364 N1367 1.314 . S
C1364 H1370 0.930 . S
C1365 N1367 1.279 . S
C1365 C1368 1.358 . S
C1365 H1371 0.930 . S
C1366 C1364 1.353 . S
C1366 C1369 1.348 . S
C1366 H1404 0.929 . S
N1367 Li1322 1.990 . S
N1367 C1364 1.314 . S
N1367 C1365 1.279 . S
C1368 C1365 1.358 . S
C1368 C1369 1.356 . S
C1368 H1405 0.930 . S
C1369 C1366 1.348 . S
C1369 C1368 1.356 . S
H1370 C1364 0.930 . S
H1371 C1365 0.930 . S
C1372 N1373 1.314 . S
C1372 C1374 1.353 . S
C1372 H1378 0.930 . S
N1373 Li1323 1.990 . S
N1373 C1372 1.314 . S
N1373 C1376 1.279 . S
C1374 C1372 1.353 . S
C1374 C1377 1.348 . S
C1374 H1406 0.929 . S
C1375 C1376 1.358 . S
C1375 C1377 1.356 . S
C1375 H1407 0.930 . S
C1376 N1373 1.279 . S
C1376 C1375 1.358 . S
C1376 H1379 0.930 . S
C1377 C1374 1.348 . S
C1377 C1375 1.356 . S
H1378 C1372 0.930 . S
H1379 C1376 0.930 . S
O1380 Li1320 1.956 . S
O1380 Li1321 1.970 . S
O1380 Li1322 1.961 . S
O1380 C1324 1.325 . S
O1381 Li1320 1.970 . S
O1381 Li1321 1.956 . S
O1381 Li1323 1.961 . S
O1381 C1330 1.325 . S
O1382 Li1320 1.961 . S
O1382 Li1322 1.956 . S
O1382 Li1323 1.970 . S
O1382 C1352 1.325 . S
O1383 Li1321 1.961 . S
O1383 Li1322 1.970 . S
O1383 Li1323 1.956 . S
O1383 C1358 1.325 . S
H1384 C1326 0.929 . S
H1385 C1327 0.930 . S
H1386 C1328 0.930 . S
H1387 C1329 0.930 . S
H1388 C1331 0.930 . S
H1389 C1333 0.929 . S
H1390 C1334 0.930 . S
H1391 C1335 0.930 . S
H1392 C1338 0.930 . S
H1393 C1341 0.929 . S
H1394 C1346 0.929 . S
H1395 C1347 0.930 . S
H1396 C1354 0.929 . S
H1397 C1355 0.930 . S
H1398 C1356 0.930 . S
H1399 C1357 0.930 . S
H1400 C1359 0.929 . S
H1401 C1360 0.930 . S
H1402 C1361 0.930 . S
H1403 C1362 0.930 . S
H1404 C1366 0.929 . S
H1405 C1368 0.930 . S
H1406 C1374 0.929 . S
H1407 C1375 0.930 . S
Li1408 N1425 1.990 . S
Li1408 O1468 1.956 . S
Li1408 O1469 1.970 . S
Li1408 O1470 1.961 . S
Li1409 N1433 1.990 . S
Li1409 O1468 1.970 . S
Li1409 O1469 1.956 . S
Li1409 O1471 1.961 . S
Li1410 N1455 1.990 . S
Li1410 O1468 1.961 . S
Li1410 O1470 1.956 . S
Li1410 O1471 1.970 . S
Li1411 N1461 1.990 1_545 S
Li1411 O1469 1.961 . S
Li1411 O1470 1.970 . S
Li1411 O1471 1.956 . S
C1412 C1414 1.348 . S
C1412 C1415 1.356 . S
C1412 O1468 1.325 . S
N1413 C1416 1.314 . S
N1413 C1417 1.279 . S
C1414 C1412 1.348 . S
C1414 C1416 1.353 . S
C1414 H1472 0.929 . S
C1415 C1412 1.356 . S
C1415 C1417 1.358 . S
C1415 H1473 0.930 . S
C1416 N1413 1.314 . S
C1416 C1414 1.353 . S
C1416 H1474 0.930 . S
C1417 N1413 1.279 . S
C1417 C1415 1.358 . S
C1417 H1475 0.930 . S
C1418 C1421 1.348 . S
C1418 C1422 1.356 . S
C1418 O1469 1.325 . S
C1419 N1420 1.279 . S
C1419 C1422 1.358 1_565 S
C1419 H1476 0.930 . S
N1420 C1419 1.279 . S
N1420 C1423 1.314 1_565 S
C1421 C1418 1.348 . S
C1421 C1423 1.353 . S
C1421 H1477 0.929 . S
C1422 C1418 1.356 . S
C1422 C1419 1.358 1_545 S
C1422 H1478 0.930 . S
C1423 N1420 1.314 1_545 S
C1423 C1421 1.353 . S
C1423 H1479 0.930 . S
C1424 N1425 1.314 . S
C1424 C1429 1.353 . S
C1424 H1430 0.930 . S
N1425 Li1408 1.990 . S
N1425 C1424 1.314 . S
N1425 C1427 1.279 . S
C1426 C1427 1.358 . S
C1426 C1428 1.356 . S
C1426 H1480 0.930 . S
C1427 N1425 1.279 . S
C1427 C1426 1.358 . S
C1427 H1431 0.930 . S
C1428 C1426 1.356 . S
C1428 C1429 1.348 . S
C1429 C1424 1.353 . S
C1429 C1428 1.348 . S
C1429 H1481 0.929 . S
H1430 C1424 0.930 . S
H1431 C1427 0.930 . S
C1432 N1433 1.314 . S
C1432 C1434 1.353 . S
C1432 H1438 0.930 . S
N1433 Li1409 1.990 . S
N1433 C1432 1.314 . S
N1433 C1436 1.279 . S
C1434 C1432 1.353 . S
C1434 C1437 1.348 . S
C1434 H1482 0.929 . S
C1435 C1436 1.358 . S
C1435 C1437 1.356 . S
C1435 H1483 0.930 . S
C1436 N1433 1.279 . S
C1436 C1435 1.358 . S
C1436 H1439 0.930 . S
C1437 C1434 1.348 . S
C1437 C1435 1.356 . S
H1438 C1432 0.930 . S
H1439 C1436 0.930 . S
C1440 C1442 1.348 . S
C1440 C1443 1.356 . S
C1440 O1470 1.325 . S
N1441 C1444 1.314 . S
N1441 C1445 1.279 . S
C1442 C1440 1.348 . S
C1442 C1444 1.353 . S
C1442 H1484 0.929 . S
C1443 C1440 1.356 . S
C1443 C1445 1.358 . S
C1443 H1485 0.930 . S
C1444 N1441 1.314 . S
C1444 C1442 1.353 . S
C1444 H1486 0.930 1_545 S
C1445 N1441 1.279 . S
C1445 C1443 1.358 . S
C1445 H1487 0.930 . S
C1446 C1447 1.348 . S
C1446 C1448 1.356 . S
C1446 O1471 1.325 . S
C1447 C1446 1.348 . S
C1447 C1449 1.353 . S
C1447 H1488 0.929 . S
C1448 C1446 1.356 . S
C1448 C1450 1.358 . S
C1448 H1489 0.930 . S
C1449 C1447 1.353 . S
C1449 N1451 1.314 . S
C1449 H1490 0.930 . S
C1450 C1448 1.358 . S
C1450 N1451 1.279 . S
C1450 H1491 0.930 . S
N1451 C1449 1.314 . S
N1451 C1450 1.279 . S
C1452 C1454 1.353 . S
C1452 N1455 1.314 . S
C1452 H1458 0.930 . S
C1453 N1455 1.279 . S
C1453 C1456 1.358 . S
C1453 H1459 0.930 . S
C1454 C1452 1.353 . S
C1454 C1457 1.348 . S
C1454 H1492 0.929 . S
N1455 Li1410 1.990 . S
N1455 C1452 1.314 . S
N1455 C1453 1.279 . S
C1456 C1453 1.358 . S
C1456 C1457 1.356 . S
C1456 H1493 0.930 . S
C1457 C1454 1.348 . S
C1457 C1456 1.356 . S
H1458 C1452 0.930 . S
H1459 C1453 0.930 . S
C1460 N1461 1.314 . S
C1460 C1462 1.353 . S
C1460 H1466 0.930 . S
N1461 Li1411 1.990 1_565 S
N1461 C1460 1.314 . S
N1461 C1464 1.279 . S
C1462 C1460 1.353 . S
C1462 C1465 1.348 . S
C1462 H1494 0.929 . S
C1463 C1464 1.358 . S
C1463 C1465 1.356 . S
C1463 H1495 0.930 . S
C1464 N1461 1.279 . S
C1464 C1463 1.358 . S
C1464 H1467 0.930 1_565 S
C1465 C1462 1.348 . S
C1465 C1463 1.356 . S
H1466 C1460 0.930 . S
H1467 C1464 0.930 1_545 S
O1468 Li1408 1.956 . S
O1468 Li1409 1.970 . S
O1468 Li1410 1.961 . S
O1468 C1412 1.325 . S
O1469 Li1408 1.970 . S
O1469 Li1409 1.956 . S
O1469 Li1411 1.961 . S
O1469 C1418 1.325 . S
O1470 Li1408 1.961 . S
O1470 Li1410 1.956 . S
O1470 Li1411 1.970 . S
O1470 C1440 1.325 . S
O1471 Li1409 1.961 . S
O1471 Li1410 1.970 . S
O1471 Li1411 1.956 . S
O1471 C1446 1.325 . S
H1472 C1414 0.929 . S
H1473 C1415 0.930 . S
H1474 C1416 0.930 . S
H1475 C1417 0.930 . S
H1476 C1419 0.930 . S
H1477 C1421 0.929 . S
H1478 C1422 0.930 . S
H1479 C1423 0.930 . S
H1480 C1426 0.930 . S
H1481 C1429 0.929 . S
H1482 C1434 0.929 . S
H1483 C1435 0.930 . S
H1484 C1442 0.929 . S
H1485 C1443 0.930 . S
H1486 C1444 0.930 1_565 S
H1487 C1445 0.930 . S
H1488 C1447 0.929 . S
H1489 C1448 0.930 . S
H1490 C1449 0.930 . S
H1491 C1450 0.930 . S
H1492 C1454 0.929 . S
H1493 C1456 0.930 . S
H1494 C1462 0.929 . S
H1495 C1463 0.930 . S
Li1496 N1513 1.990 . S
Li1496 O1556 1.956 . S
Li1496 O1557 1.970 . S
Li1496 O1558 1.961 . S
Li1497 N1521 1.990 . S
Li1497 O1556 1.970 . S
Li1497 O1557 1.956 . S
Li1497 O1559 1.961 . S
Li1498 N1543 1.990 1_655 S
Li1498 O1556 1.961 . S
Li1498 O1558 1.956 . S
Li1498 O1559 1.970 . S
Li1499 N1549 1.990 . S
Li1499 O1557 1.961 . S
Li1499 O1558 1.970 . S
Li1499 O1559 1.956 . S
C1500 C1502 1.348 . S
C1500 C1503 1.356 . S
C1500 O1556 1.325 . S
N1501 C1504 1.314 1_455 S
N1501 C1505 1.279 . S
C1502 C1500 1.348 . S
C1502 C1504 1.353 . S
C1502 H1560 0.929 . S
C1503 C1500 1.356 . S
C1503 C1505 1.358 1_655 S
C1503 H1561 0.930 . S
C1504 N1501 1.314 1_655 S
C1504 C1502 1.353 . S
C1504 H1562 0.930 . S
C1505 N1501 1.279 . S
C1505 C1503 1.358 1_455 S
C1505 H1563 0.930 . S
C1506 C1509 1.348 . S
C1506 C1510 1.356 . S
C1506 O1557 1.325 . S
C1507 N1508 1.279 . S
C1507 C1510 1.358 . S
C1507 H1564 0.930 . S
N1508 C1507 1.279 . S
N1508 C1511 1.314 . S
C1509 C1506 1.348 . S
C1509 C1511 1.353 . S
C1509 H1565 0.929 . S
C1510 C1506 1.356 . S
C1510 C1507 1.358 . S
C1510 H1566 0.930 . S
C1511 N1508 1.314 . S
C1511 C1509 1.353 . S
C1511 H1567 0.930 . S
C1512 N1513 1.314 . S
C1512 C1517 1.353 . S
C1512 H1518 0.930 . S
N1513 Li1496 1.990 . S
N1513 C1512 1.314 . S
N1513 C1515 1.279 . S
C1514 C1515 1.358 . S
C1514 C1516 1.356 . S
C1514 H1568 0.930 . S
C1515 N1513 1.279 . S
C1515 C1514 1.358 . S
C1515 H1519 0.930 . S
C1516 C1514 1.356 . S
C1516 C1517 1.348 . S
C1517 C1512 1.353 . S
C1517 C1516 1.348 . S
C1517 H1569 0.929 . S
H1518 C1512 0.930 . S
H1519 C1515 0.930 . S
C1520 N1521 1.314 . S
C1520 C1522 1.353 . S
C1520 H1526 0.930 . S
N1521 Li1497 1.990 . S
N1521 C1520 1.314 . S
N1521 C1524 1.279 . S
C1522 C1520 1.353 . S
C1522 C1525 1.348 . S
C1522 H1570 0.929 . S
C1523 C1524 1.358 . S
C1523 C1525 1.356 . S
C1523 H1571 0.930 . S
C1524 N1521 1.279 . S
C1524 C1523 1.358 . S
C1524 H1527 0.930 . S
C1525 C1522 1.348 . S
C1525 C1523 1.356 . S
H1526 C1520 0.930 . S
H1527 C1524 0.930 . S
C1528 C1530 1.348 . S
C1528 C1531 1.356 . S
C1528 O1558 1.325 . S
N1529 C1532 1.314 . S
N1529 C1533 1.279 . S
C1530 C1528 1.348 . S
C1530 C1532 1.353 . S
C1530 H1572 0.929 . S
C1531 C1528 1.356 . S
C1531 C1533 1.358 . S
C1531 H1573 0.930 . S
C1532 N1529 1.314 . S
C1532 C1530 1.353 . S
C1532 H1574 0.930 . S
C1533 N1529 1.279 . S
C1533 C1531 1.358 . S
C1533 H1575 0.930 . S
C1534 C1535 1.348 . S
C1534 C1536 1.356 . S
C1534 O1559 1.325 . S
C1535 C1534 1.348 . S
C1535 C1537 1.353 . S
C1535 H1576 0.929 . S
C1536 C1534 1.356 . S
C1536 C1538 1.358 . S
C1536 H1577 0.930 . S
C1537 C1535 1.353 . S
C1537 N1539 1.314 . S
C1537 H1578 0.930 1_655 S
C1538 C1536 1.358 . S
C1538 N1539 1.279 . S
C1538 H1579 0.930 . S
N1539 C1537 1.314 . S
N1539 C1538 1.279 . S
C1540 C1542 1.353 . S
C1540 N1543 1.314 . S
C1540 H1546 0.930 . S
C1541 N1543 1.279 . S
C1541 C1544 1.358 . S
C1541 H1547 0.930 1_455 S
C1542 C1540 1.353 . S
C1542 C1545 1.348 . S
C1542 H1580 0.929 . S
N1543 Li1498 1.990 1_455 S
N1543 C1540 1.314 . S
N1543 C1541 1.279 . S
C1544 C1541 1.358 . S
C1544 C1545 1.356 . S
C1544 H1581 0.930 . S
C1545 C1542 1.348 . S
C1545 C1544 1.356 . S
H1546 C1540 0.930 . S
H1547 C1541 0.930 1_655 S
C1548 N1549 1.314 . S
C1548 C1550 1.353 . S
C1548 H1554 0.930 . S
N1549 Li1499 1.990 . S
N1549 C1548 1.314 . S
N1549 C1552 1.279 . S
C1550 C1548 1.353 . S
C1550 C1553 1.348 . S
C1550 H1582 0.929 . S
C1551 C1552 1.358 . S
C1551 C1553 1.356 . S
C1551 H1583 0.930 . S
C1552 N1549 1.279 . S
C1552 C1551 1.358 . S
C1552 H1555 0.930 . S
C1553 C1550 1.348 . S
C1553 C1551 1.356 . S
H1554 C1548 0.930 . S
H1555 C1552 0.930 . S
O1556 Li1496 1.956 . S
O1556 Li1497 1.970 . S
O1556 Li1498 1.961 . S
O1556 C1500 1.325 . S
O1557 Li1496 1.970 . S
O1557 Li1497 1.956 . S
O1557 Li1499 1.961 . S
O1557 C1506 1.325 . S
O1558 Li1496 1.961 . S
O1558 Li1498 1.956 . S
O1558 Li1499 1.970 . S
O1558 C1528 1.325 . S
O1559 Li1497 1.961 . S
O1559 Li1498 1.970 . S
O1559 Li1499 1.956 . S
O1559 C1534 1.325 . S
H1560 C1502 0.929 . S
H1561 C1503 0.930 . S
H1562 C1504 0.930 . S
H1563 C1505 0.930 . S
H1564 C1507 0.930 . S
H1565 C1509 0.929 . S
H1566 C1510 0.930 . S
H1567 C1511 0.930 . S
H1568 C1514 0.930 . S
H1569 C1517 0.929 . S
H1570 C1522 0.929 . S
H1571 C1523 0.930 . S
H1572 C1530 0.929 . S
H1573 C1531 0.930 . S
H1574 C1532 0.930 . S
H1575 C1533 0.930 . S
H1576 C1535 0.929 . S
H1577 C1536 0.930 . S
H1578 C1537 0.930 1_455 S
H1579 C1538 0.930 . S
H1580 C1542 0.929 . S
H1581 C1544 0.930 . S
H1582 C1550 0.929 . S
H1583 C1551 0.930 . S
H1584 C1611 0.929 . S
N1585 C1610 1.433 . S
N1585 C1616 1.435 . S
N1585 C1622 1.423 . S
H1586 C1612 0.930 . S
H1587 C1615 0.931 . S
H1588 C1614 0.929 . S
H1589 C1617 0.930 . S
H1590 C1618 0.932 . S
H1591 C1621 0.929 . S
H1592 C1620 0.931 . S
H1593 C1623 0.929 . S
H1594 C1627 0.932 . S
H1595 C1624 0.931 . S
H1596 C1626 0.929 . S
H1597 C1629 0.929 . S
H1598 C1630 0.930 . S
H1599 C1632 0.929 . S
H1600 C1633 0.931 . S
H1601 C1635 0.930 . S
H1602 C1636 0.932 . S
H1603 C1638 0.931 . S
H1604 C1639 0.929 . S
H1605 C1641 0.929 . S
H1606 C1642 0.931 . S
H1607 C1644 0.929 . S
N1608 C1628 1.433 . S
N1608 C1634 1.435 . S
N1608 C1640 1.423 . S
H1609 C1645 0.932 . S
C1610 N1585 1.433 . S
C1610 C1611 1.363 . S
C1610 C1615 1.370 . S
C1611 H1584 0.929 . S
C1611 C1610 1.363 . S
C1611 C1612 1.385 . S
C1612 H1586 0.930 . S
C1612 C1611 1.385 . S
C1612 C1613 1.357 . S
C1613 C1612 1.357 . S
C1613 C1614 1.406 . S
C1614 H1588 0.929 . S
C1614 C1613 1.406 . S
C1614 C1615 1.391 . S
C1615 H1587 0.931 . S
C1615 C1610 1.370 . S
C1615 C1614 1.391 . S
C1616 N1585 1.435 . S
C1616 C1617 1.358 . S
C1616 C1621 1.371 . S
C1617 H1589 0.930 . S
C1617 C1616 1.358 . S
C1617 C1618 1.405 . S
C1618 H1590 0.932 . S
C1618 C1617 1.405 . S
C1618 C1619 1.383 . S
C1619 C1618 1.383 . S
C1619 C1620 1.393 . S
C1620 H1592 0.931 . S
C1620 C1619 1.393 . S
C1620 C1621 1.382 . S
C1621 H1591 0.929 . S
C1621 C1616 1.371 . S
C1621 C1620 1.382 . S
C1622 N1585 1.423 . S
C1622 C1623 1.362 . S
C1622 C1627 1.388 . S
C1623 H1593 0.929 . S
C1623 C1622 1.362 . S
C1623 C1624 1.376 . S
C1624 H1595 0.931 . S
C1624 C1623 1.376 . S
C1624 C1625 1.396 . S
C1625 C1624 1.396 . S
C1625 C1626 1.348 . S
C1625 C1643 1.472 . S
C1626 H1596 0.929 . S
C1626 C1625 1.348 . S
C1626 C1627 1.443 . S
C1627 H1594 0.932 . S
C1627 C1622 1.388 . S
C1627 C1626 1.443 . S
C1628 N1608 1.433 . S
C1628 C1629 1.363 . S
C1628 C1633 1.370 . S
C1629 H1597 0.929 . S
C1629 C1628 1.363 . S
C1629 C1630 1.385 . S
C1630 H1598 0.930 . S
C1630 C1629 1.385 . S
C1630 C1631 1.357 . S
C1631 C1630 1.357 . S
C1631 C1632 1.406 . S
C1632 H1599 0.929 . S
C1632 C1631 1.406 . S
C1632 C1633 1.391 . S
C1633 H1600 0.931 . S
C1633 C1628 1.370 . S
C1633 C1632 1.391 . S
C1634 N1608 1.435 . S
C1634 C1635 1.358 . S
C1634 C1639 1.371 . S
C1635 H1601 0.930 . S
C1635 C1634 1.358 . S
C1635 C1636 1.405 . S
C1636 H1602 0.932 . S
C1636 C1635 1.405 . S
C1636 C1637 1.383 . S
C1637 C1636 1.383 . S
C1637 C1638 1.393 . S
C1638 H1603 0.931 . S
C1638 C1637 1.393 . S
C1638 C1639 1.382 . S
C1639 H1604 0.929 . S
C1639 C1634 1.371 . S
C1639 C1638 1.382 . S
C1640 N1608 1.423 . S
C1640 C1641 1.362 . S
C1640 C1645 1.388 . S
C1641 H1605 0.929 . S
C1641 C1640 1.362 . S
C1641 C1642 1.376 . S
C1642 H1606 0.931 . S
C1642 C1641 1.376 . S
C1642 C1643 1.396 . S
C1643 C1625 1.472 . S
C1643 C1642 1.396 . S
C1643 C1644 1.348 . S
C1644 H1607 0.929 . S
C1644 C1643 1.348 . S
C1644 C1645 1.443 . S
C1645 H1609 0.932 . S
C1645 C1640 1.388 . S
C1645 C1644 1.443 . S
H1646 C1673 0.929 . S
N1647 C1672 1.433 . S
N1647 C1678 1.435 . S
N1647 C1684 1.423 . S
H1648 C1674 0.930 . S
H1649 C1677 0.931 . S
H1650 C1676 0.929 . S
H1651 C1679 0.930 . S
H1652 C1680 0.932 . S
H1653 C1683 0.929 . S
H1654 C1682 0.931 . S
H1655 C1685 0.929 . S
H1656 C1689 0.932 . S
H1657 C1686 0.931 . S
H1658 C1688 0.929 . S
H1659 C1691 0.929 . S
H1660 C1692 0.930 . S
H1661 C1694 0.929 . S
H1662 C1695 0.931 . S
H1663 C1697 0.930 . S
H1664 C1698 0.932 . S
H1665 C1700 0.931 . S
H1666 C1701 0.929 . S
H1667 C1703 0.929 . S
H1668 C1704 0.931 . S
H1669 C1706 0.929 . S
N1670 C1690 1.433 . S
N1670 C1696 1.435 . S
N1670 C1702 1.423 . S
H1671 C1707 0.932 . S
C1672 N1647 1.433 . S
C1672 C1673 1.363 . S
C1672 C1677 1.370 . S
C1673 H1646 0.929 . S
C1673 C1672 1.363 . S
C1673 C1674 1.385 . S
C1674 H1648 0.930 . S
C1674 C1673 1.385 . S
C1674 C1675 1.357 . S
C1675 C1674 1.357 . S
C1675 C1676 1.406 . S
C1676 H1650 0.929 . S
C1676 C1675 1.406 . S
C1676 C1677 1.391 . S
C1677 H1649 0.931 . S
C1677 C1672 1.370 . S
C1677 C1676 1.391 . S
C1678 N1647 1.435 . S
C1678 C1679 1.358 . S
C1678 C1683 1.371 . S
C1679 H1651 0.930 . S
C1679 C1678 1.358 . S
C1679 C1680 1.405 . S
C1680 H1652 0.932 . S
C1680 C1679 1.405 . S
C1680 C1681 1.383 . S
C1681 C1680 1.383 . S
C1681 C1682 1.393 . S
C1682 H1654 0.931 . S
C1682 C1681 1.393 . S
C1682 C1683 1.382 . S
C1683 H1653 0.929 . S
C1683 C1678 1.371 . S
C1683 C1682 1.382 . S
C1684 N1647 1.423 . S
C1684 C1685 1.362 . S
C1684 C1689 1.388 . S
C1685 H1655 0.929 . S
C1685 C1684 1.362 . S
C1685 C1686 1.376 . S
C1686 H1657 0.931 . S
C1686 C1685 1.376 . S
C1686 C1687 1.396 . S
C1687 C1686 1.396 . S
C1687 C1688 1.348 . S
C1687 C1705 1.472 . S
C1688 H1658 0.929 . S
C1688 C1687 1.348 . S
C1688 C1689 1.443 . S
C1689 H1656 0.932 . S
C1689 C1684 1.388 . S
C1689 C1688 1.443 . S
C1690 N1670 1.433 . S
C1690 C1691 1.363 . S
C1690 C1695 1.370 . S
C1691 H1659 0.929 . S
C1691 C1690 1.363 . S
C1691 C1692 1.385 . S
C1692 H1660 0.930 . S
C1692 C1691 1.385 . S
C1692 C1693 1.357 . S
C1693 C1692 1.357 . S
C1693 C1694 1.406 . S
C1694 H1661 0.929 . S
C1694 C1693 1.406 . S
C1694 C1695 1.391 . S
C1695 H1662 0.931 . S
C1695 C1690 1.370 . S
C1695 C1694 1.391 . S
C1696 N1670 1.435 . S
C1696 C1697 1.358 . S
C1696 C1701 1.371 . S
C1697 H1663 0.930 . S
C1697 C1696 1.358 . S
C1697 C1698 1.405 . S
C1698 H1664 0.932 . S
C1698 C1697 1.405 . S
C1698 C1699 1.383 . S
C1699 C1698 1.383 . S
C1699 C1700 1.393 . S
C1700 H1665 0.931 . S
C1700 C1699 1.393 . S
C1700 C1701 1.382 . S
C1701 H1666 0.929 . S
C1701 C1696 1.371 . S
C1701 C1700 1.382 . S
C1702 N1670 1.423 . S
C1702 C1703 1.362 . S
C1702 C1707 1.388 . S
C1703 H1667 0.929 . S
C1703 C1702 1.362 . S
C1703 C1704 1.376 . S
C1704 H1668 0.931 . S
C1704 C1703 1.376 . S
C1704 C1705 1.396 . S
C1705 C1687 1.472 . S
C1705 C1704 1.396 . S
C1705 C1706 1.348 . S
C1706 H1669 0.929 . S
C1706 C1705 1.348 . S
C1706 C1707 1.443 . S
C1707 H1671 0.932 . S
C1707 C1702 1.388 . S
C1707 C1706 1.443 . S
H1708 C1735 0.929 . S
N1709 C1734 1.433 . S
N1709 C1740 1.435 . S
N1709 C1746 1.423 . S
H1710 C1736 0.930 . S
H1711 C1739 0.931 . S
H1712 C1738 0.929 . S
H1713 C1741 0.930 . S
H1714 C1742 0.932 . S
H1715 C1745 0.929 . S
H1716 C1744 0.931 . S
H1717 C1747 0.929 . S
H1718 C1751 0.932 . S
H1719 C1748 0.931 . S
H1720 C1750 0.929 . S
H1721 C1753 0.929 . S
H1722 C1754 0.930 . S
H1723 C1756 0.929 . S
H1724 C1757 0.931 . S
H1725 C1759 0.930 . S
H1726 C1760 0.932 . S
H1727 C1762 0.931 . S
H1728 C1763 0.929 . S
H1729 C1765 0.929 . S
H1730 C1766 0.931 . S
H1731 C1768 0.929 . S
N1732 C1752 1.433 . S
N1732 C1758 1.435 . S
N1732 C1764 1.423 . S
H1733 C1769 0.932 . S
C1734 N1709 1.433 . S
C1734 C1735 1.363 . S
C1734 C1739 1.370 . S
C1735 H1708 0.929 . S
C1735 C1734 1.363 . S
C1735 C1736 1.385 . S
C1736 H1710 0.930 . S
C1736 C1735 1.385 . S
C1736 C1737 1.357 . S
C1737 C1736 1.357 . S
C1737 C1738 1.406 . S
C1738 H1712 0.929 . S
C1738 C1737 1.406 . S
C1738 C1739 1.391 . S
C1739 H1711 0.931 . S
C1739 C1734 1.370 . S
C1739 C1738 1.391 . S
C1740 N1709 1.435 . S
C1740 C1741 1.358 . S
C1740 C1745 1.371 . S
C1741 H1713 0.930 . S
C1741 C1740 1.358 . S
C1741 C1742 1.405 . S
C1742 H1714 0.932 . S
C1742 C1741 1.405 . S
C1742 C1743 1.383 . S
C1743 C1742 1.383 . S
C1743 C1744 1.393 . S
C1744 H1716 0.931 . S
C1744 C1743 1.393 . S
C1744 C1745 1.382 . S
C1745 H1715 0.929 . S
C1745 C1740 1.371 . S
C1745 C1744 1.382 . S
C1746 N1709 1.423 . S
C1746 C1747 1.362 . S
C1746 C1751 1.388 . S
C1747 H1717 0.929 . S
C1747 C1746 1.362 . S
C1747 C1748 1.376 . S
C1748 H1719 0.931 . S
C1748 C1747 1.376 . S
C1748 C1749 1.396 . S
C1749 C1748 1.396 . S
C1749 C1750 1.348 . S
C1749 C1767 1.472 . S
C1750 H1720 0.929 . S
C1750 C1749 1.348 . S
C1750 C1751 1.443 . S
C1751 H1718 0.932 . S
C1751 C1746 1.388 . S
C1751 C1750 1.443 . S
C1752 N1732 1.433 . S
C1752 C1753 1.363 . S
C1752 C1757 1.370 . S
C1753 H1721 0.929 . S
C1753 C1752 1.363 . S
C1753 C1754 1.385 . S
C1754 H1722 0.930 . S
C1754 C1753 1.385 . S
C1754 C1755 1.357 . S
C1755 C1754 1.357 . S
C1755 C1756 1.406 . S
C1756 H1723 0.929 . S
C1756 C1755 1.406 . S
C1756 C1757 1.391 . S
C1757 H1724 0.931 . S
C1757 C1752 1.370 . S
C1757 C1756 1.391 . S
C1758 N1732 1.435 . S
C1758 C1759 1.358 . S
C1758 C1763 1.371 . S
C1759 H1725 0.930 . S
C1759 C1758 1.358 . S
C1759 C1760 1.405 . S
C1760 H1726 0.932 . S
C1760 C1759 1.405 . S
C1760 C1761 1.383 . S
C1761 C1760 1.383 . S
C1761 C1762 1.393 . S
C1762 H1727 0.931 . S
C1762 C1761 1.393 . S
C1762 C1763 1.382 . S
C1763 H1728 0.929 . S
C1763 C1758 1.371 . S
C1763 C1762 1.382 . S
C1764 N1732 1.423 . S
C1764 C1765 1.362 . S
C1764 C1769 1.388 . S
C1765 H1729 0.929 . S
C1765 C1764 1.362 . S
C1765 C1766 1.376 . S
C1766 H1730 0.931 . S
C1766 C1765 1.376 . S
C1766 C1767 1.396 . S
C1767 C1749 1.472 . S
C1767 C1766 1.396 . S
C1767 C1768 1.348 . S
C1768 H1731 0.929 . S
C1768 C1767 1.348 . S
C1768 C1769 1.443 . S
C1769 H1733 0.932 . S
C1769 C1764 1.388 . S
C1769 C1768 1.443 . S
H1770 C1797 0.929 . S
N1771 C1796 1.433 . S
N1771 C1802 1.435 . S
N1771 C1808 1.423 . S
H1772 C1798 0.930 . S
H1773 C1801 0.931 . S
H1774 C1800 0.929 . S
H1775 C1803 0.930 . S
H1776 C1804 0.932 . S
H1777 C1807 0.929 . S
H1778 C1806 0.931 . S
H1779 C1809 0.929 . S
H1780 C1813 0.932 . S
H1781 C1810 0.931 . S
H1782 C1812 0.929 . S
H1783 C1815 0.929 . S
H1784 C1816 0.930 . S
H1785 C1818 0.929 . S
H1786 C1819 0.931 . S
H1787 C1821 0.930 . S
H1788 C1822 0.932 . S
H1789 C1824 0.931 . S
H1790 C1825 0.929 . S
H1791 C1827 0.929 . S
H1792 C1828 0.931 . S
H1793 C1830 0.929 . S
N1794 C1814 1.433 . S
N1794 C1820 1.435 . S
N1794 C1826 1.423 . S
H1795 C1831 0.932 . S
C1796 N1771 1.433 . S
C1796 C1797 1.363 . S
C1796 C1801 1.370 . S
C1797 H1770 0.929 . S
C1797 C1796 1.363 . S
C1797 C1798 1.385 . S
C1798 H1772 0.930 . S
C1798 C1797 1.385 . S
C1798 C1799 1.357 . S
C1799 C1798 1.357 . S
C1799 C1800 1.406 . S
C1800 H1774 0.929 . S
C1800 C1799 1.406 . S
C1800 C1801 1.391 . S
C1801 H1773 0.931 . S
C1801 C1796 1.370 . S
C1801 C1800 1.391 . S
C1802 N1771 1.435 . S
C1802 C1803 1.358 . S
C1802 C1807 1.371 . S
C1803 H1775 0.930 . S
C1803 C1802 1.358 . S
C1803 C1804 1.405 . S
C1804 H1776 0.932 . S
C1804 C1803 1.405 . S
C1804 C1805 1.383 . S
C1805 C1804 1.383 . S
C1805 C1806 1.393 . S
C1806 H1778 0.931 . S
C1806 C1805 1.393 . S
C1806 C1807 1.382 . S
C1807 H1777 0.929 . S
C1807 C1802 1.371 . S
C1807 C1806 1.382 . S
C1808 N1771 1.423 . S
C1808 C1809 1.362 . S
C1808 C1813 1.388 . S
C1809 H1779 0.929 . S
C1809 C1808 1.362 . S
C1809 C1810 1.376 . S
C1810 H1781 0.931 . S
C1810 C1809 1.376 . S
C1810 C1811 1.396 . S
C1811 C1810 1.396 . S
C1811 C1812 1.348 . S
C1811 C1829 1.472 . S
C1812 H1782 0.929 . S
C1812 C1811 1.348 . S
C1812 C1813 1.443 . S
C1813 H1780 0.932 . S
C1813 C1808 1.388 . S
C1813 C1812 1.443 . S
C1814 N1794 1.433 . S
C1814 C1815 1.363 . S
C1814 C1819 1.370 . S
C1815 H1783 0.929 . S
C1815 C1814 1.363 . S
C1815 C1816 1.385 . S
C1816 H1784 0.930 . S
C1816 C1815 1.385 . S
C1816 C1817 1.357 . S
C1817 C1816 1.357 . S
C1817 C1818 1.406 . S
C1818 H1785 0.929 . S
C1818 C1817 1.406 . S
C1818 C1819 1.391 . S
C1819 H1786 0.931 . S
C1819 C1814 1.370 . S
C1819 C1818 1.391 . S
C1820 N1794 1.435 . S
C1820 C1821 1.358 . S
C1820 C1825 1.371 . S
C1821 H1787 0.930 . S
C1821 C1820 1.358 . S
C1821 C1822 1.405 . S
C1822 H1788 0.932 . S
C1822 C1821 1.405 . S
C1822 C1823 1.383 . S
C1823 C1822 1.383 . S
C1823 C1824 1.393 . S
C1824 H1789 0.931 . S
C1824 C1823 1.393 . S
C1824 C1825 1.382 . S
C1825 H1790 0.929 . S
C1825 C1820 1.371 . S
C1825 C1824 1.382 . S
C1826 N1794 1.423 . S
C1826 C1827 1.362 . S
C1826 C1831 1.388 . S
C1827 H1791 0.929 . S
C1827 C1826 1.362 . S
C1827 C1828 1.376 . S
C1828 H1792 0.931 . S
C1828 C1827 1.376 . S
C1828 C1829 1.396 . S
C1829 C1811 1.472 . S
C1829 C1828 1.396 . S
C1829 C1830 1.348 . S
C1830 H1793 0.929 . S
C1830 C1829 1.348 . S
C1830 C1831 1.443 . S
C1831 H1795 0.932 . S
C1831 C1826 1.388 . S
C1831 C1830 1.443 . S
H1832 C1859 0.929 . S
N1833 C1858 1.433 . S
N1833 C1864 1.435 . S
N1833 C1870 1.423 . S
H1834 C1860 0.930 . S
H1835 C1863 0.931 . S
H1836 C1862 0.929 . S
H1837 C1865 0.930 . S
H1838 C1866 0.932 . S
H1839 C1869 0.929 . S
H1840 C1868 0.931 . S
H1841 C1871 0.929 . S
H1842 C1875 0.932 . S
H1843 C1872 0.931 . S
H1844 C1874 0.929 . S
H1845 C1877 0.929 . S
H1846 C1878 0.930 . S
H1847 C1880 0.929 . S
H1848 C1881 0.931 . S
H1849 C1883 0.930 . S
H1850 C1884 0.932 . S
H1851 C1886 0.931 . S
H1852 C1887 0.929 . S
H1853 C1889 0.929 . S
H1854 C1890 0.931 . S
H1855 C1892 0.929 . S
N1856 C1876 1.433 . S
N1856 C1882 1.435 . S
N1856 C1888 1.423 . S
H1857 C1893 0.932 . S
C1858 N1833 1.433 . S
C1858 C1859 1.363 . S
C1858 C1863 1.370 . S
C1859 H1832 0.929 . S
C1859 C1858 1.363 . S
C1859 C1860 1.385 . S
C1860 H1834 0.930 . S
C1860 C1859 1.385 . S
C1860 C1861 1.357 . S
C1861 C1860 1.357 . S
C1861 C1862 1.406 . S
C1862 H1836 0.929 . S
C1862 C1861 1.406 . S
C1862 C1863 1.391 . S
C1863 H1835 0.931 . S
C1863 C1858 1.370 . S
C1863 C1862 1.391 . S
C1864 N1833 1.435 . S
C1864 C1865 1.358 . S
C1864 C1869 1.371 . S
C1865 H1837 0.930 . S
C1865 C1864 1.358 . S
C1865 C1866 1.405 . S
C1866 H1838 0.932 . S
C1866 C1865 1.405 . S
C1866 C1867 1.383 . S
C1867 C1866 1.383 . S
C1867 C1868 1.393 . S
C1868 H1840 0.931 . S
C1868 C1867 1.393 . S
C1868 C1869 1.382 . S
C1869 H1839 0.929 . S
C1869 C1864 1.371 . S
C1869 C1868 1.382 . S
C1870 N1833 1.423 . S
C1870 C1871 1.362 . S
C1870 C1875 1.388 . S
C1871 H1841 0.929 . S
C1871 C1870 1.362 . S
C1871 C1872 1.376 . S
C1872 H1843 0.931 . S
C1872 C1871 1.376 . S
C1872 C1873 1.396 . S
C1873 C1872 1.396 . S
C1873 C1874 1.348 . S
C1873 C1891 1.472 . S
C1874 H1844 0.929 . S
C1874 C1873 1.348 . S
C1874 C1875 1.443 . S
C1875 H1842 0.932 . S
C1875 C1870 1.388 . S
C1875 C1874 1.443 . S
C1876 N1856 1.433 . S
C1876 C1877 1.363 . S
C1876 C1881 1.370 . S
C1877 H1845 0.929 . S
C1877 C1876 1.363 . S
C1877 C1878 1.385 . S
C1878 H1846 0.930 . S
C1878 C1877 1.385 . S
C1878 C1879 1.357 . S
C1879 C1878 1.357 . S
C1879 C1880 1.406 . S
C1880 H1847 0.929 . S
C1880 C1879 1.406 . S
C1880 C1881 1.391 . S
C1881 H1848 0.931 . S
C1881 C1876 1.370 . S
C1881 C1880 1.391 . S
C1882 N1856 1.435 . S
C1882 C1883 1.358 . S
C1882 C1887 1.371 . S
C1883 H1849 0.930 . S
C1883 C1882 1.358 . S
C1883 C1884 1.405 . S
C1884 H1850 0.932 . S
C1884 C1883 1.405 . S
C1884 C1885 1.383 . S
C1885 C1884 1.383 . S
C1885 C1886 1.393 . S
C1886 H1851 0.931 . S
C1886 C1885 1.393 . S
C1886 C1887 1.382 . S
C1887 H1852 0.929 . S
C1887 C1882 1.371 . S
C1887 C1886 1.382 . S
C1888 N1856 1.423 . S
C1888 C1889 1.362 . S
C1888 C1893 1.388 . S
C1889 H1853 0.929 . S
C1889 C1888 1.362 . S
C1889 C1890 1.376 . S
C1890 H1854 0.931 . S
C1890 C1889 1.376 . S
C1890 C1891 1.396 . S
C1891 C1873 1.472 . S
C1891 C1890 1.396 . S
C1891 C1892 1.348 . S
C1892 H1855 0.929 . S
C1892 C1891 1.348 . S
C1892 C1893 1.443 . S
C1893 H1857 0.932 . S
C1893 C1888 1.388 . S
C1893 C1892 1.443 . S
H1894 C1921 0.929 . S
N1895 C1920 1.433 . S
N1895 C1926 1.435 . S
N1895 C1932 1.423 . S
H1896 C1922 0.930 . S
H1897 C1925 0.931 . S
H1898 C1924 0.929 . S
H1899 C1927 0.930 . S
H1900 C1928 0.932 . S
H1901 C1931 0.929 . S
H1902 C1930 0.931 . S
H1903 C1933 0.929 . S
H1904 C1937 0.932 . S
H1905 C1934 0.931 . S
H1906 C1936 0.929 . S
H1907 C1939 0.929 . S
H1908 C1940 0.930 . S
H1909 C1942 0.929 . S
H1910 C1943 0.931 . S
H1911 C1945 0.930 . S
H1912 C1946 0.932 . S
H1913 C1948 0.931 . S
H1914 C1949 0.929 . S
H1915 C1951 0.929 . S
H1916 C1952 0.931 . S
H1917 C1954 0.929 . S
N1918 C1938 1.433 . S
N1918 C1944 1.435 . S
N1918 C1950 1.423 . S
H1919 C1955 0.932 . S
C1920 N1895 1.433 . S
C1920 C1921 1.363 . S
C1920 C1925 1.370 . S
C1921 H1894 0.929 . S
C1921 C1920 1.363 . S
C1921 C1922 1.385 . S
C1922 H1896 0.930 . S
C1922 C1921 1.385 . S
C1922 C1923 1.357 . S
C1923 C1922 1.357 . S
C1923 C1924 1.406 . S
C1924 H1898 0.929 . S
C1924 C1923 1.406 . S
C1924 C1925 1.391 . S
C1925 H1897 0.931 . S
C1925 C1920 1.370 . S
C1925 C1924 1.391 . S
C1926 N1895 1.435 . S
C1926 C1927 1.358 . S
C1926 C1931 1.371 . S
C1927 H1899 0.930 . S
C1927 C1926 1.358 . S
C1927 C1928 1.405 . S
C1928 H1900 0.932 . S
C1928 C1927 1.405 . S
C1928 C1929 1.383 . S
C1929 C1928 1.383 . S
C1929 C1930 1.393 . S
C1930 H1902 0.931 . S
C1930 C1929 1.393 . S
C1930 C1931 1.382 . S
C1931 H1901 0.929 . S
C1931 C1926 1.371 . S
C1931 C1930 1.382 . S
C1932 N1895 1.423 . S
C1932 C1933 1.362 . S
C1932 C1937 1.388 . S
C1933 H1903 0.929 . S
C1933 C1932 1.362 . S
C1933 C1934 1.376 . S
C1934 H1905 0.931 . S
C1934 C1933 1.376 . S
C1934 C1935 1.396 . S
C1935 C1934 1.396 . S
C1935 C1936 1.348 . S
C1935 C1953 1.472 . S
C1936 H1906 0.929 . S
C1936 C1935 1.348 . S
C1936 C1937 1.443 . S
C1937 H1904 0.932 . S
C1937 C1932 1.388 . S
C1937 C1936 1.443 . S
C1938 N1918 1.433 . S
C1938 C1939 1.363 . S
C1938 C1943 1.370 . S
C1939 H1907 0.929 . S
C1939 C1938 1.363 . S
C1939 C1940 1.385 . S
C1940 H1908 0.930 . S
C1940 C1939 1.385 . S
C1940 C1941 1.357 . S
C1941 C1940 1.357 . S
C1941 C1942 1.406 . S
C1942 H1909 0.929 . S
C1942 C1941 1.406 . S
C1942 C1943 1.391 . S
C1943 H1910 0.931 . S
C1943 C1938 1.370 . S
C1943 C1942 1.391 . S
C1944 N1918 1.435 . S
C1944 C1945 1.358 . S
C1944 C1949 1.371 . S
C1945 H1911 0.930 . S
C1945 C1944 1.358 . S
C1945 C1946 1.405 . S
C1946 H1912 0.932 . S
C1946 C1945 1.405 . S
C1946 C1947 1.383 . S
C1947 C1946 1.383 . S
C1947 C1948 1.393 . S
C1948 H1913 0.931 . S
C1948 C1947 1.393 . S
C1948 C1949 1.382 . S
C1949 H1914 0.929 . S
C1949 C1944 1.371 . S
C1949 C1948 1.382 . S
C1950 N1918 1.423 . S
C1950 C1951 1.362 . S
C1950 C1955 1.388 . S
C1951 H1915 0.929 . S
C1951 C1950 1.362 . S
C1951 C1952 1.376 . S
C1952 H1916 0.931 . S
C1952 C1951 1.376 . S
C1952 C1953 1.396 . S
C1953 C1935 1.472 . S
C1953 C1952 1.396 . S
C1953 C1954 1.348 . S
C1954 H1917 0.929 . S
C1954 C1953 1.348 . S
C1954 C1955 1.443 . S
C1955 H1919 0.932 . S
C1955 C1950 1.388 . S
C1955 C1954 1.443 . S
H1956 C1983 0.929 . S
N1957 C1982 1.433 . S
N1957 C1988 1.435 . S
N1957 C1994 1.423 . S
H1958 C1984 0.930 . S
H1959 C1987 0.931 . S
H1960 C1986 0.929 . S
H1961 C1989 0.930 . S
H1962 C1990 0.932 . S
H1963 C1993 0.929 . S
H1964 C1992 0.931 . S
H1965 C1995 0.929 . S
H1966 C1999 0.932 . S
H1967 C1996 0.931 . S
H1968 C1998 0.929 . S
H1969 C2001 0.929 . S
H1970 C2002 0.930 . S
H1971 C2004 0.929 . S
H1972 C2005 0.931 . S
H1973 C2007 0.930 . S
H1974 C2008 0.932 . S
H1975 C2010 0.931 . S
H1976 C2011 0.929 . S
H1977 C2013 0.929 . S
H1978 C2014 0.931 . S
H1979 C2016 0.929 . S
N1980 C2000 1.433 . S
N1980 C2006 1.435 . S
N1980 C2012 1.423 . S
H1981 C2017 0.932 . S
C1982 N1957 1.433 . S
C1982 C1983 1.363 . S
C1982 C1987 1.370 . S
C1983 H1956 0.929 . S
C1983 C1982 1.363 . S
C1983 C1984 1.385 . S
C1984 H1958 0.930 . S
C1984 C1983 1.385 . S
C1984 C1985 1.357 . S
C1985 C1984 1.357 . S
C1985 C1986 1.406 . S
C1986 H1960 0.929 . S
C1986 C1985 1.406 . S
C1986 C1987 1.391 . S
C1987 H1959 0.931 . S
C1987 C1982 1.370 . S
C1987 C1986 1.391 . S
C1988 N1957 1.435 . S
C1988 C1989 1.358 . S
C1988 C1993 1.371 . S
C1989 H1961 0.930 . S
C1989 C1988 1.358 . S
C1989 C1990 1.405 . S
C1990 H1962 0.932 . S
C1990 C1989 1.405 . S
C1990 C1991 1.383 . S
C1991 C1990 1.383 . S
C1991 C1992 1.393 . S
C1992 H1964 0.931 . S
C1992 C1991 1.393 . S
C1992 C1993 1.382 . S
C1993 H1963 0.929 . S
C1993 C1988 1.371 . S
C1993 C1992 1.382 . S
C1994 N1957 1.423 . S
C1994 C1995 1.362 . S
C1994 C1999 1.388 . S
C1995 H1965 0.929 . S
C1995 C1994 1.362 . S
C1995 C1996 1.376 . S
C1996 H1967 0.931 . S
C1996 C1995 1.376 . S
C1996 C1997 1.396 . S
C1997 C1996 1.396 . S
C1997 C1998 1.348 . S
C1997 C2015 1.472 . S
C1998 H1968 0.929 . S
C1998 C1997 1.348 . S
C1998 C1999 1.443 . S
C1999 H1966 0.932 . S
C1999 C1994 1.388 . S
C1999 C1998 1.443 . S
C2000 N1980 1.433 . S
C2000 C2001 1.363 . S
C2000 C2005 1.370 . S
C2001 H1969 0.929 . S
C2001 C2000 1.363 . S
C2001 C2002 1.385 . S
C2002 H1970 0.930 . S
C2002 C2001 1.385 . S
C2002 C2003 1.357 . S
C2003 C2002 1.357 . S
C2003 C2004 1.406 . S
C2004 H1971 0.929 . S
C2004 C2003 1.406 . S
C2004 C2005 1.391 . S
C2005 H1972 0.931 . S
C2005 C2000 1.370 . S
C2005 C2004 1.391 . S
C2006 N1980 1.435 . S
C2006 C2007 1.358 . S
C2006 C2011 1.371 . S
C2007 H1973 0.930 . S
C2007 C2006 1.358 . S
C2007 C2008 1.405 . S
C2008 H1974 0.932 . S
C2008 C2007 1.405 . S
C2008 C2009 1.383 . S
C2009 C2008 1.383 . S
C2009 C2010 1.393 . S
C2010 H1975 0.931 . S
C2010 C2009 1.393 . S
C2010 C2011 1.382 . S
C2011 H1976 0.929 . S
C2011 C2006 1.371 . S
C2011 C2010 1.382 . S
C2012 N1980 1.423 . S
C2012 C2013 1.362 . S
C2012 C2017 1.388 . S
C2013 H1977 0.929 . S
C2013 C2012 1.362 . S
C2013 C2014 1.376 . S
C2014 H1978 0.931 . S
C2014 C2013 1.376 . S
C2014 C2015 1.396 . S
C2015 C1997 1.472 . S
C2015 C2014 1.396 . S
C2015 C2016 1.348 . S
C2016 H1979 0.929 . S
C2016 C2015 1.348 . S
C2016 C2017 1.443 . S
C2017 H1981 0.932 . S
C2017 C2012 1.388 . S
C2017 C2016 1.443 . S
H2018 C2045 0.929 . S
N2019 C2044 1.433 . S
N2019 C2050 1.435 . S
N2019 C2056 1.423 . S
H2020 C2046 0.930 . S
H2021 C2049 0.931 . S
H2022 C2048 0.929 . S
H2023 C2051 0.930 . S
H2024 C2052 0.932 . S
H2025 C2055 0.929 . S
H2026 C2054 0.931 . S
H2027 C2057 0.929 . S
H2028 C2061 0.932 . S
H2029 C2058 0.931 . S
H2030 C2060 0.929 . S
H2031 C2063 0.929 . S
H2032 C2064 0.930 . S
H2033 C2066 0.929 . S
H2034 C2067 0.931 . S
H2035 C2069 0.930 . S
H2036 C2070 0.932 . S
H2037 C2072 0.931 . S
H2038 C2073 0.929 . S
H2039 C2075 0.929 . S
H2040 C2076 0.931 . S
H2041 C2078 0.929 . S
N2042 C2062 1.433 . S
N2042 C2068 1.435 . S
N2042 C2074 1.423 . S
H2043 C2079 0.932 . S
C2044 N2019 1.433 . S
C2044 C2045 1.363 . S
C2044 C2049 1.370 . S
C2045 H2018 0.929 . S
C2045 C2044 1.363 . S
C2045 C2046 1.385 . S
C2046 H2020 0.930 . S
C2046 C2045 1.385 . S
C2046 C2047 1.357 . S
C2047 C2046 1.357 . S
C2047 C2048 1.406 . S
C2048 H2022 0.929 . S
C2048 C2047 1.406 . S
C2048 C2049 1.391 . S
C2049 H2021 0.931 . S
C2049 C2044 1.370 . S
C2049 C2048 1.391 . S
C2050 N2019 1.435 . S
C2050 C2051 1.358 . S
C2050 C2055 1.371 . S
C2051 H2023 0.930 . S
C2051 C2050 1.358 . S
C2051 C2052 1.405 . S
C2052 H2024 0.932 . S
C2052 C2051 1.405 . S
C2052 C2053 1.383 . S
C2053 C2052 1.383 . S
C2053 C2054 1.393 . S
C2054 H2026 0.931 . S
C2054 C2053 1.393 . S
C2054 C2055 1.382 . S
C2055 H2025 0.929 . S
C2055 C2050 1.371 . S
C2055 C2054 1.382 . S
C2056 N2019 1.423 . S
C2056 C2057 1.362 . S
C2056 C2061 1.388 . S
C2057 H2027 0.929 . S
C2057 C2056 1.362 . S
C2057 C2058 1.376 . S
C2058 H2029 0.931 . S
C2058 C2057 1.376 . S
C2058 C2059 1.396 . S
C2059 C2058 1.396 . S
C2059 C2060 1.348 . S
C2059 C2077 1.472 . S
C2060 H2030 0.929 . S
C2060 C2059 1.348 . S
C2060 C2061 1.443 . S
C2061 H2028 0.932 . S
C2061 C2056 1.388 . S
C2061 C2060 1.443 . S
C2062 N2042 1.433 . S
C2062 C2063 1.363 . S
C2062 C2067 1.370 . S
C2063 H2031 0.929 . S
C2063 C2062 1.363 . S
C2063 C2064 1.385 . S
C2064 H2032 0.930 . S
C2064 C2063 1.385 . S
C2064 C2065 1.357 . S
C2065 C2064 1.357 . S
C2065 C2066 1.406 . S
C2066 H2033 0.929 . S
C2066 C2065 1.406 . S
C2066 C2067 1.391 . S
C2067 H2034 0.931 . S
C2067 C2062 1.370 . S
C2067 C2066 1.391 . S
C2068 N2042 1.435 . S
C2068 C2069 1.358 . S
C2068 C2073 1.371 . S
C2069 H2035 0.930 . S
C2069 C2068 1.358 . S
C2069 C2070 1.405 . S
C2070 H2036 0.932 . S
C2070 C2069 1.405 . S
C2070 C2071 1.383 . S
C2071 C2070 1.383 . S
C2071 C2072 1.393 . S
C2072 H2037 0.931 . S
C2072 C2071 1.393 . S
C2072 C2073 1.382 . S
C2073 H2038 0.929 . S
C2073 C2068 1.371 . S
C2073 C2072 1.382 . S
C2074 N2042 1.423 . S
C2074 C2075 1.362 . S
C2074 C2079 1.388 . S
C2075 H2039 0.929 . S
C2075 C2074 1.362 . S
C2075 C2076 1.376 . S
C2076 H2040 0.931 . S
C2076 C2075 1.376 . S
C2076 C2077 1.396 . S
C2077 C2059 1.472 . S
C2077 C2076 1.396 . S
C2077 C2078 1.348 . S
C2078 H2041 0.929 . S
C2078 C2077 1.348 . S
C2078 C2079 1.443 . S
C2079 H2043 0.932 . S
C2079 C2074 1.388 . S
C2079 C2078 1.443 . S
H2080 C2107 0.929 . S
N2081 C2106 1.433 . S
N2081 C2112 1.435 . S
N2081 C2118 1.423 . S
H2082 C2108 0.930 . S
H2083 C2111 0.931 . S
H2084 C2110 0.929 . S
H2085 C2113 0.930 . S
H2086 C2114 0.932 . S
H2087 C2117 0.929 . S
H2088 C2116 0.931 . S
H2089 C2119 0.929 . S
H2090 C2123 0.932 . S
H2091 C2120 0.931 . S
H2092 C2122 0.929 . S
H2093 C2125 0.929 . S
H2094 C2126 0.930 . S
H2095 C2128 0.929 . S
H2096 C2129 0.931 . S
H2097 C2131 0.930 . S
H2098 C2132 0.932 . S
H2099 C2134 0.931 . S
H2100 C2135 0.929 . S
H2101 C2137 0.929 . S
H2102 C2138 0.931 . S
H2103 C2140 0.929 . S
N2104 C2124 1.433 . S
N2104 C2130 1.435 . S
N2104 C2136 1.423 . S
H2105 C2141 0.932 . S
C2106 N2081 1.433 . S
C2106 C2107 1.363 . S
C2106 C2111 1.370 . S
C2107 H2080 0.929 . S
C2107 C2106 1.363 . S
C2107 C2108 1.385 . S
C2108 H2082 0.930 . S
C2108 C2107 1.385 . S
C2108 C2109 1.357 . S
C2109 C2108 1.357 . S
C2109 C2110 1.406 . S
C2110 H2084 0.929 . S
C2110 C2109 1.406 . S
C2110 C2111 1.391 . S
C2111 H2083 0.931 . S
C2111 C2106 1.370 . S
C2111 C2110 1.391 . S
C2112 N2081 1.435 . S
C2112 C2113 1.358 . S
C2112 C2117 1.371 . S
C2113 H2085 0.930 . S
C2113 C2112 1.358 . S
C2113 C2114 1.405 . S
C2114 H2086 0.932 . S
C2114 C2113 1.405 . S
C2114 C2115 1.383 . S
C2115 C2114 1.383 . S
C2115 C2116 1.393 . S
C2116 H2088 0.931 . S
C2116 C2115 1.393 . S
C2116 C2117 1.382 . S
C2117 H2087 0.929 . S
C2117 C2112 1.371 . S
C2117 C2116 1.382 . S
C2118 N2081 1.423 . S
C2118 C2119 1.362 . S
C2118 C2123 1.388 . S
C2119 H2089 0.929 . S
C2119 C2118 1.362 . S
C2119 C2120 1.376 . S
C2120 H2091 0.931 . S
C2120 C2119 1.376 . S
C2120 C2121 1.396 . S
C2121 C2120 1.396 . S
C2121 C2122 1.348 . S
C2121 C2139 1.472 . S
C2122 H2092 0.929 . S
C2122 C2121 1.348 . S
C2122 C2123 1.443 . S
C2123 H2090 0.932 . S
C2123 C2118 1.388 . S
C2123 C2122 1.443 . S
C2124 N2104 1.433 . S
C2124 C2125 1.363 . S
C2124 C2129 1.370 . S
C2125 H2093 0.929 . S
C2125 C2124 1.363 . S
C2125 C2126 1.385 . S
C2126 H2094 0.930 . S
C2126 C2125 1.385 . S
C2126 C2127 1.357 . S
C2127 C2126 1.357 . S
C2127 C2128 1.406 . S
C2128 H2095 0.929 . S
C2128 C2127 1.406 . S
C2128 C2129 1.391 . S
C2129 H2096 0.931 . S
C2129 C2124 1.370 . S
C2129 C2128 1.391 . S
C2130 N2104 1.435 . S
C2130 C2131 1.358 . S
C2130 C2135 1.371 . S
C2131 H2097 0.930 . S
C2131 C2130 1.358 . S
C2131 C2132 1.405 . S
C2132 H2098 0.932 . S
C2132 C2131 1.405 . S
C2132 C2133 1.383 . S
C2133 C2132 1.383 . S
C2133 C2134 1.393 . S
C2134 H2099 0.931 . S
C2134 C2133 1.393 . S
C2134 C2135 1.382 . S
C2135 H2100 0.929 . S
C2135 C2130 1.371 . S
C2135 C2134 1.382 . S
C2136 N2104 1.423 . S
C2136 C2137 1.362 . S
C2136 C2141 1.388 . S
C2137 H2101 0.929 . S
C2137 C2136 1.362 . S
C2137 C2138 1.376 . S
C2138 H2102 0.931 . S
C2138 C2137 1.376 . S
C2138 C2139 1.396 . S
C2139 C2121 1.472 . S
C2139 C2138 1.396 . S
C2139 C2140 1.348 . S
C2140 H2103 0.929 . S
C2140 C2139 1.348 . S
C2140 C2141 1.443 . S
C2141 H2105 0.932 . S
C2141 C2136 1.388 . S
C2141 C2140 1.443 . S
H2142 C2169 0.929 . S
N2143 C2168 1.433 . S
N2143 C2174 1.435 . S
N2143 C2180 1.423 . S
H2144 C2170 0.930 . S
H2145 C2173 0.931 . S
H2146 C2172 0.929 . S
H2147 C2175 0.930 . S
H2148 C2176 0.932 . S
H2149 C2179 0.929 . S
H2150 C2178 0.931 . S
H2151 C2181 0.929 . S
H2152 C2185 0.932 1_655 S
H2153 C2182 0.931 . S
H2154 C2184 0.944 . S
H2155 C2187 0.929 . S
H2156 C2188 0.930 . S
H2157 C2190 0.929 . S
H2158 C2191 0.931 . S
H2159 C2193 0.930 . S
H2160 C2194 0.932 . S
H2161 C2196 0.931 . S
H2162 C2197 0.929 . S
H2163 C2199 0.929 . S
H2164 C2200 0.931 . S
H2165 C2202 0.929 . S
N2166 C2186 1.433 . S
N2166 C2192 1.435 . S
N2166 C2198 1.423 . S
H2167 C2203 0.932 1_655 S
C2168 N2143 1.433 . S
C2168 C2169 1.363 . S
C2168 C2173 1.370 1_455 S
C2169 H2142 0.929 . S
C2169 C2168 1.363 . S
C2169 C2170 1.385 . S
C2170 H2144 0.930 . S
C2170 C2169 1.385 . S
C2170 C2171 1.357 1_455 S
C2171 C2170 1.357 1_655 S
C2171 C2172 1.406 . S
C2172 H2146 0.929 . S
C2172 C2171 1.406 . S
C2172 C2173 1.391 . S
C2173 H2145 0.931 . S
C2173 C2168 1.370 1_655 S
C2173 C2172 1.391 . S
C2174 N2143 1.435 . S
C2174 C2175 1.358 1_455 S
C2174 C2179 1.371 . S
C2175 H2147 0.930 . S
C2175 C2174 1.358 1_655 S
C2175 C2176 1.405 . S
C2176 H2148 0.932 . S
C2176 C2175 1.405 . S
C2176 C2177 1.383 1_655 S
C2177 C2176 1.383 1_455 S
C2177 C2178 1.393 . S
C2178 H2150 0.931 . S
C2178 C2177 1.393 . S
C2178 C2179 1.382 . S
C2179 H2149 0.929 . S
C2179 C2174 1.371 . S
C2179 C2178 1.382 . S
C2180 N2143 1.423 . S
C2180 C2181 1.362 . S
C2180 C2185 1.388 . S
C2181 H2151 0.929 . S
C2181 C2180 1.362 . S
C2181 C2182 1.376 . S
C2182 H2153 0.931 . S
C2182 C2181 1.376 . S
C2182 C2183 1.396 . S
C2183 C2182 1.396 . S
C2183 C2184 1.348 . S
C2183 C2201 1.472 . S
C2184 H2154 0.944 . S
C2184 C2183 1.348 . S
C2184 C2185 1.443 . S
C2185 H2152 0.932 1_455 S
C2185 C2180 1.388 . S
C2185 C2184 1.443 . S
C2186 N2166 1.433 . S
C2186 C2187 1.363 . S
C2186 C2191 1.370 1_455 S
C2187 H2155 0.929 . S
C2187 C2186 1.363 . S
C2187 C2188 1.385 . S
C2188 H2156 0.930 . S
C2188 C2187 1.385 . S
C2188 C2189 1.357 1_455 S
C2189 C2188 1.357 1_655 S
C2189 C2190 1.406 . S
C2190 H2157 0.929 . S
C2190 C2189 1.406 . S
C2190 C2191 1.391 . S
C2191 H2158 0.931 . S
C2191 C2186 1.370 1_655 S
C2191 C2190 1.391 . S
C2192 N2166 1.435 . S
C2192 C2193 1.358 1_455 S
C2192 C2197 1.371 . S
C2193 H2159 0.930 . S
C2193 C2192 1.358 1_655 S
C2193 C2194 1.405 . S
C2194 H2160 0.932 . S
C2194 C2193 1.405 . S
C2194 C2195 1.383 1_655 S
C2195 C2194 1.383 1_455 S
C2195 C2196 1.393 . S
C2196 H2161 0.931 . S
C2196 C2195 1.393 . S
C2196 C2197 1.382 . S
C2197 H2162 0.929 . S
C2197 C2192 1.371 . S
C2197 C2196 1.382 . S
C2198 N2166 1.423 . S
C2198 C2199 1.362 . S
C2198 C2203 1.388 . S
C2199 H2163 0.929 . S
C2199 C2198 1.362 . S
C2199 C2200 1.376 . S
C2200 H2164 0.931 . S
C2200 C2199 1.376 . S
C2200 C2201 1.396 . S
C2201 C2183 1.472 . S
C2201 C2200 1.396 . S
C2201 C2202 1.348 . S
C2202 H2165 0.929 . S
C2202 C2201 1.348 . S
C2202 C2203 1.443 . S
C2203 H2167 0.932 1_455 S
C2203 C2198 1.388 . S
C2203 C2202 1.443 . S
H2204 C2231 0.929 . S
N2205 C2230 1.433 . S
N2205 C2236 1.435 . S
N2205 C2242 1.423 . S
H2206 C2232 0.930 . S
H2207 C2235 0.931 . S
H2208 C2234 0.929 . S
H2209 C2237 0.930 . S
H2210 C2238 0.932 . S
H2211 C2241 0.929 . S
H2212 C2240 0.931 . S
H2213 C2243 0.929 . S
H2214 C2247 0.932 . S
H2215 C2244 0.931 . S
H2216 C2246 0.929 . S
H2217 C2249 0.929 . S
H2218 C2250 0.930 . S
H2219 C2252 0.929 . S
H2220 C2253 0.931 . S
H2221 C2255 0.930 . S
H2222 C2256 0.932 . S
H2223 C2258 0.931 . S
H2224 C2259 0.929 . S
H2225 C2261 0.929 . S
H2226 C2262 0.931 . S
H2227 C2264 0.929 . S
N2228 C2248 1.433 . S
N2228 C2254 1.435 . S
N2228 C2260 1.423 . S
H2229 C2265 0.932 . S
C2230 N2205 1.433 . S
C2230 C2231 1.363 . S
C2230 C2235 1.370 . S
C2231 H2204 0.929 . S
C2231 C2230 1.363 . S
C2231 C2232 1.385 . S
C2232 H2206 0.930 . S
C2232 C2231 1.385 . S
C2232 C2233 1.357 . S
C2233 C2232 1.357 . S
C2233 C2234 1.406 . S
C2234 H2208 0.929 . S
C2234 C2233 1.406 . S
C2234 C2235 1.391 . S
C2235 H2207 0.931 . S
C2235 C2230 1.370 . S
C2235 C2234 1.391 . S
C2236 N2205 1.435 . S
C2236 C2237 1.358 . S
C2236 C2241 1.371 . S
C2237 H2209 0.930 . S
C2237 C2236 1.358 . S
C2237 C2238 1.405 . S
C2238 H2210 0.932 . S
C2238 C2237 1.405 . S
C2238 C2239 1.383 . S
C2239 C2238 1.383 . S
C2239 C2240 1.393 . S
C2240 H2212 0.931 . S
C2240 C2239 1.393 . S
C2240 C2241 1.382 . S
C2241 H2211 0.929 . S
C2241 C2236 1.371 . S
C2241 C2240 1.382 . S
C2242 N2205 1.423 . S
C2242 C2243 1.362 . S
C2242 C2247 1.388 . S
C2243 H2213 0.929 . S
C2243 C2242 1.362 . S
C2243 C2244 1.376 . S
C2244 H2215 0.931 . S
C2244 C2243 1.376 . S
C2244 C2245 1.396 . S
C2245 C2244 1.396 . S
C2245 C2246 1.348 . S
C2245 C2263 1.472 . S
C2246 H2216 0.929 . S
C2246 C2245 1.348 . S
C2246 C2247 1.443 . S
C2247 H2214 0.932 . S
C2247 C2242 1.388 . S
C2247 C2246 1.443 . S
C2248 N2228 1.433 . S
C2248 C2249 1.363 . S
C2248 C2253 1.370 . S
C2249 H2217 0.929 . S
C2249 C2248 1.363 . S
C2249 C2250 1.385 . S
C2250 H2218 0.930 . S
C2250 C2249 1.385 . S
C2250 C2251 1.357 . S
C2251 C2250 1.357 . S
C2251 C2252 1.406 . S
C2252 H2219 0.929 . S
C2252 C2251 1.406 . S
C2252 C2253 1.391 . S
C2253 H2220 0.931 . S
C2253 C2248 1.370 . S
C2253 C2252 1.391 . S
C2254 N2228 1.435 . S
C2254 C2255 1.358 . S
C2254 C2259 1.371 . S
C2255 H2221 0.930 . S
C2255 C2254 1.358 . S
C2255 C2256 1.405 . S
C2256 H2222 0.932 . S
C2256 C2255 1.405 . S
C2256 C2257 1.383 . S
C2257 C2256 1.383 . S
C2257 C2258 1.393 . S
C2258 H2223 0.931 . S
C2258 C2257 1.393 . S
C2258 C2259 1.382 . S
C2259 H2224 0.929 . S
C2259 C2254 1.371 . S
C2259 C2258 1.382 . S
C2260 N2228 1.423 . S
C2260 C2261 1.362 . S
C2260 C2265 1.388 . S
C2261 H2225 0.929 . S
C2261 C2260 1.362 . S
C2261 C2262 1.376 . S
C2262 H2226 0.931 . S
C2262 C2261 1.376 . S
C2262 C2263 1.396 . S
C2263 C2245 1.472 . S
C2263 C2262 1.396 . S
C2263 C2264 1.348 . S
C2264 H2227 0.929 . S
C2264 C2263 1.348 . S
C2264 C2265 1.443 . S
C2265 H2229 0.932 . S
C2265 C2260 1.388 . S
C2265 C2264 1.443 . S
H2266 C2293 0.929 . S
N2267 C2292 1.433 . S
N2267 C2298 1.435 . S
N2267 C2304 1.423 . S
H2268 C2294 0.930 . S
H2269 C2297 0.931 . S
H2270 C2296 0.929 . S
H2271 C2299 0.930 . S
H2272 C2300 0.932 . S
H2273 C2303 0.929 . S
H2274 C2302 0.931 . S
H2275 C2305 0.929 . S
H2276 C2309 0.932 1_545 S
H2277 C2306 0.931 . S
H2278 C2308 0.929 . S
H2279 C2311 0.929 . S
H2280 C2312 0.930 . S
H2281 C2314 0.929 . S
H2282 C2315 0.931 . S
H2283 C2317 0.930 . S
H2284 C2318 0.932 . S
H2285 C2320 0.931 . S
H2286 C2321 0.929 . S
H2287 C2323 0.929 . S
H2288 C2324 0.931 . S
H2289 C2326 0.929 . S
N2290 C2310 1.433 . S
N2290 C2316 1.435 . S
N2290 C2322 1.423 . S
H2291 C2327 0.932 1_545 S
C2292 N2267 1.433 . S
C2292 C2293 1.363 . S
C2292 C2297 1.370 1_565 S
C2293 H2266 0.929 . S
C2293 C2292 1.363 . S
C2293 C2294 1.385 . S
C2294 H2268 0.930 . S
C2294 C2293 1.385 . S
C2294 C2295 1.357 1_565 S
C2295 C2294 1.357 1_545 S
C2295 C2296 1.406 . S
C2296 H2270 0.929 . S
C2296 C2295 1.406 . S
C2296 C2297 1.391 . S
C2297 H2269 0.931 . S
C2297 C2292 1.370 1_545 S
C2297 C2296 1.391 . S
C2298 N2267 1.435 . S
C2298 C2299 1.358 1_565 S
C2298 C2303 1.371 . S
C2299 H2271 0.930 . S
C2299 C2298 1.358 1_545 S
C2299 C2300 1.405 . S
C2300 H2272 0.932 . S
C2300 C2299 1.405 . S
C2300 C2301 1.383 1_545 S
C2301 C2300 1.383 1_565 S
C2301 C2302 1.393 . S
C2302 H2274 0.931 . S
C2302 C2301 1.393 . S
C2302 C2303 1.382 . S
C2303 H2273 0.929 . S
C2303 C2298 1.371 . S
C2303 C2302 1.382 . S
C2304 N2267 1.423 . S
C2304 C2305 1.362 . S
C2304 C2309 1.388 . S
C2305 H2275 0.929 . S
C2305 C2304 1.362 . S
C2305 C2306 1.376 . S
C2306 H2277 0.931 . S
C2306 C2305 1.376 . S
C2306 C2307 1.396 . S
C2307 C2306 1.396 . S
C2307 C2308 1.348 . S
C2307 C2325 1.472 . S
C2308 H2278 0.929 . S
C2308 C2307 1.348 . S
C2308 C2309 1.443 . S
C2309 H2276 0.932 1_565 S
C2309 C2304 1.388 . S
C2309 C2308 1.443 . S
C2310 N2290 1.433 . S
C2310 C2311 1.363 . S
C2310 C2315 1.370 1_565 S
C2311 H2279 0.929 . S
C2311 C2310 1.363 . S
C2311 C2312 1.385 . S
C2312 H2280 0.930 . S
C2312 C2311 1.385 . S
C2312 C2313 1.357 1_565 S
C2313 C2312 1.357 1_545 S
C2313 C2314 1.406 . S
C2314 H2281 0.929 . S
C2314 C2313 1.406 . S
C2314 C2315 1.391 . S
C2315 H2282 0.931 . S
C2315 C2310 1.370 1_545 S
C2315 C2314 1.391 . S
C2316 N2290 1.435 . S
C2316 C2317 1.358 1_565 S
C2316 C2321 1.371 . S
C2317 H2283 0.930 . S
C2317 C2316 1.358 1_545 S
C2317 C2318 1.405 . S
C2318 H2284 0.932 . S
C2318 C2317 1.405 . S
C2318 C2319 1.383 1_545 S
C2319 C2318 1.383 1_565 S
C2319 C2320 1.393 . S
C2320 H2285 0.931 . S
C2320 C2319 1.393 . S
C2320 C2321 1.382 . S
C2321 H2286 0.929 . S
C2321 C2316 1.371 . S
C2321 C2320 1.382 . S
C2322 N2290 1.423 . S
C2322 C2323 1.362 . S
C2322 C2327 1.388 . S
C2323 H2287 0.929 . S
C2323 C2322 1.362 . S
C2323 C2324 1.376 . S
C2324 H2288 0.931 . S
C2324 C2323 1.376 . S
C2324 C2325 1.396 . S
C2325 C2307 1.472 . S
C2325 C2324 1.396 . S
C2325 C2326 1.348 . S
C2326 H2289 0.929 . S
C2326 C2325 1.348 . S
C2326 C2327 1.443 . S
C2327 H2291 0.932 1_565 S
C2327 C2322 1.388 . S
C2327 C2326 1.443 . S
H2328 C2355 0.929 . S
N2329 C2354 1.433 . S
N2329 C2360 1.435 . S
N2329 C2366 1.423 . S
H2330 C2356 0.930 . S
H2331 C2359 0.930 . S
H2332 C2358 0.947 . S
H2333 C2361 0.930 . S
H2334 C2362 0.932 . S
H2335 C2365 0.929 . S
H2336 C2364 0.931 . S
H2337 C2367 0.929 . S
H2338 C2371 0.932 . S
H2339 C2368 0.931 . S
H2340 C2370 0.922 1_545 S
H2341 C2373 0.929 . S
H2342 C2374 0.930 . S
H2343 C2376 0.982 . S
H2344 C2377 0.976 . S
H2345 C2379 0.930 . S
H2346 C2380 0.932 . S
H2347 C2382 0.931 . S
H2348 C2383 0.929 . S
H2349 C2385 0.929 . S
H2350 C2386 0.931 . S
H2351 C2388 0.903 1_545 S
N2352 C2372 1.433 . S
N2352 C2378 1.435 . S
N2352 C2384 1.423 . S
H2353 C2389 0.973 . S
C2354 N2329 1.433 . S
C2354 C2355 1.363 . S
C2354 C2359 1.363 1_565 S
C2355 H2328 0.929 . S
C2355 C2354 1.363 . S
C2355 C2356 1.385 . S
C2356 H2330 0.930 . S
C2356 C2355 1.385 . S
C2356 C2357 1.357 . S
C2357 C2356 1.357 . S
C2357 C2358 1.413 1_565 S
C2358 H2332 0.947 . S
C2358 C2357 1.413 1_545 S
C2358 C2359 1.387 . S
C2359 H2331 0.930 . S
C2359 C2354 1.363 1_545 S
C2359 C2358 1.387 . S
C2360 N2329 1.435 . S
C2360 C2361 1.358 1_565 S
C2360 C2365 1.371 . S
C2361 H2333 0.930 . S
C2361 C2360 1.358 1_545 S
C2361 C2362 1.405 . S
C2362 H2334 0.932 . S
C2362 C2361 1.405 . S
C2362 C2363 1.383 . S
C2363 C2362 1.383 . S
C2363 C2364 1.393 1_545 S
C2364 H2336 0.931 . S
C2364 C2363 1.393 1_565 S
C2364 C2365 1.382 . S
C2365 H2335 0.929 . S
C2365 C2360 1.371 . S
C2365 C2364 1.382 . S
C2366 N2329 1.423 . S
C2366 C2367 1.362 . S
C2366 C2371 1.388 1_565 S
C2367 H2337 0.929 . S
C2367 C2366 1.362 . S
C2367 C2368 1.376 . S
C2368 H2339 0.931 . S
C2368 C2367 1.376 . S
C2368 C2369 1.396 . S
C2369 C2368 1.396 . S
C2369 C2370 1.375 . S
C2369 C2387 1.472 . S
C2370 H2340 0.922 1_565 S
C2370 C2369 1.375 . S
C2370 C2371 1.423 1_565 S
C2371 H2338 0.932 . S
C2371 C2366 1.388 1_545 S
C2371 C2370 1.423 1_545 S
C2372 N2352 1.433 . S
C2372 C2373 1.363 . S
C2372 C2377 1.335 1_565 S
C2373 H2341 0.929 . S
C2373 C2372 1.363 . S
C2373 C2374 1.385 . S
C2374 H2342 0.930 . S
C2374 C2373 1.385 . S
C2374 C2375 1.357 . S
C2375 C2374 1.357 . S
C2375 C2376 1.344 1_565 S
C2376 H2343 0.982 . S
C2376 C2375 1.344 1_545 S
C2376 C2377 1.395 . S
C2377 H2344 0.976 . S
C2377 C2372 1.335 1_545 S
C2377 C2376 1.395 . S
C2378 N2352 1.435 . S
C2378 C2379 1.358 1_565 S
C2378 C2383 1.371 . S
C2379 H2345 0.930 . S
C2379 C2378 1.358 1_545 S
C2379 C2380 1.405 . S
C2380 H2346 0.932 . S
C2380 C2379 1.405 . S
C2380 C2381 1.383 . S
C2381 C2380 1.383 . S
C2381 C2382 1.393 1_545 S
C2382 H2347 0.931 . S
C2382 C2381 1.393 1_565 S
C2382 C2383 1.382 . S
C2383 H2348 0.929 . S
C2383 C2378 1.371 . S
C2383 C2382 1.382 . S
C2384 N2352 1.423 . S
C2384 C2385 1.362 . S
C2384 C2389 1.310 1_565 S
C2385 H2349 0.929 . S
C2385 C2384 1.362 . S
C2385 C2386 1.376 . S
C2386 H2350 0.931 . S
C2386 C2385 1.376 . S
C2386 C2387 1.396 . S
C2387 C2369 1.472 . S
C2387 C2386 1.396 . S
C2387 C2388 1.359 . S
C2388 H2351 0.903 1_565 S
C2388 C2387 1.359 . S
C2388 C2389 1.507 1_565 S
C2389 H2353 0.973 . S
C2389 C2384 1.310 1_545 S
C2389 C2388 1.507 1_545 S
H2390 C2417 0.929 . S
N2391 C2416 1.433 . S
N2391 C2422 1.435 . S
N2391 C2428 1.423 . S
H2392 C2418 0.930 . S
H2393 C2421 0.931 . S
H2394 C2420 0.929 . S
H2395 C2423 0.930 . S
H2396 C2424 0.932 . S
H2397 C2427 0.929 . S
H2398 C2426 0.931 . S
H2399 C2429 0.929 . S
H2400 C2433 0.932 1_455 S
H2401 C2430 0.931 . S
H2402 C2432 0.929 . S
H2403 C2435 0.929 . S
H2404 C2436 0.930 . S
H2405 C2438 0.929 . S
H2406 C2439 0.931 . S
H2407 C2441 0.930 . S
H2408 C2442 0.932 . S
H2409 C2444 0.931 . S
H2410 C2445 0.929 . S
H2411 C2447 0.929 . S
H2412 C2448 0.931 . S
H2413 C2450 0.929 . S
N2414 C2434 1.433 . S
N2414 C2440 1.435 . S
N2414 C2446 1.423 . S
H2415 C2451 0.932 1_455 S
C2416 N2391 1.433 . S
C2416 C2417 1.363 . S
C2416 C2421 1.370 1_655 S
C2417 H2390 0.929 . S
C2417 C2416 1.363 . S
C2417 C2418 1.385 . S
C2418 H2392 0.930 . S
C2418 C2417 1.385 . S
C2418 C2419 1.357 1_655 S
C2419 C2418 1.357 1_455 S
C2419 C2420 1.406 . S
C2420 H2394 0.929 . S
C2420 C2419 1.406 . S
C2420 C2421 1.391 . S
C2421 H2393 0.931 . S
C2421 C2416 1.370 1_455 S
C2421 C2420 1.391 . S
C2422 N2391 1.435 . S
C2422 C2423 1.358 1_655 S
C2422 C2427 1.371 . S
C2423 H2395 0.930 . S
C2423 C2422 1.358 1_455 S
C2423 C2424 1.405 . S
C2424 H2396 0.932 . S
C2424 C2423 1.405 . S
C2424 C2425 1.383 1_455 S
C2425 C2424 1.383 1_655 S
C2425 C2426 1.393 . S
C2426 H2398 0.931 . S
C2426 C2425 1.393 . S
C2426 C2427 1.382 . S
C2427 H2397 0.929 . S
C2427 C2422 1.371 . S
C2427 C2426 1.382 . S
C2428 N2391 1.423 . S
C2428 C2429 1.362 . S
C2428 C2433 1.388 . S
C2429 H2399 0.929 . S
C2429 C2428 1.362 . S
C2429 C2430 1.376 . S
C2430 H2401 0.931 . S
C2430 C2429 1.376 . S
C2430 C2431 1.396 . S
C2431 C2430 1.396 . S
C2431 C2432 1.348 . S
C2431 C2449 1.472 . S
C2432 H2402 0.929 . S
C2432 C2431 1.348 . S
C2432 C2433 1.443 . S
C2433 H2400 0.932 1_655 S
C2433 C2428 1.388 . S
C2433 C2432 1.443 . S
C2434 N2414 1.433 . S
C2434 C2435 1.363 . S
C2434 C2439 1.370 1_655 S
C2435 H2403 0.929 . S
C2435 C2434 1.363 . S
C2435 C2436 1.385 . S
C2436 H2404 0.930 . S
C2436 C2435 1.385 . S
C2436 C2437 1.357 1_655 S
C2437 C2436 1.357 1_455 S
C2437 C2438 1.406 . S
C2438 H2405 0.929 . S
C2438 C2437 1.406 . S
C2438 C2439 1.391 . S
C2439 H2406 0.931 . S
C2439 C2434 1.370 1_455 S
C2439 C2438 1.391 . S
C2440 N2414 1.435 . S
C2440 C2441 1.358 1_655 S
C2440 C2445 1.371 . S
C2441 H2407 0.930 . S
C2441 C2440 1.358 1_455 S
C2441 C2442 1.405 . S
C2442 H2408 0.932 . S
C2442 C2441 1.405 . S
C2442 C2443 1.383 1_455 S
C2443 C2442 1.383 1_655 S
C2443 C2444 1.393 . S
C2444 H2409 0.931 . S
C2444 C2443 1.393 . S
C2444 C2445 1.382 . S
C2445 H2410 0.929 . S
C2445 C2440 1.371 . S
C2445 C2444 1.382 . S
C2446 N2414 1.423 . S
C2446 C2447 1.362 . S
C2446 C2451 1.388 . S
C2447 H2411 0.929 . S
C2447 C2446 1.362 . S
C2447 C2448 1.376 . S
C2448 H2412 0.931 . S
C2448 C2447 1.376 . S
C2448 C2449 1.396 . S
C2449 C2431 1.472 . S
C2449 C2448 1.396 . S
C2449 C2450 1.348 . S
C2450 H2413 0.929 . S
C2450 C2449 1.348 . S
C2450 C2451 1.443 . S
C2451 H2415 0.932 1_655 S
C2451 C2446 1.388 . S
C2451 C2450 1.443 . S
H2452 C2479 0.929 . S
N2453 C2478 1.433 . S
N2453 C2484 1.435 . S
N2453 C2490 1.423 . S
H2454 C2480 0.930 . S
H2455 C2483 0.931 . S
H2456 C2482 0.929 . S
H2457 C2485 0.930 . S
H2458 C2486 0.932 . S
H2459 C2489 0.929 . S
H2460 C2488 0.931 . S
H2461 C2491 0.929 . S
H2462 C2495 0.932 . S
H2463 C2492 0.931 . S
H2464 C2494 0.929 . S
H2465 C2497 0.929 . S
H2466 C2498 0.930 . S
H2467 C2500 0.929 . S
H2468 C2501 0.931 . S
H2469 C2503 0.930 . S
H2470 C2504 0.932 . S
H2471 C2506 0.931 . S
H2472 C2507 0.929 . S
H2473 C2509 0.929 . S
H2474 C2510 0.931 . S
H2475 C2512 0.929 . S
N2476 C2496 1.433 . S
N2476 C2502 1.435 . S
N2476 C2508 1.423 . S
H2477 C2513 0.932 . S
C2478 N2453 1.433 . S
C2478 C2479 1.363 . S
C2478 C2483 1.370 . S
C2479 H2452 0.929 . S
C2479 C2478 1.363 . S
C2479 C2480 1.385 . S
C2480 H2454 0.930 . S
C2480 C2479 1.385 . S
C2480 C2481 1.357 . S
C2481 C2480 1.357 . S
C2481 C2482 1.406 . S
C2482 H2456 0.929 . S
C2482 C2481 1.406 . S
C2482 C2483 1.391 . S
C2483 H2455 0.931 . S
C2483 C2478 1.370 . S
C2483 C2482 1.391 . S
C2484 N2453 1.435 . S
C2484 C2485 1.358 . S
C2484 C2489 1.371 . S
C2485 H2457 0.930 . S
C2485 C2484 1.358 . S
C2485 C2486 1.405 . S
C2486 H2458 0.932 . S
C2486 C2485 1.405 . S
C2486 C2487 1.383 . S
C2487 C2486 1.383 . S
C2487 C2488 1.393 . S
C2488 H2460 0.931 . S
C2488 C2487 1.393 . S
C2488 C2489 1.382 . S
C2489 H2459 0.929 . S
C2489 C2484 1.371 . S
C2489 C2488 1.382 . S
C2490 N2453 1.423 . S
C2490 C2491 1.362 . S
C2490 C2495 1.388 . S
C2491 H2461 0.929 . S
C2491 C2490 1.362 . S
C2491 C2492 1.376 . S
C2492 H2463 0.931 . S
C2492 C2491 1.376 . S
C2492 C2493 1.396 . S
C2493 C2492 1.396 . S
C2493 C2494 1.348 . S
C2493 C2511 1.472 . S
C2494 H2464 0.929 . S
C2494 C2493 1.348 . S
C2494 C2495 1.443 . S
C2495 H2462 0.932 . S
C2495 C2490 1.388 . S
C2495 C2494 1.443 . S
C2496 N2476 1.433 . S
C2496 C2497 1.363 . S
C2496 C2501 1.370 . S
C2497 H2465 0.929 . S
C2497 C2496 1.363 . S
C2497 C2498 1.385 . S
C2498 H2466 0.930 . S
C2498 C2497 1.385 . S
C2498 C2499 1.357 . S
C2499 C2498 1.357 . S
C2499 C2500 1.406 . S
C2500 H2467 0.929 . S
C2500 C2499 1.406 . S
C2500 C2501 1.391 . S
C2501 H2468 0.931 . S
C2501 C2496 1.370 . S
C2501 C2500 1.391 . S
C2502 N2476 1.435 . S
C2502 C2503 1.358 . S
C2502 C2507 1.371 . S
C2503 H2469 0.930 . S
C2503 C2502 1.358 . S
C2503 C2504 1.405 . S
C2504 H2470 0.932 . S
C2504 C2503 1.405 . S
C2504 C2505 1.383 . S
C2505 C2504 1.383 . S
C2505 C2506 1.393 . S
C2506 H2471 0.931 . S
C2506 C2505 1.393 . S
C2506 C2507 1.382 . S
C2507 H2472 0.929 . S
C2507 C2502 1.371 . S
C2507 C2506 1.382 . S
C2508 N2476 1.423 . S
C2508 C2509 1.362 . S
C2508 C2513 1.388 . S
C2509 H2473 0.929 . S
C2509 C2508 1.362 . S
C2509 C2510 1.376 . S
C2510 H2474 0.931 . S
C2510 C2509 1.376 . S
C2510 C2511 1.396 . S
C2511 C2493 1.472 . S
C2511 C2510 1.396 . S
C2511 C2512 1.348 . S
C2512 H2475 0.929 . S
C2512 C2511 1.348 . S
C2512 C2513 1.443 . S
C2513 H2477 0.932 . S
C2513 C2508 1.388 . S
C2513 C2512 1.443 . S
H2514 C2541 0.929 . S
N2515 C2540 1.433 . S
N2515 C2546 1.435 . S
N2515 C2552 1.423 . S
H2516 C2542 0.930 . S
H2517 C2545 0.931 . S
H2518 C2544 0.929 . S
H2519 C2547 0.930 . S
H2520 C2548 0.932 . S
H2521 C2551 0.929 . S
H2522 C2550 0.931 . S
H2523 C2553 0.929 . S
H2524 C2557 0.932 . S
H2525 C2554 0.931 . S
H2526 C2556 0.929 . S
H2527 C2559 0.929 . S
H2528 C2560 0.930 . S
H2529 C2562 0.929 . S
H2530 C2563 0.931 . S
H2531 C2565 0.930 . S
H2532 C2566 0.932 . S
H2533 C2568 0.931 . S
H2534 C2569 0.929 . S
H2535 C2571 0.929 . S
H2536 C2572 0.931 . S
H2537 C2574 0.929 . S
N2538 C2558 1.433 . S
N2538 C2564 1.435 . S
N2538 C2570 1.423 . S
H2539 C2575 0.932 . S
C2540 N2515 1.433 . S
C2540 C2541 1.363 . S
C2540 C2545 1.370 . S
C2541 H2514 0.929 . S
C2541 C2540 1.363 . S
C2541 C2542 1.385 . S
C2542 H2516 0.930 . S
C2542 C2541 1.385 . S
C2542 C2543 1.357 . S
C2543 C2542 1.357 . S
C2543 C2544 1.406 . S
C2544 H2518 0.929 . S
C2544 C2543 1.406 . S
C2544 C2545 1.391 . S
C2545 H2517 0.931 . S
C2545 C2540 1.370 . S
C2545 C2544 1.391 . S
C2546 N2515 1.435 . S
C2546 C2547 1.358 . S
C2546 C2551 1.371 . S
C2547 H2519 0.930 . S
C2547 C2546 1.358 . S
C2547 C2548 1.405 . S
C2548 H2520 0.932 . S
C2548 C2547 1.405 . S
C2548 C2549 1.383 . S
C2549 C2548 1.383 . S
C2549 C2550 1.393 . S
C2550 H2522 0.931 . S
C2550 C2549 1.393 . S
C2550 C2551 1.382 . S
C2551 H2521 0.929 . S
C2551 C2546 1.371 . S
C2551 C2550 1.382 . S
C2552 N2515 1.423 . S
C2552 C2553 1.362 . S
C2552 C2557 1.388 . S
C2553 H2523 0.929 . S
C2553 C2552 1.362 . S
C2553 C2554 1.376 . S
C2554 H2525 0.931 . S
C2554 C2553 1.376 . S
C2554 C2555 1.396 . S
C2555 C2554 1.396 . S
C2555 C2556 1.348 . S
C2555 C2573 1.472 . S
C2556 H2526 0.929 . S
C2556 C2555 1.348 . S
C2556 C2557 1.443 . S
C2557 H2524 0.932 . S
C2557 C2552 1.388 . S
C2557 C2556 1.443 . S
C2558 N2538 1.433 . S
C2558 C2559 1.363 . S
C2558 C2563 1.370 . S
C2559 H2527 0.929 . S
C2559 C2558 1.363 . S
C2559 C2560 1.385 . S
C2560 H2528 0.930 . S
C2560 C2559 1.385 . S
C2560 C2561 1.357 . S
C2561 C2560 1.357 . S
C2561 C2562 1.406 . S
C2562 H2529 0.929 . S
C2562 C2561 1.406 . S
C2562 C2563 1.391 . S
C2563 H2530 0.931 . S
C2563 C2558 1.370 . S
C2563 C2562 1.391 . S
C2564 N2538 1.435 . S
C2564 C2565 1.358 . S
C2564 C2569 1.371 . S
C2565 H2531 0.930 . S
C2565 C2564 1.358 . S
C2565 C2566 1.405 . S
C2566 H2532 0.932 . S
C2566 C2565 1.405 . S
C2566 C2567 1.383 . S
C2567 C2566 1.383 . S
C2567 C2568 1.393 . S
C2568 H2533 0.931 . S
C2568 C2567 1.393 . S
C2568 C2569 1.382 . S
C2569 H2534 0.929 . S
C2569 C2564 1.371 . S
C2569 C2568 1.382 . S
C2570 N2538 1.423 . S
C2570 C2571 1.362 . S
C2570 C2575 1.388 . S
C2571 H2535 0.929 . S
C2571 C2570 1.362 . S
C2571 C2572 1.376 . S
C2572 H2536 0.931 . S
C2572 C2571 1.376 . S
C2572 C2573 1.396 . S
C2573 C2555 1.472 . S
C2573 C2572 1.396 . S
C2573 C2574 1.348 . S
C2574 H2537 0.929 . S
C2574 C2573 1.348 . S
C2574 C2575 1.443 . S
C2575 H2539 0.932 . S
C2575 C2570 1.388 . S
C2575 C2574 1.443 . S
H2576 C2603 0.929 . S
N2577 C2602 1.433 . S
N2577 C2608 1.435 . S
N2577 C2614 1.423 . S
H2578 C2604 0.930 . S
H2579 C2607 0.931 . S
H2580 C2606 0.929 . S
H2581 C2609 0.930 . S
H2582 C2610 0.932 . S
H2583 C2613 0.929 . S
H2584 C2612 0.931 . S
H2585 C2615 0.929 . S
H2586 C2619 0.932 . S
H2587 C2616 0.931 . S
H2588 C2618 0.929 . S
H2589 C2621 0.929 . S
H2590 C2622 0.930 . S
H2591 C2624 0.929 . S
H2592 C2625 0.931 . S
H2593 C2627 0.930 . S
H2594 C2628 0.932 . S
H2595 C2630 0.931 . S
H2596 C2631 0.929 . S
H2597 C2633 0.929 . S
H2598 C2634 0.931 . S
H2599 C2636 0.929 . S
N2600 C2620 1.433 . S
N2600 C2626 1.435 . S
N2600 C2632 1.423 . S
H2601 C2637 0.932 . S
C2602 N2577 1.433 . S
C2602 C2603 1.363 . S
C2602 C2607 1.370 . S
C2603 H2576 0.929 . S
C2603 C2602 1.363 . S
C2603 C2604 1.385 . S
C2604 H2578 0.930 . S
C2604 C2603 1.385 . S
C2604 C2605 1.357 . S
C2605 C2604 1.357 . S
C2605 C2606 1.406 . S
C2606 H2580 0.929 . S
C2606 C2605 1.406 . S
C2606 C2607 1.391 . S
C2607 H2579 0.931 . S
C2607 C2602 1.370 . S
C2607 C2606 1.391 . S
C2608 N2577 1.435 . S
C2608 C2609 1.358 . S
C2608 C2613 1.371 . S
C2609 H2581 0.930 . S
C2609 C2608 1.358 . S
C2609 C2610 1.405 . S
C2610 H2582 0.932 . S
C2610 C2609 1.405 . S
C2610 C2611 1.383 . S
C2611 C2610 1.383 . S
C2611 C2612 1.393 . S
C2612 H2584 0.931 . S
C2612 C2611 1.393 . S
C2612 C2613 1.382 . S
C2613 H2583 0.929 . S
C2613 C2608 1.371 . S
C2613 C2612 1.382 . S
C2614 N2577 1.423 . S
C2614 C2615 1.362 . S
C2614 C2619 1.388 . S
C2615 H2585 0.929 . S
C2615 C2614 1.362 . S
C2615 C2616 1.376 . S
C2616 H2587 0.931 . S
C2616 C2615 1.376 . S
C2616 C2617 1.396 . S
C2617 C2616 1.396 . S
C2617 C2618 1.348 . S
C2617 C2635 1.472 . S
C2618 H2588 0.929 . S
C2618 C2617 1.348 . S
C2618 C2619 1.443 . S
C2619 H2586 0.932 . S
C2619 C2614 1.388 . S
C2619 C2618 1.443 . S
C2620 N2600 1.433 . S
C2620 C2621 1.363 . S
C2620 C2625 1.370 . S
C2621 H2589 0.929 . S
C2621 C2620 1.363 . S
C2621 C2622 1.385 . S
C2622 H2590 0.930 . S
C2622 C2621 1.385 . S
C2622 C2623 1.357 . S
C2623 C2622 1.357 . S
C2623 C2624 1.406 . S
C2624 H2591 0.929 . S
C2624 C2623 1.406 . S
C2624 C2625 1.391 . S
C2625 H2592 0.931 . S
C2625 C2620 1.370 . S
C2625 C2624 1.391 . S
C2626 N2600 1.435 . S
C2626 C2627 1.358 . S
C2626 C2631 1.371 . S
C2627 H2593 0.930 . S
C2627 C2626 1.358 . S
C2627 C2628 1.405 . S
C2628 H2594 0.932 . S
C2628 C2627 1.405 . S
C2628 C2629 1.383 . S
C2629 C2628 1.383 . S
C2629 C2630 1.393 . S
C2630 H2595 0.931 . S
C2630 C2629 1.393 . S
C2630 C2631 1.382 . S
C2631 H2596 0.929 . S
C2631 C2626 1.371 . S
C2631 C2630 1.382 . S
C2632 N2600 1.423 . S
C2632 C2633 1.362 . S
C2632 C2637 1.388 . S
C2633 H2597 0.929 . S
C2633 C2632 1.362 . S
C2633 C2634 1.376 . S
C2634 H2598 0.931 . S
C2634 C2633 1.376 . S
C2634 C2635 1.396 . S
C2635 C2617 1.472 . S
C2635 C2634 1.396 . S
C2635 C2636 1.348 . S
C2636 H2599 0.929 . S
C2636 C2635 1.348 . S
C2636 C2637 1.443 . S
C2637 H2601 0.932 . S
C2637 C2632 1.388 . S
C2637 C2636 1.443 . S
H2638 C2665 0.929 . S
N2639 C2664 1.433 . S
N2639 C2670 1.435 . S
N2639 C2676 1.423 . S
H2640 C2666 0.930 . S
H2641 C2669 0.931 . S
H2642 C2668 0.929 . S
H2643 C2671 0.930 . S
H2644 C2672 0.932 . S
H2645 C2675 0.929 . S
H2646 C2674 0.931 . S
H2647 C2677 0.929 . S
H2648 C2681 0.932 . S
H2649 C2678 0.931 . S
H2650 C2680 0.929 . S
H2651 C2683 0.929 . S
H2652 C2684 0.930 . S
H2653 C2686 0.929 . S
H2654 C2687 0.931 . S
H2655 C2689 0.930 . S
H2656 C2690 0.932 . S
H2657 C2692 0.931 . S
H2658 C2693 0.929 . S
H2659 C2695 0.929 . S
H2660 C2696 0.931 . S
H2661 C2698 0.929 . S
N2662 C2682 1.433 . S
N2662 C2688 1.435 . S
N2662 C2694 1.423 . S
H2663 C2699 0.932 . S
C2664 N2639 1.433 . S
C2664 C2665 1.363 . S
C2664 C2669 1.370 . S
C2665 H2638 0.929 . S
C2665 C2664 1.363 . S
C2665 C2666 1.385 . S
C2666 H2640 0.930 . S
C2666 C2665 1.385 . S
C2666 C2667 1.357 . S
C2667 C2666 1.357 . S
C2667 C2668 1.406 . S
C2668 H2642 0.929 . S
C2668 C2667 1.406 . S
C2668 C2669 1.391 . S
C2669 H2641 0.931 . S
C2669 C2664 1.370 . S
C2669 C2668 1.391 . S
C2670 N2639 1.435 . S
C2670 C2671 1.358 . S
C2670 C2675 1.371 . S
C2671 H2643 0.930 . S
C2671 C2670 1.358 . S
C2671 C2672 1.405 . S
C2672 H2644 0.932 . S
C2672 C2671 1.405 . S
C2672 C2673 1.383 . S
C2673 C2672 1.383 . S
C2673 C2674 1.393 . S
C2674 H2646 0.931 . S
C2674 C2673 1.393 . S
C2674 C2675 1.382 . S
C2675 H2645 0.929 . S
C2675 C2670 1.371 . S
C2675 C2674 1.382 . S
C2676 N2639 1.423 . S
C2676 C2677 1.362 . S
C2676 C2681 1.388 . S
C2677 H2647 0.929 . S
C2677 C2676 1.362 . S
C2677 C2678 1.376 . S
C2678 H2649 0.931 . S
C2678 C2677 1.376 . S
C2678 C2679 1.396 . S
C2679 C2678 1.396 . S
C2679 C2680 1.348 . S
C2679 C2697 1.472 . S
C2680 H2650 0.929 . S
C2680 C2679 1.348 . S
C2680 C2681 1.443 . S
C2681 H2648 0.932 . S
C2681 C2676 1.388 . S
C2681 C2680 1.443 . S
C2682 N2662 1.433 . S
C2682 C2683 1.363 . S
C2682 C2687 1.370 . S
C2683 H2651 0.929 . S
C2683 C2682 1.363 . S
C2683 C2684 1.385 . S
C2684 H2652 0.930 . S
C2684 C2683 1.385 . S
C2684 C2685 1.357 . S
C2685 C2684 1.357 . S
C2685 C2686 1.406 . S
C2686 H2653 0.929 . S
C2686 C2685 1.406 . S
C2686 C2687 1.391 . S
C2687 H2654 0.931 . S
C2687 C2682 1.370 . S
C2687 C2686 1.391 . S
C2688 N2662 1.435 . S
C2688 C2689 1.358 . S
C2688 C2693 1.371 . S
C2689 H2655 0.930 . S
C2689 C2688 1.358 . S
C2689 C2690 1.405 . S
C2690 H2656 0.932 . S
C2690 C2689 1.405 . S
C2690 C2691 1.383 . S
C2691 C2690 1.383 . S
C2691 C2692 1.393 . S
C2692 H2657 0.931 . S
C2692 C2691 1.393 . S
C2692 C2693 1.382 . S
C2693 H2658 0.929 . S
C2693 C2688 1.371 . S
C2693 C2692 1.382 . S
C2694 N2662 1.423 . S
C2694 C2695 1.362 . S
C2694 C2699 1.388 . S
C2695 H2659 0.929 . S
C2695 C2694 1.362 . S
C2695 C2696 1.376 . S
C2696 H2660 0.931 . S
C2696 C2695 1.376 . S
C2696 C2697 1.396 . S
C2697 C2679 1.472 . S
C2697 C2696 1.396 . S
C2697 C2698 1.348 . S
C2698 H2661 0.929 . S
C2698 C2697 1.348 . S
C2698 C2699 1.443 . S
C2699 H2663 0.932 . S
C2699 C2694 1.388 . S
C2699 C2698 1.443 . S
H2700 C2712 0.930 . S
H2701 C2714 0.909 1_455 S
H2702 C2715 0.931 . S
H2703 C2719 0.959 . S
H2704 C2719 0.959 . S
H2705 C2719 0.961 . S
H2706 C2720 0.960 . S
H2707 C2720 0.961 . S
H2708 C2720 0.959 1_455 S
H2709 C2723 0.929 . S
H2710 C2724 0.931 . S
H2711 C2726 0.930 . S
C2712 H2700 0.930 . S
C2712 C2713 1.399 . S
C2712 C2717 1.399 . S
C2713 C2712 1.399 . S
C2713 C2714 1.376 . S
C2714 H2701 0.909 1_655 S
C2714 C2713 1.376 . S
C2714 C2715 1.391 1_655 S
C2715 H2702 0.931 . S
C2715 C2714 1.391 1_455 S
C2715 C2716 1.386 1_455 S
C2716 C2715 1.386 1_655 S
C2716 C2717 1.394 . S
C2716 C2722 1.465 . S
C2717 C2712 1.399 . S
C2717 C2716 1.394 . S
C2717 C2718 1.516 . S
C2718 C2717 1.516 . S
C2718 C2719 1.502 . S
C2718 C2720 1.561 . S
C2718 C2721 1.526 . S
C2719 H2703 0.959 . S
C2719 H2704 0.959 . S
C2719 H2705 0.961 . S
C2719 C2718 1.502 . S
C2720 H2706 0.960 . S
C2720 H2707 0.961 . S
C2720 H2708 0.959 1_655 S
C2720 C2718 1.561 . S
C2721 C2718 1.526 . S
C2721 C2722 1.396 . S
C2721 C2726 1.390 . S
C2722 C2716 1.465 . S
C2722 C2721 1.396 . S
C2722 C2723 1.399 1_655 S
C2723 H2709 0.929 . S
C2723 C2722 1.399 1_455 S
C2723 C2724 1.385 . S
C2724 H2710 0.931 . S
C2724 C2723 1.385 . S
C2724 C2725 1.389 1_455 S
C2725 C2724 1.389 1_655 S
C2725 C2726 1.387 . S
C2726 H2711 0.930 . S
C2726 C2721 1.390 . S
C2726 C2725 1.387 . S
H2727 C2739 0.930 . S
H2728 C2741 0.930 . S
H2729 C2742 0.930 . S
H2730 C2746 0.959 . S
H2731 C2746 0.959 . S
H2732 C2746 0.961 . S
H2733 C2747 0.960 . S
H2734 C2747 0.961 . S
H2735 C2747 0.959 . S
H2736 C2750 0.929 . S
H2737 C2751 0.931 . S
H2738 C2753 0.930 . S
C2739 H2727 0.930 . S
C2739 C2740 1.399 . S
C2739 C2744 1.399 . S
C2740 C2739 1.399 . S
C2740 C2741 1.376 . S
C2741 H2728 0.930 . S
C2741 C2740 1.376 . S
C2741 C2742 1.388 . S
C2742 H2729 0.930 . S
C2742 C2741 1.388 . S
C2742 C2743 1.390 . S
C2743 C2742 1.390 . S
C2743 C2744 1.394 . S
C2743 C2749 1.465 . S
C2744 C2739 1.399 . S
C2744 C2743 1.394 . S
C2744 C2745 1.516 . S
C2745 C2744 1.516 . S
C2745 C2746 1.502 . S
C2745 C2747 1.561 . S
C2745 C2748 1.526 . S
C2746 H2730 0.959 . S
C2746 H2731 0.959 . S
C2746 H2732 0.961 . S
C2746 C2745 1.502 . S
C2747 H2733 0.960 . S
C2747 H2734 0.961 . S
C2747 H2735 0.959 . S
C2747 C2745 1.561 . S
C2748 C2745 1.526 . S
C2748 C2749 1.396 . S
C2748 C2753 1.390 . S
C2749 C2743 1.465 . S
C2749 C2748 1.396 . S
C2749 C2750 1.399 . S
C2750 H2736 0.929 . S
C2750 C2749 1.399 . S
C2750 C2751 1.385 . S
C2751 H2737 0.931 . S
C2751 C2750 1.385 . S
C2751 C2752 1.389 . S
C2752 C2751 1.389 . S
C2752 C2753 1.387 . S
C2753 H2738 0.930 . S
C2753 C2748 1.390 . S
C2753 C2752 1.387 . S
H2754 C2766 0.930 1_565 S
H2755 C2768 0.930 . S
H2756 C2769 0.930 . S
H2757 C2773 0.959 . S
H2758 C2773 0.959 . S
H2759 C2773 0.961 . S
H2760 C2774 0.960 . S
H2761 C2774 0.961 . S
H2762 C2774 0.959 1_545 S
H2763 C2777 0.929 . S
H2764 C2778 0.931 . S
H2765 C2780 0.930 . S
C2766 H2754 0.930 1_545 S
C2766 C2767 1.399 . S
C2766 C2771 1.399 . S
C2767 C2766 1.399 . S
C2767 C2768 1.376 . S
C2768 H2755 0.930 . S
C2768 C2767 1.376 . S
C2768 C2769 1.388 . S
C2769 H2756 0.930 . S
C2769 C2768 1.388 . S
C2769 C2770 1.390 . S
C2770 C2769 1.390 . S
C2770 C2771 1.394 . S
C2770 C2776 1.465 . S
C2771 C2766 1.399 . S
C2771 C2770 1.394 . S
C2771 C2772 1.516 1_545 S
C2772 C2771 1.516 1_565 S
C2772 C2773 1.502 . S
C2772 C2774 1.561 . S
C2772 C2775 1.526 1_565 S
C2773 H2757 0.959 . S
C2773 H2758 0.959 . S
C2773 H2759 0.961 . S
C2773 C2772 1.502 . S
C2774 H2760 0.960 . S
C2774 H2761 0.961 . S
C2774 H2762 0.959 1_565 S
C2774 C2772 1.561 . S
C2775 C2772 1.526 1_545 S
C2775 C2776 1.396 . S
C2775 C2780 1.390 1_545 S
C2776 C2770 1.465 . S
C2776 C2775 1.396 . S
C2776 C2777 1.399 . S
C2777 H2763 0.929 . S
C2777 C2776 1.399 . S
C2777 C2778 1.385 . S
C2778 H2764 0.931 . S
C2778 C2777 1.385 . S
C2778 C2779 1.389 . S
C2779 C2778 1.389 . S
C2779 C2780 1.387 1_545 S
C2780 H2765 0.930 . S
C2780 C2775 1.390 1_565 S
C2780 C2779 1.387 1_565 S
H2781 C2793 0.930 . S
H2782 C2795 0.895 1_545 S
H2783 C2796 0.936 . S
H2784 C2800 0.959 . S
H2785 C2800 0.959 . S
H2786 C2800 0.961 . S
H2787 C2801 0.960 . S
H2788 C2801 0.961 . S
H2789 C2801 0.959 1_545 S
H2790 C2804 0.929 . S
H2791 C2805 0.931 . S
H2792 C2807 0.930 . S
C2793 H2781 0.930 . S
C2793 C2794 1.399 . S
C2793 C2798 1.399 . S
C2794 C2793 1.399 . S
C2794 C2795 1.376 . S
C2795 H2782 0.895 1_565 S
C2795 C2794 1.376 . S
C2795 C2796 1.400 1_565 S
C2796 H2783 0.936 . S
C2796 C2795 1.400 1_545 S
C2796 C2797 1.374 1_545 S
C2797 C2796 1.374 1_565 S
C2797 C2798 1.394 . S
C2797 C2803 1.465 . S
C2798 C2793 1.399 . S
C2798 C2797 1.394 . S
C2798 C2799 1.516 . S
C2799 C2798 1.516 . S
C2799 C2800 1.502 . S
C2799 C2801 1.561 . S
C2799 C2802 1.526 . S
C2800 H2784 0.959 . S
C2800 H2785 0.959 . S
C2800 H2786 0.961 . S
C2800 C2799 1.502 . S
C2801 H2787 0.960 . S
C2801 H2788 0.961 . S
C2801 H2789 0.959 1_565 S
C2801 C2799 1.561 . S
C2802 C2799 1.526 . S
C2802 C2803 1.396 . S
C2802 C2807 1.390 . S
C2803 C2797 1.465 . S
C2803 C2802 1.396 . S
C2803 C2804 1.399 1_565 S
C2804 H2790 0.929 . S
C2804 C2803 1.399 1_545 S
C2804 C2805 1.385 . S
C2805 H2791 0.931 . S
C2805 C2804 1.385 . S
C2805 C2806 1.389 1_545 S
C2806 C2805 1.389 1_565 S
C2806 C2807 1.387 . S
C2807 H2792 0.930 . S
C2807 C2802 1.390 . S
C2807 C2806 1.387 . S
H2808 C2820 0.930 1_655 S
H2809 C2822 0.930 . S
H2810 C2823 0.930 . S
H2811 C2827 0.959 . S
H2812 C2827 0.959 . S
H2813 C2827 0.961 . S
H2814 C2828 0.960 . S
H2815 C2828 0.961 . S
H2816 C2828 0.959 . S
H2817 C2831 0.929 . S
H2818 C2832 0.931 . S
H2819 C2834 0.930 . S
C2820 H2808 0.930 1_455 S
C2820 C2821 1.399 . S
C2820 C2825 1.399 . S
C2821 C2820 1.399 . S
C2821 C2822 1.376 . S
C2822 H2809 0.930 . S
C2822 C2821 1.376 . S
C2822 C2823 1.388 . S
C2823 H2810 0.930 . S
C2823 C2822 1.388 . S
C2823 C2824 1.390 . S
C2824 C2823 1.390 . S
C2824 C2825 1.394 . S
C2824 C2830 1.465 . S
C2825 C2820 1.399 . S
C2825 C2824 1.394 . S
C2825 C2826 1.516 1_455 S
C2826 C2825 1.516 1_655 S
C2826 C2827 1.502 . S
C2826 C2828 1.561 . S
C2826 C2829 1.526 1_655 S
C2827 H2811 0.959 . S
C2827 H2812 0.959 . S
C2827 H2813 0.961 . S
C2827 C2826 1.502 . S
C2828 H2814 0.960 . S
C2828 H2815 0.961 . S
C2828 H2816 0.959 . S
C2828 C2826 1.561 . S
C2829 C2826 1.526 1_455 S
C2829 C2830 1.396 . S
C2829 C2834 1.390 1_455 S
C2830 C2824 1.465 . S
C2830 C2829 1.396 . S
C2830 C2831 1.399 . S
C2831 H2817 0.929 . S
C2831 C2830 1.399 . S
C2831 C2832 1.385 . S
C2832 H2818 0.931 . S
C2832 C2831 1.385 . S
C2832 C2833 1.389 . S
C2833 C2832 1.389 . S
C2833 C2834 1.387 1_455 S
C2834 H2819 0.930 . S
C2834 C2829 1.390 1_655 S
C2834 C2833 1.387 1_655 S
H2835 C2847 0.930 . S
H2836 C2849 0.930 . S
H2837 C2850 0.930 . S
H2838 C2854 0.959 . S
H2839 C2854 0.959 . S
H2840 C2854 0.961 . S
H2841 C2855 0.960 . S
H2842 C2855 0.961 . S
H2843 C2855 0.959 . S
H2844 C2858 0.929 . S
H2845 C2859 0.931 . S
H2846 C2861 0.930 . S
C2847 H2835 0.930 . S
C2847 C2848 1.399 . S
C2847 C2852 1.399 . S
C2848 C2847 1.399 . S
C2848 C2849 1.376 . S
C2849 H2836 0.930 . S
C2849 C2848 1.376 . S
C2849 C2850 1.388 . S
C2850 H2837 0.930 . S
C2850 C2849 1.388 . S
C2850 C2851 1.390 . S
C2851 C2850 1.390 . S
C2851 C2852 1.394 . S
C2851 C2857 1.465 . S
C2852 C2847 1.399 . S
C2852 C2851 1.394 . S
C2852 C2853 1.516 . S
C2853 C2852 1.516 . S
C2853 C2854 1.502 . S
C2853 C2855 1.561 . S
C2853 C2856 1.526 . S
C2854 H2838 0.959 . S
C2854 H2839 0.959 . S
C2854 H2840 0.961 . S
C2854 C2853 1.502 . S
C2855 H2841 0.960 . S
C2855 H2842 0.961 . S
C2855 H2843 0.959 . S
C2855 C2853 1.561 . S
C2856 C2853 1.526 . S
C2856 C2857 1.396 . S
C2856 C2861 1.390 . S
C2857 C2851 1.465 . S
C2857 C2856 1.396 . S
C2857 C2858 1.399 . S
C2858 H2844 0.929 . S
C2858 C2857 1.399 . S
C2858 C2859 1.385 . S
C2859 H2845 0.931 . S
C2859 C2858 1.385 . S
C2859 C2860 1.389 . S
C2860 C2859 1.389 . S
C2860 C2861 1.387 . S
C2861 H2846 0.930 . S
C2861 C2856 1.390 . S
C2861 C2860 1.387 . S
H2862 C2874 0.930 . S
H2863 C2876 0.930 1_655 S
H2864 C2877 0.930 . S
H2865 C2881 0.959 . S
H2866 C2881 0.959 . S
H2867 C2881 0.961 . S
H2868 C2882 0.960 . S
H2869 C2882 0.961 . S
H2870 C2882 0.959 . S
H2871 C2885 0.929 . S
H2872 C2886 0.931 . S
H2873 C2888 0.930 . S
C2874 H2862 0.930 . S
C2874 C2875 1.399 . S
C2874 C2879 1.399 . S
C2875 C2874 1.399 . S
C2875 C2876 1.376 . S
C2876 H2863 0.930 1_455 S
C2876 C2875 1.376 . S
C2876 C2877 1.388 1_455 S
C2877 H2864 0.930 . S
C2877 C2876 1.388 1_655 S
C2877 C2878 1.390 1_655 S
C2878 C2877 1.390 1_455 S
C2878 C2879 1.394 . S
C2878 C2884 1.465 . S
C2879 C2874 1.399 . S
C2879 C2878 1.394 . S
C2879 C2880 1.516 . S
C2880 C2879 1.516 . S
C2880 C2881 1.502 . S
C2880 C2882 1.561 . S
C2880 C2883 1.526 . S
C2881 H2865 0.959 . S
C2881 H2866 0.959 . S
C2881 H2867 0.961 . S
C2881 C2880 1.502 . S
C2882 H2868 0.960 . S
C2882 H2869 0.961 . S
C2882 H2870 0.959 . S
C2882 C2880 1.561 . S
C2883 C2880 1.526 . S
C2883 C2884 1.396 . S
C2883 C2888 1.390 . S
C2884 C2878 1.465 . S
C2884 C2883 1.396 . S
C2884 C2885 1.399 1_455 S
C2885 H2871 0.929 . S
C2885 C2884 1.399 1_655 S
C2885 C2886 1.385 . S
C2886 H2872 0.931 . S
C2886 C2885 1.385 . S
C2886 C2887 1.389 1_655 S
C2887 C2886 1.389 1_455 S
C2887 C2888 1.387 . S
C2888 H2873 0.930 . S
C2888 C2883 1.390 . S
C2888 C2887 1.387 . S
H2889 C2901 0.930 . S
H2890 C2903 0.930 . S
H2891 C2904 0.930 . S
H2892 C2908 0.959 . S
H2893 C2908 0.959 . S
H2894 C2908 0.961 . S
H2895 C2909 0.960 . S
H2896 C2909 0.961 . S
H2897 C2909 0.959 . S
H2898 C2912 0.929 . S
H2899 C2913 0.931 . S
H2900 C2915 0.930 . S
C2901 H2889 0.930 . S
C2901 C2902 1.399 . S
C2901 C2906 1.399 . S
C2902 C2901 1.399 . S
C2902 C2903 1.376 . S
C2903 H2890 0.930 . S
C2903 C2902 1.376 . S
C2903 C2904 1.388 . S
C2904 H2891 0.930 . S
C2904 C2903 1.388 . S
C2904 C2905 1.390 . S
C2905 C2904 1.390 . S
C2905 C2906 1.394 . S
C2905 C2911 1.465 . S
C2906 C2901 1.399 . S
C2906 C2905 1.394 . S
C2906 C2907 1.516 . S
C2907 C2906 1.516 . S
C2907 C2908 1.502 . S
C2907 C2909 1.561 . S
C2907 C2910 1.526 . S
C2908 H2892 0.959 . S
C2908 H2893 0.959 . S
C2908 H2894 0.961 . S
C2908 C2907 1.502 . S
C2909 H2895 0.960 . S
C2909 H2896 0.961 . S
C2909 H2897 0.959 . S
C2909 C2907 1.561 . S
C2910 C2907 1.526 . S
C2910 C2911 1.396 . S
C2910 C2915 1.390 . S
C2911 C2905 1.465 . S
C2911 C2910 1.396 . S
C2911 C2912 1.399 . S
C2912 H2898 0.929 . S
C2912 C2911 1.399 . S
C2912 C2913 1.385 . S
C2913 H2899 0.931 . S
C2913 C2912 1.385 . S
C2913 C2914 1.389 . S
C2914 C2913 1.389 . S
C2914 C2915 1.387 . S
C2915 H2900 0.930 . S
C2915 C2910 1.390 . S
C2915 C2914 1.387 . S
H2916 C2928 0.930 1_545 S
H2917 C2930 0.930 . S
H2918 C2931 0.930 . S
H2919 C2935 0.959 1_565 S
H2920 C2935 0.959 . S
H2921 C2935 0.961 . S
H2922 C2936 0.960 . S
H2923 C2936 0.961 . S
H2924 C2936 0.959 . S
H2925 C2939 0.929 . S
H2926 C2940 0.931 . S
H2927 C2942 0.955 . S
C2928 H2916 0.930 1_565 S
C2928 C2929 1.399 . S
C2928 C2933 1.399 . S
C2929 C2928 1.399 . S
C2929 C2930 1.376 . S
C2930 H2917 0.930 . S
C2930 C2929 1.376 . S
C2930 C2931 1.388 . S
C2931 H2918 0.930 . S
C2931 C2930 1.388 . S
C2931 C2932 1.390 . S
C2932 C2931 1.390 . S
C2932 C2933 1.394 . S
C2932 C2938 1.465 . S
C2933 C2928 1.399 . S
C2933 C2932 1.394 . S
C2933 C2934 1.516 1_565 S
C2934 C2933 1.516 1_545 S
C2934 C2935 1.502 . S
C2934 C2936 1.561 . S
C2934 C2937 1.526 1_545 S
C2935 H2919 0.959 1_545 S
C2935 H2920 0.959 . S
C2935 H2921 0.961 . S
C2935 C2934 1.502 . S
C2936 H2922 0.960 . S
C2936 H2923 0.961 . S
C2936 H2924 0.959 . S
C2936 C2934 1.561 . S
C2937 C2934 1.526 1_565 S
C2937 C2938 1.396 . S
C2937 C2942 1.374 1_565 S
C2938 C2932 1.465 . S
C2938 C2937 1.396 . S
C2938 C2939 1.399 . S
C2939 H2925 0.929 . S
C2939 C2938 1.399 . S
C2939 C2940 1.385 . S
C2940 H2926 0.931 . S
C2940 C2939 1.385 . S
C2940 C2941 1.389 . S
C2941 C2940 1.389 . S
C2941 C2942 1.378 1_565 S
C2942 H2927 0.955 . S
C2942 C2937 1.374 1_545 S
C2942 C2941 1.378 1_545 S
H2943 C2955 0.930 . S
H2944 C2957 0.930 . S
H2945 C2958 0.930 1_565 S
H2946 C2962 0.959 . S
H2947 C2962 0.959 . S
H2948 C2962 0.961 . S
H2949 C2963 0.960 . S
H2950 C2963 0.961 . S
H2951 C2963 0.959 . S
H2952 C2966 0.930 . S
H2953 C2967 0.930 . S
H2954 C2969 0.930 . S
C2955 H2943 0.930 . S
C2955 C2956 1.399 . S
C2955 C2960 1.399 . S
C2956 C2955 1.399 . S
C2956 C2957 1.376 . S
C2957 H2944 0.930 . S
C2957 C2956 1.376 . S
C2957 C2958 1.388 . S
C2958 H2945 0.930 1_545 S
C2958 C2957 1.388 . S
C2958 C2959 1.390 . S
C2959 C2958 1.390 . S
C2959 C2960 1.394 . S
C2959 C2965 1.465 . S
C2960 C2955 1.399 . S
C2960 C2959 1.394 . S
C2960 C2961 1.516 . S
C2961 C2960 1.516 . S
C2961 C2962 1.502 . S
C2961 C2963 1.561 . S
C2961 C2964 1.526 . S
C2962 H2946 0.959 . S
C2962 H2947 0.959 . S
C2962 H2948 0.961 . S
C2962 C2961 1.502 . S
C2963 H2949 0.960 . S
C2963 H2950 0.961 . S
C2963 H2951 0.959 . S
C2963 C2961 1.561 . S
C2964 C2961 1.526 . S
C2964 C2965 1.396 . S
C2964 C2969 1.390 . S
C2965 C2959 1.465 . S
C2965 C2964 1.396 . S
C2965 C2966 1.399 1_545 S
C2966 H2952 0.930 . S
C2966 C2965 1.399 1_565 S
C2966 C2967 1.394 . S
C2967 H2953 0.930 . S
C2967 C2966 1.394 . S
C2967 C2968 1.381 1_565 S
C2968 C2967 1.381 1_545 S
C2968 C2969 1.387 . S
C2969 H2954 0.930 . S
C2969 C2964 1.390 . S
C2969 C2968 1.387 . S
H2970 C2982 0.930 . S
H2971 C2984 0.930 . S
H2972 C2985 0.930 . S
H2973 C2989 0.964 . S
H2974 C2989 0.962 1_655 S
H2975 C2989 0.927 1_655 S
H2976 C2990 0.960 . S
H2977 C2990 0.961 . S
H2978 C2990 0.959 . S
H2979 C2993 0.929 . S
H2980 C2994 0.931 . S
H2981 C2996 0.930 . S
C2982 H2970 0.930 . S
C2982 C2983 1.399 . S
C2982 C2987 1.399 . S
C2983 C2982 1.399 . S
C2983 C2984 1.376 . S
C2984 H2971 0.930 . S
C2984 C2983 1.376 . S
C2984 C2985 1.388 . S
C2985 H2972 0.930 . S
C2985 C2984 1.388 . S
C2985 C2986 1.390 . S
C2986 C2985 1.390 . S
C2986 C2987 1.394 . S
C2986 C2992 1.465 . S
C2987 C2982 1.399 . S
C2987 C2986 1.394 . S
C2987 C2988 1.516 . S
C2988 C2987 1.516 . S
C2988 C2989 1.500 1_655 S
C2988 C2990 1.561 . S
C2988 C2991 1.526 . S
C2989 H2973 0.964 . S
C2989 H2974 0.962 1_455 S
C2989 H2975 0.927 1_455 S
C2989 C2988 1.500 1_455 S
C2990 H2976 0.960 . S
C2990 H2977 0.961 . S
C2990 H2978 0.959 . S
C2990 C2988 1.561 . S
C2991 C2988 1.526 . S
C2991 C2992 1.396 . S
C2991 C2996 1.390 . S
C2992 C2986 1.465 . S
C2992 C2991 1.396 . S
C2992 C2993 1.399 . S
C2993 H2979 0.929 . S
C2993 C2992 1.399 . S
C2993 C2994 1.385 . S
C2994 H2980 0.931 . S
C2994 C2993 1.385 . S
C2994 C2995 1.389 . S
C2995 C2994 1.389 . S
C2995 C2996 1.387 . S
C2996 H2981 0.930 . S
C2996 C2991 1.390 . S
C2996 C2995 1.387 . S
H2997 C3009 0.930 . S
H2998 C3011 0.930 . S
H2999 C3012 0.930 . S
H3000 C3016 0.959 . S
H3001 C3016 0.959 . S
H3002 C3016 0.961 . S
H3003 C3017 0.960 . S
H3004 C3017 0.961 . S
H3005 C3017 0.959 . S
H3006 C3020 0.929 . S
H3007 C3021 0.931 . S
H3008 C3023 0.930 . S
C3009 H2997 0.930 . S
C3009 C3010 1.399 . S
C3009 C3014 1.399 . S
C3010 C3009 1.399 . S
C3010 C3011 1.376 . S
C3011 H2998 0.930 . S
C3011 C3010 1.376 . S
C3011 C3012 1.388 . S
C3012 H2999 0.930 . S
C3012 C3011 1.388 . S
C3012 C3013 1.390 . S
C3013 C3012 1.390 . S
C3013 C3014 1.394 . S
C3013 C3019 1.465 . S
C3014 C3009 1.399 . S
C3014 C3013 1.394 . S
C3014 C3015 1.516 . S
C3015 C3014 1.516 . S
C3015 C3016 1.502 . S
C3015 C3017 1.561 . S
C3015 C3018 1.526 . S
C3016 H3000 0.959 . S
C3016 H3001 0.959 . S
C3016 H3002 0.961 . S
C3016 C3015 1.502 . S
C3017 H3003 0.960 . S
C3017 H3004 0.961 . S
C3017 H3005 0.959 . S
C3017 C3015 1.561 . S
C3018 C3015 1.526 . S
C3018 C3019 1.396 . S
C3018 C3023 1.390 . S
C3019 C3013 1.465 . S
C3019 C3018 1.396 . S
C3019 C3020 1.399 . S
C3020 H3006 0.929 . S
C3020 C3019 1.399 . S
C3020 C3021 1.385 . S
C3021 H3007 0.931 . S
C3021 C3020 1.385 . S
C3021 C3022 1.389 . S
C3022 C3021 1.389 . S
C3022 C3023 1.387 . S
C3023 H3008 0.930 . S
C3023 C3018 1.390 . S
C3023 C3022 1.387 . S
H3024 C3036 0.930 . S
H3025 C3038 0.930 . S
H3026 C3039 0.930 . S
H3027 C3043 0.959 . S
H3028 C3043 0.959 . S
H3029 C3043 0.961 . S
H3030 C3044 0.960 . S
H3031 C3044 0.961 . S
H3032 C3044 0.959 . S
H3033 C3047 0.929 . S
H3034 C3048 0.931 . S
H3035 C3050 0.930 . S
C3036 H3024 0.930 . S
C3036 C3037 1.399 . S
C3036 C3041 1.399 . S
C3037 C3036 1.399 . S
C3037 C3038 1.376 . S
C3038 H3025 0.930 . S
C3038 C3037 1.376 . S
C3038 C3039 1.388 . S
C3039 H3026 0.930 . S
C3039 C3038 1.388 . S
C3039 C3040 1.390 . S
C3040 C3039 1.390 . S
C3040 C3041 1.394 . S
C3040 C3046 1.465 . S
C3041 C3036 1.399 . S
C3041 C3040 1.394 . S
C3041 C3042 1.516 . S
C3042 C3041 1.516 . S
C3042 C3043 1.502 . S
C3042 C3044 1.561 . S
C3042 C3045 1.526 . S
C3043 H3027 0.959 . S
C3043 H3028 0.959 . S
C3043 H3029 0.961 . S
C3043 C3042 1.502 . S
C3044 H3030 0.960 . S
C3044 H3031 0.961 . S
C3044 H3032 0.959 . S
C3044 C3042 1.561 . S
C3045 C3042 1.526 . S
C3045 C3046 1.396 . S
C3045 C3050 1.390 . S
C3046 C3040 1.465 . S
C3046 C3045 1.396 . S
C3046 C3047 1.399 . S
C3047 H3033 0.929 . S
C3047 C3046 1.399 . S
C3047 C3048 1.385 . S
C3048 H3034 0.931 . S
C3048 C3047 1.385 . S
C3048 C3049 1.389 . S
C3049 C3048 1.389 . S
C3049 C3050 1.387 . S
C3050 H3035 0.930 . S
C3050 C3045 1.390 . S
C3050 C3049 1.387 . S
H3051 C3063 0.930 . S
H3052 C3065 0.930 . S
H3053 C3066 0.930 . S
H3054 C3070 0.959 . S
H3055 C3070 0.959 . S
H3056 C3070 0.961 . S
H3057 C3071 0.960 . S
H3058 C3071 0.961 . S
H3059 C3071 0.959 . S
H3060 C3074 0.929 . S
H3061 C3075 0.931 . S
H3062 C3077 0.930 . S
C3063 H3051 0.930 . S
C3063 C3064 1.399 . S
C3063 C3068 1.399 . S
C3064 C3063 1.399 . S
C3064 C3065 1.376 . S
C3065 H3052 0.930 . S
C3065 C3064 1.376 . S
C3065 C3066 1.388 . S
C3066 H3053 0.930 . S
C3066 C3065 1.388 . S
C3066 C3067 1.390 . S
C3067 C3066 1.390 . S
C3067 C3068 1.394 . S
C3067 C3073 1.465 . S
C3068 C3063 1.399 . S
C3068 C3067 1.394 . S
C3068 C3069 1.516 . S
C3069 C3068 1.516 . S
C3069 C3070 1.502 . S
C3069 C3071 1.561 . S
C3069 C3072 1.526 . S
C3070 H3054 0.959 . S
C3070 H3055 0.959 . S
C3070 H3056 0.961 . S
C3070 C3069 1.502 . S
C3071 H3057 0.960 . S
C3071 H3058 0.961 . S
C3071 H3059 0.959 . S
C3071 C3069 1.561 . S
C3072 C3069 1.526 . S
C3072 C3073 1.396 . S
C3072 C3077 1.390 . S
C3073 C3067 1.465 . S
C3073 C3072 1.396 . S
C3073 C3074 1.399 . S
C3074 H3060 0.929 . S
C3074 C3073 1.399 . S
C3074 C3075 1.385 . S
C3075 H3061 0.931 . S
C3075 C3074 1.385 . S
C3075 C3076 1.389 . S
C3076 C3075 1.389 . S
C3076 C3077 1.387 . S
C3077 H3062 0.930 . S
C3077 C3072 1.390 . S
C3077 C3076 1.387 . S
H3078 C3090 0.930 . S
H3079 C3092 0.930 . S
H3080 C3093 0.930 . S
H3081 C3097 0.959 . S
H3082 C3097 0.959 . S
H3083 C3097 0.961 . S
H3084 C3098 0.960 . S
H3085 C3098 0.961 . S
H3086 C3098 0.959 . S
H3087 C3101 0.929 . S
H3088 C3102 0.931 . S
H3089 C3104 0.930 . S
C3090 H3078 0.930 . S
C3090 C3091 1.399 . S
C3090 C3095 1.399 . S
C3091 C3090 1.399 . S
C3091 C3092 1.376 . S
C3092 H3079 0.930 . S
C3092 C3091 1.376 . S
C3092 C3093 1.388 . S
C3093 H3080 0.930 . S
C3093 C3092 1.388 . S
C3093 C3094 1.390 . S
C3094 C3093 1.390 . S
C3094 C3095 1.394 . S
C3094 C3100 1.465 . S
C3095 C3090 1.399 . S
C3095 C3094 1.394 . S
C3095 C3096 1.516 . S
C3096 C3095 1.516 . S
C3096 C3097 1.502 . S
C3096 C3098 1.561 . S
C3096 C3099 1.526 . S
C3097 H3081 0.959 . S
C3097 H3082 0.959 . S
C3097 H3083 0.961 . S
C3097 C3096 1.502 . S
C3098 H3084 0.960 . S
C3098 H3085 0.961 . S
C3098 H3086 0.959 . S
C3098 C3096 1.561 . S
C3099 C3096 1.526 . S
C3099 C3100 1.396 . S
C3099 C3104 1.390 . S
C3100 C3094 1.465 . S
C3100 C3099 1.396 . S
C3100 C3101 1.399 . S
C3101 H3087 0.929 . S
C3101 C3100 1.399 . S
C3101 C3102 1.385 . S
C3102 H3088 0.931 . S
C3102 C3101 1.385 . S
C3102 C3103 1.389 . S
C3103 C3102 1.389 . S
C3103 C3104 1.387 . S
C3104 H3089 0.930 . S
C3104 C3099 1.390 . S
C3104 C3103 1.387 . S
H3105 C3117 0.930 . S
H3106 C3119 0.930 . S
H3107 C3120 0.930 . S
H3108 C3124 0.959 . S
H3109 C3124 0.959 . S
H3110 C3124 0.961 . S
H3111 C3125 0.960 . S
H3112 C3125 0.961 . S
H3113 C3125 0.959 . S
H3114 C3128 0.929 . S
H3115 C3129 0.931 . S
H3116 C3131 0.930 . S
C3117 H3105 0.930 . S
C3117 C3118 1.399 . S
C3117 C3122 1.399 . S
C3118 C3117 1.399 . S
C3118 C3119 1.376 . S
C3119 H3106 0.930 . S
C3119 C3118 1.376 . S
C3119 C3120 1.388 . S
C3120 H3107 0.930 . S
C3120 C3119 1.388 . S
C3120 C3121 1.390 . S
C3121 C3120 1.390 . S
C3121 C3122 1.394 . S
C3121 C3127 1.465 . S
C3122 C3117 1.399 . S
C3122 C3121 1.394 . S
C3122 C3123 1.516 . S
C3123 C3122 1.516 . S
C3123 C3124 1.502 . S
C3123 C3125 1.561 . S
C3123 C3126 1.526 . S
C3124 H3108 0.959 . S
C3124 H3109 0.959 . S
C3124 H3110 0.961 . S
C3124 C3123 1.502 . S
C3125 H3111 0.960 . S
C3125 H3112 0.961 . S
C3125 H3113 0.959 . S
C3125 C3123 1.561 . S
C3126 C3123 1.526 . S
C3126 C3127 1.396 . S
C3126 C3131 1.390 . S
C3127 C3121 1.465 . S
C3127 C3126 1.396 . S
C3127 C3128 1.399 . S
C3128 H3114 0.929 . S
C3128 C3127 1.399 . S
C3128 C3129 1.385 . S
C3129 H3115 0.931 . S
C3129 C3128 1.385 . S
C3129 C3130 1.389 . S
C3130 C3129 1.389 . S
C3130 C3131 1.387 . S
C3131 H3116 0.930 . S
C3131 C3126 1.390 . S
C3131 C3130 1.387 . S
H3132 C3144 0.930 . S
H3133 C3146 0.930 . S
H3134 C3147 0.930 . S
H3135 C3151 0.959 . S
H3136 C3151 0.959 . S
H3137 C3151 0.961 . S
H3138 C3152 0.960 . S
H3139 C3152 0.961 . S
H3140 C3152 0.959 . S
H3141 C3155 0.929 . S
H3142 C3156 0.931 . S
H3143 C3158 0.930 . S
C3144 H3132 0.930 . S
C3144 C3145 1.399 . S
C3144 C3149 1.399 . S
C3145 C3144 1.399 . S
C3145 C3146 1.376 . S
C3146 H3133 0.930 . S
C3146 C3145 1.376 . S
C3146 C3147 1.388 . S
C3147 H3134 0.930 . S
C3147 C3146 1.388 . S
C3147 C3148 1.390 . S
C3148 C3147 1.390 . S
C3148 C3149 1.394 . S
C3148 C3154 1.465 . S
C3149 C3144 1.399 . S
C3149 C3148 1.394 . S
C3149 C3150 1.516 . S
C3150 C3149 1.516 . S
C3150 C3151 1.502 . S
C3150 C3152 1.561 . S
C3150 C3153 1.526 . S
C3151 H3135 0.959 . S
C3151 H3136 0.959 . S
C3151 H3137 0.961 . S
C3151 C3150 1.502 . S
C3152 H3138 0.960 . S
C3152 H3139 0.961 . S
C3152 H3140 0.959 . S
C3152 C3150 1.561 . S
C3153 C3150 1.526 . S
C3153 C3154 1.396 . S
C3153 C3158 1.390 . S
C3154 C3148 1.465 . S
C3154 C3153 1.396 . S
C3154 C3155 1.399 . S
C3155 H3141 0.929 . S
C3155 C3154 1.399 . S
C3155 C3156 1.385 . S
C3156 H3142 0.931 . S
C3156 C3155 1.385 . S
C3156 C3157 1.389 . S
C3157 C3156 1.389 . S
C3157 C3158 1.387 . S
C3158 H3143 0.930 . S
C3158 C3153 1.390 . S
C3158 C3157 1.387 . S
H3159 C3171 0.930 . S
H3160 C3173 0.930 . S
H3161 C3174 0.930 . S
H3162 C3178 0.959 . S
H3163 C3178 0.959 . S
H3164 C3178 0.961 . S
H3165 C3179 0.960 . S
H3166 C3179 0.961 . S
H3167 C3179 0.959 . S
H3168 C3182 0.929 . S
H3169 C3183 0.931 . S
H3170 C3185 0.930 . S
C3171 H3159 0.930 . S
C3171 C3172 1.399 . S
C3171 C3176 1.399 . S
C3172 C3171 1.399 . S
C3172 C3173 1.376 . S
C3173 H3160 0.930 . S
C3173 C3172 1.376 . S
C3173 C3174 1.388 . S
C3174 H3161 0.930 . S
C3174 C3173 1.388 . S
C3174 C3175 1.390 . S
C3175 C3174 1.390 . S
C3175 C3176 1.394 . S
C3175 C3181 1.465 . S
C3176 C3171 1.399 . S
C3176 C3175 1.394 . S
C3176 C3177 1.516 . S
C3177 C3176 1.516 . S
C3177 C3178 1.502 . S
C3177 C3179 1.561 . S
C3177 C3180 1.526 . S
C3178 H3162 0.959 . S
C3178 H3163 0.959 . S
C3178 H3164 0.961 . S
C3178 C3177 1.502 . S
C3179 H3165 0.960 . S
C3179 H3166 0.961 . S
C3179 H3167 0.959 . S
C3179 C3177 1.561 . S
C3180 C3177 1.526 . S
C3180 C3181 1.396 . S
C3180 C3185 1.390 . S
C3181 C3175 1.465 . S
C3181 C3180 1.396 . S
C3181 C3182 1.399 . S
C3182 H3168 0.929 . S
C3182 C3181 1.399 . S
C3182 C3183 1.385 . S
C3183 H3169 0.931 . S
C3183 C3182 1.385 . S
C3183 C3184 1.389 . S
C3184 C3183 1.389 . S
C3184 C3185 1.387 . S
C3185 H3170 0.930 . S
C3185 C3180 1.390 . S
C3185 C3184 1.387 . S
H3186 C3198 0.930 . S
H3187 C3200 0.930 . S
H3188 C3201 0.930 . S
H3189 C3205 0.959 . S
H3190 C3205 0.959 . S
H3191 C3205 0.961 . S
H3192 C3206 0.960 . S
H3193 C3206 0.961 . S
H3194 C3206 0.959 . S
H3195 C3209 0.929 . S
H3196 C3210 0.931 . S
H3197 C3212 0.930 . S
C3198 H3186 0.930 . S
C3198 C3199 1.399 . S
C3198 C3203 1.399 . S
C3199 C3198 1.399 . S
C3199 C3200 1.376 . S
C3200 H3187 0.930 . S
C3200 C3199 1.376 . S
C3200 C3201 1.388 . S
C3201 H3188 0.930 . S
C3201 C3200 1.388 . S
C3201 C3202 1.390 . S
C3202 C3201 1.390 . S
C3202 C3203 1.394 . S
C3202 C3208 1.465 . S
C3203 C3198 1.399 . S
C3203 C3202 1.394 . S
C3203 C3204 1.516 . S
C3204 C3203 1.516 . S
C3204 C3205 1.502 . S
C3204 C3206 1.561 . S
C3204 C3207 1.526 . S
C3205 H3189 0.959 . S
C3205 H3190 0.959 . S
C3205 H3191 0.961 . S
C3205 C3204 1.502 . S
C3206 H3192 0.960 . S
C3206 H3193 0.961 . S
C3206 H3194 0.959 . S
C3206 C3204 1.561 . S
C3207 C3204 1.526 . S
C3207 C3208 1.396 . S
C3207 C3212 1.390 . S
C3208 C3202 1.465 . S
C3208 C3207 1.396 . S
C3208 C3209 1.399 . S
C3209 H3195 0.929 . S
C3209 C3208 1.399 . S
C3209 C3210 1.385 . S
C3210 H3196 0.931 . S
C3210 C3209 1.385 . S
C3210 C3211 1.389 . S
C3211 C3210 1.389 . S
C3211 C3212 1.387 . S
C3212 H3197 0.930 . S
C3212 C3207 1.390 . S
C3212 C3211 1.387 . S
H3213 C3225 0.930 . S
H3214 C3227 0.930 . S
H3215 C3228 0.930 . S
H3216 C3232 0.959 . S
H3217 C3232 0.959 . S
H3218 C3232 0.961 . S
H3219 C3233 0.960 . S
H3220 C3233 0.961 . S
H3221 C3233 0.959 . S
H3222 C3236 0.929 . S
H3223 C3237 0.931 . S
H3224 C3239 0.930 . S
C3225 H3213 0.930 . S
C3225 C3226 1.399 . S
C3225 C3230 1.399 . S
C3226 C3225 1.399 . S
C3226 C3227 1.376 . S
C3227 H3214 0.930 . S
C3227 C3226 1.376 . S
C3227 C3228 1.388 . S
C3228 H3215 0.930 . S
C3228 C3227 1.388 . S
C3228 C3229 1.390 . S
C3229 C3228 1.390 . S
C3229 C3230 1.394 . S
C3229 C3235 1.465 . S
C3230 C3225 1.399 . S
C3230 C3229 1.394 . S
C3230 C3231 1.516 . S
C3231 C3230 1.516 . S
C3231 C3232 1.502 . S
C3231 C3233 1.561 . S
C3231 C3234 1.526 . S
C3232 H3216 0.959 . S
C3232 H3217 0.959 . S
C3232 H3218 0.961 . S
C3232 C3231 1.502 . S
C3233 H3219 0.960 . S
C3233 H3220 0.961 . S
C3233 H3221 0.959 . S
C3233 C3231 1.561 . S
C3234 C3231 1.526 . S
C3234 C3235 1.396 . S
C3234 C3239 1.390 . S
C3235 C3229 1.465 . S
C3235 C3234 1.396 . S
C3235 C3236 1.399 . S
C3236 H3222 0.929 . S
C3236 C3235 1.399 . S
C3236 C3237 1.385 . S
C3237 H3223 0.931 . S
C3237 C3236 1.385 . S
C3237 C3238 1.389 . S
C3238 C3237 1.389 . S
C3238 C3239 1.387 . S
C3239 H3224 0.930 . S
C3239 C3234 1.390 . S
C3239 C3238 1.387 . S
H3240 C3252 0.930 . S
H3241 C3254 0.930 . S
H3242 C3255 0.930 . S
H3243 C3259 0.959 . S
H3244 C3259 0.959 . S
H3245 C3259 0.961 . S
H3246 C3260 0.960 . S
H3247 C3260 0.961 . S
H3248 C3260 0.959 . S
H3249 C3263 0.929 . S
H3250 C3264 0.931 . S
H3251 C3266 0.930 . S
C3252 H3240 0.930 . S
C3252 C3253 1.399 . S
C3252 C3257 1.399 . S
C3253 C3252 1.399 . S
C3253 C3254 1.376 . S
C3254 H3241 0.930 . S
C3254 C3253 1.376 . S
C3254 C3255 1.388 . S
C3255 H3242 0.930 . S
C3255 C3254 1.388 . S
C3255 C3256 1.390 . S
C3256 C3255 1.390 . S
C3256 C3257 1.394 . S
C3256 C3262 1.465 . S
C3257 C3252 1.399 . S
C3257 C3256 1.394 . S
C3257 C3258 1.516 . S
C3258 C3257 1.516 . S
C3258 C3259 1.502 . S
C3258 C3260 1.561 . S
C3258 C3261 1.526 . S
C3259 H3243 0.959 . S
C3259 H3244 0.959 . S
C3259 H3245 0.961 . S
C3259 C3258 1.502 . S
C3260 H3246 0.960 . S
C3260 H3247 0.961 . S
C3260 H3248 0.959 . S
C3260 C3258 1.561 . S
C3261 C3258 1.526 . S
C3261 C3262 1.396 . S
C3261 C3266 1.390 . S
C3262 C3256 1.465 . S
C3262 C3261 1.396 . S
C3262 C3263 1.399 . S
C3263 H3249 0.929 . S
C3263 C3262 1.399 . S
C3263 C3264 1.385 . S
C3264 H3250 0.931 . S
C3264 C3263 1.385 . S
C3264 C3265 1.389 . S
C3265 C3264 1.389 . S
C3265 C3266 1.387 . S
C3266 H3251 0.930 . S
C3266 C3261 1.390 . S
C3266 C3265 1.387 . S
H3267 C3279 0.930 . S
H3268 C3281 0.930 . S
H3269 C3282 0.930 . S
H3270 C3286 0.959 . S
H3271 C3286 0.959 . S
H3272 C3286 0.961 . S
H3273 C3287 0.960 . S
H3274 C3287 0.961 . S
H3275 C3287 0.959 . S
H3276 C3290 0.929 . S
H3277 C3291 0.931 . S
H3278 C3293 0.930 . S
C3279 H3267 0.930 . S
C3279 C3280 1.399 . S
C3279 C3284 1.399 . S
C3280 C3279 1.399 . S
C3280 C3281 1.376 . S
C3281 H3268 0.930 . S
C3281 C3280 1.376 . S
C3281 C3282 1.388 . S
C3282 H3269 0.930 . S
C3282 C3281 1.388 . S
C3282 C3283 1.390 . S
C3283 C3282 1.390 . S
C3283 C3284 1.394 . S
C3283 C3289 1.465 . S
C3284 C3279 1.399 . S
C3284 C3283 1.394 . S
C3284 C3285 1.516 . S
C3285 C3284 1.516 . S
C3285 C3286 1.502 . S
C3285 C3287 1.561 . S
C3285 C3288 1.526 . S
C3286 H3270 0.959 . S
C3286 H3271 0.959 . S
C3286 H3272 0.961 . S
C3286 C3285 1.502 . S
C3287 H3273 0.960 . S
C3287 H3274 0.961 . S
C3287 H3275 0.959 . S
C3287 C3285 1.561 . S
C3288 C3285 1.526 . S
C3288 C3289 1.396 . S
C3288 C3293 1.390 . S
C3289 C3283 1.465 . S
C3289 C3288 1.396 . S
C3289 C3290 1.399 . S
C3290 H3276 0.929 . S
C3290 C3289 1.399 . S
C3290 C3291 1.385 . S
C3291 H3277 0.931 . S
C3291 C3290 1.385 . S
C3291 C3292 1.389 . S
C3292 C3291 1.389 . S
C3292 C3293 1.387 . S
C3293 H3278 0.930 . S
C3293 C3288 1.390 . S
C3293 C3292 1.387 . S
H3294 C3306 0.930 . S
H3295 C3308 0.930 . S
H3296 C3309 0.930 . S
H3297 C3313 0.959 . S
H3298 C3313 0.959 . S
H3299 C3313 0.961 . S
H3300 C3314 0.960 . S
H3301 C3314 0.961 . S
H3302 C3314 0.959 . S
H3303 C3317 0.929 . S
H3304 C3318 0.931 . S
H3305 C3320 0.930 . S
C3306 H3294 0.930 . S
C3306 C3307 1.399 . S
C3306 C3311 1.399 . S
C3307 C3306 1.399 . S
C3307 C3308 1.376 . S
C3308 H3295 0.930 . S
C3308 C3307 1.376 . S
C3308 C3309 1.388 . S
C3309 H3296 0.930 . S
C3309 C3308 1.388 . S
C3309 C3310 1.390 . S
C3310 C3309 1.390 . S
C3310 C3311 1.394 . S
C3310 C3316 1.465 . S
C3311 C3306 1.399 . S
C3311 C3310 1.394 . S
C3311 C3312 1.516 . S
C3312 C3311 1.516 . S
C3312 C3313 1.502 . S
C3312 C3314 1.561 . S
C3312 C3315 1.526 . S
C3313 H3297 0.959 . S
C3313 H3298 0.959 . S
C3313 H3299 0.961 . S
C3313 C3312 1.502 . S
C3314 H3300 0.960 . S
C3314 H3301 0.961 . S
C3314 H3302 0.959 . S
C3314 C3312 1.561 . S
C3315 C3312 1.526 . S
C3315 C3316 1.396 . S
C3315 C3320 1.390 . S
C3316 C3310 1.465 . S
C3316 C3315 1.396 . S
C3316 C3317 1.399 . S
C3317 H3303 0.929 . S
C3317 C3316 1.399 . S
C3317 C3318 1.385 . S
C3318 H3304 0.931 . S
C3318 C3317 1.385 . S
C3318 C3319 1.389 . S
C3319 C3318 1.389 . S
C3319 C3320 1.387 . S
C3320 H3305 0.930 . S
C3320 C3315 1.390 . S
C3320 C3319 1.387 . S
H3321 C3333 0.930 . S
H3322 C3335 0.930 . S
H3323 C3336 0.930 . S
H3324 C3340 0.959 . S
H3325 C3340 0.959 . S
H3326 C3340 0.961 . S
H3327 C3341 0.960 . S
H3328 C3341 0.961 . S
H3329 C3341 0.959 . S
H3330 C3344 0.929 . S
H3331 C3345 0.931 . S
H3332 C3347 0.930 . S
C3333 H3321 0.930 . S
C3333 C3334 1.399 . S
C3333 C3338 1.399 . S
C3334 C3333 1.399 . S
C3334 C3335 1.376 . S
C3335 H3322 0.930 . S
C3335 C3334 1.376 . S
C3335 C3336 1.388 . S
C3336 H3323 0.930 . S
C3336 C3335 1.388 . S
C3336 C3337 1.390 . S
C3337 C3336 1.390 . S
C3337 C3338 1.394 . S
C3337 C3343 1.465 . S
C3338 C3333 1.399 . S
C3338 C3337 1.394 . S
C3338 C3339 1.516 . S
C3339 C3338 1.516 . S
C3339 C3340 1.502 . S
C3339 C3341 1.561 . S
C3339 C3342 1.526 . S
C3340 H3324 0.959 . S
C3340 H3325 0.959 . S
C3340 H3326 0.961 . S
C3340 C3339 1.502 . S
C3341 H3327 0.960 . S
C3341 H3328 0.961 . S
C3341 H3329 0.959 . S
C3341 C3339 1.561 . S
C3342 C3339 1.526 . S
C3342 C3343 1.396 . S
C3342 C3347 1.390 . S
C3343 C3337 1.465 . S
C3343 C3342 1.396 . S
C3343 C3344 1.399 . S
C3344 H3330 0.929 . S
C3344 C3343 1.399 . S
C3344 C3345 1.385 . S
C3345 H3331 0.931 . S
C3345 C3344 1.385 . S
C3345 C3346 1.389 . S
C3346 C3345 1.389 . S
C3346 C3347 1.387 . S
C3347 H3332 0.930 . S
C3347 C3342 1.390 . S
C3347 C3346 1.387 . S
H3348 C3360 0.930 . S
H3349 C3362 0.930 . S
H3350 C3363 0.930 . S
H3351 C3367 0.959 . S
H3352 C3367 0.959 . S
H3353 C3367 0.961 . S
H3354 C3368 0.960 . S
H3355 C3368 0.961 . S
H3356 C3368 0.959 . S
H3357 C3371 0.929 . S
H3358 C3372 0.931 . S
H3359 C3374 0.930 . S
C3360 H3348 0.930 . S
C3360 C3361 1.399 . S
C3360 C3365 1.399 . S
C3361 C3360 1.399 . S
C3361 C3362 1.376 . S
C3362 H3349 0.930 . S
C3362 C3361 1.376 . S
C3362 C3363 1.388 . S
C3363 H3350 0.930 . S
C3363 C3362 1.388 . S
C3363 C3364 1.390 . S
C3364 C3363 1.390 . S
C3364 C3365 1.394 . S
C3364 C3370 1.465 . S
C3365 C3360 1.399 . S
C3365 C3364 1.394 . S
C3365 C3366 1.516 . S
C3366 C3365 1.516 . S
C3366 C3367 1.502 . S
C3366 C3368 1.561 . S
C3366 C3369 1.526 . S
C3367 H3351 0.959 . S
C3367 H3352 0.959 . S
C3367 H3353 0.961 . S
C3367 C3366 1.502 . S
C3368 H3354 0.960 . S
C3368 H3355 0.961 . S
C3368 H3356 0.959 . S
C3368 C3366 1.561 . S
C3369 C3366 1.526 . S
C3369 C3370 1.396 . S
C3369 C3374 1.390 . S
C3370 C3364 1.465 . S
C3370 C3369 1.396 . S
C3370 C3371 1.399 . S
C3371 H3357 0.929 . S
C3371 C3370 1.399 . S
C3371 C3372 1.385 . S
C3372 H3358 0.931 . S
C3372 C3371 1.385 . S
C3372 C3373 1.389 . S
C3373 C3372 1.389 . S
C3373 C3374 1.387 . S
C3374 H3359 0.930 . S
C3374 C3369 1.390 . S
C3374 C3373 1.387 . S
H3375 C3387 0.930 . S
H3376 C3389 0.930 . S
H3377 C3390 0.930 . S
H3378 C3394 0.959 . S
H3379 C3394 0.959 . S
H3380 C3394 0.961 . S
H3381 C3395 0.960 . S
H3382 C3395 0.961 . S
H3383 C3395 0.959 . S
H3384 C3398 0.929 . S
H3385 C3399 0.931 . S
H3386 C3401 0.930 . S
C3387 H3375 0.930 . S
C3387 C3388 1.399 . S
C3387 C3392 1.399 . S
C3388 C3387 1.399 . S
C3388 C3389 1.376 . S
C3389 H3376 0.930 . S
C3389 C3388 1.376 . S
C3389 C3390 1.388 . S
C3390 H3377 0.930 . S
C3390 C3389 1.388 . S
C3390 C3391 1.390 . S
C3391 C3390 1.390 . S
C3391 C3392 1.394 . S
C3391 C3397 1.465 . S
C3392 C3387 1.399 . S
C3392 C3391 1.394 . S
C3392 C3393 1.516 . S
C3393 C3392 1.516 . S
C3393 C3394 1.502 . S
C3393 C3395 1.561 . S
C3393 C3396 1.526 . S
C3394 H3378 0.959 . S
C3394 H3379 0.959 . S
C3394 H3380 0.961 . S
C3394 C3393 1.502 . S
C3395 H3381 0.960 . S
C3395 H3382 0.961 . S
C3395 H3383 0.959 . S
C3395 C3393 1.561 . S
C3396 C3393 1.526 . S
C3396 C3397 1.396 . S
C3396 C3401 1.390 . S
C3397 C3391 1.465 . S
C3397 C3396 1.396 . S
C3397 C3398 1.399 . S
C3398 H3384 0.929 . S
C3398 C3397 1.399 . S
C3398 C3399 1.385 . S
C3399 H3385 0.931 . S
C3399 C3398 1.385 . S
C3399 C3400 1.389 . S
C3400 C3399 1.389 . S
C3400 C3401 1.387 . S
C3401 H3386 0.930 . S
C3401 C3396 1.390 . S
C3401 C3400 1.387 . S
H3402 C3414 0.930 . S
H3403 C3416 0.930 . S
H3404 C3417 0.930 . S
H3405 C3421 0.959 . S
H3406 C3421 0.959 . S
H3407 C3421 0.961 . S
H3408 C3422 0.960 . S
H3409 C3422 0.961 . S
H3410 C3422 0.959 . S
H3411 C3425 0.929 . S
H3412 C3426 0.931 . S
H3413 C3428 0.930 . S
C3414 H3402 0.930 . S
C3414 C3415 1.399 . S
C3414 C3419 1.399 . S
C3415 C3414 1.399 . S
C3415 C3416 1.376 . S
C3416 H3403 0.930 . S
C3416 C3415 1.376 . S
C3416 C3417 1.388 . S
C3417 H3404 0.930 . S
C3417 C3416 1.388 . S
C3417 C3418 1.390 . S
C3418 C3417 1.390 . S
C3418 C3419 1.394 . S
C3418 C3424 1.465 . S
C3419 C3414 1.399 . S
C3419 C3418 1.394 . S
C3419 C3420 1.516 . S
C3420 C3419 1.516 . S
C3420 C3421 1.502 . S
C3420 C3422 1.561 . S
C3420 C3423 1.526 . S
C3421 H3405 0.959 . S
C3421 H3406 0.959 . S
C3421 H3407 0.961 . S
C3421 C3420 1.502 . S
C3422 H3408 0.960 . S
C3422 H3409 0.961 . S
C3422 H3410 0.959 . S
C3422 C3420 1.561 . S
C3423 C3420 1.526 . S
C3423 C3424 1.396 . S
C3423 C3428 1.390 . S
C3424 C3418 1.465 . S
C3424 C3423 1.396 . S
C3424 C3425 1.399 . S
C3425 H3411 0.929 . S
C3425 C3424 1.399 . S
C3425 C3426 1.385 . S
C3426 H3412 0.931 . S
C3426 C3425 1.385 . S
C3426 C3427 1.389 . S
C3427 C3426 1.389 . S
C3427 C3428 1.387 . S
C3428 H3413 0.930 . S
C3428 C3423 1.390 . S
C3428 C3427 1.387 . S
H3429 C3441 0.930 . S
H3430 C3443 0.930 . S
H3431 C3444 0.930 . S
H3432 C3448 0.959 . S
H3433 C3448 0.959 . S
H3434 C3448 0.961 . S
H3435 C3449 0.960 . S
H3436 C3449 0.961 . S
H3437 C3449 0.959 . S
H3438 C3452 0.929 . S
H3439 C3453 0.931 . S
H3440 C3455 0.930 . S
C3441 H3429 0.930 . S
C3441 C3442 1.399 . S
C3441 C3446 1.399 . S
C3442 C3441 1.399 . S
C3442 C3443 1.376 . S
C3443 H3430 0.930 . S
C3443 C3442 1.376 . S
C3443 C3444 1.388 . S
C3444 H3431 0.930 . S
C3444 C3443 1.388 . S
C3444 C3445 1.390 . S
C3445 C3444 1.390 . S
C3445 C3446 1.394 . S
C3445 C3451 1.465 . S
C3446 C3441 1.399 . S
C3446 C3445 1.394 . S
C3446 C3447 1.516 . S
C3447 C3446 1.516 . S
C3447 C3448 1.502 . S
C3447 C3449 1.561 . S
C3447 C3450 1.526 . S
C3448 H3432 0.959 . S
C3448 H3433 0.959 . S
C3448 H3434 0.961 . S
C3448 C3447 1.502 . S
C3449 H3435 0.960 . S
C3449 H3436 0.961 . S
C3449 H3437 0.959 . S
C3449 C3447 1.561 . S
C3450 C3447 1.526 . S
C3450 C3451 1.396 . S
C3450 C3455 1.390 . S
C3451 C3445 1.465 . S
C3451 C3450 1.396 . S
C3451 C3452 1.399 . S
C3452 H3438 0.929 . S
C3452 C3451 1.399 . S
C3452 C3453 1.385 . S
C3453 H3439 0.931 . S
C3453 C3452 1.385 . S
C3453 C3454 1.389 . S
C3454 C3453 1.389 . S
C3454 C3455 1.387 . S
C3455 H3440 0.930 . S
C3455 C3450 1.390 . S
C3455 C3454 1.387 . S
H3456 C3468 0.930 . S
H3457 C3470 0.930 . S
H3458 C3471 0.930 . S
H3459 C3475 0.959 . S
H3460 C3475 0.959 . S
H3461 C3475 0.961 . S
H3462 C3476 0.960 . S
H3463 C3476 0.961 . S
H3464 C3476 0.959 . S
H3465 C3479 0.929 . S
H3466 C3480 0.931 . S
H3467 C3482 0.930 . S
C3468 H3456 0.930 . S
C3468 C3469 1.399 . S
C3468 C3473 1.399 . S
C3469 C3468 1.399 . S
C3469 C3470 1.376 . S
C3470 H3457 0.930 . S
C3470 C3469 1.376 . S
C3470 C3471 1.388 . S
C3471 H3458 0.930 . S
C3471 C3470 1.388 . S
C3471 C3472 1.390 . S
C3472 C3471 1.390 . S
C3472 C3473 1.394 . S
C3472 C3478 1.465 . S
C3473 C3468 1.399 . S
C3473 C3472 1.394 . S
C3473 C3474 1.516 . S
C3474 C3473 1.516 . S
C3474 C3475 1.502 . S
C3474 C3476 1.561 . S
C3474 C3477 1.526 . S
C3475 H3459 0.959 . S
C3475 H3460 0.959 . S
C3475 H3461 0.961 . S
C3475 C3474 1.502 . S
C3476 H3462 0.960 . S
C3476 H3463 0.961 . S
C3476 H3464 0.959 . S
C3476 C3474 1.561 . S
C3477 C3474 1.526 . S
C3477 C3478 1.396 . S
C3477 C3482 1.390 . S
C3478 C3472 1.465 . S
C3478 C3477 1.396 . S
C3478 C3479 1.399 . S
C3479 H3465 0.929 . S
C3479 C3478 1.399 . S
C3479 C3480 1.385 . S
C3480 H3466 0.931 . S
C3480 C3479 1.385 . S
C3480 C3481 1.389 . S
C3481 C3480 1.389 . S
C3481 C3482 1.387 . S
C3482 H3467 0.930 . S
C3482 C3477 1.390 . S
C3482 C3481 1.387 . S
H3483 C3495 0.930 . S
H3484 C3497 0.930 . S
H3485 C3498 0.930 . S
H3486 C3502 0.959 . S
H3487 C3502 0.959 . S
H3488 C3502 0.961 . S
H3489 C3503 0.960 . S
H3490 C3503 0.961 . S
H3491 C3503 0.959 . S
H3492 C3506 0.929 . S
H3493 C3507 0.931 . S
H3494 C3509 0.930 . S
C3495 H3483 0.930 . S
C3495 C3496 1.399 . S
C3495 C3500 1.399 . S
C3496 C3495 1.399 . S
C3496 C3497 1.376 . S
C3497 H3484 0.930 . S
C3497 C3496 1.376 . S
C3497 C3498 1.388 . S
C3498 H3485 0.930 . S
C3498 C3497 1.388 . S
C3498 C3499 1.390 . S
C3499 C3498 1.390 . S
C3499 C3500 1.394 . S
C3499 C3505 1.465 . S
C3500 C3495 1.399 . S
C3500 C3499 1.394 . S
C3500 C3501 1.516 . S
C3501 C3500 1.516 . S
C3501 C3502 1.502 . S
C3501 C3503 1.561 . S
C3501 C3504 1.526 . S
C3502 H3486 0.959 . S
C3502 H3487 0.959 . S
C3502 H3488 0.961 . S
C3502 C3501 1.502 . S
C3503 H3489 0.960 . S
C3503 H3490 0.961 . S
C3503 H3491 0.959 . S
C3503 C3501 1.561 . S
C3504 C3501 1.526 . S
C3504 C3505 1.396 . S
C3504 C3509 1.390 . S
C3505 C3499 1.465 . S
C3505 C3504 1.396 . S
C3505 C3506 1.399 . S
C3506 H3492 0.929 . S
C3506 C3505 1.399 . S
C3506 C3507 1.385 . S
C3507 H3493 0.931 . S
C3507 C3506 1.385 . S
C3507 C3508 1.389 . S
C3508 C3507 1.389 . S
C3508 C3509 1.387 . S
C3509 H3494 0.930 . S
C3509 C3504 1.390 . S
C3509 C3508 1.387 . S
H3510 C3522 0.930 . S
H3511 C3524 0.930 . S
H3512 C3525 0.930 . S
H3513 C3529 0.959 . S
H3514 C3529 0.959 . S
H3515 C3529 0.961 . S
H3516 C3530 0.960 . S
H3517 C3530 0.961 . S
H3518 C3530 0.959 . S
H3519 C3533 0.929 . S
H3520 C3534 0.931 . S
H3521 C3536 0.930 . S
C3522 H3510 0.930 . S
C3522 C3523 1.399 . S
C3522 C3527 1.399 . S
C3523 C3522 1.399 . S
C3523 C3524 1.376 . S
C3524 H3511 0.930 . S
C3524 C3523 1.376 . S
C3524 C3525 1.388 . S
C3525 H3512 0.930 . S
C3525 C3524 1.388 . S
C3525 C3526 1.390 . S
C3526 C3525 1.390 . S
C3526 C3527 1.394 . S
C3526 C3532 1.465 . S
C3527 C3522 1.399 . S
C3527 C3526 1.394 . S
C3527 C3528 1.516 . S
C3528 C3527 1.516 . S
C3528 C3529 1.502 . S
C3528 C3530 1.561 . S
C3528 C3531 1.526 . S
C3529 H3513 0.959 . S
C3529 H3514 0.959 . S
C3529 H3515 0.961 . S
C3529 C3528 1.502 . S
C3530 H3516 0.960 . S
C3530 H3517 0.961 . S
C3530 H3518 0.959 . S
C3530 C3528 1.561 . S
C3531 C3528 1.526 . S
C3531 C3532 1.396 . S
C3531 C3536 1.390 . S
C3532 C3526 1.465 . S
C3532 C3531 1.396 . S
C3532 C3533 1.399 . S
C3533 H3519 0.929 . S
C3533 C3532 1.399 . S
C3533 C3534 1.385 . S
C3534 H3520 0.931 . S
C3534 C3533 1.385 . S
C3534 C3535 1.389 . S
C3535 C3534 1.389 . S
C3535 C3536 1.387 . S
C3536 H3521 0.930 . S
C3536 C3531 1.390 . S
C3536 C3535 1.387 . S
H3537 C3549 0.930 . S
H3538 C3551 0.930 . S
H3539 C3552 0.930 . S
H3540 C3556 0.959 . S
H3541 C3556 0.959 . S
H3542 C3556 0.961 . S
H3543 C3557 0.960 . S
H3544 C3557 0.961 . S
H3545 C3557 0.959 . S
H3546 C3560 0.929 . S
H3547 C3561 0.931 . S
H3548 C3563 0.930 . S
C3549 H3537 0.930 . S
C3549 C3550 1.399 . S
C3549 C3554 1.399 . S
C3550 C3549 1.399 . S
C3550 C3551 1.376 . S
C3551 H3538 0.930 . S
C3551 C3550 1.376 . S
C3551 C3552 1.388 . S
C3552 H3539 0.930 . S
C3552 C3551 1.388 . S
C3552 C3553 1.390 . S
C3553 C3552 1.390 . S
C3553 C3554 1.394 . S
C3553 C3559 1.465 . S
C3554 C3549 1.399 . S
C3554 C3553 1.394 . S
C3554 C3555 1.516 . S
C3555 C3554 1.516 . S
C3555 C3556 1.502 . S
C3555 C3557 1.561 . S
C3555 C3558 1.526 . S
C3556 H3540 0.959 . S
C3556 H3541 0.959 . S
C3556 H3542 0.961 . S
C3556 C3555 1.502 . S
C3557 H3543 0.960 . S
C3557 H3544 0.961 . S
C3557 H3545 0.959 . S
C3557 C3555 1.561 . S
C3558 C3555 1.526 . S
C3558 C3559 1.396 . S
C3558 C3563 1.390 . S
C3559 C3553 1.465 . S
C3559 C3558 1.396 . S
C3559 C3560 1.399 . S
C3560 H3546 0.929 . S
C3560 C3559 1.399 . S
C3560 C3561 1.385 . S
C3561 H3547 0.931 . S
C3561 C3560 1.385 . S
C3561 C3562 1.389 . S
C3562 C3561 1.389 . S
C3562 C3563 1.387 . S
C3563 H3548 0.930 . S
C3563 C3558 1.390 . S
C3563 C3562 1.387 . S
H3564 C3576 0.930 . S
H3565 C3578 0.930 . S
H3566 C3579 0.930 . S
H3567 C3583 0.959 . S
H3568 C3583 0.959 . S
H3569 C3583 0.961 . S
H3570 C3584 0.960 . S
H3571 C3584 0.961 . S
H3572 C3584 0.959 . S
H3573 C3587 0.929 . S
H3574 C3588 0.931 . S
H3575 C3590 0.930 . S
C3576 H3564 0.930 . S
C3576 C3577 1.399 . S
C3576 C3581 1.399 . S
C3577 C3576 1.399 . S
C3577 C3578 1.376 . S
C3578 H3565 0.930 . S
C3578 C3577 1.376 . S
C3578 C3579 1.388 . S
C3579 H3566 0.930 . S
C3579 C3578 1.388 . S
C3579 C3580 1.390 . S
C3580 C3579 1.390 . S
C3580 C3581 1.394 . S
C3580 C3586 1.465 . S
C3581 C3576 1.399 . S
C3581 C3580 1.394 . S
C3581 C3582 1.516 . S
C3582 C3581 1.516 . S
C3582 C3583 1.502 . S
C3582 C3584 1.561 . S
C3582 C3585 1.526 . S
C3583 H3567 0.959 . S
C3583 H3568 0.959 . S
C3583 H3569 0.961 . S
C3583 C3582 1.502 . S
C3584 H3570 0.960 . S
C3584 H3571 0.961 . S
C3584 H3572 0.959 . S
C3584 C3582 1.561 . S
C3585 C3582 1.526 . S
C3585 C3586 1.396 . S
C3585 C3590 1.390 . S
C3586 C3580 1.465 . S
C3586 C3585 1.396 . S
C3586 C3587 1.399 . S
C3587 H3573 0.929 . S
C3587 C3586 1.399 . S
C3587 C3588 1.385 . S
C3588 H3574 0.931 . S
C3588 C3587 1.385 . S
C3588 C3589 1.389 . S
C3589 C3588 1.389 . S
C3589 C3590 1.387 . S
C3590 H3575 0.930 . S
C3590 C3585 1.390 . S
C3590 C3589 1.387 . S
H3591 C3603 0.930 . S
H3592 C3605 0.930 . S
H3593 C3606 0.930 . S
H3594 C3610 0.959 . S
H3595 C3610 0.959 . S
H3596 C3610 0.961 . S
H3597 C3611 0.960 . S
H3598 C3611 0.961 . S
H3599 C3611 0.959 . S
H3600 C3614 0.929 . S
H3601 C3615 0.931 . S
H3602 C3617 0.930 . S
C3603 H3591 0.930 . S
C3603 C3604 1.399 . S
C3603 C3608 1.399 . S
C3604 C3603 1.399 . S
C3604 C3605 1.376 . S
C3605 H3592 0.930 . S
C3605 C3604 1.376 . S
C3605 C3606 1.388 . S
C3606 H3593 0.930 . S
C3606 C3605 1.388 . S
C3606 C3607 1.390 . S
C3607 C3606 1.390 . S
C3607 C3608 1.394 . S
C3607 C3613 1.465 . S
C3608 C3603 1.399 . S
C3608 C3607 1.394 . S
C3608 C3609 1.516 . S
C3609 C3608 1.516 . S
C3609 C3610 1.502 . S
C3609 C3611 1.561 . S
C3609 C3612 1.526 . S
C3610 H3594 0.959 . S
C3610 H3595 0.959 . S
C3610 H3596 0.961 . S
C3610 C3609 1.502 . S
C3611 H3597 0.960 . S
C3611 H3598 0.961 . S
C3611 H3599 0.959 . S
C3611 C3609 1.561 . S
C3612 C3609 1.526 . S
C3612 C3613 1.396 . S
C3612 C3617 1.390 . S
C3613 C3607 1.465 . S
C3613 C3612 1.396 . S
C3613 C3614 1.399 . S
C3614 H3600 0.929 . S
C3614 C3613 1.399 . S
C3614 C3615 1.385 . S
C3615 H3601 0.931 . S
C3615 C3614 1.385 . S
C3615 C3616 1.389 . S
C3616 C3615 1.389 . S
C3616 C3617 1.387 . S
C3617 H3602 0.930 . S
C3617 C3612 1.390 . S
C3617 C3616 1.387 . S
H3618 C3630 0.930 . S
H3619 C3632 0.930 . S
H3620 C3633 0.930 . S
H3621 C3637 0.959 . S
H3622 C3637 0.959 . S
H3623 C3637 0.961 . S
H3624 C3638 0.960 . S
H3625 C3638 0.961 . S
H3626 C3638 0.959 . S
H3627 C3641 0.929 . S
H3628 C3642 0.931 . S
H3629 C3644 0.930 . S
C3630 H3618 0.930 . S
C3630 C3631 1.399 . S
C3630 C3635 1.399 . S
C3631 C3630 1.399 . S
C3631 C3632 1.376 . S
C3632 H3619 0.930 . S
C3632 C3631 1.376 . S
C3632 C3633 1.388 . S
C3633 H3620 0.930 . S
C3633 C3632 1.388 . S
C3633 C3634 1.390 . S
C3634 C3633 1.390 . S
C3634 C3635 1.394 . S
C3634 C3640 1.465 . S
C3635 C3630 1.399 . S
C3635 C3634 1.394 . S
C3635 C3636 1.516 . S
C3636 C3635 1.516 . S
C3636 C3637 1.502 . S
C3636 C3638 1.561 . S
C3636 C3639 1.526 . S
C3637 H3621 0.959 . S
C3637 H3622 0.959 . S
C3637 H3623 0.961 . S
C3637 C3636 1.502 . S
C3638 H3624 0.960 . S
C3638 H3625 0.961 . S
C3638 H3626 0.959 . S
C3638 C3636 1.561 . S
C3639 C3636 1.526 . S
C3639 C3640 1.396 . S
C3639 C3644 1.390 . S
C3640 C3634 1.465 . S
C3640 C3639 1.396 . S
C3640 C3641 1.399 . S
C3641 H3627 0.929 . S
C3641 C3640 1.399 . S
C3641 C3642 1.385 . S
C3642 H3628 0.931 . S
C3642 C3641 1.385 . S
C3642 C3643 1.389 . S
C3643 C3642 1.389 . S
C3643 C3644 1.387 . S
C3644 H3629 0.930 . S
C3644 C3639 1.390 . S
C3644 C3643 1.387 . S
H3645 C3657 0.930 . S
H3646 C3659 0.930 . S
H3647 C3660 0.930 . S
H3648 C3664 0.959 . S
H3649 C3664 0.959 . S
H3650 C3664 0.961 . S
H3651 C3665 0.960 . S
H3652 C3665 0.961 . S
H3653 C3665 0.959 . S
H3654 C3668 0.929 . S
H3655 C3669 0.931 . S
H3656 C3671 0.930 . S
C3657 H3645 0.930 . S
C3657 C3658 1.399 . S
C3657 C3662 1.399 . S
C3658 C3657 1.399 . S
C3658 C3659 1.376 . S
C3659 H3646 0.930 . S
C3659 C3658 1.376 . S
C3659 C3660 1.388 . S
C3660 H3647 0.930 . S
C3660 C3659 1.388 . S
C3660 C3661 1.390 . S
C3661 C3660 1.390 . S
C3661 C3662 1.394 . S
C3661 C3667 1.465 . S
C3662 C3657 1.399 . S
C3662 C3661 1.394 . S
C3662 C3663 1.516 . S
C3663 C3662 1.516 . S
C3663 C3664 1.502 . S
C3663 C3665 1.561 . S
C3663 C3666 1.526 . S
C3664 H3648 0.959 . S
C3664 H3649 0.959 . S
C3664 H3650 0.961 . S
C3664 C3663 1.502 . S
C3665 H3651 0.960 . S
C3665 H3652 0.961 . S
C3665 H3653 0.959 . S
C3665 C3663 1.561 . S
C3666 C3663 1.526 . S
C3666 C3667 1.396 . S
C3666 C3671 1.390 . S
C3667 C3661 1.465 . S
C3667 C3666 1.396 . S
C3667 C3668 1.399 . S
C3668 H3654 0.929 . S
C3668 C3667 1.399 . S
C3668 C3669 1.385 . S
C3669 H3655 0.931 . S
C3669 C3668 1.385 . S
C3669 C3670 1.389 . S
C3670 C3669 1.389 . S
C3670 C3671 1.387 . S
C3671 H3656 0.930 . S
C3671 C3666 1.390 . S
C3671 C3670 1.387 . S
H3672 C3684 0.930 . S
H3673 C3686 0.930 . S
H3674 C3687 0.930 . S
H3675 C3691 0.959 . S
H3676 C3691 0.959 . S
H3677 C3691 0.961 . S
H3678 C3692 0.960 1_556 S
H3679 C3692 0.961 . S
H3680 C3692 0.959 . S
H3681 C3695 0.929 . S
H3682 C3696 0.931 . S
H3683 C3698 0.930 . S
C3684 H3672 0.930 . S
C3684 C3685 1.399 . S
C3684 C3689 1.399 . S
C3685 C3684 1.399 . S
C3685 C3686 1.376 . S
C3686 H3673 0.930 . S
C3686 C3685 1.376 . S
C3686 C3687 1.388 . S
C3687 H3674 0.930 . S
C3687 C3686 1.388 . S
C3687 C3688 1.390 . S
C3688 C3687 1.390 . S
C3688 C3689 1.394 . S
C3688 C3694 1.465 . S
C3689 C3684 1.399 . S
C3689 C3688 1.394 . S
C3689 C3690 1.516 . S
C3690 C3689 1.516 . S
C3690 C3691 1.502 . S
C3690 C3692 1.561 . S
C3690 C3693 1.526 . S
C3691 H3675 0.959 . S
C3691 H3676 0.959 . S
C3691 H3677 0.961 . S
C3691 C3690 1.502 . S
C3692 H3678 0.960 1_554 S
C3692 H3679 0.961 . S
C3692 H3680 0.959 . S
C3692 C3690 1.561 . S
C3693 C3690 1.526 . S
C3693 C3694 1.396 . S
C3693 C3698 1.390 . S
C3694 C3688 1.465 . S
C3694 C3693 1.396 . S
C3694 C3695 1.399 . S
C3695 H3681 0.929 . S
C3695 C3694 1.399 . S
C3695 C3696 1.385 . S
C3696 H3682 0.931 . S
C3696 C3695 1.385 . S
C3696 C3697 1.389 . S
C3697 C3696 1.389 . S
C3697 C3698 1.387 . S
C3698 H3683 0.930 . S
C3698 C3693 1.390 . S
C3698 C3697 1.387 . S
H3699 C3711 0.930 . S
H3700 C3713 0.930 . S
H3701 C3714 0.930 . S
H3702 C3718 0.959 . S
H3703 C3718 0.959 . S
H3704 C3718 0.961 . S
H3705 C3719 0.953 1_556 S
H3706 C3719 0.961 . S
H3707 C3719 0.959 . S
H3708 C3722 0.929 . S
H3709 C3723 0.931 . S
H3710 C3725 0.930 . S
C3711 H3699 0.930 . S
C3711 C3712 1.399 . S
C3711 C3716 1.399 . S
C3712 C3711 1.399 . S
C3712 C3713 1.376 . S
C3713 H3700 0.930 . S
C3713 C3712 1.376 . S
C3713 C3714 1.388 . S
C3714 H3701 0.930 . S
C3714 C3713 1.388 . S
C3714 C3715 1.390 . S
C3715 C3714 1.390 . S
C3715 C3716 1.394 . S
C3715 C3721 1.465 . S
C3716 C3711 1.399 . S
C3716 C3715 1.394 . S
C3716 C3717 1.516 . S
C3717 C3716 1.516 . S
C3717 C3718 1.502 . S
C3717 C3719 1.561 . S
C3717 C3720 1.526 . S
C3718 H3702 0.959 . S
C3718 H3703 0.959 . S
C3718 H3704 0.961 . S
C3718 C3717 1.502 . S
C3719 H3705 0.953 1_554 S
C3719 H3706 0.961 . S
C3719 H3707 0.959 . S
C3719 C3717 1.561 . S
C3720 C3717 1.526 . S
C3720 C3721 1.396 . S
C3720 C3725 1.390 . S
C3721 C3715 1.465 . S
C3721 C3720 1.396 . S
C3721 C3722 1.399 . S
C3722 H3708 0.929 . S
C3722 C3721 1.399 . S
C3722 C3723 1.385 . S
C3723 H3709 0.931 . S
C3723 C3722 1.385 . S
C3723 C3724 1.389 . S
C3724 C3723 1.389 . S
C3724 C3725 1.387 . S
C3725 H3710 0.930 . S
C3725 C3720 1.390 . S
C3725 C3724 1.387 . S
H3726 C3738 0.930 . S
H3727 C3740 0.930 . S
H3728 C3741 0.930 . S
H3729 C3745 0.959 . S
H3730 C3745 0.959 . S
H3731 C3745 0.961 . S
H3732 C3746 0.960 . S
H3733 C3746 0.961 . S
H3734 C3746 0.959 . S
H3735 C3749 0.929 . S
H3736 C3750 0.931 . S
H3737 C3752 0.930 . S
C3738 H3726 0.930 . S
C3738 C3739 1.399 . S
C3738 C3743 1.399 . S
C3739 C3738 1.399 . S
C3739 C3740 1.376 . S
C3740 H3727 0.930 . S
C3740 C3739 1.376 . S
C3740 C3741 1.388 . S
C3741 H3728 0.930 . S
C3741 C3740 1.388 . S
C3741 C3742 1.390 . S
C3742 C3741 1.390 . S
C3742 C3743 1.394 . S
C3742 C3748 1.465 . S
C3743 C3738 1.399 . S
C3743 C3742 1.394 . S
C3743 C3744 1.516 . S
C3744 C3743 1.516 . S
C3744 C3745 1.502 . S
C3744 C3746 1.561 . S
C3744 C3747 1.526 . S
C3745 H3729 0.959 . S
C3745 H3730 0.959 . S
C3745 H3731 0.961 . S
C3745 C3744 1.502 . S
C3746 H3732 0.960 . S
C3746 H3733 0.961 . S
C3746 H3734 0.959 . S
C3746 C3744 1.561 . S
C3747 C3744 1.526 . S
C3747 C3748 1.396 . S
C3747 C3752 1.390 . S
C3748 C3742 1.465 . S
C3748 C3747 1.396 . S
C3748 C3749 1.399 . S
C3749 H3735 0.929 . S
C3749 C3748 1.399 . S
C3749 C3750 1.385 . S
C3750 H3736 0.931 . S
C3750 C3749 1.385 . S
C3750 C3751 1.389 . S
C3751 C3750 1.389 . S
C3751 C3752 1.387 . S
C3752 H3737 0.930 . S
C3752 C3747 1.390 . S
C3752 C3751 1.387 . S
H3753 C3765 0.930 . S
H3754 C3767 0.930 . S
H3755 C3768 0.930 . S
H3756 C3772 0.959 . S
H3757 C3772 0.959 . S
H3758 C3772 0.961 . S
H3759 C3773 0.960 . S
H3760 C3773 0.961 . S
H3761 C3773 0.959 . S
H3762 C3776 0.929 1_554 S
H3763 C3777 0.931 . S
H3764 C3779 0.930 . S
C3765 H3753 0.930 . S
C3765 C3766 1.399 . S
C3765 C3770 1.399 . S
C3766 C3765 1.399 . S
C3766 C3767 1.376 1_556 S
C3767 H3754 0.930 . S
C3767 C3766 1.376 1_554 S
C3767 C3768 1.388 . S
C3768 H3755 0.930 . S
C3768 C3767 1.388 . S
C3768 C3769 1.390 1_554 S
C3769 C3768 1.390 1_556 S
C3769 C3770 1.394 . S
C3769 C3775 1.465 . S
C3770 C3765 1.399 . S
C3770 C3769 1.394 . S
C3770 C3771 1.516 . S
C3771 C3770 1.516 . S
C3771 C3772 1.502 . S
C3771 C3773 1.561 . S
C3771 C3774 1.526 . S
C3772 H3756 0.959 . S
C3772 H3757 0.959 . S
C3772 H3758 0.961 . S
C3772 C3771 1.502 . S
C3773 H3759 0.960 . S
C3773 H3760 0.961 . S
C3773 H3761 0.959 . S
C3773 C3771 1.561 . S
C3774 C3771 1.526 . S
C3774 C3775 1.396 . S
C3774 C3779 1.390 . S
C3775 C3769 1.465 . S
C3775 C3774 1.396 . S
C3775 C3776 1.399 . S
C3776 H3762 0.929 1_556 S
C3776 C3775 1.399 . S
C3776 C3777 1.385 . S
C3777 H3763 0.931 . S
C3777 C3776 1.385 . S
C3777 C3778 1.389 . S
C3778 C3777 1.389 . S
C3778 C3779 1.387 . S
C3779 H3764 0.930 . S
C3779 C3774 1.390 . S
C3779 C3778 1.387 . S
H3780 C3792 0.930 . S
H3781 C3794 0.930 . S
H3782 C3795 0.930 . S
H3783 C3799 0.959 . S
H3784 C3799 0.959 . S
H3785 C3799 0.961 . S
H3786 C3800 0.960 . S
H3787 C3800 0.961 . S
H3788 C3800 0.959 . S
H3789 C3803 0.929 1_554 S
H3790 C3804 0.931 . S
H3791 C3806 0.930 . S
C3792 H3780 0.930 . S
C3792 C3793 1.399 . S
C3792 C3797 1.399 . S
C3793 C3792 1.399 . S
C3793 C3794 1.376 1_556 S
C3794 H3781 0.930 . S
C3794 C3793 1.376 1_554 S
C3794 C3795 1.388 . S
C3795 H3782 0.930 . S
C3795 C3794 1.388 . S
C3795 C3796 1.390 1_554 S
C3796 C3795 1.390 1_556 S
C3796 C3797 1.394 . S
C3796 C3802 1.465 . S
C3797 C3792 1.399 . S
C3797 C3796 1.394 . S
C3797 C3798 1.516 . S
C3798 C3797 1.516 . S
C3798 C3799 1.502 . S
C3798 C3800 1.561 . S
C3798 C3801 1.526 . S
C3799 H3783 0.959 . S
C3799 H3784 0.959 . S
C3799 H3785 0.961 . S
C3799 C3798 1.502 . S
C3800 H3786 0.960 . S
C3800 H3787 0.961 . S
C3800 H3788 0.959 . S
C3800 C3798 1.561 . S
C3801 C3798 1.526 . S
C3801 C3802 1.396 . S
C3801 C3806 1.390 . S
C3802 C3796 1.465 . S
C3802 C3801 1.396 . S
C3802 C3803 1.399 . S
C3803 H3789 0.929 1_556 S
C3803 C3802 1.399 . S
C3803 C3804 1.385 . S
C3804 H3790 0.931 . S
C3804 C3803 1.385 . S
C3804 C3805 1.389 . S
C3805 C3804 1.389 . S
C3805 C3806 1.387 . S
C3806 H3791 0.930 . S
C3806 C3801 1.390 . S
C3806 C3805 1.387 . S
H3807 C3819 0.930 1_554 S
H3808 C3821 0.930 . S
H3809 C3822 0.930 . S
H3810 C3826 0.959 . S
H3811 C3826 0.970 . S
H3812 C3826 0.961 1_554 S
H3813 C3827 0.960 . S
H3814 C3827 0.961 . S
H3815 C3827 0.959 . S
H3816 C3830 0.929 . S
H3817 C3831 0.931 . S
H3818 C3833 0.930 . S
C3819 H3807 0.930 1_556 S
C3819 C3820 1.399 . S
C3819 C3824 1.399 . S
C3820 C3819 1.399 . S
C3820 C3821 1.376 . S
C3821 H3808 0.930 . S
C3821 C3820 1.376 . S
C3821 C3822 1.388 . S
C3822 H3809 0.930 . S
C3822 C3821 1.388 . S
C3822 C3823 1.390 . S
C3823 C3822 1.390 . S
C3823 C3824 1.394 . S
C3823 C3829 1.465 . S
C3824 C3819 1.399 . S
C3824 C3823 1.394 . S
C3824 C3825 1.516 . S
C3825 C3824 1.516 . S
C3825 C3826 1.502 . S
C3825 C3827 1.561 1_556 S
C3825 C3828 1.526 . S
C3826 H3810 0.959 . S
C3826 H3811 0.970 . S
C3826 H3812 0.961 1_556 S
C3826 C3825 1.502 . S
C3827 H3813 0.960 . S
C3827 H3814 0.961 . S
C3827 H3815 0.959 . S
C3827 C3825 1.561 1_554 S
C3828 C3825 1.526 . S
C3828 C3829 1.396 . S
C3828 C3833 1.390 . S
C3829 C3823 1.465 . S
C3829 C3828 1.396 . S
C3829 C3830 1.399 . S
C3830 H3816 0.929 . S
C3830 C3829 1.399 . S
C3830 C3831 1.385 . S
C3831 H3817 0.931 . S
C3831 C3830 1.385 . S
C3831 C3832 1.389 . S
C3832 C3831 1.389 . S
C3832 C3833 1.387 . S
C3833 H3818 0.930 . S
C3833 C3828 1.390 . S
C3833 C3832 1.387 . S
H3834 C3846 0.930 . S
H3835 C3848 0.949 . S
H3836 C3849 0.930 . S
H3837 C3853 0.959 . S
H3838 C3853 0.959 . S
H3839 C3853 0.961 . S
H3840 C3854 0.960 . S
H3841 C3854 0.961 . S
H3842 C3854 0.923 1_554 S
H3843 C3857 0.929 . S
H3844 C3858 0.931 . S
H3845 C3860 0.930 . S
C3846 H3834 0.930 . S
C3846 C3847 1.399 . S
C3846 C3851 1.399 . S
C3847 C3846 1.399 . S
C3847 C3848 1.376 . S
C3848 H3835 0.949 . S
C3848 C3847 1.376 . S
C3848 C3849 1.388 . S
C3849 H3836 0.930 . S
C3849 C3848 1.388 . S
C3849 C3850 1.390 . S
C3850 C3849 1.390 . S
C3850 C3851 1.394 . S
C3850 C3856 1.465 . S
C3851 C3846 1.399 . S
C3851 C3850 1.394 . S
C3851 C3852 1.516 . S
C3852 C3851 1.516 . S
C3852 C3853 1.502 . S
C3852 C3854 1.561 . S
C3852 C3855 1.526 . S
C3853 H3837 0.959 . S
C3853 H3838 0.959 . S
C3853 H3839 0.961 . S
C3853 C3852 1.502 . S
C3854 H3840 0.960 . S
C3854 H3841 0.961 . S
C3854 H3842 0.923 1_556 S
C3854 C3852 1.561 . S
C3855 C3852 1.526 . S
C3855 C3856 1.396 . S
C3855 C3860 1.390 . S
C3856 C3850 1.465 . S
C3856 C3855 1.396 . S
C3856 C3857 1.399 . S
C3857 H3843 0.929 . S
C3857 C3856 1.399 . S
C3857 C3858 1.385 . S
C3858 H3844 0.931 . S
C3858 C3857 1.385 . S
C3858 C3859 1.389 . S
C3859 C3858 1.389 . S
C3859 C3860 1.387 . S
C3860 H3845 0.930 . S
C3860 C3855 1.390 . S
C3860 C3859 1.387 . S
H3861 C3873 0.930 . S
H3862 C3875 0.930 1_554 S
H3863 C3876 0.930 . S
H3864 C3880 0.959 . S
H3865 C3880 0.959 . S
H3866 C3880 0.961 . S
H3867 C3881 0.960 . S
H3868 C3881 0.961 . S
H3869 C3881 0.959 . S
H3870 C3884 0.929 . S
H3871 C3885 0.931 . S
H3872 C3887 0.930 . S
C3873 H3861 0.930 . S
C3873 C3874 1.399 . S
C3873 C3878 1.399 . S
C3874 C3873 1.399 . S
C3874 C3875 1.376 . S
C3875 H3862 0.930 1_556 S
C3875 C3874 1.376 . S
C3875 C3876 1.388 . S
C3876 H3863 0.930 . S
C3876 C3875 1.388 . S
C3876 C3877 1.390 . S
C3877 C3876 1.390 . S
C3877 C3878 1.394 . S
C3877 C3883 1.465 . S
C3878 C3873 1.399 . S
C3878 C3877 1.394 . S
C3878 C3879 1.516 . S
C3879 C3878 1.516 . S
C3879 C3880 1.502 . S
C3879 C3881 1.561 . S
C3879 C3882 1.526 . S
C3880 H3864 0.959 . S
C3880 H3865 0.959 . S
C3880 H3866 0.961 . S
C3880 C3879 1.502 . S
C3881 H3867 0.960 . S
C3881 H3868 0.961 . S
C3881 H3869 0.959 . S
C3881 C3879 1.561 . S
C3882 C3879 1.526 . S
C3882 C3883 1.396 . S
C3882 C3887 1.390 . S
C3883 C3877 1.465 . S
C3883 C3882 1.396 . S
C3883 C3884 1.399 . S
C3884 H3870 0.929 . S
C3884 C3883 1.399 . S
C3884 C3885 1.385 . S
C3885 H3871 0.931 . S
C3885 C3884 1.385 . S
C3885 C3886 1.389 . S
C3886 C3885 1.389 . S
C3886 C3887 1.387 . S
C3887 H3872 0.930 . S
C3887 C3882 1.390 . S
C3887 C3886 1.387 . S
H3888 C3900 0.930 1_554 S
H3889 C3902 0.930 . S
H3890 C3903 0.930 . S
H3891 C3907 0.959 1_556 S
H3892 C3907 0.959 . S
H3893 C3907 0.961 . S
H3894 C3908 0.960 . S
H3895 C3908 0.961 . S
H3896 C3908 0.959 . S
H3897 C3911 0.929 . S
H3898 C3912 0.931 . S
H3899 C3914 0.930 . S
C3900 H3888 0.930 1_556 S
C3900 C3901 1.399 . S
C3900 C3905 1.399 . S
C3901 C3900 1.399 . S
C3901 C3902 1.376 . S
C3902 H3889 0.930 . S
C3902 C3901 1.376 . S
C3902 C3903 1.388 . S
C3903 H3890 0.930 . S
C3903 C3902 1.388 . S
C3903 C3904 1.390 . S
C3904 C3903 1.390 . S
C3904 C3905 1.394 . S
C3904 C3910 1.465 . S
C3905 C3900 1.399 . S
C3905 C3904 1.394 . S
C3905 C3906 1.516 . S
C3906 C3905 1.516 . S
C3906 C3907 1.502 1_556 S
C3906 C3908 1.561 1_556 S
C3906 C3909 1.526 . S
C3907 H3891 0.959 1_554 S
C3907 H3892 0.959 . S
C3907 H3893 0.961 . S
C3907 C3906 1.502 1_554 S
C3908 H3894 0.960 . S
C3908 H3895 0.961 . S
C3908 H3896 0.959 . S
C3908 C3906 1.561 1_554 S
C3909 C3906 1.526 . S
C3909 C3910 1.396 . S
C3909 C3914 1.390 . S
C3910 C3904 1.465 . S
C3910 C3909 1.396 . S
C3910 C3911 1.399 . S
C3911 H3897 0.929 . S
C3911 C3910 1.399 . S
C3911 C3912 1.385 . S
C3912 H3898 0.931 . S
C3912 C3911 1.385 . S
C3912 C3913 1.389 . S
C3913 C3912 1.389 . S
C3913 C3914 1.387 . S
C3914 H3899 0.930 . S
C3914 C3909 1.390 . S
C3914 C3913 1.387 . S
H3915 C3927 0.930 . S
H3916 C3929 0.930 . S
H3917 C3930 0.930 . S
H3918 C3934 0.959 . S
H3919 C3934 0.959 . S
H3920 C3934 0.961 . S
H3921 C3935 0.960 . S
H3922 C3935 0.961 . S
H3923 C3935 0.959 . S
H3924 C3938 0.929 . S
H3925 C3939 0.931 . S
H3926 C3941 0.930 . S
C3927 H3915 0.930 . S
C3927 C3928 1.399 . S
C3927 C3932 1.399 . S
C3928 C3927 1.399 . S
C3928 C3929 1.376 . S
C3929 H3916 0.930 . S
C3929 C3928 1.376 . S
C3929 C3930 1.388 . S
C3930 H3917 0.930 . S
C3930 C3929 1.388 . S
C3930 C3931 1.390 . S
C3931 C3930 1.390 . S
C3931 C3932 1.394 . S
C3931 C3937 1.465 . S
C3932 C3927 1.399 . S
C3932 C3931 1.394 . S
C3932 C3933 1.516 . S
C3933 C3932 1.516 . S
C3933 C3934 1.502 . S
C3933 C3935 1.561 . S
C3933 C3936 1.526 . S
C3934 H3918 0.959 . S
C3934 H3919 0.959 . S
C3934 H3920 0.961 . S
C3934 C3933 1.502 . S
C3935 H3921 0.960 . S
C3935 H3922 0.961 . S
C3935 H3923 0.959 . S
C3935 C3933 1.561 . S
C3936 C3933 1.526 . S
C3936 C3937 1.396 . S
C3936 C3941 1.390 . S
C3937 C3931 1.465 . S
C3937 C3936 1.396 . S
C3937 C3938 1.399 . S
C3938 H3924 0.929 . S
C3938 C3937 1.399 . S
C3938 C3939 1.385 . S
C3939 H3925 0.931 . S
C3939 C3938 1.385 . S
C3939 C3940 1.389 . S
C3940 C3939 1.389 . S
C3940 C3941 1.387 . S
C3941 H3926 0.930 . S
C3941 C3936 1.390 . S
C3941 C3940 1.387 . S
H3942 C3954 0.930 . S
H3943 C3956 0.930 . S
H3944 C3957 0.930 . S
H3945 C3961 0.959 . S
H3946 C3961 0.959 . S
H3947 C3961 0.961 . S
H3948 C3962 0.960 1_556 S
H3949 C3962 0.982 . S
H3950 C3962 0.959 . S
H3951 C3965 0.929 . S
H3952 C3966 0.931 . S
H3953 C3968 0.930 . S
C3954 H3942 0.930 . S
C3954 C3955 1.399 . S
C3954 C3959 1.399 . S
C3955 C3954 1.399 . S
C3955 C3956 1.376 . S
C3956 H3943 0.930 . S
C3956 C3955 1.376 . S
C3956 C3957 1.388 . S
C3957 H3944 0.930 . S
C3957 C3956 1.388 . S
C3957 C3958 1.390 . S
C3958 C3957 1.390 . S
C3958 C3959 1.394 . S
C3958 C3964 1.465 . S
C3959 C3954 1.399 . S
C3959 C3958 1.394 . S
C3959 C3960 1.516 . S
C3960 C3959 1.516 . S
C3960 C3961 1.502 . S
C3960 C3962 1.561 . S
C3960 C3963 1.526 . S
C3961 H3945 0.959 . S
C3961 H3946 0.959 . S
C3961 H3947 0.961 . S
C3961 C3960 1.502 . S
C3962 H3948 0.960 1_554 S
C3962 H3949 0.982 . S
C3962 H3950 0.959 . S
C3962 C3960 1.561 . S
C3963 C3960 1.526 . S
C3963 C3964 1.396 . S
C3963 C3968 1.390 . S
C3964 C3958 1.465 . S
C3964 C3963 1.396 . S
C3964 C3965 1.399 . S
C3965 H3951 0.929 . S
C3965 C3964 1.399 . S
C3965 C3966 1.385 . S
C3966 H3952 0.931 . S
C3966 C3965 1.385 . S
C3966 C3967 1.389 . S
C3967 C3966 1.389 . S
C3967 C3968 1.387 . S
C3968 H3953 0.930 . S
C3968 C3963 1.390 . S
C3968 C3967 1.387 . S
H3969 C3981 0.930 . S
H3970 C3983 0.930 . S
H3971 C3984 0.930 . S
H3972 C3988 0.959 . S
H3973 C3988 0.959 . S
H3974 C3988 0.920 1_556 S
H3975 C3989 0.960 . S
H3976 C3989 0.961 . S
H3977 C3989 0.959 . S
H3978 C3992 0.929 . S
H3979 C3993 0.931 . S
H3980 C3995 0.930 . S
C3981 H3969 0.930 . S
C3981 C3982 1.399 . S
C3981 C3986 1.399 . S
C3982 C3981 1.399 . S
C3982 C3983 1.376 . S
C3983 H3970 0.930 . S
C3983 C3982 1.376 . S
C3983 C3984 1.388 . S
C3984 H3971 0.930 . S
C3984 C3983 1.388 . S
C3984 C3985 1.390 . S
C3985 C3984 1.390 . S
C3985 C3986 1.394 . S
C3985 C3991 1.465 . S
C3986 C3981 1.399 . S
C3986 C3985 1.394 . S
C3986 C3987 1.516 . S
C3987 C3986 1.516 . S
C3987 C3988 1.502 . S
C3987 C3989 1.561 . S
C3987 C3990 1.526 . S
C3988 H3972 0.959 . S
C3988 H3973 0.959 . S
C3988 H3974 0.920 1_554 S
C3988 C3987 1.502 . S
C3989 H3975 0.960 . S
C3989 H3976 0.961 . S
C3989 H3977 0.959 . S
C3989 C3987 1.561 . S
C3990 C3987 1.526 . S
C3990 C3991 1.396 . S
C3990 C3995 1.390 . S
C3991 C3985 1.465 . S
C3991 C3990 1.396 . S
C3991 C3992 1.399 . S
C3992 H3978 0.929 . S
C3992 C3991 1.399 . S
C3992 C3993 1.385 . S
C3993 H3979 0.931 . S
C3993 C3992 1.385 . S
C3993 C3994 1.389 . S
C3994 C3993 1.389 . S
C3994 C3995 1.387 . S
C3995 H3980 0.930 . S
C3995 C3990 1.390 . S
C3995 C3994 1.387 . S
H3996 C4008 0.930 . S
H3997 C4010 0.930 . S
H3998 C4011 0.930 . S
H3999 C4015 0.959 . S
H4000 C4015 0.959 . S
H4001 C4015 0.961 . S
H4002 C4016 0.960 . S
H4003 C4016 0.961 . S
H4004 C4016 0.959 . S
H4005 C4019 0.929 . S
H4006 C4020 0.931 . S
H4007 C4022 0.930 . S
C4008 H3996 0.930 . S
C4008 C4009 1.399 . S
C4008 C4013 1.399 . S
C4009 C4008 1.399 . S
C4009 C4010 1.376 . S
C4010 H3997 0.930 . S
C4010 C4009 1.376 . S
C4010 C4011 1.388 . S
C4011 H3998 0.930 . S
C4011 C4010 1.388 . S
C4011 C4012 1.390 . S
C4012 C4011 1.390 . S
C4012 C4013 1.394 . S
C4012 C4018 1.465 . S
C4013 C4008 1.399 . S
C4013 C4012 1.394 . S
C4013 C4014 1.516 . S
C4014 C4013 1.516 . S
C4014 C4015 1.502 . S
C4014 C4016 1.561 . S
C4014 C4017 1.526 . S
C4015 H3999 0.959 . S
C4015 H4000 0.959 . S
C4015 H4001 0.961 . S
C4015 C4014 1.502 . S
C4016 H4002 0.960 . S
C4016 H4003 0.961 . S
C4016 H4004 0.959 . S
C4016 C4014 1.561 . S
C4017 C4014 1.526 . S
C4017 C4018 1.396 . S
C4017 C4022 1.390 . S
C4018 C4012 1.465 . S
C4018 C4017 1.396 . S
C4018 C4019 1.399 . S
C4019 H4005 0.929 . S
C4019 C4018 1.399 . S
C4019 C4020 1.385 . S
C4020 H4006 0.931 . S
C4020 C4019 1.385 . S
C4020 C4021 1.389 . S
C4021 C4020 1.389 . S
C4021 C4022 1.387 . S
C4022 H4007 0.930 . S
C4022 C4017 1.390 . S
C4022 C4021 1.387 . S
H4023 C4035 0.930 . S
H4024 C4037 0.930 . S
H4025 C4038 0.930 . S
H4026 C4042 0.959 . S
H4027 C4042 0.959 . S
H4028 C4042 0.961 . S
H4029 C4043 0.960 . S
H4030 C4043 0.961 . S
H4031 C4043 0.959 . S
H4032 C4046 0.929 . S
H4033 C4047 0.931 . S
H4034 C4049 0.930 . S
C4035 H4023 0.930 . S
C4035 C4036 1.399 . S
C4035 C4040 1.399 . S
C4036 C4035 1.399 . S
C4036 C4037 1.376 . S
C4037 H4024 0.930 . S
C4037 C4036 1.376 . S
C4037 C4038 1.388 . S
C4038 H4025 0.930 . S
C4038 C4037 1.388 . S
C4038 C4039 1.390 . S
C4039 C4038 1.390 . S
C4039 C4040 1.394 . S
C4039 C4045 1.465 . S
C4040 C4035 1.399 . S
C4040 C4039 1.394 . S
C4040 C4041 1.516 . S
C4041 C4040 1.516 . S
C4041 C4042 1.502 . S
C4041 C4043 1.561 . S
C4041 C4044 1.526 . S
C4042 H4026 0.959 . S
C4042 H4027 0.959 . S
C4042 H4028 0.961 . S
C4042 C4041 1.502 . S
C4043 H4029 0.960 . S
C4043 H4030 0.961 . S
C4043 H4031 0.959 . S
C4043 C4041 1.561 . S
C4044 C4041 1.526 . S
C4044 C4045 1.396 . S
C4044 C4049 1.390 . S
C4045 C4039 1.465 . S
C4045 C4044 1.396 . S
C4045 C4046 1.399 . S
C4046 H4032 0.929 . S
C4046 C4045 1.399 . S
C4046 C4047 1.385 . S
C4047 H4033 0.931 . S
C4047 C4046 1.385 . S
C4047 C4048 1.389 . S
C4048 C4047 1.389 . S
C4048 C4049 1.387 . S
C4049 H4034 0.930 . S
C4049 C4044 1.390 . S
C4049 C4048 1.387 . S
H4050 C4062 0.930 . S
H4051 C4064 0.930 . S
H4052 C4065 0.930 . S
H4053 C4069 0.959 . S
H4054 C4069 0.959 . S
H4055 C4069 0.961 . S
H4056 C4070 0.960 . S
H4057 C4070 0.961 . S
H4058 C4070 0.959 . S
H4059 C4073 0.929 . S
H4060 C4074 0.931 . S
H4061 C4076 0.930 . S
C4062 H4050 0.930 . S
C4062 C4063 1.399 . S
C4062 C4067 1.399 . S
C4063 C4062 1.399 . S
C4063 C4064 1.376 . S
C4064 H4051 0.930 . S
C4064 C4063 1.376 . S
C4064 C4065 1.388 . S
C4065 H4052 0.930 . S
C4065 C4064 1.388 . S
C4065 C4066 1.390 . S
C4066 C4065 1.390 . S
C4066 C4067 1.394 . S
C4066 C4072 1.465 . S
C4067 C4062 1.399 . S
C4067 C4066 1.394 . S
C4067 C4068 1.516 . S
C4068 C4067 1.516 . S
C4068 C4069 1.502 . S
C4068 C4070 1.561 . S
C4068 C4071 1.526 . S
C4069 H4053 0.959 . S
C4069 H4054 0.959 . S
C4069 H4055 0.961 . S
C4069 C4068 1.502 . S
C4070 H4056 0.960 . S
C4070 H4057 0.961 . S
C4070 H4058 0.959 . S
C4070 C4068 1.561 . S
C4071 C4068 1.526 . S
C4071 C4072 1.396 . S
C4071 C4076 1.390 . S
C4072 C4066 1.465 . S
C4072 C4071 1.396 . S
C4072 C4073 1.399 . S
C4073 H4059 0.929 . S
C4073 C4072 1.399 . S
C4073 C4074 1.385 . S
C4074 H4060 0.931 . S
C4074 C4073 1.385 . S
C4074 C4075 1.389 . S
C4075 C4074 1.389 . S
C4075 C4076 1.387 . S
C4076 H4061 0.930 . S
C4076 C4071 1.390 . S
C4076 C4075 1.387 . S
H4077 C4089 0.930 . S
H4078 C4091 0.930 . S
H4079 C4092 0.930 . S
H4080 C4096 0.959 . S
H4081 C4096 0.959 . S
H4082 C4096 0.961 . S
H4083 C4097 0.960 . S
H4084 C4097 0.961 . S
H4085 C4097 0.959 1_655 S
H4086 C4100 0.929 . S
H4087 C4101 0.965 . S
H4088 C4103 0.930 . S
C4089 H4077 0.930 . S
C4089 C4090 1.399 . S
C4089 C4094 1.399 . S
C4090 C4089 1.399 . S
C4090 C4091 1.376 . S
C4091 H4078 0.930 . S
C4091 C4090 1.376 . S
C4091 C4092 1.388 . S
C4092 H4079 0.930 . S
C4092 C4091 1.388 . S
C4092 C4093 1.390 . S
C4093 C4092 1.390 . S
C4093 C4094 1.394 . S
C4093 C4099 1.465 . S
C4094 C4089 1.399 . S
C4094 C4093 1.394 . S
C4094 C4095 1.516 . S
C4095 C4094 1.516 . S
C4095 C4096 1.502 . S
C4095 C4097 1.561 . S
C4095 C4098 1.526 . S
C4096 H4080 0.959 . S
C4096 H4081 0.959 . S
C4096 H4082 0.961 . S
C4096 C4095 1.502 . S
C4097 H4083 0.960 . S
C4097 H4084 0.961 . S
C4097 H4085 0.959 1_455 S
C4097 C4095 1.561 . S
C4098 C4095 1.526 . S
C4098 C4099 1.396 . S
C4098 C4103 1.390 . S
C4099 C4093 1.465 . S
C4099 C4098 1.396 . S
C4099 C4100 1.399 . S
C4100 H4086 0.929 . S
C4100 C4099 1.399 . S
C4100 C4101 1.385 . S
C4101 H4087 0.965 . S
C4101 C4100 1.385 . S
C4101 C4102 1.389 . S
C4102 C4101 1.389 . S
C4102 C4103 1.387 . S
C4103 H4088 0.930 . S
C4103 C4098 1.390 . S
C4103 C4102 1.387 . S
H4104 C4116 0.930 . S
H4105 C4118 0.930 . S
H4106 C4119 0.930 . S
H4107 C4123 0.959 . S
H4108 C4123 0.959 . S
H4109 C4123 0.961 . S
H4110 C4124 0.960 . S
H4111 C4124 0.961 . S
H4112 C4124 0.959 . S
H4113 C4127 0.929 . S
H4114 C4128 0.931 . S
H4115 C4130 0.930 . S
C4116 H4104 0.930 . S
C4116 C4117 1.399 . S
C4116 C4121 1.399 . S
C4117 C4116 1.399 . S
C4117 C4118 1.376 . S
C4118 H4105 0.930 . S
C4118 C4117 1.376 . S
C4118 C4119 1.388 . S
C4119 H4106 0.930 . S
C4119 C4118 1.388 . S
C4119 C4120 1.390 . S
C4120 C4119 1.390 . S
C4120 C4121 1.394 . S
C4120 C4126 1.465 . S
C4121 C4116 1.399 . S
C4121 C4120 1.394 . S
C4121 C4122 1.516 . S
C4122 C4121 1.516 . S
C4122 C4123 1.502 . S
C4122 C4124 1.561 . S
C4122 C4125 1.526 . S
C4123 H4107 0.959 . S
C4123 H4108 0.959 . S
C4123 H4109 0.961 . S
C4123 C4122 1.502 . S
C4124 H4110 0.960 . S
C4124 H4111 0.961 . S
C4124 H4112 0.959 . S
C4124 C4122 1.561 . S
C4125 C4122 1.526 . S
C4125 C4126 1.396 . S
C4125 C4130 1.390 . S
C4126 C4120 1.465 . S
C4126 C4125 1.396 . S
C4126 C4127 1.399 . S
C4127 H4113 0.929 . S
C4127 C4126 1.399 . S
C4127 C4128 1.385 . S
C4128 H4114 0.931 . S
C4128 C4127 1.385 . S
C4128 C4129 1.389 . S
C4129 C4128 1.389 . S
C4129 C4130 1.387 . S
C4130 H4115 0.930 . S
C4130 C4125 1.390 . S
C4130 C4129 1.387 . S
H4131 C4143 0.930 . S
H4132 C4145 0.930 . S
H4133 C4146 0.930 . S
H4134 C4150 0.959 1_545 S
H4135 C4150 0.959 . S
H4136 C4150 0.961 . S
H4137 C4151 0.960 . S
H4138 C4151 0.961 . S
H4139 C4151 0.959 . S
H4140 C4154 0.929 . S
H4141 C4155 0.931 . S
H4142 C4157 0.930 . S
C4143 H4131 0.930 . S
C4143 C4144 1.399 . S
C4143 C4148 1.399 . S
C4144 C4143 1.399 . S
C4144 C4145 1.376 . S
C4145 H4132 0.930 . S
C4145 C4144 1.376 . S
C4145 C4146 1.388 . S
C4146 H4133 0.930 . S
C4146 C4145 1.388 . S
C4146 C4147 1.390 . S
C4147 C4146 1.390 . S
C4147 C4148 1.394 . S
C4147 C4153 1.465 . S
C4148 C4143 1.399 . S
C4148 C4147 1.394 . S
C4148 C4149 1.516 . S
C4149 C4148 1.516 . S
C4149 C4150 1.502 . S
C4149 C4151 1.561 . S
C4149 C4152 1.526 . S
C4150 H4134 0.959 1_565 S
C4150 H4135 0.959 . S
C4150 H4136 0.961 . S
C4150 C4149 1.502 . S
C4151 H4137 0.960 . S
C4151 H4138 0.961 . S
C4151 H4139 0.959 . S
C4151 C4149 1.561 . S
C4152 C4149 1.526 . S
C4152 C4153 1.396 . S
C4152 C4157 1.390 . S
C4153 C4147 1.465 . S
C4153 C4152 1.396 . S
C4153 C4154 1.399 . S
C4154 H4140 0.929 . S
C4154 C4153 1.399 . S
C4154 C4155 1.385 . S
C4155 H4141 0.931 . S
C4155 C4154 1.385 . S
C4155 C4156 1.389 . S
C4156 C4155 1.389 . S
C4156 C4157 1.387 . S
C4157 H4142 0.930 . S
C4157 C4152 1.390 . S
C4157 C4156 1.387 . S
H4158 C4170 0.930 . S
H4159 C4172 0.930 . S
H4160 C4173 0.930 . S
H4161 C4177 0.959 . S
H4162 C4177 0.959 . S
H4163 C4177 0.961 . S
H4164 C4178 0.960 . S
H4165 C4178 0.961 . S
H4166 C4178 0.959 . S
H4167 C4181 0.929 . S
H4168 C4182 0.931 . S
H4169 C4184 0.930 1_545 S
C4170 H4158 0.930 . S
C4170 C4171 1.399 . S
C4170 C4175 1.399 . S
C4171 C4170 1.399 . S
C4171 C4172 1.376 . S
C4172 H4159 0.930 . S
C4172 C4171 1.376 . S
C4172 C4173 1.388 . S
C4173 H4160 0.930 . S
C4173 C4172 1.388 . S
C4173 C4174 1.390 . S
C4174 C4173 1.390 . S
C4174 C4175 1.394 . S
C4174 C4180 1.465 . S
C4175 C4170 1.399 . S
C4175 C4174 1.394 . S
C4175 C4176 1.516 . S
C4176 C4175 1.516 . S
C4176 C4177 1.502 1_565 S
C4176 C4178 1.561 . S
C4176 C4179 1.526 . S
C4177 H4161 0.959 . S
C4177 H4162 0.959 . S
C4177 H4163 0.961 . S
C4177 C4176 1.502 1_545 S
C4178 H4164 0.960 . S
C4178 H4165 0.961 . S
C4178 H4166 0.959 . S
C4178 C4176 1.561 . S
C4179 C4176 1.526 . S
C4179 C4180 1.396 . S
C4179 C4184 1.390 . S
C4180 C4174 1.465 . S
C4180 C4179 1.396 . S
C4180 C4181 1.399 . S
C4181 H4167 0.929 . S
C4181 C4180 1.399 . S
C4181 C4182 1.385 . S
C4182 H4168 0.931 . S
C4182 C4181 1.385 . S
C4182 C4183 1.389 . S
C4183 C4182 1.389 . S
C4183 C4184 1.387 . S
C4184 H4169 0.930 1_565 S
C4184 C4179 1.390 . S
C4184 C4183 1.387 . S
H4185 C4197 0.930 . S
H4186 C4199 0.930 . S
H4187 C4200 0.930 . S
H4188 C4204 0.959 1_655 S
H4189 C4204 0.959 . S
H4190 C4204 0.961 . S
H4191 C4205 0.960 . S
H4192 C4205 0.961 . S
H4193 C4205 0.959 . S
H4194 C4208 0.929 . S
H4195 C4209 0.931 . S
H4196 C4211 0.930 . S
C4197 H4185 0.930 . S
C4197 C4198 1.399 . S
C4197 C4202 1.399 . S
C4198 C4197 1.399 . S
C4198 C4199 1.376 . S
C4199 H4186 0.930 . S
C4199 C4198 1.376 . S
C4199 C4200 1.388 . S
C4200 H4187 0.930 . S
C4200 C4199 1.388 . S
C4200 C4201 1.390 . S
C4201 C4200 1.390 . S
C4201 C4202 1.394 . S
C4201 C4207 1.465 . S
C4202 C4197 1.399 . S
C4202 C4201 1.394 . S
C4202 C4203 1.516 . S
C4203 C4202 1.516 . S
C4203 C4204 1.502 . S
C4203 C4205 1.561 . S
C4203 C4206 1.526 . S
C4204 H4188 0.959 1_455 S
C4204 H4189 0.959 . S
C4204 H4190 0.961 . S
C4204 C4203 1.502 . S
C4205 H4191 0.960 . S
C4205 H4192 0.961 . S
C4205 H4193 0.959 . S
C4205 C4203 1.561 . S
C4206 C4203 1.526 . S
C4206 C4207 1.396 . S
C4206 C4211 1.390 . S
C4207 C4201 1.465 . S
C4207 C4206 1.396 . S
C4207 C4208 1.399 . S
C4208 H4194 0.929 . S
C4208 C4207 1.399 . S
C4208 C4209 1.385 . S
C4209 H4195 0.931 . S
C4209 C4208 1.385 . S
C4209 C4210 1.389 . S
C4210 C4209 1.389 . S
C4210 C4211 1.387 . S
C4211 H4196 0.930 . S
C4211 C4206 1.390 . S
C4211 C4210 1.387 . S
H4212 C4224 0.930 . S
H4213 C4226 0.930 . S
H4214 C4227 0.930 . S
H4215 C4231 0.959 . S
H4216 C4231 0.959 . S
H4217 C4231 0.961 . S
H4218 C4232 0.960 . S
H4219 C4232 0.961 . S
H4220 C4232 0.959 . S
H4221 C4235 0.929 . S
H4222 C4236 0.931 . S
H4223 C4238 0.930 . S
C4224 H4212 0.930 . S
C4224 C4225 1.399 . S
C4224 C4229 1.399 . S
C4225 C4224 1.399 . S
C4225 C4226 1.376 . S
C4226 H4213 0.930 . S
C4226 C4225 1.376 . S
C4226 C4227 1.388 . S
C4227 H4214 0.930 . S
C4227 C4226 1.388 . S
C4227 C4228 1.390 . S
C4228 C4227 1.390 . S
C4228 C4229 1.394 . S
C4228 C4234 1.465 . S
C4229 C4224 1.399 . S
C4229 C4228 1.394 . S
C4229 C4230 1.516 . S
C4230 C4229 1.516 . S
C4230 C4231 1.502 . S
C4230 C4232 1.561 . S
C4230 C4233 1.526 . S
C4231 H4215 0.959 . S
C4231 H4216 0.959 . S
C4231 H4217 0.961 . S
C4231 C4230 1.502 . S
C4232 H4218 0.960 . S
C4232 H4219 0.961 . S
C4232 H4220 0.959 . S
C4232 C4230 1.561 . S
C4233 C4230 1.526 . S
C4233 C4234 1.396 . S
C4233 C4238 1.390 . S
C4234 C4228 1.465 . S
C4234 C4233 1.396 . S
C4234 C4235 1.399 . S
C4235 H4221 0.929 . S
C4235 C4234 1.399 . S
C4235 C4236 1.385 . S
C4236 H4222 0.931 . S
C4236 C4235 1.385 . S
C4236 C4237 1.389 . S
C4237 C4236 1.389 . S
C4237 C4238 1.387 . S
C4238 H4223 0.930 . S
C4238 C4233 1.390 . S
C4238 C4237 1.387 . S
H4239 C4251 0.930 . S
H4240 C4253 0.930 . S
H4241 C4254 0.930 . S
H4242 C4258 0.959 . S
H4243 C4258 0.959 . S
H4244 C4258 0.961 . S
H4245 C4259 0.960 . S
H4246 C4259 0.961 . S
H4247 C4259 0.959 . S
H4248 C4262 0.929 . S
H4249 C4263 0.931 . S
H4250 C4265 0.930 . S
C4251 H4239 0.930 . S
C4251 C4252 1.399 . S
C4251 C4256 1.399 . S
C4252 C4251 1.399 . S
C4252 C4253 1.376 . S
C4253 H4240 0.930 . S
C4253 C4252 1.376 . S
C4253 C4254 1.388 . S
C4254 H4241 0.930 . S
C4254 C4253 1.388 . S
C4254 C4255 1.390 . S
C4255 C4254 1.390 . S
C4255 C4256 1.394 . S
C4255 C4261 1.465 . S
C4256 C4251 1.399 . S
C4256 C4255 1.394 . S
C4256 C4257 1.516 . S
C4257 C4256 1.516 . S
C4257 C4258 1.502 . S
C4257 C4259 1.561 . S
C4257 C4260 1.526 . S
C4258 H4242 0.959 . S
C4258 H4243 0.959 . S
C4258 H4244 0.961 . S
C4258 C4257 1.502 . S
C4259 H4245 0.960 . S
C4259 H4246 0.961 . S
C4259 H4247 0.959 . S
C4259 C4257 1.561 . S
C4260 C4257 1.526 . S
C4260 C4261 1.396 . S
C4260 C4265 1.390 . S
C4261 C4255 1.465 . S
C4261 C4260 1.396 . S
C4261 C4262 1.399 . S
C4262 H4248 0.929 . S
C4262 C4261 1.399 . S
C4262 C4263 1.385 . S
C4263 H4249 0.931 . S
C4263 C4262 1.385 . S
C4263 C4264 1.389 . S
C4264 C4263 1.389 . S
C4264 C4265 1.387 . S
C4265 H4250 0.930 . S
C4265 C4260 1.390 . S
C4265 C4264 1.387 . S
H4266 C4278 0.930 . S
H4267 C4280 0.930 . S
H4268 C4281 0.930 . S
H4269 C4285 0.959 . S
H4270 C4285 0.959 . S
H4271 C4285 0.961 . S
H4272 C4286 0.960 . S
H4273 C4286 0.961 . S
H4274 C4286 0.959 . S
H4275 C4289 0.929 . S
H4276 C4290 0.931 . S
H4277 C4292 0.930 . S
C4278 H4266 0.930 . S
C4278 C4279 1.399 . S
C4278 C4283 1.399 . S
C4279 C4278 1.399 . S
C4279 C4280 1.376 . S
C4280 H4267 0.930 . S
C4280 C4279 1.376 . S
C4280 C4281 1.388 . S
C4281 H4268 0.930 . S
C4281 C4280 1.388 . S
C4281 C4282 1.390 . S
C4282 C4281 1.390 . S
C4282 C4283 1.394 . S
C4282 C4288 1.465 . S
C4283 C4278 1.399 . S
C4283 C4282 1.394 . S
C4283 C4284 1.516 . S
C4284 C4283 1.516 . S
C4284 C4285 1.502 . S
C4284 C4286 1.561 . S
C4284 C4287 1.526 . S
C4285 H4269 0.959 . S
C4285 H4270 0.959 . S
C4285 H4271 0.961 . S
C4285 C4284 1.502 . S
C4286 H4272 0.960 . S
C4286 H4273 0.961 . S
C4286 H4274 0.959 . S
C4286 C4284 1.561 . S
C4287 C4284 1.526 . S
C4287 C4288 1.396 . S
C4287 C4292 1.390 . S
C4288 C4282 1.465 . S
C4288 C4287 1.396 . S
C4288 C4289 1.399 . S
C4289 H4275 0.929 . S
C4289 C4288 1.399 . S
C4289 C4290 1.385 . S
C4290 H4276 0.931 . S
C4290 C4289 1.385 . S
C4290 C4291 1.389 . S
C4291 C4290 1.389 . S
C4291 C4292 1.387 . S
C4292 H4277 0.930 . S
C4292 C4287 1.390 . S
C4292 C4291 1.387 . S
H4293 C4305 0.930 . S
H4294 C4307 0.930 . S
H4295 C4308 0.930 . S
H4296 C4312 0.959 . S
H4297 C4312 0.959 . S
H4298 C4312 0.961 . S
H4299 C4313 0.960 . S
H4300 C4313 0.961 . S
H4301 C4313 0.959 . S
H4302 C4316 0.929 . S
H4303 C4317 0.931 . S
H4304 C4319 0.930 . S
C4305 H4293 0.930 . S
C4305 C4306 1.399 . S
C4305 C4310 1.399 . S
C4306 C4305 1.399 . S
C4306 C4307 1.376 . S
C4307 H4294 0.930 . S
C4307 C4306 1.376 . S
C4307 C4308 1.388 . S
C4308 H4295 0.930 . S
C4308 C4307 1.388 . S
C4308 C4309 1.390 . S
C4309 C4308 1.390 . S
C4309 C4310 1.394 . S
C4309 C4315 1.465 . S
C4310 C4305 1.399 . S
C4310 C4309 1.394 . S
C4310 C4311 1.516 . S
C4311 C4310 1.516 . S
C4311 C4312 1.502 . S
C4311 C4313 1.561 . S
C4311 C4314 1.526 . S
C4312 H4296 0.959 . S
C4312 H4297 0.959 . S
C4312 H4298 0.961 . S
C4312 C4311 1.502 . S
C4313 H4299 0.960 . S
C4313 H4300 0.961 . S
C4313 H4301 0.959 . S
C4313 C4311 1.561 . S
C4314 C4311 1.526 . S
C4314 C4315 1.396 . S
C4314 C4319 1.390 . S
C4315 C4309 1.465 . S
C4315 C4314 1.396 . S
C4315 C4316 1.399 . S
C4316 H4302 0.929 . S
C4316 C4315 1.399 . S
C4316 C4317 1.385 . S
C4317 H4303 0.931 . S
C4317 C4316 1.385 . S
C4317 C4318 1.389 . S
C4318 C4317 1.389 . S
C4318 C4319 1.387 . S
C4319 H4304 0.930 . S
C4319 C4314 1.390 . S
C4319 C4318 1.387 . S
H4320 C4332 0.930 . S
H4321 C4334 0.930 . S
H4322 C4335 0.930 . S
H4323 C4339 0.959 . S
H4324 C4339 0.959 . S
H4325 C4339 0.961 . S
H4326 C4340 0.960 . S
H4327 C4340 0.961 . S
H4328 C4340 0.959 . S
H4329 C4343 0.929 . S
H4330 C4344 0.931 . S
H4331 C4346 0.930 1_565 S
C4332 H4320 0.930 . S
C4332 C4333 1.399 . S
C4332 C4337 1.399 . S
C4333 C4332 1.399 . S
C4333 C4334 1.376 . S
C4334 H4321 0.930 . S
C4334 C4333 1.376 . S
C4334 C4335 1.388 . S
C4335 H4322 0.930 . S
C4335 C4334 1.388 . S
C4335 C4336 1.390 . S
C4336 C4335 1.390 . S
C4336 C4337 1.394 . S
C4336 C4342 1.465 . S
C4337 C4332 1.399 . S
C4337 C4336 1.394 . S
C4337 C4338 1.516 . S
C4338 C4337 1.516 . S
C4338 C4339 1.502 1_545 S
C4338 C4340 1.561 . S
C4338 C4341 1.526 . S
C4339 H4323 0.959 . S
C4339 H4324 0.959 . S
C4339 H4325 0.961 . S
C4339 C4338 1.502 1_565 S
C4340 H4326 0.960 . S
C4340 H4327 0.961 . S
C4340 H4328 0.959 . S
C4340 C4338 1.561 . S
C4341 C4338 1.526 . S
C4341 C4342 1.396 . S
C4341 C4346 1.390 . S
C4342 C4336 1.465 . S
C4342 C4341 1.396 . S
C4342 C4343 1.399 . S
C4343 H4329 0.929 . S
C4343 C4342 1.399 . S
C4343 C4344 1.385 . S
C4344 H4330 0.931 . S
C4344 C4343 1.385 . S
C4344 C4345 1.389 . S
C4345 C4344 1.389 . S
C4345 C4346 1.387 . S
C4346 H4331 0.930 1_545 S
C4346 C4341 1.390 . S
C4346 C4345 1.387 . S
H4347 C4359 0.930 . S
H4348 C4361 0.930 . S
H4349 C4362 0.930 . S
H4350 C4366 0.959 1_455 S
H4351 C4366 0.933 . S
H4352 C4366 0.961 . S
H4353 C4367 0.960 . S
H4354 C4367 0.961 . S
H4355 C4367 0.959 . S
H4356 C4370 0.929 . S
H4357 C4371 0.931 . S
H4358 C4373 0.930 . S
C4359 H4347 0.930 . S
C4359 C4360 1.399 . S
C4359 C4364 1.399 . S
C4360 C4359 1.399 . S
C4360 C4361 1.376 . S
C4361 H4348 0.930 . S
C4361 C4360 1.376 . S
C4361 C4362 1.388 . S
C4362 H4349 0.930 . S
C4362 C4361 1.388 . S
C4362 C4363 1.390 . S
C4363 C4362 1.390 . S
C4363 C4364 1.394 . S
C4363 C4369 1.465 . S
C4364 C4359 1.399 . S
C4364 C4363 1.394 . S
C4364 C4365 1.516 . S
C4365 C4364 1.516 . S
C4365 C4366 1.502 . S
C4365 C4367 1.561 . S
C4365 C4368 1.526 . S
C4366 H4350 0.959 1_655 S
C4366 H4351 0.933 . S
C4366 H4352 0.961 . S
C4366 C4365 1.502 . S
C4367 H4353 0.960 . S
C4367 H4354 0.961 . S
C4367 H4355 0.959 . S
C4367 C4365 1.561 . S
C4368 C4365 1.526 . S
C4368 C4369 1.396 . S
C4368 C4373 1.390 . S
C4369 C4363 1.465 . S
C4369 C4368 1.396 . S
C4369 C4370 1.399 . S
C4370 H4356 0.929 . S
C4370 C4369 1.399 . S
C4370 C4371 1.385 . S
C4371 H4357 0.931 . S
C4371 C4370 1.385 . S
C4371 C4372 1.389 . S
C4372 C4371 1.389 . S
C4372 C4373 1.387 . S
C4373 H4358 0.930 . S
C4373 C4368 1.390 . S
C4373 C4372 1.387 . S
H4374 C4386 0.930 . S
H4375 C4388 0.930 . S
H4376 C4389 0.930 . S
H4377 C4393 0.959 . S
H4378 C4393 0.959 . S
H4379 C4393 0.961 . S
H4380 C4394 0.960 . S
H4381 C4394 0.961 . S
H4382 C4394 0.959 . S
H4383 C4397 0.929 . S
H4384 C4398 0.931 . S
H4385 C4400 0.930 . S
C4386 H4374 0.930 . S
C4386 C4387 1.399 . S
C4386 C4391 1.399 . S
C4387 C4386 1.399 . S
C4387 C4388 1.376 . S
C4388 H4375 0.930 . S
C4388 C4387 1.376 . S
C4388 C4389 1.388 . S
C4389 H4376 0.930 . S
C4389 C4388 1.388 . S
C4389 C4390 1.390 . S
C4390 C4389 1.390 . S
C4390 C4391 1.394 . S
C4390 C4396 1.465 . S
C4391 C4386 1.399 . S
C4391 C4390 1.394 . S
C4391 C4392 1.516 . S
C4392 C4391 1.516 . S
C4392 C4393 1.502 . S
C4392 C4394 1.561 . S
C4392 C4395 1.526 . S
C4393 H4377 0.959 . S
C4393 H4378 0.959 . S
C4393 H4379 0.961 . S
C4393 C4392 1.502 . S
C4394 H4380 0.960 . S
C4394 H4381 0.961 . S
C4394 H4382 0.959 . S
C4394 C4392 1.561 . S
C4395 C4392 1.526 . S
C4395 C4396 1.396 . S
C4395 C4400 1.390 . S
C4396 C4390 1.465 . S
C4396 C4395 1.396 . S
C4396 C4397 1.399 . S
C4397 H4383 0.929 . S
C4397 C4396 1.399 . S
C4397 C4398 1.385 . S
C4398 H4384 0.931 . S
C4398 C4397 1.385 . S
C4398 C4399 1.389 . S
C4399 C4398 1.389 . S
C4399 C4400 1.387 . S
C4400 H4385 0.930 . S
C4400 C4395 1.390 . S
C4400 C4399 1.387 . S
H4401 C4413 0.930 . S
H4402 C4415 0.930 . S
H4403 C4416 0.930 . S
H4404 C4420 0.959 . S
H4405 C4420 0.959 . S
H4406 C4420 0.961 . S
H4407 C4421 0.960 . S
H4408 C4421 0.961 . S
H4409 C4421 0.959 . S
H4410 C4424 0.929 . S
H4411 C4425 0.931 . S
H4412 C4427 0.930 . S
C4413 H4401 0.930 . S
C4413 C4414 1.399 . S
C4413 C4418 1.399 . S
C4414 C4413 1.399 . S
C4414 C4415 1.376 . S
C4415 H4402 0.930 . S
C4415 C4414 1.376 . S
C4415 C4416 1.388 . S
C4416 H4403 0.930 . S
C4416 C4415 1.388 . S
C4416 C4417 1.390 . S
C4417 C4416 1.390 . S
C4417 C4418 1.394 . S
C4417 C4423 1.465 . S
C4418 C4413 1.399 . S
C4418 C4417 1.394 . S
C4418 C4419 1.516 . S
C4419 C4418 1.516 . S
C4419 C4420 1.502 . S
C4419 C4421 1.561 . S
C4419 C4422 1.526 . S
C4420 H4404 0.959 . S
C4420 H4405 0.959 . S
C4420 H4406 0.961 . S
C4420 C4419 1.502 . S
C4421 H4407 0.960 . S
C4421 H4408 0.961 . S
C4421 H4409 0.959 . S
C4421 C4419 1.561 . S
C4422 C4419 1.526 . S
C4422 C4423 1.396 . S
C4422 C4427 1.390 . S
C4423 C4417 1.465 . S
C4423 C4422 1.396 . S
C4423 C4424 1.399 . S
C4424 H4410 0.929 . S
C4424 C4423 1.399 . S
C4424 C4425 1.385 . S
C4425 H4411 0.931 . S
C4425 C4424 1.385 . S
C4425 C4426 1.389 . S
C4426 C4425 1.389 . S
C4426 C4427 1.387 . S
C4427 H4412 0.930 . S
C4427 C4422 1.390 . S
C4427 C4426 1.387 . S
H4428 C4440 0.930 . S
H4429 C4442 0.930 . S
H4430 C4443 0.930 . S
H4431 C4447 0.959 . S
H4432 C4447 0.959 . S
H4433 C4447 0.961 . S
H4434 C4448 0.960 . S
H4435 C4448 0.961 . S
H4436 C4448 0.959 . S
H4437 C4451 0.929 . S
H4438 C4452 0.931 . S
H4439 C4454 0.930 . S
C4440 H4428 0.930 . S
C4440 C4441 1.399 . S
C4440 C4445 1.399 . S
C4441 C4440 1.399 . S
C4441 C4442 1.376 . S
C4442 H4429 0.930 . S
C4442 C4441 1.376 . S
C4442 C4443 1.388 . S
C4443 H4430 0.930 . S
C4443 C4442 1.388 . S
C4443 C4444 1.390 . S
C4444 C4443 1.390 . S
C4444 C4445 1.394 . S
C4444 C4450 1.465 . S
C4445 C4440 1.399 . S
C4445 C4444 1.394 . S
C4445 C4446 1.516 . S
C4446 C4445 1.516 . S
C4446 C4447 1.502 . S
C4446 C4448 1.561 . S
C4446 C4449 1.526 . S
C4447 H4431 0.959 . S
C4447 H4432 0.959 . S
C4447 H4433 0.961 . S
C4447 C4446 1.502 . S
C4448 H4434 0.960 . S
C4448 H4435 0.961 . S
C4448 H4436 0.959 . S
C4448 C4446 1.561 . S
C4449 C4446 1.526 . S
C4449 C4450 1.396 . S
C4449 C4454 1.390 . S
C4450 C4444 1.465 . S
C4450 C4449 1.396 . S
C4450 C4451 1.399 . S
C4451 H4437 0.929 . S
C4451 C4450 1.399 . S
C4451 C4452 1.385 . S
C4452 H4438 0.931 . S
C4452 C4451 1.385 . S
C4452 C4453 1.389 . S
C4453 C4452 1.389 . S
C4453 C4454 1.387 . S
C4454 H4439 0.930 . S
C4454 C4449 1.390 . S
C4454 C4453 1.387 . S
H4455 C4467 0.930 . S
H4456 C4469 0.930 . S
H4457 C4470 0.930 . S
H4458 C4474 0.959 . S
H4459 C4474 0.959 . S
H4460 C4474 0.961 . S
H4461 C4475 0.960 . S
H4462 C4475 0.961 . S
H4463 C4475 0.959 . S
H4464 C4478 0.929 . S
H4465 C4479 0.931 . S
H4466 C4481 0.930 . S
C4467 H4455 0.930 . S
C4467 C4468 1.399 . S
C4467 C4472 1.399 . S
C4468 C4467 1.399 . S
C4468 C4469 1.376 . S
C4469 H4456 0.930 . S
C4469 C4468 1.376 . S
C4469 C4470 1.388 . S
C4470 H4457 0.930 . S
C4470 C4469 1.388 . S
C4470 C4471 1.390 . S
C4471 C4470 1.390 . S
C4471 C4472 1.394 . S
C4471 C4477 1.465 . S
C4472 C4467 1.399 . S
C4472 C4471 1.394 . S
C4472 C4473 1.516 . S
C4473 C4472 1.516 . S
C4473 C4474 1.502 . S
C4473 C4475 1.561 . S
C4473 C4476 1.526 . S
C4474 H4458 0.959 . S
C4474 H4459 0.959 . S
C4474 H4460 0.961 . S
C4474 C4473 1.502 . S
C4475 H4461 0.960 . S
C4475 H4462 0.961 . S
C4475 H4463 0.959 . S
C4475 C4473 1.561 . S
C4476 C4473 1.526 . S
C4476 C4477 1.396 . S
C4476 C4481 1.390 . S
C4477 C4471 1.465 . S
C4477 C4476 1.396 . S
C4477 C4478 1.399 . S
C4478 H4464 0.929 . S
C4478 C4477 1.399 . S
C4478 C4479 1.385 . S
C4479 H4465 0.931 . S
C4479 C4478 1.385 . S
C4479 C4480 1.389 . S
C4480 C4479 1.389 . S
C4480 C4481 1.387 . S
C4481 H4466 0.930 . S
C4481 C4476 1.390 . S
C4481 C4480 1.387 . S
H4482 C4494 0.930 . S
H4483 C4496 0.930 . S
H4484 C4497 0.930 . S
H4485 C4501 0.959 . S
H4486 C4501 0.959 . S
H4487 C4501 0.961 . S
H4488 C4502 0.960 . S
H4489 C4502 0.961 . S
H4490 C4502 0.959 . S
H4491 C4505 0.929 . S
H4492 C4506 0.931 . S
H4493 C4508 0.930 . S
C4494 H4482 0.930 . S
C4494 C4495 1.399 . S
C4494 C4499 1.399 . S
C4495 C4494 1.399 . S
C4495 C4496 1.376 . S
C4496 H4483 0.930 . S
C4496 C4495 1.376 . S
C4496 C4497 1.388 . S
C4497 H4484 0.930 . S
C4497 C4496 1.388 . S
C4497 C4498 1.390 . S
C4498 C4497 1.390 . S
C4498 C4499 1.394 . S
C4498 C4504 1.465 . S
C4499 C4494 1.399 . S
C4499 C4498 1.394 . S
C4499 C4500 1.516 . S
C4500 C4499 1.516 . S
C4500 C4501 1.502 . S
C4500 C4502 1.561 . S
C4500 C4503 1.526 . S
C4501 H4485 0.959 . S
C4501 H4486 0.959 . S
C4501 H4487 0.961 . S
C4501 C4500 1.502 . S
C4502 H4488 0.960 . S
C4502 H4489 0.961 . S
C4502 H4490 0.959 . S
C4502 C4500 1.561 . S
C4503 C4500 1.526 . S
C4503 C4504 1.396 . S
C4503 C4508 1.390 . S
C4504 C4498 1.465 . S
C4504 C4503 1.396 . S
C4504 C4505 1.399 . S
C4505 H4491 0.929 . S
C4505 C4504 1.399 . S
C4505 C4506 1.385 . S
C4506 H4492 0.931 . S
C4506 C4505 1.385 . S
C4506 C4507 1.389 . S
C4507 C4506 1.389 . S
C4507 C4508 1.387 . S
C4508 H4493 0.930 . S
C4508 C4503 1.390 . S
C4508 C4507 1.387 . S
H4509 C4521 0.930 . S
H4510 C4523 0.930 . S
H4511 C4524 0.930 . S
H4512 C4528 0.959 . S
H4513 C4528 0.959 . S
H4514 C4528 0.961 . S
H4515 C4529 0.960 . S
H4516 C4529 0.961 . S
H4517 C4529 0.959 . S
H4518 C4532 0.929 . S
H4519 C4533 0.931 . S
H4520 C4535 0.930 . S
C4521 H4509 0.930 . S
C4521 C4522 1.399 . S
C4521 C4526 1.399 . S
C4522 C4521 1.399 . S
C4522 C4523 1.376 . S
C4523 H4510 0.930 . S
C4523 C4522 1.376 . S
C4523 C4524 1.388 . S
C4524 H4511 0.930 . S
C4524 C4523 1.388 . S
C4524 C4525 1.390 . S
C4525 C4524 1.390 . S
C4525 C4526 1.394 . S
C4525 C4531 1.465 . S
C4526 C4521 1.399 . S
C4526 C4525 1.394 . S
C4526 C4527 1.516 . S
C4527 C4526 1.516 . S
C4527 C4528 1.502 . S
C4527 C4529 1.561 . S
C4527 C4530 1.526 . S
C4528 H4512 0.959 . S
C4528 H4513 0.959 . S
C4528 H4514 0.961 . S
C4528 C4527 1.502 . S
C4529 H4515 0.960 . S
C4529 H4516 0.961 . S
C4529 H4517 0.959 . S
C4529 C4527 1.561 . S
C4530 C4527 1.526 . S
C4530 C4531 1.396 . S
C4530 C4535 1.390 . S
C4531 C4525 1.465 . S
C4531 C4530 1.396 . S
C4531 C4532 1.399 . S
C4532 H4518 0.929 . S
C4532 C4531 1.399 . S
C4532 C4533 1.385 . S
C4533 H4519 0.931 . S
C4533 C4532 1.385 . S
C4533 C4534 1.389 . S
C4534 C4533 1.389 . S
C4534 C4535 1.387 . S
C4535 H4520 0.930 . S
C4535 C4530 1.390 . S
C4535 C4534 1.387 . S
H4536 C4548 0.930 . S
H4537 C4550 0.930 . S
H4538 C4551 0.930 . S
H4539 C4555 0.959 . S
H4540 C4555 0.959 . S
H4541 C4555 0.961 . S
H4542 C4556 0.960 . S
H4543 C4556 0.961 . S
H4544 C4556 0.959 . S
H4545 C4559 0.929 . S
H4546 C4560 0.931 . S
H4547 C4562 0.930 . S
C4548 H4536 0.930 . S
C4548 C4549 1.399 . S
C4548 C4553 1.399 . S
C4549 C4548 1.399 . S
C4549 C4550 1.376 . S
C4550 H4537 0.930 . S
C4550 C4549 1.376 . S
C4550 C4551 1.388 . S
C4551 H4538 0.930 . S
C4551 C4550 1.388 . S
C4551 C4552 1.390 . S
C4552 C4551 1.390 . S
C4552 C4553 1.394 . S
C4552 C4558 1.465 . S
C4553 C4548 1.399 . S
C4553 C4552 1.394 . S
C4553 C4554 1.516 . S
C4554 C4553 1.516 . S
C4554 C4555 1.502 . S
C4554 C4556 1.561 . S
C4554 C4557 1.526 . S
C4555 H4539 0.959 . S
C4555 H4540 0.959 . S
C4555 H4541 0.961 . S
C4555 C4554 1.502 . S
C4556 H4542 0.960 . S
C4556 H4543 0.961 . S
C4556 H4544 0.959 . S
C4556 C4554 1.561 . S
C4557 C4554 1.526 . S
C4557 C4558 1.396 . S
C4557 C4562 1.390 . S
C4558 C4552 1.465 . S
C4558 C4557 1.396 . S
C4558 C4559 1.399 . S
C4559 H4545 0.929 . S
C4559 C4558 1.399 . S
C4559 C4560 1.385 . S
C4560 H4546 0.931 . S
C4560 C4559 1.385 . S
C4560 C4561 1.389 . S
C4561 C4560 1.389 . S
C4561 C4562 1.387 . S
C4562 H4547 0.930 . S
C4562 C4557 1.390 . S
C4562 C4561 1.387 . S
H4563 C4575 0.930 . S
H4564 C4577 0.930 . S
H4565 C4578 0.930 1_455 S
H4566 C4582 0.959 . S
H4567 C4582 0.959 . S
H4568 C4582 0.961 . S
H4569 C4583 0.960 . S
H4570 C4583 0.961 . S
H4571 C4583 0.959 . S
H4572 C4586 0.929 . S
H4573 C4587 0.931 . S
H4574 C4589 0.930 . S
C4575 H4563 0.930 . S
C4575 C4576 1.399 . S
C4575 C4580 1.399 . S
C4576 C4575 1.399 . S
C4576 C4577 1.376 . S
C4577 H4564 0.930 . S
C4577 C4576 1.376 . S
C4577 C4578 1.388 . S
C4578 H4565 0.930 1_655 S
C4578 C4577 1.388 . S
C4578 C4579 1.390 . S
C4579 C4578 1.390 . S
C4579 C4580 1.394 . S
C4579 C4585 1.465 . S
C4580 C4575 1.399 . S
C4580 C4579 1.394 . S
C4580 C4581 1.516 . S
C4581 C4580 1.516 . S
C4581 C4582 1.502 . S
C4581 C4583 1.561 . S
C4581 C4584 1.526 . S
C4582 H4566 0.959 . S
C4582 H4567 0.959 . S
C4582 H4568 0.961 . S
C4582 C4581 1.502 . S
C4583 H4569 0.960 . S
C4583 H4570 0.961 . S
C4583 H4571 0.959 . S
C4583 C4581 1.561 . S
C4584 C4581 1.526 . S
C4584 C4585 1.396 . S
C4584 C4589 1.390 . S
C4585 C4579 1.465 . S
C4585 C4584 1.396 . S
C4585 C4586 1.399 1_655 S
C4586 H4572 0.929 . S
C4586 C4585 1.399 1_455 S
C4586 C4587 1.385 . S
C4587 H4573 0.931 . S
C4587 C4586 1.385 . S
C4587 C4588 1.389 1_455 S
C4588 C4587 1.389 1_655 S
C4588 C4589 1.387 . S
C4589 H4574 0.930 . S
C4589 C4584 1.390 . S
C4589 C4588 1.387 . S
H4590 C4602 0.930 . S
H4591 C4604 0.930 . S
H4592 C4605 0.930 . S
H4593 C4609 0.959 . S
H4594 C4609 0.959 . S
H4595 C4609 0.961 . S
H4596 C4610 0.960 . S
H4597 C4610 0.961 . S
H4598 C4610 0.959 . S
H4599 C4613 0.929 . S
H4600 C4614 0.931 . S
H4601 C4616 0.930 . S
C4602 H4590 0.930 . S
C4602 C4603 1.399 . S
C4602 C4607 1.399 . S
C4603 C4602 1.399 . S
C4603 C4604 1.376 . S
C4604 H4591 0.930 . S
C4604 C4603 1.376 . S
C4604 C4605 1.388 . S
C4605 H4592 0.930 . S
C4605 C4604 1.388 . S
C4605 C4606 1.390 . S
C4606 C4605 1.390 . S
C4606 C4607 1.394 . S
C4606 C4612 1.465 . S
C4607 C4602 1.399 . S
C4607 C4606 1.394 . S
C4607 C4608 1.516 . S
C4608 C4607 1.516 . S
C4608 C4609 1.502 . S
C4608 C4610 1.561 . S
C4608 C4611 1.526 . S
C4609 H4593 0.959 . S
C4609 H4594 0.959 . S
C4609 H4595 0.961 . S
C4609 C4608 1.502 . S
C4610 H4596 0.960 . S
C4610 H4597 0.961 . S
C4610 H4598 0.959 . S
C4610 C4608 1.561 . S
C4611 C4608 1.526 . S
C4611 C4612 1.396 . S
C4611 C4616 1.390 . S
C4612 C4606 1.465 . S
C4612 C4611 1.396 . S
C4612 C4613 1.399 . S
C4613 H4599 0.929 . S
C4613 C4612 1.399 . S
C4613 C4614 1.385 . S
C4614 H4600 0.931 . S
C4614 C4613 1.385 . S
C4614 C4615 1.389 . S
C4615 C4614 1.389 . S
C4615 C4616 1.387 . S
C4616 H4601 0.930 . S
C4616 C4611 1.390 . S
C4616 C4615 1.387 . S
H4617 C4629 0.930 . S
H4618 C4631 0.930 . S
H4619 C4632 0.930 1_565 S
H4620 C4636 0.959 . S
H4621 C4636 0.959 . S
H4622 C4636 0.961 . S
H4623 C4637 0.960 . S
H4624 C4637 0.961 . S
H4625 C4637 0.959 . S
H4626 C4640 0.929 . S
H4627 C4641 0.931 . S
H4628 C4643 0.930 . S
C4629 H4617 0.930 . S
C4629 C4630 1.399 . S
C4629 C4634 1.399 . S
C4630 C4629 1.399 . S
C4630 C4631 1.376 . S
C4631 H4618 0.930 . S
C4631 C4630 1.376 . S
C4631 C4632 1.388 . S
C4632 H4619 0.930 1_545 S
C4632 C4631 1.388 . S
C4632 C4633 1.390 . S
C4633 C4632 1.390 . S
C4633 C4634 1.394 . S
C4633 C4639 1.465 . S
C4634 C4629 1.399 . S
C4634 C4633 1.394 . S
C4634 C4635 1.516 . S
C4635 C4634 1.516 . S
C4635 C4636 1.502 . S
C4635 C4637 1.561 . S
C4635 C4638 1.526 . S
C4636 H4620 0.959 . S
C4636 H4621 0.959 . S
C4636 H4622 0.961 . S
C4636 C4635 1.502 . S
C4637 H4623 0.960 . S
C4637 H4624 0.961 . S
C4637 H4625 0.959 . S
C4637 C4635 1.561 . S
C4638 C4635 1.526 . S
C4638 C4639 1.396 . S
C4638 C4643 1.390 . S
C4639 C4633 1.465 . S
C4639 C4638 1.396 . S
C4639 C4640 1.399 1_545 S
C4640 H4626 0.929 . S
C4640 C4639 1.399 1_565 S
C4640 C4641 1.385 . S
C4641 H4627 0.931 . S
C4641 C4640 1.385 . S
C4641 C4642 1.389 1_565 S
C4642 C4641 1.389 1_545 S
C4642 C4643 1.387 . S
C4643 H4628 0.930 . S
C4643 C4638 1.390 . S
C4643 C4642 1.387 . S
C2713 C49 1.639 . S
C2725 C2189 1.627 . S
C2740 C137 1.688 . S
C2752 C2233 1.632 . S
C2779 C2313 1.623 . S
C2767 C205 1.683 . S
C2794 C196 1.640 . S
C2806 C2357 1.640 . S
C2821 C57 1.661 . S
C2833 C2437 1.656 . S
C2848 C145 1.705 . S
C2860 C2499 1.594 . S
C2875 C313 1.655 . S
C2887 C2419 1.572 . S
C2914 C2481 1.576 . S
C2902 C401 1.690 . S
C2941 C2375 1.585 . S
C2929 C489 1.690 . S
C2956 C469 1.647 . S
C2968 C2295 1.635 . S
C2995 C2171 1.655 . S
C2983 C293 1.663 . S
C3010 C381 1.694 . S
C3022 C2251 1.606 . S
C3037 C577 1.727 . S
C3049 C2561 1.669 . S
C3064 C645 1.713 . S
C3076 C2605 1.680 . S
C3103 C2685 1.651 . S
C3091 C733 1.692 . S
C3118 C724 1.698 . S
C3130 C1631 1.586 . S
C3145 C585 1.729 . S
C3157 C1675 1.629 . S
C3172 C636 1.713 . S
C3184 C1755 1.669 . S
C3199 C841 1.708 . S
C3211 C1693 1.611 . S
C3226 C937 1.718 . S
C3238 C1737 1.641 . S
C3265 C1613 1.646 . S
C3253 C1025 1.732 . S
C3292 C2667 1.654 . S
C3280 C988 1.712 . S
C3319 C2543 1.651 . S
C3307 C821 1.701 . S
C3346 C2623 1.698 . S
C3334 C900 1.710 . S
C3361 C1105 1.702 . S
C3373 C1817 1.633 . S
C3388 C1193 1.713 . S
C3400 C1879 1.679 . S
C3415 C1281 1.720 . S
C3427 C1923 1.644 . S
C3442 C1289 1.729 . S
C3454 C1985 1.654 . S
C3481 C2047 1.675 . S
C3469 C1113 1.681 . S
C3508 C2127 1.672 . S
C3496 C1201 1.705 . S
C3535 C2065 1.704 . S
C3523 C1369 1.722 . S
C3562 C2109 1.602 . S
C3550 C1457 1.723 . S
C3577 C1553 1.688 . S
C3589 C2003 1.637 . S
C3616 C1941 1.670 . S
C3604 C1516 1.680 . S
C3631 C1349 1.731 . S
C3643 C1799 1.627 . S
C3670 C1861 1.615 . S
C3658 C1437 1.733 . S
C3697 C1637 1.288 . S
C3685 C29 1.442 . S
C3712 C117 1.417 . S
C3724 C1681 1.284 . S
C3751 C1761 1.416 . S
C3739 C225 1.440 . S
C3778 C1823 1.396 . S
C3766 C233 1.416 . S
C3805 C1885 1.413 . S
C3793 C20 1.432 . S
C3832 C1929 1.294 . S
C3820 C108 1.421 . S
C3847 C321 1.418 . S
C3859 C1947 1.402 . S
C3874 C409 1.390 . S
C3886 C1805 1.356 . S
C3901 C497 1.433 . S
C3913 C1867 1.334 . S
C3928 C460 1.453 . S
C3940 C1699 1.401 . S
C3967 C1743 1.328 . S
C3955 C284 1.433 . S
C3982 C372 1.402 . S
C3994 C1619 1.252 . S
C4021 C1991 1.392 . S
C4009 C557 1.400 . S
C4036 C665 1.456 . S
C4048 C2053 1.440 . S
C4063 C753 1.463 . S
C4075 C2133 1.431 . S
C4102 C2195 1.233 . S
C4090 C761 1.230 . S
C4117 C548 1.375 . S
C4129 C2239 1.370 . S
C4144 C673 1.251 . S
C4156 C2319 1.120 . S
C4171 C849 1.255 . S
C4183 C2301 1.194 . S
C4198 C929 1.259 . S
C4210 C2177 1.238 . S
C4237 C2257 1.307 . S
C4225 C1017 1.379 . S
C4252 C997 1.405 . S
C4264 C2071 1.302 . S
C4279 C812 1.465 . S
C4291 C2115 1.345 . S
C4318 C2009 1.345 . S
C4306 C909 1.463 . S
C4345 C2363 1.144 . S
C4333 C1085 1.250 . S
C4360 C1173 1.252 . S
C4372 C2443 1.118 . S
C4387 C1261 1.386 . S
C4399 C2505 1.278 . S
C4426 C2567 1.263 . S
C4414 C1252 1.428 . S
C4453 C2611 1.444 . S
C4441 C1076 1.460 . S
C4468 C1164 1.464 . S
C4480 C2691 1.327 . S
C4495 C1377 1.430 . S
C4507 C2673 1.364 . S
C4522 C1465 1.478 . S
C4534 C2549 1.406 . S
C4561 C2629 1.431 . S
C4549 C1545 1.466 . S
C4588 C2425 1.152 . S
C4576 C1525 1.228 . S
C4615 C2487 1.255 . S
C4603 C1340 1.391 . S
C4630 C1428 1.248 . S
C4642 C2381 1.220 . S
