# Generated by pormake.
# Topology ctn, (3,4)-cn, num edge types: 1
# Building blocks:
#     Node 0, Type 0, BuildingBlock: QEWDON_clean_linker_0, # of connection points: 3
#     Node 1, Type 0, BuildingBlock: QEWDON_clean_linker_0, # of connection points: 3
#     Node 2, Type 0, BuildingBlock: QEWDON_clean_linker_0, # of connection points: 3
#     Node 3, Type 0, BuildingBlock: QEWDON_clean_linker_0, # of connection points: 3
#     Node 4, Type 0, BuildingBlock: QEWDON_clean_linker_0, # of connection points: 3
#     Node 5, Type 0, BuildingBlock: QEWDON_clean_linker_0, # of connection points: 3
#     Node 6, Type 0, BuildingBlock: QEWDON_clean_linker_0, # of connection points: 3
#     Node 7, Type 0, BuildingBlock: QEWDON_clean_linker_0, # of connection points: 3
#     Node 8, Type 0, BuildingBlock: QEWDON_clean_linker_0, # of connection points: 3
#     Node 9, Type 0, BuildingBlock: QEWDON_clean_linker_0, # of connection points: 3
#     Node 10, Type 0, BuildingBlock: QEWDON_clean_linker_0, # of connection points: 3
#     Node 11, Type 0, BuildingBlock: QEWDON_clean_linker_0, # of connection points: 3
#     Node 12, Type 0, BuildingBlock: QEWDON_clean_linker_0, # of connection points: 3
#     Node 13, Type 0, BuildingBlock: QEWDON_clean_linker_0, # of connection points: 3
#     Node 14, Type 0, BuildingBlock: QEWDON_clean_linker_0, # of connection points: 3
#     Node 15, Type 0, BuildingBlock: QEWDON_clean_linker_0, # of connection points: 3
#     Node 16, Type 1, BuildingBlock: AZAVOO_clean_sbu_0, # of connection points: 4
#     Node 17, Type 1, BuildingBlock: AZAVOO_clean_sbu_0, # of connection points: 4
#     Node 18, Type 1, BuildingBlock: AZAVOO_clean_sbu_0, # of connection points: 4
#     Node 19, Type 1, BuildingBlock: AZAVOO_clean_sbu_0, # of connection points: 4
#     Node 20, Type 1, BuildingBlock: AZAVOO_clean_sbu_0, # of connection points: 4
#     Node 21, Type 1, BuildingBlock: AZAVOO_clean_sbu_0, # of connection points: 4
#     Node 22, Type 1, BuildingBlock: AZAVOO_clean_sbu_0, # of connection points: 4
#     Node 23, Type 1, BuildingBlock: AZAVOO_clean_sbu_0, # of connection points: 4
#     Node 24, Type 1, BuildingBlock: AZAVOO_clean_sbu_0, # of connection points: 4
#     Node 25, Type 1, BuildingBlock: AZAVOO_clean_sbu_0, # of connection points: 4
#     Node 26, Type 1, BuildingBlock: AZAVOO_clean_sbu_0, # of connection points: 4
#     Node 27, Type 1, BuildingBlock: AZAVOO_clean_sbu_0, # of connection points: 4
#     Edge 28, Type (0, 1), BuildingBlock: XIVTED_clean_linker_0, # of connection points: 2
#     Edge 29, Type (0, 1), BuildingBlock: XIVTED_clean_linker_0, # of connection points: 2
#     Edge 30, Type (0, 1), BuildingBlock: XIVTED_clean_linker_0, # of connection points: 2
#     Edge 31, Type (0, 1), BuildingBlock: XIVTED_clean_linker_0, # of connection points: 2
#     Edge 32, Type (0, 1), BuildingBlock: XIVTED_clean_linker_0, # of connection points: 2
#     Edge 33, Type (0, 1), BuildingBlock: XIVTED_clean_linker_0, # of connection points: 2
#     Edge 34, Type (0, 1), BuildingBlock: XIVTED_clean_linker_0, # of connection points: 2
#     Edge 35, Type (0, 1), BuildingBlock: XIVTED_clean_linker_0, # of connection points: 2
#     Edge 36, Type (0, 1), BuildingBlock: XIVTED_clean_linker_0, # of connection points: 2
#     Edge 37, Type (0, 1), BuildingBlock: XIVTED_clean_linker_0, # of connection points: 2
#     Edge 38, Type (0, 1), BuildingBlock: XIVTED_clean_linker_0, # of connection points: 2
#     Edge 39, Type (0, 1), BuildingBlock: XIVTED_clean_linker_0, # of connection points: 2
#     Edge 40, Type (0, 1), BuildingBlock: XIVTED_clean_linker_0, # of connection points: 2
#     Edge 41, Type (0, 1), BuildingBlock: XIVTED_clean_linker_0, # of connection points: 2
#     Edge 42, Type (0, 1), BuildingBlock: XIVTED_clean_linker_0, # of connection points: 2
#     Edge 43, Type (0, 1), BuildingBlock: XIVTED_clean_linker_0, # of connection points: 2
#     Edge 44, Type (0, 1), BuildingBlock: XIVTED_clean_linker_0, # of connection points: 2
#     Edge 45, Type (0, 1), BuildingBlock: XIVTED_clean_linker_0, # of connection points: 2
#     Edge 46, Type (0, 1), BuildingBlock: XIVTED_clean_linker_0, # of connection points: 2
#     Edge 47, Type (0, 1), BuildingBlock: XIVTED_clean_linker_0, # of connection points: 2
#     Edge 48, Type (0, 1), BuildingBlock: XIVTED_clean_linker_0, # of connection points: 2
#     Edge 49, Type (0, 1), BuildingBlock: XIVTED_clean_linker_0, # of connection points: 2
#     Edge 50, Type (0, 1), BuildingBlock: XIVTED_clean_linker_0, # of connection points: 2
#     Edge 51, Type (0, 1), BuildingBlock: XIVTED_clean_linker_0, # of connection points: 2
#     Edge 52, Type (0, 1), BuildingBlock: XIVTED_clean_linker_0, # of connection points: 2
#     Edge 53, Type (0, 1), BuildingBlock: XIVTED_clean_linker_0, # of connection points: 2
#     Edge 54, Type (0, 1), BuildingBlock: XIVTED_clean_linker_0, # of connection points: 2
#     Edge 55, Type (0, 1), BuildingBlock: XIVTED_clean_linker_0, # of connection points: 2
#     Edge 56, Type (0, 1), BuildingBlock: XIVTED_clean_linker_0, # of connection points: 2
#     Edge 57, Type (0, 1), BuildingBlock: XIVTED_clean_linker_0, # of connection points: 2
#     Edge 58, Type (0, 1), BuildingBlock: XIVTED_clean_linker_0, # of connection points: 2
#     Edge 59, Type (0, 1), BuildingBlock: XIVTED_clean_linker_0, # of connection points: 2
#     Edge 60, Type (0, 1), BuildingBlock: XIVTED_clean_linker_0, # of connection points: 2
#     Edge 61, Type (0, 1), BuildingBlock: XIVTED_clean_linker_0, # of connection points: 2
#     Edge 62, Type (0, 1), BuildingBlock: XIVTED_clean_linker_0, # of connection points: 2
#     Edge 63, Type (0, 1), BuildingBlock: XIVTED_clean_linker_0, # of connection points: 2
#     Edge 64, Type (0, 1), BuildingBlock: XIVTED_clean_linker_0, # of connection points: 2
#     Edge 65, Type (0, 1), BuildingBlock: XIVTED_clean_linker_0, # of connection points: 2
#     Edge 66, Type (0, 1), BuildingBlock: XIVTED_clean_linker_0, # of connection points: 2
#     Edge 67, Type (0, 1), BuildingBlock: XIVTED_clean_linker_0, # of connection points: 2
#     Edge 68, Type (0, 1), BuildingBlock: XIVTED_clean_linker_0, # of connection points: 2
#     Edge 69, Type (0, 1), BuildingBlock: XIVTED_clean_linker_0, # of connection points: 2
#     Edge 70, Type (0, 1), BuildingBlock: XIVTED_clean_linker_0, # of connection points: 2
#     Edge 71, Type (0, 1), BuildingBlock: XIVTED_clean_linker_0, # of connection points: 2
#     Edge 72, Type (0, 1), BuildingBlock: XIVTED_clean_linker_0, # of connection points: 2
#     Edge 73, Type (0, 1), BuildingBlock: XIVTED_clean_linker_0, # of connection points: 2
#     Edge 74, Type (0, 1), BuildingBlock: XIVTED_clean_linker_0, # of connection points: 2
#     Edge 75, Type (0, 1), BuildingBlock: XIVTED_clean_linker_0, # of connection points: 2
# Relax obj value: 0.116
# Max RMSD: 0.293
# Mean RMSD: 0.158
data_MOF--net-ctn--node1-AZAVOO_clean_sbu_0--node2-QEWDON_clean_linker_0--edge1-XIVTED_clean_linker_0
_symmetry_space_group_name_H-M    P1
_symmetry_Int_Tables_number       1
_symmetry_cell_setting            triclinic
loop_
_symmetry_equiv_pos_as_xyz
'x, y, z'
_cell_length_a     52.322766
_cell_length_b     55.546681
_cell_length_c     59.06575
_cell_angle_alpha  98.307363
_cell_angle_beta   94.643817
_cell_angle_gamma 98.63377
loop_
_atom_site_label
_atom_site_type_symbol
_atom_site_fract_x
_atom_site_fract_y
_atom_site_fract_z
_atom_type_partial_charge
H0 H 0.09474 0.00943 0.0321 0.0
C1 C 0.08505 0.0077 0.04746 0.0
C2 C 0.08285 0.98555 0.05665 0.0
C3 C 0.07553 0.02802 0.05844 0.0
H4 H 0.06949 0.96734 0.08454 0.0
C5 C 0.07039 0.98397 0.07687 0.0
C6 C 0.06038 0.00429 0.08787 0.0
C7 C 0.0628 0.02605 0.07814 0.0
C8 C 0.0808 0.05225 0.05087 0.0
H9 H 0.05492 0.04185 0.08592 0.0
C10 C 0.06923 0.05633 0.02975 0.0
C11 C 0.07243 0.08026 0.02415 0.0
C12 C 0.09629 0.07195 0.06583 0.0
H13 H 0.1053 0.06906 0.08218 0.0
C14 C 0.10001 0.09553 0.05996 0.0
H15 H 0.05692 0.04129 0.01829 0.0
C16 C 0.08797 0.09976 0.03932 0.0
H17 H 0.09065 0.1183 0.03519 0.0
H18 H 0.11192 0.11065 0.07158 0.0
H19 H 0.34587 0.76401 0.26878 0.0
C20 C 0.33278 0.74712 0.26154 0.0
C21 C 0.33791 0.72455 0.26725 0.0
C22 C 0.31087 0.74804 0.24657 0.0
H23 H 0.32412 0.68557 0.26347 0.0
C24 C 0.32075 0.70278 0.25808 0.0
C25 C 0.29824 0.70345 0.24359 0.0
C26 C 0.29378 0.72615 0.23752 0.0
C27 C 0.30499 0.77205 0.24147 0.0
H28 H 0.27652 0.72695 0.22637 0.0
C29 C 0.29975 0.7757 0.21863 0.0
C30 C 0.29336 0.79829 0.21365 0.0
C31 C 0.30417 0.79127 0.25951 0.0
H32 H 0.30803 0.78881 0.27726 0.0
C33 C 0.29773 0.81363 0.2548 0.0
H34 H 0.30123 0.76102 0.20482 0.0
C35 C 0.2922 0.81712 0.2321 0.0
H36 H 0.28667 0.8345 0.2291 0.0
H37 H 0.29677 0.82825 0.26881 0.0
H38 H 0.04383 0.48063 0.03774 0.0
C39 C 0.02894 0.49199 0.03571 0.0
C40 C 0.01854 0.5031 0.05514 0.0
C41 C 0.02143 0.4965 0.0136 0.0
H42 H 0.99157 0.52735 0.06645 0.0
C43 C 0.99992 0.51862 0.05186 0.0
C44 C 0.99257 0.52348 0.02971 0.0
C45 C 0.00338 0.51229 0.01079 0.0
C46 C 0.03278 0.48521 0.99332 0.0
H47 H 0.99751 0.51572 0.99366 0.0
C48 C 0.03233 0.45959 0.98889 0.0
C49 C 0.0418 0.44865 0.96891 0.0
C50 C 0.04327 0.49998 0.97785 0.0
H51 H 0.0439 0.51978 0.98097 0.0
C52 C 0.0531 0.48934 0.95825 0.0
H53 H 0.02426 0.4482 1.00085 0.0
C54 C 0.05229 0.46386 0.95371 0.0
H55 H 0.05938 0.45605 0.93802 0.0
H56 H 0.0611 0.50085 0.94638 0.0
H57 H 0.77843 0.81101 0.25224 0.0
C58 C 0.77698 0.80189 0.23456 0.0
C59 C 0.7891 0.81414 0.21808 0.0
C60 C 0.76457 0.77733 0.22868 0.0
H61 H 0.79844 0.81079 0.18301 0.0
C62 C 0.78798 0.80179 0.19542 0.0
C63 C 0.77579 0.77709 0.18938 0.0
C64 C 0.76384 0.76514 0.20611 0.0
C65 C 0.75541 0.76336 0.24671 0.0
H66 H 0.75456 0.74602 0.20178 0.0
C67 C 0.73619 0.77077 0.26019 0.0
C68 C 0.72834 0.75768 0.27778 0.0
C69 C 0.76654 0.7427 0.25081 0.0
H70 H 0.78145 0.73678 0.24063 0.0
C71 C 0.75891 0.72982 0.26839 0.0
H72 H 0.72744 0.78664 0.25704 0.0
C73 C 0.73999 0.73731 0.2819 0.0
H74 H 0.73415 0.72696 0.29536 0.0
H75 H 0.76769 0.71402 0.27156 0.0
H76 H 0.133 0.99033 0.50322 0.0
C77 C 0.11577 0.99052 0.49178 0.0
C78 C 0.11315 0.01157 0.48178 0.0
C79 C 0.09689 0.9692 0.48644 0.0
H80 H 0.08958 0.02684 0.45775 0.0
C81 C 0.09098 0.01117 0.46652 0.0
C82 C 0.07185 0.98992 0.46082 0.0
C83 C 0.07481 0.96906 0.47121 0.0
C84 C 0.10292 0.94604 0.49348 0.0
H85 H 0.06074 0.95227 0.46654 0.0
C86 C 0.08927 0.93442 0.50965 0.0
C87 C 0.09699 0.91326 0.51701 0.0
C88 C 0.12363 0.936 0.48426 0.0
H89 H 0.13428 0.94468 0.47178 0.0
C90 C 0.13082 0.91478 0.49103 0.0
H91 H 0.07345 0.94226 0.51699 0.0
C92 C 0.11771 0.90352 0.50731 0.0
H93 H 0.12372 0.88702 0.51225 0.0
H94 H 0.14673 0.90711 0.48373 0.0
H95 H 0.26936 0.67687 0.75127 0.0
C96 C 0.26483 0.68328 0.76847 0.0
C97 C 0.2765 0.67481 0.78746 0.0
C98 C 0.24786 0.70055 0.77153 0.0
H99 H 0.28023 0.67789 0.82439 0.0
C100 C 0.27083 0.68388 0.80965 0.0
C101 C 0.25447 0.70178 0.81309 0.0
C102 C 0.24256 0.70953 0.7938 0.0
C103 C 0.23892 0.71208 0.75191 0.0
H104 H 0.23071 0.72394 0.79611 0.0
C105 C 0.21227 0.71074 0.74494 0.0
C106 C 0.20438 0.72313 0.72705 0.0
C107 C 0.25747 0.72561 0.74072 0.0
H108 H 0.27804 0.72696 0.74592 0.0
C109 C 0.24964 0.73804 0.72315 0.0
H110 H 0.19783 0.7002 0.75338 0.0
C111 C 0.22327 0.73693 0.71641 0.0
H112 H 0.2176 0.74649 0.70254 0.0
H113 H 0.26407 0.74858 0.71474 0.0
H114 H 0.95685 0.55061 0.44891 0.0
C115 C 0.94468 0.5359 0.45508 0.0
C116 C 0.93961 0.53834 0.47836 0.0
C117 C 0.9331 0.51491 0.43937 0.0
H118 H 0.91852 0.52064 0.50324 0.0
C119 C 0.92328 0.51898 0.48564 0.0
C120 C 0.91236 0.49757 0.47022 0.0
C121 C 0.91734 0.49571 0.44712 0.0
C122 C 0.93445 0.51416 0.41436 0.0
H123 H 0.90811 0.47965 0.43492 0.0
C124 C 0.95796 0.51332 0.40444 0.0
C125 C 0.95824 0.51131 0.38034 0.0
C126 C 0.91143 0.51359 0.40018 0.0
H127 H 0.89318 0.51429 0.40752 0.0
C128 C 0.91173 0.51225 0.37649 0.0
H129 H 0.97566 0.51336 0.41533 0.0
C130 C 0.93489 0.51107 0.3666 0.0
H131 H 0.93454 0.51014 0.34813 0.0
H132 H 0.89392 0.51201 0.36572 0.0
H133 H 0.83975 0.81573 0.78153 0.0
C134 C 0.83548 0.80098 0.79151 0.0
C135 C 0.84421 0.77831 0.78543 0.0
C136 C 0.82174 0.80482 0.81083 0.0
H137 H 0.84581 0.74214 0.79463 0.0
C138 C 0.83884 0.75949 0.7989 0.0
C139 C 0.82477 0.76306 0.81804 0.0
C140 C 0.81629 0.78573 0.82374 0.0
C141 C 0.81471 0.82921 0.81918 0.0
H142 H 0.80601 0.78889 0.83884 0.0
C143 C 0.79827 0.84061 0.80551 0.0
C144 C 0.7896 0.86251 0.81493 0.0
C145 C 0.82319 0.84026 0.84199 0.0
H146 H 0.83592 0.83189 0.85275 0.0
C147 C 0.81493 0.86185 0.85132 0.0
H148 H 0.79195 0.83214 0.78786 0.0
C149 C 0.79805 0.8727 0.8381 0.0
H150 H 0.79124 0.88888 0.84638 0.0
H151 H 0.82125 0.86997 0.86904 0.0
H152 H 0.35896 0.31879 0.27728 0.0
C153 C 0.35389 0.3077 0.29043 0.0
C154 C 0.36383 0.28564 0.29136 0.0
C155 C 0.33753 0.31577 0.3065 0.0
H156 H 0.36613 0.25562 0.31054 0.0
C157 C 0.35752 0.27196 0.30908 0.0
C158 C 0.34141 0.28011 0.32564 0.0
C159 C 0.33092 0.30173 0.32363 0.0
C160 C 0.33076 0.34074 0.3078 0.0
H161 H 0.31831 0.30836 0.33596 0.0
C162 C 0.30565 0.34458 0.30029 0.0
C163 C 0.29946 0.36859 0.30332 0.0
C164 C 0.34958 0.36093 0.31798 0.0
H165 H 0.36894 0.35823 0.32393 0.0
C166 C 0.34347 0.38467 0.321 0.0
H167 H 0.29104 0.32903 0.29242 0.0
C168 C 0.31856 0.38851 0.31383 0.0
H169 H 0.31431 0.40715 0.31618 0.0
H170 H 0.35807 0.40015 0.32897 0.0
H171 H 0.54297 0.99834 0.5417 0.0
C172 C 0.52709 0.00879 0.54134 0.0
C173 C 0.51751 0.01783 0.56197 0.0
C174 C 0.51714 0.01397 0.52014 0.0
H175 H 0.48956 0.03905 0.5765 0.0
C176 C 0.4975 0.03222 0.56091 0.0
C177 C 0.48731 0.0375 0.53967 0.0
C178 C 0.49738 0.02833 0.51946 0.0
C179 C 0.52722 0.00423 0.49856 0.0
H180 H 0.48994 0.0325 0.50305 0.0
C181 C 0.52822 0.97895 0.49318 0.0
C182 C 0.53628 0.96919 0.47209 0.0
C183 C 0.53496 0.01995 0.48289 0.0
H184 H 0.53442 0.03953 0.48671 0.0
C185 C 0.54357 0.01051 0.46218 0.0
H186 H 0.52227 0.96685 0.50532 0.0
C187 C 0.54415 0.9853 0.45672 0.0
H188 H 0.55019 0.97837 0.44025 0.0
H189 H 0.5495 0.02274 0.45018 0.0
H190 H 0.30718 0.33028 0.76279 0.0
C191 C 0.30038 0.32019 0.74571 0.0
C192 C 0.30772 0.33031 0.72637 0.0
C193 C 0.28473 0.29701 0.74326 0.0
H194 H 0.30623 0.3243 0.68948 0.0
C195 C 0.29928 0.31701 0.70433 0.0
C196 C 0.28403 0.29342 0.70155 0.0
C197 C 0.27628 0.28381 0.72118 0.0
C198 C 0.27891 0.28606 0.76396 0.0
H199 H 0.26463 0.26564 0.71937 0.0
C200 C 0.2531 0.27879 0.76827 0.0
C201 C 0.24783 0.27055 0.78908 0.0
C202 C 0.29939 0.28406 0.78015 0.0
H203 H 0.31942 0.28946 0.77706 0.0
C204 C 0.29418 0.2752 0.80049 0.0
H205 H 0.23723 0.28072 0.75604 0.0
C206 C 0.26855 0.26869 0.80507 0.0
H207 H 0.26487 0.26226 0.82116 0.0
H208 H 0.31005 0.27372 0.81289 0.0
H209 H 0.85876 0.26025 0.75227 0.0
C210 C 0.84345 0.24436 0.74837 0.0
C211 C 0.84706 0.2219 0.75552 0.0
C212 C 0.82004 0.24672 0.73619 0.0
H213 H 0.82847 0.18451 0.75603 0.0
C214 C 0.82679 0.20161 0.74972 0.0
C215 C 0.80351 0.20348 0.73694 0.0
C216 C 0.80027 0.22615 0.73022 0.0
C217 C 0.81559 0.27114 0.73111 0.0
H218 H 0.78216 0.22798 0.72084 0.0
C219 C 0.80769 0.27437 0.7086 0.0
C220 C 0.80262 0.2975 0.70391 0.0
C221 C 0.8187 0.29123 0.74904 0.0
H222 H 0.82467 0.28909 0.76654 0.0
C223 C 0.8135 0.31409 0.74463 0.0
H224 H 0.80609 0.25893 0.6948 0.0
C225 C 0.80536 0.31722 0.72232 0.0
H226 H 0.80092 0.33507 0.71963 0.0
H227 H 0.81556 0.3294 0.75861 0.0
H228 H 0.60769 0.52219 0.53422 0.0
C229 C 0.59558 0.51903 0.54789 0.0
C230 C 0.59034 0.49544 0.55426 0.0
C231 C 0.58574 0.53884 0.55946 0.0
H232 H 0.57069 0.47413 0.57766 0.0
C233 C 0.57453 0.492 0.57219 0.0
C234 C 0.56409 0.51183 0.58347 0.0
C235 C 0.56992 0.53516 0.57698 0.0
C236 C 0.59365 0.56401 0.55481 0.0
H237 H 0.56284 0.55081 0.58614 0.0
C238 C 0.58057 0.57266 0.53673 0.0
C239 C 0.58641 0.59755 0.53412 0.0
C240 C 0.61307 0.58008 0.56982 0.0
H241 H 0.62316 0.57362 0.58394 0.0
C242 C 0.61926 0.60468 0.56694 0.0
H243 H 0.56525 0.56035 0.52537 0.0
C244 C 0.60587 0.61347 0.5493 0.0
H245 H 0.61069 0.63271 0.54749 0.0
H246 H 0.6342 0.61704 0.57859 0.0
H247 H 0.62102 0.48261 0.00456 0.0
C248 C 0.60529 0.48579 0.99282 0.0
C249 C 0.60633 0.50871 0.98516 0.0
C250 C 0.58493 0.46635 0.98416 0.0
H251 H 0.58794 0.52919 0.96209 0.0
C252 C 0.58638 0.51207 0.96905 0.0
C253 C 0.56598 0.49273 0.96001 0.0
C254 C 0.56527 0.46998 0.96797 0.0
C255 C 0.58733 0.44102 0.98787 0.0
H256 H 0.55016 0.45459 0.96075 0.0
C257 C 0.5816 0.43228 0.00846 0.0
C258 C 0.58524 0.40822 0.01141 0.0
C259 C 0.59628 0.42557 0.97035 0.0
H260 H 0.60077 0.43204 0.95444 0.0
C261 C 0.59986 0.40183 0.97327 0.0
H262 H 0.57463 0.4441 0.02204 0.0
C263 C 0.59449 0.39322 0.99367 0.0
H264 H 0.59726 0.37462 0.99549 0.0
H265 H 0.60685 0.39007 0.95969 0.0
H266 H 0.776 0.15982 0.25606 0.0
C267 C 0.77078 0.17027 0.27147 0.0
C268 C 0.78108 0.16652 0.29315 0.0
C269 C 0.75516 0.18856 0.26943 0.0
H270 H 0.78298 0.17831 0.32969 0.0
C271 C 0.77509 0.18103 0.31287 0.0
C272 C 0.75977 0.19958 0.3112 0.0
C273 C 0.74931 0.20288 0.28939 0.0
C274 C 0.74847 0.19501 0.24643 0.0
H275 H 0.73832 0.21774 0.28786 0.0
C276 C 0.7226 0.19566 0.23801 0.0
C277 C 0.71697 0.20074 0.21558 0.0
C278 C 0.76857 0.20041 0.23263 0.0
H279 H 0.78862 0.20035 0.23887 0.0
C280 C 0.76311 0.20612 0.21076 0.0
H281 H 0.70695 0.1913 0.24845 0.0
C282 C 0.73753 0.20618 0.20222 0.0
H283 H 0.73379 0.2105 0.18508 0.0
H284 H 0.77875 0.21035 0.20031 0.0
H285 H 0.45761 0.04754 0.94777 0.0
C286 C 0.44486 0.03336 0.95411 0.0
C287 C 0.44103 0.03579 0.97767 0.0
C288 C 0.43131 0.01318 0.9384 0.0
H289 H 0.42046 0.01875 0.00319 0.0
C290 C 0.42432 0.01697 0.98533 0.0
C291 C 0.41105 0.99651 0.96985 0.0
C292 C 0.41452 0.99487 0.94642 0.0
C293 C 0.43265 0.0121 0.91331 0.0
H294 H 0.40409 0.97927 0.93431 0.0
C295 C 0.45645 0.01263 0.90365 0.0
C296 C 0.45697 0.01033 0.87956 0.0
C297 C 0.40951 0.00991 0.8988 0.0
H298 H 0.39101 0.00963 0.90588 0.0
C299 C 0.40999 0.00826 0.87509 0.0
H300 H 0.47429 0.01391 0.91476 0.0
C301 C 0.43347 0.00841 0.8655 0.0
H302 H 0.43324 0.00719 0.84702 0.0
H303 H 0.39206 0.00676 0.86408 0.0
Mg304 Mg 0.22768 0.82826 0.01232 0.0
O305 O 0.26407 0.85653 0.01028 0.0
O306 O 0.29916 0.83997 0.01937 0.0
Mg307 Mg 0.28526 0.80057 0.02548 0.0
C308 C 0.28872 0.85783 0.01357 0.0
C309 C 0.17857 0.84884 0.00399 0.0
O310 O 0.17187 0.8289 0.01312 0.0
O311 O 0.23346 0.80734 0.9771 0.0
O312 O 0.26817 0.79078 0.98754 0.0
O313 O 0.229 0.84114 0.04991 0.0
O314 O 0.24833 0.81073 0.03503 0.0
C315 C 0.25069 0.79384 0.97227 0.0
C316 C 0.24365 0.82485 0.05295 0.0
O317 O 0.20156 0.8532 0.99831 0.0
Mg318 Mg 0.14997 0.51175 0.25428 0.0
O319 O 0.12522 0.5026 0.21894 0.0
O320 O 0.15315 0.49806 0.1925 0.0
Mg321 Mg 0.19486 0.50716 0.21 0.0
C322 C 0.13004 0.49785 0.19803 0.0
C323 C 0.1159 0.51437 0.2939 0.0
O324 O 0.13772 0.529 0.3024 0.0
O325 O 0.15943 0.47249 0.25268 0.0
O326 O 0.18927 0.47275 0.22765 0.0
O327 O 0.15322 0.55198 0.25248 0.0
O328 O 0.1813 0.52883 0.2395 0.0
C329 C 0.17627 0.46226 0.24197 0.0
C330 C 0.174 0.55008 0.24229 0.0
O331 O 0.11411 0.50318 0.27331 0.0
Mg332 Mg 0.8229 0.66437 0.00189 0.0
O333 O 0.78202 0.64062 0.9996 0.0
O334 O 0.75382 0.66719 0.00175 0.0
Mg335 Mg 0.77522 0.70643 0.00399 0.0
C336 C 0.75881 0.64524 1.00021 0.0
C337 C 0.86677 0.63574 0.99366 0.0
O338 O 0.87716 0.65898 0.99468 0.0
O339 O 0.81627 0.67021 0.96426 0.0
O340 O 0.78793 0.6966 0.96782 0.0
O341 O 0.8254 0.66867 0.03989 0.0
O342 O 0.80956 0.69463 0.01975 0.0
C343 C 0.80191 0.68402 0.95563 0.0
C344 C 0.81405 0.68776 0.0394 0.0
O345 O 0.84229 0.63043 0.99375 0.0
Mg346 Mg 0.95129 0.02114 0.26953 0.0
O347 O 0.92558 0.98308 0.2582 0.0
O348 O 0.95248 0.95577 0.25089 0.0
Mg349 Mg 0.99433 0.97574 0.25546 0.0
C350 C 0.92967 0.96101 0.25239 0.0
C351 C 0.91997 0.06011 0.29163 0.0
O352 O 0.94389 0.07208 0.29636 0.0
O353 O 0.96316 0.01013 0.3046 0.0
O354 O 0.99023 0.98394 0.29404 0.0
O355 O 0.95071 0.02818 0.2332 0.0
O356 O 0.97987 0.00953 0.24964 0.0
C357 C 0.9789 0.99561 0.30946 0.0
C358 C 0.97045 0.01677 0.23146 0.0
O359 O 0.91634 0.03774 0.28187 0.0
Mg360 Mg 0.31889 0.182 0.51226 0.0
O361 O 0.27937 0.15594 0.5041 0.0
O362 O 0.24902 0.18034 0.50527 0.0
Mg363 Mg 0.2681 0.22079 0.51374 0.0
C364 C 0.25555 0.15894 0.50248 0.0
C365 C 0.36288 0.15543 0.51759 0.0
O366 O 0.36768 0.17673 0.53142 0.0
O367 O 0.31641 0.19229 0.47575 0.0
O368 O 0.28726 0.21775 0.47999 0.0
O369 O 0.31646 0.18163 0.54966 0.0
O370 O 0.30151 0.20907 0.53098 0.0
C371 C 0.30321 0.20756 0.46806 0.0
C372 C 0.30429 0.20024 0.54984 0.0
O373 O 0.34211 0.15066 0.5038 0.0
Mg374 Mg 0.4613 0.54234 0.76698 0.0
O375 O 0.43787 0.50297 0.75628 0.0
O376 O 0.46706 0.47804 0.74854 0.0
Mg377 Mg 0.5079 0.49998 0.75451 0.0
C378 C 0.44366 0.48156 0.75008 0.0
C379 C 0.42455 0.5788 0.77143 0.0
O380 O 0.44398 0.58791 0.76077 0.0
O381 O 0.47323 0.53263 0.80271 0.0
O382 O 0.50119 0.50724 0.7925 0.0
O383 O 0.45994 0.54719 0.72997 0.0
O384 O 0.49117 0.53222 0.74779 0.0
C385 C 0.4891 0.51827 0.8077 0.0
C386 C 0.48064 0.53714 0.7289 0.0
O387 O 0.42524 0.55814 0.77822 0.0
Mg388 Mg 0.72595 0.33141 0.5061 0.0
O389 O 0.76443 0.35783 0.50598 0.0
O390 O 0.79708 0.33741 0.51338 0.0
Mg391 Mg 0.77983 0.2983 0.51784 0.0
C392 C 0.78871 0.35683 0.5089 0.0
C393 C 0.67887 0.35506 0.49667 0.0
O394 O 0.66974 0.33399 0.50302 0.0
O395 O 0.73112 0.31187 0.47007 0.0
O396 O 0.76372 0.29223 0.47981 0.0
O397 O 0.72717 0.34253 0.54392 0.0
O398 O 0.74421 0.31109 0.52776 0.0
C399 C 0.7474 0.29749 0.46473 0.0
C400 C 0.74045 0.32502 0.54616 0.0
O401 O 0.70272 0.35917 0.49328 0.0
Mg402 Mg 0.65224 0.01655 0.75681 0.0
O403 O 0.6272 0.00736 0.72165 0.0
O404 O 0.65458 0.00234 0.69483 0.0
Mg405 Mg 0.6964 0.01082 0.71201 0.0
C406 C 0.63163 0.00253 0.70064 0.0
C407 C 0.61712 0.02015 0.79605 0.0
O408 O 0.63815 0.03597 0.8045 0.0
O409 O 0.6617 0.97736 0.75553 0.0
O410 O 0.69094 0.97655 0.72993 0.0
O411 O 0.65566 0.05669 0.75462 0.0
O412 O 0.68339 0.03313 0.74156 0.0
C413 C 0.67814 0.96665 0.74469 0.0
C414 C 0.67619 0.05444 0.74414 0.0
O415 O 0.61637 0.0081 0.7759 0.0
Mg416 Mg 0.05185 0.21941 0.89563 0.0
O417 O 0.01454 0.21388 0.871 0.0
O418 O 0.98099 0.20679 0.89176 0.0
Mg419 Mg 0.99687 0.20917 0.92939 0.0
C420 C 0.99018 0.20924 0.87269 0.0
C421 C 0.0803 0.2218 0.85059 0.0
O422 O 0.06854 0.19882 0.84506 0.0
O423 O 0.04474 0.25764 0.90941 0.0
O424 O 0.01211 0.2509 0.93109 0.0
O425 O 0.05324 0.17902 0.89112 0.0
O426 O 0.03305 0.1987 0.91759 0.0
C427 C 0.029 0.26554 0.92298 0.0
C428 C 0.03921 0.17827 0.90817 0.0
O429 O 0.07623 0.23449 0.86923 0.0
Mg430 Mg 0.54748 0.73841 0.40417 0.0
O431 O 0.50711 0.72969 0.3834 0.0
O432 O 0.47845 0.7271 0.40948 0.0
Mg433 Mg 0.49965 0.73109 0.4455 0.0
C434 C 0.48374 0.72676 0.3887 0.0
C435 C 0.58888 0.76515 0.38051 0.0
O436 O 0.59511 0.77288 0.40265 0.0
O437 O 0.54052 0.77737 0.4164 0.0
O438 O 0.51339 0.77197 0.44329 0.0
O439 O 0.55044 0.69843 0.40227 0.0
O440 O 0.53349 0.72013 0.42977 0.0
C441 C 0.52734 0.78595 0.43203 0.0
C442 C 0.53933 0.69928 0.42112 0.0
O443 O 0.56769 0.75039 0.37402 0.0
Mg444 Mg 0.98351 0.73855 0.61455 0.0
O445 O 0.02104 0.73195 0.63484 0.0
O446 O 0.04726 0.71987 0.60883 0.0
Mg447 Mg 0.02913 0.72231 0.57295 0.0
C448 C 0.04212 0.7245 0.62962 0.0
C449 C 0.94407 0.7437 0.64884 0.0
O450 O 0.9326 0.72729 0.63131 0.0
O451 O 0.00413 0.7765 0.60874 0.0
O452 O 0.03119 0.7641 0.58354 0.0
O453 O 0.9675 0.69792 0.60916 0.0
O454 O 0.9907 0.71592 0.58495 0.0
C455 C 0.02204 0.78111 0.59571 0.0
C456 C 0.97852 0.69603 0.5903 0.0
O457 O 0.96743 0.75376 0.64793 0.0
Mg458 Mg 0.49432 0.23392 0.11709 0.0
O459 O 0.53351 0.2252 0.1327 0.0
O460 O 0.55534 0.2148 0.10271 0.0
Mg461 Mg 0.53313 0.2193 0.06924 0.0
C462 C 0.55333 0.21785 0.1243 0.0
C463 C 0.464 0.23483 0.15955 0.0
O464 O 0.45327 0.21433 0.14601 0.0
O465 O 0.51429 0.27234 0.1114 0.0
O466 O 0.53696 0.26075 0.08227 0.0
O467 O 0.4777 0.19337 0.11092 0.0
O468 O 0.49729 0.21239 0.08535 0.0
C469 C 0.53002 0.27745 0.0966 0.0
C470 C 0.48619 0.19217 0.09092 0.0
O471 O 0.48308 0.24828 0.15302 0.0
H472 H 0.21158 0.71763 0.83107 0.0
H473 H 0.28917 0.77129 0.95471 0.0
H474 H 0.29285 0.71575 0.84896 0.0
H475 H 0.21257 0.78669 0.93552 0.0
H476 H 0.28919 0.74868 0.91639 0.0
H477 H 0.20995 0.74074 0.86949 0.0
C478 C 0.22904 0.72197 0.84304 0.0
C479 C 0.25233 0.71446 0.83674 0.0
C480 C 0.27235 0.75702 0.92044 0.0
C481 C 0.25053 0.74079 0.8807 0.0
C482 C 0.27229 0.76996 0.94242 0.0
C483 C 0.25079 0.78094 0.94846 0.0
C484 C 0.25071 0.75476 0.90417 0.0
C485 C 0.22959 0.7786 0.93162 0.0
C486 C 0.22806 0.73514 0.86496 0.0
C487 C 0.27427 0.72052 0.85308 0.0
N488 N 0.23003 0.76566 0.91023 0.0
N489 N 0.2728 0.73326 0.8742 0.0
H490 H 0.96402 0.48092 0.34093 0.0
H491 H 0.11352 0.53727 0.33774 0.0
H492 H 0.00773 0.53673 0.39417 0.0
H493 H 0.06746 0.48623 0.28206 0.0
H494 H 0.0762 0.53476 0.36007 0.0
H495 H 1.00281 0.48006 0.32076 0.0
C496 C 0.9818 0.49303 0.3484 0.0
C497 C 0.98248 0.50919 0.36915 0.0
C498 C 0.07426 0.52403 0.34301 0.0
C499 C 0.02722 0.50812 0.34614 0.0
C500 C 0.09559 0.52543 0.33021 0.0
C501 C 0.09362 0.51202 0.3079 0.0
C502 C 0.05071 0.50908 0.33349 0.0
C503 C 0.06987 0.49696 0.29914 0.0
C504 C 0.004 0.49245 0.33689 0.0
C505 C 0.00629 0.52397 0.37826 0.0
N506 N 0.04935 0.49597 0.31192 0.0
N507 N 0.02766 0.52321 0.36661 0.0
H508 H 0.85928 0.73638 0.83631 0.0
H509 H 0.76391 0.6967 0.92769 0.0
H510 H 0.77917 0.7468 0.83457 0.0
H511 H 0.8419 0.68017 0.92839 0.0
H512 H 0.76773 0.70978 0.89035 0.0
H513 H 0.85214 0.71067 0.86646 0.0
C514 C 0.84006 0.73281 0.84192 0.0
C515 C 0.81986 0.744 0.83315 0.0
C516 C 0.78396 0.70301 0.89844 0.0
C517 C 0.81164 0.71493 0.86777 0.0
C518 C 0.78176 0.69551 0.9198 0.0
C519 C 0.80272 0.68758 0.9313 0.0
C520 C 0.80748 0.70306 0.88852 0.0
C521 C 0.82528 0.6862 0.92013 0.0
C522 C 0.83603 0.71826 0.85922 0.0
C523 C 0.7954 0.7389 0.84114 0.0
N524 N 0.82725 0.69429 0.89951 0.0
N525 N 0.79207 0.725 0.85812 0.0
H526 H 0.04293 0.02565 0.4516 0.0
H527 H 0.99471 0.95573 0.32445 0.0
H528 H 0.05395 0.95157 0.4258 0.0
H529 H 0.97825 0.02811 0.34938 0.0
H530 H 0.01148 0.9523 0.36326 0.0
H531 H 0.01467 0.02547 0.41638 0.0
C532 C 0.03914 0.00922 0.43869 0.0
C533 C 0.05108 0.98867 0.44165 0.0
C534 C 0.00398 0.96887 0.36041 0.0
C535 C 0.01875 0.98837 0.40129 0.0
C536 C 0.99441 0.97086 0.33819 0.0
C537 C 0.98537 0.99239 0.3336 0.0
C538 C 0.00497 0.98871 0.3783 0.0
C539 C 0.98511 0.01123 0.35216 0.0
C540 C 0.02294 0.00912 0.41862 0.0
C541 C 0.04511 0.96779 0.42447 0.0
N542 N 0.99519 0.00912 0.37368 0.0
N543 N 0.02967 0.96831 0.40498 0.0
H544 H 0.27071 0.30671 0.6596 0.0
H545 H 0.30222 0.18219 0.59036 0.0
H546 H 0.2874 0.24448 0.69096 0.0
H547 H 0.28451 0.24333 0.55783 0.0
H548 H 0.29105 0.20277 0.62667 0.0
H549 H 0.26999 0.28202 0.62164 0.0
C550 C 0.2739 0.28777 0.6585 0.0
C551 C 0.27932 0.27774 0.67852 0.0
C552 C 0.28932 0.21161 0.61156 0.0
C553 C 0.27857 0.2494 0.63517 0.0
C554 C 0.29571 0.19985 0.5908 0.0
C555 C 0.29455 0.21118 0.57109 0.0
C556 C 0.28194 0.23502 0.61272 0.0
C557 C 0.28579 0.23398 0.57264 0.0
C558 C 0.27343 0.27367 0.63683 0.0
C559 C 0.28294 0.25299 0.67606 0.0
N560 N 0.28011 0.2453 0.59318 0.0
N561 N 0.28279 0.2398 0.65482 0.0
H562 H 0.57561 0.49162 0.62197 0.0
H563 H 0.45952 0.54071 0.68584 0.0
H564 H 0.51761 0.52693 0.58985 0.0
H565 H 0.52494 0.51764 0.72109 0.0
H566 H 0.47706 0.52998 0.6493 0.0
H567 H 0.55327 0.49438 0.65701 0.0
C568 C 0.55786 0.49945 0.62215 0.0
C569 C 0.5485 0.50921 0.6031 0.0
C570 C 0.48749 0.52711 0.66502 0.0
C571 C 0.52311 0.51276 0.64307 0.0
C572 C 0.47751 0.53328 0.68591 0.0
C573 C 0.49076 0.53008 0.70661 0.0
C574 C 0.51094 0.51765 0.66476 0.0
C575 C 0.51395 0.52027 0.70559 0.0
C576 C 0.54526 0.50125 0.64219 0.0
C577 C 0.52558 0.51941 0.60428 0.0
N578 N 0.52334 0.51449 0.68504 0.0
N579 N 0.51378 0.52108 0.62396 0.0
H580 H 0.77283 0.26407 0.66903 0.0
H581 H 0.75167 0.35916 0.58527 0.0
H582 H 0.81367 0.33919 0.68386 0.0
H583 H 0.754 0.28299 0.55892 0.0
H584 H 0.76825 0.35242 0.6235 0.0
H585 H 0.75975 0.27066 0.63008 0.0
C586 C 0.7793 0.28187 0.66418 0.0
C587 C 0.79446 0.30109 0.68 0.0
C588 C 0.76524 0.33726 0.60928 0.0
C589 C 0.77868 0.30885 0.63557 0.0
C590 C 0.75572 0.34105 0.58755 0.0
C591 C 0.7515 0.32159 0.56899 0.0
C592 C 0.7699 0.31371 0.61253 0.0
C593 C 0.75712 0.29849 0.57281 0.0
C594 C 0.77165 0.28561 0.64194 0.0
C595 C 0.80153 0.32393 0.67262 0.0
N596 N 0.76575 0.29509 0.59425 0.0
N597 N 0.79338 0.32724 0.65103 0.0
H598 H 0.52611 0.04828 0.60414 0.0
H599 H 0.62683 0.97529 0.65772 0.0
H600 H 0.53596 0.97599 0.57139 0.0
H601 H 0.58813 0.02452 0.70103 0.0
H602 H 0.59492 0.97626 0.62532 0.0
H603 H 0.54946 0.04118 0.6395 0.0
C604 C 0.53277 0.03077 0.60437 0.0
C605 C 0.52927 0.01288 0.58444 0.0
C606 C 0.59316 0.98654 0.642 0.0
C607 C 0.55667 0.00499 0.62487 0.0
C608 C 0.61136 0.98601 0.66048 0.0
C609 C 0.61011 0.99983 0.68209 0.0
C610 C 0.57396 0.00156 0.64495 0.0
C611 C 0.58969 0.01346 0.68469 0.0
C612 C 0.54622 0.02681 0.6246 0.0
C613 C 0.53879 0.9907 0.58596 0.0
N614 N 0.57268 0.01435 0.66623 0.0
N615 N 0.55235 0.98756 0.60564 0.0
H616 H 0.87858 0.25823 0.78692 0.0
H617 H 0.94544 0.17671 0.85834 0.0
H618 H 0.87095 0.18097 0.75804 0.0
H619 H 0.99291 0.24076 0.84145 0.0
H620 H 0.91278 0.17875 0.82657 0.0
H621 H 0.91633 0.25389 0.81201 0.0
C622 C 0.88486 0.24043 0.78545 0.0
C623 C 0.87115 0.21992 0.77013 0.0
C624 C 0.93054 0.1921 0.82971 0.0
C625 C 0.91381 0.21485 0.79981 0.0
C626 C 0.94904 0.19101 0.84777 0.0
C627 C 0.9718 0.20855 0.85233 0.0
C628 C 0.93452 0.21139 0.81682 0.0
C629 C 0.97564 0.22681 0.83827 0.0
C630 C 0.90638 0.23803 0.79998 0.0
C631 C 0.8802 0.19722 0.76987 0.0
N632 N 0.95687 0.2281 0.82138 0.0
N633 N 0.90066 0.19519 0.78479 0.0
H634 H 0.57137 0.9449 0.44963 0.0
H635 H 0.49706 0.81081 0.45956 0.0
H636 H 0.49927 0.93181 0.48008 0.0
H637 H 0.55987 0.82269 0.41717 0.0
H638 H 0.49938 0.85528 0.46908 0.0
H639 H 0.56912 0.90032 0.43919 0.0
C640 C 0.55503 0.93269 0.45405 0.0
C641 C 0.53553 0.94218 0.46585 0.0
C642 C 0.51262 0.84818 0.45765 0.0
C643 C 0.53302 0.89115 0.45418 0.0
C644 C 0.51136 0.82275 0.45222 0.0
C645 C 0.52831 0.81294 0.43753 0.0
C646 C 0.53109 0.86403 0.44847 0.0
C647 C 0.54636 0.82941 0.42852 0.0
C648 C 0.55382 0.90725 0.44816 0.0
C649 C 0.51501 0.92541 0.47139 0.0
N650 N 0.54734 0.85416 0.43421 0.0
N651 N 0.51433 0.90077 0.46555 0.0
H652 H 0.20646 0.23912 0.76403 0.0
H653 H 0.11035 0.26741 0.85944 0.0
H654 H 0.22815 0.29022 0.82729 0.0
H655 H 0.09812 0.19894 0.81187 0.0
H656 H 0.14899 0.28138 0.84148 0.0
H657 H 0.16245 0.2292 0.77573 0.0
C658 C 0.20182 0.24837 0.78025 0.0
C659 C 0.22086 0.26527 0.7949 0.0
C660 C 0.13771 0.26339 0.83484 0.0
C661 C 0.17095 0.25439 0.80812 0.0
C662 C 0.11557 0.2554 0.84502 0.0
C663 C 0.1012 0.23176 0.83741 0.0
C664 C 0.14555 0.24773 0.81683 0.0
C665 C 0.10881 0.21718 0.81846 0.0
C666 C 0.17685 0.24269 0.78691 0.0
C667 C 0.21405 0.27683 0.8157 0.0
N668 N 0.13066 0.22531 0.80892 0.0
N669 N 0.18965 0.27118 0.8217 0.0
H670 H 0.55867 0.63502 0.54012 0.0
H671 H 0.55534 0.65455 0.41042 0.0
H672 H 0.5813 0.58254 0.48753 0.0
H673 H 0.51783 0.69634 0.46146 0.0
H674 H 0.55995 0.62463 0.43648 0.0
H675 H 0.539 0.65474 0.51034 0.0
C676 C 0.55921 0.62756 0.5222 0.0
C677 C 0.57181 0.60742 0.51614 0.0
C678 C 0.55021 0.64007 0.44175 0.0
C679 C 0.54974 0.62998 0.48192 0.0
C680 C 0.54751 0.65714 0.42686 0.0
C681 C 0.53663 0.67825 0.43394 0.0
C682 C 0.54217 0.64434 0.4639 0.0
C683 C 0.52669 0.68057 0.45536 0.0
C684 C 0.54791 0.63871 0.50519 0.0
C685 C 0.57181 0.59816 0.49277 0.0
N686 N 0.53011 0.66408 0.46972 0.0
N687 N 0.56135 0.60981 0.47643 0.0
H688 H 0.88489 0.80955 0.77314 0.0
H689 H 0.89771 0.71941 0.65765 0.0
H690 H 0.83794 0.73782 0.75187 0.0
H691 H 0.95762 0.78095 0.68633 0.0
H692 H 0.87377 0.72833 0.69061 0.0
H693 H 0.90982 0.80185 0.74008 0.0
C694 C 0.87973 0.79226 0.76145 0.0
C695 C 0.85929 0.77428 0.76528 0.0
C696 C 0.89216 0.73991 0.68979 0.0
C697 C 0.88773 0.76538 0.72751 0.0
C698 C 0.90587 0.73487 0.67088 0.0
C699 C 0.92979 0.74944 0.66916 0.0
C700 C 0.90218 0.75984 0.7072 0.0
C701 C 0.9393 0.76919 0.68697 0.0
C702 C 0.89408 0.78782 0.7427 0.0
C703 C 0.85366 0.7521 0.74973 0.0
N704 N 0.92542 0.77388 0.70523 0.0
N705 N 0.86771 0.74834 0.73154 0.0
H706 H 0.04459 0.89979 0.51996 0.0
H707 H 0.07221 0.80336 0.60087 0.0
H708 H 0.12011 0.89843 0.55441 0.0
H709 H 0.99447 0.81591 0.58268 0.0
H710 H 0.08954 0.84132 0.58724 0.0
H711 H 0.02488 0.87264 0.54548 0.0
C712 C 0.05694 0.89422 0.53321 0.0
C713 C 0.08406 0.90093 0.53477 0.0
C714 C 0.06866 0.83619 0.58663 0.0
C715 C 0.0618 0.8698 0.56377 0.0
C716 C 0.05882 0.81456 0.59453 0.0
C717 C 0.03195 0.80668 0.59298 0.0
C718 C 0.05153 0.84968 0.57638 0.0
C719 C 0.01534 0.82161 0.58436 0.0
C720 C 0.04572 0.87868 0.54772 0.0
C721 C 0.09917 0.8932 0.55223 0.0
N722 N 0.0254 0.84219 0.5759 0.0
N723 N 0.0879 0.87781 0.56577 0.0
H724 H 0.17097 0.68167 0.70709 0.0
H725 H 0.05504 0.75272 0.6723 0.0
H726 H 0.17553 0.76012 0.72649 0.0
H727 H 0.07451 0.6904 0.62855 0.0
H728 H 0.09187 0.75074 0.70033 0.0
H729 H 0.12777 0.67982 0.68645 0.0
C730 C 0.16253 0.69836 0.70747 0.0
C731 C 0.17667 0.72107 0.71841 0.0
C732 C 0.08776 0.73733 0.68471 0.0
C733 C 0.12759 0.71914 0.69502 0.0
C734 C 0.06674 0.73836 0.66882 0.0
C735 C 0.06191 0.72182 0.64803 0.0
C736 C 0.10355 0.71925 0.67998 0.0
C737 C 0.07775 0.70365 0.64427 0.0
C738 C 0.13806 0.69734 0.6956 0.0
C739 C 0.16513 0.74228 0.7182 0.0
N740 N 0.09785 0.70284 0.66008 0.0
N741 N 0.14126 0.74084 0.70662 0.0
H742 H 0.94689 0.58615 0.4695 0.0
H743 H 0.96303 0.64936 0.59979 0.0
H744 H 0.95502 0.54397 0.52493 0.0
H745 H 0.98953 0.68838 0.54575 0.0
H746 H 0.95696 0.6105 0.57273 0.0
H747 H 0.95996 0.62398 0.49709 0.0
C748 C 0.95177 0.5847 0.48735 0.0
C749 C 0.94965 0.5616 0.49475 0.0
C750 C 0.96436 0.62758 0.56692 0.0
C751 C 0.96387 0.60516 0.52664 0.0
C752 C 0.96776 0.64973 0.58232 0.0
C753 C 0.97676 0.67213 0.575 0.0
C754 C 0.96949 0.62793 0.54397 0.0
C755 C 0.98262 0.67154 0.55216 0.0
C756 C 0.95907 0.6064 0.50315 0.0
C757 C 0.95573 0.56123 0.51836 0.0
N758 N 0.97858 0.64986 0.53739 0.0
N759 N 0.96225 0.58265 0.53347 0.0
H760 H 0.79096 0.85604 0.19814 0.0
H761 H 0.93025 0.91386 0.25936 0.0
H762 H 0.82729 0.8263 0.25368 0.0
H763 H 0.87886 0.96142 0.23641 0.0
H764 H 0.89394 0.87968 0.25279 0.0
H765 H 0.82385 0.89365 0.20784 0.0
C766 C 0.80564 0.85761 0.21254 0.0
C767 C 0.80641 0.83817 0.22522 0.0
C768 C 0.89058 0.89762 0.24928 0.0
C769 C 0.84411 0.88051 0.23595 0.0
C770 C 0.91131 0.91708 0.25285 0.0
C771 C 0.90754 0.94047 0.24835 0.0
C772 C 0.86596 0.90136 0.24067 0.0
C773 C 0.88251 0.94365 0.24013 0.0
C774 C 0.82428 0.87899 0.21807 0.0
C775 C 0.82584 0.84098 0.24365 0.0
N776 N 0.86263 0.92418 0.23627 0.0
N777 N 0.84413 0.8616 0.24825 0.0
H778 H 0.8268 0.17454 0.32116 0.0
H779 H 0.86867 0.04489 0.27457 0.0
H780 H 0.77924 0.11962 0.26946 0.0
H781 H 0.92064 0.10624 0.31552 0.0
H782 H 0.83352 0.0695 0.27654 0.0
H783 H 0.85904 0.14725 0.32321 0.0
C784 C 0.82295 0.15658 0.31043 0.0
C785 C 0.80017 0.14935 0.29515 0.0
C786 C 0.85258 0.07748 0.28522 0.0
C787 C 0.83737 0.11803 0.29722 0.0
C788 C 0.87263 0.0634 0.28422 0.0
C789 C 0.89772 0.07355 0.2948 0.0
C790 C 0.85758 0.10182 0.29703 0.0
C791 C 0.90168 0.09768 0.30699 0.0
C792 C 0.84151 0.14107 0.31149 0.0
C793 C 0.79659 0.12603 0.28135 0.0
N794 N 0.88189 0.11098 0.3077 0.0
N795 N 0.81499 0.1112 0.2827 0.0
H796 H 0.4192 0.97248 0.00647 0.0
H797 H 0.2757 0.89417 0.99011 0.0
H798 H 0.36119 0.97708 0.95177 0.0
H799 H 0.34084 0.87238 0.02708 0.0
H800 H 0.30501 0.92918 0.98078 0.0
H801 H 0.38884 0.94005 0.01896 0.0
C802 C 0.40001 0.96674 0.99719 0.0
C803 C 0.39272 0.97731 0.97798 0.0
C804 C 0.31283 0.91677 0.99101 0.0
C805 C 0.35793 0.94047 0.99221 0.0
C806 C 0.2961 0.89685 0.99646 0.0
C807 C 0.30583 0.88019 0.0093 0.0
C808 C 0.33943 0.92028 0.99869 0.0
C809 C 0.33249 0.88462 0.01699 0.0
C810 C 0.38278 0.9482 0.00425 0.0
C811 C 0.36768 0.96917 0.96649 0.0
N812 N 0.34835 0.90423 0.01158 0.0
N813 N 0.35116 0.95128 0.97381 0.0
H814 H 0.26654 0.39247 0.32814 0.0
H815 H 0.16603 0.44158 0.28059 0.0
H816 H 0.27443 0.35732 0.2597 0.0
H817 H 0.20588 0.4317 0.21956 0.0
H818 H 0.18888 0.4113 0.29614 0.0
H819 H 0.22886 0.40851 0.3131 0.0
C820 C 0.25978 0.38757 0.30999 0.0
C821 C 0.27357 0.37363 0.29511 0.0
C822 C 0.19258 0.41569 0.27932 0.0
C823 C 0.23034 0.39192 0.27757 0.0
C824 C 0.1792 0.43275 0.27027 0.0
C825 C 0.18451 0.43972 0.24898 0.0
C826 C 0.21148 0.40565 0.26703 0.0
C827 C 0.20159 0.42735 0.23629 0.0
C828 C 0.2381 0.39658 0.30137 0.0
C829 C 0.2642 0.36792 0.27173 0.0
N830 N 0.21472 0.41121 0.24564 0.0
N831 N 0.2435 0.37755 0.26358 0.0
H832 H 0.16576 0.01139 0.48376 0.0
H833 H 0.20294 0.1583 0.49801 0.0
H834 H 0.10949 0.06087 0.48785 0.0
H835 H 0.26012 0.1097 0.49777 0.0
H836 H 0.16861 0.12262 0.49325 0.0
H837 H 0.20056 0.04691 0.4885 0.0
C838 C 0.1607 0.02973 0.48592 0.0
C839 C 0.13458 0.03311 0.48553 0.0
C840 C 0.18864 0.11971 0.49419 0.0
C841 C 0.17445 0.07392 0.49051 0.0
C842 C 0.20835 0.14012 0.49687 0.0
C843 C 0.23459 0.13709 0.49834 0.0
C844 C 0.19507 0.09595 0.49295 0.0
C845 C 0.24022 0.11299 0.49672 0.0
C846 C 0.18061 0.05001 0.48843 0.0
C847 C 0.12928 0.05733 0.48786 0.0
N848 N 0.22063 0.09336 0.49415 0.0
N849 N 0.14901 0.07677 0.49024 0.0
H850 H 0.75171 0.20275 0.74186 0.0
H851 H 0.72094 0.05556 0.72308 0.0
H852 H 0.80675 0.15534 0.7214 0.0
H853 H 0.66741 0.10226 0.7489 0.0
H854 H 0.74969 0.09192 0.71614 0.0
H855 H 0.71797 0.16635 0.73836 0.0
C856 C 0.75658 0.18471 0.73624 0.0
C857 C 0.78213 0.18202 0.73214 0.0
C858 C 0.73152 0.09422 0.72308 0.0
C859 C 0.74375 0.14032 0.72837 0.0
C860 C 0.71501 0.07342 0.72697 0.0
C861 C 0.69181 0.07586 0.73679 0.0
C862 C 0.72491 0.11772 0.72917 0.0
C863 C 0.68519 0.09953 0.74146 0.0
C864 C 0.73736 0.16394 0.73439 0.0
C865 C 0.7874 0.1582 0.7251 0.0
N866 N 0.7018 0.11958 0.73784 0.0
N867 N 0.76845 0.13828 0.72362 0.0
H868 H 0.48433 0.08079 0.56742 0.0
H869 H 0.3591 0.10819 0.49369 0.0
H870 H 0.44396 0.03047 0.50849 0.0
H871 H 0.40659 0.16084 0.54736 0.0
H872 H 0.38792 0.07816 0.50004 0.0
H873 H 0.45316 0.10871 0.56228 0.0
C874 C 0.4687 0.07546 0.55359 0.0
C875 C 0.46687 0.05334 0.53829 0.0
C876 C 0.39198 0.09632 0.51037 0.0
C877 C 0.43128 0.08541 0.53202 0.0
C878 C 0.37559 0.11347 0.5067 0.0
C879 C 0.38043 0.1371 0.51996 0.0
C880 C 0.41323 0.10284 0.5275 0.0
C881 C 0.40204 0.14289 0.53667 0.0
C882 C 0.45103 0.09151 0.55051 0.0
C883 C 0.44633 0.04752 0.52049 0.0
N884 N 0.41753 0.12592 0.53997 0.0
N885 N 0.42941 0.06349 0.51779 0.0
H886 H 0.63958 0.49748 0.54101 0.0
H887 H 0.62737 0.35219 0.50299 0.0
H888 H 0.56878 0.44647 0.54148 0.0
H889 H 0.69526 0.40435 0.49634 0.0
H890 H 0.60439 0.38647 0.51416 0.0
H891 H 0.65922 0.4638 0.52244 0.0
C892 C 0.62801 0.47924 0.53699 0.0
C893 C 0.60238 0.47489 0.54281 0.0
C894 C 0.6242 0.39044 0.50998 0.0
C895 C 0.62508 0.43597 0.52177 0.0
C896 C 0.63733 0.37085 0.5035 0.0
C897 C 0.6634 0.37538 0.49894 0.0
C898 C 0.63727 0.41478 0.51209 0.0
C899 C 0.67523 0.39995 0.49979 0.0
C900 C 0.63932 0.45995 0.52644 0.0
C901 C 0.58867 0.45068 0.53759 0.0
N902 N 0.66219 0.41872 0.50655 0.0
N903 N 0.60021 0.43213 0.52746 0.0
H904 H 0.79866 0.22267 0.34375 0.0
H905 H 0.70876 0.28898 0.42818 0.0
H906 H 0.7161 0.21685 0.32609 0.0
H907 H 0.78837 0.28102 0.44601 0.0
H908 H 0.71115 0.26754 0.38899 0.0
H909 H 0.79538 0.24928 0.37943 0.0
C910 C 0.77974 0.22693 0.34748 0.0
C911 C 0.75752 0.21708 0.33218 0.0
C912 C 0.72806 0.27067 0.40153 0.0
C913 C 0.75357 0.24789 0.3732 0.0
C914 C 0.72675 0.28297 0.42381 0.0
C915 C 0.74831 0.28655 0.44046 0.0
C916 C 0.75119 0.2623 0.39594 0.0
C917 C 0.77113 0.27839 0.43391 0.0
C918 C 0.77788 0.24225 0.36785 0.0
C919 C 0.73366 0.22392 0.33757 0.0
N920 N 0.77191 0.26667 0.41229 0.0
N921 N 0.73223 0.23875 0.35781 0.0
H922 H 0.46513 0.98018 0.84081 0.0
H923 H 0.61241 0.04436 0.83892 0.0
H924 H 0.50506 0.03868 0.89358 0.0
H925 H 0.5702 0.98937 0.78415 0.0
H926 H 0.57451 0.04053 0.8605 0.0
H927 H 0.50454 0.98126 0.82134 0.0
C928 C 0.48221 0.9933 0.84832 0.0
C929 C 0.48164 0.0096 0.86874 0.0
C930 C 0.57355 0.02924 0.84381 0.0
C931 C 0.52709 0.01078 0.84653 0.0
C932 C 0.59521 0.0314 0.83143 0.0
C933 C 0.59449 0.01723 0.80959 0.0
C934 C 0.55093 0.01277 0.83433 0.0
C935 C 0.57164 1.00072 0.80087 0.0
C936 C 0.50477 0.99383 0.83721 0.0
C937 C 0.5046 0.02575 0.87792 0.0
N938 N 0.55078 0.999 0.81323 0.0
N939 N 0.52633 0.02605 0.86667 0.0
H940 H 0.33568 0.23001 0.32824 0.0
H941 H 0.28729 0.24693 0.45198 0.0
H942 H 0.3374 0.30102 0.36992 0.0
H943 H 0.32947 0.18721 0.43288 0.0
H944 H 0.297 0.26272 0.4169 0.0
H945 H 0.32678 0.21027 0.36217 0.0
C946 C 0.33429 0.24149 0.3444 0.0
C947 C 0.33679 0.26731 0.34592 0.0
C948 C 0.30407 0.24611 0.42032 0.0
C949 C 0.32608 0.24472 0.38446 0.0
C950 C 0.29842 0.23691 0.44033 0.0
C951 C 0.30769 0.21569 0.44558 0.0
C952 C 0.31883 0.23394 0.40504 0.0
C953 C 0.32206 0.2037 0.42962 0.0
C954 C 0.32914 0.23016 0.36368 0.0
C955 C 0.33468 0.28108 0.36743 0.0
N956 N 0.32718 0.21296 0.40995 0.0
N957 N 0.32918 0.26964 0.38564 0.0
H958 H 0.54318 0.53297 0.95217 0.0
H959 H 0.49998 0.47582 0.8205 0.0
H960 H 0.5483 0.45866 0.92149 0.0
H961 H 0.48908 0.54912 0.84896 0.0
H962 H 0.51312 0.46833 0.85887 0.0
H963 H 0.51931 0.53848 0.91629 0.0
C964 C 0.53903 0.51771 0.93804 0.0
C965 C 0.54796 0.49534 0.93991 0.0
C966 C 0.50769 0.48603 0.85692 0.0
C967 C 0.52059 0.50155 0.89884 0.0
C968 C 0.5002 0.49035 0.83494 0.0
C969 C 0.49375 0.51326 0.8315 0.0
C970 C 0.50921 0.50488 0.8758 0.0
C971 C 0.494 0.53123 0.85088 0.0
C972 C 0.52532 0.52087 0.9176 0.0
C973 C 0.54166 0.47615 0.92111 0.0
N974 N 0.50203 0.5268 0.87225 0.0
N975 N 0.52865 0.4798 0.9014 0.0
H976 H 0.78679 0.73036 0.18016 0.0
H977 H 0.79423 0.73105 0.04549 0.0
H978 H 0.77129 0.79164 0.14679 0.0
H979 H 0.81501 0.67339 0.08162 0.0
H980 H 0.78231 0.75229 0.08145 0.0
H981 H 0.79337 0.7079 0.14321 0.0
C982 C 0.78437 0.73898 0.16499 0.0
C983 C 0.7783 0.7629 0.16659 0.0
C984 C 0.78937 0.73494 0.08144 0.0
C985 C 0.78646 0.73737 0.12408 0.0
C986 C 0.79611 0.72277 0.06092 0.0
C987 C 0.80568 0.70044 0.06058 0.0
C988 C 0.79218 0.72463 0.10168 0.0
C989 C 0.80783 0.69062 0.08109 0.0
C990 C 0.78838 0.7262 0.14387 0.0
C991 C 0.77611 0.77331 0.14635 0.0
N992 N 0.80119 0.70279 0.10078 0.0
N993 N 0.78024 0.76049 0.12591 0.0
H994 H 0.03005 0.96507 0.10225 0.0
H995 H 0.97435 0.0473 0.19958 0.0
H996 H 0.06301 0.0419 0.12415 0.0
H997 H 0.99287 0.97745 0.21354 0.0
H998 H 0.99664 0.04258 0.16465 0.0
H999 H 0.00761 0.96617 0.13735 0.0
C1000 C 0.03275 0.98209 0.11435 0.0
C1001 C 0.04809 0.00358 0.1098 0.0
C1002 C 0.99565 0.02825 0.17535 0.0
C1003 C 0.02183 0.00498 0.14934 0.0
C1004 C 0.98286 0.03084 0.19514 0.0
C1005 C 0.98206 0.01286 0.20954 0.0
C1006 C 0.00706 0.00721 0.16958 0.0
C1007 C 0.99346 0.9919 0.20306 0.0
C1008 C 0.01982 0.98266 0.13426 0.0
C1009 C 0.05065 0.02509 0.12623 0.0
N1010 N 0.00542 0.98953 0.18339 0.0
N1011 N 0.03734 0.02533 0.145 0.0
H1012 H 0.27006 0.7642 0.17627 0.0
H1013 H 0.25046 0.85906 0.0921 0.0
H1014 H 0.30369 0.84124 0.19531 0.0
H1015 H 0.26039 0.78457 0.06669 0.0
H1016 H 0.26471 0.85294 0.13116 0.0
H1017 H 0.26106 0.77108 0.13677 0.0
C1018 C 0.27583 0.78251 0.17224 0.0
C1019 C 0.28775 0.80214 0.18938 0.0
C1020 C 0.26397 0.83805 0.11696 0.0
C1021 C 0.27661 0.81017 0.14418 0.0
C1022 C 0.2558 0.84149 0.09474 0.0
C1023 C 0.25425 0.82227 0.07621 0.0
C1024 C 0.26995 0.81505 0.12067 0.0
C1025 C 0.26142 0.79988 0.08052 0.0
C1026 C 0.27052 0.7864 0.14965 0.0
C1027 C 0.29401 0.82559 0.18296 0.0
N1028 N 0.26863 0.79675 0.10238 0.0
N1029 N 0.28814 0.82899 0.16093 0.0
H1030 H 0.02699 0.53685 0.09532 0.0
H1031 H 0.12543 0.468 0.15651 0.0
H1032 H 0.03382 0.46163 0.06897 0.0
H1033 H 0.08671 0.52006 0.19645 0.0
H1034 H 0.09347 0.46656 0.12348 0.0
H1035 H 0.04943 0.53248 0.1321 0.0
C1036 C 0.03271 0.51927 0.09728 0.0
C1037 C 0.02877 0.49972 0.07868 0.0
C1038 C 0.09171 0.47801 0.13958 0.0
C1039 C 0.05521 0.49496 0.12068 0.0
C1040 C 0.10996 0.47886 0.15839 0.0
C1041 C 0.10867 0.49415 0.17922 0.0
C1042 C 0.07248 0.4931 0.14135 0.0
C1043 C 0.08826 0.5079 0.18073 0.0
C1044 C 0.04567 0.51687 0.11831 0.0
C1045 C 0.03707 0.47752 0.08243 0.0
N1046 N 0.07122 0.50743 0.16189 0.0
N1047 N 0.05027 0.4759 0.1028 0.0
H1048 H 0.37661 0.69643 0.26321 0.0
H1049 H 0.43452 0.73534 0.39415 0.0
H1050 H 0.34899 0.75128 0.31016 0.0
H1051 H 0.48328 0.71341 0.34187 0.0
H1052 H 0.39923 0.73402 0.36418 0.0
H1053 H 0.41268 0.69578 0.29254 0.0
C1054 C 0.3782 0.70829 0.27969 0.0
C1055 C 0.36001 0.72404 0.28434 0.0
C1056 C 0.41764 0.72944 0.35928 0.0
C1057 C 0.40056 0.72306 0.31779 0.0
C1058 C 0.43776 0.73002 0.37637 0.0
C1059 C 0.46195 0.72453 0.37051 0.0
C1060 C 0.42148 0.72294 0.33613 0.0
C1061 C 0.46499 0.71791 0.34713 0.0
C1062 C 0.39873 0.70798 0.2963 0.0
C1063 C 0.36279 0.73908 0.30588 0.0
N1064 N 0.44491 0.71719 0.33073 0.0
N1065 N 0.38258 0.73808 0.32188 0.0
H1066 H 1.00185 0.41273 0.97498 0.0
H1067 H 0.06563 0.30214 0.91317 0.0
H1068 H 0.07758 0.42242 0.95025 0.0
H1069 H 0.99677 0.2906 0.94851 0.0
H1070 H 0.069 0.34644 0.92507 0.0
H1071 H 0.99871 0.36812 0.96446 0.0
C1072 C 0.01794 0.40551 0.96756 0.0
C1073 C 0.04002 0.42143 0.96348 0.0
C1074 C 0.05317 0.33423 0.93026 0.0
C1075 C 0.03629 0.37034 0.95099 0.0
C1076 C 0.05116 0.30888 0.9234 0.0
C1077 C 0.03087 0.29253 0.92984 0.0
C1078 C 0.03469 0.34344 0.94357 0.0
C1079 C 0.01276 0.30247 0.94316 0.0
C1080 C 0.01604 0.38002 0.96142 0.0
C1081 C 0.06002 0.41094 0.9534 0.0
N1082 N 0.01507 0.32729 0.94955 0.0
N1083 N 0.05763 0.3861 0.94745 0.0
H1084 H 0.67846 0.76123 0.26288 0.0
H1085 H 0.63834 0.7904 0.39044 0.0
H1086 H 0.7315 0.7696 0.32431 0.0
H1087 H 0.5836 0.75178 0.33343 0.0
H1088 H 0.67215 0.79368 0.36445 0.0
H1089 H 0.64317 0.7681 0.28698 0.0
C1090 C 0.68269 0.76496 0.28143 0.0
C1091 C 0.70774 0.76475 0.29175 0.0
C1092 C 0.65266 0.78473 0.35759 0.0
C1093 C 0.66789 0.77272 0.31917 0.0
C1094 C 0.63329 0.7829 0.37239 0.0
C1095 C 0.60816 0.77044 0.36416 0.0
C1096 C 0.64687 0.77422 0.33435 0.0
C1097 C 0.60279 0.76129 0.34054 0.0
C1098 C 0.66262 0.76873 0.29511 0.0
C1099 C 0.71235 0.76947 0.31579 0.0
N1100 N 0.62208 0.76319 0.32644 0.0
N1101 N 0.69259 0.77323 0.32871 0.0
H1102 H 0.08042 0.06552 0.97945 0.0
H1103 H 0.00547 0.16917 0.94011 0.0
H1104 H 0.03432 0.10795 0.02158 0.0
H1105 H 0.06101 0.13632 0.90083 0.0
H1106 H 0.00544 0.13742 0.9645 0.0
H1107 H 0.06382 0.08221 0.94581 0.0
C1108 C 0.06626 0.07784 0.9814 0.0
C1109 C 0.05883 0.08569 0.00315 0.0
C1110 C 0.01729 0.13685 0.95029 0.0
C1111 C 0.04 0.10484 0.96519 0.0
C1112 C 0.01726 0.15498 0.93629 0.0
C1113 C 0.03376 0.15577 0.91876 0.0
C1114 C 0.03425 0.1196 0.94698 0.0
C1115 C 0.04827 0.13661 0.91438 0.0
C1116 C 0.05688 0.08741 0.96231 0.0
C1117 C 0.04061 0.10172 0.00502 0.0
N1118 N 0.04865 0.11958 0.92876 0.0
N1119 N 0.03202 0.11098 0.98634 0.0
H1120 H 0.36376 0.23879 0.26895 0.0
H1121 H 0.4739 0.27963 0.18855 0.0
H1122 H 0.40353 0.31361 0.27429 0.0
H1123 H 0.42788 0.20697 0.1798 0.0
H1124 H 0.45171 0.29171 0.22247 0.0
H1125 H 0.39061 0.22601 0.23885 0.0
C1126 C 0.37831 0.2525 0.26396 0.0
C1127 C 0.38119 0.27735 0.27405 0.0
C1128 C 0.44661 0.27309 0.21317 0.0
C1129 C 0.41193 0.26289 0.23936 0.0
C1130 C 0.45934 0.26617 0.19386 0.0
C1131 C 0.45264 0.24231 0.18119 0.0
C1132 C 0.42717 0.25597 0.2199 0.0
C1133 C 0.43358 0.22564 0.18887 0.0
C1134 C 0.39355 0.24523 0.24665 0.0
C1135 C 0.40026 0.29433 0.2667 0.0
N1136 N 0.4215 0.2328 0.20761 0.0
N1137 N 0.41482 0.28681 0.24977 0.0
H1138 H 0.61812 0.3903 0.04016 0.0
H1139 H 0.50241 0.31562 0.09485 0.0
H1140 H 0.5386 0.40153 0.02976 0.0
H1141 H 0.57931 0.29728 0.09164 0.0
H1142 H 0.51724 0.35439 0.08061 0.0
H1143 H 0.60619 0.36425 0.06884 0.0
C1144 C 0.59822 0.3877 0.04437 0.0
C1145 C 0.57926 0.39785 0.0325 0.0
C1146 C 0.531 0.34215 0.08359 0.0
C1147 C 0.56521 0.36747 0.06488 0.0
C1148 C 0.52261 0.32018 0.0919 0.0
C1149 C 0.53968 0.30327 0.09428 0.0
C1150 C 0.55665 0.34718 0.07789 0.0
C1151 C 0.56553 0.3098 0.0899 0.0
C1152 C 0.59136 0.37272 0.06065 0.0
C1153 C 0.55376 0.39399 0.03859 0.0
N1154 N 0.57314 0.33107 0.08175 0.0
N1155 N 0.54733 0.3787 0.05408 0.0
H1156 H 0.67772 0.22322 0.23342 0.0
H1157 H 0.58992 0.18983 0.11239 0.0
H1158 H 0.69485 0.17583 0.17403 0.0
H1159 H 0.56604 0.23336 0.17113 0.0
H1160 H 0.62698 0.18271 0.13637 0.0
H1161 H 0.63527 0.22511 0.21292 0.0
C1162 C 0.67236 0.21293 0.21624 0.0
C1163 C 0.68991 0.19962 0.20525 0.0
C1164 C 0.61367 0.19376 0.14418 0.0
C1165 C 0.64177 0.20179 0.18176 0.0
C1166 C 0.59245 0.19792 0.13041 0.0
C1167 C 0.57492 0.21245 0.13966 0.0
C1168 C 0.61782 0.20439 0.16751 0.0
C1169 C 0.57912 0.22209 0.16327 0.0
C1170 C 0.64825 0.2141 0.20452 0.0
C1171 C 0.68209 0.18666 0.18299 0.0
N1172 N 0.60034 0.21811 0.17637 0.0
N1173 N 0.65879 0.18823 0.17199 0.0
H1174 H 0.44909 0.08362 0.96904 0.0
H1175 H 0.47293 0.14516 0.10024 0.0
H1176 H 0.4587 0.04076 0.02373 0.0
H1177 H 0.49277 0.18548 0.04518 0.0
H1178 H 0.46563 0.10667 0.07268 0.0
H1179 H 0.46369 0.12118 0.99665 0.0
C1180 C 0.45467 0.08196 0.98673 0.0
C1181 C 0.45247 0.05876 0.99394 0.0
C1182 C 0.47184 0.12394 0.06671 0.0
C1183 C 0.46848 0.10205 0.0259 0.0
C1184 C 0.47592 0.1459 0.0824 0.0
C1185 C 0.48342 0.16856 0.07499 0.0
C1186 C 0.47483 0.12471 0.04338 0.0
C1187 C 0.48706 0.16843 0.05168 0.0
C1188 C 0.46283 0.10353 0.00255 0.0
C1189 C 0.45948 0.05813 0.01735 0.0
N1190 N 0.48246 0.1469 0.03667 0.0
N1191 N 0.46687 0.07942 0.03251 0.0
H1192 H 0.30402 0.372 0.70714 0.0
H1193 H 0.44939 0.434 0.75154 0.0
H1194 H 0.35438 0.34086 0.75225 0.0
H1195 H 0.391 0.47911 0.73879 0.0
H1196 H 0.41566 0.39777 0.74531 0.0
H1197 H 0.33658 0.40994 0.71253 0.0
C1198 C 0.3219 0.37321 0.71815 0.0
C1199 C 0.32658 0.35347 0.72939 0.0
C1200 C 0.41021 0.41559 0.74386 0.0
C1201 C 0.36367 0.39618 0.73528 0.0
C1202 C 0.42946 0.43629 0.74728 0.0
C1203 C 0.423 0.45966 0.74571 0.0
C1204 C 0.38426 0.41807 0.73847 0.0
C1205 C 0.39677 0.46145 0.74028 0.0
C1206 C 0.34032 0.39479 0.72129 0.0
C1207 C 0.34997 0.35581 0.74349 0.0
N1208 N 0.37828 0.44083 0.73671 0.0
N1209 N 0.36772 0.3767 0.74589 0.0
H1210 H 0.28381 0.63497 0.80884 0.0
H1211 H 0.41701 0.62056 0.75465 0.0
H1212 H 0.31572 0.67816 0.75956 0.0
H1213 H 0.381 0.56776 0.79419 0.0
H1214 H 0.38043 0.64253 0.75805 0.0
H1215 H 0.31926 0.61068 0.80521 0.0
C1216 C 0.29817 0.63928 0.7972 0.0
C1217 C 0.29667 0.65861 0.78442 0.0
C1218 C 0.38039 0.62613 0.766 0.0
C1219 C 0.33731 0.63099 0.78029 0.0
C1220 C 0.4014 0.61355 0.76413 0.0
C1221 C 0.40218 0.5922 0.77416 0.0
C1222 C 0.3598 0.61754 0.77811 0.0
C1223 C 0.38123 0.58412 0.78618 0.0
C1224 C 0.31834 0.62536 0.79509 0.0
C1225 C 0.31576 0.66324 0.7695 0.0
N1226 N 0.3609 0.59684 0.78788 0.0
N1227 N 0.33526 0.64966 0.76796 0.0
H1228 H 0.87019 0.50143 0.4943 0.0
H1229 H 0.83998 0.35787 0.50235 0.0
H1230 H 0.91443 0.44827 0.46337 0.0
H1231 H 0.78113 0.40462 0.5077 0.0
H1232 H 0.87067 0.39254 0.49446 0.0
H1233 H 0.8404 0.46768 0.50554 0.0
C1234 C 0.87372 0.48266 0.49007 0.0
C1235 C 0.89474 0.47755 0.47789 0.0
C1236 C 0.85106 0.39522 0.49744 0.0
C1237 C 0.86096 0.43905 0.49072 0.0
C1238 C 0.83354 0.37547 0.50208 0.0
C1239 C 0.80785 0.37828 0.50562 0.0
C1240 C 0.84304 0.41809 0.49662 0.0
C1241 C 0.80067 0.40157 0.50494 0.0
C1242 C 0.85668 0.46345 0.49635 0.0
C1243 C 0.89835 0.45293 0.47262 0.0
N1244 N 0.8182 0.42061 0.50056 0.0
N1245 N 0.88169 0.43459 0.47914 0.0
H1246 H 0.75003 0.84102 0.78039 0.0
H1247 H 0.67672 0.95328 0.78733 0.0
H1248 H 0.78689 0.91195 0.8182 0.0
H1249 H 0.70046 0.93084 0.72025 0.0
H1250 H 0.70166 0.92418 0.80274 0.0
H1251 H 0.71823 0.86183 0.76104 0.0
C1252 C 0.75168 0.86085 0.78461 0.0
C1253 C 0.77116 0.87458 0.80138 0.0
C1254 C 0.70067 0.92519 0.78452 0.0
C1255 C 0.73418 0.898 0.78002 0.0
C1256 C 0.68633 0.94161 0.77565 0.0
C1257 C 0.68666 0.94463 0.75248 0.0
C1258 C 0.71486 0.91129 0.77003 0.0
C1259 C 0.69984 0.92919 0.73824 0.0
C1260 C 0.73334 0.87257 0.77369 0.0
C1261 C 0.77186 0.90028 0.80613 0.0
N1262 N 0.71368 0.91329 0.74729 0.0
N1263 N 0.75347 0.91104 0.79578 0.0
H1264 H 0.65782 0.50344 0.98751 0.0
H1265 H 0.7077 0.64883 0.00369 0.0
H1266 H 0.60795 0.55854 0.99657 0.0
H1267 H 0.75938 0.5951 0.9958 0.0
H1268 H 0.67149 0.61571 0.00297 0.0
H1269 H 0.69564 0.53632 0.99312 0.0
C1270 C 0.65484 0.52244 0.99111 0.0
C1271 C 0.62963 0.52824 0.99152 0.0
C1272 C 0.69072 0.61108 1.00143 0.0
C1273 C 0.67282 0.56597 0.99748 0.0
C1274 C 0.71151 0.63004 0.00178 0.0
C1275 C 0.73676 0.62483 0.99968 0.0
C1276 C 0.69497 0.58653 0.99889 0.0
C1277 C 0.74029 0.60004 0.99739 0.0
C1278 C 0.67644 0.54121 0.99409 0.0
C1279 C 0.62697 0.55321 0.99585 0.0
N1280 N 0.71961 0.58179 0.99697 0.0
N1281 N 0.64824 0.5711 0.99852 0.0
H1282 H 0.24543 0.69988 0.24323 0.0
H1283 H 0.22088 0.55264 0.2245 0.0
H1284 H 0.30529 0.65572 0.22943 0.0
H1285 H 0.16357 0.59725 0.24559 0.0
H1286 H 0.24972 0.58986 0.21937 0.0
H1287 H 0.21323 0.66233 0.2372 0.0
C1288 C 0.25177 0.68232 0.23848 0.0
C1289 C 0.27819 0.68097 0.23699 0.0
C1290 C 0.23072 0.59148 0.22485 0.0
C1291 C 0.24136 0.63778 0.23049 0.0
C1292 C 0.21416 0.57021 0.22769 0.0
C1293 C 0.18985 0.57185 0.23572 0.0
C1294 C 0.22294 0.6146 0.2301 0.0
C1295 C 0.18222 0.59513 0.23956 0.0
C1296 C 0.23336 0.66085 0.23522 0.0
C1297 C 0.28521 0.65762 0.23112 0.0
N1298 N 0.19881 0.61562 0.23694 0.0
N1299 N 0.26695 0.63694 0.22827 0.0
H1300 H 1.00044 0.56274 0.00712 0.0
H1301 H 0.85466 0.59034 0.00715 0.0
H1302 H 0.94327 0.52332 0.04283 0.0
H1303 H 0.91817 0.63937 0.98751 0.0
H1304 H 0.8852 0.56289 0.01671 0.0
H1305 H 0.9692 0.58894 0.99703 0.0
C1306 C 0.98128 0.55975 0.01296 0.0
C1307 C 0.97438 0.54088 0.02582 0.0
C1308 C 0.89236 0.5796 0.0102 0.0
C1309 C 0.9383 0.57063 0.01409 0.0
C1310 C 0.87493 0.59515 0.00452 0.0
C1311 C 0.88389 0.6172 0.99653 0.0
C1312 C 0.91886 0.58607 0.00763 0.0
C1313 C 0.91039 0.62261 0.99367 0.0
C1314 C 0.96343 0.57468 0.00718 0.0
C1315 C 0.94935 0.53781 0.03303 0.0
N1316 N 0.92689 0.6072 0.99922 0.0
N1317 N 0.93209 0.55244 0.02691 0.0
H1318 H 0.06383 0.93581 0.05025 0.0
H1319 H 0.19061 0.89695 0.99702 0.0
H1320 H 0.1296 0.98772 0.03842 0.0
H1321 H 0.1286 0.84501 0.01513 0.0
H1322 H 0.16551 0.93006 0.00684 0.0
H1323 H 0.08485 0.90202 0.03328 0.0
C1324 C 0.08266 0.94012 0.0441 0.0
C1325 C 0.09492 0.9647 0.04581 0.0
C1326 C 0.15727 0.91136 0.00842 0.0
C1327 C 0.11899 0.92609 0.0261 0.0
C1328 C 0.17152 0.89241 0.00264 0.0
C1329 C 0.16183 0.86819 0.00549 0.0
C1330 C 0.13315 0.90607 0.01709 0.0
C1331 C 0.13697 0.86345 0.01288 0.0
C1332 C 0.09458 0.92083 0.03426 0.0
C1333 C 0.11918 0.96914 0.0372 0.0
N1334 N 0.12362 0.88223 0.01863 0.0
N1335 N 0.13042 0.95006 0.02782 0.0
loop_
_geom_bond_atom_site_label_1
_geom_bond_atom_site_label_2
_geom_bond_distance
_geom_bond_site_symmetry_2
_ccdc_geom_bond_type
H0 C1 0.949 . S
C1 H0 0.949 . S
C1 C2 1.395 . S
C1 C3 1.391 . S
C2 C1 1.395 . S
C2 C5 1.395 . S
C3 C1 1.391 . S
C3 C7 1.387 . S
C3 C8 1.491 . S
H4 C5 0.932 1_565 S
C5 C2 1.395 . S
C5 H4 0.932 1_545 S
C5 C6 1.392 . S
C6 C5 1.392 . S
C6 C7 1.409 . S
C7 C3 1.387 . S
C7 C6 1.409 . S
C7 H9 0.951 . S
C8 C3 1.491 . S
C8 C10 1.382 . S
C8 C12 1.404 . S
H9 C7 0.951 . S
C10 C8 1.382 . S
C10 C11 1.390 1_554 S
C10 H15 0.949 1_554 S
C11 C10 1.390 1_556 S
C11 C16 1.399 1_556 S
C12 C8 1.404 . S
C12 H13 0.950 . S
C12 C14 1.375 . S
H13 C12 0.950 . S
C14 C12 1.375 . S
C14 C16 1.382 . S
C14 H18 0.950 . S
H15 C10 0.949 1_556 S
C16 C11 1.399 1_554 S
C16 C14 1.382 . S
C16 H17 0.952 1_554 S
H17 C16 0.952 1_556 S
H18 C14 0.950 . S
H19 C20 0.949 . S
C20 H19 0.949 . S
C20 C21 1.395 . S
C20 C22 1.391 . S
C21 C20 1.395 . S
C21 C24 1.390 . S
C22 C20 1.391 . S
C22 C26 1.387 . S
C22 C27 1.491 . S
H23 C24 0.950 . S
C24 C21 1.390 . S
C24 H23 0.950 . S
C24 C25 1.378 . S
C25 C24 1.378 . S
C25 C26 1.409 . S
C26 C22 1.387 . S
C26 C25 1.409 . S
C26 H28 0.951 . S
C27 C22 1.491 . S
C27 C29 1.382 . S
C27 C31 1.404 . S
H28 C26 0.951 . S
C29 C27 1.382 . S
C29 C30 1.390 . S
C29 H34 0.949 . S
C30 C29 1.390 . S
C30 C35 1.399 . S
C31 C27 1.404 . S
C31 H32 0.950 . S
C31 C33 1.375 . S
H32 C31 0.950 . S
C33 C31 1.375 . S
C33 C35 1.382 . S
C33 H37 0.950 . S
H34 C29 0.949 . S
C35 C30 1.399 . S
C35 C33 1.382 . S
C35 H36 0.952 . S
H36 C35 0.952 . S
H37 C33 0.950 . S
H38 C39 0.949 . S
C39 H38 0.949 . S
C39 C40 1.395 . S
C39 C41 1.391 1_455 S
C40 C39 1.395 . S
C40 C43 1.390 1_455 S
C41 C39 1.391 1_655 S
C41 C45 1.387 . S
C41 C46 1.480 1_654 S
H42 C43 0.950 . S
C43 C40 1.390 1_655 S
C43 H42 0.950 . S
C43 C44 1.378 . S
C44 C43 1.378 . S
C44 C45 1.409 . S
C45 C41 1.387 . S
C45 C44 1.409 . S
C45 H47 0.951 . S
C46 C41 1.480 1_456 S
C46 C48 1.400 . S
C46 C50 1.407 . S
H47 C45 0.951 . S
C48 C46 1.400 . S
C48 C49 1.415 . S
C48 H53 0.916 1_556 S
C49 C48 1.415 . S
C49 C54 1.399 . S
C50 C46 1.407 . S
C50 H51 0.953 . S
C50 C52 1.375 . S
H51 C50 0.953 . S
C52 C50 1.375 . S
C52 C54 1.382 . S
C52 H56 0.950 . S
H53 C48 0.916 1_554 S
C54 C49 1.399 . S
C54 C52 1.382 . S
C54 H55 0.952 . S
H55 C54 0.952 . S
H56 C52 0.950 . S
H57 C58 0.949 . S
C58 H57 0.949 . S
C58 C59 1.395 . S
C58 C60 1.391 . S
C59 C58 1.395 . S
C59 C62 1.390 . S
C60 C58 1.391 . S
C60 C64 1.387 . S
C60 C65 1.491 . S
H61 C62 0.950 . S
C62 C59 1.390 . S
C62 H61 0.950 . S
C62 C63 1.378 . S
C63 C62 1.378 . S
C63 C64 1.409 . S
C64 C60 1.387 . S
C64 C63 1.409 . S
C64 H66 0.951 . S
C65 C60 1.491 . S
C65 C67 1.382 . S
C65 C69 1.404 . S
H66 C64 0.951 . S
C67 C65 1.382 . S
C67 C68 1.390 . S
C67 H72 0.949 . S
C68 C67 1.390 . S
C68 C73 1.399 . S
C69 C65 1.404 . S
C69 H70 0.950 . S
C69 C71 1.375 . S
H70 C69 0.950 . S
C71 C69 1.375 . S
C71 C73 1.382 . S
C71 H75 0.950 . S
H72 C67 0.949 . S
C73 C68 1.399 . S
C73 C71 1.382 . S
C73 H74 0.952 . S
H74 C73 0.952 . S
H75 C71 0.950 . S
H76 C77 0.949 . S
C77 H76 0.949 . S
C77 C78 1.395 . S
C77 C79 1.391 . S
C78 C77 1.395 . S
C78 C81 1.395 . S
C79 C77 1.391 . S
C79 C83 1.387 . S
C79 C84 1.491 . S
H80 C81 0.942 1_545 S
C81 C78 1.395 . S
C81 H80 0.942 1_565 S
C81 C82 1.382 . S
C82 C81 1.382 . S
C82 C83 1.409 . S
C83 C79 1.387 . S
C83 C82 1.409 . S
C83 H85 0.951 . S
C84 C79 1.491 . S
C84 C86 1.382 . S
C84 C88 1.404 . S
H85 C83 0.951 . S
C86 C84 1.382 . S
C86 C87 1.390 . S
C86 H91 0.949 . S
C87 C86 1.390 . S
C87 C92 1.399 . S
C88 C84 1.404 . S
C88 H89 0.950 . S
C88 C90 1.375 . S
H89 C88 0.950 . S
C90 C88 1.375 . S
C90 C92 1.382 . S
C90 H94 0.950 . S
H91 C86 0.949 . S
C92 C87 1.399 . S
C92 C90 1.382 . S
C92 H93 0.952 . S
H93 C92 0.952 . S
H94 C90 0.950 . S
H95 C96 0.949 . S
C96 H95 0.949 . S
C96 C97 1.395 . S
C96 C98 1.391 . S
C97 C96 1.395 . S
C97 C100 1.390 . S
C98 C96 1.391 . S
C98 C102 1.387 . S
C98 C103 1.491 . S
H99 C100 0.950 . S
C100 C97 1.390 . S
C100 H99 0.950 . S
C100 C101 1.378 . S
C101 C100 1.378 . S
C101 C102 1.409 . S
C102 C98 1.387 . S
C102 C101 1.409 . S
C102 H104 0.951 . S
C103 C98 1.491 . S
C103 C105 1.382 . S
C103 C107 1.404 . S
H104 C102 0.951 . S
C105 C103 1.382 . S
C105 C106 1.390 . S
C105 H110 0.949 . S
C106 C105 1.390 . S
C106 C111 1.399 . S
C107 C103 1.404 . S
C107 H108 0.950 . S
C107 C109 1.375 . S
H108 C107 0.950 . S
C109 C107 1.375 . S
C109 C111 1.382 . S
C109 H113 0.950 . S
H110 C105 0.949 . S
C111 C106 1.399 . S
C111 C109 1.382 . S
C111 H112 0.952 . S
H112 C111 0.952 . S
H113 C109 0.950 . S
H114 C115 0.949 . S
C115 H114 0.949 . S
C115 C116 1.395 . S
C115 C117 1.391 . S
C116 C115 1.395 . S
C116 C119 1.390 . S
C117 C115 1.391 . S
C117 C121 1.387 . S
C117 C122 1.491 . S
H118 C119 0.950 . S
C119 C116 1.390 . S
C119 H118 0.950 . S
C119 C120 1.378 . S
C120 C119 1.378 . S
C120 C121 1.409 . S
C121 C117 1.387 . S
C121 C120 1.409 . S
C121 H123 0.951 . S
C122 C117 1.491 . S
C122 C124 1.382 . S
C122 C126 1.404 . S
H123 C121 0.951 . S
C124 C122 1.382 . S
C124 C125 1.390 1_655 S
C124 H129 0.949 1_655 S
C125 C124 1.390 1_455 S
C125 C130 1.399 1_455 S
C126 C122 1.404 . S
C126 H127 0.950 . S
C126 C128 1.375 . S
H127 C126 0.950 . S
C128 C126 1.375 . S
C128 C130 1.382 . S
C128 H132 0.950 . S
H129 C124 0.949 1_455 S
C130 C125 1.399 1_655 S
C130 C128 1.382 . S
C130 H131 0.952 . S
H131 C130 0.952 . S
H132 C128 0.950 . S
H133 C134 0.949 . S
C134 H133 0.949 . S
C134 C135 1.395 . S
C134 C136 1.391 . S
C135 C134 1.395 . S
C135 C138 1.390 . S
C136 C134 1.391 . S
C136 C140 1.387 . S
C136 C141 1.491 . S
H137 C138 0.950 . S
C138 C135 1.390 . S
C138 H137 0.950 . S
C138 C139 1.378 . S
C139 C138 1.378 . S
C139 C140 1.409 . S
C140 C136 1.387 . S
C140 C139 1.409 . S
C140 H142 0.951 . S
C141 C136 1.491 . S
C141 C143 1.382 . S
C141 C145 1.404 . S
H142 C140 0.951 . S
C143 C141 1.382 . S
C143 C144 1.390 . S
C143 H148 0.949 . S
C144 C143 1.390 . S
C144 C149 1.399 . S
C145 C141 1.404 . S
C145 H146 0.950 . S
C145 C147 1.375 . S
H146 C145 0.950 . S
C147 C145 1.375 . S
C147 C149 1.382 . S
C147 H151 0.950 . S
H148 C143 0.949 . S
C149 C144 1.399 . S
C149 C147 1.382 . S
C149 H150 0.952 . S
H150 C149 0.952 . S
H151 C147 0.950 . S
H152 C153 0.949 . S
C153 H152 0.949 . S
C153 C154 1.395 . S
C153 C155 1.391 . S
C154 C153 1.395 . S
C154 C157 1.390 . S
C155 C153 1.391 . S
C155 C159 1.387 . S
C155 C160 1.491 . S
H156 C157 0.950 . S
C157 C154 1.390 . S
C157 H156 0.950 . S
C157 C158 1.378 . S
C158 C157 1.378 . S
C158 C159 1.409 . S
C159 C155 1.387 . S
C159 C158 1.409 . S
C159 H161 0.951 . S
C160 C155 1.491 . S
C160 C162 1.382 . S
C160 C164 1.404 . S
H161 C159 0.951 . S
C162 C160 1.382 . S
C162 C163 1.390 . S
C162 H167 0.949 . S
C163 C162 1.390 . S
C163 C168 1.399 . S
C164 C160 1.404 . S
C164 H165 0.950 . S
C164 C166 1.375 . S
H165 C164 0.950 . S
C166 C164 1.375 . S
C166 C168 1.382 . S
C166 H170 0.950 . S
H167 C162 0.949 . S
C168 C163 1.399 . S
C168 C166 1.382 . S
C168 H169 0.952 . S
H169 C168 0.952 . S
H170 C166 0.950 . S
H171 C172 0.949 . S
C172 H171 0.949 . S
C172 C173 1.395 . S
C172 C174 1.391 . S
C173 C172 1.395 . S
C173 C176 1.419 . S
C174 C172 1.391 . S
C174 C178 1.387 . S
C174 C179 1.491 . S
H175 C176 0.930 1_545 S
C176 C173 1.419 . S
C176 H175 0.930 1_565 S
C176 C177 1.371 . S
C177 C176 1.371 . S
C177 C178 1.411 . S
C178 C174 1.387 . S
C178 C177 1.411 . S
C178 H180 0.951 . S
C179 C174 1.491 . S
C179 C181 1.382 . S
C179 C183 1.404 . S
H180 C178 0.951 . S
C181 C179 1.382 . S
C181 C182 1.390 . S
C181 H186 0.949 . S
C182 C181 1.390 . S
C182 C187 1.399 . S
C183 C179 1.404 . S
C183 H184 0.950 . S
C183 C185 1.375 . S
H184 C183 0.950 . S
C185 C183 1.375 . S
C185 C187 1.382 . S
C185 H189 0.950 . S
H186 C181 0.949 . S
C187 C182 1.399 . S
C187 C185 1.382 . S
C187 H188 0.952 . S
H188 C187 0.952 . S
H189 C185 0.950 . S
H190 C191 0.949 . S
C191 H190 0.949 . S
C191 C192 1.395 . S
C191 C193 1.391 . S
C192 C191 1.395 . S
C192 C195 1.390 . S
C193 C191 1.391 . S
C193 C197 1.387 . S
C193 C198 1.491 . S
H194 C195 0.950 . S
C195 C192 1.390 . S
C195 H194 0.950 . S
C195 C196 1.378 . S
C196 C195 1.378 . S
C196 C197 1.409 . S
C197 C193 1.387 . S
C197 C196 1.409 . S
C197 H199 0.951 . S
C198 C193 1.491 . S
C198 C200 1.382 . S
C198 C202 1.404 . S
H199 C197 0.951 . S
C200 C198 1.382 . S
C200 C201 1.390 . S
C200 H205 0.949 . S
C201 C200 1.390 . S
C201 C206 1.399 . S
C202 C198 1.404 . S
C202 H203 0.950 . S
C202 C204 1.375 . S
H203 C202 0.950 . S
C204 C202 1.375 . S
C204 C206 1.382 . S
C204 H208 0.950 . S
H205 C200 0.949 . S
C206 C201 1.399 . S
C206 C204 1.382 . S
C206 H207 0.952 . S
H207 C206 0.952 . S
H208 C204 0.950 . S
H209 C210 0.949 . S
C210 H209 0.949 . S
C210 C211 1.395 . S
C210 C212 1.391 . S
C211 C210 1.395 . S
C211 C214 1.390 . S
C212 C210 1.391 . S
C212 C216 1.387 . S
C212 C217 1.491 . S
H213 C214 0.950 . S
C214 C211 1.390 . S
C214 H213 0.950 . S
C214 C215 1.378 . S
C215 C214 1.378 . S
C215 C216 1.409 . S
C216 C212 1.387 . S
C216 C215 1.409 . S
C216 H218 0.951 . S
C217 C212 1.491 . S
C217 C219 1.382 . S
C217 C221 1.404 . S
H218 C216 0.951 . S
C219 C217 1.382 . S
C219 C220 1.390 . S
C219 H224 0.949 . S
C220 C219 1.390 . S
C220 C225 1.399 . S
C221 C217 1.404 . S
C221 H222 0.950 . S
C221 C223 1.375 . S
H222 C221 0.950 . S
C223 C221 1.375 . S
C223 C225 1.382 . S
C223 H227 0.950 . S
H224 C219 0.949 . S
C225 C220 1.399 . S
C225 C223 1.382 . S
C225 H226 0.952 . S
H226 C225 0.952 . S
H227 C223 0.950 . S
H228 C229 0.949 . S
C229 H228 0.949 . S
C229 C230 1.395 . S
C229 C231 1.391 . S
C230 C229 1.395 . S
C230 C233 1.390 . S
C231 C229 1.391 . S
C231 C235 1.387 . S
C231 C236 1.491 . S
H232 C233 0.950 . S
C233 C230 1.390 . S
C233 H232 0.950 . S
C233 C234 1.378 . S
C234 C233 1.378 . S
C234 C235 1.409 . S
C235 C231 1.387 . S
C235 C234 1.409 . S
C235 H237 0.951 . S
C236 C231 1.491 . S
C236 C238 1.382 . S
C236 C240 1.404 . S
H237 C235 0.951 . S
C238 C236 1.382 . S
C238 C239 1.390 . S
C238 H243 0.949 . S
C239 C238 1.390 . S
C239 C244 1.399 . S
C240 C236 1.404 . S
C240 H241 0.950 . S
C240 C242 1.375 . S
H241 C240 0.950 . S
C242 C240 1.375 . S
C242 C244 1.382 . S
C242 H246 0.950 . S
H243 C238 0.949 . S
C244 C239 1.399 . S
C244 C242 1.382 . S
C244 H245 0.952 . S
H245 C244 0.952 . S
H246 C242 0.950 . S
H247 C248 0.949 1_554 S
C248 H247 0.949 1_556 S
C248 C249 1.395 . S
C248 C250 1.391 . S
C249 C248 1.395 . S
C249 C252 1.390 . S
C250 C248 1.391 . S
C250 C254 1.387 . S
C250 C255 1.491 . S
H251 C252 0.950 . S
C252 C249 1.390 . S
C252 H251 0.950 . S
C252 C253 1.378 . S
C253 C252 1.378 . S
C253 C254 1.409 . S
C254 C250 1.387 . S
C254 C253 1.409 . S
C254 H256 0.951 . S
C255 C250 1.491 . S
C255 C257 1.382 1_556 S
C255 C259 1.404 . S
H256 C254 0.951 . S
C257 C255 1.382 1_554 S
C257 C258 1.390 . S
C257 H262 0.949 . S
C258 C257 1.390 . S
C258 C263 1.399 . S
C259 C255 1.404 . S
C259 H260 0.950 . S
C259 C261 1.375 . S
H260 C259 0.950 . S
C261 C259 1.375 . S
C261 C263 1.382 1_556 S
C261 H265 0.950 . S
H262 C257 0.949 . S
C263 C258 1.399 . S
C263 C261 1.382 1_554 S
C263 H264 0.952 . S
H264 C263 0.952 . S
H265 C261 0.950 . S
H266 C267 0.949 . S
C267 H266 0.949 . S
C267 C268 1.395 . S
C267 C269 1.391 . S
C268 C267 1.395 . S
C268 C271 1.390 . S
C269 C267 1.391 . S
C269 C273 1.387 . S
C269 C274 1.491 . S
H270 C271 0.950 . S
C271 C268 1.390 . S
C271 H270 0.950 . S
C271 C272 1.378 . S
C272 C271 1.378 . S
C272 C273 1.409 . S
C273 C269 1.387 . S
C273 C272 1.409 . S
C273 H275 0.951 . S
C274 C269 1.491 . S
C274 C276 1.382 . S
C274 C278 1.404 . S
H275 C273 0.951 . S
C276 C274 1.382 . S
C276 C277 1.390 . S
C276 H281 0.949 . S
C277 C276 1.390 . S
C277 C282 1.399 . S
C278 C274 1.404 . S
C278 H279 0.950 . S
C278 C280 1.375 . S
H279 C278 0.950 . S
C280 C278 1.375 . S
C280 C282 1.382 . S
C280 H284 0.950 . S
H281 C276 0.949 . S
C282 C277 1.399 . S
C282 C280 1.382 . S
C282 H283 0.952 . S
H283 C282 0.952 . S
H284 C280 0.950 . S
H285 C286 0.949 . S
C286 H285 0.949 . S
C286 C287 1.395 . S
C286 C288 1.391 . S
C287 C286 1.395 . S
C287 C290 1.390 . S
C288 C286 1.391 . S
C288 C292 1.387 . S
C288 C293 1.491 . S
H289 C290 0.950 1_554 S
C290 C287 1.390 . S
C290 H289 0.950 1_556 S
C290 C291 1.378 . S
C291 C290 1.378 . S
C291 C292 1.409 . S
C292 C288 1.387 . S
C292 C291 1.409 . S
C292 H294 0.917 1_545 S
C293 C288 1.491 . S
C293 C295 1.382 . S
C293 C297 1.404 . S
H294 C292 0.917 1_565 S
C295 C293 1.382 . S
C295 C296 1.390 . S
C295 H300 0.949 . S
C296 C295 1.390 . S
C296 C301 1.399 . S
C297 C293 1.404 . S
C297 H298 0.950 . S
C297 C299 1.375 . S
H298 C297 0.950 . S
C299 C297 1.375 . S
C299 C301 1.382 . S
C299 H303 0.950 . S
H300 C295 0.949 . S
C301 C296 1.399 . S
C301 C299 1.382 . S
C301 H302 0.952 . S
H302 C301 0.952 . S
H303 C299 0.950 . S
Mg304 O305 2.028 . S
Mg304 O311 2.015 . S
Mg304 O313 2.114 . S
Mg304 O314 2.251 . S
Mg304 O317 2.010 . S
O305 Mg304 2.028 . S
O305 C308 1.250 . S
O306 Mg307 2.028 . S
O306 C308 1.248 . S
Mg307 O306 2.028 . S
Mg307 O312 2.032 1_554 S
Mg307 O314 2.079 . S
C308 O305 1.250 . S
C308 O306 1.248 . S
C309 O310 1.264 . S
C309 O317 1.249 . S
O310 C309 1.264 . S
O311 Mg304 2.015 . S
O311 C315 1.231 1_554 S
O312 Mg307 2.032 1_556 S
O312 C315 1.259 . S
O313 Mg304 2.114 . S
O313 C316 1.252 . S
O314 Mg304 2.251 . S
O314 Mg307 2.079 . S
O314 C316 1.273 . S
C315 O311 1.231 1_556 S
C315 O312 1.259 . S
C316 O313 1.252 . S
C316 O314 1.273 . S
O317 Mg304 2.010 . S
O317 C309 1.249 . S
Mg318 O319 2.028 . S
Mg318 O325 1.986 . S
Mg318 O327 2.114 . S
Mg318 O328 2.251 . S
Mg318 O331 2.010 . S
O319 Mg318 2.028 . S
O319 C322 1.250 . S
O320 Mg321 2.028 . S
O320 C322 1.248 . S
Mg321 O320 2.028 . S
Mg321 O326 2.032 . S
Mg321 O328 2.079 . S
C322 O319 1.250 . S
C322 O320 1.248 . S
C323 O324 1.264 . S
C323 O331 1.249 . S
O324 C323 1.264 . S
O325 Mg318 1.986 . S
O325 C329 1.246 . S
O326 Mg321 2.032 . S
O326 C329 1.259 . S
O327 Mg318 2.114 . S
O327 C330 1.252 . S
O328 Mg318 2.251 . S
O328 Mg321 2.079 . S
O328 C330 1.273 . S
C329 O325 1.246 . S
C329 O326 1.259 . S
C330 O327 1.252 . S
C330 O328 1.273 . S
O331 Mg318 2.010 . S
O331 C323 1.249 . S
Mg332 O333 2.028 1_554 S
Mg332 O339 1.986 1_554 S
Mg332 O341 2.114 . S
Mg332 O342 2.251 . S
Mg332 O345 2.010 . S
O333 Mg332 2.028 1_556 S
O333 C336 1.250 . S
O334 Mg335 2.028 . S
O334 C336 1.248 . S
Mg335 O334 2.028 . S
Mg335 O340 2.032 . S
Mg335 O342 2.079 1_556 S
C336 O333 1.250 . S
C336 O334 1.248 . S
C337 O338 1.264 . S
C337 O345 1.249 . S
O338 C337 1.264 . S
O339 Mg332 1.986 1_556 S
O339 C343 1.246 . S
O340 Mg335 2.032 . S
O340 C343 1.259 . S
O341 Mg332 2.114 . S
O341 C344 1.252 . S
O342 Mg332 2.251 . S
O342 Mg335 2.079 1_554 S
O342 C344 1.273 . S
C343 O339 1.246 . S
C343 O340 1.259 . S
C344 O341 1.252 . S
C344 O342 1.273 . S
O345 Mg332 2.010 . S
O345 C337 1.249 . S
Mg346 O347 2.028 . S
Mg346 O353 1.986 . S
Mg346 O355 2.114 . S
Mg346 O356 2.251 . S
Mg346 O359 2.010 . S
O347 Mg346 2.028 . S
O347 C350 1.250 1_545 S
O348 Mg349 2.028 . S
O348 C350 1.248 . S
Mg349 O348 2.028 . S
Mg349 O354 2.032 1_565 S
Mg349 O356 2.079 1_565 S
C350 O347 1.250 1_565 S
C350 O348 1.248 . S
C351 O352 1.264 . S
C351 O359 1.249 . S
O352 C351 1.264 . S
O353 Mg346 1.986 . S
O353 C357 1.246 . S
O354 Mg349 2.032 1_545 S
O354 C357 1.259 . S
O355 Mg346 2.114 . S
O355 C358 1.252 . S
O356 Mg346 2.251 . S
O356 Mg349 2.079 1_545 S
O356 C358 1.273 . S
C357 O353 1.246 . S
C357 O354 1.259 . S
C358 O355 1.252 . S
C358 O356 1.273 . S
O359 Mg346 2.010 . S
O359 C351 1.249 . S
Mg360 O361 2.028 . S
Mg360 O367 1.986 . S
Mg360 O369 2.114 . S
Mg360 O370 2.251 . S
Mg360 O373 2.010 . S
O361 Mg360 2.028 . S
O361 C364 1.250 . S
O362 Mg363 2.028 . S
O362 C364 1.248 . S
Mg363 O362 2.028 . S
Mg363 O368 2.032 . S
Mg363 O370 2.079 . S
C364 O361 1.250 . S
C364 O362 1.248 . S
C365 O366 1.264 . S
C365 O373 1.249 . S
O366 C365 1.264 . S
O367 Mg360 1.986 . S
O367 C371 1.246 . S
O368 Mg363 2.032 . S
O368 C371 1.259 . S
O369 Mg360 2.114 . S
O369 C372 1.252 . S
O370 Mg360 2.251 . S
O370 Mg363 2.079 . S
O370 C372 1.273 . S
C371 O367 1.246 . S
C371 O368 1.259 . S
C372 O369 1.252 . S
C372 O370 1.273 . S
O373 Mg360 2.010 . S
O373 C365 1.249 . S
Mg374 O375 2.028 . S
Mg374 O381 1.986 . S
Mg374 O383 2.114 . S
Mg374 O384 2.251 . S
Mg374 O387 2.010 . S
O375 Mg374 2.028 . S
O375 C378 1.250 . S
O376 Mg377 2.028 . S
O376 C378 1.248 . S
Mg377 O376 2.028 . S
Mg377 O382 2.032 . S
Mg377 O384 2.079 . S
C378 O375 1.250 . S
C378 O376 1.248 . S
C379 O380 1.264 . S
C379 O387 1.249 . S
O380 C379 1.264 . S
O381 Mg374 1.986 . S
O381 C385 1.246 . S
O382 Mg377 2.032 . S
O382 C385 1.259 . S
O383 Mg374 2.114 . S
O383 C386 1.252 . S
O384 Mg374 2.251 . S
O384 Mg377 2.079 . S
O384 C386 1.273 . S
C385 O381 1.246 . S
C385 O382 1.259 . S
C386 O383 1.252 . S
C386 O384 1.273 . S
O387 Mg374 2.010 . S
O387 C379 1.249 . S
Mg388 O389 2.028 . S
Mg388 O395 1.986 . S
Mg388 O397 2.114 . S
Mg388 O398 2.251 . S
Mg388 O401 2.010 . S
O389 Mg388 2.028 . S
O389 C392 1.250 . S
O390 Mg391 2.028 . S
O390 C392 1.248 . S
Mg391 O390 2.028 . S
Mg391 O396 2.032 . S
Mg391 O398 2.079 . S
C392 O389 1.250 . S
C392 O390 1.248 . S
C393 O394 1.264 . S
C393 O401 1.249 . S
O394 C393 1.264 . S
O395 Mg388 1.986 . S
O395 C399 1.246 . S
O396 Mg391 2.032 . S
O396 C399 1.259 . S
O397 Mg388 2.114 . S
O397 C400 1.252 . S
O398 Mg388 2.251 . S
O398 Mg391 2.079 . S
O398 C400 1.273 . S
C399 O395 1.246 . S
C399 O396 1.259 . S
C400 O397 1.252 . S
C400 O398 1.273 . S
O401 Mg388 2.010 . S
O401 C393 1.249 . S
Mg402 O403 2.028 . S
Mg402 O409 1.986 1_545 S
Mg402 O411 2.114 . S
Mg402 O412 2.251 . S
Mg402 O415 2.010 . S
O403 Mg402 2.028 . S
O403 C406 1.250 . S
O404 Mg405 2.028 . S
O404 C406 1.248 . S
Mg405 O404 2.028 . S
Mg405 O410 2.032 1_545 S
Mg405 O412 2.079 . S
C406 O403 1.250 . S
C406 O404 1.248 . S
C407 O408 1.264 . S
C407 O415 1.249 . S
O408 C407 1.264 . S
O409 Mg402 1.986 1_565 S
O409 C413 1.246 . S
O410 Mg405 2.032 1_565 S
O410 C413 1.259 . S
O411 Mg402 2.114 . S
O411 C414 1.252 . S
O412 Mg402 2.251 . S
O412 Mg405 2.079 . S
O412 C414 1.273 . S
C413 O409 1.246 . S
C413 O410 1.259 . S
C414 O411 1.252 . S
C414 O412 1.273 . S
O415 Mg402 2.010 . S
O415 C407 1.249 . S
Mg416 O417 2.028 . S
Mg416 O423 1.986 . S
Mg416 O425 2.114 . S
Mg416 O426 2.251 . S
Mg416 O429 2.010 . S
O417 Mg416 2.028 . S
O417 C420 1.250 1_455 S
O418 Mg419 2.028 . S
O418 C420 1.248 . S
Mg419 O418 2.028 . S
Mg419 O424 2.032 . S
Mg419 O426 2.079 1_655 S
C420 O417 1.250 1_655 S
C420 O418 1.248 . S
C421 O422 1.264 . S
C421 O429 1.249 . S
O422 C421 1.264 . S
O423 Mg416 1.986 . S
O423 C427 1.246 . S
O424 Mg419 2.032 . S
O424 C427 1.259 1_655 S
O425 Mg416 2.114 . S
O425 C428 1.252 . S
O426 Mg416 2.251 . S
O426 Mg419 2.079 1_455 S
O426 C428 1.273 . S
C427 O423 1.246 . S
C427 O424 1.259 1_455 S
C428 O425 1.252 . S
C428 O426 1.273 . S
O429 Mg416 2.010 . S
O429 C421 1.249 . S
Mg430 O431 2.028 . S
Mg430 O437 1.986 . S
Mg430 O439 2.114 . S
Mg430 O440 2.251 . S
Mg430 O443 2.010 . S
O431 Mg430 2.028 . S
O431 C434 1.250 . S
O432 Mg433 2.028 . S
O432 C434 1.248 . S
Mg433 O432 2.028 . S
Mg433 O438 2.032 . S
Mg433 O440 2.079 . S
C434 O431 1.250 . S
C434 O432 1.248 . S
C435 O436 1.264 . S
C435 O443 1.249 . S
O436 C435 1.264 . S
O437 Mg430 1.986 . S
O437 C441 1.246 . S
O438 Mg433 2.032 . S
O438 C441 1.259 . S
O439 Mg430 2.114 . S
O439 C442 1.252 . S
O440 Mg430 2.251 . S
O440 Mg433 2.079 . S
O440 C442 1.273 . S
C441 O437 1.246 . S
C441 O438 1.259 . S
C442 O439 1.252 . S
C442 O440 1.273 . S
O443 Mg430 2.010 . S
O443 C435 1.249 . S
Mg444 O445 2.028 1_655 S
Mg444 O451 1.986 1_655 S
Mg444 O453 2.114 . S
Mg444 O454 2.251 1_655 S
Mg444 O457 2.010 . S
O445 Mg444 2.028 1_455 S
O445 C448 1.250 . S
O446 Mg447 2.028 . S
O446 C448 1.248 . S
Mg447 O446 2.028 . S
Mg447 O452 2.032 . S
Mg447 O454 2.079 . S
C448 O445 1.250 . S
C448 O446 1.248 . S
C449 O450 1.264 . S
C449 O457 1.249 . S
O450 C449 1.264 . S
O451 Mg444 1.986 1_455 S
O451 C455 1.246 . S
O452 Mg447 2.032 . S
O452 C455 1.259 . S
O453 Mg444 2.114 . S
O453 C456 1.252 . S
O454 Mg444 2.251 1_455 S
O454 Mg447 2.079 . S
O454 C456 1.273 1_455 S
C455 O451 1.246 . S
C455 O452 1.259 . S
C456 O453 1.252 . S
C456 O454 1.273 1_655 S
O457 Mg444 2.010 . S
O457 C449 1.249 . S
Mg458 O459 2.028 . S
Mg458 O465 1.986 . S
Mg458 O467 2.114 . S
Mg458 O468 2.251 . S
Mg458 O471 2.010 . S
O459 Mg458 2.028 . S
O459 C462 1.250 . S
O460 Mg461 2.028 . S
O460 C462 1.248 . S
Mg461 O460 2.028 . S
Mg461 O466 2.032 . S
Mg461 O468 2.079 . S
C462 O459 1.250 . S
C462 O460 1.248 . S
C463 O464 1.264 . S
C463 O471 1.249 . S
O464 C463 1.264 . S
O465 Mg458 1.986 . S
O465 C469 1.246 . S
O466 Mg461 2.032 . S
O466 C469 1.259 . S
O467 Mg458 2.114 . S
O467 C470 1.252 . S
O468 Mg458 2.251 . S
O468 Mg461 2.079 . S
O468 C470 1.273 . S
C469 O465 1.246 . S
C469 O466 1.259 . S
C470 O467 1.252 . S
C470 O468 1.273 . S
O471 Mg458 2.010 . S
O471 C463 1.249 . S
H472 C478 0.930 . S
H473 C482 0.930 . S
H474 C487 0.929 . S
H475 C485 0.929 . S
H476 C480 0.929 . S
H477 C486 0.929 . S
C478 H472 0.930 . S
C478 C479 1.367 . S
C478 C486 1.378 . S
C479 C478 1.367 . S
C479 C487 1.433 . S
C480 H476 0.929 . S
C480 C482 1.378 . S
C480 C484 1.350 . S
C481 C484 1.463 . S
C481 C486 1.350 . S
C481 N489 1.427 . S
C482 H473 0.930 . S
C482 C480 1.378 . S
C482 C483 1.367 . S
C483 C482 1.367 . S
C483 C485 1.433 . S
C484 C480 1.350 . S
C484 C481 1.463 . S
C484 N488 1.427 . S
C485 H475 0.929 . S
C485 C483 1.433 . S
C485 N488 1.384 . S
C486 H477 0.929 . S
C486 C478 1.378 . S
C486 C481 1.350 . S
C487 H474 0.929 . S
C487 C479 1.433 . S
C487 N489 1.384 . S
N488 C484 1.427 . S
N488 C485 1.384 . S
N489 C481 1.427 . S
N489 C487 1.384 . S
H490 C496 0.930 1_655 S
H491 C500 0.930 . S
H492 C505 0.929 . S
H493 C503 0.929 . S
H494 C498 0.929 . S
H495 C504 0.929 . S
C496 H490 0.930 1_455 S
C496 C497 1.367 . S
C496 C504 1.378 . S
C497 C496 1.367 . S
C497 C505 1.433 . S
C498 H494 0.929 . S
C498 C500 1.378 . S
C498 C502 1.350 . S
C499 C502 1.463 . S
C499 C504 1.350 . S
C499 N507 1.427 . S
C500 H491 0.930 . S
C500 C498 1.378 . S
C500 C501 1.367 . S
C501 C500 1.367 . S
C501 C503 1.433 . S
C502 C498 1.350 . S
C502 C499 1.463 . S
C502 N506 1.427 . S
C503 H493 0.929 . S
C503 C501 1.433 . S
C503 N506 1.384 . S
C504 H495 0.929 . S
C504 C496 1.378 . S
C504 C499 1.350 . S
C505 H492 0.929 . S
C505 C497 1.433 . S
C505 N507 1.384 . S
N506 C502 1.427 . S
N506 C503 1.384 . S
N507 C499 1.427 . S
N507 C505 1.384 . S
H508 C514 0.930 . S
H509 C518 0.930 . S
H510 C523 0.929 . S
H511 C521 0.929 . S
H512 C516 0.929 . S
H513 C522 0.929 . S
C514 H508 0.930 . S
C514 C515 1.367 . S
C514 C522 1.378 . S
C515 C514 1.367 . S
C515 C523 1.433 . S
C516 H512 0.929 . S
C516 C518 1.378 . S
C516 C520 1.350 . S
C517 C520 1.463 . S
C517 C522 1.350 . S
C517 N525 1.427 . S
C518 H509 0.930 . S
C518 C516 1.378 . S
C518 C519 1.367 . S
C519 C518 1.367 . S
C519 C521 1.433 . S
C520 C516 1.350 . S
C520 C517 1.463 . S
C520 N524 1.427 . S
C521 H511 0.929 . S
C521 C519 1.433 . S
C521 N524 1.384 . S
C522 H513 0.929 . S
C522 C514 1.378 . S
C522 C517 1.350 . S
C523 H510 0.929 . S
C523 C515 1.433 . S
C523 N525 1.384 . S
N524 C520 1.427 . S
N524 C521 1.384 . S
N525 C517 1.427 . S
N525 C523 1.384 . S
H526 C532 0.930 . S
H527 C536 0.930 1_565 S
H528 C541 0.929 . S
H529 C539 0.929 . S
H530 C534 0.929 . S
H531 C540 0.929 . S
C532 H526 0.930 . S
C532 C533 1.367 1_545 S
C532 C540 1.378 . S
C533 C532 1.367 1_565 S
C533 C541 1.433 . S
C534 H530 0.929 . S
C534 C536 1.378 1_565 S
C534 C538 1.350 1_565 S
C535 C538 1.463 . S
C535 C540 1.350 . S
C535 N543 1.427 1_545 S
C536 H527 0.930 1_545 S
C536 C534 1.378 1_545 S
C536 C537 1.367 . S
C537 C536 1.367 . S
C537 C539 1.433 1_455 S
C538 C534 1.350 1_545 S
C538 C535 1.463 . S
C538 N542 1.427 . S
C539 H529 0.929 . S
C539 C537 1.433 1_655 S
C539 N542 1.384 1_655 S
C540 H531 0.929 . S
C540 C532 1.378 . S
C540 C535 1.350 . S
C541 H528 0.929 . S
C541 C533 1.433 . S
C541 N543 1.384 . S
N542 C538 1.427 . S
N542 C539 1.384 1_455 S
N543 C535 1.427 1_565 S
N543 C541 1.384 . S
H544 C550 0.930 . S
H545 C554 0.930 . S
H546 C559 0.929 . S
H547 C557 0.929 . S
H548 C552 0.929 . S
H549 C558 0.929 . S
C550 H544 0.930 . S
C550 C551 1.367 . S
C550 C558 1.378 . S
C551 C550 1.367 . S
C551 C559 1.433 . S
C552 H548 0.929 . S
C552 C554 1.378 . S
C552 C556 1.350 . S
C553 C556 1.463 . S
C553 C558 1.350 . S
C553 N561 1.427 . S
C554 H545 0.930 . S
C554 C552 1.378 . S
C554 C555 1.367 . S
C555 C554 1.367 . S
C555 C557 1.433 . S
C556 C552 1.350 . S
C556 C553 1.463 . S
C556 N560 1.427 . S
C557 H547 0.929 . S
C557 C555 1.433 . S
C557 N560 1.384 . S
C558 H549 0.929 . S
C558 C550 1.378 . S
C558 C553 1.350 . S
C559 H546 0.929 . S
C559 C551 1.433 . S
C559 N561 1.384 . S
N560 C556 1.427 . S
N560 C557 1.384 . S
N561 C553 1.427 . S
N561 C559 1.384 . S
H562 C568 0.930 . S
H563 C572 0.930 . S
H564 C577 0.929 . S
H565 C575 0.929 . S
H566 C570 0.929 . S
H567 C576 0.929 . S
C568 H562 0.930 . S
C568 C569 1.367 . S
C568 C576 1.378 . S
C569 C568 1.367 . S
C569 C577 1.433 . S
C570 H566 0.929 . S
C570 C572 1.378 . S
C570 C574 1.350 . S
C571 C574 1.463 . S
C571 C576 1.350 . S
C571 N579 1.427 . S
C572 H563 0.930 . S
C572 C570 1.378 . S
C572 C573 1.367 . S
C573 C572 1.367 . S
C573 C575 1.433 . S
C574 C570 1.350 . S
C574 C571 1.463 . S
C574 N578 1.427 . S
C575 H565 0.929 . S
C575 C573 1.433 . S
C575 N578 1.384 . S
C576 H567 0.929 . S
C576 C568 1.378 . S
C576 C571 1.350 . S
C577 H564 0.929 . S
C577 C569 1.433 . S
C577 N579 1.384 . S
N578 C574 1.427 . S
N578 C575 1.384 . S
N579 C571 1.427 . S
N579 C577 1.384 . S
H580 C586 0.930 . S
H581 C590 0.930 . S
H582 C595 0.929 . S
H583 C593 0.929 . S
H584 C588 0.929 . S
H585 C594 0.929 . S
C586 H580 0.930 . S
C586 C587 1.367 . S
C586 C594 1.378 . S
C587 C586 1.367 . S
C587 C595 1.433 . S
C588 H584 0.929 . S
C588 C590 1.378 . S
C588 C592 1.350 . S
C589 C592 1.463 . S
C589 C594 1.350 . S
C589 N597 1.427 . S
C590 H581 0.930 . S
C590 C588 1.378 . S
C590 C591 1.367 . S
C591 C590 1.367 . S
C591 C593 1.433 . S
C592 C588 1.350 . S
C592 C589 1.463 . S
C592 N596 1.427 . S
C593 H583 0.929 . S
C593 C591 1.433 . S
C593 N596 1.384 . S
C594 H585 0.929 . S
C594 C586 1.378 . S
C594 C589 1.350 . S
C595 H582 0.929 . S
C595 C587 1.433 . S
C595 N597 1.384 . S
N596 C592 1.427 . S
N596 C593 1.384 . S
N597 C589 1.427 . S
N597 C595 1.384 . S
H598 C604 0.930 . S
H599 C608 0.930 . S
H600 C613 0.929 . S
H601 C611 0.929 . S
H602 C606 0.929 . S
H603 C612 0.929 . S
C604 H598 0.930 . S
C604 C605 1.367 1_545 S
C604 C612 1.378 . S
C605 C604 1.367 1_565 S
C605 C613 1.433 . S
C606 H602 0.929 . S
C606 C608 1.378 . S
C606 C610 1.350 . S
C607 C610 1.463 . S
C607 C612 1.350 1_565 S
C607 N615 1.427 . S
C608 H599 0.930 . S
C608 C606 1.378 . S
C608 C609 1.367 1_565 S
C609 C608 1.367 1_545 S
C609 C611 1.433 . S
C610 C606 1.350 . S
C610 C607 1.463 . S
C610 N614 1.427 1_565 S
C611 H601 0.929 . S
C611 C609 1.433 . S
C611 N614 1.384 . S
C612 H603 0.929 . S
C612 C604 1.378 . S
C612 C607 1.350 1_545 S
C613 H600 0.929 . S
C613 C605 1.433 . S
C613 N615 1.384 . S
N614 C610 1.427 1_545 S
N614 C611 1.384 . S
N615 C607 1.427 . S
N615 C613 1.384 . S
H616 C622 0.930 . S
H617 C626 0.930 . S
H618 C631 0.929 . S
H619 C629 0.929 . S
H620 C624 0.929 . S
H621 C630 0.929 . S
C622 H616 0.930 . S
C622 C623 1.367 . S
C622 C630 1.378 . S
C623 C622 1.367 . S
C623 C631 1.433 . S
C624 H620 0.929 . S
C624 C626 1.378 . S
C624 C628 1.350 . S
C625 C628 1.463 . S
C625 C630 1.350 . S
C625 N633 1.427 . S
C626 H617 0.930 . S
C626 C624 1.378 . S
C626 C627 1.367 . S
C627 C626 1.367 . S
C627 C629 1.433 . S
C628 C624 1.350 . S
C628 C625 1.463 . S
C628 N632 1.427 . S
C629 H619 0.929 . S
C629 C627 1.433 . S
C629 N632 1.384 . S
C630 H621 0.929 . S
C630 C622 1.378 . S
C630 C625 1.350 . S
C631 H618 0.929 . S
C631 C623 1.433 . S
C631 N633 1.384 . S
N632 C628 1.427 . S
N632 C629 1.384 . S
N633 C625 1.427 . S
N633 C631 1.384 . S
H634 C640 0.930 . S
H635 C644 0.930 . S
H636 C649 0.929 . S
H637 C647 0.929 . S
H638 C642 0.929 . S
H639 C648 0.929 . S
C640 H634 0.930 . S
C640 C641 1.367 . S
C640 C648 1.378 . S
C641 C640 1.367 . S
C641 C649 1.433 . S
C642 H638 0.929 . S
C642 C644 1.378 . S
C642 C646 1.350 . S
C643 C646 1.463 . S
C643 C648 1.350 . S
C643 N651 1.427 . S
C644 H635 0.930 . S
C644 C642 1.378 . S
C644 C645 1.367 . S
C645 C644 1.367 . S
C645 C647 1.433 . S
C646 C642 1.350 . S
C646 C643 1.463 . S
C646 N650 1.427 . S
C647 H637 0.929 . S
C647 C645 1.433 . S
C647 N650 1.384 . S
C648 H639 0.929 . S
C648 C640 1.378 . S
C648 C643 1.350 . S
C649 H636 0.929 . S
C649 C641 1.433 . S
C649 N651 1.384 . S
N650 C646 1.427 . S
N650 C647 1.384 . S
N651 C643 1.427 . S
N651 C649 1.384 . S
H652 C658 0.930 . S
H653 C662 0.930 . S
H654 C667 0.929 . S
H655 C665 0.929 . S
H656 C660 0.929 . S
H657 C666 0.929 . S
C658 H652 0.930 . S
C658 C659 1.367 . S
C658 C666 1.378 . S
C659 C658 1.367 . S
C659 C667 1.433 . S
C660 H656 0.929 . S
C660 C662 1.378 . S
C660 C664 1.350 . S
C661 C664 1.463 . S
C661 C666 1.350 . S
C661 N669 1.427 . S
C662 H653 0.930 . S
C662 C660 1.378 . S
C662 C663 1.367 . S
C663 C662 1.367 . S
C663 C665 1.433 . S
C664 C660 1.350 . S
C664 C661 1.463 . S
C664 N668 1.427 . S
C665 H655 0.929 . S
C665 C663 1.433 . S
C665 N668 1.384 . S
C666 H657 0.929 . S
C666 C658 1.378 . S
C666 C661 1.350 . S
C667 H654 0.929 . S
C667 C659 1.433 . S
C667 N669 1.384 . S
N668 C664 1.427 . S
N668 C665 1.384 . S
N669 C661 1.427 . S
N669 C667 1.384 . S
H670 C676 0.930 . S
H671 C680 0.930 . S
H672 C685 0.929 . S
H673 C683 0.929 . S
H674 C678 0.929 . S
H675 C684 0.929 . S
C676 H670 0.930 . S
C676 C677 1.367 . S
C676 C684 1.378 . S
C677 C676 1.367 . S
C677 C685 1.433 . S
C678 H674 0.929 . S
C678 C680 1.378 . S
C678 C682 1.350 . S
C679 C682 1.463 . S
C679 C684 1.350 . S
C679 N687 1.427 . S
C680 H671 0.930 . S
C680 C678 1.378 . S
C680 C681 1.367 . S
C681 C680 1.367 . S
C681 C683 1.433 . S
C682 C678 1.350 . S
C682 C679 1.463 . S
C682 N686 1.427 . S
C683 H673 0.929 . S
C683 C681 1.433 . S
C683 N686 1.384 . S
C684 H675 0.929 . S
C684 C676 1.378 . S
C684 C679 1.350 . S
C685 H672 0.929 . S
C685 C677 1.433 . S
C685 N687 1.384 . S
N686 C682 1.427 . S
N686 C683 1.384 . S
N687 C679 1.427 . S
N687 C685 1.384 . S
H688 C694 0.930 . S
H689 C698 0.930 . S
H690 C703 0.929 . S
H691 C701 0.929 . S
H692 C696 0.929 . S
H693 C702 0.929 . S
C694 H688 0.930 . S
C694 C695 1.367 . S
C694 C702 1.378 . S
C695 C694 1.367 . S
C695 C703 1.433 . S
C696 H692 0.929 . S
C696 C698 1.378 . S
C696 C700 1.350 . S
C697 C700 1.463 . S
C697 C702 1.350 . S
C697 N705 1.427 . S
C698 H689 0.930 . S
C698 C696 1.378 . S
C698 C699 1.367 . S
C699 C698 1.367 . S
C699 C701 1.433 . S
C700 C696 1.350 . S
C700 C697 1.463 . S
C700 N704 1.427 . S
C701 H691 0.929 . S
C701 C699 1.433 . S
C701 N704 1.384 . S
C702 H693 0.929 . S
C702 C694 1.378 . S
C702 C697 1.350 . S
C703 H690 0.929 . S
C703 C695 1.433 . S
C703 N705 1.384 . S
N704 C700 1.427 . S
N704 C701 1.384 . S
N705 C697 1.427 . S
N705 C703 1.384 . S
H706 C712 0.930 . S
H707 C716 0.930 . S
H708 C721 0.929 . S
H709 C719 0.929 . S
H710 C714 0.929 . S
H711 C720 0.929 . S
C712 H706 0.930 . S
C712 C713 1.367 . S
C712 C720 1.378 . S
C713 C712 1.367 . S
C713 C721 1.433 . S
C714 H710 0.929 . S
C714 C716 1.378 . S
C714 C718 1.350 . S
C715 C718 1.463 . S
C715 C720 1.350 . S
C715 N723 1.427 . S
C716 H707 0.930 . S
C716 C714 1.378 . S
C716 C717 1.367 . S
C717 C716 1.367 . S
C717 C719 1.433 . S
C718 C714 1.350 . S
C718 C715 1.463 . S
C718 N722 1.427 . S
C719 H709 0.929 . S
C719 C717 1.433 . S
C719 N722 1.384 . S
C720 H711 0.929 . S
C720 C712 1.378 . S
C720 C715 1.350 . S
C721 H708 0.929 . S
C721 C713 1.433 . S
C721 N723 1.384 . S
N722 C718 1.427 . S
N722 C719 1.384 . S
N723 C715 1.427 . S
N723 C721 1.384 . S
H724 C730 0.930 . S
H725 C734 0.930 . S
H726 C739 0.929 . S
H727 C737 0.929 . S
H728 C732 0.929 . S
H729 C738 0.929 . S
C730 H724 0.930 . S
C730 C731 1.367 . S
C730 C738 1.378 . S
C731 C730 1.367 . S
C731 C739 1.433 . S
C732 H728 0.929 . S
C732 C734 1.378 . S
C732 C736 1.350 . S
C733 C736 1.463 . S
C733 C738 1.350 . S
C733 N741 1.427 . S
C734 H725 0.930 . S
C734 C732 1.378 . S
C734 C735 1.367 . S
C735 C734 1.367 . S
C735 C737 1.433 . S
C736 C732 1.350 . S
C736 C733 1.463 . S
C736 N740 1.427 . S
C737 H727 0.929 . S
C737 C735 1.433 . S
C737 N740 1.384 . S
C738 H729 0.929 . S
C738 C730 1.378 . S
C738 C733 1.350 . S
C739 H726 0.929 . S
C739 C731 1.433 . S
C739 N741 1.384 . S
N740 C736 1.427 . S
N740 C737 1.384 . S
N741 C733 1.427 . S
N741 C739 1.384 . S
H742 C748 0.930 . S
H743 C752 0.930 . S
H744 C757 0.929 . S
H745 C755 0.929 . S
H746 C750 0.929 . S
H747 C756 0.929 . S
C748 H742 0.930 . S
C748 C749 1.367 . S
C748 C756 1.378 . S
C749 C748 1.367 . S
C749 C757 1.433 . S
C750 H746 0.929 . S
C750 C752 1.378 . S
C750 C754 1.350 . S
C751 C754 1.463 . S
C751 C756 1.350 . S
C751 N759 1.427 . S
C752 H743 0.930 . S
C752 C750 1.378 . S
C752 C753 1.367 . S
C753 C752 1.367 . S
C753 C755 1.433 . S
C754 C750 1.350 . S
C754 C751 1.463 . S
C754 N758 1.427 . S
C755 H745 0.929 . S
C755 C753 1.433 . S
C755 N758 1.384 . S
C756 H747 0.929 . S
C756 C748 1.378 . S
C756 C751 1.350 . S
C757 H744 0.929 . S
C757 C749 1.433 . S
C757 N759 1.384 . S
N758 C754 1.427 . S
N758 C755 1.384 . S
N759 C751 1.427 . S
N759 C757 1.384 . S
H760 C766 0.930 . S
H761 C770 0.930 . S
H762 C775 0.929 . S
H763 C773 0.929 . S
H764 C768 0.929 . S
H765 C774 0.929 . S
C766 H760 0.930 . S
C766 C767 1.367 . S
C766 C774 1.378 . S
C767 C766 1.367 . S
C767 C775 1.433 . S
C768 H764 0.929 . S
C768 C770 1.378 . S
C768 C772 1.350 . S
C769 C772 1.463 . S
C769 C774 1.350 . S
C769 N777 1.427 . S
C770 H761 0.930 . S
C770 C768 1.378 . S
C770 C771 1.367 . S
C771 C770 1.367 . S
C771 C773 1.433 . S
C772 C768 1.350 . S
C772 C769 1.463 . S
C772 N776 1.427 . S
C773 H763 0.929 . S
C773 C771 1.433 . S
C773 N776 1.384 . S
C774 H765 0.929 . S
C774 C766 1.378 . S
C774 C769 1.350 . S
C775 H762 0.929 . S
C775 C767 1.433 . S
C775 N777 1.384 . S
N776 C772 1.427 . S
N776 C773 1.384 . S
N777 C769 1.427 . S
N777 C775 1.384 . S
H778 C784 0.930 . S
H779 C788 0.930 . S
H780 C793 0.929 . S
H781 C791 0.929 . S
H782 C786 0.929 . S
H783 C792 0.929 . S
C784 H778 0.930 . S
C784 C785 1.367 . S
C784 C792 1.378 . S
C785 C784 1.367 . S
C785 C793 1.433 . S
C786 H782 0.929 . S
C786 C788 1.378 . S
C786 C790 1.350 . S
C787 C790 1.463 . S
C787 C792 1.350 . S
C787 N795 1.427 . S
C788 H779 0.930 . S
C788 C786 1.378 . S
C788 C789 1.367 . S
C789 C788 1.367 . S
C789 C791 1.433 . S
C790 C786 1.350 . S
C790 C787 1.463 . S
C790 N794 1.427 . S
C791 H781 0.929 . S
C791 C789 1.433 . S
C791 N794 1.384 . S
C792 H783 0.929 . S
C792 C784 1.378 . S
C792 C787 1.350 . S
C793 H780 0.929 . S
C793 C785 1.433 . S
C793 N795 1.384 . S
N794 C790 1.427 . S
N794 C791 1.384 . S
N795 C787 1.427 . S
N795 C793 1.384 . S
H796 C802 0.930 1_554 S
H797 C806 0.930 . S
H798 C811 0.929 . S
H799 C809 0.929 . S
H800 C804 0.959 . S
H801 C810 0.929 . S
C802 H796 0.930 1_556 S
C802 C803 1.367 1_565 S
C802 C810 1.378 1_556 S
C803 C802 1.367 1_545 S
C803 C811 1.433 . S
C804 H800 0.959 . S
C804 C806 1.358 1_556 S
C804 C808 1.341 1_556 S
C805 C808 1.463 1_556 S
C805 C810 1.350 1_556 S
C805 N813 1.427 . S
C806 H797 0.930 . S
C806 C804 1.358 1_554 S
C806 C807 1.367 . S
C807 C806 1.367 . S
C807 C809 1.433 . S
C808 C804 1.341 1_554 S
C808 C805 1.463 1_554 S
C808 N812 1.427 . S
C809 H799 0.929 . S
C809 C807 1.433 . S
C809 N812 1.384 . S
C810 H801 0.929 . S
C810 C802 1.378 1_554 S
C810 C805 1.350 1_554 S
C811 H798 0.929 . S
C811 C803 1.433 . S
C811 N813 1.384 1_545 S
N812 C808 1.427 . S
N812 C809 1.384 . S
N813 C805 1.427 . S
N813 C811 1.384 1_565 S
H814 C820 0.930 . S
H815 C824 0.930 . S
H816 C829 0.929 . S
H817 C827 0.929 . S
H818 C822 0.929 . S
H819 C828 0.929 . S
C820 H814 0.930 . S
C820 C821 1.367 . S
C820 C828 1.378 . S
C821 C820 1.367 . S
C821 C829 1.433 . S
C822 H818 0.929 . S
C822 C824 1.378 . S
C822 C826 1.350 . S
C823 C826 1.463 . S
C823 C828 1.350 . S
C823 N831 1.427 . S
C824 H815 0.930 . S
C824 C822 1.378 . S
C824 C825 1.367 . S
C825 C824 1.367 . S
C825 C827 1.433 . S
C826 C822 1.350 . S
C826 C823 1.463 . S
C826 N830 1.427 . S
C827 H817 0.929 . S
C827 C825 1.433 . S
C827 N830 1.384 . S
C828 H819 0.929 . S
C828 C820 1.378 . S
C828 C823 1.350 . S
C829 H816 0.929 . S
C829 C821 1.433 . S
C829 N831 1.384 . S
N830 C826 1.427 . S
N830 C827 1.384 . S
N831 C823 1.427 . S
N831 C829 1.384 . S
H832 C838 0.930 . S
H833 C842 0.930 . S
H834 C847 0.929 . S
H835 C845 0.929 . S
H836 C840 0.929 . S
H837 C846 0.929 . S
C838 H832 0.930 . S
C838 C839 1.367 . S
C838 C846 1.378 . S
C839 C838 1.367 . S
C839 C847 1.433 . S
C840 H836 0.929 . S
C840 C842 1.378 . S
C840 C844 1.350 . S
C841 C844 1.463 . S
C841 C846 1.350 . S
C841 N849 1.427 . S
C842 H833 0.930 . S
C842 C840 1.378 . S
C842 C843 1.367 . S
C843 C842 1.367 . S
C843 C845 1.433 . S
C844 C840 1.350 . S
C844 C841 1.463 . S
C844 N848 1.427 . S
C845 H835 0.929 . S
C845 C843 1.433 . S
C845 N848 1.384 . S
C846 H837 0.929 . S
C846 C838 1.378 . S
C846 C841 1.350 . S
C847 H834 0.929 . S
C847 C839 1.433 . S
C847 N849 1.384 . S
N848 C844 1.427 . S
N848 C845 1.384 . S
N849 C841 1.427 . S
N849 C847 1.384 . S
H850 C856 0.930 . S
H851 C860 0.930 . S
H852 C865 0.929 . S
H853 C863 0.929 . S
H854 C858 0.929 . S
H855 C864 0.929 . S
C856 H850 0.930 . S
C856 C857 1.367 . S
C856 C864 1.378 . S
C857 C856 1.367 . S
C857 C865 1.433 . S
C858 H854 0.929 . S
C858 C860 1.378 . S
C858 C862 1.350 . S
C859 C862 1.463 . S
C859 C864 1.350 . S
C859 N867 1.427 . S
C860 H851 0.930 . S
C860 C858 1.378 . S
C860 C861 1.367 . S
C861 C860 1.367 . S
C861 C863 1.433 . S
C862 C858 1.350 . S
C862 C859 1.463 . S
C862 N866 1.427 . S
C863 H853 0.929 . S
C863 C861 1.433 . S
C863 N866 1.384 . S
C864 H855 0.929 . S
C864 C856 1.378 . S
C864 C859 1.350 . S
C865 H852 0.929 . S
C865 C857 1.433 . S
C865 N867 1.384 . S
N866 C862 1.427 . S
N866 C863 1.384 . S
N867 C859 1.427 . S
N867 C865 1.384 . S
H868 C874 0.930 . S
H869 C878 0.930 . S
H870 C883 0.929 1_565 S
H871 C881 0.929 . S
H872 C876 0.929 . S
H873 C882 0.929 . S
C874 H868 0.930 . S
C874 C875 1.367 . S
C874 C882 1.378 . S
C875 C874 1.367 . S
C875 C883 1.433 . S
C876 H872 0.929 . S
C876 C878 1.378 . S
C876 C880 1.350 . S
C877 C880 1.463 . S
C877 C882 1.350 . S
C877 N885 1.427 . S
C878 H869 0.930 . S
C878 C876 1.378 . S
C878 C879 1.367 . S
C879 C878 1.367 . S
C879 C881 1.433 . S
C880 C876 1.350 . S
C880 C877 1.463 . S
C880 N884 1.427 . S
C881 H871 0.929 . S
C881 C879 1.433 . S
C881 N884 1.384 . S
C882 H873 0.929 . S
C882 C874 1.378 . S
C882 C877 1.350 . S
C883 H870 0.929 1_545 S
C883 C875 1.433 . S
C883 N885 1.384 . S
N884 C880 1.427 . S
N884 C881 1.384 . S
N885 C877 1.427 . S
N885 C883 1.384 . S
H886 C892 0.930 . S
H887 C896 0.930 . S
H888 C901 0.929 . S
H889 C899 0.929 . S
H890 C894 0.929 . S
H891 C900 0.929 . S
C892 H886 0.930 . S
C892 C893 1.367 . S
C892 C900 1.378 . S
C893 C892 1.367 . S
C893 C901 1.433 . S
C894 H890 0.929 . S
C894 C896 1.378 . S
C894 C898 1.350 . S
C895 C898 1.463 . S
C895 C900 1.350 . S
C895 N903 1.427 . S
C896 H887 0.930 . S
C896 C894 1.378 . S
C896 C897 1.367 . S
C897 C896 1.367 . S
C897 C899 1.433 . S
C898 C894 1.350 . S
C898 C895 1.463 . S
C898 N902 1.427 . S
C899 H889 0.929 . S
C899 C897 1.433 . S
C899 N902 1.384 . S
C900 H891 0.929 . S
C900 C892 1.378 . S
C900 C895 1.350 . S
C901 H888 0.929 . S
C901 C893 1.433 . S
C901 N903 1.384 . S
N902 C898 1.427 . S
N902 C899 1.384 . S
N903 C895 1.427 . S
N903 C901 1.384 . S
H904 C910 0.930 . S
H905 C914 0.930 . S
H906 C919 0.929 . S
H907 C917 0.929 . S
H908 C912 0.929 . S
H909 C918 0.929 . S
C910 H904 0.930 . S
C910 C911 1.367 . S
C910 C918 1.378 . S
C911 C910 1.367 . S
C911 C919 1.433 . S
C912 H908 0.929 . S
C912 C914 1.378 . S
C912 C916 1.350 . S
C913 C916 1.463 . S
C913 C918 1.350 . S
C913 N921 1.427 . S
C914 H905 0.930 . S
C914 C912 1.378 . S
C914 C915 1.367 . S
C915 C914 1.367 . S
C915 C917 1.433 . S
C916 C912 1.350 . S
C916 C913 1.463 . S
C916 N920 1.427 . S
C917 H907 0.929 . S
C917 C915 1.433 . S
C917 N920 1.384 . S
C918 H909 0.929 . S
C918 C910 1.378 . S
C918 C913 1.350 . S
C919 H906 0.929 . S
C919 C911 1.433 . S
C919 N921 1.384 . S
N920 C916 1.427 . S
N920 C917 1.384 . S
N921 C913 1.427 . S
N921 C919 1.384 . S
H922 C928 0.899 1_565 S
H923 C932 0.930 . S
H924 C937 0.929 . S
H925 C935 0.929 1_565 S
H926 C930 0.929 . S
H927 C936 0.929 1_565 S
C928 H922 0.899 1_545 S
C928 C929 1.367 . S
C928 C936 1.378 . S
C929 C928 1.367 . S
C929 C937 1.433 . S
C930 H926 0.929 . S
C930 C932 1.378 . S
C930 C934 1.350 . S
C931 C934 1.463 . S
C931 C936 1.350 . S
C931 N939 1.427 . S
C932 H923 0.930 . S
C932 C930 1.378 . S
C932 C933 1.367 . S
C933 C932 1.367 . S
C933 C935 1.433 . S
C934 C930 1.350 . S
C934 C931 1.463 . S
C934 N938 1.427 . S
C935 H925 0.929 1_545 S
C935 C933 1.433 . S
C935 N938 1.384 . S
C936 H927 0.929 1_545 S
C936 C928 1.378 . S
C936 C931 1.350 . S
C937 H924 0.929 . S
C937 C929 1.433 . S
C937 N939 1.384 . S
N938 C934 1.427 . S
N938 C935 1.384 . S
N939 C931 1.427 . S
N939 C937 1.384 . S
H940 C946 0.930 . S
H941 C950 0.930 . S
H942 C955 0.929 . S
H943 C953 0.929 . S
H944 C948 0.929 . S
H945 C954 0.929 . S
C946 H940 0.930 . S
C946 C947 1.367 . S
C946 C954 1.378 . S
C947 C946 1.367 . S
C947 C955 1.433 . S
C948 H944 0.929 . S
C948 C950 1.378 . S
C948 C952 1.350 . S
C949 C952 1.463 . S
C949 C954 1.350 . S
C949 N957 1.427 . S
C950 H941 0.930 . S
C950 C948 1.378 . S
C950 C951 1.367 . S
C951 C950 1.367 . S
C951 C953 1.433 . S
C952 C948 1.350 . S
C952 C949 1.463 . S
C952 N956 1.427 . S
C953 H943 0.929 . S
C953 C951 1.433 . S
C953 N956 1.384 . S
C954 H945 0.929 . S
C954 C946 1.378 . S
C954 C949 1.350 . S
C955 H942 0.929 . S
C955 C947 1.433 . S
C955 N957 1.384 . S
N956 C952 1.427 . S
N956 C953 1.384 . S
N957 C949 1.427 . S
N957 C955 1.384 . S
H958 C964 0.930 . S
H959 C968 0.930 . S
H960 C973 0.929 . S
H961 C971 0.929 . S
H962 C966 0.929 . S
H963 C972 0.929 . S
C964 H958 0.930 . S
C964 C965 1.367 . S
C964 C972 1.378 . S
C965 C964 1.367 . S
C965 C973 1.433 . S
C966 H962 0.929 . S
C966 C968 1.378 . S
C966 C970 1.350 . S
C967 C970 1.463 . S
C967 C972 1.350 . S
C967 N975 1.427 . S
C968 H959 0.930 . S
C968 C966 1.378 . S
C968 C969 1.367 . S
C969 C968 1.367 . S
C969 C971 1.433 . S
C970 C966 1.350 . S
C970 C967 1.463 . S
C970 N974 1.427 . S
C971 H961 0.929 . S
C971 C969 1.433 . S
C971 N974 1.384 . S
C972 H963 0.929 . S
C972 C964 1.378 . S
C972 C967 1.350 . S
C973 H960 0.929 . S
C973 C965 1.433 . S
C973 N975 1.384 . S
N974 C970 1.427 . S
N974 C971 1.384 . S
N975 C967 1.427 . S
N975 C973 1.384 . S
H976 C982 0.930 . S
H977 C986 0.930 . S
H978 C991 0.929 . S
H979 C989 0.929 . S
H980 C984 0.929 . S
H981 C990 0.929 . S
C982 H976 0.930 . S
C982 C983 1.367 . S
C982 C990 1.378 . S
C983 C982 1.367 . S
C983 C991 1.433 . S
C984 H980 0.929 . S
C984 C986 1.378 . S
C984 C988 1.350 . S
C985 C988 1.463 . S
C985 C990 1.350 . S
C985 N993 1.427 . S
C986 H977 0.930 . S
C986 C984 1.378 . S
C986 C987 1.367 . S
C987 C986 1.367 . S
C987 C989 1.433 . S
C988 C984 1.350 . S
C988 C985 1.463 . S
C988 N992 1.427 . S
C989 H979 0.929 . S
C989 C987 1.433 . S
C989 N992 1.384 . S
C990 H981 0.929 . S
C990 C982 1.378 . S
C990 C985 1.350 . S
C991 H978 0.929 . S
C991 C983 1.433 . S
C991 N993 1.384 . S
N992 C988 1.427 . S
N992 C989 1.384 . S
N993 C985 1.427 . S
N993 C991 1.384 . S
H994 C1000 0.930 . S
H995 C1004 0.930 . S
H996 C1009 0.929 . S
H997 C1007 0.929 1_565 S
H998 C1002 0.929 . S
H999 C1008 0.929 1_655 S
C1000 H994 0.930 . S
C1000 C1001 1.367 1_565 S
C1000 C1008 1.378 . S
C1001 C1000 1.367 1_545 S
C1001 C1009 1.433 . S
C1002 H998 0.929 . S
C1002 C1004 1.378 . S
C1002 C1006 1.350 . S
C1003 C1006 1.463 . S
C1003 C1008 1.350 1_545 S
C1003 N1011 1.427 . S
C1004 H995 0.930 . S
C1004 C1002 1.378 . S
C1004 C1005 1.367 1_455 S
C1005 C1004 1.367 1_655 S
C1005 C1007 1.433 . S
C1006 C1002 1.350 . S
C1006 C1003 1.463 . S
C1006 N1010 1.427 1_455 S
C1007 H997 0.929 1_545 S
C1007 C1005 1.433 . S
C1007 N1010 1.384 . S
C1008 H999 0.929 1_455 S
C1008 C1000 1.378 . S
C1008 C1003 1.350 1_565 S
C1009 H996 0.929 . S
C1009 C1001 1.433 . S
C1009 N1011 1.384 . S
N1010 C1006 1.427 1_655 S
N1010 C1007 1.384 . S
N1011 C1003 1.427 . S
N1011 C1009 1.384 . S
H1012 C1018 0.930 . S
H1013 C1022 0.930 . S
H1014 C1027 0.929 . S
H1015 C1025 0.929 . S
H1016 C1020 0.929 . S
H1017 C1026 0.929 . S
C1018 H1012 0.930 . S
C1018 C1019 1.367 . S
C1018 C1026 1.378 . S
C1019 C1018 1.367 . S
C1019 C1027 1.433 . S
C1020 H1016 0.929 . S
C1020 C1022 1.378 . S
C1020 C1024 1.350 . S
C1021 C1024 1.463 . S
C1021 C1026 1.350 . S
C1021 N1029 1.427 . S
C1022 H1013 0.930 . S
C1022 C1020 1.378 . S
C1022 C1023 1.367 . S
C1023 C1022 1.367 . S
C1023 C1025 1.433 . S
C1024 C1020 1.350 . S
C1024 C1021 1.463 . S
C1024 N1028 1.427 . S
C1025 H1015 0.929 . S
C1025 C1023 1.433 . S
C1025 N1028 1.384 . S
C1026 H1017 0.929 . S
C1026 C1018 1.378 . S
C1026 C1021 1.350 . S
C1027 H1014 0.929 . S
C1027 C1019 1.433 . S
C1027 N1029 1.384 . S
N1028 C1024 1.427 . S
N1028 C1025 1.384 . S
N1029 C1021 1.427 . S
N1029 C1027 1.384 . S
H1030 C1036 0.930 . S
H1031 C1040 0.930 . S
H1032 C1045 0.929 . S
H1033 C1043 0.929 . S
H1034 C1038 0.929 . S
H1035 C1044 0.929 . S
C1036 H1030 0.930 . S
C1036 C1037 1.367 . S
C1036 C1044 1.378 . S
C1037 C1036 1.367 . S
C1037 C1045 1.433 . S
C1038 H1034 0.929 . S
C1038 C1040 1.378 . S
C1038 C1042 1.350 . S
C1039 C1042 1.463 . S
C1039 C1044 1.350 . S
C1039 N1047 1.427 . S
C1040 H1031 0.930 . S
C1040 C1038 1.378 . S
C1040 C1041 1.367 . S
C1041 C1040 1.367 . S
C1041 C1043 1.433 . S
C1042 C1038 1.350 . S
C1042 C1039 1.463 . S
C1042 N1046 1.427 . S
C1043 H1033 0.929 . S
C1043 C1041 1.433 . S
C1043 N1046 1.384 . S
C1044 H1035 0.929 . S
C1044 C1036 1.378 . S
C1044 C1039 1.350 . S
C1045 H1032 0.929 . S
C1045 C1037 1.433 . S
C1045 N1047 1.384 . S
N1046 C1042 1.427 . S
N1046 C1043 1.384 . S
N1047 C1039 1.427 . S
N1047 C1045 1.384 . S
H1048 C1054 0.930 . S
H1049 C1058 0.930 . S
H1050 C1063 0.929 . S
H1051 C1061 0.929 . S
H1052 C1056 0.929 . S
H1053 C1062 0.929 . S
C1054 H1048 0.930 . S
C1054 C1055 1.367 . S
C1054 C1062 1.378 . S
C1055 C1054 1.367 . S
C1055 C1063 1.433 . S
C1056 H1052 0.929 . S
C1056 C1058 1.378 . S
C1056 C1060 1.350 . S
C1057 C1060 1.463 . S
C1057 C1062 1.350 . S
C1057 N1065 1.427 . S
C1058 H1049 0.930 . S
C1058 C1056 1.378 . S
C1058 C1059 1.367 . S
C1059 C1058 1.367 . S
C1059 C1061 1.433 . S
C1060 C1056 1.350 . S
C1060 C1057 1.463 . S
C1060 N1064 1.427 . S
C1061 H1051 0.929 . S
C1061 C1059 1.433 . S
C1061 N1064 1.384 . S
C1062 H1053 0.929 . S
C1062 C1054 1.378 . S
C1062 C1057 1.350 . S
C1063 H1050 0.929 . S
C1063 C1055 1.433 . S
C1063 N1065 1.384 . S
N1064 C1060 1.427 . S
N1064 C1061 1.384 . S
N1065 C1057 1.427 . S
N1065 C1063 1.384 . S
H1066 C1072 0.930 . S
H1067 C1076 0.930 . S
H1068 C1081 0.929 . S
H1069 C1079 0.927 1_655 S
H1070 C1074 0.929 . S
H1071 C1080 0.929 . S
C1072 H1066 0.930 . S
C1072 C1073 1.367 1_655 S
C1072 C1080 1.378 . S
C1073 C1072 1.367 1_455 S
C1073 C1081 1.433 . S
C1074 H1070 0.929 . S
C1074 C1076 1.378 . S
C1074 C1078 1.350 . S
C1075 C1078 1.463 . S
C1075 C1080 1.350 1_455 S
C1075 N1083 1.427 . S
C1076 H1067 0.930 . S
C1076 C1074 1.378 . S
C1076 C1077 1.367 . S
C1077 C1076 1.367 . S
C1077 C1079 1.437 . S
C1078 C1074 1.350 . S
C1078 C1075 1.463 . S
C1078 N1082 1.422 1_455 S
C1079 H1069 0.927 1_455 S
C1079 C1077 1.437 . S
C1079 N1082 1.378 1_455 S
C1080 H1071 0.929 . S
C1080 C1072 1.378 . S
C1080 C1075 1.350 1_655 S
C1081 H1068 0.929 . S
C1081 C1073 1.433 . S
C1081 N1083 1.384 . S
N1082 C1078 1.422 1_655 S
N1082 C1079 1.378 1_655 S
N1083 C1075 1.427 . S
N1083 C1081 1.384 . S
H1084 C1090 0.930 . S
H1085 C1094 0.930 . S
H1086 C1099 0.929 . S
H1087 C1097 0.929 . S
H1088 C1092 0.929 . S
H1089 C1098 0.929 . S
C1090 H1084 0.930 . S
C1090 C1091 1.367 . S
C1090 C1098 1.378 . S
C1091 C1090 1.367 . S
C1091 C1099 1.433 . S
C1092 H1088 0.929 . S
C1092 C1094 1.378 . S
C1092 C1096 1.350 . S
C1093 C1096 1.463 . S
C1093 C1098 1.350 . S
C1093 N1101 1.427 . S
C1094 H1085 0.930 . S
C1094 C1092 1.378 . S
C1094 C1095 1.367 . S
C1095 C1094 1.367 . S
C1095 C1097 1.433 . S
C1096 C1092 1.350 . S
C1096 C1093 1.463 . S
C1096 N1100 1.427 . S
C1097 H1087 0.929 . S
C1097 C1095 1.433 . S
C1097 N1100 1.384 . S
C1098 H1089 0.929 . S
C1098 C1090 1.378 . S
C1098 C1093 1.350 . S
C1099 H1086 0.929 . S
C1099 C1091 1.433 . S
C1099 N1101 1.384 . S
N1100 C1096 1.427 . S
N1100 C1097 1.384 . S
N1101 C1093 1.427 . S
N1101 C1099 1.384 . S
H1102 C1108 0.930 . S
H1103 C1112 0.929 . S
H1104 C1117 0.952 . S
H1105 C1115 0.929 . S
H1106 C1110 0.929 1_655 S
H1107 C1116 0.929 . S
C1108 H1102 0.930 . S
C1108 C1109 1.367 . S
C1108 C1116 1.378 . S
C1109 C1108 1.367 . S
C1109 C1117 1.433 . S
C1110 H1106 0.929 1_455 S
C1110 C1112 1.378 1_455 S
C1110 C1114 1.350 . S
C1111 C1114 1.463 . S
C1111 C1116 1.350 . S
C1111 N1119 1.427 . S
C1112 H1103 0.929 . S
C1112 C1110 1.378 1_655 S
C1112 C1113 1.367 1_655 S
C1113 C1112 1.367 1_455 S
C1113 C1115 1.433 . S
C1114 C1110 1.350 . S
C1114 C1111 1.463 . S
C1114 N1118 1.427 . S
C1115 H1105 0.929 . S
C1115 C1113 1.433 . S
C1115 N1118 1.384 . S
C1116 H1107 0.929 . S
C1116 C1108 1.378 . S
C1116 C1111 1.350 . S
C1117 H1104 0.952 . S
C1117 C1109 1.433 . S
C1117 N1119 1.384 . S
N1118 C1114 1.427 . S
N1118 C1115 1.384 . S
N1119 C1111 1.427 . S
N1119 C1117 1.384 . S
H1120 C1126 0.930 . S
H1121 C1130 0.930 . S
H1122 C1135 0.929 . S
H1123 C1133 0.929 . S
H1124 C1128 0.929 . S
H1125 C1134 0.929 . S
C1126 H1120 0.930 . S
C1126 C1127 1.367 . S
C1126 C1134 1.378 . S
C1127 C1126 1.367 . S
C1127 C1135 1.433 . S
C1128 H1124 0.929 . S
C1128 C1130 1.378 . S
C1128 C1132 1.350 . S
C1129 C1132 1.463 . S
C1129 C1134 1.350 . S
C1129 N1137 1.427 . S
C1130 H1121 0.930 . S
C1130 C1128 1.378 . S
C1130 C1131 1.367 . S
C1131 C1130 1.367 . S
C1131 C1133 1.433 . S
C1132 C1128 1.350 . S
C1132 C1129 1.463 . S
C1132 N1136 1.427 . S
C1133 H1123 0.929 . S
C1133 C1131 1.433 . S
C1133 N1136 1.384 . S
C1134 H1125 0.929 . S
C1134 C1126 1.378 . S
C1134 C1129 1.350 . S
C1135 H1122 0.929 . S
C1135 C1127 1.433 . S
C1135 N1137 1.384 . S
N1136 C1132 1.427 . S
N1136 C1133 1.384 . S
N1137 C1129 1.427 . S
N1137 C1135 1.384 . S
H1138 C1144 0.930 . S
H1139 C1148 0.930 . S
H1140 C1153 0.929 . S
H1141 C1151 0.929 . S
H1142 C1146 0.929 . S
H1143 C1152 0.929 . S
C1144 H1138 0.930 . S
C1144 C1145 1.367 . S
C1144 C1152 1.378 . S
C1145 C1144 1.367 . S
C1145 C1153 1.433 . S
C1146 H1142 0.929 . S
C1146 C1148 1.378 . S
C1146 C1150 1.350 . S
C1147 C1150 1.463 . S
C1147 C1152 1.350 . S
C1147 N1155 1.427 . S
C1148 H1139 0.930 . S
C1148 C1146 1.378 . S
C1148 C1149 1.367 . S
C1149 C1148 1.367 . S
C1149 C1151 1.433 . S
C1150 C1146 1.350 . S
C1150 C1147 1.463 . S
C1150 N1154 1.427 . S
C1151 H1141 0.929 . S
C1151 C1149 1.433 . S
C1151 N1154 1.384 . S
C1152 H1143 0.929 . S
C1152 C1144 1.378 . S
C1152 C1147 1.350 . S
C1153 H1140 0.929 . S
C1153 C1145 1.433 . S
C1153 N1155 1.384 . S
N1154 C1150 1.427 . S
N1154 C1151 1.384 . S
N1155 C1147 1.427 . S
N1155 C1153 1.384 . S
H1156 C1162 0.930 . S
H1157 C1166 0.930 . S
H1158 C1171 0.929 . S
H1159 C1169 0.929 . S
H1160 C1164 0.929 . S
H1161 C1170 0.929 . S
C1162 H1156 0.930 . S
C1162 C1163 1.367 . S
C1162 C1170 1.378 . S
C1163 C1162 1.367 . S
C1163 C1171 1.433 . S
C1164 H1160 0.929 . S
C1164 C1166 1.378 . S
C1164 C1168 1.350 . S
C1165 C1168 1.463 . S
C1165 C1170 1.350 . S
C1165 N1173 1.427 . S
C1166 H1157 0.930 . S
C1166 C1164 1.378 . S
C1166 C1167 1.367 . S
C1167 C1166 1.367 . S
C1167 C1169 1.433 . S
C1168 C1164 1.350 . S
C1168 C1165 1.463 . S
C1168 N1172 1.427 . S
C1169 H1159 0.929 . S
C1169 C1167 1.433 . S
C1169 N1172 1.384 . S
C1170 H1161 0.929 . S
C1170 C1162 1.378 . S
C1170 C1165 1.350 . S
C1171 H1158 0.929 . S
C1171 C1163 1.433 . S
C1171 N1173 1.384 . S
N1172 C1168 1.427 . S
N1172 C1169 1.384 . S
N1173 C1165 1.427 . S
N1173 C1171 1.384 . S
H1174 C1180 0.930 . S
H1175 C1184 0.930 . S
H1176 C1189 0.929 . S
H1177 C1187 0.929 . S
H1178 C1182 0.929 . S
H1179 C1188 0.929 . S
C1180 H1174 0.930 . S
C1180 C1181 1.367 . S
C1180 C1188 1.378 1_556 S
C1181 C1180 1.367 . S
C1181 C1189 1.433 1_556 S
C1182 H1178 0.929 . S
C1182 C1184 1.378 . S
C1182 C1186 1.350 . S
C1183 C1186 1.463 . S
C1183 C1188 1.350 . S
C1183 N1191 1.427 . S
C1184 H1175 0.930 . S
C1184 C1182 1.378 . S
C1184 C1185 1.367 . S
C1185 C1184 1.367 . S
C1185 C1187 1.433 . S
C1186 C1182 1.350 . S
C1186 C1183 1.463 . S
C1186 N1190 1.427 . S
C1187 H1177 0.929 . S
C1187 C1185 1.433 . S
C1187 N1190 1.384 . S
C1188 H1179 0.929 . S
C1188 C1180 1.378 1_554 S
C1188 C1183 1.350 . S
C1189 H1176 0.929 . S
C1189 C1181 1.433 1_554 S
C1189 N1191 1.384 . S
N1190 C1186 1.427 . S
N1190 C1187 1.384 . S
N1191 C1183 1.427 . S
N1191 C1189 1.384 . S
H1192 C1198 0.930 . S
H1193 C1202 0.930 . S
H1194 C1207 0.929 . S
H1195 C1205 0.929 . S
H1196 C1200 0.929 . S
H1197 C1206 0.929 . S
C1198 H1192 0.930 . S
C1198 C1199 1.367 . S
C1198 C1206 1.378 . S
C1199 C1198 1.367 . S
C1199 C1207 1.433 . S
C1200 H1196 0.929 . S
C1200 C1202 1.378 . S
C1200 C1204 1.350 . S
C1201 C1204 1.463 . S
C1201 C1206 1.350 . S
C1201 N1209 1.427 . S
C1202 H1193 0.930 . S
C1202 C1200 1.378 . S
C1202 C1203 1.367 . S
C1203 C1202 1.367 . S
C1203 C1205 1.433 . S
C1204 C1200 1.350 . S
C1204 C1201 1.463 . S
C1204 N1208 1.427 . S
C1205 H1195 0.929 . S
C1205 C1203 1.433 . S
C1205 N1208 1.384 . S
C1206 H1197 0.929 . S
C1206 C1198 1.378 . S
C1206 C1201 1.350 . S
C1207 H1194 0.929 . S
C1207 C1199 1.433 . S
C1207 N1209 1.384 . S
N1208 C1204 1.427 . S
N1208 C1205 1.384 . S
N1209 C1201 1.427 . S
N1209 C1207 1.384 . S
H1210 C1216 0.930 . S
H1211 C1220 0.930 . S
H1212 C1225 0.929 . S
H1213 C1223 0.929 . S
H1214 C1218 0.929 . S
H1215 C1224 0.929 . S
C1216 H1210 0.930 . S
C1216 C1217 1.367 . S
C1216 C1224 1.378 . S
C1217 C1216 1.367 . S
C1217 C1225 1.433 . S
C1218 H1214 0.929 . S
C1218 C1220 1.378 . S
C1218 C1222 1.350 . S
C1219 C1222 1.463 . S
C1219 C1224 1.350 . S
C1219 N1227 1.427 . S
C1220 H1211 0.930 . S
C1220 C1218 1.378 . S
C1220 C1221 1.367 . S
C1221 C1220 1.367 . S
C1221 C1223 1.433 . S
C1222 C1218 1.350 . S
C1222 C1219 1.463 . S
C1222 N1226 1.427 . S
C1223 H1213 0.929 . S
C1223 C1221 1.433 . S
C1223 N1226 1.384 . S
C1224 H1215 0.929 . S
C1224 C1216 1.378 . S
C1224 C1219 1.350 . S
C1225 H1212 0.929 . S
C1225 C1217 1.433 . S
C1225 N1227 1.384 . S
N1226 C1222 1.427 . S
N1226 C1223 1.384 . S
N1227 C1219 1.427 . S
N1227 C1225 1.384 . S
H1228 C1234 0.930 . S
H1229 C1238 0.930 . S
H1230 C1243 0.929 . S
H1231 C1241 0.929 . S
H1232 C1236 0.929 . S
H1233 C1242 0.929 . S
C1234 H1228 0.930 . S
C1234 C1235 1.367 . S
C1234 C1242 1.378 . S
C1235 C1234 1.367 . S
C1235 C1243 1.433 . S
C1236 H1232 0.929 . S
C1236 C1238 1.378 . S
C1236 C1240 1.350 . S
C1237 C1240 1.463 . S
C1237 C1242 1.350 . S
C1237 N1245 1.427 . S
C1238 H1229 0.930 . S
C1238 C1236 1.378 . S
C1238 C1239 1.367 . S
C1239 C1238 1.367 . S
C1239 C1241 1.433 . S
C1240 C1236 1.350 . S
C1240 C1237 1.463 . S
C1240 N1244 1.427 . S
C1241 H1231 0.929 . S
C1241 C1239 1.433 . S
C1241 N1244 1.384 . S
C1242 H1233 0.929 . S
C1242 C1234 1.378 . S
C1242 C1237 1.350 . S
C1243 H1230 0.929 . S
C1243 C1235 1.433 . S
C1243 N1245 1.384 . S
N1244 C1240 1.427 . S
N1244 C1241 1.384 . S
N1245 C1237 1.427 . S
N1245 C1243 1.384 . S
H1246 C1252 0.930 . S
H1247 C1256 0.930 . S
H1248 C1261 0.929 . S
H1249 C1259 0.929 . S
H1250 C1254 0.929 . S
H1251 C1260 0.929 . S
C1252 H1246 0.930 . S
C1252 C1253 1.367 . S
C1252 C1260 1.378 . S
C1253 C1252 1.367 . S
C1253 C1261 1.433 . S
C1254 H1250 0.929 . S
C1254 C1256 1.378 . S
C1254 C1258 1.350 . S
C1255 C1258 1.463 . S
C1255 C1260 1.350 . S
C1255 N1263 1.427 . S
C1256 H1247 0.930 . S
C1256 C1254 1.378 . S
C1256 C1257 1.367 . S
C1257 C1256 1.367 . S
C1257 C1259 1.433 . S
C1258 C1254 1.350 . S
C1258 C1255 1.463 . S
C1258 N1262 1.427 . S
C1259 H1249 0.929 . S
C1259 C1257 1.433 . S
C1259 N1262 1.384 . S
C1260 H1251 0.929 . S
C1260 C1252 1.378 . S
C1260 C1255 1.350 . S
C1261 H1248 0.929 . S
C1261 C1253 1.433 . S
C1261 N1263 1.384 . S
N1262 C1258 1.427 . S
N1262 C1259 1.384 . S
N1263 C1255 1.427 . S
N1263 C1261 1.384 . S
H1264 C1270 0.930 . S
H1265 C1274 0.930 . S
H1266 C1279 0.929 . S
H1267 C1277 0.929 . S
H1268 C1272 0.929 . S
H1269 C1278 0.929 . S
C1270 H1264 0.930 . S
C1270 C1271 1.367 . S
C1270 C1278 1.378 . S
C1271 C1270 1.367 . S
C1271 C1279 1.433 1_556 S
C1272 H1268 0.929 . S
C1272 C1274 1.378 . S
C1272 C1276 1.350 1_554 S
C1273 C1276 1.463 . S
C1273 C1278 1.350 . S
C1273 N1281 1.427 1_556 S
C1274 H1265 0.930 . S
C1274 C1272 1.378 . S
C1274 C1275 1.367 1_554 S
C1275 C1274 1.367 1_556 S
C1275 C1277 1.433 . S
C1276 C1272 1.350 1_556 S
C1276 C1273 1.463 . S
C1276 N1280 1.427 . S
C1277 H1267 0.929 . S
C1277 C1275 1.433 . S
C1277 N1280 1.384 . S
C1278 H1269 0.929 . S
C1278 C1270 1.378 . S
C1278 C1273 1.350 . S
C1279 H1266 0.929 . S
C1279 C1271 1.433 1_554 S
C1279 N1281 1.384 . S
N1280 C1276 1.427 . S
N1280 C1277 1.384 . S
N1281 C1273 1.427 1_554 S
N1281 C1279 1.384 . S
H1282 C1288 0.930 . S
H1283 C1292 0.930 . S
H1284 C1297 0.929 . S
H1285 C1295 0.929 . S
H1286 C1290 0.929 . S
H1287 C1296 0.929 . S
C1288 H1282 0.930 . S
C1288 C1289 1.367 . S
C1288 C1296 1.378 . S
C1289 C1288 1.367 . S
C1289 C1297 1.433 . S
C1290 H1286 0.929 . S
C1290 C1292 1.378 . S
C1290 C1294 1.350 . S
C1291 C1294 1.463 . S
C1291 C1296 1.350 . S
C1291 N1299 1.427 . S
C1292 H1283 0.930 . S
C1292 C1290 1.378 . S
C1292 C1293 1.367 . S
C1293 C1292 1.367 . S
C1293 C1295 1.433 . S
C1294 C1290 1.350 . S
C1294 C1291 1.463 . S
C1294 N1298 1.427 . S
C1295 H1285 0.929 . S
C1295 C1293 1.433 . S
C1295 N1298 1.384 . S
C1296 H1287 0.929 . S
C1296 C1288 1.378 . S
C1296 C1291 1.350 . S
C1297 H1284 0.929 . S
C1297 C1289 1.433 . S
C1297 N1299 1.384 . S
N1298 C1294 1.427 . S
N1298 C1295 1.384 . S
N1299 C1291 1.427 . S
N1299 C1297 1.384 . S
H1300 C1306 0.930 . S
H1301 C1310 0.930 . S
H1302 C1315 0.929 . S
H1303 C1313 0.929 . S
H1304 C1308 0.929 . S
H1305 C1314 0.932 . S
C1306 H1300 0.930 . S
C1306 C1307 1.367 . S
C1306 C1314 1.378 . S
C1307 C1306 1.367 . S
C1307 C1315 1.433 . S
C1308 H1304 0.929 . S
C1308 C1310 1.378 . S
C1308 C1312 1.350 . S
C1309 C1312 1.463 . S
C1309 C1314 1.350 . S
C1309 N1317 1.427 . S
C1310 H1301 0.930 . S
C1310 C1308 1.378 . S
C1310 C1311 1.367 . S
C1311 C1310 1.367 . S
C1311 C1313 1.433 1_554 S
C1312 C1308 1.350 . S
C1312 C1309 1.463 . S
C1312 N1316 1.427 . S
C1313 H1303 0.929 . S
C1313 C1311 1.433 1_556 S
C1313 N1316 1.384 1_556 S
C1314 H1305 0.932 . S
C1314 C1306 1.378 . S
C1314 C1309 1.350 . S
C1315 H1302 0.929 . S
C1315 C1307 1.433 . S
C1315 N1317 1.384 . S
N1316 C1312 1.427 . S
N1316 C1313 1.384 1_554 S
N1317 C1309 1.427 . S
N1317 C1315 1.384 . S
H1318 C1324 0.930 . S
H1319 C1328 0.930 . S
H1320 C1333 0.929 1_545 S
H1321 C1331 0.929 . S
H1322 C1326 0.929 . S
H1323 C1332 0.929 . S
C1324 H1318 0.930 . S
C1324 C1325 1.367 . S
C1324 C1332 1.378 . S
C1325 C1324 1.367 . S
C1325 C1333 1.433 . S
C1326 H1322 0.929 . S
C1326 C1328 1.378 . S
C1326 C1330 1.350 . S
C1327 C1330 1.463 . S
C1327 C1332 1.350 . S
C1327 N1335 1.427 . S
C1328 H1319 0.930 . S
C1328 C1326 1.378 . S
C1328 C1329 1.367 . S
C1329 C1328 1.367 . S
C1329 C1331 1.433 . S
C1330 C1326 1.350 . S
C1330 C1327 1.463 . S
C1330 N1334 1.427 . S
C1331 H1321 0.929 . S
C1331 C1329 1.433 . S
C1331 N1334 1.384 . S
C1332 H1323 0.929 . S
C1332 C1324 1.378 . S
C1332 C1327 1.350 . S
C1333 H1320 0.929 1_565 S
C1333 C1325 1.433 . S
C1333 N1335 1.384 . S
N1334 C1330 1.427 . S
N1334 C1331 1.384 . S
N1335 C1327 1.427 . S
N1335 C1333 1.384 . S
C483 C315 1.782 . S
C479 C101 1.818 . S
C501 C323 0.919 . S
C497 C125 1.040 . S
C515 C139 1.957 . S
C519 C343 1.912 . S
C537 C357 1.751 1_455 S
C533 C82 1.800 . S
C555 C372 1.597 . S
C551 C196 1.604 . S
C573 C386 1.867 . S
C569 C234 1.869 . S
C587 C220 0.898 . S
C591 C400 0.950 . S
C609 C406 1.609 . S
C605 C173 1.666 . S
C623 C211 1.163 . S
C627 C420 1.146 . S
C645 C441 1.107 . S
C641 C182 1.042 . S
C659 C201 1.266 . S
C663 C421 1.130 . S
C681 C442 1.355 . S
C677 C239 1.245 . S
C695 C135 1.650 . S
C699 C449 1.416 . S
C713 C87 1.770 . S
C717 C455 1.902 . S
C731 C106 1.127 . S
C735 C448 1.240 . S
C749 C116 1.194 . S
C753 C456 1.204 . S
C767 C59 1.902 . S
C771 C350 1.860 . S
C785 C268 2.205 . S
C789 C351 2.012 . S
C807 C308 1.191 . S
C803 C291 1.216 . S
C825 C329 1.433 . S
C821 C163 1.327 . S
C839 C78 2.034 1_545 S
C843 C364 2.020 . S
C861 C414 1.201 . S
C857 C215 1.200 . S
C879 C365 1.424 . S
C875 C177 1.566 1_545 S
C897 C393 1.536 . S
C893 C230 1.852 . S
C915 C399 1.807 . S
C911 C272 1.837 . S
C929 C296 1.052 . S
C933 C407 0.934 . S
C947 C158 1.956 . S
C951 C371 1.912 . S
C969 C385 1.731 . S
C965 C253 1.779 . S
C983 C63 1.591 . S
C987 C344 1.590 . S
C1005 C358 1.876 . S
C1001 C6 1.877 . S
C1023 C316 0.948 . S
C1019 C30 0.880 . S
C1041 C322 1.636 . S
C1037 C40 1.690 . S
C1055 C21 1.179 . S
C1059 C434 1.160 . S
C1073 C49 1.053 . S
C1077 C427 1.103 . S
C1091 C68 1.275 . S
C1095 C435 1.110 . S
C1109 C11 1.241 . S
C1113 C428 1.356 . S
C1131 C463 1.400 . S
C1127 C154 1.627 . S
C1149 C469 1.919 . S
C1145 C258 1.769 . S
C1167 C462 1.269 . S
C1163 C277 1.141 . S
C1181 C287 1.189 . S
C1185 C470 1.201 . S
C1199 C192 1.898 . S
C1203 C378 1.861 . S
C1221 C379 1.980 . S
C1217 C97 2.186 . S
C1239 C392 1.185 . S
C1235 C120 1.221 . S
C1257 C413 1.438 . S
C1253 C144 1.331 . S
C1271 C249 2.032 . S
C1275 C336 2.019 . S
C1293 C330 1.221 . S
C1289 C25 1.220 . S
C1307 C44 1.536 . S
C1311 C337 1.394 . S
C1329 C309 1.554 . S
C1325 C2 1.847 1_565 S
