# Generated by pormake.
# Topology tsx, (6,3)-cn, num edge types: 1
# Building blocks:
#     Node 0, Type 0, BuildingBlock: CIFDUS_clean_sbu_1, # of connection points: 6
#     Node 1, Type 0, BuildingBlock: CIFDUS_clean_sbu_1, # of connection points: 6
#     Node 2, Type 1, BuildingBlock: BETDAH_clean_linker_0, # of connection points: 3
#     Node 3, Type 1, BuildingBlock: BETDAH_clean_linker_0, # of connection points: 3
#     Node 4, Type 1, BuildingBlock: BETDAH_clean_linker_0, # of connection points: 3
#     Node 5, Type 1, BuildingBlock: BETDAH_clean_linker_0, # of connection points: 3
#     Edge 6, Type (0, 1), BuildingBlock: ZUJKAS_clean_linker_0, # of connection points: 2
#     Edge 7, Type (0, 1), BuildingBlock: ZUJKAS_clean_linker_0, # of connection points: 2
#     Edge 8, Type (0, 1), BuildingBlock: ZUJKAS_clean_linker_0, # of connection points: 2
#     Edge 9, Type (0, 1), BuildingBlock: ZUJKAS_clean_linker_0, # of connection points: 2
#     Edge 10, Type (0, 1), BuildingBlock: ZUJKAS_clean_linker_0, # of connection points: 2
#     Edge 11, Type (0, 1), BuildingBlock: ZUJKAS_clean_linker_0, # of connection points: 2
#     Edge 12, Type (0, 1), BuildingBlock: ZUJKAS_clean_linker_0, # of connection points: 2
#     Edge 13, Type (0, 1), BuildingBlock: ZUJKAS_clean_linker_0, # of connection points: 2
#     Edge 14, Type (0, 1), BuildingBlock: ZUJKAS_clean_linker_0, # of connection points: 2
#     Edge 15, Type (0, 1), BuildingBlock: ZUJKAS_clean_linker_0, # of connection points: 2
#     Edge 16, Type (0, 1), BuildingBlock: ZUJKAS_clean_linker_0, # of connection points: 2
#     Edge 17, Type (0, 1), BuildingBlock: ZUJKAS_clean_linker_0, # of connection points: 2
# Relax obj value: 0.090
# Max RMSD: 0.144
# Mean RMSD: 0.108
data_MOF--net-tsx--node1-CIFDUS_clean_sbu_1--node2-BETDAH_clean_linker_0--edge1-ZUJKAS_clean_linker_0
_symmetry_space_group_name_H-M    P1
_symmetry_Int_Tables_number       1
_symmetry_cell_setting            triclinic
loop_
_symmetry_equiv_pos_as_xyz
'x, y, z'
_cell_length_a     24.447478
_cell_length_b     29.418224
_cell_length_c     43.866827
_cell_angle_alpha  97.057061
_cell_angle_beta   100.45384
_cell_angle_gamma 91.194764
loop_
_atom_site_label
_atom_site_type_symbol
_atom_site_fract_x
_atom_site_fract_y
_atom_site_fract_z
_atom_type_partial_charge
O0 O 1.00032 0.08366 0.01039 0.0
Mn1 Mn 0.04819 0.0249 0.0102 0.0
O2 O 0.91558 0.06113 0.98188 0.0
Mn3 Mn 0.93435 0.00355 0.96589 0.0
O4 O 0.09512 0.96556 0.00885 0.0
O5 O 0.11796 0.06635 0.02344 0.0
Mn6 Mn 0.16197 0.04244 0.05343 0.0
O7 O 0.04107 0.02155 0.05707 0.0
O8 O 0.18049 0.98555 0.03652 0.0
O9 O 0.05535 0.0284 0.96345 0.0
O10 O 0.97363 0.00179 0.93355 0.0
O11 O 0.20036 0.09377 0.04776 0.0
O12 O 0.12467 0.04391 0.08652 0.0
C13 C 0.94205 0.95096 0.99578 0.0
C14 C 0.94925 0.09135 0.99934 0.0
C15 C 0.14608 0.95643 0.01869 0.0
C16 C 0.15678 0.09832 0.02685 0.0
C17 C 0.07343 0.03213 0.0838 0.0
C18 C 0.02413 0.01617 0.93658 0.0
O19 O 0.97904 0.98352 0.99706 0.0
O20 O 0.89883 0.95163 0.97394 0.0
O21 O 0.502 0.57733 0.51267 0.0
Mn22 Mn 0.55085 0.51935 0.5102 0.0
O23 O 0.41681 0.55462 0.48497 0.0
Mn24 Mn 0.43588 0.49802 0.46758 0.0
O25 O 0.59811 0.4604 0.50626 0.0
O26 O 0.61984 0.56191 0.52321 0.0
Mn27 Mn 0.66783 0.53477 0.54966 0.0
O28 O 0.54761 0.51381 0.55717 0.0
O29 O 0.68648 0.48153 0.528 0.0
O30 O 0.55492 0.5253 0.46333 0.0
O31 O 0.47266 0.49844 0.43434 0.0
O32 O 0.7031 0.58892 0.54653 0.0
O33 O 0.63505 0.52849 0.58385 0.0
C34 C 0.44616 0.44352 0.49583 0.0
C35 C 0.45048 0.58474 0.50255 0.0
C36 C 0.65025 0.45236 0.51188 0.0
C37 C 0.65756 0.59498 0.52751 0.0
C38 C 0.58357 0.51898 0.58286 0.0
C39 C 0.52266 0.51362 0.43673 0.0
O40 O 0.48232 0.47697 0.49764 0.0
O41 O 0.40203 0.44483 0.47467 0.0
H42 H 0.12108 0.94141 0.39546 0.0
H43 H 0.98977 0.03167 0.4112 0.0
H44 H 0.08135 0.96939 0.48728 0.0
C45 C 0.09639 0.95883 0.4111 0.0
C46 C 0.10692 0.95229 0.44279 0.0
C47 C 0.05425 0.98741 0.39937 0.0
C48 C 0.02209 0.00942 0.4199 0.0
C49 C 0.03205 0.00292 0.45167 0.0
C50 C 0.07442 0.97457 0.46285 0.0
N51 N 1.00007 0.02374 0.47311 0.0
C52 C 0.96033 0.056 0.46654 0.0
H53 H 0.97714 0.97789 0.62295 0.0
H54 H 0.10906 0.06948 0.61116 0.0
H55 H 0.9934 0.00481 0.5309 0.0
C56 C 0.99862 0.99518 0.6078 0.0
C57 C 0.97927 0.98781 0.57535 0.0
C58 C 0.04551 0.02433 0.62097 0.0
C59 C 0.07292 0.04702 0.60119 0.0
C60 C 0.05425 0.03982 0.56857 0.0
C61 C 0.00778 0.0101 0.55595 0.0
N62 N 0.081 0.06153 0.54762 0.0
C63 C 0.12683 0.09238 0.55632 0.0
H64 H 0.61406 0.44927 0.89609 0.0
H65 H 0.4723 0.52896 0.90892 0.0
H66 H 0.56027 0.46398 0.98471 0.0
C67 C 0.58638 0.46385 0.91103 0.0
C68 C 0.59332 0.45398 0.942 0.0
C69 C 0.5426 0.49053 0.89871 0.0
C70 C 0.50587 0.50811 0.91807 0.0
C71 C 0.5123 0.49846 0.94913 0.0
C72 C 0.55557 0.47113 0.96073 0.0
N73 N 0.47565 0.51487 0.96927 0.0
C74 C 0.43968 0.55035 0.96429 0.0
H75 H 0.48572 0.47131 0.12195 0.0
H76 H 0.60604 0.57435 0.11128 0.0
H77 H 0.49495 0.50547 0.03063 0.0
C78 C 0.50529 0.49077 0.10709 0.0
C79 C 0.48549 0.48404 0.07469 0.0
C80 C 0.54863 0.5233 0.12061 0.0
C81 C 0.5724 0.54946 0.10112 0.0
C82 C 0.55302 0.54297 0.06854 0.0
C83 C 0.50943 0.51059 0.05567 0.0
N84 N 0.57629 0.56797 0.04785 0.0
C85 C 0.62142 0.59944 0.05658 0.0
H86 H 0.22358 0.1174 0.98753 0.0
H87 H 0.25632 0.19492 0.98391 0.0
H88 H 0.12197 0.24952 0.02672 0.0
H89 H 0.09111 0.17139 0.03193 0.0
H90 H 0.23162 0.27726 0.96611 0.0
H91 H 0.25326 0.28622 0.09533 0.0
H92 H 0.22984 0.23445 0.06951 0.0
H93 H 0.18316 0.28033 0.07387 0.0
C94 C 0.1992 0.14584 0.99459 0.0
C95 C 0.1548 0.13851 0.00994 0.0
C96 C 0.21822 0.19032 0.99274 0.0
C97 C 0.193 0.22824 0.00618 0.0
C98 C 0.14319 0.22081 0.01706 0.0
H99 H 0.39071 0.49246 0.0315 0.0
H100 H 0.31348 0.43535 0.01239 0.0
C101 C 0.12463 0.17609 0.01935 0.0
C102 C 0.22506 0.27316 0.01397 0.0
H103 H 0.29696 0.34467 0.07635 0.0
C104 C 0.24523 0.29252 0.99017 0.0
C105 C 0.24371 0.29269 0.04549 0.0
C106 C 0.22688 0.27229 0.07258 0.0
C107 C 0.28518 0.32935 0.99707 0.0
C108 C 0.30457 0.34802 0.02861 0.0
C109 C 0.28217 0.33027 0.05219 0.0
C110 C 0.35189 0.38264 0.03835 0.0
C111 C 0.30863 0.3461 0.97072 0.0
C112 C 0.39901 0.37237 0.0595 0.0
C113 C 0.44252 0.40502 0.07076 0.0
C114 C 0.44024 0.4488 0.06104 0.0
C115 C 0.39378 0.45886 0.03922 0.0
C116 C 0.34973 0.42619 0.02819 0.0
H117 H 0.29825 0.32178 0.94881 0.0
H118 H 0.29086 0.37947 0.96597 0.0
H119 H 0.35459 0.35134 0.97708 0.0
H120 H 0.4019 0.339 0.06761 0.0
H121 H 0.47803 0.39603 0.08721 0.0
H122 H 0.08674 0.87632 0.99038 0.0
H123 H 0.12494 0.80092 0.97753 0.0
H124 H 0.29121 0.85897 0.01217 0.0
H125 H 0.2542 0.93321 0.02522 0.0
H126 H 0.20648 0.77376 0.93867 0.0
H127 H 0.28175 0.75098 0.06244 0.0
H128 H 0.23093 0.79229 0.05091 0.0
H129 H 0.30396 0.8054 0.0533 0.0
C130 C 0.13141 0.87292 0.99518 0.0
C131 C 0.16725 0.91078 0.00926 0.0
C132 C 0.15314 0.82988 0.98783 0.0
C133 C 0.21087 0.82419 0.99451 0.0
C134 C 0.2465 0.86227 0.00751 0.0
H135 H 0.47038 0.63924 0.98148 0.0
H136 H 0.40863 0.7035 0.98609 0.0
C137 C 0.22507 0.90485 0.01492 0.0
C138 C 0.23522 0.77887 0.98839 0.0
H139 H 0.32369 0.70529 0.02448 0.0
C140 C 0.23125 0.75818 0.95742 0.0
C141 C 0.26741 0.75856 0.01292 0.0
C142 C 0.27087 0.77769 0.04679 0.0
C143 C 0.26133 0.7192 0.95024 0.0
C144 C 0.29583 0.7005 0.97471 0.0
C145 C 0.29772 0.72001 0.00572 0.0
C146 C 0.33253 0.66207 0.96884 0.0
C147 C 0.25816 0.69951 0.91654 0.0
C148 C 0.31023 0.61756 0.95737 0.0
C149 C 0.34554 0.5809 0.95473 0.0
C150 C 0.40341 0.58844 0.96349 0.0
C151 C 0.42578 0.63293 0.9743 0.0
C152 C 0.3906 0.66949 0.97701 0.0
H153 H 0.23623 0.722 0.90015 0.0
H154 H 0.30062 0.69415 0.91147 0.0
H155 H 0.23537 0.66564 0.91211 0.0
H156 H 0.26557 0.61095 0.95145 0.0
H157 H 0.32761 0.54657 0.94674 0.0
H158 H 0.91175 0.96373 0.05208 0.0
H159 H 0.8765 0.90315 0.07796 0.0
H160 H 0.92928 0.80112 0.01125 0.0
H161 H 0.96624 0.8618 0.98629 0.0
H162 H 0.79134 0.85102 0.04511 0.0
H163 H 0.95549 0.7357 0.08752 0.0
H164 H 0.97124 0.7928 0.07945 0.0
H165 H 0.95719 0.74586 0.04823 0.0
C166 C 0.91925 0.92835 0.04441 0.0
C167 C 0.9434 0.91732 0.01795 0.0
C168 C 0.89831 0.89368 0.05887 0.0
C169 C 0.90036 0.84736 0.04674 0.0
C170 C 0.92837 0.83635 0.02167 0.0
H171 H 0.70295 0.59952 0.02309 0.0
H172 H 0.77464 0.66045 0.02622 0.0
C173 C 0.94968 0.87108 0.00741 0.0
C174 C 0.86425 0.81184 0.05583 0.0
H175 H 0.86124 0.70244 0.07449 0.0
C176 C 0.80688 0.81896 0.05226 0.0
C177 C 0.88425 0.76975 0.06482 0.0
C178 C 0.94551 0.76075 0.07053 0.0
C179 C 0.76879 0.78453 0.05585 0.0
C180 C 0.78856 0.74186 0.06378 0.0
C181 C 0.84609 0.73516 0.06841 0.0
C182 C 0.74955 0.70282 0.06481 0.0
C183 C 0.70738 0.79331 0.0494 0.0
C184 C 0.71253 0.70579 0.086 0.0
C185 C 0.67147 0.67104 0.08412 0.0
C186 C 0.66735 0.63279 0.06124 0.0
C187 C 0.70571 0.62879 0.04099 0.0
C188 C 0.74663 0.66348 0.04281 0.0
H189 H 0.69854 0.82422 0.03741 0.0
H190 H 0.68341 0.76344 0.03471 0.0
H191 H 0.69213 0.79875 0.07184 0.0
H192 H 0.71448 0.73553 0.10343 0.0
H193 H 0.6421 0.67464 0.09994 0.0
H194 H 0.8479 0.111 0.01247 0.0
H195 H 0.80275 0.18421 0.01097 0.0
H196 H 0.95419 0.2487 0.99629 0.0
H197 H 0.99973 0.17494 0.99769 0.0
H198 H 0.83158 0.27825 0.04441 0.0
H199 H 0.8321 0.25961 0.91644 0.0
H200 H 0.84453 0.21204 0.93878 0.0
H201 H 0.89742 0.25661 0.94259 0.0
C202 C 0.87205 0.14106 0.00974 0.0
C203 C 0.92738 0.1374 0.00532 0.0
C204 C 0.84621 0.18285 0.00891 0.0
C205 C 0.8749 0.22173 1.00321 0.0
C206 C 0.93127 0.21897 1.0006 0.0
H207 H 0.70232 0.45844 0.93498 0.0
H208 H 0.77645 0.40796 0.95303 0.0
C209 C 0.95745 0.17703 1.00176 0.0
C210 C 0.84345 0.26322 0.99686 0.0
H211 H 0.78117 0.31867 0.93665 0.0
C212 C 0.82118 0.28764 0.02096 0.0
C213 C 0.82992 0.27532 0.96624 0.0
C214 C 0.85183 0.24955 0.93936 0.0
C215 C 0.78477 0.32327 0.01513 0.0
C216 C 0.76894 0.33383 0.98417 0.0
C217 C 0.79305 0.31055 0.96034 0.0
C218 C 0.72515 0.36685 0.9755 0.0
C219 C 0.7636 0.34912 0.04222 0.0
C220 C 0.67146 0.3606 0.98199 0.0
C221 C 0.62909 0.38951 0.97178 0.0
C222 C 0.6392 0.42488 0.9544 0.0
C223 C 0.69305 0.43126 0.94808 0.0
C224 C 0.73553 0.40256 0.95851 0.0
H225 H 0.79333 0.34842 0.06454 0.0
H226 H 0.75642 0.3854 0.03866 0.0
H227 H 0.72364 0.33257 0.04457 0.0
H228 H 0.66179 0.33249 0.99418 0.0
H229 H 0.58789 0.3832 0.97662 0.0
H230 H 0.70897 0.61987 0.48252 0.0
H231 H 0.7415 0.69861 0.48137 0.0
H232 H 0.63212 0.74768 0.54381 0.0
H233 H 0.6009 0.66852 0.54569 0.0
H234 H 0.70644 0.78939 0.47381 0.0
H235 H 0.78893 0.76706 0.59768 0.0
H236 H 0.75614 0.72036 0.56936 0.0
H237 H 0.71448 0.76254 0.58633 0.0
C238 C 0.68938 0.64767 0.49446 0.0
C239 C 0.652 0.63823 0.51392 0.0
C240 C 0.70841 0.69273 0.49403 0.0
C241 C 0.69042 0.72896 0.51319 0.0
C242 C 0.64725 0.72015 0.52923 0.0
H243 H 0.88088 0.98207 0.59638 0.0
H244 H 0.80448 0.92458 0.57847 0.0
C245 C 0.62853 0.67495 0.52982 0.0
C246 C 0.72424 0.77292 0.52097 0.0
H247 H 0.81635 0.83439 0.5804 0.0
C248 C 0.72998 0.79962 0.49718 0.0
C249 C 0.7557 0.7859 0.55141 0.0
C250 C 0.75409 0.75739 0.57766 0.0
C251 C 0.76622 0.83891 0.50306 0.0
C252 C 0.79827 0.85131 0.53338 0.0
C253 C 0.7916 0.82509 0.55721 0.0
C254 C 0.84092 0.88997 0.54105 0.0
C255 C 0.76976 0.86678 0.4768 0.0
C256 C 0.88674 0.89019 0.52577 0.0
C257 C 0.93066 0.92309 0.53604 0.0
C258 C 0.92999 0.95608 0.56206 0.0
C259 C 0.88314 0.95673 0.57658 0.0
C260 C 0.83923 0.92403 0.56624 0.0
H261 H 0.73149 0.86161 0.45849 0.0
H262 H 0.77627 0.90391 0.48554 0.0
H263 H 0.80549 0.85576 0.46572 0.0
H264 H 0.88981 0.86368 0.5068 0.0
H265 H 0.96632 0.92135 0.52452 0.0
H266 H 0.75183 0.43686 0.4977 0.0
H267 H 0.79162 0.36367 0.48433 0.0
H268 H 0.63619 0.29314 0.48653 0.0
H269 H 0.59522 0.36727 0.49941 0.0
H270 H 0.80288 0.29725 0.52384 0.0
H271 H 0.68157 0.228 0.4067 0.0
H272 H 0.68185 0.28774 0.42242 0.0
H273 H 0.64221 0.24569 0.43667 0.0
C274 C 0.72569 0.40588 0.49495 0.0
C275 C 0.67053 0.40779 0.49993 0.0
C276 C 0.74853 0.36404 0.48724 0.0
C277 C 0.71701 0.3229 0.48443 0.0
C278 C 0.66107 0.32452 0.48815 0.0
H279 H 0.85237 0.0482 0.47156 0.0
H280 H 0.78753 0.11094 0.47406 0.0
C281 C 0.63777 0.36681 0.4956 0.0
C282 C 0.74527 0.27895 0.48044 0.0
H283 H 0.75228 0.18233 0.42952 0.0
C284 C 0.79155 0.27204 0.50327 0.0
C285 C 0.73025 0.24594 0.45371 0.0
C286 C 0.68151 0.25209 0.42829 0.0
C287 C 0.82408 0.23379 0.49975 0.0
C288 C 0.81033 0.20163 0.47255 0.0
C289 C 0.76285 0.20737 0.45021 0.0
C290 C 0.84631 0.16277 0.46689 0.0
C291 C 0.87342 0.22825 0.52503 0.0
C292 C 0.90017 0.17109 0.46126 0.0
C293 C 0.93693 0.13546 0.45977 0.0
C294 C 0.92016 0.09112 0.46378 0.0
C295 C 0.86573 0.08228 0.46817 0.0
C296 C 0.82883 0.11794 0.46958 0.0
H297 H 0.8714 0.25029 0.54723 0.0
H298 H 0.87602 0.192 0.52965 0.0
H299 H 0.91223 0.23807 0.51723 0.0
H300 H 0.9143 0.20548 0.45904 0.0
H301 H 0.97898 0.14285 0.45656 0.0
H302 H 0.45188 0.3534 0.47763 0.0
H303 H 0.41672 0.29235 0.50294 0.0
H304 H 0.40709 0.38982 0.58346 0.0
H305 H 0.44193 0.4512 0.55776 0.0
H306 H 0.43644 0.25398 0.56118 0.0
H307 H 0.2432 0.35223 0.54379 0.0
H308 H 0.30239 0.36535 0.52665 0.0
H309 H 0.30416 0.38184 0.56762 0.0
C310 C 0.4451 0.36129 0.50142 0.0
C311 C 0.45028 0.40681 0.51597 0.0
C312 C 0.42456 0.32644 0.51579 0.0
C313 C 0.4081 0.33665 0.5448 0.0
C314 C 0.41891 0.38126 0.56088 0.0
H315 H 0.14916 0.1678 0.59948 0.0
H316 H 0.22375 0.22694 0.60333 0.0
C317 C 0.43977 0.4162 0.54647 0.0
C318 C 0.37196 0.30255 0.55521 0.0
H319 H 0.23595 0.27952 0.55915 0.0
C320 C 0.3928 0.25979 0.56126 0.0
C321 C 0.31486 0.31002 0.55519 0.0
C322 C 0.28943 0.35464 0.54778 0.0
C323 C 0.35788 0.22403 0.56655 0.0
C324 C 0.30027 0.23083 0.56501 0.0
C325 C 0.28002 0.27423 0.56035 0.0
C326 C 0.25932 0.19268 0.56537 0.0
C327 C 0.38303 0.1792 0.57345 0.0
C328 C 0.25437 0.15371 0.54285 0.0
C329 C 0.21204 0.12008 0.54077 0.0
C330 C 0.17368 0.12494 0.56099 0.0
C331 C 0.17879 0.1633 0.58385 0.0
C332 C 0.22127 0.197 0.586 0.0
H333 H 0.42767 0.18437 0.58461 0.0
H334 H 0.36059 0.16198 0.58902 0.0
H335 H 0.38054 0.15611 0.5512 0.0
H336 H 0.28192 0.15009 0.52604 0.0
H337 H 0.20824 0.09095 0.52268 0.0
H338 H 0.34404 0.60362 0.50687 0.0
H339 H 0.30178 0.67772 0.50677 0.0
H340 H 0.46317 0.74429 0.51337 0.0
H341 H 0.50585 0.66927 0.51259 0.0
H342 H 0.31342 0.76006 0.54492 0.0
H343 H 0.37666 0.77753 0.43097 0.0
H344 H 0.3836 0.72494 0.44827 0.0
H345 H 0.4317 0.77279 0.46353 0.0
C346 C 0.37083 0.63405 0.50881 0.0
C347 C 0.42827 0.63056 0.5094 0.0
C348 C 0.34657 0.67649 0.50888 0.0
C349 C 0.37906 0.71651 0.50944 0.0
C350 C 0.43713 0.71372 0.51236 0.0
H351 H 0.18517 0.96722 0.49684 0.0
H352 H 0.25783 0.91597 0.51606 0.0
C353 C 0.46161 0.67095 0.51231 0.0
C354 C 0.35038 0.75963 0.50396 0.0
H355 H 0.31482 0.83022 0.44789 0.0
C356 C 0.31444 0.77606 0.52402 0.0
C357 C 0.3513 0.78003 0.47644 0.0
C358 C 0.3875 0.76291 0.45337 0.0
C359 C 0.27748 0.81074 0.51658 0.0
C360 C 0.27724 0.83012 0.48858 0.0
C361 C 0.31514 0.8153 0.46933 0.0
C362 C 0.2344 0.86225 0.47714 0.0
C363 C 0.23672 0.82431 0.53777 0.0
C364 C 0.19785 0.84956 0.44859 0.0
C365 C 0.15668 0.87879 0.4375 0.0
C366 C 0.15109 0.92145 0.45471 0.0
C367 C 0.18794 0.93429 0.48326 0.0
C368 C 0.22944 0.90505 0.49428 0.0
H369 H 0.23496 0.79979 0.55496 0.0
H370 H 0.24962 0.85864 0.55095 0.0
H371 H 0.19424 0.82636 0.52395 0.0
H372 H 0.20076 0.81665 0.435 0.0
H373 H 0.12859 0.86763 0.41563 0.0
H374 H 0.10861 0.08501 0.13928 0.0
H375 H 0.08453 0.07572 0.18977 0.0
H376 H 0.96705 0.96513 0.14589 0.0
H377 H 0.9922 0.97384 0.09505 0.0
H378 H 0.98265 0.07733 0.21257 0.0
H379 H 0.07843 0.90699 0.21137 0.0
H380 H 0.08912 0.94612 0.18417 0.0
H381 H 0.02386 0.91446 0.17911 0.0
C382 C 0.07713 0.05903 0.14025 0.0
C383 C 0.05222 0.03003 0.11316 0.0
C384 C 0.06322 0.05392 0.16913 0.0
C385 C 0.02443 0.01948 0.17166 0.0
C386 C 0.99746 0.99172 0.14448 0.0
H387 H 0.95391 0.99007 0.35948 0.0
H388 H 0.93827 0.99702 0.30341 0.0
C389 C 0.01129 0.99701 0.1154 0.0
C390 C 0.01629 0.0111 0.20324 0.0
H391 H 0.05093 0.93797 0.25775 0.0
C392 C 0.99652 0.04651 0.22234 0.0
C393 C 0.03511 0.97105 0.21597 0.0
C394 C 0.0582 0.93247 0.19679 0.0
C395 C 0.99691 0.04359 0.25413 0.0
C396 C 0.01738 0.00418 0.26702 0.0
C397 C 0.03515 0.96807 0.24768 0.0
C398 C 0.02579 0.0015 0.30107 0.0
C399 C 0.97825 0.08357 0.27413 0.0
C400 C 0.08009 0.00181 0.31825 0.0
C401 C 0.08918 0.9982 0.35019 0.0
C402 C 0.04408 0.99376 0.36565 0.0
C403 C 0.98957 0.99399 0.3484 0.0
C404 C 0.98052 0.99778 0.31636 0.0
H405 H 0.9699 0.11382 0.26138 0.0
H406 H 0.9395 0.07329 0.28181 0.0
H407 H 0.01039 0.0937 0.29541 0.0
H408 H 0.11558 0.00489 0.30688 0.0
H409 H 0.13167 0.99896 0.3628 0.0
H410 H 0.98036 0.97472 0.87822 0.0
H411 H 0.00683 0.98738 0.82906 0.0
H412 H 0.14194 0.07976 0.87851 0.0
H413 H 0.11552 0.06728 0.92858 0.0
H414 H 0.01367 0.0835 0.81152 0.0
H415 H 0.20511 0.98392 0.81122 0.0
H416 H 0.15324 0.96897 0.83327 0.0
H417 H 0.19586 0.02047 0.84594 0.0
C418 C 0.01608 0.99749 0.8789 0.0
C419 C 0.04551 0.02032 0.90742 0.0
C420 C 0.03115 0.00461 0.85069 0.0
C421 C 0.0761 0.03458 0.85017 0.0
C422 C 0.10719 0.05631 0.87852 0.0
H423 H 0.07717 0.10463 0.65995 0.0
H424 H 0.09751 0.11507 0.71736 0.0
C425 C 0.09211 0.04909 0.90704 0.0
C426 C 0.08704 0.0444 0.81945 0.0
H427 H 0.16412 0.0098 0.76394 0.0
C428 C 0.04733 0.06845 0.80125 0.0
C429 C 0.13075 0.02432 0.80625 0.0
C430 C 0.1739 0.99784 0.82499 0.0
C431 C 0.04817 0.07068 0.76956 0.0
C432 C 0.09048 0.0488 0.75585 0.0
C433 C 0.13198 0.0268 0.77455 0.0
C434 C 0.08746 0.04292 0.72146 0.0
C435 C 1.00145 0.09358 0.75052 0.0
C436 C 0.07769 0.99881 0.70478 0.0
C437 C 0.06653 0.99276 0.67216 0.0
C438 C 0.06488 0.03073 0.65545 0.0
C439 C 0.07803 0.07473 0.67215 0.0
C440 C 0.08927 0.08077 0.70493 0.0
H441 H 0.96733 0.10224 0.76357 0.0
H442 H 0.01788 0.12583 0.74411 0.0
H443 H 0.98373 0.07107 0.72857 0.0
H444 H 0.07632 0.9691 0.71702 0.0
H445 H 0.05769 0.95835 0.65997 0.0
H446 H 0.47709 0.5173 0.59604 0.0
H447 H 0.45117 0.51528 0.64759 0.0
H448 H 0.62432 0.51075 0.6894 0.0
H449 H 0.65048 0.51185 0.63866 0.0
H450 H 0.49057 0.44497 0.69551 0.0
H451 H 0.55537 0.62777 0.73549 0.0
H452 H 0.53465 0.60524 0.69466 0.0
H453 H 0.60273 0.59525 0.71547 0.0
C454 C 0.50948 0.51513 0.61614 0.0
C455 C 0.56586 0.51483 0.61311 0.0
C456 C 0.49463 0.51423 0.64555 0.0
C457 C 0.536 0.51343 0.67224 0.0
C458 C 0.59189 0.5119 0.66911 0.0
H459 H 0.62258 0.51248 0.86612 0.0
H460 H 0.6111 0.51979 0.81047 0.0
C461 C 0.60668 0.51256 0.63997 0.0
C462 C 0.52234 0.51495 0.70387 0.0
H463 H 0.54754 0.58055 0.77514 0.0
C464 C 0.50162 0.47485 0.71286 0.0
C465 C 0.5372 0.55398 0.72634 0.0
C466 C 0.55834 0.59822 0.71757 0.0
C467 C 0.49872 0.47189 0.74431 0.0
C468 C 0.5163 0.51031 0.7671 0.0
C469 C 0.53422 0.55112 0.75769 0.0
C470 C 0.52168 0.50755 0.80107 0.0
C471 C 0.48021 0.42688 0.75321 0.0
C472 C 0.47506 0.49912 0.81443 0.0
C473 C 0.48155 0.49468 0.84632 0.0
C474 C 0.53481 0.49866 0.86539 0.0
C475 C 0.58112 0.50849 0.85202 0.0
C476 C 0.57459 0.51295 0.82025 0.0
H477 H 0.47723 0.39847 0.73371 0.0
H478 H 0.50952 0.4176 0.77374 0.0
H479 H 0.43855 0.4302 0.75972 0.0
H480 H 0.43375 0.49557 0.80017 0.0
H481 H 0.44507 0.48688 0.85584 0.0
H482 H 0.47482 0.47562 0.37811 0.0
H483 H 0.50015 0.48868 0.32879 0.0
H484 H 0.63962 0.57681 0.37793 0.0
H485 H 0.61451 0.56371 0.42817 0.0
H486 H 0.50677 0.57893 0.30953 0.0
H487 H 0.70313 0.48539 0.31201 0.0
H488 H 0.65332 0.47293 0.33597 0.0
H489 H 0.69545 0.52509 0.34554 0.0
C490 C 0.51119 0.49761 0.37869 0.0
C491 C 0.54238 0.5189 0.40721 0.0
C492 C 0.52561 0.50498 0.35036 0.0
C493 C 0.57162 0.53373 0.34967 0.0
C494 C 0.60413 0.5542 0.378 0.0
H495 H 0.57244 0.60445 0.15976 0.0
H496 H 0.59055 0.61498 0.2171 0.0
C497 C 0.58972 0.5467 0.40664 0.0
C498 C 0.58265 0.54325 0.31886 0.0
H499 H 0.66431 0.51253 0.26492 0.0
C500 C 0.54182 0.56533 0.2999 0.0
C501 C 0.62824 0.52515 0.30645 0.0
C502 C 0.67266 0.5006 0.32584 0.0
C503 C 0.54353 0.56753 0.26831 0.0
C504 C 0.58804 0.54787 0.25545 0.0
C505 C 0.63046 0.52782 0.27487 0.0
C506 C 0.58699 0.54245 0.22122 0.0
C507 C 0.49562 0.58806 0.2485 0.0
C508 C 0.58201 0.49825 0.20456 0.0
C509 C 0.57235 0.49215 0.17193 0.0
C510 C 0.56733 0.53015 0.15518 0.0
C511 C 0.57597 0.57446 0.17193 0.0
C512 C 0.58585 0.58054 0.2047 0.0
H513 H 0.45994 0.59414 0.26076 0.0
H514 H 0.50976 0.62147 0.24267 0.0
H515 H 0.48074 0.56527 0.22627 0.0
H516 H 0.58306 0.46833 0.21678 0.0
H517 H 0.56711 0.45755 0.15975 0.0
loop_
_geom_bond_atom_site_label_1
_geom_bond_atom_site_label_2
_geom_bond_distance
_geom_bond_site_symmetry_2
_ccdc_geom_bond_type
O0 Mn1 2.163 . S
O0 C14 1.244 1_454 S
Mn1 O0 2.163 . S
Mn1 O4 2.160 1_545 S
Mn1 O5 2.221 . S
Mn1 O7 2.163 . S
Mn1 O9 2.160 1_554 S
Mn1 O19 2.221 1_444 S
O2 Mn3 2.087 1_545 S
O2 C14 1.256 . S
Mn3 O2 2.087 1_565 S
Mn3 O10 2.089 1_565 S
Mn3 O19 2.290 . S
Mn3 O20 2.251 . S
O4 Mn1 2.160 1_565 S
O4 C15 1.239 . S
O5 Mn1 2.221 . S
O5 Mn6 2.290 . S
O5 C16 1.278 . S
Mn6 O5 2.290 . S
Mn6 O8 2.089 1_545 S
Mn6 O11 2.251 . S
Mn6 O12 2.087 . S
O7 Mn1 2.163 . S
O7 C17 1.244 . S
O8 Mn6 2.089 1_565 S
O8 C15 1.256 . S
O9 Mn1 2.160 1_556 S
O9 C18 1.239 . S
O10 Mn3 2.089 1_545 S
O10 C18 1.256 1_655 S
O11 Mn6 2.251 . S
O11 C16 1.241 . S
O12 Mn6 2.087 . S
O12 C17 1.256 . S
C13 O19 1.276 1_554 S
C13 O20 1.240 1_554 S
C14 O0 1.244 1_656 S
C14 O2 1.256 . S
C15 O4 1.239 . S
C15 O8 1.256 . S
C16 O5 1.278 . S
C16 O11 1.241 . S
C17 O7 1.244 . S
C17 O12 1.256 . S
C18 O9 1.239 . S
C18 O10 1.256 1_455 S
O19 Mn1 2.221 1_666 S
O19 Mn3 2.290 . S
O19 C13 1.276 1_556 S
O20 Mn3 2.251 . S
O20 C13 1.240 1_556 S
O21 Mn22 2.163 . S
O21 C35 1.244 . S
Mn22 O21 2.163 . S
Mn22 O25 2.160 . S
Mn22 O26 2.221 . S
Mn22 O28 2.163 . S
Mn22 O30 2.160 . S
Mn22 O40 2.221 . S
O23 Mn24 2.087 . S
O23 C35 1.256 . S
Mn24 O23 2.087 . S
Mn24 O31 2.089 . S
Mn24 O40 2.290 . S
Mn24 O41 2.251 . S
O25 Mn22 2.160 . S
O25 C36 1.239 . S
O26 Mn22 2.221 . S
O26 Mn27 2.290 . S
O26 C37 1.278 . S
Mn27 O26 2.290 . S
Mn27 O29 2.089 . S
Mn27 O32 2.251 . S
Mn27 O33 2.087 . S
O28 Mn22 2.163 . S
O28 C38 1.244 . S
O29 Mn27 2.089 . S
O29 C36 1.256 . S
O30 Mn22 2.160 . S
O30 C39 1.239 . S
O31 Mn24 2.089 . S
O31 C39 1.256 . S
O32 Mn27 2.251 . S
O32 C37 1.241 . S
O33 Mn27 2.087 . S
O33 C38 1.256 . S
C34 O40 1.278 . S
C34 O41 1.241 . S
C35 O21 1.244 . S
C35 O23 1.256 . S
C36 O25 1.239 . S
C36 O29 1.256 . S
C37 O26 1.278 . S
C37 O32 1.241 . S
C38 O28 1.244 . S
C38 O33 1.256 . S
C39 O30 1.239 . S
C39 O31 1.256 . S
O40 Mn22 2.221 . S
O40 Mn24 2.290 . S
O40 C34 1.278 . S
O41 Mn24 2.251 . S
O41 C34 1.241 . S
H42 C45 0.929 . S
H43 C48 0.929 . S
H44 C50 0.930 . S
C45 H42 0.929 . S
C45 C46 1.398 . S
C45 C47 1.396 . S
C46 C45 1.398 . S
C46 C50 1.407 . S
C47 C45 1.396 . S
C47 C48 1.394 1_565 S
C48 H43 0.929 . S
C48 C47 1.394 1_545 S
C48 C49 1.382 . S
C49 C48 1.382 . S
C49 C50 1.392 1_545 S
C49 N51 1.420 . S
C50 H44 0.930 . S
C50 C46 1.407 . S
C50 C49 1.392 1_565 S
N51 C49 1.420 . S
N51 C52 1.244 1_455 S
C52 N51 1.244 1_655 S
H53 C56 0.929 . S
H54 C59 0.929 . S
H55 C61 0.930 . S
C56 H53 0.929 . S
C56 C57 1.398 . S
C56 C58 1.396 . S
C57 C56 1.398 . S
C57 C61 1.407 . S
C58 C56 1.396 . S
C58 C59 1.394 1_655 S
C59 H54 0.929 . S
C59 C58 1.394 1_455 S
C59 C60 1.382 . S
C60 C59 1.382 . S
C60 C61 1.392 1_455 S
C60 N62 1.420 . S
C61 H55 0.930 . S
C61 C57 1.407 . S
C61 C60 1.392 1_655 S
N62 C60 1.420 . S
N62 C63 1.244 . S
C63 N62 1.244 . S
H64 C67 0.929 . S
H65 C70 0.929 . S
H66 C72 0.930 . S
C67 H64 0.929 . S
C67 C68 1.398 . S
C67 C69 1.396 . S
C68 C67 1.398 . S
C68 C72 1.407 . S
C69 C67 1.396 . S
C69 C70 1.394 . S
C70 H65 0.929 . S
C70 C69 1.394 . S
C70 C71 1.382 . S
C71 C70 1.382 . S
C71 C72 1.392 . S
C71 N73 1.420 . S
C72 H66 0.930 . S
C72 C68 1.407 . S
C72 C71 1.392 . S
N73 C71 1.420 . S
N73 C74 1.244 . S
C74 N73 1.244 . S
H75 C78 0.929 . S
H76 C81 0.929 . S
H77 C83 0.930 . S
C78 H75 0.929 . S
C78 C79 1.398 . S
C78 C80 1.396 . S
C79 C78 1.398 . S
C79 C83 1.407 . S
C80 C78 1.396 . S
C80 C81 1.394 . S
C81 H76 0.929 . S
C81 C80 1.394 . S
C81 C82 1.382 . S
C82 C81 1.382 . S
C82 C83 1.392 . S
C82 N84 1.420 . S
C83 H77 0.930 . S
C83 C79 1.407 . S
C83 C82 1.392 . S
N84 C82 1.420 . S
N84 C85 1.244 . S
C85 N84 1.244 . S
H86 C94 0.929 . S
H87 C96 0.930 . S
H88 C98 0.930 . S
H89 C101 0.929 . S
H90 C104 0.930 1_556 S
H91 C106 0.960 . S
H92 C106 0.960 . S
H93 C106 0.960 . S
C94 H86 0.929 . S
C94 C95 1.377 . S
C94 C96 1.384 . S
C95 C94 1.377 . S
C95 C101 1.390 . S
C96 H87 0.930 . S
C96 C94 1.384 . S
C96 C97 1.372 . S
C97 C96 1.372 . S
C97 C98 1.400 . S
C97 C102 1.490 . S
C98 H88 0.930 . S
C98 C97 1.400 . S
C98 C101 1.386 . S
H99 C115 0.930 . S
H100 C116 0.931 . S
C101 H89 0.929 . S
C101 C95 1.390 . S
C101 C98 1.386 . S
C102 C97 1.490 . S
C102 C104 1.395 . S
C102 C105 1.403 . S
H103 C109 0.930 . S
C104 H90 0.930 1_554 S
C104 C102 1.395 . S
C104 C107 1.403 . S
C105 C102 1.403 . S
C105 C106 1.524 . S
C105 C109 1.400 . S
C106 H91 0.960 . S
C106 H92 0.960 . S
C106 H93 0.960 . S
C106 C105 1.524 . S
C107 C104 1.403 . S
C107 C108 1.392 . S
C107 C111 1.495 1_554 S
C108 C107 1.392 . S
C108 C109 1.385 . S
C108 C110 1.478 . S
C109 H103 0.930 . S
C109 C105 1.400 . S
C109 C108 1.385 . S
C110 C108 1.478 . S
C110 C112 1.381 . S
C110 C116 1.383 . S
C111 C107 1.495 1_556 S
C111 H117 0.959 . S
C111 H118 0.961 . S
C111 H119 0.960 1_556 S
C112 C110 1.381 . S
C112 C113 1.394 . S
C112 H120 0.930 . S
C113 C112 1.394 . S
C113 C114 1.383 . S
C113 H121 0.929 . S
C114 C113 1.383 . S
C114 C115 1.377 . S
C115 H99 0.930 . S
C115 C114 1.377 . S
C115 C116 1.379 . S
C116 H100 0.931 . S
C116 C110 1.383 . S
C116 C115 1.379 . S
H117 C111 0.959 . S
H118 C111 0.961 . S
H119 C111 0.960 1_554 S
H120 C112 0.930 . S
H121 C113 0.929 . S
H122 C130 0.929 . S
H123 C132 0.930 . S
H124 C134 0.930 . S
H125 C137 0.929 . S
H126 C140 0.930 . S
H127 C142 0.960 . S
H128 C142 0.960 . S
H129 C142 0.960 . S
C130 H122 0.929 . S
C130 C131 1.377 . S
C130 C132 1.384 . S
C131 C130 1.377 . S
C131 C137 1.390 1_554 S
C132 H123 0.930 . S
C132 C130 1.384 . S
C132 C133 1.372 . S
C133 C132 1.372 . S
C133 C134 1.400 1_554 S
C133 C138 1.486 1_554 S
C134 H124 0.930 . S
C134 C133 1.400 1_556 S
C134 C137 1.386 . S
H135 C151 0.930 . S
H136 C152 0.931 . S
C137 H125 0.929 . S
C137 C131 1.390 1_556 S
C137 C134 1.386 . S
C138 C133 1.486 1_556 S
C138 C140 1.404 . S
C138 C141 1.398 1_556 S
H139 C145 0.930 . S
C140 H126 0.930 . S
C140 C138 1.404 . S
C140 C143 1.403 . S
C141 C138 1.398 1_554 S
C141 C142 1.524 . S
C141 C145 1.400 . S
C142 H127 0.960 . S
C142 H128 0.960 . S
C142 H129 0.960 . S
C142 C141 1.524 . S
C143 C140 1.403 . S
C143 C144 1.392 . S
C143 C147 1.495 . S
C144 C143 1.392 . S
C144 C145 1.385 1_556 S
C144 C146 1.478 . S
C145 H139 0.930 . S
C145 C141 1.400 . S
C145 C144 1.385 1_554 S
C146 C144 1.478 . S
C146 C148 1.381 . S
C146 C152 1.383 . S
C147 C143 1.495 . S
C147 H153 0.959 . S
C147 H154 0.961 . S
C147 H155 0.960 . S
C148 C146 1.381 . S
C148 C149 1.394 . S
C148 H156 0.930 1_556 S
C149 C148 1.394 . S
C149 C150 1.383 . S
C149 H157 0.929 1_556 S
C150 C149 1.383 . S
C150 C151 1.377 . S
C151 H135 0.930 . S
C151 C150 1.377 . S
C151 C152 1.379 . S
C152 H136 0.931 . S
C152 C146 1.383 . S
C152 C151 1.379 . S
H153 C147 0.959 . S
H154 C147 0.961 . S
H155 C147 0.960 . S
H156 C148 0.930 1_554 S
H157 C149 0.929 1_554 S
H158 C166 0.929 . S
H159 C168 0.930 . S
H160 C170 0.930 . S
H161 C173 0.929 1_556 S
H162 C176 0.930 1_556 S
H163 C178 0.960 . S
H164 C178 0.960 . S
H165 C178 0.960 . S
C166 H158 0.929 . S
C166 C167 1.377 . S
C166 C168 1.384 . S
C167 C166 1.377 . S
C167 C173 1.390 . S
C168 H159 0.930 . S
C168 C166 1.384 . S
C168 C169 1.372 . S
C169 C168 1.372 . S
C169 C170 1.400 . S
C169 C174 1.490 . S
C170 H160 0.930 . S
C170 C169 1.400 . S
C170 C173 1.386 . S
H171 C187 0.930 . S
H172 C188 0.931 . S
C173 H161 0.929 1_554 S
C173 C167 1.390 . S
C173 C170 1.386 . S
C174 C169 1.490 . S
C174 C176 1.395 . S
C174 C177 1.403 . S
H175 C181 0.930 . S
C176 H162 0.930 1_554 S
C176 C174 1.395 . S
C176 C179 1.403 . S
C177 C174 1.403 . S
C177 C178 1.524 . S
C177 C181 1.400 . S
C178 H163 0.960 . S
C178 H164 0.960 . S
C178 H165 0.960 . S
C178 C177 1.524 . S
C179 C176 1.403 . S
C179 C180 1.392 . S
C179 C183 1.495 1_554 S
C180 C179 1.392 . S
C180 C181 1.385 . S
C180 C182 1.478 . S
C181 H175 0.930 . S
C181 C177 1.400 . S
C181 C180 1.385 . S
C182 C180 1.478 . S
C182 C184 1.381 . S
C182 C188 1.383 . S
C183 C179 1.495 1_556 S
C183 H189 0.959 . S
C183 H190 0.961 . S
C183 H191 0.960 1_556 S
C184 C182 1.381 . S
C184 C185 1.394 . S
C184 H192 0.930 . S
C185 C184 1.394 . S
C185 C186 1.383 . S
C185 H193 0.929 . S
C186 C185 1.383 . S
C186 C187 1.377 . S
C187 H171 0.930 . S
C187 C186 1.377 . S
C187 C188 1.379 . S
C188 H172 0.931 . S
C188 C182 1.383 . S
C188 C187 1.379 . S
H189 C183 0.959 . S
H190 C183 0.961 . S
H191 C183 0.960 1_554 S
H192 C184 0.930 . S
H193 C185 0.929 . S
H194 C202 0.929 . S
H195 C204 0.930 . S
H196 C206 0.930 . S
H197 C209 0.929 . S
H198 C212 0.930 . S
H199 C214 0.960 . S
H200 C214 0.960 . S
H201 C214 0.960 . S
C202 H194 0.929 . S
C202 C203 1.377 1_554 S
C202 C204 1.384 . S
C203 C202 1.377 1_556 S
C203 C209 1.390 . S
C204 H195 0.930 . S
C204 C202 1.384 . S
C204 C205 1.372 1_554 S
C205 C204 1.372 1_556 S
C205 C206 1.400 . S
C205 C210 1.490 . S
C206 H196 0.930 . S
C206 C205 1.400 . S
C206 C209 1.386 . S
H207 C223 0.930 . S
H208 C224 0.931 . S
C209 H197 0.929 . S
C209 C203 1.390 . S
C209 C206 1.386 . S
C210 C205 1.490 . S
C210 C212 1.395 1_556 S
C210 C213 1.403 . S
H211 C217 0.930 . S
C212 H198 0.930 . S
C212 C210 1.395 1_554 S
C212 C215 1.403 . S
C213 C210 1.403 . S
C213 C214 1.524 . S
C213 C217 1.400 . S
C214 H199 0.960 . S
C214 H200 0.960 . S
C214 H201 0.960 . S
C214 C213 1.524 . S
C215 C212 1.403 . S
C215 C216 1.392 1_554 S
C215 C219 1.495 . S
C216 C215 1.392 1_556 S
C216 C217 1.385 . S
C216 C218 1.478 . S
C217 H211 0.930 . S
C217 C213 1.400 . S
C217 C216 1.385 . S
C218 C216 1.478 . S
C218 C220 1.381 . S
C218 C224 1.383 . S
C219 C215 1.495 . S
C219 H225 0.959 . S
C219 H226 0.961 . S
C219 H227 0.960 . S
C220 C218 1.381 . S
C220 C221 1.394 . S
C220 H228 0.931 1_556 S
C221 C220 1.394 . S
C221 C222 1.383 . S
C221 H229 0.929 . S
C222 C221 1.383 . S
C222 C223 1.377 . S
C223 H207 0.930 . S
C223 C222 1.377 . S
C223 C224 1.379 . S
C224 H208 0.931 . S
C224 C218 1.383 . S
C224 C223 1.379 . S
H225 C219 0.959 . S
H226 C219 0.961 . S
H227 C219 0.960 . S
H228 C220 0.931 1_554 S
H229 C221 0.929 . S
H230 C238 0.929 . S
H231 C240 0.930 . S
H232 C242 0.930 . S
H233 C245 0.929 . S
H234 C248 0.930 . S
H235 C250 0.960 . S
H236 C250 0.960 . S
H237 C250 0.960 . S
C238 H230 0.929 . S
C238 C239 1.377 . S
C238 C240 1.384 . S
C239 C238 1.377 . S
C239 C245 1.390 . S
C240 H231 0.930 . S
C240 C238 1.384 . S
C240 C241 1.372 . S
C241 C240 1.372 . S
C241 C242 1.400 . S
C241 C246 1.490 . S
C242 H232 0.930 . S
C242 C241 1.400 . S
C242 C245 1.386 . S
H243 C259 0.930 . S
H244 C260 0.931 . S
C245 H233 0.929 . S
C245 C239 1.390 . S
C245 C242 1.386 . S
C246 C241 1.490 . S
C246 C248 1.395 . S
C246 C249 1.403 . S
H247 C253 0.930 . S
C248 H234 0.930 . S
C248 C246 1.395 . S
C248 C251 1.403 . S
C249 C246 1.403 . S
C249 C250 1.524 . S
C249 C253 1.400 . S
C250 H235 0.960 . S
C250 H236 0.960 . S
C250 H237 0.960 . S
C250 C249 1.524 . S
C251 C248 1.403 . S
C251 C252 1.392 . S
C251 C255 1.495 . S
C252 C251 1.392 . S
C252 C253 1.385 . S
C252 C254 1.478 . S
C253 H247 0.930 . S
C253 C249 1.400 . S
C253 C252 1.385 . S
C254 C252 1.478 . S
C254 C256 1.381 . S
C254 C260 1.383 . S
C255 C251 1.495 . S
C255 H261 0.959 . S
C255 H262 0.961 . S
C255 H263 0.960 . S
C256 C254 1.381 . S
C256 C257 1.394 . S
C256 H264 0.930 . S
C257 C256 1.394 . S
C257 C258 1.383 . S
C257 H265 0.929 . S
C258 C257 1.383 . S
C258 C259 1.377 . S
C259 H243 0.930 . S
C259 C258 1.377 . S
C259 C260 1.379 . S
C260 H244 0.931 . S
C260 C254 1.383 . S
C260 C259 1.379 . S
H261 C255 0.959 . S
H262 C255 0.961 . S
H263 C255 0.960 . S
H264 C256 0.930 . S
H265 C257 0.929 . S
H266 C274 0.929 . S
H267 C276 0.930 . S
H268 C278 0.930 . S
H269 C281 0.929 . S
H270 C284 0.930 . S
H271 C286 0.960 . S
H272 C286 0.960 . S
H273 C286 0.960 . S
C274 H266 0.929 . S
C274 C275 1.377 . S
C274 C276 1.384 . S
C275 C274 1.377 . S
C275 C281 1.390 . S
C276 H267 0.930 . S
C276 C274 1.384 . S
C276 C277 1.372 . S
C277 C276 1.372 . S
C277 C278 1.400 . S
C277 C282 1.490 . S
C278 H268 0.930 . S
C278 C277 1.400 . S
C278 C281 1.386 . S
H279 C295 0.930 . S
H280 C296 0.931 . S
C281 H269 0.929 . S
C281 C275 1.390 . S
C281 C278 1.386 . S
C282 C277 1.490 . S
C282 C284 1.395 . S
C282 C285 1.403 . S
H283 C289 0.930 . S
C284 H270 0.930 . S
C284 C282 1.395 . S
C284 C287 1.403 . S
C285 C282 1.403 . S
C285 C286 1.524 . S
C285 C289 1.400 . S
C286 H271 0.960 . S
C286 H272 0.960 . S
C286 H273 0.960 . S
C286 C285 1.524 . S
C287 C284 1.403 . S
C287 C288 1.392 . S
C287 C291 1.495 . S
C288 C287 1.392 . S
C288 C289 1.385 . S
C288 C290 1.478 . S
C289 H283 0.930 . S
C289 C285 1.400 . S
C289 C288 1.385 . S
C290 C288 1.478 . S
C290 C292 1.381 . S
C290 C296 1.383 . S
C291 C287 1.495 . S
C291 H297 0.959 . S
C291 H298 0.961 . S
C291 H299 0.960 . S
C292 C290 1.381 . S
C292 C293 1.394 . S
C292 H300 0.930 . S
C293 C292 1.394 . S
C293 C294 1.383 . S
C293 H301 0.929 . S
C294 C293 1.383 . S
C294 C295 1.377 . S
C295 H279 0.930 . S
C295 C294 1.377 . S
C295 C296 1.379 . S
C296 H280 0.931 . S
C296 C290 1.383 . S
C296 C295 1.379 . S
H297 C291 0.959 . S
H298 C291 0.961 . S
H299 C291 0.960 . S
H300 C292 0.930 . S
H301 C293 0.929 . S
H302 C310 0.929 . S
H303 C312 0.930 . S
H304 C314 0.930 . S
H305 C317 0.929 . S
H306 C320 0.930 . S
H307 C322 0.960 . S
H308 C322 0.960 . S
H309 C322 0.960 . S
C310 H302 0.929 . S
C310 C311 1.377 . S
C310 C312 1.384 . S
C311 C310 1.377 . S
C311 C317 1.390 . S
C312 H303 0.930 . S
C312 C310 1.384 . S
C312 C313 1.372 . S
C313 C312 1.372 . S
C313 C314 1.400 . S
C313 C318 1.490 . S
C314 H304 0.930 . S
C314 C313 1.400 . S
C314 C317 1.386 . S
H315 C331 0.930 . S
H316 C332 0.931 . S
C317 H305 0.929 . S
C317 C311 1.390 . S
C317 C314 1.386 . S
C318 C313 1.490 . S
C318 C320 1.395 . S
C318 C321 1.403 . S
H319 C325 0.930 . S
C320 H306 0.930 . S
C320 C318 1.395 . S
C320 C323 1.403 . S
C321 C318 1.403 . S
C321 C322 1.524 . S
C321 C325 1.400 . S
C322 H307 0.960 . S
C322 H308 0.960 . S
C322 H309 0.960 . S
C322 C321 1.524 . S
C323 C320 1.403 . S
C323 C324 1.392 . S
C323 C327 1.495 . S
C324 C323 1.392 . S
C324 C325 1.385 . S
C324 C326 1.478 . S
C325 H319 0.930 . S
C325 C321 1.400 . S
C325 C324 1.385 . S
C326 C324 1.478 . S
C326 C328 1.381 . S
C326 C332 1.383 . S
C327 C323 1.495 . S
C327 H333 0.959 . S
C327 H334 0.961 . S
C327 H335 0.960 . S
C328 C326 1.381 . S
C328 C329 1.394 . S
C328 H336 0.930 . S
C329 C328 1.394 . S
C329 C330 1.383 . S
C329 H337 0.929 . S
C330 C329 1.383 . S
C330 C331 1.377 . S
C331 H315 0.930 . S
C331 C330 1.377 . S
C331 C332 1.379 . S
C332 H316 0.931 . S
C332 C326 1.383 . S
C332 C331 1.379 . S
H333 C327 0.959 . S
H334 C327 0.961 . S
H335 C327 0.960 . S
H336 C328 0.930 . S
H337 C329 0.929 . S
H338 C346 0.929 . S
H339 C348 0.930 . S
H340 C350 0.930 . S
H341 C353 0.929 . S
H342 C356 0.930 . S
H343 C358 0.960 . S
H344 C358 0.960 . S
H345 C358 0.960 . S
C346 H338 0.929 . S
C346 C347 1.377 . S
C346 C348 1.384 . S
C347 C346 1.377 . S
C347 C353 1.390 . S
C348 H339 0.930 . S
C348 C346 1.384 . S
C348 C349 1.372 . S
C349 C348 1.372 . S
C349 C350 1.400 . S
C349 C354 1.490 . S
C350 H340 0.930 . S
C350 C349 1.400 . S
C350 C353 1.386 . S
H351 C367 0.930 . S
H352 C368 0.931 . S
C353 H341 0.929 . S
C353 C347 1.390 . S
C353 C350 1.386 . S
C354 C349 1.490 . S
C354 C356 1.395 . S
C354 C357 1.403 . S
H355 C361 0.930 . S
C356 H342 0.930 . S
C356 C354 1.395 . S
C356 C359 1.403 . S
C357 C354 1.403 . S
C357 C358 1.524 . S
C357 C361 1.400 . S
C358 H343 0.960 . S
C358 H344 0.960 . S
C358 H345 0.960 . S
C358 C357 1.524 . S
C359 C356 1.403 . S
C359 C360 1.392 . S
C359 C363 1.495 . S
C360 C359 1.392 . S
C360 C361 1.385 . S
C360 C362 1.478 . S
C361 H355 0.930 . S
C361 C357 1.400 . S
C361 C360 1.385 . S
C362 C360 1.478 . S
C362 C364 1.381 . S
C362 C368 1.383 . S
C363 C359 1.495 . S
C363 H369 0.959 . S
C363 H370 0.961 . S
C363 H371 0.960 . S
C364 C362 1.381 . S
C364 C365 1.394 . S
C364 H372 0.930 . S
C365 C364 1.394 . S
C365 C366 1.383 . S
C365 H373 0.929 . S
C366 C365 1.383 . S
C366 C367 1.377 . S
C367 H351 0.930 . S
C367 C366 1.377 . S
C367 C368 1.379 . S
C368 H352 0.931 . S
C368 C362 1.383 . S
C368 C367 1.379 . S
H369 C363 0.959 . S
H370 C363 0.961 . S
H371 C363 0.960 . S
H372 C364 0.930 . S
H373 C365 0.929 . S
H374 C382 0.929 . S
H375 C384 0.930 . S
H376 C386 0.930 . S
H377 C389 0.929 . S
H378 C392 0.930 . S
H379 C394 0.960 . S
H380 C394 0.960 . S
H381 C394 0.960 . S
C382 H374 0.929 . S
C382 C383 1.377 . S
C382 C384 1.384 . S
C383 C382 1.377 . S
C383 C389 1.390 1_545 S
C384 H375 0.930 . S
C384 C382 1.384 . S
C384 C385 1.372 . S
C385 C384 1.372 . S
C385 C386 1.400 1_545 S
C385 C390 1.490 . S
C386 H376 0.930 . S
C386 C385 1.400 1_565 S
C386 C389 1.386 . S
H387 C403 0.930 1_655 S
H388 C404 0.931 1_655 S
C389 H377 0.929 . S
C389 C383 1.390 1_565 S
C389 C386 1.386 . S
C390 C385 1.490 . S
C390 C392 1.395 . S
C390 C393 1.403 1_545 S
H391 C397 0.930 . S
C392 H378 0.930 . S
C392 C390 1.395 . S
C392 C395 1.403 . S
C393 C390 1.403 1_565 S
C393 C394 1.524 . S
C393 C397 1.400 . S
C394 H379 0.960 . S
C394 H380 0.960 . S
C394 H381 0.960 . S
C394 C393 1.524 . S
C395 C392 1.403 . S
C395 C396 1.392 . S
C395 C399 1.495 . S
C396 C395 1.392 . S
C396 C397 1.385 1_545 S
C396 C398 1.478 . S
C397 H391 0.930 . S
C397 C393 1.400 . S
C397 C396 1.385 1_565 S
C398 C396 1.478 . S
C398 C400 1.381 . S
C398 C404 1.383 1_545 S
C399 C395 1.495 . S
C399 H405 0.959 . S
C399 H406 0.961 . S
C399 H407 0.960 . S
C400 C398 1.381 . S
C400 C401 1.394 . S
C400 H408 0.930 . S
C401 C400 1.394 . S
C401 C402 1.383 1_545 S
C401 H409 0.929 . S
C402 C401 1.383 1_565 S
C402 C403 1.377 . S
C403 H387 0.930 1_455 S
C403 C402 1.377 . S
C403 C404 1.379 . S
C404 H388 0.931 1_455 S
C404 C398 1.383 1_565 S
C404 C403 1.379 . S
H405 C399 0.959 . S
H406 C399 0.961 . S
H407 C399 0.960 . S
H408 C400 0.930 . S
H409 C401 0.929 . S
H410 C418 0.929 . S
H411 C420 0.930 . S
H412 C422 0.930 . S
H413 C425 0.929 . S
H414 C428 0.930 1_565 S
H415 C430 0.960 . S
H416 C430 0.960 . S
H417 C430 0.960 . S
C418 H410 0.929 . S
C418 C419 1.377 1_565 S
C418 C420 1.384 . S
C419 C418 1.377 1_545 S
C419 C425 1.390 . S
C420 H411 0.930 . S
C420 C418 1.384 . S
C420 C421 1.372 1_565 S
C421 C420 1.372 1_545 S
C421 C422 1.400 . S
C421 C426 1.490 . S
C422 H412 0.930 . S
C422 C421 1.400 . S
C422 C425 1.386 . S
H423 C439 0.930 . S
H424 C440 0.931 . S
C425 H413 0.929 . S
C425 C419 1.390 . S
C425 C422 1.386 . S
C426 C421 1.490 . S
C426 C428 1.395 1_455 S
C426 C429 1.403 . S
H427 C433 0.930 . S
C428 H414 0.930 1_545 S
C428 C426 1.395 1_655 S
C428 C431 1.403 . S
C429 C426 1.403 . S
C429 C430 1.524 . S
C429 C433 1.400 . S
C430 H415 0.960 . S
C430 H416 0.960 . S
C430 H417 0.960 . S
C430 C429 1.524 . S
C431 C428 1.403 . S
C431 C432 1.392 1_655 S
C431 C435 1.495 1_545 S
C432 C431 1.392 1_455 S
C432 C433 1.385 . S
C432 C434 1.478 1_455 S
C433 H427 0.930 . S
C433 C429 1.400 . S
C433 C432 1.385 . S
C434 C432 1.478 1_655 S
C434 C436 1.381 1_655 S
C434 C440 1.383 . S
C435 C431 1.495 1_565 S
C435 H441 0.959 . S
C435 H442 0.961 . S
C435 H443 0.960 . S
C436 C434 1.381 1_455 S
C436 C437 1.394 . S
C436 H444 0.930 1_545 S
C437 C436 1.394 . S
C437 C438 1.383 1_455 S
C437 H445 0.929 1_545 S
C438 C437 1.383 1_655 S
C438 C439 1.377 . S
C439 H423 0.930 . S
C439 C438 1.377 . S
C439 C440 1.379 . S
C440 H424 0.931 . S
C440 C434 1.383 . S
C440 C439 1.379 . S
H441 C435 0.959 . S
H442 C435 0.961 . S
H443 C435 0.960 . S
H444 C436 0.930 1_565 S
H445 C437 0.929 1_565 S
H446 C454 0.929 . S
H447 C456 0.930 . S
H448 C458 0.930 . S
H449 C461 0.929 . S
H450 C464 0.930 . S
H451 C466 0.960 . S
H452 C466 0.960 . S
H453 C466 0.960 . S
C454 H446 0.929 . S
C454 C455 1.377 . S
C454 C456 1.384 . S
C455 C454 1.377 . S
C455 C461 1.390 . S
C456 H447 0.930 . S
C456 C454 1.384 . S
C456 C457 1.372 . S
C457 C456 1.372 . S
C457 C458 1.400 . S
C457 C462 1.490 . S
C458 H448 0.930 . S
C458 C457 1.400 . S
C458 C461 1.386 . S
H459 C475 0.930 . S
H460 C476 0.931 . S
C461 H449 0.929 . S
C461 C455 1.390 . S
C461 C458 1.386 . S
C462 C457 1.490 . S
C462 C464 1.395 . S
C462 C465 1.403 . S
H463 C469 0.930 . S
C464 H450 0.930 . S
C464 C462 1.395 . S
C464 C467 1.403 . S
C465 C462 1.403 . S
C465 C466 1.524 . S
C465 C469 1.400 . S
C466 H451 0.960 . S
C466 H452 0.960 . S
C466 H453 0.960 . S
C466 C465 1.524 . S
C467 C464 1.403 . S
C467 C468 1.392 . S
C467 C471 1.495 . S
C468 C467 1.392 . S
C468 C469 1.385 . S
C468 C470 1.478 . S
C469 H463 0.930 . S
C469 C465 1.400 . S
C469 C468 1.385 . S
C470 C468 1.478 . S
C470 C472 1.381 . S
C470 C476 1.383 . S
C471 C467 1.495 . S
C471 H477 0.959 . S
C471 H478 0.961 . S
C471 H479 0.960 . S
C472 C470 1.381 . S
C472 C473 1.394 . S
C472 H480 0.930 . S
C473 C472 1.394 . S
C473 C474 1.383 . S
C473 H481 0.929 . S
C474 C473 1.383 . S
C474 C475 1.377 . S
C475 H459 0.930 . S
C475 C474 1.377 . S
C475 C476 1.379 . S
C476 H460 0.931 . S
C476 C470 1.383 . S
C476 C475 1.379 . S
H477 C471 0.959 . S
H478 C471 0.961 . S
H479 C471 0.960 . S
H480 C472 0.930 . S
H481 C473 0.929 . S
H482 C490 0.929 . S
H483 C492 0.930 . S
H484 C494 0.930 . S
H485 C497 0.929 . S
H486 C500 0.930 . S
H487 C502 0.960 . S
H488 C502 0.960 . S
H489 C502 0.960 . S
C490 H482 0.929 . S
C490 C491 1.377 . S
C490 C492 1.384 . S
C491 C490 1.377 . S
C491 C497 1.390 . S
C492 H483 0.930 . S
C492 C490 1.384 . S
C492 C493 1.372 . S
C493 C492 1.372 . S
C493 C494 1.400 . S
C493 C498 1.490 . S
C494 H484 0.930 . S
C494 C493 1.400 . S
C494 C497 1.386 . S
H495 C511 0.930 . S
H496 C512 0.931 . S
C497 H485 0.929 . S
C497 C491 1.390 . S
C497 C494 1.386 . S
C498 C493 1.490 . S
C498 C500 1.395 . S
C498 C501 1.403 . S
H499 C505 0.930 . S
C500 H486 0.930 . S
C500 C498 1.395 . S
C500 C503 1.403 . S
C501 C498 1.403 . S
C501 C502 1.524 . S
C501 C505 1.400 . S
C502 H487 0.960 . S
C502 H488 0.960 . S
C502 H489 0.960 . S
C502 C501 1.524 . S
C503 C500 1.403 . S
C503 C504 1.392 . S
C503 C507 1.495 . S
C504 C503 1.392 . S
C504 C505 1.385 . S
C504 C506 1.478 . S
C505 H499 0.930 . S
C505 C501 1.400 . S
C505 C504 1.385 . S
C506 C504 1.478 . S
C506 C508 1.381 . S
C506 C512 1.383 . S
C507 C503 1.495 . S
C507 H513 0.959 . S
C507 H514 0.961 . S
C507 H515 0.960 . S
C508 C506 1.381 . S
C508 C509 1.394 . S
C508 H516 0.930 . S
C509 C508 1.394 . S
C509 C510 1.383 . S
C509 H517 0.929 . S
C510 C509 1.383 . S
C510 C511 1.377 . S
C511 H495 0.930 . S
C511 C510 1.377 . S
C511 C512 1.379 . S
C512 H496 0.931 . S
C512 C506 1.383 . S
C512 C511 1.379 . S
H513 C507 0.959 . S
H514 C507 0.961 . S
H515 C507 0.960 . S
H516 C508 0.930 . S
H517 C509 0.929 . S
C114 C79 1.440 . S
C95 C16 1.276 . S
C131 C15 1.382 . S
C150 C74 1.358 . S
C167 C13 1.258 . S
C186 C85 1.413 . S
C203 C14 1.400 . S
C222 C68 1.448 . S
C239 C37 1.278 . S
C258 C57 1.450 1_565 S
C275 C36 1.386 . S
C294 C52 1.366 . S
C330 C63 1.391 . S
C311 C34 1.242 . S
C366 C46 1.446 . S
C347 C35 1.402 . S
C383 C17 1.581 . S
C402 C47 1.624 . S
C419 C18 1.387 . S
C438 C58 1.393 . S
C474 C69 1.615 . S
C455 C38 1.584 . S
C491 C39 1.386 . S
C510 C80 1.398 . S
