# Generated by pormake.
# Topology dag, (6,3)-cn, num edge types: 1
# Building blocks:
#     Node 0, Type 0, BuildingBlock: MIDCAF_clean_sbu_0, # of connection points: 6
#     Node 1, Type 0, BuildingBlock: MIDCAF_clean_sbu_0, # of connection points: 6
#     Node 2, Type 0, BuildingBlock: MIDCAF_clean_sbu_0, # of connection points: 6
#     Node 3, Type 0, BuildingBlock: MIDCAF_clean_sbu_0, # of connection points: 6
#     Node 4, Type 1, BuildingBlock: CUQRIR_clean_linker_1, # of connection points: 3
#     Node 5, Type 1, BuildingBlock: CUQRIR_clean_linker_1, # of connection points: 3
#     Node 6, Type 1, BuildingBlock: CUQRIR_clean_linker_1, # of connection points: 3
#     Node 7, Type 1, BuildingBlock: CUQRIR_clean_linker_1, # of connection points: 3
#     Node 8, Type 1, BuildingBlock: CUQRIR_clean_linker_1, # of connection points: 3
#     Node 9, Type 1, BuildingBlock: CUQRIR_clean_linker_1, # of connection points: 3
#     Node 10, Type 1, BuildingBlock: CUQRIR_clean_linker_1, # of connection points: 3
#     Node 11, Type 1, BuildingBlock: CUQRIR_clean_linker_1, # of connection points: 3
#     Edge 12, Type (0, 1), BuildingBlock: OJICUG_clean_linker_0, # of connection points: 2
#     Edge 13, Type (0, 1), BuildingBlock: OJICUG_clean_linker_0, # of connection points: 2
#     Edge 14, Type (0, 1), BuildingBlock: OJICUG_clean_linker_0, # of connection points: 2
#     Edge 15, Type (0, 1), BuildingBlock: OJICUG_clean_linker_0, # of connection points: 2
#     Edge 16, Type (0, 1), BuildingBlock: OJICUG_clean_linker_0, # of connection points: 2
#     Edge 17, Type (0, 1), BuildingBlock: OJICUG_clean_linker_0, # of connection points: 2
#     Edge 18, Type (0, 1), BuildingBlock: OJICUG_clean_linker_0, # of connection points: 2
#     Edge 19, Type (0, 1), BuildingBlock: OJICUG_clean_linker_0, # of connection points: 2
#     Edge 20, Type (0, 1), BuildingBlock: OJICUG_clean_linker_0, # of connection points: 2
#     Edge 21, Type (0, 1), BuildingBlock: OJICUG_clean_linker_0, # of connection points: 2
#     Edge 22, Type (0, 1), BuildingBlock: OJICUG_clean_linker_0, # of connection points: 2
#     Edge 23, Type (0, 1), BuildingBlock: OJICUG_clean_linker_0, # of connection points: 2
#     Edge 24, Type (0, 1), BuildingBlock: OJICUG_clean_linker_0, # of connection points: 2
#     Edge 25, Type (0, 1), BuildingBlock: OJICUG_clean_linker_0, # of connection points: 2
#     Edge 26, Type (0, 1), BuildingBlock: OJICUG_clean_linker_0, # of connection points: 2
#     Edge 27, Type (0, 1), BuildingBlock: OJICUG_clean_linker_0, # of connection points: 2
#     Edge 28, Type (0, 1), BuildingBlock: OJICUG_clean_linker_0, # of connection points: 2
#     Edge 29, Type (0, 1), BuildingBlock: OJICUG_clean_linker_0, # of connection points: 2
#     Edge 30, Type (0, 1), BuildingBlock: OJICUG_clean_linker_0, # of connection points: 2
#     Edge 31, Type (0, 1), BuildingBlock: OJICUG_clean_linker_0, # of connection points: 2
#     Edge 32, Type (0, 1), BuildingBlock: OJICUG_clean_linker_0, # of connection points: 2
#     Edge 33, Type (0, 1), BuildingBlock: OJICUG_clean_linker_0, # of connection points: 2
#     Edge 34, Type (0, 1), BuildingBlock: OJICUG_clean_linker_0, # of connection points: 2
#     Edge 35, Type (0, 1), BuildingBlock: OJICUG_clean_linker_0, # of connection points: 2
# Relax obj value: 0.118
# Max RMSD: 0.125
# Mean RMSD: 0.098
data_MOF--net-dag--node1-MIDCAF_clean_sbu_0--node2-CUQRIR_clean_linker_1--edge1-OJICUG_clean_linker_0
_symmetry_space_group_name_H-M    P1
_symmetry_Int_Tables_number       1
_symmetry_cell_setting            triclinic
loop_
_symmetry_equiv_pos_as_xyz
'x, y, z'
_cell_length_a     27.221381
_cell_length_b     27.560209
_cell_length_c     20.550094
_cell_angle_alpha  90.579483
_cell_angle_beta   90.16741
_cell_angle_gamma 89.172786
loop_
_atom_site_label
_atom_site_type_symbol
_atom_site_fract_x
_atom_site_fract_y
_atom_site_fract_z
_atom_type_partial_charge
Zn0 Zn 0.09109 0.92443 0.10833 0.0
Zn1 Zn 0.10825 0.85254 0.83523 0.0
Zn2 Zn 0.10813 0.87713 0.02363 0.0
C3 C 0.10074 0.95357 0.89034 0.0
C4 C 0.05128 0.81498 0.95513 0.0
O5 O 0.1649 0.84768 0.0898 0.0
O6 O 0.1151 0.86957 0.16911 0.0
C7 C 0.18206 0.94271 0.05826 0.0
O8 O 0.10331 0.93693 0.94906 0.0
O9 O 0.10099 0.92572 0.83989 0.0
O10 O 0.08606 0.83473 0.92541 0.0
O11 O 0.0497 0.8238 0.01588 0.0
O12 O 0.14152 0.96541 0.06426 0.0
O13 O 0.18159 0.89618 0.05814 0.0
O14 O 0.03909 0.85737 0.0728 0.0
O15 O 0.0182 0.93186 0.10103 0.0
C16 C 0.00732 0.88753 0.09671 0.0
O17 O 0.17852 0.83591 0.01596 0.0
O18 O 0.13969 0.84558 0.92557 0.0
C19 C 0.15016 0.8426 0.14913 0.0
C20 C 0.17751 0.82925 0.95435 0.0
Zn21 Zn 0.59718 0.6102 0.40203 0.0
Zn22 Zn 0.60343 0.59707 0.62136 0.0
Zn23 Zn 0.60563 0.60013 0.51387 0.0
C24 C 0.60084 0.50501 0.5959 0.0
C25 C 0.52681 0.64896 0.60743 0.0
O26 O 0.65936 0.6551 0.48495 0.0
O27 O 0.62307 0.67614 0.39344 0.0
C28 C 0.6425 0.52192 0.41597 0.0
O29 O 0.62128 0.5236 0.54553 0.0
O30 O 0.57608 0.53226 0.63332 0.0
O31 O 0.56096 0.65157 0.64868 0.0
O32 O 0.53429 0.62629 0.55309 0.0
O33 O 0.63924 0.5553 0.3746 0.0
O34 O 0.62717 0.52936 0.47441 0.0
O35 O 0.52773 0.62106 0.48596 0.0
O36 O 0.5278 0.60459 0.38085 0.0
C37 C 0.50464 0.61766 0.43111 0.0
O38 O 0.66674 0.64463 0.55135 0.0
O39 O 0.67339 0.6028 0.64124 0.0
C40 C 0.6555 0.68359 0.43598 0.0
C41 C 0.69054 0.63413 0.6037 0.0
Zn42 Zn 0.81757 0.096 0.84883 0.0
Zn43 Zn 0.89532 0.0661 0.11175 0.0
Zn44 Zn 0.88144 0.08767 1.00271 0.0
C45 C 0.98629 0.06957 0.07149 0.0
C46 C 0.82839 0.00065 0.07007 0.0
O47 O 0.83439 0.15238 0.9828 0.0
O48 O 0.77731 0.11317 0.92919 0.0
C49 C 0.90447 0.14236 0.86189 0.0
O50 O 0.96058 0.09378 0.03023 0.0
O51 O 0.96436 0.0426 0.11082 0.0
O52 O 0.84228 0.01935 0.12302 0.0
O53 O 0.84469 0.01723 0.01618 0.0
O54 O 0.87203 0.14098 0.81768 0.0
O55 O 0.89558 0.12154 0.91534 0.0
O56 O 0.86564 0.01704 0.95197 0.0
O57 O 0.83895 0.02646 0.84879 0.0
C58 C 0.85519 0.0001 0.89448 0.0
O59 O 0.83647 0.135 0.06504 0.0
O60 O 0.88026 0.12913 0.15441 0.0
C61 C 0.79226 0.1522 0.9543 0.0
C62 C 0.84501 0.14848 0.12367 0.0
Zn63 Zn 0.37181 0.34878 0.71413 0.0
Zn64 Zn 0.35974 0.36923 0.39917 0.0
Zn65 Zn 0.36224 0.36058 0.51173 0.0
C66 C 0.45548 0.35277 0.41073 0.0
C67 C 0.32292 0.45628 0.44829 0.0
O68 O 0.30862 0.30577 0.53999 0.0
O69 O 0.34686 0.32621 0.62681 0.0
C70 C 0.43954 0.32379 0.59378 0.0
O71 O 0.43851 0.34602 0.46869 0.0
O72 O 0.427 0.36791 0.36683 0.0
O73 O 0.32576 0.43109 0.397 0.0
O74 O 0.33781 0.43813 0.50265 0.0
O75 O 0.40173 0.33655 0.62541 0.0
O76 O 0.43688 0.33162 0.5328 0.0
O77 O 0.3457 0.4267 0.57965 0.0
O78 O 0.35088 0.41774 0.69009 0.0
C79 C 0.34221 0.44348 0.63943 0.0
O80 O 0.30596 0.30754 0.47353 0.0
O81 O 0.32006 0.31618 0.36868 0.0
C82 C 0.3124 0.30226 0.60158 0.0
C83 C 0.29746 0.29561 0.41371 0.0
C84 C 0.16823 0.15207 0.22346 0.0
N85 N 0.17278 0.12001 0.17351 0.0
N86 N 0.21058 0.15446 0.25824 0.0
C87 C 0.12064 0.17686 0.24243 0.0
C88 C 0.24103 0.12217 0.22758 0.0
N89 N 0.21788 0.10084 0.17665 0.0
C90 C 0.29417 0.11342 0.24463 0.0
H91 H 0.11483 0.20916 0.21141 0.0
H92 H 0.12099 0.18845 0.29428 0.0
H93 H 0.08922 0.1523 0.2343 0.0
H94 H 0.29656 0.08725 0.28522 0.0
H95 H 0.31165 0.14769 0.26051 0.0
H96 H 0.31471 0.09798 0.20251 0.0
C97 C 0.26715 0.66133 0.75728 0.0
N98 N 0.30068 0.64217 0.71485 0.0
N99 N 0.27986 0.70681 0.77592 0.0
C100 C 0.22033 0.63753 0.77743 0.0
C101 C 0.3215 0.71529 0.74273 0.0
N102 N 0.33395 0.6764 0.70554 0.0
C103 C 0.35302 0.7594 0.75231 0.0
H104 H 0.2087 0.61012 0.74082 0.0
H105 H 0.19063 0.66519 0.78378 0.0
H106 H 0.22606 0.61954 0.82495 0.0
H107 H 0.34672 0.77665 0.80062 0.0
H108 H 0.34363 0.78619 0.71413 0.0
H109 H 0.39263 0.75004 0.74787 0.0
C110 C 0.75109 0.81461 0.22513 0.0
N111 N 0.78485 0.83288 0.18421 0.0
N112 N 0.77337 0.79264 0.27647 0.0
C113 C 0.69658 0.81588 0.21283 0.0
C114 C 0.82191 0.79763 0.2649 0.0
N115 N 0.82876 0.82204 0.20919 0.0
C116 C 0.86251 0.78295 0.31083 0.0
H117 H 0.67975 0.84691 0.23984 0.0
H118 H 0.67952 0.78201 0.23 0.0
H119 H 0.68861 0.82049 0.16024 0.0
H120 H 0.87596 0.74606 0.29714 0.0
H121 H 0.84928 0.78233 0.36182 0.0
H122 H 0.89387 0.80808 0.30759 0.0
C123 C 0.6836 0.32038 0.7691 0.0
N124 N 0.64699 0.32725 0.72507 0.0
N125 N 0.67927 0.27668 0.79839 0.0
C126 C 0.72027 0.35826 0.78835 0.0
C127 C 0.63868 0.25732 0.77014 0.0
N128 N 0.61915 0.28802 0.72594 0.0
C129 C 0.6191 0.20763 0.78323 0.0
H130 H 0.75261 0.35506 0.75577 0.0
H131 H 0.73283 0.35327 0.83928 0.0
H132 H 0.70426 0.39528 0.78326 0.0
H133 H 0.59285 0.21002 0.82437 0.0
H134 H 0.6493 0.18201 0.7962 0.0
H135 H 0.59919 0.19335 0.74007 0.0
C136 C 0.66589 0.26068 0.29177 0.0
N137 N 0.65042 0.29908 0.32845 0.0
N138 N 0.712 0.26796 0.26994 0.0
C139 C 0.63624 0.21647 0.27642 0.0
C140 C 0.72445 0.31146 0.29503 0.0
N141 N 0.68722 0.33024 0.33074 0.0
C142 C 0.77135 0.33721 0.28025 0.0
H143 H 0.60742 0.21109 0.31364 0.0
H144 H 0.66042 0.18376 0.27352 0.0
H145 H 0.61838 0.22111 0.22824 0.0
H146 H 0.76683 0.35673 0.2336 0.0
H147 H 0.8023 0.31086 0.27471 0.0
H148 H 0.78011 0.36402 0.31906 0.0
C149 C 0.12711 0.21949 0.77474 0.0
N150 N 0.10385 0.18645 0.81129 0.0
N151 N 0.17453 0.20595 0.76513 0.0
C152 C 0.10346 0.26458 0.74768 0.0
C153 C 0.17919 0.16339 0.7973 0.0
N154 N 0.13616 0.15156 0.82564 0.0
C155 C 0.22331 0.1301 0.79288 0.0
H156 H 0.08871 0.25635 0.69848 0.0
H157 H 0.1308 0.29384 0.74323 0.0
H158 H 0.07262 0.27724 0.77905 0.0
H159 H 0.25771 0.15096 0.79678 0.0
H160 H 0.22312 0.11149 0.74474 0.0
H161 H 0.22282 0.10233 0.83158 0.0
C162 C 0.23311 0.67245 0.35634 0.0
N163 N 0.27095 0.65324 0.39109 0.0
N164 N 0.24497 0.71668 0.33316 0.0
C165 C 0.18833 0.64476 0.33633 0.0
C166 C 0.29121 0.72363 0.35501 0.0
N167 N 0.30734 0.68495 0.38942 0.0
C168 C 0.32108 0.76773 0.34064 0.0
H169 H 0.15798 0.66957 0.3215 0.0
H170 H 0.17604 0.62157 0.37684 0.0
H171 H 0.19787 0.62072 0.29445 0.0
H172 H 0.29711 0.80065 0.34029 0.0
H173 H 0.33776 0.76371 0.29166 0.0
H174 H 0.35083 0.77235 0.37712 0.0
C175 C 0.82739 0.79806 0.73628 0.0
N176 N 0.85995 0.81159 0.78266 0.0
N177 N 0.83925 0.75346 0.71211 0.0
C178 C 0.78255 0.82711 0.71688 0.0
C179 C 0.88028 0.74047 0.74551 0.0
N180 N 0.89274 0.77574 0.78819 0.0
C181 C 0.90606 0.69187 0.74003 0.0
H182 H 0.75117 0.81623 0.74756 0.0
H183 H 0.7727 0.82022 0.66533 0.0
H184 H 0.78853 0.86654 0.72384 0.0
H185 H 0.88768 0.66723 0.70496 0.0
H186 H 0.90786 0.67476 0.78866 0.0
H187 H 0.94426 0.69686 0.72323 0.0
C188 C 0.22863 0.01495 0.03794 0.0
C189 C 0.22564 0.97137 0.07259 0.0
H190 H 0.2249 0.09263 0.04621 0.0
C191 C 0.24057 0.97118 0.138 0.0
H192 H 0.21874 0.01575 0.98685 0.0
C193 C 0.24398 0.0152 0.17209 0.0
C194 C 0.23444 0.05907 0.13996 0.0
H195 H 0.23949 0.93791 0.16561 0.0
H196 H 0.24729 0.01464 0.22459 0.0
C197 C 0.23117 0.05899 0.07194 0.0
C198 C 0.46092 0.62919 0.68258 0.0
C199 C 0.47697 0.65737 0.63061 0.0
H200 H 0.40182 0.61354 0.74702 0.0
C201 C 0.44536 0.69177 0.60243 0.0
H202 H 0.48512 0.60252 0.70485 0.0
C203 C 0.39747 0.69739 0.62604 0.0
C204 C 0.38152 0.66872 0.67777 0.0
H205 H 0.45756 0.71382 0.5624 0.0
H206 H 0.37293 0.72406 0.60454 0.0
C207 C 0.41352 0.63495 0.70612 0.0
C208 C 0.81759 0.91251 0.04887 0.0
C209 C 0.79903 0.95648 0.07423 0.0
H210 H 0.82428 0.83574 0.06318 0.0
C211 C 0.7624 0.95548 0.12212 0.0
H212 H 0.84681 0.9123 1.0133 0.0
C213 C 0.75156 0.91216 0.1529 0.0
C214 C 0.77662 0.86925 0.13521 0.0
H215 H 0.74746 -0.01094 0.14224 0.0
H216 H 0.72925 0.91375 0.19637 0.0
C217 C 0.80526 0.86872 0.0783 0.0
C218 C 0.52682 0.29226 0.59184 0.0
C219 C 0.48429 0.30489 0.62697 0.0
H220 H 0.60469 0.27804 0.59654 0.0
C221 C 0.48525 0.30061 0.69516 0.0
H222 H 0.52606 0.29078 0.53949 0.0
C223 C 0.52905 0.28908 0.72756 0.0
C224 C 0.57289 0.28353 0.69251 0.0
H225 H 0.45274 0.30826 0.72387 0.0
H226 H 0.52976 0.28935 0.78026 0.0
C227 C 0.57124 0.28318 0.62433 0.0
C228 C 0.6502 0.45997 0.32842 0.0
C229 C 0.65901 0.47378 0.3934 0.0
H230 H 0.65259 0.40212 0.25792 0.0
C231 C 0.68215 0.44101 0.43553 0.0
H232 H 0.63276 0.48474 0.29457 0.0
C233 C 0.69395 0.39408 0.4141 0.0
C234 C 0.68219 0.3798 0.35048 0.0
H235 H 0.69106 0.45179 0.48451 0.0
H236 H 0.71046 0.3684 0.44749 0.0
C237 C 0.66149 0.41311 0.30727 0.0
C238 C 0.96921 0.1705 0.78545 0.0
C239 C 0.95347 0.16248 0.84949 0.0
H240 H 0.03051 0.18427 0.72316 0.0
C241 C 0.9869 0.16865 0.90103 0.0
H242 H 0.94432 0.16593 0.7447 0.0
C243 C 0.03597 0.17901 0.88846 0.0
C244 C 0.05217 0.18407 0.82438 0.0
H245 H 0.97553 0.16387 0.95089 0.0
H246 H 0.06184 0.18151 0.92842 0.0
C247 C 0.01832 0.18111 0.77301 0.0
C248 C 0.27522 0.53357 0.47806 0.0
C249 C 0.30881 0.50776 0.43848 0.0
H250 H 0.23684 0.60189 0.49388 0.0
C251 C 0.32544 0.52946 0.38102 0.0
H252 H 0.26003 0.51693 0.52089 0.0
C253 C 0.30984 0.57566 0.36376 0.0
C254 C 0.2786 0.60252 0.4045 0.0
H255 H 0.3507 0.51039 0.3487 0.0
H256 H 0.32375 0.5915 0.31957 0.0
C257 C 0.26093 0.58132 0.46174 0.0
C258 C 0.96298 0.79341 0.9422 0.0
C259 C 0.01112 0.79295 0.91812 0.0
H260 H 0.88653 0.78709 0.91829 0.0
C261 C 0.01982 0.77881 0.85327 0.0
H262 H 0.95529 0.80454 0.99172 0.0
C263 C 0.98075 0.77027 0.81129 0.0
C264 C 0.93252 0.7746 0.83393 0.0
H265 H 0.05675 0.77767 0.83373 0.0
H266 H -0.01191 0.76391 0.76018 0.0
C267 C 0.92378 0.78398 0.90021 0.0
C268 C 0.90252 0.93088 0.84883 0.0
C269 C 0.85994 0.94825 0.87993 0.0
H270 H 0.93523 0.87351 0.79174 0.0
C271 C 0.81836 0.91892 0.88254 0.0
H272 H 0.93446 0.95367 0.84485 0.0
C273 C 0.81902 0.87302 0.85303 0.0
C274 C 0.86065 0.85673 0.81859 0.0
H275 H 0.78482 0.93233 0.9051 0.0
H276 H 0.78652 0.85092 0.85503 0.0
C277 C 0.90282 0.88544 0.81817 0.0
C278 C 0.51445 0.32092 0.32799 0.0
C279 C 0.50603 0.33838 0.39166 0.0
H280 H 0.56711 0.29546 0.25794 0.0
C281 C 0.54596 0.34243 0.43445 0.0
H282 H 0.4845 0.31806 0.29337 0.0
C283 C 0.593 0.32704 0.41487 0.0
C284 C 0.60124 0.30967 0.35113 0.0
H285 H 0.54098 0.35831 0.4824 0.0
H286 H 0.62308 0.3293 0.4492 0.0
C287 C 0.56153 0.30714 0.30784 0.0
C288 C 0.11936 0.03972 0.92592 0.0
C289 C 0.10272 0.00667 0.87826 0.0
H290 H 0.14423 0.11238 0.94574 0.0
C291 C 0.09327 0.0239 0.81504 0.0
H292 H 0.12633 0.02812 0.97516 0.0
C293 C 0.10316 0.07174 0.7988 0.0
C294 C 0.12275 0.10354 0.8451 0.0
H295 H 0.07974 -7e-05 0.77715 0.0
H296 H 0.09696 0.08376 0.74939 0.0
C297 C 0.12976 0.0878 0.90923 0.0
C298 C 0.44007 0.65614 0.36307 0.0
C299 C 0.4537 0.63556 0.4229 0.0
H300 H 0.38271 0.68749 0.30558 0.0
C301 C 0.41875 0.63314 0.47269 0.0
H302 H 0.46605 0.65818 0.32338 0.0
C303 C 0.37132 0.65228 0.46312 0.0
C304 C 0.35793 0.67269 0.4032 0.0
H305 H 0.42772 0.61558 0.51813 0.0
H306 H 0.34441 0.65003 0.50142 0.0
C307 C 0.3927 0.67413 0.35321 0.0
C308 C 0.30598 0.50582 0.71503 0.0
C309 C 0.32666 0.49462 0.65372 0.0
H310 H 0.28407 0.56057 0.78344 0.0
C311 C 0.33582 0.53296 0.61127 0.0
H312 H 0.29873 0.47748 0.74971 0.0
C313 C 0.32378 0.58102 0.62943 0.0
C314 C 0.3052 0.59219 0.69189 0.0
H315 H 0.35367 0.5261 0.56508 0.0
H316 H 0.33087 0.60974 0.59564 0.0
C317 C 0.2964 0.55373 0.73422 0.0
C318 C 0.95092 0.82064 0.12752 0.0
C319 C 0.96093 0.8705 0.12485 0.0
H320 H 0.89999 0.76628 0.15702 0.0
C321 C 0.92796 0.90387 0.15406 0.0
H322 H 0.97621 0.79394 0.10712 0.0
C323 C 0.88558 0.88771 0.18438 0.0
C324 C 0.87488 0.83817 0.18454 0.0
H325 H 0.93495 0.94245 0.15386 0.0
H326 H 0.86035 0.91384 0.20623 0.0
C327 C 0.90795 0.80466 0.1568 0.0
C328 C 0.57642 0.43328 0.65855 0.0
C329 C 0.61132 0.45531 0.61877 0.0
H330 H 0.56233 0.37906 0.72878 0.0
C331 C 0.65884 0.43479 0.61515 0.0
H332 H 0.5401 0.44929 0.66468 0.0
C333 C 0.67051 0.39211 0.64885 0.0
C334 C 0.63557 0.37086 0.68938 0.0
H335 H 0.68782 0.45339 0.59032 0.0
H336 H 0.70713 0.37653 0.645 0.0
C337 C 0.58891 0.39262 0.69488 0.0
C338 C 0.06641 0.04547 0.12234 0.0
C339 C 0.03961 0.07794 0.08274 0.0
H340 H 0.13049 0.03333 0.18126 0.0
C341 C 0.06177 0.12166 0.06519 0.0
H342 H 0.05038 0.012 0.13811 0.0
C343 C 0.10782 0.13407 0.0911 0.0
C344 C 0.13264 0.10269 0.13406 0.0
H345 H 0.04194 0.1479 0.03602 0.0
H346 H 0.12273 0.16941 0.08101 0.0
C347 C 0.11241 0.05759 0.14735 0.0
C348 C 0.15406 0.80188 0.25732 0.0
C349 C 0.17438 0.80858 0.19506 0.0
H350 H 0.16075 0.76666 0.34984 0.0
C351 C 0.21709 0.78228 0.17789 0.0
H352 H 0.12091 0.82117 0.27204 0.0
C353 C 0.23957 0.75102 0.22279 0.0
C354 C 0.21953 0.74528 0.28519 0.0
H355 H 0.23343 0.7863 0.13029 0.0
H356 H 0.27294 0.73162 0.20927 0.0
C357 C 0.17641 0.7705 0.30182 0.0
C358 C 0.75216 0.65262 0.68874 0.0
C359 C 0.73355 0.66162 0.62601 0.0
H360 H 0.79939 0.67618 0.76546 0.0
C361 C 0.75333 0.69946 0.58949 0.0
H362 H 0.73796 0.62382 0.71848 0.0
C363 C 0.7898 0.72887 0.61657 0.0
C364 C 0.80604 0.72099 0.68051 0.0
H365 H 0.73979 0.70722 0.54119 0.0
H366 H 0.80432 0.75846 0.58858 0.0
C367 C 0.78744 0.68238 0.71587 0.0
C368 C 0.8074 0.17577 0.22775 0.0
C369 C 0.81027 0.18016 0.1597 0.0
H370 H 0.7723 0.20002 0.31573 0.0
C371 C 0.77828 0.21264 0.12782 0.0
H372 H 0.83093 0.15048 0.25372 0.0
C373 C 0.74477 0.24096 0.16393 0.0
C374 C 0.74249 0.23623 0.23175 0.0
H375 H 0.7797 0.21667 0.07553 0.0
H376 H 0.72114 0.26693 0.13939 0.0
C377 C 0.77365 0.20344 0.26331 0.0
C378 C 0.28745 0.26863 0.70889 0.0
C379 C 0.27749 0.27519 0.64226 0.0
H380 H 0.26191 0.24168 0.80023 0.0
C381 C 0.23359 0.25696 0.61619 0.0
H382 H 0.32115 0.28154 0.73049 0.0
C383 C 0.19989 0.23379 0.65647 0.0
C384 C 0.20974 0.22821 0.72317 0.0
H385 H 0.22495 0.26127 0.56506 0.0
H386 H 0.16605 0.22029 0.6358 0.0
C387 C 0.25386 0.24549 0.74888 0.0
C388 C 0.68214 0.76528 0.40563 0.0
C389 C 0.69439 0.71676 0.41852 0.0
H390 H 0.69971 0.82865 0.35141 0.0
C391 C 0.7378 0.69646 0.39298 0.0
H392 H 0.64834 0.78125 0.42431 0.0
C393 C 0.76542 0.72246 0.34856 0.0
C394 C 0.7506 0.76946 0.33074 0.0
H395 H 0.74715 0.65866 0.40131 0.0
H396 H 0.79598 0.70448 0.32434 0.0
C397 C 0.71069 0.79181 0.36281 0.0
C398 C 0.71757 0.20338 0.94273 0.0
C399 C 0.76805 0.19701 0.93134 0.0
H400 H 0.64987 0.23588 0.91059 0.0
C401 C 0.79026 0.22407 0.88222 0.0
H402 H 0.69954 0.18255 0.97994 0.0
C403 C 0.76141 0.25262 0.84039 0.0
C404 C 0.71015 0.25538 0.84816 0.0
H405 H 0.82904 0.21951 0.8721 0.0
H406 H 0.77867 0.26963 0.79926 0.0
C407 C 0.68904 0.233 0.90223 0.0
C408 C 0.26991 0.20992 0.40614 0.0
C409 C 0.26149 0.25929 0.39365 0.0
H410 H 0.25871 0.13675 0.37254 0.0
C411 C 0.229 0.27265 0.34366 0.0
H412 H 0.29542 0.19886 0.44393 0.0
C413 C 0.21027 0.23781 0.3014 0.0
C414 C 0.22244 0.18865 0.30935 0.0
H415 H 0.22249 0.31062 0.33275 0.0
H416 H 0.18956 0.24979 0.25938 0.0
C417 C 0.24999 0.17462 0.36436 0.0
C418 C 0.22252 0.81691 0.85219 0.0
C419 C 0.2135 0.80127 0.91585 0.0
H420 H 0.24949 0.79818 0.75733 0.0
C421 C 0.22862 0.75447 0.93417 0.0
H422 H 0.21046 0.85265 0.83671 0.0
C423 C 0.25035 0.72302 0.88804 0.0
C424 C 0.25719 0.73829 0.82362 0.0
H425 H 0.22092 0.74131 0.98252 0.0
H426 H 0.26126 0.6867 0.9022 0.0
C427 C 0.24408 0.78574 0.80658 0.0
loop_
_geom_bond_atom_site_label_1
_geom_bond_atom_site_label_2
_geom_bond_distance
_geom_bond_site_symmetry_2
_ccdc_geom_bond_type
Zn0 O6 1.920 . S
Zn0 O12 1.898 . S
Zn0 O15 1.905 . S
Zn1 O9 1.905 . S
Zn1 O10 1.898 . S
Zn1 O18 1.920 . S
Zn2 O5 2.083 . S
Zn2 O8 2.111 1_554 S
Zn2 O11 2.117 1_554 S
Zn2 O13 2.123 . S
Zn2 O14 2.117 . S
Zn2 O17 2.078 1_554 S
C3 O8 1.166 . S
C3 O9 1.182 . S
C4 O10 1.167 . S
C4 O11 1.299 . S
O5 Zn2 2.083 . S
O5 C19 1.305 . S
O6 Zn0 1.920 . S
O6 C19 1.234 . S
C7 O12 1.167 . S
C7 O13 1.299 . S
O8 Zn2 2.111 1_556 S
O8 C3 1.166 . S
O9 Zn1 1.905 . S
O9 C3 1.182 . S
O10 Zn1 1.898 . S
O10 C4 1.167 . S
O11 Zn2 2.117 1_556 S
O11 C4 1.299 . S
O12 Zn0 1.898 . S
O12 C7 1.167 . S
O13 Zn2 2.123 . S
O13 C7 1.299 . S
O14 Zn2 2.117 . S
O14 C16 1.166 . S
O15 Zn0 1.905 . S
O15 C16 1.182 . S
C16 O14 1.166 . S
C16 O15 1.182 . S
O17 Zn2 2.078 1_556 S
O17 C20 1.305 . S
O18 Zn1 1.920 . S
O18 C20 1.234 . S
C19 O5 1.305 . S
C19 O6 1.234 . S
C20 O17 1.305 . S
C20 O18 1.234 . S
Zn21 O27 1.920 . S
Zn21 O33 1.898 . S
Zn21 O36 1.905 . S
Zn22 O30 1.905 . S
Zn22 O31 1.898 . S
Zn22 O39 1.920 . S
Zn23 O26 2.080 . S
Zn23 O29 2.114 . S
Zn23 O32 2.120 . S
Zn23 O34 2.120 . S
Zn23 O35 2.114 . S
Zn23 O38 2.080 . S
C24 O29 1.166 . S
C24 O30 1.182 . S
C25 O31 1.167 . S
C25 O32 1.299 . S
O26 Zn23 2.080 . S
O26 C40 1.305 . S
O27 Zn21 1.920 . S
O27 C40 1.234 . S
C28 O33 1.167 . S
C28 O34 1.299 . S
O29 Zn23 2.114 . S
O29 C24 1.166 . S
O30 Zn22 1.905 . S
O30 C24 1.182 . S
O31 Zn22 1.898 . S
O31 C25 1.167 . S
O32 Zn23 2.120 . S
O32 C25 1.299 . S
O33 Zn21 1.898 . S
O33 C28 1.167 . S
O34 Zn23 2.120 . S
O34 C28 1.299 . S
O35 Zn23 2.114 . S
O35 C37 1.166 . S
O36 Zn21 1.905 . S
O36 C37 1.182 . S
C37 O35 1.166 . S
C37 O36 1.182 . S
O38 Zn23 2.080 . S
O38 C41 1.305 . S
O39 Zn22 1.920 . S
O39 C41 1.234 . S
C40 O26 1.305 . S
C40 O27 1.234 . S
C41 O38 1.305 . S
C41 O39 1.234 . S
Zn42 O48 1.920 . S
Zn42 O54 1.898 . S
Zn42 O57 1.905 . S
Zn43 O51 1.905 . S
Zn43 O52 1.898 . S
Zn43 O60 1.920 . S
Zn44 O47 2.077 1_554 S
Zn44 O50 2.117 . S
Zn44 O53 2.123 . S
Zn44 O55 2.117 1_554 S
Zn44 O56 2.111 1_554 S
Zn44 O59 2.083 . S
C45 O50 1.166 . S
C45 O51 1.182 . S
C46 O52 1.167 . S
C46 O53 1.299 . S
O47 Zn44 2.077 1_556 S
O47 C61 1.305 . S
O48 Zn42 1.920 . S
O48 C61 1.234 . S
C49 O54 1.167 . S
C49 O55 1.299 . S
O50 Zn44 2.117 . S
O50 C45 1.166 . S
O51 Zn43 1.905 . S
O51 C45 1.182 . S
O52 Zn43 1.898 . S
O52 C46 1.167 . S
O53 Zn44 2.123 . S
O53 C46 1.299 . S
O54 Zn42 1.898 . S
O54 C49 1.167 . S
O55 Zn44 2.117 1_556 S
O55 C49 1.299 . S
O56 Zn44 2.111 1_556 S
O56 C58 1.166 . S
O57 Zn42 1.905 . S
O57 C58 1.182 . S
C58 O56 1.166 . S
C58 O57 1.182 . S
O59 Zn44 2.083 . S
O59 C62 1.305 . S
O60 Zn43 1.920 . S
O60 C62 1.234 . S
C61 O47 1.305 . S
C61 O48 1.234 . S
C62 O59 1.305 . S
C62 O60 1.234 . S
Zn63 O69 1.920 . S
Zn63 O75 1.898 . S
Zn63 O78 1.905 . S
Zn64 O72 1.905 . S
Zn64 O73 1.898 . S
Zn64 O81 1.920 . S
Zn65 O68 2.080 . S
Zn65 O71 2.114 . S
Zn65 O74 2.120 . S
Zn65 O76 2.120 . S
Zn65 O77 2.114 . S
Zn65 O80 2.080 . S
C66 O71 1.166 . S
C66 O72 1.182 . S
C67 O73 1.167 . S
C67 O74 1.299 . S
O68 Zn65 2.080 . S
O68 C82 1.305 . S
O69 Zn63 1.920 . S
O69 C82 1.234 . S
C70 O75 1.167 . S
C70 O76 1.299 . S
O71 Zn65 2.114 . S
O71 C66 1.166 . S
O72 Zn64 1.905 . S
O72 C66 1.182 . S
O73 Zn64 1.898 . S
O73 C67 1.167 . S
O74 Zn65 2.120 . S
O74 C67 1.299 . S
O75 Zn63 1.898 . S
O75 C70 1.167 . S
O76 Zn65 2.120 . S
O76 C70 1.299 . S
O77 Zn65 2.114 . S
O77 C79 1.166 . S
O78 Zn63 1.905 . S
O78 C79 1.182 . S
C79 O77 1.166 . S
C79 O78 1.182 . S
O80 Zn65 2.080 . S
O80 C83 1.305 . S
O81 Zn64 1.920 . S
O81 C83 1.234 . S
C82 O68 1.305 . S
C82 O69 1.234 . S
C83 O80 1.305 . S
C83 O81 1.234 . S
C84 N85 1.317 . S
C84 N86 1.348 . S
C84 C87 1.485 . S
N85 C84 1.317 . S
N85 N89 1.370 . S
N86 C84 1.348 . S
N86 C88 1.346 . S
C87 C84 1.485 . S
C87 H91 0.960 . S
C87 H92 0.961 . S
C87 H93 0.960 . S
C88 N86 1.346 . S
C88 N89 1.307 . S
C88 C90 1.486 . S
N89 N85 1.370 . S
N89 C88 1.307 . S
C90 C88 1.486 . S
C90 H94 0.960 . S
C90 H95 0.960 . S
C90 H96 0.959 . S
H91 C87 0.960 . S
H92 C87 0.961 . S
H93 C87 0.960 . S
H94 C90 0.960 . S
H95 C90 0.960 . S
H96 C90 0.959 . S
C97 N98 1.317 . S
C97 N99 1.348 . S
C97 C100 1.485 . S
N98 C97 1.317 . S
N98 N102 1.370 . S
N99 C97 1.348 . S
N99 C101 1.346 . S
C100 C97 1.485 . S
C100 H104 0.960 . S
C100 H105 0.961 . S
C100 H106 0.960 . S
C101 N99 1.346 . S
C101 N102 1.307 . S
C101 C103 1.486 . S
N102 N98 1.370 . S
N102 C101 1.307 . S
C103 C101 1.486 . S
C103 H107 0.960 . S
C103 H108 0.960 . S
C103 H109 0.959 . S
H104 C100 0.960 . S
H105 C100 0.961 . S
H106 C100 0.960 . S
H107 C103 0.960 . S
H108 C103 0.960 . S
H109 C103 0.959 . S
C110 N111 1.317 . S
C110 N112 1.348 . S
C110 C113 1.485 . S
N111 C110 1.317 . S
N111 N115 1.370 . S
N112 C110 1.348 . S
N112 C114 1.346 . S
C113 C110 1.485 . S
C113 H117 0.960 . S
C113 H118 0.961 . S
C113 H119 0.960 . S
C114 N112 1.346 . S
C114 N115 1.307 . S
C114 C116 1.486 . S
N115 N111 1.370 . S
N115 C114 1.307 . S
C116 C114 1.486 . S
C116 H120 0.960 . S
C116 H121 0.960 . S
C116 H122 0.959 . S
H117 C113 0.960 . S
H118 C113 0.961 . S
H119 C113 0.960 . S
H120 C116 0.960 . S
H121 C116 0.960 . S
H122 C116 0.959 . S
C123 N124 1.317 . S
C123 N125 1.348 . S
C123 C126 1.485 . S
N124 C123 1.317 . S
N124 N128 1.370 . S
N125 C123 1.348 . S
N125 C127 1.346 . S
C126 C123 1.485 . S
C126 H130 0.960 . S
C126 H131 0.961 . S
C126 H132 0.960 . S
C127 N125 1.346 . S
C127 N128 1.307 . S
C127 C129 1.486 . S
N128 N124 1.370 . S
N128 C127 1.307 . S
C129 C127 1.486 . S
C129 H133 0.960 . S
C129 H134 0.960 . S
C129 H135 0.959 . S
H130 C126 0.960 . S
H131 C126 0.961 . S
H132 C126 0.960 . S
H133 C129 0.960 . S
H134 C129 0.960 . S
H135 C129 0.959 . S
C136 N137 1.317 . S
C136 N138 1.348 . S
C136 C139 1.485 . S
N137 C136 1.317 . S
N137 N141 1.370 . S
N138 C136 1.348 . S
N138 C140 1.346 . S
C139 C136 1.485 . S
C139 H143 0.960 . S
C139 H144 0.961 . S
C139 H145 0.960 . S
C140 N138 1.346 . S
C140 N141 1.307 . S
C140 C142 1.486 . S
N141 N137 1.370 . S
N141 C140 1.307 . S
C142 C140 1.486 . S
C142 H146 0.960 . S
C142 H147 0.960 . S
C142 H148 0.959 . S
H143 C139 0.960 . S
H144 C139 0.961 . S
H145 C139 0.960 . S
H146 C142 0.960 . S
H147 C142 0.960 . S
H148 C142 0.959 . S
C149 N150 1.317 . S
C149 N151 1.348 . S
C149 C152 1.485 . S
N150 C149 1.317 . S
N150 N154 1.370 . S
N151 C149 1.348 . S
N151 C153 1.346 . S
C152 C149 1.485 . S
C152 H156 0.960 . S
C152 H157 0.961 . S
C152 H158 0.960 . S
C153 N151 1.346 . S
C153 N154 1.307 . S
C153 C155 1.486 . S
N154 N150 1.370 . S
N154 C153 1.307 . S
C155 C153 1.486 . S
C155 H159 0.960 . S
C155 H160 0.960 . S
C155 H161 0.959 . S
H156 C152 0.960 . S
H157 C152 0.961 . S
H158 C152 0.960 . S
H159 C155 0.960 . S
H160 C155 0.960 . S
H161 C155 0.959 . S
C162 N163 1.317 . S
C162 N164 1.348 . S
C162 C165 1.485 . S
N163 C162 1.317 . S
N163 N167 1.370 . S
N164 C162 1.348 . S
N164 C166 1.346 . S
C165 C162 1.485 . S
C165 H169 0.960 . S
C165 H170 0.961 . S
C165 H171 0.960 . S
C166 N164 1.346 . S
C166 N167 1.307 . S
C166 C168 1.486 . S
N167 N163 1.370 . S
N167 C166 1.307 . S
C168 C166 1.486 . S
C168 H172 0.960 . S
C168 H173 0.960 . S
C168 H174 0.959 . S
H169 C165 0.960 . S
H170 C165 0.961 . S
H171 C165 0.960 . S
H172 C168 0.960 . S
H173 C168 0.960 . S
H174 C168 0.959 . S
C175 N176 1.317 . S
C175 N177 1.348 . S
C175 C178 1.485 . S
N176 C175 1.317 . S
N176 N180 1.370 . S
N177 C175 1.348 . S
N177 C179 1.346 . S
C178 C175 1.485 . S
C178 H182 0.960 . S
C178 H183 0.961 . S
C178 H184 0.960 . S
C179 N177 1.346 . S
C179 N180 1.307 . S
C179 C181 1.486 . S
N180 N176 1.370 . S
N180 C179 1.307 . S
C181 C179 1.486 . S
C181 H185 0.960 . S
C181 H186 0.960 . S
C181 H187 0.959 . S
H182 C178 0.960 . S
H183 C178 0.961 . S
H184 C178 0.960 . S
H185 C181 0.960 . S
H186 C181 0.960 . S
H187 C181 0.959 . S
C188 C189 1.387 1_545 S
C188 H192 0.950 . S
C188 C197 1.390 . S
C189 C188 1.387 1_565 S
C189 C191 1.387 . S
H190 C197 0.950 . S
C191 C189 1.387 . S
C191 C193 1.390 1_565 S
C191 H195 0.950 . S
H192 C188 0.950 . S
C193 C191 1.390 1_545 S
C193 C194 1.387 . S
C193 H196 0.950 . S
C194 C193 1.387 . S
C194 C197 1.387 . S
H195 C191 0.950 . S
H196 C193 0.950 . S
C197 C188 1.390 . S
C197 H190 0.950 . S
C197 C194 1.387 . S
C198 C199 1.387 . S
C198 H202 0.950 . S
C198 C207 1.390 . S
C199 C198 1.387 . S
C199 C201 1.387 . S
H200 C207 0.950 . S
C201 C199 1.387 . S
C201 C203 1.390 . S
C201 H205 0.950 . S
H202 C198 0.950 . S
C203 C201 1.390 . S
C203 C204 1.387 . S
C203 H206 0.950 . S
C204 C203 1.387 . S
C204 C207 1.387 . S
H205 C201 0.950 . S
H206 C203 0.950 . S
C207 C198 1.390 . S
C207 H200 0.950 . S
C207 C204 1.387 . S
C208 C209 1.387 1_565 S
C208 H212 0.950 . S
C208 C217 1.390 . S
C209 C208 1.387 1_545 S
C209 C211 1.387 . S
H210 C217 0.950 . S
C211 C209 1.387 . S
C211 C213 1.390 1_545 S
C211 H215 0.950 . S
H212 C208 0.950 . S
C213 C211 1.390 1_565 S
C213 C214 1.387 . S
C213 H216 0.950 . S
C214 C213 1.387 . S
C214 C217 1.387 . S
H215 C211 0.950 . S
H216 C213 0.950 . S
C217 C208 1.390 . S
C217 H210 0.950 . S
C217 C214 1.387 . S
C218 C219 1.387 . S
C218 H222 0.950 . S
C218 C227 1.390 . S
C219 C218 1.387 . S
C219 C221 1.387 . S
H220 C227 0.950 . S
C221 C219 1.387 . S
C221 C223 1.390 . S
C221 H225 0.950 . S
H222 C218 0.950 . S
C223 C221 1.390 . S
C223 C224 1.387 . S
C223 H226 0.950 . S
C224 C223 1.387 . S
C224 C227 1.387 . S
H225 C221 0.950 . S
H226 C223 0.950 . S
C227 C218 1.390 . S
C227 H220 0.950 . S
C227 C224 1.387 . S
C228 C229 1.387 . S
C228 H232 0.950 . S
C228 C237 1.390 . S
C229 C228 1.387 . S
C229 C231 1.387 . S
H230 C237 0.950 . S
C231 C229 1.387 . S
C231 C233 1.390 . S
C231 H235 0.950 . S
H232 C228 0.950 . S
C233 C231 1.390 . S
C233 C234 1.387 . S
C233 H236 0.950 . S
C234 C233 1.387 . S
C234 C237 1.387 . S
H235 C231 0.950 . S
H236 C233 0.950 . S
C237 C228 1.390 . S
C237 H230 0.950 . S
C237 C234 1.387 . S
C238 C239 1.387 1_455 S
C238 H242 0.950 1_455 S
C238 C247 1.390 . S
C239 C238 1.387 1_655 S
C239 C241 1.390 . S
H240 C247 0.950 . S
C241 C239 1.390 . S
C241 C243 1.385 1_655 S
C241 H245 0.952 . S
H242 C238 0.950 1_655 S
C243 C241 1.385 1_455 S
C243 C244 1.387 . S
C243 H246 0.950 . S
C244 C243 1.387 . S
C244 C247 1.387 . S
H245 C241 0.952 . S
H246 C243 0.950 . S
C247 C238 1.390 . S
C247 H240 0.950 . S
C247 C244 1.387 . S
C248 C249 1.387 . S
C248 H252 0.950 . S
C248 C257 1.390 . S
C249 C248 1.387 . S
C249 C251 1.387 . S
H250 C257 0.950 . S
C251 C249 1.387 . S
C251 C253 1.390 . S
C251 H255 0.950 . S
H252 C248 0.950 . S
C253 C251 1.390 . S
C253 C254 1.387 . S
C253 H256 0.950 . S
C254 C253 1.387 . S
C254 C257 1.387 . S
H255 C251 0.950 . S
H256 C253 0.950 . S
C257 C248 1.390 . S
C257 H250 0.950 . S
C257 C254 1.387 . S
C258 C259 1.387 . S
C258 H262 0.950 . S
C258 C267 1.390 1_455 S
C259 C258 1.387 . S
C259 C261 1.387 1_455 S
H260 C267 0.950 . S
C261 C259 1.387 1_655 S
C261 C263 1.390 . S
C261 H265 0.950 1_655 S
H262 C258 0.950 . S
C263 C261 1.390 . S
C263 C264 1.387 . S
C263 H266 0.950 . S
C264 C263 1.387 . S
C264 C267 1.387 . S
H265 C261 0.950 1_455 S
H266 C263 0.950 . S
C267 C258 1.390 1_655 S
C267 H260 0.950 . S
C267 C264 1.387 . S
C268 C269 1.387 . S
C268 H272 0.950 . S
C268 C277 1.390 . S
C269 C268 1.387 . S
C269 C271 1.387 . S
H270 C277 0.950 . S
C271 C269 1.387 . S
C271 C273 1.390 . S
C271 H275 0.950 . S
H272 C268 0.950 . S
C273 C271 1.390 . S
C273 C274 1.387 . S
C273 H276 0.950 . S
C274 C273 1.387 . S
C274 C277 1.387 . S
H275 C271 0.950 . S
H276 C273 0.950 . S
C277 C268 1.390 . S
C277 H270 0.950 . S
C277 C274 1.387 . S
C278 C279 1.387 . S
C278 H282 0.950 . S
C278 C287 1.390 . S
C279 C278 1.387 . S
C279 C281 1.387 . S
H280 C287 0.950 . S
C281 C279 1.387 . S
C281 C283 1.390 . S
C281 H285 0.950 . S
H282 C278 0.950 . S
C283 C281 1.390 . S
C283 C284 1.387 . S
C283 H286 0.950 . S
C284 C283 1.387 . S
C284 C287 1.387 . S
H285 C281 0.950 . S
H286 C283 0.950 . S
C287 C278 1.390 . S
C287 H280 0.950 . S
C287 C284 1.387 . S
C288 C289 1.387 . S
C288 H292 0.950 . S
C288 C297 1.390 . S
C289 C288 1.387 . S
C289 C291 1.387 . S
H290 C297 0.950 . S
C291 C289 1.387 . S
C291 C293 1.390 . S
C291 H295 0.950 . S
H292 C288 0.950 . S
C293 C291 1.390 . S
C293 C294 1.387 . S
C293 H296 0.950 . S
C294 C293 1.387 . S
C294 C297 1.387 . S
H295 C291 0.950 . S
H296 C293 0.950 . S
C297 C288 1.390 . S
C297 H290 0.950 . S
C297 C294 1.387 . S
C298 C299 1.387 . S
C298 H302 0.950 . S
C298 C307 1.390 . S
C299 C298 1.387 . S
C299 C301 1.387 . S
H300 C307 0.950 . S
C301 C299 1.387 . S
C301 C303 1.390 . S
C301 H305 0.950 . S
H302 C298 0.950 . S
C303 C301 1.390 . S
C303 C304 1.387 . S
C303 H306 0.950 . S
C304 C303 1.387 . S
C304 C307 1.387 . S
H305 C301 0.950 . S
H306 C303 0.950 . S
C307 C298 1.390 . S
C307 H300 0.950 . S
C307 C304 1.387 . S
C308 C309 1.387 . S
C308 H312 0.950 . S
C308 C317 1.390 . S
C309 C308 1.387 . S
C309 C311 1.387 . S
H310 C317 0.950 . S
C311 C309 1.387 . S
C311 C313 1.390 . S
C311 H315 0.950 . S
H312 C308 0.950 . S
C313 C311 1.390 . S
C313 C314 1.387 . S
C313 H316 0.950 . S
C314 C313 1.387 . S
C314 C317 1.387 . S
H315 C311 0.950 . S
H316 C313 0.950 . S
C317 C308 1.390 . S
C317 H310 0.950 . S
C317 C314 1.387 . S
C318 C319 1.387 . S
C318 H322 0.950 . S
C318 C327 1.390 . S
C319 C318 1.387 . S
C319 C321 1.387 . S
H320 C327 0.950 . S
C321 C319 1.387 . S
C321 C323 1.390 . S
C321 H325 0.950 . S
H322 C318 0.950 . S
C323 C321 1.390 . S
C323 C324 1.387 . S
C323 H326 0.950 . S
C324 C323 1.387 . S
C324 C327 1.387 . S
H325 C321 0.950 . S
H326 C323 0.950 . S
C327 C318 1.390 . S
C327 H320 0.950 . S
C327 C324 1.387 . S
C328 C329 1.387 . S
C328 H332 0.950 . S
C328 C337 1.390 . S
C329 C328 1.387 . S
C329 C331 1.387 . S
H330 C337 0.950 . S
C331 C329 1.387 . S
C331 C333 1.390 . S
C331 H335 0.950 . S
H332 C328 0.950 . S
C333 C331 1.390 . S
C333 C334 1.387 . S
C333 H336 0.950 . S
C334 C333 1.387 . S
C334 C337 1.387 . S
H335 C331 0.950 . S
H336 C333 0.950 . S
C337 C328 1.390 . S
C337 H330 0.950 . S
C337 C334 1.387 . S
C338 C339 1.387 . S
C338 H342 0.950 . S
C338 C347 1.390 . S
C339 C338 1.387 . S
C339 C341 1.387 . S
H340 C347 0.950 . S
C341 C339 1.387 . S
C341 C343 1.390 . S
C341 H345 0.950 . S
H342 C338 0.950 . S
C343 C341 1.390 . S
C343 C344 1.387 . S
C343 H346 0.950 . S
C344 C343 1.387 . S
C344 C347 1.387 . S
H345 C341 0.950 . S
H346 C343 0.950 . S
C347 C338 1.390 . S
C347 H340 0.950 . S
C347 C344 1.387 . S
C348 C349 1.387 . S
C348 H352 0.950 . S
C348 C357 1.390 . S
C349 C348 1.387 . S
C349 C351 1.387 . S
H350 C357 0.950 . S
C351 C349 1.387 . S
C351 C353 1.390 . S
C351 H355 0.950 . S
H352 C348 0.950 . S
C353 C351 1.390 . S
C353 C354 1.387 . S
C353 H356 0.950 . S
C354 C353 1.387 . S
C354 C357 1.387 . S
H355 C351 0.950 . S
H356 C353 0.950 . S
C357 C348 1.390 . S
C357 H350 0.950 . S
C357 C354 1.387 . S
C358 C359 1.387 . S
C358 H362 0.950 . S
C358 C367 1.390 . S
C359 C358 1.387 . S
C359 C361 1.387 . S
H360 C367 0.950 . S
C361 C359 1.387 . S
C361 C363 1.390 . S
C361 H365 0.950 . S
H362 C358 0.950 . S
C363 C361 1.390 . S
C363 C364 1.387 . S
C363 H366 0.950 . S
C364 C363 1.387 . S
C364 C367 1.387 . S
H365 C361 0.950 . S
H366 C363 0.950 . S
C367 C358 1.390 . S
C367 H360 0.950 . S
C367 C364 1.387 . S
C368 C369 1.387 . S
C368 H372 0.950 . S
C368 C377 1.390 . S
C369 C368 1.387 . S
C369 C371 1.387 . S
H370 C377 0.950 . S
C371 C369 1.387 . S
C371 C373 1.390 . S
C371 H375 0.950 . S
H372 C368 0.950 . S
C373 C371 1.390 . S
C373 C374 1.387 . S
C373 H376 0.950 . S
C374 C373 1.387 . S
C374 C377 1.387 . S
H375 C371 0.950 . S
H376 C373 0.950 . S
C377 C368 1.390 . S
C377 H370 0.950 . S
C377 C374 1.387 . S
C378 C379 1.387 . S
C378 H382 0.950 . S
C378 C387 1.390 . S
C379 C378 1.387 . S
C379 C381 1.387 . S
H380 C387 0.950 . S
C381 C379 1.387 . S
C381 C383 1.390 . S
C381 H385 0.950 . S
H382 C378 0.950 . S
C383 C381 1.390 . S
C383 C384 1.387 . S
C383 H386 0.950 . S
C384 C383 1.387 . S
C384 C387 1.387 . S
H385 C381 0.950 . S
H386 C383 0.950 . S
C387 C378 1.390 . S
C387 H380 0.950 . S
C387 C384 1.387 . S
C388 C389 1.387 . S
C388 H392 0.950 . S
C388 C397 1.390 . S
C389 C388 1.387 . S
C389 C391 1.387 . S
H390 C397 0.950 . S
C391 C389 1.387 . S
C391 C393 1.390 . S
C391 H395 0.950 . S
H392 C388 0.950 . S
C393 C391 1.390 . S
C393 C394 1.387 . S
C393 H396 0.950 . S
C394 C393 1.387 . S
C394 C397 1.387 . S
H395 C391 0.950 . S
H396 C393 0.950 . S
C397 C388 1.390 . S
C397 H390 0.950 . S
C397 C394 1.387 . S
C398 C399 1.387 . S
C398 H402 0.950 . S
C398 C407 1.390 . S
C399 C398 1.387 . S
C399 C401 1.387 . S
H400 C407 0.950 . S
C401 C399 1.387 . S
C401 C403 1.390 . S
C401 H405 0.950 . S
H402 C398 0.950 . S
C403 C401 1.390 . S
C403 C404 1.387 . S
C403 H406 0.950 . S
C404 C403 1.387 . S
C404 C407 1.387 . S
H405 C401 0.950 . S
H406 C403 0.950 . S
C407 C398 1.390 . S
C407 H400 0.950 . S
C407 C404 1.387 . S
C408 C409 1.387 . S
C408 H412 0.950 . S
C408 C417 1.390 . S
C409 C408 1.387 . S
C409 C411 1.387 . S
H410 C417 0.950 . S
C411 C409 1.387 . S
C411 C413 1.390 . S
C411 H415 0.950 . S
H412 C408 0.950 . S
C413 C411 1.390 . S
C413 C414 1.387 . S
C413 H416 0.950 . S
C414 C413 1.387 . S
C414 C417 1.387 . S
H415 C411 0.950 . S
H416 C413 0.950 . S
C417 C408 1.390 . S
C417 H410 0.950 . S
C417 C414 1.387 . S
C418 C419 1.387 . S
C418 H422 0.950 . S
C418 C427 1.390 . S
C419 C418 1.387 . S
C419 C421 1.387 . S
H420 C427 0.950 . S
C421 C419 1.387 . S
C421 C423 1.390 . S
C421 H425 0.950 . S
H422 C418 0.950 . S
C423 C421 1.390 . S
C423 C424 1.387 . S
C423 H426 0.950 . S
C424 C423 1.387 . S
C424 C427 1.387 . S
H425 C421 0.950 . S
H426 C423 0.950 . S
C427 C418 1.390 . S
C427 H420 0.950 . S
C427 C424 1.387 . S
C189 C7 0.967 . S
C194 N89 1.040 . S
C199 C25 0.968 . S
C204 N102 1.042 . S
C209 C46 0.965 . S
C214 N111 1.036 . S
C224 N128 1.037 . S
C219 C70 0.960 . S
C234 N141 1.040 . S
C229 C28 0.967 . S
C239 C49 0.966 . S
C244 N150 1.037 . S
C249 C67 0.962 . S
C254 N163 1.038 . S
C259 C4 0.961 . S
C264 N180 1.040 . S
C269 C58 1.557 1_565 S
C274 N176 1.664 . S
C284 N137 1.663 . S
C279 C66 1.557 . S
C294 N154 1.671 . S
C289 C3 1.565 1_545 S
C299 C37 1.560 . S
C304 N167 1.671 . S
C314 N98 1.665 . S
C309 C79 1.562 . S
C319 C16 1.566 1_655 S
C324 N115 1.671 . S
C334 N124 1.664 . S
C329 C24 1.558 . S
C344 N85 1.664 . S
C339 C45 1.557 1_455 S
C354 N164 1.432 . S
C349 C19 1.279 . S
C364 N177 1.427 . S
C359 C41 1.276 . S
C369 C62 1.279 . S
C374 N138 1.425 . S
C384 N151 1.429 . S
C379 C82 1.276 . S
C394 N112 1.430 . S
C389 C40 1.276 . S
C399 C61 1.273 . S
C404 N125 1.425 . S
C414 N86 1.426 . S
C409 C83 1.276 . S
C424 N99 1.429 . S
C419 C20 1.277 . S
