# Generated by pormake.
# Topology anh, (6,3)-cn, num edge types: 1
# Building blocks:
#     Node 0, Type 0, BuildingBlock: PAMTOO_clean_sbu_0, # of connection points: 6
#     Node 1, Type 0, BuildingBlock: PAMTOO_clean_sbu_0, # of connection points: 6
#     Node 2, Type 0, BuildingBlock: PAMTOO_clean_sbu_0, # of connection points: 6
#     Node 3, Type 1, BuildingBlock: BETDAH_clean_linker_0, # of connection points: 3
#     Node 4, Type 1, BuildingBlock: BETDAH_clean_linker_0, # of connection points: 3
#     Node 5, Type 1, BuildingBlock: BETDAH_clean_linker_0, # of connection points: 3
#     Node 6, Type 1, BuildingBlock: BETDAH_clean_linker_0, # of connection points: 3
#     Node 7, Type 1, BuildingBlock: BETDAH_clean_linker_0, # of connection points: 3
#     Node 8, Type 1, BuildingBlock: BETDAH_clean_linker_0, # of connection points: 3
#     Edge 9, Type (0, 1), BuildingBlock: OJICUG_clean_linker_0, # of connection points: 2
#     Edge 10, Type (0, 1), BuildingBlock: OJICUG_clean_linker_0, # of connection points: 2
#     Edge 11, Type (0, 1), BuildingBlock: OJICUG_clean_linker_0, # of connection points: 2
#     Edge 12, Type (0, 1), BuildingBlock: OJICUG_clean_linker_0, # of connection points: 2
#     Edge 13, Type (0, 1), BuildingBlock: OJICUG_clean_linker_0, # of connection points: 2
#     Edge 14, Type (0, 1), BuildingBlock: OJICUG_clean_linker_0, # of connection points: 2
#     Edge 15, Type (0, 1), BuildingBlock: OJICUG_clean_linker_0, # of connection points: 2
#     Edge 16, Type (0, 1), BuildingBlock: OJICUG_clean_linker_0, # of connection points: 2
#     Edge 17, Type (0, 1), BuildingBlock: OJICUG_clean_linker_0, # of connection points: 2
#     Edge 18, Type (0, 1), BuildingBlock: OJICUG_clean_linker_0, # of connection points: 2
#     Edge 19, Type (0, 1), BuildingBlock: OJICUG_clean_linker_0, # of connection points: 2
#     Edge 20, Type (0, 1), BuildingBlock: OJICUG_clean_linker_0, # of connection points: 2
#     Edge 21, Type (0, 1), BuildingBlock: OJICUG_clean_linker_0, # of connection points: 2
#     Edge 22, Type (0, 1), BuildingBlock: OJICUG_clean_linker_0, # of connection points: 2
#     Edge 23, Type (0, 1), BuildingBlock: OJICUG_clean_linker_0, # of connection points: 2
#     Edge 24, Type (0, 1), BuildingBlock: OJICUG_clean_linker_0, # of connection points: 2
#     Edge 25, Type (0, 1), BuildingBlock: OJICUG_clean_linker_0, # of connection points: 2
#     Edge 26, Type (0, 1), BuildingBlock: OJICUG_clean_linker_0, # of connection points: 2
# Relax obj value: 0.214
# Max RMSD: 0.184
# Mean RMSD: 0.116
data_MOF--net-anh--node1-PAMTOO_clean_sbu_0--node2-BETDAH_clean_linker_0--edge1-OJICUG_clean_linker_0
_symmetry_space_group_name_H-M    P1
_symmetry_Int_Tables_number       1
_symmetry_cell_setting            triclinic
loop_
_symmetry_equiv_pos_as_xyz
'x, y, z'
_cell_length_a     22.944591
_cell_length_b     21.948288
_cell_length_c     36.013259
_cell_angle_alpha  93.581153
_cell_angle_beta   96.420764
_cell_angle_gamma 97.713463
loop_
_atom_site_label
_atom_site_type_symbol
_atom_site_fract_x
_atom_site_fract_y
_atom_site_fract_z
_atom_type_partial_charge
Dy0 Dy 1.08846 0.64325 0.14554 0.0
Dy1 Dy 1.06828 0.49418 0.12933 0.0
C2 C 1.07452 0.58352 0.06493 0.0
O3 O 0.98864 0.62108 0.14983 0.0
O4 O 0.97373 0.51998 0.12573 0.0
O5 O 0.11179 0.72903 0.12126 0.0
O6 O 1.09199 0.72985 0.17862 0.0
O7 O 1.06587 0.50879 0.19096 0.0
O8 O 0.10908 0.60995 0.2018 0.0
O9 O 0.16979 0.51443 0.13602 0.0
O10 O 0.1823 0.62035 0.13809 0.0
O11 O 1.08379 0.40279 0.14265 0.0
O12 O 1.02334 0.41488 0.09384 0.0
C13 C 0.95193 0.56989 0.13759 0.0
O14 O 1.04838 0.61762 0.08685 0.0
O15 O 1.09631 0.53595 0.07795 0.0
C16 C 0.171 0.80365 0.16459 0.0
C17 C 0.28444 0.87216 0.18638 0.0
C18 C 0.26339 0.85752 0.14827 0.0
C19 C 0.20726 0.824 0.13751 0.0
C20 C 0.19092 0.82053 0.20264 0.0
C21 C 0.24702 0.85441 0.21341 0.0
C22 C 0.11465 0.76193 0.15301 0.0
C23 C 1.09002 0.55659 0.21376 0.0
C24 C 0.20515 0.56771 0.13676 0.0
C25 C 0.99686 0.33186 0.12958 0.0
C26 C 0.90777 0.24818 0.15445 0.0
C27 C 0.91645 0.31086 0.16756 0.0
C28 C 0.96051 0.35228 0.1552 0.0
C29 C 0.98896 0.26948 0.11663 0.0
C30 C 0.94476 0.22792 0.12895 0.0
C31 C 1.04274 0.37594 0.11654 0.0
H32 H 0.29107 0.87001 0.12669 0.0
H33 H 0.19306 0.81235 0.10791 0.0
H34 H 0.16381 0.80637 0.22421 0.0
H35 H 0.26132 0.8661 0.24298 0.0
H36 H 0.88934 0.32793 0.18752 0.0
H37 H 0.96618 0.40039 0.16559 0.0
H38 H 1.01662 0.25302 0.0968 0.0
H39 H 0.93875 0.18019 0.11786 0.0
Dy40 Dy 0.57755 0.03239 0.50856 0.0
Dy41 Dy 0.72192 0.0556 0.51939 0.0
C42 C 0.64816 0.03566 0.58929 0.0
O43 O 0.60325 0.13258 0.52794 0.0
O44 O 0.69467 0.14805 0.50735 0.0
O45 O 0.49246 0.0314 0.52922 0.0
O46 O 0.49749 1.00938 0.47025 0.0
O47 O 0.69406 0.03612 0.45776 0.0
O48 O 0.60571 0.07252 0.45703 0.0
O49 O 0.6974 0.95579 0.52967 0.0
O50 O 0.60529 0.93957 0.49585 0.0
O51 O 0.80548 0.03441 0.50349 0.0
O52 O 0.8039 0.10272 0.54923 0.0
C53 C 0.6482 0.1699 0.51851 0.0
O54 O 0.60302 1.00692 0.56646 0.0
O55 O 0.69355 0.06707 0.57654 0.0
C56 C 0.41943 0.95501 0.49584 0.0
C57 C 0.34448 0.84122 0.48353 0.0
C58 C 0.39366 0.84956 0.51141 0.0
C59 C 0.43114 0.90586 0.5173 0.0
C60 C 0.36891 0.94803 0.46947 0.0
C61 C 0.33182 0.89166 0.46326 0.0
C62 C 0.46327 1.01034 0.49674 0.0
C63 C 0.6491 0.05692 0.43952 0.0
C64 C 0.65127 0.91801 0.51279 0.0
C65 C 0.88102 0.11979 0.51212 0.0
C66 C 0.96618 0.20814 0.48785 0.0
C67 C 0.90681 0.20095 0.47151 0.0
C68 C 0.86444 0.15719 0.48368 0.0
C69 C 0.94028 0.1257 0.5278 0.0
C70 C 0.98257 0.16946 0.51576 0.0
C71 C 0.83651 0.07709 0.5272 0.0
H72 H 0.40422 0.81208 0.52794 0.0
H73 H 0.47041 0.9102 0.53755 0.0
H74 H 0.35974 0.98529 0.45232 0.0
H75 H 0.29507 0.88686 0.44114 0.0
H76 H 0.8928 0.23043 0.4502 0.0
H77 H 0.8186 0.15338 0.47149 0.0
H78 H 0.95368 0.09718 0.54982 0.0
H79 H 1.0281 0.17332 0.52851 0.0
Dy80 Dy 0.67573 0.53491 0.83268 0.0
Dy81 Dy 0.53408 0.52125 0.8132 0.0
C82 C 0.61903 0.52827 0.7501 0.0
O83 O 0.65771 0.63147 0.82153 0.0
O84 O 0.55943 0.622 0.82998 0.0
O85 O 0.76242 0.5756 0.82281 0.0
O86 O 0.75307 0.50685 0.86348 0.0
O87 O 0.55209 0.51155 0.87534 0.0
O88 O 0.64391 0.56886 0.88493 0.0
O89 O 0.5547 0.42525 0.802 0.0
O90 O 0.6419 0.43605 0.8408 0.0
O91 O 0.44497 0.50867 0.82818 0.0
O92 O 0.45935 0.51769 0.77038 0.0
C93 C 0.60944 0.6564 0.82593 0.0
O94 O 0.65462 0.50182 0.77267 0.0
O95 O 0.57575 0.55292 0.76303 0.0
C96 C 0.83452 0.5084 0.82821 0.0
C97 C 0.93993 0.48503 0.80103 0.0
C98 C 0.89029 0.49207 0.77583 0.0
C99 C 0.83786 0.50408 0.78938 0.0
C100 C 0.88019 0.49109 0.85251 0.0
C101 C 0.9323 0.47871 0.83901 0.0
C102 C 0.78898 0.53936 0.84423 0.0
C103 C 0.59579 0.54433 0.89789 0.0
C104 C 0.59714 0.40078 0.82069 0.0
C105 C 0.39154 0.57634 0.79408 0.0
C106 C 0.34568 0.68929 0.79089 0.0
C107 C 0.37103 0.67104 0.82509 0.0
C108 C 0.39382 0.61563 0.82665 0.0
C109 C 0.36587 0.59389 0.75981 0.0
C110 C 0.34304 0.64989 0.75821 0.0
C111 C 0.4226 0.52169 0.79518 0.0
H112 H 0.89435 0.49593 0.74636 0.0
H113 H 0.80222 0.51547 0.76986 0.0
H114 H 0.87792 0.49289 0.88246 0.0
H115 H 0.96913 0.47283 0.85942 0.0
H116 H 0.37207 0.69882 0.85115 0.0
H117 H 0.41385 0.60412 0.85352 0.0
H118 H 0.36442 0.56478 0.7342 0.0
H119 H 0.32345 0.66233 0.73148 0.0
H120 H 0.51576 1.00034 0.28815 0.0
H121 H 0.6901 0.06431 0.26036 0.0
H122 H 0.55206 0.98261 0.17384 0.0
C123 C 0.54629 1.0076 0.2674 0.0
C124 C 0.52658 0.98883 0.2297 0.0
C125 C 0.60507 0.03482 0.27878 0.0
C126 C 0.64458 0.04379 0.25176 0.0
C127 C 0.62504 0.02535 0.21371 0.0
C128 C 0.56642 0.99766 0.20306 0.0
N129 N 0.66323 0.03199 0.18541 0.0
C130 C 0.71386 0.07522 0.18772 0.0
H131 H 0.64083 0.41449 0.59861 0.0
H132 H 0.64573 0.60572 0.57802 0.0
H133 H 0.65126 0.46958 0.48687 0.0
C134 C 0.64331 0.45038 0.5792 0.0
C135 C 0.64556 0.43419 0.54127 0.0
C136 C 0.64389 0.51178 0.59264 0.0
C137 C 0.64572 0.55837 0.56754 0.0
C138 C 0.64884 0.54366 0.52919 0.0
C139 C 0.64928 0.48133 0.51633 0.0
N140 N 0.65147 0.58987 0.50289 0.0
C141 C 0.65032 0.65308 0.51078 0.0
H142 H 0.10272 0.57574 0.89683 0.0
H143 H 0.14641 0.76609 0.93797 0.0
H144 H 0.13989 0.71377 0.82048 0.0
C145 C 0.11785 0.62301 0.89167 0.0
C146 C 0.12224 0.63881 0.8548 0.0
C147 C 0.1263 0.66815 0.9218 0.0
C148 C 0.14007 0.73059 0.91501 0.0
C149 C 0.14693 0.74732 0.87863 0.0
C150 C 0.1379 0.70108 0.84876 0.0
N151 N 0.16249 0.81052 0.8723 0.0
C152 C 0.19673 0.82625 0.84394 0.0
H153 H 0.18616 0.64405 0.37622 0.0
H154 H 0.1312 0.4483 0.37844 0.0
H155 H 0.24177 0.55042 0.47193 0.0
C156 C 0.18394 0.60206 0.3906 0.0
C157 C 0.21468 0.60418 0.42664 0.0
C158 C 0.15416 0.54604 0.37231 0.0
C159 C 0.15416 0.49199 0.39157 0.0
C160 C 0.18621 0.49378 0.42737 0.0
C161 C 0.21697 0.54955 0.4444 0.0
N162 N 0.19113 0.4396 0.44608 0.0
C163 C 0.14316 0.39506 0.44868 0.0
H164 H 0.61929 0.15777 0.73902 0.0
H165 H 0.62591 0.96917 0.76266 0.0
H166 H 0.6007 0.10334 0.85022 0.0
C167 C 0.61748 0.12247 0.75882 0.0
C168 C 0.60843 0.13817 0.79584 0.0
C169 C 0.6243 0.06207 0.74684 0.0
C170 C 0.62096 0.01582 0.77212 0.0
C171 C 0.61282 0.03035 0.80968 0.0
C172 C 0.60721 0.0919 0.82141 0.0
N173 N 0.61033 0.9847 0.83631 0.0
C174 C 0.61187 0.92151 0.82876 0.0
H175 H 0.70578 0.5594 0.05798 0.0
H176 H 0.52153 0.56384 0.06941 0.0
H177 H 0.64988 0.57141 0.16809 0.0
C178 C 0.67129 0.56203 0.07608 0.0
C179 C 0.68715 0.56545 0.11495 0.0
C180 C 0.61255 0.5622 0.05966 0.0
C181 C 0.56646 0.56391 0.0824 0.0
C182 C 0.5783 0.56743 0.12171 0.0
C183 C 0.6396 0.56873 0.13791 0.0
N184 N 0.53049 0.57006 0.14523 0.0
C185 C 0.46769 0.56918 0.13552 0.0
C186 C 0.29893 0.51317 0.13353 0.0
C187 C 0.27285 0.56828 0.1355 0.0
H188 H 0.37821 0.46978 0.13171 0.0
C189 C 0.31298 0.62371 0.13619 0.0
H190 H 0.27111 0.4691 0.13291 0.0
C191 C 0.37527 0.62395 0.13532 0.0
C192 C 0.40107 0.56883 0.1335 0.0
H193 H 0.29632 0.66756 0.1377 0.0
H194 H 0.40352 0.66789 0.13652 0.0
C195 C 0.36117 0.51347 0.13264 0.0
C196 C 1.0137 0.26882 0.43929 0.0
C197 C 1.01066 0.25732 0.47712 0.0
H198 H 1.05921 0.32229 0.40038 0.0
C199 C 1.05079 0.29319 0.50501 0.0
H200 H 0.98351 0.24172 0.41721 0.0
C201 C 1.09362 0.33876 0.49534 0.0
C202 C 1.09708 0.34929 0.4577 0.0
H203 H 1.0489 0.28628 0.5344 0.0
H204 H 0.12432 0.36556 0.51733 0.0
C205 C 1.05688 0.31453 0.42963 0.0
C206 C 0.66326 0.76469 0.8231 0.0
C207 C 0.61053 0.72488 0.82578 0.0
H208 H 0.70497 0.85847 0.82176 0.0
C209 C 0.55812 0.7513 0.82804 0.0
H210 H 0.70444 0.74634 0.82123 0.0
C211 C 0.55856 0.81535 0.82809 0.0
C212 C 0.61127 0.85477 0.82583 0.0
H213 H 0.5165 0.72253 0.82995 0.0
H214 H 0.51765 0.83413 0.83038 0.0
C215 C 0.66361 0.82894 0.82323 0.0
C216 C 0.84399 0.51453 0.12121 0.0
C217 C 0.8836 0.56797 0.13587 0.0
H218 H 0.75385 0.47142 0.10414 0.0
C219 C 0.85621 0.61908 0.14768 0.0
H220 H 0.86152 0.47373 0.11159 0.0
C221 C 0.79302 0.61724 0.14393 0.0
C222 C 0.75368 0.56409 0.12833 0.0
H223 H 0.88373 0.66153 0.15908 0.0
H224 H 0.77503 0.65869 0.15173 0.0
C225 C 0.78123 0.51287 0.11729 0.0
C226 C 0.33801 0.72623 0.47253 0.0
C227 C 0.30955 0.77921 0.47317 0.0
H228 H 0.33007 0.62922 0.45737 0.0
C229 C 0.24849 0.7729 0.46087 0.0
H230 H 0.38513 0.72934 0.48115 0.0
C231 C 0.2174 0.71569 0.44653 0.0
C232 C 0.24646 0.66345 0.44478 0.0
H233 H 0.22484 0.81238 0.46165 0.0
H234 H 0.17072 0.71235 0.43637 0.0
C235 C 0.30665 0.66886 0.4587 0.0
C236 C 0.63697 0.30362 0.84022 0.0
C237 C 0.59611 0.33225 0.81753 0.0
H238 H 0.6721 0.21959 0.85184 0.0
C239 C 0.55589 0.29486 0.7903 0.0
H240 H 0.66852 0.33075 0.86158 0.0
C241 C 0.55829 0.23149 0.78469 0.0
C242 C 0.60037 0.20327 0.80644 0.0
H243 H 0.52373 0.31486 0.7723 0.0
H244 H 0.52809 0.20462 0.7625 0.0
C245 C 0.6388 0.2398 0.8349 0.0
C246 C 0.69989 0.8247 0.52987 0.0
C247 C 0.65054 0.84959 0.51334 0.0
H248 H 0.73833 0.74281 0.5422 0.0
C249 C 0.60029 0.80818 0.49743 0.0
H250 H 0.73935 0.8548 0.54249 0.0
C251 C 0.5998 0.74405 0.49753 0.0
C252 C 0.64937 0.71962 0.51359 0.0
H253 H 0.56127 0.82523 0.48463 0.0
H254 H 0.56084 0.7135 0.48452 0.0
C255 C 0.69933 0.76049 0.52989 0.0
C256 C 1.00922 0.56593 0.77851 0.0
C257 C 1.00053 0.50714 0.79219 0.0
H258 H 1.05622 0.6566 0.78884 0.0
C259 C 1.04941 0.48622 0.81197 0.0
H260 H 0.9738 0.58301 0.76156 0.0
C261 C 1.09811 0.52898 0.82748 0.0
C262 C 1.09742 0.59224 0.82314 0.0
H263 H 1.04536 0.43999 0.82125 0.0
H264 H 0.13093 0.51397 0.84757 0.0
C265 C 1.05715 0.60887 0.79449 0.0
C266 C 0.37182 0.94999 0.17722 0.0
C267 C 0.34608 0.90334 0.19786 0.0
H268 H 0.44902 0.01364 0.17114 0.0
C269 C 0.3804 0.88509 0.22895 0.0
H270 H 0.34646 0.96572 0.1534 0.0
C271 C 0.43888 0.91281 0.23918 0.0
C272 C 0.46459 0.95919 0.21846 0.0
H273 H 0.36253 0.84842 0.245 0.0
H274 H 0.46436 0.89722 0.26301 0.0
C275 C 0.43053 0.97746 0.18733 0.0
C276 C 0.59753 0.26131 0.53438 0.0
C277 C 0.64582 0.23788 0.52064 0.0
H278 H 0.55933 0.34122 0.55079 0.0
C279 C 0.69152 0.28023 0.50973 0.0
H280 H 0.56123 0.23058 0.54282 0.0
C281 C 0.68989 0.34427 0.51391 0.0
C282 C 0.64272 0.3673 0.52925 0.0
H283 H 0.72926 0.26402 0.4988 0.0
H284 H 0.7268 0.37578 0.50686 0.0
C285 C 0.59615 0.32491 0.53873 0.0
C286 C 0.33754 0.79533 0.81772 0.0
C287 C 0.31569 0.74519 0.79127 0.0
H288 H 0.31393 0.86375 0.85601 0.0
C289 C 0.25828 0.74249 0.77232 0.0
H290 H 0.38257 0.8005 0.83153 0.0
C291 C 0.22006 0.78145 0.78502 0.0
C292 C 0.23849 0.82106 0.81745 0.0
H293 H 0.24021 0.70543 0.75123 0.0
H294 H 0.17384 0.7733 0.7733 0.0
C295 C 0.29864 0.83255 0.83128 0.0
C296 C 0.80315 0.22296 0.16929 0.0
C297 C 0.85906 0.20461 0.16631 0.0
H298 H 0.713 0.19558 0.17885 0.0
C299 C 0.86722 0.14377 0.17343 0.0
H300 H 0.79501 0.26912 0.16353 0.0
C301 C 0.82008 0.10183 0.18211 0.0
C302 C 0.76427 0.12015 0.18397 0.0
H303 H 0.90985 0.12836 0.17189 0.0
H304 H 0.82686 0.05472 0.18638 0.0
C305 C 0.75616 0.181 0.178 0.0
C306 C 0.12283 0.57383 0.00633 0.0
C307 C 1.08689 0.60446 0.02802 0.0
H308 H 0.165 0.5712 0.95631 0.0
C309 C 1.06618 0.65795 0.01533 0.0
H310 H 0.14019 0.53306 0.01555 0.0
C311 C 1.08063 0.67998 0.98146 0.0
C312 C 0.116 0.64893 0.95957 0.0
H313 H 1.03873 0.68294 0.03154 0.0
H314 H 1.06281 0.72034 0.97194 0.0
C315 C 0.13729 0.59589 0.97251 0.0
C316 C 0.68318 0.03229 0.37691 0.0
C317 C 0.64469 0.05991 0.39834 0.0
H318 H 0.701 1.0031 0.32174 0.0
C319 C 0.59854 0.08679 0.37976 0.0
H320 H 0.71938 0.01151 0.39039 0.0
C321 C 0.58841 0.0823 0.34073 0.0
C322 C 0.62413 0.05085 0.31931 0.0
H323 H 0.5686 0.10933 0.39532 0.0
H324 H 0.55091 0.10115 0.32726 0.0
C325 C 0.67296 0.02781 0.33764 0.0
C326 C 0.67535 0.50391 0.69699 0.0
C327 C 0.62823 0.53018 0.71014 0.0
H328 H 0.71774 0.47893 0.64948 0.0
C329 C 0.58989 0.5568 0.68466 0.0
H330 H 0.7062 0.4837 0.71585 0.0
C331 C 0.59697 0.55444 0.64645 0.0
C332 C 0.64229 0.5252 0.63326 0.0
H333 H 0.55346 0.57788 0.69401 0.0
H334 H 0.5654 0.5727 0.62704 0.0
C335 C 0.68222 0.5014 0.659 0.0
C336 C 0.60152 0.99855 0.64527 0.0
C337 C 0.64594 0.03674 0.63028 0.0
H338 H 0.56049 0.97595 0.69441 0.0
C339 C 0.68639 0.07885 0.6547 0.0
H340 H 0.56987 0.96537 0.62724 0.0
C341 C 0.68067 0.08503 0.69287 0.0
C342 C 0.6349 0.0487 0.70756 0.0
H343 H 0.72123 0.10884 0.64418 0.0
H344 H 0.71113 0.11946 0.71083 0.0
C345 C 0.5963 1.00424 0.68369 0.0
C346 C 0.63458 0.5981 0.96054 0.0
C347 C 0.59336 0.55277 0.93891 0.0
H348 H 0.6717 0.63728 0.01524 0.0
C349 C 0.55353 0.51435 0.95729 0.0
H350 H 0.66527 0.6293 0.94741 0.0
C351 C 0.55743 0.51902 -0.00333 0.0
C352 C 0.60116 0.56217 0.01814 0.0
H353 H 0.52112 0.47913 0.94141 0.0
H354 H 0.5282 0.48711 0.01033 0.0
C355 C 0.63833 0.60279 -0.00049 0.0
C356 C 0.11616 0.4963 0.26831 0.0
C357 C 1.09818 0.54999 0.25439 0.0
H358 H 0.14952 0.45329 0.31629 0.0
C359 C 1.09183 0.5992 0.27963 0.0
H360 H 0.12143 0.45775 0.24928 0.0
C361 C 0.10562 0.5959 0.31813 0.0
C362 C 0.1283 0.54422 0.33222 0.0
H363 H 1.07699 0.6407 0.26954 0.0
H364 H 0.1002 0.6349 0.33672 0.0
C365 C 0.13178 0.49368 0.30682 0.0
loop_
_geom_bond_atom_site_label_1
_geom_bond_atom_site_label_2
_geom_bond_distance
_geom_bond_site_symmetry_2
_ccdc_geom_bond_type
Dy0 O3 2.307 1_455 S
Dy0 O5 2.395 . S
Dy0 O6 2.379 . S
Dy0 O8 2.339 . S
Dy0 O10 2.298 . S
Dy0 O14 2.275 . S
Dy0 C22 2.738 . S
Dy1 O4 2.298 . S
Dy1 O7 2.275 1_655 S
Dy1 O9 2.307 1_655 S
Dy1 O11 2.395 . S
Dy1 O12 2.379 . S
Dy1 O15 2.339 . S
Dy1 C31 2.738 . S
C2 O14 1.254 . S
C2 O15 1.257 1_455 S
O3 Dy0 2.307 1_655 S
O3 C13 1.266 . S
O4 Dy1 2.298 . S
O4 C13 1.236 . S
O5 Dy0 2.395 . S
O5 C22 1.255 . S
O6 Dy0 2.379 . S
O6 C22 1.249 . S
O7 Dy1 2.275 1_455 S
O7 C23 1.254 . S
O8 Dy0 2.339 . S
O8 C23 1.257 . S
O9 Dy1 2.307 1_455 S
O9 C24 1.266 . S
O10 Dy0 2.298 . S
O10 C24 1.236 . S
O11 Dy1 2.395 . S
O11 C31 1.255 . S
O12 Dy1 2.379 . S
O12 C31 1.249 . S
C13 O3 1.266 . S
C13 O4 1.236 . S
O14 Dy0 2.275 . S
O14 C2 1.254 . S
O15 Dy1 2.339 . S
O15 C2 1.257 1_655 S
C16 C19 1.344 . S
C16 C20 1.328 . S
C16 C22 1.516 . S
C17 C18 1.304 . S
C17 C21 1.323 . S
C18 C17 1.304 . S
C18 C19 1.371 . S
C18 H32 0.930 . S
C19 C16 1.344 . S
C19 C18 1.371 . S
C19 H33 0.931 . S
C20 C16 1.328 . S
C20 C21 1.433 . S
C20 H34 0.931 . S
C21 C17 1.323 . S
C21 C20 1.433 . S
C21 H35 0.933 . S
C22 Dy0 2.738 . S
C22 O5 1.255 . S
C22 O6 1.249 . S
C22 C16 1.516 . S
C23 O7 1.254 . S
C23 O8 1.257 . S
C24 O9 1.266 . S
C24 O10 1.236 . S
C25 C28 1.344 . S
C25 C29 1.328 . S
C25 C31 1.516 . S
C26 C27 1.304 . S
C26 C30 1.323 . S
C27 C26 1.304 . S
C27 C28 1.371 . S
C27 H36 0.930 . S
C28 C25 1.344 . S
C28 C27 1.371 . S
C28 H37 0.931 . S
C29 C25 1.328 . S
C29 C30 1.433 . S
C29 H38 0.931 . S
C30 C26 1.323 . S
C30 C29 1.433 . S
C30 H39 0.933 . S
C31 Dy1 2.738 . S
C31 O11 1.255 . S
C31 O12 1.249 . S
C31 C25 1.516 . S
H32 C18 0.930 . S
H33 C19 0.931 . S
H34 C20 0.931 . S
H35 C21 0.933 . S
H36 C27 0.930 . S
H37 C28 0.931 . S
H38 C29 0.931 . S
H39 C30 0.933 . S
Dy40 O43 2.307 . S
Dy40 O45 2.395 1_545 S
Dy40 O46 2.379 1_545 S
Dy40 O48 2.339 . S
Dy40 O50 2.298 1_545 S
Dy40 O54 2.275 . S
Dy40 C62 2.738 1_545 S
Dy41 O44 2.298 . S
Dy41 O47 2.275 . S
Dy41 O49 2.307 1_545 S
Dy41 O51 2.395 . S
Dy41 O52 2.379 . S
Dy41 O55 2.339 . S
Dy41 C71 2.738 . S
C42 O54 1.254 . S
C42 O55 1.257 . S
O43 Dy40 2.307 . S
O43 C53 1.266 . S
O44 Dy41 2.298 . S
O44 C53 1.236 . S
O45 Dy40 2.395 1_565 S
O45 C62 1.255 . S
O46 Dy40 2.379 1_565 S
O46 C62 1.249 . S
O47 Dy41 2.275 . S
O47 C63 1.254 . S
O48 Dy40 2.339 . S
O48 C63 1.257 . S
O49 Dy41 2.307 1_565 S
O49 C64 1.266 . S
O50 Dy40 2.298 1_565 S
O50 C64 1.236 . S
O51 Dy41 2.395 . S
O51 C71 1.255 . S
O52 Dy41 2.379 . S
O52 C71 1.249 . S
C53 O43 1.266 . S
C53 O44 1.236 . S
O54 Dy40 2.275 . S
O54 C42 1.254 . S
O55 Dy41 2.339 . S
O55 C42 1.257 . S
C56 C59 1.344 . S
C56 C60 1.328 . S
C56 C62 1.516 . S
C57 C58 1.304 . S
C57 C61 1.323 . S
C58 C57 1.304 . S
C58 C59 1.371 . S
C58 H72 0.930 . S
C59 C56 1.344 . S
C59 C58 1.371 . S
C59 H73 0.931 . S
C60 C56 1.328 . S
C60 C61 1.433 . S
C60 H74 0.931 . S
C61 C57 1.323 . S
C61 C60 1.433 . S
C61 H75 0.933 . S
C62 Dy40 2.738 1_565 S
C62 O45 1.255 . S
C62 O46 1.249 . S
C62 C56 1.516 . S
C63 O47 1.254 . S
C63 O48 1.257 . S
C64 O49 1.266 . S
C64 O50 1.236 . S
C65 C68 1.344 . S
C65 C69 1.328 . S
C65 C71 1.516 . S
C66 C67 1.304 . S
C66 C70 1.323 . S
C67 C66 1.304 . S
C67 C68 1.371 . S
C67 H76 0.930 . S
C68 C65 1.344 . S
C68 C67 1.371 . S
C68 H77 0.931 . S
C69 C65 1.328 . S
C69 C70 1.433 . S
C69 H78 0.931 . S
C70 C66 1.323 . S
C70 C69 1.433 . S
C70 H79 0.933 . S
C71 Dy41 2.738 . S
C71 O51 1.255 . S
C71 O52 1.249 . S
C71 C65 1.516 . S
H72 C58 0.930 . S
H73 C59 0.931 . S
H74 C60 0.931 . S
H75 C61 0.933 . S
H76 C67 0.930 . S
H77 C68 0.931 . S
H78 C69 0.931 . S
H79 C70 0.933 . S
Dy80 O83 2.307 . S
Dy80 O85 2.395 . S
Dy80 O86 2.379 . S
Dy80 O88 2.339 . S
Dy80 O90 2.298 . S
Dy80 O94 2.275 . S
Dy80 C102 2.738 . S
Dy81 O84 2.298 . S
Dy81 O87 2.275 . S
Dy81 O89 2.307 . S
Dy81 O91 2.395 . S
Dy81 O92 2.379 . S
Dy81 O95 2.339 . S
Dy81 C111 2.738 . S
C82 O94 1.254 . S
C82 O95 1.257 . S
O83 Dy80 2.307 . S
O83 C93 1.266 . S
O84 Dy81 2.298 . S
O84 C93 1.236 . S
O85 Dy80 2.395 . S
O85 C102 1.255 . S
O86 Dy80 2.379 . S
O86 C102 1.249 . S
O87 Dy81 2.275 . S
O87 C103 1.254 . S
O88 Dy80 2.339 . S
O88 C103 1.257 . S
O89 Dy81 2.307 . S
O89 C104 1.266 . S
O90 Dy80 2.298 . S
O90 C104 1.236 . S
O91 Dy81 2.395 . S
O91 C111 1.255 . S
O92 Dy81 2.379 . S
O92 C111 1.249 . S
C93 O83 1.266 . S
C93 O84 1.236 . S
O94 Dy80 2.275 . S
O94 C82 1.254 . S
O95 Dy81 2.339 . S
O95 C82 1.257 . S
C96 C99 1.344 . S
C96 C100 1.328 . S
C96 C102 1.516 . S
C97 C98 1.304 . S
C97 C101 1.323 . S
C98 C97 1.304 . S
C98 C99 1.371 . S
C98 H112 0.930 . S
C99 C96 1.344 . S
C99 C98 1.371 . S
C99 H113 0.931 . S
C100 C96 1.328 . S
C100 C101 1.433 . S
C100 H114 0.931 . S
C101 C97 1.323 . S
C101 C100 1.433 . S
C101 H115 0.933 . S
C102 Dy80 2.738 . S
C102 O85 1.255 . S
C102 O86 1.249 . S
C102 C96 1.516 . S
C103 O87 1.254 . S
C103 O88 1.257 . S
C104 O89 1.266 . S
C104 O90 1.236 . S
C105 C108 1.344 . S
C105 C109 1.328 . S
C105 C111 1.516 . S
C106 C107 1.304 . S
C106 C110 1.323 . S
C107 C106 1.304 . S
C107 C108 1.371 . S
C107 H116 0.930 . S
C108 C105 1.344 . S
C108 C107 1.371 . S
C108 H117 0.931 . S
C109 C105 1.328 . S
C109 C110 1.433 . S
C109 H118 0.931 . S
C110 C106 1.323 . S
C110 C109 1.433 . S
C110 H119 0.933 . S
C111 Dy81 2.738 . S
C111 O91 1.255 . S
C111 O92 1.249 . S
C111 C105 1.516 . S
H112 C98 0.930 . S
H113 C99 0.931 . S
H114 C100 0.931 . S
H115 C101 0.933 . S
H116 C107 0.930 . S
H117 C108 0.931 . S
H118 C109 0.931 . S
H119 C110 0.933 . S
H120 C123 0.929 . S
H121 C126 0.929 . S
H122 C128 0.930 . S
C123 H120 0.929 . S
C123 C124 1.398 . S
C123 C125 1.396 . S
C124 C123 1.398 . S
C124 C128 1.407 . S
C125 C123 1.396 . S
C125 C126 1.394 . S
C126 H121 0.929 . S
C126 C125 1.394 . S
C126 C127 1.382 . S
C127 C126 1.382 . S
C127 C128 1.392 . S
C127 N129 1.420 . S
C128 H122 0.930 . S
C128 C124 1.407 . S
C128 C127 1.392 . S
N129 C127 1.420 . S
N129 C130 1.244 . S
C130 N129 1.244 . S
H131 C134 0.929 . S
H132 C137 0.929 . S
H133 C139 0.930 . S
C134 H131 0.929 . S
C134 C135 1.398 . S
C134 C136 1.396 . S
C135 C134 1.398 . S
C135 C139 1.407 . S
C136 C134 1.396 . S
C136 C137 1.394 . S
C137 H132 0.929 . S
C137 C136 1.394 . S
C137 C138 1.382 . S
C138 C137 1.382 . S
C138 C139 1.392 . S
C138 N140 1.420 . S
C139 H133 0.930 . S
C139 C135 1.407 . S
C139 C138 1.392 . S
N140 C138 1.420 . S
N140 C141 1.244 . S
C141 N140 1.244 . S
H142 C145 0.929 . S
H143 C148 0.929 . S
H144 C150 0.930 1_655 S
C145 H142 0.929 . S
C145 C146 1.398 . S
C145 C147 1.396 1_655 S
C146 C145 1.398 . S
C146 C150 1.407 1_655 S
C147 C145 1.396 1_455 S
C147 C148 1.394 . S
C148 H143 0.929 . S
C148 C147 1.394 . S
C148 C149 1.382 . S
C149 C148 1.382 . S
C149 C150 1.392 . S
C149 N151 1.420 . S
C150 H144 0.930 1_455 S
C150 C146 1.407 1_455 S
C150 C149 1.392 . S
N151 C149 1.420 . S
N151 C152 1.244 . S
C152 N151 1.244 . S
H153 C156 0.929 . S
H154 C159 0.929 . S
H155 C161 0.930 . S
C156 H153 0.929 . S
C156 C157 1.398 . S
C156 C158 1.396 . S
C157 C156 1.398 . S
C157 C161 1.407 . S
C158 C156 1.396 . S
C158 C159 1.394 1_455 S
C159 H154 0.929 . S
C159 C158 1.394 1_655 S
C159 C160 1.382 1_655 S
C160 C159 1.382 1_455 S
C160 C161 1.392 . S
C160 N162 1.420 1_455 S
C161 H155 0.930 . S
C161 C157 1.407 . S
C161 C160 1.392 . S
N162 C160 1.420 1_655 S
N162 C163 1.244 . S
C163 N162 1.244 . S
H164 C167 0.929 . S
H165 C170 0.929 . S
H166 C172 0.930 . S
C167 H164 0.929 . S
C167 C168 1.398 . S
C167 C169 1.396 . S
C168 C167 1.398 . S
C168 C172 1.407 . S
C169 C167 1.396 . S
C169 C170 1.394 1_545 S
C170 H165 0.929 . S
C170 C169 1.394 1_565 S
C170 C171 1.382 . S
C171 C170 1.382 . S
C171 C172 1.392 1_565 S
C171 N173 1.420 . S
C172 H166 0.930 . S
C172 C168 1.407 . S
C172 C171 1.392 1_545 S
N173 C171 1.420 . S
N173 C174 1.244 . S
C174 N173 1.244 . S
H175 C178 0.929 . S
H176 C181 0.929 . S
H177 C183 0.930 . S
C178 H175 0.929 . S
C178 C179 1.398 . S
C178 C180 1.396 . S
C179 C178 1.398 . S
C179 C183 1.407 . S
C180 C178 1.396 . S
C180 C181 1.394 . S
C181 H176 0.929 . S
C181 C180 1.394 . S
C181 C182 1.382 . S
C182 C181 1.382 . S
C182 C183 1.392 . S
C182 N184 1.420 . S
C183 H177 0.930 . S
C183 C179 1.407 . S
C183 C182 1.392 . S
N184 C182 1.420 . S
N184 C185 1.244 . S
C185 N184 1.244 . S
C186 C187 1.387 . S
C186 H190 0.950 . S
C186 C195 1.390 . S
C187 C186 1.387 . S
C187 C189 1.387 . S
H188 C195 0.950 . S
C189 C187 1.387 . S
C189 C191 1.390 . S
C189 H193 0.950 . S
H190 C186 0.950 . S
C191 C189 1.390 . S
C191 C192 1.387 . S
C191 H194 0.950 . S
C192 C191 1.387 . S
C192 C195 1.387 . S
H193 C189 0.950 . S
H194 C191 0.950 . S
C195 C186 1.390 . S
C195 H188 0.950 . S
C195 C192 1.387 . S
C196 C197 1.387 . S
C196 H200 0.950 . S
C196 C205 1.390 . S
C197 C196 1.387 . S
C197 C199 1.387 . S
H198 C205 0.950 . S
C199 C197 1.387 . S
C199 C201 1.390 . S
C199 H203 0.950 . S
H200 C196 0.950 . S
C201 C199 1.390 . S
C201 C202 1.387 . S
C201 H204 0.950 . S
C202 C201 1.387 . S
C202 C205 1.387 . S
H203 C199 0.950 . S
H204 C201 0.950 . S
C205 C196 1.390 . S
C205 H198 0.950 . S
C205 C202 1.387 . S
C206 C207 1.387 . S
C206 H210 0.950 . S
C206 C215 1.390 . S
C207 C206 1.387 . S
C207 C209 1.387 . S
H208 C215 0.950 . S
C209 C207 1.387 . S
C209 C211 1.390 . S
C209 H213 0.950 . S
H210 C206 0.950 . S
C211 C209 1.390 . S
C211 C212 1.387 . S
C211 H214 0.950 . S
C212 C211 1.387 . S
C212 C215 1.387 . S
H213 C209 0.950 . S
H214 C211 0.950 . S
C215 C206 1.390 . S
C215 H208 0.950 . S
C215 C212 1.387 . S
C216 C217 1.387 . S
C216 H220 0.950 . S
C216 C225 1.390 . S
C217 C216 1.387 . S
C217 C219 1.387 . S
H218 C225 0.950 . S
C219 C217 1.387 . S
C219 C221 1.390 . S
C219 H223 0.950 . S
H220 C216 0.950 . S
C221 C219 1.390 . S
C221 C222 1.387 . S
C221 H224 0.950 . S
C222 C221 1.387 . S
C222 C225 1.387 . S
H223 C219 0.950 . S
H224 C221 0.950 . S
C225 C216 1.390 . S
C225 H218 0.950 . S
C225 C222 1.387 . S
C226 C227 1.387 . S
C226 H230 0.950 . S
C226 C235 1.390 . S
C227 C226 1.387 . S
C227 C229 1.387 . S
H228 C235 0.950 . S
C229 C227 1.387 . S
C229 C231 1.390 . S
C229 H233 0.950 . S
H230 C226 0.950 . S
C231 C229 1.390 . S
C231 C232 1.387 . S
C231 H234 0.950 . S
C232 C231 1.387 . S
C232 C235 1.387 . S
H233 C229 0.950 . S
H234 C231 0.950 . S
C235 C226 1.390 . S
C235 H228 0.950 . S
C235 C232 1.387 . S
C236 C237 1.387 . S
C236 H240 0.950 . S
C236 C245 1.390 . S
C237 C236 1.387 . S
C237 C239 1.387 . S
H238 C245 0.950 . S
C239 C237 1.387 . S
C239 C241 1.390 . S
C239 H243 0.950 . S
H240 C236 0.950 . S
C241 C239 1.390 . S
C241 C242 1.387 . S
C241 H244 0.950 . S
C242 C241 1.387 . S
C242 C245 1.387 . S
H243 C239 0.950 . S
H244 C241 0.950 . S
C245 C236 1.390 . S
C245 H238 0.950 . S
C245 C242 1.387 . S
C246 C247 1.387 . S
C246 H250 0.950 . S
C246 C255 1.390 . S
C247 C246 1.387 . S
C247 C249 1.387 . S
H248 C255 0.950 . S
C249 C247 1.387 . S
C249 C251 1.390 . S
C249 H253 0.950 . S
H250 C246 0.950 . S
C251 C249 1.390 . S
C251 C252 1.387 . S
C251 H254 0.950 . S
C252 C251 1.387 . S
C252 C255 1.387 . S
H253 C249 0.950 . S
H254 C251 0.950 . S
C255 C246 1.390 . S
C255 H248 0.950 . S
C255 C252 1.387 . S
C256 C257 1.387 . S
C256 H260 0.950 . S
C256 C265 1.390 . S
C257 C256 1.387 . S
C257 C259 1.387 . S
H258 C265 0.950 . S
C259 C257 1.387 . S
C259 C261 1.390 . S
C259 H263 0.950 . S
H260 C256 0.950 . S
C261 C259 1.390 . S
C261 C262 1.387 . S
C261 H264 0.950 . S
C262 C261 1.387 . S
C262 C265 1.387 . S
H263 C259 0.950 . S
H264 C261 0.950 . S
C265 C256 1.390 . S
C265 H258 0.950 . S
C265 C262 1.387 . S
C266 C267 1.387 . S
C266 H270 0.950 1_565 S
C266 C275 1.390 1_565 S
C267 C266 1.387 . S
C267 C269 1.387 . S
H268 C275 0.950 . S
C269 C267 1.387 . S
C269 C271 1.390 . S
C269 H273 0.950 . S
H270 C266 0.950 1_545 S
C271 C269 1.390 . S
C271 C272 1.387 . S
C271 H274 0.950 . S
C272 C271 1.387 . S
C272 C275 1.387 1_565 S
H273 C269 0.950 . S
H274 C271 0.950 . S
C275 C266 1.390 1_545 S
C275 H268 0.950 . S
C275 C272 1.387 1_545 S
C276 C277 1.387 . S
C276 H280 0.950 . S
C276 C285 1.390 . S
C277 C276 1.387 . S
C277 C279 1.387 . S
H278 C285 0.950 . S
C279 C277 1.387 . S
C279 C281 1.390 . S
C279 H283 0.950 . S
H280 C276 0.950 . S
C281 C279 1.390 . S
C281 C282 1.387 . S
C281 H284 0.950 . S
C282 C281 1.387 . S
C282 C285 1.387 . S
H283 C279 0.950 . S
H284 C281 0.950 . S
C285 C276 1.390 . S
C285 H278 0.950 . S
C285 C282 1.387 . S
C286 C287 1.387 . S
C286 H290 0.950 . S
C286 C295 1.390 . S
C287 C286 1.387 . S
C287 C289 1.387 . S
H288 C295 0.950 . S
C289 C287 1.387 . S
C289 C291 1.390 . S
C289 H293 0.950 . S
H290 C286 0.950 . S
C291 C289 1.390 . S
C291 C292 1.387 . S
C291 H294 0.950 . S
C292 C291 1.387 . S
C292 C295 1.387 . S
H293 C289 0.950 . S
H294 C291 0.950 . S
C295 C286 1.390 . S
C295 H288 0.950 . S
C295 C292 1.387 . S
C296 C297 1.387 . S
C296 H300 0.950 . S
C296 C305 1.390 . S
C297 C296 1.387 . S
C297 C299 1.387 . S
H298 C305 0.950 . S
C299 C297 1.387 . S
C299 C301 1.390 . S
C299 H303 0.950 . S
H300 C296 0.950 . S
C301 C299 1.390 . S
C301 C302 1.387 . S
C301 H304 0.950 . S
C302 C301 1.387 . S
C302 C305 1.387 . S
H303 C299 0.950 . S
H304 C301 0.950 . S
C305 C296 1.390 . S
C305 H298 0.950 . S
C305 C302 1.387 . S
C306 C307 1.387 . S
C306 H310 0.950 . S
C306 C315 1.390 . S
C307 C306 1.387 . S
C307 C309 1.387 . S
H308 C315 0.950 1_556 S
C309 C307 1.387 . S
C309 C311 1.390 1_554 S
C309 H313 0.950 . S
H310 C306 0.950 . S
C311 C309 1.390 1_556 S
C311 C312 1.387 . S
C311 H314 0.950 . S
C312 C311 1.387 . S
C312 C315 1.387 1_556 S
H313 C309 0.950 . S
H314 C311 0.950 . S
C315 C306 1.390 . S
C315 H308 0.950 1_554 S
C315 C312 1.387 1_554 S
C316 C317 1.387 . S
C316 H320 0.950 . S
C316 C325 1.390 . S
C317 C316 1.387 . S
C317 C319 1.387 . S
H318 C325 0.950 . S
C319 C317 1.387 . S
C319 C321 1.390 . S
C319 H323 0.950 . S
H320 C316 0.950 . S
C321 C319 1.390 . S
C321 C322 1.387 . S
C321 H324 0.950 . S
C322 C321 1.387 . S
C322 C325 1.387 . S
H323 C319 0.950 . S
H324 C321 0.950 . S
C325 C316 1.390 . S
C325 H318 0.950 . S
C325 C322 1.387 . S
C326 C327 1.387 . S
C326 H330 0.950 . S
C326 C335 1.390 . S
C327 C326 1.387 . S
C327 C329 1.387 . S
H328 C335 0.950 . S
C329 C327 1.387 . S
C329 C331 1.390 . S
C329 H333 0.950 . S
H330 C326 0.950 . S
C331 C329 1.390 . S
C331 C332 1.387 . S
C331 H334 0.950 . S
C332 C331 1.387 . S
C332 C335 1.387 . S
H333 C329 0.950 . S
H334 C331 0.950 . S
C335 C326 1.390 . S
C335 H328 0.950 . S
C335 C332 1.387 . S
C336 C337 1.387 1_565 S
C336 H340 0.950 . S
C336 C345 1.390 . S
C337 C336 1.387 1_545 S
C337 C339 1.387 . S
H338 C345 0.950 . S
C339 C337 1.387 . S
C339 C341 1.390 . S
C339 H343 0.950 . S
H340 C336 0.950 . S
C341 C339 1.390 . S
C341 C342 1.387 . S
C341 H344 0.950 . S
C342 C341 1.387 . S
C342 C345 1.387 1_545 S
H343 C339 0.950 . S
H344 C341 0.950 . S
C345 C336 1.390 . S
C345 H338 0.950 . S
C345 C342 1.387 1_565 S
C346 C347 1.387 . S
C346 H350 0.950 . S
C346 C355 1.390 . S
C347 C346 1.387 . S
C347 C349 1.387 . S
H348 C355 0.950 1_554 S
C349 C347 1.387 . S
C349 C351 1.390 1_556 S
C349 H353 0.950 . S
H350 C346 0.950 . S
C351 C349 1.390 1_554 S
C351 C352 1.387 . S
C351 H354 0.950 . S
C352 C351 1.387 . S
C352 C355 1.387 1_554 S
H353 C349 0.950 . S
H354 C351 0.950 . S
C355 C346 1.390 . S
C355 H348 0.950 1_556 S
C355 C352 1.387 1_556 S
C356 C357 1.387 . S
C356 H360 0.950 . S
C356 C365 1.390 . S
C357 C356 1.387 . S
C357 C359 1.387 1_455 S
H358 C365 0.950 . S
C359 C357 1.387 1_655 S
C359 C361 1.390 . S
C359 H363 0.950 . S
H360 C356 0.950 . S
C361 C359 1.390 . S
C361 C362 1.387 1_655 S
C361 H364 0.950 . S
C362 C361 1.387 1_455 S
C362 C365 1.387 . S
H363 C359 0.950 . S
H364 C361 0.950 . S
C365 C356 1.390 . S
C365 H358 0.950 . S
C365 C362 1.387 . S
C187 C24 3.096 . S
C192 C185 3.032 . S
C197 C66 1.290 . S
C202 C163 1.357 . S
C207 C93 1.913 . S
C212 C174 1.855 . S
C217 C13 3.074 . S
C222 C179 3.040 . S
C232 C157 1.222 . S
C227 C57 1.203 . S
C242 C168 1.868 . S
C237 C104 1.910 . S
C247 C64 2.000 . S
C252 C141 1.917 . S
C257 C97 0.832 . S
C262 C146 0.859 . S
C267 C17 1.405 . S
C272 C124 1.485 1_565 S
C282 C135 1.777 . S
C277 C53 1.814 . S
C292 C152 0.614 . S
C287 C106 0.679 . S
C297 C26 1.330 . S
C302 C130 1.406 . S
C312 C147 1.119 . S
C307 C2 1.098 . S
C317 C63 1.472 . S
C322 C125 1.478 . S
C327 C82 1.416 . S
C332 C136 1.444 . S
C342 C169 1.437 . S
C337 C42 1.412 . S
C352 C180 1.772 . S
C347 C103 1.747 . S
C357 C23 1.535 . S
C362 C158 1.536 . S
