# Generated by pormake.
# Topology wbl, (4,4)-cn, num edge types: 1
# Building blocks:
#     Node 0, Type 0, BuildingBlock: NAWXER_clean_linker_0, # of connection points: 4
#     Node 1, Type 0, BuildingBlock: NAWXER_clean_linker_0, # of connection points: 4
#     Node 2, Type 0, BuildingBlock: NAWXER_clean_linker_0, # of connection points: 4
#     Node 3, Type 0, BuildingBlock: NAWXER_clean_linker_0, # of connection points: 4
#     Node 4, Type 0, BuildingBlock: NAWXER_clean_linker_0, # of connection points: 4
#     Node 5, Type 0, BuildingBlock: NAWXER_clean_linker_0, # of connection points: 4
#     Node 6, Type 0, BuildingBlock: NAWXER_clean_linker_0, # of connection points: 4
#     Node 7, Type 0, BuildingBlock: NAWXER_clean_linker_0, # of connection points: 4
#     Node 8, Type 1, BuildingBlock: NAHDIM_clean_sbu_0, # of connection points: 4
#     Node 9, Type 1, BuildingBlock: NAHDIM_clean_sbu_0, # of connection points: 4
#     Node 10, Type 1, BuildingBlock: NAHDIM_clean_sbu_0, # of connection points: 4
#     Node 11, Type 1, BuildingBlock: NAHDIM_clean_sbu_0, # of connection points: 4
#     Node 12, Type 1, BuildingBlock: NAHDIM_clean_sbu_0, # of connection points: 4
#     Node 13, Type 1, BuildingBlock: NAHDIM_clean_sbu_0, # of connection points: 4
#     Node 14, Type 1, BuildingBlock: NAHDIM_clean_sbu_0, # of connection points: 4
#     Node 15, Type 1, BuildingBlock: NAHDIM_clean_sbu_0, # of connection points: 4
#     Edge 16, Type (0, 1), BuildingBlock: TEMPAE_clean_linker_10, # of connection points: 2
#     Edge 17, Type (0, 1), BuildingBlock: TEMPAE_clean_linker_10, # of connection points: 2
#     Edge 18, Type (0, 1), BuildingBlock: TEMPAE_clean_linker_10, # of connection points: 2
#     Edge 19, Type (0, 1), BuildingBlock: TEMPAE_clean_linker_10, # of connection points: 2
#     Edge 20, Type (0, 1), BuildingBlock: TEMPAE_clean_linker_10, # of connection points: 2
#     Edge 21, Type (0, 1), BuildingBlock: TEMPAE_clean_linker_10, # of connection points: 2
#     Edge 22, Type (0, 1), BuildingBlock: TEMPAE_clean_linker_10, # of connection points: 2
#     Edge 23, Type (0, 1), BuildingBlock: TEMPAE_clean_linker_10, # of connection points: 2
#     Edge 24, Type (0, 1), BuildingBlock: TEMPAE_clean_linker_10, # of connection points: 2
#     Edge 25, Type (0, 1), BuildingBlock: TEMPAE_clean_linker_10, # of connection points: 2
#     Edge 26, Type (0, 1), BuildingBlock: TEMPAE_clean_linker_10, # of connection points: 2
#     Edge 27, Type (0, 1), BuildingBlock: TEMPAE_clean_linker_10, # of connection points: 2
#     Edge 28, Type (0, 1), BuildingBlock: TEMPAE_clean_linker_10, # of connection points: 2
#     Edge 29, Type (0, 1), BuildingBlock: TEMPAE_clean_linker_10, # of connection points: 2
#     Edge 30, Type (0, 1), BuildingBlock: TEMPAE_clean_linker_10, # of connection points: 2
#     Edge 31, Type (0, 1), BuildingBlock: TEMPAE_clean_linker_10, # of connection points: 2
#     Edge 32, Type (0, 1), BuildingBlock: TEMPAE_clean_linker_10, # of connection points: 2
#     Edge 33, Type (0, 1), BuildingBlock: TEMPAE_clean_linker_10, # of connection points: 2
#     Edge 34, Type (0, 1), BuildingBlock: TEMPAE_clean_linker_10, # of connection points: 2
#     Edge 35, Type (0, 1), BuildingBlock: TEMPAE_clean_linker_10, # of connection points: 2
#     Edge 36, Type (0, 1), BuildingBlock: TEMPAE_clean_linker_10, # of connection points: 2
#     Edge 37, Type (0, 1), BuildingBlock: TEMPAE_clean_linker_10, # of connection points: 2
#     Edge 38, Type (0, 1), BuildingBlock: TEMPAE_clean_linker_10, # of connection points: 2
#     Edge 39, Type (0, 1), BuildingBlock: TEMPAE_clean_linker_10, # of connection points: 2
#     Edge 40, Type (0, 1), BuildingBlock: TEMPAE_clean_linker_10, # of connection points: 2
#     Edge 41, Type (0, 1), BuildingBlock: TEMPAE_clean_linker_10, # of connection points: 2
#     Edge 42, Type (0, 1), BuildingBlock: TEMPAE_clean_linker_10, # of connection points: 2
#     Edge 43, Type (0, 1), BuildingBlock: TEMPAE_clean_linker_10, # of connection points: 2
#     Edge 44, Type (0, 1), BuildingBlock: TEMPAE_clean_linker_10, # of connection points: 2
#     Edge 45, Type (0, 1), BuildingBlock: TEMPAE_clean_linker_10, # of connection points: 2
#     Edge 46, Type (0, 1), BuildingBlock: TEMPAE_clean_linker_10, # of connection points: 2
#     Edge 47, Type (0, 1), BuildingBlock: TEMPAE_clean_linker_10, # of connection points: 2
# Relax obj value: 0.156
# Max RMSD: 0.154
# Mean RMSD: 0.137
data_MOF--net-wbl--node1-NAHDIM_clean_sbu_0--node2-NAWXER_clean_linker_0--edge1-TEMPAE_clean_linker_10
_symmetry_space_group_name_H-M    P1
_symmetry_Int_Tables_number       1
_symmetry_cell_setting            triclinic
loop_
_symmetry_equiv_pos_as_xyz
'x, y, z'
_cell_length_a     46.499903
_cell_length_b     44.977897
_cell_length_c     77.022307
_cell_angle_alpha  89.999332
_cell_angle_beta   90.031146
_cell_angle_gamma 89.954744
loop_
_atom_site_label
_atom_site_type_symbol
_atom_site_fract_x
_atom_site_fract_y
_atom_site_fract_z
_atom_type_partial_charge
C0 C 0.05436 0.91521 0.36523 0.0
C1 C 0.06986 0.92541 0.37971 0.0
C2 C 0.03939 0.93525 0.3547 0.0
C3 C 0.04025 0.96592 0.35822 0.0
C4 C 0.07055 0.95604 0.38327 0.0
C5 C 0.05585 0.97607 0.37265 0.0
C6 C 0.02337 0.9874 0.3478 0.0
C7 C 0.08784 0.94697 0.3122 0.0
C8 C 0.07581 0.92937 0.29896 0.0
C9 C 0.07063 0.96619 0.32188 0.0
C10 C 0.04095 0.96784 0.31875 0.0
C11 C 0.04621 0.93176 0.29548 0.0
C12 C 0.02896 0.95099 0.30523 0.0
C13 C 0.02246 0.98729 0.32944 0.0
C14 C 0.94994 0.09653 0.31507 0.0
C15 C 0.93095 0.08504 0.30258 0.0
C16 C 0.96938 0.07783 0.32354 0.0
C17 C 0.96972 0.04722 0.31992 0.0
C18 C 0.93258 0.05474 0.29821 0.0
C19 C 0.95186 0.036 0.30679 0.0
C20 C 0.98814 0.02666 0.32997 0.0
C21 C 0.92367 0.06204 0.36879 0.0
C22 C 0.93622 0.08134 0.38103 0.0
C23 C 0.94089 0.04471 0.35789 0.0
C24 C 0.97095 0.04626 0.35908 0.0
C25 C 0.96642 0.08303 0.38195 0.0
C26 C 0.98359 0.06539 0.37123 0.0
C27 C 0.98931 0.02695 0.34828 0.0
H28 H 0.05313 0.89167 0.36236 0.0
H29 H 0.02668 0.92668 0.34403 0.0
H30 H 0.08251 0.96451 0.39428 0.0
H31 H 0.05662 -0.00044 0.37572 0.0
H32 H 0.1105 0.94547 0.31533 0.0
H33 H 0.0805 0.97954 0.33196 0.0
H34 H 0.03641 0.91879 0.28521 0.0
H35 H 0.00615 0.95225 0.30246 0.0
H36 H 0.94942 0.1199 0.31847 0.0
H37 H 0.98374 0.08722 0.33315 0.0
H38 H 0.91806 0.04527 0.2887 0.0
H39 H 0.95202 0.01252 0.30365 0.0
H40 H 0.90055 0.05969 0.36791 0.0
H41 H 0.93075 0.02966 0.34878 0.0
H42 H 0.97688 0.09801 0.39096 0.0
H43 H 0.00678 0.06682 0.37233 0.0
N44 N 0.00693 0.00743 0.35648 0.0
N45 N 0.00466 0.00672 0.32122 0.0
C46 C 0.93706 0.43239 0.6248 0.0
C47 C 0.9485 0.41263 0.63712 0.0
C48 C 0.95529 0.44811 0.6137 0.0
C49 C 0.98522 0.44442 0.61483 0.0
C50 C 0.97844 0.40871 0.63808 0.0
C51 C 0.99667 0.42473 0.62714 0.0
C52 C 0.00471 0.46229 0.6039 0.0
C53 C 0.96279 0.39538 0.57009 0.0
C54 C 0.9435 0.40757 0.55797 0.0
C55 C 0.98227 0.41351 0.57883 0.0
C56 C 0.98265 0.44425 0.57579 0.0
C57 C 0.94462 0.43821 0.55443 0.0
C58 C 0.96414 0.45641 0.56326 0.0
C59 C 0.00241 0.46359 0.58565 0.0
C60 C 0.10421 0.54125 0.56725 0.0
C61 C 0.09115 0.56056 0.55526 0.0
C62 C 0.08768 0.52079 0.57651 0.0
C63 C 0.05775 0.51962 0.57412 0.0
C64 C 0.06143 0.55818 0.55221 0.0
C65 C 0.0449 0.53779 0.56152 0.0
C66 C 0.03958 0.5 0.58488 0.0
C67 C 0.0749 0.56811 0.62246 0.0
C68 C 0.09145 0.55611 0.63604 0.0
C69 C 0.05941 0.54947 0.61136 0.0
C70 C 0.06053 0.51847 0.61351 0.0
C71 C 0.09299 0.52505 0.6379 0.0
C72 C 0.07754 0.50644 0.62681 0.0
C73 C 0.04184 0.49864 0.60317 0.0
H74 H 0.91405 0.43578 0.62383 0.0
H75 H 0.94606 0.46361 0.60448 0.0
H76 H 0.98777 0.39389 0.64764 0.0
H77 H 0.01972 0.42181 0.6283 0.0
H78 H 0.96297 0.37173 0.57273 0.0
H79 H 0.99702 0.40347 0.58801 0.0
H80 H 0.93004 0.44815 0.54512 0.0
H81 H 0.96433 0.48007 0.5606 0.0
H82 H 0.12715 0.54227 0.56963 0.0
H83 H 0.09819 0.50627 0.58577 0.0
H84 H 0.05072 0.57293 0.54316 0.0
H85 H 0.02189 0.53705 0.55937 0.0
H86 H 0.07291 0.59195 0.62087 0.0
H87 H 0.04576 0.55934 0.60153 0.0
H88 H 0.10579 0.51515 0.64814 0.0
H89 H 0.07853 0.48261 0.62876 0.0
N90 N 0.02442 0.4797 0.61195 0.0
N91 N 0.0198 0.48254 0.5768 0.0
C92 C 0.55199 0.42164 0.87143 0.0
C93 C 0.56501 0.43275 0.88659 0.0
C94 C 0.53713 0.44065 0.86021 0.0
C95 C 0.53551 0.47127 0.86371 0.0
C96 C 0.56315 0.46339 0.8901 0.0
C97 C 0.54856 0.48239 0.87879 0.0
C98 C 0.51855 0.49158 0.85252 0.0
C99 C 0.58997 0.4572 0.82005 0.0
C100 C 0.58105 0.43714 0.80713 0.0
C101 C 0.57002 0.47509 0.82859 0.0
C102 C 0.54069 0.4732 0.82448 0.0
C103 C 0.55176 0.43605 0.80257 0.0
C104 C 0.53175 0.45408 0.81114 0.0
C105 C 0.5195 0.49113 0.83418 0.0
C106 C 0.4449 0.59689 0.8159 0.0
C107 C 0.42707 0.58435 0.8031 0.0
C108 C 0.46396 0.57907 0.82529 0.0
C109 C 0.46521 0.54829 0.82228 0.0
C110 C 0.42963 0.55382 0.79942 0.0
C111 C 0.44858 0.53598 0.8089 0.0
C112 C 0.48334 0.52872 0.83315 0.0
C113 C 0.41602 0.5664 0.86969 0.0
C114 C 0.4278 0.5837 0.88314 0.0
C115 C 0.43387 0.54921 0.85906 0.0
C116 C 0.46377 0.54919 0.86167 0.0
C117 C 0.45775 0.58377 0.88558 0.0
C118 C 0.47551 0.56656 0.87501 0.0
C119 C 0.48291 0.52962 0.85149 0.0
H120 H 0.5531 0.39821 0.86826 0.0
H121 H 0.52645 0.43124 0.84899 0.0
H122 H 0.57237 0.47265 0.90182 0.0
H123 H 0.54726 0.50584 0.88193 0.0
H124 H 0.61246 0.45919 0.82352 0.0
H125 H 0.57749 0.49032 0.83852 0.0
H126 H 0.54424 0.42081 0.79268 0.0
H127 H 0.50921 0.45253 0.80768 0.0
H128 H 0.44344 0.62029 0.81909 0.0
H129 H 0.47727 0.58925 0.83519 0.0
H130 H 0.41664 0.5436 0.78939 0.0
H131 H 0.44957 0.51238 0.80616 0.0
H132 H 0.39302 0.56594 0.8675 0.0
H133 H 0.42427 0.53547 0.84907 0.0
H134 H 0.46742 0.59641 0.89603 0.0
H135 H 0.49849 0.56658 0.87736 0.0
N136 N 0.50051 0.51104 0.86042 0.0
N137 N 0.50161 0.50943 0.82517 0.0
C138 C 0.42412 0.91736 0.08007 0.0
C139 C 0.4059 0.92975 0.06741 0.0
C140 C 0.44333 0.9352 0.08924 0.0
C141 C 0.4446 0.96587 0.08606 0.0
C142 C 0.40752 0.96043 0.06403 0.0
C143 C 0.42684 0.97832 0.07324 0.0
C144 C 0.46535 0.98461 0.09559 0.0
C145 C 0.40036 0.95537 0.13563 0.0
C146 C 0.41192 0.93707 0.14871 0.0
C147 C 0.41847 0.97026 0.12404 0.0
C148 C 0.44844 0.96698 0.12528 0.0
C149 C 0.44195 0.93366 0.14975 0.0
C150 C 0.46 0.94866 0.13825 0.0
C151 C 0.46805 0.98382 0.11384 0.0
C152 C 0.55072 0.08196 0.12964 0.0
C153 C 0.56632 0.06846 0.14316 0.0
C154 C 0.53232 0.06509 0.11921 0.0
C155 C 0.52939 0.03438 0.12202 0.0
C156 C 0.56365 0.03765 0.14575 0.0
C157 C 0.54525 0.02083 0.13534 0.0
C158 C 0.50812 0.01664 0.11221 0.0
C159 C 0.57513 0.04609 0.07485 0.0
C160 C 0.56496 0.06694 0.06273 0.0
C161 C 0.55585 0.02939 0.08472 0.0
C162 C 0.52607 0.03341 0.08274 0.0
C163 C 0.53513 0.0699 0.0602 0.0
C164 C 0.51586 0.05312 0.07005 0.0
C165 C 0.50557 0.01731 0.09394 0.0
H166 H 0.42404 0.89368 0.08264 0.0
H167 H 0.45751 0.92491 0.09865 0.0
H168 H 0.39377 0.9706 0.05435 0.0
H169 H 0.42775 0.00192 0.07047 0.0
H170 H 0.37737 0.95881 0.13463 0.0
H171 H 0.4091 0.98484 0.11438 0.0
H172 H 0.45156 0.91935 0.15947 0.0
H173 H 0.48306 0.94587 0.13945 0.0
H174 H 0.5524 0.10564 0.12731 0.0
H175 H 0.51979 0.0762 0.10928 0.0
H176 H 0.57499 0.02668 0.15624 0.0
H177 H 0.54308 0.99723 0.13787 0.0
H178 H 0.59797 0.04341 0.07714 0.0
H179 H 0.5642 0.0137 0.09413 0.0
H180 H 0.52672 0.0855 0.05076 0.0
H181 H 0.49296 0.05622 0.06815 0.0
N182 N 0.48413 0.00144 0.0863 0.0
N183 N 0.48938 -0.00022 0.12142 0.0
C184 C 0.04443 0.57835 0.89284 0.0
C185 C 0.06189 0.56688 0.87952 0.0
C186 C 0.0281 0.55929 0.90323 0.0
C187 C 0.02919 0.52839 0.90064 0.0
C188 C 0.06253 0.53597 0.87679 0.0
C189 C 0.04624 0.51695 0.88719 0.0
C190 C 0.01183 0.50788 0.9114 0.0
C191 C 0.07631 0.54995 0.94671 0.0
C192 C 0.06423 0.5678 0.95982 0.0
C193 C 0.05913 0.53069 0.93704 0.0
C194 C 0.0294 0.52925 0.94006 0.0
C195 C 0.03455 0.56582 0.96308 0.0
C196 C 0.01732 0.54657 0.95334 0.0
C197 C 0.011 0.50914 0.92973 0.0
C198 C 0.94214 0.39942 0.94734 0.0
C199 C 0.92413 0.41087 0.96038 0.0
C200 C 0.95977 0.41835 0.9377 0.0
C201 C 0.95937 0.44914 0.94074 0.0
C202 C 0.92485 0.44154 0.96394 0.0
C203 C 0.94238 0.46046 0.95424 0.0
C204 C 0.97684 0.46966 0.93009 0.0
C205 C 0.9113 0.43094 0.89344 0.0
C206 C 0.92332 0.41282 0.88046 0.0
C207 C 0.9289 0.44878 0.90381 0.0
C208 C 0.95884 0.44876 0.9014 0.0
C209 C 0.9533 0.4128 0.87812 0.0
C210 C 0.97087 0.43082 0.8884 0.0
C211 C 0.97757 0.4685 0.91176 0.0
H212 H 0.04351 0.60203 0.8953 0.0
H213 H 0.0145 0.56874 0.91322 0.0
H214 H 0.07532 0.52648 0.86642 0.0
H215 H 0.04711 0.49323 0.88481 0.0
H216 H 0.09905 0.55113 0.94375 0.0
H217 H 0.06909 0.51695 0.92718 0.0
H218 H 0.02468 0.57899 0.97324 0.0
H219 H 0.99448 0.54547 0.95603 0.0
H220 H 0.94203 0.37594 0.94422 0.0
H221 H 0.97344 0.40894 0.92773 0.0
H222 H 0.91161 0.45095 0.97412 0.0
H223 H 0.94213 0.48408 0.95702 0.0
H224 H 0.88827 0.43135 0.89553 0.0
H225 H 0.9191 0.46292 0.91353 0.0
H226 H 0.9631 0.3994 0.86804 0.0
H227 H 0.99389 0.43073 0.88622 0.0
N228 N 0.99519 0.48749 0.90314 0.0
N229 N 0.99342 0.49009 0.93836 0.0
C230 C 0.40695 0.54136 0.12548 0.0
C231 C 0.41528 0.5596 0.11153 0.0
C232 C 0.42766 0.52833 0.13623 0.0
C233 C 0.45705 0.53349 0.13332 0.0
C234 C 0.44476 0.56468 0.10868 0.0
C235 C 0.46541 0.55156 0.11938 0.0
C236 C 0.47929 0.51901 0.14416 0.0
C237 C 0.43453 0.58434 0.17816 0.0
C238 C 0.41976 0.57202 0.19237 0.0
C239 C 0.45376 0.56721 0.16855 0.0
C240 C 0.45819 0.53715 0.17265 0.0
C241 C 0.4246 0.54204 0.19667 0.0
C242 C 0.44378 0.5248 0.18694 0.0
C243 C 0.47872 0.51902 0.16249 0.0
C244 C 0.59075 0.4576 0.18033 0.0
C245 C 0.58087 0.4364 0.19234 0.0
C246 C 0.5712 0.47521 0.17113 0.0
C247 C 0.54148 0.47166 0.17365 0.0
C248 C 0.55118 0.43416 0.19553 0.0
C249 C 0.53169 0.45172 0.18632 0.0
C250 C 0.52035 0.488 0.16295 0.0
C251 C 0.56826 0.42701 0.12631 0.0
C252 C 0.58149 0.44166 0.11233 0.0
C253 C 0.54884 0.44215 0.13698 0.0
C254 C 0.5429 0.47241 0.13411 0.0
C255 C 0.57542 0.47184 0.10943 0.0
C256 C 0.5563 0.48704 0.12021 0.0
C257 C 0.52129 0.48859 0.14461 0.0
H258 H 0.38447 0.53662 0.12786 0.0
H259 H 0.42071 0.51382 0.14664 0.0
H260 H 0.45191 0.57896 0.09822 0.0
H261 H 0.48797 0.55574 0.11686 0.0
H262 H 0.43111 0.60726 0.17437 0.0
H263 H 0.46528 0.57757 0.15794 0.0
H264 H 0.41385 0.53201 0.20768 0.0
H265 H 0.44721 0.50176 0.19049 0.0
H266 H 0.61349 0.45982 0.17759 0.0
H267 H 0.57927 0.49106 0.16173 0.0
H268 H 0.54298 0.41843 0.20495 0.0
H269 H 0.50887 0.44897 0.18866 0.0
H270 H 0.57221 0.4036 0.12863 0.0
H271 H 0.53803 0.43003 0.14722 0.0
H272 H 0.5854 0.48367 0.09876 0.0
H273 H 0.55185 0.51028 0.11763 0.0
N274 N 0.50073 0.5041 0.13596 0.0
N275 N 0.49906 0.5032 0.17119 0.0
C276 C 0.4569 0.91316 0.38456 0.0
C277 C 0.43847 0.92341 0.37136 0.0
C278 C 0.47043 0.93323 0.39574 0.0
C279 C 0.46569 0.96393 0.394 0.0
C280 C 0.43385 0.9542 0.36966 0.0
C281 C 0.44752 0.97424 0.38078 0.0
C282 C 0.48064 0.98547 0.40537 0.0
C283 C 0.41785 0.93871 0.43963 0.0
C284 C 0.42982 0.92263 0.45352 0.0
C285 C 0.43476 0.95794 0.42981 0.0
C286 C 0.46419 0.96106 0.4334 0.0
C287 C 0.4593 0.92575 0.45714 0.0
C288 C 0.4763 0.94497 0.44722 0.0
C289 C 0.48177 0.9827 0.42361 0.0
C290 C 0.54514 0.09419 0.44534 0.0
C291 C 0.5643 0.08165 0.45743 0.0
C292 C 0.52777 0.07595 0.43504 0.0
C293 C 0.52966 0.04486 0.43643 0.0
C294 C 0.56492 0.05058 0.45944 0.0
C295 C 0.54776 0.03241 0.44906 0.0
C296 C 0.51268 0.02493 0.42512 0.0
C297 C 0.57003 0.07701 0.3886 0.0
C298 C 0.55486 0.09341 0.37603 0.0
C299 C 0.5558 0.05605 0.3989 0.0
C300 C 0.52608 0.05154 0.39699 0.0
C301 C 0.5251 0.08893 0.37425 0.0
C302 C 0.5109 0.06812 0.38457 0.0
C303 C 0.51083 0.02823 0.40689 0.0
H304 H 0.46134 0.88965 0.38603 0.0
H305 H 0.48497 0.92478 0.40557 0.0
H306 H 0.41949 0.96286 0.35981 0.0
H307 H 0.44366 0.99784 0.37916 0.0
H308 H 0.39528 0.93656 0.43637 0.0
H309 H 0.42464 0.97078 0.4196 0.0
H310 H 0.46905 0.91387 0.46787 0.0
H311 H 0.49888 0.94737 0.45038 0.0
H312 H 0.54415 0.11803 0.44346 0.0
H313 H 0.51318 0.08616 0.42583 0.0
H314 H 0.57896 0.04025 0.46891 0.0
H315 H 0.54916 0.00851 0.45062 0.0
H316 H 0.59306 0.07965 0.39007 0.0
H317 H 0.56814 0.04293 0.40804 0.0
H318 H 0.51281 0.10141 0.36477 0.0
H319 H 0.488 0.06485 0.3828 0.0
N320 N 0.49489 0.00834 0.39776 0.0
N321 N 0.49803 0.00229 0.43275 0.0
C322 C 0.08341 0.95005 0.62885 0.0
C323 C 0.07243 0.9316 0.61568 0.0
C324 C 0.06485 0.96422 0.64048 0.0
C325 C 0.03497 0.95989 0.63933 0.0
C326 C 0.04252 0.92738 0.61456 0.0
C327 C 0.02401 0.94144 0.62623 0.0
C328 C 0.01486 0.97612 0.65086 0.0
C329 C 0.06378 0.91466 0.68506 0.0
C330 C 0.08336 0.92885 0.69625 0.0
C331 C 0.04284 0.93097 0.6763 0.0
C332 C 0.04101 0.96187 0.67847 0.0
C333 C 0.08105 0.95975 0.69875 0.0
C334 C 0.0599 0.97611 0.68999 0.0
C335 C 0.01896 0.97901 0.66894 0.0
C336 C 0.91121 0.04301 0.69194 0.0
C337 C 0.92343 0.06526 0.70243 0.0
C338 C 0.92874 0.02467 0.68179 0.0
C339 C 0.95873 0.02846 0.68186 0.0
C340 C 0.95352 0.06809 0.70301 0.0
C341 C 0.97099 0.04977 0.69289 0.0
C342 C 0.97764 0.01036 0.67064 0.0
C343 C 0.92302 0.06487 0.63344 0.0
C344 C 0.90806 0.0479 0.62105 0.0
C345 C 0.94371 0.05154 0.6441 0.0
C346 C 0.9493 0.0209 0.64281 0.0
C347 C 0.9134 0.01723 0.61997 0.0
C348 C 0.93383 0.0039 0.63072 0.0
C349 C 0.973 0.00666 0.65262 0.0
H350 H 0.10633 0.9537 0.6301 0.0
H351 H 0.07386 0.97906 0.65012 0.0
H352 H 0.0333 0.9138 0.60437 0.0
H353 H 0.00104 0.93807 0.62493 0.0
H354 H 0.06435 0.89079 0.68324 0.0
H355 H 0.02792 0.91939 0.66788 0.0
H356 H 0.09581 0.97134 0.70727 0.0
H357 H 0.05863 -8e-05 0.69196 0.0
H358 H 0.8881 0.04032 0.69122 0.0
H359 H 0.91885 0.00779 0.67374 0.0
H360 H 0.96358 0.08465 0.71122 0.0
H361 H 0.9941 0.05276 0.69334 0.0
H362 H 0.91961 0.08865 0.63435 0.0
H363 H 0.95598 0.06538 0.65291 0.0
H364 H 0.90205 0.00362 0.6106 0.0
H365 H 0.9379 0.98028 0.62939 0.0
N366 N 0.99187 0.98975 0.64348 0.0
N367 N 0.00046 0.99634 0.67811 0.0
C368 C 0.21696 0.69852 0.00834 0.0
O369 O 0.2241 0.69977 0.02483 0.0
O370 O 0.29071 0.68927 0.02284 0.0
Zn371 Zn 0.27765 0.71121 0.00145 0.0
O372 O 0.29946 0.69564 0.98061 0.0
C373 C 0.31375 0.75933 0.00692 0.0
O374 O 0.33173 0.737 0.00512 0.0
O375 O 0.23584 0.70399 0.99686 0.0
C376 C 0.32144 0.679 0.98212 0.0
O377 O 0.33096 0.67229 0.99769 0.0
C378 C 0.28505 0.66224 0.02619 0.0
O379 O 0.26841 0.64718 0.01557 0.0
O380 O 0.28699 0.75437 0.00524 0.0
C381 C 0.22816 0.79385 0.25469 0.0
O382 O 0.23673 0.79336 0.23844 0.0
O383 O 0.30224 0.80097 0.24206 0.0
Zn384 Zn 0.28774 0.77872 0.2629 0.0
O385 O 0.30892 0.79485 0.28354 0.0
C386 C 0.2906 0.72466 0.24446 0.0
O387 O 0.27648 0.74122 0.23328 0.0
O388 O 0.24578 0.7869 0.26663 0.0
C389 C 0.3359 0.79178 0.28541 0.0
O390 O 0.35037 0.77612 0.27396 0.0
C391 C 0.29782 0.8286 0.23993 0.0
O392 O 0.28248 0.84318 0.25146 0.0
O393 O 0.29667 0.73551 0.25924 0.0
C394 C 0.27199 0.80498 0.5051 0.0
O395 O 0.2633 0.80785 0.52124 0.0
O396 O 0.19906 0.82109 0.51729 0.0
Zn397 Zn 0.21137 0.7951 0.49712 0.0
O398 O 0.19248 0.80978 0.47515 0.0
C399 C 0.17479 0.7498 0.50901 0.0
O400 O 0.15852 0.77337 0.51128 0.0
O401 O 0.2538 0.7985 0.49339 0.0
C402 C 0.1729 0.79682 0.46647 0.0
O403 O 0.16361 0.77062 0.47147 0.0
C404 C 0.17944 0.84058 0.5155 0.0
O405 O 0.16808 0.84483 0.50008 0.0
O406 O 0.19968 0.7531 0.50249 0.0
C407 C 0.25748 0.69549 0.75599 0.0
O408 O 0.24999 0.69395 0.73957 0.0
O409 O 0.18878 0.68476 0.73849 0.0
Zn410 Zn 0.19681 0.70614 0.76089 0.0
O411 O 0.17307 0.6861 0.77921 0.0
C412 C 0.19918 0.77013 0.75325 0.0
O413 O 0.2268 0.76609 0.75055 0.0
O414 O 0.23853 0.70194 0.76727 0.0
C415 C 0.17526 0.69224 0.79526 0.0
O416 O 0.19345 0.71291 0.80021 0.0
C417 C 0.165 0.68959 0.73086 0.0
O418 O 0.1469 0.70875 0.73768 0.0
O419 O 0.18384 0.7484 0.75824 0.0
C420 C 0.72699 0.19283 0.50987 0.0
O421 O 0.73494 0.19123 0.52621 0.0
O422 O 0.80079 0.17668 0.52352 0.0
Zn423 Zn 0.78846 0.19865 0.50201 0.0
O424 O 0.80754 0.17902 0.48151 0.0
C425 C 0.83037 0.24153 0.50636 0.0
O426 O 0.84522 0.2167 0.50545 0.0
O427 O 0.74585 0.19698 0.49819 0.0
C428 C 0.81673 0.1935 0.46848 0.0
O429 O 0.81357 0.22252 0.46805 0.0
C430 C 0.79266 0.15101 0.52832 0.0
O431 O 0.77339 0.13666 0.51908 0.0
O432 O 0.80321 0.24031 0.50469 0.0
C433 C 0.75067 0.3301 0.75711 0.0
O434 O 0.77354 0.34682 0.75488 0.0
O435 O 0.8122 0.30824 0.7333 0.0
Zn436 Zn 0.79468 0.28878 0.75433 0.0
O437 O 0.81649 0.3035 0.77523 0.0
C438 C 0.81519 0.22883 0.76056 0.0
O439 O 0.8272 0.24096 0.77427 0.0
O440 O 0.75367 0.30202 0.75689 0.0
C441 C 0.80697 0.30312 0.79068 0.0
O442 O 0.78164 0.29136 0.79381 0.0
C443 C 0.83913 0.31305 0.73345 0.0
O444 O 0.85421 0.30511 0.74711 0.0
O445 O 0.79901 0.24463 0.75097 0.0
C446 C 0.76208 0.28931 0.00655 0.0
O447 O 0.75407 0.28899 0.0229 0.0
O448 O 0.68889 0.30051 0.02059 0.0
Zn449 Zn 0.70138 0.2786 0.99908 0.0
O450 O 0.68006 0.29602 0.97871 0.0
C451 C 0.69651 0.22313 0.01631 0.0
O452 O 0.71187 0.23764 0.02785 0.0
O453 O 0.74359 0.28418 0.99477 0.0
C454 C 0.65585 0.30866 0.9808 0.0
O455 O 0.64421 0.30912 0.99634 0.0
C456 C 0.69563 0.32732 0.0238 0.0
O457 O 0.71276 0.34153 0.01307 0.0
O458 O 0.69045 0.23584 0.00204 0.0
C459 C 0.74771 0.18016 0.2633 0.0
O460 O 0.72524 0.1625 0.26402 0.0
O461 O 0.68442 0.19666 0.23849 0.0
Zn462 Zn 0.70189 0.21851 0.25886 0.0
O463 O 0.68293 0.20484 0.28091 0.0
C464 C 0.70266 0.27323 0.24058 0.0
O465 O 0.71659 0.2565 0.2294 0.0
O466 O 0.74366 0.20772 0.26061 0.0
C467 C 0.66085 0.2165 0.28783 0.0
O468 O 0.64936 0.2403 0.28076 0.0
C469 C 0.66683 0.1753 0.2405 0.0
O470 O 0.65996 0.16686 0.25629 0.0
O471 O 0.69536 0.26207 0.25507 0.0
C472 C 0.08459 0.87904 0.28593 0.0
C473 C 0.09416 0.90808 0.28927 0.0
C474 C 0.10298 0.85784 0.27845 0.0
C475 C 0.13162 0.86586 0.2744 0.0
C476 C 0.14093 0.89549 0.27697 0.0
C477 C 0.12204 0.91626 0.28428 0.0
C478 C 0.09219 0.82655 0.27569 0.0
C479 C 0.17131 0.90496 0.27278 0.0
C480 C 0.19286 0.81082 0.27696 0.0
C481 C 0.20032 0.80762 0.25941 0.0
C482 C 0.16942 0.82841 0.28195 0.0
C483 C 0.15285 0.84293 0.26908 0.0
C484 C 0.15887 0.83798 0.2513 0.0
C485 C 0.18265 0.82041 0.24666 0.0
C486 C 0.16367 0.83308 0.30107 0.0
C487 C 0.14133 0.85267 0.23721 0.0
H488 H 0.06311 0.87252 0.28983 0.0
H489 H 0.12934 0.93884 0.28646 0.0
H490 H 0.09827 0.8184 0.2626 0.0
H491 H 0.10232 0.8115 0.28533 0.0
H492 H 0.06847 0.825 0.27712 0.0
H493 H 0.17461 0.92923 0.27456 0.0
H494 H 0.18663 0.89294 0.28132 0.0
H495 H 0.17672 0.8991 0.25918 0.0
H496 H 0.20619 0.80077 0.28691 0.0
H497 H 0.1881 0.81785 0.23306 0.0
H498 H 0.14064 0.82924 0.30402 0.0
H499 H 0.16865 0.85644 0.3046 0.0
H500 H 0.17684 0.81814 0.30937 0.0
H501 H 0.118 0.85059 0.23998 0.0
H502 H 0.1458 0.84296 0.22422 0.0
H503 H 0.14646 0.87674 0.23677 0.0
C504 C 0.12644 0.60224 0.55694 0.0
C505 C 0.10789 0.58465 0.54692 0.0
C506 C 0.13969 0.62744 0.54987 0.0
C507 C 0.13426 0.63519 0.53237 0.0
C508 C 0.11675 0.61667 0.52193 0.0
C509 C 0.10369 0.59162 0.52936 0.0
C510 C 0.15817 0.6467 0.56143 0.0
C511 C 0.11067 0.62412 0.50317 0.0
C512 C 0.13707 0.71735 0.52194 0.0
C513 C 0.16427 0.72014 0.51428 0.0
C514 C 0.12696 0.68971 0.52763 0.0
C515 C 0.14445 0.6642 0.52558 0.0
C516 C 0.17173 0.6667 0.51759 0.0
C517 C 0.18137 0.69471 0.51204 0.0
C518 C 0.09771 0.68793 0.53612 0.0
C519 C 0.19086 0.63989 0.51515 0.0
H520 H 0.1295 0.59714 0.57058 0.0
H521 H 0.08966 0.57782 0.52152 0.0
H522 H 0.179 0.65161 0.55504 0.0
H523 H 0.14719 0.66825 0.56374 0.0
H524 H 0.1625 0.63609 0.5742 0.0
H525 H 0.09925 0.60583 0.49635 0.0
H526 H 0.09716 0.64443 0.50248 0.0
H527 H 0.13098 0.62893 0.49617 0.0
H528 H 0.12369 0.73686 0.5237 0.0
H529 H 0.2024 0.69671 0.50609 0.0
H530 H 0.09997 0.6798 0.54966 0.0
H531 H 0.08394 0.67181 0.52908 0.0
H532 H 0.08655 0.70978 0.5364 0.0
H533 H 0.19674 0.63049 0.52798 0.0
H534 H 0.21093 0.64537 0.50801 0.0
H535 H 0.17919 0.62231 0.50792 0.0
C536 C 0.41045 0.632 0.78926 0.0
C537 C 0.4047 0.60265 0.79439 0.0
C538 C 0.38878 0.64996 0.78206 0.0
C539 C 0.36077 0.63823 0.77993 0.0
C540 C 0.35502 0.60844 0.78472 0.0
C541 C 0.377 0.59108 0.79193 0.0
C542 C 0.39568 0.68162 0.77707 0.0
C543 C 0.32541 0.59509 0.78264 0.0
C544 C 0.29394 0.68631 0.77924 0.0
C545 C 0.28624 0.68518 0.76164 0.0
C546 C 0.31912 0.67254 0.78523 0.0
C547 C 0.33697 0.65719 0.77334 0.0
C548 C 0.33025 0.65752 0.75542 0.0
C549 C 0.30498 0.6716 0.74977 0.0
C550 C 0.3257 0.67293 0.80444 0.0
C551 C 0.3488 0.64145 0.74235 0.0
H552 H 0.4319 0.64098 0.79094 0.0
H553 H 0.37223 0.56862 0.79613 0.0
H554 H 0.38971 0.68567 0.76333 0.0
H555 H 0.38283 0.69717 0.78513 0.0
H556 H 0.41884 0.68693 0.7788 0.0
H557 H 0.32482 0.57121 0.7863 0.0
H558 H 0.30981 0.60732 0.79087 0.0
H559 H 0.3181 0.59727 0.76898 0.0
H560 H 0.27973 0.69701 0.78849 0.0
H561 H 0.29928 0.67073 0.73613 0.0
H562 H 0.34838 0.6795 0.8067 0.0
H563 H 0.32288 0.65026 0.80986 0.0
H564 H 0.31145 0.68842 0.81167 0.0
H565 H 0.37179 0.64718 0.74424 0.0
H566 H 0.34262 0.64681 0.72877 0.0
H567 H 0.34668 0.6171 0.74426 0.0
C568 C 0.37169 0.88702 0.0658 0.0
C569 C 0.38629 0.91016 0.0574 0.0
C570 C 0.35665 0.86549 0.05633 0.0
C571 C 0.35589 0.86735 0.03799 0.0
C572 C 0.36869 0.89191 0.0295 0.0
C573 C 0.3839 0.913 0.03931 0.0
C574 C 0.34326 0.83965 0.06589 0.0
C575 C 0.36792 0.89491 0.00998 0.0
C576 C 0.35399 0.7922 0.01611 0.0
C577 C 0.32455 0.78859 0.01277 0.0
C578 C 0.36454 0.81831 0.02365 0.0
C579 C 0.34524 0.84157 0.02781 0.0
C580 C 0.31573 0.83882 0.02358 0.0
C581 C 0.30566 0.81222 0.01617 0.0
C582 C 0.39619 0.82032 0.02798 0.0
C583 C 0.29464 0.86341 0.02755 0.0
H584 H 0.37287 0.88514 0.07982 0.0
H585 H 0.39516 0.93081 0.03271 0.0
H586 H 0.32075 0.83625 0.06159 0.0
H587 H 0.35535 0.81899 0.06288 0.0
H588 H 0.34341 0.84294 0.08019 0.0
H589 H 0.37439 0.9175 0.00567 0.0
H590 H 0.38288 0.87853 0.00411 0.0
H591 H 0.34608 0.89007 0.00492 0.0
H592 H 0.3688 0.77417 0.01341 0.0
H593 H 0.28291 0.80967 0.01351 0.0
H594 H 0.399 0.82145 0.04228 0.0
H595 H 0.40554 0.84089 0.02241 0.0
H596 H 0.40856 0.80095 0.02302 0.0
H597 H 0.2914 0.86494 0.04179 0.0
H598 H 0.27341 0.85957 0.02131 0.0
H599 H 0.30318 0.88515 0.02312 0.0
C600 C 0.07344 0.61776 0.97324 0.0
C601 C 0.08267 0.58863 0.96979 0.0
C602 C 0.09183 0.63837 0.98127 0.0
C603 C 0.12011 0.62964 0.98577 0.0
C604 C 0.12907 0.59993 0.983 0.0
C605 C 0.11019 0.57977 0.97513 0.0
C606 C 0.08144 0.66977 0.98419 0.0
C607 C 0.15906 0.58971 0.98765 0.0
C608 C 0.18251 0.6833 0.98518 0.0
C609 C 0.18907 0.68567 0.00291 0.0
C610 C 0.15898 0.66652 0.97948 0.0
C611 C 0.14143 0.65193 0.99182 0.0
C612 C 0.14657 0.65609 0.00977 0.0
C613 C 0.17044 0.6729 0.01513 0.0
C614 C 0.15417 0.66273 0.96021 0.0
C615 C 0.128 0.64127 0.0233 0.0
H616 H 0.05223 0.6248 0.96908 0.0
H617 H 0.1172 0.55711 0.97286 0.0
H618 H 0.08683 0.67728 0.99752 0.0
H619 H 0.09243 0.68497 0.975 0.0
H620 H 0.05785 0.67189 0.98223 0.0
H621 H 0.16207 0.56546 0.98558 0.0
H622 H 0.17501 0.60179 0.97958 0.0
H623 H 0.16383 0.59492 0.00143 0.0
H624 H 0.19658 0.6934 0.97564 0.0
H625 H 0.17522 0.6748 0.02886 0.0
H626 H 0.13137 0.66711 0.95685 0.0
H627 H 0.159 0.63944 0.95645 0.0
H628 H 0.168 0.67776 0.95238 0.0
H629 H 0.10488 0.64395 0.02008 0.0
H630 H 0.13192 0.6504 0.03649 0.0
H631 H 0.13268 0.61708 0.02354 0.0
C632 C 0.40635 0.62031 0.20626 0.0
C633 C 0.39945 0.59064 0.20254 0.0
C634 C 0.38659 0.63911 0.21447 0.0
C635 C 0.35933 0.62788 0.21934 0.0
C636 C 0.35265 0.59761 0.21639 0.0
C637 C 0.37277 0.57934 0.20792 0.0
C638 C 0.39456 0.67129 0.21739 0.0
C639 C 0.32395 0.58479 0.22162 0.0
C640 C 0.3202 0.6792 0.25036 0.0
C641 C 0.30384 0.69636 0.23877 0.0
C642 C 0.33689 0.65526 0.2444 0.0
C643 C 0.33741 0.64862 0.22644 0.0
C644 C 0.31943 0.66457 0.21489 0.0
C645 C 0.30272 0.68813 0.22122 0.0
C646 C 0.35532 0.63833 0.25716 0.0
C647 C 0.31943 0.65824 0.19563 0.0
H648 H 0.42719 0.629 0.20253 0.0
H649 H 0.36721 0.55648 0.20502 0.0
H650 H 0.37976 0.68588 0.20994 0.0
H651 H 0.39219 0.6771 0.23131 0.0
H652 H 0.41697 0.67624 0.21333 0.0
H653 H 0.32341 0.5602 0.2203 0.0
H654 H 0.31889 0.59075 0.23526 0.0
H655 H 0.30676 0.59437 0.21334 0.0
H656 H 0.32094 0.68522 0.26398 0.0
H657 H 0.28998 0.70111 0.21219 0.0
H658 H 0.37816 0.64482 0.25544 0.0
H659 H 0.35382 0.61406 0.25478 0.0
H660 H 0.34908 0.64293 0.27082 0.0
H661 H 0.34045 0.66486 0.19002 0.0
H662 H 0.30215 0.6705 0.1887 0.0
H663 H 0.31667 0.63411 0.19318 0.0
C664 C 0.42026 0.8746 0.46916 0.0
C665 C 0.41121 0.90317 0.46425 0.0
C666 C 0.40156 0.85523 0.47795 0.0
C667 C 0.37318 0.86465 0.4817 0.0
C668 C 0.36447 0.89395 0.47751 0.0
C669 C 0.38365 0.91287 0.46895 0.0
C670 C 0.41173 0.82432 0.48248 0.0
C671 C 0.3344 0.90493 0.48132 0.0
C672 C 0.30919 0.81335 0.48234 0.0
C673 C 0.30119 0.81452 0.49989 0.0
C674 C 0.334 0.82774 0.47643 0.0
C675 C 0.35141 0.84342 0.48839 0.0
C676 C 0.345 0.84227 0.50634 0.0
C677 C 0.31982 0.82789 0.5119 0.0
C678 C 0.34012 0.82832 0.45717 0.0
C679 C 0.36348 0.85812 0.51952 0.0
H680 H 0.44156 0.86698 0.46556 0.0
H681 H 0.37683 0.9352 0.4656 0.0
H682 H 0.40513 0.8183 0.49587 0.0
H683 H 0.4017 0.80803 0.47353 0.0
H684 H 0.43547 0.82218 0.48142 0.0
H685 H 0.33155 0.92879 0.47801 0.0
H686 H 0.3186 0.89177 0.47373 0.0
H687 H 0.32927 0.90184 0.49526 0.0
H688 H 0.29518 0.80264 0.47299 0.0
H689 H 0.31402 0.82856 0.52552 0.0
H690 H 0.36304 0.82312 0.45461 0.0
H691 H 0.33586 0.85096 0.45204 0.0
H692 H 0.32654 0.81227 0.44988 0.0
H693 H 0.38664 0.85473 0.51669 0.0
H694 H 0.35898 0.85041 0.53295 0.0
H695 H 0.35915 0.88236 0.51888 0.0
C696 C 0.11159 0.91596 0.72307 0.0
C697 C 0.10555 0.911 0.70545 0.0
C698 C 0.12997 0.89682 0.7323 0.0
C699 C 0.14221 0.872 0.72373 0.0
C700 C 0.13747 0.8679 0.70574 0.0
C701 C 0.11941 0.88759 0.69681 0.0
C702 C 0.13499 0.90223 0.7514 0.0
C703 C 0.15007 0.84169 0.69611 0.0
C704 C 0.20104 0.82263 0.74221 0.0
C705 C 0.18495 0.79824 0.74806 0.0
C706 C 0.18737 0.84781 0.73519 0.0
C707 C 0.15702 0.84829 0.73378 0.0
C708 C 0.14067 0.82437 0.74048 0.0
C709 C 0.15482 0.79979 0.74765 0.0
C710 C 0.20546 0.87323 0.72856 0.0
C711 C 0.10825 0.82389 0.73912 0.0
H712 H 0.10096 0.93397 0.72986 0.0
H713 H 0.11547 0.88411 0.68308 0.0
H714 H 0.12273 0.88569 0.75909 0.0
H715 H 0.15807 0.89941 0.75467 0.0
H716 H 0.12801 0.92484 0.75541 0.0
H717 H 0.146 0.84289 0.68191 0.0
H718 H 0.17361 0.8404 0.69829 0.0
H719 H 0.14051 0.82079 0.70113 0.0
H720 H 0.22432 0.82173 0.74264 0.0
H721 H 0.14215 0.78114 0.75221 0.0
H722 H 0.19646 0.89484 0.73291 0.0
H723 H 0.20524 0.87323 0.71416 0.0
H724 H 0.22814 0.87157 0.73299 0.0
H725 H 0.09899 0.84453 0.74467 0.0
H726 H 0.09865 0.80452 0.74594 0.0
H727 H 0.10183 0.82293 0.72525 0.0
C728 C 0.60204 0.41325 0.78051 0.0
C729 C 0.60248 0.41756 0.79855 0.0
C730 C 0.62373 0.39676 0.77223 0.0
C731 C 0.64639 0.38454 0.78224 0.0
C732 C 0.64624 0.38778 0.80051 0.0
C733 C 0.62423 0.40412 0.80844 0.0
C734 C 0.62305 0.3935 0.75273 0.0
C735 C 0.67001 0.37507 0.81166 0.0
C736 C 0.69855 0.32644 0.76524 0.0
C737 C 0.72276 0.34394 0.76159 0.0
C738 C 0.67291 0.33946 0.7712 0.0
C739 C 0.67163 0.37063 0.77365 0.0
C740 C 0.6956 0.38848 0.76927 0.0
C741 C 0.72082 0.37493 0.76325 0.0
C742 C 0.64764 0.31979 0.77554 0.0
C743 C 0.69513 0.4218 0.77175 0.0
H744 H 0.58535 0.42366 0.77279 0.0
H745 H 0.62429 0.40679 0.82243 0.0
H746 H 0.64072 0.40673 0.74692 0.0
H747 H 0.62657 0.36996 0.74897 0.0
H748 H 0.60235 0.40119 0.74709 0.0
H749 H 0.6658 0.37805 0.82575 0.0
H750 H 0.67272 0.351 0.80899 0.0
H751 H 0.69065 0.38613 0.80844 0.0
H752 H 0.69983 0.30249 0.7639 0.0
H753 H 0.73935 0.38867 0.76036 0.0
H754 H 0.62767 0.32866 0.76959 0.0
H755 H 0.64434 0.3195 0.78981 0.0
H756 H 0.65088 0.29656 0.77104 0.0
H757 H 0.67615 0.4316 0.76515 0.0
H758 H 0.71483 0.43266 0.76664 0.0
H759 H 0.69323 0.42706 0.78578 0.0
C760 C 0.57968 0.11744 0.05276 0.0
C761 C 0.58535 0.08688 0.05362 0.0
C762 C 0.59956 0.1371 0.0454 0.0
C763 C 0.62576 0.12591 0.03868 0.0
C764 C 0.63133 0.09498 0.03907 0.0
C765 C 0.61106 0.0758 0.04661 0.0
C766 C 0.59288 0.16998 0.0453 0.0
C767 C 0.6589 0.08228 0.03186 0.0
C768 C 0.6638 0.18065 0.00927 0.0
C769 C 0.68228 0.19487 0.02105 0.0
C770 C 0.64649 0.15677 0.01454 0.0
C771 C 0.64764 0.14702 0.032 0.0
C772 C 0.66764 0.15996 0.04361 0.0
C773 C 0.68479 0.18368 0.03798 0.0
C774 C 0.62569 0.14326 0.00173 0.0
C775 C 0.66956 0.15011 0.06233 0.0
H776 H 0.56004 0.12615 0.05839 0.0
H777 H 0.61538 0.05213 0.04712 0.0
H778 H 0.609 0.18205 0.05325 0.0
H779 H 0.59426 0.17884 0.03189 0.0
H780 H 0.57113 0.17493 0.05052 0.0
H781 H 0.6591 0.05758 0.03212 0.0
H782 H 0.66211 0.08983 0.01829 0.0
H783 H 0.67744 0.09051 0.03956 0.0
H784 H 0.66192 0.18897 0.99611 0.0
H785 H 0.69917 0.19437 0.04713 0.0
H786 H 0.60345 0.15013 0.00508 0.0
H787 H 0.6265 0.11863 0.00235 0.0
H788 H 0.63022 0.15038 0.98819 0.0
H789 H 0.64962 0.15666 0.06926 0.0
H790 H 0.68822 0.16018 0.06915 0.0
H791 H 0.67135 0.12557 0.06315 0.0
C792 C 0.89069 0.12108 0.30626 0.0
C793 C 0.90788 0.10388 0.29519 0.0
C794 C 0.86643 0.13608 0.29995 0.0
C795 C 0.85936 0.13397 0.28212 0.0
C796 C 0.87755 0.11801 0.2707 0.0
C797 C 0.90154 0.10294 0.27741 0.0
C798 C 0.84742 0.15263 0.31258 0.0
C799 C 0.8709 0.11562 0.25157 0.0
C800 C 0.77989 0.13844 0.27194 0.0
C801 C 0.77675 0.16819 0.26684 0.0
C802 C 0.8068 0.12694 0.27656 0.0
C803 C 0.83128 0.14556 0.27591 0.0
C804 C 0.8285 0.17535 0.27022 0.0
C805 C 0.80118 0.1864 0.26581 0.0
C806 C 0.80885 0.09506 0.28265 0.0
C807 C 0.85424 0.1957 0.26918 0.0
H808 H 0.89538 0.12158 0.32005 0.0
H809 H 0.91502 0.08989 0.26882 0.0
H810 H 0.84283 0.17536 0.30773 0.0
H811 H 0.82652 0.14092 0.31381 0.0
H812 H 0.85726 0.15435 0.32569 0.0
H813 H 0.889 0.10572 0.24414 0.0
H814 H 0.8516 0.10149 0.24968 0.0
H815 H 0.86593 0.13785 0.24608 0.0
H816 H 0.76116 0.12418 0.27274 0.0
H817 H 0.79891 0.20937 0.26179 0.0
H818 H 0.81648 0.09444 0.2963 0.0
H819 H 0.82475 0.08271 0.27469 0.0
H820 H 0.78789 0.0833 0.28191 0.0
H821 H 0.86288 0.1997 0.2824 0.0
H822 H 0.84885 0.21748 0.26321 0.0
H823 H 0.87162 0.18509 0.26149 0.0
C824 C 0.90772 0.36633 0.55861 0.0
C825 C 0.92253 0.388 0.54909 0.0
C826 C 0.8903 0.34534 0.55031 0.0
C827 C 0.88751 0.34612 0.53202 0.0
C828 C 0.90104 0.369 0.5224 0.0
C829 C 0.91848 0.38971 0.53107 0.0
C830 C 0.87612 0.32137 0.56105 0.0
C831 C 0.89834 0.37065 0.5029 0.0
C832 C 0.87501 0.27009 0.51264 0.0
C833 C 0.84502 0.26969 0.51075 0.0
C834 C 0.88922 0.29543 0.51874 0.0
C835 C 0.87307 0.32108 0.52301 0.0
C836 C 0.84298 0.32144 0.52023 0.0
C837 C 0.82925 0.29565 0.51415 0.0
C838 C 0.92138 0.29418 0.52148 0.0
C839 C 0.82513 0.34852 0.52448 0.0
H840 H 0.91032 0.36538 0.5726 0.0
H841 H 0.92994 0.40642 0.52366 0.0
H842 H 0.85286 0.32001 0.55796 0.0
H843 H 0.88581 0.29948 0.55787 0.0
H844 H 0.87858 0.3253 0.57521 0.0
H845 H 0.90672 0.39196 0.49765 0.0
H846 H 0.91063 0.35213 0.49693 0.0
H847 H 0.87556 0.36812 0.49888 0.0
H848 H 0.8874 0.25023 0.50987 0.0
H849 H 0.80608 0.29556 0.51261 0.0
H850 H 0.92622 0.29548 0.53558 0.0
H851 H 0.93194 0.31344 0.51515 0.0
H852 H 0.93103 0.27342 0.51627 0.0
H853 H 0.82416 0.35146 0.53877 0.0
H854 H 0.80281 0.34663 0.51945 0.0
H855 H 0.83514 0.36883 0.51898 0.0
C856 C 0.57621 0.12807 0.47418 0.0
C857 C 0.58479 0.10062 0.46721 0.0
C858 C 0.59604 0.14657 0.48273 0.0
C859 C 0.62502 0.13734 0.48429 0.0
C860 C 0.63363 0.10942 0.47758 0.0
C861 C 0.61346 0.0915 0.46909 0.0
C862 C 0.58614 0.17619 0.48975 0.0
C863 C 0.66438 0.09875 0.47894 0.0
C864 C 0.68865 0.189 0.48738 0.0
C865 C 0.69759 0.18427 0.50455 0.0
C866 C 0.66354 0.17576 0.48097 0.0
C867 C 0.64709 0.15723 0.49199 0.0
C868 C 0.65465 0.15443 0.50972 0.0
C869 C 0.67984 0.16811 0.51583 0.0
C870 C 0.65602 0.17962 0.46202 0.0
C871 C 0.63755 0.13499 0.5219 0.0
H872 H 0.55401 0.1351 0.47293 0.0
H873 H 0.6204 0.07059 0.46347 0.0
H874 H 0.59224 0.17839 0.50361 0.0
H875 H 0.59698 0.19443 0.4826 0.0
H876 H 0.56251 0.17919 0.48854 0.0
H877 H 0.66721 0.07586 0.47379 0.0
H878 H 0.67871 0.11392 0.47159 0.0
H879 H 0.67152 0.09906 0.49269 0.0
H880 H 0.70206 0.20185 0.47865 0.0
H881 H 0.68654 0.16448 0.52915 0.0
H882 H 0.63274 0.18425 0.46043 0.0
H883 H 0.66082 0.15872 0.45493 0.0
H884 H 0.66842 0.19793 0.45589 0.0
H885 H 0.61414 0.13868 0.52014 0.0
H886 H 0.64319 0.13912 0.5357 0.0
H887 H 0.64199 0.11129 0.51892 0.0
C888 C 0.91131 0.1168 0.71191 0.0
C889 C 0.90496 0.08635 0.71218 0.0
C890 C 0.89415 0.1373 0.72083 0.0
C891 C 0.86997 0.12714 0.73029 0.0
C892 C 0.86339 0.09643 0.73065 0.0
C893 C 0.88095 0.07635 0.72153 0.0
C894 C 0.90181 0.16992 0.72003 0.0
C895 C 0.83785 0.08484 0.74066 0.0
C896 C 0.84568 0.18332 0.76378 0.0
C897 C 0.82489 0.19927 0.75441 0.0
C898 C 0.85917 0.15829 0.75656 0.0
C899 C 0.85168 0.14908 0.73958 0.0
C900 C 0.82913 0.16365 0.73063 0.0
C901 C 0.81594 0.18855 0.73817 0.0
C902 C 0.88291 0.14313 0.7666 0.0
C903 C 0.8204 0.1544 0.71253 0.0
H904 H 0.92953 0.12469 0.70445 0.0
H905 H 0.8761 0.05279 0.72187 0.0
H906 H 0.88373 0.18271 0.7143 0.0
H907 H 0.90546 0.17865 0.73332 0.0
H908 H 0.92142 0.1741 0.71216 0.0
H909 H 0.83576 0.06029 0.73971 0.0
H910 H 0.83983 0.09104 0.75455 0.0
H911 H 0.8178 0.09519 0.73572 0.0
H912 H 0.85252 0.19124 0.77642 0.0
H913 H 0.79969 0.20054 0.73089 0.0
H914 H 0.90397 0.14882 0.76071 0.0
H915 H 0.88053 0.11862 0.76596 0.0
H916 H 0.88325 0.15005 0.78044 0.0
H917 H 0.83762 0.16063 0.70325 0.0
H918 H 0.80007 0.16522 0.70833 0.0
H919 H 0.81768 0.12994 0.71177 0.0
C920 C 0.91153 0.36251 0.97481 0.0
C921 C 0.90348 0.39119 0.96952 0.0
C922 C 0.89142 0.34308 0.9823 0.0
C923 C 0.86265 0.35261 0.98449 0.0
C924 C 0.85463 0.38183 0.97964 0.0
C925 C 0.87511 0.40071 0.97219 0.0
C926 C 0.90074 0.31213 0.98739 0.0
C927 C 0.82412 0.39284 0.98175 0.0
C928 C 0.79931 0.30007 0.98412 0.0
C929 C 0.79074 0.30073 0.00157 0.0
C930 C 0.82388 0.31534 0.97857 0.0
C931 C 0.84023 0.33171 0.99076 0.0
C932 C 0.83289 0.33074 0.00858 0.0
C933 C 0.8082 0.31517 0.0138 0.0
C934 C 0.83116 0.31561 0.95945 0.0
C935 C 0.84992 0.34778 0.02197 0.0
H936 H 0.93353 0.35516 0.97298 0.0
H937 H 0.86862 0.42266 0.9679 0.0
H938 H 0.89435 0.30736 0.00099 0.0
H939 H 0.88978 0.29558 0.97901 0.0
H940 H 0.92435 0.30897 0.98615 0.0
H941 H 0.8218 0.41667 0.97824 0.0
H942 H 0.8095 0.37961 0.97338 0.0
H943 H 0.81693 0.38984 0.99537 0.0
H944 H 0.78612 0.28865 0.97462 0.0
H945 H 0.80179 0.31568 0.02732 0.0
H946 H 0.85432 0.31077 0.95747 0.0
H947 H 0.8269 0.33805 0.95404 0.0
H948 H 0.81832 0.29915 0.952 0.0
H949 H 0.87333 0.34417 0.02013 0.0
H950 H 0.84405 0.3413 0.03543 0.0
H951 H 0.84577 0.37193 0.0204 0.0
C952 C 0.62759 0.4252 0.20742 0.0
C953 C 0.60119 0.41538 0.20071 0.0
C954 C 0.64714 0.40506 0.21489 0.0
C955 C 0.64009 0.37447 0.21554 0.0
C956 C 0.61343 0.36451 0.20885 0.0
C957 C 0.59435 0.38507 0.20152 0.0
C958 C 0.67531 0.41643 0.22199 0.0
C959 C 0.60516 0.33203 0.2092 0.0
C960 C 0.69504 0.31256 0.21813 0.0
C961 C 0.69105 0.30246 0.23519 0.0
C962 C 0.67996 0.33736 0.21185 0.0
C963 C 0.66053 0.35243 0.22293 0.0
C964 C 0.65808 0.34373 0.24052 0.0
C965 C 0.67336 0.31882 0.24645 0.0
C966 C 0.68327 0.34604 0.19302 0.0
C967 C 0.63777 0.35941 0.25278 0.0
H968 H 0.63288 0.44865 0.20691 0.0
H969 H 0.57422 0.37729 0.19607 0.0
H970 H 0.67747 0.41024 0.23587 0.0
H971 H 0.69349 0.40592 0.21496 0.0
H972 H 0.67728 0.44096 0.2208 0.0
H973 H 0.58346 0.32803 0.20364 0.0
H974 H 0.62104 0.31878 0.20173 0.0
H975 H 0.60545 0.32366 0.22275 0.0
H976 H 0.70885 0.30023 0.20937 0.0
H977 H 0.67036 0.31135 0.25971 0.0
H978 H 0.68617 0.37041 0.19175 0.0
H979 H 0.66344 0.34002 0.18581 0.0
H980 H 0.7018 0.33469 0.18677 0.0
H981 H 0.64022 0.38388 0.25172 0.0
H982 H 0.64135 0.35275 0.2665 0.0
H983 H 0.61526 0.35394 0.24922 0.0
C984 C 0.08122 0.90667 0.40942 0.0
C985 C 0.08465 0.9042 0.39141 0.0
C986 C 0.09552 0.88732 0.42077 0.0
C987 C 0.11389 0.8651 0.41394 0.0
C988 C 0.11717 0.86223 0.39574 0.0
C989 C 0.10236 0.88176 0.38466 0.0
C990 C 0.09124 0.8909 0.4401 0.0
C991 C 0.13679 0.83899 0.38801 0.0
C992 C 0.17131 0.83879 0.44528 0.0
C993 C 0.15914 0.81252 0.45177 0.0
C994 C 0.15735 0.85546 0.43241 0.0
C995 C 0.13044 0.84576 0.42598 0.0
C996 C 0.1185 0.81872 0.43202 0.0
C997 C 0.13308 0.80233 0.44481 0.0
C998 C 0.17092 0.88402 0.42616 0.0
C999 C 0.08976 0.80777 0.42552 0.0
H1000 H 0.06719 0.92373 0.41464 0.0
H1001 H 0.10515 0.87995 0.37073 0.0
H1002 H 0.08384 0.86964 0.44586 0.0
H1003 H 0.11199 0.89666 0.44637 0.0
H1004 H 0.07532 0.90851 0.44327 0.0
H1005 H 0.13608 0.8389 0.37359 0.0
H1006 H 0.15926 0.84315 0.3922 0.0
H1007 H 0.13075 0.81658 0.39278 0.0
H1008 H 0.19158 0.84669 0.45049 0.0
H1009 H 0.12354 0.78205 0.44976 0.0
H1010 H 0.1575 0.9032 0.43023 0.0
H1011 H 0.17198 0.88431 0.41178 0.0
H1012 H 0.19297 0.88717 0.43141 0.0
H1013 H 0.07259 0.82338 0.42966 0.0
H1014 H 0.08449 0.78526 0.43051 0.0
H1015 H 0.08953 0.80715 0.41112 0.0
C1016 C 0.10293 0.56953 0.66673 0.0
C1017 C 0.10533 0.57591 0.64897 0.0
C1018 C 0.1144 0.58872 0.67927 0.0
C1019 C 0.12863 0.61497 0.67394 0.0
C1020 C 0.13163 0.62132 0.65602 0.0
C1021 C 0.11986 0.60171 0.64373 0.0
C1022 C 0.11061 0.58125 0.69826 0.0
C1023 C 0.14683 0.64902 0.64987 0.0
C1024 C 0.12972 0.67636 0.70763 0.0
C1025 C 0.15686 0.67235 0.71524 0.0
C1026 C 0.12069 0.65854 0.69372 0.0
C1027 C 0.13927 0.63622 0.68724 0.0
C1028 C 0.16712 0.63283 0.69439 0.0
C1029 C 0.17559 0.65092 0.70833 0.0
C1030 C 0.09081 0.66285 0.68642 0.0
C1031 C 0.18758 0.60936 0.68774 0.0
H1032 H 0.09131 0.54989 0.67088 0.0
H1033 H 0.12198 0.60659 0.63001 0.0
H1034 H 0.13182 0.58074 0.70486 0.0
H1035 H 0.09752 0.5987 0.70468 0.0
H1036 H 0.0999 0.55944 0.70022 0.0
H1037 H 0.14854 0.64999 0.6355 0.0
H1038 H 0.13505 0.669 0.65443 0.0
H1039 H 0.16878 0.65007 0.65549 0.0
H1040 H 0.11517 0.69297 0.71281 0.0
H1041 H 0.19667 0.6478 0.71406 0.0
H1042 H 0.07762 0.64281 0.6891 0.0
H1043 H 0.09176 0.66561 0.67213 0.0
H1044 H 0.07978 0.68249 0.6921 0.0
H1045 H 0.17891 0.58696 0.69074 0.0
H1046 H 0.2093 0.6113 0.69365 0.0
H1047 H 0.18967 0.61095 0.67343 0.0
C1048 C 0.38472 0.58649 0.90253 0.0
C1049 C 0.40903 0.60024 0.89536 0.0
C1050 C 0.36873 0.60047 0.91565 0.0
C1051 C 0.37729 0.62884 0.9217 0.0
C1052 C 0.40098 0.64341 0.91394 0.0
C1053 C 0.41659 0.62891 0.90086 0.0
C1054 C 0.34357 0.58424 0.92361 0.0
C1055 C 0.41063 0.67375 0.91997 0.0
C1056 C 0.32561 0.67319 0.94984 0.0
C1057 C 0.33588 0.66675 0.96656 0.0
C1058 C 0.3389 0.6611 0.93506 0.0
C1059 C 0.36297 0.64216 0.93709 0.0
C1060 C 0.37351 0.63571 0.95392 0.0
C1061 C 0.35985 0.64808 0.96844 0.0
C1062 C 0.32711 0.66846 0.9173 0.0
C1063 C 0.39917 0.61559 0.95661 0.0
H1064 H 0.37894 0.56422 0.89845 0.0
H1065 H 0.43512 0.63978 0.89516 0.0
H1066 H 0.34875 0.57819 0.93722 0.0
H1067 H 0.32433 0.59882 0.92394 0.0
H1068 H 0.33812 0.56361 0.9164 0.0
H1069 H 0.42787 0.68309 0.91161 0.0
H1070 H 0.39221 0.68944 0.92008 0.0
H1071 H 0.41886 0.67224 0.93346 0.0
H1072 H 0.30709 0.68759 0.94827 0.0
H1073 H 0.36794 0.64297 0.9813 0.0
H1074 H 0.32033 0.64777 0.91062 0.0
H1075 H 0.34411 0.67883 0.90923 0.0
H1076 H 0.30843 0.68382 0.91793 0.0
H1077 H 0.39472 0.59331 0.95105 0.0
H1078 H 0.40473 0.6129 0.97056 0.0
H1079 H 0.41816 0.62471 0.94972 0.0
C1080 C 0.40098 0.9207 0.17905 0.0
C1081 C 0.39293 0.92207 0.16151 0.0
C1082 C 0.38391 0.90585 0.19127 0.0
C1083 C 0.35795 0.89229 0.18588 0.0
C1084 C 0.34932 0.89413 0.16828 0.0
C1085 C 0.36698 0.90892 0.15628 0.0
C1086 C 0.3939 0.90432 0.20992 0.0
C1087 C 0.32168 0.88007 0.16209 0.0
C1088 C 0.33139 0.82968 0.21462 0.0
C1089 C 0.31139 0.8444 0.22521 0.0
C1090 C 0.34609 0.84483 0.20142 0.0
C1091 C 0.34047 0.87538 0.19865 0.0
C1092 C 0.31953 0.89012 0.20884 0.0
C1093 C 0.30532 0.87448 0.22207 0.0
C1094 C 0.3684 0.82837 0.19089 0.0
C1095 C 0.31276 0.92263 0.20611 0.0
H1096 H 0.42068 0.93134 0.18328 0.0
H1097 H 0.36073 0.90966 0.14273 0.0
H1098 H 0.37734 0.914 0.21861 0.0
H1099 H 0.39689 0.88077 0.21382 0.0
H1100 H 0.41447 0.91634 0.21202 0.0
H1101 H 0.31729 0.88483 0.14819 0.0
H1102 H 0.32276 0.85562 0.16388 0.0
H1103 H 0.30332 0.88827 0.16995 0.0
H1104 H 0.33619 0.80642 0.21692 0.0
H1105 H 0.28974 0.88595 0.23011 0.0
H1106 H 0.38997 0.83798 0.19342 0.0
H1107 H 0.36398 0.83098 0.17682 0.0
H1108 H 0.36906 0.80427 0.19401 0.0
H1109 H 0.33184 0.93626 0.20946 0.0
H1110 H 0.29435 0.93019 0.21418 0.0
H1111 H 0.30769 0.9269 0.19226 0.0
C1112 C 0.10719 0.57948 0.86352 0.0
C1113 C 0.07899 0.58704 0.86826 0.0
C1114 C 0.12315 0.59756 0.85225 0.0
C1115 C 0.11063 0.62389 0.84559 0.0
C1116 C 0.08243 0.63202 0.85062 0.0
C1117 C 0.06693 0.61348 0.86188 0.0
C1118 C 0.1532 0.58818 0.84721 0.0
C1119 C 0.06838 0.65994 0.84377 0.0
C1120 C 0.16049 0.68179 0.82596 0.0
C1121 C 0.15813 0.67548 0.80818 0.0
C1122 C 0.14491 0.66541 0.83831 0.0
C1123 C 0.1266 0.64216 0.83272 0.0
C1124 C 0.1239 0.6359 0.81479 0.0
C1125 C 0.13966 0.65264 0.80274 0.0
C1126 C 0.14824 0.67276 0.85733 0.0
C1127 C 0.10462 0.61125 0.80832 0.0
H1128 H 0.1168 0.55932 0.86863 0.0
H1129 H 0.04504 0.6193 0.86534 0.0
H1130 H 0.15419 0.58414 0.83301 0.0
H1131 H 0.1687 0.6062 0.8502 0.0
H1132 H 0.16018 0.56764 0.85404 0.0
H1133 H 0.04694 0.66396 0.84969 0.0
H1134 H 0.08227 0.67949 0.84634 0.0
H1135 H 0.06571 0.65824 0.82949 0.0
H1136 H 0.17468 0.69942 0.83028 0.0
H1137 H 0.13766 0.6476 0.78904 0.0
H1138 H 0.15697 0.65324 0.86439 0.0
H1139 H 0.12695 0.67793 0.86308 0.0
H1140 H 0.16279 0.69198 0.85951 0.0
H1141 H 0.11183 0.58965 0.81375 0.0
H1142 H 0.10451 0.60958 0.79393 0.0
H1143 H 0.08225 0.61498 0.81283 0.0
C1144 C 0.39834 0.57421 0.08186 0.0
C1145 C 0.39344 0.57308 0.09982 0.0
C1146 C 0.37866 0.58797 0.07066 0.0
C1147 C 0.35326 0.60071 0.07754 0.0
C1148 C 0.34773 0.59895 0.09558 0.0
C1149 C 0.36795 0.58524 0.10652 0.0
C1150 C 0.38536 0.58943 0.05148 0.0
C1151 C 0.3208 0.61215 0.10336 0.0
C1152 C 0.32116 0.66241 0.05021 0.0
C1153 C 0.30011 0.64715 0.04067 0.0
C1154 C 0.3379 0.64777 0.0627 0.0
C1155 C 0.33336 0.61714 0.06585 0.0
C1156 C 0.31125 0.6019 0.05688 0.0
C1157 C 0.29493 0.61707 0.04433 0.0
C1158 C 0.36134 0.66479 0.07196 0.0
C1159 C 0.30557 0.56931 0.06005 0.0
H1160 H 0.41769 0.56433 0.07653 0.0
H1161 H 0.3641 0.58467 0.1204 0.0
H1162 H 0.36759 0.57938 0.04389 0.0
H1163 H 0.38725 0.61299 0.04735 0.0
H1164 H 0.40568 0.57774 0.04816 0.0
H1165 H 0.31872 0.60707 0.11741 0.0
H1166 H 0.321 0.63665 0.10169 0.0
H1167 H 0.30151 0.60361 0.0965 0.0
H1168 H 0.32529 0.68568 0.04753 0.0
H1169 H 0.27859 0.60516 0.0371 0.0
H1170 H 0.38266 0.6558 0.06816 0.0
H1171 H 0.35928 0.66202 0.08621 0.0
H1172 H 0.36085 0.68891 0.06887 0.0
H1173 H 0.32413 0.55599 0.05542 0.0
H1174 H 0.2859 0.56144 0.05327 0.0
H1175 H 0.3032 0.56496 0.07416 0.0
C1176 C 0.41315 0.87515 0.36535 0.0
C1177 C 0.42435 0.90218 0.35925 0.0
C1178 C 0.39936 0.85522 0.35406 0.0
C1179 C 0.39647 0.86261 0.33628 0.0
C1180 C 0.40795 0.88969 0.33001 0.0
C1181 C 0.42187 0.90905 0.34154 0.0
C1182 C 0.3875 0.82646 0.36119 0.0
C1183 C 0.40522 0.89842 0.31114 0.0
C1184 C 0.38062 0.80386 0.30215 0.0
C1185 C 0.35106 0.80803 0.29941 0.0
C1186 C 0.39555 0.82081 0.31453 0.0
C1187 C 0.38061 0.8426 0.32427 0.0
C1188 C 0.35065 0.84637 0.32187 0.0
C1189 C 0.33622 0.82895 0.30954 0.0
C1190 C 0.42745 0.81595 0.31688 0.0
C1191 C 0.33399 0.86951 0.33192 0.0
H1192 H 0.41469 0.86979 0.37904 0.0
H1193 H 0.43094 0.92959 0.33664 0.0
H1194 H 0.36377 0.82611 0.35969 0.0
H1195 H 0.39617 0.80733 0.35375 0.0
H1196 H 0.3928 0.82333 0.37514 0.0
H1197 H 0.41562 0.92011 0.30831 0.0
H1198 H 0.41514 0.88117 0.30277 0.0
H1199 H 0.38217 0.89992 0.3075 0.0
H1200 H 0.39221 0.78765 0.29445 0.0
H1201 H 0.31339 0.83236 0.30751 0.0
H1202 H 0.43248 0.81206 0.33078 0.0
H1203 H 0.43933 0.83616 0.31281 0.0
H1204 H 0.43549 0.79677 0.3092 0.0
H1205 H 0.33721 0.86634 0.34607 0.0
H1206 H 0.31057 0.86872 0.3291 0.0
H1207 H 0.34208 0.89201 0.32861 0.0
C1208 C 0.1145 0.93419 0.59534 0.0
C1209 C 0.09185 0.9178 0.60263 0.0
C1210 C 0.13149 0.92226 0.58199 0.0
C1211 C 0.12553 0.89335 0.57569 0.0
C1212 C 0.10336 0.87632 0.5834 0.0
C1213 C 0.08687 0.88871 0.59681 0.0
C1214 C 0.15508 0.94102 0.57417 0.0
C1215 C 0.09635 0.84539 0.57705 0.0
C1216 C 0.14308 0.8743 0.52895 0.0
C1217 C 0.16733 0.85601 0.53082 0.0
C1218 C 0.12969 0.88709 0.54344 0.0
C1219 C 0.14094 0.88168 0.56022 0.0
C1220 C 0.166 0.8641 0.56218 0.0
C1221 C 0.17886 0.85137 0.54745 0.0
C1222 C 0.10294 0.90566 0.54082 0.0
C1223 C 0.17876 0.85813 0.57987 0.0
H1224 H 0.11833 0.95679 0.59963 0.0
H1225 H 0.06975 0.87572 0.6026 0.0
H1226 H 0.17549 0.92826 0.57361 0.0
H1227 H 0.14928 0.94705 0.56064 0.0
H1228 H 0.15881 0.9618 0.58162 0.0
H1229 H 0.07953 0.83447 0.58506 0.0
H1230 H 0.08866 0.84645 0.56342 0.0
H1231 H 0.11593 0.83129 0.57719 0.0
H1232 H 0.13402 0.87806 0.51617 0.0
H1233 H 0.19767 0.83737 0.549 0.0
H1234 H 0.10577 0.92789 0.5468 0.0
H1235 H 0.08442 0.89488 0.54735 0.0
H1236 H 0.09758 0.90866 0.52687 0.0
H1237 H 0.18253 0.87936 0.58684 0.0
H1238 H 0.19941 0.84575 0.57908 0.0
H1239 H 0.16343 0.84495 0.58776 0.0
C1240 C 0.60467 0.42142 0.90769 0.0
C1241 C 0.57952 0.41244 0.89908 0.0
C1242 C 0.61743 0.40343 0.92041 0.0
C1243 C 0.60499 0.37557 0.92448 0.0
C1244 C 0.5802 0.3659 0.91544 0.0
C1245 C 0.56765 0.38452 0.90294 0.0
C1246 C 0.64381 0.41457 0.92983 0.0
C1247 C 0.5665 0.3362 0.91931 0.0
C1248 C 0.65169 0.32057 0.94914 0.0
C1249 C 0.64191 0.3245 0.96622 0.0
C1250 C 0.63944 0.33656 0.93533 0.0
C1251 C 0.61719 0.35724 0.93875 0.0
C1252 C 0.60703 0.36105 0.95592 0.0
C1253 C 0.61938 0.34449 0.96943 0.0
C1254 C 0.65053 0.33161 0.91714 0.0
C1255 C 0.58354 0.38314 0.9601 0.0
H1256 H 0.6143 0.44269 0.90456 0.0
H1257 H 0.54803 0.37752 0.89654 0.0
H1258 H 0.63905 0.41691 0.94388 0.0
H1259 H 0.66161 0.39829 0.92857 0.0
H1260 H 0.65127 0.4364 0.9248 0.0
H1261 H 0.54859 0.33101 0.91026 0.0
H1262 H 0.58278 0.31821 0.91847 0.0
H1263 H 0.55799 0.33615 0.93276 0.0
H1264 H 0.669 0.30504 0.94656 0.0
H1265 H 0.61179 0.34775 0.9826 0.0
H1266 H 0.66014 0.35245 0.91208 0.0
H1267 H 0.63251 0.32562 0.90837 0.0
H1268 H 0.66702 0.31375 0.91656 0.0
H1269 H 0.59056 0.40586 0.95645 0.0
H1270 H 0.57777 0.38311 0.9741 0.0
H1271 H 0.56396 0.37805 0.95242 0.0
C1272 C 0.57266 0.11311 0.16215 0.0
C1273 C 0.58379 0.08657 0.15534 0.0
C1274 C 0.58748 0.12887 0.17506 0.0
C1275 C 0.61405 0.11781 0.1813 0.0
C1276 C 0.62598 0.09171 0.17397 0.0
C1277 C 0.61067 0.07637 0.16108 0.0
C1278 C 0.57406 0.15662 0.18257 0.0
C1279 C 0.65436 0.07936 0.18021 0.0
C1280 C 0.66099 0.16921 0.20834 0.0
C1281 C 0.65388 0.16034 0.22527 0.0
C1282 C 0.64839 0.15542 0.19385 0.0
C1283 C 0.62822 0.13228 0.19639 0.0
C1284 C 0.62113 0.12311 0.21344 0.0
C1285 C 0.63406 0.13722 0.22766 0.0
C1286 C 0.65649 0.16573 0.17585 0.0
C1287 C 0.59968 0.09851 0.21667 0.0
H1288 H 0.55175 0.12092 0.15791 0.0
H1289 H 0.61953 0.05609 0.15568 0.0
H1290 H 0.56805 0.1526 0.19631 0.0
H1291 H 0.58972 0.1752 0.18243 0.0
H1292 H 0.5545 0.16358 0.17534 0.0
H1293 H 0.66176 0.06027 0.17222 0.0
H1294 H 0.67113 0.09689 0.17993 0.0
H1295 H 0.65225 0.07186 0.19387 0.0
H1296 H 0.67631 0.18704 0.20638 0.0
H1297 H 0.62844 0.1302 0.24069 0.0
H1298 H 0.63715 0.17419 0.169 0.0
H1299 H 0.66491 0.14677 0.16816 0.0
H1300 H 0.67298 0.18358 0.17608 0.0
H1301 H 0.57852 0.10462 0.21104 0.0
H1302 H 0.59675 0.09382 0.23072 0.0
H1303 H 0.60686 0.0778 0.21015 0.0
C1304 C 0.8917 0.11114 0.38758 0.0
C1305 C 0.91795 0.09895 0.39314 0.0
C1306 C 0.87397 0.12699 0.39908 0.0
C1307 C 0.88295 0.13122 0.41646 0.0
C1308 C 0.90958 0.11941 0.42209 0.0
C1309 C 0.92658 0.10318 0.41044 0.0
C1310 C 0.84553 0.13895 0.39268 0.0
C1311 C 0.92004 0.12372 0.4405 0.0
C1312 C 0.85084 0.19362 0.44343 0.0
C1313 C 0.83225 0.17792 0.45443 0.0
C1314 C 0.86717 0.17876 0.43079 0.0
C1315 C 0.86439 0.14758 0.42893 0.0
C1316 C 0.8449 0.13178 0.43961 0.0
C1317 C 0.82927 0.14711 0.45235 0.0
C1318 C 0.88809 0.19627 0.41984 0.0
C1319 C 0.84096 0.0986 0.43779 0.0
H1320 H 0.885 0.10842 0.3742 0.0
H1321 H 0.94649 0.09339 0.415 0.0
H1322 H 0.82774 0.12953 0.40053 0.0
H1323 H 0.84481 0.16344 0.39431 0.0
H1324 H 0.84161 0.1336 0.3788 0.0
H1325 H 0.94185 0.11429 0.44259 0.0
H1326 H 0.92056 0.14776 0.44373 0.0
H1327 H 0.90496 0.11293 0.4497 0.0
H1328 H 0.85331 0.21742 0.44504 0.0
H1329 H 0.81473 0.13492 0.46074 0.0
H1330 H 0.88387 0.19238 0.40586 0.0
H1331 H 0.91035 0.18862 0.42252 0.0
H1332 H 0.88686 0.22054 0.42243 0.0
H1333 H 0.83589 0.09285 0.42412 0.0
H1334 H 0.82352 0.08999 0.44625 0.0
H1335 H 0.86125 0.08702 0.44122 0.0
C1336 C 0.93238 0.36662 0.65246 0.0
C1337 C 0.92946 0.39723 0.64959 0.0
C1338 C 0.91591 0.35219 0.66517 0.0
C1339 C 0.8965 0.36894 0.67542 0.0
C1340 C 0.89297 0.39973 0.67226 0.0
C1341 C 0.90938 0.41349 0.65928 0.0
C1342 C 0.9199 0.31922 0.66797 0.0
C1343 C 0.87278 0.4184 0.68308 0.0
C1344 C 0.83989 0.32909 0.70231 0.0
C1345 C 0.85345 0.32751 0.71856 0.0
C1346 C 0.8537 0.34233 0.68807 0.0
C1347 C 0.88146 0.35468 0.69025 0.0
C1348 C 0.89507 0.35345 0.70668 0.0
C1349 C 0.88099 0.33966 0.72059 0.0
C1350 C 0.83874 0.34288 0.67067 0.0
C1351 C 0.92449 0.36679 0.70958 0.0
H1352 H 0.94774 0.35403 0.64483 0.0
H1353 H 0.90733 0.43722 0.65715 0.0
H1354 H 0.92967 0.31524 0.6809 0.0
H1355 H 0.89878 0.30778 0.6678 0.0
H1356 H 0.93396 0.30902 0.65794 0.0
H1357 H 0.87127 0.44165 0.6783 0.0
H1358 H 0.85094 0.40853 0.68311 0.0
H1359 H 0.88039 0.41882 0.69674 0.0
H1360 H 0.81864 0.31959 0.70066 0.0
H1361 H 0.8915 0.33868 0.73314 0.0
H1362 H 0.85214 0.33131 0.66084 0.0
H1363 H 0.83601 0.36616 0.66621 0.0
H1364 H 0.81728 0.33208 0.6711 0.0
H1365 H 0.94046 0.35575 0.70104 0.0
H1366 H 0.93179 0.36456 0.72326 0.0
H1367 H 0.92425 0.39073 0.7061 0.0
C1368 C 0.56439 0.11336 0.34633 0.0
C1369 C 0.57019 0.11401 0.36419 0.0
C1370 C 0.57927 0.13184 0.33477 0.0
C1371 C 0.60043 0.15156 0.34124 0.0
C1372 C 0.60608 0.15272 0.35929 0.0
C1373 C 0.59095 0.1338 0.37057 0.0
C1374 C 0.57282 0.12972 0.31559 0.0
C1375 C 0.62834 0.17362 0.36665 0.0
C1376 C 0.65735 0.17405 0.30863 0.0
C1377 C 0.6468 0.20147 0.30269 0.0
C1378 C 0.64296 0.15806 0.3216 0.0
C1379 C 0.61748 0.16984 0.3289 0.0
C1380 C 0.60732 0.19804 0.32349 0.0
C1381 C 0.62207 0.21351 0.31038 0.0
C1382 C 0.65443 0.12799 0.32697 0.0
C1383 C 0.58034 0.2114 0.33111 0.0
H1384 H 0.54865 0.0978 0.34131 0.0
H1385 H 0.59529 0.13455 0.38439 0.0
H1386 H 0.56684 0.1519 0.31041 0.0
H1387 H 0.59233 0.12232 0.3085 0.0
H1388 H 0.55509 0.11391 0.31274 0.0
H1389 H 0.62916 0.17287 0.38106 0.0
H1390 H 0.6499 0.16777 0.36152 0.0
H1391 H 0.62368 0.19677 0.36253 0.0
H1392 H 0.67649 0.16457 0.3028 0.0
H1393 H 0.61385 0.23474 0.30594 0.0
H1394 H 0.63882 0.11045 0.32327 0.0
H1395 H 0.65706 0.12699 0.34127 0.0
H1396 H 0.67544 0.12282 0.3208 0.0
H1397 H 0.56147 0.19776 0.32733 0.0
H1398 H 0.5767 0.23458 0.32662 0.0
H1399 H 0.5815 0.2113 0.34549 0.0
C1400 C 0.86748 0.08268 0.61399 0.0
C1401 C 0.88845 0.06238 0.60844 0.0
C1402 C 0.84947 0.09704 0.60195 0.0
C1403 C 0.85294 0.0913 0.58399 0.0
C1404 C 0.87396 0.07065 0.57838 0.0
C1405 C 0.89133 0.05634 0.59068 0.0
C1406 C 0.82702 0.11861 0.60842 0.0
C1407 C 0.87867 0.06427 0.55933 0.0
C1408 C 0.79579 0.11017 0.55044 0.0
C1409 C 0.80654 0.13677 0.54351 0.0
C1410 C 0.81 0.0957 0.56416 0.0
C1411 C 0.83576 0.10792 0.5709 0.0
C1412 C 0.84628 0.13514 0.56425 0.0
C1413 C 0.83145 0.14932 0.55073 0.0
C1414 C 0.79791 0.06694 0.57112 0.0
C1415 C 0.87385 0.14874 0.57094 0.0
H1416 H 0.86511 0.0872 0.62774 0.0
H1417 H 0.9078 0.04095 0.58635 0.0
H1418 H 0.83197 0.14131 0.60367 0.0
H1419 H 0.80556 0.1125 0.60323 0.0
H1420 H 0.82586 0.11918 0.62283 0.0
H1421 H 0.89543 0.04706 0.55716 0.0
H1422 H 0.85834 0.05664 0.55326 0.0
H1423 H 0.88528 0.08494 0.55256 0.0
H1424 H 0.77644 0.10047 0.54502 0.0
H1425 H 0.83994 0.16987 0.54547 0.0
H1426 H 0.79609 0.06799 0.58547 0.0
H1427 H 0.81272 0.04836 0.56798 0.0
H1428 H 0.77641 0.0618 0.56558 0.0
H1429 H 0.87281 0.15153 0.58523 0.0
H1430 H 0.87838 0.17072 0.56495 0.0
H1431 H 0.89215 0.13364 0.56812 0.0
C1432 C 0.91165 0.36531 0.86504 0.0
C1433 C 0.90465 0.39491 0.86888 0.0
C1434 C 0.8951 0.34872 0.85328 0.0
C1435 C 0.8712 0.36221 0.84504 0.0
C1436 C 0.86365 0.39189 0.84917 0.0
C1437 C 0.88041 0.40784 0.8611 0.0
C1438 C 0.9036 0.31703 0.84935 0.0
C1439 C 0.8385 0.40714 0.84052 0.0
C1440 C 0.84869 0.33347 0.80079 0.0
C1441 C 0.82386 0.31714 0.80478 0.0
C1442 C 0.86436 0.34802 0.81381 0.0
C1443 C 0.85517 0.346 0.83128 0.0
C1444 C 0.83044 0.32911 0.83546 0.0
C1445 C 0.81497 0.31497 0.82213 0.0
C1446 C 0.89051 0.366 0.8088 0.0
C1447 C 0.82018 0.32624 0.85398 0.0
H1448 H 0.93019 0.35517 0.8712 0.0
H1449 H 0.87512 0.43082 0.86391 0.0
H1450 H 0.8849 0.30202 0.85111 0.0
H1451 H 0.91046 0.31519 0.8356 0.0
H1452 H 0.92147 0.30917 0.85776 0.0
H1453 H 0.83459 0.42975 0.84583 0.0
H1454 H 0.84257 0.40906 0.82637 0.0
H1455 H 0.81868 0.39373 0.84217 0.0
H1456 H 0.8557 0.33533 0.78742 0.0
H1457 H 0.79587 0.30232 0.82532 0.0
H1458 H 0.90971 0.35773 0.81586 0.0
H1459 H 0.88737 0.38959 0.81258 0.0
H1460 H 0.89497 0.36507 0.79464 0.0
H1461 H 0.83772 0.3174 0.86228 0.0
H1462 H 0.80122 0.31136 0.85515 0.0
H1463 H 0.81433 0.34846 0.85914 0.0
C1464 C 0.59599 0.4274 0.08229 0.0
C1465 C 0.60044 0.42519 0.10024 0.0
C1466 C 0.61305 0.41135 0.07059 0.0
C1467 C 0.63535 0.3929 0.07699 0.0
C1468 C 0.64028 0.39095 0.09511 0.0
C1469 C 0.62257 0.40696 0.10655 0.0
C1470 C 0.60683 0.41367 0.05138 0.0
C1471 C 0.6641 0.37183 0.10238 0.0
C1472 C 0.65834 0.3304 0.04704 0.0
C1473 C 0.68203 0.34306 0.03853 0.0
C1474 C 0.64346 0.34607 0.05996 0.0
C1475 C 0.65273 0.37494 0.06466 0.0
C1476 C 0.67737 0.38733 0.05666 0.0
C1477 C 0.69162 0.37131 0.04358 0.0
C1478 C 0.61709 0.33222 0.06805 0.0
C1479 C 0.68814 0.41787 0.06153 0.0
H1480 H 0.57865 0.44121 0.07742 0.0
H1481 H 0.62614 0.40544 0.12043 0.0
H1482 H 0.62626 0.42136 0.04436 0.0
H1483 H 0.60117 0.39144 0.04615 0.0
H1484 H 0.58889 0.42925 0.04853 0.0
H1485 H 0.6659 0.37375 0.11672 0.0
H1486 H 0.66022 0.34819 0.09901 0.0
H1487 H 0.68497 0.37822 0.09648 0.0
H1488 H 0.65075 0.30859 0.04321 0.0
H1489 H 0.71005 0.38112 0.03715 0.0
H1490 H 0.5978 0.34552 0.06461 0.0
H1491 H 0.61893 0.33233 0.08241 0.0
H1492 H 0.61365 0.30897 0.06365 0.0
H1493 H 0.67216 0.43488 0.05755 0.0
H1494 H 0.70903 0.42317 0.05527 0.0
H1495 H 0.69071 0.4196 0.07582 0.0
loop_
_geom_bond_atom_site_label_1
_geom_bond_atom_site_label_2
_geom_bond_distance
_geom_bond_site_symmetry_2
_ccdc_geom_bond_type
C0 C1 1.384 . S
C0 C2 1.384 . S
C0 H28 0.931 . S
C1 C0 1.384 . S
C1 C4 1.382 . S
C2 C0 1.384 . S
C2 C3 1.381 . S
C2 H29 0.930 . S
C3 C2 1.381 . S
C3 C5 1.381 . S
C3 C6 1.487 . S
C4 C1 1.382 . S
C4 C5 1.387 . S
C4 H30 0.930 . S
C5 C3 1.381 . S
C5 C4 1.387 . S
C5 H31 0.931 1_565 S
C6 C3 1.487 . S
C6 C13 1.399 . S
C6 N44 1.343 1_565 S
C7 C8 1.384 . S
C7 C9 1.384 . S
C7 H32 0.931 . S
C8 C7 1.384 . S
C8 C11 1.382 . S
C9 C7 1.384 . S
C9 C10 1.381 . S
C9 H33 0.930 . S
C10 C9 1.381 . S
C10 C12 1.381 . S
C10 C13 1.487 . S
C11 C8 1.382 . S
C11 C12 1.387 . S
C11 H34 0.930 . S
C12 C10 1.381 . S
C12 C11 1.387 . S
C12 H35 0.931 . S
C13 C6 1.399 . S
C13 C10 1.487 . S
C13 N45 1.343 1_455 S
C14 C15 1.384 . S
C14 C16 1.384 . S
C14 H36 0.931 . S
C15 C14 1.384 . S
C15 C18 1.382 . S
C16 C14 1.384 . S
C16 C17 1.381 . S
C16 H37 0.930 . S
C17 C16 1.381 . S
C17 C19 1.381 . S
C17 C20 1.487 . S
C18 C15 1.382 . S
C18 C19 1.387 . S
C18 H38 0.930 . S
C19 C17 1.381 . S
C19 C18 1.387 . S
C19 H39 0.931 1_545 S
C20 C17 1.487 . S
C20 C27 1.399 . S
C20 N45 1.343 1_545 S
C21 C22 1.384 . S
C21 C23 1.384 . S
C21 H40 0.931 . S
C22 C21 1.384 . S
C22 C25 1.382 . S
C23 C21 1.384 . S
C23 C24 1.381 . S
C23 H41 0.930 . S
C24 C23 1.381 . S
C24 C26 1.381 . S
C24 C27 1.487 . S
C25 C22 1.382 . S
C25 C26 1.387 . S
C25 H42 0.930 . S
C26 C24 1.381 . S
C26 C25 1.387 . S
C26 H43 0.931 . S
C27 C20 1.399 . S
C27 C24 1.487 . S
C27 N44 1.343 1_655 S
H28 C0 0.931 . S
H29 C2 0.930 . S
H30 C4 0.930 . S
H31 C5 0.931 1_545 S
H32 C7 0.931 . S
H33 C9 0.930 . S
H34 C11 0.930 . S
H35 C12 0.931 . S
H36 C14 0.931 . S
H37 C16 0.930 . S
H38 C18 0.930 . S
H39 C19 0.931 1_565 S
H40 C21 0.931 . S
H41 C23 0.930 . S
H42 C25 0.930 . S
H43 C26 0.931 . S
N44 C6 1.343 1_545 S
N44 C27 1.343 1_455 S
N45 C13 1.343 1_655 S
N45 C20 1.343 1_565 S
C46 C47 1.384 . S
C46 C48 1.384 . S
C46 H74 0.931 . S
C47 C46 1.384 . S
C47 C50 1.382 . S
C48 C46 1.384 . S
C48 C49 1.381 . S
C48 H75 0.930 . S
C49 C48 1.381 . S
C49 C51 1.381 . S
C49 C52 1.487 . S
C50 C47 1.382 . S
C50 C51 1.387 . S
C50 H76 0.930 . S
C51 C49 1.381 . S
C51 C50 1.387 . S
C51 H77 0.931 1_655 S
C52 C49 1.487 . S
C52 C59 1.399 . S
C52 N90 1.343 1_655 S
C53 C54 1.384 . S
C53 C55 1.384 . S
C53 H78 0.931 . S
C54 C53 1.384 . S
C54 C57 1.382 . S
C55 C53 1.384 . S
C55 C56 1.381 . S
C55 H79 0.930 . S
C56 C55 1.381 . S
C56 C58 1.381 . S
C56 C59 1.487 . S
C57 C54 1.382 . S
C57 C58 1.387 . S
C57 H80 0.930 . S
C58 C56 1.381 . S
C58 C57 1.387 . S
C58 H81 0.931 . S
C59 C52 1.399 . S
C59 C56 1.487 . S
C59 N91 1.343 . S
C60 C61 1.384 . S
C60 C62 1.384 . S
C60 H82 0.931 . S
C61 C60 1.384 . S
C61 C64 1.382 . S
C62 C60 1.384 . S
C62 C63 1.381 . S
C62 H83 0.930 . S
C63 C62 1.381 . S
C63 C65 1.381 . S
C63 C66 1.487 . S
C64 C61 1.382 . S
C64 C65 1.387 . S
C64 H84 0.930 . S
C65 C63 1.381 . S
C65 C64 1.387 . S
C65 H85 0.931 1_455 S
C66 C63 1.487 . S
C66 C73 1.399 . S
C66 N91 1.343 1_455 S
C67 C68 1.384 . S
C67 C69 1.384 . S
C67 H86 0.931 . S
C68 C67 1.384 . S
C68 C71 1.382 . S
C69 C67 1.384 . S
C69 C70 1.381 . S
C69 H87 0.930 . S
C70 C69 1.381 . S
C70 C72 1.381 . S
C70 C73 1.487 . S
C71 C68 1.382 . S
C71 C72 1.387 . S
C71 H88 0.930 . S
C72 C70 1.381 . S
C72 C71 1.387 . S
C72 H89 0.931 . S
C73 C66 1.399 . S
C73 C70 1.487 . S
C73 N90 1.343 . S
H74 C46 0.931 . S
H75 C48 0.930 . S
H76 C50 0.930 . S
H77 C51 0.931 1_455 S
H78 C53 0.931 . S
H79 C55 0.930 . S
H80 C57 0.930 . S
H81 C58 0.931 . S
H82 C60 0.931 . S
H83 C62 0.930 . S
H84 C64 0.930 . S
H85 C65 0.931 1_655 S
H86 C67 0.931 . S
H87 C69 0.930 . S
H88 C71 0.930 . S
H89 C72 0.931 . S
N90 C52 1.343 1_455 S
N90 C73 1.343 . S
N91 C59 1.343 . S
N91 C66 1.343 1_655 S
C92 C93 1.384 . S
C92 C94 1.384 . S
C92 H120 0.931 . S
C93 C92 1.384 . S
C93 C96 1.382 . S
C94 C92 1.384 . S
C94 C95 1.381 . S
C94 H121 0.930 . S
C95 C94 1.381 . S
C95 C97 1.381 . S
C95 C98 1.487 . S
C96 C93 1.382 . S
C96 C97 1.387 . S
C96 H122 0.930 . S
C97 C95 1.381 . S
C97 C96 1.387 . S
C97 H123 0.931 . S
C98 C95 1.487 . S
C98 C105 1.399 . S
C98 N136 1.343 . S
C99 C100 1.384 . S
C99 C101 1.384 . S
C99 H124 0.931 . S
C100 C99 1.384 . S
C100 C103 1.382 . S
C101 C99 1.384 . S
C101 C102 1.381 . S
C101 H125 0.930 . S
C102 C101 1.381 . S
C102 C104 1.381 . S
C102 C105 1.487 . S
C103 C100 1.382 . S
C103 C104 1.387 . S
C103 H126 0.930 . S
C104 C102 1.381 . S
C104 C103 1.387 . S
C104 H127 0.931 . S
C105 C98 1.399 . S
C105 C102 1.487 . S
C105 N137 1.343 . S
C106 C107 1.384 . S
C106 C108 1.384 . S
C106 H128 0.931 . S
C107 C106 1.384 . S
C107 C110 1.382 . S
C108 C106 1.384 . S
C108 C109 1.381 . S
C108 H129 0.930 . S
C109 C108 1.381 . S
C109 C111 1.381 . S
C109 C112 1.487 . S
C110 C107 1.382 . S
C110 C111 1.387 . S
C110 H130 0.930 . S
C111 C109 1.381 . S
C111 C110 1.387 . S
C111 H131 0.931 . S
C112 C109 1.487 . S
C112 C119 1.399 . S
C112 N137 1.343 . S
C113 C114 1.384 . S
C113 C115 1.384 . S
C113 H132 0.931 . S
C114 C113 1.384 . S
C114 C117 1.382 . S
C115 C113 1.384 . S
C115 C116 1.381 . S
C115 H133 0.930 . S
C116 C115 1.381 . S
C116 C118 1.381 . S
C116 C119 1.487 . S
C117 C114 1.382 . S
C117 C118 1.387 . S
C117 H134 0.930 . S
C118 C116 1.381 . S
C118 C117 1.387 . S
C118 H135 0.931 . S
C119 C112 1.399 . S
C119 C116 1.487 . S
C119 N136 1.343 . S
H120 C92 0.931 . S
H121 C94 0.930 . S
H122 C96 0.930 . S
H123 C97 0.931 . S
H124 C99 0.931 . S
H125 C101 0.930 . S
H126 C103 0.930 . S
H127 C104 0.931 . S
H128 C106 0.931 . S
H129 C108 0.930 . S
H130 C110 0.930 . S
H131 C111 0.931 . S
H132 C113 0.931 . S
H133 C115 0.930 . S
H134 C117 0.930 . S
H135 C118 0.931 . S
N136 C98 1.343 . S
N136 C119 1.343 . S
N137 C105 1.343 . S
N137 C112 1.343 . S
C138 C139 1.384 . S
C138 C140 1.384 . S
C138 H166 0.931 . S
C139 C138 1.384 . S
C139 C142 1.382 . S
C140 C138 1.384 . S
C140 C141 1.381 . S
C140 H167 0.930 . S
C141 C140 1.381 . S
C141 C143 1.381 . S
C141 C144 1.487 . S
C142 C139 1.382 . S
C142 C143 1.387 . S
C142 H168 0.930 . S
C143 C141 1.381 . S
C143 C142 1.387 . S
C143 H169 0.931 . S
C144 C141 1.487 . S
C144 C151 1.399 . S
C144 N182 1.343 1_565 S
C145 C146 1.384 . S
C145 C147 1.384 . S
C145 H170 0.931 . S
C146 C145 1.384 . S
C146 C149 1.382 . S
C147 C145 1.384 . S
C147 C148 1.381 . S
C147 H171 0.930 . S
C148 C147 1.381 . S
C148 C150 1.381 . S
C148 C151 1.487 . S
C149 C146 1.382 . S
C149 C150 1.387 . S
C149 H172 0.930 . S
C150 C148 1.381 . S
C150 C149 1.387 . S
C150 H173 0.931 . S
C151 C144 1.399 . S
C151 C148 1.487 . S
C151 N183 1.343 . S
C152 C153 1.384 . S
C152 C154 1.384 . S
C152 H174 0.931 . S
C153 C152 1.384 . S
C153 C156 1.382 . S
C154 C152 1.384 . S
C154 C155 1.381 . S
C154 H175 0.930 . S
C155 C154 1.381 . S
C155 C157 1.381 . S
C155 C158 1.487 . S
C156 C153 1.382 . S
C156 C157 1.387 . S
C156 H176 0.930 . S
C157 C155 1.381 . S
C157 C156 1.387 . S
C157 H177 0.931 . S
C158 C155 1.487 . S
C158 C165 1.399 . S
C158 N183 1.343 1_545 S
C159 C160 1.384 . S
C159 C161 1.384 . S
C159 H178 0.931 . S
C160 C159 1.384 . S
C160 C163 1.382 . S
C161 C159 1.384 . S
C161 C162 1.381 . S
C161 H179 0.930 . S
C162 C161 1.381 . S
C162 C164 1.381 . S
C162 C165 1.487 . S
C163 C160 1.382 . S
C163 C164 1.387 . S
C163 H180 0.930 . S
C164 C162 1.381 . S
C164 C163 1.387 . S
C164 H181 0.931 . S
C165 C158 1.399 . S
C165 C162 1.487 . S
C165 N182 1.343 . S
H166 C138 0.931 . S
H167 C140 0.930 . S
H168 C142 0.930 . S
H169 C143 0.931 . S
H170 C145 0.931 . S
H171 C147 0.930 . S
H172 C149 0.930 . S
H173 C150 0.931 . S
H174 C152 0.931 . S
H175 C154 0.930 . S
H176 C156 0.930 . S
H177 C157 0.931 . S
H178 C159 0.931 . S
H179 C161 0.930 . S
H180 C163 0.930 . S
H181 C164 0.931 . S
N182 C144 1.343 1_545 S
N182 C165 1.343 . S
N183 C151 1.343 . S
N183 C158 1.343 1_565 S
C184 C185 1.384 . S
C184 C186 1.384 . S
C184 H212 0.931 . S
C185 C184 1.384 . S
C185 C188 1.382 . S
C186 C184 1.384 . S
C186 C187 1.381 . S
C186 H213 0.930 . S
C187 C186 1.381 . S
C187 C189 1.381 . S
C187 C190 1.487 . S
C188 C185 1.382 . S
C188 C189 1.387 . S
C188 H214 0.930 . S
C189 C187 1.381 . S
C189 C188 1.387 . S
C189 H215 0.931 . S
C190 C187 1.487 . S
C190 C197 1.399 . S
C190 N228 1.343 . S
C191 C192 1.384 . S
C191 C193 1.384 . S
C191 H216 0.931 . S
C192 C191 1.384 . S
C192 C195 1.382 . S
C193 C191 1.384 . S
C193 C194 1.381 . S
C193 H217 0.930 . S
C194 C193 1.381 . S
C194 C196 1.381 . S
C194 C197 1.487 . S
C195 C192 1.382 . S
C195 C196 1.387 . S
C195 H218 0.930 . S
C196 C194 1.381 . S
C196 C195 1.387 . S
C196 H219 0.931 . S
C197 C190 1.399 . S
C197 C194 1.487 . S
C197 N229 1.343 1_455 S
C198 C199 1.384 . S
C198 C200 1.384 . S
C198 H220 0.931 . S
C199 C198 1.384 . S
C199 C202 1.382 . S
C200 C198 1.384 . S
C200 C201 1.381 . S
C200 H221 0.930 . S
C201 C200 1.381 . S
C201 C203 1.381 . S
C201 C204 1.487 . S
C202 C199 1.382 . S
C202 C203 1.387 . S
C202 H222 0.930 . S
C203 C201 1.381 . S
C203 C202 1.387 . S
C203 H223 0.931 . S
C204 C201 1.487 . S
C204 C211 1.399 . S
C204 N229 1.343 . S
C205 C206 1.384 . S
C205 C207 1.384 . S
C205 H224 0.931 . S
C206 C205 1.384 . S
C206 C209 1.382 . S
C207 C205 1.384 . S
C207 C208 1.381 . S
C207 H225 0.930 . S
C208 C207 1.381 . S
C208 C210 1.381 . S
C208 C211 1.487 . S
C209 C206 1.382 . S
C209 C210 1.387 . S
C209 H226 0.930 . S
C210 C208 1.381 . S
C210 C209 1.387 . S
C210 H227 0.931 . S
C211 C204 1.399 . S
C211 C208 1.487 . S
C211 N228 1.343 1_655 S
H212 C184 0.931 . S
H213 C186 0.930 . S
H214 C188 0.930 . S
H215 C189 0.931 . S
H216 C191 0.931 . S
H217 C193 0.930 . S
H218 C195 0.930 . S
H219 C196 0.931 . S
H220 C198 0.931 . S
H221 C200 0.930 . S
H222 C202 0.930 . S
H223 C203 0.931 . S
H224 C205 0.931 . S
H225 C207 0.930 . S
H226 C209 0.930 . S
H227 C210 0.931 . S
N228 C190 1.343 . S
N228 C211 1.343 1_455 S
N229 C197 1.343 1_655 S
N229 C204 1.343 . S
C230 C231 1.384 . S
C230 C232 1.384 . S
C230 H258 0.931 . S
C231 C230 1.384 . S
C231 C234 1.382 . S
C232 C230 1.384 . S
C232 C233 1.381 . S
C232 H259 0.930 . S
C233 C232 1.381 . S
C233 C235 1.381 . S
C233 C236 1.487 . S
C234 C231 1.382 . S
C234 C235 1.387 . S
C234 H260 0.930 . S
C235 C233 1.381 . S
C235 C234 1.387 . S
C235 H261 0.931 . S
C236 C233 1.487 . S
C236 C243 1.399 . S
C236 N274 1.343 . S
C237 C238 1.384 . S
C237 C239 1.384 . S
C237 H262 0.931 . S
C238 C237 1.384 . S
C238 C241 1.382 . S
C239 C237 1.384 . S
C239 C240 1.381 . S
C239 H263 0.930 . S
C240 C239 1.381 . S
C240 C242 1.381 . S
C240 C243 1.487 . S
C241 C238 1.382 . S
C241 C242 1.387 . S
C241 H264 0.930 . S
C242 C240 1.381 . S
C242 C241 1.387 . S
C242 H265 0.931 . S
C243 C236 1.399 . S
C243 C240 1.487 . S
C243 N275 1.343 . S
C244 C245 1.384 . S
C244 C246 1.384 . S
C244 H266 0.931 . S
C245 C244 1.384 . S
C245 C248 1.382 . S
C246 C244 1.384 . S
C246 C247 1.381 . S
C246 H267 0.930 . S
C247 C246 1.381 . S
C247 C249 1.381 . S
C247 C250 1.487 . S
C248 C245 1.382 . S
C248 C249 1.387 . S
C248 H268 0.930 . S
C249 C247 1.381 . S
C249 C248 1.387 . S
C249 H269 0.931 . S
C250 C247 1.487 . S
C250 C257 1.399 . S
C250 N275 1.343 . S
C251 C252 1.384 . S
C251 C253 1.384 . S
C251 H270 0.931 . S
C252 C251 1.384 . S
C252 C255 1.382 . S
C253 C251 1.384 . S
C253 C254 1.381 . S
C253 H271 0.930 . S
C254 C253 1.381 . S
C254 C256 1.381 . S
C254 C257 1.487 . S
C255 C252 1.382 . S
C255 C256 1.387 . S
C255 H272 0.930 . S
C256 C254 1.381 . S
C256 C255 1.387 . S
C256 H273 0.931 . S
C257 C250 1.399 . S
C257 C254 1.487 . S
C257 N274 1.343 . S
H258 C230 0.931 . S
H259 C232 0.930 . S
H260 C234 0.930 . S
H261 C235 0.931 . S
H262 C237 0.931 . S
H263 C239 0.930 . S
H264 C241 0.930 . S
H265 C242 0.931 . S
H266 C244 0.931 . S
H267 C246 0.930 . S
H268 C248 0.930 . S
H269 C249 0.931 . S
H270 C251 0.931 . S
H271 C253 0.930 . S
H272 C255 0.930 . S
H273 C256 0.931 . S
N274 C236 1.343 . S
N274 C257 1.343 . S
N275 C243 1.343 . S
N275 C250 1.343 . S
C276 C277 1.384 . S
C276 C278 1.384 . S
C276 H304 0.931 . S
C277 C276 1.384 . S
C277 C280 1.382 . S
C278 C276 1.384 . S
C278 C279 1.381 . S
C278 H305 0.930 . S
C279 C278 1.381 . S
C279 C281 1.381 . S
C279 C282 1.487 . S
C280 C277 1.382 . S
C280 C281 1.387 . S
C280 H306 0.930 . S
C281 C279 1.381 . S
C281 C280 1.387 . S
C281 H307 0.931 1_565 S
C282 C279 1.487 . S
C282 C289 1.399 . S
C282 N320 1.343 1_565 S
C283 C284 1.384 . S
C283 C285 1.384 . S
C283 H308 0.931 . S
C284 C283 1.384 . S
C284 C287 1.382 . S
C285 C283 1.384 . S
C285 C286 1.381 . S
C285 H309 0.930 . S
C286 C285 1.381 . S
C286 C288 1.381 . S
C286 C289 1.487 . S
C287 C284 1.382 . S
C287 C288 1.387 . S
C287 H310 0.930 . S
C288 C286 1.381 . S
C288 C287 1.387 . S
C288 H311 0.931 . S
C289 C282 1.399 . S
C289 C286 1.487 . S
C289 N321 1.343 . S
C290 C291 1.384 . S
C290 C292 1.384 . S
C290 H312 0.931 . S
C291 C290 1.384 . S
C291 C294 1.382 . S
C292 C290 1.384 . S
C292 C293 1.381 . S
C292 H313 0.930 . S
C293 C292 1.381 . S
C293 C295 1.381 . S
C293 C296 1.487 . S
C294 C291 1.382 . S
C294 C295 1.387 . S
C294 H314 0.930 . S
C295 C293 1.381 . S
C295 C294 1.387 . S
C295 H315 0.931 1_545 S
C296 C293 1.487 . S
C296 C303 1.399 . S
C296 N321 1.343 1_545 S
C297 C298 1.384 . S
C297 C299 1.384 . S
C297 H316 0.931 . S
C298 C297 1.384 . S
C298 C301 1.382 . S
C299 C297 1.384 . S
C299 C300 1.381 . S
C299 H317 0.930 . S
C300 C299 1.381 . S
C300 C302 1.381 . S
C300 C303 1.487 . S
C301 C298 1.382 . S
C301 C302 1.387 . S
C301 H318 0.930 . S
C302 C300 1.381 . S
C302 C301 1.387 . S
C302 H319 0.931 . S
C303 C296 1.399 . S
C303 C300 1.487 . S
C303 N320 1.343 . S
H304 C276 0.931 . S
H305 C278 0.930 . S
H306 C280 0.930 . S
H307 C281 0.931 1_545 S
H308 C283 0.931 . S
H309 C285 0.930 . S
H310 C287 0.930 . S
H311 C288 0.931 . S
H312 C290 0.931 . S
H313 C292 0.930 . S
H314 C294 0.930 . S
H315 C295 0.931 1_565 S
H316 C297 0.931 . S
H317 C299 0.930 . S
H318 C301 0.930 . S
H319 C302 0.931 . S
N320 C282 1.343 1_545 S
N320 C303 1.343 . S
N321 C289 1.343 . S
N321 C296 1.343 1_565 S
C322 C323 1.384 . S
C322 C324 1.384 . S
C322 H350 0.931 . S
C323 C322 1.384 . S
C323 C326 1.382 . S
C324 C322 1.384 . S
C324 C325 1.381 . S
C324 H351 0.930 . S
C325 C324 1.381 . S
C325 C327 1.381 . S
C325 C328 1.487 . S
C326 C323 1.382 . S
C326 C327 1.387 . S
C326 H352 0.930 . S
C327 C325 1.381 . S
C327 C326 1.387 . S
C327 H353 0.931 1_455 S
C328 C325 1.487 . S
C328 C335 1.399 . S
C328 N366 1.343 1_455 S
C329 C330 1.384 . S
C329 C331 1.384 . S
C329 H354 0.931 . S
C330 C329 1.384 . S
C330 C333 1.382 . S
C331 C329 1.384 . S
C331 C332 1.381 . S
C331 H355 0.930 . S
C332 C331 1.381 . S
C332 C334 1.381 . S
C332 C335 1.487 . S
C333 C330 1.382 . S
C333 C334 1.387 . S
C333 H356 0.930 . S
C334 C332 1.381 . S
C334 C333 1.387 . S
C334 H357 0.931 . S
C335 C328 1.399 . S
C335 C332 1.487 . S
C335 N367 1.343 1_565 S
C336 C337 1.384 . S
C336 C338 1.384 . S
C336 H358 0.931 . S
C337 C336 1.384 . S
C337 C340 1.382 . S
C338 C336 1.384 . S
C338 C339 1.381 . S
C338 H359 0.930 . S
C339 C338 1.381 . S
C339 C341 1.381 . S
C339 C342 1.487 . S
C340 C337 1.382 . S
C340 C341 1.387 . S
C340 H360 0.930 . S
C341 C339 1.381 . S
C341 C340 1.387 . S
C341 H361 0.931 1_655 S
C342 C339 1.487 . S
C342 C349 1.399 . S
C342 N367 1.343 1_655 S
C343 C344 1.384 . S
C343 C345 1.384 . S
C343 H362 0.931 . S
C344 C343 1.384 . S
C344 C347 1.382 . S
C345 C343 1.384 . S
C345 C346 1.381 . S
C345 H363 0.930 . S
C346 C345 1.381 . S
C346 C348 1.381 . S
C346 C349 1.487 . S
C347 C344 1.382 . S
C347 C348 1.387 . S
C347 H364 0.930 . S
C348 C346 1.381 . S
C348 C347 1.387 . S
C348 H365 0.931 . S
C349 C342 1.399 . S
C349 C346 1.487 . S
C349 N366 1.343 1_545 S
H350 C322 0.931 . S
H351 C324 0.930 . S
H352 C326 0.930 . S
H353 C327 0.931 1_655 S
H354 C329 0.931 . S
H355 C331 0.930 . S
H356 C333 0.930 . S
H357 C334 0.931 . S
H358 C336 0.931 . S
H359 C338 0.930 . S
H360 C340 0.930 . S
H361 C341 0.931 1_455 S
H362 C343 0.931 . S
H363 C345 0.930 . S
H364 C347 0.930 . S
H365 C348 0.931 . S
N366 C328 1.343 1_655 S
N366 C349 1.343 1_565 S
N367 C335 1.343 1_545 S
N367 C342 1.343 1_455 S
C368 O369 1.181 . S
C368 O375 1.181 1_554 S
O369 C368 1.181 . S
O370 Zn371 1.899 . S
O370 C378 1.284 . S
Zn371 O370 1.899 . S
Zn371 O372 2.032 1_554 S
Zn371 O375 2.076 1_554 S
Zn371 O380 1.977 . S
O372 Zn371 2.032 1_556 S
O372 C376 1.278 . S
C373 O374 1.203 . S
C373 O380 1.267 . S
O374 C373 1.203 . S
O375 C368 1.181 1_556 S
O375 Zn371 2.076 1_556 S
C376 O372 1.278 . S
C376 O377 1.211 . S
O377 C376 1.211 . S
C378 O370 1.284 . S
C378 O379 1.273 . S
O379 C378 1.273 . S
O380 Zn371 1.977 . S
O380 C373 1.267 . S
C381 O382 1.160 . S
C381 O388 1.185 . S
O382 C381 1.160 . S
O383 Zn384 1.899 . S
O383 C391 1.284 . S
Zn384 O383 1.899 . S
Zn384 O385 2.032 . S
Zn384 O388 2.086 . S
Zn384 O393 1.977 . S
O385 Zn384 2.032 . S
O385 C389 1.278 . S
C386 O387 1.203 . S
C386 O393 1.267 . S
O387 C386 1.203 . S
O388 C381 1.185 . S
O388 Zn384 2.086 . S
C389 O385 1.278 . S
C389 O390 1.211 . S
O390 C389 1.211 . S
C391 O383 1.284 . S
C391 O392 1.273 . S
O392 C391 1.273 . S
O393 Zn384 1.977 . S
O393 C386 1.267 . S
C394 O395 1.160 . S
C394 O401 1.185 . S
O395 C394 1.160 . S
O396 Zn397 1.899 . S
O396 C404 1.284 . S
Zn397 O396 1.899 . S
Zn397 O398 2.032 . S
Zn397 O401 2.086 . S
Zn397 O406 1.977 . S
O398 Zn397 2.032 . S
O398 C402 1.278 . S
C399 O400 1.203 . S
C399 O406 1.267 . S
O400 C399 1.203 . S
O401 C394 1.185 . S
O401 Zn397 2.086 . S
C402 O398 1.278 . S
C402 O403 1.211 . S
O403 C402 1.211 . S
C404 O396 1.284 . S
C404 O405 1.273 . S
O405 C404 1.273 . S
O406 Zn397 1.977 . S
O406 C399 1.267 . S
C407 O408 1.160 . S
C407 O414 1.185 . S
O408 C407 1.160 . S
O409 Zn410 1.899 . S
O409 C417 1.284 . S
Zn410 O409 1.899 . S
Zn410 O411 2.032 . S
Zn410 O414 2.086 . S
Zn410 O419 1.977 . S
O411 Zn410 2.032 . S
O411 C415 1.278 . S
C412 O413 1.203 . S
C412 O419 1.267 . S
O413 C412 1.203 . S
O414 C407 1.185 . S
O414 Zn410 2.086 . S
C415 O411 1.278 . S
C415 O416 1.211 . S
O416 C415 1.211 . S
C417 O409 1.284 . S
C417 O418 1.273 . S
O418 C417 1.273 . S
O419 Zn410 1.977 . S
O419 C412 1.267 . S
C420 O421 1.160 . S
C420 O427 1.185 . S
O421 C420 1.160 . S
O422 Zn423 1.899 . S
O422 C430 1.284 . S
Zn423 O422 1.899 . S
Zn423 O424 2.032 . S
Zn423 O427 2.086 . S
Zn423 O432 1.977 . S
O424 Zn423 2.032 . S
O424 C428 1.278 . S
C425 O426 1.203 . S
C425 O432 1.267 . S
O426 C425 1.203 . S
O427 C420 1.185 . S
O427 Zn423 2.086 . S
C428 O424 1.278 . S
C428 O429 1.211 . S
O429 C428 1.211 . S
C430 O422 1.284 . S
C430 O431 1.273 . S
O431 C430 1.273 . S
O432 Zn423 1.977 . S
O432 C425 1.267 . S
C433 O434 1.160 . S
C433 O440 1.185 . S
O434 C433 1.160 . S
O435 Zn436 1.899 . S
O435 C443 1.284 . S
Zn436 O435 1.899 . S
Zn436 O437 2.032 . S
Zn436 O440 2.086 . S
Zn436 O445 1.977 . S
O437 Zn436 2.032 . S
O437 C441 1.278 . S
C438 O439 1.203 . S
C438 O445 1.267 . S
O439 C438 1.203 . S
O440 C433 1.185 . S
O440 Zn436 2.086 . S
C441 O437 1.278 . S
C441 O442 1.211 . S
O442 C441 1.211 . S
C443 O435 1.284 . S
C443 O444 1.273 . S
O444 C443 1.273 . S
O445 Zn436 1.977 . S
O445 C438 1.267 . S
C446 O447 1.181 . S
C446 O453 1.181 1_554 S
O447 C446 1.181 . S
O448 Zn449 1.899 . S
O448 C456 1.284 . S
Zn449 O448 1.899 . S
Zn449 O450 2.032 1_554 S
Zn449 O453 2.076 1_554 S
Zn449 O458 1.977 . S
O450 Zn449 2.032 1_556 S
O450 C454 1.278 . S
C451 O452 1.203 . S
C451 O458 1.267 . S
O452 C451 1.203 . S
O453 C446 1.181 1_556 S
O453 Zn449 2.076 1_556 S
C454 O450 1.278 . S
C454 O455 1.211 . S
O455 C454 1.211 . S
C456 O448 1.284 . S
C456 O457 1.273 . S
O457 C456 1.273 . S
O458 Zn449 1.977 . S
O458 C451 1.267 . S
C459 O460 1.160 . S
C459 O466 1.185 . S
O460 C459 1.160 . S
O461 Zn462 1.899 . S
O461 C469 1.284 . S
Zn462 O461 1.899 . S
Zn462 O463 2.032 . S
Zn462 O466 2.086 . S
Zn462 O471 1.977 . S
O463 Zn462 2.032 . S
O463 C467 1.278 . S
C464 O465 1.203 . S
C464 O471 1.267 . S
O465 C464 1.203 . S
O466 C459 1.185 . S
O466 Zn462 2.086 . S
C467 O463 1.278 . S
C467 O468 1.211 . S
O468 C467 1.211 . S
C469 O461 1.284 . S
C469 O470 1.273 . S
O470 C469 1.273 . S
O471 Zn462 1.977 . S
O471 C464 1.267 . S
C472 C473 1.391 . S
C472 C474 1.394 . S
C472 H488 0.931 . S
C473 C472 1.391 . S
C473 C477 1.376 . S
C474 C472 1.394 . S
C474 C475 1.369 . S
C474 C478 1.531 . S
C475 C474 1.369 . S
C475 C476 1.410 . S
C475 C483 1.503 . S
C476 C475 1.410 . S
C476 C477 1.392 . S
C476 C479 1.511 . S
C477 C473 1.376 . S
C477 C476 1.392 . S
C477 H489 0.929 . S
C478 C474 1.531 . S
C478 H490 0.960 . S
C478 H491 0.962 . S
C478 H492 0.960 . S
C479 C476 1.511 . S
C479 H493 0.961 . S
C479 H494 0.961 . S
C479 H495 0.961 . S
C480 C481 1.370 . S
C480 C482 1.363 . S
C480 H496 0.931 . S
C481 C480 1.370 . S
C481 C485 1.408 . S
C482 C480 1.363 . S
C482 C483 1.370 . S
C482 C486 1.524 . S
C483 C475 1.503 . S
C483 C482 1.370 . S
C483 C484 1.403 . S
C484 C483 1.403 . S
C484 C485 1.404 . S
C484 C487 1.539 . S
C485 C481 1.408 . S
C485 C484 1.404 . S
C485 H497 0.930 . S
C486 C482 1.524 . S
C486 H498 0.956 . S
C486 H499 0.961 . S
C486 H500 0.961 . S
C487 C484 1.539 . S
C487 H501 0.958 . S
C487 H502 0.961 . S
C487 H503 0.960 . S
H488 C472 0.931 . S
H489 C477 0.929 . S
H490 C478 0.960 . S
H491 C478 0.962 . S
H492 C478 0.960 . S
H493 C479 0.961 . S
H494 C479 0.961 . S
H495 C479 0.961 . S
H496 C480 0.931 . S
H497 C485 0.930 . S
H498 C486 0.956 . S
H499 C486 0.961 . S
H500 C486 0.961 . S
H501 C487 0.958 . S
H502 C487 0.961 . S
H503 C487 0.960 . S
C504 C505 1.391 . S
C504 C506 1.394 . S
C504 H520 0.931 . S
C505 C504 1.391 . S
C505 C509 1.376 . S
C506 C504 1.394 . S
C506 C507 1.369 . S
C506 C510 1.531 . S
C507 C506 1.369 . S
C507 C508 1.410 . S
C507 C515 1.503 . S
C508 C507 1.410 . S
C508 C509 1.392 . S
C508 C511 1.511 . S
C509 C505 1.376 . S
C509 C508 1.392 . S
C509 H521 0.929 . S
C510 C506 1.531 . S
C510 H522 0.960 . S
C510 H523 0.962 . S
C510 H524 0.960 . S
C511 C508 1.511 . S
C511 H525 0.961 . S
C511 H526 0.961 . S
C511 H527 0.961 . S
C512 C513 1.370 . S
C512 C514 1.363 . S
C512 H528 0.931 . S
C513 C512 1.370 . S
C513 C517 1.408 . S
C514 C512 1.363 . S
C514 C515 1.370 . S
C514 C518 1.524 . S
C515 C507 1.503 . S
C515 C514 1.370 . S
C515 C516 1.403 . S
C516 C515 1.403 . S
C516 C517 1.404 . S
C516 C519 1.539 . S
C517 C513 1.408 . S
C517 C516 1.404 . S
C517 H529 0.930 . S
C518 C514 1.524 . S
C518 H530 0.956 . S
C518 H531 0.961 . S
C518 H532 0.961 . S
C519 C516 1.539 . S
C519 H533 0.958 . S
C519 H534 0.961 . S
C519 H535 0.960 . S
H520 C504 0.931 . S
H521 C509 0.929 . S
H522 C510 0.960 . S
H523 C510 0.962 . S
H524 C510 0.960 . S
H525 C511 0.961 . S
H526 C511 0.961 . S
H527 C511 0.961 . S
H528 C512 0.931 . S
H529 C517 0.930 . S
H530 C518 0.956 . S
H531 C518 0.961 . S
H532 C518 0.961 . S
H533 C519 0.958 . S
H534 C519 0.961 . S
H535 C519 0.960 . S
C536 C537 1.391 . S
C536 C538 1.394 . S
C536 H552 0.931 . S
C537 C536 1.391 . S
C537 C541 1.376 . S
C538 C536 1.394 . S
C538 C539 1.369 . S
C538 C542 1.531 . S
C539 C538 1.369 . S
C539 C540 1.410 . S
C539 C547 1.503 . S
C540 C539 1.410 . S
C540 C541 1.392 . S
C540 C543 1.511 . S
C541 C537 1.376 . S
C541 C540 1.392 . S
C541 H553 0.929 . S
C542 C538 1.531 . S
C542 H554 0.960 . S
C542 H555 0.962 . S
C542 H556 0.960 . S
C543 C540 1.511 . S
C543 H557 0.961 . S
C543 H558 0.961 . S
C543 H559 0.961 . S
C544 C545 1.370 . S
C544 C546 1.363 . S
C544 H560 0.931 . S
C545 C544 1.370 . S
C545 C549 1.408 . S
C546 C544 1.363 . S
C546 C547 1.370 . S
C546 C550 1.524 . S
C547 C539 1.503 . S
C547 C546 1.370 . S
C547 C548 1.403 . S
C548 C547 1.403 . S
C548 C549 1.404 . S
C548 C551 1.539 . S
C549 C545 1.408 . S
C549 C548 1.404 . S
C549 H561 0.930 . S
C550 C546 1.524 . S
C550 H562 0.956 . S
C550 H563 0.961 . S
C550 H564 0.961 . S
C551 C548 1.539 . S
C551 H565 0.958 . S
C551 H566 0.961 . S
C551 H567 0.960 . S
H552 C536 0.931 . S
H553 C541 0.929 . S
H554 C542 0.960 . S
H555 C542 0.962 . S
H556 C542 0.960 . S
H557 C543 0.961 . S
H558 C543 0.961 . S
H559 C543 0.961 . S
H560 C544 0.931 . S
H561 C549 0.930 . S
H562 C550 0.956 . S
H563 C550 0.961 . S
H564 C550 0.961 . S
H565 C551 0.958 . S
H566 C551 0.961 . S
H567 C551 0.960 . S
C568 C569 1.391 . S
C568 C570 1.394 . S
C568 H584 0.931 . S
C569 C568 1.391 . S
C569 C573 1.376 . S
C570 C568 1.394 . S
C570 C571 1.369 . S
C570 C574 1.531 . S
C571 C570 1.369 . S
C571 C572 1.410 . S
C571 C579 1.503 . S
C572 C571 1.410 . S
C572 C573 1.392 . S
C572 C575 1.511 . S
C573 C569 1.376 . S
C573 C572 1.392 . S
C573 H585 0.929 . S
C574 C570 1.531 . S
C574 H586 0.960 . S
C574 H587 0.962 . S
C574 H588 0.960 . S
C575 C572 1.511 . S
C575 H589 0.961 1_554 S
C575 H590 0.978 . S
C575 H591 0.961 . S
C576 C577 1.370 . S
C576 C578 1.363 . S
C576 H592 0.931 . S
C577 C576 1.370 . S
C577 C581 1.408 . S
C578 C576 1.363 . S
C578 C579 1.370 . S
C578 C582 1.524 . S
C579 C571 1.503 . S
C579 C578 1.370 . S
C579 C580 1.403 . S
C580 C579 1.403 . S
C580 C581 1.404 . S
C580 C583 1.539 . S
C581 C577 1.408 . S
C581 C580 1.404 . S
C581 H593 0.930 . S
C582 C578 1.524 . S
C582 H594 0.956 . S
C582 H595 0.973 . S
C582 H596 0.961 1_554 S
C583 C580 1.539 . S
C583 H597 0.958 . S
C583 H598 0.961 . S
C583 H599 0.960 . S
H584 C568 0.931 . S
H585 C573 0.929 . S
H586 C574 0.960 . S
H587 C574 0.962 . S
H588 C574 0.960 . S
H589 C575 0.961 1_556 S
H590 C575 0.978 . S
H591 C575 0.961 . S
H592 C576 0.931 . S
H593 C581 0.930 . S
H594 C582 0.956 . S
H595 C582 0.973 . S
H596 C582 0.961 1_556 S
H597 C583 0.958 . S
H598 C583 0.961 . S
H599 C583 0.960 . S
C600 C601 1.391 . S
C600 C602 1.394 . S
C600 H616 0.931 . S
C601 C600 1.391 . S
C601 C605 1.376 . S
C602 C600 1.394 . S
C602 C603 1.369 . S
C602 C606 1.532 . S
C603 C602 1.369 . S
C603 C604 1.410 . S
C603 C611 1.503 . S
C604 C603 1.410 . S
C604 C605 1.392 . S
C604 C607 1.511 . S
C605 C601 1.376 . S
C605 C604 1.392 . S
C605 H617 0.929 . S
C606 C602 1.532 . S
C606 H618 0.959 1_556 S
C606 H619 0.963 . S
C606 H620 0.959 1_556 S
C607 C604 1.511 . S
C607 H621 0.961 . S
C607 H622 0.961 . S
C607 H623 0.961 . S
C608 C609 1.370 . S
C608 C610 1.363 . S
C608 H624 0.931 . S
C609 C608 1.370 . S
C609 C613 1.408 1_556 S
C610 C608 1.363 . S
C610 C611 1.370 . S
C610 C614 1.524 . S
C611 C603 1.503 . S
C611 C610 1.370 . S
C611 C612 1.403 1_556 S
C612 C611 1.403 1_554 S
C612 C613 1.404 . S
C612 C615 1.539 . S
C613 C609 1.408 1_554 S
C613 C612 1.404 . S
C613 H625 0.930 . S
C614 C610 1.524 . S
C614 H626 0.956 . S
C614 H627 0.961 . S
C614 H628 0.961 . S
C615 C612 1.539 . S
C615 H629 0.958 . S
C615 H630 0.961 . S
C615 H631 0.960 . S
H616 C600 0.931 . S
H617 C605 0.929 . S
H618 C606 0.959 1_554 S
H619 C606 0.963 . S
H620 C606 0.959 1_554 S
H621 C607 0.961 . S
H622 C607 0.961 . S
H623 C607 0.961 . S
H624 C608 0.931 . S
H625 C613 0.930 . S
H626 C614 0.956 . S
H627 C614 0.961 . S
H628 C614 0.961 . S
H629 C615 0.958 . S
H630 C615 0.961 . S
H631 C615 0.960 . S
C632 C633 1.391 . S
C632 C634 1.394 . S
C632 H648 0.931 . S
C633 C632 1.391 . S
C633 C637 1.376 . S
C634 C632 1.394 . S
C634 C635 1.369 . S
C634 C638 1.531 . S
C635 C634 1.369 . S
C635 C636 1.410 . S
C635 C643 1.503 . S
C636 C635 1.410 . S
C636 C637 1.392 . S
C636 C639 1.511 . S
C637 C633 1.376 . S
C637 C636 1.392 . S
C637 H649 0.929 . S
C638 C634 1.531 . S
C638 H650 0.960 . S
C638 H651 0.962 . S
C638 H652 0.960 . S
C639 C636 1.511 . S
C639 H653 0.961 . S
C639 H654 0.961 . S
C639 H655 0.961 . S
C640 C641 1.370 . S
C640 C642 1.363 . S
C640 H656 0.931 . S
C641 C640 1.370 . S
C641 C645 1.408 . S
C642 C640 1.363 . S
C642 C643 1.370 . S
C642 C646 1.524 . S
C643 C635 1.503 . S
C643 C642 1.370 . S
C643 C644 1.403 . S
C644 C643 1.403 . S
C644 C645 1.404 . S
C644 C647 1.539 . S
C645 C641 1.408 . S
C645 C644 1.404 . S
C645 H657 0.930 . S
C646 C642 1.524 . S
C646 H658 0.956 . S
C646 H659 0.961 . S
C646 H660 0.961 . S
C647 C644 1.539 . S
C647 H661 0.958 . S
C647 H662 0.961 . S
C647 H663 0.960 . S
H648 C632 0.931 . S
H649 C637 0.929 . S
H650 C638 0.960 . S
H651 C638 0.962 . S
H652 C638 0.960 . S
H653 C639 0.961 . S
H654 C639 0.961 . S
H655 C639 0.961 . S
H656 C640 0.931 . S
H657 C645 0.930 . S
H658 C646 0.956 . S
H659 C646 0.961 . S
H660 C646 0.961 . S
H661 C647 0.958 . S
H662 C647 0.961 . S
H663 C647 0.960 . S
C664 C665 1.391 . S
C664 C666 1.394 . S
C664 H680 0.931 . S
C665 C664 1.391 . S
C665 C669 1.376 . S
C666 C664 1.394 . S
C666 C667 1.369 . S
C666 C670 1.531 . S
C667 C666 1.369 . S
C667 C668 1.410 . S
C667 C675 1.503 . S
C668 C667 1.410 . S
C668 C669 1.392 . S
C668 C671 1.511 . S
C669 C665 1.376 . S
C669 C668 1.392 . S
C669 H681 0.929 . S
C670 C666 1.531 . S
C670 H682 0.960 . S
C670 H683 0.962 . S
C670 H684 0.960 . S
C671 C668 1.511 . S
C671 H685 0.961 . S
C671 H686 0.961 . S
C671 H687 0.961 . S
C672 C673 1.370 . S
C672 C674 1.363 . S
C672 H688 0.931 . S
C673 C672 1.370 . S
C673 C677 1.408 . S
C674 C672 1.363 . S
C674 C675 1.370 . S
C674 C678 1.524 . S
C675 C667 1.503 . S
C675 C674 1.370 . S
C675 C676 1.403 . S
C676 C675 1.403 . S
C676 C677 1.404 . S
C676 C679 1.539 . S
C677 C673 1.408 . S
C677 C676 1.404 . S
C677 H689 0.930 . S
C678 C674 1.524 . S
C678 H690 0.956 . S
C678 H691 0.961 . S
C678 H692 0.961 . S
C679 C676 1.539 . S
C679 H693 0.958 . S
C679 H694 0.961 . S
C679 H695 0.960 . S
H680 C664 0.931 . S
H681 C669 0.929 . S
H682 C670 0.960 . S
H683 C670 0.962 . S
H684 C670 0.960 . S
H685 C671 0.961 . S
H686 C671 0.961 . S
H687 C671 0.961 . S
H688 C672 0.931 . S
H689 C677 0.930 . S
H690 C678 0.956 . S
H691 C678 0.961 . S
H692 C678 0.961 . S
H693 C679 0.958 . S
H694 C679 0.961 . S
H695 C679 0.960 . S
C696 C697 1.391 . S
C696 C698 1.394 . S
C696 H712 0.931 . S
C697 C696 1.391 . S
C697 C701 1.376 . S
C698 C696 1.394 . S
C698 C699 1.369 . S
C698 C702 1.531 . S
C699 C698 1.369 . S
C699 C700 1.410 . S
C699 C707 1.503 . S
C700 C699 1.410 . S
C700 C701 1.392 . S
C700 C703 1.511 . S
C701 C697 1.376 . S
C701 C700 1.392 . S
C701 H713 0.929 . S
C702 C698 1.531 . S
C702 H714 0.960 . S
C702 H715 0.962 . S
C702 H716 0.960 . S
C703 C700 1.511 . S
C703 H717 0.961 . S
C703 H718 0.961 . S
C703 H719 0.961 . S
C704 C705 1.370 . S
C704 C706 1.363 . S
C704 H720 0.931 . S
C705 C704 1.370 . S
C705 C709 1.408 . S
C706 C704 1.363 . S
C706 C707 1.370 . S
C706 C710 1.524 . S
C707 C699 1.503 . S
C707 C706 1.370 . S
C707 C708 1.403 . S
C708 C707 1.403 . S
C708 C709 1.404 . S
C708 C711 1.539 . S
C709 C705 1.408 . S
C709 C708 1.404 . S
C709 H721 0.930 . S
C710 C706 1.524 . S
C710 H722 0.956 . S
C710 H723 0.961 . S
C710 H724 0.961 . S
C711 C708 1.539 . S
C711 H725 0.958 . S
C711 H726 0.961 . S
C711 H727 0.960 . S
H712 C696 0.931 . S
H713 C701 0.929 . S
H714 C702 0.960 . S
H715 C702 0.962 . S
H716 C702 0.960 . S
H717 C703 0.961 . S
H718 C703 0.961 . S
H719 C703 0.961 . S
H720 C704 0.931 . S
H721 C709 0.930 . S
H722 C710 0.956 . S
H723 C710 0.961 . S
H724 C710 0.961 . S
H725 C711 0.958 . S
H726 C711 0.961 . S
H727 C711 0.960 . S
C728 C729 1.391 . S
C728 C730 1.394 . S
C728 H744 0.931 . S
C729 C728 1.391 . S
C729 C733 1.376 . S
C730 C728 1.394 . S
C730 C731 1.369 . S
C730 C734 1.531 . S
C731 C730 1.369 . S
C731 C732 1.410 . S
C731 C739 1.503 . S
C732 C731 1.410 . S
C732 C733 1.392 . S
C732 C735 1.511 . S
C733 C729 1.376 . S
C733 C732 1.392 . S
C733 H745 0.929 . S
C734 C730 1.531 . S
C734 H746 0.960 . S
C734 H747 0.962 . S
C734 H748 0.960 . S
C735 C732 1.511 . S
C735 H749 0.961 . S
C735 H750 0.961 . S
C735 H751 0.961 . S
C736 C737 1.370 . S
C736 C738 1.363 . S
C736 H752 0.931 . S
C737 C736 1.370 . S
C737 C741 1.408 . S
C738 C736 1.363 . S
C738 C739 1.370 . S
C738 C742 1.524 . S
C739 C731 1.503 . S
C739 C738 1.370 . S
C739 C740 1.403 . S
C740 C739 1.403 . S
C740 C741 1.404 . S
C740 C743 1.539 . S
C741 C737 1.408 . S
C741 C740 1.404 . S
C741 H753 0.930 . S
C742 C738 1.524 . S
C742 H754 0.956 . S
C742 H755 0.961 . S
C742 H756 0.961 . S
C743 C740 1.539 . S
C743 H757 0.958 . S
C743 H758 0.961 . S
C743 H759 0.960 . S
H744 C728 0.931 . S
H745 C733 0.929 . S
H746 C734 0.960 . S
H747 C734 0.962 . S
H748 C734 0.960 . S
H749 C735 0.961 . S
H750 C735 0.961 . S
H751 C735 0.961 . S
H752 C736 0.931 . S
H753 C741 0.930 . S
H754 C742 0.956 . S
H755 C742 0.961 . S
H756 C742 0.961 . S
H757 C743 0.958 . S
H758 C743 0.961 . S
H759 C743 0.960 . S
C760 C761 1.391 . S
C760 C762 1.394 . S
C760 H776 0.931 . S
C761 C760 1.391 . S
C761 C765 1.376 . S
C762 C760 1.394 . S
C762 C763 1.369 . S
C762 C766 1.531 . S
C763 C762 1.369 . S
C763 C764 1.410 . S
C763 C771 1.503 . S
C764 C763 1.410 . S
C764 C765 1.392 . S
C764 C767 1.511 . S
C765 C761 1.376 . S
C765 C764 1.392 . S
C765 H777 0.929 . S
C766 C762 1.531 . S
C766 H778 0.960 . S
C766 H779 0.962 . S
C766 H780 0.960 . S
C767 C764 1.511 . S
C767 H781 0.961 . S
C767 H782 0.961 . S
C767 H783 0.961 . S
C768 C769 1.370 . S
C768 C770 1.363 . S
C768 H784 0.931 1_554 S
C769 C768 1.370 . S
C769 C773 1.408 . S
C770 C768 1.363 . S
C770 C771 1.370 . S
C770 C774 1.524 1_554 S
C771 C763 1.503 . S
C771 C770 1.370 . S
C771 C772 1.403 . S
C772 C771 1.403 . S
C772 C773 1.404 . S
C772 C775 1.539 . S
C773 C769 1.408 . S
C773 C772 1.404 . S
C773 H785 0.930 . S
C774 C770 1.524 1_556 S
C774 H786 0.956 . S
C774 H787 0.961 . S
C774 H788 0.961 . S
C775 C772 1.539 . S
C775 H789 0.958 . S
C775 H790 0.961 . S
C775 H791 0.960 . S
H776 C760 0.931 . S
H777 C765 0.929 . S
H778 C766 0.960 . S
H779 C766 0.962 . S
H780 C766 0.960 . S
H781 C767 0.961 . S
H782 C767 0.961 . S
H783 C767 0.961 . S
H784 C768 0.931 1_556 S
H785 C773 0.930 . S
H786 C774 0.956 . S
H787 C774 0.961 . S
H788 C774 0.961 . S
H789 C775 0.958 . S
H790 C775 0.961 . S
H791 C775 0.960 . S
C792 C793 1.391 . S
C792 C794 1.394 . S
C792 H808 0.931 . S
C793 C792 1.391 . S
C793 C797 1.376 . S
C794 C792 1.394 . S
C794 C795 1.369 . S
C794 C798 1.531 . S
C795 C794 1.369 . S
C795 C796 1.410 . S
C795 C803 1.503 . S
C796 C795 1.410 . S
C796 C797 1.392 . S
C796 C799 1.511 . S
C797 C793 1.376 . S
C797 C796 1.392 . S
C797 H809 0.929 . S
C798 C794 1.531 . S
C798 H810 0.960 . S
C798 H811 0.962 . S
C798 H812 0.960 . S
C799 C796 1.511 . S
C799 H813 0.961 . S
C799 H814 0.961 . S
C799 H815 0.961 . S
C800 C801 1.370 . S
C800 C802 1.363 . S
C800 H816 0.931 . S
C801 C800 1.370 . S
C801 C805 1.408 . S
C802 C800 1.363 . S
C802 C803 1.370 . S
C802 C806 1.524 . S
C803 C795 1.503 . S
C803 C802 1.370 . S
C803 C804 1.403 . S
C804 C803 1.403 . S
C804 C805 1.404 . S
C804 C807 1.539 . S
C805 C801 1.408 . S
C805 C804 1.404 . S
C805 H817 0.930 . S
C806 C802 1.524 . S
C806 H818 0.956 . S
C806 H819 0.961 . S
C806 H820 0.961 . S
C807 C804 1.539 . S
C807 H821 0.958 . S
C807 H822 0.961 . S
C807 H823 0.960 . S
H808 C792 0.931 . S
H809 C797 0.929 . S
H810 C798 0.960 . S
H811 C798 0.962 . S
H812 C798 0.960 . S
H813 C799 0.961 . S
H814 C799 0.961 . S
H815 C799 0.961 . S
H816 C800 0.931 . S
H817 C805 0.930 . S
H818 C806 0.956 . S
H819 C806 0.961 . S
H820 C806 0.961 . S
H821 C807 0.958 . S
H822 C807 0.961 . S
H823 C807 0.960 . S
C824 C825 1.391 . S
C824 C826 1.394 . S
C824 H840 0.931 . S
C825 C824 1.391 . S
C825 C829 1.376 . S
C826 C824 1.394 . S
C826 C827 1.369 . S
C826 C830 1.531 . S
C827 C826 1.369 . S
C827 C828 1.410 . S
C827 C835 1.503 . S
C828 C827 1.410 . S
C828 C829 1.392 . S
C828 C831 1.511 . S
C829 C825 1.376 . S
C829 C828 1.392 . S
C829 H841 0.929 . S
C830 C826 1.531 . S
C830 H842 0.960 . S
C830 H843 0.962 . S
C830 H844 0.960 . S
C831 C828 1.511 . S
C831 H845 0.961 . S
C831 H846 0.961 . S
C831 H847 0.961 . S
C832 C833 1.370 . S
C832 C834 1.363 . S
C832 H848 0.931 . S
C833 C832 1.370 . S
C833 C837 1.408 . S
C834 C832 1.363 . S
C834 C835 1.370 . S
C834 C838 1.524 . S
C835 C827 1.503 . S
C835 C834 1.370 . S
C835 C836 1.403 . S
C836 C835 1.403 . S
C836 C837 1.404 . S
C836 C839 1.539 . S
C837 C833 1.408 . S
C837 C836 1.404 . S
C837 H849 0.930 . S
C838 C834 1.524 . S
C838 H850 0.956 . S
C838 H851 0.961 . S
C838 H852 0.961 . S
C839 C836 1.539 . S
C839 H853 0.958 . S
C839 H854 0.961 . S
C839 H855 0.960 . S
H840 C824 0.931 . S
H841 C829 0.929 . S
H842 C830 0.960 . S
H843 C830 0.962 . S
H844 C830 0.960 . S
H845 C831 0.961 . S
H846 C831 0.961 . S
H847 C831 0.961 . S
H848 C832 0.931 . S
H849 C837 0.930 . S
H850 C838 0.956 . S
H851 C838 0.961 . S
H852 C838 0.961 . S
H853 C839 0.958 . S
H854 C839 0.961 . S
H855 C839 0.960 . S
C856 C857 1.391 . S
C856 C858 1.394 . S
C856 H872 0.931 . S
C857 C856 1.391 . S
C857 C861 1.376 . S
C858 C856 1.394 . S
C858 C859 1.369 . S
C858 C862 1.531 . S
C859 C858 1.369 . S
C859 C860 1.410 . S
C859 C867 1.503 . S
C860 C859 1.410 . S
C860 C861 1.392 . S
C860 C863 1.511 . S
C861 C857 1.376 . S
C861 C860 1.392 . S
C861 H873 0.929 . S
C862 C858 1.531 . S
C862 H874 0.960 . S
C862 H875 0.962 . S
C862 H876 0.960 . S
C863 C860 1.511 . S
C863 H877 0.961 . S
C863 H878 0.961 . S
C863 H879 0.961 . S
C864 C865 1.370 . S
C864 C866 1.363 . S
C864 H880 0.931 . S
C865 C864 1.370 . S
C865 C869 1.408 . S
C866 C864 1.363 . S
C866 C867 1.370 . S
C866 C870 1.524 . S
C867 C859 1.503 . S
C867 C866 1.370 . S
C867 C868 1.403 . S
C868 C867 1.403 . S
C868 C869 1.404 . S
C868 C871 1.539 . S
C869 C865 1.408 . S
C869 C868 1.404 . S
C869 H881 0.930 . S
C870 C866 1.524 . S
C870 H882 0.956 . S
C870 H883 0.961 . S
C870 H884 0.961 . S
C871 C868 1.539 . S
C871 H885 0.958 . S
C871 H886 0.961 . S
C871 H887 0.960 . S
H872 C856 0.931 . S
H873 C861 0.929 . S
H874 C862 0.960 . S
H875 C862 0.962 . S
H876 C862 0.960 . S
H877 C863 0.961 . S
H878 C863 0.961 . S
H879 C863 0.961 . S
H880 C864 0.931 . S
H881 C869 0.930 . S
H882 C870 0.956 . S
H883 C870 0.961 . S
H884 C870 0.961 . S
H885 C871 0.958 . S
H886 C871 0.961 . S
H887 C871 0.960 . S
C888 C889 1.391 . S
C888 C890 1.394 . S
C888 H904 0.931 . S
C889 C888 1.391 . S
C889 C893 1.376 . S
C890 C888 1.394 . S
C890 C891 1.369 . S
C890 C894 1.531 . S
C891 C890 1.369 . S
C891 C892 1.410 . S
C891 C899 1.503 . S
C892 C891 1.410 . S
C892 C893 1.392 . S
C892 C895 1.511 . S
C893 C889 1.376 . S
C893 C892 1.392 . S
C893 H905 0.929 . S
C894 C890 1.531 . S
C894 H906 0.960 . S
C894 H907 0.962 . S
C894 H908 0.960 . S
C895 C892 1.511 . S
C895 H909 0.961 . S
C895 H910 0.961 . S
C895 H911 0.961 . S
C896 C897 1.370 . S
C896 C898 1.363 . S
C896 H912 0.931 . S
C897 C896 1.370 . S
C897 C901 1.408 . S
C898 C896 1.363 . S
C898 C899 1.370 . S
C898 C902 1.524 . S
C899 C891 1.503 . S
C899 C898 1.370 . S
C899 C900 1.403 . S
C900 C899 1.403 . S
C900 C901 1.404 . S
C900 C903 1.539 . S
C901 C897 1.408 . S
C901 C900 1.404 . S
C901 H913 0.930 . S
C902 C898 1.524 . S
C902 H914 0.956 . S
C902 H915 0.961 . S
C902 H916 0.961 . S
C903 C900 1.539 . S
C903 H917 0.958 . S
C903 H918 0.961 . S
C903 H919 0.960 . S
H904 C888 0.931 . S
H905 C893 0.929 . S
H906 C894 0.960 . S
H907 C894 0.962 . S
H908 C894 0.960 . S
H909 C895 0.961 . S
H910 C895 0.961 . S
H911 C895 0.961 . S
H912 C896 0.931 . S
H913 C901 0.930 . S
H914 C902 0.956 . S
H915 C902 0.961 . S
H916 C902 0.961 . S
H917 C903 0.958 . S
H918 C903 0.961 . S
H919 C903 0.960 . S
C920 C921 1.391 . S
C920 C922 1.394 . S
C920 H936 0.931 . S
C921 C920 1.391 . S
C921 C925 1.376 . S
C922 C920 1.394 . S
C922 C923 1.369 . S
C922 C926 1.531 1_556 S
C923 C922 1.369 . S
C923 C924 1.410 . S
C923 C931 1.503 . S
C924 C923 1.410 . S
C924 C925 1.392 . S
C924 C927 1.511 . S
C925 C921 1.376 . S
C925 C924 1.392 . S
C925 H937 0.929 . S
C926 C922 1.531 1_554 S
C926 H938 0.960 . S
C926 H939 0.962 . S
C926 H940 0.960 . S
C927 C924 1.511 . S
C927 H941 0.961 . S
C927 H942 0.961 . S
C927 H943 0.961 . S
C928 C929 1.370 . S
C928 C930 1.363 . S
C928 H944 0.931 . S
C929 C928 1.370 . S
C929 C933 1.408 . S
C930 C928 1.363 . S
C930 C931 1.370 . S
C930 C934 1.524 . S
C931 C923 1.503 . S
C931 C930 1.370 . S
C931 C932 1.403 . S
C932 C931 1.403 . S
C932 C933 1.404 . S
C932 C935 1.539 . S
C933 C929 1.408 . S
C933 C932 1.404 . S
C933 H945 0.930 1_556 S
C934 C930 1.524 . S
C934 H946 0.956 . S
C934 H947 0.961 . S
C934 H948 0.961 . S
C935 C932 1.539 . S
C935 H949 0.958 1_556 S
C935 H950 0.961 . S
C935 H951 0.960 . S
H936 C920 0.931 . S
H937 C925 0.929 . S
H938 C926 0.960 . S
H939 C926 0.962 . S
H940 C926 0.960 . S
H941 C927 0.961 . S
H942 C927 0.961 . S
H943 C927 0.961 . S
H944 C928 0.931 . S
H945 C933 0.930 1_554 S
H946 C934 0.956 . S
H947 C934 0.961 . S
H948 C934 0.961 . S
H949 C935 0.958 1_554 S
H950 C935 0.961 . S
H951 C935 0.960 . S
C952 C953 1.391 . S
C952 C954 1.394 . S
C952 H968 0.931 . S
C953 C952 1.391 . S
C953 C957 1.376 . S
C954 C952 1.394 . S
C954 C955 1.369 . S
C954 C958 1.531 . S
C955 C954 1.369 . S
C955 C956 1.410 . S
C955 C963 1.503 . S
C956 C955 1.410 . S
C956 C957 1.392 . S
C956 C959 1.511 . S
C957 C953 1.376 . S
C957 C956 1.392 . S
C957 H969 0.929 . S
C958 C954 1.531 . S
C958 H970 0.960 . S
C958 H971 0.962 . S
C958 H972 0.960 . S
C959 C956 1.511 . S
C959 H973 0.961 . S
C959 H974 0.961 . S
C959 H975 0.961 . S
C960 C961 1.370 . S
C960 C962 1.363 . S
C960 H976 0.931 . S
C961 C960 1.370 . S
C961 C965 1.408 . S
C962 C960 1.363 . S
C962 C963 1.370 . S
C962 C966 1.524 . S
C963 C955 1.503 . S
C963 C962 1.370 . S
C963 C964 1.403 . S
C964 C963 1.403 . S
C964 C965 1.404 . S
C964 C967 1.539 . S
C965 C961 1.408 . S
C965 C964 1.404 . S
C965 H977 0.930 . S
C966 C962 1.524 . S
C966 H978 0.956 . S
C966 H979 0.961 . S
C966 H980 0.961 . S
C967 C964 1.539 . S
C967 H981 0.958 . S
C967 H982 0.961 . S
C967 H983 0.960 . S
H968 C952 0.931 . S
H969 C957 0.929 . S
H970 C958 0.960 . S
H971 C958 0.962 . S
H972 C958 0.960 . S
H973 C959 0.961 . S
H974 C959 0.961 . S
H975 C959 0.961 . S
H976 C960 0.931 . S
H977 C965 0.930 . S
H978 C966 0.956 . S
H979 C966 0.961 . S
H980 C966 0.961 . S
H981 C967 0.958 . S
H982 C967 0.961 . S
H983 C967 0.960 . S
C984 C985 1.391 . S
C984 C986 1.394 . S
C984 H1000 0.931 . S
C985 C984 1.391 . S
C985 C989 1.376 . S
C986 C984 1.394 . S
C986 C987 1.369 . S
C986 C990 1.531 . S
C987 C986 1.369 . S
C987 C988 1.410 . S
C987 C995 1.503 . S
C988 C987 1.410 . S
C988 C989 1.392 . S
C988 C991 1.511 . S
C989 C985 1.376 . S
C989 C988 1.392 . S
C989 H1001 0.929 . S
C990 C986 1.531 . S
C990 H1002 0.960 . S
C990 H1003 0.962 . S
C990 H1004 0.960 . S
C991 C988 1.511 . S
C991 H1005 0.961 . S
C991 H1006 0.961 . S
C991 H1007 0.961 . S
C992 C993 1.370 . S
C992 C994 1.363 . S
C992 H1008 0.931 . S
C993 C992 1.370 . S
C993 C997 1.408 . S
C994 C992 1.363 . S
C994 C995 1.370 . S
C994 C998 1.524 . S
C995 C987 1.503 . S
C995 C994 1.370 . S
C995 C996 1.403 . S
C996 C995 1.403 . S
C996 C997 1.404 . S
C996 C999 1.539 . S
C997 C993 1.408 . S
C997 C996 1.404 . S
C997 H1009 0.930 . S
C998 C994 1.524 . S
C998 H1010 0.956 . S
C998 H1011 0.961 . S
C998 H1012 0.961 . S
C999 C996 1.539 . S
C999 H1013 0.958 . S
C999 H1014 0.961 . S
C999 H1015 0.960 . S
H1000 C984 0.931 . S
H1001 C989 0.929 . S
H1002 C990 0.960 . S
H1003 C990 0.962 . S
H1004 C990 0.960 . S
H1005 C991 0.961 . S
H1006 C991 0.961 . S
H1007 C991 0.961 . S
H1008 C992 0.931 . S
H1009 C997 0.930 . S
H1010 C998 0.956 . S
H1011 C998 0.961 . S
H1012 C998 0.961 . S
H1013 C999 0.958 . S
H1014 C999 0.961 . S
H1015 C999 0.960 . S
C1016 C1017 1.391 . S
C1016 C1018 1.394 . S
C1016 H1032 0.931 . S
C1017 C1016 1.391 . S
C1017 C1021 1.376 . S
C1018 C1016 1.394 . S
C1018 C1019 1.369 . S
C1018 C1022 1.531 . S
C1019 C1018 1.369 . S
C1019 C1020 1.410 . S
C1019 C1027 1.503 . S
C1020 C1019 1.410 . S
C1020 C1021 1.392 . S
C1020 C1023 1.511 . S
C1021 C1017 1.376 . S
C1021 C1020 1.392 . S
C1021 H1033 0.929 . S
C1022 C1018 1.531 . S
C1022 H1034 0.960 . S
C1022 H1035 0.962 . S
C1022 H1036 0.960 . S
C1023 C1020 1.511 . S
C1023 H1037 0.961 . S
C1023 H1038 0.961 . S
C1023 H1039 0.961 . S
C1024 C1025 1.370 . S
C1024 C1026 1.363 . S
C1024 H1040 0.931 . S
C1025 C1024 1.370 . S
C1025 C1029 1.408 . S
C1026 C1024 1.363 . S
C1026 C1027 1.370 . S
C1026 C1030 1.524 . S
C1027 C1019 1.503 . S
C1027 C1026 1.370 . S
C1027 C1028 1.403 . S
C1028 C1027 1.403 . S
C1028 C1029 1.404 . S
C1028 C1031 1.539 . S
C1029 C1025 1.408 . S
C1029 C1028 1.404 . S
C1029 H1041 0.930 . S
C1030 C1026 1.524 . S
C1030 H1042 0.956 . S
C1030 H1043 0.961 . S
C1030 H1044 0.961 . S
C1031 C1028 1.539 . S
C1031 H1045 0.958 . S
C1031 H1046 0.961 . S
C1031 H1047 0.960 . S
H1032 C1016 0.931 . S
H1033 C1021 0.929 . S
H1034 C1022 0.960 . S
H1035 C1022 0.962 . S
H1036 C1022 0.960 . S
H1037 C1023 0.961 . S
H1038 C1023 0.961 . S
H1039 C1023 0.961 . S
H1040 C1024 0.931 . S
H1041 C1029 0.930 . S
H1042 C1030 0.956 . S
H1043 C1030 0.961 . S
H1044 C1030 0.961 . S
H1045 C1031 0.958 . S
H1046 C1031 0.961 . S
H1047 C1031 0.960 . S
C1048 C1049 1.391 . S
C1048 C1050 1.394 . S
C1048 H1064 0.931 . S
C1049 C1048 1.391 . S
C1049 C1053 1.376 . S
C1050 C1048 1.394 . S
C1050 C1051 1.369 . S
C1050 C1054 1.531 . S
C1051 C1050 1.369 . S
C1051 C1052 1.410 . S
C1051 C1059 1.503 . S
C1052 C1051 1.410 . S
C1052 C1053 1.392 . S
C1052 C1055 1.511 . S
C1053 C1049 1.376 . S
C1053 C1052 1.392 . S
C1053 H1065 0.929 . S
C1054 C1050 1.531 . S
C1054 H1066 0.960 . S
C1054 H1067 0.962 . S
C1054 H1068 0.960 . S
C1055 C1052 1.511 . S
C1055 H1069 0.961 . S
C1055 H1070 0.961 . S
C1055 H1071 0.961 . S
C1056 C1057 1.370 . S
C1056 C1058 1.363 . S
C1056 H1072 0.931 . S
C1057 C1056 1.370 . S
C1057 C1061 1.408 . S
C1058 C1056 1.363 . S
C1058 C1059 1.370 . S
C1058 C1062 1.524 . S
C1059 C1051 1.503 . S
C1059 C1058 1.370 . S
C1059 C1060 1.403 . S
C1060 C1059 1.403 . S
C1060 C1061 1.404 . S
C1060 C1063 1.539 . S
C1061 C1057 1.408 . S
C1061 C1060 1.404 . S
C1061 H1073 0.930 . S
C1062 C1058 1.524 . S
C1062 H1074 0.956 . S
C1062 H1075 0.961 . S
C1062 H1076 0.961 . S
C1063 C1060 1.539 . S
C1063 H1077 0.958 . S
C1063 H1078 0.961 . S
C1063 H1079 0.960 . S
H1064 C1048 0.931 . S
H1065 C1053 0.929 . S
H1066 C1054 0.960 . S
H1067 C1054 0.962 . S
H1068 C1054 0.960 . S
H1069 C1055 0.961 . S
H1070 C1055 0.961 . S
H1071 C1055 0.961 . S
H1072 C1056 0.931 . S
H1073 C1061 0.930 . S
H1074 C1062 0.956 . S
H1075 C1062 0.961 . S
H1076 C1062 0.961 . S
H1077 C1063 0.958 . S
H1078 C1063 0.961 . S
H1079 C1063 0.960 . S
C1080 C1081 1.391 . S
C1080 C1082 1.394 . S
C1080 H1096 0.931 . S
C1081 C1080 1.391 . S
C1081 C1085 1.376 . S
C1082 C1080 1.394 . S
C1082 C1083 1.369 . S
C1082 C1086 1.531 . S
C1083 C1082 1.369 . S
C1083 C1084 1.410 . S
C1083 C1091 1.503 . S
C1084 C1083 1.410 . S
C1084 C1085 1.392 . S
C1084 C1087 1.511 . S
C1085 C1081 1.376 . S
C1085 C1084 1.392 . S
C1085 H1097 0.929 . S
C1086 C1082 1.531 . S
C1086 H1098 0.960 . S
C1086 H1099 0.962 . S
C1086 H1100 0.960 . S
C1087 C1084 1.511 . S
C1087 H1101 0.961 . S
C1087 H1102 0.961 . S
C1087 H1103 0.961 . S
C1088 C1089 1.370 . S
C1088 C1090 1.363 . S
C1088 H1104 0.931 . S
C1089 C1088 1.370 . S
C1089 C1093 1.408 . S
C1090 C1088 1.363 . S
C1090 C1091 1.370 . S
C1090 C1094 1.524 . S
C1091 C1083 1.503 . S
C1091 C1090 1.370 . S
C1091 C1092 1.403 . S
C1092 C1091 1.403 . S
C1092 C1093 1.404 . S
C1092 C1095 1.539 . S
C1093 C1089 1.408 . S
C1093 C1092 1.404 . S
C1093 H1105 0.930 . S
C1094 C1090 1.524 . S
C1094 H1106 0.956 . S
C1094 H1107 0.961 . S
C1094 H1108 0.961 . S
C1095 C1092 1.539 . S
C1095 H1109 0.958 . S
C1095 H1110 0.961 . S
C1095 H1111 0.960 . S
H1096 C1080 0.931 . S
H1097 C1085 0.929 . S
H1098 C1086 0.960 . S
H1099 C1086 0.962 . S
H1100 C1086 0.960 . S
H1101 C1087 0.961 . S
H1102 C1087 0.961 . S
H1103 C1087 0.961 . S
H1104 C1088 0.931 . S
H1105 C1093 0.930 . S
H1106 C1094 0.956 . S
H1107 C1094 0.961 . S
H1108 C1094 0.961 . S
H1109 C1095 0.958 . S
H1110 C1095 0.961 . S
H1111 C1095 0.960 . S
C1112 C1113 1.391 . S
C1112 C1114 1.394 . S
C1112 H1128 0.931 . S
C1113 C1112 1.391 . S
C1113 C1117 1.376 . S
C1114 C1112 1.394 . S
C1114 C1115 1.369 . S
C1114 C1118 1.531 . S
C1115 C1114 1.369 . S
C1115 C1116 1.410 . S
C1115 C1123 1.503 . S
C1116 C1115 1.410 . S
C1116 C1117 1.392 . S
C1116 C1119 1.511 . S
C1117 C1113 1.376 . S
C1117 C1116 1.392 . S
C1117 H1129 0.929 . S
C1118 C1114 1.531 . S
C1118 H1130 0.960 . S
C1118 H1131 0.962 . S
C1118 H1132 0.960 . S
C1119 C1116 1.511 . S
C1119 H1133 0.961 . S
C1119 H1134 0.961 . S
C1119 H1135 0.961 . S
C1120 C1121 1.370 . S
C1120 C1122 1.363 . S
C1120 H1136 0.931 . S
C1121 C1120 1.370 . S
C1121 C1125 1.408 . S
C1122 C1120 1.363 . S
C1122 C1123 1.370 . S
C1122 C1126 1.524 . S
C1123 C1115 1.503 . S
C1123 C1122 1.370 . S
C1123 C1124 1.403 . S
C1124 C1123 1.403 . S
C1124 C1125 1.404 . S
C1124 C1127 1.539 . S
C1125 C1121 1.408 . S
C1125 C1124 1.404 . S
C1125 H1137 0.930 . S
C1126 C1122 1.524 . S
C1126 H1138 0.956 . S
C1126 H1139 0.961 . S
C1126 H1140 0.961 . S
C1127 C1124 1.539 . S
C1127 H1141 0.958 . S
C1127 H1142 0.961 . S
C1127 H1143 0.960 . S
H1128 C1112 0.931 . S
H1129 C1117 0.929 . S
H1130 C1118 0.960 . S
H1131 C1118 0.962 . S
H1132 C1118 0.960 . S
H1133 C1119 0.961 . S
H1134 C1119 0.961 . S
H1135 C1119 0.961 . S
H1136 C1120 0.931 . S
H1137 C1125 0.930 . S
H1138 C1126 0.956 . S
H1139 C1126 0.961 . S
H1140 C1126 0.961 . S
H1141 C1127 0.958 . S
H1142 C1127 0.961 . S
H1143 C1127 0.960 . S
C1144 C1145 1.391 . S
C1144 C1146 1.394 . S
C1144 H1160 0.931 . S
C1145 C1144 1.391 . S
C1145 C1149 1.376 . S
C1146 C1144 1.394 . S
C1146 C1147 1.369 . S
C1146 C1150 1.531 . S
C1147 C1146 1.369 . S
C1147 C1148 1.410 . S
C1147 C1155 1.503 . S
C1148 C1147 1.410 . S
C1148 C1149 1.392 . S
C1148 C1151 1.511 . S
C1149 C1145 1.376 . S
C1149 C1148 1.392 . S
C1149 H1161 0.929 . S
C1150 C1146 1.531 . S
C1150 H1162 0.960 . S
C1150 H1163 0.962 . S
C1150 H1164 0.960 . S
C1151 C1148 1.511 . S
C1151 H1165 0.961 . S
C1151 H1166 0.961 . S
C1151 H1167 0.961 . S
C1152 C1153 1.370 . S
C1152 C1154 1.363 . S
C1152 H1168 0.931 . S
C1153 C1152 1.370 . S
C1153 C1157 1.408 . S
C1154 C1152 1.363 . S
C1154 C1155 1.370 . S
C1154 C1158 1.524 . S
C1155 C1147 1.503 . S
C1155 C1154 1.370 . S
C1155 C1156 1.403 . S
C1156 C1155 1.403 . S
C1156 C1157 1.404 . S
C1156 C1159 1.539 . S
C1157 C1153 1.408 . S
C1157 C1156 1.404 . S
C1157 H1169 0.930 . S
C1158 C1154 1.524 . S
C1158 H1170 0.956 . S
C1158 H1171 0.961 . S
C1158 H1172 0.961 . S
C1159 C1156 1.539 . S
C1159 H1173 0.958 . S
C1159 H1174 0.961 . S
C1159 H1175 0.960 . S
H1160 C1144 0.931 . S
H1161 C1149 0.929 . S
H1162 C1150 0.960 . S
H1163 C1150 0.962 . S
H1164 C1150 0.960 . S
H1165 C1151 0.961 . S
H1166 C1151 0.961 . S
H1167 C1151 0.961 . S
H1168 C1152 0.931 . S
H1169 C1157 0.930 . S
H1170 C1158 0.956 . S
H1171 C1158 0.961 . S
H1172 C1158 0.961 . S
H1173 C1159 0.958 . S
H1174 C1159 0.961 . S
H1175 C1159 0.960 . S
C1176 C1177 1.391 . S
C1176 C1178 1.394 . S
C1176 H1192 0.931 . S
C1177 C1176 1.391 . S
C1177 C1181 1.376 . S
C1178 C1176 1.394 . S
C1178 C1179 1.369 . S
C1178 C1182 1.531 . S
C1179 C1178 1.369 . S
C1179 C1180 1.410 . S
C1179 C1187 1.503 . S
C1180 C1179 1.410 . S
C1180 C1181 1.392 . S
C1180 C1183 1.511 . S
C1181 C1177 1.376 . S
C1181 C1180 1.392 . S
C1181 H1193 0.929 . S
C1182 C1178 1.531 . S
C1182 H1194 0.960 . S
C1182 H1195 0.962 . S
C1182 H1196 0.960 . S
C1183 C1180 1.511 . S
C1183 H1197 0.961 . S
C1183 H1198 0.961 . S
C1183 H1199 0.961 . S
C1184 C1185 1.370 . S
C1184 C1186 1.363 . S
C1184 H1200 0.931 . S
C1185 C1184 1.370 . S
C1185 C1189 1.408 . S
C1186 C1184 1.363 . S
C1186 C1187 1.370 . S
C1186 C1190 1.524 . S
C1187 C1179 1.503 . S
C1187 C1186 1.370 . S
C1187 C1188 1.403 . S
C1188 C1187 1.403 . S
C1188 C1189 1.404 . S
C1188 C1191 1.539 . S
C1189 C1185 1.408 . S
C1189 C1188 1.404 . S
C1189 H1201 0.930 . S
C1190 C1186 1.524 . S
C1190 H1202 0.956 . S
C1190 H1203 0.961 . S
C1190 H1204 0.961 . S
C1191 C1188 1.539 . S
C1191 H1205 0.958 . S
C1191 H1206 0.961 . S
C1191 H1207 0.960 . S
H1192 C1176 0.931 . S
H1193 C1181 0.929 . S
H1194 C1182 0.960 . S
H1195 C1182 0.962 . S
H1196 C1182 0.960 . S
H1197 C1183 0.961 . S
H1198 C1183 0.961 . S
H1199 C1183 0.961 . S
H1200 C1184 0.931 . S
H1201 C1189 0.930 . S
H1202 C1190 0.956 . S
H1203 C1190 0.961 . S
H1204 C1190 0.961 . S
H1205 C1191 0.958 . S
H1206 C1191 0.961 . S
H1207 C1191 0.960 . S
C1208 C1209 1.391 . S
C1208 C1210 1.394 . S
C1208 H1224 0.931 . S
C1209 C1208 1.391 . S
C1209 C1213 1.376 . S
C1210 C1208 1.394 . S
C1210 C1211 1.369 . S
C1210 C1214 1.531 . S
C1211 C1210 1.369 . S
C1211 C1212 1.410 . S
C1211 C1219 1.503 . S
C1212 C1211 1.410 . S
C1212 C1213 1.392 . S
C1212 C1215 1.511 . S
C1213 C1209 1.376 . S
C1213 C1212 1.392 . S
C1213 H1225 0.929 . S
C1214 C1210 1.531 . S
C1214 H1226 0.960 . S
C1214 H1227 0.962 . S
C1214 H1228 0.960 . S
C1215 C1212 1.511 . S
C1215 H1229 0.961 . S
C1215 H1230 0.961 . S
C1215 H1231 0.961 . S
C1216 C1217 1.370 . S
C1216 C1218 1.363 . S
C1216 H1232 0.931 . S
C1217 C1216 1.370 . S
C1217 C1221 1.408 . S
C1218 C1216 1.363 . S
C1218 C1219 1.370 . S
C1218 C1222 1.524 . S
C1219 C1211 1.503 . S
C1219 C1218 1.370 . S
C1219 C1220 1.403 . S
C1220 C1219 1.403 . S
C1220 C1221 1.404 . S
C1220 C1223 1.539 . S
C1221 C1217 1.408 . S
C1221 C1220 1.404 . S
C1221 H1233 0.930 . S
C1222 C1218 1.524 . S
C1222 H1234 0.956 . S
C1222 H1235 0.961 . S
C1222 H1236 0.961 . S
C1223 C1220 1.539 . S
C1223 H1237 0.958 . S
C1223 H1238 0.961 . S
C1223 H1239 0.960 . S
H1224 C1208 0.931 . S
H1225 C1213 0.929 . S
H1226 C1214 0.960 . S
H1227 C1214 0.962 . S
H1228 C1214 0.960 . S
H1229 C1215 0.961 . S
H1230 C1215 0.961 . S
H1231 C1215 0.961 . S
H1232 C1216 0.931 . S
H1233 C1221 0.930 . S
H1234 C1222 0.956 . S
H1235 C1222 0.961 . S
H1236 C1222 0.961 . S
H1237 C1223 0.958 . S
H1238 C1223 0.961 . S
H1239 C1223 0.960 . S
C1240 C1241 1.391 . S
C1240 C1242 1.394 . S
C1240 H1256 0.931 . S
C1241 C1240 1.391 . S
C1241 C1245 1.376 . S
C1242 C1240 1.394 . S
C1242 C1243 1.369 . S
C1242 C1246 1.531 . S
C1243 C1242 1.369 . S
C1243 C1244 1.410 . S
C1243 C1251 1.503 . S
C1244 C1243 1.410 . S
C1244 C1245 1.392 . S
C1244 C1247 1.511 . S
C1245 C1241 1.376 . S
C1245 C1244 1.392 . S
C1245 H1257 0.929 . S
C1246 C1242 1.531 . S
C1246 H1258 0.960 . S
C1246 H1259 0.962 . S
C1246 H1260 0.960 . S
C1247 C1244 1.511 . S
C1247 H1261 0.961 . S
C1247 H1262 0.961 . S
C1247 H1263 0.961 . S
C1248 C1249 1.370 . S
C1248 C1250 1.363 . S
C1248 H1264 0.931 . S
C1249 C1248 1.370 . S
C1249 C1253 1.408 . S
C1250 C1248 1.363 . S
C1250 C1251 1.370 . S
C1250 C1254 1.524 . S
C1251 C1243 1.503 . S
C1251 C1250 1.370 . S
C1251 C1252 1.403 . S
C1252 C1251 1.403 . S
C1252 C1253 1.404 . S
C1252 C1255 1.539 . S
C1253 C1249 1.408 . S
C1253 C1252 1.404 . S
C1253 H1265 0.930 . S
C1254 C1250 1.524 . S
C1254 H1266 0.956 . S
C1254 H1267 0.961 . S
C1254 H1268 0.961 . S
C1255 C1252 1.539 . S
C1255 H1269 0.958 . S
C1255 H1270 0.961 . S
C1255 H1271 0.960 . S
H1256 C1240 0.931 . S
H1257 C1245 0.929 . S
H1258 C1246 0.960 . S
H1259 C1246 0.962 . S
H1260 C1246 0.960 . S
H1261 C1247 0.961 . S
H1262 C1247 0.961 . S
H1263 C1247 0.961 . S
H1264 C1248 0.931 . S
H1265 C1253 0.930 . S
H1266 C1254 0.956 . S
H1267 C1254 0.961 . S
H1268 C1254 0.961 . S
H1269 C1255 0.958 . S
H1270 C1255 0.961 . S
H1271 C1255 0.960 . S
C1272 C1273 1.391 . S
C1272 C1274 1.394 . S
C1272 H1288 0.931 . S
C1273 C1272 1.391 . S
C1273 C1277 1.376 . S
C1274 C1272 1.394 . S
C1274 C1275 1.369 . S
C1274 C1278 1.531 . S
C1275 C1274 1.369 . S
C1275 C1276 1.410 . S
C1275 C1283 1.503 . S
C1276 C1275 1.410 . S
C1276 C1277 1.392 . S
C1276 C1279 1.511 . S
C1277 C1273 1.376 . S
C1277 C1276 1.392 . S
C1277 H1289 0.929 . S
C1278 C1274 1.531 . S
C1278 H1290 0.960 . S
C1278 H1291 0.962 . S
C1278 H1292 0.960 . S
C1279 C1276 1.511 . S
C1279 H1293 0.961 . S
C1279 H1294 0.961 . S
C1279 H1295 0.961 . S
C1280 C1281 1.370 . S
C1280 C1282 1.363 . S
C1280 H1296 0.931 . S
C1281 C1280 1.370 . S
C1281 C1285 1.408 . S
C1282 C1280 1.363 . S
C1282 C1283 1.370 . S
C1282 C1286 1.524 . S
C1283 C1275 1.503 . S
C1283 C1282 1.370 . S
C1283 C1284 1.403 . S
C1284 C1283 1.403 . S
C1284 C1285 1.404 . S
C1284 C1287 1.539 . S
C1285 C1281 1.408 . S
C1285 C1284 1.404 . S
C1285 H1297 0.930 . S
C1286 C1282 1.524 . S
C1286 H1298 0.956 . S
C1286 H1299 0.961 . S
C1286 H1300 0.961 . S
C1287 C1284 1.539 . S
C1287 H1301 0.958 . S
C1287 H1302 0.961 . S
C1287 H1303 0.960 . S
H1288 C1272 0.931 . S
H1289 C1277 0.929 . S
H1290 C1278 0.960 . S
H1291 C1278 0.962 . S
H1292 C1278 0.960 . S
H1293 C1279 0.961 . S
H1294 C1279 0.961 . S
H1295 C1279 0.961 . S
H1296 C1280 0.931 . S
H1297 C1285 0.930 . S
H1298 C1286 0.956 . S
H1299 C1286 0.961 . S
H1300 C1286 0.961 . S
H1301 C1287 0.958 . S
H1302 C1287 0.961 . S
H1303 C1287 0.960 . S
C1304 C1305 1.391 . S
C1304 C1306 1.394 . S
C1304 H1320 0.931 . S
C1305 C1304 1.391 . S
C1305 C1309 1.376 . S
C1306 C1304 1.394 . S
C1306 C1307 1.369 . S
C1306 C1310 1.531 . S
C1307 C1306 1.369 . S
C1307 C1308 1.410 . S
C1307 C1315 1.503 . S
C1308 C1307 1.410 . S
C1308 C1309 1.392 . S
C1308 C1311 1.511 . S
C1309 C1305 1.376 . S
C1309 C1308 1.392 . S
C1309 H1321 0.929 . S
C1310 C1306 1.531 . S
C1310 H1322 0.960 . S
C1310 H1323 0.962 . S
C1310 H1324 0.960 . S
C1311 C1308 1.511 . S
C1311 H1325 0.961 . S
C1311 H1326 0.961 . S
C1311 H1327 0.961 . S
C1312 C1313 1.370 . S
C1312 C1314 1.363 . S
C1312 H1328 0.931 . S
C1313 C1312 1.370 . S
C1313 C1317 1.408 . S
C1314 C1312 1.363 . S
C1314 C1315 1.370 . S
C1314 C1318 1.524 . S
C1315 C1307 1.503 . S
C1315 C1314 1.370 . S
C1315 C1316 1.403 . S
C1316 C1315 1.403 . S
C1316 C1317 1.404 . S
C1316 C1319 1.539 . S
C1317 C1313 1.408 . S
C1317 C1316 1.404 . S
C1317 H1329 0.930 . S
C1318 C1314 1.524 . S
C1318 H1330 0.956 . S
C1318 H1331 0.961 . S
C1318 H1332 0.961 . S
C1319 C1316 1.539 . S
C1319 H1333 0.958 . S
C1319 H1334 0.961 . S
C1319 H1335 0.960 . S
H1320 C1304 0.931 . S
H1321 C1309 0.929 . S
H1322 C1310 0.960 . S
H1323 C1310 0.962 . S
H1324 C1310 0.960 . S
H1325 C1311 0.961 . S
H1326 C1311 0.961 . S
H1327 C1311 0.961 . S
H1328 C1312 0.931 . S
H1329 C1317 0.930 . S
H1330 C1318 0.956 . S
H1331 C1318 0.961 . S
H1332 C1318 0.961 . S
H1333 C1319 0.958 . S
H1334 C1319 0.961 . S
H1335 C1319 0.960 . S
C1336 C1337 1.391 . S
C1336 C1338 1.394 . S
C1336 H1352 0.931 . S
C1337 C1336 1.391 . S
C1337 C1341 1.376 . S
C1338 C1336 1.394 . S
C1338 C1339 1.369 . S
C1338 C1342 1.531 . S
C1339 C1338 1.369 . S
C1339 C1340 1.410 . S
C1339 C1347 1.503 . S
C1340 C1339 1.410 . S
C1340 C1341 1.392 . S
C1340 C1343 1.511 . S
C1341 C1337 1.376 . S
C1341 C1340 1.392 . S
C1341 H1353 0.929 . S
C1342 C1338 1.531 . S
C1342 H1354 0.960 . S
C1342 H1355 0.962 . S
C1342 H1356 0.960 . S
C1343 C1340 1.511 . S
C1343 H1357 0.961 . S
C1343 H1358 0.961 . S
C1343 H1359 0.961 . S
C1344 C1345 1.370 . S
C1344 C1346 1.363 . S
C1344 H1360 0.931 . S
C1345 C1344 1.370 . S
C1345 C1349 1.408 . S
C1346 C1344 1.363 . S
C1346 C1347 1.370 . S
C1346 C1350 1.524 . S
C1347 C1339 1.503 . S
C1347 C1346 1.370 . S
C1347 C1348 1.403 . S
C1348 C1347 1.403 . S
C1348 C1349 1.404 . S
C1348 C1351 1.539 . S
C1349 C1345 1.408 . S
C1349 C1348 1.404 . S
C1349 H1361 0.930 . S
C1350 C1346 1.524 . S
C1350 H1362 0.956 . S
C1350 H1363 0.961 . S
C1350 H1364 0.961 . S
C1351 C1348 1.539 . S
C1351 H1365 0.958 . S
C1351 H1366 0.961 . S
C1351 H1367 0.960 . S
H1352 C1336 0.931 . S
H1353 C1341 0.929 . S
H1354 C1342 0.960 . S
H1355 C1342 0.962 . S
H1356 C1342 0.960 . S
H1357 C1343 0.961 . S
H1358 C1343 0.961 . S
H1359 C1343 0.961 . S
H1360 C1344 0.931 . S
H1361 C1349 0.930 . S
H1362 C1350 0.956 . S
H1363 C1350 0.961 . S
H1364 C1350 0.961 . S
H1365 C1351 0.958 . S
H1366 C1351 0.961 . S
H1367 C1351 0.960 . S
C1368 C1369 1.391 . S
C1368 C1370 1.394 . S
C1368 H1384 0.931 . S
C1369 C1368 1.391 . S
C1369 C1373 1.376 . S
C1370 C1368 1.394 . S
C1370 C1371 1.369 . S
C1370 C1374 1.531 . S
C1371 C1370 1.369 . S
C1371 C1372 1.410 . S
C1371 C1379 1.503 . S
C1372 C1371 1.410 . S
C1372 C1373 1.392 . S
C1372 C1375 1.511 . S
C1373 C1369 1.376 . S
C1373 C1372 1.392 . S
C1373 H1385 0.929 . S
C1374 C1370 1.531 . S
C1374 H1386 0.960 . S
C1374 H1387 0.962 . S
C1374 H1388 0.960 . S
C1375 C1372 1.511 . S
C1375 H1389 0.961 . S
C1375 H1390 0.961 . S
C1375 H1391 0.961 . S
C1376 C1377 1.370 . S
C1376 C1378 1.363 . S
C1376 H1392 0.931 . S
C1377 C1376 1.370 . S
C1377 C1381 1.408 . S
C1378 C1376 1.363 . S
C1378 C1379 1.370 . S
C1378 C1382 1.524 . S
C1379 C1371 1.503 . S
C1379 C1378 1.370 . S
C1379 C1380 1.403 . S
C1380 C1379 1.403 . S
C1380 C1381 1.404 . S
C1380 C1383 1.539 . S
C1381 C1377 1.408 . S
C1381 C1380 1.404 . S
C1381 H1393 0.930 . S
C1382 C1378 1.524 . S
C1382 H1394 0.956 . S
C1382 H1395 0.961 . S
C1382 H1396 0.961 . S
C1383 C1380 1.539 . S
C1383 H1397 0.958 . S
C1383 H1398 0.961 . S
C1383 H1399 0.960 . S
H1384 C1368 0.931 . S
H1385 C1373 0.929 . S
H1386 C1374 0.960 . S
H1387 C1374 0.962 . S
H1388 C1374 0.960 . S
H1389 C1375 0.961 . S
H1390 C1375 0.961 . S
H1391 C1375 0.961 . S
H1392 C1376 0.931 . S
H1393 C1381 0.930 . S
H1394 C1382 0.956 . S
H1395 C1382 0.961 . S
H1396 C1382 0.961 . S
H1397 C1383 0.958 . S
H1398 C1383 0.961 . S
H1399 C1383 0.960 . S
C1400 C1401 1.391 . S
C1400 C1402 1.394 . S
C1400 H1416 0.931 . S
C1401 C1400 1.391 . S
C1401 C1405 1.376 . S
C1402 C1400 1.394 . S
C1402 C1403 1.369 . S
C1402 C1406 1.531 . S
C1403 C1402 1.369 . S
C1403 C1404 1.410 . S
C1403 C1411 1.503 . S
C1404 C1403 1.410 . S
C1404 C1405 1.392 . S
C1404 C1407 1.511 . S
C1405 C1401 1.376 . S
C1405 C1404 1.392 . S
C1405 H1417 0.929 . S
C1406 C1402 1.531 . S
C1406 H1418 0.960 . S
C1406 H1419 0.962 . S
C1406 H1420 0.960 . S
C1407 C1404 1.511 . S
C1407 H1421 0.961 . S
C1407 H1422 0.961 . S
C1407 H1423 0.961 . S
C1408 C1409 1.370 . S
C1408 C1410 1.363 . S
C1408 H1424 0.931 . S
C1409 C1408 1.370 . S
C1409 C1413 1.408 . S
C1410 C1408 1.363 . S
C1410 C1411 1.370 . S
C1410 C1414 1.524 . S
C1411 C1403 1.503 . S
C1411 C1410 1.370 . S
C1411 C1412 1.403 . S
C1412 C1411 1.403 . S
C1412 C1413 1.404 . S
C1412 C1415 1.539 . S
C1413 C1409 1.408 . S
C1413 C1412 1.404 . S
C1413 H1425 0.930 . S
C1414 C1410 1.524 . S
C1414 H1426 0.956 . S
C1414 H1427 0.961 . S
C1414 H1428 0.961 . S
C1415 C1412 1.539 . S
C1415 H1429 0.958 . S
C1415 H1430 0.961 . S
C1415 H1431 0.960 . S
H1416 C1400 0.931 . S
H1417 C1405 0.929 . S
H1418 C1406 0.960 . S
H1419 C1406 0.962 . S
H1420 C1406 0.960 . S
H1421 C1407 0.961 . S
H1422 C1407 0.961 . S
H1423 C1407 0.961 . S
H1424 C1408 0.931 . S
H1425 C1413 0.930 . S
H1426 C1414 0.956 . S
H1427 C1414 0.961 . S
H1428 C1414 0.961 . S
H1429 C1415 0.958 . S
H1430 C1415 0.961 . S
H1431 C1415 0.960 . S
C1432 C1433 1.391 . S
C1432 C1434 1.394 . S
C1432 H1448 0.931 . S
C1433 C1432 1.391 . S
C1433 C1437 1.376 . S
C1434 C1432 1.394 . S
C1434 C1435 1.369 . S
C1434 C1438 1.531 . S
C1435 C1434 1.369 . S
C1435 C1436 1.410 . S
C1435 C1443 1.503 . S
C1436 C1435 1.410 . S
C1436 C1437 1.392 . S
C1436 C1439 1.511 . S
C1437 C1433 1.376 . S
C1437 C1436 1.392 . S
C1437 H1449 0.929 . S
C1438 C1434 1.531 . S
C1438 H1450 0.960 . S
C1438 H1451 0.962 . S
C1438 H1452 0.960 . S
C1439 C1436 1.511 . S
C1439 H1453 0.961 . S
C1439 H1454 0.961 . S
C1439 H1455 0.961 . S
C1440 C1441 1.370 . S
C1440 C1442 1.363 . S
C1440 H1456 0.931 . S
C1441 C1440 1.370 . S
C1441 C1445 1.408 . S
C1442 C1440 1.363 . S
C1442 C1443 1.370 . S
C1442 C1446 1.524 . S
C1443 C1435 1.503 . S
C1443 C1442 1.370 . S
C1443 C1444 1.403 . S
C1444 C1443 1.403 . S
C1444 C1445 1.404 . S
C1444 C1447 1.539 . S
C1445 C1441 1.408 . S
C1445 C1444 1.404 . S
C1445 H1457 0.930 . S
C1446 C1442 1.524 . S
C1446 H1458 0.956 . S
C1446 H1459 0.961 . S
C1446 H1460 0.961 . S
C1447 C1444 1.539 . S
C1447 H1461 0.958 . S
C1447 H1462 0.961 . S
C1447 H1463 0.960 . S
H1448 C1432 0.931 . S
H1449 C1437 0.929 . S
H1450 C1438 0.960 . S
H1451 C1438 0.962 . S
H1452 C1438 0.960 . S
H1453 C1439 0.961 . S
H1454 C1439 0.961 . S
H1455 C1439 0.961 . S
H1456 C1440 0.931 . S
H1457 C1445 0.930 . S
H1458 C1446 0.956 . S
H1459 C1446 0.961 . S
H1460 C1446 0.961 . S
H1461 C1447 0.958 . S
H1462 C1447 0.961 . S
H1463 C1447 0.960 . S
C1464 C1465 1.391 . S
C1464 C1466 1.394 . S
C1464 H1480 0.931 . S
C1465 C1464 1.391 . S
C1465 C1469 1.376 . S
C1466 C1464 1.394 . S
C1466 C1467 1.369 . S
C1466 C1470 1.531 . S
C1467 C1466 1.369 . S
C1467 C1468 1.410 . S
C1467 C1475 1.503 . S
C1468 C1467 1.410 . S
C1468 C1469 1.392 . S
C1468 C1471 1.511 . S
C1469 C1465 1.376 . S
C1469 C1468 1.392 . S
C1469 H1481 0.929 . S
C1470 C1466 1.531 . S
C1470 H1482 0.960 . S
C1470 H1483 0.962 . S
C1470 H1484 0.960 . S
C1471 C1468 1.511 . S
C1471 H1485 0.961 . S
C1471 H1486 0.961 . S
C1471 H1487 0.961 . S
C1472 C1473 1.370 . S
C1472 C1474 1.363 . S
C1472 H1488 0.931 . S
C1473 C1472 1.370 . S
C1473 C1477 1.408 . S
C1474 C1472 1.363 . S
C1474 C1475 1.370 . S
C1474 C1478 1.524 . S
C1475 C1467 1.503 . S
C1475 C1474 1.370 . S
C1475 C1476 1.403 . S
C1476 C1475 1.403 . S
C1476 C1477 1.404 . S
C1476 C1479 1.539 . S
C1477 C1473 1.408 . S
C1477 C1476 1.404 . S
C1477 H1489 0.930 . S
C1478 C1474 1.524 . S
C1478 H1490 0.956 . S
C1478 H1491 0.961 . S
C1478 H1492 0.961 . S
C1479 C1476 1.539 . S
C1479 H1493 0.958 . S
C1479 H1494 0.961 . S
C1479 H1495 0.960 . S
H1480 C1464 0.931 . S
H1481 C1469 0.929 . S
H1482 C1470 0.960 . S
H1483 C1470 0.962 . S
H1484 C1470 0.960 . S
H1485 C1471 0.961 . S
H1486 C1471 0.961 . S
H1487 C1471 0.961 . S
H1488 C1472 0.931 . S
H1489 C1477 0.930 . S
H1490 C1478 0.956 . S
H1491 C1478 0.961 . S
H1492 C1478 0.961 . S
H1493 C1479 0.958 . S
H1494 C1479 0.961 . S
H1495 C1479 0.960 . S
C481 C381 1.293 . S
C473 C8 1.367 . S
C513 C399 1.308 . S
C505 C61 1.359 . S
C545 C407 1.296 . S
C537 C107 1.368 . S
C569 C139 1.317 . S
C577 C373 1.310 . S
C601 C192 1.366 . S
C609 C368 1.269 1_556 S
C633 C238 1.310 . S
C641 C386 1.282 . S
C673 C394 1.291 . S
C665 C284 1.364 . S
C705 C412 1.274 . S
C697 C330 1.342 . S
C729 C100 1.358 . S
C737 C433 1.291 . S
C769 C451 1.295 . S
C761 C160 1.303 . S
C793 C15 1.339 . S
C801 C459 1.326 . S
C833 C425 1.306 . S
C825 C54 1.320 . S
C857 C291 1.352 . S
C865 C420 1.290 . S
C889 C337 1.320 . S
C897 C438 1.302 . S
C929 C446 1.271 1_556 S
C921 C199 1.347 . S
C953 C245 1.363 . S
C961 C464 1.288 . S
C993 C402 1.492 . S
C985 C1 1.478 . S
C1025 C417 1.470 . S
C1017 C68 1.460 . S
C1049 C114 1.457 . S
C1057 C376 1.492 . S
C1081 C146 1.470 . S
C1089 C391 1.466 . S
C1113 C185 1.472 . S
C1121 C415 1.492 . S
C1153 C378 1.466 . S
C1145 C231 1.471 . S
C1185 C389 1.497 . S
C1177 C277 1.496 . S
C1217 C404 1.471 . S
C1209 C323 1.477 . S
C1249 C454 1.492 . S
C1241 C93 1.467 . S
C1281 C469 1.450 . S
C1273 C153 1.471 . S
C1305 C22 1.475 . S
C1313 C428 1.494 . S
C1345 C443 1.459 . S
C1337 C47 1.472 . S
C1377 C467 1.491 . S
C1369 C298 1.455 . S
C1401 C344 1.494 . S
C1409 C430 1.454 . S
C1441 C441 1.493 . S
C1433 C206 1.478 . S
C1473 C456 1.467 . S
C1465 C252 1.459 . S
