# Generated by pormake.
# Topology pts, (4,4)-cn, num edge types: 1
# Building blocks:
#     Node 0, Type 0, BuildingBlock: AZAVOO_clean_linker_0, # of connection points: 4
#     Node 1, Type 0, BuildingBlock: AZAVOO_clean_linker_0, # of connection points: 4
#     Node 2, Type 1, BuildingBlock: QUQFOY_clean_sbu_1, # of connection points: 4
#     Node 3, Type 1, BuildingBlock: QUQFOY_clean_sbu_1, # of connection points: 4
#     Edge 4, Type (0, 1), BuildingBlock: FUNLAD_clean_linker_0, # of connection points: 2
#     Edge 5, Type (0, 1), BuildingBlock: FUNLAD_clean_linker_0, # of connection points: 2
#     Edge 6, Type (0, 1), BuildingBlock: FUNLAD_clean_linker_0, # of connection points: 2
#     Edge 7, Type (0, 1), BuildingBlock: FUNLAD_clean_linker_0, # of connection points: 2
#     Edge 8, Type (0, 1), BuildingBlock: FUNLAD_clean_linker_0, # of connection points: 2
#     Edge 9, Type (0, 1), BuildingBlock: FUNLAD_clean_linker_0, # of connection points: 2
#     Edge 10, Type (0, 1), BuildingBlock: FUNLAD_clean_linker_0, # of connection points: 2
#     Edge 11, Type (0, 1), BuildingBlock: FUNLAD_clean_linker_0, # of connection points: 2
# Relax obj value: 0.192
# Max RMSD: 0.245
# Mean RMSD: 0.235
data_MOF--net-pts--node1-QUQFOY_clean_sbu_1--node2-AZAVOO_clean_linker_0--edge1-FUNLAD_clean_linker_0
_symmetry_space_group_name_H-M    P1
_symmetry_Int_Tables_number       1
_symmetry_cell_setting            triclinic
loop_
_symmetry_equiv_pos_as_xyz
'x, y, z'
_cell_length_a     28.306715
_cell_length_b     31.664377
_cell_length_c     55.711253
_cell_angle_alpha  90.656374
_cell_angle_beta   92.644393
_cell_angle_gamma 90.157474
loop_
_atom_site_label
_atom_site_type_symbol
_atom_site_fract_x
_atom_site_fract_y
_atom_site_fract_z
_atom_type_partial_charge
H0 H 0.46216 0.13168 0.84592 0.0
H1 H 0.85389 0.98056 0.0239 0.0
H2 H 0.47393 0.14723 0.97658 0.0
H3 H 0.40134 0.16043 0.95235 0.0
H4 H 0.35701 0.03156 0.96269 0.0
H5 H 0.43004 0.0185 0.98681 0.0
H6 H 0.55462 0.13301 0.94207 0.0
H7 H 0.52311 0.14357 0.90092 0.0
H8 H 0.453 0.02217 0.9025 0.0
H9 H 0.48533 0.01179 0.94349 0.0
H10 H 0.6551 0.11381 0.96588 0.0
H11 H 0.70463 0.11207 0.93099 0.0
H12 H 0.64085 0.99302 0.9084 0.0
H13 H 0.59251 0.99456 0.9437 0.0
H14 H 0.666 0.10754 0.02271 0.0
H15 H 0.74968 0.09537 0.03327 0.0
H16 H 0.7374 0.96916 0.00305 0.0
H17 H 0.65357 0.98165 0.99283 0.0
H18 H 0.58483 0.11644 0.05362 0.0
H19 H 0.62336 0.10869 0.09349 0.0
H20 H 0.6306 0.97356 0.0818 0.0
H21 H 0.59403 0.98216 0.04154 0.0
H22 H 0.47581 0.132 0.03153 0.0
H23 H 0.41861 0.13258 0.06327 0.0
H24 H 0.4341 0.99742 0.07031 0.0
H25 H 0.49141 0.99731 0.03878 0.0
O26 O 0.47508 0.12649 0.86201 0.0
O27 O 0.4392 0.06413 0.86392 0.0
O28 O 0.82519 0.05123 0.03538 0.0
O29 O 0.82088 0.98617 0.01996 0.0
C30 C 0.50685 0.07051 0.98971 0.0
C31 C 0.53904 0.06641 0.97119 0.0
C32 C 0.58701 0.0576 0.97684 0.0
C33 C 0.60291 0.05289 0.00102 0.0
C34 C 0.57031 0.05551 0.01945 0.0
C35 C 0.52217 0.064 0.01379 0.0
C36 C 0.45726 0.08184 0.9832 0.0
C37 C 0.44757 0.12242 0.9745 0.0
C38 C 0.40638 0.12979 0.96053 0.0
C39 C 0.37417 0.09678 0.95537 0.0
C40 C 0.38131 0.05753 0.96648 0.0
C41 C 0.42282 0.05006 0.98033 0.0
C42 C 0.52218 0.07168 0.94572 0.0
C43 C 0.53286 0.10858 0.93338 0.0
C44 C 0.51464 0.11459 0.90993 0.0
C45 C 0.48538 0.08377 0.89845 0.0
C46 C 0.47534 0.04656 0.91082 0.0
C47 C 0.49374 0.04053 0.93422 0.0
C48 C 0.62041 0.05429 0.95725 0.0
C49 C 0.65252 0.08706 0.95359 0.0
C50 C 0.68031 0.08622 0.93354 0.0
C51 C 0.67628 0.05259 0.91683 0.0
C52 C 0.64503 0.01917 0.92102 0.0
C53 C 0.61734 0.02003 0.9411 0.0
C54 C 0.6538 0.04543 0.00708 0.0
C55 C 0.68145 0.07725 0.01847 0.0
C56 C 0.72923 0.07023 0.02443 0.0
C57 C 0.75024 0.03125 0.01901 0.0
C58 C 0.72235 -0.00048 0.00749 0.0
C59 C 0.67452 0.00656 0.00158 0.0
C60 C 0.58713 0.0499 0.04475 0.0
C61 C 0.59418 0.08516 0.0599 0.0
C62 C 0.61594 0.08057 0.08272 0.0
C63 C 0.63054 0.0405 0.09081 0.0
C64 C 0.62078 0.00496 0.07597 0.0
C65 C 0.59958 0.00969 0.05305 0.0
C66 C 0.48767 0.06464 0.03295 0.0
C67 C 0.46671 0.10259 0.03996 0.0
C68 C 0.43402 0.10281 0.058 0.0
C69 C 0.42193 0.06504 0.06932 0.0
C70 C 0.44319 0.0271 0.0622 0.0
C71 C 0.47573 0.02693 0.04415 0.0
C72 C 0.46513 0.09069 0.87376 0.0
C73 C 0.80101 0.02366 0.02531 0.0
H74 H 0.02359 0.49323 0.33532 0.0
H75 H 0.09128 0.82729 0.53808 0.0
H76 H 0.98352 0.46902 0.4612 0.0
H77 H 0.99128 0.39768 0.44471 0.0
H78 H 0.13207 0.38952 0.47786 0.0
H79 H 0.12433 0.46153 0.49373 0.0
H80 H 0.98337 0.55374 0.43181 0.0
H81 H 0.98683 0.53237 0.38958 0.0
H82 H 0.13036 0.48925 0.40308 0.0
H83 H 0.12659 0.51127 0.44521 0.0
H84 H 0.97801 0.63934 0.45763 0.0
H85 H 0.97952 0.69529 0.42768 0.0
H86 H 0.12721 0.66956 0.41754 0.0
H87 H 0.12546 0.61407 0.44784 0.0
H88 H 0.97356 0.64921 0.51003 0.0
H89 H 0.97347 0.72251 0.52446 0.0
H90 H 0.12417 0.73006 0.51534 0.0
H91 H 0.12376 0.65652 0.50121 0.0
H92 H 0.9723 0.5822 0.54283 0.0
H93 H 0.96903 0.62868 0.57821 0.0
H94 H 0.12117 0.6413 0.58 0.0
H95 H 0.12399 0.59502 0.54471 0.0
H96 H 0.97434 0.47773 0.51765 0.0
H97 H 0.96946 0.4213 0.5471 0.0
H98 H 0.11261 0.44902 0.57302 0.0
H99 H 0.11736 0.505 0.54314 0.0
O100 O 0.02306 0.50161 0.35206 0.0
O101 O 0.09665 0.47966 0.35997 0.0
O102 O 0.01287 0.79265 0.53683 0.0
O103 O 0.09016 0.79851 0.53202 0.0
C104 C 0.05142 0.51578 0.48524 0.0
C105 C 0.0523 0.54681 0.46717 0.0
C106 C 0.05084 0.59001 0.47354 0.0
C107 C 0.04923 0.60219 0.49787 0.0
C108 C 0.04894 0.57122 0.51593 0.0
C109 C 0.0494 0.52801 0.50965 0.0
C110 C 0.0535 0.47045 0.47845 0.0
C111 C 0.0157 0.45151 0.4652 0.0
C112 C 0.02011 0.41064 0.45597 0.0
C113 C 0.06242 0.388 0.4599 0.0
C114 C 0.09928 0.40634 0.47431 0.0
C115 C 0.09483 0.44728 0.48351 0.0
C116 C 0.05472 0.53407 0.44152 0.0
C117 C 0.01559 0.53988 0.42556 0.0
C118 C 0.01764 0.52753 0.40147 0.0
C119 C 0.05887 0.50907 0.39295 0.0
C120 C 0.09806 0.50335 0.40905 0.0
C121 C 0.09599 0.51583 0.43312 0.0
C122 C 0.0516 0.62278 0.45482 0.0
C123 C 0.01061 0.64583 0.44888 0.0
C124 C 0.01151 0.67755 0.43173 0.0
C125 C 0.05351 0.6868 0.42029 0.0
C126 C 0.0945 0.66345 0.42626 0.0
C127 C 0.09351 0.63162 0.44338 0.0
C128 C 0.04868 0.64767 0.50467 0.0
C129 C 0.00643 0.66688 0.51105 0.0
C130 C 0.00652 0.70869 0.51931 0.0
C131 C 0.04888 0.73211 0.52115 0.0
C132 C 0.09097 0.71292 0.5142 0.0
C133 C 0.09084 0.67102 0.50603 0.0
C134 C 0.04837 0.58536 0.5413 0.0
C135 C 0.005 0.59347 0.55157 0.0
C136 C 0.00317 0.62041 0.57154 0.0
C137 C 0.04479 0.63909 0.58157 0.0
C138 C 0.08858 0.62723 0.57272 0.0
C139 C 0.09031 0.60062 0.55266 0.0
C140 C 0.04609 0.49548 0.52839 0.0
C141 C 0.00451 0.47169 0.52979 0.0
C142 C 0.00177 0.43962 0.54665 0.0
C143 C 0.04067 0.43071 0.56238 0.0
C144 C 0.08225 0.45484 0.56098 0.0
C145 C 0.08489 0.48704 0.54413 0.0
C146 C 0.06086 0.49585 0.36737 0.0
C147 C 0.04934 0.77623 0.53045 0.0
O148 O 0.97507 0.04428 0.2396 0.0
Cd149 Cd 0.04511 0.03591 0.25025 0.0
Cd150 Cd 0.04306 0.12037 0.2521 0.0
O151 O 0.97329 0.11387 0.24051 0.0
O152 O 0.04991 0.97471 0.25744 0.0
O153 O 0.06259 0.0248 0.285 0.0
C154 C 0.06023 0.9851 0.2795 0.0
C155 C 0.06152 0.15624 0.28781 0.0
C156 C 0.95257 0.07865 0.23665 0.0
C157 C 0.11101 0.08212 0.21879 0.0
O158 O 0.09403 0.11609 0.22706 0.0
O159 O 0.09649 0.04657 0.22588 0.0
O160 O 0.0514 0.17624 0.26819 0.0
O161 O 0.06081 0.11543 0.28716 0.0
O162 O 0.96941 0.07399 0.75123 0.0
Cd163 Cd 0.03502 0.09144 0.7405 0.0
Cd164 Cd 0.05303 0.0063 0.74409 0.0
O165 O 0.98717 0.00745 0.75845 0.0
O166 O 0.02706 0.15083 0.73 0.0
O167 O 0.04864 0.09948 0.70564 0.0
C168 C 0.03916 0.13896 0.70896 0.0
C169 C 0.06606 0.9494 0.71831 0.0
C170 C 0.95812 0.03793 0.75895 0.0
C171 C 0.11574 0.06515 0.77368 0.0
O172 O 0.10968 0.02793 0.76536 0.0
O173 O 0.08842 0.09483 0.76683 0.0
O174 O 0.06652 0.94495 0.74125 0.0
O175 O 0.0588 0.98672 0.70979 0.0
C176 C 0.34526 0.08886 0.08572 0.0
C177 C 0.38693 0.06501 0.08833 0.0
C178 C 0.3117 0.08797 0.10332 0.0
C179 C 0.31933 0.06341 0.12404 0.0
C180 C 0.36088 0.03948 0.12657 0.0
C181 C 0.39442 0.04038 0.10897 0.0
C182 C 0.28404 0.06053 0.14288 0.0
C183 C 0.25175 0.09069 0.14681 0.0
C184 C 0.21636 0.0875 0.16557 0.0
C185 C 0.19686 0.12473 0.17471 0.0
C186 C 0.16295 0.12304 0.19212 0.0
C187 C 0.14744 0.08397 0.20061 0.0
H188 H 0.21344 0.01888 0.16673 0.0
C189 C 0.16657 0.04665 0.19127 0.0
C190 C 0.20053 0.04835 0.17389 0.0
H191 H 0.15508 0.01601 0.19723 0.0
H192 H 0.33803 0.10744 0.06977 0.0
H193 H 0.27943 0.10572 0.10026 0.0
H194 H 0.36754 0.02011 0.14226 0.0
H195 H 0.42638 0.02194 0.11161 0.0
H196 H 0.28632 0.03331 0.15454 0.0
H197 H 0.2524 0.11982 0.13674 0.0
H198 H 0.20806 0.15528 0.16845 0.0
H199 H 0.14878 0.15241 0.19882 0.0
C200 C 0.07555 0.36828 0.58419 0.0
C201 C 0.0377 0.39637 0.58017 0.0
C202 C 0.07257 0.33591 0.60094 0.0
C203 C 0.03153 0.33095 0.614 0.0
C204 C 0.99397 0.35928 0.61007 0.0
C205 C -0.00313 0.39147 0.59329 0.0
C206 C 0.02734 0.29826 0.63271 0.0
C207 C 0.0527 0.26228 0.63353 0.0
C208 C 0.04855 0.23084 0.65297 0.0
C209 C 0.0594 0.18829 0.64846 0.0
C210 C 0.05613 0.15815 0.66652 0.0
C211 C 0.04236 0.17017 0.68953 0.0
H212 H 0.02854 0.27549 0.68064 0.0
C213 C 0.03222 0.21285 0.69411 0.0
C214 C 0.03546 0.24284 0.67612 0.0
H215 H 0.02206 0.22331 0.71171 0.0
H216 H 0.1074 0.37116 0.57428 0.0
H217 H 0.10282 0.31552 0.60389 0.0
H218 H 0.96218 0.35655 0.62007 0.0
H219 H 0.96738 0.41296 0.59085 0.0
H220 H 0.00084 0.30364 0.64589 0.0
H221 H 0.07588 0.2546 0.61913 0.0
H222 H 0.07013 0.17828 0.63087 0.0
H223 H 0.06448 0.12556 0.66248 0.0
C224 C 0.65127 0.06212 0.13372 0.0
C225 C 0.65952 0.03634 0.1136 0.0
C226 C 0.68197 0.06114 0.15412 0.0
C227 C 0.72144 0.03422 0.15477 0.0
C228 C 0.72819 0.00698 0.13522 0.0
C229 C 0.69792 0.00826 0.1148 0.0
C230 C 0.75765 0.03465 0.17486 0.0
C231 C 0.76881 0.06949 0.18807 0.0
C232 C 0.81254 0.07217 0.20381 0.0
C233 C 0.83571 0.11127 0.20676 0.0
C234 C 0.88049 0.11385 0.21838 0.0
C235 C 0.90283 0.0773 0.22731 0.0
H236 H 0.81565 0.00585 0.21345 0.0
C237 C 0.87814 0.03872 0.22588 0.0
C238 C 0.83333 0.0362 0.21442 0.0
H239 H 0.89391 0.01014 0.23309 0.0
H240 H 0.62142 0.08345 0.1336 0.0
H241 H 0.67487 0.08163 0.1692 0.0
H242 H 0.75824 0.98584 0.1353 0.0
H243 H 0.70593 0.98838 0.09959 0.0
H244 H 0.78 0.00693 0.17651 0.0
H245 H 0.74931 0.09851 0.18482 0.0
H246 H 0.8202 0.13956 0.19904 0.0
H247 H 0.89837 0.14415 0.21941 0.0
C248 C 0.07435 0.67803 0.61877 0.0
C249 C 0.0424 0.67487 0.59881 0.0
C250 C 0.07528 0.71413 0.63348 0.0
C251 C 0.04454 0.74817 0.6283 0.0
C252 C 0.01181 0.74429 0.60866 0.0
C253 C 0.01075 0.70815 0.59407 0.0
C254 C 0.04507 0.78823 0.64261 0.0
C255 C 0.07859 0.79882 0.65958 0.0
C256 C 0.07689 0.83859 0.67381 0.0
C257 C 0.09381 0.83845 0.69785 0.0
C258 C 0.09095 0.87474 0.71214 0.0
C259 C 0.07205 0.91224 0.70252 0.0
H260 H 0.04714 0.87786 0.64522 0.0
C261 C 0.05698 0.913 0.67815 0.0
C262 C 0.05916 0.87641 0.66392 0.0
H263 H 0.04244 0.94152 0.67025 0.0
H264 H 0.09893 0.65268 0.62289 0.0
H265 H 0.10032 0.71483 0.64869 0.0
H266 H 0.98755 0.76975 0.60423 0.0
H267 H 0.98628 0.70695 0.57854 0.0
H268 H 0.01618 0.8101 0.63893 0.0
H269 H 0.10716 0.77732 0.66426 0.0
H270 H 0.10814 0.80986 0.70579 0.0
H271 H 0.10323 0.87329 0.73082 0.0
C272 C 0.35196 0.11535 0.91311 0.0
C273 C 0.33813 0.10106 0.93552 0.0
C274 C 0.31984 0.11558 0.89339 0.0
C275 C 0.27312 0.10171 0.89574 0.0
C276 C 0.25874 0.08896 0.91834 0.0
C277 C 0.2912 0.08805 0.93804 0.0
C278 C 0.2391 0.09997 0.87477 0.0
C279 C 0.25234 0.08844 0.85274 0.0
C280 C 0.21823 0.08421 0.83194 0.0
C281 C 0.22397 0.05142 0.81521 0.0
C282 C 0.19109 0.04556 0.79597 0.0
C283 C 0.1526 0.07318 0.7928 0.0
H284 H 0.17578 0.13864 0.84083 0.0
C285 C 0.14805 0.10714 0.80899 0.0
C286 C 0.18038 0.11244 0.8285 0.0
H287 H 0.11872 0.12892 0.807 0.0
H288 H 0.38811 0.12511 0.91063 0.0
H289 H 0.33169 0.12646 0.87631 0.0
H290 H 0.22277 0.07844 0.92056 0.0
H291 H 0.27983 0.07687 0.95516 0.0
H292 H 0.20193 0.10521 0.87787 0.0
H293 H 0.28859 0.07866 0.85025 0.0
H294 H 0.25321 0.02957 0.8174 0.0
H295 H 0.19559 0.01925 0.7837 0.0
C296 C 0.11198 0.34045 0.43527 0.0
C297 C 0.06959 0.34759 0.44684 0.0
C298 C 0.11619 0.30602 0.41966 0.0
C299 C 0.07791 0.2782 0.41516 0.0
C300 C 0.03699 0.28338 0.42816 0.0
C301 C 0.03272 0.3179 0.44377 0.0
C302 C 0.07808 0.24592 0.39565 0.0
C303 C 0.09949 0.25315 0.37499 0.0
C304 C 0.09194 0.22653 0.3531 0.0
C305 C 0.0939 0.24597 0.33068 0.0
C306 C 0.08425 0.22298 0.30953 0.0
C307 C 0.07331 0.17977 0.31033 0.0
H308 H 0.08144 0.16685 0.37098 0.0
C309 C 0.07306 0.15978 0.33272 0.0
C310 C 0.08209 0.18301 0.35398 0.0
H311 H 0.06506 0.1264 0.33384 0.0
H312 H 0.14107 0.3627 0.43722 0.0
H313 H 0.14886 0.30211 0.41053 0.0
H314 H 0.00725 0.26202 0.42526 0.0
H315 H -5e-05 0.32216 0.45279 0.0
H316 H 0.05486 0.21875 0.39696 0.0
H317 H 0.11865 0.28259 0.37296 0.0
H318 H 0.10174 0.27939 0.32951 0.0
H319 H 0.08523 0.23919 0.29254 0.0
C320 C 0.72492 0.01586 0.88645 0.0
C321 C 0.70364 0.05294 0.89478 0.0
C322 C 0.75103 0.01635 0.86579 0.0
C323 C 0.75615 0.05399 0.85293 0.0
C324 C 0.73474 0.09094 0.86125 0.0
C325 C 0.70859 0.09043 0.88187 0.0
C326 C 0.7865 0.05686 0.832 0.0
C327 C 0.79818 0.02347 0.81831 0.0
C328 C 0.83453 0.02626 0.80005 0.0
C329 C 0.86282 0.99087 0.79589 0.0
C330 C 0.90176 0.99399 0.7815 0.0
C331 C 0.91286 0.03257 0.77082 0.0
H332 H 0.82112 0.09134 0.78981 0.0
C333 C 0.88229 0.06706 0.77345 0.0
C334 C 0.84342 0.06393 0.78787 0.0
H335 H 0.88931 0.09702 0.76511 0.0
H336 H 0.72236 0.98665 0.89624 0.0
H337 H 0.76832 0.9875 0.86053 0.0
H338 H 0.7384 0.12042 0.85181 0.0
H339 H 0.69204 0.11939 0.88764 0.0
H340 H 0.80113 0.08777 0.82844 0.0
H341 H 0.78395 0.99242 0.82185 0.0
H342 H 0.85626 0.9613 0.80478 0.0
H343 H 0.92424 0.96664 0.77961 0.0
C344 C 0.09227 0.74958 0.40228 0.0
C345 C 0.05444 0.72073 0.4022 0.0
C346 C 0.09285 0.78176 0.38533 0.0
C347 C 0.05546 0.78573 0.36796 0.0
C348 C 0.01806 0.75651 0.36772 0.0
C349 C 0.01738 0.72451 0.38472 0.0
C350 C 0.05488 0.81877 0.34928 0.0
C351 C 0.07812 0.85588 0.3518 0.0
C352 C 0.07567 0.88864 0.33293 0.0
C353 C 0.08028 0.93141 0.33958 0.0
C354 C 0.07603 0.96296 0.32224 0.0
C355 C 0.06757 0.95218 0.29788 0.0
H356 H 0.0671 0.84525 0.3025 0.0
C357 C 0.06478 0.90932 0.29115 0.0
C358 C 0.06897 0.8779 0.30844 0.0
H359 H 0.05894 0.89991 0.27249 0.0
H360 H 0.12126 0.74751 0.4156 0.0
H361 H 0.12296 0.80291 0.3857 0.0
H362 H 0.98909 0.75853 0.35438 0.0
H363 H 0.9881 0.70236 0.38398 0.0
H364 H 0.0322 0.81302 0.33331 0.0
H365 H 0.09703 0.86376 0.36866 0.0
H366 H 0.08608 0.94049 0.3583 0.0
H367 H 0.07866 0.99573 0.32796 0.0
loop_
_geom_bond_atom_site_label_1
_geom_bond_atom_site_label_2
_geom_bond_distance
_geom_bond_site_symmetry_2
_ccdc_geom_bond_type
H0 O26 0.856 . S
H1 O29 0.854 . S
H2 C37 0.930 . S
H3 C38 0.930 . S
H4 C40 0.930 . S
H5 C41 0.930 . S
H6 C43 0.931 . S
H7 C44 0.930 . S
H8 C46 0.930 1_565 S
H9 C47 0.929 . S
H10 C49 0.930 . S
H11 C50 0.931 . S
H12 C52 0.930 1_565 S
H13 C53 0.929 1_565 S
H14 C55 0.931 . S
H15 C56 0.930 . S
H16 C58 0.930 1_565 S
H17 C59 0.932 1_556 S
H18 C61 0.930 . S
H19 C62 0.929 . S
H20 C64 0.931 . S
H21 C65 0.930 . S
H22 C67 0.929 . S
H23 C68 0.931 . S
H24 C70 0.930 . S
H25 C71 0.929 . S
O26 H0 0.856 . S
O26 C72 1.300 . S
O27 C72 1.209 . S
O28 C73 1.199 . S
O29 H1 0.854 . S
O29 C73 1.297 . S
C30 C31 1.404 . S
C30 C35 1.397 1_556 S
C30 C36 1.492 . S
C31 C30 1.404 . S
C31 C32 1.396 . S
C31 C42 1.492 . S
C32 C31 1.396 . S
C32 C33 1.396 . S
C32 C48 1.509 . S
C33 C32 1.396 . S
C33 C34 1.413 1_556 S
C33 C54 1.485 1_556 S
C34 C33 1.413 1_554 S
C34 C35 1.388 . S
C34 C60 1.490 . S
C35 C30 1.397 1_554 S
C35 C34 1.388 . S
C35 C66 1.519 . S
C36 C30 1.492 . S
C36 C37 1.363 . S
C36 C41 1.390 . S
C37 H2 0.930 . S
C37 C36 1.363 . S
C37 C38 1.372 . S
C38 H3 0.930 . S
C38 C37 1.372 . S
C38 C39 1.383 . S
C39 C38 1.383 . S
C39 C40 1.395 . S
C40 H4 0.930 . S
C40 C39 1.395 . S
C40 C41 1.362 . S
C41 H5 0.930 . S
C41 C36 1.390 . S
C41 C40 1.362 . S
C42 C31 1.492 . S
C42 C43 1.377 . S
C42 C47 1.397 . S
C43 H6 0.931 . S
C43 C42 1.377 . S
C43 C44 1.376 . S
C44 H7 0.930 . S
C44 C43 1.376 . S
C44 C45 1.376 . S
C45 C44 1.376 . S
C45 C46 1.378 . S
C45 C72 1.486 . S
C46 H8 0.930 1_545 S
C46 C45 1.378 . S
C46 C47 1.376 . S
C47 H9 0.929 . S
C47 C42 1.397 . S
C47 C46 1.376 . S
C48 C32 1.509 . S
C48 C49 1.391 . S
C48 C53 1.386 . S
C49 H10 0.930 . S
C49 C48 1.391 . S
C49 C50 1.375 . S
C50 H11 0.931 . S
C50 C49 1.375 . S
C50 C51 1.375 . S
C51 C50 1.375 . S
C51 C52 1.361 . S
C52 H12 0.930 1_545 S
C52 C51 1.361 . S
C52 C53 1.399 . S
C53 H13 0.929 1_545 S
C53 C48 1.386 . S
C53 C52 1.399 . S
C54 C33 1.485 1_554 S
C54 C55 1.394 . S
C54 C59 1.360 . S
C55 H14 0.931 . S
C55 C54 1.394 . S
C55 C56 1.372 . S
C56 H15 0.930 . S
C56 C55 1.372 . S
C56 C57 1.397 . S
C57 C56 1.397 . S
C57 C58 1.390 . S
C57 C73 1.476 . S
C58 H16 0.930 1_545 S
C58 C57 1.390 . S
C58 C59 1.366 . S
C59 H17 0.932 1_554 S
C59 C54 1.360 . S
C59 C58 1.366 . S
C60 C34 1.490 . S
C60 C61 1.380 . S
C60 C65 1.386 . S
C61 H18 0.930 . S
C61 C60 1.380 . S
C61 C62 1.381 . S
C62 H19 0.929 . S
C62 C61 1.381 . S
C62 C63 1.371 . S
C63 C62 1.371 . S
C63 C64 1.380 . S
C64 H20 0.931 . S
C64 C63 1.380 . S
C64 C65 1.387 . S
C65 H21 0.930 . S
C65 C60 1.386 . S
C65 C64 1.387 . S
C66 C35 1.519 . S
C66 C67 1.377 . S
C66 C71 1.361 . S
C67 H22 0.929 . S
C67 C66 1.377 . S
C67 C68 1.386 . S
C68 H23 0.931 . S
C68 C67 1.386 . S
C68 C69 1.363 . S
C69 C68 1.363 . S
C69 C70 1.385 . S
C70 H24 0.930 . S
C70 C69 1.385 . S
C70 C71 1.396 . S
C71 H25 0.929 . S
C71 C66 1.361 . S
C71 C70 1.396 . S
C72 O26 1.300 . S
C72 O27 1.209 . S
C72 C45 1.486 . S
C73 O28 1.199 . S
C73 O29 1.297 . S
C73 C57 1.476 . S
H74 O100 0.856 . S
H75 O103 0.854 . S
H76 C111 0.930 1_655 S
H77 C112 0.930 . S
H78 C114 0.930 . S
H79 C115 0.930 . S
H80 C117 0.931 1_655 S
H81 C118 0.912 1_655 S
H82 C120 0.930 . S
H83 C121 0.929 . S
H84 C123 0.930 1_655 S
H85 C124 0.931 . S
H86 C126 0.930 . S
H87 C127 0.929 . S
H88 C129 0.931 1_655 S
H89 C130 0.930 1_655 S
H90 C132 0.930 . S
H91 C133 0.932 . S
H92 C135 0.930 1_655 S
H93 C136 0.929 . S
H94 C138 0.931 . S
H95 C139 0.930 . S
H96 C141 0.929 1_655 S
H97 C142 0.931 1_655 S
H98 C144 0.930 . S
H99 C145 0.929 . S
O100 H74 0.856 . S
O100 C146 1.300 . S
O101 C146 1.209 . S
O102 C147 1.199 . S
O103 H75 0.854 . S
O103 C147 1.297 . S
C104 C105 1.404 . S
C104 C109 1.397 . S
C104 C110 1.492 . S
C105 C104 1.404 . S
C105 C106 1.396 . S
C105 C116 1.492 . S
C106 C105 1.396 . S
C106 C107 1.397 . S
C106 C122 1.509 . S
C107 C106 1.397 . S
C107 C108 1.412 . S
C107 C128 1.485 . S
C108 C107 1.412 . S
C108 C109 1.388 . S
C108 C134 1.490 . S
C109 C104 1.397 . S
C109 C108 1.388 . S
C109 C140 1.519 . S
C110 C104 1.492 . S
C110 C111 1.363 . S
C110 C115 1.390 . S
C111 H76 0.930 1_455 S
C111 C110 1.363 . S
C111 C112 1.372 1_455 S
C112 H77 0.930 . S
C112 C111 1.372 1_655 S
C112 C113 1.383 1_655 S
C113 C112 1.383 1_455 S
C113 C114 1.395 . S
C114 H78 0.930 . S
C114 C113 1.395 . S
C114 C115 1.362 . S
C115 H79 0.930 . S
C115 C110 1.390 . S
C115 C114 1.362 . S
C116 C105 1.492 . S
C116 C117 1.377 . S
C116 C121 1.397 . S
C117 H80 0.931 1_455 S
C117 C116 1.377 . S
C117 C118 1.376 . S
C118 H81 0.912 1_455 S
C118 C117 1.376 . S
C118 C119 1.376 . S
C119 C118 1.376 . S
C119 C120 1.378 . S
C119 C146 1.486 . S
C120 H82 0.930 . S
C120 C119 1.378 . S
C120 C121 1.376 . S
C121 H83 0.929 . S
C121 C116 1.397 . S
C121 C120 1.376 . S
C122 C106 1.509 . S
C122 C123 1.391 . S
C122 C127 1.386 . S
C123 H84 0.930 1_455 S
C123 C122 1.391 . S
C123 C124 1.375 . S
C124 H85 0.931 . S
C124 C123 1.375 . S
C124 C125 1.375 . S
C125 C124 1.375 . S
C125 C126 1.361 . S
C126 H86 0.930 . S
C126 C125 1.361 . S
C126 C127 1.399 . S
C127 H87 0.929 . S
C127 C122 1.386 . S
C127 C126 1.399 . S
C128 C107 1.485 . S
C128 C129 1.394 . S
C128 C133 1.360 . S
C129 H88 0.931 1_455 S
C129 C128 1.394 . S
C129 C130 1.372 . S
C130 H89 0.930 1_455 S
C130 C129 1.372 . S
C130 C131 1.397 . S
C131 C130 1.397 . S
C131 C132 1.390 . S
C131 C147 1.476 . S
C132 H90 0.930 . S
C132 C131 1.390 . S
C132 C133 1.366 . S
C133 H91 0.932 . S
C133 C128 1.360 . S
C133 C132 1.366 . S
C134 C108 1.490 . S
C134 C135 1.380 . S
C134 C139 1.386 . S
C135 H92 0.930 1_455 S
C135 C134 1.380 . S
C135 C136 1.381 1_455 S
C136 H93 0.929 . S
C136 C135 1.381 1_655 S
C136 C137 1.371 1_655 S
C137 C136 1.371 1_455 S
C137 C138 1.380 . S
C138 H94 0.931 . S
C138 C137 1.380 . S
C138 C139 1.387 . S
C139 H95 0.930 . S
C139 C134 1.386 . S
C139 C138 1.387 . S
C140 C109 1.519 . S
C140 C141 1.377 . S
C140 C145 1.361 . S
C141 H96 0.929 1_455 S
C141 C140 1.377 . S
C141 C142 1.386 . S
C142 H97 0.931 1_455 S
C142 C141 1.386 . S
C142 C143 1.363 . S
C143 C142 1.363 . S
C143 C144 1.385 . S
C144 H98 0.930 . S
C144 C143 1.385 . S
C144 C145 1.396 . S
C145 H99 0.929 . S
C145 C140 1.361 . S
C145 C144 1.396 . S
C146 O100 1.300 . S
C146 O101 1.209 . S
C146 C119 1.486 . S
C147 O102 1.199 . S
C147 O103 1.297 . S
C147 C131 1.476 . S
O148 Cd149 2.223 . S
O148 C156 1.315 1_455 S
Cd149 O148 2.223 . S
Cd149 O152 2.297 1_545 S
Cd149 O153 2.439 . S
Cd149 O159 2.240 . S
Cd150 O151 2.240 1_455 S
Cd150 O158 2.223 . S
Cd150 O160 2.297 . S
Cd150 O161 2.439 . S
O151 Cd150 2.240 1_655 S
O151 C156 1.279 . S
O152 Cd149 2.297 1_565 S
O152 C154 1.247 . S
O153 Cd149 2.439 . S
O153 C154 1.208 1_545 S
C154 O152 1.247 . S
C154 O153 1.208 1_565 S
C155 O160 1.247 . S
C155 O161 1.208 . S
C156 O148 1.315 1_655 S
C156 O151 1.279 . S
C157 O158 1.315 . S
C157 O159 1.279 . S
O158 Cd150 2.223 . S
O158 C157 1.315 . S
O159 Cd149 2.240 . S
O159 C157 1.279 . S
O160 Cd150 2.297 . S
O160 C155 1.247 . S
O161 Cd150 2.439 . S
O161 C155 1.208 . S
O162 Cd163 2.223 . S
O162 C170 1.315 1_455 S
Cd163 O162 2.223 . S
Cd163 O166 2.297 . S
Cd163 O167 2.439 . S
Cd163 O173 2.240 . S
Cd164 O165 2.240 1_465 S
Cd164 O172 2.223 . S
Cd164 O174 2.297 . S
Cd164 O175 2.439 . S
O165 Cd164 2.240 1_645 S
O165 C170 1.279 . S
O166 Cd163 2.297 . S
O166 C168 1.247 . S
O167 Cd163 2.439 . S
O167 C168 1.208 . S
C168 O166 1.247 . S
C168 O167 1.208 . S
C169 O174 1.247 . S
C169 O175 1.208 . S
C170 O162 1.315 1_655 S
C170 O165 1.279 . S
C171 O172 1.315 1_545 S
C171 O173 1.279 . S
O172 Cd164 2.223 . S
O172 C171 1.315 1_565 S
O173 Cd163 2.240 . S
O173 C171 1.279 . S
O174 Cd164 2.297 . S
O174 C169 1.247 . S
O175 Cd164 2.439 . S
O175 C169 1.208 . S
C176 C177 1.386 . S
C176 C178 1.383 . S
C176 H192 0.951 . S
C177 C176 1.386 . S
C177 C181 1.383 . S
C178 C176 1.383 . S
C178 C179 1.402 . S
C178 H193 0.951 . S
C179 C178 1.402 . S
C179 C180 1.375 . S
C179 C182 1.481 . S
C180 C179 1.375 . S
C180 C181 1.367 . S
C180 H194 0.951 . S
C181 C177 1.383 . S
C181 C180 1.367 . S
C181 H195 0.950 . S
C182 C179 1.481 . S
C182 C183 1.297 . S
C182 H196 0.950 . S
C183 C182 1.297 . S
C183 C184 1.479 . S
C183 H197 0.950 . S
C184 C183 1.479 . S
C184 C185 1.375 . S
C184 C190 1.404 . S
C185 C184 1.375 . S
C185 C186 1.369 . S
C185 H198 0.950 . S
C186 C185 1.369 . S
C186 C187 1.392 . S
C186 H199 0.951 . S
C187 C186 1.392 . S
C187 C189 1.384 . S
H188 C190 0.949 . S
C189 C187 1.384 . S
C189 C190 1.385 . S
C189 H191 0.950 . S
C190 C184 1.404 . S
C190 H188 0.949 . S
C190 C189 1.385 . S
H191 C189 0.950 . S
H192 C176 0.951 . S
H193 C178 0.951 . S
H194 C180 0.951 . S
H195 C181 0.950 . S
H196 C182 0.950 . S
H197 C183 0.950 . S
H198 C185 0.950 . S
H199 C186 0.951 . S
C200 C201 1.386 . S
C200 C202 1.383 . S
C200 H216 0.951 . S
C201 C200 1.386 . S
C201 C205 1.383 . S
C202 C200 1.383 . S
C202 C203 1.402 . S
C202 H217 0.951 . S
C203 C202 1.402 . S
C203 C204 1.375 . S
C203 C206 1.481 . S
C204 C203 1.375 . S
C204 C205 1.367 . S
C204 H218 0.951 . S
C205 C201 1.383 . S
C205 C204 1.367 . S
C205 H219 0.950 . S
C206 C203 1.481 . S
C206 C207 1.297 . S
C206 H220 0.950 . S
C207 C206 1.297 . S
C207 C208 1.479 . S
C207 H221 0.950 . S
C208 C207 1.479 . S
C208 C209 1.375 . S
C208 C214 1.404 . S
C209 C208 1.375 . S
C209 C210 1.369 . S
C209 H222 0.950 . S
C210 C209 1.369 . S
C210 C211 1.392 . S
C210 H223 0.951 . S
C211 C210 1.392 . S
C211 C213 1.384 . S
H212 C214 0.949 . S
C213 C211 1.384 . S
C213 C214 1.385 . S
C213 H215 0.950 1_455 S
C214 C208 1.404 . S
C214 H212 0.949 . S
C214 C213 1.385 . S
H215 C213 0.950 1_655 S
H216 C200 0.951 . S
H217 C202 0.951 . S
H218 C204 0.951 . S
H219 C205 0.950 . S
H220 C206 0.950 . S
H221 C207 0.950 . S
H222 C209 0.950 . S
H223 C210 0.951 . S
C224 C225 1.386 . S
C224 C226 1.383 . S
C224 H240 0.951 . S
C225 C224 1.386 . S
C225 C229 1.383 . S
C226 C224 1.383 . S
C226 C227 1.402 . S
C226 H241 0.951 . S
C227 C226 1.402 . S
C227 C228 1.375 . S
C227 C230 1.481 . S
C228 C227 1.375 . S
C228 C229 1.367 . S
C228 H242 0.951 . S
C229 C225 1.383 . S
C229 C228 1.367 . S
C229 H243 0.950 . S
C230 C227 1.481 . S
C230 C231 1.297 . S
C230 H244 0.950 . S
C231 C230 1.297 . S
C231 C232 1.479 . S
C231 H245 0.950 . S
C232 C231 1.479 . S
C232 C233 1.375 . S
C232 C238 1.404 . S
C233 C232 1.375 . S
C233 C234 1.369 . S
C233 H246 0.950 . S
C234 C233 1.369 . S
C234 C235 1.392 . S
C234 H247 0.951 . S
C235 C234 1.392 . S
C235 C237 1.384 . S
H236 C238 0.949 1_565 S
C237 C235 1.384 . S
C237 C238 1.385 . S
C237 H239 0.950 1_545 S
C238 C232 1.404 . S
C238 H236 0.949 1_545 S
C238 C237 1.385 . S
H239 C237 0.950 1_565 S
H240 C224 0.951 . S
H241 C226 0.951 . S
H242 C228 0.951 . S
H243 C229 0.950 . S
H244 C230 0.950 . S
H245 C231 0.950 . S
H246 C233 0.950 . S
H247 C234 0.951 . S
C248 C249 1.386 . S
C248 C250 1.383 . S
C248 H264 0.951 . S
C249 C248 1.386 . S
C249 C253 1.383 . S
C250 C248 1.383 . S
C250 C251 1.402 . S
C250 H265 0.951 . S
C251 C250 1.402 . S
C251 C252 1.375 . S
C251 C254 1.481 . S
C252 C251 1.375 . S
C252 C253 1.367 . S
C252 H266 0.951 . S
C253 C249 1.383 . S
C253 C252 1.367 . S
C253 H267 0.950 . S
C254 C251 1.481 . S
C254 C255 1.297 . S
C254 H268 0.950 . S
C255 C254 1.297 . S
C255 C256 1.479 . S
C255 H269 0.950 . S
C256 C255 1.479 . S
C256 C257 1.375 . S
C256 C262 1.404 . S
C257 C256 1.375 . S
C257 C258 1.369 . S
C257 H270 0.950 . S
C258 C257 1.369 . S
C258 C259 1.392 . S
C258 H271 0.951 . S
C259 C258 1.392 . S
C259 C261 1.384 . S
H260 C262 0.949 . S
C261 C259 1.384 . S
C261 C262 1.385 . S
C261 H263 0.950 . S
C262 C256 1.404 . S
C262 H260 0.949 . S
C262 C261 1.385 . S
H263 C261 0.950 . S
H264 C248 0.951 . S
H265 C250 0.951 . S
H266 C252 0.951 . S
H267 C253 0.950 . S
H268 C254 0.950 . S
H269 C255 0.950 . S
H270 C257 0.950 . S
H271 C258 0.951 . S
C272 C273 1.386 . S
C272 C274 1.383 . S
C272 H288 0.951 . S
C273 C272 1.386 . S
C273 C277 1.383 . S
C274 C272 1.383 . S
C274 C275 1.402 . S
C274 H289 0.951 . S
C275 C274 1.402 . S
C275 C276 1.375 . S
C275 C278 1.481 . S
C276 C275 1.375 . S
C276 C277 1.367 . S
C276 H290 0.951 . S
C277 C273 1.383 . S
C277 C276 1.367 . S
C277 H291 0.950 . S
C278 C275 1.481 . S
C278 C279 1.297 . S
C278 H292 0.950 . S
C279 C278 1.297 . S
C279 C280 1.479 . S
C279 H293 0.950 . S
C280 C279 1.479 . S
C280 C281 1.375 . S
C280 C286 1.404 . S
C281 C280 1.375 . S
C281 C282 1.369 . S
C281 H294 0.950 . S
C282 C281 1.369 . S
C282 C283 1.392 . S
C282 H295 0.951 . S
C283 C282 1.392 . S
C283 C285 1.384 . S
H284 C286 0.949 . S
C285 C283 1.384 . S
C285 C286 1.385 . S
C285 H287 0.950 . S
C286 C280 1.404 . S
C286 H284 0.949 . S
C286 C285 1.385 . S
H287 C285 0.950 . S
H288 C272 0.951 . S
H289 C274 0.951 . S
H290 C276 0.951 . S
H291 C277 0.950 . S
H292 C278 0.950 . S
H293 C279 0.950 . S
H294 C281 0.950 . S
H295 C282 0.951 . S
C296 C297 1.386 . S
C296 C298 1.383 . S
C296 H312 0.951 . S
C297 C296 1.386 . S
C297 C301 1.383 . S
C298 C296 1.383 . S
C298 C299 1.402 . S
C298 H313 0.951 . S
C299 C298 1.402 . S
C299 C300 1.375 . S
C299 C302 1.481 . S
C300 C299 1.375 . S
C300 C301 1.367 . S
C300 H314 0.954 . S
C301 C297 1.383 . S
C301 C300 1.367 . S
C301 H315 0.950 1_455 S
C302 C299 1.481 . S
C302 C303 1.297 . S
C302 H316 0.950 . S
C303 C302 1.297 . S
C303 C304 1.479 . S
C303 H317 0.950 . S
C304 C303 1.479 . S
C304 C305 1.375 . S
C304 C310 1.404 . S
C305 C304 1.375 . S
C305 C306 1.369 . S
C305 H318 0.950 . S
C306 C305 1.369 . S
C306 C307 1.392 . S
C306 H319 0.951 . S
C307 C306 1.392 . S
C307 C309 1.384 . S
H308 C310 0.949 . S
C309 C307 1.384 . S
C309 C310 1.385 . S
C309 H311 0.950 . S
C310 C304 1.404 . S
C310 H308 0.949 . S
C310 C309 1.385 . S
H311 C309 0.950 . S
H312 C296 0.951 . S
H313 C298 0.951 . S
H314 C300 0.954 . S
H315 C301 0.950 1_655 S
H316 C302 0.950 . S
H317 C303 0.950 . S
H318 C305 0.950 . S
H319 C306 0.951 . S
C320 C321 1.386 . S
C320 C322 1.383 . S
C320 H336 0.951 1_545 S
C321 C320 1.386 . S
C321 C325 1.383 . S
C322 C320 1.383 . S
C322 C323 1.402 . S
C322 H337 0.951 1_545 S
C323 C322 1.402 . S
C323 C324 1.375 . S
C323 C326 1.481 . S
C324 C323 1.375 . S
C324 C325 1.367 . S
C324 H338 0.951 . S
C325 C321 1.383 . S
C325 C324 1.367 . S
C325 H339 0.950 . S
C326 C323 1.481 . S
C326 C327 1.297 . S
C326 H340 0.950 . S
C327 C326 1.297 . S
C327 C328 1.479 . S
C327 H341 0.950 . S
C328 C327 1.479 . S
C328 C329 1.375 . S
C328 C334 1.404 . S
C329 C328 1.375 . S
C329 C330 1.369 . S
C329 H342 0.950 1_545 S
C330 C329 1.369 . S
C330 C331 1.392 . S
C330 H343 0.951 . S
C331 C330 1.392 . S
C331 C333 1.384 . S
H332 C334 0.949 . S
C333 C331 1.384 . S
C333 C334 1.385 . S
C333 H335 0.950 . S
C334 C328 1.404 . S
C334 H332 0.949 . S
C334 C333 1.385 . S
H335 C333 0.950 . S
H336 C320 0.951 1_565 S
H337 C322 0.951 1_565 S
H338 C324 0.951 . S
H339 C325 0.950 . S
H340 C326 0.950 . S
H341 C327 0.950 . S
H342 C329 0.950 1_565 S
H343 C330 0.951 . S
C344 C345 1.386 . S
C344 C346 1.383 . S
C344 H360 0.951 . S
C345 C344 1.386 . S
C345 C349 1.383 . S
C346 C344 1.383 . S
C346 C347 1.402 . S
C346 H361 0.951 . S
C347 C346 1.402 . S
C347 C348 1.375 . S
C347 C350 1.481 . S
C348 C347 1.375 . S
C348 C349 1.367 . S
C348 H362 0.951 1_455 S
C349 C345 1.383 . S
C349 C348 1.367 . S
C349 H363 0.950 . S
C350 C347 1.481 . S
C350 C351 1.297 . S
C350 H364 0.950 1_455 S
C351 C350 1.297 . S
C351 C352 1.479 . S
C351 H365 0.950 . S
C352 C351 1.479 . S
C352 C353 1.375 . S
C352 C358 1.404 1_455 S
C353 C352 1.375 . S
C353 C354 1.369 . S
C353 H366 0.950 . S
C354 C353 1.369 . S
C354 C355 1.392 . S
C354 H367 0.951 . S
C355 C354 1.392 . S
C355 C357 1.384 1_455 S
H356 C358 0.949 . S
C357 C355 1.384 1_655 S
C357 C358 1.385 . S
C357 H359 0.950 . S
C358 C352 1.404 1_655 S
C358 H356 0.949 . S
C358 C357 1.385 . S
H359 C357 0.950 . S
H360 C344 0.951 . S
H361 C346 0.951 . S
H362 C348 0.951 1_655 S
H363 C349 0.950 . S
H364 C350 0.950 1_655 S
H365 C351 0.950 . S
H366 C353 0.950 . S
H367 C354 0.951 . S
C187 C157 2.238 . S
C177 C69 2.244 . S
C211 C168 2.222 . S
C201 C143 2.339 . S
C235 C156 1.562 . S
C225 C63 1.459 . S
C259 C169 1.579 . S
C249 C137 1.465 . S
C283 C171 1.612 . S
C273 C39 1.530 . S
C307 C155 1.492 . S
C297 C113 1.456 . S
C331 C170 0.821 . S
C321 C51 0.814 . S
C345 C125 0.861 . S
C355 C154 0.771 . S
