# Generated by pormake.
# Topology ptr, (4,4)-cn, num edge types: 1
# Building blocks:
#     Node 0, Type 0, BuildingBlock: CEKHIL_clean_sbu_0, # of connection points: 4
#     Node 1, Type 0, BuildingBlock: CEKHIL_clean_sbu_0, # of connection points: 4
#     Node 2, Type 0, BuildingBlock: CEKHIL_clean_sbu_0, # of connection points: 4
#     Node 3, Type 0, BuildingBlock: CEKHIL_clean_sbu_0, # of connection points: 4
#     Node 4, Type 0, BuildingBlock: CEKHIL_clean_sbu_0, # of connection points: 4
#     Node 5, Type 0, BuildingBlock: CEKHIL_clean_sbu_0, # of connection points: 4
#     Node 6, Type 0, BuildingBlock: CEKHIL_clean_sbu_0, # of connection points: 4
#     Node 7, Type 0, BuildingBlock: CEKHIL_clean_sbu_0, # of connection points: 4
#     Node 8, Type 0, BuildingBlock: CEKHIL_clean_sbu_0, # of connection points: 4
#     Node 9, Type 0, BuildingBlock: CEKHIL_clean_sbu_0, # of connection points: 4
#     Node 10, Type 0, BuildingBlock: CEKHIL_clean_sbu_0, # of connection points: 4
#     Node 11, Type 0, BuildingBlock: CEKHIL_clean_sbu_0, # of connection points: 4
#     Node 12, Type 0, BuildingBlock: CEKHIL_clean_sbu_0, # of connection points: 4
#     Node 13, Type 0, BuildingBlock: CEKHIL_clean_sbu_0, # of connection points: 4
#     Node 14, Type 0, BuildingBlock: CEKHIL_clean_sbu_0, # of connection points: 4
#     Node 15, Type 0, BuildingBlock: CEKHIL_clean_sbu_0, # of connection points: 4
#     Node 16, Type 0, BuildingBlock: CEKHIL_clean_sbu_0, # of connection points: 4
#     Node 17, Type 0, BuildingBlock: CEKHIL_clean_sbu_0, # of connection points: 4
#     Node 18, Type 1, BuildingBlock: MUDLON_clean_linker_0, # of connection points: 4
#     Node 19, Type 1, BuildingBlock: MUDLON_clean_linker_0, # of connection points: 4
#     Node 20, Type 1, BuildingBlock: MUDLON_clean_linker_0, # of connection points: 4
#     Node 21, Type 1, BuildingBlock: MUDLON_clean_linker_0, # of connection points: 4
#     Node 22, Type 1, BuildingBlock: MUDLON_clean_linker_0, # of connection points: 4
#     Node 23, Type 1, BuildingBlock: MUDLON_clean_linker_0, # of connection points: 4
#     Node 24, Type 1, BuildingBlock: MUDLON_clean_linker_0, # of connection points: 4
#     Node 25, Type 1, BuildingBlock: MUDLON_clean_linker_0, # of connection points: 4
#     Node 26, Type 1, BuildingBlock: MUDLON_clean_linker_0, # of connection points: 4
#     Node 27, Type 1, BuildingBlock: MUDLON_clean_linker_0, # of connection points: 4
#     Node 28, Type 1, BuildingBlock: MUDLON_clean_linker_0, # of connection points: 4
#     Node 29, Type 1, BuildingBlock: MUDLON_clean_linker_0, # of connection points: 4
#     Node 30, Type 1, BuildingBlock: MUDLON_clean_linker_0, # of connection points: 4
#     Node 31, Type 1, BuildingBlock: MUDLON_clean_linker_0, # of connection points: 4
#     Node 32, Type 1, BuildingBlock: MUDLON_clean_linker_0, # of connection points: 4
#     Node 33, Type 1, BuildingBlock: MUDLON_clean_linker_0, # of connection points: 4
#     Node 34, Type 1, BuildingBlock: MUDLON_clean_linker_0, # of connection points: 4
#     Node 35, Type 1, BuildingBlock: MUDLON_clean_linker_0, # of connection points: 4
#     Edge 36, Type (0, 1), BuildingBlock: AJUNOK_clean_linker_0, # of connection points: 2
#     Edge 37, Type (0, 1), BuildingBlock: AJUNOK_clean_linker_0, # of connection points: 2
#     Edge 38, Type (0, 1), BuildingBlock: AJUNOK_clean_linker_0, # of connection points: 2
#     Edge 39, Type (0, 1), BuildingBlock: AJUNOK_clean_linker_0, # of connection points: 2
#     Edge 40, Type (0, 1), BuildingBlock: AJUNOK_clean_linker_0, # of connection points: 2
#     Edge 41, Type (0, 1), BuildingBlock: AJUNOK_clean_linker_0, # of connection points: 2
#     Edge 42, Type (0, 1), BuildingBlock: AJUNOK_clean_linker_0, # of connection points: 2
#     Edge 43, Type (0, 1), BuildingBlock: AJUNOK_clean_linker_0, # of connection points: 2
#     Edge 44, Type (0, 1), BuildingBlock: AJUNOK_clean_linker_0, # of connection points: 2
#     Edge 45, Type (0, 1), BuildingBlock: AJUNOK_clean_linker_0, # of connection points: 2
#     Edge 46, Type (0, 1), BuildingBlock: AJUNOK_clean_linker_0, # of connection points: 2
#     Edge 47, Type (0, 1), BuildingBlock: AJUNOK_clean_linker_0, # of connection points: 2
#     Edge 48, Type (0, 1), BuildingBlock: AJUNOK_clean_linker_0, # of connection points: 2
#     Edge 49, Type (0, 1), BuildingBlock: AJUNOK_clean_linker_0, # of connection points: 2
#     Edge 50, Type (0, 1), BuildingBlock: AJUNOK_clean_linker_0, # of connection points: 2
#     Edge 51, Type (0, 1), BuildingBlock: AJUNOK_clean_linker_0, # of connection points: 2
#     Edge 52, Type (0, 1), BuildingBlock: AJUNOK_clean_linker_0, # of connection points: 2
#     Edge 53, Type (0, 1), BuildingBlock: AJUNOK_clean_linker_0, # of connection points: 2
#     Edge 54, Type (0, 1), BuildingBlock: AJUNOK_clean_linker_0, # of connection points: 2
#     Edge 55, Type (0, 1), BuildingBlock: AJUNOK_clean_linker_0, # of connection points: 2
#     Edge 56, Type (0, 1), BuildingBlock: AJUNOK_clean_linker_0, # of connection points: 2
#     Edge 57, Type (0, 1), BuildingBlock: AJUNOK_clean_linker_0, # of connection points: 2
#     Edge 58, Type (0, 1), BuildingBlock: AJUNOK_clean_linker_0, # of connection points: 2
#     Edge 59, Type (0, 1), BuildingBlock: AJUNOK_clean_linker_0, # of connection points: 2
#     Edge 60, Type (0, 1), BuildingBlock: AJUNOK_clean_linker_0, # of connection points: 2
#     Edge 61, Type (0, 1), BuildingBlock: AJUNOK_clean_linker_0, # of connection points: 2
#     Edge 62, Type (0, 1), BuildingBlock: AJUNOK_clean_linker_0, # of connection points: 2
#     Edge 63, Type (0, 1), BuildingBlock: AJUNOK_clean_linker_0, # of connection points: 2
#     Edge 64, Type (0, 1), BuildingBlock: AJUNOK_clean_linker_0, # of connection points: 2
#     Edge 65, Type (0, 1), BuildingBlock: AJUNOK_clean_linker_0, # of connection points: 2
#     Edge 66, Type (0, 1), BuildingBlock: AJUNOK_clean_linker_0, # of connection points: 2
#     Edge 67, Type (0, 1), BuildingBlock: AJUNOK_clean_linker_0, # of connection points: 2
#     Edge 68, Type (0, 1), BuildingBlock: AJUNOK_clean_linker_0, # of connection points: 2
#     Edge 69, Type (0, 1), BuildingBlock: AJUNOK_clean_linker_0, # of connection points: 2
#     Edge 70, Type (0, 1), BuildingBlock: AJUNOK_clean_linker_0, # of connection points: 2
#     Edge 71, Type (0, 1), BuildingBlock: AJUNOK_clean_linker_0, # of connection points: 2
#     Edge 72, Type (0, 1), BuildingBlock: AJUNOK_clean_linker_0, # of connection points: 2
#     Edge 73, Type (0, 1), BuildingBlock: AJUNOK_clean_linker_0, # of connection points: 2
#     Edge 74, Type (0, 1), BuildingBlock: AJUNOK_clean_linker_0, # of connection points: 2
#     Edge 75, Type (0, 1), BuildingBlock: AJUNOK_clean_linker_0, # of connection points: 2
#     Edge 76, Type (0, 1), BuildingBlock: AJUNOK_clean_linker_0, # of connection points: 2
#     Edge 77, Type (0, 1), BuildingBlock: AJUNOK_clean_linker_0, # of connection points: 2
#     Edge 78, Type (0, 1), BuildingBlock: AJUNOK_clean_linker_0, # of connection points: 2
#     Edge 79, Type (0, 1), BuildingBlock: AJUNOK_clean_linker_0, # of connection points: 2
#     Edge 80, Type (0, 1), BuildingBlock: AJUNOK_clean_linker_0, # of connection points: 2
#     Edge 81, Type (0, 1), BuildingBlock: AJUNOK_clean_linker_0, # of connection points: 2
#     Edge 82, Type (0, 1), BuildingBlock: AJUNOK_clean_linker_0, # of connection points: 2
#     Edge 83, Type (0, 1), BuildingBlock: AJUNOK_clean_linker_0, # of connection points: 2
#     Edge 84, Type (0, 1), BuildingBlock: AJUNOK_clean_linker_0, # of connection points: 2
#     Edge 85, Type (0, 1), BuildingBlock: AJUNOK_clean_linker_0, # of connection points: 2
#     Edge 86, Type (0, 1), BuildingBlock: AJUNOK_clean_linker_0, # of connection points: 2
#     Edge 87, Type (0, 1), BuildingBlock: AJUNOK_clean_linker_0, # of connection points: 2
#     Edge 88, Type (0, 1), BuildingBlock: AJUNOK_clean_linker_0, # of connection points: 2
#     Edge 89, Type (0, 1), BuildingBlock: AJUNOK_clean_linker_0, # of connection points: 2
#     Edge 90, Type (0, 1), BuildingBlock: AJUNOK_clean_linker_0, # of connection points: 2
#     Edge 91, Type (0, 1), BuildingBlock: AJUNOK_clean_linker_0, # of connection points: 2
#     Edge 92, Type (0, 1), BuildingBlock: AJUNOK_clean_linker_0, # of connection points: 2
#     Edge 93, Type (0, 1), BuildingBlock: AJUNOK_clean_linker_0, # of connection points: 2
#     Edge 94, Type (0, 1), BuildingBlock: AJUNOK_clean_linker_0, # of connection points: 2
#     Edge 95, Type (0, 1), BuildingBlock: AJUNOK_clean_linker_0, # of connection points: 2
#     Edge 96, Type (0, 1), BuildingBlock: AJUNOK_clean_linker_0, # of connection points: 2
#     Edge 97, Type (0, 1), BuildingBlock: AJUNOK_clean_linker_0, # of connection points: 2
#     Edge 98, Type (0, 1), BuildingBlock: AJUNOK_clean_linker_0, # of connection points: 2
#     Edge 99, Type (0, 1), BuildingBlock: AJUNOK_clean_linker_0, # of connection points: 2
#     Edge 100, Type (0, 1), BuildingBlock: AJUNOK_clean_linker_0, # of connection points: 2
#     Edge 101, Type (0, 1), BuildingBlock: AJUNOK_clean_linker_0, # of connection points: 2
#     Edge 102, Type (0, 1), BuildingBlock: AJUNOK_clean_linker_0, # of connection points: 2
#     Edge 103, Type (0, 1), BuildingBlock: AJUNOK_clean_linker_0, # of connection points: 2
#     Edge 104, Type (0, 1), BuildingBlock: AJUNOK_clean_linker_0, # of connection points: 2
#     Edge 105, Type (0, 1), BuildingBlock: AJUNOK_clean_linker_0, # of connection points: 2
#     Edge 106, Type (0, 1), BuildingBlock: AJUNOK_clean_linker_0, # of connection points: 2
#     Edge 107, Type (0, 1), BuildingBlock: AJUNOK_clean_linker_0, # of connection points: 2
# Relax obj value: 0.032
# Max RMSD: 0.101
# Mean RMSD: 0.066
data_MOF--net-ptr--node1-CEKHIL_clean_sbu_0--node2-MUDLON_clean_linker_0--edge1-AJUNOK_clean_linker_0
_symmetry_space_group_name_H-M    P1
_symmetry_Int_Tables_number       1
_symmetry_cell_setting            triclinic
loop_
_symmetry_equiv_pos_as_xyz
'x, y, z'
_cell_length_a     85.041059
_cell_length_b     84.109712
_cell_length_c     51.542212
_cell_angle_alpha  91.067611
_cell_angle_beta   89.461751
_cell_angle_gamma 120.99433
loop_
_atom_site_label
_atom_site_type_symbol
_atom_site_fract_x
_atom_site_fract_y
_atom_site_fract_z
_atom_type_partial_charge
Co0 Co 0.00645 0.35439 0.01462 0.0
O1 O 0.01405 0.34288 0.03949 0.0
O2 O 0.03294 0.36789 0.01729 0.0
C3 C 0.98592 0.32795 0.99373 0.0
O4 O 0.00393 0.36992 0.98679 0.0
Co5 Co 0.96668 0.34635 0.01285 0.0
O6 O 0.97402 0.3583 0.97852 0.0
C7 C 0.99207 0.37206 0.05291 0.0
C8 C 0.0308 0.35576 0.03442 0.0
C9 C 0.9909 0.36911 0.9732 0.0
O10 O 0.00508 0.37041 0.04295 0.0
O11 O 0.97553 0.36302 0.04456 0.0
O12 O 0.00329 0.33615 0.98821 0.0
O13 O 0.98169 0.3351 0.01303 0.0
Co14 Co 0.64846 0.65445 0.00899 0.0
O15 O 0.66674 0.66779 0.98298 0.0
O16 O 0.66229 0.64238 0.00169 0.0
C17 C 0.65453 0.67972 0.03311 0.0
O18 O 0.63165 0.6374 0.03734 0.0
Co19 Co 0.61602 0.66091 0.0178 0.0
O20 O 0.61177 0.6462 0.04949 0.0
C21 C 0.61633 0.63972 0.97177 0.0
C22 C 0.67166 0.65563 0.98536 0.0
C23 C 0.61898 0.6363 0.05245 0.0
O24 O 0.62995 0.63908 0.98121 0.0
O25 O 0.60986 0.64908 0.98227 0.0
O26 O 0.6644 0.67211 0.03559 0.0
O27 O 0.6424 0.67275 0.01487 0.0
Co28 Co 0.35464 1.00025 0.0087 0.0
O29 O 0.3421 0.00818 0.98638 0.0
O30 O 0.36715 0.02716 0.00898 0.0
C31 C 0.32912 0.9779 0.02842 0.0
O32 O 0.37064 0.99713 0.035 0.0
Co33 Co 0.34794 0.96046 0.00422 0.0
O34 O 0.36144 0.96692 0.03755 0.0
C35 C 0.37188 0.98829 0.96607 0.0
C36 C 0.35436 0.02502 0.99312 0.0
C37 C 0.3711 0.98364 0.0457 0.0
O38 O 0.3705 1.0008 0.97889 0.0
O39 O 0.36314 0.97114 0.97215 0.0
O40 O 0.33668 0.99513 0.036 0.0
O41 O 0.33627 0.97502 0.00796 0.0
Co42 Co 0.99672 0.64968 0.01534 0.0
O43 O 0.98946 0.66261 0.99265 0.0
O44 O 0.97014 0.63689 0.0131 0.0
C45 C 0.01783 0.67485 0.03792 0.0
O46 O 0.99938 0.63297 0.04099 0.0
Co47 Co 0.03632 0.65731 0.01173 0.0
O48 O 0.02909 0.64129 0.04259 0.0
C49 C 0.00956 0.63332 0.97231 0.0
C50 C 0.97261 0.64992 0.99734 0.0
C51 C 0.01255 0.63146 0.05034 0.0
O52 O 0.99709 0.63426 0.98528 0.0
O53 O 0.02659 0.64283 0.97829 0.0
O54 O 1.00052 0.66687 0.04362 0.0
O55 O 0.02162 0.66868 0.01704 0.0
Co56 Co 0.35369 0.34731 0.01967 0.0
O57 O 0.33344 0.33358 0.04285 0.0
O58 O 0.34039 0.36017 0.02488 0.0
C59 C 0.34836 0.32255 0.99513 0.0
O60 O 0.37281 0.36482 0.99369 0.0
Co61 Co 0.38569 0.33997 0.01606 0.0
O62 O 0.39104 0.35363 0.98309 0.0
C63 C 0.38459 0.36253 0.05973 0.0
C64 C 0.32949 0.34638 0.0396 0.0
C65 C 0.38523 0.36467 0.97938 0.0
O66 O 0.37033 0.36152 0.04965 0.0
O67 O 0.39235 0.35416 0.05001 0.0
O68 O 0.33935 0.33092 0.99115 0.0
O69 O 0.3592 0.32847 0.01501 0.0
Co70 Co 0.65031 0.00453 0.01504 0.0
O71 O 0.66303 0.99883 0.0404 0.0
O72 O 0.64019 0.97792 0.01606 0.0
C73 C 0.67573 0.02801 0.99657 0.0
O74 O 0.63445 0.0053 0.98606 0.0
Co75 Co 0.65303 0.04269 0.01692 0.0
O76 O 0.64 0.03442 0.9832 0.0
C77 C 0.6304 0.01472 0.05542 0.0
C78 C 0.65242 0.98153 0.03382 0.0
C79 C 0.63244 0.01773 0.97486 0.0
O80 O 0.63222 0.0026 0.04231 0.0
O81 O 0.63897 0.03196 0.04987 0.0
O82 O 0.67006 0.01088 0.99018 0.0
O83 O 0.66699 0.03035 0.01549 0.0
Co84 Co 0.67426 0.68835 0.34855 0.0
O85 O 0.68137 0.6762 0.37303 0.0
O86 O 0.70071 0.70148 0.3517 0.0
C87 C 0.65375 0.66236 0.32671 0.0
O88 O 0.67218 0.70438 0.32121 0.0
Co89 Co 0.63463 0.6807 0.3475 0.0
O90 O 0.64249 0.69486 0.31479 0.0
C91 C 0.6596 0.7043 0.38913 0.0
C92 C 0.69824 0.68892 0.36829 0.0
C93 C 0.65939 0.70498 0.3089 0.0
O94 O 0.67289 0.70416 0.37726 0.0
O95 O 0.64289 0.69457 0.38164 0.0
O96 O 0.67117 0.67043 0.32165 0.0
O97 O 0.64946 0.66925 0.34628 0.0
Co98 Co 0.3192 0.98377 0.34429 0.0
O99 O 0.33983 0.99706 0.32154 0.0
O100 O 0.33237 0.97067 0.34065 0.0
C101 C 0.32408 0.00879 0.36798 0.0
O102 O 0.29966 0.96676 0.37005 0.0
Co103 Co 0.2874 0.99157 0.34425 0.0
O104 O 0.27869 0.97526 0.3749 0.0
C105 C 0.28984 0.96904 0.30199 0.0
C106 C 0.34349 0.98414 0.32565 0.0
C107 C 0.28531 0.96528 0.38104 0.0
O108 O 0.30299 0.96906 0.31413 0.0
O109 O 0.28268 0.97848 0.30963 0.0
O110 O 0.33307 1.00052 0.37279 0.0
O111 O 0.31376 0.00278 0.34756 0.0
Co112 Co 0.02088 0.33134 0.34332 0.0
O113 O 0.00892 0.33867 0.31867 0.0
O114 O 0.03324 0.35811 0.34224 0.0
C115 C 0.99512 0.30929 0.36257 0.0
O116 O 0.03633 0.32928 0.37176 0.0
Co117 Co 0.01517 0.29181 0.34234 0.0
O118 O 0.02991 0.29986 0.37459 0.0
C119 C 0.03987 0.31892 0.30408 0.0
C120 C 0.02104 0.35565 0.32511 0.0
C121 C 0.0382 0.31666 0.38259 0.0
O122 O 0.03776 0.33149 0.31533 0.0
O123 O 0.03115 0.30192 0.31083 0.0
O124 O 1.00199 0.32665 0.36892 0.0
O125 O 0.00289 0.30592 0.34334 0.0
Co126 Co 0.66627 0.98301 0.34592 0.0
O127 O 0.6579 0.9938 0.32103 0.0
O128 O 0.63993 0.96767 0.34165 0.0
C129 C 0.68452 0.00947 0.36858 0.0
O130 O 0.66975 0.96795 0.37354 0.0
Co131 Co 0.70733 0.99513 0.34901 0.0
O132 O 0.69983 0.97925 0.37998 0.0
C133 C 0.68466 0.9706 0.30605 0.0
C134 C 0.64149 0.97985 0.32502 0.0
C135 C 0.68305 0.96817 0.38566 0.0
O136 O 0.67024 0.96889 0.31707 0.0
O137 O 0.70088 0.98152 0.31475 0.0
O138 O 0.66699 0.99985 0.37303 0.0
O139 O 0.69013 0.00373 0.34919 0.0
Co140 Co 0.02258 0.6815 0.35166 0.0
O141 O 0.00412 0.66796 0.37729 0.0
O142 O 0.0083 0.69321 0.35839 0.0
C143 C 0.01713 0.65639 0.32771 0.0
O144 O 0.03969 0.69867 0.32355 0.0
Co145 Co 0.0554 0.67549 0.34499 0.0
O146 O 0.06083 0.69101 0.31397 0.0
C147 C 0.055 0.69805 0.38918 0.0
C148 C 0.999 0.67994 0.37474 0.0
C149 C 0.05321 0.70039 0.30982 0.0
O150 O 0.04056 0.69712 0.37986 0.0
O151 O 0.06225 0.6893 0.37909 0.0
O152 O 0.00719 0.66387 0.32475 0.0
O153 O 0.02892 0.66331 0.34641 0.0
Co154 Co 0.31938 0.34322 0.35454 0.0
O155 O 0.332 0.33717 0.37953 0.0
O156 O 0.30802 0.31646 0.3568 0.0
C157 C 0.34484 0.36516 0.33418 0.0
O158 O 0.30339 0.34439 0.32616 0.0
Co159 Co 0.32462 0.38245 0.35457 0.0
O160 O 0.31125 0.3741 0.32121 0.0
C161 C 0.30022 0.35567 0.39339 0.0
C162 C 0.32057 0.31986 0.37395 0.0
C163 C 0.30227 0.35708 0.31414 0.0
O164 O 0.30261 0.34316 0.38255 0.0
O165 O 0.30866 0.37257 0.38617 0.0
O166 O 0.3379 0.34768 0.32859 0.0
O167 O 0.33723 0.3687 0.35349 0.0
Co168 Co 0.33875 0.02224 0.67825 0.0
O169 O 0.34558 0.01015 0.70321 0.0
O170 O 0.36506 0.03628 0.68373 0.0
C171 C 0.31996 0.99651 0.6547 0.0
O172 O 0.33704 0.03846 0.65073 0.0
Co173 Co 0.29859 0.01276 0.67302 0.0
O174 O 0.30742 0.02659 0.64023 0.0
C175 C 0.3212 0.03658 0.71657 0.0
C176 C 0.36241 0.02353 0.7001 0.0
C177 C 0.32444 0.03787 0.63632 0.0
O178 O 0.33525 0.03662 0.70707 0.0
O179 O 0.30513 0.02724 0.70664 0.0
O180 O 0.33758 0.00535 0.65096 0.0
O181 O 0.31444 0.0025 0.67391 0.0
Co182 Co 0.98361 0.3238 0.67709 0.0
O183 O 0.00216 0.33703 0.65137 0.0
O184 O 0.99869 0.31279 0.67243 0.0
C185 C 0.98777 0.34904 0.69906 0.0
O186 O 0.96654 0.30703 0.70563 0.0
Co187 Co 0.9496 0.32813 0.68077 0.0
O188 O 0.94417 0.31338 0.71254 0.0
C189 C 0.95096 0.30393 0.63997 0.0
C190 C 0.0078 0.32559 0.65538 0.0
C191 C 0.95229 0.3047 0.71805 0.0
O192 O 0.96621 0.30682 0.64931 0.0
O193 O 0.94261 0.31192 0.64878 0.0
O194 O 0.99843 0.34254 0.70318 0.0
O195 O 0.97617 0.34134 0.68024 0.0
Co196 Co 0.68656 0.66447 0.67704 0.0
O197 O 0.67564 0.67245 0.65172 0.0
O198 O 0.69959 0.69129 0.6761 0.0
C199 C 0.66024 0.64312 0.69576 0.0
O200 O 0.70125 0.66167 0.70585 0.0
Co201 Co 0.67938 0.62458 0.67634 0.0
O202 O 0.69102 0.63142 0.7111 0.0
C203 C 0.70443 0.65099 0.63768 0.0
C204 C 0.68799 0.68934 0.65824 0.0
C205 C 0.70072 0.64832 0.71844 0.0
O206 O 0.70328 0.66394 0.64953 0.0
O207 O 0.69512 0.63398 0.64438 0.0
O208 O 0.66776 0.66053 0.70223 0.0
O209 O 0.66774 0.63929 0.67662 0.0
Co210 Co 0.33724 0.31774 0.67455 0.0
O211 O 0.3301 0.32957 0.64955 0.0
O212 O 0.31088 0.30363 0.66963 0.0
C213 C 0.3562 0.34357 0.69766 0.0
O214 O 0.33935 0.30176 0.70211 0.0
Co215 Co 0.37776 0.32759 0.67818 0.0
O216 O 0.36898 0.3105 0.70781 0.0
C217 C 0.35463 0.30405 0.63486 0.0
C218 C 0.31332 0.31621 0.6531 0.0
C219 C 0.35205 0.3004 0.71346 0.0
O220 O 0.34051 0.30309 0.64578 0.0
O221 O 0.37094 0.31429 0.64369 0.0
O222 O 0.33861 0.33496 0.70157 0.0
O223 O 0.3616 0.33746 0.67848 0.0
Co224 Co 0.68846 0.01833 0.68249 0.0
O225 O 0.66891 0.0042 0.70637 0.0
O226 O 0.67355 0.02957 0.68732 0.0
C227 C 0.68471 0.99394 0.65834 0.0
O228 O 0.70683 0.03595 0.6559 0.0
Co229 Co 0.72181 0.01297 0.68124 0.0
O230 O 0.72878 0.02883 0.65024 0.0
C231 C 0.71881 0.0351 0.72354 0.0
C232 C 0.66363 0.01597 0.70296 0.0
C233 C 0.7213 0.03808 0.64437 0.0
O234 O 0.70492 0.03396 0.71198 0.0
O235 O 0.7267 0.02643 0.71558 0.0
O236 O 0.67461 1.00112 0.65444 0.0
O237 O 0.69532 1.00038 0.67844 0.0
Co238 Co 0.98151 0.66904 0.68395 0.0
O239 O 0.99264 0.66011 0.70741 0.0
O240 O 0.96678 0.6423 0.68572 0.0
C241 C 0.00754 0.68884 0.66275 0.0
O242 O 0.96648 0.67296 0.65693 0.0
Co243 Co 0.9916 0.70988 0.68513 0.0
O244 O 0.97906 0.70352 0.65098 0.0
C245 C 0.96658 0.68472 0.72496 0.0
C246 C 0.97905 0.6436 0.70188 0.0
C247 C 0.96796 0.68672 0.64427 0.0
O248 O 0.96679 0.6712 0.7132 0.0
O249 O 0.97647 0.70156 0.71778 0.0
O250 O 0.99847 0.67126 0.65682 0.0
O251 O 1.00154 0.69363 0.68281 0.0
H252 H 0.25648 0.36266 0.168 0.0
N253 N 0.22627 0.33001 0.15255 0.0
H254 H 0.27374 0.3682 0.20809 0.0
H255 H 0.21699 0.30737 0.19259 0.0
H256 H 0.23404 0.31295 0.23324 0.0
H257 H 0.23525 0.3054 0.1383 0.0
H258 H 0.25926 0.30958 0.10814 0.0
H259 H 0.24488 0.35938 0.11916 0.0
H260 H 0.26821 0.36323 0.0878 0.0
H261 H 0.23083 0.36482 0.15479 0.0
H262 H 0.19082 0.30677 0.14402 0.0
H263 H 0.20685 0.3723 0.15132 0.0
H264 H 0.16641 0.3139 0.14223 0.0
H265 H 0.12286 0.38105 0.18698 0.0
H266 H 0.10304 0.37113 0.22535 0.0
H267 H 0.08452 0.31396 0.20554 0.0
H268 H 0.10541 0.32417 0.16846 0.0
H269 H 0.09858 0.32872 0.12657 0.0
H270 H 0.07753 0.32813 0.09447 0.0
H271 H 0.10704 0.38803 0.09546 0.0
H272 H 0.12873 0.3885 0.12685 0.0
H273 H 0.1581 0.37765 0.1755 0.0
H274 H 0.18277 0.37094 0.17461 0.0
H275 H 0.15195 0.32633 0.11922 0.0
N276 N 0.1261 0.35972 0.15133 0.0
H277 H 0.12705 0.33247 0.12145 0.0
C278 C 0.23539 0.33455 0.17736 0.0
C279 C 0.25131 0.35183 0.18226 0.0
C280 C 0.26121 0.35496 0.20517 0.0
C281 C 0.2554 0.3409 0.22362 0.0
C282 C 0.23908 0.32388 0.21911 0.0
C283 C 0.22922 0.32076 0.19613 0.0
C284 C 0.23797 0.33184 0.1309 0.0
C285 C 0.24207 0.31786 0.12684 0.0
C286 C 0.25577 0.32026 0.10945 0.0
C287 C 0.2655 0.33664 0.09514 0.0
C288 C 0.26099 0.35046 0.09852 0.0
C289 C 0.24744 0.34816 0.11633 0.0
C290 C 0.21265 0.33517 0.14926 0.0
C291 C 0.21689 0.35365 0.15148 0.0
C292 C 0.20302 0.35789 0.14986 0.0
C293 C 0.18452 0.34373 0.14661 0.0
C294 C 0.18043 0.32527 0.14423 0.0
C295 C 0.19436 0.32111 0.14541 0.0
C296 C 0.11551 0.3534 0.17486 0.0
C297 C 0.11477 0.36642 0.19131 0.0
C298 C 0.10332 0.3607 0.21304 0.0
C299 C 0.09217 0.34174 0.21859 0.0
C300 C 0.09318 0.32868 0.20224 0.0
C301 C 0.10493 0.33447 0.18077 0.0
C302 C 0.11557 0.35875 0.12889 0.0
C303 C 0.10106 0.34177 0.11924 0.0
C304 C 0.08883 0.34143 0.10102 0.0
C305 C 0.09058 0.35802 0.09236 0.0
C306 C 0.10551 0.37499 0.10124 0.0
C307 C 0.1179 0.3753 0.11924 0.0
C308 C 0.14069 0.35576 0.14855 0.0
C309 C 0.15674 0.36648 0.16309 0.0
C310 C 0.17092 0.36267 0.16236 0.0
C311 C 0.16954 0.3481 0.14672 0.0
C312 C 0.15349 0.33749 0.13183 0.0
C313 C 0.13916 0.34113 0.13291 0.0
H314 H 0.70805 0.78027 0.17809 0.0
N315 N 0.68367 0.78573 0.1546 0.0
H316 H 0.7033 0.76183 0.21669 0.0
H317 H 0.65407 0.77234 0.18742 0.0
H318 H 0.64957 0.75477 0.22663 0.0
H319 H 0.64901 0.75803 0.14213 0.0
H320 H 0.64102 0.7326 0.111 0.0
H321 H 0.70585 0.78345 0.12029 0.0
H322 H 0.69797 0.75824 0.08878 0.0
H323 H 0.71144 0.81981 0.14758 0.0
H324 H 0.65255 0.78796 0.15314 0.0
H325 H 0.71049 0.84797 0.1418 0.0
H326 H 0.65139 0.81622 0.14989 0.0
H327 H 0.70717 0.93637 0.15864 0.0
H328 H 0.70672 0.9518 0.19915 0.0
H329 H 0.65386 0.90432 0.21794 0.0
H330 H 0.65435 0.88911 0.17692 0.0
H331 H 0.64653 0.89563 0.13221 0.0
H332 H 0.6379 0.91203 0.10195 0.0
H333 H 0.69257 0.93937 0.06978 0.0
H334 H 0.70117 0.92328 0.10054 0.0
H335 H 0.70701 0.89821 0.1602 0.0
H336 H 0.7067 0.86934 0.16399 0.0
H337 H 0.6541 0.84018 0.12503 0.0
N338 N 0.68144 0.90345 0.14056 0.0
H339 H 0.65401 0.86919 0.12334 0.0
C340 C 0.6816 0.77796 0.17997 0.0
C341 C 0.69544 0.77512 0.18902 0.0
C342 C 0.69272 0.76463 0.21114 0.0
C343 C 0.6761 0.75693 0.2249 0.0
C344 C 0.6625 0.76043 0.21639 0.0
C345 C 0.66515 0.77072 0.19405 0.0
C346 C 0.67805 0.77264 0.13335 0.0
C347 C 0.65967 0.75842 0.13008 0.0
C348 C 0.65513 0.74391 0.11229 0.0
C349 C 0.6689 0.74346 0.09753 0.0
C350 C 0.68712 0.75818 0.10004 0.0
C351 C 0.69162 0.77264 0.11778 0.0
C352 C 0.68221 0.80191 0.15157 0.0
C353 C 0.69831 0.81901 0.14807 0.0
C354 C 0.69769 0.83513 0.14502 0.0
C355 C 0.68087 0.83465 0.14598 0.0
C356 C 0.66462 0.8173 0.14896 0.0
C357 C 0.66526 0.80106 0.15136 0.0
C358 C 0.68088 0.91169 0.16497 0.0
C359 C 0.69554 0.92933 0.17157 0.0
C360 C 0.69525 0.93807 0.19466 0.0
C361 C 0.68021 0.9293 0.21163 0.0
C362 C 0.66548 0.91152 0.20503 0.0
C363 C 0.66579 0.90277 0.18179 0.0
C364 C 0.67456 0.90837 0.11862 0.0
C365 C 0.65644 0.90466 0.11802 0.0
C366 C 0.65151 0.914 0.10068 0.0
C367 C 0.66463 0.92709 0.08365 0.0
C368 C 0.68224 0.92947 0.08282 0.0
C369 C 0.68713 0.92019 0.10018 0.0
C370 C 0.68069 0.88595 0.1413 0.0
C371 C 0.69541 0.88556 0.15252 0.0
C372 C 0.69526 0.86897 0.15438 0.0
C373 C 0.68052 0.85224 0.14442 0.0
C374 C 0.66565 0.85265 0.13316 0.0
C375 C 0.66564 0.86931 0.13189 0.0
H376 H 0.10679 0.75111 0.16734 0.0
N377 N 0.10448 0.78098 0.15265 0.0
H378 H 0.09394 0.73299 0.2063 0.0
H379 H 0.08871 0.7883 0.19245 0.0
H380 H 0.07629 0.77044 0.2324 0.0
H381 H 0.07271 0.77417 0.13361 0.0
H382 H 0.05272 0.74923 0.10325 0.0
H383 H 0.11471 0.76049 0.12266 0.0
H384 H 0.09449 0.73507 0.09279 0.0
H385 H 0.13426 0.78352 0.17861 0.0
H386 H 0.11916 0.80883 0.1193 0.0
H387 H 0.16584 0.80786 0.17493 0.0
H388 H 0.15136 0.83287 0.11427 0.0
H389 H 0.26659 0.89107 0.17382 0.0
H390 H 0.27953 0.9123 0.21112 0.0
H391 H 0.23222 0.91862 0.21253 0.0
H392 H 0.21999 0.89839 0.17449 0.0
H393 H 0.23515 0.91214 0.1291 0.0
H394 H 0.25555 0.93405 0.09659 0.0
H395 H 0.28028 0.90076 0.084 0.0
H396 H 0.25942 0.87863 0.11597 0.0
H397 H 0.22434 0.84691 0.15354 0.0
H398 H 0.19267 0.82106 0.15146 0.0
H399 H 0.17479 0.85945 0.13411 0.0
N400 N 0.2367 0.88261 0.14716 0.0
H401 H 0.20657 0.88481 0.1343 0.0
C402 C 0.09866 0.77111 0.17686 0.0
C403 C 0.10013 0.75546 0.18128 0.0
C404 C 0.09286 0.74515 0.20372 0.0
C405 C 0.08395 0.75018 0.22231 0.0
C406 C 0.08278 0.76603 0.21818 0.0
C407 C 0.09005 0.77635 0.19559 0.0
C408 C 0.09504 0.76905 0.13063 0.0
C409 C 0.07774 0.76603 0.12419 0.0
C410 C 0.0663 0.75168 0.10711 0.0
C411 C 0.07189 0.73992 0.0963 0.0
C412 C 0.08981 0.74384 0.10105 0.0
C413 C 0.10134 0.75834 0.1181 0.0
C414 C 0.12392 0.79415 0.1492 0.0
C415 C 0.13759 0.79402 0.16434 0.0
C416 C 0.15597 0.80808 0.16206 0.0
C417 C 0.16138 0.82252 0.1443 0.0
C418 C 0.14781 0.82227 0.12856 0.0
C419 C 0.12935 0.80838 0.13118 0.0
C420 C 0.24228 0.89293 0.17137 0.0
C421 C 0.25894 0.8969 0.18241 0.0
C422 C 0.26631 0.90904 0.20368 0.0
C423 C 0.25706 0.91741 0.21455 0.0
C424 C 0.23997 0.91285 0.20415 0.0
C425 C 0.23276 0.90094 0.18256 0.0
C426 C 0.24564 0.89358 0.12469 0.0
C427 C 0.24443 0.90916 0.11862 0.0
C428 C 0.25627 0.9218 0.10026 0.0
C429 C 0.2695 0.91912 0.0877 0.0
C430 C 0.27001 0.90304 0.0929 0.0
C431 C 0.25813 0.89039 0.11117 0.0
C432 C 0.21785 0.8678 0.14454 0.0
C433 C 0.21354 0.84964 0.14903 0.0
C434 C 0.19537 0.8349 0.14808 0.0
C435 C 0.18094 0.83805 0.14303 0.0
C436 C 0.18541 0.85631 0.13782 0.0
C437 C 0.20367 0.87099 0.13826 0.0
H438 H 0.35807 0.24145 0.84526 0.0
N439 N 0.32485 0.22038 0.86894 0.0
H440 H 0.36383 0.25951 0.80623 0.0
H441 H 0.29994 0.21834 0.8362 0.0
H442 H 0.30547 0.23552 0.79589 0.0
H443 H 0.30014 0.22368 0.89642 0.0
H444 H 0.30588 0.24749 0.92942 0.0
H445 H 0.35836 0.24594 0.8896 0.0
H446 H 0.36415 0.26977 0.92196 0.0
H447 H 0.35633 0.2193 0.87562 0.0
H448 H 0.29752 0.18552 0.86954 0.0
H449 H 0.35812 0.19174 0.88298 0.0
H450 H 0.29914 0.15768 0.87533 0.0
H451 H 0.35671 0.10897 0.85632 0.0
H452 H 0.35688 0.09489 0.81433 0.0
H453 H 0.29761 0.06598 0.81263 0.0
H454 H 0.29779 0.08116 0.85366 0.0
H455 H 0.30563 0.06971 0.9023 0.0
H456 H 0.3143 0.05371 0.93239 0.0
H457 H 0.36729 0.10375 0.94281 0.0
H458 H 0.35883 0.1191 0.91036 0.0
H459 H 0.35489 0.13595 0.86527 0.0
H460 H 0.3553 0.16509 0.86289 0.0
H461 H 0.3043 0.14068 0.90574 0.0
N462 N 0.32657 0.10312 0.88323 0.0
H463 H 0.30352 0.11125 0.9064 0.0
C464 C 0.32853 0.22861 0.84372 0.0
C465 C 0.3465 0.23991 0.83455 0.0
C466 C 0.34976 0.25011 0.81196 0.0
C467 C 0.33509 0.24887 0.79775 0.0
C468 C 0.31707 0.2369 0.80645 0.0
C469 C 0.31387 0.22695 0.82927 0.0
C470 C 0.32871 0.23288 0.89063 0.0
C471 C 0.31411 0.23345 0.90241 0.0
C472 C 0.31741 0.2471 0.92105 0.0
C473 C 0.33546 0.26043 0.92828 0.0
C474 C 0.35009 0.25947 0.91712 0.0
C475 C 0.34676 0.24582 0.89847 0.0
C476 C 0.32669 0.20447 0.87239 0.0
C477 C 0.34378 0.20597 0.87586 0.0
C478 C 0.34479 0.19008 0.87983 0.0
C479 C 0.32877 0.17237 0.88005 0.0
C480 C 0.31176 0.17103 0.87606 0.0
C481 C 0.31078 0.1869 0.87243 0.0
C482 C 0.32721 0.09626 0.85775 0.0
C483 C 0.34384 0.09996 0.84649 0.0
C484 C 0.34386 0.09162 0.82276 0.0
C485 C 0.32723 0.07905 0.8103 0.0
C486 C 0.31067 0.07569 0.82155 0.0
C487 C 0.31071 0.08429 0.84497 0.0
C488 C 0.33149 0.09553 0.90424 0.0
C489 C 0.31905 0.07725 0.9113 0.0
C490 C 0.32406 0.06818 0.92868 0.0
C491 C 0.34161 0.0773 0.94011 0.0
C492 C 0.35387 0.09604 0.93391 0.0
C493 C 0.34896 0.10499 0.91573 0.0
C494 C 0.32894 0.12131 0.88562 0.0
C495 C 0.34386 0.1369 0.87426 0.0
C496 C 0.34413 0.15367 0.87309 0.0
C497 C 0.32964 0.15525 0.88367 0.0
C498 C 0.31541 0.1399 0.89663 0.0
C499 C 0.31503 0.12311 0.89739 0.0
H500 H 0.73881 0.11088 0.8537 0.0
N501 N 0.77008 0.12173 0.87848 0.0
H502 H 0.72648 0.08994 0.81598 0.0
H503 H 0.78889 0.10981 0.8478 0.0
H504 H 0.77711 0.08984 0.80945 0.0
H505 H 0.76207 0.08601 0.886 0.0
H506 H 0.74062 0.06484 0.91762 0.0
H507 H 0.75912 0.13116 0.92173 0.0
H508 H 0.73943 0.11044 0.9558 0.0
H509 H 0.78305 0.15731 0.86969 0.0
H510 H 0.79949 0.11924 0.89366 0.0
H511 H 0.8149 0.18285 0.87156 0.0
H512 H 0.83164 0.1445 0.89437 0.0
H513 H 0.89814 0.25152 0.8599 0.0
H514 H 0.91056 0.27032 0.82139 0.0
H515 H 0.93358 0.23728 0.79647 0.0
H516 H 0.92142 0.2186 0.83588 0.0
H517 H 0.93402 0.22957 0.89498 0.0
H518 H 0.95295 0.25362 0.92705 0.0
H519 H 0.91101 0.26786 0.93489 0.0
H520 H 0.89177 0.24306 0.90392 0.0
H521 H 0.87348 0.21782 0.84376 0.0
H522 H 0.84191 0.19364 0.84739 0.0
H523 H 0.85479 0.17248 0.91455 0.0
N524 N 0.90267 0.22294 0.87443 0.0
H525 H 0.88707 0.19667 0.91035 0.0
C526 C 0.76477 0.11209 0.85365 0.0
C527 C 0.74733 0.10655 0.84385 0.0
C528 C 0.74031 0.09455 0.82235 0.0
C529 C 0.75068 0.08791 0.81002 0.0
C530 C 0.76855 0.09424 0.81899 0.0
C531 C 0.77546 0.10601 0.84075 0.0
C532 C 0.76163 0.11014 0.90078 0.0
C533 C 0.7572 0.09154 0.90107 0.0
C534 C 0.74497 0.07938 0.91949 0.0
C535 C 0.73751 0.08566 0.93878 0.0
C536 C 0.7439 0.10479 0.94036 0.0
C537 C 0.75552 0.11679 0.92125 0.0
C538 C 0.78895 0.13644 0.88125 0.0
C539 C 0.79362 0.15452 0.87533 0.0
C540 C 0.81187 0.16905 0.87621 0.0
C541 C 0.826 0.16578 0.88275 0.0
C542 C 0.82119 0.14764 0.88946 0.0
C543 C 0.80283 0.13312 0.88887 0.0
C544 C 0.90875 0.23349 0.85077 0.0
C545 C 0.90588 0.24827 0.84633 0.0
C546 C 0.91285 0.25893 0.82413 0.0
C547 C 0.92283 0.25509 0.80579 0.0
C548 C 0.92589 0.24048 0.81029 0.0
C549 C 0.91885 0.22975 0.8326 0.0
C550 C 0.9116 0.2346 0.8969 0.0
C551 C 0.92871 0.2375 0.90427 0.0
C552 C 0.93956 0.25137 0.92236 0.0
C553 C 0.93358 0.26279 0.93335 0.0
C554 C 0.91596 0.25919 0.92707 0.0
C555 C 0.90498 0.2451 0.90918 0.0
C556 C 0.88312 0.20962 0.8772 0.0
C557 C 0.86986 0.2084 0.85967 0.0
C558 C 0.85147 0.19436 0.86176 0.0
C559 C 0.84562 0.18108 0.88139 0.0
C560 C 0.85875 0.18233 0.89902 0.0
C561 C 0.87723 0.19632 0.89682 0.0
H562 H 0.7723 0.69814 0.85361 0.0
N563 N 0.77813 0.67409 0.87798 0.0
H564 H 0.75403 0.69253 0.81429 0.0
H565 H 0.7653 0.64375 0.84502 0.0
H566 H 0.74778 0.63842 0.8055 0.0
H567 H 0.74734 0.64039 0.88755 0.0
H568 H 0.7221 0.63523 0.91627 0.0
H569 H 0.77896 0.69721 0.91439 0.0
H570 H 0.75384 0.69204 0.9435 0.0
H571 H 0.81371 0.69903 0.87911 0.0
H572 H 0.77531 0.64041 0.8853 0.0
H573 H 0.83922 0.69373 0.88307 0.0
H574 H 0.8005 0.63466 0.88692 0.0
H575 H 0.91145 0.67967 0.87198 0.0
H576 H 0.93247 0.68944 0.83516 0.0
H577 H 0.89535 0.6383 0.79454 0.0
H578 H 0.87459 0.62828 0.83205 0.0
H579 H 0.88519 0.61908 0.88973 0.0
H580 H 0.90593 0.61996 0.92311 0.0
H581 H 0.91601 0.67342 0.94964 0.0
H582 H 0.89558 0.67263 0.91569 0.0
H583 H 0.88012 0.67716 0.85812 0.0
H584 H 0.85564 0.68361 0.86048 0.0
H585 H 0.82434 0.63572 0.90879 0.0
N586 N 0.87951 0.64618 0.87721 0.0
H587 H 0.84854 0.62842 0.9045 0.0
C588 C 0.77029 0.67149 0.8524 0.0
C589 C 0.76726 0.68521 0.84289 0.0
C590 C 0.7568 0.68198 0.82049 0.0
C591 C 0.74915 0.66488 0.80713 0.0
C592 C 0.75307 0.65154 0.81579 0.0
C593 C 0.76337 0.65471 0.83832 0.0
C594 C 0.76506 0.6693 0.89877 0.0
C595 C 0.74913 0.65159 0.90025 0.0
C596 C 0.73467 0.64865 0.91662 0.0
C597 C 0.7359 0.66335 0.93165 0.0
C598 C 0.75241 0.68057 0.9317 0.0
C599 C 0.76682 0.6835 0.91534 0.0
C600 C 0.79263 0.67019 0.88137 0.0
C601 C 0.81082 0.68498 0.88107 0.0
C602 C 0.82539 0.68184 0.88307 0.0
C603 C 0.82213 0.66368 0.88489 0.0
C604 C 0.80376 0.64887 0.88584 0.0
C605 C 0.78919 0.6521 0.88448 0.0
C606 C 0.89141 0.65312 0.8548 0.0
C607 C 0.90778 0.67055 0.85518 0.0
C608 C 0.91972 0.67623 0.83397 0.0
C609 C 0.9155 0.6647 0.81186 0.0
C610 C 0.899 0.64745 0.81136 0.0
C611 C 0.88708 0.64175 0.83263 0.0
C612 C 0.88891 0.64576 0.90013 0.0
C613 C 0.89157 0.63078 0.90315 0.0
C614 C 0.90339 0.6313 0.92223 0.0
C615 C 0.91284 0.64689 0.9387 0.0
C616 C 0.90921 0.66139 0.93685 0.0
C617 C 0.89742 0.66089 0.91763 0.0
C618 C 0.86625 0.652 0.88092 0.0
C619 C 0.86811 0.66793 0.86929 0.0
C620 C 0.85398 0.67179 0.87091 0.0
C621 C 0.83773 0.66017 0.8847 0.0
C622 C 0.83632 0.64479 0.89738 0.0
C623 C 0.85029 0.64069 0.89525 0.0
H624 H 0.76096 0.65117 0.49548 0.0
N625 N 0.78978 0.68582 0.48456 0.0
H626 H 0.74074 0.64282 0.53322 0.0
H627 H 0.7943 0.70676 0.52622 0.0
H628 H 0.77441 0.69835 0.56452 0.0
H629 H 0.78992 0.71575 0.46906 0.0
H630 H 0.76949 0.71711 0.4372 0.0
H631 H 0.76739 0.65783 0.4505 0.0
H632 H 0.74717 0.65913 0.41848 0.0
H633 H 0.78629 0.652 0.47414 0.0
H634 H 0.82543 0.70991 0.48822 0.0
H635 H 0.81114 0.64569 0.47036 0.0
H636 H 0.85044 0.70365 0.48612 0.0
H637 H 0.89912 0.63663 0.50819 0.0
H638 H 0.91677 0.64323 0.54836 0.0
H639 H 0.92097 0.69657 0.55467 0.0
H640 H 0.90391 0.69013 0.51406 0.0
H641 H 0.92249 0.69339 0.47303 0.0
H642 H 0.94776 0.6991 0.44401 0.0
H643 H 0.91698 0.64218 0.41706 0.0
H644 H 0.89173 0.63648 0.44632 0.0
H645 H 0.8575 0.63726 0.49703 0.0
H646 H 0.83232 0.64324 0.49588 0.0
H647 H 0.86833 0.69606 0.46007 0.0
N648 N 0.89202 0.65938 0.4827 0.0
H649 H 0.89354 0.69036 0.46265 0.0
C650 C 0.7791 0.67969 0.508 0.0
C651 C 0.76413 0.66151 0.51052 0.0
C652 C 0.75257 0.65673 0.53214 0.0
C653 C 0.75579 0.67004 0.55155 0.0
C654 C 0.77131 0.68794 0.54954 0.0
C655 C 0.78278 0.69271 0.52789 0.0
C656 C 0.7803 0.68679 0.46218 0.0
C657 C 0.781 0.7035 0.4575 0.0
C658 C 0.76935 0.70425 0.43926 0.0
C659 C 0.75676 0.68823 0.42528 0.0
C660 C 0.7567 0.67168 0.42904 0.0
C661 C 0.76837 0.67095 0.44731 0.0
C662 C 0.80404 0.68156 0.48106 0.0
C663 C 0.80024 0.66343 0.47618 0.0
C664 C 0.81454 0.65979 0.4744 0.0
C665 C 0.83293 0.67413 0.47797 0.0
C666 C 0.83659 0.69227 0.48272 0.0
C667 C 0.8223 0.69589 0.48412 0.0
C668 C 0.90016 0.6628 0.50815 0.0
C669 C 0.90365 0.64962 0.51849 0.0
C670 C 0.91371 0.65341 0.54139 0.0
C671 C 0.9205 0.67053 0.55444 0.0
C672 C 0.91629 0.68343 0.5447 0.0
C673 C 0.90634 0.67968 0.52166 0.0
C674 C 0.90515 0.66439 0.46188 0.0
C675 C 0.92089 0.68227 0.46034 0.0
C676 C 0.93536 0.68554 0.44377 0.0
C677 C 0.93439 0.671 0.42867 0.0
C678 C 0.91814 0.65356 0.42881 0.0
C679 C 0.90367 0.65031 0.4453 0.0
C680 C 0.87739 0.66319 0.47984 0.0
C681 C 0.85988 0.65007 0.48881 0.0
C682 C 0.84546 0.65349 0.48793 0.0
C683 C 0.84816 0.67015 0.47779 0.0
C684 C 0.86572 0.6832 0.46838 0.0
C685 C 0.88022 0.67985 0.4696 0.0
H686 H 0.3735 0.11513 0.507 0.0
N687 N 0.34785 0.11701 0.48063 0.0
H688 H 0.36921 0.09725 0.54612 0.0
H689 H 0.31708 0.10081 0.51102 0.0
H690 H 0.31295 0.0839 0.55073 0.0
H691 H 0.31378 0.08978 0.46497 0.0
H692 H 0.30718 0.06362 0.43573 0.0
H693 H 0.37156 0.11436 0.44989 0.0
H694 H 0.36509 0.08848 0.42041 0.0
H695 H 0.37552 0.15054 0.47009 0.0
H696 H 0.317 0.11969 0.48097 0.0
H697 H 0.37478 0.17879 0.4641 0.0
H698 H 0.31617 0.14813 0.47765 0.0
H699 H 0.37396 0.2673 0.48714 0.0
H700 H 0.37483 0.28311 0.52796 0.0
H701 H 0.32101 0.23741 0.54744 0.0
H702 H 0.32024 0.22179 0.50616 0.0
H703 H 0.31184 0.22787 0.46181 0.0
H704 H 0.3036 0.24623 0.43469 0.0
H705 H 0.3582 0.27449 0.40246 0.0
H706 H 0.36639 0.25631 0.42982 0.0
H707 H 0.37302 0.22982 0.48478 0.0
H708 H 0.37251 0.20077 0.48715 0.0
H709 H 0.31814 0.17193 0.45329 0.0
N710 N 0.34669 0.23525 0.46897 0.0
H711 H 0.31838 0.20118 0.45306 0.0
C712 C 0.34577 0.10961 0.50624 0.0
C713 C 0.3604 0.10873 0.5169 0.0
C714 C 0.35793 0.09856 0.5393 0.0
C715 C 0.34075 0.08922 0.55167 0.0
C716 C 0.32633 0.09085 0.54158 0.0
C717 C 0.32875 0.10079 0.51898 0.0
C718 C 0.3432 0.10391 0.45959 0.0
C719 C 0.32497 0.0898 0.45479 0.0
C720 C 0.32123 0.07488 0.43816 0.0
C721 C 0.33567 0.07392 0.4263 0.0
C722 C 0.35375 0.08876 0.42971 0.0
C723 C 0.35745 0.10359 0.44627 0.0
C724 C 0.34649 0.13316 0.47679 0.0
C725 C 0.36254 0.14998 0.47162 0.0
C726 C 0.36205 0.16617 0.46848 0.0
C727 C 0.34546 0.16605 0.47108 0.0
C728 C 0.32923 0.14893 0.47549 0.0
C729 C 0.32971 0.1326 0.47794 0.0
C730 C 0.34711 0.24347 0.49383 0.0
C731 C 0.36244 0.2607 0.50035 0.0
C732 C 0.36289 0.26966 0.5236 0.0
C733 C 0.34793 0.26154 0.54077 0.0
C734 C 0.33259 0.24411 0.53435 0.0
C735 C 0.33218 0.23512 0.51098 0.0
C736 C 0.3398 0.24088 0.44786 0.0
C737 C 0.32177 0.23746 0.44812 0.0
C738 C 0.31709 0.24795 0.43267 0.0
C739 C 0.33038 0.26191 0.41686 0.0
C740 C 0.34777 0.26388 0.41466 0.0
C741 C 0.35242 0.25344 0.43008 0.0
C742 C 0.34588 0.21773 0.46856 0.0
C743 C 0.36101 0.2172 0.47786 0.0
C744 C 0.36072 0.20051 0.4789 0.0
C745 C 0.34539 0.18381 0.47001 0.0
C746 C 0.33015 0.18438 0.46056 0.0
C747 C 0.33031 0.20115 0.46012 0.0
H748 H 0.77397 0.0875 0.5002 0.0
N749 N 0.76958 0.11604 0.48486 0.0
H750 H 0.76308 0.07047 0.54033 0.0
H751 H 0.75359 0.12292 0.52456 0.0
H752 H 0.74266 0.10579 0.56535 0.0
H753 H 0.73801 0.11014 0.46635 0.0
H754 H 0.71736 0.08558 0.43591 0.0
H755 H 0.77834 0.09419 0.4546 0.0
H756 H 0.75766 0.06941 0.42521 0.0
H757 H 0.79993 0.11225 0.48346 0.0
H758 H 0.78251 0.15204 0.47992 0.0
H759 H 0.83159 0.13684 0.47977 0.0
H760 H 0.81456 0.17723 0.47841 0.0
H761 H 0.9287 0.22309 0.51621 0.0
H762 H 0.93945 0.24255 0.55558 0.0
H763 H 0.89734 0.25619 0.54571 0.0
H764 H 0.88601 0.23576 0.50751 0.0
H765 H 0.90584 0.25117 0.47066 0.0
H766 H 0.92715 0.27213 0.43894 0.0
H767 H 0.93885 0.23001 0.41344 0.0
H768 H 0.91883 0.20969 0.44772 0.0
H769 H 0.88659 0.18467 0.50549 0.0
H770 H 0.85453 0.15998 0.50436 0.0
H771 H 0.84213 0.19358 0.45585 0.0
N772 N 0.90186 0.21786 0.48463 0.0
H773 H 0.87416 0.21872 0.45874 0.0
C774 C 0.76483 0.10676 0.50945 0.0
C775 C 0.76754 0.09195 0.51437 0.0
C776 C 0.76128 0.08216 0.53742 0.0
C777 C 0.75222 0.08696 0.5561 0.0
C778 C 0.74963 0.10184 0.55129 0.0
C779 C 0.75595 0.11168 0.52817 0.0
C780 C 0.75971 0.10409 0.46304 0.0
C781 C 0.74256 0.1016 0.45687 0.0
C782 C 0.73069 0.0874 0.43981 0.0
C783 C 0.73571 0.07525 0.42875 0.0
C784 C 0.75337 0.0785 0.43355 0.0
C785 C 0.76527 0.09277 0.4505 0.0
C786 C 0.78862 0.13018 0.48145 0.0
C787 C 0.8028 0.12624 0.48159 0.0
C788 C 0.82113 0.14053 0.47998 0.0
C789 C 0.82587 0.15922 0.47905 0.0
C790 C 0.8116 0.16308 0.47867 0.0
C791 C 0.79323 0.1487 0.4797 0.0
C792 C 0.90665 0.22802 0.50896 0.0
C793 C 0.9216 0.23 0.52295 0.0
C794 C 0.92779 0.24124 0.54526 0.0
C795 C 0.91925 0.25093 0.55386 0.0
C796 C 0.90398 0.24861 0.54006 0.0
C797 C 0.89758 0.23706 0.51804 0.0
C798 C 0.91107 0.2289 0.46216 0.0
C799 C 0.91288 0.2463 0.45833 0.0
C800 C 0.92493 0.25828 0.4396 0.0
C801 C 0.9348 0.25285 0.42335 0.0
C802 C 0.93177 0.23483 0.42586 0.0
C803 C 0.92017 0.22309 0.44523 0.0
C804 C 0.88286 0.2034 0.48199 0.0
C805 C 0.87692 0.18663 0.49454 0.0
C806 C 0.85855 0.17245 0.49362 0.0
C807 C 0.84557 0.17453 0.47968 0.0
C808 C 0.85159 0.19144 0.46698 0.0
C809 C 0.87001 0.20581 0.46834 0.0
H810 H 0.02374 0.58003 0.18626 0.0
N811 N 0.99131 0.55151 0.20509 0.0
H812 H 0.02773 0.59783 0.14757 0.0
H813 H 0.96621 0.54455 0.16892 0.0
H814 H 0.97027 0.56223 0.12937 0.0
H815 H 0.96748 0.55873 0.22777 0.0
H816 H 0.974 0.58327 0.25976 0.0
H817 H 0.02387 0.57292 0.23074 0.0
H818 H 0.03078 0.59812 0.26166 0.0
H819 H 0.01794 0.54823 0.1778 0.0
H820 H 0.9778 0.52413 0.2391 0.0
H821 H 0.02549 0.5245 0.18275 0.0
H822 H 0.98615 0.50067 0.24517 0.0
H823 H 0.04697 0.45084 0.18084 0.0
H824 H 0.03993 0.43312 0.13993 0.0
H825 H 0.98254 0.41459 0.15025 0.0
H826 H 0.98983 0.43318 0.18975 0.0
H827 H 0.99283 0.41975 0.22747 0.0
H828 H 0.99219 0.39743 0.257 0.0
H829 H 0.0478 0.4372 0.28067 0.0
H830 H 0.04891 0.45889 0.24861 0.0
H831 H 0.04672 0.48847 0.20723 0.0
H832 H 0.04005 0.51344 0.20804 0.0
H833 H 0.98349 0.47374 0.22696 0.0
N834 N 0.02351 0.45258 0.21353 0.0
H835 H 0.99079 0.44921 0.22792 0.0
C836 C 0.99461 0.56073 0.18047 0.0
C837 C 0.01198 0.57584 0.17394 0.0
C838 C 0.0143 0.58598 0.15164 0.0
C839 C 0.99935 0.58129 0.13527 0.0
C840 C 0.98203 0.56612 0.14162 0.0
C841 C 0.97973 0.55592 0.164 0.0
C842 C 0.99512 0.56405 0.22683 0.0
C843 C 0.9812 0.56699 0.23567 0.0
C844 C 0.98501 0.58111 0.2537 0.0
C845 C 0.00293 0.59272 0.26315 0.0
C846 C 0.01678 0.58927 0.25509 0.0
C847 C 0.01288 0.57495 0.23725 0.0
C848 C 0.99712 0.53816 0.20814 0.0
C849 C 0.01084 0.53809 0.19267 0.0
C850 C 0.01534 0.52441 0.19569 0.0
C851 C 0.00654 0.51056 0.21448 0.0
C852 C 0.99308 0.51086 0.23021 0.0
C853 C 0.98838 0.52439 0.22692 0.0
C854 C 0.01903 0.44336 0.18846 0.0
C855 C 0.03296 0.44325 0.17388 0.0
C856 C 0.02887 0.43301 0.15067 0.0
C857 C 0.01067 0.42248 0.1417 0.0
C858 C 0.99677 0.4229 0.15613 0.0
C859 C 1.00092 0.43342 0.17905 0.0
C860 C 0.02114 0.44097 0.2353 0.0
C861 C 0.00488 0.42384 0.23903 0.0
C862 C 0.00443 0.41107 0.25647 0.0
C863 C 0.01994 0.4154 0.27147 0.0
C864 C 0.03568 0.43319 0.26917 0.0
C865 C 0.03629 0.44573 0.25112 0.0
C866 C 0.01927 0.467 0.21714 0.0
C867 C 0.03298 0.48529 0.212 0.0
C868 C 0.02903 0.49949 0.21214 0.0
C869 C 0.0111 0.49567 0.217 0.0
C870 C 0.99749 0.47735 0.22322 0.0
C871 C 1.00157 0.46318 0.22351 0.0
H872 H 0.60367 0.56465 0.18327 0.0
N873 N 0.5729 0.55495 0.20904 0.0
H874 H 0.61486 0.58318 0.14397 0.0
H875 H 0.55329 0.56505 0.17849 0.0
H876 H 0.56402 0.58284 0.13867 0.0
H877 H 0.56957 0.58525 0.21918 0.0
H878 H 0.58758 0.61021 0.2504 0.0
H879 H 0.5953 0.55564 0.24526 0.0
H880 H 0.6135 0.58076 0.27667 0.0
H881 H 0.55968 0.51977 0.19516 0.0
H882 H 0.54339 0.55627 0.22943 0.0
H883 H 0.5279 0.49399 0.19703 0.0
H884 H 0.512 0.53062 0.23243 0.0
H885 H 0.44715 0.42243 0.19887 0.0
H886 H 0.43327 0.40063 0.16234 0.0
H887 H 0.40976 0.43213 0.13497 0.0
H888 H 0.42319 0.45352 0.17213 0.0
H889 H 0.41444 0.45442 0.23009 0.0
H890 H 0.39219 0.43536 0.26334 0.0
H891 H 0.42288 0.4084 0.277 0.0
H892 H 0.44491 0.42735 0.2437 0.0
H893 H 0.47149 0.44785 0.22233 0.0
H894 H 0.50344 0.4731 0.22431 0.0
H895 H 0.48663 0.51205 0.20528 0.0
N896 N 0.4417 0.451 0.21135 0.0
H897 H 0.45466 0.48673 0.20452 0.0
C898 C 0.57764 0.56328 0.18375 0.0
C899 C 0.59482 0.56826 0.17327 0.0
C900 C 0.60114 0.57876 0.15076 0.0
C901 C 0.59026 0.58435 0.13808 0.0
C902 C 0.57274 0.5788 0.14807 0.0
C903 C 0.56652 0.56846 0.17074 0.0
C904 C 0.58096 0.56838 0.23004 0.0
C905 C 0.57869 0.58382 0.23212 0.0
C906 C 0.589 0.59813 0.25 0.0
C907 C 0.60187 0.59736 0.26599 0.0
C908 C 0.60366 0.58167 0.26455 0.0
C909 C 0.59323 0.56729 0.24679 0.0
C910 C 0.55412 0.53998 0.2122 0.0
C911 C 0.54931 0.52215 0.20345 0.0
C912 C 0.53114 0.50741 0.2047 0.0
C913 C 0.51728 0.51016 0.21488 0.0
C914 C 0.52219 0.528 0.22409 0.0
C915 C 0.54034 0.54276 0.22261 0.0
C916 C 0.43604 0.43953 0.18828 0.0
C917 C 0.43914 0.42474 0.18495 0.0
C918 C 0.43121 0.41229 0.16403 0.0
C919 C 0.42008 0.41444 0.14615 0.0
C920 C 0.41782 0.4298 0.14886 0.0
C921 C 0.42565 0.44215 0.16982 0.0
C922 C 0.43134 0.44239 0.23442 0.0
C923 C 0.41664 0.44479 0.24085 0.0
C924 C 0.40398 0.43393 0.25985 0.0
C925 C 0.40583 0.42042 0.27277 0.0
C926 C 0.42111 0.41868 0.26726 0.0
C927 C 0.43379 0.4296 0.24829 0.0
C928 C 0.46065 0.46548 0.21357 0.0
C929 C 0.47463 0.46182 0.219 0.0
C930 C 0.49298 0.47632 0.21984 0.0
C931 C 0.49772 0.49471 0.21502 0.0
C932 C 0.48358 0.4982 0.20964 0.0
C933 C 0.46529 0.48374 0.20902 0.0
H934 H 0.5534 0.95057 0.17806 0.0
N935 N 0.54356 0.97012 0.20776 0.0
H936 H 0.57433 0.96135 0.14091 0.0
H937 H 0.55755 0.00384 0.18367 0.0
H938 H 0.57737 0.01419 0.14587 0.0
H939 H 0.57212 0.00217 0.22841 0.0
H940 H 0.59396 0.00437 0.26065 0.0
H941 H 0.54135 0.94271 0.23535 0.0
H942 H 0.56384 0.94467 0.26653 0.0
H943 H 0.50825 0.9461 0.1992 0.0
H944 H 0.5454 0.00216 0.22549 0.0
H945 H 0.48265 0.95143 0.20266 0.0
H946 H 0.52045 0.00816 0.22702 0.0
H947 H 0.41343 0.96982 0.18982 0.0
H948 H 0.39683 0.96679 0.14983 0.0
H949 H 0.43851 0.02247 0.12911 0.0
H950 H 0.45478 0.0256 0.16978 0.0
H951 H 0.43615 0.0255 0.22557 0.0
H952 H 0.41281 0.0207 0.25739 0.0
H953 H 0.40188 0.96529 0.27047 0.0
H954 H 0.42465 0.96992 0.23717 0.0
H955 H 0.44583 0.97329 0.17949 0.0
H956 H 0.4694 0.96552 0.18211 0.0
H957 H 0.49441 0.0044 0.24627 0.0
N958 N 0.44431 1.00094 0.20759 0.0
H959 H 0.4714 0.01325 0.24208 0.0
C960 C 0.55371 0.97621 0.18373 0.0
C961 C 0.55846 0.96441 0.17092 0.0
C962 C 0.57041 0.9706 0.14971 0.0
C963 C 0.57781 0.98877 0.14071 0.0
C964 C 0.57239 1.00032 0.1528 0.0
C965 C 0.56071 0.99424 0.17431 0.0
C966 C 0.55478 0.97223 0.22987 0.0
C967 C 0.56968 0.98961 0.23749 0.0
C968 C 0.58237 0.99083 0.25565 0.0
C969 C 0.58066 0.9747 0.26625 0.0
C970 C 0.56537 0.9574 0.2593 0.0
C971 C 0.55253 0.95623 0.24141 0.0
C972 C 0.5288 0.97369 0.2117 0.0
C973 C 0.51088 0.95959 0.20563 0.0
C974 C 0.49629 0.96278 0.20736 0.0
C975 C 0.49934 0.98036 0.21478 0.0
C976 C 0.51733 0.99435 0.22157 0.0
C977 C 0.53182 0.99099 0.22039 0.0
C978 C 0.43533 0.99803 0.18282 0.0
C979 C 0.41902 0.98136 0.17667 0.0
C980 C 0.40959 0.97963 0.15376 0.0
C981 C 0.41623 0.99449 0.13651 0.0
C982 C 0.43284 0.01093 0.1423 0.0
C983 C 0.44225 0.01267 0.1653 0.0
C984 C 0.43235 0.99826 0.22927 0.0
C985 C 0.42898 0.01247 0.23571 0.0
C986 C 0.41571 0.00971 0.25409 0.0
C987 C 0.40572 0.99273 0.26701 0.0
C988 C 0.40938 0.97855 0.26096 0.0
C989 C 0.4225 0.98123 0.24213 0.0
C990 C 0.45682 0.99418 0.21047 0.0
C991 C 0.45627 0.98025 0.1942 0.0
C992 C 0.46983 0.97559 0.19591 0.0
C993 C 0.48409 0.98437 0.2143 0.0
C994 C 0.48404 0.99763 0.23136 0.0
C995 C 0.47073 0.00258 0.22924 0.0
H996 H 0.42998 0.99156 0.82458 0.0
N997 N 0.45839 0.02657 0.81396 0.0
H998 H 0.40955 0.98259 0.86199 0.0
H999 H 0.46159 0.04739 0.85525 0.0
H1000 H 0.44114 0.03842 0.89305 0.0
H1001 H 0.45678 0.05561 0.79859 0.0
H1002 H 0.43476 0.05541 0.76796 0.0
H1003 H 0.43703 0.99824 0.77937 0.0
H1004 H 0.41533 0.99807 0.74882 0.0
H1005 H 0.45457 0.99238 0.80428 0.0
H1006 H 0.49415 0.05025 0.81798 0.0
H1007 H 0.47898 0.98562 0.80156 0.0
H1008 H 0.51882 0.04343 0.81723 0.0
H1009 H 0.56546 0.97183 0.8336 0.0
H1010 H 0.58282 0.97575 0.87322 0.0
H1011 H 0.5862 0.02809 0.88872 0.0
H1012 H 0.56971 0.0245 0.84839 0.0
H1013 H 0.59028 0.02903 0.80674 0.0
H1014 H 0.61483 0.03459 0.77633 0.0
H1015 H 0.57974 0.98067 0.74109 0.0
H1016 H 0.55538 0.97496 0.77209 0.0
H1017 H 0.52345 0.97508 0.82795 0.0
H1018 H 0.49924 0.98246 0.82738 0.0
H1019 H 0.53698 0.03537 0.79303 0.0
N1020 N 0.55804 0.99595 0.81293 0.0
H1021 H 0.56131 0.02831 0.79531 0.0
C1022 C 0.44745 0.02021 0.83718 0.0
C1023 C 0.43279 0.00183 0.83956 0.0
C1024 C 0.42104 0.99671 0.86095 0.0
C1025 C 0.42361 0.00988 0.88021 0.0
C1026 C 0.43863 0.02808 0.87823 0.0
C1027 C 0.45041 0.03317 0.85687 0.0
C1028 C 0.44865 0.02702 0.79148 0.0
C1029 C 0.44816 0.04318 0.78717 0.0
C1030 C 0.43556 0.04303 0.76976 0.0
C1031 C 0.42313 0.02662 0.75644 0.0
C1032 C 0.42455 0.01082 0.75925 0.0
C1033 C 0.43714 0.01097 0.77666 0.0
C1034 C 0.4725 0.02201 0.8108 0.0
C1035 C 0.46851 0.00375 0.80641 0.0
C1036 C 0.48261 0.99982 0.80535 0.0
C1037 C 0.50103 0.01392 0.80933 0.0
C1038 C 0.50494 0.0322 0.81358 0.0
C1039 C 0.49083 0.03615 0.81417 0.0
C1040 C 0.56608 0.99769 0.83816 0.0
C1041 C 0.56969 0.98398 0.84585 0.0
C1042 C 0.57951 0.9862 0.86857 0.0
C1043 C 0.58574 0.00215 0.88433 0.0
C1044 C 0.58166 0.01568 0.87696 0.0
C1045 C 0.57206 0.01356 0.85402 0.0
C1046 C 0.57104 0.00139 0.79187 0.0
C1047 C 0.5877 0.01856 0.79211 0.0
C1048 C 0.60172 0.02177 0.77468 0.0
C1049 C 0.5993 0.0079 0.75676 0.0
C1050 C 0.58208 0.99144 0.75509 0.0
C1051 C 0.56813 0.98821 0.77259 0.0
C1052 C 0.54414 1.00093 0.81146 0.0
C1053 C 0.52645 0.98826 0.8203 0.0
C1054 C 0.51257 0.99248 0.8197 0.0
C1055 C 0.51596 0.00948 0.80987 0.0
C1056 C 0.53379 0.02223 0.80101 0.0
C1057 C 0.54778 0.0181 0.80204 0.0
H1058 H 0.95281 0.55693 0.84234 0.0
N1059 N 0.97378 0.54713 0.81667 0.0
H1060 H 0.96108 0.57764 0.88021 0.0
H1061 H 0.00574 0.56168 0.84489 0.0
H1062 H 0.01369 0.5815 0.88353 0.0
H1063 H 0.00395 0.58051 0.80398 0.0
H1064 H 0.00452 0.60213 0.77283 0.0
H1065 H 0.94957 0.53907 0.77879 0.0
H1066 H 0.95065 0.56013 0.74567 0.0
H1067 H 0.95369 0.51235 0.83195 0.0
H1068 H 0.00551 0.55071 0.7967 0.0
H1069 H 0.96209 0.48855 0.83198 0.0
H1070 H 0.01417 0.52708 0.7969 0.0
H1071 H 0.97933 0.42668 0.84378 0.0
H1072 H 0.97511 0.40767 0.88146 0.0
H1073 H 0.03397 0.43488 0.88995 0.0
H1074 H 0.03793 0.4547 0.85335 0.0
H1075 H 0.03577 0.44491 0.80001 0.0
H1076 H 0.02939 0.42074 0.76776 0.0
H1077 H 0.97325 0.40768 0.76265 0.0
H1078 H 0.97959 0.43132 0.79614 0.0
H1079 H 0.99359 0.46135 0.85939 0.0
H1080 H 0.9841 0.4837 0.85546 0.0
H1081 H 0.00685 0.4968 0.77825 0.0
N1082 N 0.01206 0.45243 0.82229 0.0
H1083 H 0.01653 0.47418 0.782 0.0
C1084 C 0.9784 0.55741 0.84097 0.0
C1085 C 0.96599 0.562 0.85155 0.0
C1086 C 0.97073 0.57378 0.87324 0.0
C1087 C 0.98795 0.581 0.88515 0.0
C1088 C 1.00032 0.57618 0.87479 0.0
C1089 C 0.99567 0.56461 0.85283 0.0
C1090 C 0.97644 0.55828 0.79422 0.0
C1091 C 0.9923 0.57586 0.79123 0.0
C1092 C 0.99264 0.58823 0.77321 0.0
C1093 C 0.97734 0.58315 0.75728 0.0
C1094 C 0.96231 0.56485 0.75844 0.0
C1095 C 0.9618 0.55265 0.77699 0.0
C1096 C 0.97886 0.53322 0.81428 0.0
C1097 C 0.96682 0.51554 0.82401 0.0
C1098 C 0.97171 0.50204 0.82418 0.0
C1099 C 0.98886 0.50594 0.81459 0.0
C1100 C 1.00079 0.52356 0.8042 0.0
C1101 C 0.99587 0.53711 0.8041 0.0
C1102 C 0.009 0.44248 0.84617 0.0
C1103 C 0.99129 0.42886 0.8542 0.0
C1104 C 0.98893 0.41788 0.8756 0.0
C1105 C 0.0042 0.41983 0.88899 0.0
C1106 C 0.02188 0.43339 0.88077 0.0
C1107 C 0.0242 0.44468 0.85976 0.0
C1108 C 0.0083 0.4401 0.80027 0.0
C1109 C 0.0222 0.43709 0.79151 0.0
C1110 C 0.01853 0.42333 0.77292 0.0
C1111 C 1.00087 0.41246 0.76221 0.0
C1112 C 0.98699 0.41581 0.7705 0.0
C1113 C 0.99063 0.42942 0.78948 0.0
C1114 C 0.00515 0.46505 0.82038 0.0
C1115 C 0.99621 0.4684 0.84115 0.0
C1116 C 0.99078 0.48144 0.83902 0.0
C1117 C 0.99444 0.49186 0.8164 0.0
C1118 C 0.00376 0.48897 0.79593 0.0
C1119 C 0.00912 0.47585 0.79799 0.0
H1120 H 0.44807 0.42432 0.84326 0.0
N1121 N 0.43583 0.44585 0.82359 0.0
H1122 H 0.43765 0.4067 0.88338 0.0
H1123 H 0.41358 0.44694 0.85897 0.0
H1124 H 0.4019 0.42829 0.89795 0.0
H1125 H 0.40145 0.43383 0.81036 0.0
H1126 H 0.38273 0.40973 0.77862 0.0
H1127 H 0.44812 0.42924 0.7894 0.0
H1128 H 0.42995 0.40626 0.75581 0.0
H1129 H 0.46979 0.44958 0.81965 0.0
H1130 H 0.44137 0.47964 0.81903 0.0
H1131 H 0.49895 0.47837 0.81293 0.0
H1132 H 0.47047 0.50866 0.81357 0.0
H1133 H 0.5819 0.5689 0.83256 0.0
H1134 H 0.59727 0.58601 0.87226 0.0
H1135 H 0.55499 0.59939 0.88424 0.0
H1136 H 0.54041 0.58329 0.84348 0.0
H1137 H 0.56176 0.59861 0.78415 0.0
H1138 H 0.5868 0.61464 0.75313 0.0
H1139 H 0.59768 0.56989 0.7564 0.0
H1140 H 0.57256 0.55402 0.78792 0.0
H1141 H 0.54907 0.53698 0.83171 0.0
H1142 H 0.52095 0.50652 0.83368 0.0
H1143 H 0.49392 0.526 0.78386 0.0
N1144 N 0.55257 0.56796 0.80946 0.0
H1145 H 0.52178 0.55662 0.78336 0.0
C1146 C 0.4319 0.43729 0.84855 0.0
C1147 C 0.4386 0.42584 0.85569 0.0
C1148 C 0.43237 0.41554 0.87844 0.0
C1149 C 0.41902 0.41616 0.89412 0.0
C1150 C 0.4126 0.42788 0.88697 0.0
C1151 C 0.41915 0.43847 0.86458 0.0
C1152 C 0.42623 0.43361 0.80201 0.0
C1153 C 0.40781 0.42806 0.79821 0.0
C1154 C 0.39718 0.41438 0.7798 0.0
C1155 C 0.40489 0.4063 0.76407 0.0
C1156 C 0.42354 0.41218 0.76754 0.0
C1157 C 0.43406 0.42553 0.78657 0.0
C1158 C 0.45333 0.46246 0.81953 0.0
C1159 C 0.46979 0.46236 0.81802 0.0
C1160 C 0.48654 0.47893 0.81439 0.0
C1161 C 0.48718 0.49594 0.81248 0.0
C1162 C 0.4706 0.49587 0.81426 0.0
C1163 C 0.45392 0.47932 0.81761 0.0
C1164 C 0.56024 0.57528 0.83475 0.0
C1165 C 0.57595 0.57553 0.84369 0.0
C1166 C 0.58467 0.58523 0.8665 0.0
C1167 C 0.57767 0.59456 0.88098 0.0
C1168 C 0.56115 0.593 0.87298 0.0
C1169 C 0.55265 0.58361 0.84994 0.0
C1170 C 0.56526 0.57515 0.78811 0.0
C1171 C 0.56924 0.59206 0.77761 0.0
C1172 C 0.58351 0.60114 0.75985 0.0
C1173 C 0.59409 0.59342 0.75209 0.0
C1174 C 0.58972 0.57613 0.76201 0.0
C1175 C 0.57534 0.567 0.77983 0.0
C1176 C 0.53735 0.54915 0.80773 0.0
C1177 C 0.53711 0.53461 0.82111 0.0
C1178 C 0.52101 0.51714 0.82206 0.0
C1179 C 0.50495 0.51381 0.80933 0.0
C1180 C 0.50576 0.52813 0.79457 0.0
C1181 C 0.52173 0.5456 0.79396 0.0
H1182 H 0.69635 0.91853 0.52188 0.0
N1183 N 0.66461 0.88898 0.54042 0.0
H1184 H 0.69938 0.9363 0.48348 0.0
H1185 H 0.63954 0.88014 0.50346 0.0
H1186 H 0.6427 0.89747 0.46398 0.0
H1187 H 0.63965 0.89502 0.56179 0.0
H1188 H 0.645 0.91999 0.59231 0.0
H1189 H 0.69655 0.91126 0.56714 0.0
H1190 H 0.70216 0.93669 0.59718 0.0
H1191 H 0.69117 0.88601 0.51255 0.0
H1192 H 0.65241 0.86237 0.57552 0.0
H1193 H 0.69871 0.86216 0.51671 0.0
H1194 H 0.66085 0.83896 0.58092 0.0
H1195 H 0.71599 0.78049 0.51782 0.0
H1196 H 0.70697 0.75998 0.47961 0.0
H1197 H 0.6532 0.75357 0.48223 0.0
H1198 H 0.66191 0.77301 0.5212 0.0
H1199 H 0.66337 0.75968 0.56619 0.0
H1200 H 0.66133 0.73724 0.59742 0.0
H1201 H 0.7203 0.76844 0.60559 0.0
H1202 H 0.72209 0.79134 0.57529 0.0
H1203 H 0.71876 0.82427 0.53839 0.0
H1204 H 0.71315 0.84999 0.53989 0.0
H1205 H 0.65689 0.8119 0.56215 0.0
N1206 N 0.69506 0.78868 0.54668 0.0
H1207 H 0.66307 0.78676 0.56229 0.0
C1208 C 0.66761 0.89798 0.51569 0.0
C1209 C 0.68456 0.91375 0.50939 0.0
C1210 C 0.6863 0.92388 0.48728 0.0
C1211 C 0.6712 0.91849 0.47087 0.0
C1212 C 0.65447 0.90227 0.47658 0.0
C1213 C 0.6527 0.89219 0.49887 0.0
C1214 C 0.66767 0.9014 0.56202 0.0
C1215 C 0.65322 0.90379 0.56996 0.0
C1216 C 0.65635 0.91815 0.58712 0.0
C1217 C 0.6741 0.93055 0.59651 0.0
C1218 C 0.68838 0.9274 0.59005 0.0
C1219 C 0.6852 0.91291 0.5729 0.0
C1220 C 0.67101 0.87612 0.54373 0.0
C1221 C 0.68443 0.87597 0.52766 0.0
C1222 C 0.68893 0.86224 0.53022 0.0
C1223 C 0.6804 0.84843 0.54914 0.0
C1224 C 0.66747 0.84903 0.56574 0.0
C1225 C 0.66275 0.86257 0.56289 0.0
C1226 C 0.6898 0.7785 0.52234 0.0
C1227 C 0.70232 0.77476 0.50996 0.0
C1228 C 0.69713 0.76305 0.48815 0.0
C1229 C 0.67926 0.75489 0.47806 0.0
C1230 C 0.66689 0.75917 0.48992 0.0
C1231 C 0.672 0.77063 0.51206 0.0
C1232 C 0.69292 0.77747 0.56877 0.0
C1233 C 0.67577 0.7622 0.57559 0.0
C1234 C 0.67466 0.74918 0.59317 0.0
C1235 C 0.69065 0.75103 0.60407 0.0
C1236 C 0.70768 0.76678 0.5981 0.0
C1237 C 0.70875 0.77988 0.58074 0.0
C1238 C 0.69139 0.80356 0.54994 0.0
C1239 C 0.70531 0.82161 0.54397 0.0
C1240 C 0.70198 0.83625 0.54456 0.0
C1241 C 0.68445 0.83313 0.55077 0.0
C1242 C 0.67063 0.81504 0.55754 0.0
C1243 C 0.6741 0.80046 0.55738 0.0
H1244 H 0.25245 0.88059 0.50026 0.0
N1245 N 0.23678 0.88769 0.54015 0.0
H1246 H 0.26255 0.89722 0.45908 0.0
H1247 H 0.22951 0.91395 0.52342 0.0
H1248 H 0.24 0.93091 0.4831 0.0
H1249 H 0.22599 0.90804 0.56903 0.0
H1250 H 0.24592 0.93449 0.59764 0.0
H1251 H 0.26964 0.89685 0.55756 0.0
H1252 H 0.28933 0.92262 0.58701 0.0
H1253 H 0.22943 0.85789 0.56646 0.0
H1254 H 0.20312 0.88276 0.52701 0.0
H1255 H 0.19963 0.83002 0.57361 0.0
H1256 H 0.17344 0.85455 0.53245 0.0
H1257 H 0.11492 0.73986 0.53262 0.0
H1258 H 0.10013 0.72356 0.49206 0.0
H1259 H 0.08588 0.76491 0.47652 0.0
H1260 H 0.10055 0.78097 0.51754 0.0
H1261 H 0.0885 0.77627 0.56336 0.0
H1262 H 0.06264 0.75818 0.59289 0.0
H1263 H 0.08878 0.72891 0.61894 0.0
H1264 H 0.11447 0.74695 0.58931 0.0
H1265 H 0.14953 0.77517 0.54975 0.0
H1266 H 0.17847 0.80469 0.54895 0.0
H1267 H 0.14896 0.83366 0.55905 0.0
N1268 N 0.11601 0.76961 0.55294 0.0
H1269 H 0.11992 0.80377 0.55843 0.0
C1270 C 0.24016 0.89589 0.51485 0.0
C1271 C 0.24931 0.89125 0.49624 0.0
C1272 C 0.25518 0.90084 0.47291 0.0
C1273 C 0.25197 0.91529 0.46779 0.0
C1274 C 0.24233 0.91958 0.48617 0.0
C1275 C 0.23642 0.90994 0.5094 0.0
C1276 C 0.24653 0.90072 0.56091 0.0
C1277 C 0.23974 0.91107 0.57309 0.0
C1278 C 0.25112 0.92613 0.58944 0.0
C1279 C 0.26936 0.93093 0.59392 0.0
C1280 C 0.27555 0.91964 0.58323 0.0
C1281 C 0.26428 0.90478 0.56673 0.0
C1282 C 0.21868 0.87229 0.54578 0.0
C1283 C 0.2172 0.85731 0.55933 0.0
C1284 C 0.20013 0.84131 0.56314 0.0
C1285 C 0.18404 0.83974 0.55307 0.0
C1286 C 0.18544 0.85518 0.54056 0.0
C1287 C 0.20256 0.87136 0.53717 0.0
C1288 C 0.10881 0.76153 0.52789 0.0
C1289 C 0.10876 0.74545 0.52027 0.0
C1290 C 0.10032 0.7362 0.49718 0.0
C1291 C 0.0917 0.74287 0.48126 0.0
C1292 C 0.09212 0.75928 0.48865 0.0
C1293 C 0.10061 0.76855 0.51187 0.0
C1294 C 0.10336 0.76288 0.57427 0.0
C1295 C 0.08893 0.76642 0.57609 0.0
C1296 C 0.07418 0.75606 0.59286 0.0
C1297 C 0.07367 0.742 0.6078 0.0
C1298 C 0.0888 0.73954 0.60737 0.0
C1299 C 0.10351 0.7499 0.5907 0.0
C1300 C 0.13271 0.78732 0.55439 0.0
C1301 C 0.1494 0.78793 0.55199 0.0
C1302 C 0.16593 0.80487 0.55175 0.0
C1303 C 0.16621 0.82172 0.55423 0.0
C1304 C 0.14934 0.82104 0.55688 0.0
C1305 C 0.13271 0.80397 0.55679 0.0
H1306 H 0.21532 0.29223 0.50757 0.0
N1307 N 0.21409 0.31304 0.54597 0.0
H1308 H 0.23504 0.30271 0.46907 0.0
H1309 H 0.23597 0.34905 0.53092 0.0
H1310 H 0.25646 0.35964 0.49356 0.0
H1311 H 0.24053 0.34339 0.5734 0.0
H1312 H 0.26302 0.34371 0.60233 0.0
H1313 H 0.21338 0.28384 0.56612 0.0
H1314 H 0.23653 0.2842 0.5946 0.0
H1315 H 0.17934 0.2898 0.53348 0.0
H1316 H 0.21518 0.34405 0.56692 0.0
H1317 H 0.15385 0.29539 0.53518 0.0
H1318 H 0.1898 0.34946 0.56977 0.0
H1319 H 0.09159 0.30642 0.51785 0.0
H1320 H 0.07465 0.30233 0.47787 0.0
H1321 H 0.09779 0.36162 0.47479 0.0
H1322 H 0.11362 0.36536 0.51594 0.0
H1323 H 0.1134 0.36437 0.5785 0.0
H1324 H 0.08949 0.36122 0.60862 0.0
H1325 H 0.05695 0.30285 0.58936 0.0
H1326 H 0.08093 0.30597 0.55985 0.0
H1327 H 0.10791 0.30538 0.55771 0.0
H1328 H 0.13272 0.29897 0.5612 0.0
H1329 H 0.17196 0.35591 0.54205 0.0
N1330 N 0.11146 0.33879 0.54558 0.0
H1331 H 0.14705 0.36227 0.53967 0.0
C1332 C 0.22418 0.31978 0.52211 0.0
C1333 C 0.22398 0.30696 0.50421 0.0
C1334 C 0.23537 0.31298 0.48242 0.0
C1335 C 0.24734 0.33202 0.47821 0.0
C1336 C 0.24717 0.34489 0.49588 0.0
C1337 C 0.23556 0.33884 0.51748 0.0
C1338 C 0.22496 0.31347 0.56762 0.0
C1339 C 0.23893 0.33028 0.57856 0.0
C1340 C 0.25209 0.33051 0.59486 0.0
C1341 C 0.2518 0.31403 0.60021 0.0
C1342 C 0.23713 0.29712 0.59078 0.0
C1343 C 0.22387 0.29689 0.57461 0.0
C1344 C 0.19919 0.31633 0.5502 0.0
C1345 C 0.18161 0.30276 0.54172 0.0
C1346 C 0.16703 0.30597 0.54283 0.0
C1347 C 0.16968 0.32293 0.55257 0.0
C1348 C 0.18725 0.33635 0.56175 0.0
C1349 C 0.20186 0.33316 0.56041 0.0
C1350 C 0.10361 0.33621 0.5201 0.0
C1351 C 0.09296 0.31852 0.50866 0.0
C1352 C 0.08337 0.31623 0.48564 0.0
C1353 C 0.08448 0.33161 0.47339 0.0
C1354 C 0.09605 0.3494 0.48416 0.0
C1355 C 0.10535 0.35162 0.50742 0.0
C1356 C 0.09903 0.33553 0.56681 0.0
C1357 C 0.10134 0.35081 0.58137 0.0
C1358 C 0.08761 0.34902 0.59831 0.0
C1359 C 0.0712 0.33186 0.60085 0.0
C1360 C 0.06944 0.31624 0.58773 0.0
C1361 C 0.08321 0.31804 0.5708 0.0
C1362 C 0.12566 0.33443 0.54865 0.0
C1363 C 0.12183 0.31654 0.55458 0.0
C1364 C 0.1361 0.31286 0.55636 0.0
C1365 C 0.15446 0.32692 0.55198 0.0
C1366 C 0.15812 0.34479 0.5461 0.0
C1367 C 0.14389 0.34846 0.54453 0.0
C1368 C 0.00966 0.38716 0.09349 0.0
C1369 C 0.99659 0.38509 0.07512 0.0
C1370 C 0.01419 0.39936 0.11477 0.0
C1371 C 0.00608 0.41022 0.11829 0.0
H1372 H 0.0162 0.37903 0.09169 0.0
H1373 H 0.02391 0.40002 0.12882 0.0
S1374 S 0.97254 0.41139 0.07391 0.0
N1375 N 0.97632 0.39558 0.06088 0.0
N1376 N 0.98536 0.41908 0.1003 0.0
C1377 C 0.99336 0.40865 0.09957 0.0
C1378 C 0.98851 0.39596 0.07814 0.0
C1379 C 0.60275 0.62531 0.0949 0.0
C1380 C 0.61213 0.62286 0.07401 0.0
C1381 C 0.59571 0.61276 0.11532 0.0
C1382 C 0.59763 0.59713 0.11572 0.0
H1383 H 0.60092 0.63714 0.09567 0.0
H1384 H 0.5889 0.6155 0.13114 0.0
S1385 S 0.62019 0.58369 0.06519 0.0
N1386 N 0.62258 0.60325 0.05474 0.0
N1387 N 0.60903 0.57949 0.09299 0.0
C1388 C 0.60687 0.59439 0.09493 0.0
C1389 C 0.61418 0.60727 0.07414 0.0
C1390 C 0.38784 0.97406 0.07526 0.0
C1391 C 0.38342 0.98742 0.06823 0.0
C1392 C 0.39872 0.97666 0.09699 0.0
C1393 C 0.40564 0.99271 0.11271 0.0
H1394 H 0.38283 0.96139 0.06392 0.0
H1395 H 0.4017 0.96596 0.10156 0.0
S1396 S 0.39784 0.03177 0.10343 0.0
N1397 N 0.38683 0.01734 0.07903 0.0
N1398 N 0.4071 0.02207 0.12011 0.0
C1399 C 0.40152 0.00629 0.10588 0.0
C1400 C 0.39046 0.00368 0.08362 0.0
C1401 C 0.39281 0.98348 0.93688 0.0
C1402 C 0.38477 0.994 0.94383 0.0
C1403 C 0.40538 0.98872 0.91637 0.0
C1404 C 0.41038 0.00468 0.90197 0.0
H1405 H 0.38959 0.9712 0.94761 0.0
H1406 H 0.41138 0.98033 0.91193 0.0
S1407 S 0.3919 0.0359 0.91036 0.0
N1408 N 0.38191 0.02051 0.93351 0.0
N1409 N 0.40539 0.03021 0.89477 0.0
C1410 C 0.4022 0.01512 0.90831 0.0
C1411 C 0.38944 0.00983 0.92927 0.0
C1412 C 0.9851 0.37586 0.92856 0.0
C1413 C 0.99546 0.38204 0.95152 0.0
C1414 C 0.98823 0.3881 0.9084 0.0
C1415 C 1.00159 0.40713 0.91062 0.0
H1416 H 0.97448 0.36141 0.92614 0.0
H1417 H 0.98009 0.38257 0.89091 0.0
S1418 S 0.03152 0.43041 0.96785 0.0
N1419 N 0.01933 0.40833 0.97575 0.0
N1420 N 0.02471 0.4316 0.93842 0.0
C1421 C 0.01198 0.41348 0.93366 0.0
C1422 C 0.00903 0.40089 0.95397 0.0
C1423 C 0.60515 0.61121 0.94387 0.0
C1424 C 0.60727 0.62878 0.94801 0.0
C1425 C 0.59556 0.60019 0.9222 0.0
C1426 C 0.58792 0.60645 0.90375 0.0
H1427 H 0.61052 0.60572 0.95782 0.0
H1428 H 0.59384 0.58654 0.92012 0.0
S1429 S 0.59189 0.65254 0.90404 0.0
N1430 N 0.60219 0.65252 0.93101 0.0
N1431 N 0.58478 0.63219 0.88989 0.0
C1432 C 0.5906 0.62432 0.90723 0.0
C1433 C 0.60012 0.63539 0.92944 0.0
C1434 C 0.01587 0.623 0.92952 0.0
C1435 C 0.00377 0.61993 0.95021 0.0
C1436 C 0.01067 0.61034 0.90863 0.0
C1437 C 0.99325 0.59402 0.90776 0.0
H1438 H 0.02938 0.63538 0.92928 0.0
H1439 H 0.0203 0.6135 0.89287 0.0
S1440 S 0.95714 0.57863 0.95832 0.0
N1441 N 0.97389 0.59889 0.96914 0.0
N1442 N 0.96438 0.57494 0.93031 0.0
C1443 C 0.98117 0.59061 0.9286 0.0
C1444 C 0.98637 0.60359 0.9497 0.0
C1445 C 0.39806 0.37252 0.93463 0.0
C1446 C 0.39357 0.37805 0.95807 0.0
C1447 C 0.40633 0.38494 0.91423 0.0
C1448 C 0.4108 0.40353 0.91661 0.0
H1449 H 0.3949 0.35836 0.93187 0.0
H1450 H 0.40898 0.37981 0.8963 0.0
S1451 S 0.40339 0.4253 0.97517 0.0
N1452 N 0.39479 0.40341 0.98307 0.0
N1453 N 0.41111 0.42707 0.9452 0.0
C1454 C 0.40672 0.40932 0.94026 0.0
C1455 C 0.39793 0.39652 0.96086 0.0
C1456 C 0.62463 0.02654 0.93309 0.0
C1457 C 0.62074 0.01279 0.95142 0.0
C1458 C 0.61332 0.02288 0.91152 0.0
C1459 C 0.59749 0.00536 0.90744 0.0
H1460 H 0.63658 0.04032 0.93539 0.0
H1461 H 0.6171 0.03391 0.89785 0.0
S1462 S 0.58078 0.96468 0.9502 0.0
N1463 N 0.59988 0.98094 0.96422 0.0
N1464 N 0.57828 0.97415 0.92396 0.0
C1465 C 0.59344 0.9914 0.92556 0.0
C1466 C 0.60514 0.99509 0.94745 0.0
C1467 C 0.60146 0.99061 0.07672 0.0
C1468 C 0.61738 0.00836 0.0775 0.0
C1469 C 0.5887 0.98446 0.09709 0.0
C1470 C 0.59146 0.99571 0.11918 0.0
H1471 H 0.59866 0.98152 0.06003 0.0
H1472 H 0.57646 0.97083 0.09536 0.0
S1473 S 0.63197 0.04259 0.13184 0.0
N1474 N 0.63572 0.03673 0.1027 0.0
N1475 N 0.61212 0.02495 0.14137 0.0
C1476 C 0.60758 0.01332 0.12045 0.0
C1477 C 0.62044 0.01968 0.09954 0.0
C1478 C 0.99354 0.61202 0.08768 0.0
C1479 C 0.00854 0.61764 0.07078 0.0
C1480 C 0.9903 0.59982 0.10807 0.0
C1481 C 1.00188 0.59274 0.1122 0.0
H1482 H 0.98455 0.61749 0.08563 0.0
H1483 H 0.97899 0.59637 0.12118 0.0
S1484 S 0.04142 0.60099 0.07129 0.0
N1485 N 0.03404 0.61373 0.05819 0.0
N1486 N 0.02777 0.59074 0.09622 0.0
C1487 C 0.01639 0.59757 0.09475 0.0
C1488 C 0.01976 0.61003 0.07414 0.0
C1489 C 0.41163 0.38191 0.08875 0.0
C1490 C 0.39299 0.37477 0.08289 0.0
C1491 C 0.42024 0.39454 0.10938 0.0
C1492 C 0.41055 0.40051 0.12499 0.0
H1493 H 0.41981 0.3781 0.0769 0.0
H1494 H 0.43471 0.40001 0.11276 0.0
S1495 S 0.36101 0.38439 0.11988 0.0
N1496 N 0.3648 0.37361 0.09576 0.0
N1497 N 0.38094 0.39712 0.13467 0.0
C1498 C 0.39177 0.393 0.11997 0.0
C1499 C 0.38301 0.3802 0.09891 0.0
C1500 C 0.681 0.7337 0.41302 0.0
C1501 C 0.66406 0.71689 0.41193 0.0
C1502 C 0.68564 0.74597 0.43423 0.0
C1503 C 0.67364 0.74183 0.45541 0.0
H1504 H 0.69069 0.73756 0.39717 0.0
H1505 H 0.69873 0.75888 0.43393 0.0
S1506 S 0.62816 0.69885 0.46292 0.0
N1507 N 0.63545 0.6964 0.43417 0.0
N1508 N 0.64442 0.71912 0.47452 0.0
C1509 C 0.65672 0.72491 0.45471 0.0
C1510 C 0.65188 0.71253 0.43289 0.0
C1511 C 0.2863 0.94601 0.41678 0.0
C1512 C 0.27619 0.95156 0.40194 0.0
C1513 C 0.27823 0.93389 0.43759 0.0
C1514 C 0.25971 0.92675 0.44425 0.0
H1515 H 0.30071 0.95148 0.41279 0.0
H1516 H 0.28672 0.93054 0.44905 0.0
S1517 S 0.22663 0.93502 0.40951 0.0
N1518 N 0.24624 0.94775 0.39409 0.0
N1519 N 0.23107 0.92474 0.43289 0.0
C1520 C 0.24926 0.93157 0.42892 0.0
C1521 C 0.25749 0.94401 0.40786 0.0
C1522 C 0.06052 0.31258 0.40845 0.0
C1523 C 0.05066 0.32165 0.40511 0.0
C1524 C 0.07172 0.31624 0.43018 0.0
C1525 C 0.07334 0.32891 0.44972 0.0
H1526 H 0.05959 0.30256 0.39408 0.0
H1527 H 0.07914 0.30899 0.4317 0.0
S1528 S 0.04954 0.35561 0.4508 0.0
N1529 N 0.04302 0.3437 0.42318 0.0
N1530 N 0.06351 0.3501 0.4646 0.0
C1531 C 0.06354 0.33811 0.44659 0.0
C1532 C 0.05234 0.33459 0.42418 0.0
C1533 C 0.05608 0.33875 0.2659 0.0
C1534 C 0.05324 0.32445 0.28253 0.0
C1535 C 0.06861 0.34416 0.2453 0.0
C1536 C 0.07904 0.3357 0.24076 0.0
H1537 H 0.04834 0.34563 0.26855 0.0
H1538 H 0.06996 0.35493 0.23265 0.0
S1539 S 0.07799 0.29877 0.28044 0.0
N1540 N 0.06246 0.30249 0.29393 0.0
N1541 N 0.0865 0.31312 0.25586 0.0
C1542 C 0.0766 0.32164 0.25765 0.0
C1543 C 0.06362 0.31593 0.27837 0.0
C1544 C 0.65145 0.71471 0.2679 0.0
C1545 C 0.66434 0.71831 0.28749 0.0
C1546 C 0.65539 0.72728 0.24791 0.0
C1547 C 0.67232 0.74411 0.24677 0.0
H1548 H 0.63821 0.70196 0.26785 0.0
H1549 H 0.64513 0.72365 0.23302 0.0
S1550 S 0.71038 0.76077 0.29426 0.0
N1551 N 0.69459 0.74022 0.30494 0.0
N1552 N 0.70181 0.76406 0.26767 0.0
C1553 C 0.6853 0.74799 0.26636 0.0
C1554 C 0.68136 0.73506 0.28662 0.0
C1555 C 0.28185 0.93979 0.27791 0.0
C1556 C 0.28185 0.95652 0.2791 0.0
C1557 C 0.27369 0.92722 0.25713 0.0
C1558 C 0.2654 0.93096 0.23652 0.0
H1559 H 0.28786 0.93616 0.29346 0.0
H1560 H 0.2737 0.91435 0.25741 0.0
S1561 S 0.2633 0.97368 0.22916 0.0
N1562 N 0.27361 0.9766 0.25733 0.0
N1563 N 0.25885 0.95329 0.21777 0.0
C1564 C 0.26568 0.94786 0.23717 0.0
C1565 C 0.27378 0.96055 0.25855 0.0
C1566 C 0.69717 0.95689 0.27462 0.0
C1567 C 0.6826 0.95929 0.28242 0.0
C1568 C 0.69605 0.94685 0.25208 0.0
C1569 C 0.68034 0.93878 0.23628 0.0
H1570 H 0.70965 0.96284 0.286 0.0
H1571 H 0.70766 0.94543 0.24691 0.0
S1572 S 0.63843 0.94115 0.24748 0.0
N1573 N 0.65187 0.95272 0.27231 0.0
N1574 N 0.64991 0.93397 0.2297 0.0
C1575 C 0.66554 0.94083 0.24388 0.0
C1576 C 0.66664 0.95106 0.26696 0.0
C1577 C 0.07901 0.72098 0.28044 0.0
C1578 C 0.0608 0.71408 0.28861 0.0
C1579 C 0.08647 0.73307 0.25959 0.0
C1580 C 0.07604 0.73874 0.24585 0.0
H1581 H 0.08763 0.71693 0.29014 0.0
H1582 H 0.10052 0.73788 0.25399 0.0
S1583 S 0.02768 0.72478 0.25926 0.0
N1584 N 0.03256 0.71408 0.2815 0.0
N1585 N 0.04655 0.73663 0.24188 0.0
C1586 C 0.05793 0.73231 0.25407 0.0
C1587 C 0.05032 0.72002 0.27552 0.0
C1588 C 0.28446 0.36451 0.28336 0.0
C1589 C 0.28973 0.35201 0.29153 0.0
C1590 C 0.27314 0.36063 0.26175 0.0
C1591 C 0.26658 0.34409 0.24729 0.0
H1592 H 0.28911 0.3775 0.29374 0.0
H1593 H 0.2695 0.37071 0.2563 0.0
S1594 S 0.27657 0.30684 0.25981 0.0
N1595 N 0.28751 0.32235 0.28315 0.0
N1596 N 0.26639 0.31518 0.24224 0.0
C1597 C 0.27157 0.33135 0.25524 0.0
C1598 C 0.28309 0.33528 0.27739 0.0
C1599 C 0.28327 0.3351 0.43064 0.0
C1600 C 0.28681 0.3501 0.41495 0.0
C1601 C 0.27052 0.3294 0.45096 0.0
C1602 C 0.2606 0.33831 0.45624 0.0
H1603 H 0.29058 0.32783 0.42743 0.0
H1604 H 0.26859 0.31804 0.46285 0.0
S1605 S 0.26364 0.37731 0.41944 0.0
N1606 N 0.2788 0.37328 0.40536 0.0
N1607 N 0.25447 0.36221 0.44308 0.0
C1608 C 0.26378 0.35313 0.44041 0.0
C1609 C 0.27695 0.35909 0.4199 0.0
C1610 C 0.69163 0.94916 0.41205 0.0
C1611 C 0.67898 0.95471 0.40665 0.0
C1612 C 0.68871 0.93706 0.4323 0.0
C1613 C 0.67307 0.93009 0.44821 0.0
H1614 H 0.70398 0.9542 0.40053 0.0
H1615 H 0.69888 0.93322 0.43562 0.0
S1616 S 0.63593 0.94073 0.44273 0.0
N1617 N 0.65016 0.95231 0.41889 0.0
N1618 N 0.64487 0.92991 0.45744 0.0
C1619 C 0.66018 0.93537 0.4429 0.0
C1620 C 0.66308 0.94759 0.42204 0.0
C1621 C 0.0823 0.71547 0.41822 0.0
C1622 C 0.06406 0.71008 0.41233 0.0
C1623 C 0.0912 0.72641 0.44015 0.0
C1624 C 0.08226 0.73245 0.45719 0.0
H1625 H 0.08986 0.7112 0.4058 0.0
H1626 H 0.10522 0.73013 0.44386 0.0
S1627 S 0.03439 0.72198 0.45117 0.0
N1628 N 0.03731 0.71165 0.42561 0.0
N1629 N 0.05408 0.73209 0.46704 0.0
C1630 C 0.06411 0.72738 0.45151 0.0
C1631 C 0.055 0.71624 0.42907 0.0
C1632 C 0.31314 0.05638 0.74338 0.0
C1633 C 0.32368 0.04799 0.74008 0.0
C1634 C 0.3148 0.06683 0.76577 0.0
C1635 C 0.32686 0.06906 0.78595 0.0
H1636 H 0.30357 0.05495 0.72848 0.0
H1637 H 0.30648 0.07315 0.76731 0.0
S1638 S 0.35691 0.04904 0.78719 0.0
N1639 N 0.34649 0.04239 0.75878 0.0
N1640 N 0.34912 0.06141 0.80138 0.0
C1641 C 0.33752 0.06072 0.78284 0.0
C1642 C 0.33603 0.05033 0.7598 0.0
C1643 C 0.95574 0.28698 0.75415 0.0
C1644 C 0.94449 0.29105 0.73927 0.0
C1645 C 0.94859 0.27491 0.77527 0.0
C1646 C 0.92994 0.26646 0.78211 0.0
H1647 H 0.97026 0.29357 0.74994 0.0
H1648 H 0.95781 0.27262 0.78679 0.0
S1649 S 0.89418 0.27029 0.74707 0.0
N1650 N 0.91336 0.28412 0.73138 0.0
N1651 N 0.90005 0.26143 0.77077 0.0
C1652 C 0.91842 0.26972 0.76664 0.0
C1653 C 0.92565 0.28201 0.74531 0.0
C1654 C 0.72918 0.66969 0.74389 0.0
C1655 C 0.71245 0.65269 0.74175 0.0
C1656 C 0.74098 0.67357 0.76506 0.0
C1657 C 0.73643 0.66065 0.78494 0.0
H1658 H 0.73342 0.6799 0.72879 0.0
H1659 H 0.7539 0.68666 0.76564 0.0
S1660 S 0.69314 0.61515 0.7902 0.0
N1661 N 0.69131 0.62346 0.76237 0.0
N1662 N 0.71324 0.63092 0.80231 0.0
C1663 C 0.71944 0.6439 0.78347 0.0
C1664 C 0.70752 0.63989 0.76187 0.0
C1665 C 0.72403 0.64441 0.60797 0.0
C1666 C 0.71735 0.65604 0.61549 0.0
C1667 C 0.73646 0.64903 0.58734 0.0
C1668 C 0.74266 0.66543 0.5734 0.0
H1669 H 0.71984 0.63173 0.61829 0.0
H1670 H 0.74142 0.63978 0.58247 0.0
S1671 S 0.72807 0.69977 0.58361 0.0
N1672 N 0.71714 0.68422 0.60628 0.0
N1673 N 0.74025 0.6927 0.56739 0.0
C1674 C 0.73582 0.677 0.58034 0.0
C1675 C 0.72324 0.67236 0.6014 0.0
C1676 C 0.31752 0.04639 0.59358 0.0
C1677 C 0.32958 0.05107 0.6147 0.0
C1678 C 0.32134 0.05878 0.57341 0.0
C1679 C 0.3373 0.0765 0.57356 0.0
H1680 H 0.30499 0.03295 0.59252 0.0
H1681 H 0.31172 0.05434 0.55744 0.0
S1682 S 0.37308 0.09592 0.62482 0.0
N1683 N 0.35813 0.07479 0.63469 0.0
N1684 N 0.36511 0.0983 0.59699 0.0
C1685 C 0.34954 0.08141 0.59452 0.0
C1686 C 0.34573 0.06866 0.61501 0.0
C1687 C 0.9537 0.28897 0.59924 0.0
C1688 C 0.94253 0.29041 0.61826 0.0
C1689 C 0.94604 0.2762 0.57856 0.0
C1690 C 0.92692 0.26414 0.57632 0.0
H1691 H 0.96847 0.29798 0.60012 0.0
H1692 H 0.9552 0.27597 0.56401 0.0
S1693 S 0.89185 0.26117 0.62268 0.0
N1694 N 0.9115 0.27817 0.63438 0.0
N1695 N 0.89711 0.25367 0.59607 0.0
C1696 C 0.91563 0.26517 0.5956 0.0
C1697 C 0.92343 0.27841 0.61643 0.0
C1698 C 0.36602 0.28917 0.60355 0.0
C1699 C 0.35206 0.29257 0.61123 0.0
C1700 C 0.36434 0.27881 0.58109 0.0
C1701 C 0.34865 0.2714 0.56531 0.0
H1702 H 0.37842 0.29455 0.61496 0.0
H1703 H 0.37548 0.27661 0.57599 0.0
S1704 S 0.30833 0.27661 0.5761 0.0
N1705 N 0.322 0.28776 0.60091 0.0
N1706 N 0.31899 0.26839 0.55852 0.0
C1707 C 0.33449 0.27451 0.57275 0.0
C1708 C 0.33617 0.28507 0.59572 0.0
C1709 C 0.71905 0.05669 0.60858 0.0
C1710 C 0.72973 0.05175 0.62324 0.0
C1711 C 0.72654 0.06855 0.58733 0.0
C1712 C 0.74499 0.07593 0.58005 0.0
H1713 H 0.70465 0.05092 0.61303 0.0
H1714 H 0.71768 0.07148 0.57601 0.0
S1715 S 0.77944 0.06945 0.61414 0.0
N1716 N 0.76021 0.05664 0.63033 0.0
N1717 N 0.77418 0.07897 0.59063 0.0
C1718 C 0.756 0.07179 0.59524 0.0
C1719 C 0.74841 0.05971 0.61676 0.0
C1720 C 0.93932 0.66596 0.61881 0.0
C1721 C 0.95604 0.68294 0.6213 0.0
C1722 C 0.9278 0.66215 0.59736 0.0
C1723 C 0.93258 0.67512 0.57749 0.0
H1724 H 0.93498 0.65558 0.63368 0.0
H1725 H 0.91499 0.64897 0.59639 0.0
S1726 S 0.97558 0.72096 0.57351 0.0
N1727 N 0.97718 0.71248 0.60133 0.0
N1728 N 0.9557 0.70514 0.56089 0.0
C1729 C 0.94937 0.69203 0.57953 0.0
C1730 C 0.96105 0.69597 0.60143 0.0
C1731 C 0.94568 0.6626 0.75866 0.0
C1732 C 0.95393 0.68028 0.74748 0.0
C1733 C 0.93329 0.65771 0.77934 0.0
C1734 C 0.92859 0.67029 0.78976 0.0
H1735 H 0.94882 0.65235 0.75147 0.0
H1736 H 0.92749 0.64401 0.78741 0.0
S1737 S 0.94549 0.71803 0.76701 0.0
N1738 N 0.95603 0.7103 0.74821 0.0
N1739 N 0.9326 0.70097 0.78689 0.0
C1740 C 0.93662 0.68798 0.7788 0.0
C1741 C 0.9493 0.69302 0.75774 0.0
C1742 C 0.33312 0.28279 0.75177 0.0
C1743 C 0.34696 0.2863 0.73367 0.0
C1744 C 0.32912 0.27039 0.77213 0.0
C1745 C 0.33862 0.26085 0.77489 0.0
H1746 H 0.32577 0.29013 0.75072 0.0
H1747 H 0.31888 0.2687 0.78625 0.0
S1748 S 0.37418 0.26322 0.73011 0.0
N1749 N 0.36906 0.27814 0.71838 0.0
N1750 N 0.3611 0.25439 0.75598 0.0
C1751 C 0.35186 0.26362 0.7561 0.0
C1752 C 0.35613 0.27644 0.73566 0.0
C1753 C 0.72484 0.06367 0.74799 0.0
C1754 C 0.72666 0.04797 0.74617 0.0
C1755 C 0.73274 0.07653 0.76853 0.0
C1756 C 0.74264 0.07414 0.78825 0.0
H1757 H 0.71755 0.06628 0.73313 0.0
H1758 H 0.73125 0.08858 0.76877 0.0
S1759 S 0.74987 0.0344 0.79389 0.0
N1760 N 0.73834 0.03026 0.76654 0.0
N1761 N 0.75269 0.05411 0.80559 0.0
C1762 C 0.7442 0.05826 0.787 0.0
C1763 C 0.73633 0.04527 0.76589 0.0
C1764 C 0.04302 0.3451 0.0696 0.0
C1765 C 0.04648 0.35658 0.04816 0.0
C1766 C 0.05735 0.34558 0.08343 0.0
C1767 C 0.0758 0.35748 0.07638 0.0
H1768 H 0.0291 0.33578 0.07607 0.0
H1769 H 0.05391 0.33677 0.10015 0.0
S1770 S 0.09232 0.38962 0.02087 0.0
N1771 N 0.06979 0.37986 0.02003 0.0
N1772 N 0.09674 0.3805 0.04584 0.0
C1773 C 0.0795 0.36887 0.05477 0.0
C1774 C 0.06485 0.36847 0.04071 0.0
C1775 C 0.67145 0.70307 0.06837 0.0
C1776 C 0.65739 0.69561 0.04967 0.0
C1777 C 0.67502 0.71852 0.08367 0.0
C1778 C 0.66464 0.72708 0.08099 0.0
H1779 H 0.67989 0.69705 0.07115 0.0
H1780 H 0.68596 0.72374 0.09787 0.0
S1781 S 0.62635 0.71313 0.03485 0.0
N1782 N 0.63299 0.69806 0.02934 0.0
N1783 N 0.6398 0.72712 0.05819 0.0
C1784 C 0.65044 0.71971 0.06257 0.0
C1785 C 0.64681 0.704 0.04687 0.0
C1786 C 0.30797 0.96645 0.06654 0.0
C1787 C 0.31356 0.96266 0.04261 0.0
C1788 C 0.29346 0.95236 0.08062 0.0
C1789 C 0.28391 0.93391 0.07133 0.0
H1790 H 0.315 0.98039 0.07471 0.0
H1791 H 0.28999 0.9559 0.09927 0.0
S1792 S 0.29221 0.9168 0.00888 0.0
N1793 N 0.30783 0.93915 0.00968 0.0
N1794 N 0.28041 0.91274 0.03608 0.0
C1795 C 0.28908 0.92996 0.04719 0.0
C1796 C 0.30392 0.94431 0.03285 0.0
C1797 C 0.33633 0.04009 0.98603 0.0
C1798 C 0.35306 0.04069 0.98356 0.0
C1799 C 0.3334 0.053 0.97366 0.0
C1800 C 0.34681 0.06661 0.95735 0.0
H1801 H 0.32523 0.02922 0.99714 0.0
H1802 H 0.32015 0.05177 0.97607 0.0
S1803 S 0.39365 0.07471 0.94633 0.0
N1804 N 0.38391 0.05687 0.96603 0.0
N1805 N 0.3781 0.08046 0.94099 0.0
C1806 C 0.36403 0.0679 0.95584 0.0
C1807 C 0.36718 0.05504 0.96928 0.0
C1808 C 0.97716 0.30656 0.95533 0.0
C1809 C 0.97203 0.31151 0.97872 0.0
C1810 C 0.96463 0.29085 0.94094 0.0
C1811 C 0.94643 0.27931 0.94939 0.0
H1812 H 0.991 0.31491 0.94793 0.0
H1813 H 0.96923 0.28782 0.92285 0.0
S1814 S 0.92615 0.28581 0.00978 0.0
N1815 N 0.94748 0.30353 0.00987 0.0
N1816 N 0.924 0.27375 0.98302 0.0
C1817 C 0.94107 0.28409 0.97276 0.0
C1818 C 0.95384 0.30022 0.98738 0.0
C1819 C 0.6937 0.64483 0.97511 0.0
C1820 C 0.68768 0.65736 0.97089 0.0
C1821 C 0.70927 0.64673 0.96235 0.0
C1822 C 0.71946 0.66134 0.94513 0.0
H1823 H 0.68645 0.63354 0.98851 0.0
H1824 H 0.7135 0.63687 0.96625 0.0
S1825 S 0.70883 0.69704 0.92572 0.0
N1826 N 0.69279 0.68437 0.94705 0.0
N1827 N 0.72185 0.68783 0.92326 0.0
C1828 C 0.7134 0.67372 0.94035 0.0
C1829 C 0.69757 0.67176 0.95317 0.0
C1830 C 0.93923 0.63452 0.98547 0.0
C1831 C 0.95714 0.65005 0.9843 0.0
C1832 C 0.9248 0.6338 0.97138 0.0
C1833 C 0.92769 0.64866 0.9558 0.0
H1834 H 0.93641 0.6226 0.99677 0.0
H1835 H 0.91132 0.6214 0.97236 0.0
S1836 S 0.97186 0.69274 0.94659 0.0
N1837 N 0.97676 0.68092 0.96682 0.0
N1838 N 0.94977 0.6794 0.94024 0.0
C1839 C 0.94541 0.66445 0.95502 0.0
C1840 C 0.96009 0.66518 0.96927 0.0
C1841 C 0.33386 0.30143 0.95689 0.0
C1842 C 0.34575 0.30688 0.97835 0.0
C1843 C 0.33054 0.28632 0.94103 0.0
C1844 C 0.33902 0.27608 0.94591 0.0
H1845 H 0.32697 0.30884 0.95227 0.0
H1846 H 0.32142 0.28278 0.92458 0.0
S1847 S 0.37099 0.28425 -0.00012 0.0
N1848 N 0.3659 0.30062 0.0038 0.0
N1849 N 0.35954 0.27214 0.97393 0.0
C1850 C 0.35095 0.28134 0.96724 0.0
C1851 C 0.35434 0.29674 0.98347 0.0
C1852 C 0.70703 0.04199 0.97749 0.0
C1853 C 0.69179 0.04357 0.98381 0.0
C1854 C 0.7221 0.05605 0.96415 0.0
C1855 C 0.7223 0.07203 0.95578 0.0
H1856 H 0.70733 0.02977 0.98295 0.0
H1857 H 0.73358 0.0542 0.96006 0.0
S1858 S 0.68505 0.08226 0.96681 0.0
N1859 N 0.6778 0.06236 0.98141 0.0
N1860 N 0.70524 0.08807 0.95438 0.0
C1861 C 0.70703 0.07373 0.96216 0.0
C1862 C 0.69199 0.05967 0.9766 0.0
C1863 C 0.67042 0.97246 0.06126 0.0
C1864 C 0.65484 0.96699 0.04578 0.0
C1865 C 0.67347 0.95941 0.07292 0.0
C1866 C 0.66104 0.94027 0.06981 0.0
H1867 H 0.68046 0.98702 0.06444 0.0
H1868 H 0.68557 0.96441 0.08492 0.0
S1869 S 0.61814 0.91844 0.03117 0.0
N1870 N 0.62681 0.94095 0.02781 0.0
N1871 N 0.63258 0.91636 0.05001 0.0
C1872 C 0.64537 0.93449 0.05446 0.0
C1873 C 0.64229 0.94785 0.04233 0.0
C1874 C 0.04953 0.7027 0.04328 0.0
C1875 C 0.032 0.69062 0.05362 0.0
C1876 C 0.06257 0.71852 0.05726 0.0
C1877 C 0.05847 0.72278 0.082 0.0
H1878 H 0.05306 0.70018 0.02401 0.0
H1879 H 0.07575 0.72771 0.04841 0.0
S1880 S 0.01554 0.69431 0.11917 0.0
N1881 N 0.01193 0.68318 0.09111 0.0
N1882 N 0.0364 0.71269 0.11729 0.0
C1883 C 0.0413 0.71038 0.09296 0.0
C1884 C 0.02807 0.69436 0.07879 0.0
C1885 C 0.31351 0.35921 0.06588 0.0
C1886 C 0.31279 0.34458 0.0513 0.0
C1887 C 0.29797 0.35676 0.07933 0.0
C1888 C 0.28114 0.3397 0.07827 0.0
H1889 H 0.32633 0.37231 0.06783 0.0
H1890 H 0.29937 0.36808 0.09145 0.0
S1891 S 0.27172 0.29822 0.03903 0.0
N1892 N 0.29377 0.31317 0.03451 0.0
N1893 N 0.26437 0.30881 0.05857 0.0
C1894 C 0.28011 0.32541 0.06234 0.0
C1895 C 0.29598 0.32779 0.04918 0.0
C1896 C 0.70984 0.67496 0.39952 0.0
C1897 C 0.71367 0.68891 0.38154 0.0
C1898 C 0.72389 0.67463 0.41297 0.0
C1899 C 0.7424 0.68826 0.40908 0.0
H1900 H 0.69581 0.66424 0.40356 0.0
H1901 H 0.72017 0.66386 0.42707 0.0
S1902 S 0.76005 0.72719 0.36307 0.0
N1903 N 0.73753 0.71634 0.35981 0.0
N1904 N 0.76396 0.71562 0.3851 0.0
C1905 C 0.74653 0.7021 0.39082 0.0
C1906 C 0.73218 0.70244 0.37704 0.0
C1907 C 0.317 0.03385 0.37736 0.0
C1908 C 0.32641 0.02475 0.3839 0.0
C1909 C 0.31977 0.0496 0.39135 0.0
C1910 C 0.3322 0.05687 0.41219 0.0
H1911 H 0.30757 0.02894 0.36111 0.0
H1912 H 0.31246 0.05635 0.3855 0.0
S1913 S 0.35909 0.03744 0.43865 0.0
N1914 N 0.34786 0.02368 0.41378 0.0
N1915 N 0.35301 0.05317 0.43987 0.0
C1916 C 0.3413 0.04764 0.41938 0.0
C1917 C 0.33842 0.03161 0.40529 0.0
C1918 C 0.98083 0.28059 0.38883 0.0
C1919 C 0.97931 0.29442 0.3764 0.0
C1920 C 0.96624 0.26701 0.40346 0.0
C1921 C 0.9494 0.26646 0.40564 0.0
H1922 H 0.99358 0.28065 0.388 0.0
H1923 H 0.96846 0.25723 0.41379 0.0
S1924 S 0.93798 0.29836 0.37317 0.0
N1925 N 0.95965 0.3063 0.36545 0.0
N1926 N 0.9317 0.28006 0.39135 0.0
C1927 C 0.94753 0.27979 0.39202 0.0
C1928 C 0.9626 0.29393 0.37779 0.0
C1929 C 0.03652 0.38516 0.30054 0.0
C1930 C 0.0209 0.3714 0.31332 0.0
C1931 C 0.03619 0.39952 0.28759 0.0
C1932 C 0.02033 0.40093 0.28748 0.0
H1933 H 0.04887 0.38443 0.29973 0.0
H1934 H 0.04831 0.40922 0.2769 0.0
S1935 S 0.97669 0.36952 0.32172 0.0
N1936 N 0.98964 0.36052 0.32685 0.0
N1937 N 0.98925 0.38813 0.3041 0.0
C1938 C 0.00491 0.38765 0.30148 0.0
C1939 C 0.00514 0.37275 0.314 0.0
C1940 C 0.64606 0.63715 0.294 0.0
C1941 C 0.64001 0.64583 0.31168 0.0
C1942 C 0.6336 0.62132 0.27974 0.0
C1943 C 0.61458 0.61363 0.28236 0.0
H1944 H 0.66058 0.64254 0.29118 0.0
H1945 H 0.63893 0.61523 0.2662 0.0
S1946 S 0.59147 0.63078 0.32609 0.0
N1947 N 0.61358 0.64532 0.33119 0.0
N1948 N 0.59018 0.61563 0.30407 0.0
C1949 C 0.60828 0.62211 0.29989 0.0
C1950 C 0.62098 0.63817 0.31465 0.0
C1951 C 0.35826 0.97083 0.2978 0.0
C1952 C 0.35985 0.98523 0.31392 0.0
C1953 C 0.37339 0.97302 0.28349 0.0
C1954 C 0.39065 0.98956 0.28518 0.0
H1955 H 0.34506 0.95823 0.29519 0.0
H1956 H 0.37131 0.96201 0.27012 0.0
S1957 S 0.40232 0.02994 0.32852 0.0
N1958 N 0.38011 0.01566 0.33293 0.0
N1959 N 0.40877 0.01945 0.30729 0.0
C1960 C 0.39257 0.00346 0.3028 0.0
C1961 C 0.3771 0.00137 0.31683 0.0
C1962 C 0.62864 0.98851 0.28829 0.0
C1963 C 0.62556 0.97808 0.31079 0.0
C1964 C 0.61407 0.98739 0.2743 0.0
C1965 C 0.59575 0.97591 0.28229 0.0
H1966 H 0.64245 0.9975 0.28116 0.0
H1967 H 0.61721 0.99538 0.25676 0.0
S1968 S 0.5803 0.9465 0.34075 0.0
N1969 N 0.60283 0.9562 0.34086 0.0
N1970 N 0.5754 0.95443 0.31486 0.0
C1971 C 0.59246 0.96553 0.30494 0.0
C1972 C 0.60735 0.96654 0.31911 0.0
C1973 C 0.00384 0.63587 0.28862 0.0
C1974 C 0.0145 0.64056 0.31127 0.0
C1975 C 1.00033 0.6205 0.27321 0.0
C1976 C 0.00723 0.60908 0.27989 0.0
H1977 H 0.9981 0.64412 0.28267 0.0
H1978 H 0.99219 0.61759 0.2558 0.0
S1979 S 0.03559 0.61506 0.33767 0.0
N1980 N 0.03195 0.63252 0.33973 0.0
N1981 N 0.025 0.60336 0.31101 0.0
C1982 C 0.01801 0.61365 0.30244 0.0
C1983 C 0.02171 0.62943 0.31807 0.0
C1984 C 0.36858 0.37451 0.29959 0.0
C1985 C 0.36057 0.37976 0.31941 0.0
C1986 C 0.38345 0.38777 0.28512 0.0
C1987 C 0.39088 0.40686 0.28974 0.0
H1988 H 0.36331 0.36 0.29505 0.0
H1989 H 0.3889 0.38302 0.26976 0.0
S1990 S 0.37553 0.42806 0.33998 0.0
N1991 N 0.3616 0.40549 0.34336 0.0
N1992 N 0.38956 0.43043 0.316 0.0
C1993 C 0.38317 0.41236 0.30962 0.0
C1994 C 0.36804 0.39883 0.32451 0.0
C1995 C 0.31106 0.28623 0.37809 0.0
C1996 C 0.32244 0.30495 0.38589 0.0
C1997 C 0.31343 0.27218 0.38829 0.0
C1998 C 0.32739 0.27644 0.40636 0.0
H1999 H 0.3004 0.28242 0.36379 0.0
H2000 H 0.30454 0.25798 0.38168 0.0
S2001 S 0.35978 0.32274 0.43495 0.0
N2002 N 0.34745 0.32657 0.41425 0.0
N2003 N 0.35184 0.30026 0.43301 0.0
C2004 C 0.33849 0.29493 0.41481 0.0
C2005 C 0.33604 0.30915 0.40468 0.0
C2006 C 0.71523 0.03814 0.37548 0.0
C2007 C 0.69725 0.02607 0.38432 0.0
C2008 C 0.72751 0.05411 0.38975 0.0
C2009 C 0.72229 0.05862 0.41345 0.0
H2010 H 0.71987 0.03533 0.35726 0.0
H2011 H 0.74117 0.06305 0.38209 0.0
S2012 S 0.67723 0.03087 0.44616 0.0
N2013 N 0.67509 0.01936 0.41885 0.0
N2014 N 0.69824 0.04914 0.44586 0.0
C2015 C 0.70443 0.04653 0.4227 0.0
C2016 C 0.69191 0.03032 0.40812 0.0
C2017 C 0.97621 0.6899 0.38441 0.0
C2018 C 0.98292 0.67801 0.38925 0.0
C2019 C 0.96054 0.68769 0.39723 0.0
C2020 C 0.95094 0.67339 0.41512 0.0
H2021 H 0.98299 0.70089 0.37045 0.0
H2022 H 0.95575 0.69703 0.39286 0.0
S2023 S 0.96359 0.63959 0.43652 0.0
N2024 N 0.97918 0.6521 0.41458 0.0
N2025 N 0.94988 0.64803 0.43838 0.0
C2026 C 0.95771 0.66172 0.42057 0.0
C2027 C 0.97366 0.664 0.40772 0.0
C2028 C 0.39606 0.0379 0.70938 0.0
C2029 C 0.37774 0.02411 0.71457 0.0
C2030 C 0.41073 0.03861 0.72281 0.0
C2031 C 0.40762 0.02548 0.74175 0.0
H2032 H 0.39913 0.04823 0.69482 0.0
H2033 H 0.42461 0.04944 0.71823 0.0
S2034 S 0.36234 0.98739 0.76402 0.0
N2035 N 0.35741 0.99749 0.74097 0.0
N2036 N 0.38492 0.99895 0.76606 0.0
C2037 C 0.38941 0.01179 0.74735 0.0
C2038 C 0.3745 0.01108 0.73381 0.0
C2039 C 0.97764 0.36385 0.73222 0.0
C2040 C 0.99026 0.3655 0.71319 0.0
C2041 C 0.98086 0.37927 0.74745 0.0
C2042 C 0.99673 0.39685 0.74393 0.0
H2043 H 0.96555 0.35047 0.73595 0.0
H2044 H 0.97118 0.37722 0.76271 0.0
S2045 S 0.03274 0.40845 0.69408 0.0
N2046 N 0.01843 0.38591 0.69024 0.0
N2047 N 0.02421 0.41511 0.71795 0.0
C2048 C 0.00897 0.3987 0.72396 0.0
C2049 C 0.0058 0.38295 0.70882 0.0
C2050 C 0.64381 0.6195 0.72985 0.0
C2051 C 0.64321 0.62893 0.70806 0.0
C2052 C 0.6277 0.60729 0.74331 0.0
C2053 C 0.61051 0.60425 0.73546 0.0
H2054 H 0.65686 0.622 0.73698 0.0
H2055 H 0.6288 0.60082 0.76062 0.0
S2056 S 0.6018 0.62472 0.67817 0.0
N2057 N 0.62427 0.63385 0.6783 0.0
N2058 N 0.59391 0.61078 0.70328 0.0
C2059 C 0.60979 0.61315 0.71303 0.0
C2060 C 0.62617 0.62554 0.69942 0.0
C2061 C 0.67847 0.70246 0.62277 0.0
C2062 C 0.68878 0.70541 0.64544 0.0
C2063 C 0.67896 0.71724 0.60991 0.0
C2064 C 0.68969 0.73562 0.61922 0.0
H2065 H 0.67011 0.68863 0.61457 0.0
H2066 H 0.67115 0.71423 0.59214 0.0
S2067 S 0.71833 0.75077 0.67877 0.0
N2068 N 0.7096 0.72811 0.67722 0.0
N2069 N 0.71022 0.75585 0.65328 0.0
C2070 C 0.69985 0.73877 0.64213 0.0
C2071 C 0.69945 0.72369 0.65518 0.0
C2072 C 0.28916 0.968 0.64735 0.0
C2073 C 0.30704 0.98039 0.63839 0.0
C2074 C 0.27697 0.95212 0.63282 0.0
C2075 C 0.28219 0.94809 0.60876 0.0
H2076 H 0.28465 0.97037 0.66598 0.0
H2077 H 0.26349 0.94275 0.64071 0.0
S2078 S 0.32665 0.97728 0.57522 0.0
N2079 N 0.32886 0.98824 0.60307 0.0
N2080 N 0.30586 0.95868 0.57558 0.0
C2081 C 0.2998 0.96073 0.59919 0.0
C2082 C 0.31223 0.9768 0.61404 0.0
C2083 C 0.03037 0.31525 0.64663 0.0
C2084 C 0.02397 0.32734 0.64136 0.0
C2085 C 0.04571 0.31681 0.63365 0.0
C2086 C 0.05532 0.33062 0.61509 0.0
H2087 H 0.0235 0.30449 0.66089 0.0
H2088 H 0.05016 0.30722 0.63827 0.0
S2089 S 0.04369 0.36507 0.59302 0.0
N2090 N 0.02825 0.35323 0.61547 0.0
N2091 N 0.05685 0.35599 0.59117 0.0
C2092 C 0.04898 0.34265 0.60946 0.0
C2093 C 0.03338 0.34106 0.62255 0.0
C2094 C 0.27954 0.30326 0.64688 0.0
C2095 C 0.29777 0.31556 0.63914 0.0
C2096 C 0.2647 0.30282 0.63431 0.0
C2097 C 0.26756 0.31469 0.61359 0.0
H2098 H 0.27667 0.29403 0.66294 0.0
H2099 H 0.25091 0.29327 0.64104 0.0
S2100 S 0.31244 0.34816 0.58417 0.0
N2101 N 0.31768 0.33911 0.60833 0.0
N2102 N 0.2899 0.33809 0.58469 0.0
C2103 C 0.28568 0.32672 0.6053 0.0
C2104 C 0.30075 0.3272 0.61806 0.0
C2105 C 0.6897 0.96732 0.65028 0.0
C2106 C 0.68324 0.97871 0.6416 0.0
C2107 C 0.68702 0.9519 0.63546 0.0
C2108 C 0.67779 0.94738 0.6115 0.0
H2109 H 0.69645 0.97002 0.66894 0.0
H2110 H 0.69179 0.9432 0.6431 0.0
S2111 S 0.66049 0.97422 0.57848 0.0
N2112 N 0.6687 0.98532 0.60638 0.0
N2113 N 0.66388 0.95659 0.5786 0.0
C2114 C 0.67201 0.95914 0.60214 0.0
C2115 C 0.67468 0.97475 0.61716 0.0
C2116 C 0.03274 0.72148 0.65369 0.0
C2117 C 0.02404 0.70232 0.64803 0.0
C2118 C 0.04871 0.73437 0.64047 0.0
C2119 C 0.05664 0.7285 0.62142 0.0
H2120 H 0.02723 0.72657 0.6685 0.0
H2121 H 0.05505 0.74897 0.64545 0.0
S2122 S 0.0388 0.68021 0.59815 0.0
N2123 N 0.0243 0.67835 0.62108 0.0
N2124 N 0.05422 0.70255 0.59654 0.0
C2125 C 0.04794 0.70949 0.61526 0.0
C2126 C 0.03166 0.69641 0.62848 0.0
C2127 C 0.99329 0.62554 0.71517 0.0
C2128 C 0.97771 0.62718 0.71387 0.0
C2129 C 0.99279 0.61078 0.72814 0.0
C2130 C 0.9768 0.59735 0.74094 0.0
H2131 H 0.00601 0.63581 0.70618 0.0
H2132 H 0.00515 0.61008 0.7285 0.0
S2133 S 0.93258 0.59635 0.74424 0.0
N2134 N 0.94592 0.61447 0.72622 0.0
N2135 N 0.94509 0.5873 0.752 0.0
C2136 C 0.96106 0.5989 0.7396 0.0
C2137 C 0.9615 0.6137 0.72576 0.0
C2138 C 0.38324 0.36007 0.72711 0.0
C2139 C 0.36905 0.35992 0.71327 0.0
C2140 C 0.39499 0.37525 0.74312 0.0
C2141 C 0.3932 0.39099 0.74534 0.0
H2142 H 0.38491 0.34814 0.7262 0.0
H2143 H 0.4052 0.37438 0.75436 0.0
S2144 S 0.35963 0.39815 0.70959 0.0
N2145 N 0.35448 0.37699 0.70105 0.0
N2146 N 0.37719 0.40606 0.72969 0.0
C2147 C 0.37953 0.39125 0.73038 0.0
C2148 C 0.3673 0.37558 0.71471 0.0
C2149 C 0.64227 0.02741 0.71468 0.0
C2150 C 0.647 0.01367 0.71624 0.0
C2151 C 0.62673 0.02547 0.72759 0.0
C2152 C 0.61525 0.00962 0.74219 0.0
H2153 H 0.65071 0.03983 0.70363 0.0
H2154 H 0.62365 0.03642 0.7261 0.0
S2155 S 0.62171 0.96987 0.75312 0.0
N2156 N 0.63887 0.98373 0.73403 0.0
N2157 N 0.60995 0.98027 0.75817 0.0
C2158 C 0.61981 0.99582 0.74389 0.0
C2159 C 0.6356 0.9978 0.73095 0.0
loop_
_geom_bond_atom_site_label_1
_geom_bond_atom_site_label_2
_geom_bond_distance
_geom_bond_site_symmetry_2
_ccdc_geom_bond_type
Co0 O1 2.216 . S
Co0 O2 2.091 . S
Co0 O4 2.004 1_554 S
Co0 O10 2.021 . S
Co0 O12 2.137 1_454 S
Co0 O13 2.244 1_455 S
O1 Co0 2.216 . S
O1 C8 1.247 . S
O2 Co0 2.091 . S
O2 C8 1.261 . S
C3 O12 1.247 . S
C3 O13 1.272 1_556 S
O4 Co0 2.004 1_556 S
O4 C9 1.259 1_455 S
Co5 O6 2.061 1_554 S
Co5 O11 2.052 . S
Co5 O13 2.135 . S
O6 Co5 2.061 1_556 S
O6 C9 1.235 . S
C7 O10 1.238 1_655 S
C7 O11 1.241 . S
C8 O1 1.247 . S
C8 O2 1.261 . S
C9 O4 1.259 1_655 S
C9 O6 1.235 . S
O10 Co0 2.021 . S
O10 C7 1.238 1_455 S
O11 Co5 2.052 . S
O11 C7 1.241 . S
O12 Co0 2.137 1_656 S
O12 C3 1.247 . S
O13 Co0 2.244 1_655 S
O13 C3 1.272 1_554 S
O13 Co5 2.135 . S
Co14 O15 2.216 1_554 S
Co14 O16 2.091 . S
Co14 O18 2.004 . S
Co14 O24 2.021 1_554 S
Co14 O26 2.137 . S
Co14 O27 2.244 . S
O15 Co14 2.216 1_556 S
O15 C22 1.247 . S
O16 Co14 2.091 . S
O16 C22 1.261 1_554 S
C17 O26 1.247 . S
C17 O27 1.272 . S
O18 Co14 2.004 . S
O18 C23 1.259 . S
Co19 O20 2.061 . S
Co19 O25 2.052 1_554 S
Co19 O27 2.135 . S
O20 Co19 2.061 . S
O20 C23 1.235 . S
C21 O24 1.238 . S
C21 O25 1.241 . S
C22 O15 1.247 . S
C22 O16 1.261 1_556 S
C23 O18 1.259 . S
C23 O20 1.235 . S
O24 Co14 2.021 1_556 S
O24 C21 1.238 . S
O25 Co19 2.052 1_556 S
O25 C21 1.241 . S
O26 Co14 2.137 . S
O26 C17 1.247 . S
O27 Co14 2.244 . S
O27 C17 1.272 . S
O27 Co19 2.135 . S
Co28 O29 2.216 1_554 S
Co28 O30 2.091 . S
Co28 O32 2.004 . S
Co28 O38 2.021 1_554 S
Co28 O40 2.137 1_545 S
Co28 O41 2.244 1_545 S
O29 Co28 2.216 1_556 S
O29 C36 1.247 . S
O30 Co28 2.091 . S
O30 C36 1.261 1_554 S
C31 O40 1.247 . S
C31 O41 1.272 . S
O32 Co28 2.004 . S
O32 C37 1.259 . S
Co33 O34 2.061 . S
Co33 O39 2.052 1_554 S
Co33 O41 2.135 . S
O34 Co33 2.061 . S
O34 C37 1.235 1_565 S
C35 O38 1.238 1_565 S
C35 O39 1.241 . S
C36 O29 1.247 . S
C36 O30 1.261 1_556 S
C37 O32 1.259 . S
C37 O34 1.235 1_545 S
O38 Co28 2.021 1_556 S
O38 C35 1.238 1_545 S
O39 Co33 2.052 1_556 S
O39 C35 1.241 . S
O40 Co28 2.137 1_565 S
O40 C31 1.247 . S
O41 Co28 2.244 1_565 S
O41 C31 1.272 . S
O41 Co33 2.135 . S
Co42 O43 2.216 1_554 S
Co42 O44 2.091 . S
Co42 O46 2.004 . S
Co42 O52 2.021 1_554 S
Co42 O54 2.137 1_655 S
Co42 O55 2.244 1_655 S
O43 Co42 2.216 1_556 S
O43 C50 1.247 . S
O44 Co42 2.091 . S
O44 C50 1.261 1_554 S
C45 O54 1.247 . S
C45 O55 1.272 . S
O46 Co42 2.004 . S
O46 C51 1.259 1_655 S
Co47 O48 2.061 . S
Co47 O53 2.052 1_554 S
Co47 O55 2.135 . S
O48 Co47 2.061 . S
O48 C51 1.235 . S
C49 O52 1.238 1_455 S
C49 O53 1.241 . S
C50 O43 1.247 . S
C50 O44 1.261 1_556 S
C51 O46 1.259 1_455 S
C51 O48 1.235 . S
O52 Co42 2.021 1_556 S
O52 C49 1.238 1_655 S
O53 Co47 2.052 1_556 S
O53 C49 1.241 . S
O54 Co42 2.137 1_455 S
O54 C45 1.247 . S
O55 Co42 2.244 1_455 S
O55 C45 1.272 . S
O55 Co47 2.135 . S
Co56 O57 2.216 . S
Co56 O58 2.091 . S
Co56 O60 2.004 1_554 S
Co56 O66 2.021 . S
Co56 O68 2.137 1_554 S
Co56 O69 2.244 . S
O57 Co56 2.216 . S
O57 C64 1.247 . S
O58 Co56 2.091 . S
O58 C64 1.261 . S
C59 O68 1.247 . S
C59 O69 1.272 1_556 S
O60 Co56 2.004 1_556 S
O60 C65 1.259 . S
Co61 O62 2.061 1_554 S
Co61 O67 2.052 . S
Co61 O69 2.135 . S
O62 Co61 2.061 1_556 S
O62 C65 1.235 . S
C63 O66 1.238 . S
C63 O67 1.241 . S
C64 O57 1.247 . S
C64 O58 1.261 . S
C65 O60 1.259 . S
C65 O62 1.235 . S
O66 Co56 2.021 . S
O66 C63 1.238 . S
O67 Co61 2.052 . S
O67 C63 1.241 . S
O68 Co56 2.137 1_556 S
O68 C59 1.247 . S
O69 Co56 2.244 . S
O69 C59 1.272 1_554 S
O69 Co61 2.135 . S
Co70 O71 2.216 . S
Co70 O72 2.091 . S
Co70 O74 2.004 1_554 S
Co70 O80 2.021 . S
Co70 O82 2.137 1_564 S
Co70 O83 2.244 1_565 S
O71 Co70 2.216 . S
O71 C78 1.247 . S
O72 Co70 2.091 . S
O72 C78 1.261 . S
C73 O82 1.247 . S
C73 O83 1.272 1_556 S
O74 Co70 2.004 1_556 S
O74 C79 1.259 1_565 S
Co75 O76 2.061 1_554 S
Co75 O81 2.052 . S
Co75 O83 2.135 . S
O76 Co75 2.061 1_556 S
O76 C79 1.235 . S
C77 O80 1.238 1_545 S
C77 O81 1.241 . S
C78 O71 1.247 . S
C78 O72 1.261 . S
C79 O74 1.259 1_545 S
C79 O76 1.235 . S
O80 Co70 2.021 . S
O80 C77 1.238 1_565 S
O81 Co75 2.052 . S
O81 C77 1.241 . S
O82 Co70 2.137 1_546 S
O82 C73 1.247 . S
O83 Co70 2.244 1_545 S
O83 C73 1.272 1_554 S
O83 Co75 2.135 . S
Co84 O85 2.216 . S
Co84 O86 2.091 . S
Co84 O88 2.004 . S
Co84 O94 2.021 . S
Co84 O96 2.137 . S
Co84 O97 2.244 . S
O85 Co84 2.216 . S
O85 C92 1.247 . S
O86 Co84 2.091 . S
O86 C92 1.261 . S
C87 O96 1.247 . S
C87 O97 1.272 . S
O88 Co84 2.004 . S
O88 C93 1.259 . S
Co89 O90 2.061 . S
Co89 O95 2.052 . S
Co89 O97 2.135 . S
O90 Co89 2.061 . S
O90 C93 1.235 . S
C91 O94 1.238 . S
C91 O95 1.241 . S
C92 O85 1.247 . S
C92 O86 1.261 . S
C93 O88 1.259 . S
C93 O90 1.235 . S
O94 Co84 2.021 . S
O94 C91 1.238 . S
O95 Co89 2.052 . S
O95 C91 1.241 . S
O96 Co84 2.137 . S
O96 C87 1.247 . S
O97 Co84 2.244 . S
O97 C87 1.272 . S
O97 Co89 2.135 . S
Co98 O99 2.216 . S
Co98 O100 2.091 . S
Co98 O102 2.004 . S
Co98 O108 2.021 . S
Co98 O110 2.132 1_565 S
Co98 O111 2.244 . S
O99 Co98 2.216 . S
O99 C106 1.247 . S
O100 Co98 2.091 . S
O100 C106 1.261 . S
C101 O110 1.252 . S
C101 O111 1.272 1_545 S
O102 Co98 2.004 . S
O102 C107 1.259 . S
Co103 O104 2.061 . S
Co103 O109 2.052 . S
Co103 O111 2.135 . S
O104 Co103 2.061 . S
O104 C107 1.235 . S
C105 O108 1.238 . S
C105 O109 1.241 . S
C106 O99 1.247 . S
C106 O100 1.261 . S
C107 O102 1.259 . S
C107 O104 1.235 . S
O108 Co98 2.021 . S
O108 C105 1.238 . S
O109 Co103 2.052 . S
O109 C105 1.241 . S
O110 Co98 2.132 1_545 S
O110 C101 1.252 . S
O111 Co98 2.244 . S
O111 C101 1.272 1_565 S
O111 Co103 2.135 . S
Co112 O113 2.216 . S
Co112 O114 2.091 . S
Co112 O116 2.004 . S
Co112 O122 2.021 . S
Co112 O124 2.137 . S
Co112 O125 2.244 . S
O113 Co112 2.216 . S
O113 C120 1.247 . S
O114 Co112 2.091 . S
O114 C120 1.261 . S
C115 O124 1.247 1_655 S
C115 O125 1.272 1_655 S
O116 Co112 2.004 . S
O116 C121 1.259 . S
Co117 O118 2.061 . S
Co117 O123 2.052 . S
Co117 O125 2.135 . S
O118 Co117 2.061 . S
O118 C121 1.235 . S
C119 O122 1.238 . S
C119 O123 1.241 . S
C120 O113 1.247 . S
C120 O114 1.261 . S
C121 O116 1.259 . S
C121 O118 1.235 . S
O122 Co112 2.021 . S
O122 C119 1.238 . S
O123 Co117 2.052 . S
O123 C119 1.241 . S
O124 Co112 2.137 . S
O124 C115 1.247 1_455 S
O125 Co112 2.244 . S
O125 C115 1.272 1_455 S
O125 Co117 2.135 . S
Co126 O127 2.216 . S
Co126 O128 2.091 . S
Co126 O130 2.004 . S
Co126 O136 2.021 . S
Co126 O138 2.109 1_565 S
Co126 O139 2.244 . S
O127 Co126 2.216 . S
O127 C134 1.247 . S
O128 Co126 2.091 . S
O128 C134 1.261 . S
C129 O138 1.237 . S
C129 O139 1.272 1_545 S
O130 Co126 2.004 . S
O130 C135 1.259 . S
Co131 O132 2.061 . S
Co131 O137 2.052 . S
Co131 O139 2.135 . S
O132 Co131 2.061 . S
O132 C135 1.235 . S
C133 O136 1.238 . S
C133 O137 1.241 . S
C134 O127 1.247 . S
C134 O128 1.261 . S
C135 O130 1.259 . S
C135 O132 1.235 . S
O136 Co126 2.021 . S
O136 C133 1.238 . S
O137 Co131 2.052 . S
O137 C133 1.241 . S
O138 Co126 2.109 1_545 S
O138 C129 1.237 . S
O139 Co126 2.244 . S
O139 C129 1.272 1_565 S
O139 Co131 2.135 . S
Co140 O141 2.216 1_455 S
Co140 O142 2.091 1_455 S
Co140 O144 2.004 . S
Co140 O150 2.021 . S
Co140 O152 2.137 . S
Co140 O153 2.244 . S
O141 Co140 2.216 1_655 S
O141 C148 1.247 . S
O142 Co140 2.091 1_655 S
O142 C148 1.261 . S
C143 O152 1.247 . S
C143 O153 1.272 . S
O144 Co140 2.004 . S
O144 C149 1.259 . S
Co145 O146 2.061 . S
Co145 O151 2.052 . S
Co145 O153 2.135 . S
O146 Co145 2.061 . S
O146 C149 1.235 . S
C147 O150 1.238 . S
C147 O151 1.241 . S
C148 O141 1.247 . S
C148 O142 1.261 . S
C149 O144 1.259 . S
C149 O146 1.235 . S
O150 Co140 2.021 . S
O150 C147 1.238 . S
O151 Co145 2.052 . S
O151 C147 1.241 . S
O152 Co140 2.137 . S
O152 C143 1.247 . S
O153 Co140 2.244 . S
O153 C143 1.272 . S
O153 Co145 2.135 . S
Co154 O155 2.216 . S
Co154 O156 2.091 . S
Co154 O158 2.004 . S
Co154 O164 2.021 . S
Co154 O166 2.137 . S
Co154 O167 2.244 . S
O155 Co154 2.216 . S
O155 C162 1.247 . S
O156 Co154 2.091 . S
O156 C162 1.261 . S
C157 O166 1.247 . S
C157 O167 1.272 . S
O158 Co154 2.004 . S
O158 C163 1.259 . S
Co159 O160 2.061 . S
Co159 O165 2.052 . S
Co159 O167 2.135 . S
O160 Co159 2.061 . S
O160 C163 1.235 . S
C161 O164 1.238 . S
C161 O165 1.241 . S
C162 O155 1.247 . S
C162 O156 1.261 . S
C163 O158 1.259 . S
C163 O160 1.235 . S
O164 Co154 2.021 . S
O164 C161 1.238 . S
O165 Co159 2.052 . S
O165 C161 1.241 . S
O166 Co154 2.137 . S
O166 C157 1.247 . S
O167 Co154 2.244 . S
O167 C157 1.272 . S
O167 Co159 2.135 . S
Co168 O169 2.216 . S
Co168 O170 2.091 . S
Co168 O172 2.004 . S
Co168 O178 2.021 . S
Co168 O180 2.137 . S
Co168 O181 2.244 . S
O169 Co168 2.216 . S
O169 C176 1.247 . S
O170 Co168 2.091 . S
O170 C176 1.261 . S
C171 O180 1.247 1_565 S
C171 O181 1.272 1_565 S
O172 Co168 2.004 . S
O172 C177 1.259 . S
Co173 O174 2.061 . S
Co173 O179 2.052 . S
Co173 O181 2.135 . S
O174 Co173 2.061 . S
O174 C177 1.235 . S
C175 O178 1.238 . S
C175 O179 1.241 . S
C176 O169 1.247 . S
C176 O170 1.261 . S
C177 O172 1.259 . S
C177 O174 1.235 . S
O178 Co168 2.021 . S
O178 C175 1.238 . S
O179 Co173 2.052 . S
O179 C175 1.241 . S
O180 Co168 2.137 . S
O180 C171 1.247 1_545 S
O181 Co168 2.244 . S
O181 C171 1.272 1_545 S
O181 Co173 2.135 . S
Co182 O183 2.216 1_655 S
Co182 O184 2.091 1_655 S
Co182 O186 2.004 . S
Co182 O192 2.021 . S
Co182 O194 2.137 . S
Co182 O195 2.244 . S
O183 Co182 2.216 1_455 S
O183 C190 1.247 . S
O184 Co182 2.091 1_455 S
O184 C190 1.261 . S
C185 O194 1.247 . S
C185 O195 1.272 . S
O186 Co182 2.004 . S
O186 C191 1.259 . S
Co187 O188 2.061 . S
Co187 O193 2.052 . S
Co187 O195 2.135 . S
O188 Co187 2.061 . S
O188 C191 1.235 . S
C189 O192 1.238 . S
C189 O193 1.241 . S
C190 O183 1.247 . S
C190 O184 1.261 . S
C191 O186 1.259 . S
C191 O188 1.235 . S
O192 Co182 2.021 . S
O192 C189 1.238 . S
O193 Co187 2.052 . S
O193 C189 1.241 . S
O194 Co182 2.137 . S
O194 C185 1.247 . S
O195 Co182 2.244 . S
O195 C185 1.272 . S
O195 Co187 2.135 . S
Co196 O197 2.216 . S
Co196 O198 2.091 . S
Co196 O200 2.004 . S
Co196 O206 2.021 . S
Co196 O208 2.137 . S
Co196 O209 2.244 . S
O197 Co196 2.216 . S
O197 C204 1.247 . S
O198 Co196 2.091 . S
O198 C204 1.261 . S
C199 O208 1.247 . S
C199 O209 1.272 . S
O200 Co196 2.004 . S
O200 C205 1.259 . S
Co201 O202 2.061 . S
Co201 O207 2.052 . S
Co201 O209 2.135 . S
O202 Co201 2.061 . S
O202 C205 1.235 . S
C203 O206 1.238 . S
C203 O207 1.241 . S
C204 O197 1.247 . S
C204 O198 1.261 . S
C205 O200 1.259 . S
C205 O202 1.235 . S
O206 Co196 2.021 . S
O206 C203 1.238 . S
O207 Co201 2.052 . S
O207 C203 1.241 . S
O208 Co196 2.137 . S
O208 C199 1.247 . S
O209 Co196 2.244 . S
O209 C199 1.272 . S
O209 Co201 2.135 . S
Co210 O211 2.216 . S
Co210 O212 2.091 . S
Co210 O214 2.004 . S
Co210 O220 2.021 . S
Co210 O222 2.137 . S
Co210 O223 2.244 . S
O211 Co210 2.216 . S
O211 C218 1.247 . S
O212 Co210 2.091 . S
O212 C218 1.261 . S
C213 O222 1.247 . S
C213 O223 1.272 . S
O214 Co210 2.004 . S
O214 C219 1.259 . S
Co215 O216 2.061 . S
Co215 O221 2.052 . S
Co215 O223 2.135 . S
O216 Co215 2.061 . S
O216 C219 1.235 . S
C217 O220 1.238 . S
C217 O221 1.241 . S
C218 O211 1.247 . S
C218 O212 1.261 . S
C219 O214 1.259 . S
C219 O216 1.235 . S
O220 Co210 2.021 . S
O220 C217 1.238 . S
O221 Co215 2.052 . S
O221 C217 1.241 . S
O222 Co210 2.137 . S
O222 C213 1.247 . S
O223 Co210 2.244 . S
O223 C213 1.272 . S
O223 Co215 2.135 . S
Co224 O225 2.216 . S
Co224 O226 2.091 . S
Co224 O228 2.004 . S
Co224 O234 2.021 . S
Co224 O236 2.137 . S
Co224 O237 2.244 . S
O225 Co224 2.216 . S
O225 C232 1.247 . S
O226 Co224 2.091 . S
O226 C232 1.261 . S
C227 O236 1.247 1_565 S
C227 O237 1.272 1_565 S
O228 Co224 2.004 . S
O228 C233 1.259 . S
Co229 O230 2.061 . S
Co229 O235 2.052 . S
Co229 O237 2.135 . S
O230 Co229 2.061 . S
O230 C233 1.235 . S
C231 O234 1.238 . S
C231 O235 1.241 . S
C232 O225 1.247 . S
C232 O226 1.261 . S
C233 O228 1.259 . S
C233 O230 1.235 . S
O234 Co224 2.021 . S
O234 C231 1.238 . S
O235 Co229 2.052 . S
O235 C231 1.241 . S
O236 Co224 2.137 . S
O236 C227 1.247 1_545 S
O237 Co224 2.244 . S
O237 C227 1.272 1_545 S
O237 Co229 2.135 . S
Co238 O239 2.216 . S
Co238 O240 2.091 . S
Co238 O242 2.004 . S
Co238 O248 2.021 . S
Co238 O250 2.137 . S
Co238 O251 2.244 . S
O239 Co238 2.216 . S
O239 C246 1.247 . S
O240 Co238 2.091 . S
O240 C246 1.261 . S
C241 O250 1.266 1_455 S
C241 O251 1.219 1_455 S
O242 Co238 2.004 . S
O242 C247 1.259 . S
Co243 O244 2.061 . S
Co243 O249 2.052 . S
Co243 O251 2.135 . S
O244 Co243 2.061 . S
O244 C247 1.235 . S
C245 O248 1.238 . S
C245 O249 1.241 . S
C246 O239 1.247 . S
C246 O240 1.261 . S
C247 O242 1.259 . S
C247 O244 1.235 . S
O248 Co238 2.021 . S
O248 C245 1.238 . S
O249 Co243 2.052 . S
O249 C245 1.241 . S
O250 Co238 2.137 . S
O250 C241 1.266 1_655 S
O251 Co238 2.244 . S
O251 C241 1.219 1_655 S
O251 Co243 2.135 . S
H252 C279 0.929 . S
N253 C278 1.433 . S
N253 C284 1.435 . S
N253 C290 1.423 . S
H254 C280 0.930 . S
H255 C283 0.931 . S
H256 C282 0.929 . S
H257 C285 0.930 . S
H258 C286 0.932 . S
H259 C289 0.929 . S
H260 C288 0.931 . S
H261 C291 0.929 . S
H262 C295 0.932 . S
H263 C292 0.931 . S
H264 C294 0.929 . S
H265 C297 0.929 . S
H266 C298 0.930 . S
H267 C300 0.929 . S
H268 C301 0.931 . S
H269 C303 0.930 . S
H270 C304 0.932 . S
H271 C306 0.931 . S
H272 C307 0.929 . S
H273 C309 0.929 . S
H274 C310 0.931 . S
H275 C312 0.929 . S
N276 C296 1.433 . S
N276 C302 1.435 . S
N276 C308 1.423 . S
H277 C313 0.932 . S
C278 N253 1.433 . S
C278 C279 1.363 . S
C278 C283 1.370 . S
C279 H252 0.929 . S
C279 C278 1.363 . S
C279 C280 1.385 . S
C280 H254 0.930 . S
C280 C279 1.385 . S
C280 C281 1.357 . S
C281 C280 1.357 . S
C281 C282 1.406 . S
C282 H256 0.929 . S
C282 C281 1.406 . S
C282 C283 1.391 . S
C283 H255 0.931 . S
C283 C278 1.370 . S
C283 C282 1.391 . S
C284 N253 1.435 . S
C284 C285 1.358 . S
C284 C289 1.371 . S
C285 H257 0.930 . S
C285 C284 1.358 . S
C285 C286 1.405 . S
C286 H258 0.932 . S
C286 C285 1.405 . S
C286 C287 1.383 . S
C287 C286 1.383 . S
C287 C288 1.393 . S
C288 H260 0.931 . S
C288 C287 1.393 . S
C288 C289 1.382 . S
C289 H259 0.929 . S
C289 C284 1.371 . S
C289 C288 1.382 . S
C290 N253 1.423 . S
C290 C291 1.362 . S
C290 C295 1.388 . S
C291 H261 0.929 . S
C291 C290 1.362 . S
C291 C292 1.376 . S
C292 H263 0.931 . S
C292 C291 1.376 . S
C292 C293 1.396 . S
C293 C292 1.396 . S
C293 C294 1.348 . S
C293 C311 1.472 . S
C294 H264 0.929 . S
C294 C293 1.348 . S
C294 C295 1.443 . S
C295 H262 0.932 . S
C295 C290 1.388 . S
C295 C294 1.443 . S
C296 N276 1.433 . S
C296 C297 1.363 . S
C296 C301 1.370 . S
C297 H265 0.929 . S
C297 C296 1.363 . S
C297 C298 1.385 . S
C298 H266 0.930 . S
C298 C297 1.385 . S
C298 C299 1.357 . S
C299 C298 1.357 . S
C299 C300 1.406 . S
C300 H267 0.929 . S
C300 C299 1.406 . S
C300 C301 1.391 . S
C301 H268 0.931 . S
C301 C296 1.370 . S
C301 C300 1.391 . S
C302 N276 1.435 . S
C302 C303 1.358 . S
C302 C307 1.371 . S
C303 H269 0.930 . S
C303 C302 1.358 . S
C303 C304 1.405 . S
C304 H270 0.932 . S
C304 C303 1.405 . S
C304 C305 1.383 . S
C305 C304 1.383 . S
C305 C306 1.393 . S
C306 H271 0.931 . S
C306 C305 1.393 . S
C306 C307 1.382 . S
C307 H272 0.929 . S
C307 C302 1.371 . S
C307 C306 1.382 . S
C308 N276 1.423 . S
C308 C309 1.362 . S
C308 C313 1.388 . S
C309 H273 0.929 . S
C309 C308 1.362 . S
C309 C310 1.376 . S
C310 H274 0.931 . S
C310 C309 1.376 . S
C310 C311 1.396 . S
C311 C293 1.472 . S
C311 C310 1.396 . S
C311 C312 1.348 . S
C312 H275 0.929 . S
C312 C311 1.348 . S
C312 C313 1.443 . S
C313 H277 0.932 . S
C313 C308 1.388 . S
C313 C312 1.443 . S
H314 C341 0.929 . S
N315 C340 1.433 . S
N315 C346 1.435 . S
N315 C352 1.423 . S
H316 C342 0.930 . S
H317 C345 0.931 . S
H318 C344 0.929 . S
H319 C347 0.930 . S
H320 C348 0.932 . S
H321 C351 0.929 . S
H322 C350 0.931 . S
H323 C353 0.929 . S
H324 C357 0.932 . S
H325 C354 0.931 . S
H326 C356 0.929 . S
H327 C359 0.929 . S
H328 C360 0.930 . S
H329 C362 0.929 . S
H330 C363 0.931 . S
H331 C365 0.930 . S
H332 C366 0.932 . S
H333 C368 0.931 . S
H334 C369 0.929 . S
H335 C371 0.929 . S
H336 C372 0.931 . S
H337 C374 0.929 . S
N338 C358 1.433 . S
N338 C364 1.435 . S
N338 C370 1.423 . S
H339 C375 0.932 . S
C340 N315 1.433 . S
C340 C341 1.363 . S
C340 C345 1.370 . S
C341 H314 0.929 . S
C341 C340 1.363 . S
C341 C342 1.385 . S
C342 H316 0.930 . S
C342 C341 1.385 . S
C342 C343 1.357 . S
C343 C342 1.357 . S
C343 C344 1.406 . S
C344 H318 0.929 . S
C344 C343 1.406 . S
C344 C345 1.391 . S
C345 H317 0.931 . S
C345 C340 1.370 . S
C345 C344 1.391 . S
C346 N315 1.435 . S
C346 C347 1.358 . S
C346 C351 1.371 . S
C347 H319 0.930 . S
C347 C346 1.358 . S
C347 C348 1.405 . S
C348 H320 0.932 . S
C348 C347 1.405 . S
C348 C349 1.383 . S
C349 C348 1.383 . S
C349 C350 1.393 . S
C350 H322 0.931 . S
C350 C349 1.393 . S
C350 C351 1.382 . S
C351 H321 0.929 . S
C351 C346 1.371 . S
C351 C350 1.382 . S
C352 N315 1.423 . S
C352 C353 1.362 . S
C352 C357 1.388 . S
C353 H323 0.929 . S
C353 C352 1.362 . S
C353 C354 1.376 . S
C354 H325 0.931 . S
C354 C353 1.376 . S
C354 C355 1.396 . S
C355 C354 1.396 . S
C355 C356 1.348 . S
C355 C373 1.472 . S
C356 H326 0.929 . S
C356 C355 1.348 . S
C356 C357 1.443 . S
C357 H324 0.932 . S
C357 C352 1.388 . S
C357 C356 1.443 . S
C358 N338 1.433 . S
C358 C359 1.363 . S
C358 C363 1.370 . S
C359 H327 0.929 . S
C359 C358 1.363 . S
C359 C360 1.385 . S
C360 H328 0.930 . S
C360 C359 1.385 . S
C360 C361 1.357 . S
C361 C360 1.357 . S
C361 C362 1.406 . S
C362 H329 0.929 . S
C362 C361 1.406 . S
C362 C363 1.391 . S
C363 H330 0.931 . S
C363 C358 1.370 . S
C363 C362 1.391 . S
C364 N338 1.435 . S
C364 C365 1.358 . S
C364 C369 1.371 . S
C365 H331 0.930 . S
C365 C364 1.358 . S
C365 C366 1.405 . S
C366 H332 0.932 . S
C366 C365 1.405 . S
C366 C367 1.383 . S
C367 C366 1.383 . S
C367 C368 1.393 . S
C368 H333 0.931 . S
C368 C367 1.393 . S
C368 C369 1.382 . S
C369 H334 0.929 . S
C369 C364 1.371 . S
C369 C368 1.382 . S
C370 N338 1.423 . S
C370 C371 1.362 . S
C370 C375 1.388 . S
C371 H335 0.929 . S
C371 C370 1.362 . S
C371 C372 1.376 . S
C372 H336 0.931 . S
C372 C371 1.376 . S
C372 C373 1.396 . S
C373 C355 1.472 . S
C373 C372 1.396 . S
C373 C374 1.348 . S
C374 H337 0.929 . S
C374 C373 1.348 . S
C374 C375 1.443 . S
C375 H339 0.932 . S
C375 C370 1.388 . S
C375 C374 1.443 . S
H376 C403 0.929 . S
N377 C402 1.433 . S
N377 C408 1.435 . S
N377 C414 1.423 . S
H378 C404 0.930 . S
H379 C407 0.931 . S
H380 C406 0.929 . S
H381 C409 0.930 . S
H382 C410 0.932 . S
H383 C413 0.929 . S
H384 C412 0.931 . S
H385 C415 0.929 . S
H386 C419 0.932 . S
H387 C416 0.931 . S
H388 C418 0.929 . S
H389 C421 0.929 . S
H390 C422 0.930 . S
H391 C424 0.929 . S
H392 C425 0.931 . S
H393 C427 0.930 . S
H394 C428 0.932 . S
H395 C430 0.931 . S
H396 C431 0.929 . S
H397 C433 0.929 . S
H398 C434 0.931 . S
H399 C436 0.929 . S
N400 C420 1.433 . S
N400 C426 1.435 . S
N400 C432 1.423 . S
H401 C437 0.932 . S
C402 N377 1.433 . S
C402 C403 1.363 . S
C402 C407 1.370 . S
C403 H376 0.929 . S
C403 C402 1.363 . S
C403 C404 1.385 . S
C404 H378 0.930 . S
C404 C403 1.385 . S
C404 C405 1.357 . S
C405 C404 1.357 . S
C405 C406 1.406 . S
C406 H380 0.929 . S
C406 C405 1.406 . S
C406 C407 1.391 . S
C407 H379 0.931 . S
C407 C402 1.370 . S
C407 C406 1.391 . S
C408 N377 1.435 . S
C408 C409 1.358 . S
C408 C413 1.371 . S
C409 H381 0.930 . S
C409 C408 1.358 . S
C409 C410 1.405 . S
C410 H382 0.932 . S
C410 C409 1.405 . S
C410 C411 1.383 . S
C411 C410 1.383 . S
C411 C412 1.393 . S
C412 H384 0.931 . S
C412 C411 1.393 . S
C412 C413 1.382 . S
C413 H383 0.929 . S
C413 C408 1.371 . S
C413 C412 1.382 . S
C414 N377 1.423 . S
C414 C415 1.362 . S
C414 C419 1.388 . S
C415 H385 0.929 . S
C415 C414 1.362 . S
C415 C416 1.376 . S
C416 H387 0.931 . S
C416 C415 1.376 . S
C416 C417 1.396 . S
C417 C416 1.396 . S
C417 C418 1.348 . S
C417 C435 1.472 . S
C418 H388 0.929 . S
C418 C417 1.348 . S
C418 C419 1.443 . S
C419 H386 0.932 . S
C419 C414 1.388 . S
C419 C418 1.443 . S
C420 N400 1.433 . S
C420 C421 1.363 . S
C420 C425 1.370 . S
C421 H389 0.929 . S
C421 C420 1.363 . S
C421 C422 1.385 . S
C422 H390 0.930 . S
C422 C421 1.385 . S
C422 C423 1.357 . S
C423 C422 1.357 . S
C423 C424 1.406 . S
C424 H391 0.929 . S
C424 C423 1.406 . S
C424 C425 1.391 . S
C425 H392 0.931 . S
C425 C420 1.370 . S
C425 C424 1.391 . S
C426 N400 1.435 . S
C426 C427 1.358 . S
C426 C431 1.371 . S
C427 H393 0.930 . S
C427 C426 1.358 . S
C427 C428 1.405 . S
C428 H394 0.932 . S
C428 C427 1.405 . S
C428 C429 1.383 . S
C429 C428 1.383 . S
C429 C430 1.393 . S
C430 H395 0.931 . S
C430 C429 1.393 . S
C430 C431 1.382 . S
C431 H396 0.929 . S
C431 C426 1.371 . S
C431 C430 1.382 . S
C432 N400 1.423 . S
C432 C433 1.362 . S
C432 C437 1.388 . S
C433 H397 0.929 . S
C433 C432 1.362 . S
C433 C434 1.376 . S
C434 H398 0.931 . S
C434 C433 1.376 . S
C434 C435 1.396 . S
C435 C417 1.472 . S
C435 C434 1.396 . S
C435 C436 1.348 . S
C436 H399 0.929 . S
C436 C435 1.348 . S
C436 C437 1.443 . S
C437 H401 0.932 . S
C437 C432 1.388 . S
C437 C436 1.443 . S
H438 C465 0.929 . S
N439 C464 1.433 . S
N439 C470 1.435 . S
N439 C476 1.423 . S
H440 C466 0.930 . S
H441 C469 0.931 . S
H442 C468 0.929 . S
H443 C471 0.930 . S
H444 C472 0.932 . S
H445 C475 0.929 . S
H446 C474 0.931 . S
H447 C477 0.929 . S
H448 C481 0.932 . S
H449 C478 0.931 . S
H450 C480 0.929 . S
H451 C483 0.929 . S
H452 C484 0.930 . S
H453 C486 0.929 . S
H454 C487 0.931 . S
H455 C489 0.930 . S
H456 C490 0.932 . S
H457 C492 0.931 . S
H458 C493 0.929 . S
H459 C495 0.929 . S
H460 C496 0.931 . S
H461 C498 0.929 . S
N462 C482 1.433 . S
N462 C488 1.435 . S
N462 C494 1.423 . S
H463 C499 0.932 . S
C464 N439 1.433 . S
C464 C465 1.363 . S
C464 C469 1.370 . S
C465 H438 0.929 . S
C465 C464 1.363 . S
C465 C466 1.385 . S
C466 H440 0.930 . S
C466 C465 1.385 . S
C466 C467 1.357 . S
C467 C466 1.357 . S
C467 C468 1.406 . S
C468 H442 0.929 . S
C468 C467 1.406 . S
C468 C469 1.391 . S
C469 H441 0.931 . S
C469 C464 1.370 . S
C469 C468 1.391 . S
C470 N439 1.435 . S
C470 C471 1.358 . S
C470 C475 1.371 . S
C471 H443 0.930 . S
C471 C470 1.358 . S
C471 C472 1.405 . S
C472 H444 0.932 . S
C472 C471 1.405 . S
C472 C473 1.383 . S
C473 C472 1.383 . S
C473 C474 1.393 . S
C474 H446 0.931 . S
C474 C473 1.393 . S
C474 C475 1.382 . S
C475 H445 0.929 . S
C475 C470 1.371 . S
C475 C474 1.382 . S
C476 N439 1.423 . S
C476 C477 1.362 . S
C476 C481 1.388 . S
C477 H447 0.929 . S
C477 C476 1.362 . S
C477 C478 1.376 . S
C478 H449 0.931 . S
C478 C477 1.376 . S
C478 C479 1.396 . S
C479 C478 1.396 . S
C479 C480 1.348 . S
C479 C497 1.472 . S
C480 H450 0.929 . S
C480 C479 1.348 . S
C480 C481 1.443 . S
C481 H448 0.932 . S
C481 C476 1.388 . S
C481 C480 1.443 . S
C482 N462 1.433 . S
C482 C483 1.363 . S
C482 C487 1.370 . S
C483 H451 0.929 . S
C483 C482 1.363 . S
C483 C484 1.385 . S
C484 H452 0.930 . S
C484 C483 1.385 . S
C484 C485 1.357 . S
C485 C484 1.357 . S
C485 C486 1.406 . S
C486 H453 0.929 . S
C486 C485 1.406 . S
C486 C487 1.391 . S
C487 H454 0.931 . S
C487 C482 1.370 . S
C487 C486 1.391 . S
C488 N462 1.435 . S
C488 C489 1.358 . S
C488 C493 1.371 . S
C489 H455 0.930 . S
C489 C488 1.358 . S
C489 C490 1.405 . S
C490 H456 0.932 . S
C490 C489 1.405 . S
C490 C491 1.383 . S
C491 C490 1.383 . S
C491 C492 1.393 . S
C492 H457 0.931 . S
C492 C491 1.393 . S
C492 C493 1.382 . S
C493 H458 0.929 . S
C493 C488 1.371 . S
C493 C492 1.382 . S
C494 N462 1.423 . S
C494 C495 1.362 . S
C494 C499 1.388 . S
C495 H459 0.929 . S
C495 C494 1.362 . S
C495 C496 1.376 . S
C496 H460 0.931 . S
C496 C495 1.376 . S
C496 C497 1.396 . S
C497 C479 1.472 . S
C497 C496 1.396 . S
C497 C498 1.348 . S
C498 H461 0.929 . S
C498 C497 1.348 . S
C498 C499 1.443 . S
C499 H463 0.932 . S
C499 C494 1.388 . S
C499 C498 1.443 . S
H500 C527 0.929 . S
N501 C526 1.433 . S
N501 C532 1.435 . S
N501 C538 1.423 . S
H502 C528 0.930 . S
H503 C531 0.931 . S
H504 C530 0.929 . S
H505 C533 0.930 . S
H506 C534 0.932 . S
H507 C537 0.929 . S
H508 C536 0.931 . S
H509 C539 0.929 . S
H510 C543 0.932 . S
H511 C540 0.931 . S
H512 C542 0.929 . S
H513 C545 0.929 . S
H514 C546 0.930 . S
H515 C548 0.929 . S
H516 C549 0.931 . S
H517 C551 0.930 . S
H518 C552 0.932 . S
H519 C554 0.931 . S
H520 C555 0.929 . S
H521 C557 0.929 . S
H522 C558 0.931 . S
H523 C560 0.929 . S
N524 C544 1.433 . S
N524 C550 1.435 . S
N524 C556 1.423 . S
H525 C561 0.932 . S
C526 N501 1.433 . S
C526 C527 1.363 . S
C526 C531 1.370 . S
C527 H500 0.929 . S
C527 C526 1.363 . S
C527 C528 1.385 . S
C528 H502 0.930 . S
C528 C527 1.385 . S
C528 C529 1.357 . S
C529 C528 1.357 . S
C529 C530 1.406 . S
C530 H504 0.929 . S
C530 C529 1.406 . S
C530 C531 1.391 . S
C531 H503 0.931 . S
C531 C526 1.370 . S
C531 C530 1.391 . S
C532 N501 1.435 . S
C532 C533 1.358 . S
C532 C537 1.371 . S
C533 H505 0.930 . S
C533 C532 1.358 . S
C533 C534 1.405 . S
C534 H506 0.932 . S
C534 C533 1.405 . S
C534 C535 1.383 . S
C535 C534 1.383 . S
C535 C536 1.393 . S
C536 H508 0.931 . S
C536 C535 1.393 . S
C536 C537 1.382 . S
C537 H507 0.929 . S
C537 C532 1.371 . S
C537 C536 1.382 . S
C538 N501 1.423 . S
C538 C539 1.362 . S
C538 C543 1.388 . S
C539 H509 0.929 . S
C539 C538 1.362 . S
C539 C540 1.376 . S
C540 H511 0.931 . S
C540 C539 1.376 . S
C540 C541 1.396 . S
C541 C540 1.396 . S
C541 C542 1.348 . S
C541 C559 1.472 . S
C542 H512 0.929 . S
C542 C541 1.348 . S
C542 C543 1.443 . S
C543 H510 0.932 . S
C543 C538 1.388 . S
C543 C542 1.443 . S
C544 N524 1.433 . S
C544 C545 1.363 . S
C544 C549 1.370 . S
C545 H513 0.929 . S
C545 C544 1.363 . S
C545 C546 1.385 . S
C546 H514 0.930 . S
C546 C545 1.385 . S
C546 C547 1.357 . S
C547 C546 1.357 . S
C547 C548 1.406 . S
C548 H515 0.929 . S
C548 C547 1.406 . S
C548 C549 1.391 . S
C549 H516 0.931 . S
C549 C544 1.370 . S
C549 C548 1.391 . S
C550 N524 1.435 . S
C550 C551 1.358 . S
C550 C555 1.371 . S
C551 H517 0.930 . S
C551 C550 1.358 . S
C551 C552 1.405 . S
C552 H518 0.932 . S
C552 C551 1.405 . S
C552 C553 1.383 . S
C553 C552 1.383 . S
C553 C554 1.393 . S
C554 H519 0.931 . S
C554 C553 1.393 . S
C554 C555 1.382 . S
C555 H520 0.929 . S
C555 C550 1.371 . S
C555 C554 1.382 . S
C556 N524 1.423 . S
C556 C557 1.362 . S
C556 C561 1.388 . S
C557 H521 0.929 . S
C557 C556 1.362 . S
C557 C558 1.376 . S
C558 H522 0.931 . S
C558 C557 1.376 . S
C558 C559 1.396 . S
C559 C541 1.472 . S
C559 C558 1.396 . S
C559 C560 1.348 . S
C560 H523 0.929 . S
C560 C559 1.348 . S
C560 C561 1.443 . S
C561 H525 0.932 . S
C561 C556 1.388 . S
C561 C560 1.443 . S
H562 C589 0.929 . S
N563 C588 1.433 . S
N563 C594 1.435 . S
N563 C600 1.423 . S
H564 C590 0.930 . S
H565 C593 0.931 . S
H566 C592 0.929 . S
H567 C595 0.930 . S
H568 C596 0.932 . S
H569 C599 0.929 . S
H570 C598 0.931 . S
H571 C601 0.929 . S
H572 C605 0.932 . S
H573 C602 0.931 . S
H574 C604 0.929 . S
H575 C607 0.929 . S
H576 C608 0.930 . S
H577 C610 0.929 . S
H578 C611 0.931 . S
H579 C613 0.930 . S
H580 C614 0.932 . S
H581 C616 0.931 . S
H582 C617 0.929 . S
H583 C619 0.929 . S
H584 C620 0.931 . S
H585 C622 0.929 . S
N586 C606 1.433 . S
N586 C612 1.435 . S
N586 C618 1.423 . S
H587 C623 0.932 . S
C588 N563 1.433 . S
C588 C589 1.363 . S
C588 C593 1.370 . S
C589 H562 0.929 . S
C589 C588 1.363 . S
C589 C590 1.385 . S
C590 H564 0.930 . S
C590 C589 1.385 . S
C590 C591 1.357 . S
C591 C590 1.357 . S
C591 C592 1.406 . S
C592 H566 0.929 . S
C592 C591 1.406 . S
C592 C593 1.391 . S
C593 H565 0.931 . S
C593 C588 1.370 . S
C593 C592 1.391 . S
C594 N563 1.435 . S
C594 C595 1.358 . S
C594 C599 1.371 . S
C595 H567 0.930 . S
C595 C594 1.358 . S
C595 C596 1.405 . S
C596 H568 0.932 . S
C596 C595 1.405 . S
C596 C597 1.383 . S
C597 C596 1.383 . S
C597 C598 1.393 . S
C598 H570 0.931 . S
C598 C597 1.393 . S
C598 C599 1.382 . S
C599 H569 0.929 . S
C599 C594 1.371 . S
C599 C598 1.382 . S
C600 N563 1.423 . S
C600 C601 1.362 . S
C600 C605 1.388 . S
C601 H571 0.929 . S
C601 C600 1.362 . S
C601 C602 1.376 . S
C602 H573 0.931 . S
C602 C601 1.376 . S
C602 C603 1.396 . S
C603 C602 1.396 . S
C603 C604 1.348 . S
C603 C621 1.472 . S
C604 H574 0.929 . S
C604 C603 1.348 . S
C604 C605 1.443 . S
C605 H572 0.932 . S
C605 C600 1.388 . S
C605 C604 1.443 . S
C606 N586 1.433 . S
C606 C607 1.363 . S
C606 C611 1.370 . S
C607 H575 0.929 . S
C607 C606 1.363 . S
C607 C608 1.385 . S
C608 H576 0.930 . S
C608 C607 1.385 . S
C608 C609 1.357 . S
C609 C608 1.357 . S
C609 C610 1.406 . S
C610 H577 0.929 . S
C610 C609 1.406 . S
C610 C611 1.391 . S
C611 H578 0.931 . S
C611 C606 1.370 . S
C611 C610 1.391 . S
C612 N586 1.435 . S
C612 C613 1.358 . S
C612 C617 1.371 . S
C613 H579 0.930 . S
C613 C612 1.358 . S
C613 C614 1.405 . S
C614 H580 0.932 . S
C614 C613 1.405 . S
C614 C615 1.383 . S
C615 C614 1.383 . S
C615 C616 1.393 . S
C616 H581 0.931 . S
C616 C615 1.393 . S
C616 C617 1.382 . S
C617 H582 0.929 . S
C617 C612 1.371 . S
C617 C616 1.382 . S
C618 N586 1.423 . S
C618 C619 1.362 . S
C618 C623 1.388 . S
C619 H583 0.929 . S
C619 C618 1.362 . S
C619 C620 1.376 . S
C620 H584 0.931 . S
C620 C619 1.376 . S
C620 C621 1.396 . S
C621 C603 1.472 . S
C621 C620 1.396 . S
C621 C622 1.348 . S
C622 H585 0.929 . S
C622 C621 1.348 . S
C622 C623 1.443 . S
C623 H587 0.932 . S
C623 C618 1.388 . S
C623 C622 1.443 . S
H624 C651 0.929 . S
N625 C650 1.433 . S
N625 C656 1.435 . S
N625 C662 1.423 . S
H626 C652 0.930 . S
H627 C655 0.931 . S
H628 C654 0.929 . S
H629 C657 0.930 . S
H630 C658 0.932 . S
H631 C661 0.929 . S
H632 C660 0.931 . S
H633 C663 0.929 . S
H634 C667 0.932 . S
H635 C664 0.931 . S
H636 C666 0.929 . S
H637 C669 0.929 . S
H638 C670 0.930 . S
H639 C672 0.929 . S
H640 C673 0.931 . S
H641 C675 0.930 . S
H642 C676 0.932 . S
H643 C678 0.931 . S
H644 C679 0.929 . S
H645 C681 0.929 . S
H646 C682 0.931 . S
H647 C684 0.929 . S
N648 C668 1.433 . S
N648 C674 1.435 . S
N648 C680 1.423 . S
H649 C685 0.932 . S
C650 N625 1.433 . S
C650 C651 1.363 . S
C650 C655 1.370 . S
C651 H624 0.929 . S
C651 C650 1.363 . S
C651 C652 1.385 . S
C652 H626 0.930 . S
C652 C651 1.385 . S
C652 C653 1.357 . S
C653 C652 1.357 . S
C653 C654 1.406 . S
C654 H628 0.929 . S
C654 C653 1.406 . S
C654 C655 1.391 . S
C655 H627 0.931 . S
C655 C650 1.370 . S
C655 C654 1.391 . S
C656 N625 1.435 . S
C656 C657 1.358 . S
C656 C661 1.371 . S
C657 H629 0.930 . S
C657 C656 1.358 . S
C657 C658 1.405 . S
C658 H630 0.932 . S
C658 C657 1.405 . S
C658 C659 1.383 . S
C659 C658 1.383 . S
C659 C660 1.393 . S
C660 H632 0.931 . S
C660 C659 1.393 . S
C660 C661 1.382 . S
C661 H631 0.929 . S
C661 C656 1.371 . S
C661 C660 1.382 . S
C662 N625 1.423 . S
C662 C663 1.362 . S
C662 C667 1.388 . S
C663 H633 0.929 . S
C663 C662 1.362 . S
C663 C664 1.376 . S
C664 H635 0.931 . S
C664 C663 1.376 . S
C664 C665 1.396 . S
C665 C664 1.396 . S
C665 C666 1.348 . S
C665 C683 1.472 . S
C666 H636 0.929 . S
C666 C665 1.348 . S
C666 C667 1.443 . S
C667 H634 0.932 . S
C667 C662 1.388 . S
C667 C666 1.443 . S
C668 N648 1.433 . S
C668 C669 1.363 . S
C668 C673 1.370 . S
C669 H637 0.929 . S
C669 C668 1.363 . S
C669 C670 1.385 . S
C670 H638 0.930 . S
C670 C669 1.385 . S
C670 C671 1.357 . S
C671 C670 1.357 . S
C671 C672 1.406 . S
C672 H639 0.929 . S
C672 C671 1.406 . S
C672 C673 1.391 . S
C673 H640 0.931 . S
C673 C668 1.370 . S
C673 C672 1.391 . S
C674 N648 1.435 . S
C674 C675 1.358 . S
C674 C679 1.371 . S
C675 H641 0.930 . S
C675 C674 1.358 . S
C675 C676 1.405 . S
C676 H642 0.932 . S
C676 C675 1.405 . S
C676 C677 1.383 . S
C677 C676 1.383 . S
C677 C678 1.393 . S
C678 H643 0.931 . S
C678 C677 1.393 . S
C678 C679 1.382 . S
C679 H644 0.929 . S
C679 C674 1.371 . S
C679 C678 1.382 . S
C680 N648 1.423 . S
C680 C681 1.362 . S
C680 C685 1.388 . S
C681 H645 0.929 . S
C681 C680 1.362 . S
C681 C682 1.376 . S
C682 H646 0.931 . S
C682 C681 1.376 . S
C682 C683 1.396 . S
C683 C665 1.472 . S
C683 C682 1.396 . S
C683 C684 1.348 . S
C684 H647 0.929 . S
C684 C683 1.348 . S
C684 C685 1.443 . S
C685 H649 0.932 . S
C685 C680 1.388 . S
C685 C684 1.443 . S
H686 C713 0.929 . S
N687 C712 1.433 . S
N687 C718 1.435 . S
N687 C724 1.423 . S
H688 C714 0.930 . S
H689 C717 0.931 . S
H690 C716 0.929 . S
H691 C719 0.930 . S
H692 C720 0.932 . S
H693 C723 0.929 . S
H694 C722 0.931 . S
H695 C725 0.929 . S
H696 C729 0.932 . S
H697 C726 0.931 . S
H698 C728 0.929 . S
H699 C731 0.929 . S
H700 C732 0.930 . S
H701 C734 0.929 . S
H702 C735 0.931 . S
H703 C737 0.930 . S
H704 C738 0.932 . S
H705 C740 0.931 . S
H706 C741 0.929 . S
H707 C743 0.929 . S
H708 C744 0.931 . S
H709 C746 0.929 . S
N710 C730 1.433 . S
N710 C736 1.435 . S
N710 C742 1.423 . S
H711 C747 0.932 . S
C712 N687 1.433 . S
C712 C713 1.363 . S
C712 C717 1.370 . S
C713 H686 0.929 . S
C713 C712 1.363 . S
C713 C714 1.385 . S
C714 H688 0.930 . S
C714 C713 1.385 . S
C714 C715 1.357 . S
C715 C714 1.357 . S
C715 C716 1.406 . S
C716 H690 0.929 . S
C716 C715 1.406 . S
C716 C717 1.391 . S
C717 H689 0.931 . S
C717 C712 1.370 . S
C717 C716 1.391 . S
C718 N687 1.435 . S
C718 C719 1.358 . S
C718 C723 1.371 . S
C719 H691 0.930 . S
C719 C718 1.358 . S
C719 C720 1.405 . S
C720 H692 0.932 . S
C720 C719 1.405 . S
C720 C721 1.383 . S
C721 C720 1.383 . S
C721 C722 1.393 . S
C722 H694 0.931 . S
C722 C721 1.393 . S
C722 C723 1.382 . S
C723 H693 0.929 . S
C723 C718 1.371 . S
C723 C722 1.382 . S
C724 N687 1.423 . S
C724 C725 1.362 . S
C724 C729 1.388 . S
C725 H695 0.929 . S
C725 C724 1.362 . S
C725 C726 1.376 . S
C726 H697 0.931 . S
C726 C725 1.376 . S
C726 C727 1.396 . S
C727 C726 1.396 . S
C727 C728 1.348 . S
C727 C745 1.472 . S
C728 H698 0.929 . S
C728 C727 1.348 . S
C728 C729 1.443 . S
C729 H696 0.932 . S
C729 C724 1.388 . S
C729 C728 1.443 . S
C730 N710 1.433 . S
C730 C731 1.363 . S
C730 C735 1.370 . S
C731 H699 0.929 . S
C731 C730 1.363 . S
C731 C732 1.385 . S
C732 H700 0.930 . S
C732 C731 1.385 . S
C732 C733 1.357 . S
C733 C732 1.357 . S
C733 C734 1.406 . S
C734 H701 0.929 . S
C734 C733 1.406 . S
C734 C735 1.391 . S
C735 H702 0.931 . S
C735 C730 1.370 . S
C735 C734 1.391 . S
C736 N710 1.435 . S
C736 C737 1.358 . S
C736 C741 1.371 . S
C737 H703 0.930 . S
C737 C736 1.358 . S
C737 C738 1.405 . S
C738 H704 0.932 . S
C738 C737 1.405 . S
C738 C739 1.383 . S
C739 C738 1.383 . S
C739 C740 1.393 . S
C740 H705 0.931 . S
C740 C739 1.393 . S
C740 C741 1.382 . S
C741 H706 0.929 . S
C741 C736 1.371 . S
C741 C740 1.382 . S
C742 N710 1.423 . S
C742 C743 1.362 . S
C742 C747 1.388 . S
C743 H707 0.929 . S
C743 C742 1.362 . S
C743 C744 1.376 . S
C744 H708 0.931 . S
C744 C743 1.376 . S
C744 C745 1.396 . S
C745 C727 1.472 . S
C745 C744 1.396 . S
C745 C746 1.348 . S
C746 H709 0.929 . S
C746 C745 1.348 . S
C746 C747 1.443 . S
C747 H711 0.932 . S
C747 C742 1.388 . S
C747 C746 1.443 . S
H748 C775 0.929 . S
N749 C774 1.433 . S
N749 C780 1.435 . S
N749 C786 1.423 . S
H750 C776 0.930 . S
H751 C779 0.931 . S
H752 C778 0.929 . S
H753 C781 0.930 . S
H754 C782 0.932 . S
H755 C785 0.929 . S
H756 C784 0.931 . S
H757 C787 0.929 . S
H758 C791 0.932 . S
H759 C788 0.931 . S
H760 C790 0.929 . S
H761 C793 0.929 . S
H762 C794 0.930 . S
H763 C796 0.929 . S
H764 C797 0.931 . S
H765 C799 0.930 . S
H766 C800 0.932 . S
H767 C802 0.931 . S
H768 C803 0.929 . S
H769 C805 0.929 . S
H770 C806 0.931 . S
H771 C808 0.929 . S
N772 C792 1.433 . S
N772 C798 1.435 . S
N772 C804 1.423 . S
H773 C809 0.932 . S
C774 N749 1.433 . S
C774 C775 1.363 . S
C774 C779 1.370 . S
C775 H748 0.929 . S
C775 C774 1.363 . S
C775 C776 1.385 . S
C776 H750 0.930 . S
C776 C775 1.385 . S
C776 C777 1.357 . S
C777 C776 1.357 . S
C777 C778 1.406 . S
C778 H752 0.929 . S
C778 C777 1.406 . S
C778 C779 1.391 . S
C779 H751 0.931 . S
C779 C774 1.370 . S
C779 C778 1.391 . S
C780 N749 1.435 . S
C780 C781 1.358 . S
C780 C785 1.371 . S
C781 H753 0.930 . S
C781 C780 1.358 . S
C781 C782 1.405 . S
C782 H754 0.932 . S
C782 C781 1.405 . S
C782 C783 1.383 . S
C783 C782 1.383 . S
C783 C784 1.393 . S
C784 H756 0.931 . S
C784 C783 1.393 . S
C784 C785 1.382 . S
C785 H755 0.929 . S
C785 C780 1.371 . S
C785 C784 1.382 . S
C786 N749 1.423 . S
C786 C787 1.362 . S
C786 C791 1.388 . S
C787 H757 0.929 . S
C787 C786 1.362 . S
C787 C788 1.376 . S
C788 H759 0.931 . S
C788 C787 1.376 . S
C788 C789 1.396 . S
C789 C788 1.396 . S
C789 C790 1.348 . S
C789 C807 1.472 . S
C790 H760 0.929 . S
C790 C789 1.348 . S
C790 C791 1.443 . S
C791 H758 0.932 . S
C791 C786 1.388 . S
C791 C790 1.443 . S
C792 N772 1.433 . S
C792 C793 1.363 . S
C792 C797 1.370 . S
C793 H761 0.929 . S
C793 C792 1.363 . S
C793 C794 1.385 . S
C794 H762 0.930 . S
C794 C793 1.385 . S
C794 C795 1.357 . S
C795 C794 1.357 . S
C795 C796 1.406 . S
C796 H763 0.929 . S
C796 C795 1.406 . S
C796 C797 1.391 . S
C797 H764 0.931 . S
C797 C792 1.370 . S
C797 C796 1.391 . S
C798 N772 1.435 . S
C798 C799 1.358 . S
C798 C803 1.371 . S
C799 H765 0.930 . S
C799 C798 1.358 . S
C799 C800 1.405 . S
C800 H766 0.932 . S
C800 C799 1.405 . S
C800 C801 1.383 . S
C801 C800 1.383 . S
C801 C802 1.393 . S
C802 H767 0.931 . S
C802 C801 1.393 . S
C802 C803 1.382 . S
C803 H768 0.929 . S
C803 C798 1.371 . S
C803 C802 1.382 . S
C804 N772 1.423 . S
C804 C805 1.362 . S
C804 C809 1.388 . S
C805 H769 0.929 . S
C805 C804 1.362 . S
C805 C806 1.376 . S
C806 H770 0.931 . S
C806 C805 1.376 . S
C806 C807 1.396 . S
C807 C789 1.472 . S
C807 C806 1.396 . S
C807 C808 1.348 . S
C808 H771 0.929 . S
C808 C807 1.348 . S
C808 C809 1.443 . S
C809 H773 0.932 . S
C809 C804 1.388 . S
C809 C808 1.443 . S
H810 C837 0.929 . S
N811 C836 1.433 . S
N811 C842 1.435 . S
N811 C848 1.423 . S
H812 C838 0.930 . S
H813 C841 0.931 . S
H814 C840 0.929 . S
H815 C843 0.930 . S
H816 C844 0.932 . S
H817 C847 0.929 . S
H818 C846 0.931 . S
H819 C849 0.929 . S
H820 C853 0.932 1_655 S
H821 C850 0.931 . S
H822 C852 0.929 . S
H823 C855 0.929 . S
H824 C856 0.930 . S
H825 C858 0.929 . S
H826 C859 0.931 . S
H827 C861 0.930 . S
H828 C862 0.932 . S
H829 C864 0.931 . S
H830 C865 0.929 . S
H831 C867 0.929 . S
H832 C868 0.931 . S
H833 C870 0.929 . S
N834 C854 1.433 . S
N834 C860 1.435 . S
N834 C866 1.423 . S
H835 C871 0.932 1_655 S
C836 N811 1.433 . S
C836 C837 1.363 . S
C836 C841 1.370 1_455 S
C837 H810 0.929 . S
C837 C836 1.363 . S
C837 C838 1.385 . S
C838 H812 0.930 . S
C838 C837 1.385 . S
C838 C839 1.357 1_455 S
C839 C838 1.357 1_655 S
C839 C840 1.406 . S
C840 H814 0.929 . S
C840 C839 1.406 . S
C840 C841 1.391 . S
C841 H813 0.931 . S
C841 C836 1.370 1_655 S
C841 C840 1.391 . S
C842 N811 1.435 . S
C842 C843 1.358 1_455 S
C842 C847 1.371 . S
C843 H815 0.930 . S
C843 C842 1.358 1_655 S
C843 C844 1.405 . S
C844 H816 0.932 . S
C844 C843 1.405 . S
C844 C845 1.383 1_655 S
C845 C844 1.383 1_455 S
C845 C846 1.393 . S
C846 H818 0.931 . S
C846 C845 1.393 . S
C846 C847 1.382 . S
C847 H817 0.929 . S
C847 C842 1.371 . S
C847 C846 1.382 . S
C848 N811 1.423 . S
C848 C849 1.362 . S
C848 C853 1.388 . S
C849 H819 0.929 . S
C849 C848 1.362 . S
C849 C850 1.376 . S
C850 H821 0.931 . S
C850 C849 1.376 . S
C850 C851 1.396 . S
C851 C850 1.396 . S
C851 C852 1.348 . S
C851 C869 1.472 . S
C852 H822 0.929 . S
C852 C851 1.348 . S
C852 C853 1.443 . S
C853 H820 0.932 1_455 S
C853 C848 1.388 . S
C853 C852 1.443 . S
C854 N834 1.433 . S
C854 C855 1.363 . S
C854 C859 1.370 1_455 S
C855 H823 0.929 . S
C855 C854 1.363 . S
C855 C856 1.385 . S
C856 H824 0.930 . S
C856 C855 1.385 . S
C856 C857 1.357 1_455 S
C857 C856 1.357 1_655 S
C857 C858 1.406 . S
C858 H825 0.929 . S
C858 C857 1.406 . S
C858 C859 1.391 . S
C859 H826 0.931 . S
C859 C854 1.370 1_655 S
C859 C858 1.391 . S
C860 N834 1.435 . S
C860 C861 1.358 1_455 S
C860 C865 1.371 . S
C861 H827 0.930 . S
C861 C860 1.358 1_655 S
C861 C862 1.405 . S
C862 H828 0.932 . S
C862 C861 1.405 . S
C862 C863 1.383 1_655 S
C863 C862 1.383 1_455 S
C863 C864 1.393 . S
C864 H829 0.931 . S
C864 C863 1.393 . S
C864 C865 1.382 . S
C865 H830 0.929 . S
C865 C860 1.371 . S
C865 C864 1.382 . S
C866 N834 1.423 . S
C866 C867 1.362 . S
C866 C871 1.388 . S
C867 H831 0.929 . S
C867 C866 1.362 . S
C867 C868 1.376 . S
C868 H832 0.931 . S
C868 C867 1.376 . S
C868 C869 1.396 . S
C869 C851 1.472 . S
C869 C868 1.396 . S
C869 C870 1.348 . S
C870 H833 0.929 . S
C870 C869 1.348 . S
C870 C871 1.443 . S
C871 H835 0.932 1_455 S
C871 C866 1.388 . S
C871 C870 1.443 . S
H872 C899 0.929 . S
N873 C898 1.433 . S
N873 C904 1.435 . S
N873 C910 1.423 . S
H874 C900 0.930 . S
H875 C903 0.931 . S
H876 C902 0.929 . S
H877 C905 0.930 . S
H878 C906 0.932 . S
H879 C909 0.929 . S
H880 C908 0.931 . S
H881 C911 0.929 . S
H882 C915 0.932 . S
H883 C912 0.931 . S
H884 C914 0.929 . S
H885 C917 0.929 . S
H886 C918 0.930 . S
H887 C920 0.929 . S
H888 C921 0.931 . S
H889 C923 0.930 . S
H890 C924 0.932 . S
H891 C926 0.931 . S
H892 C927 0.929 . S
H893 C929 0.929 . S
H894 C930 0.931 . S
H895 C932 0.929 . S
N896 C916 1.433 . S
N896 C922 1.435 . S
N896 C928 1.423 . S
H897 C933 0.932 . S
C898 N873 1.433 . S
C898 C899 1.363 . S
C898 C903 1.370 . S
C899 H872 0.929 . S
C899 C898 1.363 . S
C899 C900 1.385 . S
C900 H874 0.930 . S
C900 C899 1.385 . S
C900 C901 1.357 . S
C901 C900 1.357 . S
C901 C902 1.406 . S
C902 H876 0.929 . S
C902 C901 1.406 . S
C902 C903 1.391 . S
C903 H875 0.931 . S
C903 C898 1.370 . S
C903 C902 1.391 . S
C904 N873 1.435 . S
C904 C905 1.358 . S
C904 C909 1.371 . S
C905 H877 0.930 . S
C905 C904 1.358 . S
C905 C906 1.405 . S
C906 H878 0.932 . S
C906 C905 1.405 . S
C906 C907 1.383 . S
C907 C906 1.383 . S
C907 C908 1.393 . S
C908 H880 0.931 . S
C908 C907 1.393 . S
C908 C909 1.382 . S
C909 H879 0.929 . S
C909 C904 1.371 . S
C909 C908 1.382 . S
C910 N873 1.423 . S
C910 C911 1.362 . S
C910 C915 1.388 . S
C911 H881 0.929 . S
C911 C910 1.362 . S
C911 C912 1.376 . S
C912 H883 0.931 . S
C912 C911 1.376 . S
C912 C913 1.396 . S
C913 C912 1.396 . S
C913 C914 1.348 . S
C913 C931 1.472 . S
C914 H884 0.929 . S
C914 C913 1.348 . S
C914 C915 1.443 . S
C915 H882 0.932 . S
C915 C910 1.388 . S
C915 C914 1.443 . S
C916 N896 1.433 . S
C916 C917 1.363 . S
C916 C921 1.370 . S
C917 H885 0.929 . S
C917 C916 1.363 . S
C917 C918 1.385 . S
C918 H886 0.930 . S
C918 C917 1.385 . S
C918 C919 1.357 . S
C919 C918 1.357 . S
C919 C920 1.406 . S
C920 H887 0.929 . S
C920 C919 1.406 . S
C920 C921 1.391 . S
C921 H888 0.931 . S
C921 C916 1.370 . S
C921 C920 1.391 . S
C922 N896 1.435 . S
C922 C923 1.358 . S
C922 C927 1.371 . S
C923 H889 0.930 . S
C923 C922 1.358 . S
C923 C924 1.405 . S
C924 H890 0.932 . S
C924 C923 1.405 . S
C924 C925 1.383 . S
C925 C924 1.383 . S
C925 C926 1.393 . S
C926 H891 0.931 . S
C926 C925 1.393 . S
C926 C927 1.382 . S
C927 H892 0.929 . S
C927 C922 1.371 . S
C927 C926 1.382 . S
C928 N896 1.423 . S
C928 C929 1.362 . S
C928 C933 1.388 . S
C929 H893 0.929 . S
C929 C928 1.362 . S
C929 C930 1.376 . S
C930 H894 0.931 . S
C930 C929 1.376 . S
C930 C931 1.396 . S
C931 C913 1.472 . S
C931 C930 1.396 . S
C931 C932 1.348 . S
C932 H895 0.929 . S
C932 C931 1.348 . S
C932 C933 1.443 . S
C933 H897 0.932 . S
C933 C928 1.388 . S
C933 C932 1.443 . S
H934 C961 0.929 . S
N935 C960 1.433 . S
N935 C966 1.435 . S
N935 C972 1.423 . S
H936 C962 0.930 . S
H937 C965 0.931 . S
H938 C964 0.929 . S
H939 C967 0.930 . S
H940 C968 0.932 . S
H941 C971 0.929 . S
H942 C970 0.931 . S
H943 C973 0.929 . S
H944 C977 0.932 1_545 S
H945 C974 0.931 . S
H946 C976 0.929 . S
H947 C979 0.929 . S
H948 C980 0.930 . S
H949 C982 0.929 . S
H950 C983 0.931 . S
H951 C985 0.930 . S
H952 C986 0.932 . S
H953 C988 0.931 . S
H954 C989 0.929 . S
H955 C991 0.929 . S
H956 C992 0.931 . S
H957 C994 0.929 . S
N958 C978 1.433 . S
N958 C984 1.435 . S
N958 C990 1.423 . S
H959 C995 0.932 1_545 S
C960 N935 1.433 . S
C960 C961 1.363 . S
C960 C965 1.370 1_565 S
C961 H934 0.929 . S
C961 C960 1.363 . S
C961 C962 1.385 . S
C962 H936 0.930 . S
C962 C961 1.385 . S
C962 C963 1.357 1_565 S
C963 C962 1.357 1_545 S
C963 C964 1.406 . S
C964 H938 0.929 . S
C964 C963 1.406 . S
C964 C965 1.391 . S
C965 H937 0.931 . S
C965 C960 1.370 1_545 S
C965 C964 1.391 . S
C966 N935 1.435 . S
C966 C967 1.358 1_565 S
C966 C971 1.371 . S
C967 H939 0.930 . S
C967 C966 1.358 1_545 S
C967 C968 1.405 . S
C968 H940 0.932 . S
C968 C967 1.405 . S
C968 C969 1.383 1_545 S
C969 C968 1.383 1_565 S
C969 C970 1.393 . S
C970 H942 0.931 . S
C970 C969 1.393 . S
C970 C971 1.382 . S
C971 H941 0.929 . S
C971 C966 1.371 . S
C971 C970 1.382 . S
C972 N935 1.423 . S
C972 C973 1.362 . S
C972 C977 1.388 . S
C973 H943 0.929 . S
C973 C972 1.362 . S
C973 C974 1.376 . S
C974 H945 0.931 . S
C974 C973 1.376 . S
C974 C975 1.396 . S
C975 C974 1.396 . S
C975 C976 1.348 . S
C975 C993 1.472 . S
C976 H946 0.929 . S
C976 C975 1.348 . S
C976 C977 1.443 . S
C977 H944 0.932 1_565 S
C977 C972 1.388 . S
C977 C976 1.443 . S
C978 N958 1.433 . S
C978 C979 1.363 . S
C978 C983 1.370 1_565 S
C979 H947 0.929 . S
C979 C978 1.363 . S
C979 C980 1.385 . S
C980 H948 0.930 . S
C980 C979 1.385 . S
C980 C981 1.357 1_565 S
C981 C980 1.357 1_545 S
C981 C982 1.406 . S
C982 H949 0.929 . S
C982 C981 1.406 . S
C982 C983 1.391 . S
C983 H950 0.931 . S
C983 C978 1.370 1_545 S
C983 C982 1.391 . S
C984 N958 1.435 . S
C984 C985 1.358 1_565 S
C984 C989 1.371 . S
C985 H951 0.930 . S
C985 C984 1.358 1_545 S
C985 C986 1.405 . S
C986 H952 0.932 . S
C986 C985 1.405 . S
C986 C987 1.383 1_545 S
C987 C986 1.383 1_565 S
C987 C988 1.393 . S
C988 H953 0.931 . S
C988 C987 1.393 . S
C988 C989 1.382 . S
C989 H954 0.929 . S
C989 C984 1.371 . S
C989 C988 1.382 . S
C990 N958 1.423 . S
C990 C991 1.362 . S
C990 C995 1.388 . S
C991 H955 0.929 . S
C991 C990 1.362 . S
C991 C992 1.376 . S
C992 H956 0.931 . S
C992 C991 1.376 . S
C992 C993 1.396 . S
C993 C975 1.472 . S
C993 C992 1.396 . S
C993 C994 1.348 . S
C994 H957 0.929 . S
C994 C993 1.348 . S
C994 C995 1.443 . S
C995 H959 0.932 1_565 S
C995 C990 1.388 . S
C995 C994 1.443 . S
H996 C1023 0.929 . S
N997 C1022 1.433 . S
N997 C1028 1.435 . S
N997 C1034 1.423 . S
H998 C1024 0.930 . S
H999 C1027 0.931 . S
H1000 C1026 0.929 . S
H1001 C1029 0.930 . S
H1002 C1030 0.932 . S
H1003 C1033 0.929 . S
H1004 C1032 0.931 . S
H1005 C1035 0.929 . S
H1006 C1039 0.932 . S
H1007 C1036 0.931 . S
H1008 C1038 0.918 1_545 S
H1009 C1041 0.929 . S
H1010 C1042 0.930 . S
H1011 C1044 0.929 . S
H1012 C1045 0.982 . S
H1013 C1047 0.930 . S
H1014 C1048 0.932 . S
H1015 C1050 0.931 . S
H1016 C1051 0.929 . S
H1017 C1053 0.929 . S
H1018 C1054 0.931 . S
H1019 C1056 0.880 1_545 S
N1020 C1040 1.433 . S
N1020 C1046 1.435 . S
N1020 C1052 1.423 . S
H1021 C1057 0.932 . S
C1022 N997 1.433 . S
C1022 C1023 1.363 . S
C1022 C1027 1.370 1_565 S
C1023 H996 0.929 . S
C1023 C1022 1.363 . S
C1023 C1024 1.385 . S
C1024 H998 0.930 . S
C1024 C1023 1.385 . S
C1024 C1025 1.357 . S
C1025 C1024 1.357 . S
C1025 C1026 1.406 1_565 S
C1026 H1000 0.929 . S
C1026 C1025 1.406 1_545 S
C1026 C1027 1.391 . S
C1027 H999 0.931 . S
C1027 C1022 1.370 1_545 S
C1027 C1026 1.391 . S
C1028 N997 1.435 . S
C1028 C1029 1.358 1_565 S
C1028 C1033 1.371 . S
C1029 H1001 0.930 . S
C1029 C1028 1.358 1_545 S
C1029 C1030 1.405 . S
C1030 H1002 0.932 . S
C1030 C1029 1.405 . S
C1030 C1031 1.383 . S
C1031 C1030 1.383 . S
C1031 C1032 1.393 1_545 S
C1032 H1004 0.931 . S
C1032 C1031 1.393 1_565 S
C1032 C1033 1.382 . S
C1033 H1003 0.929 . S
C1033 C1028 1.371 . S
C1033 C1032 1.382 . S
C1034 N997 1.423 . S
C1034 C1035 1.362 . S
C1034 C1039 1.388 1_565 S
C1035 H1005 0.929 . S
C1035 C1034 1.362 . S
C1035 C1036 1.376 . S
C1036 H1007 0.931 . S
C1036 C1035 1.376 . S
C1036 C1037 1.396 . S
C1037 C1036 1.396 . S
C1037 C1038 1.393 . S
C1037 C1055 1.472 . S
C1038 H1008 0.918 1_565 S
C1038 C1037 1.393 . S
C1038 C1039 1.410 1_565 S
C1039 H1006 0.932 . S
C1039 C1034 1.388 1_545 S
C1039 C1038 1.410 1_545 S
C1040 N1020 1.433 . S
C1040 C1041 1.363 . S
C1040 C1045 1.331 1_565 S
C1041 H1009 0.929 . S
C1041 C1040 1.363 . S
C1041 C1042 1.385 . S
C1042 H1010 0.930 . S
C1042 C1041 1.385 . S
C1042 C1043 1.357 . S
C1043 C1042 1.357 . S
C1043 C1044 1.406 1_565 S
C1044 H1011 0.929 . S
C1044 C1043 1.406 1_545 S
C1044 C1045 1.382 . S
C1045 H1012 0.982 . S
C1045 C1040 1.331 1_545 S
C1045 C1044 1.382 . S
C1046 N1020 1.435 . S
C1046 C1047 1.358 1_565 S
C1046 C1051 1.371 . S
C1047 H1013 0.930 . S
C1047 C1046 1.358 1_545 S
C1047 C1048 1.405 . S
C1048 H1014 0.932 . S
C1048 C1047 1.405 . S
C1048 C1049 1.383 . S
C1049 C1048 1.383 . S
C1049 C1050 1.393 1_545 S
C1050 H1015 0.931 . S
C1050 C1049 1.393 1_565 S
C1050 C1051 1.382 . S
C1051 H1016 0.929 . S
C1051 C1046 1.371 . S
C1051 C1050 1.382 . S
C1052 N1020 1.423 . S
C1052 C1053 1.362 . S
C1052 C1057 1.388 1_565 S
C1053 H1017 0.929 . S
C1053 C1052 1.362 . S
C1053 C1054 1.376 . S
C1054 H1018 0.931 . S
C1054 C1053 1.376 . S
C1054 C1055 1.396 . S
C1055 C1037 1.472 . S
C1055 C1054 1.396 . S
C1055 C1056 1.368 . S
C1056 H1019 0.880 1_565 S
C1056 C1055 1.368 . S
C1056 C1057 1.474 1_565 S
C1057 H1021 0.932 . S
C1057 C1052 1.388 1_545 S
C1057 C1056 1.474 1_545 S
H1058 C1085 0.929 . S
N1059 C1084 1.433 . S
N1059 C1090 1.435 . S
N1059 C1096 1.423 . S
H1060 C1086 0.930 . S
H1061 C1089 0.931 . S
H1062 C1088 0.929 . S
H1063 C1091 0.930 . S
H1064 C1092 0.932 . S
H1065 C1095 0.929 . S
H1066 C1094 0.931 . S
H1067 C1097 0.929 . S
H1068 C1101 0.932 1_455 S
H1069 C1098 0.931 . S
H1070 C1100 0.929 . S
H1071 C1103 0.929 . S
H1072 C1104 0.930 . S
H1073 C1106 0.929 . S
H1074 C1107 0.931 . S
H1075 C1109 0.930 . S
H1076 C1110 0.932 . S
H1077 C1112 0.931 . S
H1078 C1113 0.929 . S
H1079 C1115 0.929 . S
H1080 C1116 0.931 . S
H1081 C1118 0.929 . S
N1082 C1102 1.433 . S
N1082 C1108 1.435 . S
N1082 C1114 1.423 . S
H1083 C1119 0.932 1_455 S
C1084 N1059 1.433 . S
C1084 C1085 1.363 . S
C1084 C1089 1.370 1_655 S
C1085 H1058 0.929 . S
C1085 C1084 1.363 . S
C1085 C1086 1.385 . S
C1086 H1060 0.930 . S
C1086 C1085 1.385 . S
C1086 C1087 1.357 1_655 S
C1087 C1086 1.357 1_455 S
C1087 C1088 1.406 . S
C1088 H1062 0.929 . S
C1088 C1087 1.406 . S
C1088 C1089 1.391 . S
C1089 H1061 0.931 . S
C1089 C1084 1.370 1_455 S
C1089 C1088 1.391 . S
C1090 N1059 1.435 . S
C1090 C1091 1.358 1_655 S
C1090 C1095 1.371 . S
C1091 H1063 0.930 . S
C1091 C1090 1.358 1_455 S
C1091 C1092 1.405 . S
C1092 H1064 0.932 . S
C1092 C1091 1.405 . S
C1092 C1093 1.383 1_455 S
C1093 C1092 1.383 1_655 S
C1093 C1094 1.393 . S
C1094 H1066 0.931 . S
C1094 C1093 1.393 . S
C1094 C1095 1.382 . S
C1095 H1065 0.929 . S
C1095 C1090 1.371 . S
C1095 C1094 1.382 . S
C1096 N1059 1.423 . S
C1096 C1097 1.362 . S
C1096 C1101 1.388 . S
C1097 H1067 0.929 . S
C1097 C1096 1.362 . S
C1097 C1098 1.376 . S
C1098 H1069 0.931 . S
C1098 C1097 1.376 . S
C1098 C1099 1.396 . S
C1099 C1098 1.396 . S
C1099 C1100 1.348 . S
C1099 C1117 1.472 . S
C1100 H1070 0.929 . S
C1100 C1099 1.348 . S
C1100 C1101 1.443 . S
C1101 H1068 0.932 1_655 S
C1101 C1096 1.388 . S
C1101 C1100 1.443 . S
C1102 N1082 1.433 . S
C1102 C1103 1.363 . S
C1102 C1107 1.370 1_655 S
C1103 H1071 0.929 . S
C1103 C1102 1.363 . S
C1103 C1104 1.385 . S
C1104 H1072 0.930 . S
C1104 C1103 1.385 . S
C1104 C1105 1.357 1_655 S
C1105 C1104 1.357 1_455 S
C1105 C1106 1.406 . S
C1106 H1073 0.929 . S
C1106 C1105 1.406 . S
C1106 C1107 1.391 . S
C1107 H1074 0.931 . S
C1107 C1102 1.370 1_455 S
C1107 C1106 1.391 . S
C1108 N1082 1.435 . S
C1108 C1109 1.358 1_655 S
C1108 C1113 1.371 . S
C1109 H1075 0.930 . S
C1109 C1108 1.358 1_455 S
C1109 C1110 1.405 . S
C1110 H1076 0.932 . S
C1110 C1109 1.405 . S
C1110 C1111 1.383 1_455 S
C1111 C1110 1.383 1_655 S
C1111 C1112 1.393 . S
C1112 H1077 0.931 . S
C1112 C1111 1.393 . S
C1112 C1113 1.382 . S
C1113 H1078 0.929 . S
C1113 C1108 1.371 . S
C1113 C1112 1.382 . S
C1114 N1082 1.423 . S
C1114 C1115 1.362 . S
C1114 C1119 1.388 . S
C1115 H1079 0.929 . S
C1115 C1114 1.362 . S
C1115 C1116 1.376 . S
C1116 H1080 0.931 . S
C1116 C1115 1.376 . S
C1116 C1117 1.396 . S
C1117 C1099 1.472 . S
C1117 C1116 1.396 . S
C1117 C1118 1.348 . S
C1118 H1081 0.929 . S
C1118 C1117 1.348 . S
C1118 C1119 1.443 . S
C1119 H1083 0.932 1_655 S
C1119 C1114 1.388 . S
C1119 C1118 1.443 . S
H1120 C1147 0.929 . S
N1121 C1146 1.433 . S
N1121 C1152 1.435 . S
N1121 C1158 1.423 . S
H1122 C1148 0.930 . S
H1123 C1151 0.931 . S
H1124 C1150 0.929 . S
H1125 C1153 0.930 . S
H1126 C1154 0.932 . S
H1127 C1157 0.929 . S
H1128 C1156 0.931 . S
H1129 C1159 0.929 . S
H1130 C1163 0.932 . S
H1131 C1160 0.931 . S
H1132 C1162 0.929 . S
H1133 C1165 0.929 . S
H1134 C1166 0.930 . S
H1135 C1168 0.929 . S
H1136 C1169 0.931 . S
H1137 C1171 0.930 . S
H1138 C1172 0.932 . S
H1139 C1174 0.931 . S
H1140 C1175 0.929 . S
H1141 C1177 0.929 . S
H1142 C1178 0.931 . S
H1143 C1180 0.929 . S
N1144 C1164 1.433 . S
N1144 C1170 1.435 . S
N1144 C1176 1.423 . S
H1145 C1181 0.932 . S
C1146 N1121 1.433 . S
C1146 C1147 1.363 . S
C1146 C1151 1.370 . S
C1147 H1120 0.929 . S
C1147 C1146 1.363 . S
C1147 C1148 1.385 . S
C1148 H1122 0.930 . S
C1148 C1147 1.385 . S
C1148 C1149 1.357 . S
C1149 C1148 1.357 . S
C1149 C1150 1.406 . S
C1150 H1124 0.929 . S
C1150 C1149 1.406 . S
C1150 C1151 1.391 . S
C1151 H1123 0.931 . S
C1151 C1146 1.370 . S
C1151 C1150 1.391 . S
C1152 N1121 1.435 . S
C1152 C1153 1.358 . S
C1152 C1157 1.371 . S
C1153 H1125 0.930 . S
C1153 C1152 1.358 . S
C1153 C1154 1.405 . S
C1154 H1126 0.932 . S
C1154 C1153 1.405 . S
C1154 C1155 1.383 . S
C1155 C1154 1.383 . S
C1155 C1156 1.393 . S
C1156 H1128 0.931 . S
C1156 C1155 1.393 . S
C1156 C1157 1.382 . S
C1157 H1127 0.929 . S
C1157 C1152 1.371 . S
C1157 C1156 1.382 . S
C1158 N1121 1.423 . S
C1158 C1159 1.362 . S
C1158 C1163 1.388 . S
C1159 H1129 0.929 . S
C1159 C1158 1.362 . S
C1159 C1160 1.376 . S
C1160 H1131 0.931 . S
C1160 C1159 1.376 . S
C1160 C1161 1.396 . S
C1161 C1160 1.396 . S
C1161 C1162 1.348 . S
C1161 C1179 1.472 . S
C1162 H1132 0.929 . S
C1162 C1161 1.348 . S
C1162 C1163 1.443 . S
C1163 H1130 0.932 . S
C1163 C1158 1.388 . S
C1163 C1162 1.443 . S
C1164 N1144 1.433 . S
C1164 C1165 1.363 . S
C1164 C1169 1.370 . S
C1165 H1133 0.929 . S
C1165 C1164 1.363 . S
C1165 C1166 1.385 . S
C1166 H1134 0.930 . S
C1166 C1165 1.385 . S
C1166 C1167 1.357 . S
C1167 C1166 1.357 . S
C1167 C1168 1.406 . S
C1168 H1135 0.929 . S
C1168 C1167 1.406 . S
C1168 C1169 1.391 . S
C1169 H1136 0.931 . S
C1169 C1164 1.370 . S
C1169 C1168 1.391 . S
C1170 N1144 1.435 . S
C1170 C1171 1.358 . S
C1170 C1175 1.371 . S
C1171 H1137 0.930 . S
C1171 C1170 1.358 . S
C1171 C1172 1.405 . S
C1172 H1138 0.932 . S
C1172 C1171 1.405 . S
C1172 C1173 1.383 . S
C1173 C1172 1.383 . S
C1173 C1174 1.393 . S
C1174 H1139 0.931 . S
C1174 C1173 1.393 . S
C1174 C1175 1.382 . S
C1175 H1140 0.929 . S
C1175 C1170 1.371 . S
C1175 C1174 1.382 . S
C1176 N1144 1.423 . S
C1176 C1177 1.362 . S
C1176 C1181 1.388 . S
C1177 H1141 0.929 . S
C1177 C1176 1.362 . S
C1177 C1178 1.376 . S
C1178 H1142 0.931 . S
C1178 C1177 1.376 . S
C1178 C1179 1.396 . S
C1179 C1161 1.472 . S
C1179 C1178 1.396 . S
C1179 C1180 1.348 . S
C1180 H1143 0.929 . S
C1180 C1179 1.348 . S
C1180 C1181 1.443 . S
C1181 H1145 0.932 . S
C1181 C1176 1.388 . S
C1181 C1180 1.443 . S
H1182 C1209 0.929 . S
N1183 C1208 1.433 . S
N1183 C1214 1.435 . S
N1183 C1220 1.423 . S
H1184 C1210 0.930 . S
H1185 C1213 0.931 . S
H1186 C1212 0.929 . S
H1187 C1215 0.930 . S
H1188 C1216 0.932 . S
H1189 C1219 0.929 . S
H1190 C1218 0.931 . S
H1191 C1221 0.929 . S
H1192 C1225 0.932 . S
H1193 C1222 0.931 . S
H1194 C1224 0.929 . S
H1195 C1227 0.929 . S
H1196 C1228 0.930 . S
H1197 C1230 0.929 . S
H1198 C1231 0.931 . S
H1199 C1233 0.930 . S
H1200 C1234 0.932 . S
H1201 C1236 0.931 . S
H1202 C1237 0.929 . S
H1203 C1239 0.929 . S
H1204 C1240 0.931 . S
H1205 C1242 0.929 . S
N1206 C1226 1.433 . S
N1206 C1232 1.435 . S
N1206 C1238 1.423 . S
H1207 C1243 0.932 . S
C1208 N1183 1.433 . S
C1208 C1209 1.363 . S
C1208 C1213 1.370 . S
C1209 H1182 0.929 . S
C1209 C1208 1.363 . S
C1209 C1210 1.385 . S
C1210 H1184 0.930 . S
C1210 C1209 1.385 . S
C1210 C1211 1.357 . S
C1211 C1210 1.357 . S
C1211 C1212 1.406 . S
C1212 H1186 0.929 . S
C1212 C1211 1.406 . S
C1212 C1213 1.391 . S
C1213 H1185 0.931 . S
C1213 C1208 1.370 . S
C1213 C1212 1.391 . S
C1214 N1183 1.435 . S
C1214 C1215 1.358 . S
C1214 C1219 1.371 . S
C1215 H1187 0.930 . S
C1215 C1214 1.358 . S
C1215 C1216 1.405 . S
C1216 H1188 0.932 . S
C1216 C1215 1.405 . S
C1216 C1217 1.383 . S
C1217 C1216 1.383 . S
C1217 C1218 1.393 . S
C1218 H1190 0.931 . S
C1218 C1217 1.393 . S
C1218 C1219 1.382 . S
C1219 H1189 0.929 . S
C1219 C1214 1.371 . S
C1219 C1218 1.382 . S
C1220 N1183 1.423 . S
C1220 C1221 1.362 . S
C1220 C1225 1.388 . S
C1221 H1191 0.929 . S
C1221 C1220 1.362 . S
C1221 C1222 1.376 . S
C1222 H1193 0.931 . S
C1222 C1221 1.376 . S
C1222 C1223 1.396 . S
C1223 C1222 1.396 . S
C1223 C1224 1.348 . S
C1223 C1241 1.472 . S
C1224 H1194 0.929 . S
C1224 C1223 1.348 . S
C1224 C1225 1.443 . S
C1225 H1192 0.932 . S
C1225 C1220 1.388 . S
C1225 C1224 1.443 . S
C1226 N1206 1.433 . S
C1226 C1227 1.363 . S
C1226 C1231 1.370 . S
C1227 H1195 0.929 . S
C1227 C1226 1.363 . S
C1227 C1228 1.385 . S
C1228 H1196 0.930 . S
C1228 C1227 1.385 . S
C1228 C1229 1.357 . S
C1229 C1228 1.357 . S
C1229 C1230 1.406 . S
C1230 H1197 0.929 . S
C1230 C1229 1.406 . S
C1230 C1231 1.391 . S
C1231 H1198 0.931 . S
C1231 C1226 1.370 . S
C1231 C1230 1.391 . S
C1232 N1206 1.435 . S
C1232 C1233 1.358 . S
C1232 C1237 1.371 . S
C1233 H1199 0.930 . S
C1233 C1232 1.358 . S
C1233 C1234 1.405 . S
C1234 H1200 0.932 . S
C1234 C1233 1.405 . S
C1234 C1235 1.383 . S
C1235 C1234 1.383 . S
C1235 C1236 1.393 . S
C1236 H1201 0.931 . S
C1236 C1235 1.393 . S
C1236 C1237 1.382 . S
C1237 H1202 0.929 . S
C1237 C1232 1.371 . S
C1237 C1236 1.382 . S
C1238 N1206 1.423 . S
C1238 C1239 1.362 . S
C1238 C1243 1.388 . S
C1239 H1203 0.929 . S
C1239 C1238 1.362 . S
C1239 C1240 1.376 . S
C1240 H1204 0.931 . S
C1240 C1239 1.376 . S
C1240 C1241 1.396 . S
C1241 C1223 1.472 . S
C1241 C1240 1.396 . S
C1241 C1242 1.348 . S
C1242 H1205 0.929 . S
C1242 C1241 1.348 . S
C1242 C1243 1.443 . S
C1243 H1207 0.932 . S
C1243 C1238 1.388 . S
C1243 C1242 1.443 . S
H1244 C1271 0.929 . S
N1245 C1270 1.433 . S
N1245 C1276 1.435 . S
N1245 C1282 1.423 . S
H1246 C1272 0.930 . S
H1247 C1275 0.931 . S
H1248 C1274 0.929 . S
H1249 C1277 0.930 . S
H1250 C1278 0.932 . S
H1251 C1281 0.929 . S
H1252 C1280 0.931 . S
H1253 C1283 0.929 . S
H1254 C1287 0.932 . S
H1255 C1284 0.931 . S
H1256 C1286 0.929 . S
H1257 C1289 0.929 . S
H1258 C1290 0.930 . S
H1259 C1292 0.929 . S
H1260 C1293 0.931 . S
H1261 C1295 0.930 . S
H1262 C1296 0.932 . S
H1263 C1298 0.931 . S
H1264 C1299 0.929 . S
H1265 C1301 0.929 . S
H1266 C1302 0.931 . S
H1267 C1304 0.929 . S
N1268 C1288 1.433 . S
N1268 C1294 1.435 . S
N1268 C1300 1.423 . S
H1269 C1305 0.932 . S
C1270 N1245 1.433 . S
C1270 C1271 1.363 . S
C1270 C1275 1.370 . S
C1271 H1244 0.929 . S
C1271 C1270 1.363 . S
C1271 C1272 1.385 . S
C1272 H1246 0.930 . S
C1272 C1271 1.385 . S
C1272 C1273 1.357 . S
C1273 C1272 1.357 . S
C1273 C1274 1.406 . S
C1274 H1248 0.929 . S
C1274 C1273 1.406 . S
C1274 C1275 1.391 . S
C1275 H1247 0.931 . S
C1275 C1270 1.370 . S
C1275 C1274 1.391 . S
C1276 N1245 1.435 . S
C1276 C1277 1.358 . S
C1276 C1281 1.371 . S
C1277 H1249 0.930 . S
C1277 C1276 1.358 . S
C1277 C1278 1.405 . S
C1278 H1250 0.932 . S
C1278 C1277 1.405 . S
C1278 C1279 1.383 . S
C1279 C1278 1.383 . S
C1279 C1280 1.393 . S
C1280 H1252 0.931 . S
C1280 C1279 1.393 . S
C1280 C1281 1.382 . S
C1281 H1251 0.929 . S
C1281 C1276 1.371 . S
C1281 C1280 1.382 . S
C1282 N1245 1.423 . S
C1282 C1283 1.362 . S
C1282 C1287 1.388 . S
C1283 H1253 0.929 . S
C1283 C1282 1.362 . S
C1283 C1284 1.376 . S
C1284 H1255 0.931 . S
C1284 C1283 1.376 . S
C1284 C1285 1.396 . S
C1285 C1284 1.396 . S
C1285 C1286 1.348 . S
C1285 C1303 1.472 . S
C1286 H1256 0.929 . S
C1286 C1285 1.348 . S
C1286 C1287 1.443 . S
C1287 H1254 0.932 . S
C1287 C1282 1.388 . S
C1287 C1286 1.443 . S
C1288 N1268 1.433 . S
C1288 C1289 1.363 . S
C1288 C1293 1.370 . S
C1289 H1257 0.929 . S
C1289 C1288 1.363 . S
C1289 C1290 1.385 . S
C1290 H1258 0.930 . S
C1290 C1289 1.385 . S
C1290 C1291 1.357 . S
C1291 C1290 1.357 . S
C1291 C1292 1.406 . S
C1292 H1259 0.929 . S
C1292 C1291 1.406 . S
C1292 C1293 1.391 . S
C1293 H1260 0.931 . S
C1293 C1288 1.370 . S
C1293 C1292 1.391 . S
C1294 N1268 1.435 . S
C1294 C1295 1.358 . S
C1294 C1299 1.371 . S
C1295 H1261 0.930 . S
C1295 C1294 1.358 . S
C1295 C1296 1.405 . S
C1296 H1262 0.932 . S
C1296 C1295 1.405 . S
C1296 C1297 1.383 . S
C1297 C1296 1.383 . S
C1297 C1298 1.393 . S
C1298 H1263 0.931 . S
C1298 C1297 1.393 . S
C1298 C1299 1.382 . S
C1299 H1264 0.929 . S
C1299 C1294 1.371 . S
C1299 C1298 1.382 . S
C1300 N1268 1.423 . S
C1300 C1301 1.362 . S
C1300 C1305 1.388 . S
C1301 H1265 0.929 . S
C1301 C1300 1.362 . S
C1301 C1302 1.376 . S
C1302 H1266 0.931 . S
C1302 C1301 1.376 . S
C1302 C1303 1.396 . S
C1303 C1285 1.472 . S
C1303 C1302 1.396 . S
C1303 C1304 1.348 . S
C1304 H1267 0.929 . S
C1304 C1303 1.348 . S
C1304 C1305 1.443 . S
C1305 H1269 0.932 . S
C1305 C1300 1.388 . S
C1305 C1304 1.443 . S
H1306 C1333 0.929 . S
N1307 C1332 1.433 . S
N1307 C1338 1.435 . S
N1307 C1344 1.423 . S
H1308 C1334 0.930 . S
H1309 C1337 0.931 . S
H1310 C1336 0.929 . S
H1311 C1339 0.930 . S
H1312 C1340 0.932 . S
H1313 C1343 0.929 . S
H1314 C1342 0.931 . S
H1315 C1345 0.929 . S
H1316 C1349 0.932 . S
H1317 C1346 0.931 . S
H1318 C1348 0.929 . S
H1319 C1351 0.929 . S
H1320 C1352 0.930 . S
H1321 C1354 0.929 . S
H1322 C1355 0.931 . S
H1323 C1357 0.930 . S
H1324 C1358 0.932 . S
H1325 C1360 0.931 . S
H1326 C1361 0.929 . S
H1327 C1363 0.929 . S
H1328 C1364 0.931 . S
H1329 C1366 0.929 . S
N1330 C1350 1.433 . S
N1330 C1356 1.435 . S
N1330 C1362 1.423 . S
H1331 C1367 0.932 . S
C1332 N1307 1.433 . S
C1332 C1333 1.363 . S
C1332 C1337 1.370 . S
C1333 H1306 0.929 . S
C1333 C1332 1.363 . S
C1333 C1334 1.385 . S
C1334 H1308 0.930 . S
C1334 C1333 1.385 . S
C1334 C1335 1.357 . S
C1335 C1334 1.357 . S
C1335 C1336 1.406 . S
C1336 H1310 0.929 . S
C1336 C1335 1.406 . S
C1336 C1337 1.391 . S
C1337 H1309 0.931 . S
C1337 C1332 1.370 . S
C1337 C1336 1.391 . S
C1338 N1307 1.435 . S
C1338 C1339 1.358 . S
C1338 C1343 1.371 . S
C1339 H1311 0.930 . S
C1339 C1338 1.358 . S
C1339 C1340 1.405 . S
C1340 H1312 0.932 . S
C1340 C1339 1.405 . S
C1340 C1341 1.383 . S
C1341 C1340 1.383 . S
C1341 C1342 1.393 . S
C1342 H1314 0.931 . S
C1342 C1341 1.393 . S
C1342 C1343 1.382 . S
C1343 H1313 0.929 . S
C1343 C1338 1.371 . S
C1343 C1342 1.382 . S
C1344 N1307 1.423 . S
C1344 C1345 1.362 . S
C1344 C1349 1.388 . S
C1345 H1315 0.929 . S
C1345 C1344 1.362 . S
C1345 C1346 1.376 . S
C1346 H1317 0.931 . S
C1346 C1345 1.376 . S
C1346 C1347 1.396 . S
C1347 C1346 1.396 . S
C1347 C1348 1.348 . S
C1347 C1365 1.472 . S
C1348 H1318 0.929 . S
C1348 C1347 1.348 . S
C1348 C1349 1.443 . S
C1349 H1316 0.932 . S
C1349 C1344 1.388 . S
C1349 C1348 1.443 . S
C1350 N1330 1.433 . S
C1350 C1351 1.363 . S
C1350 C1355 1.370 . S
C1351 H1319 0.929 . S
C1351 C1350 1.363 . S
C1351 C1352 1.385 . S
C1352 H1320 0.930 . S
C1352 C1351 1.385 . S
C1352 C1353 1.357 . S
C1353 C1352 1.357 . S
C1353 C1354 1.406 . S
C1354 H1321 0.929 . S
C1354 C1353 1.406 . S
C1354 C1355 1.391 . S
C1355 H1322 0.931 . S
C1355 C1350 1.370 . S
C1355 C1354 1.391 . S
C1356 N1330 1.435 . S
C1356 C1357 1.358 . S
C1356 C1361 1.371 . S
C1357 H1323 0.930 . S
C1357 C1356 1.358 . S
C1357 C1358 1.405 . S
C1358 H1324 0.932 . S
C1358 C1357 1.405 . S
C1358 C1359 1.383 . S
C1359 C1358 1.383 . S
C1359 C1360 1.393 . S
C1360 H1325 0.931 . S
C1360 C1359 1.393 . S
C1360 C1361 1.382 . S
C1361 H1326 0.929 . S
C1361 C1356 1.371 . S
C1361 C1360 1.382 . S
C1362 N1330 1.423 . S
C1362 C1363 1.362 . S
C1362 C1367 1.388 . S
C1363 H1327 0.929 . S
C1363 C1362 1.362 . S
C1363 C1364 1.376 . S
C1364 H1328 0.931 . S
C1364 C1363 1.376 . S
C1364 C1365 1.396 . S
C1365 C1347 1.472 . S
C1365 C1364 1.396 . S
C1365 C1366 1.348 . S
C1366 H1329 0.929 . S
C1366 C1365 1.348 . S
C1366 C1367 1.443 . S
C1367 H1331 0.932 . S
C1367 C1362 1.388 . S
C1367 C1366 1.443 . S
C1368 C1369 1.369 . S
C1368 C1370 1.419 . S
C1368 H1372 0.930 . S
C1369 C1368 1.369 . S
C1369 C1378 1.429 1_655 S
C1370 C1368 1.419 . S
C1370 C1371 1.363 . S
C1370 H1373 0.929 . S
C1371 C1370 1.363 . S
C1371 C1377 1.425 1_655 S
H1372 C1368 0.930 . S
H1373 C1370 0.929 . S
S1374 N1375 1.613 . S
S1374 N1376 1.610 . S
N1375 S1374 1.613 . S
N1375 C1378 1.350 . S
N1376 S1374 1.610 . S
N1376 C1377 1.342 . S
C1377 C1371 1.425 1_455 S
C1377 N1376 1.342 . S
C1377 C1378 1.450 . S
C1378 C1369 1.429 1_455 S
C1378 N1375 1.350 . S
C1378 C1377 1.450 . S
C1379 C1380 1.369 . S
C1379 C1381 1.419 . S
C1379 H1383 0.930 . S
C1380 C1379 1.369 . S
C1380 C1389 1.429 . S
C1381 C1379 1.419 . S
C1381 C1382 1.363 . S
C1381 H1384 0.929 . S
C1382 C1381 1.363 . S
C1382 C1388 1.428 . S
H1383 C1379 0.930 . S
H1384 C1381 0.929 . S
S1385 N1386 1.613 . S
S1385 N1387 1.610 . S
N1386 S1385 1.613 . S
N1386 C1389 1.350 . S
N1387 S1385 1.610 . S
N1387 C1388 1.351 . S
C1388 C1382 1.428 . S
C1388 N1387 1.351 . S
C1388 C1389 1.434 . S
C1389 C1380 1.429 . S
C1389 N1386 1.350 . S
C1389 C1388 1.434 . S
C1390 C1391 1.369 1_565 S
C1390 C1392 1.419 . S
C1390 H1394 0.930 . S
C1391 C1390 1.369 1_545 S
C1391 C1400 1.429 . S
C1392 C1390 1.419 . S
C1392 C1393 1.363 1_565 S
C1392 H1395 0.929 . S
C1393 C1392 1.363 1_545 S
C1393 C1399 1.428 . S
H1394 C1390 0.930 . S
H1395 C1392 0.929 . S
S1396 N1397 1.613 . S
S1396 N1398 1.610 . S
N1397 S1396 1.613 . S
N1397 C1400 1.350 . S
N1398 S1396 1.610 . S
N1398 C1399 1.351 . S
C1399 C1393 1.428 . S
C1399 N1398 1.351 . S
C1399 C1400 1.434 . S
C1400 C1391 1.429 . S
C1400 N1397 1.350 . S
C1400 C1399 1.434 . S
C1401 C1402 1.405 . S
C1401 C1403 1.419 . S
C1401 H1405 0.930 . S
C1402 C1401 1.405 . S
C1402 C1411 1.410 1_565 S
C1403 C1401 1.419 . S
C1403 C1404 1.363 . S
C1403 H1406 0.929 . S
C1404 C1403 1.363 . S
C1404 C1410 1.428 1_565 S
H1405 C1401 0.930 . S
H1406 C1403 0.929 . S
S1407 N1408 1.613 . S
S1407 N1409 1.610 . S
N1408 S1407 1.613 . S
N1408 C1411 1.350 . S
N1409 S1407 1.610 . S
N1409 C1410 1.351 . S
C1410 C1404 1.428 1_545 S
C1410 N1409 1.351 . S
C1410 C1411 1.434 . S
C1411 C1402 1.410 1_545 S
C1411 N1408 1.350 . S
C1411 C1410 1.434 . S
C1412 C1413 1.369 . S
C1412 C1414 1.419 . S
C1412 H1416 0.914 . S
C1413 C1412 1.369 . S
C1413 C1422 1.429 . S
C1414 C1412 1.419 . S
C1414 C1415 1.363 . S
C1414 H1417 0.929 . S
C1415 C1414 1.363 . S
C1415 C1421 1.428 . S
H1416 C1412 0.914 . S
H1417 C1414 0.929 . S
S1418 N1419 1.613 . S
S1418 N1420 1.610 . S
N1419 S1418 1.613 . S
N1419 C1422 1.350 . S
N1420 S1418 1.610 . S
N1420 C1421 1.351 . S
C1421 C1415 1.428 . S
C1421 N1420 1.351 . S
C1421 C1422 1.434 . S
C1422 C1413 1.429 . S
C1422 N1419 1.350 . S
C1422 C1421 1.434 . S
C1423 C1424 1.369 . S
C1423 C1425 1.419 . S
C1423 H1427 0.930 . S
C1424 C1423 1.369 . S
C1424 C1433 1.429 . S
C1425 C1423 1.419 . S
C1425 C1426 1.363 . S
C1425 H1428 0.929 . S
C1426 C1425 1.363 . S
C1426 C1432 1.428 . S
H1427 C1423 0.930 . S
H1428 C1425 0.929 . S
S1429 N1430 1.613 . S
S1429 N1431 1.610 . S
N1430 S1429 1.613 . S
N1430 C1433 1.350 . S
N1431 S1429 1.610 . S
N1431 C1432 1.351 . S
C1432 C1426 1.428 . S
C1432 N1431 1.351 . S
C1432 C1433 1.434 . S
C1433 C1424 1.429 . S
C1433 N1430 1.350 . S
C1433 C1432 1.434 . S
C1434 C1435 1.369 . S
C1434 C1436 1.419 . S
C1434 H1438 0.930 . S
C1435 C1434 1.369 . S
C1435 C1444 1.429 1_455 S
C1436 C1434 1.419 . S
C1436 C1437 1.363 . S
C1436 H1439 0.929 . S
C1437 C1436 1.363 . S
C1437 C1443 1.428 1_455 S
H1438 C1434 0.930 . S
H1439 C1436 0.929 . S
S1440 N1441 1.613 . S
S1440 N1442 1.610 . S
N1441 S1440 1.613 . S
N1441 C1444 1.350 . S
N1442 S1440 1.610 . S
N1442 C1443 1.351 . S
C1443 C1437 1.428 1_655 S
C1443 N1442 1.351 . S
C1443 C1444 1.434 . S
C1444 C1435 1.429 1_655 S
C1444 N1441 1.350 . S
C1444 C1443 1.434 . S
C1445 C1446 1.369 . S
C1445 C1447 1.419 . S
C1445 H1449 0.930 . S
C1446 C1445 1.369 . S
C1446 C1455 1.429 . S
C1447 C1445 1.419 . S
C1447 C1448 1.363 . S
C1447 H1450 0.929 . S
C1448 C1447 1.363 . S
C1448 C1454 1.428 . S
H1449 C1445 0.930 . S
H1450 C1447 0.929 . S
S1451 N1452 1.613 . S
S1451 N1453 1.610 . S
N1452 S1451 1.613 . S
N1452 C1455 1.350 . S
N1453 S1451 1.610 . S
N1453 C1454 1.351 . S
C1454 C1448 1.428 . S
C1454 N1453 1.351 . S
C1454 C1455 1.434 . S
C1455 C1446 1.429 . S
C1455 N1452 1.350 . S
C1455 C1454 1.434 . S
C1456 C1457 1.369 1_545 S
C1456 C1458 1.419 . S
C1456 H1460 0.930 . S
C1457 C1456 1.369 1_565 S
C1457 C1466 1.429 . S
C1458 C1456 1.419 . S
C1458 C1459 1.363 1_545 S
C1458 H1461 0.929 . S
C1459 C1458 1.363 1_565 S
C1459 C1465 1.428 . S
H1460 C1456 0.930 . S
H1461 C1458 0.929 . S
S1462 N1463 1.613 . S
S1462 N1464 1.610 . S
N1463 S1462 1.613 . S
N1463 C1466 1.350 . S
N1464 S1462 1.610 . S
N1464 C1465 1.351 . S
C1465 C1459 1.428 . S
C1465 N1464 1.351 . S
C1465 C1466 1.434 . S
C1466 C1457 1.429 . S
C1466 N1463 1.350 . S
C1466 C1465 1.434 . S
C1467 C1468 1.369 1_565 S
C1467 C1469 1.419 . S
C1467 H1471 0.930 . S
C1468 C1467 1.369 1_545 S
C1468 C1477 1.429 . S
C1469 C1467 1.419 . S
C1469 C1470 1.363 1_565 S
C1469 H1472 0.929 . S
C1470 C1469 1.363 1_545 S
C1470 C1476 1.428 . S
H1471 C1467 0.930 . S
H1472 C1469 0.929 . S
S1473 N1474 1.613 . S
S1473 N1475 1.610 . S
N1474 S1473 1.613 . S
N1474 C1477 1.350 . S
N1475 S1473 1.610 . S
N1475 C1476 1.351 . S
C1476 C1470 1.428 . S
C1476 N1475 1.351 . S
C1476 C1477 1.434 . S
C1477 C1468 1.429 . S
C1477 N1474 1.350 . S
C1477 C1476 1.434 . S
C1478 C1479 1.369 . S
C1478 C1480 1.419 . S
C1478 H1482 0.930 . S
C1479 C1478 1.369 . S
C1479 C1488 1.429 1_655 S
C1480 C1478 1.419 . S
C1480 C1481 1.363 . S
C1480 H1483 0.929 . S
C1481 C1480 1.363 . S
C1481 C1487 1.428 1_655 S
H1482 C1478 0.930 . S
H1483 C1480 0.929 . S
S1484 N1485 1.613 . S
S1484 N1486 1.610 . S
N1485 S1484 1.613 . S
N1485 C1488 1.350 . S
N1486 S1484 1.610 . S
N1486 C1487 1.351 . S
C1487 C1481 1.428 1_455 S
C1487 N1486 1.351 . S
C1487 C1488 1.434 . S
C1488 C1479 1.429 1_455 S
C1488 N1485 1.350 . S
C1488 C1487 1.434 . S
C1489 C1490 1.369 . S
C1489 C1491 1.419 . S
C1489 H1493 0.930 . S
C1490 C1489 1.369 . S
C1490 C1499 1.429 . S
C1491 C1489 1.419 . S
C1491 C1492 1.363 . S
C1491 H1494 0.929 . S
C1492 C1491 1.363 . S
C1492 C1498 1.428 . S
H1493 C1489 0.930 . S
H1494 C1491 0.929 . S
S1495 N1496 1.613 . S
S1495 N1497 1.610 . S
N1496 S1495 1.613 . S
N1496 C1499 1.350 . S
N1497 S1495 1.610 . S
N1497 C1498 1.351 . S
C1498 C1492 1.428 . S
C1498 N1497 1.351 . S
C1498 C1499 1.434 . S
C1499 C1490 1.429 . S
C1499 N1496 1.350 . S
C1499 C1498 1.434 . S
C1500 C1501 1.369 . S
C1500 C1502 1.419 . S
C1500 H1504 0.930 . S
C1501 C1500 1.369 . S
C1501 C1510 1.429 . S
C1502 C1500 1.419 . S
C1502 C1503 1.363 . S
C1502 H1505 0.929 . S
C1503 C1502 1.363 . S
C1503 C1509 1.428 . S
H1504 C1500 0.930 . S
H1505 C1502 0.929 . S
S1506 N1507 1.613 . S
S1506 N1508 1.610 . S
N1507 S1506 1.613 . S
N1507 C1510 1.350 . S
N1508 S1506 1.610 . S
N1508 C1509 1.351 . S
C1509 C1503 1.428 . S
C1509 N1508 1.351 . S
C1509 C1510 1.434 . S
C1510 C1501 1.429 . S
C1510 N1507 1.350 . S
C1510 C1509 1.434 . S
C1511 C1512 1.369 . S
C1511 C1513 1.419 . S
C1511 H1515 0.930 . S
C1512 C1511 1.369 . S
C1512 C1521 1.429 . S
C1513 C1511 1.419 . S
C1513 C1514 1.363 . S
C1513 H1516 0.929 . S
C1514 C1513 1.363 . S
C1514 C1520 1.428 . S
H1515 C1511 0.930 . S
H1516 C1513 0.929 . S
S1517 N1518 1.613 . S
S1517 N1519 1.610 . S
N1518 S1517 1.613 . S
N1518 C1521 1.350 . S
N1519 S1517 1.610 . S
N1519 C1520 1.351 . S
C1520 C1514 1.428 . S
C1520 N1519 1.351 . S
C1520 C1521 1.434 . S
C1521 C1512 1.429 . S
C1521 N1518 1.350 . S
C1521 C1520 1.434 . S
C1522 C1523 1.369 . S
C1522 C1524 1.419 . S
C1522 H1526 0.930 . S
C1523 C1522 1.369 . S
C1523 C1532 1.429 . S
C1524 C1522 1.419 . S
C1524 C1525 1.363 . S
C1524 H1527 0.929 . S
C1525 C1524 1.363 . S
C1525 C1531 1.428 . S
H1526 C1522 0.930 . S
H1527 C1524 0.929 . S
S1528 N1529 1.613 . S
S1528 N1530 1.610 . S
N1529 S1528 1.613 . S
N1529 C1532 1.350 . S
N1530 S1528 1.610 . S
N1530 C1531 1.351 . S
C1531 C1525 1.428 . S
C1531 N1530 1.351 . S
C1531 C1532 1.434 . S
C1532 C1523 1.429 . S
C1532 N1529 1.350 . S
C1532 C1531 1.434 . S
C1533 C1534 1.369 . S
C1533 C1535 1.419 . S
C1533 H1537 0.930 . S
C1534 C1533 1.369 . S
C1534 C1543 1.429 . S
C1535 C1533 1.419 . S
C1535 C1536 1.363 . S
C1535 H1538 0.929 . S
C1536 C1535 1.363 . S
C1536 C1542 1.428 . S
H1537 C1533 0.930 . S
H1538 C1535 0.929 . S
S1539 N1540 1.613 . S
S1539 N1541 1.610 . S
N1540 S1539 1.613 . S
N1540 C1543 1.350 . S
N1541 S1539 1.610 . S
N1541 C1542 1.351 . S
C1542 C1536 1.428 . S
C1542 N1541 1.351 . S
C1542 C1543 1.434 . S
C1543 C1534 1.429 . S
C1543 N1540 1.350 . S
C1543 C1542 1.434 . S
C1544 C1545 1.369 . S
C1544 C1546 1.419 . S
C1544 H1548 0.930 . S
C1545 C1544 1.369 . S
C1545 C1554 1.429 . S
C1546 C1544 1.419 . S
C1546 C1547 1.363 . S
C1546 H1549 0.929 . S
C1547 C1546 1.363 . S
C1547 C1553 1.428 . S
H1548 C1544 0.930 . S
H1549 C1546 0.929 . S
S1550 N1551 1.613 . S
S1550 N1552 1.610 . S
N1551 S1550 1.613 . S
N1551 C1554 1.350 . S
N1552 S1550 1.610 . S
N1552 C1553 1.351 . S
C1553 C1547 1.428 . S
C1553 N1552 1.351 . S
C1553 C1554 1.434 . S
C1554 C1545 1.429 . S
C1554 N1551 1.350 . S
C1554 C1553 1.434 . S
C1555 C1556 1.369 . S
C1555 C1557 1.419 . S
C1555 H1559 0.930 . S
C1556 C1555 1.369 . S
C1556 C1565 1.429 . S
C1557 C1555 1.419 . S
C1557 C1558 1.363 . S
C1557 H1560 0.929 . S
C1558 C1557 1.363 . S
C1558 C1564 1.428 . S
H1559 C1555 0.930 . S
H1560 C1557 0.929 . S
S1561 N1562 1.613 . S
S1561 N1563 1.610 . S
N1562 S1561 1.613 . S
N1562 C1565 1.350 . S
N1563 S1561 1.610 . S
N1563 C1564 1.351 . S
C1564 C1558 1.428 . S
C1564 N1563 1.351 . S
C1564 C1565 1.434 . S
C1565 C1556 1.429 . S
C1565 N1562 1.350 . S
C1565 C1564 1.434 . S
C1566 C1567 1.369 . S
C1566 C1568 1.419 . S
C1566 H1570 0.930 . S
C1567 C1566 1.369 . S
C1567 C1576 1.429 . S
C1568 C1566 1.419 . S
C1568 C1569 1.363 . S
C1568 H1571 0.929 . S
C1569 C1568 1.363 . S
C1569 C1575 1.428 . S
H1570 C1566 0.930 . S
H1571 C1568 0.929 . S
S1572 N1573 1.613 . S
S1572 N1574 1.610 . S
N1573 S1572 1.613 . S
N1573 C1576 1.350 . S
N1574 S1572 1.610 . S
N1574 C1575 1.351 . S
C1575 C1569 1.428 . S
C1575 N1574 1.351 . S
C1575 C1576 1.434 . S
C1576 C1567 1.429 . S
C1576 N1573 1.350 . S
C1576 C1575 1.434 . S
C1577 C1578 1.369 . S
C1577 C1579 1.419 . S
C1577 H1581 0.930 . S
C1578 C1577 1.369 . S
C1578 C1587 1.429 . S
C1579 C1577 1.419 . S
C1579 C1580 1.363 . S
C1579 H1582 0.929 . S
C1580 C1579 1.363 . S
C1580 C1586 1.428 . S
H1581 C1577 0.930 . S
H1582 C1579 0.929 . S
S1583 N1584 1.613 . S
S1583 N1585 1.610 . S
N1584 S1583 1.613 . S
N1584 C1587 1.350 . S
N1585 S1583 1.610 . S
N1585 C1586 1.351 . S
C1586 C1580 1.428 . S
C1586 N1585 1.351 . S
C1586 C1587 1.434 . S
C1587 C1578 1.429 . S
C1587 N1584 1.350 . S
C1587 C1586 1.434 . S
C1588 C1589 1.369 . S
C1588 C1590 1.419 . S
C1588 H1592 0.930 . S
C1589 C1588 1.369 . S
C1589 C1598 1.429 . S
C1590 C1588 1.419 . S
C1590 C1591 1.363 . S
C1590 H1593 0.929 . S
C1591 C1590 1.363 . S
C1591 C1597 1.428 . S
H1592 C1588 0.930 . S
H1593 C1590 0.929 . S
S1594 N1595 1.613 . S
S1594 N1596 1.610 . S
N1595 S1594 1.613 . S
N1595 C1598 1.350 . S
N1596 S1594 1.610 . S
N1596 C1597 1.351 . S
C1597 C1591 1.428 . S
C1597 N1596 1.351 . S
C1597 C1598 1.434 . S
C1598 C1589 1.429 . S
C1598 N1595 1.350 . S
C1598 C1597 1.434 . S
C1599 C1600 1.369 . S
C1599 C1601 1.419 . S
C1599 H1603 0.930 . S
C1600 C1599 1.369 . S
C1600 C1609 1.429 . S
C1601 C1599 1.419 . S
C1601 C1602 1.363 . S
C1601 H1604 0.929 . S
C1602 C1601 1.363 . S
C1602 C1608 1.428 . S
H1603 C1599 0.930 . S
H1604 C1601 0.929 . S
S1605 N1606 1.613 . S
S1605 N1607 1.610 . S
N1606 S1605 1.613 . S
N1606 C1609 1.350 . S
N1607 S1605 1.610 . S
N1607 C1608 1.351 . S
C1608 C1602 1.428 . S
C1608 N1607 1.351 . S
C1608 C1609 1.434 . S
C1609 C1600 1.429 . S
C1609 N1606 1.350 . S
C1609 C1608 1.434 . S
C1610 C1611 1.369 . S
C1610 C1612 1.419 . S
C1610 H1614 0.930 . S
C1611 C1610 1.369 . S
C1611 C1620 1.429 . S
C1612 C1610 1.419 . S
C1612 C1613 1.363 . S
C1612 H1615 0.929 . S
C1613 C1612 1.363 . S
C1613 C1619 1.428 . S
H1614 C1610 0.930 . S
H1615 C1612 0.929 . S
S1616 N1617 1.613 . S
S1616 N1618 1.610 . S
N1617 S1616 1.613 . S
N1617 C1620 1.350 . S
N1618 S1616 1.610 . S
N1618 C1619 1.351 . S
C1619 C1613 1.428 . S
C1619 N1618 1.351 . S
C1619 C1620 1.434 . S
C1620 C1611 1.429 . S
C1620 N1617 1.350 . S
C1620 C1619 1.434 . S
C1621 C1622 1.369 . S
C1621 C1623 1.419 . S
C1621 H1625 0.930 . S
C1622 C1621 1.369 . S
C1622 C1631 1.429 . S
C1623 C1621 1.419 . S
C1623 C1624 1.363 . S
C1623 H1626 0.929 . S
C1624 C1623 1.363 . S
C1624 C1630 1.428 . S
H1625 C1621 0.930 . S
H1626 C1623 0.929 . S
S1627 N1628 1.613 . S
S1627 N1629 1.610 . S
N1628 S1627 1.613 . S
N1628 C1631 1.350 . S
N1629 S1627 1.610 . S
N1629 C1630 1.351 . S
C1630 C1624 1.428 . S
C1630 N1629 1.351 . S
C1630 C1631 1.434 . S
C1631 C1622 1.429 . S
C1631 N1628 1.350 . S
C1631 C1630 1.434 . S
C1632 C1633 1.369 . S
C1632 C1634 1.419 . S
C1632 H1636 0.930 . S
C1633 C1632 1.369 . S
C1633 C1642 1.429 . S
C1634 C1632 1.419 . S
C1634 C1635 1.363 . S
C1634 H1637 0.929 . S
C1635 C1634 1.363 . S
C1635 C1641 1.428 . S
H1636 C1632 0.930 . S
H1637 C1634 0.929 . S
S1638 N1639 1.613 . S
S1638 N1640 1.610 . S
N1639 S1638 1.613 . S
N1639 C1642 1.350 . S
N1640 S1638 1.610 . S
N1640 C1641 1.351 . S
C1641 C1635 1.428 . S
C1641 N1640 1.351 . S
C1641 C1642 1.434 . S
C1642 C1633 1.429 . S
C1642 N1639 1.350 . S
C1642 C1641 1.434 . S
C1643 C1644 1.369 . S
C1643 C1645 1.419 . S
C1643 H1647 0.930 . S
C1644 C1643 1.369 . S
C1644 C1653 1.429 . S
C1645 C1643 1.419 . S
C1645 C1646 1.363 . S
C1645 H1648 0.929 . S
C1646 C1645 1.363 . S
C1646 C1652 1.428 . S
H1647 C1643 0.930 . S
H1648 C1645 0.929 . S
S1649 N1650 1.613 . S
S1649 N1651 1.610 . S
N1650 S1649 1.613 . S
N1650 C1653 1.350 . S
N1651 S1649 1.610 . S
N1651 C1652 1.351 . S
C1652 C1646 1.428 . S
C1652 N1651 1.351 . S
C1652 C1653 1.434 . S
C1653 C1644 1.429 . S
C1653 N1650 1.350 . S
C1653 C1652 1.434 . S
C1654 C1655 1.369 . S
C1654 C1656 1.419 . S
C1654 H1658 0.930 . S
C1655 C1654 1.369 . S
C1655 C1664 1.429 . S
C1656 C1654 1.419 . S
C1656 C1657 1.363 . S
C1656 H1659 0.929 . S
C1657 C1656 1.363 . S
C1657 C1663 1.428 . S
H1658 C1654 0.930 . S
H1659 C1656 0.929 . S
S1660 N1661 1.613 . S
S1660 N1662 1.610 . S
N1661 S1660 1.613 . S
N1661 C1664 1.350 . S
N1662 S1660 1.610 . S
N1662 C1663 1.351 . S
C1663 C1657 1.428 . S
C1663 N1662 1.351 . S
C1663 C1664 1.434 . S
C1664 C1655 1.429 . S
C1664 N1661 1.350 . S
C1664 C1663 1.434 . S
C1665 C1666 1.369 . S
C1665 C1667 1.419 . S
C1665 H1669 0.930 . S
C1666 C1665 1.369 . S
C1666 C1675 1.429 . S
C1667 C1665 1.419 . S
C1667 C1668 1.363 . S
C1667 H1670 0.929 . S
C1668 C1667 1.363 . S
C1668 C1674 1.428 . S
H1669 C1665 0.930 . S
H1670 C1667 0.929 . S
S1671 N1672 1.613 . S
S1671 N1673 1.610 . S
N1672 S1671 1.613 . S
N1672 C1675 1.350 . S
N1673 S1671 1.610 . S
N1673 C1674 1.351 . S
C1674 C1668 1.428 . S
C1674 N1673 1.351 . S
C1674 C1675 1.434 . S
C1675 C1666 1.429 . S
C1675 N1672 1.350 . S
C1675 C1674 1.434 . S
C1676 C1677 1.369 . S
C1676 C1678 1.419 . S
C1676 H1680 0.930 . S
C1677 C1676 1.369 . S
C1677 C1686 1.429 . S
C1678 C1676 1.419 . S
C1678 C1679 1.363 . S
C1678 H1681 0.929 . S
C1679 C1678 1.363 . S
C1679 C1685 1.428 . S
H1680 C1676 0.930 . S
H1681 C1678 0.929 . S
S1682 N1683 1.613 . S
S1682 N1684 1.610 . S
N1683 S1682 1.613 . S
N1683 C1686 1.350 . S
N1684 S1682 1.610 . S
N1684 C1685 1.351 . S
C1685 C1679 1.428 . S
C1685 N1684 1.351 . S
C1685 C1686 1.434 . S
C1686 C1677 1.429 . S
C1686 N1683 1.350 . S
C1686 C1685 1.434 . S
C1687 C1688 1.369 . S
C1687 C1689 1.419 . S
C1687 H1691 0.930 . S
C1688 C1687 1.369 . S
C1688 C1697 1.429 . S
C1689 C1687 1.419 . S
C1689 C1690 1.363 . S
C1689 H1692 0.929 . S
C1690 C1689 1.363 . S
C1690 C1696 1.428 . S
H1691 C1687 0.930 . S
H1692 C1689 0.929 . S
S1693 N1694 1.613 . S
S1693 N1695 1.610 . S
N1694 S1693 1.613 . S
N1694 C1697 1.350 . S
N1695 S1693 1.610 . S
N1695 C1696 1.351 . S
C1696 C1690 1.428 . S
C1696 N1695 1.351 . S
C1696 C1697 1.434 . S
C1697 C1688 1.429 . S
C1697 N1694 1.350 . S
C1697 C1696 1.434 . S
C1698 C1699 1.369 . S
C1698 C1700 1.419 . S
C1698 H1702 0.930 . S
C1699 C1698 1.369 . S
C1699 C1708 1.429 . S
C1700 C1698 1.419 . S
C1700 C1701 1.363 . S
C1700 H1703 0.929 . S
C1701 C1700 1.363 . S
C1701 C1707 1.428 . S
H1702 C1698 0.930 . S
H1703 C1700 0.929 . S
S1704 N1705 1.613 . S
S1704 N1706 1.610 . S
N1705 S1704 1.613 . S
N1705 C1708 1.350 . S
N1706 S1704 1.610 . S
N1706 C1707 1.351 . S
C1707 C1701 1.428 . S
C1707 N1706 1.351 . S
C1707 C1708 1.434 . S
C1708 C1699 1.429 . S
C1708 N1705 1.350 . S
C1708 C1707 1.434 . S
C1709 C1710 1.369 . S
C1709 C1711 1.419 . S
C1709 H1713 0.930 . S
C1710 C1709 1.369 . S
C1710 C1719 1.429 . S
C1711 C1709 1.419 . S
C1711 C1712 1.363 . S
C1711 H1714 0.929 . S
C1712 C1711 1.363 . S
C1712 C1718 1.428 . S
H1713 C1709 0.930 . S
H1714 C1711 0.929 . S
S1715 N1716 1.613 . S
S1715 N1717 1.610 . S
N1716 S1715 1.613 . S
N1716 C1719 1.350 . S
N1717 S1715 1.610 . S
N1717 C1718 1.351 . S
C1718 C1712 1.428 . S
C1718 N1717 1.351 . S
C1718 C1719 1.434 . S
C1719 C1710 1.429 . S
C1719 N1716 1.350 . S
C1719 C1718 1.434 . S
C1720 C1721 1.369 . S
C1720 C1722 1.419 . S
C1720 H1724 0.930 . S
C1721 C1720 1.369 . S
C1721 C1730 1.429 . S
C1722 C1720 1.419 . S
C1722 C1723 1.363 . S
C1722 H1725 0.929 . S
C1723 C1722 1.363 . S
C1723 C1729 1.428 . S
H1724 C1720 0.930 . S
H1725 C1722 0.929 . S
S1726 N1727 1.613 . S
S1726 N1728 1.610 . S
N1727 S1726 1.613 . S
N1727 C1730 1.350 . S
N1728 S1726 1.610 . S
N1728 C1729 1.351 . S
C1729 C1723 1.428 . S
C1729 N1728 1.351 . S
C1729 C1730 1.434 . S
C1730 C1721 1.429 . S
C1730 N1727 1.350 . S
C1730 C1729 1.434 . S
C1731 C1732 1.369 . S
C1731 C1733 1.419 . S
C1731 H1735 0.930 . S
C1732 C1731 1.369 . S
C1732 C1741 1.429 . S
C1733 C1731 1.419 . S
C1733 C1734 1.363 . S
C1733 H1736 0.929 . S
C1734 C1733 1.363 . S
C1734 C1740 1.428 . S
H1735 C1731 0.930 . S
H1736 C1733 0.929 . S
S1737 N1738 1.613 . S
S1737 N1739 1.610 . S
N1738 S1737 1.613 . S
N1738 C1741 1.350 . S
N1739 S1737 1.610 . S
N1739 C1740 1.351 . S
C1740 C1734 1.428 . S
C1740 N1739 1.351 . S
C1740 C1741 1.434 . S
C1741 C1732 1.429 . S
C1741 N1738 1.350 . S
C1741 C1740 1.434 . S
C1742 C1743 1.369 . S
C1742 C1744 1.419 . S
C1742 H1746 0.930 . S
C1743 C1742 1.369 . S
C1743 C1752 1.429 . S
C1744 C1742 1.419 . S
C1744 C1745 1.363 . S
C1744 H1747 0.929 . S
C1745 C1744 1.363 . S
C1745 C1751 1.428 . S
H1746 C1742 0.930 . S
H1747 C1744 0.929 . S
S1748 N1749 1.613 . S
S1748 N1750 1.610 . S
N1749 S1748 1.613 . S
N1749 C1752 1.350 . S
N1750 S1748 1.610 . S
N1750 C1751 1.351 . S
C1751 C1745 1.428 . S
C1751 N1750 1.351 . S
C1751 C1752 1.434 . S
C1752 C1743 1.429 . S
C1752 N1749 1.350 . S
C1752 C1751 1.434 . S
C1753 C1754 1.369 . S
C1753 C1755 1.419 . S
C1753 H1757 0.930 . S
C1754 C1753 1.369 . S
C1754 C1763 1.429 . S
C1755 C1753 1.419 . S
C1755 C1756 1.363 . S
C1755 H1758 0.929 . S
C1756 C1755 1.363 . S
C1756 C1762 1.428 . S
H1757 C1753 0.930 . S
H1758 C1755 0.929 . S
S1759 N1760 1.613 . S
S1759 N1761 1.610 . S
N1760 S1759 1.613 . S
N1760 C1763 1.350 . S
N1761 S1759 1.610 . S
N1761 C1762 1.351 . S
C1762 C1756 1.428 . S
C1762 N1761 1.351 . S
C1762 C1763 1.434 . S
C1763 C1754 1.429 . S
C1763 N1760 1.350 . S
C1763 C1762 1.434 . S
C1764 C1765 1.369 . S
C1764 C1766 1.419 . S
C1764 H1768 0.930 . S
C1765 C1764 1.369 . S
C1765 C1774 1.429 . S
C1766 C1764 1.419 . S
C1766 C1767 1.363 . S
C1766 H1769 0.929 . S
C1767 C1766 1.363 . S
C1767 C1773 1.428 . S
H1768 C1764 0.930 . S
H1769 C1766 0.929 . S
S1770 N1771 1.613 . S
S1770 N1772 1.610 . S
N1771 S1770 1.613 . S
N1771 C1774 1.350 . S
N1772 S1770 1.610 . S
N1772 C1773 1.351 . S
C1773 C1767 1.428 . S
C1773 N1772 1.351 . S
C1773 C1774 1.434 . S
C1774 C1765 1.429 . S
C1774 N1771 1.350 . S
C1774 C1773 1.434 . S
C1775 C1776 1.369 . S
C1775 C1777 1.419 . S
C1775 H1779 0.930 . S
C1776 C1775 1.369 . S
C1776 C1785 1.429 . S
C1777 C1775 1.419 . S
C1777 C1778 1.363 . S
C1777 H1780 0.929 . S
C1778 C1777 1.363 . S
C1778 C1784 1.428 . S
H1779 C1775 0.930 . S
H1780 C1777 0.929 . S
S1781 N1782 1.613 . S
S1781 N1783 1.610 . S
N1782 S1781 1.613 . S
N1782 C1785 1.350 . S
N1783 S1781 1.610 . S
N1783 C1784 1.351 . S
C1784 C1778 1.428 . S
C1784 N1783 1.351 . S
C1784 C1785 1.434 . S
C1785 C1776 1.429 . S
C1785 N1782 1.350 . S
C1785 C1784 1.434 . S
C1786 C1787 1.369 . S
C1786 C1788 1.419 . S
C1786 H1790 0.930 . S
C1787 C1786 1.369 . S
C1787 C1796 1.429 . S
C1788 C1786 1.419 . S
C1788 C1789 1.363 . S
C1788 H1791 0.929 . S
C1789 C1788 1.363 . S
C1789 C1795 1.428 . S
H1790 C1786 0.930 . S
H1791 C1788 0.929 . S
S1792 N1793 1.613 1_556 S
S1792 N1794 1.610 1_556 S
N1793 S1792 1.613 1_554 S
N1793 C1796 1.350 . S
N1794 S1792 1.610 1_554 S
N1794 C1795 1.351 . S
C1795 C1789 1.428 . S
C1795 N1794 1.351 . S
C1795 C1796 1.434 . S
C1796 C1787 1.429 . S
C1796 N1793 1.350 . S
C1796 C1795 1.434 . S
C1797 C1798 1.369 . S
C1797 C1799 1.419 . S
C1797 H1801 0.930 . S
C1798 C1797 1.369 . S
C1798 C1807 1.429 . S
C1799 C1797 1.419 . S
C1799 C1800 1.363 . S
C1799 H1802 0.929 . S
C1800 C1799 1.363 . S
C1800 C1806 1.428 . S
H1801 C1797 0.930 . S
H1802 C1799 0.929 . S
S1803 N1804 1.613 . S
S1803 N1805 1.610 . S
N1804 S1803 1.613 . S
N1804 C1807 1.350 . S
N1805 S1803 1.610 . S
N1805 C1806 1.351 . S
C1806 C1800 1.428 . S
C1806 N1805 1.351 . S
C1806 C1807 1.434 . S
C1807 C1798 1.429 . S
C1807 N1804 1.350 . S
C1807 C1806 1.434 . S
C1808 C1809 1.369 . S
C1808 C1810 1.419 . S
C1808 H1812 0.930 . S
C1809 C1808 1.369 . S
C1809 C1818 1.429 . S
C1810 C1808 1.419 . S
C1810 C1811 1.363 . S
C1810 H1813 0.929 . S
C1811 C1810 1.363 . S
C1811 C1817 1.428 . S
H1812 C1808 0.930 . S
H1813 C1810 0.929 . S
S1814 N1815 1.613 . S
S1814 N1816 1.591 1_554 S
N1815 S1814 1.613 . S
N1815 C1818 1.350 1_554 S
N1816 S1814 1.591 1_556 S
N1816 C1817 1.366 . S
C1817 C1811 1.428 . S
C1817 N1816 1.366 . S
C1817 C1818 1.434 . S
C1818 C1809 1.429 . S
C1818 N1815 1.350 1_556 S
C1818 C1817 1.434 . S
C1819 C1820 1.369 . S
C1819 C1821 1.419 . S
C1819 H1823 0.930 . S
C1820 C1819 1.369 . S
C1820 C1829 1.429 . S
C1821 C1819 1.419 . S
C1821 C1822 1.363 . S
C1821 H1824 0.929 . S
C1822 C1821 1.363 . S
C1822 C1828 1.428 . S
H1823 C1819 0.930 . S
H1824 C1821 0.929 . S
S1825 N1826 1.613 . S
S1825 N1827 1.610 . S
N1826 S1825 1.613 . S
N1826 C1829 1.350 . S
N1827 S1825 1.610 . S
N1827 C1828 1.351 . S
C1828 C1822 1.428 . S
C1828 N1827 1.351 . S
C1828 C1829 1.434 . S
C1829 C1820 1.429 . S
C1829 N1826 1.350 . S
C1829 C1828 1.434 . S
C1830 C1831 1.369 . S
C1830 C1832 1.419 . S
C1830 H1834 0.930 . S
C1831 C1830 1.369 . S
C1831 C1840 1.429 . S
C1832 C1830 1.419 . S
C1832 C1833 1.363 . S
C1832 H1835 0.929 . S
C1833 C1832 1.363 . S
C1833 C1839 1.428 . S
H1834 C1830 0.930 . S
H1835 C1832 0.929 . S
S1836 N1837 1.613 . S
S1836 N1838 1.610 1_554 S
N1837 S1836 1.613 . S
N1837 C1840 1.350 1_554 S
N1838 S1836 1.610 1_556 S
N1838 C1839 1.351 . S
C1839 C1833 1.428 . S
C1839 N1838 1.351 . S
C1839 C1840 1.434 . S
C1840 C1831 1.429 . S
C1840 N1837 1.350 1_556 S
C1840 C1839 1.434 . S
C1841 C1842 1.369 . S
C1841 C1843 1.419 . S
C1841 H1845 0.930 . S
C1842 C1841 1.369 . S
C1842 C1851 1.429 1_556 S
C1843 C1841 1.419 . S
C1843 C1844 1.363 . S
C1843 H1846 0.929 . S
C1844 C1843 1.363 . S
C1844 C1850 1.428 . S
H1845 C1841 0.930 . S
H1846 C1843 0.929 . S
S1847 N1848 1.613 . S
S1847 N1849 1.610 . S
N1848 S1847 1.613 . S
N1848 C1851 1.350 . S
N1849 S1847 1.610 . S
N1849 C1850 1.351 1_554 S
C1850 C1844 1.428 . S
C1850 N1849 1.351 1_556 S
C1850 C1851 1.434 1_556 S
C1851 C1842 1.429 1_554 S
C1851 N1848 1.350 . S
C1851 C1850 1.434 1_554 S
C1852 C1853 1.369 . S
C1852 C1854 1.419 . S
C1852 H1856 0.930 . S
C1853 C1852 1.369 . S
C1853 C1862 1.429 . S
C1854 C1852 1.419 . S
C1854 C1855 1.363 . S
C1854 H1857 0.929 . S
C1855 C1854 1.363 . S
C1855 C1861 1.428 . S
H1856 C1852 0.930 . S
H1857 C1854 0.929 . S
S1858 N1859 1.613 . S
S1858 N1860 1.610 . S
N1859 S1858 1.613 . S
N1859 C1862 1.350 . S
N1860 S1858 1.610 . S
N1860 C1861 1.351 . S
C1861 C1855 1.428 . S
C1861 N1860 1.351 . S
C1861 C1862 1.434 . S
C1862 C1853 1.429 . S
C1862 N1859 1.350 . S
C1862 C1861 1.434 . S
C1863 C1864 1.369 . S
C1863 C1865 1.419 . S
C1863 H1867 0.930 . S
C1864 C1863 1.369 . S
C1864 C1873 1.429 . S
C1865 C1863 1.419 . S
C1865 C1866 1.363 . S
C1865 H1868 0.929 . S
C1866 C1865 1.363 . S
C1866 C1872 1.428 . S
H1867 C1863 0.930 . S
H1868 C1865 0.929 . S
S1869 N1870 1.613 . S
S1869 N1871 1.610 . S
N1870 S1869 1.613 . S
N1870 C1873 1.350 . S
N1871 S1869 1.610 . S
N1871 C1872 1.351 . S
C1872 C1866 1.428 . S
C1872 N1871 1.351 . S
C1872 C1873 1.434 . S
C1873 C1864 1.429 . S
C1873 N1870 1.350 . S
C1873 C1872 1.434 . S
C1874 C1875 1.369 . S
C1874 C1876 1.419 . S
C1874 H1878 0.930 . S
C1875 C1874 1.369 . S
C1875 C1884 1.429 . S
C1876 C1874 1.419 . S
C1876 C1877 1.363 . S
C1876 H1879 0.929 . S
C1877 C1876 1.363 . S
C1877 C1883 1.428 . S
H1878 C1874 0.930 . S
H1879 C1876 0.929 . S
S1880 N1881 1.613 . S
S1880 N1882 1.610 . S
N1881 S1880 1.613 . S
N1881 C1884 1.350 . S
N1882 S1880 1.610 . S
N1882 C1883 1.351 . S
C1883 C1877 1.428 . S
C1883 N1882 1.351 . S
C1883 C1884 1.434 . S
C1884 C1875 1.429 . S
C1884 N1881 1.350 . S
C1884 C1883 1.434 . S
C1885 C1886 1.369 . S
C1885 C1887 1.419 . S
C1885 H1889 0.930 . S
C1886 C1885 1.369 . S
C1886 C1895 1.429 . S
C1887 C1885 1.419 . S
C1887 C1888 1.363 . S
C1887 H1890 0.929 . S
C1888 C1887 1.363 . S
C1888 C1894 1.428 . S
H1889 C1885 0.930 . S
H1890 C1887 0.929 . S
S1891 N1892 1.613 . S
S1891 N1893 1.610 . S
N1892 S1891 1.613 . S
N1892 C1895 1.350 . S
N1893 S1891 1.610 . S
N1893 C1894 1.351 . S
C1894 C1888 1.428 . S
C1894 N1893 1.351 . S
C1894 C1895 1.434 . S
C1895 C1886 1.429 . S
C1895 N1892 1.350 . S
C1895 C1894 1.434 . S
C1896 C1897 1.369 . S
C1896 C1898 1.419 . S
C1896 H1900 0.930 . S
C1897 C1896 1.369 . S
C1897 C1906 1.429 . S
C1898 C1896 1.419 . S
C1898 C1899 1.363 . S
C1898 H1901 0.929 . S
C1899 C1898 1.363 . S
C1899 C1905 1.428 . S
H1900 C1896 0.930 . S
H1901 C1898 0.929 . S
S1902 N1903 1.613 . S
S1902 N1904 1.610 . S
N1903 S1902 1.613 . S
N1903 C1906 1.350 . S
N1904 S1902 1.610 . S
N1904 C1905 1.351 . S
C1905 C1899 1.428 . S
C1905 N1904 1.351 . S
C1905 C1906 1.434 . S
C1906 C1897 1.429 . S
C1906 N1903 1.350 . S
C1906 C1905 1.434 . S
C1907 C1908 1.369 . S
C1907 C1909 1.419 . S
C1907 H1911 0.930 . S
C1908 C1907 1.369 . S
C1908 C1917 1.429 . S
C1909 C1907 1.419 . S
C1909 C1910 1.363 . S
C1909 H1912 0.929 . S
C1910 C1909 1.363 . S
C1910 C1916 1.428 . S
H1911 C1907 0.930 . S
H1912 C1909 0.929 . S
S1913 N1914 1.613 . S
S1913 N1915 1.610 . S
N1914 S1913 1.613 . S
N1914 C1917 1.350 . S
N1915 S1913 1.610 . S
N1915 C1916 1.351 . S
C1916 C1910 1.428 . S
C1916 N1915 1.351 . S
C1916 C1917 1.434 . S
C1917 C1908 1.429 . S
C1917 N1914 1.350 . S
C1917 C1916 1.434 . S
C1918 C1919 1.369 . S
C1918 C1920 1.419 . S
C1918 H1922 0.930 . S
C1919 C1918 1.369 . S
C1919 C1928 1.429 . S
C1920 C1918 1.419 . S
C1920 C1921 1.363 . S
C1920 H1923 0.929 . S
C1921 C1920 1.363 . S
C1921 C1927 1.428 . S
H1922 C1918 0.930 . S
H1923 C1920 0.929 . S
S1924 N1925 1.613 . S
S1924 N1926 1.610 . S
N1925 S1924 1.613 . S
N1925 C1928 1.350 . S
N1926 S1924 1.610 . S
N1926 C1927 1.351 . S
C1927 C1921 1.428 . S
C1927 N1926 1.351 . S
C1927 C1928 1.434 . S
C1928 C1919 1.429 . S
C1928 N1925 1.350 . S
C1928 C1927 1.434 . S
C1929 C1930 1.369 . S
C1929 C1931 1.419 . S
C1929 H1933 0.930 . S
C1930 C1929 1.369 . S
C1930 C1939 1.429 . S
C1931 C1929 1.419 . S
C1931 C1932 1.363 . S
C1931 H1934 0.929 . S
C1932 C1931 1.363 . S
C1932 C1938 1.430 . S
H1933 C1929 0.930 . S
H1934 C1931 0.929 . S
S1935 N1936 1.613 . S
S1935 N1937 1.610 . S
N1936 S1935 1.613 . S
N1936 C1939 1.350 1_655 S
N1937 S1935 1.610 . S
N1937 C1938 1.342 1_655 S
C1938 C1932 1.430 . S
C1938 N1937 1.342 1_455 S
C1938 C1939 1.441 . S
C1939 C1930 1.429 . S
C1939 N1936 1.350 1_455 S
C1939 C1938 1.441 . S
C1940 C1941 1.369 . S
C1940 C1942 1.419 . S
C1940 H1944 0.930 . S
C1941 C1940 1.369 . S
C1941 C1950 1.429 . S
C1942 C1940 1.419 . S
C1942 C1943 1.363 . S
C1942 H1945 0.929 . S
C1943 C1942 1.363 . S
C1943 C1949 1.428 . S
H1944 C1940 0.930 . S
H1945 C1942 0.929 . S
S1946 N1947 1.613 . S
S1946 N1948 1.610 . S
N1947 S1946 1.613 . S
N1947 C1950 1.350 . S
N1948 S1946 1.610 . S
N1948 C1949 1.351 . S
C1949 C1943 1.428 . S
C1949 N1948 1.351 . S
C1949 C1950 1.434 . S
C1950 C1941 1.429 . S
C1950 N1947 1.350 . S
C1950 C1949 1.434 . S
C1951 C1952 1.369 . S
C1951 C1953 1.419 . S
C1951 H1955 0.930 . S
C1952 C1951 1.369 . S
C1952 C1961 1.429 1_565 S
C1953 C1951 1.419 . S
C1953 C1954 1.363 . S
C1953 H1956 0.929 . S
C1954 C1953 1.363 . S
C1954 C1960 1.428 1_565 S
H1955 C1951 0.930 . S
H1956 C1953 0.929 . S
S1957 N1958 1.613 . S
S1957 N1959 1.610 . S
N1958 S1957 1.613 . S
N1958 C1961 1.350 . S
N1959 S1957 1.610 . S
N1959 C1960 1.351 . S
C1960 C1954 1.428 1_545 S
C1960 N1959 1.351 . S
C1960 C1961 1.434 . S
C1961 C1952 1.429 1_545 S
C1961 N1958 1.350 . S
C1961 C1960 1.434 . S
C1962 C1963 1.369 . S
C1962 C1964 1.419 . S
C1962 H1966 0.930 . S
C1963 C1962 1.369 . S
C1963 C1972 1.429 . S
C1964 C1962 1.419 . S
C1964 C1965 1.363 . S
C1964 H1967 0.929 . S
C1965 C1964 1.363 . S
C1965 C1971 1.428 . S
H1966 C1962 0.930 . S
H1967 C1964 0.929 . S
S1968 N1969 1.613 1_545 S
S1968 N1970 1.610 . S
N1969 S1968 1.613 1_565 S
N1969 C1972 1.350 . S
N1970 S1968 1.610 . S
N1970 C1971 1.351 1_545 S
C1971 C1965 1.428 . S
C1971 N1970 1.351 1_565 S
C1971 C1972 1.434 . S
C1972 C1963 1.429 . S
C1972 N1969 1.350 . S
C1972 C1971 1.434 . S
C1973 C1974 1.369 . S
C1973 C1975 1.419 . S
C1973 H1977 0.930 . S
C1974 C1973 1.369 . S
C1974 C1983 1.429 . S
C1975 C1973 1.419 . S
C1975 C1976 1.363 . S
C1975 H1978 0.929 . S
C1976 C1975 1.363 . S
C1976 C1982 1.428 . S
H1977 C1973 0.930 . S
H1978 C1975 0.929 . S
S1979 N1980 1.613 1_655 S
S1979 N1981 1.610 . S
N1980 S1979 1.613 1_455 S
N1980 C1983 1.350 . S
N1981 S1979 1.610 . S
N1981 C1982 1.351 1_655 S
C1982 C1976 1.428 . S
C1982 N1981 1.351 1_455 S
C1982 C1983 1.434 . S
C1983 C1974 1.429 . S
C1983 N1980 1.350 . S
C1983 C1982 1.434 . S
C1984 C1985 1.369 . S
C1984 C1986 1.419 . S
C1984 H1988 0.930 . S
C1985 C1984 1.369 . S
C1985 C1994 1.429 . S
C1986 C1984 1.419 . S
C1986 C1987 1.363 . S
C1986 H1989 0.929 . S
C1987 C1986 1.363 . S
C1987 C1993 1.428 . S
H1988 C1984 0.930 . S
H1989 C1986 0.929 . S
S1990 N1991 1.613 . S
S1990 N1992 1.610 . S
N1991 S1990 1.613 . S
N1991 C1994 1.350 . S
N1992 S1990 1.610 . S
N1992 C1993 1.351 . S
C1993 C1987 1.428 . S
C1993 N1992 1.351 . S
C1993 C1994 1.434 . S
C1994 C1985 1.429 . S
C1994 N1991 1.350 . S
C1994 C1993 1.434 . S
C1995 C1996 1.369 . S
C1995 C1997 1.419 . S
C1995 H1999 0.930 . S
C1996 C1995 1.369 . S
C1996 C2005 1.429 . S
C1997 C1995 1.419 . S
C1997 C1998 1.363 . S
C1997 H2000 0.929 . S
C1998 C1997 1.363 . S
C1998 C2004 1.428 . S
H1999 C1995 0.930 . S
H2000 C1997 0.929 . S
S2001 N2002 1.613 . S
S2001 N2003 1.610 . S
N2002 S2001 1.613 . S
N2002 C2005 1.350 . S
N2003 S2001 1.610 . S
N2003 C2004 1.351 . S
C2004 C1998 1.428 . S
C2004 N2003 1.351 . S
C2004 C2005 1.434 . S
C2005 C1996 1.429 . S
C2005 N2002 1.350 . S
C2005 C2004 1.434 . S
C2006 C2007 1.369 . S
C2006 C2008 1.419 . S
C2006 H2010 0.930 . S
C2007 C2006 1.369 . S
C2007 C2016 1.429 . S
C2008 C2006 1.419 . S
C2008 C2009 1.363 . S
C2008 H2011 0.929 . S
C2009 C2008 1.363 . S
C2009 C2015 1.428 . S
H2010 C2006 0.930 . S
H2011 C2008 0.929 . S
S2012 N2013 1.613 . S
S2012 N2014 1.610 . S
N2013 S2012 1.613 . S
N2013 C2016 1.350 . S
N2014 S2012 1.610 . S
N2014 C2015 1.351 . S
C2015 C2009 1.428 . S
C2015 N2014 1.351 . S
C2015 C2016 1.434 . S
C2016 C2007 1.429 . S
C2016 N2013 1.350 . S
C2016 C2015 1.434 . S
C2017 C2018 1.369 . S
C2017 C2019 1.419 . S
C2017 H2021 0.930 . S
C2018 C2017 1.369 . S
C2018 C2027 1.429 . S
C2019 C2017 1.419 . S
C2019 C2020 1.363 . S
C2019 H2022 0.929 . S
C2020 C2019 1.363 . S
C2020 C2026 1.428 . S
H2021 C2017 0.930 . S
H2022 C2019 0.929 . S
S2023 N2024 1.613 . S
S2023 N2025 1.610 . S
N2024 S2023 1.613 . S
N2024 C2027 1.350 . S
N2025 S2023 1.610 . S
N2025 C2026 1.351 . S
C2026 C2020 1.428 . S
C2026 N2025 1.351 . S
C2026 C2027 1.434 . S
C2027 C2018 1.429 . S
C2027 N2024 1.350 . S
C2027 C2026 1.434 . S
C2028 C2029 1.369 . S
C2028 C2030 1.419 . S
C2028 H2032 0.930 . S
C2029 C2028 1.369 . S
C2029 C2038 1.429 . S
C2030 C2028 1.419 . S
C2030 C2031 1.363 . S
C2030 H2033 0.929 . S
C2031 C2030 1.363 . S
C2031 C2037 1.431 . S
H2032 C2028 0.930 . S
H2033 C2030 0.929 . S
S2034 N2035 1.613 . S
S2034 N2036 1.610 . S
N2035 S2034 1.613 . S
N2035 C2038 1.350 1_565 S
N2036 S2034 1.610 . S
N2036 C2037 1.339 1_565 S
C2037 C2031 1.431 . S
C2037 N2036 1.339 1_545 S
C2037 C2038 1.443 . S
C2038 C2029 1.429 . S
C2038 N2035 1.350 1_545 S
C2038 C2037 1.443 . S
C2039 C2040 1.369 . S
C2039 C2041 1.419 . S
C2039 H2043 0.930 . S
C2040 C2039 1.369 . S
C2040 C2049 1.429 . S
C2041 C2039 1.419 . S
C2041 C2042 1.363 . S
C2041 H2044 0.929 . S
C2042 C2041 1.363 . S
C2042 C2048 1.428 1_655 S
H2043 C2039 0.930 . S
H2044 C2041 0.929 . S
S2045 N2046 1.613 . S
S2045 N2047 1.610 . S
N2046 S2045 1.613 . S
N2046 C2049 1.350 1_455 S
N2047 S2045 1.610 . S
N2047 C2048 1.351 . S
C2048 C2042 1.428 1_455 S
C2048 N2047 1.351 . S
C2048 C2049 1.434 1_455 S
C2049 C2040 1.429 . S
C2049 N2046 1.350 1_655 S
C2049 C2048 1.434 1_655 S
C2050 C2051 1.369 . S
C2050 C2052 1.419 . S
C2050 H2054 0.930 . S
C2051 C2050 1.369 . S
C2051 C2060 1.429 . S
C2052 C2050 1.419 . S
C2052 C2053 1.363 . S
C2052 H2055 0.929 . S
C2053 C2052 1.363 . S
C2053 C2059 1.428 . S
H2054 C2050 0.930 . S
H2055 C2052 0.929 . S
S2056 N2057 1.613 . S
S2056 N2058 1.610 . S
N2057 S2056 1.613 . S
N2057 C2060 1.350 . S
N2058 S2056 1.610 . S
N2058 C2059 1.351 . S
C2059 C2053 1.428 . S
C2059 N2058 1.351 . S
C2059 C2060 1.434 . S
C2060 C2051 1.429 . S
C2060 N2057 1.350 . S
C2060 C2059 1.434 . S
C2061 C2062 1.369 . S
C2061 C2063 1.419 . S
C2061 H2065 0.930 . S
C2062 C2061 1.369 . S
C2062 C2071 1.429 . S
C2063 C2061 1.419 . S
C2063 C2064 1.363 . S
C2063 H2066 0.929 . S
C2064 C2063 1.363 . S
C2064 C2070 1.428 . S
H2065 C2061 0.930 . S
H2066 C2063 0.929 . S
S2067 N2068 1.613 . S
S2067 N2069 1.610 . S
N2068 S2067 1.613 . S
N2068 C2071 1.350 . S
N2069 S2067 1.610 . S
N2069 C2070 1.351 . S
C2070 C2064 1.428 . S
C2070 N2069 1.351 . S
C2070 C2071 1.434 . S
C2071 C2062 1.429 . S
C2071 N2068 1.350 . S
C2071 C2070 1.434 . S
C2072 C2073 1.369 . S
C2072 C2074 1.419 . S
C2072 H2076 0.930 . S
C2073 C2072 1.369 . S
C2073 C2082 1.429 . S
C2074 C2072 1.419 . S
C2074 C2075 1.363 . S
C2074 H2077 0.929 . S
C2075 C2074 1.363 . S
C2075 C2081 1.428 . S
H2076 C2072 0.930 . S
H2077 C2074 0.929 . S
S2078 N2079 1.613 . S
S2078 N2080 1.610 . S
N2079 S2078 1.613 . S
N2079 C2082 1.350 . S
N2080 S2078 1.610 . S
N2080 C2081 1.351 . S
C2081 C2075 1.428 . S
C2081 N2080 1.351 . S
C2081 C2082 1.434 . S
C2082 C2073 1.429 . S
C2082 N2079 1.350 . S
C2082 C2081 1.434 . S
C2083 C2084 1.369 . S
C2083 C2085 1.419 . S
C2083 H2087 0.930 . S
C2084 C2083 1.369 . S
C2084 C2093 1.429 . S
C2085 C2083 1.419 . S
C2085 C2086 1.363 . S
C2085 H2088 0.929 . S
C2086 C2085 1.363 . S
C2086 C2092 1.428 . S
H2087 C2083 0.930 . S
H2088 C2085 0.929 . S
S2089 N2090 1.613 . S
S2089 N2091 1.610 . S
N2090 S2089 1.613 . S
N2090 C2093 1.350 . S
N2091 S2089 1.610 . S
N2091 C2092 1.351 . S
C2092 C2086 1.428 . S
C2092 N2091 1.351 . S
C2092 C2093 1.434 . S
C2093 C2084 1.429 . S
C2093 N2090 1.350 . S
C2093 C2092 1.434 . S
C2094 C2095 1.369 . S
C2094 C2096 1.419 . S
C2094 H2098 0.930 . S
C2095 C2094 1.369 . S
C2095 C2104 1.429 . S
C2096 C2094 1.419 . S
C2096 C2097 1.363 . S
C2096 H2099 0.929 . S
C2097 C2096 1.363 . S
C2097 C2103 1.428 . S
H2098 C2094 0.930 . S
H2099 C2096 0.929 . S
S2100 N2101 1.613 . S
S2100 N2102 1.610 . S
N2101 S2100 1.613 . S
N2101 C2104 1.350 . S
N2102 S2100 1.610 . S
N2102 C2103 1.351 . S
C2103 C2097 1.428 . S
C2103 N2102 1.351 . S
C2103 C2104 1.434 . S
C2104 C2095 1.429 . S
C2104 N2101 1.350 . S
C2104 C2103 1.434 . S
C2105 C2106 1.369 . S
C2105 C2107 1.419 . S
C2105 H2109 0.930 . S
C2106 C2105 1.369 . S
C2106 C2115 1.429 . S
C2107 C2105 1.419 . S
C2107 C2108 1.363 . S
C2107 H2110 0.929 . S
C2108 C2107 1.363 . S
C2108 C2114 1.428 . S
H2109 C2105 0.930 . S
H2110 C2107 0.929 . S
S2111 N2112 1.613 . S
S2111 N2113 1.610 . S
N2112 S2111 1.613 . S
N2112 C2115 1.350 . S
N2113 S2111 1.610 . S
N2113 C2114 1.351 . S
C2114 C2108 1.428 . S
C2114 N2113 1.351 . S
C2114 C2115 1.434 . S
C2115 C2106 1.429 . S
C2115 N2112 1.350 . S
C2115 C2114 1.434 . S
C2116 C2117 1.369 . S
C2116 C2118 1.419 . S
C2116 H2120 0.930 . S
C2117 C2116 1.369 . S
C2117 C2126 1.429 . S
C2118 C2116 1.419 . S
C2118 C2119 1.363 . S
C2118 H2121 0.929 . S
C2119 C2118 1.363 . S
C2119 C2125 1.428 . S
H2120 C2116 0.930 . S
H2121 C2118 0.929 . S
S2122 N2123 1.613 . S
S2122 N2124 1.610 . S
N2123 S2122 1.613 . S
N2123 C2126 1.350 . S
N2124 S2122 1.610 . S
N2124 C2125 1.351 . S
C2125 C2119 1.428 . S
C2125 N2124 1.351 . S
C2125 C2126 1.434 . S
C2126 C2117 1.429 . S
C2126 N2123 1.350 . S
C2126 C2125 1.434 . S
C2127 C2128 1.439 . S
C2127 C2129 1.373 1_655 S
C2127 H2131 0.908 1_655 S
C2128 C2127 1.439 . S
C2128 C2137 1.429 . S
C2129 C2127 1.373 1_455 S
C2129 C2130 1.363 1_455 S
C2129 H2132 0.929 . S
C2130 C2129 1.363 1_655 S
C2130 C2136 1.428 . S
H2131 C2127 0.908 1_455 S
H2132 C2129 0.929 . S
S2133 N2134 1.613 . S
S2133 N2135 1.610 . S
N2134 S2133 1.613 . S
N2134 C2137 1.350 . S
N2135 S2133 1.610 . S
N2135 C2136 1.351 . S
C2136 C2130 1.428 . S
C2136 N2135 1.351 . S
C2136 C2137 1.434 . S
C2137 C2128 1.429 . S
C2137 N2134 1.350 . S
C2137 C2136 1.434 . S
C2138 C2139 1.369 . S
C2138 C2140 1.419 . S
C2138 H2142 0.930 . S
C2139 C2138 1.369 . S
C2139 C2148 1.429 . S
C2140 C2138 1.419 . S
C2140 C2141 1.363 . S
C2140 H2143 0.929 . S
C2141 C2140 1.363 . S
C2141 C2147 1.428 . S
H2142 C2138 0.930 . S
H2143 C2140 0.929 . S
S2144 N2145 1.613 . S
S2144 N2146 1.610 . S
N2145 S2144 1.613 . S
N2145 C2148 1.350 . S
N2146 S2144 1.610 . S
N2146 C2147 1.351 . S
C2147 C2141 1.428 . S
C2147 N2146 1.351 . S
C2147 C2148 1.434 . S
C2148 C2139 1.429 . S
C2148 N2145 1.350 . S
C2148 C2147 1.434 . S
C2149 C2150 1.369 . S
C2149 C2151 1.419 . S
C2149 H2153 0.930 . S
C2150 C2149 1.369 . S
C2150 C2159 1.429 1_545 S
C2151 C2149 1.419 . S
C2151 C2152 1.363 . S
C2151 H2154 0.929 . S
C2152 C2151 1.363 . S
C2152 C2158 1.428 1_545 S
H2153 C2149 0.930 . S
H2154 C2151 0.929 . S
S2155 N2156 1.613 . S
S2155 N2157 1.610 . S
N2156 S2155 1.613 . S
N2156 C2159 1.350 . S
N2157 S2155 1.610 . S
N2157 C2158 1.351 . S
C2158 C2152 1.428 1_565 S
C2158 N2157 1.351 . S
C2158 C2159 1.434 . S
C2159 C2150 1.429 1_565 S
C2159 N2156 1.350 . S
C2159 C2158 1.434 . S
C1369 C7 1.567 . S
C1371 C857 1.545 . S
C1380 C23 1.650 . S
C1382 C901 1.619 . S
C1393 C981 1.541 . S
C1391 C37 1.587 . S
C1402 C35 1.575 . S
C1404 C1025 1.576 . S
C1413 C9 1.604 1_455 S
C1415 C1105 1.558 . S
C1424 C21 1.620 . S
C1426 C1167 1.602 . S
C1435 C49 1.565 . S
C1437 C1087 1.541 . S
C1448 C1149 1.581 . S
C1446 C65 1.650 . S
C1459 C1043 1.578 . S
C1457 C79 1.610 1_565 S
C1468 C77 1.565 . S
C1470 C963 1.538 . S
C1481 C839 1.554 . S
C1479 C51 1.610 1_655 S
C1490 C63 1.625 . S
C1492 C919 1.638 . S
C1501 C91 1.655 . S
C1503 C1229 1.633 . S
C1512 C107 1.692 . S
C1514 C1273 1.662 . S
C1525 C1353 1.621 . S
C1523 C121 1.721 . S
C1534 C119 1.667 . S
C1536 C299 1.630 . S
C1545 C93 1.720 . S
C1547 C343 1.684 . S
C1556 C105 1.654 . S
C1558 C423 1.633 . S
C1567 C133 1.627 . S
C1569 C361 1.642 . S
C1578 C149 1.686 . S
C1580 C405 1.608 . S
C1591 C281 1.620 . S
C1589 C163 1.715 . S
C1602 C1335 1.664 . S
C1600 C161 1.691 . S
C1613 C1211 1.625 . S
C1611 C135 1.714 . S
C1624 C1291 1.693 . S
C1622 C147 1.670 . S
C1633 C175 1.625 . S
C1635 C485 1.596 . S
C1644 C191 1.679 . S
C1646 C547 1.606 . S
C1655 C205 1.710 . S
C1657 C591 1.668 . S
C1666 C203 1.698 . S
C1668 C653 1.718 . S
C1679 C715 1.683 . S
C1677 C177 1.723 . S
C1690 C795 1.652 . S
C1688 C189 1.671 . S
C1701 C733 1.680 . S
C1699 C217 1.665 . S
C1712 C777 1.617 . S
C1710 C233 1.699 . S
C1721 C247 1.719 . S
C1723 C671 1.672 . S
C1734 C609 1.681 . S
C1732 C245 1.661 . S
C1743 C219 1.713 . S
C1745 C467 1.623 . S
C1756 C529 1.632 . S
C1754 C231 1.658 . S
C1767 C305 1.512 . S
C1765 C8 1.598 . S
C1776 C17 1.568 . S
C1778 C349 1.493 . S
C1789 C429 1.512 . S
C1787 C31 1.592 . S
C1800 C491 1.516 . S
C1798 C36 1.608 . S
C1811 C553 1.493 . S
C1809 C3 1.585 . S
C1822 C597 1.508 . S
C1820 C22 1.580 . S
C1831 C50 1.596 . S
C1833 C615 1.543 . S
C1842 C59 1.559 . S
C1844 C473 1.469 . S
C1853 C73 1.580 . S
C1855 C535 1.492 . S
C1864 C78 1.622 . S
C1866 C367 1.560 . S
C1877 C411 1.488 . S
C1875 C45 1.583 . S
C1886 C64 1.580 . S
C1888 C287 1.486 . S
C1899 C659 1.534 . S
C1897 C92 1.596 . S
C1908 C101 1.620 . S
C1910 C721 1.541 . S
C1919 C115 1.624 . S
C1921 C801 1.531 . S
C1932 C863 1.442 . S
C1930 C120 1.507 . S
C1941 C87 1.576 . S
C1943 C907 1.510 . S
C1952 C106 1.473 . S
C1954 C987 1.406 . S
C1963 C134 1.484 . S
C1965 C969 1.418 . S
C1974 C143 1.499 . S
C1976 C845 1.427 . S
C1987 C925 1.516 . S
C1985 C157 1.582 . S
C1996 C162 1.606 . S
C1998 C739 1.536 . S
C2007 C129 1.629 . S
C2009 C783 1.522 . S
C2020 C677 1.549 . S
C2018 C148 1.626 . S
C2031 C1031 1.440 . S
C2029 C176 1.492 . S
C2040 C185 1.497 . S
C2042 C1111 1.425 . S
C2051 C199 1.578 . S
C2053 C1173 1.498 . S
C2064 C1235 1.507 . S
C2062 C204 1.594 . S
C2075 C1279 1.546 . S
C2073 C171 1.625 . S
C2084 C190 1.627 . S
C2086 C1359 1.521 . S
C2095 C218 1.599 . S
C2097 C1341 1.506 . S
C2106 C227 1.614 . S
C2108 C1217 1.515 . S
C2119 C1297 1.540 . S
C2117 C241 1.660 . S
C2130 C1093 1.432 . S
C2128 C246 1.505 . S
C2141 C1155 1.489 . S
C2139 C213 1.579 . S
C2150 C232 1.487 . S
C2152 C1049 1.428 . S
