# Generated by pormake.
# Topology pyr, (3,6)-cn, num edge types: 1
# Building blocks:
#     Node 0, Type 0, BuildingBlock: VETTIZ_charged_linker_0, # of connection points: 3
#     Node 1, Type 0, BuildingBlock: VETTIZ_charged_linker_0, # of connection points: 3
#     Node 2, Type 0, BuildingBlock: VETTIZ_charged_linker_0, # of connection points: 3
#     Node 3, Type 0, BuildingBlock: VETTIZ_charged_linker_0, # of connection points: 3
#     Node 4, Type 0, BuildingBlock: VETTIZ_charged_linker_0, # of connection points: 3
#     Node 5, Type 0, BuildingBlock: VETTIZ_charged_linker_0, # of connection points: 3
#     Node 6, Type 0, BuildingBlock: VETTIZ_charged_linker_0, # of connection points: 3
#     Node 7, Type 0, BuildingBlock: VETTIZ_charged_linker_0, # of connection points: 3
#     Node 8, Type 1, BuildingBlock: JUFBIX_clean_sbu_0, # of connection points: 6
#     Node 9, Type 1, BuildingBlock: JUFBIX_clean_sbu_0, # of connection points: 6
#     Node 10, Type 1, BuildingBlock: JUFBIX_clean_sbu_0, # of connection points: 6
#     Node 11, Type 1, BuildingBlock: JUFBIX_clean_sbu_0, # of connection points: 6
#     Edge 12, Type (0, 1), BuildingBlock: AJUNOK_clean_linker_0, # of connection points: 2
#     Edge 13, Type (0, 1), BuildingBlock: AJUNOK_clean_linker_0, # of connection points: 2
#     Edge 14, Type (0, 1), BuildingBlock: AJUNOK_clean_linker_0, # of connection points: 2
#     Edge 15, Type (0, 1), BuildingBlock: AJUNOK_clean_linker_0, # of connection points: 2
#     Edge 16, Type (0, 1), BuildingBlock: AJUNOK_clean_linker_0, # of connection points: 2
#     Edge 17, Type (0, 1), BuildingBlock: AJUNOK_clean_linker_0, # of connection points: 2
#     Edge 18, Type (0, 1), BuildingBlock: AJUNOK_clean_linker_0, # of connection points: 2
#     Edge 19, Type (0, 1), BuildingBlock: AJUNOK_clean_linker_0, # of connection points: 2
#     Edge 20, Type (0, 1), BuildingBlock: AJUNOK_clean_linker_0, # of connection points: 2
#     Edge 21, Type (0, 1), BuildingBlock: AJUNOK_clean_linker_0, # of connection points: 2
#     Edge 22, Type (0, 1), BuildingBlock: AJUNOK_clean_linker_0, # of connection points: 2
#     Edge 23, Type (0, 1), BuildingBlock: AJUNOK_clean_linker_0, # of connection points: 2
#     Edge 24, Type (0, 1), BuildingBlock: AJUNOK_clean_linker_0, # of connection points: 2
#     Edge 25, Type (0, 1), BuildingBlock: AJUNOK_clean_linker_0, # of connection points: 2
#     Edge 26, Type (0, 1), BuildingBlock: AJUNOK_clean_linker_0, # of connection points: 2
#     Edge 27, Type (0, 1), BuildingBlock: AJUNOK_clean_linker_0, # of connection points: 2
#     Edge 28, Type (0, 1), BuildingBlock: AJUNOK_clean_linker_0, # of connection points: 2
#     Edge 29, Type (0, 1), BuildingBlock: AJUNOK_clean_linker_0, # of connection points: 2
#     Edge 30, Type (0, 1), BuildingBlock: AJUNOK_clean_linker_0, # of connection points: 2
#     Edge 31, Type (0, 1), BuildingBlock: AJUNOK_clean_linker_0, # of connection points: 2
#     Edge 32, Type (0, 1), BuildingBlock: AJUNOK_clean_linker_0, # of connection points: 2
#     Edge 33, Type (0, 1), BuildingBlock: AJUNOK_clean_linker_0, # of connection points: 2
#     Edge 34, Type (0, 1), BuildingBlock: AJUNOK_clean_linker_0, # of connection points: 2
#     Edge 35, Type (0, 1), BuildingBlock: AJUNOK_clean_linker_0, # of connection points: 2
# Relax obj value: 0.065
# Max RMSD: 0.101
# Mean RMSD: 0.035
data_MOF--net-pry--node1-JUFBIX_clean_sbu_0--node2-VETTIZ_charged_linker_0--edge1-AJUNOK_clean_linker_0
_symmetry_space_group_name_H-M    P1
_symmetry_Int_Tables_number       1
_symmetry_cell_setting            triclinic
loop_
_symmetry_equiv_pos_as_xyz
'x, y, z'
_cell_length_a     35.787367
_cell_length_b     33.884471
_cell_length_c     35.902086
_cell_angle_alpha  84.158417
_cell_angle_beta   90.199931
_cell_angle_gamma 91.519517
loop_
_atom_site_label
_atom_site_type_symbol
_atom_site_fract_x
_atom_site_fract_y
_atom_site_fract_z
_atom_type_partial_charge
C0 C 0.16302 0.08779 0.29701 0.0
C1 C 0.13052 0.10022 0.31482 0.0
C2 C 0.11235 0.13379 0.29772 0.0
C3 C 0.15704 0.14125 0.24625 0.0
C4 C 0.17557 0.10858 0.2626 0.0
C5 C 0.20876 0.09948 0.2387 0.0
H6 H 0.31209 0.14259 0.07691 0.0
C7 C 0.1759 0.15584 0.21023 0.0
C8 C 0.2063 0.13132 0.20516 0.0
H9 H 0.33297 0.05207 0.1676 0.0
H10 H 0.2786 0.07151 0.20058 0.0
H11 H 0.2898 0.21226 0.13119 0.0
H12 H 0.22069 0.12923 0.07594 0.0
H13 H 0.20021 0.17611 0.0707 0.0
H14 H 0.24536 0.16999 0.05014 0.0
H15 H 0.28716 0.21347 0.08108 0.0
H16 H 0.25287 0.23718 0.10704 0.0
C17 C 0.24477 0.10476 0.2617 0.0
C18 C 0.20287 0.05726 0.22677 0.0
C19 C 0.12375 0.27737 0.13327 0.0
C20 C 0.13085 0.29668 0.09708 0.0
C21 C 0.15986 0.2816 0.07621 0.0
C22 C 0.1809 0.24876 0.09079 0.0
C23 C 0.173 0.22978 0.12677 0.0
C24 C 0.14431 0.24395 0.14696 0.0
C25 C 0.13756 0.21873 0.18345 0.0
C26 C 0.16763 0.18782 0.18264 0.0
C27 C 0.18892 0.19449 0.14958 0.0
C28 C 0.14421 0.24523 0.21569 0.0
C29 C 0.09756 0.19992 0.18222 0.0
C30 C 0.30491 0.12681 0.10379 0.0
C31 C 0.32763 0.09579 0.11952 0.0
C32 C 0.3168 0.07642 0.1548 0.0
C33 C 0.28495 0.0877 0.17401 0.0
C34 C 0.26301 0.11909 0.15828 0.0
C35 C 0.27327 0.13813 0.12364 0.0
C36 C 0.24714 0.17141 0.11139 0.0
C37 C 0.21987 0.16958 0.14422 0.0
C38 C 0.22893 0.13844 0.17185 0.0
C39 C 0.27027 0.2108 0.10716 0.0
C40 C 0.22735 0.16158 0.07497 0.0
H41 H 0.10993 0.17954 0.25325 0.0
H42 H 0.17776 0.06207 0.30909 0.0
H43 H 0.17366 0.05287 0.217 0.0
H44 H 0.22095 0.05153 0.20321 0.0
H45 H 0.20801 0.03447 0.25061 0.0
H46 H 0.24341 0.13177 0.27682 0.0
H47 H 0.24861 0.07889 0.28287 0.0
H48 H 0.27001 0.10907 0.24408 0.0
H49 H 0.1028 0.28802 0.15113 0.0
H50 H 0.16619 0.2949 0.04817 0.0
H51 H 0.20243 0.23914 0.07328 0.0
H52 H 0.16897 0.26541 0.20969 0.0
H53 H 0.11972 0.26395 0.21933 0.0
H54 H 0.15043 0.22809 0.24271 0.0
H55 H 0.08807 0.19754 0.15296 0.0
H56 H 0.09598 0.16904 0.19563 0.0
H57 H 0.07689 0.2179 0.19556 0.0
H58 H 0.08778 0.14452 0.31063 0.0
C59 C 0.12535 0.15423 0.2641 0.0
C60 C 0.31975 0.92479 0.5616 0.0
C61 C 0.3074 0.96092 0.57239 0.0
C62 C 0.33222 0.98564 0.59041 0.0
C63 C 0.37833 0.9347 0.59382 0.0
C64 C 0.35544 0.91219 0.57268 0.0
C65 C 0.37179 0.87253 0.56784 0.0
H66 H 0.49772 0.73343 0.62345 0.0
C67 C 0.40977 0.91019 0.60773 0.0
C68 C 0.40663 0.874 0.59208 0.0
H69 H 0.4142 0.7299 0.53654 0.0
H70 H 0.3955 0.79603 0.54654 0.0
H71 H 0.52724 0.82556 0.59965 0.0
H72 H 0.44861 0.77011 0.68 0.0
H73 H 0.4664 0.81192 0.69975 0.0
H74 H 0.49756 0.77309 0.69034 0.0
H75 H 0.53976 0.7929 0.64008 0.0
H76 H 0.53486 0.84531 0.64279 0.0
C77 C 0.3815 0.87149 0.52591 0.0
C78 C 0.34357 0.83954 0.58357 0.0
C79 C 0.48008 0.94969 0.72065 0.0
C80 C 0.50165 0.92757 0.74743 0.0
C81 C 0.51697 0.89181 0.73858 0.0
C82 C 0.50771 0.87643 0.7048 0.0
C83 C 0.48245 0.89678 0.68015 0.0
C84 C 0.47017 0.93348 0.68767 0.0
C85 C 0.44055 0.94907 0.6608 0.0
C86 C 0.4363 0.91522 0.63642 0.0
C87 C 0.4609 0.88473 0.64779 0.0
C88 C 0.45634 0.98729 0.63829 0.0
C89 C 0.40458 0.95487 0.6837 0.0
C90 C 0.47555 0.7471 0.60648 0.0
C91 C 0.45743 0.72677 0.57908 0.0
C92 C 0.4283 0.74508 0.55795 0.0
C93 C 0.41773 0.78351 0.56358 0.0
C94 C 0.4362 0.80358 0.59096 0.0
C95 C 0.46471 0.78547 0.61174 0.0
C96 C 0.48113 0.81136 0.63957 0.0
C97 C 0.45871 0.84859 0.63101 0.0
C98 C 0.43204 0.84353 0.60298 0.0
C99 C 0.52306 0.81918 0.63039 0.0
C100 C 0.47338 0.79072 0.67953 0.0
H101 H 0.38491 0.99212 0.61612 0.0
H102 H 0.30098 0.90547 0.54761 0.0
H103 H 0.33189 0.84666 0.61071 0.0
H104 H 0.35618 0.81025 0.58951 0.0
H105 H 0.31988 0.83653 0.5639 0.0
H106 H 0.38655 0.90187 0.51162 0.0
H107 H 0.35846 0.85739 0.51073 0.0
H108 H 0.40774 0.85584 0.52193 0.0
H109 H 0.46752 0.97695 0.72709 0.0
H110 H 0.53408 0.87459 0.75883 0.0
H111 H 0.51878 0.8482 0.70022 0.0
H112 H 0.48692 0.98531 0.63352 0.0
H113 H 0.45198 0.01378 0.65344 0.0
H114 H 0.44414 0.99227 0.6099 0.0
H115 H 0.40287 0.93345 0.70933 0.0
H116 H 0.37845 0.94901 0.6687 0.0
H117 H 0.40395 0.98521 0.69279 0.0
H118 H 0.32312 0.01381 0.59848 0.0
C119 C 0.3679 0.97291 0.60075 0.0
C120 C 0.64969 0.23833 0.92404 0.0
C121 C 0.61602 0.22127 0.91162 0.0
C122 C 0.59763 0.24087 0.88051 0.0
C123 C 0.64703 0.29152 0.87312 0.0
C124 C 0.66456 0.27343 0.90443 0.0
C125 C 0.69983 0.29599 0.91366 0.0
H126 H 0.82088 0.45349 0.8758 0.0
C127 C 0.66978 0.32702 0.85868 0.0
C128 C 0.70068 0.33015 0.88244 0.0
H129 H 0.82425 0.35963 0.96668 0.0
H130 H 0.76886 0.32899 0.94314 0.0
H131 H 0.72919 0.46452 0.87638 0.0
H132 H 0.79506 0.39267 0.80947 0.0
H133 H 0.76307 0.42131 0.78138 0.0
H134 H 0.79988 0.44589 0.80517 0.0
H135 H 0.76212 0.48645 0.84211 0.0
H136 H 0.71576 0.47135 0.82884 0.0
C137 C 0.69467 0.31079 0.95271 0.0
C138 C 0.73324 0.26829 0.91097 0.0
C139 C 0.62798 0.40591 0.73869 0.0
C140 C 0.6415 0.44021 0.71704 0.0
C141 C 0.674 0.45956 0.72976 0.0
C142 C 0.69272 0.44462 0.7628 0.0
C143 C 0.67883 0.40999 0.78384 0.0
C144 C 0.64673 0.39162 0.77156 0.0
C145 C 0.63486 0.35587 0.7973 0.0
C146 C 0.66534 0.35504 0.82683 0.0
C147 C 0.6914 0.38672 0.81916 0.0
C148 C 0.59598 0.36385 0.81368 0.0
C149 C 0.63582 0.31916 0.77484 0.0
C150 C 0.80966 0.42626 0.89044 0.0
C151 C 0.82681 0.4095 0.92377 0.0
C152 C 0.81129 0.37384 0.94168 0.0
C153 C 0.77906 0.3559 0.92781 0.0
C154 C 0.76163 0.37342 0.89533 0.0
C155 C 0.77704 0.40783 0.87684 0.0
C156 C 0.75432 0.42175 0.84246 0.0
C157 C 0.72268 0.39041 0.8438 0.0
C158 C 0.72728 0.36213 0.87506 0.0
C159 C 0.73961 0.46335 0.84736 0.0
C160 C 0.77927 0.42066 0.8076 0.0
H161 H 0.59758 0.28828 0.8375 0.0
H162 H 0.6644 0.2244 0.94809 0.0
H163 H 0.72927 0.24969 0.88738 0.0
H164 H 0.75999 0.28464 0.90498 0.0
H165 H 0.7362 0.24798 0.93706 0.0
H166 H 0.66515 0.31881 0.95702 0.0
H167 H 0.70195 0.28752 0.97544 0.0
H168 H 0.71114 0.33816 0.95628 0.0
H169 H 0.6033 0.39001 0.73006 0.0
H170 H 0.68476 0.48663 0.71447 0.0
H171 H 0.71718 0.46071 0.77085 0.0
H172 H 0.59164 0.39617 0.8144 0.0
H173 H 0.573 0.35213 0.79671 0.0
H174 H 0.59273 0.35122 0.84319 0.0
H175 H 0.66039 0.32115 0.75576 0.0
H176 H 0.63889 0.29096 0.79271 0.0
H177 H 0.6103 0.31695 0.75739 0.0
H178 H 0.57104 0.2295 0.87109 0.0
C179 C 0.61296 0.27547 0.86118 0.0
C180 C 1.01678 0.75351 0.44841 0.0
C181 C 1.00664 0.77196 0.48012 0.0
C182 C 0.98255 0.75159 0.50689 0.0
C183 C 0.97432 0.69823 0.46745 0.0
C184 C 1.0005 0.7165 0.44279 0.0
C185 C 1.00652 0.69332 0.40979 0.0
H186 H 0.95003 0.54186 0.31187 0.0
C187 C 0.95945 0.6625 0.45173 0.0
C188 C 0.97905 0.65865 0.41846 0.0
H189 H 0.03614 0.63073 0.2811 0.0
H190 H 0.02842 0.658 0.34055 0.0
H191 H 0.97329 0.52452 0.40253 0.0
H192 H 0.89626 0.59104 0.33307 0.0
H193 H 0.87488 0.59018 0.3769 0.0
H194 H 0.88224 0.54422 0.35694 0.0
H195 H 0.93349 0.50507 0.37912 0.0
H196 H 0.92984 0.5201 0.42577 0.0
C197 C 0.04747 0.67972 0.41065 0.0
C198 C 0.99577 0.71974 0.37377 0.0
C199 C 0.83418 0.60213 0.49599 0.0
C200 C 0.81052 0.57417 0.48049 0.0
C201 C 0.82582 0.54915 0.45581 0.0
C202 C 0.86275 0.55473 0.44364 0.0
C203 C 0.88434 0.58633 0.45535 0.0
C204 C 0.87086 0.6082 0.48254 0.0
C205 C 0.89808 0.64079 0.49118 0.0
C206 C 0.92846 0.63673 0.46223 0.0
C207 C 0.91983 0.60503 0.44123 0.0
C208 C 0.91257 0.63143 0.53178 0.0
C209 C 0.8781 0.6809 0.48424 0.0
C210 C 0.96789 0.56663 0.31828 0.0
C211 C 0.99369 0.58419 0.29199 0.0
C212 C 1.0158 0.61698 0.30095 0.0
C213 C 1.01125 0.63267 0.33541 0.0
C214 C 0.98394 0.61571 0.36077 0.0
C215 C 0.9632 0.58294 0.352 0.0
C216 C 0.93378 0.57002 0.38053 0.0
C217 C 0.9404 0.60014 0.40843 0.0
C218 C 0.9698 0.62684 0.3969 0.0
C219 C 0.9427 0.52757 0.3979 0.0
C220 C 0.89479 0.57377 0.36112 0.0
H221 H 0.94743 0.70102 0.5215 0.0
H222 H 0.03582 0.76828 0.42777 0.0
H223 H 0.97063 0.73715 0.37865 0.0
H224 H 0.98813 0.70258 0.35027 0.0
H225 H 1.01883 0.74111 0.3647 0.0
H226 H 0.05679 0.67137 0.43993 0.0
H227 H 0.06663 0.70381 0.39821 0.0
H228 H 0.05126 0.65292 0.39611 0.0
H229 H 0.82365 0.62055 0.51632 0.0
H230 H 0.80853 0.52699 0.44377 0.0
H231 H 0.87227 0.53571 0.4238 0.0
H232 H 0.90837 0.59952 0.54203 0.0
H233 H 0.8979 0.64891 0.55153 0.0
H234 H 0.94311 0.63715 0.53393 0.0
H235 H 0.86411 0.68346 0.45641 0.0
H236 H 0.89715 0.70691 0.48431 0.0
H237 H 0.85645 0.68345 0.5059 0.0
H238 H 0.97458 0.76523 0.5316 0.0
C239 C 0.96651 0.71466 0.50081 0.0
C240 C 0.89241 0.74143 0.93872 0.0
C241 C 0.92345 0.72178 0.92528 0.0
C242 C 0.93667 0.73499 0.88896 0.0
C243 C 0.89155 0.78777 0.88183 0.0
C244 C 0.87686 0.77408 0.91646 0.0
C245 C 0.84338 0.79798 0.92551 0.0
H246 H 0.72187 0.94747 0.87561 0.0
C247 C 0.86974 0.82241 0.86572 0.0
C248 C 0.84095 0.82839 0.89096 0.0
H249 H 0.72172 0.8664 0.97665 0.0
H250 H 0.7766 0.83541 0.95554 0.0
H251 H 0.74547 0.88126 0.81638 0.0
H252 H 0.81552 0.96233 0.87359 0.0
H253 H 0.8267 0.965 0.82551 0.0
H254 H 0.78136 0.97989 0.83942 0.0
H255 H 0.7418 0.93418 0.80725 0.0
H256 H 0.77738 0.90804 0.78523 0.0
C257 C 0.80873 0.76958 0.92906 0.0
C258 C 0.85244 0.81815 0.96135 0.0
C259 C 0.91365 0.8968 0.74197 0.0
C260 C 0.9003 0.92906 0.71817 0.0
C261 C 0.86725 0.94691 0.72909 0.0
C262 C 0.84831 0.9332 0.76278 0.0
C263 C 0.86213 0.90088 0.78626 0.0
C264 C 0.8942 0.88317 0.77524 0.0
C265 C 0.90435 0.84811 0.80216 0.0
C266 C 0.87415 0.84826 0.83195 0.0
C267 C 0.84911 0.87929 0.82291 0.0
C268 C 0.90136 0.81033 0.78107 0.0
C269 C 0.94373 0.85663 0.81801 0.0
C270 C 0.73337 0.92274 0.89301 0.0
C271 C 0.71662 0.90944 0.92806 0.0
C272 C 0.73359 0.87766 0.94982 0.0
C273 C 0.76559 0.85941 0.93735 0.0
C274 C 0.78177 0.87279 0.90247 0.0
C275 C 0.76586 0.90425 0.88096 0.0
C276 C 0.78788 0.91515 0.84508 0.0
C277 C 0.81899 0.88476 0.84827 0.0
C278 C 0.81512 0.85972 0.88217 0.0
C279 C 0.76187 0.90966 0.8115 0.0
C280 C 0.80366 0.95796 0.84558 0.0
H281 H 0.93361 0.7761 0.84071 0.0
H282 H 0.8807 0.73192 0.96602 0.0
H283 H 0.88199 0.82925 0.96101 0.0
H284 H 0.83553 0.84449 0.96396 0.0
H285 H 0.84847 0.79694 0.98681 0.0
H286 H 0.80943 0.7482 0.90753 0.0
H287 H 0.80776 0.75215 0.957 0.0
H288 H 0.78217 0.7851 0.92419 0.0
H289 H 0.93848 0.88183 0.73447 0.0
H290 H 0.85621 0.97192 0.7117 0.0
H291 H 0.82349 0.94822 0.76927 0.0
H292 H 0.88171 0.81422 0.75696 0.0
H293 H 0.92892 0.80286 0.76991 0.0
H294 H 0.88976 0.78429 0.79884 0.0
H295 H 0.94633 0.88785 0.82494 0.0
H296 H 0.94987 0.83821 0.84433 0.0
H297 H 0.96579 0.85219 0.79727 0.0
H298 H 0.95883 0.71966 0.87648 0.0
C299 C 0.92141 0.76772 0.86766 0.0
C300 C 0.71997 0.09048 0.47453 0.0
C301 C 0.73221 0.05445 0.46342 0.0
C302 C 0.70717 0.02984 0.44551 0.0
C303 C 0.66104 0.08074 0.44291 0.0
C304 C 0.6842 0.10315 0.46387 0.0
C305 C 0.66813 0.14288 0.46884 0.0
H306 H 0.54553 0.28459 0.41151 0.0
C307 C 0.6297 0.10545 0.42911 0.0
C308 C 0.63325 0.14169 0.44461 0.0
H309 H 0.62774 0.28571 0.49988 0.0
H310 H 0.64441 0.21877 0.49083 0.0
H311 H 0.51356 0.1916 0.43407 0.0
H312 H 0.59413 0.24763 0.35617 0.0
H313 H 0.57827 0.2051 0.33625 0.0
H314 H 0.54577 0.24337 0.3438 0.0
H315 H 0.50277 0.22621 0.39444 0.0
H316 H 0.50636 0.17407 0.38976 0.0
C317 C 0.65849 0.1439 0.51081 0.0
C318 C 0.69655 0.17571 0.45316 0.0
C319 C 0.55942 0.06594 0.31614 0.0
C320 C 0.53925 0.08842 0.28843 0.0
C321 C 0.52596 0.12561 0.29577 0.0
C322 C 0.53505 0.14136 0.32942 0.0
C323 C 0.55863 0.12019 0.35526 0.0
C324 C 0.56967 0.0827 0.34875 0.0
C325 C 0.59825 0.0664 0.3765 0.0
C326 C 0.60333 0.10074 0.40021 0.0
C327 C 0.57976 0.13193 0.38799 0.0
C328 C 0.58051 0.02956 0.39949 0.0
C329 C 0.6345 0.05793 0.35496 0.0
C330 C 0.56709 0.27023 0.42884 0.0
C331 C 0.58581 0.29034 0.45604 0.0
C332 C 0.61362 0.27092 0.47823 0.0
C333 C 0.623 0.23203 0.47316 0.0
C334 C 0.6047 0.21255 0.44532 0.0
C335 C 0.57698 0.23141 0.42395 0.0
C336 C 0.56078 0.20594 0.3956 0.0
C337 C 0.58227 0.16811 0.40471 0.0
C338 C 0.60841 0.17257 0.43334 0.0
C339 C 0.51853 0.1991 0.40357 0.0
C340 C 0.56987 0.22643 0.35585 0.0
H341 H 0.65401 0.02339 0.42066 0.0
H342 H 0.73888 0.10976 0.4884 0.0
H343 H 0.70784 0.16878 0.4258 0.0
H344 H 0.68428 0.20521 0.44772 0.0
H345 H 0.72047 0.17821 0.47265 0.0
H346 H 0.65443 0.11351 0.52539 0.0
H347 H 0.6811 0.15897 0.52574 0.0
H348 H 0.63175 0.15866 0.51478 0.0
H349 H 0.57091 0.03781 0.31067 0.0
H350 H 0.51044 0.1434 0.27455 0.0
H351 H 0.52523 0.17035 0.33304 0.0
H352 H 0.55097 0.03493 0.40666 0.0
H353 H 0.58059 1.00328 0.38334 0.0
H354 H 0.59468 0.02224 0.42662 0.0
H355 H 0.63448 0.07169 0.32549 0.0
H356 H 0.65997 0.07082 0.36701 0.0
H357 H 0.63816 0.02559 0.35405 0.0
H358 H 0.71611 1.00168 0.43729 0.0
C359 C 0.67137 0.04262 0.43562 0.0
C360 C 0.41899 0.61008 0.29344 0.0
C361 C 0.4026 0.58068 0.31924 0.0
C362 C 0.36731 0.56439 0.30994 0.0
C363 C 0.36508 0.60854 0.25171 0.0
C364 C 0.39961 0.62412 0.26096 0.0
C365 C 0.41221 0.65841 0.23384 0.0
H366 H 0.37985 0.79096 0.08498 0.0
C367 C 0.35243 0.63115 0.21604 0.0
C368 C 0.38002 0.66082 0.20624 0.0
H369 H 0.47559 0.78442 0.1591 0.0
H370 H 0.4495 0.72539 0.1928 0.0
H371 H 0.31519 0.76404 0.14744 0.0
H372 H 0.379 0.69958 0.07373 0.0
H373 H 0.33555 0.6745 0.07904 0.0
H374 H 0.33782 0.72525 0.05792 0.0
H375 H 0.3108 0.76969 0.09733 0.0
H376 H 0.28468 0.73169 0.1256 0.0
C377 C 0.41562 0.6958 0.2555 0.0
C378 C 0.44895 0.64703 0.21531 0.0
C379 C 0.23285 0.59198 0.14675 0.0
C380 C 0.21626 0.60743 0.1126 0.0
C381 C 0.23329 0.64122 0.09275 0.0
C382 C 0.26583 0.65913 0.10607 0.0
C383 C 0.28222 0.64328 0.13977 0.0
C384 C 0.26582 0.61025 0.1597 0.0
C385 C 0.28768 0.59787 0.19509 0.0
C386 C 0.32048 0.62786 0.19217 0.0
C387 C 0.31666 0.65475 0.15975 0.0
C388 C 0.26255 0.60285 0.2291 0.0
C389 C 0.30069 0.55501 0.19351 0.0
C390 C 0.39541 0.77658 0.1082 0.0
C391 C 0.42992 0.79295 0.11941 0.0
C392 C 0.44876 0.77318 0.15015 0.0
C393 C 0.43356 0.73861 0.16969 0.0
C394 C 0.39891 0.72305 0.15864 0.0
C395 C 0.38068 0.74156 0.12798 0.0
C396 C 0.34497 0.71938 0.11945 0.0
C397 C 0.34412 0.68561 0.15104 0.0
C398 C 0.37571 0.68823 0.17393 0.0
C399 C 0.31199 0.74754 0.12232 0.0
C400 C 0.34917 0.70399 0.08047 0.0
H401 H 0.32188 0.56455 0.27111 0.0
H402 H 0.4465 0.62253 0.29835 0.0
H403 H 0.44838 0.61498 0.21089 0.0
H404 H 0.45341 0.66277 0.18712 0.0
H405 H 0.47356 0.65264 0.23314 0.0
H406 H 0.3957 0.69392 0.2794 0.0
H407 H 0.44419 0.69936 0.26709 0.0
H408 H 0.4083 0.7234 0.23827 0.0
H409 H 0.22086 0.56588 0.16267 0.0
H410 H 0.22116 0.65415 0.06678 0.0
H411 H 0.27701 0.6848 0.08948 0.0
H412 H 0.24675 0.63076 0.22444 0.0
H413 H 0.24194 0.57776 0.23388 0.0
H414 H 0.27871 0.60527 0.25502 0.0
H415 H 0.31355 0.55178 0.16586 0.0
H416 H 0.32209 0.54644 0.21476 0.0
H417 H 0.27673 0.53349 0.19751 0.0
H418 H 0.35373 0.54164 0.32896 0.0
C419 C 0.34864 0.57796 0.27638 0.0
C420 C 0.0311 0.26261 0.58817 0.0
C421 C 0.04053 0.24501 0.55578 0.0
C422 C 0.06551 0.26517 0.52972 0.0
C423 C 0.07421 0.31763 0.5701 0.0
C424 C 0.0478 0.29925 0.59444 0.0
C425 C 0.04125 0.32244 0.62734 0.0
H426 H 0.09314 0.47699 0.72344 0.0
C427 C 0.08826 0.35376 0.58566 0.0
C428 C 0.06809 0.35765 0.61856 0.0
H429 H 1.01098 0.38443 0.75613 0.0
H430 H 1.0191 0.35712 0.69679 0.0
H431 H 0.06748 0.49164 0.63272 0.0
H432 H 0.1487 0.43412 0.70275 0.0
H433 H 0.16909 0.43051 0.65901 0.0
H434 H 0.16129 0.47868 0.67443 0.0
H435 H 0.10648 0.51398 0.65507 0.0
H436 H 0.11044 0.49826 0.60869 0.0
C437 C 1.00003 0.33515 0.62646 0.0
C438 C 0.05245 0.29637 0.66341 0.0
C439 C 0.21402 0.41555 0.54508 0.0
C440 C 0.23521 0.44612 0.55943 0.0
C441 C 0.21763 0.47248 0.58109 0.0
C442 C 0.1803 0.46616 0.59163 0.0
C443 C 0.16081 0.43254 0.58125 0.0
C444 C 0.1766 0.40926 0.55639 0.0
C445 C 0.15043 0.37573 0.54766 0.0
C446 C 0.11862 0.38031 0.57498 0.0
C447 C 0.12546 0.41324 0.5949 0.0
C448 C 0.13768 0.38337 0.50626 0.0
C449 C 0.17052 0.33598 0.55668 0.0
C450 C 0.07625 0.45133 0.71752 0.0
C451 C 0.05152 0.43275 0.74436 0.0
C452 C 0.03059 0.39894 0.73592 0.0
C453 C 0.03537 0.38321 0.70152 0.0
C454 C 0.06173 0.40119 0.67564 0.0
C455 C 0.08126 0.43494 0.68387 0.0
C456 C 0.10973 0.4491 0.65472 0.0
C457 C 0.10437 0.4181 0.6274 0.0
C458 C 0.07607 0.39026 0.63952 0.0
C459 C 0.09829 0.49058 0.63686 0.0
C460 C 0.14918 0.44829 0.67341 0.0
H461 H 0.1017 0.31522 0.51636 0.0
H462 H 1.01176 0.24777 0.60847 0.0
H463 H 0.07759 0.27899 0.65844 0.0
H464 H 0.06037 0.31383 0.68664 0.0
H465 H 0.02954 0.27498 0.67291 0.0
H466 H 0.99082 0.34382 0.5972 0.0
H467 H 0.98124 0.31048 0.63841 0.0
H468 H 0.99557 0.36149 0.64147 0.0
H469 H 0.22712 0.39532 0.52796 0.0
H470 H 0.2335 0.49661 0.59175 0.0
H471 H 0.16871 0.48641 0.60916 0.0
H472 H 0.1443 0.4143 0.49413 0.0
H473 H 0.15153 0.36325 0.48833 0.0
H474 H 0.10694 0.3797 0.50335 0.0
H475 H 0.18227 0.33392 0.58552 0.0
H476 H 0.15182 0.30983 0.5552 0.0
H477 H 0.19383 0.33341 0.53681 0.0
H478 H 0.07328 0.25193 0.50472 0.0
C479 C 0.08226 0.30153 0.53665 0.0
Co480 Co 0.99409 0.01252 0.50156 0.0
C481 C 0.02571 0.93745 0.50328 0.0
Co482 Co 0.04639 1.0056 0.53306 0.0
C483 C 0.91721 0.02897 0.48533 0.0
C484 C 0.94274 0.99822 0.44327 0.0
N485 N 0.95 0.01462 0.47521 0.0
N486 N 0.88933 0.02135 0.46139 0.0
C487 C 0.90554 1.00212 0.43481 0.0
H488 H 0.91424 0.04459 0.50988 0.0
H489 H 0.96297 0.98336 0.42772 0.0
C490 C 1.01513 0.08082 0.53099 0.0
N491 N 0.09044 1.00357 0.5594 0.0
C492 C 0.12313 0.98887 0.54943 0.0
C493 C 0.09778 0.0202 0.59122 0.0
N494 N 0.15095 0.99633 0.57344 0.0
C495 C 0.13491 0.01589 0.59987 0.0
C496 C 0.05697 0.03285 0.45592 0.0
O497 O 0.98965 0.06642 0.51131 0.0
O498 O 0.04177 0.05909 0.54301 0.0
O499 O 0.07401 0.02355 0.48676 0.0
O500 O 1.02139 0.03002 0.45611 0.0
O501 O 0.05094 0.95178 0.52327 0.0
H502 H 0.07766 0.03553 0.60651 0.0
H503 H 0.12614 0.97309 0.52497 0.0
O504 O 0.99879 0.95898 0.49156 0.0
O505 O 0.9666 0.9947 0.54746 0.0
O506 O 1.01876 0.98791 0.57885 0.0
C507 C 0.98314 0.98516 0.57849 0.0
H508 H 0.89139 0.9905 0.41141 0.0
H509 H 0.14919 0.02738 0.62327 0.0
Co510 Co 0.50569 1.00494 0.99227 0.0
C511 C 0.49736 0.94116 0.04764 0.0
Co512 Co 0.53776 0.01272 0.04303 0.0
C513 C 0.49582 0.99452 0.91512 0.0
C514 C 0.44532 0.98119 0.94626 0.0
N515 N 0.48044 0.99599 0.94914 0.0
N516 N 0.47232 0.97786 0.89163 0.0
C517 C 0.44028 0.96983 0.91082 0.0
H518 H 0.52472 1.00239 0.90859 0.0
H519 H 0.42572 0.97611 0.96923 0.0
C520 C 0.54644 0.07596 0.98676 0.0
N521 N 0.56287 0.02158 0.08628 0.0
C522 C 0.54738 0.02128 0.12046 0.0
C523 C 0.59739 0.03778 0.08949 0.0
N524 N 0.57026 0.03794 0.14457 0.0
C525 C 0.60191 0.04818 0.12533 0.0
C526 C 0.58078 0.97645 0.99142 0.0
O527 O 0.52336 0.05515 0.96955 0.0
O528 O 0.55581 0.0635 0.02001 0.0
O529 O 0.58176 0.98801 0.02414 0.0
O530 O 0.55018 0.98044 0.97327 0.0
O531 O 0.51961 0.96199 0.06587 0.0
H532 H 0.6168 0.04444 0.06653 0.0
H533 H 0.51867 0.01223 0.12662 0.0
O534 O 0.48822 0.95444 1.01464 0.0
O535 O 0.46124 0.02945 1.01172 0.0
O536 O 0.49382 0.0374 0.06183 0.0
C537 C 0.46286 0.04117 0.04441 0.0
H538 H 0.41582 0.95476 0.90066 0.0
H539 H 0.62564 0.06422 0.13578 0.0
Co540 Co 0.5478 0.52384 0.50436 0.0
C541 C 0.48622 0.52753 0.45583 0.0
Co542 Co 0.49733 0.49403 0.52955 0.0
C543 C 0.62573 0.54298 0.49263 0.0
C544 C 0.59109 0.58441 0.46077 0.0
N545 N 0.58975 0.55068 0.48418 0.0
N546 N 0.6495 0.57095 0.47621 0.0
C547 C 0.62778 0.59676 0.45555 0.0
H548 H 0.6343 0.51784 0.51133 0.0
H549 H 0.56692 0.59959 0.44892 0.0
C550 C 0.55904 0.49055 0.57837 0.0
N551 N 0.45545 0.46731 0.54979 0.0
C552 C 0.4194 0.47547 0.54211 0.0
C553 C 0.45427 0.43383 0.57361 0.0
N554 N 0.39584 0.44827 0.55993 0.0
C555 C 0.41755 0.42222 0.58015 0.0
C556 C 0.5429 0.44529 0.49281 0.0
O557 O 0.57485 0.50917 0.54993 0.0
O558 O 0.52441 0.48143 0.57601 0.0
O559 O 0.51327 0.44656 0.51197 0.0
O560 O 0.5627 0.47674 0.48532 0.0
O561 O 0.47065 0.50665 0.48314 0.0
H562 H 0.47854 0.41846 0.58497 0.0
H563 H 0.41055 0.50098 0.52392 0.0
O564 O 0.52023 0.5386 0.45905 0.0
O565 O 0.53305 0.57049 0.52342 0.0
O566 O 0.48148 0.54212 0.54699 0.0
C567 C 0.50276 0.57277 0.54117 0.0
H568 H 0.63748 0.62262 0.43771 0.0
H569 H 0.40753 0.39632 0.59781 0.0
Co570 Co 0.03616 0.50963 0.99136 0.0
C571 C 0.96196 0.47638 0.99147 0.0
Co572 Co 1.00643 0.50826 0.04477 0.0
C573 C 0.05183 0.4847 0.91944 0.0
C574 C 0.07841 0.54079 0.92663 0.0
N575 N 0.05808 0.51083 0.94486 0.0
N576 N 0.06684 0.49743 0.88588 0.0
C577 C 0.08369 0.5327 0.89024 0.0
H578 H 0.03435 0.45818 0.92468 0.0
H579 H 0.08693 0.56777 0.9384 0.0
C580 C 0.08037 0.54147 0.04523 0.0
N581 N 0.98452 0.50706 0.09127 0.0
C582 C 0.99076 0.53327 0.1166 0.0
C583 C 0.96464 0.47689 0.10972 0.0
N584 N 0.97636 0.52033 0.15038 0.0
C585 C 0.9597 0.48491 0.14618 0.0
C586 C 0.04983 0.44044 0.03832 0.0
O587 O 0.08044 0.53428 1.01109 0.0
O588 O 0.05071 0.53314 0.0641 0.0
O589 O 0.02753 0.45659 0.05949 0.0
O590 O 0.05714 0.45828 1.00611 0.0
O591 O 0.96271 0.48347 0.02556 0.0
H592 H 0.95632 0.44977 0.09808 0.0
H593 H 1.00792 0.55997 0.11111 0.0
O594 O 0.9912 0.48489 0.97184 0.0
O595 O 1.01573 0.56114 0.97687 0.0
O596 O 0.98507 0.55987 0.02965 0.0
C597 C 0.99326 0.5776 0.99755 0.0
H598 H 0.09755 0.55193 0.86829 0.0
H599 H 0.94634 0.46547 0.16828 0.0
C600 C 0.07541 0.06924 0.35231 0.0
C601 C 0.11402 0.07898 0.35047 0.0
C602 C 0.05778 0.05382 0.38603 0.0
C603 C 0.07764 0.04739 0.42008 0.0
H604 H 0.05836 0.07418 0.32737 0.0
H605 H 0.02799 0.04743 0.38535 0.0
S606 S 0.17939 0.06857 0.4311 0.0
N607 N 0.17159 0.08105 0.38612 0.0
N608 N 0.13882 0.05226 0.44932 0.0
C609 C 0.1165 0.05638 0.41859 0.0
C610 C 0.13451 0.07201 0.384 0.0
C611 C 0.50953 0.977 0.79426 0.0
C612 C 0.50075 0.93797 0.78639 0.0
C613 C 0.50097 0.98967 0.82915 0.0
C614 C 0.48255 0.96399 0.85676 0.0
H615 H 0.52186 0.99817 0.77285 0.0
H616 H 0.50744 0.02008 0.83416 0.0
S617 S 0.45646 0.85821 0.85131 0.0
N618 N 0.4748 0.87317 0.80998 0.0
N619 N 0.45891 0.89714 0.87547 0.0
C620 C 0.47518 0.92453 0.84988 0.0
C621 C 0.48429 0.91147 0.81468 0.0
C622 C 0.58187 0.45481 0.68047 0.0
C623 C 0.62135 0.45517 0.68163 0.0
C624 C 0.56212 0.46637 0.64728 0.0
C625 C 0.5808 0.47922 0.61355 0.0
H626 H 0.56591 0.44545 0.70555 0.0
H627 H 0.53186 0.46524 0.64816 0.0
S628 S 0.68397 0.48467 0.60067 0.0
N629 N 0.67828 0.4685 0.64528 0.0
N630 N 0.64147 0.49107 0.58351 0.0
C631 C 0.62028 0.4801 0.61433 0.0
C632 C 0.64041 0.46799 0.6481 0.0
C633 C 0.9964 0.52836 0.252 0.0
C634 C 0.99472 0.56941 0.25461 0.0
C635 C 0.9907 0.51263 0.21783 0.0
C636 C 0.98316 0.53735 0.18496 0.0
H637 H 1.00117 0.50813 0.27683 0.0
H638 H 0.99201 0.48083 0.21715 0.0
S639 S 0.97615 0.64687 0.17667 0.0
N640 N 0.98544 0.63456 0.22138 0.0
N641 N 0.97492 0.6049 0.15694 0.0
C642 C 0.98257 0.57856 0.1869 0.0
C643 C 0.98835 0.59461 0.22178 0.0
C644 C 0.36218 0.07548 0.06211 0.0
C645 C 0.36269 0.08378 0.09994 0.0
C646 C 0.39433 0.06222 0.04429 0.0
C647 C 0.42897 0.05718 0.06312 0.0
H648 H 0.3364 0.07832 0.0463 0.0
H649 H 0.39184 0.05557 1.01551 0.0
S650 S 0.44637 0.07806 0.16172 0.0
N651 N 0.40177 0.08778 0.15488 0.0
N652 N 0.46149 0.06395 0.12191 0.0
C653 C 0.42998 0.06658 0.10068 0.0
C654 C 0.39722 0.07952 0.11885 0.0
C655 C 0.24862 0.97303 0.60482 0.0
C656 C 0.26736 0.96976 0.57107 0.0
C657 C 0.21058 0.98093 0.60521 0.0
C658 C 0.18981 0.98636 0.57182 0.0
H659 H 0.26345 0.969 0.63125 0.0
H660 H 0.19734 0.98252 0.63204 0.0
S661 S 0.22684 0.98096 0.47583 0.0
N662 N 0.26315 0.97176 0.50355 0.0
N663 N 0.19159 0.98829 0.50369 0.0
C664 C 0.20841 0.98295 0.53771 0.0
C665 C 0.24723 0.97425 0.53749 0.0
C666 C 0.89281 0.4393 0.91944 0.0
C667 C 0.8604 0.42862 0.94071 0.0
C668 C 0.92544 0.45437 0.93596 0.0
C669 C 0.9271 0.45976 0.97449 0.0
H670 H 0.89326 0.43513 0.88993 0.0
H671 H 0.94962 0.46174 0.91831 0.0
S672 S 0.84872 0.43899 0.042 0.0
N673 N 0.8315 0.42651 1.00201 0.0
N674 N 0.89217 0.45442 0.03292 0.0
C675 C 0.89448 0.44993 0.99581 0.0
C676 C 0.86143 0.43453 0.97902 0.0
C677 C 0.74861 0.53817 0.48935 0.0
C678 C 0.7693 0.57425 0.4853 0.0
C679 C 0.70955 0.53739 0.48702 0.0
C680 C 0.68955 0.57267 0.48076 0.0
H681 H 0.7628 0.5102 0.49315 0.0
H682 H 0.69504 0.50883 0.48883 0.0
S683 S 0.73009 0.67518 0.47246 0.0
N684 N 0.76661 0.64635 0.47671 0.0
N685 N 0.69316 0.64483 0.47466 0.0
C686 C 0.70972 0.60903 0.47884 0.0
C687 C 0.74955 0.60984 0.4807 0.0
C688 C 0.12633 0.36369 0.05791 0.0
C689 C 0.10881 0.33249 0.08131 0.0
C690 C 0.10689 0.39766 0.04339 0.0
C691 C 0.06908 0.40279 0.05211 0.0
H692 H 0.15571 0.36243 0.05121 0.0
H693 H 0.12202 0.42072 0.02601 0.0
S694 S 1.00835 0.32946 0.10877 0.0
N695 N 0.04941 0.30832 0.10924 0.0
N696 N 1.01418 0.37301 0.08408 0.0
C697 C 0.05095 0.37199 0.075 0.0
C698 C 0.07039 0.33682 0.08902 0.0
C699 C 0.59683 0.17718 0.96996 0.0
C700 C 0.59962 0.18333 0.93063 0.0
C701 C 0.57958 0.14253 0.98798 0.0
C702 C 0.56409 0.1128 0.96739 0.0
H703 H 0.60743 0.19965 0.98695 0.0
H704 H 0.57794 0.13927 0.01826 0.0
S705 S 0.56804 0.11211 0.8641 0.0
N706 N 0.58848 0.1547 0.872 0.0
N707 N 0.55531 0.0906 0.90558 0.0
C708 C 0.5675 0.11818 0.92813 0.0
C709 C 0.58543 0.1531 0.90987 0.0
C710 C 0.03323 0.82556 0.51651 0.0
C711 C 1.01707 0.81404 0.48336 0.0
C712 C 0.03811 0.86584 0.52199 0.0
C713 C 0.02614 0.89573 0.49485 0.0
H714 H 0.04115 0.80328 0.53872 0.0
H715 H 0.0495 0.87352 0.54838 0.0
S716 S 0.98435 0.88108 0.40242 0.0
N717 N 0.991 0.83571 0.42233 0.0
N718 N 0.99982 0.91119 0.43275 0.0
C719 C 1.01134 0.88455 0.46105 0.0
C720 C 1.00689 0.84373 0.45527 0.0
C721 C 0.44366 0.65543 0.57081 0.0
C722 C 0.46975 0.68711 0.57145 0.0
C723 C 0.4547 0.61804 0.56214 0.0
C724 C 0.49213 0.61131 0.55334 0.0
H725 H 0.41449 0.65964 0.57693 0.0
H726 H 0.4336 0.59461 0.56142 0.0
S727 S 0.57121 0.68486 0.5516 0.0
N728 N 0.53447 0.70951 0.56293 0.0
N729 N 0.55547 0.63943 0.54682 0.0
C730 C 0.51856 0.64275 0.55446 0.0
C731 C 0.50731 0.68062 0.56349 0.0
C732 C 0.95968 0.95169 0.68214 0.0
C733 C 0.92074 0.94368 0.68222 0.0
C734 C 0.97938 0.9651 0.64887 0.0
C735 C 0.96129 0.97094 0.61373 0.0
H736 H 0.97513 0.94792 0.7082 0.0
H737 H 1.00917 0.97101 0.65083 0.0
S738 S 0.86019 0.95023 0.59779 0.0
N739 N 0.86535 0.94029 0.64346 0.0
N740 N 0.90186 0.965 0.58138 0.0
C741 C 0.9224 0.96229 0.61338 0.0
C742 C 0.90236 0.94887 0.64733 0.0
C743 C 0.55921 0.10248 0.22233 0.0
C744 C 0.54037 0.07702 0.24986 0.0
C745 C 0.56878 0.0895 0.18797 0.0
C746 C 0.55954 0.05075 0.17981 0.0
H747 H 0.5684 0.13197 0.22814 0.0
H748 H 0.58384 0.10978 0.16774 0.0
S749 S 0.50772 0.97368 0.24124 0.0
N750 N 0.51104 0.01211 0.26606 0.0
N751 N 0.52861 0.98782 0.20094 0.0
C752 C 0.53914 0.02562 0.20633 0.0
C753 C 0.52971 0.03871 0.24153 0.0
C754 C 0.4222 0.5273 0.37015 0.0
C755 C 0.42243 0.56762 0.35547 0.0
C756 C 0.44239 0.51444 0.40286 0.0
C757 C 0.46435 0.54119 0.42175 0.0
H758 H 0.40694 0.50527 0.35588 0.0
H759 H 0.44153 0.48318 0.41291 0.0
S760 S 0.47054 0.65027 0.39906 0.0
N761 N 0.44306 0.63472 0.36623 0.0
N762 N 0.48258 0.60999 0.42565 0.0
C763 C 0.46411 0.5815 0.40818 0.0
C764 C 0.44282 0.59483 0.37565 0.0
C765 C 0.04774 0.48868 0.78423 0.0
C766 C 0.05039 0.44768 0.78172 0.0
C767 C 0.05291 0.50465 0.81837 0.0
C768 C 0.06075 0.48021 0.85131 0.0
H769 H 0.04253 0.50871 0.75937 0.0
H770 H 0.05089 0.5364 0.81899 0.0
S771 S 0.0706 0.37105 0.85994 0.0
N772 N 0.06128 0.38294 0.81517 0.0
N773 N 0.07055 0.41307 0.87956 0.0
C774 C 0.06241 0.43907 0.84948 0.0
C775 C 0.0573 0.42277 0.81464 0.0
C776 C 0.68026 0.93694 0.98042 0.0
C777 C 0.68201 0.92808 0.94279 0.0
C778 C 0.64791 0.95246 0.99563 0.0
C779 C 0.61506 0.9596 0.9743 0.0
H780 H 0.70436 0.93199 0.99846 0.0
H781 H 0.64869 0.95871 0.02461 0.0
S782 S 0.60395 0.94069 0.87441 0.0
N783 N 0.64717 0.92745 0.8847 0.0
N784 N 0.58679 0.95594 0.91294 0.0
C785 C 0.61637 0.95079 0.93658 0.0
C786 C 0.64954 0.93537 0.92099 0.0
C787 C 0.79067 0.04125 0.43082 0.0
C788 C 0.77229 0.04563 0.46454 0.0
C789 C 0.82886 0.03416 0.43016 0.0
C790 C 0.85025 0.03059 0.46327 0.0
H791 H 0.77546 0.04398 0.40456 0.0
H792 H 0.8417 0.03183 0.40328 0.0
S793 S 0.81435 0.03985 0.5591 0.0
N794 N 0.77749 0.04686 0.5317 0.0
N795 N 0.84934 0.03189 0.53117 0.0
C796 C 0.83199 0.03514 0.49736 0.0
C797 C 0.79299 0.04303 0.4978 0.0
C798 C 0.17994 0.58287 0.05846 0.0
C799 C 0.18166 0.58894 0.09678 0.0
C800 C 0.14737 0.56769 0.04218 0.0
C801 C 0.11466 0.558 0.0633 0.0
H802 H 0.20415 0.58986 0.04076 0.0
H803 H 0.1479 0.56366 1.01264 0.0
S804 S 0.10386 0.56901 0.16482 0.0
N805 N 0.14726 0.58448 0.15529 0.0
N806 N 0.08639 0.55587 0.12515 0.0
C807 C 0.11602 0.56382 0.10177 0.0
C808 C 0.14932 0.57917 0.11835 0.0
C809 C 0.2963 0.43954 0.59167 0.0
C810 C 0.27635 0.44658 0.55795 0.0
C811 C 0.33534 0.43974 0.59199 0.0
C812 C 0.35576 0.44761 0.55867 0.0
H813 H 0.28152 0.43362 0.61803 0.0
H814 H 0.34974 0.43434 0.61852 0.0
S815 S 0.31667 0.46678 0.46293 0.0
N816 N 0.27953 0.46056 0.49036 0.0
N817 N 0.35338 0.46159 0.49091 0.0
C818 C 0.33618 0.45455 0.52468 0.0
C819 C 0.29629 0.45374 0.52432 0.0
C820 C 0.92068 0.65679 0.96851 0.0
C821 C 0.94195 0.68717 0.94774 0.0
C822 C 0.93748 0.62226 0.98608 0.0
C823 C 0.97621 0.61628 0.98325 0.0
H824 H 0.89061 0.65892 0.97007 0.0
H825 H 0.91975 0.59929 1.00058 0.0
S826 S 0.04555 0.68873 0.93776 0.0
N827 N 1.00511 0.71056 0.93042 0.0
N828 N 0.03569 0.64527 0.96121 0.0
C829 C 0.99792 0.64698 0.96409 0.0
C830 C 0.98112 0.6824 0.94702 0.0
C831 C 0.46298 0.85937 0.12133 0.0
C832 C 0.44653 0.83066 0.10007 0.0
C833 C 0.47988 0.8945 0.10422 0.0
C834 C 0.48078 0.90281 0.06503 0.0
H835 H 0.46254 0.85487 0.15163 0.0
H836 H 0.49175 0.91563 0.12197 0.0
S837 S 0.4435 0.83689 0.99623 0.0
N838 N 0.4339 0.81244 0.03738 0.0
N839 N 0.46456 0.8788 1.00528 0.0
C840 C 0.46453 0.87441 0.04334 0.0
C841 C 0.44764 0.83839 0.06079 0.0
C842 C 0.03807 0.17314 0.57823 0.0
C843 C 0.02808 0.20385 0.55105 0.0
C844 C 0.03225 0.13332 0.57204 0.0
C845 C 1.01559 0.12278 0.53878 0.0
H846 H 0.05222 0.17992 0.60363 0.0
H847 H 0.04184 0.11059 0.59306 0.0
S848 S 0.98153 0.19226 0.4603 0.0
N849 N 0.99893 0.22139 0.49066 0.0
N850 N 0.9871 0.1463 0.47933 0.0
C851 C 1.00356 0.15322 0.51228 0.0
C852 C 1.01014 0.19385 0.5183 0.0
C853 C 0.53801 0.33854 0.4705 0.0
C854 C 0.57534 0.33091 0.4625 0.0
C855 C 0.52773 0.37591 0.47961 0.0
C856 C 0.55436 0.40713 0.48056 0.0
H857 H 0.51677 0.31511 0.47079 0.0
H858 H 0.49872 0.3802 0.48633 0.0
S859 S 0.65554 0.40269 0.45948 0.0
N860 N 0.63879 0.35765 0.45442 0.0
N861 N 0.61954 0.42822 0.47132 0.0
C862 C 0.59165 0.40018 0.47142 0.0
C863 C 0.60214 0.36195 0.46252 0.0
loop_
_geom_bond_atom_site_label_1
_geom_bond_atom_site_label_2
_geom_bond_distance
_geom_bond_site_symmetry_2
_ccdc_geom_bond_type
C0 C1 1.391 . S
C0 C4 1.391 . S
C0 H42 0.948 . S
C1 C0 1.391 . S
C1 C2 1.391 . S
C2 C1 1.391 . S
C2 H58 0.947 . S
C2 C59 1.392 . S
C3 C4 1.391 . S
C3 C7 1.397 . S
C3 C59 1.419 . S
C4 C0 1.391 . S
C4 C3 1.391 . S
C4 C5 1.399 . S
C5 C4 1.399 . S
C5 C8 1.396 . S
C5 C17 1.453 . S
C5 C18 1.684 . S
H6 C30 0.948 . S
C7 C3 1.397 . S
C7 C8 1.394 . S
C7 C26 1.723 . S
C8 C5 1.396 . S
C8 C7 1.394 . S
C8 C38 1.723 . S
H9 C32 0.947 . S
H10 C33 0.948 . S
H11 C39 0.982 . S
H12 C40 0.979 . S
H13 C40 0.980 . S
H14 C40 0.968 1_556 S
H15 C39 0.979 . S
H16 C39 0.977 . S
C17 C5 1.453 . S
C17 H46 0.982 . S
C17 H47 0.979 . S
C17 H48 0.977 . S
C18 C5 1.684 . S
C18 H43 0.979 1_545 S
C18 H44 0.980 . S
C18 H45 0.983 1_545 S
C19 C20 1.391 . S
C19 C24 1.391 . S
C19 H49 0.948 . S
C20 C19 1.391 . S
C20 C21 1.391 . S
C21 C20 1.391 . S
C21 C22 1.392 . S
C21 H50 0.947 . S
C22 C21 1.392 . S
C22 C23 1.419 . S
C22 H51 0.948 . S
C23 C22 1.419 . S
C23 C24 1.391 . S
C23 C27 1.397 . S
C24 C19 1.391 . S
C24 C23 1.391 . S
C24 C25 1.399 . S
C25 C24 1.399 . S
C25 C26 1.396 . S
C25 C28 1.453 . S
C25 C29 1.684 . S
C26 C7 1.723 . S
C26 C25 1.396 . S
C26 C27 1.394 . S
C27 C23 1.397 . S
C27 C26 1.394 . S
C27 C37 1.723 . S
C28 C25 1.453 . S
C28 H52 0.982 . S
C28 H53 0.979 . S
C28 H54 0.977 . S
C29 C25 1.684 . S
C29 H55 0.979 . S
C29 H56 0.980 . S
C29 H57 0.983 . S
C30 H6 0.948 . S
C30 C31 1.391 . S
C30 C35 1.391 . S
C31 C30 1.391 . S
C31 C32 1.391 . S
C32 H9 0.947 . S
C32 C31 1.391 . S
C32 C33 1.392 . S
C33 H10 0.948 . S
C33 C32 1.392 . S
C33 C34 1.419 . S
C34 C33 1.419 . S
C34 C35 1.391 . S
C34 C38 1.397 . S
C35 C30 1.391 . S
C35 C34 1.391 . S
C35 C36 1.399 . S
C36 C35 1.399 . S
C36 C37 1.396 . S
C36 C39 1.453 . S
C36 C40 1.684 . S
C37 C27 1.723 . S
C37 C36 1.396 . S
C37 C38 1.394 . S
C38 C8 1.723 . S
C38 C34 1.397 . S
C38 C37 1.394 . S
C39 H11 0.982 . S
C39 H15 0.979 . S
C39 H16 0.977 . S
C39 C36 1.453 . S
C40 H12 0.979 . S
C40 H13 0.980 . S
C40 H14 0.968 1_554 S
C40 C36 1.684 . S
H41 C59 0.948 . S
H42 C0 0.948 . S
H43 C18 0.979 1_565 S
H44 C18 0.980 . S
H45 C18 0.983 1_565 S
H46 C17 0.982 . S
H47 C17 0.979 . S
H48 C17 0.977 . S
H49 C19 0.948 . S
H50 C21 0.947 . S
H51 C22 0.948 . S
H52 C28 0.982 . S
H53 C28 0.979 . S
H54 C28 0.977 . S
H55 C29 0.979 . S
H56 C29 0.980 . S
H57 C29 0.983 . S
H58 C2 0.947 . S
C59 C2 1.392 . S
C59 C3 1.419 . S
C59 H41 0.948 . S
C60 C61 1.391 . S
C60 C64 1.391 . S
C60 H102 0.948 . S
C61 C60 1.391 . S
C61 C62 1.391 . S
C62 C61 1.391 . S
C62 H118 0.947 . S
C62 C119 1.392 . S
C63 C64 1.391 . S
C63 C67 1.397 . S
C63 C119 1.419 . S
C64 C60 1.391 . S
C64 C63 1.391 . S
C64 C65 1.399 . S
C65 C64 1.399 . S
C65 C68 1.396 . S
C65 C77 1.453 . S
C65 C78 1.684 . S
H66 C90 0.948 . S
C67 C63 1.397 . S
C67 C68 1.394 . S
C67 C86 1.723 . S
C68 C65 1.396 . S
C68 C67 1.394 . S
C68 C98 1.723 . S
H69 C92 0.947 . S
H70 C93 0.948 . S
H71 C99 0.982 . S
H72 C100 0.979 . S
H73 C100 0.980 . S
H74 C100 0.983 . S
H75 C99 0.979 . S
H76 C99 0.977 . S
C77 C65 1.453 . S
C77 H106 0.982 . S
C77 H107 0.979 . S
C77 H108 0.977 . S
C78 C65 1.684 . S
C78 H103 0.979 . S
C78 H104 0.980 . S
C78 H105 0.983 . S
C79 C80 1.391 . S
C79 C84 1.391 . S
C79 H109 0.948 . S
C80 C79 1.391 . S
C80 C81 1.391 . S
C81 C80 1.391 . S
C81 C82 1.392 . S
C81 H110 0.947 . S
C82 C81 1.392 . S
C82 C83 1.419 . S
C82 H111 0.948 . S
C83 C82 1.419 . S
C83 C84 1.391 . S
C83 C87 1.397 . S
C84 C79 1.391 . S
C84 C83 1.391 . S
C84 C85 1.399 . S
C85 C84 1.399 . S
C85 C86 1.396 . S
C85 C88 1.453 . S
C85 C89 1.684 . S
C86 C67 1.723 . S
C86 C85 1.396 . S
C86 C87 1.394 . S
C87 C83 1.397 . S
C87 C86 1.394 . S
C87 C97 1.723 . S
C88 C85 1.453 . S
C88 H112 0.982 . S
C88 H113 0.979 . S
C88 H114 0.977 . S
C89 C85 1.684 . S
C89 H115 0.979 . S
C89 H116 0.980 . S
C89 H117 0.983 . S
C90 H66 0.948 . S
C90 C91 1.391 . S
C90 C95 1.391 . S
C91 C90 1.391 . S
C91 C92 1.391 . S
C92 H69 0.947 . S
C92 C91 1.391 . S
C92 C93 1.392 . S
C93 H70 0.948 . S
C93 C92 1.392 . S
C93 C94 1.419 . S
C94 C93 1.419 . S
C94 C95 1.391 . S
C94 C98 1.397 . S
C95 C90 1.391 . S
C95 C94 1.391 . S
C95 C96 1.399 . S
C96 C95 1.399 . S
C96 C97 1.396 . S
C96 C99 1.453 . S
C96 C100 1.684 . S
C97 C87 1.723 . S
C97 C96 1.396 . S
C97 C98 1.394 . S
C98 C68 1.723 . S
C98 C94 1.397 . S
C98 C97 1.394 . S
C99 H71 0.982 . S
C99 H75 0.979 . S
C99 H76 0.977 . S
C99 C96 1.453 . S
C100 H72 0.979 . S
C100 H73 0.980 . S
C100 H74 0.983 . S
C100 C96 1.684 . S
H101 C119 0.948 . S
H102 C60 0.948 . S
H103 C78 0.979 . S
H104 C78 0.980 . S
H105 C78 0.983 . S
H106 C77 0.982 . S
H107 C77 0.979 . S
H108 C77 0.977 . S
H109 C79 0.948 . S
H110 C81 0.947 . S
H111 C82 0.948 . S
H112 C88 0.982 . S
H113 C88 0.979 . S
H114 C88 0.977 . S
H115 C89 0.979 . S
H116 C89 0.980 . S
H117 C89 0.983 . S
H118 C62 0.947 . S
C119 C62 1.392 . S
C119 C63 1.419 . S
C119 H101 0.948 . S
C120 C121 1.391 . S
C120 C124 1.391 . S
C120 H162 0.948 . S
C121 C120 1.391 . S
C121 C122 1.391 . S
C122 C121 1.391 . S
C122 H178 0.947 . S
C122 C179 1.392 . S
C123 C124 1.391 . S
C123 C127 1.397 . S
C123 C179 1.419 . S
C124 C120 1.391 . S
C124 C123 1.391 . S
C124 C125 1.399 . S
C125 C124 1.399 . S
C125 C128 1.396 . S
C125 C137 1.453 . S
C125 C138 1.684 . S
H126 C150 0.948 . S
C127 C123 1.397 . S
C127 C128 1.394 . S
C127 C146 1.723 . S
C128 C125 1.396 . S
C128 C127 1.394 . S
C128 C158 1.723 . S
H129 C152 0.947 . S
H130 C153 0.948 . S
H131 C159 0.982 . S
H132 C160 0.979 . S
H133 C160 0.980 . S
H134 C160 0.983 . S
H135 C159 0.979 . S
H136 C159 0.977 . S
C137 C125 1.453 . S
C137 H166 0.982 . S
C137 H167 0.979 . S
C137 H168 0.977 . S
C138 C125 1.684 . S
C138 H163 0.979 . S
C138 H164 0.980 . S
C138 H165 0.983 . S
C139 C140 1.391 . S
C139 C144 1.391 . S
C139 H169 0.948 . S
C140 C139 1.391 . S
C140 C141 1.391 . S
C141 C140 1.391 . S
C141 C142 1.392 . S
C141 H170 0.947 . S
C142 C141 1.392 . S
C142 C143 1.419 . S
C142 H171 0.948 . S
C143 C142 1.419 . S
C143 C144 1.391 . S
C143 C147 1.397 . S
C144 C139 1.391 . S
C144 C143 1.391 . S
C144 C145 1.399 . S
C145 C144 1.399 . S
C145 C146 1.396 . S
C145 C148 1.453 . S
C145 C149 1.684 . S
C146 C127 1.723 . S
C146 C145 1.396 . S
C146 C147 1.394 . S
C147 C143 1.397 . S
C147 C146 1.394 . S
C147 C157 1.723 . S
C148 C145 1.453 . S
C148 H172 0.982 . S
C148 H173 0.979 . S
C148 H174 0.977 . S
C149 C145 1.684 . S
C149 H175 0.979 . S
C149 H176 0.980 . S
C149 H177 0.983 . S
C150 H126 0.948 . S
C150 C151 1.391 . S
C150 C155 1.391 . S
C151 C150 1.391 . S
C151 C152 1.391 . S
C152 H129 0.947 . S
C152 C151 1.391 . S
C152 C153 1.392 . S
C153 H130 0.948 . S
C153 C152 1.392 . S
C153 C154 1.419 . S
C154 C153 1.419 . S
C154 C155 1.391 . S
C154 C158 1.397 . S
C155 C150 1.391 . S
C155 C154 1.391 . S
C155 C156 1.399 . S
C156 C155 1.399 . S
C156 C157 1.396 . S
C156 C159 1.453 . S
C156 C160 1.684 . S
C157 C147 1.723 . S
C157 C156 1.396 . S
C157 C158 1.394 . S
C158 C128 1.723 . S
C158 C154 1.397 . S
C158 C157 1.394 . S
C159 H131 0.982 . S
C159 H135 0.979 . S
C159 H136 0.977 . S
C159 C156 1.453 . S
C160 H132 0.979 . S
C160 H133 0.980 . S
C160 H134 0.983 . S
C160 C156 1.684 . S
H161 C179 0.948 . S
H162 C120 0.948 . S
H163 C138 0.979 . S
H164 C138 0.980 . S
H165 C138 0.983 . S
H166 C137 0.982 . S
H167 C137 0.979 . S
H168 C137 0.977 . S
H169 C139 0.948 . S
H170 C141 0.947 . S
H171 C142 0.948 . S
H172 C148 0.982 . S
H173 C148 0.979 . S
H174 C148 0.977 . S
H175 C149 0.979 . S
H176 C149 0.980 . S
H177 C149 0.983 . S
H178 C122 0.947 . S
C179 C122 1.392 . S
C179 C123 1.419 . S
C179 H161 0.948 . S
C180 C181 1.391 . S
C180 C184 1.391 . S
C180 H222 0.948 . S
C181 C180 1.391 . S
C181 C182 1.391 . S
C182 C181 1.391 . S
C182 H238 0.947 . S
C182 C239 1.392 . S
C183 C184 1.391 . S
C183 C187 1.397 . S
C183 C239 1.419 . S
C184 C180 1.391 . S
C184 C183 1.391 . S
C184 C185 1.399 . S
C185 C184 1.399 . S
C185 C188 1.396 . S
C185 C197 1.453 . S
C185 C198 1.684 . S
H186 C210 0.948 . S
C187 C183 1.397 . S
C187 C188 1.394 . S
C187 C206 1.723 . S
C188 C185 1.396 . S
C188 C187 1.394 . S
C188 C218 1.723 . S
H189 C212 0.947 1_455 S
H190 C213 0.948 . S
H191 C219 0.982 . S
H192 C220 0.979 . S
H193 C220 0.980 . S
H194 C220 0.983 . S
H195 C219 0.979 . S
H196 C219 0.977 . S
C197 C185 1.453 . S
C197 H226 0.984 . S
C197 H227 0.979 1_655 S
C197 H228 0.977 . S
C198 C185 1.684 . S
C198 H223 0.979 . S
C198 H224 0.980 . S
C198 H225 0.983 . S
C199 C200 1.391 . S
C199 C204 1.391 . S
C199 H229 0.948 . S
C200 C199 1.391 . S
C200 C201 1.391 . S
C201 C200 1.391 . S
C201 C202 1.392 . S
C201 H230 0.947 . S
C202 C201 1.392 . S
C202 C203 1.419 . S
C202 H231 0.948 . S
C203 C202 1.419 . S
C203 C204 1.391 . S
C203 C207 1.397 . S
C204 C199 1.391 . S
C204 C203 1.391 . S
C204 C205 1.399 . S
C205 C204 1.399 . S
C205 C206 1.396 . S
C205 C208 1.453 . S
C205 C209 1.684 . S
C206 C187 1.723 . S
C206 C205 1.396 . S
C206 C207 1.394 . S
C207 C203 1.397 . S
C207 C206 1.394 . S
C207 C217 1.723 . S
C208 C205 1.453 . S
C208 H232 0.982 . S
C208 H233 0.979 . S
C208 H234 0.977 . S
C209 C205 1.684 . S
C209 H235 0.979 . S
C209 H236 0.980 . S
C209 H237 0.983 . S
C210 H186 0.948 . S
C210 C211 1.391 . S
C210 C215 1.391 . S
C211 C210 1.391 . S
C211 C212 1.391 . S
C212 H189 0.947 1_655 S
C212 C211 1.391 . S
C212 C213 1.392 . S
C213 H190 0.948 . S
C213 C212 1.392 . S
C213 C214 1.419 . S
C214 C213 1.419 . S
C214 C215 1.391 . S
C214 C218 1.397 . S
C215 C210 1.391 . S
C215 C214 1.391 . S
C215 C216 1.399 . S
C216 C215 1.399 . S
C216 C217 1.396 . S
C216 C219 1.453 . S
C216 C220 1.684 . S
C217 C207 1.723 . S
C217 C216 1.396 . S
C217 C218 1.394 . S
C218 C188 1.723 . S
C218 C214 1.397 . S
C218 C217 1.394 . S
C219 H191 0.982 . S
C219 H195 0.979 . S
C219 H196 0.977 . S
C219 C216 1.453 . S
C220 H192 0.979 . S
C220 H193 0.980 . S
C220 H194 0.983 . S
C220 C216 1.684 . S
H221 C239 0.948 . S
H222 C180 0.948 . S
H223 C198 0.979 . S
H224 C198 0.980 . S
H225 C198 0.983 . S
H226 C197 0.984 . S
H227 C197 0.979 1_455 S
H228 C197 0.977 . S
H229 C199 0.948 . S
H230 C201 0.947 . S
H231 C202 0.948 . S
H232 C208 0.982 . S
H233 C208 0.979 . S
H234 C208 0.977 . S
H235 C209 0.979 . S
H236 C209 0.980 . S
H237 C209 0.983 . S
H238 C182 0.947 . S
C239 C182 1.392 . S
C239 C183 1.419 . S
C239 H221 0.948 . S
C240 C241 1.391 . S
C240 C244 1.391 . S
C240 H282 0.948 . S
C241 C240 1.391 . S
C241 C242 1.391 . S
C242 C241 1.391 . S
C242 H298 0.947 . S
C242 C299 1.392 . S
C243 C244 1.391 . S
C243 C247 1.397 . S
C243 C299 1.419 . S
C244 C240 1.391 . S
C244 C243 1.391 . S
C244 C245 1.399 . S
C245 C244 1.399 . S
C245 C248 1.396 . S
C245 C257 1.453 . S
C245 C258 1.684 . S
H246 C270 0.948 . S
C247 C243 1.397 . S
C247 C248 1.394 . S
C247 C266 1.723 . S
C248 C245 1.396 . S
C248 C247 1.394 . S
C248 C278 1.723 . S
H249 C272 0.947 . S
H250 C273 0.948 . S
H251 C279 0.982 . S
H252 C280 0.978 1_545 S
H253 C280 0.980 . S
H254 C280 0.983 1_545 S
H255 C279 0.979 . S
H256 C279 0.977 . S
C257 C245 1.453 . S
C257 H286 0.982 . S
C257 H287 0.979 . S
C257 H288 0.977 . S
C258 C245 1.684 . S
C258 H283 0.979 . S
C258 H284 0.980 . S
C258 H285 0.983 1_556 S
C259 C260 1.391 . S
C259 C264 1.391 . S
C259 H289 0.948 . S
C260 C259 1.391 . S
C260 C261 1.391 . S
C261 C260 1.391 . S
C261 C262 1.392 . S
C261 H290 0.947 . S
C262 C261 1.392 . S
C262 C263 1.419 . S
C262 H291 0.948 . S
C263 C262 1.419 . S
C263 C264 1.391 . S
C263 C267 1.397 . S
C264 C259 1.391 . S
C264 C263 1.391 . S
C264 C265 1.399 . S
C265 C264 1.399 . S
C265 C266 1.396 . S
C265 C268 1.453 . S
C265 C269 1.684 . S
C266 C247 1.723 . S
C266 C265 1.396 . S
C266 C267 1.394 . S
C267 C263 1.397 . S
C267 C266 1.394 . S
C267 C277 1.723 . S
C268 C265 1.453 . S
C268 H292 0.982 . S
C268 H293 0.979 . S
C268 H294 0.977 . S
C269 C265 1.684 . S
C269 H295 0.979 . S
C269 H296 0.980 . S
C269 H297 0.983 . S
C270 H246 0.948 . S
C270 C271 1.391 . S
C270 C275 1.391 . S
C271 C270 1.391 . S
C271 C272 1.391 . S
C272 H249 0.947 . S
C272 C271 1.391 . S
C272 C273 1.392 . S
C273 H250 0.948 . S
C273 C272 1.392 . S
C273 C274 1.419 . S
C274 C273 1.419 . S
C274 C275 1.391 . S
C274 C278 1.397 . S
C275 C270 1.391 . S
C275 C274 1.391 . S
C275 C276 1.399 . S
C276 C275 1.399 . S
C276 C277 1.396 . S
C276 C279 1.453 . S
C276 C280 1.684 . S
C277 C267 1.723 . S
C277 C276 1.396 . S
C277 C278 1.394 . S
C278 C248 1.723 . S
C278 C274 1.397 . S
C278 C277 1.394 . S
C279 H251 0.982 . S
C279 H255 0.979 . S
C279 H256 0.977 . S
C279 C276 1.453 . S
C280 H252 0.978 1_565 S
C280 H253 0.980 . S
C280 H254 0.983 1_565 S
C280 C276 1.684 . S
H281 C299 0.948 . S
H282 C240 0.948 . S
H283 C258 0.979 . S
H284 C258 0.980 . S
H285 C258 0.983 1_554 S
H286 C257 0.982 . S
H287 C257 0.979 . S
H288 C257 0.977 . S
H289 C259 0.948 . S
H290 C261 0.947 . S
H291 C262 0.948 . S
H292 C268 0.982 . S
H293 C268 0.979 . S
H294 C268 0.977 . S
H295 C269 0.979 . S
H296 C269 0.980 . S
H297 C269 0.983 . S
H298 C242 0.947 . S
C299 C242 1.392 . S
C299 C243 1.419 . S
C299 H281 0.948 . S
C300 C301 1.391 . S
C300 C304 1.391 . S
C300 H342 0.948 . S
C301 C300 1.391 . S
C301 C302 1.391 . S
C302 C301 1.391 . S
C302 H358 0.947 . S
C302 C359 1.392 . S
C303 C304 1.391 . S
C303 C307 1.397 . S
C303 C359 1.419 . S
C304 C300 1.391 . S
C304 C303 1.391 . S
C304 C305 1.399 . S
C305 C304 1.399 . S
C305 C308 1.396 . S
C305 C317 1.453 . S
C305 C318 1.684 . S
H306 C330 0.948 . S
C307 C303 1.397 . S
C307 C308 1.394 . S
C307 C326 1.723 . S
C308 C305 1.396 . S
C308 C307 1.394 . S
C308 C338 1.723 . S
H309 C332 0.947 . S
H310 C333 0.948 . S
H311 C339 0.982 . S
H312 C340 0.979 . S
H313 C340 0.980 . S
H314 C340 0.983 . S
H315 C339 0.979 . S
H316 C339 0.977 . S
C317 C305 1.453 . S
C317 H346 0.982 . S
C317 H347 0.979 . S
C317 H348 0.977 . S
C318 C305 1.684 . S
C318 H343 0.979 . S
C318 H344 0.980 . S
C318 H345 0.983 . S
C319 C320 1.391 . S
C319 C324 1.391 . S
C319 H349 0.948 . S
C320 C319 1.391 . S
C320 C321 1.391 . S
C321 C320 1.391 . S
C321 C322 1.392 . S
C321 H350 0.947 . S
C322 C321 1.392 . S
C322 C323 1.419 . S
C322 H351 0.948 . S
C323 C322 1.419 . S
C323 C324 1.391 . S
C323 C327 1.397 . S
C324 C319 1.391 . S
C324 C323 1.391 . S
C324 C325 1.399 . S
C325 C324 1.399 . S
C325 C326 1.396 . S
C325 C328 1.453 . S
C325 C329 1.684 . S
C326 C307 1.723 . S
C326 C325 1.396 . S
C326 C327 1.394 . S
C327 C323 1.397 . S
C327 C326 1.394 . S
C327 C337 1.723 . S
C328 C325 1.453 . S
C328 H352 0.982 . S
C328 H353 0.979 . S
C328 H354 0.977 . S
C329 C325 1.684 . S
C329 H355 0.979 . S
C329 H356 0.980 . S
C329 H357 0.983 . S
C330 H306 0.948 . S
C330 C331 1.391 . S
C330 C335 1.391 . S
C331 C330 1.391 . S
C331 C332 1.391 . S
C332 H309 0.947 . S
C332 C331 1.391 . S
C332 C333 1.392 . S
C333 H310 0.948 . S
C333 C332 1.392 . S
C333 C334 1.419 . S
C334 C333 1.419 . S
C334 C335 1.391 . S
C334 C338 1.397 . S
C335 C330 1.391 . S
C335 C334 1.391 . S
C335 C336 1.399 . S
C336 C335 1.399 . S
C336 C337 1.396 . S
C336 C339 1.453 . S
C336 C340 1.684 . S
C337 C327 1.723 . S
C337 C336 1.396 . S
C337 C338 1.394 . S
C338 C308 1.723 . S
C338 C334 1.397 . S
C338 C337 1.394 . S
C339 H311 0.982 . S
C339 H315 0.979 . S
C339 H316 0.977 . S
C339 C336 1.453 . S
C340 H312 0.979 . S
C340 H313 0.980 . S
C340 H314 0.983 . S
C340 C336 1.684 . S
H341 C359 0.948 . S
H342 C300 0.948 . S
H343 C318 0.979 . S
H344 C318 0.980 . S
H345 C318 0.983 . S
H346 C317 0.982 . S
H347 C317 0.979 . S
H348 C317 0.977 . S
H349 C319 0.948 . S
H350 C321 0.947 . S
H351 C322 0.948 . S
H352 C328 0.982 . S
H353 C328 0.979 . S
H354 C328 0.977 . S
H355 C329 0.979 . S
H356 C329 0.980 . S
H357 C329 0.983 . S
H358 C302 0.947 . S
C359 C302 1.392 . S
C359 C303 1.419 . S
C359 H341 0.948 . S
C360 C361 1.391 . S
C360 C364 1.391 . S
C360 H402 0.948 . S
C361 C360 1.391 . S
C361 C362 1.391 . S
C362 C361 1.391 . S
C362 H418 0.947 . S
C362 C419 1.392 . S
C363 C364 1.391 . S
C363 C367 1.397 . S
C363 C419 1.419 . S
C364 C360 1.391 . S
C364 C363 1.391 . S
C364 C365 1.399 . S
C365 C364 1.399 . S
C365 C368 1.396 . S
C365 C377 1.453 . S
C365 C378 1.684 . S
H366 C390 0.948 . S
C367 C363 1.397 . S
C367 C368 1.394 . S
C367 C386 1.723 . S
C368 C365 1.396 . S
C368 C367 1.394 . S
C368 C398 1.723 . S
H369 C392 0.947 . S
H370 C393 0.948 . S
H371 C399 0.982 . S
H372 C400 0.979 . S
H373 C400 0.980 . S
H374 C400 0.983 . S
H375 C399 0.979 . S
H376 C399 0.977 . S
C377 C365 1.453 . S
C377 H406 0.982 . S
C377 H407 0.979 . S
C377 H408 0.977 . S
C378 C365 1.684 . S
C378 H403 0.979 . S
C378 H404 0.980 . S
C378 H405 0.983 . S
C379 C380 1.391 . S
C379 C384 1.391 . S
C379 H409 0.948 . S
C380 C379 1.391 . S
C380 C381 1.391 . S
C381 C380 1.391 . S
C381 C382 1.392 . S
C381 H410 0.947 . S
C382 C381 1.392 . S
C382 C383 1.419 . S
C382 H411 0.948 . S
C383 C382 1.419 . S
C383 C384 1.391 . S
C383 C387 1.397 . S
C384 C379 1.391 . S
C384 C383 1.391 . S
C384 C385 1.399 . S
C385 C384 1.399 . S
C385 C386 1.396 . S
C385 C388 1.453 . S
C385 C389 1.684 . S
C386 C367 1.723 . S
C386 C385 1.396 . S
C386 C387 1.394 . S
C387 C383 1.397 . S
C387 C386 1.394 . S
C387 C397 1.723 . S
C388 C385 1.453 . S
C388 H412 0.982 . S
C388 H413 0.979 . S
C388 H414 0.977 . S
C389 C385 1.684 . S
C389 H415 0.979 . S
C389 H416 0.980 . S
C389 H417 0.983 . S
C390 H366 0.948 . S
C390 C391 1.391 . S
C390 C395 1.391 . S
C391 C390 1.391 . S
C391 C392 1.391 . S
C392 H369 0.947 . S
C392 C391 1.391 . S
C392 C393 1.392 . S
C393 H370 0.948 . S
C393 C392 1.392 . S
C393 C394 1.419 . S
C394 C393 1.419 . S
C394 C395 1.391 . S
C394 C398 1.397 . S
C395 C390 1.391 . S
C395 C394 1.391 . S
C395 C396 1.399 . S
C396 C395 1.399 . S
C396 C397 1.396 . S
C396 C399 1.453 . S
C396 C400 1.684 . S
C397 C387 1.723 . S
C397 C396 1.396 . S
C397 C398 1.394 . S
C398 C368 1.723 . S
C398 C394 1.397 . S
C398 C397 1.394 . S
C399 H371 0.982 . S
C399 H375 0.979 . S
C399 H376 0.977 . S
C399 C396 1.453 . S
C400 H372 0.979 . S
C400 H373 0.980 . S
C400 H374 0.983 . S
C400 C396 1.684 . S
H401 C419 0.948 . S
H402 C360 0.948 . S
H403 C378 0.979 . S
H404 C378 0.980 . S
H405 C378 0.983 . S
H406 C377 0.982 . S
H407 C377 0.979 . S
H408 C377 0.977 . S
H409 C379 0.948 . S
H410 C381 0.947 . S
H411 C382 0.948 . S
H412 C388 0.982 . S
H413 C388 0.979 . S
H414 C388 0.977 . S
H415 C389 0.979 . S
H416 C389 0.980 . S
H417 C389 0.983 . S
H418 C362 0.947 . S
C419 C362 1.392 . S
C419 C363 1.419 . S
C419 H401 0.948 . S
C420 C421 1.391 . S
C420 C424 1.391 . S
C420 H462 0.948 . S
C421 C420 1.391 . S
C421 C422 1.391 . S
C422 C421 1.391 . S
C422 H478 0.947 . S
C422 C479 1.392 . S
C423 C424 1.391 . S
C423 C427 1.397 . S
C423 C479 1.419 . S
C424 C420 1.391 . S
C424 C423 1.391 . S
C424 C425 1.399 . S
C425 C424 1.399 . S
C425 C428 1.396 . S
C425 C437 1.453 . S
C425 C438 1.684 . S
H426 C450 0.948 . S
C427 C423 1.397 . S
C427 C428 1.394 . S
C427 C446 1.723 . S
C428 C425 1.396 . S
C428 C427 1.394 . S
C428 C458 1.723 . S
H429 C452 0.947 1_655 S
H430 C453 0.948 . S
H431 C459 0.982 . S
H432 C460 0.979 . S
H433 C460 0.980 . S
H434 C460 0.983 . S
H435 C459 0.979 . S
H436 C459 0.977 . S
C437 C425 1.453 . S
C437 H466 0.985 . S
C437 H467 0.979 1_455 S
C437 H468 0.977 . S
C438 C425 1.684 . S
C438 H463 0.979 . S
C438 H464 0.980 . S
C438 H465 0.983 . S
C439 C440 1.391 . S
C439 C444 1.391 . S
C439 H469 0.948 . S
C440 C439 1.391 . S
C440 C441 1.391 . S
C441 C440 1.391 . S
C441 C442 1.392 . S
C441 H470 0.947 . S
C442 C441 1.392 . S
C442 C443 1.419 . S
C442 H471 0.948 . S
C443 C442 1.419 . S
C443 C444 1.391 . S
C443 C447 1.397 . S
C444 C439 1.391 . S
C444 C443 1.391 . S
C444 C445 1.399 . S
C445 C444 1.399 . S
C445 C446 1.396 . S
C445 C448 1.453 . S
C445 C449 1.684 . S
C446 C427 1.723 . S
C446 C445 1.396 . S
C446 C447 1.394 . S
C447 C443 1.397 . S
C447 C446 1.394 . S
C447 C457 1.723 . S
C448 C445 1.453 . S
C448 H472 0.982 . S
C448 H473 0.979 . S
C448 H474 0.977 . S
C449 C445 1.684 . S
C449 H475 0.979 . S
C449 H476 0.980 . S
C449 H477 0.983 . S
C450 H426 0.948 . S
C450 C451 1.391 . S
C450 C455 1.391 . S
C451 C450 1.391 . S
C451 C452 1.391 . S
C452 H429 0.947 1_455 S
C452 C451 1.391 . S
C452 C453 1.392 . S
C453 H430 0.948 . S
C453 C452 1.392 . S
C453 C454 1.419 . S
C454 C453 1.419 . S
C454 C455 1.391 . S
C454 C458 1.397 . S
C455 C450 1.391 . S
C455 C454 1.391 . S
C455 C456 1.399 . S
C456 C455 1.399 . S
C456 C457 1.396 . S
C456 C459 1.453 . S
C456 C460 1.684 . S
C457 C447 1.723 . S
C457 C456 1.396 . S
C457 C458 1.394 . S
C458 C428 1.723 . S
C458 C454 1.397 . S
C458 C457 1.394 . S
C459 H431 0.982 . S
C459 H435 0.979 . S
C459 H436 0.977 . S
C459 C456 1.453 . S
C460 H432 0.979 . S
C460 H433 0.980 . S
C460 H434 0.983 . S
C460 C456 1.684 . S
H461 C479 0.948 . S
H462 C420 0.948 . S
H463 C438 0.979 . S
H464 C438 0.980 . S
H465 C438 0.983 . S
H466 C437 0.985 . S
H467 C437 0.979 1_655 S
H468 C437 0.977 . S
H469 C439 0.948 . S
H470 C441 0.947 . S
H471 C442 0.948 . S
H472 C448 0.982 . S
H473 C448 0.979 . S
H474 C448 0.977 . S
H475 C449 0.979 . S
H476 C449 0.980 . S
H477 C449 0.983 . S
H478 C422 0.947 . S
C479 C422 1.392 . S
C479 C423 1.419 . S
C479 H461 0.948 . S
Co480 N485 2.057 . S
Co480 O497 2.021 . S
Co480 O500 2.062 . S
Co480 O504 2.117 1_545 S
Co480 O505 2.020 1_545 S
C481 O501 1.259 1_655 S
C481 O504 1.258 . S
Co482 N491 2.057 . S
Co482 O498 2.117 1_565 S
Co482 O499 2.020 1_565 S
Co482 O501 2.021 . S
Co482 O506 2.062 . S
C483 N485 1.316 . S
C483 N486 1.347 . S
C483 H488 0.931 . S
C484 N485 1.375 1_565 S
C484 C487 1.350 1_565 S
C484 H489 0.930 . S
N485 Co480 2.057 . S
N485 C483 1.316 . S
N485 C484 1.375 1_545 S
N486 C483 1.347 . S
N486 C487 1.373 . S
C487 C484 1.350 1_545 S
C487 N486 1.373 . S
C487 H508 0.931 1_545 S
H488 C483 0.931 . S
H489 C484 0.930 . S
C490 O497 1.259 1_455 S
C490 O498 1.258 . S
N491 Co482 2.057 . S
N491 C492 1.316 . S
N491 C493 1.375 1_565 S
C492 N491 1.316 . S
C492 N494 1.347 . S
C492 H503 0.931 . S
C493 N491 1.375 1_545 S
C493 C495 1.350 1_545 S
C493 H502 0.930 . S
N494 C492 1.347 . S
N494 C495 1.373 . S
C495 C493 1.350 1_565 S
C495 N494 1.373 . S
C495 H509 0.931 1_565 S
C496 O499 1.256 . S
C496 O500 1.255 1_455 S
O497 Co480 2.021 . S
O497 C490 1.259 1_655 S
O498 Co482 2.117 1_545 S
O498 C490 1.258 . S
O499 Co482 2.020 1_545 S
O499 C496 1.256 . S
O500 Co480 2.062 . S
O500 C496 1.255 1_655 S
O501 C481 1.259 1_455 S
O501 Co482 2.021 . S
H502 C493 0.930 . S
H503 C492 0.931 . S
O504 Co480 2.117 1_565 S
O504 C481 1.258 . S
O505 Co480 2.020 1_565 S
O505 C507 1.256 . S
O506 Co482 2.062 . S
O506 C507 1.255 1_455 S
C507 O505 1.256 . S
C507 O506 1.255 1_655 S
H508 C487 0.931 1_565 S
H509 C495 0.931 1_545 S
Co510 N515 2.057 . S
Co510 O527 2.021 1_565 S
Co510 O530 2.062 . S
Co510 O534 2.117 . S
Co510 O535 2.020 1_565 S
C511 O531 1.259 . S
C511 O534 1.258 1_554 S
Co512 N521 2.057 . S
Co512 O528 2.117 . S
Co512 O529 2.020 1_545 S
Co512 O531 2.021 1_545 S
Co512 O536 2.062 . S
C513 N515 1.316 . S
C513 N516 1.347 . S
C513 H518 0.931 1_565 S
C514 N515 1.375 . S
C514 C517 1.350 . S
C514 H519 0.930 . S
N515 Co510 2.057 . S
N515 C513 1.316 . S
N515 C514 1.375 . S
N516 C513 1.347 . S
N516 C517 1.373 . S
C517 C514 1.350 . S
C517 N516 1.373 . S
C517 H538 0.931 . S
H518 C513 0.931 1_545 S
H519 C514 0.930 . S
C520 O527 1.259 . S
C520 O528 1.258 1_556 S
N521 Co512 2.057 . S
N521 C522 1.316 . S
N521 C523 1.375 . S
C522 N521 1.316 . S
C522 N524 1.347 . S
C522 H533 0.931 1_545 S
C523 N521 1.375 . S
C523 C525 1.350 . S
C523 H532 0.930 . S
N524 C522 1.347 . S
N524 C525 1.373 . S
C525 C523 1.350 . S
C525 N524 1.373 . S
C525 H539 0.931 . S
C526 O529 1.256 1_556 S
C526 O530 1.255 . S
O527 Co510 2.021 1_545 S
O527 C520 1.259 . S
O528 Co512 2.117 . S
O528 C520 1.258 1_554 S
O529 Co512 2.020 1_565 S
O529 C526 1.256 1_554 S
O530 Co510 2.062 . S
O530 C526 1.255 . S
O531 C511 1.259 . S
O531 Co512 2.021 1_565 S
H532 C523 0.930 . S
H533 C522 0.931 1_565 S
O534 Co510 2.117 . S
O534 C511 1.258 1_556 S
O535 Co510 2.020 1_545 S
O535 C537 1.256 1_556 S
O536 Co512 2.062 . S
O536 C537 1.255 . S
C537 O535 1.256 1_554 S
C537 O536 1.255 . S
H538 C517 0.931 . S
H539 C525 0.931 . S
Co540 N545 2.057 . S
Co540 O557 2.021 . S
Co540 O560 2.062 . S
Co540 O564 2.117 . S
Co540 O565 2.020 . S
C541 O561 1.259 . S
C541 O564 1.258 . S
Co542 N551 2.057 . S
Co542 O558 2.117 . S
Co542 O559 2.020 . S
Co542 O561 2.021 . S
Co542 O566 2.062 . S
C543 N545 1.316 . S
C543 N546 1.347 . S
C543 H548 0.931 . S
C544 N545 1.375 . S
C544 C547 1.350 . S
C544 H549 0.930 . S
N545 Co540 2.057 . S
N545 C543 1.316 . S
N545 C544 1.375 . S
N546 C543 1.347 . S
N546 C547 1.373 . S
C547 C544 1.350 . S
C547 N546 1.373 . S
C547 H568 0.931 . S
H548 C543 0.931 . S
H549 C544 0.930 . S
C550 O557 1.259 . S
C550 O558 1.258 . S
N551 Co542 2.057 . S
N551 C552 1.316 . S
N551 C553 1.375 . S
C552 N551 1.316 . S
C552 N554 1.347 . S
C552 H563 0.931 . S
C553 N551 1.375 . S
C553 C555 1.350 . S
C553 H562 0.930 . S
N554 C552 1.347 . S
N554 C555 1.373 . S
C555 C553 1.350 . S
C555 N554 1.373 . S
C555 H569 0.931 . S
C556 O559 1.256 . S
C556 O560 1.255 . S
O557 Co540 2.021 . S
O557 C550 1.259 . S
O558 Co542 2.117 . S
O558 C550 1.258 . S
O559 Co542 2.020 . S
O559 C556 1.256 . S
O560 Co540 2.062 . S
O560 C556 1.255 . S
O561 C541 1.259 . S
O561 Co542 2.021 . S
H562 C553 0.930 . S
H563 C552 0.931 . S
O564 Co540 2.117 . S
O564 C541 1.258 . S
O565 Co540 2.020 . S
O565 C567 1.256 . S
O566 Co542 2.062 . S
O566 C567 1.255 . S
C567 O565 1.256 . S
C567 O566 1.255 . S
H568 C547 0.931 . S
H569 C555 0.931 . S
Co570 N575 2.057 . S
Co570 O587 2.021 . S
Co570 O590 2.062 . S
Co570 O594 2.117 1_455 S
Co570 O595 2.020 1_455 S
C571 O591 1.259 1_556 S
C571 O594 1.258 . S
Co572 N581 2.057 . S
Co572 O588 2.117 1_655 S
Co572 O589 2.020 1_655 S
Co572 O591 2.021 . S
Co572 O596 2.062 . S
C573 N575 1.316 . S
C573 N576 1.347 . S
C573 H578 0.931 . S
C574 N575 1.375 1_655 S
C574 C577 1.350 1_655 S
C574 H579 0.930 . S
N575 Co570 2.057 . S
N575 C573 1.316 . S
N575 C574 1.375 1_455 S
N576 C573 1.347 . S
N576 C577 1.373 . S
C577 C574 1.350 1_455 S
C577 N576 1.373 . S
C577 H598 0.931 1_455 S
H578 C573 0.931 . S
H579 C574 0.930 . S
C580 O587 1.259 1_554 S
C580 O588 1.258 . S
N581 Co572 2.057 . S
N581 C582 1.316 . S
N581 C583 1.375 1_655 S
C582 N581 1.316 . S
C582 N584 1.347 . S
C582 H593 0.931 . S
C583 N581 1.375 1_455 S
C583 C585 1.350 1_455 S
C583 H592 0.930 . S
N584 C582 1.347 . S
N584 C585 1.373 . S
C585 C583 1.350 1_655 S
C585 N584 1.373 . S
C585 H599 0.931 1_655 S
C586 O589 1.256 . S
C586 O590 1.255 1_554 S
O587 Co570 2.021 . S
O587 C580 1.259 1_556 S
O588 Co572 2.117 1_455 S
O588 C580 1.258 . S
O589 Co572 2.020 1_455 S
O589 C586 1.256 . S
O590 Co570 2.062 . S
O590 C586 1.255 1_556 S
O591 C571 1.259 1_554 S
O591 Co572 2.021 . S
H592 C583 0.930 . S
H593 C582 0.931 . S
O594 Co570 2.117 1_655 S
O594 C571 1.258 . S
O595 Co570 2.020 1_655 S
O595 C597 1.256 . S
O596 Co572 2.062 . S
O596 C597 1.255 1_554 S
C597 O595 1.256 . S
C597 O596 1.255 1_556 S
H598 C577 0.931 1_655 S
H599 C585 0.931 1_455 S
C600 C601 1.369 . S
C600 C602 1.419 . S
C600 H604 0.930 . S
C601 C600 1.369 . S
C601 C610 1.429 . S
C602 C600 1.419 . S
C602 C603 1.363 . S
C602 H605 0.929 1_455 S
C603 C602 1.363 . S
C603 C609 1.428 . S
H604 C600 0.930 . S
H605 C602 0.929 1_655 S
S606 N607 1.613 1_565 S
S606 N608 1.610 1_565 S
N607 S606 1.613 1_545 S
N607 C610 1.350 . S
N608 S606 1.610 1_545 S
N608 C609 1.351 . S
C609 C603 1.428 . S
C609 N608 1.351 . S
C609 C610 1.434 . S
C610 C601 1.429 . S
C610 N607 1.350 . S
C610 C609 1.434 . S
C611 C612 1.369 . S
C611 C613 1.419 . S
C611 H615 0.930 . S
C612 C611 1.369 . S
C612 C621 1.429 . S
C613 C611 1.419 . S
C613 C614 1.363 . S
C613 H616 0.902 1_565 S
C614 C613 1.363 . S
C614 C620 1.428 . S
H615 C611 0.930 . S
H616 C613 0.902 1_545 S
S617 N618 1.613 . S
S617 N619 1.610 . S
N618 S617 1.613 . S
N618 C621 1.350 . S
N619 S617 1.610 . S
N619 C620 1.351 . S
C620 C614 1.428 . S
C620 N619 1.351 . S
C620 C621 1.434 . S
C621 C612 1.429 . S
C621 N618 1.350 . S
C621 C620 1.434 . S
C622 C623 1.369 . S
C622 C624 1.419 . S
C622 H626 0.930 . S
C623 C622 1.369 . S
C623 C632 1.429 . S
C624 C622 1.419 . S
C624 C625 1.363 . S
C624 H627 0.929 . S
C625 C624 1.363 . S
C625 C631 1.428 . S
H626 C622 0.930 . S
H627 C624 0.929 . S
S628 N629 1.613 . S
S628 N630 1.610 . S
N629 S628 1.613 . S
N629 C632 1.350 . S
N630 S628 1.610 . S
N630 C631 1.351 . S
C631 C625 1.428 . S
C631 N630 1.351 . S
C631 C632 1.434 . S
C632 C623 1.429 . S
C632 N629 1.350 . S
C632 C631 1.434 . S
C633 C634 1.369 . S
C633 C635 1.419 . S
C633 H637 0.930 . S
C634 C633 1.369 . S
C634 C643 1.429 . S
C635 C633 1.419 . S
C635 C636 1.363 . S
C635 H638 0.929 . S
C636 C635 1.363 . S
C636 C642 1.428 . S
H637 C633 0.930 . S
H638 C635 0.929 . S
S639 N640 1.613 . S
S639 N641 1.610 1_455 S
N640 S639 1.613 . S
N640 C643 1.350 1_455 S
N641 S639 1.610 1_655 S
N641 C642 1.351 . S
C642 C636 1.428 . S
C642 N641 1.351 . S
C642 C643 1.434 . S
C643 C634 1.429 . S
C643 N640 1.350 1_655 S
C643 C642 1.434 . S
C644 C645 1.369 . S
C644 C646 1.419 . S
C644 H648 0.930 1_545 S
C645 C644 1.369 . S
C645 C654 1.429 . S
C646 C644 1.419 . S
C646 C647 1.363 . S
C646 H649 0.929 1_545 S
C647 C646 1.363 . S
C647 C653 1.428 . S
H648 C644 0.930 1_565 S
H649 C646 0.929 1_565 S
S650 N651 1.613 . S
S650 N652 1.610 . S
N651 S650 1.613 . S
N651 C654 1.350 . S
N652 S650 1.610 . S
N652 C653 1.351 . S
C653 C647 1.428 . S
C653 N652 1.351 . S
C653 C654 1.434 . S
C654 C645 1.429 . S
C654 N651 1.350 . S
C654 C653 1.434 . S
C655 C656 1.369 . S
C655 C657 1.419 . S
C655 H659 0.930 . S
C656 C655 1.369 . S
C656 C665 1.429 . S
C657 C655 1.419 . S
C657 C658 1.363 . S
C657 H660 0.929 . S
C658 C657 1.363 . S
C658 C664 1.428 . S
H659 C655 0.930 . S
H660 C657 0.929 . S
S661 N662 1.613 . S
S661 N663 1.610 . S
N662 S661 1.613 . S
N662 C665 1.350 . S
N663 S661 1.610 . S
N663 C664 1.351 . S
C664 C658 1.428 . S
C664 N663 1.351 . S
C664 C665 1.434 . S
C665 C656 1.429 . S
C665 N662 1.350 . S
C665 C664 1.434 . S
C666 C667 1.369 . S
C666 C668 1.419 . S
C666 H670 0.930 . S
C667 C666 1.369 . S
C667 C676 1.429 . S
C668 C666 1.419 . S
C668 C669 1.363 . S
C668 H671 0.929 . S
C669 C668 1.363 . S
C669 C675 1.428 . S
H670 C666 0.930 . S
H671 C668 0.929 . S
S672 N673 1.613 . S
S672 N674 1.610 . S
N673 S672 1.613 . S
N673 C676 1.350 1_554 S
N674 S672 1.610 . S
N674 C675 1.351 1_554 S
C675 C669 1.428 . S
C675 N674 1.351 1_556 S
C675 C676 1.434 . S
C676 C667 1.429 . S
C676 N673 1.350 1_556 S
C676 C675 1.434 . S
C677 C678 1.369 . S
C677 C679 1.419 . S
C677 H681 0.930 . S
C678 C677 1.369 . S
C678 C687 1.429 . S
C679 C677 1.419 . S
C679 C680 1.363 . S
C679 H682 0.929 . S
C680 C679 1.363 . S
C680 C686 1.428 . S
H681 C677 0.930 . S
H682 C679 0.929 . S
S683 N684 1.613 . S
S683 N685 1.610 . S
N684 S683 1.613 . S
N684 C687 1.350 . S
N685 S683 1.610 . S
N685 C686 1.351 . S
C686 C680 1.428 . S
C686 N685 1.351 . S
C686 C687 1.434 . S
C687 C678 1.429 . S
C687 N684 1.350 . S
C687 C686 1.434 . S
C688 C689 1.369 . S
C688 C690 1.419 . S
C688 H692 0.930 . S
C689 C688 1.369 . S
C689 C698 1.429 . S
C690 C688 1.419 . S
C690 C691 1.363 . S
C690 H693 0.929 . S
C691 C690 1.363 . S
C691 C697 1.428 . S
H692 C688 0.930 . S
H693 C690 0.929 . S
S694 N695 1.613 . S
S694 N696 1.610 . S
N695 S694 1.613 . S
N695 C698 1.350 1_655 S
N696 S694 1.610 . S
N696 C697 1.351 1_655 S
C697 C691 1.428 . S
C697 N696 1.351 1_455 S
C697 C698 1.434 . S
C698 C689 1.429 . S
C698 N695 1.350 1_455 S
C698 C697 1.434 . S
C699 C700 1.369 . S
C699 C701 1.419 . S
C699 H703 0.930 . S
C700 C699 1.369 . S
C700 C709 1.429 . S
C701 C699 1.419 . S
C701 C702 1.363 . S
C701 H704 0.929 1_556 S
C702 C701 1.363 . S
C702 C708 1.428 . S
H703 C699 0.930 . S
H704 C701 0.929 1_554 S
S705 N706 1.613 . S
S705 N707 1.610 . S
N706 S705 1.613 . S
N706 C709 1.350 . S
N707 S705 1.610 . S
N707 C708 1.351 . S
C708 C702 1.428 . S
C708 N707 1.351 . S
C708 C709 1.434 . S
C709 C700 1.429 . S
C709 N706 1.350 . S
C709 C708 1.434 . S
C710 C711 1.369 . S
C710 C712 1.419 . S
C710 H714 0.930 1_655 S
C711 C710 1.369 . S
C711 C720 1.429 . S
C712 C710 1.419 . S
C712 C713 1.363 . S
C712 H715 0.929 1_655 S
C713 C712 1.363 . S
C713 C719 1.428 . S
H714 C710 0.930 1_455 S
H715 C712 0.929 1_455 S
S716 N717 1.613 . S
S716 N718 1.610 . S
N717 S716 1.613 . S
N717 C720 1.350 . S
N718 S716 1.610 . S
N718 C719 1.351 . S
C719 C713 1.428 . S
C719 N718 1.351 . S
C719 C720 1.434 . S
C720 C711 1.429 . S
C720 N717 1.350 . S
C720 C719 1.434 . S
C721 C722 1.369 . S
C721 C723 1.419 . S
C721 H725 0.930 . S
C722 C721 1.369 . S
C722 C731 1.429 . S
C723 C721 1.419 . S
C723 C724 1.363 . S
C723 H726 0.929 . S
C724 C723 1.363 . S
C724 C730 1.428 . S
H725 C721 0.930 . S
H726 C723 0.929 . S
S727 N728 1.613 . S
S727 N729 1.610 . S
N728 S727 1.613 . S
N728 C731 1.350 . S
N729 S727 1.610 . S
N729 C730 1.351 . S
C730 C724 1.428 . S
C730 N729 1.351 . S
C730 C731 1.434 . S
C731 C722 1.429 . S
C731 N728 1.350 . S
C731 C730 1.434 . S
C732 C733 1.369 . S
C732 C734 1.419 . S
C732 H736 0.930 1_565 S
C733 C732 1.369 . S
C733 C742 1.429 . S
C734 C732 1.419 . S
C734 C735 1.363 . S
C734 H737 0.929 1_565 S
C735 C734 1.363 . S
C735 C741 1.428 . S
H736 C732 0.930 1_545 S
H737 C734 0.929 1_545 S
S738 N739 1.613 . S
S738 N740 1.610 . S
N739 S738 1.613 . S
N739 C742 1.350 . S
N740 S738 1.610 . S
N740 C741 1.351 . S
C741 C735 1.428 . S
C741 N740 1.351 . S
C741 C742 1.434 . S
C742 C733 1.429 . S
C742 N739 1.350 . S
C742 C741 1.434 . S
C743 C744 1.369 . S
C743 C745 1.419 . S
C743 H747 0.930 . S
C744 C743 1.369 . S
C744 C753 1.429 . S
C745 C743 1.419 . S
C745 C746 1.363 . S
C745 H748 0.929 . S
C746 C745 1.363 . S
C746 C752 1.428 . S
H747 C743 0.930 . S
H748 C745 0.929 . S
S749 N750 1.613 1_565 S
S749 N751 1.610 . S
N750 S749 1.613 1_545 S
N750 C753 1.350 . S
N751 S749 1.610 . S
N751 C752 1.351 1_565 S
C752 C746 1.428 . S
C752 N751 1.351 1_545 S
C752 C753 1.434 . S
C753 C744 1.429 . S
C753 N750 1.350 . S
C753 C752 1.434 . S
C754 C755 1.369 . S
C754 C756 1.419 . S
C754 H758 0.930 . S
C755 C754 1.369 . S
C755 C764 1.429 . S
C756 C754 1.419 . S
C756 C757 1.363 . S
C756 H759 0.929 . S
C757 C756 1.363 . S
C757 C763 1.428 . S
H758 C754 0.930 . S
H759 C756 0.929 . S
S760 N761 1.613 . S
S760 N762 1.610 . S
N761 S760 1.613 . S
N761 C764 1.350 . S
N762 S760 1.610 . S
N762 C763 1.351 . S
C763 C757 1.428 . S
C763 N762 1.351 . S
C763 C764 1.434 . S
C764 C755 1.429 . S
C764 N761 1.350 . S
C764 C763 1.434 . S
C765 C766 1.369 . S
C765 C767 1.419 . S
C765 H769 0.930 . S
C766 C765 1.369 . S
C766 C775 1.429 . S
C767 C765 1.419 . S
C767 C768 1.363 . S
C767 H770 0.929 . S
C768 C767 1.363 . S
C768 C774 1.428 . S
H769 C765 0.930 . S
H770 C767 0.929 . S
S771 N772 1.613 . S
S771 N773 1.610 . S
N772 S771 1.613 . S
N772 C775 1.350 . S
N773 S771 1.610 . S
N773 C774 1.351 . S
C774 C768 1.428 . S
C774 N773 1.351 . S
C774 C775 1.434 . S
C775 C766 1.429 . S
C775 N772 1.350 . S
C775 C774 1.434 . S
C776 C777 1.369 . S
C776 C778 1.419 . S
C776 H780 0.915 1_565 S
C777 C776 1.369 . S
C777 C786 1.429 . S
C778 C776 1.419 . S
C778 C779 1.363 . S
C778 H781 0.929 1_565 S
C779 C778 1.363 . S
C779 C785 1.428 . S
H780 C776 0.915 1_545 S
H781 C778 0.929 1_545 S
S782 N783 1.613 1_554 S
S782 N784 1.610 . S
N783 S782 1.613 1_556 S
N783 C786 1.350 . S
N784 S782 1.610 . S
N784 C785 1.351 1_554 S
C785 C779 1.428 . S
C785 N784 1.351 1_556 S
C785 C786 1.434 . S
C786 C777 1.429 . S
C786 N783 1.350 . S
C786 C785 1.434 . S
C787 C788 1.369 . S
C787 C789 1.419 . S
C787 H791 0.930 . S
C788 C787 1.369 . S
C788 C797 1.429 . S
C789 C787 1.419 . S
C789 C790 1.363 . S
C789 H792 0.929 . S
C790 C789 1.363 . S
C790 C796 1.428 . S
H791 C787 0.930 . S
H792 C789 0.929 . S
S793 N794 1.613 . S
S793 N795 1.610 . S
N794 S793 1.613 . S
N794 C797 1.350 . S
N795 S793 1.610 . S
N795 C796 1.351 . S
C796 C790 1.428 . S
C796 N795 1.351 . S
C796 C797 1.434 . S
C797 C788 1.429 . S
C797 N794 1.350 . S
C797 C796 1.434 . S
C798 C799 1.369 . S
C798 C800 1.419 . S
C798 H802 0.930 . S
C799 C798 1.369 . S
C799 C808 1.429 . S
C800 C798 1.419 . S
C800 C801 1.363 . S
C800 H803 0.929 1_554 S
C801 C800 1.363 . S
C801 C807 1.428 . S
H802 C798 0.930 . S
H803 C800 0.929 1_556 S
S804 N805 1.613 . S
S804 N806 1.610 . S
N805 S804 1.613 . S
N805 C808 1.350 . S
N806 S804 1.610 . S
N806 C807 1.351 . S
C807 C801 1.428 . S
C807 N806 1.351 . S
C807 C808 1.434 . S
C808 C799 1.429 . S
C808 N805 1.350 . S
C808 C807 1.434 . S
C809 C810 1.369 . S
C809 C811 1.419 . S
C809 H813 0.930 . S
C810 C809 1.369 . S
C810 C819 1.429 . S
C811 C809 1.419 . S
C811 C812 1.363 . S
C811 H814 0.929 . S
C812 C811 1.363 . S
C812 C818 1.428 . S
H813 C809 0.930 . S
H814 C811 0.929 . S
S815 N816 1.613 . S
S815 N817 1.610 . S
N816 S815 1.613 . S
N816 C819 1.350 . S
N817 S815 1.610 . S
N817 C818 1.351 . S
C818 C812 1.428 . S
C818 N817 1.351 . S
C818 C819 1.434 . S
C819 C810 1.429 . S
C819 N816 1.350 . S
C819 C818 1.434 . S
C820 C821 1.369 . S
C820 C822 1.419 . S
C820 H824 0.930 . S
C821 C820 1.369 . S
C821 C830 1.429 . S
C822 C820 1.419 . S
C822 C823 1.363 . S
C822 H825 0.929 . S
C823 C822 1.363 . S
C823 C829 1.428 . S
H824 C820 0.930 . S
H825 C822 0.929 . S
S826 N827 1.613 . S
S826 N828 1.610 . S
N827 S826 1.613 . S
N827 C830 1.350 1_455 S
N828 S826 1.610 . S
N828 C829 1.351 1_455 S
C829 C823 1.428 . S
C829 N828 1.351 1_655 S
C829 C830 1.434 . S
C830 C821 1.429 . S
C830 N827 1.350 1_655 S
C830 C829 1.434 . S
C831 C832 1.369 . S
C831 C833 1.419 . S
C831 H835 0.930 . S
C832 C831 1.369 . S
C832 C841 1.429 . S
C833 C831 1.419 . S
C833 C834 1.363 . S
C833 H836 0.929 . S
C834 C833 1.363 . S
C834 C840 1.428 . S
H835 C831 0.930 . S
H836 C833 0.929 . S
S837 N838 1.613 . S
S837 N839 1.610 . S
N838 S837 1.613 . S
N838 C841 1.350 1_556 S
N839 S837 1.610 . S
N839 C840 1.351 1_556 S
C840 C834 1.428 . S
C840 N839 1.351 1_554 S
C840 C841 1.434 . S
C841 C832 1.429 . S
C841 N838 1.350 1_554 S
C841 C840 1.434 . S
C842 C843 1.369 . S
C842 C844 1.419 . S
C842 H846 0.930 . S
C843 C842 1.369 . S
C843 C852 1.429 . S
C844 C842 1.419 . S
C844 C845 1.363 . S
C844 H847 0.929 . S
C845 C844 1.363 . S
C845 C851 1.428 . S
H846 C842 0.930 . S
H847 C844 0.929 . S
S848 N849 1.613 . S
S848 N850 1.608 1_655 S
N849 S848 1.613 . S
N849 C852 1.350 1_655 S
N850 S848 1.608 1_455 S
N850 C851 1.354 . S
C851 C845 1.428 . S
C851 N850 1.354 . S
C851 C852 1.434 . S
C852 C843 1.429 . S
C852 N849 1.350 1_455 S
C852 C851 1.434 . S
C853 C854 1.369 . S
C853 C855 1.419 . S
C853 H857 0.930 . S
C854 C853 1.369 . S
C854 C863 1.429 . S
C855 C853 1.419 . S
C855 C856 1.363 . S
C855 H858 0.929 . S
C856 C855 1.363 . S
C856 C862 1.428 . S
H857 C853 0.930 . S
H858 C855 0.929 . S
S859 N860 1.613 . S
S859 N861 1.610 . S
N860 S859 1.613 . S
N860 C863 1.350 . S
N861 S859 1.610 . S
N861 C862 1.351 . S
C862 C856 1.428 . S
C862 N861 1.351 . S
C862 C863 1.434 . S
C863 C854 1.429 . S
C863 N860 1.350 . S
C863 C862 1.434 . S
C601 C1 2.134 . S
C603 C496 2.175 . S
C612 C80 1.163 . S
C614 N516 1.187 . S
C625 C550 2.037 . S
C623 C140 1.967 . S
C634 C211 1.386 . S
C636 N584 1.319 . S
C647 C537 2.325 . S
C645 C31 2.311 . S
C658 N494 1.211 . S
C656 C61 1.200 . S
C669 C571 2.055 . S
C667 C151 1.960 . S
C680 N546 1.153 . S
C678 C200 1.066 . S
C689 C20 1.846 . S
C691 C586 1.856 . S
C702 C520 1.766 . S
C700 C121 1.667 . S
C711 C181 1.429 . S
C713 C481 1.546 . S
C722 C91 1.416 . S
C724 C567 1.497 . S
C735 C507 2.176 . S
C733 C260 2.171 . S
C744 C320 1.173 . S
C746 N524 1.193 . S
C755 C361 2.035 . S
C757 C541 2.037 . S
C766 C451 1.386 . S
C768 N576 1.320 . S
C777 C271 2.302 . S
C779 C526 2.325 . S
C790 N486 1.215 . S
C788 C301 1.200 . S
C801 C580 2.055 . S
C799 C380 2.019 . S
C812 N554 1.153 . S
C810 C440 1.068 . S
C821 C241 1.812 . S
C823 C597 1.857 . S
C834 C511 1.765 . S
C832 C391 1.737 . S
C845 C490 1.540 . S
C843 C421 1.439 . S
C854 C331 1.410 . S
C856 C556 1.500 . S
