# Generated by pormake.
# Topology ctn, (3,4)-cn, num edge types: 1
# Building blocks:
#     Node 0, Type 0, BuildingBlock: BELTOD_clean_linker_0, # of connection points: 3
#     Node 1, Type 0, BuildingBlock: BELTOD_clean_linker_0, # of connection points: 3
#     Node 2, Type 0, BuildingBlock: BELTOD_clean_linker_0, # of connection points: 3
#     Node 3, Type 0, BuildingBlock: BELTOD_clean_linker_0, # of connection points: 3
#     Node 4, Type 0, BuildingBlock: BELTOD_clean_linker_0, # of connection points: 3
#     Node 5, Type 0, BuildingBlock: BELTOD_clean_linker_0, # of connection points: 3
#     Node 6, Type 0, BuildingBlock: BELTOD_clean_linker_0, # of connection points: 3
#     Node 7, Type 0, BuildingBlock: BELTOD_clean_linker_0, # of connection points: 3
#     Node 8, Type 0, BuildingBlock: BELTOD_clean_linker_0, # of connection points: 3
#     Node 9, Type 0, BuildingBlock: BELTOD_clean_linker_0, # of connection points: 3
#     Node 10, Type 0, BuildingBlock: BELTOD_clean_linker_0, # of connection points: 3
#     Node 11, Type 0, BuildingBlock: BELTOD_clean_linker_0, # of connection points: 3
#     Node 12, Type 0, BuildingBlock: BELTOD_clean_linker_0, # of connection points: 3
#     Node 13, Type 0, BuildingBlock: BELTOD_clean_linker_0, # of connection points: 3
#     Node 14, Type 0, BuildingBlock: BELTOD_clean_linker_0, # of connection points: 3
#     Node 15, Type 0, BuildingBlock: BELTOD_clean_linker_0, # of connection points: 3
#     Node 16, Type 1, BuildingBlock: AZAVOO_clean_sbu_0, # of connection points: 4
#     Node 17, Type 1, BuildingBlock: AZAVOO_clean_sbu_0, # of connection points: 4
#     Node 18, Type 1, BuildingBlock: AZAVOO_clean_sbu_0, # of connection points: 4
#     Node 19, Type 1, BuildingBlock: AZAVOO_clean_sbu_0, # of connection points: 4
#     Node 20, Type 1, BuildingBlock: AZAVOO_clean_sbu_0, # of connection points: 4
#     Node 21, Type 1, BuildingBlock: AZAVOO_clean_sbu_0, # of connection points: 4
#     Node 22, Type 1, BuildingBlock: AZAVOO_clean_sbu_0, # of connection points: 4
#     Node 23, Type 1, BuildingBlock: AZAVOO_clean_sbu_0, # of connection points: 4
#     Node 24, Type 1, BuildingBlock: AZAVOO_clean_sbu_0, # of connection points: 4
#     Node 25, Type 1, BuildingBlock: AZAVOO_clean_sbu_0, # of connection points: 4
#     Node 26, Type 1, BuildingBlock: AZAVOO_clean_sbu_0, # of connection points: 4
#     Node 27, Type 1, BuildingBlock: AZAVOO_clean_sbu_0, # of connection points: 4
#     Edge 28, Type (0, 1), BuildingBlock: TEMPAE_clean_linker_10, # of connection points: 2
#     Edge 29, Type (0, 1), BuildingBlock: TEMPAE_clean_linker_10, # of connection points: 2
#     Edge 30, Type (0, 1), BuildingBlock: TEMPAE_clean_linker_10, # of connection points: 2
#     Edge 31, Type (0, 1), BuildingBlock: TEMPAE_clean_linker_10, # of connection points: 2
#     Edge 32, Type (0, 1), BuildingBlock: TEMPAE_clean_linker_10, # of connection points: 2
#     Edge 33, Type (0, 1), BuildingBlock: TEMPAE_clean_linker_10, # of connection points: 2
#     Edge 34, Type (0, 1), BuildingBlock: TEMPAE_clean_linker_10, # of connection points: 2
#     Edge 35, Type (0, 1), BuildingBlock: TEMPAE_clean_linker_10, # of connection points: 2
#     Edge 36, Type (0, 1), BuildingBlock: TEMPAE_clean_linker_10, # of connection points: 2
#     Edge 37, Type (0, 1), BuildingBlock: TEMPAE_clean_linker_10, # of connection points: 2
#     Edge 38, Type (0, 1), BuildingBlock: TEMPAE_clean_linker_10, # of connection points: 2
#     Edge 39, Type (0, 1), BuildingBlock: TEMPAE_clean_linker_10, # of connection points: 2
#     Edge 40, Type (0, 1), BuildingBlock: TEMPAE_clean_linker_10, # of connection points: 2
#     Edge 41, Type (0, 1), BuildingBlock: TEMPAE_clean_linker_10, # of connection points: 2
#     Edge 42, Type (0, 1), BuildingBlock: TEMPAE_clean_linker_10, # of connection points: 2
#     Edge 43, Type (0, 1), BuildingBlock: TEMPAE_clean_linker_10, # of connection points: 2
#     Edge 44, Type (0, 1), BuildingBlock: TEMPAE_clean_linker_10, # of connection points: 2
#     Edge 45, Type (0, 1), BuildingBlock: TEMPAE_clean_linker_10, # of connection points: 2
#     Edge 46, Type (0, 1), BuildingBlock: TEMPAE_clean_linker_10, # of connection points: 2
#     Edge 47, Type (0, 1), BuildingBlock: TEMPAE_clean_linker_10, # of connection points: 2
#     Edge 48, Type (0, 1), BuildingBlock: TEMPAE_clean_linker_10, # of connection points: 2
#     Edge 49, Type (0, 1), BuildingBlock: TEMPAE_clean_linker_10, # of connection points: 2
#     Edge 50, Type (0, 1), BuildingBlock: TEMPAE_clean_linker_10, # of connection points: 2
#     Edge 51, Type (0, 1), BuildingBlock: TEMPAE_clean_linker_10, # of connection points: 2
#     Edge 52, Type (0, 1), BuildingBlock: TEMPAE_clean_linker_10, # of connection points: 2
#     Edge 53, Type (0, 1), BuildingBlock: TEMPAE_clean_linker_10, # of connection points: 2
#     Edge 54, Type (0, 1), BuildingBlock: TEMPAE_clean_linker_10, # of connection points: 2
#     Edge 55, Type (0, 1), BuildingBlock: TEMPAE_clean_linker_10, # of connection points: 2
#     Edge 56, Type (0, 1), BuildingBlock: TEMPAE_clean_linker_10, # of connection points: 2
#     Edge 57, Type (0, 1), BuildingBlock: TEMPAE_clean_linker_10, # of connection points: 2
#     Edge 58, Type (0, 1), BuildingBlock: TEMPAE_clean_linker_10, # of connection points: 2
#     Edge 59, Type (0, 1), BuildingBlock: TEMPAE_clean_linker_10, # of connection points: 2
#     Edge 60, Type (0, 1), BuildingBlock: TEMPAE_clean_linker_10, # of connection points: 2
#     Edge 61, Type (0, 1), BuildingBlock: TEMPAE_clean_linker_10, # of connection points: 2
#     Edge 62, Type (0, 1), BuildingBlock: TEMPAE_clean_linker_10, # of connection points: 2
#     Edge 63, Type (0, 1), BuildingBlock: TEMPAE_clean_linker_10, # of connection points: 2
#     Edge 64, Type (0, 1), BuildingBlock: TEMPAE_clean_linker_10, # of connection points: 2
#     Edge 65, Type (0, 1), BuildingBlock: TEMPAE_clean_linker_10, # of connection points: 2
#     Edge 66, Type (0, 1), BuildingBlock: TEMPAE_clean_linker_10, # of connection points: 2
#     Edge 67, Type (0, 1), BuildingBlock: TEMPAE_clean_linker_10, # of connection points: 2
#     Edge 68, Type (0, 1), BuildingBlock: TEMPAE_clean_linker_10, # of connection points: 2
#     Edge 69, Type (0, 1), BuildingBlock: TEMPAE_clean_linker_10, # of connection points: 2
#     Edge 70, Type (0, 1), BuildingBlock: TEMPAE_clean_linker_10, # of connection points: 2
#     Edge 71, Type (0, 1), BuildingBlock: TEMPAE_clean_linker_10, # of connection points: 2
#     Edge 72, Type (0, 1), BuildingBlock: TEMPAE_clean_linker_10, # of connection points: 2
#     Edge 73, Type (0, 1), BuildingBlock: TEMPAE_clean_linker_10, # of connection points: 2
#     Edge 74, Type (0, 1), BuildingBlock: TEMPAE_clean_linker_10, # of connection points: 2
#     Edge 75, Type (0, 1), BuildingBlock: TEMPAE_clean_linker_10, # of connection points: 2
# Relax obj value: 0.002
# Max RMSD: 0.043
# Mean RMSD: 0.025
data_MOF--net-ctn--node1-AZAVOO_clean_sbu_0--node2-BELTOD_clean_linker_0--edge1-TEMPAE_clean_linker_10
_symmetry_space_group_name_H-M    P1
_symmetry_Int_Tables_number       1
_symmetry_cell_setting            triclinic
loop_
_symmetry_equiv_pos_as_xyz
'x, y, z'
_cell_length_a     61.968718
_cell_length_b     63.386463
_cell_length_c     62.802544
_cell_angle_alpha  89.440797
_cell_angle_beta   92.858934
_cell_angle_gamma 93.803846
loop_
_atom_site_label
_atom_site_type_symbol
_atom_site_fract_x
_atom_site_fract_y
_atom_site_fract_z
_atom_type_partial_charge
P0 P 0.08422 0.05279 0.06248 0.0
H1 H 0.08164 0.03924 0.10676 0.0
H2 H 0.05107 0.03035 0.12904 0.0
H3 H 0.00682 0.03646 0.0743 0.0
H4 H 0.03757 0.04526 0.052 0.0
H5 H 0.1286 0.04633 0.05259 0.0
H6 H 0.14564 0.0169 0.0369 0.0
H7 H 0.08295 0.98347 0.02709 0.0
H8 H 0.06592 0.01308 0.04292 0.0
H9 H 0.0789 0.09742 0.06774 0.0
H10 H 0.06944 0.0518 0.01709 0.0
O11 O 0.10316 0.06423 0.07922 0.0
H12 H 0.06685 0.12506 0.04349 0.0
H13 H 0.05748 0.07954 0.99255 0.0
C14 C 0.06181 0.04339 0.07788 0.0
C15 C 0.06538 0.03851 0.0995 0.0
C16 C 0.04791 0.03348 0.11222 0.0
C17 C 0.02657 0.03305 0.10346 0.0
C18 C 0.0231 0.03669 0.08147 0.0
C19 C 0.04064 0.04184 0.06876 0.0
C20 C 0.09609 0.03162 0.04937 0.0
C21 C 0.11849 0.03269 0.04705 0.0
C22 C 0.12822 0.01589 0.03808 0.0
C23 C 0.11564 0.99783 0.031 0.0
C24 C 0.09302 0.99723 0.0324 0.0
C25 C 0.0833 0.01404 0.04156 0.0
C26 C 0.0756 0.07274 0.04405 0.0
C27 C 0.07443 0.09342 0.05131 0.0
C28 C 0.06755 0.10919 0.03744 0.0
C29 C 0.06148 0.10451 0.01606 0.0
C30 C 0.06206 0.08359 0.00895 0.0
C31 C 0.06906 0.06778 0.02289 0.0
P32 P 0.34095 0.69915 0.20434 0.0
H33 H 0.35656 0.72046 0.16612 0.0
H34 H 0.34087 0.74627 0.14196 0.0
H35 H 0.28863 0.75183 0.18428 0.0
H36 H 0.30412 0.72539 0.20805 0.0
H37 H 0.38007 0.68389 0.22495 0.0
H38 H 0.40194 0.69477 0.2567 0.0
H39 H 0.35857 0.74389 0.26749 0.0
H40 H 0.3373 0.73342 0.23499 0.0
H41 H 0.3151 0.66628 0.18109 0.0
H42 H 0.3157 0.69529 0.24296 0.0
O43 O 0.35615 0.68523 0.18917 0.0
H44 H 0.28386 0.64299 0.19009 0.0
H45 H 0.28412 0.67242 0.25192 0.0
C46 C 0.33128 0.72074 0.18864 0.0
C47 C 0.34185 0.72739 0.17031 0.0
C48 C 0.33293 0.74231 0.15658 0.0
C49 C 0.31335 0.751 0.16107 0.0
C50 C 0.30349 0.74515 0.18015 0.0
C51 C 0.31239 0.73013 0.19381 0.0
C52 C 0.35725 0.70804 0.22744 0.0
C53 C 0.37539 0.69716 0.23399 0.0
C54 C 0.38776 0.70327 0.25234 0.0
C55 C 0.382 0.72016 0.26479 0.0
C56 C 0.36369 0.73101 0.25815 0.0
C57 C 0.35145 0.72501 0.23961 0.0
C58 C 0.31806 0.68211 0.21154 0.0
C59 C 0.30852 0.6676 0.19664 0.0
C60 C 0.29048 0.65449 0.20172 0.0
C61 C 0.2815 0.65581 0.22175 0.0
C62 C 0.29084 0.67078 0.23648 0.0
C63 C 0.30893 0.68387 0.23137 0.0
P64 P 0.99358 0.51152 0.03365 0.0
H65 H 0.99534 0.49903 0.98914 0.0
H66 H 0.99422 0.46459 0.97174 0.0
H67 H 0.98564 0.43365 0.03262 0.0
H68 H 0.9869 0.4681 0.04991 0.0
H69 H 0.97957 0.54481 0.06019 0.0
H70 H 0.94479 0.56027 0.06328 0.0
H71 H 0.91525 0.51539 0.01744 0.0
H72 H 0.95003 0.49974 0.01475 0.0
H73 H 0.03929 0.52128 0.04531 0.0
H74 H 0.98206 0.49793 0.07671 0.0
O75 O 0.00646 0.52904 0.01792 0.0
H76 H 0.06074 0.51879 0.07886 0.0
H77 H 0.00356 0.49522 0.11042 0.0
C78 C 0.99176 0.48611 0.02089 0.0
C79 C 0.99326 0.48484 0.99874 0.0
C80 C 0.99244 0.46515 0.98879 0.0
C81 C 0.99006 0.44641 0.00085 0.0
C82 C 0.9879 0.44781 0.02297 0.0
C83 C 0.9886 0.4675 0.03287 0.0
C84 C 0.96731 0.5209 0.03756 0.0
C85 C 0.96552 0.53806 0.0511 0.0
C86 C 0.94568 0.547 0.05269 0.0
C87 C 0.92727 0.5391 0.04054 0.0
C88 C 0.92906 0.52166 0.0272 0.0
C89 C 0.94896 0.51272 0.02563 0.0
C90 C 0.00904 0.51009 0.05862 0.0
C91 C 0.0313 0.51578 0.05947 0.0
C92 C 0.04353 0.51439 0.07866 0.0
C93 C 0.03377 0.50697 0.09728 0.0
C94 C 0.0115 0.50097 0.09631 0.0
C95 C 0.99921 0.50259 0.07711 0.0
P96 P 0.67427 0.84952 0.18515 0.0
H97 H 0.68593 0.89372 0.17407 0.0
H98 H 0.71753 0.91754 0.1836 0.0
H99 H 0.74492 0.86796 0.2218 0.0
H100 H 0.71318 0.84426 0.2123 0.0
H101 H 0.65612 0.80548 0.18529 0.0
H102 H 0.66771 0.77316 0.1699 0.0
H103 H 0.72179 0.80904 0.1431 0.0
H104 H 0.71071 0.841 0.15952 0.0
H105 H 0.63538 0.8669 0.20047 0.0
H106 H 0.68027 0.82099 0.22154 0.0
O107 O 0.65863 0.86078 0.16648 0.0
H108 H 0.61416 0.85904 0.2317 0.0
H109 H 0.65878 0.81243 0.25233 0.0
C110 C 0.69729 0.86721 0.19242 0.0
C111 C 0.69872 0.88798 0.1845 0.0
C112 C 0.71682 0.90156 0.1899 0.0
C113 C 0.73373 0.89462 0.20342 0.0
C114 C 0.73206 0.87385 0.21155 0.0
C115 C 0.71398 0.86027 0.20607 0.0
C116 C 0.683 0.82552 0.1742 0.0
C117 C 0.67075 0.8063 0.17651 0.0
C118 C 0.67726 0.78783 0.16745 0.0
C119 C 0.69585 0.78836 0.15541 0.0
C120 C 0.70776 0.80784 0.15277 0.0
C121 C 0.70138 0.82621 0.16206 0.0
C122 C 0.65908 0.84417 0.20847 0.0
C123 C 0.64058 0.85502 0.21176 0.0
C124 C 0.62842 0.85045 0.22958 0.0
C125 C 0.63462 0.83494 0.24444 0.0
C126 C 0.65361 0.82459 0.24135 0.0
C127 C 0.66583 0.82933 0.22364 0.0
P128 P 0.06583 0.96081 0.45821 0.0
H129 H 0.10669 0.9593 0.48277 0.0
H130 H 0.13184 0.98699 0.49863 0.0
H131 H 0.08561 0.03343 0.4829 0.0
H132 H 0.0603 0.00573 0.46773 0.0
H133 H 0.05385 0.91728 0.44711 0.0
H134 H 0.04074 0.88654 0.46754 0.0
H135 H 0.04412 0.92439 0.5246 0.0
H136 H 0.05738 0.95529 0.5039 0.0
H137 H 0.06357 0.99482 0.42696 0.0
H138 H 0.0186 0.94979 0.45606 0.0
O139 O 0.08208 0.95205 0.44031 0.0
H140 H 0.03422 0.00724 0.40382 0.0
H141 H 0.9895 0.96101 0.43202 0.0
C142 C 0.08181 0.98049 0.4737 0.0
C143 C 0.10178 0.97537 0.48318 0.0
C144 C 0.11611 0.99116 0.49223 0.0
C145 C 0.11073 0.01234 0.49168 0.0
C146 C 0.09023 0.01724 0.48323 0.0
C147 C 0.07578 0.00139 0.4745 0.0
C148 C 0.05693 0.93841 0.47407 0.0
C149 C 0.05191 0.91895 0.46404 0.0
C150 C 0.04421 0.90145 0.4757 0.0
C151 C 0.04132 0.90307 0.49767 0.0
C152 C 0.04635 0.92265 0.50773 0.0
C153 C 0.05392 0.94028 0.49594 0.0
C154 C 0.04335 0.97144 0.4433 0.0
C155 C 0.04733 0.98771 0.42847 0.0
C156 C 0.03053 0.99462 0.41507 0.0
C157 C 0.00944 0.98495 0.41577 0.0
C158 C 0.00541 0.96904 0.43113 0.0
C159 C 0.02218 0.96243 0.44483 0.0
P160 P 0.22129 0.74098 0.73764 0.0
H161 H 0.21687 0.78374 0.75284 0.0
H162 H 0.21415 0.79831 0.78849 0.0
H163 H 0.21459 0.73527 0.8153 0.0
H164 H 0.2169 0.72085 0.77967 0.0
H165 H 0.2677 0.73655 0.73913 0.0
H166 H 0.28977 0.70621 0.74394 0.0
H167 H 0.23177 0.66481 0.7472 0.0
H168 H 0.20967 0.6954 0.74238 0.0
H169 H 0.1779 0.72655 0.75128 0.0
H170 H 0.20859 0.74218 0.69252 0.0
O171 O 0.23522 0.75955 0.72397 0.0
H172 H 0.14286 0.72078 0.73152 0.0
H173 H 0.17381 0.73634 0.67274 0.0
C174 C 0.2176 0.75129 0.76369 0.0
C175 C 0.21629 0.77307 0.76641 0.0
C176 C 0.21478 0.78138 0.78677 0.0
C177 C 0.21436 0.76797 0.80474 0.0
C178 C 0.21474 0.74602 0.80179 0.0
C179 C 0.21628 0.73776 0.78142 0.0
C180 C 0.23707 0.71815 0.7399 0.0
C181 C 0.2597 0.72092 0.74058 0.0
C182 C 0.2723 0.70356 0.74333 0.0
C183 C 0.2625 0.6831 0.74577 0.0
C184 C 0.23976 0.68039 0.74539 0.0
C185 C 0.22713 0.69782 0.74246 0.0
C186 C 0.19571 0.73524 0.72338 0.0
C187 C 0.1771 0.72871 0.73415 0.0
C188 C 0.15713 0.72531 0.72284 0.0
C189 C 0.15554 0.72843 0.70063 0.0
C190 C 0.17443 0.73427 0.6899 0.0
C191 C 0.19433 0.73753 0.70117 0.0
P192 P 0.99142 0.47345 0.48988 0.0
H193 H 0.03129 0.49584 0.47828 0.0
H194 H 0.05075 0.49838 0.44538 0.0
H195 H 0.99993 0.45865 0.4136 0.0
H196 H 0.98049 0.45614 0.44669 0.0
H197 H 0.99647 0.49015 0.53318 0.0
H198 H 0.9926 0.52522 0.54789 0.0
H199 H 0.97543 0.54848 0.48483 0.0
H200 H 0.97929 0.51332 0.47023 0.0
H201 H 0.9746 0.43387 0.50899 0.0
H202 H 0.95049 0.4821 0.46695 0.0
O203 O 0.0078 0.46054 0.50657 0.0
H204 H 0.93871 0.41558 0.50827 0.0
H205 H 0.91426 0.46391 0.46636 0.0
C206 C 0.00439 0.47599 0.46488 0.0
C207 C 0.02427 0.48778 0.4642 0.0
C208 C 0.03544 0.48909 0.44544 0.0
C209 C 0.02693 0.4786 0.42695 0.0
C210 C 0.0068 0.46701 0.42757 0.0
C211 C 0.99568 0.46558 0.44648 0.0
C212 C 0.98851 0.49927 0.50058 0.0
C213 C 0.99198 0.50282 0.52251 0.0
C214 C 0.98981 0.52287 0.53089 0.0
C215 C 0.98384 0.53963 0.5175 0.0
C216 C 0.97993 0.53585 0.49556 0.0
C217 C 0.98224 0.51582 0.48719 0.0
C218 C 0.9652 0.45936 0.48804 0.0
C219 C 0.96159 0.44053 0.49955 0.0
C220 C 0.94101 0.43014 0.49925 0.0
C221 C 0.9236 0.4384 0.48741 0.0
C222 C 0.92737 0.45711 0.47554 0.0
C223 C 0.94802 0.46755 0.47593 0.0
P224 P 0.83405 0.80095 0.80892 0.0
H225 H 0.85889 0.82517 0.7781 0.0
H226 H 0.87823 0.81509 0.74713 0.0
H227 H 0.85414 0.75015 0.75552 0.0
H228 H 0.83464 0.7604 0.78634 0.0
H229 H 0.81879 0.83778 0.82925 0.0
H230 H 0.78717 0.85798 0.82293 0.0
H231 H 0.7642 0.81531 0.77211 0.0
H232 H 0.79689 0.79582 0.77789 0.0
H233 H 0.8595 0.78019 0.84224 0.0
H234 H 0.79525 0.77194 0.81255 0.0
O235 O 0.8527 0.81682 0.82199 0.0
H236 H 0.85033 0.75216 0.86791 0.0
H237 H 0.78588 0.74412 0.83833 0.0
C238 C 0.84565 0.79349 0.78466 0.0
C239 C 0.85762 0.8088 0.77313 0.0
C240 C 0.86876 0.80301 0.75553 0.0
C241 C 0.86795 0.78179 0.74906 0.0
C242 C 0.85504 0.76664 0.76008 0.0
C243 C 0.84396 0.77246 0.77777 0.0
C244 C 0.81038 0.81556 0.80379 0.0
C245 C 0.80706 0.83284 0.81663 0.0
C246 C 0.78868 0.8442 0.81319 0.0
C247 C 0.77286 0.83824 0.7971 0.0
C248 C 0.77609 0.82056 0.78448 0.0
C249 C 0.79474 0.80936 0.78777 0.0
C250 C 0.82786 0.77856 0.82591 0.0
C251 C 0.84345 0.77228 0.84118 0.0
C252 C 0.8382 0.75627 0.85582 0.0
C253 C 0.8173 0.74613 0.8553 0.0
C254 C 0.80214 0.75158 0.8391 0.0
C255 C 0.80741 0.76766 0.82448 0.0
P256 P 0.33607 0.30475 0.31552 0.0
H257 H 0.36449 0.32867 0.28737 0.0
H258 H 0.38412 0.31887 0.2565 0.0
H259 H 0.35544 0.25503 0.26075 0.0
H260 H 0.3356 0.26506 0.29141 0.0
H261 H 0.31516 0.33557 0.33981 0.0
H262 H 0.28402 0.35657 0.33198 0.0
H263 H 0.27392 0.3269 0.27033 0.0
H264 H 0.30511 0.30573 0.27839 0.0
H265 H 0.36002 0.28189 0.34835 0.0
H266 H 0.29606 0.27735 0.31769 0.0
O267 O 0.35399 0.3203 0.32986 0.0
H268 H 0.34928 0.25327 0.37282 0.0
H269 H 0.2851 0.2489 0.34231 0.0
C270 C 0.34894 0.2975 0.29187 0.0
C271 C 0.36238 0.31259 0.28158 0.0
C272 C 0.37366 0.30694 0.26402 0.0
C273 C 0.37154 0.28611 0.25634 0.0
C274 C 0.35736 0.27122 0.26623 0.0
C275 C 0.34611 0.2769 0.28385 0.0
C276 C 0.31276 0.31958 0.30944 0.0
C277 C 0.30628 0.33362 0.32458 0.0
C278 C 0.28848 0.34559 0.32011 0.0
C279 C 0.27667 0.34354 0.30046 0.0
C280 C 0.28268 0.32877 0.28563 0.0
C281 C 0.30061 0.31684 0.29012 0.0
C282 C 0.32865 0.28209 0.33164 0.0
C283 C 0.34369 0.27465 0.34683 0.0
C284 C 0.33754 0.25832 0.36079 0.0
C285 C 0.31626 0.24904 0.35966 0.0
C286 C 0.30161 0.25569 0.34353 0.0
C287 C 0.3078 0.27209 0.32959 0.0
P288 P 0.5017 0.01093 0.53952 0.0
H289 H 0.502 0.00022 0.49441 0.0
H290 H 0.49876 0.96646 0.47552 0.0
H291 H 0.48884 0.93354 0.53516 0.0
H292 H 0.49219 0.96733 0.55393 0.0
H293 H 0.48671 0.0528 0.52944 0.0
H294 H 0.45154 0.0677 0.53104 0.0
H295 H 0.42464 0.00843 0.55609 0.0
H296 H 0.45997 0.99349 0.5541 0.0
H297 H 0.53777 0.98621 0.55341 0.0
H298 H 0.49618 0.02873 0.58196 0.0
O299 O 0.5178 0.02739 0.52553 0.0
H300 H 0.55806 0.98284 0.58746 0.0
H301 H 0.5164 0.02535 0.6162 0.0
C302 C 0.49792 0.98618 0.52561 0.0
C303 C 0.49911 0.98573 0.5034 0.0
C304 C 0.49709 0.96646 0.49261 0.0
C305 C 0.49379 0.94735 0.5039 0.0
C306 C 0.49178 0.94798 0.52609 0.0
C307 C 0.49367 0.96727 0.53683 0.0
C308 C 0.47586 0.02197 0.54141 0.0
C309 C 0.47327 0.04298 0.53525 0.0
C310 C 0.45316 0.05153 0.53632 0.0
C311 C 0.43527 0.03924 0.54367 0.0
C312 C 0.43802 0.01822 0.55008 0.0
C313 C 0.4582 0.00968 0.54903 0.0
C314 C 0.51516 0.00732 0.56526 0.0
C315 C 0.53275 0.99452 0.56712 0.0
C316 C 0.54431 0.99256 0.58662 0.0
C317 C 0.53872 0.00368 0.60459 0.0
C318 C 0.5211 0.0166 0.60264 0.0
C319 C 0.50945 0.01844 0.58311 0.0
P320 P 0.18237 0.34089 0.69207 0.0
H321 H 0.20192 0.37628 0.66811 0.0
H322 H 0.23317 0.40102 0.67567 0.0
H323 H 0.24526 0.36959 0.73612 0.0
H324 H 0.2134 0.3455 0.72875 0.0
H325 H 0.16094 0.31043 0.66224 0.0
H326 H 0.17238 0.27829 0.64621 0.0
H327 H 0.23362 0.28589 0.68227 0.0
H328 H 0.22225 0.31826 0.69781 0.0
H329 H 0.15053 0.36346 0.7137 0.0
H330 H 0.18339 0.30597 0.72317 0.0
O331 O 0.16557 0.352 0.67434 0.0
H332 H 0.13072 0.35585 0.74594 0.0
H333 H 0.16394 0.29843 0.75553 0.0
C334 C 0.20517 0.3593 0.69801 0.0
C335 C 0.21117 0.37488 0.68308 0.0
C336 C 0.2292 0.38889 0.68736 0.0
C337 C 0.24179 0.38735 0.70653 0.0
C338 C 0.23574 0.37152 0.72138 0.0
C339 C 0.21758 0.35766 0.71716 0.0
C340 C 0.19095 0.31704 0.68075 0.0
C341 C 0.17686 0.30522 0.66661 0.0
C342 C 0.18334 0.2867 0.65766 0.0
C343 C 0.20397 0.27956 0.66289 0.0
C344 C 0.21777 0.29115 0.67763 0.0
C345 C 0.21129 0.30969 0.68652 0.0
C346 C 0.16803 0.33506 0.71582 0.0
C347 C 0.15342 0.34918 0.7227 0.0
C348 C 0.14225 0.34489 0.7412 0.0
C349 C 0.14565 0.32645 0.75319 0.0
C350 C 0.16066 0.31255 0.74641 0.0
C351 C 0.17183 0.31687 0.72793 0.0
P352 P 0.83786 0.20388 0.70613 0.0
H353 H 0.85413 0.24711 0.69562 0.0
H354 H 0.83922 0.27444 0.67234 0.0
H355 H 0.78128 0.23367 0.66011 0.0
H356 H 0.79592 0.20697 0.6835 0.0
H357 H 0.87852 0.18894 0.72346 0.0
H358 H 0.90187 0.1988 0.7546 0.0
H359 H 0.85865 0.24668 0.76995 0.0
H360 H 0.83583 0.23724 0.73806 0.0
H361 H 0.81911 0.16315 0.6904 0.0
H362 H 0.80899 0.20574 0.74158 0.0
O363 O 0.8522 0.19132 0.68901 0.0
H364 H 0.78864 0.13986 0.70138 0.0
H365 H 0.77839 0.18249 0.75262 0.0
C366 C 0.82593 0.22523 0.69175 0.0
C367 C 0.838 0.24435 0.68832 0.0
C368 C 0.82954 0.25986 0.67488 0.0
C369 C 0.80897 0.25632 0.66448 0.0
C370 C 0.79691 0.23719 0.66825 0.0
C371 C 0.80534 0.2218 0.68165 0.0
C372 C 0.85562 0.21255 0.72832 0.0
C373 C 0.87422 0.20177 0.73335 0.0
C374 C 0.88744 0.20728 0.75133 0.0
C375 C 0.88209 0.22345 0.76492 0.0
C376 C 0.86342 0.23433 0.75972 0.0
C377 C 0.85029 0.2289 0.74155 0.0
C378 C 0.81665 0.18591 0.71549 0.0
C379 C 0.81049 0.16738 0.70416 0.0
C380 C 0.7929 0.15422 0.71028 0.0
C381 C 0.78109 0.1594 0.72782 0.0
C382 C 0.78732 0.178 0.73917 0.0
C383 C 0.80486 0.19124 0.73293 0.0
P384 P 0.58052 0.55323 0.55449 0.0
H385 H 0.57805 0.5556 0.6007 0.0
H386 H 0.54887 0.54711 0.62453 0.0
H387 H 0.50787 0.52335 0.57119 0.0
H388 H 0.53764 0.5313 0.54742 0.0
H389 H 0.61679 0.52947 0.56956 0.0
H390 H 0.63414 0.49971 0.555 0.0
H391 H 0.58719 0.49715 0.50168 0.0
H392 H 0.56999 0.52726 0.51634 0.0
H393 H 0.54118 0.57686 0.54986 0.0
H394 H 0.59791 0.56842 0.5145 0.0
O395 O 0.59992 0.56763 0.5682 0.0
H396 H 0.5296 0.60313 0.52388 0.0
H397 H 0.58646 0.59508 0.48857 0.0
C398 C 0.55984 0.54442 0.57225 0.0
C399 C 0.56289 0.54837 0.59412 0.0
C400 C 0.5461 0.54363 0.60772 0.0
C401 C 0.52587 0.53497 0.5997 0.0
C402 C 0.52324 0.53 0.57789 0.0
C403 C 0.54018 0.5346 0.56428 0.0
C404 C 0.59243 0.5308 0.54378 0.0
C405 C 0.61025 0.52254 0.55471 0.0
C406 C 0.62006 0.50543 0.54644 0.0
C407 C 0.61209 0.49613 0.52713 0.0
C408 C 0.59389 0.50419 0.51641 0.0
C409 C 0.58402 0.52132 0.52479 0.0
C410 C 0.57015 0.5702 0.53381 0.0
C411 C 0.55086 0.58015 0.53621 0.0
C412 C 0.54423 0.59524 0.52136 0.0
C413 C 0.55708 0.60103 0.50418 0.0
C414 C 0.57626 0.59086 0.50166 0.0
C415 C 0.58273 0.57558 0.51639 0.0
P416 P 0.55796 0.46589 0.95615 0.0
H417 H 0.60509 0.46908 0.95866 0.0
H418 H 0.63178 0.49585 0.97322 0.0
H419 H 0.5804 0.52976 0.99807 0.0
H420 H 0.55368 0.50266 0.98357 0.0
H421 H 0.54622 0.42186 0.94669 0.0
H422 H 0.53405 0.39173 0.96838 0.0
H423 H 0.53882 0.4313 0.02426 0.0
H424 H 0.55118 0.46163 0.00227 0.0
H425 H 0.55314 0.50762 0.93703 0.0
H426 H 0.51199 0.4518 0.94969 0.0
O427 O 0.56989 0.45635 0.93537 0.0
H428 H 0.52347 0.5225 0.91613 0.0
H429 H 0.48264 0.46612 0.92816 0.0
C430 C 0.57741 0.4842 0.9696 0.0
C431 C 0.59955 0.48218 0.96737 0.0
C432 C 0.6148 0.49752 0.97564 0.0
C433 C 0.60817 0.5151 0.98648 0.0
C434 C 0.586 0.51641 0.98979 0.0
C435 C 0.57072 0.50101 0.98144 0.0
C436 C 0.54996 0.44387 0.97294 0.0
C437 C 0.54483 0.42407 0.96363 0.0
C438 C 0.53765 0.4069 0.97602 0.0
C439 C 0.53537 0.40918 0.99801 0.0
C440 C 0.54056 0.42907 0.00737 0.0
C441 C 0.54762 0.44637 0.99485 0.0
C442 C 0.53475 0.47874 0.94525 0.0
C443 C 0.53757 0.4988 0.93582 0.0
C444 C 0.52063 0.50719 0.92366 0.0
C445 C 0.50068 0.49545 0.9203 0.0
C446 C 0.49763 0.47577 0.93064 0.0
C447 C 0.51453 0.46748 0.94293 0.0
P448 P 0.71788 0.23577 0.24179 0.0
H449 H 0.74302 0.27186 0.26127 0.0
H450 H 0.74292 0.28833 0.29614 0.0
H451 H 0.69244 0.24219 0.3143 0.0
H452 H 0.69179 0.22666 0.27881 0.0
H453 H 0.74316 0.21497 0.21138 0.0
H454 H 0.76389 0.18352 0.21346 0.0
H455 H 0.74547 0.17286 0.27836 0.0
H456 H 0.72431 0.20398 0.27594 0.0
H457 H 0.68018 0.26078 0.24087 0.0
H458 H 0.69629 0.20058 0.21683 0.0
O459 O 0.73072 0.25267 0.22541 0.0
H460 H 0.64473 0.25672 0.22198 0.0
H461 H 0.66107 0.19662 0.19754 0.0
C462 C 0.71737 0.24808 0.26747 0.0
C463 C 0.73176 0.26544 0.27268 0.0
C464 C 0.73182 0.27474 0.29275 0.0
C465 C 0.71775 0.26657 0.3082 0.0
C466 C 0.70325 0.24917 0.30278 0.0
C467 C 0.70299 0.24012 0.28255 0.0
C468 C 0.73254 0.21212 0.24362 0.0
C469 C 0.74361 0.20589 0.22607 0.0
C470 C 0.75554 0.18794 0.22732 0.0
C471 C 0.7566 0.1758 0.24618 0.0
C472 C 0.74494 0.18178 0.26357 0.0
C473 C 0.73294 0.19973 0.26225 0.0
C474 C 0.69075 0.23086 0.23054 0.0
C475 C 0.67594 0.24651 0.23183 0.0
C476 C 0.65576 0.24426 0.22086 0.0
C477 C 0.6501 0.22638 0.20819 0.0
C478 C 0.6648 0.21045 0.20739 0.0
C479 C 0.68501 0.21273 0.21838 0.0
P480 P 0.47905 0.98071 0.98722 0.0
H481 H 0.5245 0.97452 0.98134 0.0
H482 H 0.54628 0.97526 0.95004 0.0
H483 H 0.48977 0.98802 0.91005 0.0
H484 H 0.46808 0.98761 0.94172 0.0
H485 H 0.45452 0.99751 0.02085 0.0
H486 H 0.45336 0.03288 0.03594 0.0
H487 H 0.50149 0.05681 0.99289 0.0
H488 H 0.50222 0.02158 0.97743 0.0
H489 H 0.4642 0.93679 0.98054 0.0
H490 H 0.43538 0.99688 0.98107 0.0
O491 O 0.49128 0.96645 0.00615 0.0
H492 H 0.42809 0.91859 0.97701 0.0
H493 H 0.39923 0.97867 0.97835 0.0
C494 C 0.49461 0.98058 0.96377 0.0
C495 C 0.51673 0.97725 0.96583 0.0
C496 C 0.52915 0.97759 0.94788 0.0
C497 C 0.51972 0.98142 0.92748 0.0
C498 C 0.49753 0.98504 0.92552 0.0
C499 C 0.48509 0.98469 0.94357 0.0
C500 C 0.47798 0.007 0.99761 0.0
C501 C 0.46458 0.01043 0.01442 0.0
C502 C 0.46396 0.03059 0.02306 0.0
C503 C 0.47724 0.04753 0.01546 0.0
C504 C 0.49109 0.04398 0.999 0.0
C505 C 0.4914 0.02386 0.99009 0.0
C506 C 0.45246 0.9681 0.98174 0.0
C507 C 0.45011 0.94606 0.97978 0.0
C508 C 0.42952 0.9357 0.97768 0.0
C509 C 0.41093 0.94725 0.97766 0.0
C510 C 0.41334 0.96942 0.97861 0.0
C511 C 0.43399 0.9798 0.98029 0.0
Mg512 Mg 0.226 0.83762 0.00122 0.0
O513 O 0.25943 0.855 0.99674 0.0
O514 O 0.28373 0.83034 0.99849 0.0
Mg515 Mg 0.2662 0.79782 0.00215 0.0
C516 C 0.27893 0.84958 0.99651 0.0
C517 C 0.18948 0.86645 0.99921 0.0
O518 O 0.182 0.84893 0.00839 0.0
O519 O 0.22514 0.82655 0.96677 0.0
O520 O 0.24923 0.80181 0.96901 0.0
O521 O 0.23109 0.83996 0.03652 0.0
O522 O 0.2406 0.81319 0.01766 0.0
C523 C 0.23541 0.81225 0.95826 0.0
C524 C 0.24054 0.82239 0.03585 0.0
O525 O 0.20856 0.86723 0.99255 0.0
Mg526 Mg 0.15882 0.50069 0.27224 0.0
O527 O 0.13823 0.49818 0.2406 0.0
O528 O 0.16154 0.49836 0.21453 0.0
Mg529 Mg 0.19618 0.50224 0.22862 0.0
C530 C 0.14223 0.49738 0.22085 0.0
C531 C 0.12385 0.505 0.30455 0.0
O532 O 0.13469 0.52352 0.3051 0.0
O533 O 0.16811 0.46634 0.26977 0.0
O534 O 0.19221 0.46962 0.24443 0.0
O535 O 0.16007 0.53621 0.27029 0.0
O536 O 0.18413 0.51673 0.25689 0.0
C537 C 0.182 0.45852 0.25824 0.0
C538 C 0.17739 0.53518 0.25977 0.0
O539 O 0.12935 0.49116 0.29169 0.0
Mg540 Mg 0.76514 0.65772 0.03243 0.0
O541 O 0.73385 0.63666 0.0262 0.0
O542 O 0.70743 0.65799 0.01758 0.0
Mg543 Mg 0.72123 0.69235 0.01934 0.0
C544 C 0.71411 0.63952 0.02072 0.0
C545 C 0.79501 0.62222 0.0475 0.0
O546 O 0.7912 0.63055 0.06591 0.0
O547 O 0.76755 0.66424 0.99672 0.0
O548 O 0.7418 0.68695 0.9907 0.0
O549 O 0.75783 0.66131 0.06698 0.0
O550 O 0.74757 0.68269 0.0411 0.0
C551 C 0.75729 0.67666 0.98433 0.0
C552 C 0.74768 0.67772 0.06097 0.0
O553 O 0.78582 0.62935 0.03062 0.0
Mg554 Mg 0.89618 0.03239 0.24694 0.0
O555 O 0.87159 0.00431 0.23978 0.0
O556 O 0.88973 0.97566 0.23477 0.0
Mg557 Mg 0.92587 0.98517 0.23885 0.0
C558 C 0.87198 0.98466 0.23567 0.0
C559 C 0.85314 0.05425 0.24324 0.0
O560 O 0.85267 0.0436 0.22536 0.0
O561 O 0.90308 0.02017 0.28086 0.0
O562 O 0.92215 0.99238 0.27421 0.0
O563 O 0.89883 0.03945 0.21217 0.0
O564 O 0.91964 0.01805 0.23036 0.0
C565 C 0.91392 0.00462 0.28721 0.0
C566 C 0.91428 0.02665 0.21239 0.0
O567 O 0.86896 0.05241 0.25669 0.0
Mg568 Mg 0.27087 0.15394 0.53371 0.0
O569 O 0.24035 0.13133 0.52898 0.0
O570 O 0.21232 0.15158 0.52357 0.0
Mg571 Mg 0.22446 0.18638 0.52432 0.0
C572 C 0.2201 0.13346 0.52552 0.0
C573 C 0.29725 0.11443 0.54541 0.0
O574 O 0.2872 0.11598 0.5632 0.0
O575 O 0.2705 0.16105 0.49801 0.0
O576 O 0.2433 0.18243 0.4941 0.0
O577 O 0.26607 0.15657 0.56887 0.0
O578 O 0.25254 0.17766 0.54431 0.0
C579 C 0.25886 0.17307 0.48651 0.0
C580 C 0.25445 0.17234 0.56407 0.0
O581 O 0.29312 0.12704 0.5301 0.0
Mg582 Mg 0.39553 0.53516 0.74396 0.0
O583 O 0.37321 0.50538 0.73743 0.0
O584 O 0.39366 0.47789 0.73497 0.0
Mg585 Mg 0.42913 0.49012 0.73928 0.0
C586 C 0.37518 0.48568 0.73468 0.0
C587 C 0.36854 0.57001 0.76261 0.0
O588 O 0.38775 0.57576 0.77125 0.0
O589 O 0.40203 0.52493 0.7787 0.0
O590 O 0.42358 0.49858 0.77393 0.0
O591 O 0.3987 0.54056 0.70897 0.0
O592 O 0.4207 0.52191 0.72908 0.0
C593 C 0.41391 0.51055 0.78609 0.0
C594 C 0.41518 0.529 0.71047 0.0
O595 O 0.3663 0.55329 0.7515 0.0
Mg596 Mg 0.72987 0.34418 0.50213 0.0
O597 O 0.76466 0.35753 0.49677 0.0
O598 O 0.78546 0.32998 0.4984 0.0
Mg599 Mg 0.76464 0.29973 0.50522 0.0
C600 C 0.78311 0.34974 0.49587 0.0
C601 C 0.69541 0.37385 0.48699 0.0
O602 O 0.68505 0.35509 0.48603 0.0
O603 O 0.72733 0.33097 0.46834 0.0
O604 O 0.74707 0.30276 0.4723 0.0
O605 O 0.73588 0.34837 0.53717 0.0
O606 O 0.74174 0.31927 0.51991 0.0
C607 C 0.73484 0.31439 0.46096 0.0
C608 C 0.74324 0.32973 0.53745 0.0
O609 O 0.71565 0.375 0.49168 0.0
Mg610 Mg 0.66167 0.00329 0.78105 0.0
O611 O 0.64281 0.00132 0.74851 0.0
O612 O 0.66756 0.00372 0.72377 0.0
Mg613 Mg 0.70153 0.00822 0.73968 0.0
C614 C 0.64787 0.0017 0.72901 0.0
C615 C 0.63161 0.00156 0.81706 0.0
O616 O 0.64833 0.0144 0.82294 0.0
O617 O 0.67212 0.96928 0.77778 0.0
O618 O 0.69849 0.97535 0.75493 0.0
O619 O 0.66202 0.03896 0.78038 0.0
O620 O 0.68733 0.02052 0.76771 0.0
C621 C 0.68782 0.9631 0.76747 0.0
C622 C 0.68001 0.03865 0.7708 0.0
O623 O 0.63145 0.9929 0.79886 0.0
Mg624 Mg 0.03057 0.26953 0.91401 0.0
O625 O 1.00012 0.26074 0.89306 0.0
O626 O 0.97368 0.24949 0.91412 0.0
Mg627 Mg 0.98786 0.25006 0.94856 0.0
C628 C 0.98061 0.25381 0.89566 0.0
C629 C 0.06632 0.28639 0.88548 0.0
O630 O 0.07706 0.2777 0.90148 0.0
O631 O 0.01604 0.29934 0.9249 0.0
O632 O 0.99149 0.28657 0.9474 0.0
O633 O 0.04088 0.23684 0.91184 0.0
O634 O 0.02073 0.24766 0.93713 0.0
C635 C 0.00165 0.30211 0.93829 0.0
C636 C 0.03 0.23244 0.92859 0.0
O637 O 0.04585 0.28639 0.88589 0.0
Mg638 Mg 0.53026 0.77271 0.41127 0.0
O639 O 0.49926 0.76359 0.39135 0.0
O640 O 0.47356 0.7519 0.41304 0.0
Mg641 Mg 0.48878 0.75286 0.44711 0.0
C642 C 0.47996 0.75634 0.39441 0.0
C643 C 0.54716 0.7789 0.3662 0.0
O644 O 0.54137 0.75859 0.36645 0.0
O645 O 0.51588 0.80237 0.42275 0.0
O646 O 0.49199 0.78936 0.4458 0.0
O647 O 0.54048 0.73996 0.40871 0.0
O648 O 0.52134 0.75084 0.43479 0.0
C649 C 0.5018 0.80498 0.43649 0.0
C650 C 0.53013 0.7356 0.42578 0.0
O651 O 0.54418 0.78987 0.38251 0.0
Mg652 Mg 0.97261 0.72472 0.58637 0.0
O653 O 0.00486 0.7199 0.60518 0.0
O654 O 0.02814 0.70972 0.58184 0.0
Mg655 Mg 0.01149 0.70872 0.5486 0.0
C656 C 0.02356 0.71424 0.6008 0.0
C657 C 0.95805 0.73122 0.63247 0.0
O658 O 0.96574 0.71243 0.63445 0.0
O659 O 0.98714 0.756 0.57343 0.0
O660 O 0.0097 0.74491 0.54989 0.0
O661 O 0.96202 0.69064 0.59052 0.0
O662 O 0.98026 0.70325 0.56339 0.0
C663 C 0.00096 0.75978 0.55922 0.0
C664 C 0.97183 0.6871 0.57332 0.0
O665 O 0.95934 0.74094 0.61474 0.0
Mg666 Mg 0.47082 0.23099 0.08946 0.0
O667 O 0.50351 0.22597 0.10712 0.0
O668 O 0.52629 0.21632 0.08307 0.0
Mg669 Mg 0.50855 0.21565 0.05025 0.0
C670 C 0.52212 0.22053 0.10223 0.0
C671 C 0.45775 0.23658 0.13624 0.0
O672 O 0.4651 0.21761 0.13747 0.0
O673 O 0.48475 0.26254 0.07649 0.0
O674 O 0.50665 0.25178 0.05215 0.0
O675 O 0.46089 0.19671 0.09345 0.0
O676 O 0.47771 0.21009 0.06571 0.0
C677 C 0.49814 0.26651 0.06192 0.0
C678 C 0.46998 0.19369 0.07571 0.0
O679 O 0.45866 0.2467 0.1187 0.0
C680 C 0.22877 0.79441 0.83213 0.0
C681 C 0.21474 0.77683 0.82658 0.0
C682 C 0.23091 0.80175 0.85318 0.0
C683 C 0.21874 0.79124 0.86906 0.0
C684 C 0.20389 0.77404 0.8634 0.0
C685 C 0.20208 0.76702 0.84222 0.0
C686 C 0.24696 0.82012 0.85859 0.0
C687 C 0.19054 0.7625 0.87987 0.0
C688 C 0.24296 0.79212 0.9257 0.0
C689 C 0.23119 0.8073 0.93531 0.0
C690 C 0.23907 0.78686 0.90417 0.0
C691 C 0.22299 0.79699 0.89186 0.0
C692 C 0.2111 0.81241 0.90135 0.0
C693 C 0.21535 0.81741 0.92297 0.0
C694 C 0.25216 0.77037 0.89462 0.0
C695 C 0.19384 0.82353 0.88867 0.0
H696 H 0.23878 0.80193 0.82018 0.0
H697 H 0.19097 0.75363 0.83795 0.0
H698 H 0.23924 0.83215 0.86781 0.0
H699 H 0.26059 0.81449 0.86878 0.0
H700 H 0.25364 0.8278 0.84414 0.0
H701 H 0.17845 0.75063 0.8726 0.0
H702 H 0.20135 0.75424 0.89133 0.0
H703 H 0.18193 0.77387 0.8891 0.0
H704 H 0.25527 0.78423 0.935 0.0
H705 H 0.20615 0.82915 0.93022 0.0
H706 H 0.26089 0.77722 0.88091 0.0
H707 H 0.24123 0.75699 0.88848 0.0
H708 H 0.26419 0.76408 0.90633 0.0
H709 H 0.20094 0.8318 0.87476 0.0
H710 H 0.18613 0.83525 0.89836 0.0
H711 H 0.1811 0.81178 0.88236 0.0
C712 C 0.02912 0.48423 0.38744 0.0
C713 C 0.03929 0.47971 0.40726 0.0
C714 C 0.04114 0.48698 0.36909 0.0
C715 C 0.06381 0.48505 0.37063 0.0
C716 C 0.07397 0.47962 0.39044 0.0
C717 C 0.06161 0.47706 0.40849 0.0
C718 C 0.02973 0.4928 0.34827 0.0
C719 C 0.09807 0.47726 0.39275 0.0
C720 C 0.09719 0.47949 0.32195 0.0
C721 C 0.1068 0.50005 0.31994 0.0
C722 C 0.08249 0.47447 0.33789 0.0
C723 C 0.0773 0.49039 0.35211 0.0
C724 C 0.08631 0.51132 0.3496 0.0
C725 C 0.10091 0.51588 0.33358 0.0
C726 C 0.07314 0.452 0.34003 0.0
C727 C 0.08117 0.52878 0.36436 0.0
H728 H 0.01189 0.48637 0.38644 0.0
H729 H 0.06947 0.4732 0.42371 0.0
H730 H 0.03504 0.50924 0.34377 0.0
H731 H 0.0341 0.48234 0.33533 0.0
H732 H 0.01184 0.49171 0.34925 0.0
H733 H 0.10322 0.47155 0.40888 0.0
H734 H 0.10299 0.46602 0.38075 0.0
H735 H 0.10691 0.49272 0.38979 0.0
H736 H 0.10159 0.46718 0.31145 0.0
H737 H 0.10811 0.53185 0.33208 0.0
H738 H 0.05527 0.45165 0.34076 0.0
H739 H 0.07952 0.44501 0.35514 0.0
H740 H 0.0772 0.44194 0.3266 0.0
H741 H 0.06339 0.52967 0.36493 0.0
H742 H 0.08838 0.54447 0.35941 0.0
H743 H 0.08747 0.52532 0.38079 0.0
C744 C 0.79791 0.71279 0.86846 0.0
C745 C 0.81067 0.73152 0.87276 0.0
C746 C 0.78969 0.70018 0.88512 0.0
C747 C 0.7941 0.70668 0.9065 0.0
C748 C 0.8077 0.72511 0.9109 0.0
C749 C 0.81586 0.73725 0.89399 0.0
C750 C 0.77557 0.68043 0.87983 0.0
C751 C 0.81266 0.73272 0.93345 0.0
C752 C 0.75404 0.6954 0.94925 0.0
C753 C 0.76483 0.68116 0.96257 0.0
C754 C 0.7628 0.70285 0.93025 0.0
C755 C 0.78278 0.69574 0.92424 0.0
C756 C 0.79294 0.68014 0.93669 0.0
C757 C 0.78389 0.67307 0.95579 0.0
C758 C 0.75141 0.71948 0.91743 0.0
C759 C 0.81404 0.67188 0.93055 0.0
H760 H 0.79406 0.70819 0.85206 0.0
H761 H 0.82548 0.75185 0.89741 0.0
H762 H 0.78053 0.66701 0.89002 0.0
H763 H 0.75853 0.68304 0.88309 0.0
H764 H 0.77625 0.67595 0.86283 0.0
H765 H 0.82467 0.74654 0.93423 0.0
H766 H 0.79755 0.73732 0.94041 0.0
H767 H 0.81901 0.71985 0.94353 0.0
H768 H 0.73917 0.70157 0.95413 0.0
H769 H 0.79228 0.66192 0.96584 0.0
H770 H 0.74961 0.71502 0.90037 0.0
H771 H 0.76127 0.73474 0.91844 0.0
H772 H 0.73511 0.72192 0.92321 0.0
H773 H 0.81348 0.66819 0.91329 0.0
H774 H 0.81795 0.65747 0.93978 0.0
H775 H 0.82736 0.68421 0.93362 0.0
C776 C 0.99766 0.99436 0.37831 0.0
C777 C 0.99226 0.99025 0.39946 0.0
C778 C 0.98174 0.99794 0.36231 0.0
C779 C 0.95969 0.99701 0.36738 0.0
C780 C 0.95404 0.99334 0.38872 0.0
C781 C 0.97041 0.99011 0.40454 0.0
C782 C 0.98852 0.00198 0.33977 0.0
C783 C 0.9307 0.99209 0.39471 0.0
C784 C 0.92467 0.01999 0.32296 0.0
C785 C 0.92004 0.00214 0.31011 0.0
C786 C 0.93615 0.01838 0.34273 0.0
C787 C 0.94278 0.99842 0.34983 0.0
C788 C 0.93605 0.98009 0.33792 0.0
C789 C 0.92494 0.9822 0.3181 0.0
C790 C 0.94301 0.03831 0.35491 0.0
C791 C 0.9423 0.95844 0.34513 0.0
H792 H 0.01435 0.99407 0.374 0.0
H793 H 0.96603 0.98726 0.42086 0.0
H794 H 0.98227 0.98861 0.32944 0.0
H795 H 0.98152 0.01649 0.33323 0.0
H796 H 0.0064 0.00383 0.33879 0.0
H797 H 0.92914 0.99123 0.41224 0.0
H798 H 0.92246 0.00601 0.38836 0.0
H799 H 0.92207 0.97783 0.38744 0.0
H800 H 0.92098 0.03545 0.31682 0.0
H801 H 0.92115 0.96833 0.30829 0.0
H802 H 0.96033 0.04271 0.35236 0.0
H803 H 0.94137 0.03584 0.37228 0.0
H804 H 0.93338 0.05174 0.34957 0.0
H805 H 0.95977 0.95702 0.34278 0.0
H806 H 0.93294 0.94563 0.33604 0.0
H807 H 0.93969 0.95604 0.36236 0.0
C808 C 0.19727 0.24287 0.64813 0.0
C809 C 0.21143 0.26077 0.65211 0.0
C810 C 0.20347 0.22602 0.63595 0.0
C811 C 0.22429 0.22712 0.62756 0.0
C812 C 0.23902 0.24464 0.63245 0.0
C813 C 0.2324 0.26125 0.64462 0.0
C814 C 0.18736 0.20755 0.63119 0.0
C815 C 0.26139 0.24643 0.6238 0.0
C816 C 0.24807 0.18008 0.60231 0.0
C817 C 0.24454 0.1846 0.58055 0.0
C818 C 0.24084 0.19332 0.61796 0.0
C819 C 0.22985 0.21142 0.61162 0.0
C820 C 0.22544 0.21549 0.5897 0.0
C821 C 0.23289 0.2021 0.57448 0.0
C822 C 0.24578 0.18846 0.64119 0.0
C823 C 0.21368 0.23457 0.58224 0.0
H824 H 0.18117 0.24221 0.65419 0.0
H825 H 0.24338 0.27509 0.64742 0.0
H826 H 0.18187 0.20797 0.61411 0.0
H827 H 0.19502 0.19239 0.63409 0.0
H828 H 0.17293 0.2078 0.64098 0.0
H829 H 0.27161 0.25992 0.63083 0.0
H830 H 0.26969 0.23167 0.627 0.0
H831 H 0.26006 0.24868 0.60625 0.0
H832 H 0.25709 0.16661 0.60714 0.0
H833 H 0.23018 0.20587 0.55777 0.0
H834 H 0.231 0.18912 0.65037 0.0
H835 H 0.25791 0.20057 0.64793 0.0
H836 H 0.25229 0.17265 0.64356 0.0
H837 H 0.19813 0.23501 0.5902 0.0
H838 H 0.21025 0.23468 0.56471 0.0
H839 H 0.22362 0.24922 0.58665 0.0
C840 C 0.5043 0.54783 0.62894 0.0
C841 C 0.50743 0.53218 0.61397 0.0
C842 C 0.48758 0.54541 0.64313 0.0
C843 C 0.4734 0.52696 0.64223 0.0
C844 C 0.47601 0.51134 0.62677 0.0
C845 C 0.49306 0.51411 0.61282 0.0
C846 C 0.48537 0.56247 0.65937 0.0
C847 C 0.46108 0.49155 0.62526 0.0
C848 C 0.44767 0.51528 0.69478 0.0
C849 C 0.42816 0.52521 0.69189 0.0
C850 C 0.46197 0.51453 0.67824 0.0
C851 C 0.45659 0.52386 0.65828 0.0
C852 C 0.43626 0.53259 0.65479 0.0
C853 C 0.42229 0.53324 0.67168 0.0
C854 C 0.48351 0.50509 0.68265 0.0
C855 C 0.42982 0.54244 0.63363 0.0
H856 H 0.51498 0.56209 0.62957 0.0
H857 H 0.49541 0.50192 0.60134 0.0
H858 H 0.46894 0.56844 0.65776 0.0
H859 H 0.48743 0.55583 0.67571 0.0
H860 H 0.49748 0.57603 0.65767 0.0
H861 H 0.46424 0.48172 0.61134 0.0
H862 H 0.46316 0.48193 0.63997 0.0
H863 H 0.44395 0.49571 0.62399 0.0
H864 H 0.45235 0.509 0.71031 0.0
H865 H 0.40717 0.54081 0.66927 0.0
H866 H 0.49663 0.5179 0.68314 0.0
H867 H 0.48684 0.49415 0.66972 0.0
H868 H 0.48418 0.49636 0.69807 0.0
H869 H 0.43952 0.5576 0.63157 0.0
H870 H 0.41239 0.54565 0.63247 0.0
H871 H 0.43323 0.53199 0.6203 0.0
C872 C 0.77847 0.27515 0.64694 0.0
C873 C 0.8006 0.27155 0.64846 0.0
C874 C 0.76964 0.28667 0.62984 0.0
C875 C 0.78332 0.29504 0.61401 0.0
C876 C 0.80589 0.29272 0.61621 0.0
C877 C 0.81426 0.2809 0.63337 0.0
C878 C 0.74549 0.28879 0.62807 0.0
C879 C 0.82103 0.30167 0.5998 0.0
C880 C 0.75793 0.29964 0.55813 0.0
C881 C 0.75398 0.32114 0.55689 0.0
C882 C 0.76762 0.29104 0.57659 0.0
C883 C 0.77372 0.30431 0.59418 0.0
C884 C 0.7701 0.32611 0.59293 0.0
C885 C 0.76012 0.33425 0.57432 0.0
C886 C 0.77101 0.26765 0.57738 0.0
C887 C 0.77666 0.34076 0.61127 0.0
H888 H 0.76789 0.26833 0.65879 0.0
H889 H 0.83134 0.27809 0.63431 0.0
H890 H 0.74191 0.30553 0.62527 0.0
H891 H 0.73834 0.27959 0.6142 0.0
H892 H 0.73738 0.28298 0.64259 0.0
H893 H 0.83831 0.30088 0.6052 0.0
H894 H 0.81817 0.29262 0.58477 0.0
H895 H 0.81789 0.31837 0.5961 0.0
H896 H 0.75309 0.2894 0.54477 0.0
H897 H 0.7572 0.35092 0.5734 0.0
H898 H 0.76201 0.26007 0.59057 0.0
H899 H 0.78841 0.26513 0.58065 0.0
H900 H 0.76552 0.25956 0.56226 0.0
H901 H 0.76769 0.33574 0.62551 0.0
H902 H 0.77346 0.35745 0.60746 0.0
H903 H 0.79416 0.33991 0.61561 0.0
C904 C 0.55869 0.02101 0.63615 0.0
C905 C 0.55199 0.00252 0.6249 0.0
C906 C 0.57293 0.02041 0.65422 0.0
C907 C 0.58058 0.00084 0.66127 0.0
C908 C 0.57317 0.98201 0.65051 0.0
C909 C 0.55901 0.98309 0.63242 0.0
C910 C 0.58053 0.04086 0.6652 0.0
C911 C 0.5808 0.96082 0.65763 0.0
C912 C 0.63583 0.00253 0.69036 0.0
C913 C 0.63048 0.00059 0.71179 0.0
C914 C 0.61975 0.00246 0.67385 0.0
C915 C 0.59767 0.00032 0.67878 0.0
C916 C 0.59208 0.99802 0.7003 0.0
C917 C 0.60854 0.99823 0.71657 0.0
C918 C 0.62641 0.00498 0.65109 0.0
C919 C 0.5687 0.99558 0.70615 0.0
H920 H 0.5535 0.0361 0.63031 0.0
H921 H 0.55363 0.96871 0.62396 0.0
H922 H 0.57824 0.03951 0.68257 0.0
H923 H 0.5981 0.0442 0.66309 0.0
H924 H 0.5718 0.05448 0.65879 0.0
H925 H 0.57212 0.94752 0.64869 0.0
H926 H 0.59838 0.96041 0.65522 0.0
H927 H 0.57848 0.95836 0.6749 0.0
H928 H 0.65268 0.00437 0.68641 0.0
H929 H 0.60419 0.99669 0.73304 0.0
H930 H 0.61975 0.01938 0.64387 0.0
H931 H 0.61964 0.9913 0.64146 0.0
H932 H 0.64428 0.00626 0.64992 0.0
H933 H 0.56029 0.00981 0.70098 0.0
H934 H 0.56705 0.9933 0.72357 0.0
H935 H 0.5603 0.98186 0.6977 0.0
C936 C 0.90016 0.24964 0.79108 0.0
C937 C 0.89579 0.2286 0.78458 0.0
C938 C 0.91341 0.25459 0.80939 0.0
C939 C 0.92268 0.23814 0.82137 0.0
C940 C 0.91822 0.21688 0.81499 0.0
C941 C 0.90473 0.21237 0.7968 0.0
C942 C 0.91767 0.27744 0.81581 0.0
C943 C 0.92787 0.19889 0.82729 0.0
C944 C 0.97376 0.25054 0.85615 0.0
C945 C 0.96565 0.25046 0.87663 0.0
C946 C 0.95992 0.24678 0.83802 0.0
C947 C 0.93739 0.24308 0.84037 0.0
C948 C 0.92903 0.24338 0.86093 0.0
C949 C 0.94327 0.24694 0.87882 0.0
C950 C 0.96948 0.24635 0.81638 0.0
C951 C 0.90506 0.23975 0.86403 0.0
H952 H 0.89353 0.2623 0.78165 0.0
H953 H 0.9011 0.19604 0.79219 0.0
H954 H 0.91313 0.27956 0.83248 0.0
H955 H 0.9352 0.28209 0.8152 0.0
H956 H 0.90854 0.28829 0.8053 0.0
H957 H 0.92283 0.18324 0.82019 0.0
H958 H 0.94581 0.201 0.82774 0.0
H959 H 0.92292 0.19888 0.84402 0.0
H960 H 0.99103 0.25318 0.85427 0.0
H961 H 0.93683 0.24699 0.89455 0.0
H962 H 0.96188 0.25795 0.80553 0.0
H963 H 0.96602 0.23049 0.80918 0.0
H964 H 0.98728 0.25001 0.81722 0.0
H965 H 0.89597 0.25116 0.85421 0.0
H966 H 0.90105 0.2414 0.88096 0.0
H967 H 0.89931 0.22365 0.85859 0.0
C968 C 0.48144 0.92359 0.4733 0.0
C969 C 0.49331 0.92678 0.49273 0.0
C970 C 0.4813 0.90426 0.4625 0.0
C971 C 0.49347 0.88787 0.47129 0.0
C972 C 0.50549 0.89105 0.4909 0.0
C973 C 0.50522 0.91043 0.50139 0.0
C974 C 0.46814 0.90137 0.44173 0.0
C975 C 0.51883 0.87402 0.50072 0.0
C976 C 0.48126 0.83021 0.45683 0.0
C977 C 0.49791 0.82675 0.44316 0.0
C978 C 0.47898 0.8503 0.4653 0.0
C979 C 0.49378 0.86731 0.46013 0.0
C980 C 0.51 0.86418 0.4456 0.0
C981 C 0.51182 0.84396 0.43722 0.0
C982 C 0.4613 0.85308 0.48055 0.0
C983 C 0.52613 0.88193 0.43972 0.0
H984 H 0.47208 0.93614 0.46664 0.0
H985 H 0.51469 0.91295 0.51624 0.0
H986 H 0.47884 0.89777 0.42879 0.0
H987 H 0.4561 0.88771 0.44304 0.0
H988 H 0.45944 0.91562 0.43711 0.0
H989 H 0.52731 0.87904 0.51601 0.0
H990 H 0.50828 0.85956 0.50369 0.0
H991 H 0.53108 0.86969 0.48952 0.0
H992 H 0.47029 0.81709 0.46137 0.0
H993 H 0.52472 0.84149 0.42665 0.0
H994 H 0.45206 0.86691 0.47577 0.0
H995 H 0.46863 0.85621 0.49679 0.0
H996 H 0.44985 0.83888 0.48129 0.0
H997 H 0.51762 0.89606 0.43441 0.0
H998 H 0.53657 0.87738 0.42687 0.0
H999 H 0.53665 0.88656 0.45395 0.0
C1000 C 0.13069 0.33757 0.78742 0.0
C1001 C 0.13352 0.32165 0.77265 0.0
C1002 C 0.11946 0.33312 0.80597 0.0
C1003 C 0.11087 0.31226 0.80982 0.0
C1004 C 0.11351 0.29617 0.79488 0.0
C1005 C 0.1248 0.30106 0.77648 0.0
C1006 C 0.11702 0.35067 0.82159 0.0
C1007 C 0.10451 0.27374 0.79839 0.0
C1008 C 0.10036 0.29395 0.86626 0.0
C1009 C 0.07779 0.29449 0.86663 0.0
C1010 C 0.11138 0.30015 0.84802 0.0
C1011 C 0.09954 0.30706 0.8297 0.0
C1012 C 0.07683 0.30817 0.83013 0.0
C1013 C 0.06621 0.30188 0.84861 0.0
C1014 C 0.13563 0.2988 0.84818 0.0
C1015 C 0.06368 0.3155 0.81089 0.0
H1016 H 0.1376 0.35346 0.78465 0.0
H1017 H 0.12665 0.28876 0.76496 0.0
H1018 H 0.09964 0.35218 0.82432 0.0
H1019 H 0.12507 0.34684 0.83719 0.0
H1020 H 0.12411 0.36616 0.81595 0.0
H1021 H 0.10766 0.26316 0.78506 0.0
H1022 H 0.11183 0.2673 0.81336 0.0
H1023 H 0.08677 0.27345 0.80019 0.0
H1024 H 0.10945 0.28832 0.88012 0.0
H1025 H 0.04877 0.30237 0.84877 0.0
H1026 H 0.14356 0.31429 0.84365 0.0
H1027 H 0.13968 0.28711 0.83621 0.0
H1028 H 0.14256 0.29404 0.86402 0.0
H1029 H 0.0702 0.3313 0.80559 0.0
H1030 H 0.04631 0.31641 0.81415 0.0
H1031 H 0.0649 0.30444 0.79748 0.0
C1032 C 0.53034 0.62021 0.48129 0.0
C1033 C 0.55145 0.61894 0.49012 0.0
C1034 C 0.52461 0.63793 0.4692 0.0
C1035 C 0.54028 0.65488 0.46631 0.0
C1036 C 0.56169 0.65349 0.47496 0.0
C1037 C 0.56704 0.63547 0.48663 0.0
C1038 C 0.50176 0.63869 0.45986 0.0
C1039 C 0.5788 0.67134 0.47246 0.0
C1040 C 0.53576 0.69705 0.42343 0.0
C1041 C 0.52948 0.71412 0.43517 0.0
C1042 C 0.53802 0.67719 0.43305 0.0
C1043 C 0.53431 0.67451 0.45499 0.0
C1044 C 0.52695 0.69142 0.46665 0.0
C1045 C 0.52444 0.711 0.45653 0.0
C1046 C 0.54541 0.65939 0.41999 0.0
C1047 C 0.52302 0.68926 0.49013 0.0
H1048 H 0.51831 0.60736 0.48391 0.0
H1049 H 0.58328 0.63463 0.49371 0.0
H1050 H 0.49367 0.65164 0.46734 0.0
H1051 H 0.50193 0.64218 0.44252 0.0
H1052 H 0.49197 0.62362 0.46229 0.0
H1053 H 0.59475 0.66762 0.47992 0.0
H1054 H 0.58083 0.67488 0.45532 0.0
H1055 H 0.57364 0.68588 0.47989 0.0
H1056 H 0.53947 0.69934 0.40685 0.0
H1057 H 0.5196 0.72415 0.46567 0.0
H1058 H 0.53523 0.64463 0.42265 0.0
H1059 H 0.56232 0.65627 0.42506 0.0
H1060 H 0.54482 0.66314 0.40266 0.0
H1061 H 0.51222 0.67501 0.49317 0.0
H1062 H 0.51567 0.70329 0.49645 0.0
H1063 H 0.53862 0.68725 0.49916 0.0
C1064 C 0.87267 0.76114 0.71591 0.0
C1065 C 0.88131 0.77537 0.73154 0.0
C1066 C 0.8854 0.75457 0.69964 0.0
C1067 C 0.90735 0.76232 0.69909 0.0
C1068 C 0.91612 0.77678 0.71475 0.0
C1069 C 0.903 0.78316 0.73076 0.0
C1070 C 0.87542 0.73925 0.68311 0.0
C1071 C 0.93948 0.78527 0.7148 0.0
C1072 C 0.94506 0.72929 0.66959 0.0
C1073 C 0.94627 0.74 0.64999 0.0
C1074 C 0.93271 0.73656 0.68581 0.0
C1075 C 0.92122 0.75496 0.68234 0.0
C1076 C 0.92272 0.7661 0.66277 0.0
C1077 C 0.93527 0.75852 0.64684 0.0
C1078 C 0.93166 0.72435 0.70655 0.0
C1079 C 0.9107 0.78579 0.65849 0.0
H1080 H 0.85587 0.75524 0.71633 0.0
H1081 H 0.90986 0.79392 0.74298 0.0
H1082 H 0.87701 0.74616 0.66692 0.0
H1083 H 0.88415 0.72452 0.68369 0.0
H1084 H 0.858 0.73508 0.68551 0.0
H1085 H 0.94369 0.79677 0.72784 0.0
H1086 H 0.9503 0.77204 0.71667 0.0
H1087 H 0.94283 0.79315 0.69935 0.0
H1088 H 0.95355 0.71501 0.67219 0.0
H1089 H 0.93609 0.76691 0.63175 0.0
H1090 H 0.91474 0.71829 0.70893 0.0
H1091 H 0.93674 0.73491 0.72013 0.0
H1092 H 0.94212 0.71077 0.707 0.0
H1093 H 0.89302 0.78194 0.65918 0.0
H1094 H 0.91399 0.79292 0.64265 0.0
H1095 H 0.91533 0.79775 0.67096 0.0
C1096 C 0.0162 0.87084 0.50129 0.0
C1097 C 0.03339 0.88415 0.50983 0.0
C1098 C 0.01003 0.85164 0.51125 0.0
C1099 C 0.02135 0.84556 0.53022 0.0
C1100 C 0.03802 0.85941 0.53951 0.0
C1101 C 0.04383 0.87859 0.52921 0.0
C1102 C 0.99206 0.83742 0.5009 0.0
C1103 C 0.05044 0.85349 0.55974 0.0
C1104 C 0.99616 0.79885 0.56091 0.0
C1105 C 0.0069 0.78199 0.55294 0.0
C1106 C 0.00106 0.81975 0.55413 0.0
C1107 C 0.01708 0.82389 0.53905 0.0
C1108 C 0.02836 0.80704 0.5314 0.0
C1109 C 0.02314 0.78635 0.53841 0.0
C1110 C 0.98872 0.83733 0.56266 0.0
C1111 C 0.04562 0.81079 0.51537 0.0
H1112 H 0.00784 0.87527 0.48651 0.0
H1113 H 0.05719 0.88878 0.53582 0.0
H1114 H 0.99882 0.82289 0.49506 0.0
H1115 H 0.97995 0.83245 0.51269 0.0
H1116 H 0.98368 0.84524 0.48722 0.0
H1117 H 0.06119 0.8669 0.56617 0.0
H1118 H 0.03915 0.84805 0.57212 0.0
H1119 H 0.06054 0.84018 0.55652 0.0
H1120 H 0.98364 0.79569 0.57218 0.0
H1121 H 0.03168 0.77353 0.53223 0.0
H1122 H 0.97882 0.84428 0.5495 0.0
H1123 H 1.00013 0.85017 0.56917 0.0
H1124 H 0.97782 0.83173 0.57535 0.0
H1125 H 0.03833 0.81702 0.50028 0.0
H1126 H 0.05359 0.79613 0.51177 0.0
H1127 H 0.05818 0.82283 0.5214 0.0
C1128 C 0.11985 0.70846 0.69188 0.0
C1129 C 0.13432 0.72602 0.68853 0.0
C1130 C 0.10038 0.7055 0.67947 0.0
C1131 C 0.09526 0.72053 0.66347 0.0
C1132 C 0.10946 0.73865 0.66059 0.0
C1133 C 0.1288 0.74114 0.67312 0.0
C1134 C 0.08567 0.68596 0.68297 0.0
C1135 C 0.10453 0.75514 0.64383 0.0
C1136 C 0.06055 0.70507 0.61398 0.0
C1137 C 0.04096 0.7139 0.6179 0.0
C1138 C 0.078 0.70631 0.6291 0.0
C1139 C 0.07591 0.71673 0.64865 0.0
C1140 C 0.05592 0.72492 0.65312 0.0
C1141 C 0.03864 0.72335 0.63771 0.0
C1142 C 0.09899 0.69721 0.62377 0.0
C1143 C 0.05308 0.73614 0.67379 0.0
H1144 H 0.1241 0.69668 0.70372 0.0
H1145 H 0.13974 0.75494 0.67076 0.0
H1146 H 0.06886 0.69033 0.68498 0.0
H1147 H 0.08532 0.67565 0.66876 0.0
H1148 H 0.09105 0.67674 0.69717 0.0
H1149 H 0.11659 0.76891 0.64449 0.0
H1150 H 0.10438 0.74802 0.62775 0.0
H1151 H 0.08822 0.76086 0.64584 0.0
H1152 H 0.06247 0.69752 0.59884 0.0
H1153 H 0.02357 0.73018 0.64094 0.0
H1154 H 0.10453 0.68662 0.6368 0.0
H1155 H 0.11175 0.71019 0.62223 0.0
H1156 H 0.09744 0.68817 0.60865 0.0
H1157 H 0.05852 0.72639 0.68755 0.0
H1158 H 0.03599 0.73975 0.67573 0.0
H1159 H 0.06329 0.7512 0.67427 0.0
C1160 C 0.96415 0.57271 0.52021 0.0
C1161 C 0.98188 0.56101 0.52635 0.0
C1162 C 0.96225 0.59304 0.52827 0.0
C1163 C 0.97856 0.60195 0.54271 0.0
C1164 C 0.99646 0.59018 0.54904 0.0
C1165 C 0.99786 0.56983 0.54084 0.0
C1166 C 0.94283 0.60503 0.52129 0.0
C1167 C 0.01427 0.59922 0.56425 0.0
C1168 C 0.98427 0.66181 0.54686 0.0
C1169 C 0.97395 0.66529 0.56577 0.0
C1170 C 0.98608 0.64127 0.53931 0.0
C1171 C 0.97713 0.62377 0.55082 0.0
C1172 C 0.96668 0.62714 0.56991 0.0
C1173 C 0.96526 0.64786 0.57719 0.0
C1174 C 0.99745 0.63832 0.51893 0.0
C1175 C 0.95683 0.60887 0.58254 0.0
H1176 H 0.95162 0.56585 0.50922 0.0
H1177 H 0.01172 0.56094 0.54545 0.0
H1178 H 0.93412 0.60951 0.53541 0.0
H1179 H 0.94819 0.61988 0.51305 0.0
H1180 H 0.93132 0.59567 0.51036 0.0
H1181 H 0.02691 0.58789 0.56787 0.0
H1182 H 0.02206 0.6138 0.55731 0.0
H1183 H 0.00742 0.60371 0.57942 0.0
H1184 H 0.99081 0.67514 0.53778 0.0
H1185 H 0.95719 0.6504 0.59178 0.0
H1186 H 0.98604 0.63045 0.50686 0.0
H1187 H 0.01098 0.62788 0.5219 0.0
H1188 H 0.00401 0.65354 0.51218 0.0
H1189 H 0.94427 0.59982 0.57249 0.0
H1190 H 0.94932 0.61415 0.5971 0.0
H1191 H 0.96941 0.59786 0.58734 0.0
C1192 C 0.76316 0.92102 0.19268 0.0
C1193 C 0.75326 0.90883 0.20869 0.0
C1194 C 0.78205 0.93396 0.19724 0.0
C1195 C 0.79123 0.9348 0.21834 0.0
C1196 C 0.78111 0.92282 0.23465 0.0
C1197 C 0.76227 0.90994 0.22962 0.0
C1198 C 0.79245 0.9464 0.17939 0.0
C1199 C 0.79033 0.92342 0.25737 0.0
C1200 C 0.85129 0.95055 0.22584 0.0
C1201 C 0.85124 0.9719 0.23157 0.0
C1202 C 0.83188 0.93831 0.22159 0.0
C1203 C 0.81187 0.94759 0.22316 0.0
C1204 C 0.81165 0.96907 0.22908 0.0
C1205 C 0.83132 0.98098 0.23317 0.0
C1206 C 0.83279 0.91547 0.21526 0.0
C1207 C 0.79061 0.97948 0.23099 0.0
H1208 H 0.75642 0.92003 0.17643 0.0
H1209 H 0.75452 0.90076 0.2421 0.0
H1210 H 0.79435 0.96343 0.18346 0.0
H1211 H 0.80889 0.94105 0.17724 0.0
H1212 H 0.78287 0.94459 0.16401 0.0
H1213 H 0.78008 0.91378 0.26832 0.0
H1214 H 0.80676 0.9174 0.25812 0.0
H1215 H 0.79201 0.93995 0.26316 0.0
H1216 H 0.86654 0.94334 0.22452 0.0
H1217 H 0.83107 0.99744 0.23761 0.0
H1218 H 0.82471 0.91287 0.19925 0.0
H1219 H 0.82392 0.90503 0.22662 0.0
H1220 H 0.84966 0.9106 0.21488 0.0
H1221 H 0.78127 0.97892 0.21544 0.0
H1222 H 0.79321 0.99624 0.23605 0.0
H1223 H 0.78053 0.97075 0.24271 0.0
C1224 C 0.76264 0.13844 0.25778 0.0
C1225 C 0.7701 0.15722 0.24773 0.0
C1226 C 0.77516 0.12072 0.25888 0.0
C1227 C 0.79559 0.1218 0.24964 0.0
C1228 C 0.80333 0.1408 0.23975 0.0
C1229 C 0.79054 0.15826 0.23898 0.0
C1230 C 0.76639 0.10075 0.26959 0.0
C1231 C 0.82503 0.14261 0.22971 0.0
C1232 C 0.83861 0.08332 0.26411 0.0
C1233 C 0.83686 0.06994 0.24635 0.0
C1234 C 0.82466 0.09976 0.26588 0.0
C1235 C 0.80864 0.1029 0.24948 0.0
C1236 C 0.80618 0.08886 0.23201 0.0
C1237 C 0.82028 0.07254 0.23069 0.0
C1238 C 0.82766 0.1143 0.28484 0.0
C1239 C 0.78929 0.09164 0.21421 0.0
H1240 H 0.74679 0.13742 0.26442 0.0
H1241 H 0.79663 0.17283 0.23156 0.0
H1242 H 0.76391 0.08784 0.25775 0.0
H1243 H 0.77824 0.09561 0.28209 0.0
H1244 H 0.75076 0.10283 0.27699 0.0
H1245 H 0.82889 0.15864 0.22304 0.0
H1246 H 0.83804 0.13895 0.2417 0.0
H1247 H 0.82519 0.13092 0.2167 0.0
H1248 H 0.85129 0.08137 0.27635 0.0
H1249 H 0.81868 0.06221 0.21697 0.0
H1250 H 0.81196 0.11592 0.29222 0.0
H1251 H 0.8336 0.13029 0.27954 0.0
H1252 H 0.83942 0.10856 0.29716 0.0
H1253 H 0.77311 0.09268 0.22077 0.0
H1254 H 0.78839 0.07847 0.20259 0.0
H1255 H 0.79314 0.10667 0.20557 0.0
C1256 C 0.37563 0.94005 0.99467 0.0
C1257 C 0.38926 0.93598 0.97825 0.0
C1258 C 0.35631 0.92763 0.99722 0.0
C1259 C 0.35034 0.911 0.98276 0.0
C1260 C 0.36349 0.90762 0.96544 0.0
C1261 C 0.38294 0.92 0.96354 0.0
C1262 C 0.34298 0.9315 0.0161 0.0
C1263 C 0.35747 0.89034 0.94943 0.0
C1264 C 0.31769 0.8624 0.00194 0.0
C1265 C 0.29677 0.86593 0.99375 0.0
C1266 C 0.3351 0.87721 0.99888 0.0
C1267 C 0.33162 0.89583 0.98692 0.0
C1268 C 0.31051 0.89959 0.97871 0.0
C1269 C 0.29324 0.88468 0.98244 0.0
C1270 C 0.35727 0.8728 0.00831 0.0
C1271 C 0.30627 0.91909 0.96557 0.0
H1272 H 0.38064 0.95229 0.00617 0.0
H1273 H 0.39344 0.91697 0.95077 0.0
H1274 H 0.32572 0.93267 0.01092 0.0
H1275 H 0.34377 0.91795 0.02736 0.0
H1276 H 0.34877 0.94617 0.02475 0.0
H1277 H 0.36802 0.89136 0.93562 0.0
H1278 H 0.35892 0.87468 0.95723 0.0
H1279 H 0.34038 0.89115 0.94348 0.0
H1280 H 0.32046 0.84803 0.01087 0.0
H1281 H 0.27711 0.88741 0.97597 0.0
H1282 H 0.36382 0.88621 0.01845 0.0
H1283 H 0.36859 0.87123 0.99537 0.0
H1284 H 0.35701 0.8581 0.01811 0.0
H1285 H 0.3118 0.93352 0.97466 0.0
H1286 H 0.28885 0.91993 0.96077 0.0
H1287 H 0.31566 0.91917 0.95098 0.0
C1288 C 0.23922 0.34987 0.28543 0.0
C1289 C 0.25903 0.35772 0.29505 0.0
C1290 C 0.22292 0.36354 0.27954 0.0
C1291 C 0.22672 0.38553 0.28306 0.0
C1292 C 0.24654 0.39342 0.29314 0.0
C1293 C 0.26238 0.37942 0.29905 0.0
C1294 C 0.20188 0.35453 0.26913 0.0
C1295 C 0.25138 0.41679 0.297 0.0
C1296 C 0.20231 0.42764 0.24845 0.0
C1297 C 0.18892 0.43686 0.26263 0.0
C1298 C 0.21342 0.40978 0.2543 0.0
C1299 C 0.21098 0.40076 0.2748 0.0
C1300 C 0.19585 0.40867 0.28838 0.0
C1301 C 0.18499 0.4267 0.28214 0.0
C1302 C 0.22929 0.40182 0.23925 0.0
C1303 C 0.19246 0.3992 0.31019 0.0
H1304 H 0.23649 0.33306 0.28251 0.0
H1305 H 0.27776 0.3856 0.30623 0.0
H1306 H 0.18794 0.36052 0.2771 0.0
H1307 H 0.20065 0.35973 0.25223 0.0
H1308 H 0.20052 0.33697 0.26964 0.0
H1309 H 0.26722 0.42024 0.30578 0.0
H1310 H 0.2516 0.42539 0.28153 0.0
H1311 H 0.23851 0.42314 0.30627 0.0
H1312 H 0.20516 0.43514 0.23316 0.0
H1313 H 0.17456 0.43359 0.29316 0.0
H1314 H 0.22742 0.38435 0.23806 0.0
H1315 H 0.24606 0.40609 0.24552 0.0
H1316 H 0.22725 0.40871 0.223 0.0
H1317 H 0.19155 0.38168 0.30955 0.0
H1318 H 0.17747 0.40435 0.317 0.0
H1319 H 0.20642 0.40426 0.32112 0.0
C1320 C 0.13189 0.04613 0.48406 0.0
C1321 C 0.12707 0.02947 0.49823 0.0
C1322 C 0.14779 0.06221 0.48947 0.0
C1323 C 0.15886 0.06184 0.50974 0.0
C1324 C 0.15397 0.0451 0.52419 0.0
C1325 C 0.13827 0.02894 0.51815 0.0
C1326 C 0.15278 0.07956 0.47345 0.0
C1327 C 0.16511 0.04441 0.54609 0.0
C1328 C 0.21196 0.09548 0.51554 0.0
C1329 C 0.20499 0.11444 0.52325 0.0
C1330 C 0.19721 0.07798 0.51155 0.0
C1331 C 0.17512 0.07937 0.51584 0.0
C1332 C 0.16824 0.09815 0.52457 0.0
C1333 C 0.1832 0.11553 0.52793 0.0
C1334 C 0.20509 0.05836 0.50187 0.0
C1335 C 0.14493 0.10011 0.5298 0.0
H1336 H 0.12346 0.04635 0.46852 0.0
H1337 H 0.13451 0.01604 0.5291 0.0
H1338 H 0.14907 0.09504 0.47996 0.0
H1339 H 0.17029 0.08051 0.47033 0.0
H1340 H 0.14335 0.07704 0.45807 0.0
H1341 H 0.1595 0.03029 0.55542 0.0
H1342 H 0.18288 0.0443 0.54473 0.0
H1343 H 0.16203 0.05881 0.55506 0.0
H1344 H 0.22877 0.0946 0.51183 0.0
H1345 H 0.17778 0.13007 0.53414 0.0
H1346 H 0.19741 0.05603 0.48565 0.0
H1347 H 0.2003 0.04421 0.51148 0.0
H1348 H 0.22296 0.05933 0.50067 0.0
H1349 H 0.13454 0.09975 0.51489 0.0
H1350 H 0.14264 0.115 0.53834 0.0
H1351 H 0.13922 0.08654 0.53981 0.0
C1352 C 0.76089 0.13935 0.75591 0.0
C1353 C 0.76267 0.1451 0.73444 0.0
C1354 C 0.74504 0.12396 0.76207 0.0
C1355 C 0.73061 0.11419 0.74637 0.0
C1356 C 0.73148 0.1209 0.72485 0.0
C1357 C 0.74756 0.13624 0.71913 0.0
C1358 C 0.74471 0.11717 0.78517 0.0
C1359 C 0.71627 0.11101 0.70767 0.0
C1360 C 0.71307 0.05685 0.75654 0.0
C1361 C 0.69211 0.05814 0.76366 0.0
C1362 C 0.72555 0.07497 0.75067 0.0
C1363 C 0.71691 0.09499 0.75192 0.0
C1364 C 0.69564 0.09648 0.75882 0.0
C1365 C 0.68347 0.07798 0.76471 0.0
C1366 C 0.7482 0.07266 0.74348 0.0
C1367 C 0.6859 0.11758 0.76021 0.0
H1368 H 0.77258 0.1461 0.76779 0.0
H1369 H 0.74865 0.14095 0.70256 0.0
H1370 H 0.72795 0.11644 0.7907 0.0
H1371 H 0.75061 0.10107 0.7869 0.0
H1372 H 0.75509 0.12803 0.79572 0.0
H1373 H 0.71706 0.11992 0.69238 0.0
H1374 H 0.72056 0.09459 0.70484 0.0
H1375 H 0.69934 0.11017 0.71275 0.0
H1376 H 0.72003 0.04165 0.75595 0.0
H1377 H 0.6673 0.07908 0.77024 0.0
H1378 H 0.76016 0.08148 0.75437 0.0
H1379 H 0.74989 0.07955 0.72729 0.0
H1380 H 0.75237 0.0559 0.74313 0.0
H1381 H 0.69552 0.12771 0.772 0.0
H1382 H 0.66884 0.11597 0.76497 0.0
H1383 H 0.68646 0.1259 0.7446 0.0
C1384 C 0.3948 0.03677 0.53749 0.0
C1385 C 0.41385 0.04841 0.5445 0.0
C1386 C 0.37461 0.04566 0.53738 0.0
C1387 C 0.37347 0.06668 0.54444 0.0
C1388 C 0.39259 0.07838 0.55185 0.0
C1389 C 0.41251 0.0691 0.55181 0.0
C1390 C 0.35458 0.03271 0.52936 0.0
C1391 C 0.39205 0.10081 0.5596 0.0
C1392 C 0.32739 0.1001 0.52597 0.0
C1393 C 0.31515 0.10013 0.54418 0.0
C1394 C 0.34595 0.08859 0.52554 0.0
C1395 C 0.35242 0.07677 0.54373 0.0
C1396 C 0.33958 0.07592 0.56178 0.0
C1397 C 0.3211 0.08761 0.56179 0.0
C1398 C 0.35916 0.08984 0.50594 0.0
C1399 C 0.34587 0.06338 0.58143 0.0
H1400 H 0.39574 0.02085 0.53161 0.0
H1401 H 0.42711 0.07807 0.55756 0.0
H1402 H 0.34225 0.03199 0.54161 0.0
H1403 H 0.34735 0.04036 0.51499 0.0
H1404 H 0.35809 0.01632 0.52524 0.0
H1405 H 0.40831 0.10761 0.56518 0.0
H1406 H 0.38567 0.11096 0.54658 0.0
H1407 H 0.38098 0.10135 0.57291 0.0
H1408 H 0.32288 0.10963 0.51224 0.0
H1409 H 0.3117 0.08743 0.5759 0.0
H1410 H 0.36224 0.07374 0.50057 0.0
H1411 H 0.37514 0.09823 0.50985 0.0
H1412 H 0.35105 0.09832 0.49255 0.0
H1413 H 0.3489 0.04696 0.57707 0.0
H1414 H 0.33321 0.06284 0.59337 0.0
H1415 H 0.36114 0.07061 0.58896 0.0
C1416 C 0.62729 0.4776 0.49661 0.0
C1417 C 0.62294 0.47817 0.51831 0.0
C1418 C 0.63869 0.46127 0.48846 0.0
C1419 C 0.64585 0.44517 0.50235 0.0
C1420 C 0.64109 0.44544 0.52416 0.0
C1421 C 0.62969 0.46191 0.53185 0.0
C1422 C 0.64344 0.46147 0.46512 0.0
C1423 C 0.64829 0.42847 0.53948 0.0
C1424 C 0.66042 0.3914 0.48396 0.0
C1425 C 0.68307 0.3931 0.48688 0.0
C1426 C 0.64808 0.40867 0.48766 0.0
C1427 C 0.65866 0.4281 0.49442 0.0
C1428 C 0.68158 0.43035 0.4959 0.0
C1429 C 0.69352 0.41282 0.49209 0.0
C1430 C 0.62369 0.40567 0.48571 0.0
C1431 C 0.69347 0.45087 0.50291 0.0
H1432 H 0.62228 0.49024 0.48611 0.0
H1433 H 0.62606 0.46208 0.54855 0.0
H1434 H 0.6612 0.46326 0.46336 0.0
H1435 H 0.63753 0.44623 0.45768 0.0
H1436 H 0.63584 0.47452 0.45623 0.0
H1437 H 0.64299 0.43082 0.55588 0.0
H1438 H 0.64169 0.4127 0.53384 0.0
H1439 H 0.66621 0.42834 0.54014 0.0
H1440 H 0.65219 0.37629 0.47974 0.0
H1441 H 0.71102 0.41435 0.49423 0.0
H1442 H 0.61679 0.41898 0.47668 0.0
H1443 H 0.61714 0.40553 0.50184 0.0
H1444 H 0.61807 0.39062 0.47767 0.0
H1445 H 0.68707 0.46437 0.4938 0.0
H1446 H 0.71117 0.45083 0.50082 0.0
H1447 H 0.69087 0.45353 0.52001 0.0
C1448 C 0.73875 0.28269 0.33991 0.0
C1449 C 0.71875 0.27568 0.33006 0.0
C1450 C 0.74016 0.29047 0.36079 0.0
C1451 C 0.72116 0.29088 0.37235 0.0
C1452 C 0.70087 0.28419 0.36246 0.0
C1453 C 0.69989 0.27684 0.34139 0.0
C1454 C 0.76209 0.29766 0.3707 0.0
C1455 C 0.6803 0.28418 0.37437 0.0
C1456 C 0.73074 0.28729 0.43229 0.0
C1457 C 0.7297 0.30838 0.43848 0.0
C1458 C 0.72718 0.2813 0.41092 0.0
C1459 C 0.72287 0.29686 0.39525 0.0
C1460 C 0.72136 0.31813 0.4014 0.0
C1461 C 0.72458 0.32362 0.42302 0.0
C1462 C 0.72853 0.25838 0.40507 0.0
C1463 C 0.71712 0.3352 0.38509 0.0
H1464 H 0.7535 0.28156 0.33154 0.0
H1465 H 0.6843 0.27187 0.33384 0.0
H1466 H 0.7616 0.31365 0.37764 0.0
H1467 H 0.76655 0.28676 0.38388 0.0
H1468 H 0.77498 0.29813 0.35899 0.0
H1469 H 0.66569 0.27949 0.36409 0.0
H1470 H 0.68117 0.273 0.38805 0.0
H1471 H 0.67842 0.30008 0.38096 0.0
H1472 H 0.73444 0.27539 0.4442 0.0
H1473 H 0.72384 0.33996 0.42772 0.0
H1474 H 0.74247 0.25676 0.39492 0.0
H1475 H 0.7137 0.25263 0.39568 0.0
H1476 H 0.73051 0.24804 0.41932 0.0
H1477 H 0.73079 0.33697 0.37431 0.0
H1478 H 0.71519 0.35072 0.39257 0.0
H1479 H 0.70231 0.33073 0.37507 0.0
C1480 C 0.54912 0.9676 0.90654 0.0
C1481 C 0.53332 0.98222 0.90857 0.0
C1482 C 0.56365 0.96944 0.89008 0.0
C1483 C 0.56232 0.98628 0.8752 0.0
C1484 C 0.5457 0.00045 0.87649 0.0
C1485 C 0.53141 0.99827 0.89318 0.0
C1486 C 0.58109 0.95396 0.88926 0.0
C1487 C 0.5437 0.01857 0.86089 0.0
C1488 C 0.61502 0.00679 0.85184 0.0
C1489 C 0.61358 0.99756 0.83156 0.0
C1490 C 0.59837 0.00334 0.86603 0.0
C1491 C 0.5797 0.99036 0.85983 0.0
C1492 C 0.578 0.98109 0.83933 0.0
C1493 C 0.595 0.98477 0.82542 0.0
C1494 C 0.60089 0.01349 0.88777 0.0
C1495 C 0.55828 0.96723 0.83215 0.0
H1496 H 0.55042 0.9549 0.91812 0.0
H1497 H 0.51934 0.00971 0.89468 0.0
H1498 H 0.58148 0.94739 0.87299 0.0
H1499 H 0.59714 0.96227 0.89304 0.0
H1500 H 0.57871 0.94067 0.90075 0.0
H1501 H 0.5285 0.02666 0.86252 0.0
H1502 H 0.55762 0.03033 0.86363 0.0
H1503 H 0.54416 0.01289 0.84428 0.0
H1504 H 0.62927 0.01672 0.85677 0.0
H1505 H 0.59373 0.97763 0.80976 0.0
H1506 H 0.60039 0.00109 0.90037 0.0
H1507 H 0.58725 0.02358 0.89009 0.0
H1508 H 0.61631 0.02335 0.89003 0.0
H1509 H 0.55646 0.9533 0.84289 0.0
H1510 H 0.55921 0.9616 0.81555 0.0
H1511 H 0.5435 0.97606 0.83315 0.0
C1512 C 0.31407 0.23854 0.39789 0.0
C1513 C 0.30886 0.23392 0.37639 0.0
C1514 C 0.30574 0.22565 0.41418 0.0
C1515 C 0.29195 0.20756 0.40887 0.0
C1516 C 0.28727 0.20232 0.38719 0.0
C1517 C 0.29567 0.21568 0.37116 0.0
C1518 C 0.31099 0.23193 0.4371 0.0
C1519 C 0.2729 0.183 0.38094 0.0
C1520 C 0.28379 0.17099 0.45634 0.0
C1521 C 0.26507 0.17852 0.4645 0.0
C1522 C 0.29194 0.17917 0.43724 0.0
C1523 C 0.28121 0.19534 0.42618 0.0
C1524 C 0.26146 0.20182 0.43347 0.0
C1525 C 0.25359 0.19326 0.45245 0.0
C1526 C 0.31281 0.17155 0.42973 0.0
C1527 C 0.24949 0.21901 0.42215 0.0
H1528 H 0.32399 0.25278 0.40203 0.0
H1529 H 0.29177 0.21196 0.35455 0.0
H1530 H 0.29594 0.23572 0.44471 0.0
H1531 H 0.31779 0.21861 0.44618 0.0
H1532 H 0.32276 0.24591 0.43851 0.0
H1533 H 0.27286 0.17981 0.36357 0.0
H1534 H 0.27824 0.16889 0.38982 0.0
H1535 H 0.25605 0.18524 0.38519 0.0
H1536 H 0.29268 0.15945 0.46536 0.0
H1537 H 0.23897 0.19903 0.45841 0.0
H1538 H 0.32615 0.18379 0.43309 0.0
H1539 H 0.31166 0.16894 0.41225 0.0
H1540 H 0.31713 0.15665 0.43785 0.0
H1541 H 0.25907 0.23435 0.42411 0.0
H1542 H 0.23326 0.22062 0.4285 0.0
H1543 H 0.24745 0.21579 0.40482 0.0
C1544 C 0.46199 0.49861 0.90688 0.0
C1545 C 0.48426 0.50224 0.90396 0.0
C1546 C 0.44662 0.50182 0.89011 0.0
C1547 C 0.45373 0.50871 0.86998 0.0
C1548 C 0.47606 0.51373 0.86739 0.0
C1549 C 0.49101 0.5104 0.88436 0.0
C1550 C 0.42294 0.4966 0.89361 0.0
C1551 C 0.48438 0.52118 0.8462 0.0
C1552 C 0.42686 0.49013 0.81769 0.0
C1553 C 0.41898 0.50887 0.80931 0.0
C1554 C 0.43661 0.48942 0.83825 0.0
C1555 C 0.43861 0.50796 0.85078 0.0
C1556 C 0.42889 0.52639 0.8432 0.0
C1557 C 0.41912 0.52663 0.82249 0.0
C1558 C 0.44645 0.46931 0.84579 0.0
C1559 C 0.43038 0.54636 0.85621 0.0
H1560 H 0.4566 0.49262 0.92208 0.0
H1561 H 0.50814 0.51301 0.88178 0.0
H1562 H 0.41286 0.50871 0.88608 0.0
H1563 H 0.41778 0.48121 0.88606 0.0
H1564 H 0.4197 0.4954 0.91083 0.0
H1565 H 0.50187 0.52638 0.8474 0.0
H1566 H 0.48198 0.50812 0.8345 0.0
H1567 H 0.47521 0.5345 0.83984 0.0
H1568 H 0.42646 0.47623 0.8077 0.0
H1569 H 0.41301 0.54117 0.81614 0.0
H1570 H 0.44189 0.4653 0.86226 0.0
H1571 H 0.46437 0.47164 0.84601 0.0
H1572 H 0.4413 0.4557 0.83529 0.0
H1573 H 0.42763 0.54276 0.87322 0.0
H1574 H 0.41849 0.55766 0.8502 0.0
H1575 H 0.44687 0.55419 0.85538 0.0
C1576 C 0.68673 0.75442 0.13552 0.0
C1577 C 0.70239 0.76897 0.14489 0.0
C1578 C 0.69277 0.73715 0.12386 0.0
C1579 C 0.71497 0.73458 0.12116 0.0
C1580 C 0.73086 0.74861 0.13136 0.0
C1581 C 0.72438 0.7655 0.14325 0.0
C1582 C 0.67535 0.72232 0.1135 0.0
C1583 C 0.75472 0.74651 0.12876 0.0
C1584 C 0.73518 0.68486 0.09752 0.0
C1585 C 0.7374 0.69109 0.07621 0.0
C1586 C 0.72712 0.69853 0.11229 0.0
C1587 C 0.72157 0.71897 0.10561 0.0
C1588 C 0.72333 0.7251 0.08401 0.0
C1589 C 0.73106 0.71105 0.06959 0.0
C1590 C 0.72504 0.69132 0.13511 0.0
C1591 C 0.71782 0.74683 0.07624 0.0
H1592 H 0.66969 0.75696 0.13651 0.0
H1593 H 0.73661 0.77631 0.15087 0.0
H1594 H 0.67449 0.72516 0.09603 0.0
H1595 H 0.67922 0.70563 0.11617 0.0
H1596 H 0.65917 0.72454 0.11967 0.0
H1597 H 0.76503 0.75765 0.13908 0.0
H1598 H 0.75905 0.73016 0.13257 0.0
H1599 H 0.75854 0.74974 0.11191 0.0
H1600 H 0.74001 0.66943 0.10272 0.0
H1601 H 0.73286 0.71608 0.0532 0.0
H1602 H 0.70862 0.69394 0.14042 0.0
H1603 H 0.7368 0.70079 0.14564 0.0
H1604 H 0.72806 0.67434 0.1373 0.0
H1605 H 0.70094 0.74972 0.07986 0.0
H1606 H 0.71959 0.74892 0.05882 0.0
H1607 H 0.72859 0.75906 0.0847 0.0
C1608 C 0.99011 0.01636 0.11222 0.0
C1609 C 0.00808 0.03026 0.11756 0.0
C1610 C 0.97269 0.01374 0.12575 0.0
C1611 C 0.97325 0.02549 0.14486 0.0
C1612 C 0.99122 0.03977 0.15009 0.0
C1613 C 0.00842 0.04192 0.13643 0.0
C1614 C 0.95388 0.99823 0.11977 0.0
C1615 C 0.99237 0.05278 0.1702 0.0
C1616 C 0.92383 0.03637 0.17516 0.0
C1617 C 0.92663 0.02345 0.19322 0.0
C1618 C 0.93811 0.03623 0.15848 0.0
C1619 C 0.95543 0.02271 0.15986 0.0
C1620 C 0.95729 0.00849 0.17726 0.0
C1621 C 0.94296 0.00912 0.19379 0.0
C1622 C 0.93559 0.05166 0.14021 0.0
C1623 C 0.97536 0.99362 0.17919 0.0
H1624 H 0.98985 0.00729 0.09766 0.0
H1625 H 0.0221 0.05297 0.1404 0.0
H1626 H 0.95252 0.98561 0.1321 0.0
H1627 H 0.93852 0.0063 0.11921 0.0
H1628 H 0.95563 0.99075 0.10408 0.0
H1629 H 0.00723 0.06358 0.17163 0.0
H1630 H 0.97805 0.06237 0.17054 0.0
H1631 H 0.99208 0.04218 0.18437 0.0
H1632 H 0.91122 0.04745 0.17455 0.0
H1633 H 0.94521 0.999 0.20759 0.0
H1634 H 0.93714 0.04375 0.12474 0.0
H1635 H 0.94867 0.06447 0.14171 0.0
H1636 H 0.91975 0.05893 0.13995 0.0
H1637 H 0.97693 0.98539 0.16389 0.0
H1638 H 0.97276 0.98158 0.19194 0.0
H1639 H 0.99093 0.0028 0.18296 0.0
C1640 C 0.28007 0.7617 0.14059 0.0
C1641 C 0.30248 0.76469 0.14505 0.0
C1642 C 0.26985 0.77272 0.12389 0.0
C1643 C 0.28236 0.78696 0.11123 0.0
C1644 C 0.30481 0.79072 0.11616 0.0
C1645 C 0.31459 0.77959 0.13307 0.0
C1646 C 0.24584 0.76836 0.1192 0.0
C1647 C 0.31866 0.80582 0.10302 0.0
C1648 C 0.2611 0.79423 0.05415 0.0
C1649 C 0.25171 0.8137 0.05506 0.0
C1650 C 0.27144 0.78558 0.07224 0.0
C1651 C 0.27223 0.79656 0.09181 0.0
C1652 C 0.26286 0.81626 0.09287 0.0
C1653 C 0.25273 0.82463 0.07445 0.0
C1654 C 0.2813 0.76453 0.07046 0.0
C1655 C 0.26329 0.82833 0.1135 0.0
H1656 H 0.2706 0.75004 0.14954 0.0
H1657 H 0.33185 0.78224 0.13663 0.0
H1658 H 0.23768 0.78341 0.11779 0.0
H1659 H 0.24307 0.76011 0.10371 0.0
H1660 H 0.23811 0.7584 0.13172 0.0
H1661 H 0.33549 0.80824 0.10995 0.0
H1662 H 0.31929 0.79954 0.08665 0.0
H1663 H 0.31148 0.82137 0.10163 0.0
H1664 H 0.26018 0.78555 0.03934 0.0
H1665 H 0.24548 0.83967 0.0753 0.0
H1666 H 0.27313 0.75273 0.08104 0.0
H1667 H 0.29867 0.76605 0.07579 0.0
H1668 H 0.27994 0.75838 0.05391 0.0
H1669 H 0.25448 0.81876 0.1256 0.0
H1670 H 0.25579 0.84372 0.11153 0.0
H1671 H 0.28022 0.83132 0.11989 0.0
C1672 C 0.06167 0.52199 0.12408 0.0
C1673 C 0.04702 0.50526 0.1175 0.0
C1674 C 0.07546 0.52014 0.14231 0.0
C1675 C 0.07474 0.50098 0.15413 0.0
C1676 C 0.05951 0.48424 0.14794 0.0
C1677 C 0.04574 0.48662 0.12972 0.0
C1678 C 0.09129 0.53845 0.14851 0.0
C1679 C 0.05839 0.46353 0.16001 0.0
C1680 C 0.12775 0.49011 0.18363 0.0
C1681 C 0.12411 0.49629 0.20447 0.0
C1682 C 0.11151 0.49077 0.16733 0.0
C1683 C 0.09113 0.49801 0.17188 0.0
C1684 C 0.08705 0.50362 0.19302 0.0
C1685 C 0.10357 0.50257 0.20912 0.0
C1686 C 0.11643 0.48437 0.14507 0.0
C1687 C 0.06557 0.51154 0.19844 0.0
H1688 H 0.06247 0.53653 0.11482 0.0
H1689 H 0.03453 0.4736 0.12459 0.0
H1690 H 0.08989 0.54247 0.16552 0.0
H1691 H 0.10808 0.53394 0.14663 0.0
H1692 H 0.08865 0.55278 0.13864 0.0
H1693 H 0.04448 0.45277 0.15425 0.0
H1694 H 0.07354 0.45547 0.1582 0.0
H1695 H 0.057 0.46632 0.17728 0.0
H1696 H 0.14349 0.48501 0.17993 0.0
H1697 H 0.10064 0.50742 0.22516 0.0
H1698 H 0.1162 0.49834 0.13429 0.0
H1699 H 0.10383 0.47249 0.13875 0.0
H1700 H 0.13249 0.47764 0.1445 0.0
H1701 H 0.06336 0.52694 0.19035 0.0
H1702 H 0.06436 0.51367 0.21587 0.0
H1703 H 0.05208 0.50038 0.19257 0.0
C1704 C 0.4037 0.71065 0.29789 0.0
C1705 C 0.39504 0.72625 0.28461 0.0
C1706 C 0.41693 0.71607 0.31603 0.0
C1707 C 0.42136 0.73762 0.32129 0.0
C1708 C 0.41221 0.75346 0.30835 0.0
C1709 C 0.39927 0.7476 0.29009 0.0
C1710 C 0.42649 0.6987 0.32937 0.0
C1711 C 0.41639 0.77661 0.3136 0.0
C1712 C 0.44242 0.74914 0.37816 0.0
C1713 C 0.46477 0.75244 0.37566 0.0
C1714 C 0.42801 0.74486 0.36052 0.0
C1715 C 0.43619 0.74353 0.33996 0.0
C1716 C 0.45869 0.74703 0.33731 0.0
C1717 C 0.47268 0.75159 0.35515 0.0
C1718 C 0.40407 0.74154 0.36391 0.0
C1719 C 0.46807 0.74547 0.31568 0.0
H1720 H 0.40015 0.6941 0.2941 0.0
H1721 H 0.39287 0.75979 0.27984 0.0
H1722 H 0.44444 0.70067 0.32967 0.0
H1723 H 0.42164 0.69972 0.34607 0.0
H1724 H 0.42131 0.6827 0.3232 0.0
H1725 H 0.40701 0.78689 0.30268 0.0
H1726 H 0.41212 0.77954 0.33021 0.0
H1727 H 0.43387 0.7813 0.31251 0.0
H1728 H 0.43615 0.74993 0.39392 0.0
H1729 H 0.48993 0.75403 0.35306 0.0
H1730 H 0.39826 0.72516 0.35947 0.0
H1731 H 0.39494 0.75239 0.35346 0.0
H1732 H 0.4002 0.74421 0.38072 0.0
H1733 H 0.46455 0.72926 0.30933 0.0
H1734 H 0.48588 0.74911 0.31625 0.0
H1735 H 0.46041 0.75653 0.30428 0.0
C1736 C 0.9788 0.42118 0.97114 0.0
C1737 C 0.99046 0.42548 0.99051 0.0
C1738 C 0.97936 0.4015 0.96117 0.0
C1739 C 0.99199 0.38583 0.97074 0.0
C1740 C 0.00383 0.39012 0.99025 0.0
C1741 C 0.00288 0.40987 -8e-05 0.0
C1742 C 0.9664 0.39743 0.94045 0.0
C1743 C 0.01763 0.37389 0.00089 0.0
C1744 C 0.98098 0.32755 0.95823 0.0
C1745 C 0.99767 0.32396 0.94465 0.0
C1746 C 0.9784 0.34781 0.96616 0.0
C1747 C 0.99292 0.36488 0.96048 0.0
C1748 C 0.00925 0.36156 0.94613 0.0
C1749 C 0.01139 0.34116 0.93832 0.0
C1750 C 0.96065 0.35077 0.98126 0.0
C1751 C 0.02506 0.37937 0.93971 0.0
H1752 H 0.96903 0.43315 0.96391 0.0
H1753 H 0.01218 0.41323 0.01471 0.0
H1754 H 0.9773 0.3935 0.92779 0.0
H1755 H 0.95466 0.38361 0.94228 0.0
H1756 H 0.95738 0.41126 0.93511 0.0
H1757 H 0.02591 0.37975 0.01599 0.0
H1758 H 0.00747 0.35933 0.00441 0.0
H1759 H 0.03009 0.36943 0.98997 0.0
H1760 H 0.97017 0.31444 0.96309 0.0
H1761 H 0.02431 0.33859 0.92782 0.0
H1762 H 0.95095 0.36408 0.97583 0.0
H1763 H 0.96791 0.35485 0.99733 0.0
H1764 H 0.94962 0.33633 0.98269 0.0
H1765 H 0.01626 0.39305 0.93366 0.0
H1766 H 0.03581 0.37453 0.92724 0.0
H1767 H 0.0353 0.38482 0.95386 0.0
C1768 C 0.59835 0.82736 0.25997 0.0
C1769 C 0.62102 0.82906 0.26272 0.0
C1770 C 0.58535 0.82059 0.27672 0.0
C1771 C 0.59527 0.81514 0.29662 0.0
C1772 C 0.61809 0.81725 0.29967 0.0
C1773 C 0.63068 0.82431 0.28273 0.0
C1774 C 0.56105 0.81869 0.27293 0.0
C1775 C 0.62926 0.8115 0.32065 0.0
C1776 C 0.5628 0.81039 0.3464 0.0
C1777 C 0.55835 0.78844 0.34782 0.0
C1778 C 0.57439 0.81939 0.32954 0.0
C1779 C 0.58189 0.8061 0.31391 0.0
C1780 C 0.57717 0.78397 0.31509 0.0
C1781 C 0.56535 0.77543 0.33195 0.0
C1782 C 0.57886 0.84308 0.32861 0.0
C1783 C 0.58504 0.76926 0.29881 0.0
H1784 H 0.59073 0.83073 0.24452 0.0
H1785 H 0.64815 0.82595 0.28512 0.0
H1786 H 0.55509 0.80182 0.27379 0.0
H1787 H 0.55321 0.82716 0.28553 0.0
H1788 H 0.55581 0.82515 0.25714 0.0
H1789 H 0.6471 0.81473 0.32065 0.0
H1790 H 0.62298 0.82048 0.33381 0.0
H1791 H 0.62574 0.79444 0.32409 0.0
H1792 H 0.55734 0.82054 0.35855 0.0
H1793 H 0.56202 0.75846 0.33294 0.0
H1794 H 0.57301 0.84929 0.31293 0.0
H1795 H 0.59657 0.84706 0.33018 0.0
H1796 H 0.571 0.85128 0.3414 0.0
H1797 H 0.57907 0.77377 0.28256 0.0
H1798 H 0.57962 0.75247 0.30177 0.0
H1799 H 0.60299 0.77062 0.29906 0.0
C1800 C 0.06717 0.14107 0.00141 0.0
C1801 C 0.055 0.12163 0.00129 0.0
C1802 C 0.06106 0.15778 0.98818 0.0
C1803 C 0.04227 0.15501 0.97446 0.0
C1804 C 0.03003 0.13534 0.97402 0.0
C1805 C 0.03659 0.11881 0.98743 0.0
C1806 C 0.07469 0.17845 0.98901 0.0
C1807 C 0.00989 0.13187 0.95964 0.0
C1808 C 0.01993 0.20718 0.95786 0.0
C1809 C 0.02976 0.21114 0.93846 0.0
C1810 C 0.02266 0.18825 0.96914 0.0
C1811 C 0.03559 0.17298 0.96083 0.0
C1812 C 0.04432 0.17627 0.94058 0.0
C1813 C 0.04128 0.19532 0.92962 0.0
C1814 C 0.01293 0.18523 0.99061 0.0
C1815 C 0.05812 0.16034 0.93113 0.0
H1816 H 0.08161 0.14318 0.01185 0.0
H1817 H 0.02705 0.10384 0.98741 0.0
H1818 H 0.08047 0.18254 0.97295 0.0
H1819 H 0.06476 0.19137 0.99384 0.0
H1820 H 0.08896 0.1779 0.00037 0.0
H1821 H 0.00255 0.11545 0.96071 0.0
H1822 H 0.99771 0.14295 0.96395 0.0
H1823 H 0.01373 0.13529 0.94283 0.0
H1824 H 0.01092 0.21927 0.96476 0.0
H1825 H 0.0488 0.19818 0.91455 0.0
H1826 H 0.02599 0.18663 0.00335 0.0
H1827 H 0.00473 0.16921 0.99193 0.0
H1828 H 0.00107 0.19716 0.99353 0.0
H1829 H 0.07387 0.16033 0.94034 0.0
H1830 H 0.06132 0.16394 0.91419 0.0
H1831 H 0.05021 0.14417 0.93218 0.0
C1832 C 0.37518 0.26679 0.22214 0.0
C1833 C 0.38457 0.27981 0.23848 0.0
C1834 C 0.38749 0.26038 0.20547 0.0
C1835 C 0.40973 0.26709 0.20518 0.0
C1836 C 0.41927 0.28035 0.22154 0.0
C1837 C 0.40657 0.28655 0.23799 0.0
C1838 C 0.37671 0.24632 0.18823 0.0
C1839 C 0.44295 0.28776 0.22184 0.0
C1840 C 0.44527 0.23365 0.17351 0.0
C1841 C 0.44676 0.24518 0.1544 0.0
C1842 C 0.43357 0.24079 0.1903 0.0
C1843 C 0.42309 0.25991 0.18792 0.0
C1844 C 0.42495 0.27188 0.16887 0.0
C1845 C 0.43679 0.26439 0.15235 0.0
C1846 C 0.43206 0.22765 0.21042 0.0
C1847 C 0.41405 0.29238 0.16577 0.0
H1848 H 0.35813 0.26173 0.2223 0.0
H1849 H 0.41401 0.29637 0.25073 0.0
H1850 H 0.37852 0.25399 0.17241 0.0
H1851 H 0.3847 0.23118 0.18791 0.0
H1852 H 0.35919 0.24277 0.1906 0.0
H1853 H 0.44777 0.29842 0.23543 0.0
H1854 H 0.45304 0.27393 0.22292 0.0
H1855 H 0.44663 0.29624 0.20678 0.0
H1856 H 0.45296 0.21883 0.17528 0.0
H1857 H 0.43787 0.27342 0.13765 0.0
H1858 H 0.41493 0.22222 0.21268 0.0
H1859 H 0.43772 0.23735 0.22448 0.0
H1860 H 0.4418 0.21357 0.21007 0.0
H1861 H 0.39625 0.28934 0.16638 0.0
H1862 H 0.41768 0.30017 0.15032 0.0
H1863 H 0.41931 0.30347 0.17886 0.0
C1864 C 0.5389 0.38551 0.0301 0.0
C1865 C 0.52786 0.3906 0.0109 0.0
C1866 C 0.53356 0.36651 0.04094 0.0
C1867 C 0.51677 0.35236 0.03235 0.0
C1868 C 0.5048 0.35802 0.01361 0.0
C1869 C 0.51049 0.37705 0.00313 0.0
C1870 C 0.54666 0.36106 0.06091 0.0
C1871 C 0.48668 0.34347 0.004 0.0
C1872 C 0.51961 0.29331 0.04072 0.0
C1873 C 0.50379 0.28879 0.05565 0.0
C1874 C 0.52442 0.31402 0.03358 0.0
C1875 C 0.51314 0.33074 0.0415 0.0
C1876 C 0.49761 0.32647 0.05704 0.0
C1877 C 0.49312 0.30553 0.06395 0.0
C1878 C 0.54116 0.3179 0.01704 0.0
C1879 C 0.48532 0.34391 0.06588 0.0
H1880 H 0.55238 0.3959 0.03613 0.0
H1881 H 0.50166 0.38112 0.98849 0.0
H1882 H 0.53584 0.3555 0.07364 0.0
H1883 H 0.55699 0.34798 0.05752 0.0
H1884 H 0.55726 0.37475 0.06695 0.0
H1885 H 0.47772 0.35103 0.99052 0.0
H1886 H 0.49343 0.32898 0.99805 0.0
H1887 H 0.47507 0.33848 0.01625 0.0
H1888 H 0.52811 0.28058 0.03431 0.0
H1889 H 0.48092 0.30225 0.07553 0.0
H1890 H 0.55368 0.33018 0.02266 0.0
H1891 H 0.53335 0.32387 0.00209 0.0
H1892 H 0.54928 0.30336 0.01333 0.0
H1893 H 0.49673 0.35702 0.07183 0.0
H1894 H 0.47507 0.33828 0.07908 0.0
H1895 H 0.47476 0.35051 0.05303 0.0
C1896 C 0.62327 0.24281 0.18312 0.0
C1897 C 0.62964 0.22505 0.19471 0.0
C1898 C 0.60482 0.2416 0.1692 0.0
C1899 C 0.5924 0.22214 0.16679 0.0
C1900 C 0.59839 0.20427 0.17884 0.0
C1901 C 0.61698 0.20592 0.19263 0.0
C1902 C 0.59905 0.261 0.15656 0.0
C1903 C 0.58546 0.18329 0.17679 0.0
C1904 C 0.53602 0.22459 0.14037 0.0
C1905 C 0.5397 0.21971 0.11914 0.0
C1906 C 0.55288 0.22491 0.1562 0.0
C1907 C 0.57393 0.2203 0.15068 0.0
C1908 C 0.57764 0.21489 0.12942 0.0
C1909 C 0.56051 0.21464 0.11394 0.0
C1910 C 0.54829 0.23067 0.17873 0.0
C1911 C 0.59986 0.20988 0.12289 0.0
H1912 H 0.63314 0.25756 0.18439 0.0
H1913 H 0.62169 0.1922 0.20172 0.0
H1914 H 0.60046 0.2581 0.1393 0.0
H1915 H 0.58201 0.26442 0.1589 0.0
H1916 H 0.60969 0.2752 0.16112 0.0
H1917 H 0.59146 0.17129 0.18824 0.0
H1918 H 0.56816 0.1853 0.17948 0.0
H1919 H 0.5863 0.17717 0.16038 0.0
H1920 H 0.52001 0.22846 0.1446 0.0
H1921 H 0.56358 0.21078 0.09764 0.0
H1922 H 0.5575 0.24572 0.18318 0.0
H1923 H 0.55378 0.21834 0.19004 0.0
H1924 H 0.53081 0.23254 0.18071 0.0
H1925 H 0.61133 0.22394 0.12535 0.0
H1926 H 0.59986 0.20512 0.10591 0.0
H1927 H 0.60605 0.19692 0.13297 0.0
C1928 C 0.49582 0.07996 0.03215 0.0
C1929 C 0.47665 0.06886 0.02474 0.0
C1930 C 0.49542 0.1001 0.04117 0.0
C1931 C 0.47541 0.1095 0.04236 0.0
C1932 C 0.45602 0.09838 0.03475 0.0
C1933 C 0.45686 0.07808 0.02623 0.0
C1934 C 0.51638 0.1113 0.04948 0.0
C1935 C 0.43442 0.10802 0.03536 0.0
C1936 C 0.46958 0.15446 0.08088 0.0
C1937 C 0.47207 0.17218 0.06748 0.0
C1938 C 0.47111 0.13396 0.07303 0.0
C1939 C 0.47475 0.13114 0.05118 0.0
C1940 C 0.4773 0.14901 0.03761 0.0
C1941 C 0.47614 0.16932 0.04598 0.0
C1942 C 0.46875 0.11532 0.08808 0.0
C1943 C 0.48082 0.14664 0.01415 0.0
H1944 H 0.5111 0.07271 0.03118 0.0
H1945 H 0.44206 0.06954 0.02034 0.0
H1946 H 0.51944 0.12631 0.04058 0.0
H1947 H 0.5152 0.11543 0.0665 0.0
H1948 H 0.53045 0.10152 0.04803 0.0
H1949 H 0.42088 0.09735 0.02865 0.0
H1950 H 0.43105 0.11183 0.05202 0.0
H1951 H 0.43484 0.12308 0.02617 0.0
H1952 H 0.46656 0.15661 0.09755 0.0
H1953 H 0.47794 0.18297 0.03553 0.0
H1954 H 0.48307 0.10576 0.08759 0.0
H1955 H 0.45435 0.10492 0.083 0.0
H1956 H 0.46698 0.12026 0.10479 0.0
H1957 H 0.4956 0.1381 0.01198 0.0
H1958 H 0.48253 0.16214 0.00577 0.0
H1959 H 0.46699 0.13707 0.00646 0.0
C1960 C 0.27495 0.40812 0.69448 0.0
C1961 C 0.26124 0.40203 0.7109 0.0
C1962 C 0.29331 0.42199 0.69832 0.0
C1963 C 0.29827 0.42976 0.71916 0.0
C1964 C 0.2846 0.42363 0.73585 0.0
C1965 C 0.26619 0.40995 0.73149 0.0
C1966 C 0.30744 0.42825 0.68009 0.0
C1967 C 0.28946 0.43149 0.75831 0.0
C1968 C 0.35655 0.44941 0.73257 0.0
C1969 C 0.35542 0.47141 0.73099 0.0
C1970 C 0.33802 0.43569 0.72904 0.0
C1971 C 0.31791 0.44416 0.72352 0.0
C1972 C 0.31663 0.46633 0.72189 0.0
C1973 C 0.33537 0.4797 0.72577 0.0
C1974 C 0.33998 0.41213 0.73118 0.0
C1975 C 0.2955 0.47593 0.71581 0.0
H1976 H 0.27151 0.40183 0.6786 0.0
H1977 H 0.25554 0.40562 0.74422 0.0
H1978 H 0.30886 0.44572 0.67834 0.0
H1979 H 0.32401 0.42303 0.68348 0.0
H1980 H 0.301 0.42128 0.66471 0.0
H1981 H 0.27734 0.42504 0.76954 0.0
H1982 H 0.30572 0.42697 0.76414 0.0
H1983 H 0.28976 0.449 0.75856 0.0
H1984 H 0.37193 0.44285 0.73674 0.0
H1985 H 0.33434 0.49667 0.72442 0.0
H1986 H 0.33521 0.40431 0.71577 0.0
H1987 H 0.32878 0.40546 0.74314 0.0
H1988 H 0.3567 0.40811 0.73608 0.0
H1989 H 0.2893 0.47014 0.6999 0.0
H1990 H 0.2972 0.49348 0.71534 0.0
H1991 H 0.28315 0.47092 0.72735 0.0
C1992 C 0.29381 0.6628 0.73608 0.0
C1993 C 0.27613 0.66479 0.74883 0.0
C1994 C 0.30755 0.64624 0.73934 0.0
C1995 C 0.3036 0.63131 0.75585 0.0
C1996 C 0.28557 0.63301 0.76858 0.0
C1997 C 0.27198 0.6497 0.76486 0.0
C1998 C 0.32647 0.64488 0.72526 0.0
C1999 C 0.28091 0.61746 0.78638 0.0
C2000 C 0.33137 0.58009 0.75074 0.0
C2001 C 0.35058 0.58432 0.76322 0.0
C2002 C 0.31545 0.59487 0.74892 0.0
C2003 C 0.31876 0.61428 0.75993 0.0
C2004 C 0.33755 0.61814 0.77346 0.0
C2005 C 0.35325 0.60314 0.77491 0.0
C2006 C 0.29563 0.59015 0.73435 0.0
C2007 C 0.34157 0.63857 0.78564 0.0
H2008 H 0.29689 0.67425 0.72347 0.0
H2009 H 0.25845 0.65129 0.77488 0.0
H2010 H 0.34187 0.64639 0.73508 0.0
H2011 H 0.32563 0.62923 0.71739 0.0
H2012 H 0.32692 0.6574 0.71276 0.0
H2013 H 0.26577 0.62047 0.79427 0.0
H2014 H 0.27951 0.60108 0.78016 0.0
H2015 H 0.29455 0.61841 0.79855 0.0
H2016 H 0.3291 0.56557 0.74171 0.0
H2017 H 0.36795 0.60649 0.78471 0.0
H2018 H 0.29618 0.60094 0.72034 0.0
H2019 H 0.28073 0.59298 0.74267 0.0
H2020 H 0.29446 0.57359 0.72856 0.0
H2021 H 0.34431 0.65188 0.77428 0.0
H2022 H 0.35588 0.63829 0.797 0.0
H2023 H 0.32719 0.64179 0.79463 0.0
C2024 C 0.89366 0.41975 0.50701 0.0
C2025 C 0.90163 0.4275 0.48773 0.0
C2026 C 0.87352 0.40836 0.50756 0.0
C2027 C 0.861 0.40457 0.48834 0.0
C2028 C 0.86864 0.41287 0.46888 0.0
C2029 C 0.88887 0.42429 0.46881 0.0
C2030 C 0.86589 0.3999 0.52866 0.0
C2031 C 0.85577 0.40911 0.44806 0.0
C2032 C 0.82245 0.35554 0.48872 0.0
C2033 C 0.80263 0.36402 0.49246 0.0
C2034 C 0.84139 0.36863 0.4867 0.0
C2035 C 0.8406 0.39079 0.48856 0.0
C2036 C 0.82059 0.39955 0.49179 0.0
C2037 C 0.80182 0.38606 0.49364 0.0
C2038 C 0.86239 0.35867 0.48313 0.0
C2039 C 0.81913 0.42311 0.4939 0.0
H2040 H 0.90328 0.42253 0.52173 0.0
H2041 H 0.895 0.43014 0.45385 0.0
H2042 H 0.84949 0.40506 0.53135 0.0
H2043 H 0.8647 0.38236 0.52844 0.0
H2044 H 0.87697 0.40523 0.54228 0.0
H2045 H 0.86321 0.41788 0.43458 0.0
H2046 H 0.85462 0.39198 0.44435 0.0
H2047 H 0.83901 0.41396 0.44935 0.0
H2048 H 0.82327 0.33856 0.4876 0.0
H2049 H 0.78661 0.39279 0.49652 0.0
H2050 H 0.8739 0.3618 0.49702 0.0
H2051 H 0.87001 0.3658 0.46891 0.0
H2052 H 0.86005 0.3413 0.48085 0.0
H2053 H 0.82864 0.42878 0.50841 0.0
H2054 H 0.80217 0.42751 0.49502 0.0
H2055 H 0.82624 0.4315 0.48007 0.0
C2056 C 0.74479 0.8614 0.80987 0.0
C2057 C 0.75389 0.85131 0.79296 0.0
C2058 C 0.73011 0.87708 0.80605 0.0
C2059 C 0.72385 0.88242 0.7848 0.0
C2060 C 0.73103 0.87064 0.76779 0.0
C2061 C 0.74618 0.85541 0.77203 0.0
C2062 C 0.72306 0.88934 0.8247 0.0
C2063 C 0.72424 0.8754 0.74492 0.0
C2064 C 0.68247 0.9241 0.77554 0.0
C2065 C 0.69617 0.94213 0.77192 0.0
C2066 C 0.69109 0.90429 0.77939 0.0
C2067 C 0.71386 0.90282 0.78028 0.0
C2068 C 0.72765 0.92116 0.77705 0.0
C2069 C 0.71862 0.94043 0.77264 0.0
C2070 C 0.67592 0.88495 0.78212 0.0
C2071 C 0.75203 0.92052 0.77842 0.0
H2072 H 0.74998 0.85781 0.82616 0.0
H2073 H 0.75294 0.84776 0.75877 0.0
H2074 H 0.73203 0.90509 0.82521 0.0
H2075 H 0.70555 0.89199 0.82298 0.0
H2076 H 0.72633 0.88114 0.84013 0.0
H2077 H 0.72731 0.86223 0.73416 0.0
H2078 H 0.70679 0.87842 0.74339 0.0
H2079 H 0.73354 0.88985 0.73952 0.0
H2080 H 0.66509 0.9254 0.7749 0.0
H2081 H 0.72928 0.95442 0.77015 0.0
H2082 H 0.67978 0.87694 0.79748 0.0
H2083 H 0.6781 0.8735 0.76927 0.0
H2084 H 0.65868 0.88883 0.78161 0.0
H2085 H 0.75746 0.91397 0.7941 0.0
H2086 H 0.76041 0.93641 0.7764 0.0
H2087 H 0.75725 0.91 0.76592 0.0
C2088 C 0.63968 0.54022 0.9788 0.0
C2089 C 0.62423 0.53256 0.99304 0.0
C2090 C 0.65453 0.55719 0.98423 0.0
C2091 C 0.65401 0.56674 0.00446 0.0
C2092 C 0.63866 0.55891 0.01906 0.0
C2093 C 0.62386 0.54197 0.01313 0.0
C2094 C 0.67048 0.5652 0.96811 0.0
C2095 C 0.63775 0.56857 0.04084 0.0
C2096 C 0.70446 0.60044 0.02282 0.0
C2097 C 0.69848 0.62089 0.01749 0.0
C2098 C 0.68995 0.5827 0.01921 0.0
C2099 C 0.66903 0.58543 0.00989 0.0
C2100 C 0.66279 0.60602 0.00477 0.0
C2101 C 0.67754 0.62348 0.00869 0.0
C2102 C 0.69713 0.56099 0.02503 0.0
C2103 C 0.64069 0.60959 0.99465 0.0
H2104 H 0.63982 0.53323 0.96312 0.0
H2105 H 0.61205 0.53599 0.02425 0.0
H2106 H 0.6677 0.58186 0.96384 0.0
H2107 H 0.68727 0.56493 0.97507 0.0
H2108 H 0.66915 0.55567 0.9533 0.0
H2109 H 0.62547 0.5601 0.05066 0.0
H2110 H 0.65381 0.5684 0.04946 0.0
H2111 H 0.6338 0.58535 0.03919 0.0
H2112 H 0.72054 0.59825 0.02974 0.0
H2113 H 0.67271 0.63916 0.00448 0.0
H2114 H 0.69752 0.55136 0.01041 0.0
H2115 H 0.68539 0.55271 0.03554 0.0
H2116 H 0.71345 0.56164 0.03326 0.0
H2117 H 0.63873 0.60168 0.97893 0.0
H2118 H 0.63807 0.62664 0.99231 0.0
H2119 H 0.62788 0.60246 0.00471 0.0
C2120 C 0.24611 0.63558 0.21251 0.0
C2121 C 0.26309 0.64097 0.22751 0.0
C2122 C 0.22983 0.61995 0.21705 0.0
C2123 C 0.23055 0.60951 0.23706 0.0
C2124 C 0.24703 0.61562 0.25264 0.0
C2125 C 0.26312 0.63124 0.24766 0.0
C2126 C 0.21246 0.61394 0.20008 0.0
C2127 C 0.24834 0.60488 0.2742 0.0
C2128 C 0.18296 0.57461 0.25622 0.0
C2129 C 0.18956 0.55438 0.25198 0.0
C2130 C 0.19577 0.59284 0.25084 0.0
C2131 C 0.21557 0.59072 0.24099 0.0
C2132 C 0.22187 0.57038 0.23597 0.0
C2133 C 0.20884 0.55249 0.24158 0.0
C2134 C 0.18854 0.61429 0.25641 0.0
C2135 C 0.24282 0.56743 0.22537 0.0
H2136 H 0.24577 0.64332 0.19704 0.0
H2137 H 0.27627 0.63516 0.25927 0.0
H2138 H 0.21475 0.59782 0.19421 0.0
H2139 H 0.19621 0.61355 0.20678 0.0
H2140 H 0.2128 0.62506 0.18629 0.0
H2141 H 0.26087 0.61282 0.2852 0.0
H2142 H 0.23248 0.60462 0.28167 0.0
H2143 H 0.25232 0.58821 0.27224 0.0
H2144 H 0.1681 0.5762 0.26428 0.0
H2145 H 0.2142 0.53699 0.23837 0.0
H2146 H 0.18912 0.62498 0.24233 0.0
H2147 H 0.19975 0.62155 0.26901 0.0
H2148 H 0.17187 0.61336 0.26223 0.0
H2149 H 0.24363 0.577 0.21052 0.0
H2150 H 0.24471 0.55063 0.22138 0.0
H2151 H 0.25673 0.57304 0.23612 0.0
C2152 C 0.88673 0.53774 0.042 0.0
C2153 C 0.90659 0.54964 0.04114 0.0
C2154 C 0.86717 0.5477 0.04271 0.0
C2155 C 0.86752 0.57006 0.0425 0.0
C2156 C 0.88751 0.58212 0.04141 0.0
C2157 C 0.90676 0.57178 0.04073 0.0
C2158 C 0.84618 0.53433 0.04391 0.0
C2159 C 0.88858 0.60601 0.04103 0.0
C2160 C 0.81801 0.59985 0.02642 0.0
C2161 C 0.81176 0.60668 0.04625 0.0
C2162 C 0.83558 0.58712 0.02498 0.0
C2163 C 0.84715 0.58105 0.04383 0.0
C2164 C 0.84026 0.58704 0.06392 0.0
C2165 C 0.82266 0.59978 0.0649 0.0
C2166 C 0.84238 0.58098 0.00326 0.0
C2167 C 0.85211 0.58082 0.08439 0.0
H2168 H 0.88651 0.52063 0.04247 0.0
H2169 H 0.922 0.58106 0.03965 0.0
H2170 H 0.83835 0.5377 0.0589 0.0
H2171 H 0.83481 0.53837 0.03052 0.0
H2172 H 0.84861 0.51714 0.04336 0.0
H2173 H 0.90539 0.61304 0.03989 0.0
H2174 H 0.87856 0.61167 0.02727 0.0
H2175 H 0.88185 0.61194 0.05571 0.0
H2176 H 0.80963 0.60502 0.01193 0.0
H2177 H 0.81788 0.60485 0.0803 0.0
H2178 H 0.8443 0.56373 0.00266 0.0
H2179 H 0.85833 0.58912 0.00013 0.0
H2180 H 0.83054 0.58525 0.99032 0.0
H2181 H 0.854 0.56354 0.08477 0.0
H2182 H 0.84362 0.58515 0.09872 0.0
H2183 H 0.86861 0.58882 0.08525 0.0
C2184 C 0.14384 0.97165 0.03547 0.0
C2185 C 0.1263 0.97923 0.02343 0.0
C2186 C 0.1537 0.95359 0.02924 0.0
C2187 C 0.14599 0.94294 0.01037 0.0
C2188 C 0.12859 0.95079 0.99785 0.0
C2189 C 0.1188 0.96878 0.00465 0.0
C2190 C 0.17199 0.94556 0.04322 0.0
C2191 C 0.12016 0.94003 0.97749 0.0
C2192 C 0.18493 0.90468 0.99034 0.0
C2193 C 0.17695 0.88556 -0.00065 0.0
C2194 C 0.17431 0.92337 0.99274 0.0
C2195 C 0.15545 0.92293 0.00462 0.0
C2196 C 0.14678 0.90349 0.01286 0.0
C2197 C 0.15755 0.88505 0.01002 0.0
C2198 C 0.18384 0.94375 0.98341 0.0
C2199 C 0.12679 0.90235 0.02576 0.0
H2200 H 0.14948 0.97954 0.05014 0.0
H2201 H 0.10534 0.97473 0.99524 0.0
H2202 H 0.16726 0.92949 0.04926 0.0
H2203 H 0.18654 0.94429 0.03383 0.0
H2204 H 0.17643 0.956 0.05708 0.0
H2205 H 0.10754 0.94893 0.96885 0.0
H2206 H 0.13363 0.93822 0.9668 0.0
H2207 H 0.11312 0.92392 0.98113 0.0
H2208 H 0.19982 0.90518 0.98193 0.0
H2209 H 0.15117 0.87035 0.01695 0.0
H2210 H 0.19072 0.9542 0.99647 0.0
H2211 H 0.17107 0.95228 0.97463 0.0
H2212 H 0.19687 0.94102 0.97243 0.0
H2213 H 0.13031 0.91107 0.04091 0.0
H2214 H 0.12117 0.88581 0.02964 0.0
H2215 H 0.1134 0.91001 0.01699 0.0
loop_
_geom_bond_atom_site_label_1
_geom_bond_atom_site_label_2
_geom_bond_distance
_geom_bond_site_symmetry_2
_ccdc_geom_bond_type
P0 O11 1.490 . S
P0 C14 1.812 . S
P0 C20 1.803 . S
P0 C26 1.819 . S
H1 C15 0.941 . S
H2 C16 0.939 . S
H3 C18 0.940 . S
H4 C19 0.940 . S
H5 C21 0.939 . S
H6 C22 0.942 . S
H7 C24 0.940 . S
H8 C25 0.939 . S
H9 C27 0.941 . S
H10 C31 0.939 . S
O11 P0 1.490 . S
H12 C28 0.939 . S
H13 C30 0.940 . S
C14 P0 1.812 . S
C14 C15 1.389 . S
C14 C19 1.391 . S
C15 H1 0.941 . S
C15 C14 1.389 . S
C15 C16 1.397 . S
C16 H2 0.939 . S
C16 C15 1.397 . S
C16 C17 1.378 1_455 S
C17 C16 1.378 1_655 S
C17 C18 1.378 . S
C18 H3 0.940 . S
C18 C17 1.378 . S
C18 C19 1.396 1_655 S
C19 H4 0.940 . S
C19 C14 1.391 . S
C19 C18 1.396 1_455 S
C20 P0 1.803 . S
C20 C21 1.378 . S
C20 C25 1.400 . S
C21 H5 0.939 . S
C21 C20 1.378 . S
C21 C22 1.361 . S
C22 H6 0.942 . S
C22 C21 1.361 . S
C22 C23 1.369 1_545 S
C23 C22 1.369 1_565 S
C23 C24 1.404 . S
C24 H7 0.940 . S
C24 C23 1.404 . S
C24 C25 1.389 1_565 S
C25 H8 0.939 . S
C25 C20 1.400 . S
C25 C24 1.389 1_545 S
C26 P0 1.819 . S
C26 C27 1.391 . S
C26 C31 1.391 . S
C27 H9 0.941 . S
C27 C26 1.391 . S
C27 C28 1.396 . S
C28 H12 0.939 . S
C28 C27 1.396 . S
C28 C29 1.397 1_554 S
C29 C28 1.397 1_556 S
C29 C30 1.385 . S
C30 H13 0.940 . S
C30 C29 1.385 . S
C30 C31 1.388 1_556 S
C31 H10 0.939 . S
C31 C26 1.391 . S
C31 C30 1.388 1_554 S
P32 O43 1.490 . S
P32 C46 1.812 . S
P32 C52 1.803 . S
P32 C58 1.819 . S
H33 C47 0.941 . S
H34 C48 0.939 . S
H35 C50 0.940 . S
H36 C51 0.940 . S
H37 C53 0.939 . S
H38 C54 0.942 . S
H39 C56 0.940 . S
H40 C57 0.939 . S
H41 C59 0.941 . S
H42 C63 0.939 . S
O43 P32 1.490 . S
H44 C60 0.939 . S
H45 C62 0.940 . S
C46 P32 1.812 . S
C46 C47 1.389 . S
C46 C51 1.391 . S
C47 H33 0.941 . S
C47 C46 1.389 . S
C47 C48 1.397 . S
C48 H34 0.939 . S
C48 C47 1.397 . S
C48 C49 1.378 . S
C49 C48 1.378 . S
C49 C50 1.378 . S
C50 H35 0.940 . S
C50 C49 1.378 . S
C50 C51 1.396 . S
C51 H36 0.940 . S
C51 C46 1.391 . S
C51 C50 1.396 . S
C52 P32 1.803 . S
C52 C53 1.378 . S
C52 C57 1.400 . S
C53 H37 0.939 . S
C53 C52 1.378 . S
C53 C54 1.361 . S
C54 H38 0.942 . S
C54 C53 1.361 . S
C54 C55 1.369 . S
C55 C54 1.369 . S
C55 C56 1.404 . S
C56 H39 0.940 . S
C56 C55 1.404 . S
C56 C57 1.389 . S
C57 H40 0.939 . S
C57 C52 1.400 . S
C57 C56 1.389 . S
C58 P32 1.819 . S
C58 C59 1.391 . S
C58 C63 1.391 . S
C59 H41 0.941 . S
C59 C58 1.391 . S
C59 C60 1.396 . S
C60 H44 0.939 . S
C60 C59 1.396 . S
C60 C61 1.397 . S
C61 C60 1.397 . S
C61 C62 1.385 . S
C62 H45 0.940 . S
C62 C61 1.385 . S
C62 C63 1.388 . S
C63 H42 0.939 . S
C63 C58 1.391 . S
C63 C62 1.388 . S
P64 O75 1.490 1_655 S
P64 C78 1.812 . S
P64 C84 1.803 . S
P64 C90 1.819 1_655 S
H65 C79 0.934 1_455 S
H66 C80 0.937 1_455 S
H67 C82 0.940 . S
H68 C83 0.940 . S
H69 C85 0.939 . S
H70 C86 0.942 . S
H71 C88 0.940 . S
H72 C89 0.939 . S
H73 C91 0.941 . S
H74 C95 0.939 . S
O75 P64 1.490 1_455 S
H76 C92 0.939 . S
H77 C94 0.940 1_655 S
C78 P64 1.812 . S
C78 C79 1.399 1_554 S
C78 C83 1.391 . S
C79 H65 0.934 1_655 S
C79 C78 1.399 1_556 S
C79 C80 1.396 . S
C80 H66 0.937 1_655 S
C80 C79 1.396 . S
C80 C81 1.378 1_556 S
C81 C80 1.378 1_554 S
C81 C82 1.378 . S
C82 H67 0.940 . S
C82 C81 1.378 . S
C82 C83 1.396 . S
C83 H68 0.940 . S
C83 C78 1.391 . S
C83 C82 1.396 . S
C84 P64 1.803 . S
C84 C85 1.378 . S
C84 C89 1.400 . S
C85 H69 0.939 . S
C85 C84 1.378 . S
C85 C86 1.361 . S
C86 H70 0.942 . S
C86 C85 1.361 . S
C86 C87 1.369 . S
C87 C86 1.369 . S
C87 C88 1.404 . S
C88 H71 0.940 . S
C88 C87 1.404 . S
C88 C89 1.389 . S
C89 H72 0.939 . S
C89 C84 1.400 . S
C89 C88 1.389 . S
C90 P64 1.819 1_455 S
C90 C91 1.391 . S
C90 C95 1.391 1_455 S
C91 H73 0.941 . S
C91 C90 1.391 . S
C91 C92 1.396 . S
C92 H76 0.939 . S
C92 C91 1.396 . S
C92 C93 1.397 . S
C93 C92 1.397 . S
C93 C94 1.385 . S
C94 H77 0.940 1_455 S
C94 C93 1.385 . S
C94 C95 1.388 1_455 S
C95 H74 0.939 . S
C95 C90 1.391 1_655 S
C95 C94 1.388 1_655 S
P96 O107 1.490 . S
P96 C110 1.812 . S
P96 C116 1.803 . S
P96 C122 1.819 . S
H97 C111 0.941 . S
H98 C112 0.939 . S
H99 C114 0.940 . S
H100 C115 0.940 . S
H101 C117 0.939 . S
H102 C118 0.942 . S
H103 C120 0.940 . S
H104 C121 0.939 . S
H105 C123 0.941 . S
H106 C127 0.939 . S
O107 P96 1.490 . S
H108 C124 0.939 . S
H109 C126 0.940 . S
C110 P96 1.812 . S
C110 C111 1.389 . S
C110 C115 1.391 . S
C111 H97 0.941 . S
C111 C110 1.389 . S
C111 C112 1.397 . S
C112 H98 0.939 . S
C112 C111 1.397 . S
C112 C113 1.378 . S
C113 C112 1.378 . S
C113 C114 1.378 . S
C114 H99 0.940 . S
C114 C113 1.378 . S
C114 C115 1.396 . S
C115 H100 0.940 . S
C115 C110 1.391 . S
C115 C114 1.396 . S
C116 P96 1.803 . S
C116 C117 1.378 . S
C116 C121 1.400 . S
C117 H101 0.939 . S
C117 C116 1.378 . S
C117 C118 1.361 . S
C118 H102 0.942 . S
C118 C117 1.361 . S
C118 C119 1.369 . S
C119 C118 1.369 . S
C119 C120 1.404 . S
C120 H103 0.940 . S
C120 C119 1.404 . S
C120 C121 1.389 . S
C121 H104 0.939 . S
C121 C116 1.400 . S
C121 C120 1.389 . S
C122 P96 1.819 . S
C122 C123 1.391 . S
C122 C127 1.391 . S
C123 H105 0.941 . S
C123 C122 1.391 . S
C123 C124 1.396 . S
C124 H108 0.939 . S
C124 C123 1.396 . S
C124 C125 1.397 . S
C125 C124 1.397 . S
C125 C126 1.385 . S
C126 H109 0.940 . S
C126 C125 1.385 . S
C126 C127 1.388 . S
C127 H106 0.939 . S
C127 C122 1.391 . S
C127 C126 1.388 . S
P128 O139 1.490 . S
P128 C142 1.812 . S
P128 C148 1.803 . S
P128 C154 1.819 . S
H129 C143 0.941 . S
H130 C144 0.939 . S
H131 C146 0.940 . S
H132 C147 0.940 . S
H133 C149 0.939 . S
H134 C150 0.942 . S
H135 C152 0.940 . S
H136 C153 0.939 . S
H137 C155 0.941 . S
H138 C159 0.939 . S
O139 P128 1.490 . S
H140 C156 0.939 . S
H141 C158 0.940 1_655 S
C142 P128 1.812 . S
C142 C143 1.389 . S
C142 C147 1.391 . S
C143 H129 0.941 . S
C143 C142 1.389 . S
C143 C144 1.397 . S
C144 H130 0.939 . S
C144 C143 1.397 . S
C144 C145 1.378 1_565 S
C145 C144 1.378 1_545 S
C145 C146 1.378 . S
C146 H131 0.940 . S
C146 C145 1.378 . S
C146 C147 1.396 1_545 S
C147 H132 0.940 . S
C147 C142 1.391 . S
C147 C146 1.396 1_565 S
C148 P128 1.803 . S
C148 C149 1.378 . S
C148 C153 1.400 . S
C149 H133 0.939 . S
C149 C148 1.378 . S
C149 C150 1.361 . S
C150 H134 0.942 . S
C150 C149 1.361 . S
C150 C151 1.369 . S
C151 C150 1.369 . S
C151 C152 1.404 . S
C152 H135 0.940 . S
C152 C151 1.404 . S
C152 C153 1.389 . S
C153 H136 0.939 . S
C153 C148 1.400 . S
C153 C152 1.389 . S
C154 P128 1.819 . S
C154 C155 1.391 . S
C154 C159 1.391 . S
C155 H137 0.941 . S
C155 C154 1.391 . S
C155 C156 1.396 . S
C156 H140 0.939 . S
C156 C155 1.396 . S
C156 C157 1.397 . S
C157 C156 1.397 . S
C157 C158 1.385 . S
C158 H141 0.940 1_455 S
C158 C157 1.385 . S
C158 C159 1.388 . S
C159 H138 0.939 . S
C159 C154 1.391 . S
C159 C158 1.388 . S
P160 O171 1.490 . S
P160 C174 1.812 . S
P160 C180 1.803 . S
P160 C186 1.819 . S
H161 C175 0.941 . S
H162 C176 0.939 . S
H163 C178 0.940 . S
H164 C179 0.940 . S
H165 C181 0.939 . S
H166 C182 0.942 . S
H167 C184 0.940 . S
H168 C185 0.939 . S
H169 C187 0.941 . S
H170 C191 0.939 . S
O171 P160 1.490 . S
H172 C188 0.939 . S
H173 C190 0.940 . S
C174 P160 1.812 . S
C174 C175 1.389 . S
C174 C179 1.391 . S
C175 H161 0.941 . S
C175 C174 1.389 . S
C175 C176 1.397 . S
C176 H162 0.939 . S
C176 C175 1.397 . S
C176 C177 1.378 . S
C177 C176 1.378 . S
C177 C178 1.378 . S
C178 H163 0.940 . S
C178 C177 1.378 . S
C178 C179 1.396 . S
C179 H164 0.940 . S
C179 C174 1.391 . S
C179 C178 1.396 . S
C180 P160 1.803 . S
C180 C181 1.378 . S
C180 C185 1.400 . S
C181 H165 0.939 . S
C181 C180 1.378 . S
C181 C182 1.361 . S
C182 H166 0.942 . S
C182 C181 1.361 . S
C182 C183 1.369 . S
C183 C182 1.369 . S
C183 C184 1.404 . S
C184 H167 0.940 . S
C184 C183 1.404 . S
C184 C185 1.389 . S
C185 H168 0.939 . S
C185 C180 1.400 . S
C185 C184 1.389 . S
C186 P160 1.819 . S
C186 C187 1.391 . S
C186 C191 1.391 . S
C187 H169 0.941 . S
C187 C186 1.391 . S
C187 C188 1.396 . S
C188 H172 0.939 . S
C188 C187 1.396 . S
C188 C189 1.397 . S
C189 C188 1.397 . S
C189 C190 1.385 . S
C190 H173 0.940 . S
C190 C189 1.385 . S
C190 C191 1.388 . S
C191 H170 0.939 . S
C191 C186 1.391 . S
C191 C190 1.388 . S
P192 O203 1.502 . S
P192 C206 1.812 . S
P192 C212 1.803 . S
P192 C218 1.819 . S
H193 C207 0.941 . S
H194 C208 0.939 . S
H195 C210 0.940 . S
H196 C211 0.940 . S
H197 C213 0.939 . S
H198 C214 0.942 . S
H199 C216 0.940 . S
H200 C217 0.939 . S
H201 C219 0.941 . S
H202 C223 0.939 . S
O203 P192 1.502 . S
H204 C220 0.939 . S
H205 C222 0.940 . S
C206 P192 1.812 . S
C206 C207 1.389 1_655 S
C206 C211 1.391 . S
C207 H193 0.941 . S
C207 C206 1.389 1_455 S
C207 C208 1.397 . S
C208 H194 0.939 . S
C208 C207 1.397 . S
C208 C209 1.378 . S
C209 C208 1.378 . S
C209 C210 1.378 1_455 S
C210 H195 0.940 . S
C210 C209 1.378 1_655 S
C210 C211 1.396 . S
C211 H196 0.940 . S
C211 C206 1.391 . S
C211 C210 1.396 . S
C212 P192 1.803 . S
C212 C213 1.378 . S
C212 C217 1.400 . S
C213 H197 0.939 . S
C213 C212 1.378 . S
C213 C214 1.361 . S
C214 H198 0.942 . S
C214 C213 1.361 . S
C214 C215 1.369 . S
C215 C214 1.369 . S
C215 C216 1.404 . S
C216 H199 0.940 . S
C216 C215 1.404 . S
C216 C217 1.389 . S
C217 H200 0.939 . S
C217 C212 1.400 . S
C217 C216 1.389 . S
C218 P192 1.819 . S
C218 C219 1.391 . S
C218 C223 1.391 . S
C219 H201 0.941 . S
C219 C218 1.391 . S
C219 C220 1.396 . S
C220 H204 0.939 . S
C220 C219 1.396 . S
C220 C221 1.397 . S
C221 C220 1.397 . S
C221 C222 1.385 . S
C222 H205 0.940 . S
C222 C221 1.385 . S
C222 C223 1.388 . S
C223 H202 0.939 . S
C223 C218 1.391 . S
C223 C222 1.388 . S
P224 O235 1.490 . S
P224 C238 1.812 . S
P224 C244 1.803 . S
P224 C250 1.819 . S
H225 C239 0.941 . S
H226 C240 0.939 . S
H227 C242 0.940 . S
H228 C243 0.940 . S
H229 C245 0.939 . S
H230 C246 0.942 . S
H231 C248 0.940 . S
H232 C249 0.939 . S
H233 C251 0.941 . S
H234 C255 0.939 . S
O235 P224 1.490 . S
H236 C252 0.939 . S
H237 C254 0.940 . S
C238 P224 1.812 . S
C238 C239 1.389 . S
C238 C243 1.391 . S
C239 H225 0.941 . S
C239 C238 1.389 . S
C239 C240 1.397 . S
C240 H226 0.939 . S
C240 C239 1.397 . S
C240 C241 1.378 . S
C241 C240 1.378 . S
C241 C242 1.378 . S
C242 H227 0.940 . S
C242 C241 1.378 . S
C242 C243 1.396 . S
C243 H228 0.940 . S
C243 C238 1.391 . S
C243 C242 1.396 . S
C244 P224 1.803 . S
C244 C245 1.378 . S
C244 C249 1.400 . S
C245 H229 0.939 . S
C245 C244 1.378 . S
C245 C246 1.361 . S
C246 H230 0.942 . S
C246 C245 1.361 . S
C246 C247 1.369 . S
C247 C246 1.369 . S
C247 C248 1.404 . S
C248 H231 0.940 . S
C248 C247 1.404 . S
C248 C249 1.389 . S
C249 H232 0.939 . S
C249 C244 1.400 . S
C249 C248 1.389 . S
C250 P224 1.819 . S
C250 C251 1.391 . S
C250 C255 1.391 . S
C251 H233 0.941 . S
C251 C250 1.391 . S
C251 C252 1.396 . S
C252 H236 0.939 . S
C252 C251 1.396 . S
C252 C253 1.397 . S
C253 C252 1.397 . S
C253 C254 1.385 . S
C254 H237 0.940 . S
C254 C253 1.385 . S
C254 C255 1.388 . S
C255 H234 0.939 . S
C255 C250 1.391 . S
C255 C254 1.388 . S
P256 O267 1.490 . S
P256 C270 1.812 . S
P256 C276 1.803 . S
P256 C282 1.819 . S
H257 C271 0.941 . S
H258 C272 0.939 . S
H259 C274 0.940 . S
H260 C275 0.940 . S
H261 C277 0.939 . S
H262 C278 0.942 . S
H263 C280 0.940 . S
H264 C281 0.939 . S
H265 C283 0.941 . S
H266 C287 0.939 . S
O267 P256 1.490 . S
H268 C284 0.939 . S
H269 C286 0.940 . S
C270 P256 1.812 . S
C270 C271 1.389 . S
C270 C275 1.391 . S
C271 H257 0.941 . S
C271 C270 1.389 . S
C271 C272 1.397 . S
C272 H258 0.939 . S
C272 C271 1.397 . S
C272 C273 1.378 . S
C273 C272 1.378 . S
C273 C274 1.378 . S
C274 H259 0.940 . S
C274 C273 1.378 . S
C274 C275 1.396 . S
C275 H260 0.940 . S
C275 C270 1.391 . S
C275 C274 1.396 . S
C276 P256 1.803 . S
C276 C277 1.378 . S
C276 C281 1.400 . S
C277 H261 0.939 . S
C277 C276 1.378 . S
C277 C278 1.361 . S
C278 H262 0.942 . S
C278 C277 1.361 . S
C278 C279 1.369 . S
C279 C278 1.369 . S
C279 C280 1.404 . S
C280 H263 0.940 . S
C280 C279 1.404 . S
C280 C281 1.389 . S
C281 H264 0.939 . S
C281 C276 1.400 . S
C281 C280 1.389 . S
C282 P256 1.819 . S
C282 C283 1.391 . S
C282 C287 1.391 . S
C283 H265 0.941 . S
C283 C282 1.391 . S
C283 C284 1.396 . S
C284 H268 0.939 . S
C284 C283 1.396 . S
C284 C285 1.397 . S
C285 C284 1.397 . S
C285 C286 1.385 . S
C286 H269 0.940 . S
C286 C285 1.385 . S
C286 C287 1.388 . S
C287 H266 0.939 . S
C287 C282 1.391 . S
C287 C286 1.388 . S
P288 O299 1.490 1_565 S
P288 C302 1.812 . S
P288 C308 1.803 . S
P288 C314 1.819 . S
H289 C303 0.941 . S
H290 C304 0.939 . S
H291 C306 0.940 . S
H292 C307 0.940 . S
H293 C309 0.939 . S
H294 C310 0.942 . S
H295 C312 0.940 . S
H296 C313 0.939 . S
H297 C315 0.941 . S
H298 C319 0.939 . S
O299 P288 1.490 1_545 S
H300 C316 0.939 . S
H301 C318 0.940 . S
C302 P288 1.812 . S
C302 C303 1.389 . S
C302 C307 1.391 . S
C303 H289 0.941 . S
C303 C302 1.389 . S
C303 C304 1.397 . S
C304 H290 0.939 . S
C304 C303 1.397 . S
C304 C305 1.378 . S
C305 C304 1.378 . S
C305 C306 1.378 . S
C306 H291 0.940 . S
C306 C305 1.378 . S
C306 C307 1.396 . S
C307 H292 0.940 . S
C307 C302 1.391 . S
C307 C306 1.396 . S
C308 P288 1.803 . S
C308 C309 1.378 1_565 S
C308 C313 1.400 . S
C309 H293 0.939 . S
C309 C308 1.378 1_545 S
C309 C310 1.361 . S
C310 H294 0.942 . S
C310 C309 1.361 . S
C310 C311 1.369 . S
C311 C310 1.369 . S
C311 C312 1.404 1_545 S
C312 H295 0.940 . S
C312 C311 1.404 1_565 S
C312 C313 1.389 . S
C313 H296 0.939 . S
C313 C308 1.400 . S
C313 C312 1.389 . S
C314 P288 1.819 . S
C314 C315 1.391 . S
C314 C319 1.391 . S
C315 H297 0.941 . S
C315 C314 1.391 . S
C315 C316 1.396 . S
C316 H300 0.939 . S
C316 C315 1.396 . S
C316 C317 1.397 . S
C317 C316 1.397 . S
C317 C318 1.385 . S
C318 H301 0.940 . S
C318 C317 1.385 . S
C318 C319 1.388 . S
C319 H298 0.939 . S
C319 C314 1.391 . S
C319 C318 1.388 . S
P320 O331 1.490 . S
P320 C334 1.812 . S
P320 C340 1.803 . S
P320 C346 1.819 . S
H321 C335 0.941 . S
H322 C336 0.939 . S
H323 C338 0.940 . S
H324 C339 0.940 . S
H325 C341 0.939 . S
H326 C342 0.942 . S
H327 C344 0.940 . S
H328 C345 0.939 . S
H329 C347 0.941 . S
H330 C351 0.939 . S
O331 P320 1.490 . S
H332 C348 0.939 . S
H333 C350 0.940 . S
C334 P320 1.812 . S
C334 C335 1.389 . S
C334 C339 1.391 . S
C335 H321 0.941 . S
C335 C334 1.389 . S
C335 C336 1.397 . S
C336 H322 0.939 . S
C336 C335 1.397 . S
C336 C337 1.378 . S
C337 C336 1.378 . S
C337 C338 1.378 . S
C338 H323 0.940 . S
C338 C337 1.378 . S
C338 C339 1.396 . S
C339 H324 0.940 . S
C339 C334 1.391 . S
C339 C338 1.396 . S
C340 P320 1.803 . S
C340 C341 1.378 . S
C340 C345 1.400 . S
C341 H325 0.939 . S
C341 C340 1.378 . S
C341 C342 1.361 . S
C342 H326 0.942 . S
C342 C341 1.361 . S
C342 C343 1.369 . S
C343 C342 1.369 . S
C343 C344 1.404 . S
C344 H327 0.940 . S
C344 C343 1.404 . S
C344 C345 1.389 . S
C345 H328 0.939 . S
C345 C340 1.400 . S
C345 C344 1.389 . S
C346 P320 1.819 . S
C346 C347 1.391 . S
C346 C351 1.391 . S
C347 H329 0.941 . S
C347 C346 1.391 . S
C347 C348 1.396 . S
C348 H332 0.939 . S
C348 C347 1.396 . S
C348 C349 1.397 . S
C349 C348 1.397 . S
C349 C350 1.385 . S
C350 H333 0.940 . S
C350 C349 1.385 . S
C350 C351 1.388 . S
C351 H330 0.939 . S
C351 C346 1.391 . S
C351 C350 1.388 . S
P352 O363 1.490 . S
P352 C366 1.812 . S
P352 C372 1.803 . S
P352 C378 1.819 . S
H353 C367 0.941 . S
H354 C368 0.939 . S
H355 C370 0.940 . S
H356 C371 0.940 . S
H357 C373 0.939 . S
H358 C374 0.942 . S
H359 C376 0.940 . S
H360 C377 0.939 . S
H361 C379 0.941 . S
H362 C383 0.939 . S
O363 P352 1.490 . S
H364 C380 0.939 . S
H365 C382 0.940 . S
C366 P352 1.812 . S
C366 C367 1.389 . S
C366 C371 1.391 . S
C367 H353 0.941 . S
C367 C366 1.389 . S
C367 C368 1.397 . S
C368 H354 0.939 . S
C368 C367 1.397 . S
C368 C369 1.378 . S
C369 C368 1.378 . S
C369 C370 1.378 . S
C370 H355 0.940 . S
C370 C369 1.378 . S
C370 C371 1.396 . S
C371 H356 0.940 . S
C371 C366 1.391 . S
C371 C370 1.396 . S
C372 P352 1.803 . S
C372 C373 1.378 . S
C372 C377 1.400 . S
C373 H357 0.939 . S
C373 C372 1.378 . S
C373 C374 1.361 . S
C374 H358 0.942 . S
C374 C373 1.361 . S
C374 C375 1.369 . S
C375 C374 1.369 . S
C375 C376 1.404 . S
C376 H359 0.940 . S
C376 C375 1.404 . S
C376 C377 1.389 . S
C377 H360 0.939 . S
C377 C372 1.400 . S
C377 C376 1.389 . S
C378 P352 1.819 . S
C378 C379 1.391 . S
C378 C383 1.391 . S
C379 H361 0.941 . S
C379 C378 1.391 . S
C379 C380 1.396 . S
C380 H364 0.939 . S
C380 C379 1.396 . S
C380 C381 1.397 . S
C381 C380 1.397 . S
C381 C382 1.385 . S
C382 H365 0.940 . S
C382 C381 1.385 . S
C382 C383 1.388 . S
C383 H362 0.939 . S
C383 C378 1.391 . S
C383 C382 1.388 . S
P384 O395 1.490 . S
P384 C398 1.812 . S
P384 C404 1.803 . S
P384 C410 1.819 . S
H385 C399 0.941 . S
H386 C400 0.939 . S
H387 C402 0.940 . S
H388 C403 0.940 . S
H389 C405 0.939 . S
H390 C406 0.942 . S
H391 C408 0.940 . S
H392 C409 0.939 . S
H393 C411 0.941 . S
H394 C415 0.939 . S
O395 P384 1.490 . S
H396 C412 0.939 . S
H397 C414 0.940 . S
C398 P384 1.812 . S
C398 C399 1.389 . S
C398 C403 1.391 . S
C399 H385 0.941 . S
C399 C398 1.389 . S
C399 C400 1.397 . S
C400 H386 0.939 . S
C400 C399 1.397 . S
C400 C401 1.378 . S
C401 C400 1.378 . S
C401 C402 1.378 . S
C402 H387 0.940 . S
C402 C401 1.378 . S
C402 C403 1.396 . S
C403 H388 0.940 . S
C403 C398 1.391 . S
C403 C402 1.396 . S
C404 P384 1.803 . S
C404 C405 1.378 . S
C404 C409 1.400 . S
C405 H389 0.939 . S
C405 C404 1.378 . S
C405 C406 1.361 . S
C406 H390 0.942 . S
C406 C405 1.361 . S
C406 C407 1.369 . S
C407 C406 1.369 . S
C407 C408 1.404 . S
C408 H391 0.940 . S
C408 C407 1.404 . S
C408 C409 1.389 . S
C409 H392 0.939 . S
C409 C404 1.400 . S
C409 C408 1.389 . S
C410 P384 1.819 . S
C410 C411 1.391 . S
C410 C415 1.391 . S
C411 H393 0.941 . S
C411 C410 1.391 . S
C411 C412 1.396 . S
C412 H396 0.939 . S
C412 C411 1.396 . S
C412 C413 1.397 . S
C413 C412 1.397 . S
C413 C414 1.385 . S
C414 H397 0.940 . S
C414 C413 1.385 . S
C414 C415 1.388 . S
C415 H394 0.939 . S
C415 C410 1.391 . S
C415 C414 1.388 . S
P416 O427 1.490 . S
P416 C430 1.812 . S
P416 C436 1.803 . S
P416 C442 1.819 . S
H417 C431 0.941 . S
H418 C432 0.939 . S
H419 C434 0.940 . S
H420 C435 0.940 . S
H421 C437 0.939 . S
H422 C438 0.942 . S
H423 C440 0.940 . S
H424 C441 0.939 . S
H425 C443 0.941 . S
H426 C447 0.939 . S
O427 P416 1.490 . S
H428 C444 0.939 . S
H429 C446 0.940 . S
C430 P416 1.812 . S
C430 C431 1.389 . S
C430 C435 1.391 . S
C431 H417 0.941 . S
C431 C430 1.389 . S
C431 C432 1.397 . S
C432 H418 0.939 . S
C432 C431 1.397 . S
C432 C433 1.378 . S
C433 C432 1.378 . S
C433 C434 1.378 . S
C434 H419 0.940 . S
C434 C433 1.378 . S
C434 C435 1.396 . S
C435 H420 0.940 . S
C435 C430 1.391 . S
C435 C434 1.396 . S
C436 P416 1.803 . S
C436 C437 1.378 . S
C436 C441 1.400 . S
C437 H421 0.939 . S
C437 C436 1.378 . S
C437 C438 1.361 . S
C438 H422 0.942 . S
C438 C437 1.361 . S
C438 C439 1.369 1_556 S
C439 C438 1.369 1_554 S
C439 C440 1.404 . S
C440 H423 0.940 . S
C440 C439 1.404 . S
C440 C441 1.389 1_554 S
C441 H424 0.939 . S
C441 C436 1.400 . S
C441 C440 1.389 1_556 S
C442 P416 1.819 . S
C442 C443 1.391 . S
C442 C447 1.391 . S
C443 H425 0.941 . S
C443 C442 1.391 . S
C443 C444 1.396 . S
C444 H428 0.939 . S
C444 C443 1.396 . S
C444 C445 1.397 . S
C445 C444 1.397 . S
C445 C446 1.385 . S
C446 H429 0.940 . S
C446 C445 1.385 . S
C446 C447 1.388 . S
C447 H426 0.939 . S
C447 C442 1.391 . S
C447 C446 1.388 . S
P448 O459 1.490 . S
P448 C462 1.812 . S
P448 C468 1.803 . S
P448 C474 1.819 . S
H449 C463 0.941 . S
H450 C464 0.939 . S
H451 C466 0.940 . S
H452 C467 0.940 . S
H453 C469 0.939 . S
H454 C470 0.942 . S
H455 C472 0.940 . S
H456 C473 0.939 . S
H457 C475 0.941 . S
H458 C479 0.939 . S
O459 P448 1.490 . S
H460 C476 0.939 . S
H461 C478 0.940 . S
C462 P448 1.812 . S
C462 C463 1.389 . S
C462 C467 1.391 . S
C463 H449 0.941 . S
C463 C462 1.389 . S
C463 C464 1.397 . S
C464 H450 0.939 . S
C464 C463 1.397 . S
C464 C465 1.378 . S
C465 C464 1.378 . S
C465 C466 1.378 . S
C466 H451 0.940 . S
C466 C465 1.378 . S
C466 C467 1.396 . S
C467 H452 0.940 . S
C467 C462 1.391 . S
C467 C466 1.396 . S
C468 P448 1.803 . S
C468 C469 1.378 . S
C468 C473 1.400 . S
C469 H453 0.939 . S
C469 C468 1.378 . S
C469 C470 1.361 . S
C470 H454 0.942 . S
C470 C469 1.361 . S
C470 C471 1.369 . S
C471 C470 1.369 . S
C471 C472 1.404 . S
C472 H455 0.940 . S
C472 C471 1.404 . S
C472 C473 1.389 . S
C473 H456 0.939 . S
C473 C468 1.400 . S
C473 C472 1.389 . S
C474 P448 1.819 . S
C474 C475 1.391 . S
C474 C479 1.391 . S
C475 H457 0.941 . S
C475 C474 1.391 . S
C475 C476 1.396 . S
C476 H460 0.939 . S
C476 C475 1.396 . S
C476 C477 1.397 . S
C477 C476 1.397 . S
C477 C478 1.385 . S
C478 H461 0.940 . S
C478 C477 1.385 . S
C478 C479 1.388 . S
C479 H458 0.939 . S
C479 C474 1.391 . S
C479 C478 1.388 . S
P480 O491 1.490 1_556 S
P480 C494 1.812 . S
P480 C500 1.803 1_556 S
P480 C506 1.819 . S
H481 C495 0.941 . S
H482 C496 0.939 . S
H483 C498 0.940 . S
H484 C499 0.940 . S
H485 C501 0.939 . S
H486 C502 0.942 . S
H487 C504 0.940 . S
H488 C505 0.939 . S
H489 C507 0.941 . S
H490 C511 0.939 . S
O491 P480 1.490 1_554 S
H492 C508 0.939 . S
H493 C510 0.940 . S
C494 P480 1.812 . S
C494 C495 1.389 . S
C494 C499 1.391 . S
C495 H481 0.941 . S
C495 C494 1.389 . S
C495 C496 1.397 . S
C496 H482 0.939 . S
C496 C495 1.397 . S
C496 C497 1.378 . S
C497 C496 1.378 . S
C497 C498 1.378 . S
C498 H483 0.940 . S
C498 C497 1.378 . S
C498 C499 1.396 . S
C499 H484 0.940 . S
C499 C494 1.391 . S
C499 C498 1.396 . S
C500 P480 1.803 1_554 S
C500 C501 1.378 . S
C500 C505 1.400 1_554 S
C501 H485 0.939 . S
C501 C500 1.378 . S
C501 C502 1.361 . S
C502 H486 0.942 . S
C502 C501 1.361 . S
C502 C503 1.369 . S
C503 C502 1.369 . S
C503 C504 1.404 1_554 S
C504 H487 0.940 . S
C504 C503 1.404 1_556 S
C504 C505 1.389 . S
C505 H488 0.939 . S
C505 C500 1.400 1_556 S
C505 C504 1.389 . S
C506 P480 1.819 . S
C506 C507 1.391 1_545 S
C506 C511 1.391 . S
C507 H489 0.941 . S
C507 C506 1.391 1_565 S
C507 C508 1.396 . S
C508 H492 0.939 . S
C508 C507 1.396 . S
C508 C509 1.397 . S
C509 C508 1.397 . S
C509 C510 1.385 1_565 S
C510 H493 0.940 . S
C510 C509 1.385 1_545 S
C510 C511 1.388 . S
C511 H490 0.939 . S
C511 C506 1.391 . S
C511 C510 1.388 . S
Mg512 O513 2.028 . S
Mg512 O519 1.986 1_554 S
Mg512 O521 2.114 . S
Mg512 O522 2.251 . S
Mg512 O525 2.010 . S
O513 Mg512 2.028 . S
O513 C516 1.243 1_554 S
O514 Mg515 2.028 . S
O514 C516 1.253 . S
Mg515 O514 2.028 . S
Mg515 O520 2.032 . S
Mg515 O522 2.079 1_556 S
C516 O513 1.243 1_556 S
C516 O514 1.253 . S
C517 O518 1.264 . S
C517 O525 1.249 . S
O518 C517 1.264 . S
O519 Mg512 1.986 1_556 S
O519 C523 1.246 . S
O520 Mg515 2.032 . S
O520 C523 1.259 . S
O521 Mg512 2.114 . S
O521 C524 1.252 . S
O522 Mg512 2.251 . S
O522 Mg515 2.079 1_554 S
O522 C524 1.273 . S
C523 O519 1.246 . S
C523 O520 1.259 . S
C524 O521 1.252 . S
C524 O522 1.273 . S
O525 Mg512 2.010 . S
O525 C517 1.249 . S
Mg526 O527 2.028 . S
Mg526 O533 1.986 . S
Mg526 O535 2.114 . S
Mg526 O536 2.251 . S
Mg526 O539 2.010 . S
O527 Mg526 2.028 . S
O527 C530 1.250 . S
O528 Mg529 2.028 . S
O528 C530 1.248 . S
Mg529 O528 2.028 . S
Mg529 O534 2.032 . S
Mg529 O536 2.079 . S
C530 O527 1.250 . S
C530 O528 1.248 . S
C531 O532 1.264 . S
C531 O539 1.249 . S
O532 C531 1.264 . S
O533 Mg526 1.986 . S
O533 C537 1.246 . S
O534 Mg529 2.032 . S
O534 C537 1.259 . S
O535 Mg526 2.114 . S
O535 C538 1.252 . S
O536 Mg526 2.251 . S
O536 Mg529 2.079 . S
O536 C538 1.273 . S
C537 O533 1.246 . S
C537 O534 1.259 . S
C538 O535 1.252 . S
C538 O536 1.273 . S
O539 Mg526 2.010 . S
O539 C531 1.249 . S
Mg540 O541 2.028 . S
Mg540 O547 1.986 1_554 S
Mg540 O549 2.114 . S
Mg540 O550 2.251 . S
Mg540 O553 2.010 . S
O541 Mg540 2.028 . S
O541 C544 1.250 . S
O542 Mg543 2.028 1_554 S
O542 C544 1.249 . S
Mg543 O542 2.028 1_556 S
Mg543 O548 2.032 . S
Mg543 O550 2.079 1_556 S
C544 O541 1.250 . S
C544 O542 1.249 . S
C545 O546 1.264 . S
C545 O553 1.249 . S
O546 C545 1.264 . S
O547 Mg540 1.986 1_556 S
O547 C551 1.246 . S
O548 Mg543 2.032 . S
O548 C551 1.259 . S
O549 Mg540 2.114 . S
O549 C552 1.252 . S
O550 Mg540 2.251 . S
O550 Mg543 2.079 1_554 S
O550 C552 1.273 . S
C551 O547 1.246 . S
C551 O548 1.259 . S
C552 O549 1.252 . S
C552 O550 1.273 . S
O553 Mg540 2.010 . S
O553 C545 1.249 . S
Mg554 O555 2.028 . S
Mg554 O561 1.986 . S
Mg554 O563 2.114 . S
Mg554 O564 2.251 . S
Mg554 O567 2.010 . S
O555 Mg554 2.028 . S
O555 C558 1.250 1_545 S
O556 Mg557 2.028 . S
O556 C558 1.248 . S
Mg557 O556 2.028 . S
Mg557 O562 2.032 . S
Mg557 O564 2.079 1_565 S
C558 O555 1.250 1_565 S
C558 O556 1.248 . S
C559 O560 1.264 . S
C559 O567 1.249 . S
O560 C559 1.264 . S
O561 Mg554 1.986 . S
O561 C565 1.246 . S
O562 Mg557 2.032 . S
O562 C565 1.259 1_565 S
O563 Mg554 2.114 . S
O563 C566 1.252 . S
O564 Mg554 2.251 . S
O564 Mg557 2.079 1_545 S
O564 C566 1.273 . S
C565 O561 1.246 . S
C565 O562 1.259 1_545 S
C566 O563 1.252 . S
C566 O564 1.273 . S
O567 Mg554 2.010 . S
O567 C559 1.249 . S
Mg568 O569 2.028 . S
Mg568 O575 1.986 . S
Mg568 O577 2.114 . S
Mg568 O578 2.251 . S
Mg568 O581 2.010 . S
O569 Mg568 2.028 . S
O569 C572 1.250 . S
O570 Mg571 2.028 . S
O570 C572 1.248 . S
Mg571 O570 2.028 . S
Mg571 O576 2.032 . S
Mg571 O578 2.079 . S
C572 O569 1.250 . S
C572 O570 1.248 . S
C573 O574 1.264 . S
C573 O581 1.249 . S
O574 C573 1.264 . S
O575 Mg568 1.986 . S
O575 C579 1.246 . S
O576 Mg571 2.032 . S
O576 C579 1.259 . S
O577 Mg568 2.114 . S
O577 C580 1.252 . S
O578 Mg568 2.251 . S
O578 Mg571 2.079 . S
O578 C580 1.273 . S
C579 O575 1.246 . S
C579 O576 1.259 . S
C580 O577 1.252 . S
C580 O578 1.273 . S
O581 Mg568 2.010 . S
O581 C573 1.249 . S
Mg582 O583 2.028 . S
Mg582 O589 1.986 . S
Mg582 O591 2.114 . S
Mg582 O592 2.251 . S
Mg582 O595 2.010 . S
O583 Mg582 2.028 . S
O583 C586 1.250 . S
O584 Mg585 2.028 . S
O584 C586 1.248 . S
Mg585 O584 2.028 . S
Mg585 O590 2.032 . S
Mg585 O592 2.079 . S
C586 O583 1.250 . S
C586 O584 1.248 . S
C587 O588 1.264 . S
C587 O595 1.249 . S
O588 C587 1.264 . S
O589 Mg582 1.986 . S
O589 C593 1.246 . S
O590 Mg585 2.032 . S
O590 C593 1.259 . S
O591 Mg582 2.114 . S
O591 C594 1.252 . S
O592 Mg582 2.251 . S
O592 Mg585 2.079 . S
O592 C594 1.273 . S
C593 O589 1.246 . S
C593 O590 1.259 . S
C594 O591 1.252 . S
C594 O592 1.273 . S
O595 Mg582 2.010 . S
O595 C587 1.249 . S
Mg596 O597 2.028 . S
Mg596 O603 1.986 . S
Mg596 O605 2.114 . S
Mg596 O606 2.251 . S
Mg596 O609 2.010 . S
O597 Mg596 2.028 . S
O597 C600 1.250 . S
O598 Mg599 2.028 . S
O598 C600 1.248 . S
Mg599 O598 2.028 . S
Mg599 O604 2.032 . S
Mg599 O606 2.079 . S
C600 O597 1.250 . S
C600 O598 1.248 . S
C601 O602 1.264 . S
C601 O609 1.249 . S
O602 C601 1.264 . S
O603 Mg596 1.986 . S
O603 C607 1.246 . S
O604 Mg599 2.032 . S
O604 C607 1.259 . S
O605 Mg596 2.114 . S
O605 C608 1.252 . S
O606 Mg596 2.251 . S
O606 Mg599 2.079 . S
O606 C608 1.273 . S
C607 O603 1.246 . S
C607 O604 1.259 . S
C608 O605 1.252 . S
C608 O606 1.273 . S
O609 Mg596 2.010 . S
O609 C601 1.249 . S
Mg610 O611 2.028 1_545 S
Mg610 O617 1.986 1_545 S
Mg610 O619 2.114 . S
Mg610 O620 2.251 . S
Mg610 O623 2.010 . S
O611 Mg610 2.028 1_565 S
O611 C614 1.250 . S
O612 Mg613 2.028 . S
O612 C614 1.248 . S
Mg613 O612 2.028 . S
Mg613 O618 2.032 . S
Mg613 O620 2.079 1_565 S
C614 O611 1.250 . S
C614 O612 1.248 . S
C615 O616 1.264 . S
C615 O623 1.249 . S
O616 C615 1.264 . S
O617 Mg610 1.986 1_565 S
O617 C621 1.246 . S
O618 Mg613 2.032 . S
O618 C621 1.259 . S
O619 Mg610 2.114 . S
O619 C622 1.252 . S
O620 Mg610 2.251 . S
O620 Mg613 2.079 1_545 S
O620 C622 1.273 . S
C621 O617 1.246 . S
C621 O618 1.259 . S
C622 O619 1.252 . S
C622 O620 1.273 . S
O623 Mg610 2.010 . S
O623 C615 1.249 . S
Mg624 O625 2.028 . S
Mg624 O631 1.986 . S
Mg624 O633 2.114 . S
Mg624 O634 2.251 . S
Mg624 O637 2.010 . S
O625 Mg624 2.028 . S
O625 C628 1.250 1_455 S
O626 Mg627 2.028 . S
O626 C628 1.248 . S
Mg627 O626 2.028 . S
Mg627 O632 2.032 . S
Mg627 O634 2.079 1_655 S
C628 O625 1.250 1_655 S
C628 O626 1.248 . S
C629 O630 1.264 . S
C629 O637 1.249 . S
O630 C629 1.264 . S
O631 Mg624 1.986 . S
O631 C635 1.246 . S
O632 Mg627 2.032 . S
O632 C635 1.259 1_655 S
O633 Mg624 2.114 . S
O633 C636 1.252 . S
O634 Mg624 2.251 . S
O634 Mg627 2.079 1_455 S
O634 C636 1.273 . S
C635 O631 1.246 . S
C635 O632 1.259 1_455 S
C636 O633 1.252 . S
C636 O634 1.273 . S
O637 Mg624 2.010 . S
O637 C629 1.249 . S
Mg638 O639 2.028 . S
Mg638 O645 1.986 . S
Mg638 O647 2.114 . S
Mg638 O648 2.251 . S
Mg638 O651 2.010 . S
O639 Mg638 2.028 . S
O639 C642 1.250 . S
O640 Mg641 2.028 . S
O640 C642 1.248 . S
Mg641 O640 2.028 . S
Mg641 O646 2.032 . S
Mg641 O648 2.079 . S
C642 O639 1.250 . S
C642 O640 1.248 . S
C643 O644 1.264 . S
C643 O651 1.249 . S
O644 C643 1.264 . S
O645 Mg638 1.986 . S
O645 C649 1.246 . S
O646 Mg641 2.032 . S
O646 C649 1.259 . S
O647 Mg638 2.114 . S
O647 C650 1.252 . S
O648 Mg638 2.251 . S
O648 Mg641 2.079 . S
O648 C650 1.273 . S
C649 O645 1.246 . S
C649 O646 1.259 . S
C650 O647 1.252 . S
C650 O648 1.273 . S
O651 Mg638 2.010 . S
O651 C643 1.249 . S
Mg652 O653 2.028 1_655 S
Mg652 O659 1.995 . S
Mg652 O661 2.114 . S
Mg652 O662 2.251 1_655 S
Mg652 O665 2.010 . S
O653 Mg652 2.028 1_455 S
O653 C656 1.250 . S
O654 Mg655 2.028 . S
O654 C656 1.248 . S
Mg655 O654 2.028 . S
Mg655 O660 2.032 . S
Mg655 O662 2.079 . S
C656 O653 1.250 . S
C656 O654 1.248 . S
C657 O658 1.264 . S
C657 O665 1.249 . S
O658 C657 1.264 . S
O659 Mg652 1.995 . S
O659 C663 1.220 1_655 S
O660 Mg655 2.032 . S
O660 C663 1.259 . S
O661 Mg652 2.114 . S
O661 C664 1.252 . S
O662 Mg652 2.251 1_455 S
O662 Mg655 2.079 . S
O662 C664 1.273 1_455 S
C663 O659 1.220 1_455 S
C663 O660 1.259 . S
C664 O661 1.252 . S
C664 O662 1.273 1_655 S
O665 Mg652 2.010 . S
O665 C657 1.249 . S
Mg666 O667 2.028 . S
Mg666 O673 1.986 . S
Mg666 O675 2.114 . S
Mg666 O676 2.251 . S
Mg666 O679 2.010 . S
O667 Mg666 2.028 . S
O667 C670 1.250 . S
O668 Mg669 2.028 . S
O668 C670 1.248 . S
Mg669 O668 2.028 . S
Mg669 O674 2.032 . S
Mg669 O676 2.079 . S
C670 O667 1.250 . S
C670 O668 1.248 . S
C671 O672 1.264 . S
C671 O679 1.249 . S
O672 C671 1.264 . S
O673 Mg666 1.986 . S
O673 C677 1.246 . S
O674 Mg669 2.032 . S
O674 C677 1.259 . S
O675 Mg666 2.114 . S
O675 C678 1.252 . S
O676 Mg666 2.251 . S
O676 Mg669 2.079 . S
O676 C678 1.273 . S
C677 O673 1.246 . S
C677 O674 1.259 . S
C678 O675 1.252 . S
C678 O676 1.273 . S
O679 Mg666 2.010 . S
O679 C671 1.249 . S
C680 C681 1.391 . S
C680 C682 1.394 . S
C680 H696 0.931 . S
C681 C680 1.391 . S
C681 C685 1.376 . S
C682 C680 1.394 . S
C682 C683 1.369 . S
C682 C686 1.531 . S
C683 C682 1.369 . S
C683 C684 1.410 . S
C683 C691 1.503 . S
C684 C683 1.410 . S
C684 C685 1.392 . S
C684 C687 1.511 . S
C685 C681 1.376 . S
C685 C684 1.392 . S
C685 H697 0.929 . S
C686 C682 1.531 . S
C686 H698 0.960 . S
C686 H699 0.962 . S
C686 H700 0.960 . S
C687 C684 1.511 . S
C687 H701 0.961 . S
C687 H702 0.961 . S
C687 H703 0.961 . S
C688 C689 1.370 . S
C688 C690 1.363 . S
C688 H704 0.931 . S
C689 C688 1.370 . S
C689 C693 1.408 . S
C690 C688 1.363 . S
C690 C691 1.370 . S
C690 C694 1.524 . S
C691 C683 1.503 . S
C691 C690 1.370 . S
C691 C692 1.403 . S
C692 C691 1.403 . S
C692 C693 1.404 . S
C692 C695 1.539 . S
C693 C689 1.408 . S
C693 C692 1.404 . S
C693 H705 0.930 . S
C694 C690 1.524 . S
C694 H706 0.956 . S
C694 H707 0.961 . S
C694 H708 0.961 . S
C695 C692 1.539 . S
C695 H709 0.958 . S
C695 H710 0.961 . S
C695 H711 0.960 . S
H696 C680 0.931 . S
H697 C685 0.929 . S
H698 C686 0.960 . S
H699 C686 0.962 . S
H700 C686 0.960 . S
H701 C687 0.961 . S
H702 C687 0.961 . S
H703 C687 0.961 . S
H704 C688 0.931 . S
H705 C693 0.930 . S
H706 C694 0.956 . S
H707 C694 0.961 . S
H708 C694 0.961 . S
H709 C695 0.958 . S
H710 C695 0.961 . S
H711 C695 0.960 . S
C712 C713 1.391 . S
C712 C714 1.394 . S
C712 H728 0.931 . S
C713 C712 1.391 . S
C713 C717 1.376 . S
C714 C712 1.394 . S
C714 C715 1.369 . S
C714 C718 1.531 . S
C715 C714 1.369 . S
C715 C716 1.410 . S
C715 C723 1.503 . S
C716 C715 1.410 . S
C716 C717 1.392 . S
C716 C719 1.511 . S
C717 C713 1.376 . S
C717 C716 1.392 . S
C717 H729 0.929 . S
C718 C714 1.531 . S
C718 H730 0.960 . S
C718 H731 0.962 . S
C718 H732 0.960 . S
C719 C716 1.511 . S
C719 H733 0.961 . S
C719 H734 0.961 . S
C719 H735 0.961 . S
C720 C721 1.370 . S
C720 C722 1.363 . S
C720 H736 0.931 . S
C721 C720 1.370 . S
C721 C725 1.408 . S
C722 C720 1.363 . S
C722 C723 1.370 . S
C722 C726 1.524 . S
C723 C715 1.503 . S
C723 C722 1.370 . S
C723 C724 1.403 . S
C724 C723 1.403 . S
C724 C725 1.404 . S
C724 C727 1.539 . S
C725 C721 1.408 . S
C725 C724 1.404 . S
C725 H737 0.930 . S
C726 C722 1.524 . S
C726 H738 0.956 . S
C726 H739 0.961 . S
C726 H740 0.961 . S
C727 C724 1.539 . S
C727 H741 0.958 . S
C727 H742 0.961 . S
C727 H743 0.960 . S
H728 C712 0.931 . S
H729 C717 0.929 . S
H730 C718 0.960 . S
H731 C718 0.962 . S
H732 C718 0.960 . S
H733 C719 0.961 . S
H734 C719 0.961 . S
H735 C719 0.961 . S
H736 C720 0.931 . S
H737 C725 0.930 . S
H738 C726 0.956 . S
H739 C726 0.961 . S
H740 C726 0.961 . S
H741 C727 0.958 . S
H742 C727 0.961 . S
H743 C727 0.960 . S
C744 C745 1.391 . S
C744 C746 1.394 . S
C744 H760 0.931 . S
C745 C744 1.391 . S
C745 C749 1.376 . S
C746 C744 1.394 . S
C746 C747 1.369 . S
C746 C750 1.531 . S
C747 C746 1.369 . S
C747 C748 1.410 . S
C747 C755 1.503 . S
C748 C747 1.410 . S
C748 C749 1.392 . S
C748 C751 1.511 . S
C749 C745 1.376 . S
C749 C748 1.392 . S
C749 H761 0.929 . S
C750 C746 1.531 . S
C750 H762 0.960 . S
C750 H763 0.962 . S
C750 H764 0.960 . S
C751 C748 1.511 . S
C751 H765 0.961 . S
C751 H766 0.961 . S
C751 H767 0.961 . S
C752 C753 1.370 . S
C752 C754 1.363 . S
C752 H768 0.931 . S
C753 C752 1.370 . S
C753 C757 1.408 . S
C754 C752 1.363 . S
C754 C755 1.370 . S
C754 C758 1.524 . S
C755 C747 1.503 . S
C755 C754 1.370 . S
C755 C756 1.403 . S
C756 C755 1.403 . S
C756 C757 1.404 . S
C756 C759 1.539 . S
C757 C753 1.408 . S
C757 C756 1.404 . S
C757 H769 0.930 . S
C758 C754 1.524 . S
C758 H770 0.956 . S
C758 H771 0.961 . S
C758 H772 0.961 . S
C759 C756 1.539 . S
C759 H773 0.958 . S
C759 H774 0.961 . S
C759 H775 0.960 . S
H760 C744 0.931 . S
H761 C749 0.929 . S
H762 C750 0.960 . S
H763 C750 0.962 . S
H764 C750 0.960 . S
H765 C751 0.961 . S
H766 C751 0.961 . S
H767 C751 0.961 . S
H768 C752 0.931 . S
H769 C757 0.930 . S
H770 C758 0.956 . S
H771 C758 0.961 . S
H772 C758 0.961 . S
H773 C759 0.958 . S
H774 C759 0.961 . S
H775 C759 0.960 . S
C776 C777 1.391 . S
C776 C778 1.394 . S
C776 H792 0.931 1_655 S
C777 C776 1.391 . S
C777 C781 1.399 . S
C778 C776 1.394 . S
C778 C779 1.369 . S
C778 C782 1.531 . S
C779 C778 1.369 . S
C779 C780 1.410 1_565 S
C779 C787 1.503 . S
C780 C779 1.410 1_545 S
C780 C781 1.388 1_545 S
C780 C783 1.511 . S
C781 C777 1.399 . S
C781 C780 1.388 1_565 S
C781 H793 0.911 1_565 S
C782 C778 1.531 . S
C782 H794 0.960 . S
C782 H795 0.962 . S
C782 H796 0.960 . S
C783 C780 1.511 . S
C783 H797 0.961 . S
C783 H798 0.961 . S
C783 H799 0.961 . S
C784 C785 1.370 . S
C784 C786 1.363 . S
C784 H800 0.931 . S
C785 C784 1.370 . S
C785 C789 1.408 1_545 S
C786 C784 1.363 . S
C786 C787 1.370 1_545 S
C786 C790 1.524 . S
C787 C779 1.503 . S
C787 C786 1.370 1_565 S
C787 C788 1.403 . S
C788 C787 1.403 . S
C788 C789 1.404 . S
C788 C791 1.539 . S
C789 C785 1.408 1_565 S
C789 C788 1.404 . S
C789 H801 0.930 . S
C790 C786 1.524 . S
C790 H802 0.956 . S
C790 H803 0.961 . S
C790 H804 0.961 . S
C791 C788 1.539 . S
C791 H805 0.958 . S
C791 H806 0.961 . S
C791 H807 0.960 . S
H792 C776 0.931 1_455 S
H793 C781 0.911 1_545 S
H794 C782 0.960 . S
H795 C782 0.962 . S
H796 C782 0.960 . S
H797 C783 0.961 . S
H798 C783 0.961 . S
H799 C783 0.961 . S
H800 C784 0.931 . S
H801 C789 0.930 . S
H802 C790 0.956 . S
H803 C790 0.961 . S
H804 C790 0.961 . S
H805 C791 0.958 . S
H806 C791 0.961 . S
H807 C791 0.960 . S
C808 C809 1.391 . S
C808 C810 1.394 . S
C808 H824 0.931 . S
C809 C808 1.391 . S
C809 C813 1.376 . S
C810 C808 1.394 . S
C810 C811 1.369 . S
C810 C814 1.531 . S
C811 C810 1.369 . S
C811 C812 1.410 . S
C811 C819 1.503 . S
C812 C811 1.410 . S
C812 C813 1.392 . S
C812 C815 1.511 . S
C813 C809 1.376 . S
C813 C812 1.392 . S
C813 H825 0.929 . S
C814 C810 1.531 . S
C814 H826 0.960 . S
C814 H827 0.962 . S
C814 H828 0.960 . S
C815 C812 1.511 . S
C815 H829 0.961 . S
C815 H830 0.961 . S
C815 H831 0.961 . S
C816 C817 1.370 . S
C816 C818 1.363 . S
C816 H832 0.931 . S
C817 C816 1.370 . S
C817 C821 1.408 . S
C818 C816 1.363 . S
C818 C819 1.370 . S
C818 C822 1.524 . S
C819 C811 1.503 . S
C819 C818 1.370 . S
C819 C820 1.403 . S
C820 C819 1.403 . S
C820 C821 1.404 . S
C820 C823 1.539 . S
C821 C817 1.408 . S
C821 C820 1.404 . S
C821 H833 0.930 . S
C822 C818 1.524 . S
C822 H834 0.956 . S
C822 H835 0.961 . S
C822 H836 0.961 . S
C823 C820 1.539 . S
C823 H837 0.958 . S
C823 H838 0.961 . S
C823 H839 0.960 . S
H824 C808 0.931 . S
H825 C813 0.929 . S
H826 C814 0.960 . S
H827 C814 0.962 . S
H828 C814 0.960 . S
H829 C815 0.961 . S
H830 C815 0.961 . S
H831 C815 0.961 . S
H832 C816 0.931 . S
H833 C821 0.930 . S
H834 C822 0.956 . S
H835 C822 0.961 . S
H836 C822 0.961 . S
H837 C823 0.958 . S
H838 C823 0.961 . S
H839 C823 0.960 . S
C840 C841 1.391 . S
C840 C842 1.394 . S
C840 H856 0.931 . S
C841 C840 1.391 . S
C841 C845 1.376 . S
C842 C840 1.394 . S
C842 C843 1.369 . S
C842 C846 1.531 . S
C843 C842 1.369 . S
C843 C844 1.410 . S
C843 C851 1.503 . S
C844 C843 1.410 . S
C844 C845 1.392 . S
C844 C847 1.511 . S
C845 C841 1.376 . S
C845 C844 1.392 . S
C845 H857 0.929 . S
C846 C842 1.531 . S
C846 H858 0.960 . S
C846 H859 0.962 . S
C846 H860 0.960 . S
C847 C844 1.511 . S
C847 H861 0.961 . S
C847 H862 0.961 . S
C847 H863 0.961 . S
C848 C849 1.370 . S
C848 C850 1.363 . S
C848 H864 0.931 . S
C849 C848 1.370 . S
C849 C853 1.408 . S
C850 C848 1.363 . S
C850 C851 1.370 . S
C850 C854 1.524 . S
C851 C843 1.503 . S
C851 C850 1.370 . S
C851 C852 1.403 . S
C852 C851 1.403 . S
C852 C853 1.404 . S
C852 C855 1.539 . S
C853 C849 1.408 . S
C853 C852 1.404 . S
C853 H865 0.930 . S
C854 C850 1.524 . S
C854 H866 0.956 . S
C854 H867 0.961 . S
C854 H868 0.961 . S
C855 C852 1.539 . S
C855 H869 0.958 . S
C855 H870 0.961 . S
C855 H871 0.960 . S
H856 C840 0.931 . S
H857 C845 0.929 . S
H858 C846 0.960 . S
H859 C846 0.962 . S
H860 C846 0.960 . S
H861 C847 0.961 . S
H862 C847 0.961 . S
H863 C847 0.961 . S
H864 C848 0.931 . S
H865 C853 0.930 . S
H866 C854 0.956 . S
H867 C854 0.961 . S
H868 C854 0.961 . S
H869 C855 0.958 . S
H870 C855 0.961 . S
H871 C855 0.960 . S
C872 C873 1.391 . S
C872 C874 1.394 . S
C872 H888 0.931 . S
C873 C872 1.391 . S
C873 C877 1.376 . S
C874 C872 1.394 . S
C874 C875 1.369 . S
C874 C878 1.531 . S
C875 C874 1.369 . S
C875 C876 1.410 . S
C875 C883 1.503 . S
C876 C875 1.410 . S
C876 C877 1.392 . S
C876 C879 1.511 . S
C877 C873 1.376 . S
C877 C876 1.392 . S
C877 H889 0.929 . S
C878 C874 1.531 . S
C878 H890 0.960 . S
C878 H891 0.962 . S
C878 H892 0.960 . S
C879 C876 1.511 . S
C879 H893 0.961 . S
C879 H894 0.961 . S
C879 H895 0.961 . S
C880 C881 1.370 . S
C880 C882 1.363 . S
C880 H896 0.931 . S
C881 C880 1.370 . S
C881 C885 1.408 . S
C882 C880 1.363 . S
C882 C883 1.370 . S
C882 C886 1.524 . S
C883 C875 1.503 . S
C883 C882 1.370 . S
C883 C884 1.403 . S
C884 C883 1.403 . S
C884 C885 1.404 . S
C884 C887 1.539 . S
C885 C881 1.408 . S
C885 C884 1.404 . S
C885 H897 0.930 . S
C886 C882 1.524 . S
C886 H898 0.956 . S
C886 H899 0.961 . S
C886 H900 0.961 . S
C887 C884 1.539 . S
C887 H901 0.958 . S
C887 H902 0.961 . S
C887 H903 0.960 . S
H888 C872 0.931 . S
H889 C877 0.929 . S
H890 C878 0.960 . S
H891 C878 0.962 . S
H892 C878 0.960 . S
H893 C879 0.961 . S
H894 C879 0.961 . S
H895 C879 0.961 . S
H896 C880 0.931 . S
H897 C885 0.930 . S
H898 C886 0.956 . S
H899 C886 0.961 . S
H900 C886 0.961 . S
H901 C887 0.958 . S
H902 C887 0.961 . S
H903 C887 0.960 . S
C904 C905 1.391 . S
C904 C906 1.394 . S
C904 H920 0.931 . S
C905 C904 1.391 . S
C905 C909 1.376 . S
C906 C904 1.394 . S
C906 C907 1.369 . S
C906 C910 1.531 1_565 S
C907 C906 1.369 . S
C907 C908 1.410 . S
C907 C915 1.503 . S
C908 C907 1.410 . S
C908 C909 1.392 . S
C908 C911 1.511 . S
C909 C905 1.376 . S
C909 C908 1.392 . S
C909 H921 0.929 . S
C910 C906 1.531 1_545 S
C910 H922 0.960 1_545 S
C910 H923 0.962 . S
C910 H924 0.961 1_545 S
C911 C908 1.511 . S
C911 H925 0.961 . S
C911 H926 0.961 . S
C911 H927 0.961 . S
C912 C913 1.370 1_545 S
C912 C914 1.363 . S
C912 H928 0.931 . S
C913 C912 1.370 1_565 S
C913 C917 1.408 . S
C914 C912 1.363 . S
C914 C915 1.370 1_545 S
C914 C918 1.524 . S
C915 C907 1.503 . S
C915 C914 1.370 1_565 S
C915 C916 1.403 . S
C916 C915 1.403 . S
C916 C917 1.404 . S
C916 C919 1.539 . S
C917 C913 1.408 . S
C917 C916 1.404 . S
C917 H929 0.930 . S
C918 C914 1.524 . S
C918 H930 0.956 . S
C918 H931 0.961 . S
C918 H932 0.961 . S
C919 C916 1.539 . S
C919 H933 0.958 . S
C919 H934 0.961 . S
C919 H935 0.960 . S
H920 C904 0.931 . S
H921 C909 0.929 . S
H922 C910 0.960 1_565 S
H923 C910 0.962 . S
H924 C910 0.961 1_565 S
H925 C911 0.961 . S
H926 C911 0.961 . S
H927 C911 0.961 . S
H928 C912 0.931 . S
H929 C917 0.930 . S
H930 C918 0.956 . S
H931 C918 0.961 . S
H932 C918 0.961 . S
H933 C919 0.958 . S
H934 C919 0.961 . S
H935 C919 0.960 . S
C936 C937 1.391 . S
C936 C938 1.394 . S
C936 H952 0.931 . S
C937 C936 1.391 . S
C937 C941 1.376 . S
C938 C936 1.394 . S
C938 C939 1.369 . S
C938 C942 1.531 . S
C939 C938 1.369 . S
C939 C940 1.410 . S
C939 C947 1.503 . S
C940 C939 1.410 . S
C940 C941 1.392 . S
C940 C943 1.511 . S
C941 C937 1.376 . S
C941 C940 1.392 . S
C941 H953 0.929 . S
C942 C938 1.531 . S
C942 H954 0.960 . S
C942 H955 0.962 . S
C942 H956 0.960 . S
C943 C940 1.511 . S
C943 H957 0.961 . S
C943 H958 0.961 . S
C943 H959 0.961 . S
C944 C945 1.370 . S
C944 C946 1.363 . S
C944 H960 0.931 . S
C945 C944 1.370 . S
C945 C949 1.408 . S
C946 C944 1.363 . S
C946 C947 1.370 . S
C946 C950 1.524 . S
C947 C939 1.503 . S
C947 C946 1.370 . S
C947 C948 1.403 . S
C948 C947 1.403 . S
C948 C949 1.404 . S
C948 C951 1.539 . S
C949 C945 1.408 . S
C949 C948 1.404 . S
C949 H961 0.930 . S
C950 C946 1.524 . S
C950 H962 0.956 . S
C950 H963 0.961 . S
C950 H964 0.961 . S
C951 C948 1.539 . S
C951 H965 0.958 . S
C951 H966 0.961 . S
C951 H967 0.960 . S
H952 C936 0.931 . S
H953 C941 0.929 . S
H954 C942 0.960 . S
H955 C942 0.962 . S
H956 C942 0.960 . S
H957 C943 0.961 . S
H958 C943 0.961 . S
H959 C943 0.961 . S
H960 C944 0.931 . S
H961 C949 0.930 . S
H962 C950 0.956 . S
H963 C950 0.961 . S
H964 C950 0.961 . S
H965 C951 0.958 . S
H966 C951 0.961 . S
H967 C951 0.960 . S
C968 C969 1.391 . S
C968 C970 1.394 . S
C968 H984 0.931 . S
C969 C968 1.391 . S
C969 C973 1.376 . S
C970 C968 1.394 . S
C970 C971 1.369 . S
C970 C974 1.531 . S
C971 C970 1.369 . S
C971 C972 1.410 . S
C971 C979 1.503 . S
C972 C971 1.410 . S
C972 C973 1.392 . S
C972 C975 1.511 . S
C973 C969 1.376 . S
C973 C972 1.392 . S
C973 H985 0.929 . S
C974 C970 1.531 . S
C974 H986 0.960 . S
C974 H987 0.962 . S
C974 H988 0.960 . S
C975 C972 1.511 . S
C975 H989 0.961 . S
C975 H990 0.961 . S
C975 H991 0.961 . S
C976 C977 1.370 . S
C976 C978 1.363 . S
C976 H992 0.931 . S
C977 C976 1.370 . S
C977 C981 1.408 . S
C978 C976 1.363 . S
C978 C979 1.370 . S
C978 C982 1.524 . S
C979 C971 1.503 . S
C979 C978 1.370 . S
C979 C980 1.403 . S
C980 C979 1.403 . S
C980 C981 1.404 . S
C980 C983 1.539 . S
C981 C977 1.408 . S
C981 C980 1.404 . S
C981 H993 0.930 . S
C982 C978 1.524 . S
C982 H994 0.956 . S
C982 H995 0.961 . S
C982 H996 0.961 . S
C983 C980 1.539 . S
C983 H997 0.958 . S
C983 H998 0.961 . S
C983 H999 0.960 . S
H984 C968 0.931 . S
H985 C973 0.929 . S
H986 C974 0.960 . S
H987 C974 0.962 . S
H988 C974 0.960 . S
H989 C975 0.961 . S
H990 C975 0.961 . S
H991 C975 0.961 . S
H992 C976 0.931 . S
H993 C981 0.930 . S
H994 C982 0.956 . S
H995 C982 0.961 . S
H996 C982 0.961 . S
H997 C983 0.958 . S
H998 C983 0.961 . S
H999 C983 0.960 . S
C1000 C1001 1.391 . S
C1000 C1002 1.394 . S
C1000 H1016 0.931 . S
C1001 C1000 1.391 . S
C1001 C1005 1.376 . S
C1002 C1000 1.394 . S
C1002 C1003 1.369 . S
C1002 C1006 1.531 . S
C1003 C1002 1.369 . S
C1003 C1004 1.410 . S
C1003 C1011 1.503 . S
C1004 C1003 1.410 . S
C1004 C1005 1.392 . S
C1004 C1007 1.511 . S
C1005 C1001 1.376 . S
C1005 C1004 1.392 . S
C1005 H1017 0.929 . S
C1006 C1002 1.531 . S
C1006 H1018 0.960 . S
C1006 H1019 0.962 . S
C1006 H1020 0.960 . S
C1007 C1004 1.511 . S
C1007 H1021 0.961 . S
C1007 H1022 0.961 . S
C1007 H1023 0.961 . S
C1008 C1009 1.370 . S
C1008 C1010 1.363 . S
C1008 H1024 0.931 . S
C1009 C1008 1.370 . S
C1009 C1013 1.408 . S
C1010 C1008 1.363 . S
C1010 C1011 1.370 . S
C1010 C1014 1.524 . S
C1011 C1003 1.503 . S
C1011 C1010 1.370 . S
C1011 C1012 1.403 . S
C1012 C1011 1.403 . S
C1012 C1013 1.404 . S
C1012 C1015 1.539 . S
C1013 C1009 1.408 . S
C1013 C1012 1.404 . S
C1013 H1025 0.930 . S
C1014 C1010 1.524 . S
C1014 H1026 0.956 . S
C1014 H1027 0.961 . S
C1014 H1028 0.961 . S
C1015 C1012 1.539 . S
C1015 H1029 0.958 . S
C1015 H1030 0.961 . S
C1015 H1031 0.960 . S
H1016 C1000 0.931 . S
H1017 C1005 0.929 . S
H1018 C1006 0.960 . S
H1019 C1006 0.962 . S
H1020 C1006 0.960 . S
H1021 C1007 0.961 . S
H1022 C1007 0.961 . S
H1023 C1007 0.961 . S
H1024 C1008 0.931 . S
H1025 C1013 0.930 . S
H1026 C1014 0.956 . S
H1027 C1014 0.961 . S
H1028 C1014 0.961 . S
H1029 C1015 0.958 . S
H1030 C1015 0.961 . S
H1031 C1015 0.960 . S
C1032 C1033 1.391 . S
C1032 C1034 1.394 . S
C1032 H1048 0.931 . S
C1033 C1032 1.391 . S
C1033 C1037 1.376 . S
C1034 C1032 1.394 . S
C1034 C1035 1.369 . S
C1034 C1038 1.531 . S
C1035 C1034 1.369 . S
C1035 C1036 1.410 . S
C1035 C1043 1.503 . S
C1036 C1035 1.410 . S
C1036 C1037 1.392 . S
C1036 C1039 1.511 . S
C1037 C1033 1.376 . S
C1037 C1036 1.392 . S
C1037 H1049 0.929 . S
C1038 C1034 1.531 . S
C1038 H1050 0.960 . S
C1038 H1051 0.962 . S
C1038 H1052 0.960 . S
C1039 C1036 1.511 . S
C1039 H1053 0.961 . S
C1039 H1054 0.961 . S
C1039 H1055 0.961 . S
C1040 C1041 1.370 . S
C1040 C1042 1.363 . S
C1040 H1056 0.931 . S
C1041 C1040 1.370 . S
C1041 C1045 1.408 . S
C1042 C1040 1.363 . S
C1042 C1043 1.370 . S
C1042 C1046 1.524 . S
C1043 C1035 1.503 . S
C1043 C1042 1.370 . S
C1043 C1044 1.403 . S
C1044 C1043 1.403 . S
C1044 C1045 1.404 . S
C1044 C1047 1.539 . S
C1045 C1041 1.408 . S
C1045 C1044 1.404 . S
C1045 H1057 0.930 . S
C1046 C1042 1.524 . S
C1046 H1058 0.956 . S
C1046 H1059 0.961 . S
C1046 H1060 0.961 . S
C1047 C1044 1.539 . S
C1047 H1061 0.958 . S
C1047 H1062 0.961 . S
C1047 H1063 0.960 . S
H1048 C1032 0.931 . S
H1049 C1037 0.929 . S
H1050 C1038 0.960 . S
H1051 C1038 0.962 . S
H1052 C1038 0.960 . S
H1053 C1039 0.961 . S
H1054 C1039 0.961 . S
H1055 C1039 0.961 . S
H1056 C1040 0.931 . S
H1057 C1045 0.930 . S
H1058 C1046 0.956 . S
H1059 C1046 0.961 . S
H1060 C1046 0.961 . S
H1061 C1047 0.958 . S
H1062 C1047 0.961 . S
H1063 C1047 0.960 . S
C1064 C1065 1.391 . S
C1064 C1066 1.394 . S
C1064 H1080 0.931 . S
C1065 C1064 1.391 . S
C1065 C1069 1.376 . S
C1066 C1064 1.394 . S
C1066 C1067 1.369 . S
C1066 C1070 1.531 . S
C1067 C1066 1.369 . S
C1067 C1068 1.410 . S
C1067 C1075 1.503 . S
C1068 C1067 1.410 . S
C1068 C1069 1.392 . S
C1068 C1071 1.511 . S
C1069 C1065 1.376 . S
C1069 C1068 1.392 . S
C1069 H1081 0.929 . S
C1070 C1066 1.531 . S
C1070 H1082 0.960 . S
C1070 H1083 0.962 . S
C1070 H1084 0.960 . S
C1071 C1068 1.511 . S
C1071 H1085 0.961 . S
C1071 H1086 0.961 . S
C1071 H1087 0.961 . S
C1072 C1073 1.370 . S
C1072 C1074 1.363 . S
C1072 H1088 0.931 . S
C1073 C1072 1.370 . S
C1073 C1077 1.408 . S
C1074 C1072 1.363 . S
C1074 C1075 1.370 . S
C1074 C1078 1.524 . S
C1075 C1067 1.503 . S
C1075 C1074 1.370 . S
C1075 C1076 1.403 . S
C1076 C1075 1.403 . S
C1076 C1077 1.404 . S
C1076 C1079 1.539 . S
C1077 C1073 1.408 . S
C1077 C1076 1.404 . S
C1077 H1089 0.930 . S
C1078 C1074 1.524 . S
C1078 H1090 0.956 . S
C1078 H1091 0.961 . S
C1078 H1092 0.961 . S
C1079 C1076 1.539 . S
C1079 H1093 0.958 . S
C1079 H1094 0.961 . S
C1079 H1095 0.960 . S
H1080 C1064 0.931 . S
H1081 C1069 0.929 . S
H1082 C1070 0.960 . S
H1083 C1070 0.962 . S
H1084 C1070 0.960 . S
H1085 C1071 0.961 . S
H1086 C1071 0.961 . S
H1087 C1071 0.961 . S
H1088 C1072 0.931 . S
H1089 C1077 0.930 . S
H1090 C1078 0.956 . S
H1091 C1078 0.961 . S
H1092 C1078 0.961 . S
H1093 C1079 0.958 . S
H1094 C1079 0.961 . S
H1095 C1079 0.960 . S
C1096 C1097 1.391 . S
C1096 C1098 1.394 . S
C1096 H1112 0.931 . S
C1097 C1096 1.391 . S
C1097 C1101 1.376 . S
C1098 C1096 1.394 . S
C1098 C1099 1.369 . S
C1098 C1102 1.531 1_455 S
C1099 C1098 1.369 . S
C1099 C1100 1.410 . S
C1099 C1107 1.503 . S
C1100 C1099 1.410 . S
C1100 C1101 1.392 . S
C1100 C1103 1.511 . S
C1101 C1097 1.376 . S
C1101 C1100 1.392 . S
C1101 H1113 0.929 . S
C1102 C1098 1.531 1_655 S
C1102 H1114 0.960 . S
C1102 H1115 0.962 . S
C1102 H1116 0.960 . S
C1103 C1100 1.511 . S
C1103 H1117 0.961 . S
C1103 H1118 0.961 . S
C1103 H1119 0.961 . S
C1104 C1105 1.370 . S
C1104 C1106 1.363 . S
C1104 H1120 0.931 . S
C1105 C1104 1.370 . S
C1105 C1109 1.408 . S
C1106 C1104 1.363 . S
C1106 C1107 1.370 . S
C1106 C1110 1.524 . S
C1107 C1099 1.503 . S
C1107 C1106 1.370 . S
C1107 C1108 1.403 . S
C1108 C1107 1.403 . S
C1108 C1109 1.404 . S
C1108 C1111 1.539 . S
C1109 C1105 1.408 . S
C1109 C1108 1.404 . S
C1109 H1121 0.930 . S
C1110 C1106 1.524 . S
C1110 H1122 0.956 . S
C1110 H1123 0.961 . S
C1110 H1124 0.961 . S
C1111 C1108 1.539 . S
C1111 H1125 0.958 . S
C1111 H1126 0.961 . S
C1111 H1127 0.960 . S
H1112 C1096 0.931 . S
H1113 C1101 0.929 . S
H1114 C1102 0.960 . S
H1115 C1102 0.962 . S
H1116 C1102 0.960 . S
H1117 C1103 0.961 . S
H1118 C1103 0.961 . S
H1119 C1103 0.961 . S
H1120 C1104 0.931 . S
H1121 C1109 0.930 . S
H1122 C1110 0.956 . S
H1123 C1110 0.961 . S
H1124 C1110 0.961 . S
H1125 C1111 0.958 . S
H1126 C1111 0.961 . S
H1127 C1111 0.960 . S
C1128 C1129 1.391 . S
C1128 C1130 1.394 . S
C1128 H1144 0.931 . S
C1129 C1128 1.391 . S
C1129 C1133 1.376 . S
C1130 C1128 1.394 . S
C1130 C1131 1.369 . S
C1130 C1134 1.531 . S
C1131 C1130 1.369 . S
C1131 C1132 1.410 . S
C1131 C1139 1.503 . S
C1132 C1131 1.410 . S
C1132 C1133 1.392 . S
C1132 C1135 1.511 . S
C1133 C1129 1.376 . S
C1133 C1132 1.392 . S
C1133 H1145 0.929 . S
C1134 C1130 1.531 . S
C1134 H1146 0.960 . S
C1134 H1147 0.962 . S
C1134 H1148 0.960 . S
C1135 C1132 1.511 . S
C1135 H1149 0.961 . S
C1135 H1150 0.961 . S
C1135 H1151 0.961 . S
C1136 C1137 1.370 . S
C1136 C1138 1.363 . S
C1136 H1152 0.931 . S
C1137 C1136 1.370 . S
C1137 C1141 1.408 . S
C1138 C1136 1.363 . S
C1138 C1139 1.370 . S
C1138 C1142 1.524 . S
C1139 C1131 1.503 . S
C1139 C1138 1.370 . S
C1139 C1140 1.403 . S
C1140 C1139 1.403 . S
C1140 C1141 1.404 . S
C1140 C1143 1.539 . S
C1141 C1137 1.408 . S
C1141 C1140 1.404 . S
C1141 H1153 0.930 . S
C1142 C1138 1.524 . S
C1142 H1154 0.956 . S
C1142 H1155 0.961 . S
C1142 H1156 0.961 . S
C1143 C1140 1.539 . S
C1143 H1157 0.958 . S
C1143 H1158 0.961 . S
C1143 H1159 0.960 . S
H1144 C1128 0.931 . S
H1145 C1133 0.929 . S
H1146 C1134 0.960 . S
H1147 C1134 0.962 . S
H1148 C1134 0.960 . S
H1149 C1135 0.961 . S
H1150 C1135 0.961 . S
H1151 C1135 0.961 . S
H1152 C1136 0.931 . S
H1153 C1141 0.930 . S
H1154 C1142 0.956 . S
H1155 C1142 0.961 . S
H1156 C1142 0.961 . S
H1157 C1143 0.958 . S
H1158 C1143 0.961 . S
H1159 C1143 0.960 . S
C1160 C1161 1.391 . S
C1160 C1162 1.394 . S
C1160 H1176 0.931 . S
C1161 C1160 1.391 . S
C1161 C1165 1.396 . S
C1162 C1160 1.394 . S
C1162 C1163 1.369 . S
C1162 C1166 1.531 . S
C1163 C1162 1.369 . S
C1163 C1164 1.410 1_655 S
C1163 C1171 1.503 . S
C1164 C1163 1.410 1_455 S
C1164 C1165 1.392 1_455 S
C1164 C1167 1.511 . S
C1165 C1161 1.396 . S
C1165 C1164 1.392 1_655 S
C1165 H1177 0.909 1_655 S
C1166 C1162 1.531 . S
C1166 H1178 0.960 . S
C1166 H1179 0.962 . S
C1166 H1180 0.960 . S
C1167 C1164 1.511 . S
C1167 H1181 0.961 . S
C1167 H1182 0.961 . S
C1167 H1183 0.961 . S
C1168 C1169 1.370 . S
C1168 C1170 1.363 . S
C1168 H1184 0.931 . S
C1169 C1168 1.370 . S
C1169 C1173 1.408 . S
C1170 C1168 1.363 . S
C1170 C1171 1.370 . S
C1170 C1174 1.524 . S
C1171 C1163 1.503 . S
C1171 C1170 1.370 . S
C1171 C1172 1.403 . S
C1172 C1171 1.403 . S
C1172 C1173 1.404 . S
C1172 C1175 1.539 . S
C1173 C1169 1.408 . S
C1173 C1172 1.404 . S
C1173 H1185 0.930 . S
C1174 C1170 1.524 . S
C1174 H1186 0.956 . S
C1174 H1187 0.961 1_655 S
C1174 H1188 0.962 . S
C1175 C1172 1.539 . S
C1175 H1189 0.958 . S
C1175 H1190 0.961 . S
C1175 H1191 0.960 . S
H1176 C1160 0.931 . S
H1177 C1165 0.909 1_455 S
H1178 C1166 0.960 . S
H1179 C1166 0.962 . S
H1180 C1166 0.960 . S
H1181 C1167 0.961 . S
H1182 C1167 0.961 . S
H1183 C1167 0.961 . S
H1184 C1168 0.931 . S
H1185 C1173 0.930 . S
H1186 C1174 0.956 . S
H1187 C1174 0.961 1_455 S
H1188 C1174 0.962 . S
H1189 C1175 0.958 . S
H1190 C1175 0.961 . S
H1191 C1175 0.960 . S
C1192 C1193 1.391 . S
C1192 C1194 1.394 . S
C1192 H1208 0.931 . S
C1193 C1192 1.391 . S
C1193 C1197 1.376 . S
C1194 C1192 1.394 . S
C1194 C1195 1.369 . S
C1194 C1198 1.531 . S
C1195 C1194 1.369 . S
C1195 C1196 1.410 . S
C1195 C1203 1.503 . S
C1196 C1195 1.410 . S
C1196 C1197 1.392 . S
C1196 C1199 1.511 . S
C1197 C1193 1.376 . S
C1197 C1196 1.392 . S
C1197 H1209 0.929 . S
C1198 C1194 1.531 . S
C1198 H1210 0.960 . S
C1198 H1211 0.962 . S
C1198 H1212 0.960 . S
C1199 C1196 1.511 . S
C1199 H1213 0.961 . S
C1199 H1214 0.961 . S
C1199 H1215 0.961 . S
C1200 C1201 1.370 . S
C1200 C1202 1.363 . S
C1200 H1216 0.931 . S
C1201 C1200 1.370 . S
C1201 C1205 1.408 . S
C1202 C1200 1.363 . S
C1202 C1203 1.370 . S
C1202 C1206 1.524 . S
C1203 C1195 1.503 . S
C1203 C1202 1.370 . S
C1203 C1204 1.403 . S
C1204 C1203 1.403 . S
C1204 C1205 1.404 . S
C1204 C1207 1.539 . S
C1205 C1201 1.408 . S
C1205 C1204 1.404 . S
C1205 H1217 0.930 . S
C1206 C1202 1.524 . S
C1206 H1218 0.956 . S
C1206 H1219 0.961 . S
C1206 H1220 0.961 . S
C1207 C1204 1.539 . S
C1207 H1221 0.958 . S
C1207 H1222 0.961 . S
C1207 H1223 0.960 . S
H1208 C1192 0.931 . S
H1209 C1197 0.929 . S
H1210 C1198 0.960 . S
H1211 C1198 0.962 . S
H1212 C1198 0.960 . S
H1213 C1199 0.961 . S
H1214 C1199 0.961 . S
H1215 C1199 0.961 . S
H1216 C1200 0.931 . S
H1217 C1205 0.930 . S
H1218 C1206 0.956 . S
H1219 C1206 0.961 . S
H1220 C1206 0.961 . S
H1221 C1207 0.958 . S
H1222 C1207 0.961 . S
H1223 C1207 0.960 . S
C1224 C1225 1.391 . S
C1224 C1226 1.394 . S
C1224 H1240 0.931 . S
C1225 C1224 1.391 . S
C1225 C1229 1.376 . S
C1226 C1224 1.394 . S
C1226 C1227 1.369 . S
C1226 C1230 1.531 . S
C1227 C1226 1.369 . S
C1227 C1228 1.410 . S
C1227 C1235 1.503 . S
C1228 C1227 1.410 . S
C1228 C1229 1.392 . S
C1228 C1231 1.511 . S
C1229 C1225 1.376 . S
C1229 C1228 1.392 . S
C1229 H1241 0.929 . S
C1230 C1226 1.531 . S
C1230 H1242 0.960 . S
C1230 H1243 0.962 . S
C1230 H1244 0.960 . S
C1231 C1228 1.511 . S
C1231 H1245 0.961 . S
C1231 H1246 0.961 . S
C1231 H1247 0.961 . S
C1232 C1233 1.370 . S
C1232 C1234 1.363 . S
C1232 H1248 0.931 . S
C1233 C1232 1.370 . S
C1233 C1237 1.408 . S
C1234 C1232 1.363 . S
C1234 C1235 1.370 . S
C1234 C1238 1.524 . S
C1235 C1227 1.503 . S
C1235 C1234 1.370 . S
C1235 C1236 1.403 . S
C1236 C1235 1.403 . S
C1236 C1237 1.404 . S
C1236 C1239 1.539 . S
C1237 C1233 1.408 . S
C1237 C1236 1.404 . S
C1237 H1249 0.930 . S
C1238 C1234 1.524 . S
C1238 H1250 0.956 . S
C1238 H1251 0.961 . S
C1238 H1252 0.961 . S
C1239 C1236 1.539 . S
C1239 H1253 0.958 . S
C1239 H1254 0.961 . S
C1239 H1255 0.960 . S
H1240 C1224 0.931 . S
H1241 C1229 0.929 . S
H1242 C1230 0.960 . S
H1243 C1230 0.962 . S
H1244 C1230 0.960 . S
H1245 C1231 0.961 . S
H1246 C1231 0.961 . S
H1247 C1231 0.961 . S
H1248 C1232 0.931 . S
H1249 C1237 0.930 . S
H1250 C1238 0.956 . S
H1251 C1238 0.961 . S
H1252 C1238 0.961 . S
H1253 C1239 0.958 . S
H1254 C1239 0.961 . S
H1255 C1239 0.960 . S
C1256 C1257 1.391 . S
C1256 C1258 1.392 1_556 S
C1256 H1272 0.931 1_556 S
C1257 C1256 1.391 . S
C1257 C1261 1.376 . S
C1258 C1256 1.392 1_554 S
C1258 C1259 1.358 1_554 S
C1258 C1262 1.543 . S
C1259 C1258 1.358 1_556 S
C1259 C1260 1.410 . S
C1259 C1267 1.503 . S
C1260 C1259 1.410 . S
C1260 C1261 1.392 . S
C1260 C1263 1.511 . S
C1261 C1257 1.376 . S
C1261 C1260 1.392 . S
C1261 H1273 0.929 . S
C1262 C1258 1.543 . S
C1262 H1274 0.960 . S
C1262 H1275 0.962 . S
C1262 H1276 0.960 . S
C1263 C1260 1.511 . S
C1263 H1277 0.961 . S
C1263 H1278 0.961 . S
C1263 H1279 0.961 . S
C1264 C1265 1.370 1_554 S
C1264 C1266 1.363 . S
C1264 H1280 0.931 . S
C1265 C1264 1.370 1_556 S
C1265 C1269 1.408 . S
C1266 C1264 1.363 . S
C1266 C1267 1.370 1_554 S
C1266 C1270 1.524 . S
C1267 C1259 1.503 . S
C1267 C1266 1.370 1_556 S
C1267 C1268 1.403 . S
C1268 C1267 1.403 . S
C1268 C1269 1.404 . S
C1268 C1271 1.539 . S
C1269 C1265 1.408 . S
C1269 C1268 1.404 . S
C1269 H1281 0.930 . S
C1270 C1266 1.524 . S
C1270 H1282 0.956 . S
C1270 H1283 0.961 . S
C1270 H1284 0.961 . S
C1271 C1268 1.539 . S
C1271 H1285 0.958 . S
C1271 H1286 0.961 . S
C1271 H1287 0.960 . S
H1272 C1256 0.931 1_554 S
H1273 C1261 0.929 . S
H1274 C1262 0.960 . S
H1275 C1262 0.962 . S
H1276 C1262 0.960 . S
H1277 C1263 0.961 . S
H1278 C1263 0.961 . S
H1279 C1263 0.961 . S
H1280 C1264 0.931 . S
H1281 C1269 0.930 . S
H1282 C1270 0.956 . S
H1283 C1270 0.961 . S
H1284 C1270 0.961 . S
H1285 C1271 0.958 . S
H1286 C1271 0.961 . S
H1287 C1271 0.960 . S
C1288 C1289 1.391 . S
C1288 C1290 1.394 . S
C1288 H1304 0.931 . S
C1289 C1288 1.391 . S
C1289 C1293 1.376 . S
C1290 C1288 1.394 . S
C1290 C1291 1.369 . S
C1290 C1294 1.531 . S
C1291 C1290 1.369 . S
C1291 C1292 1.410 . S
C1291 C1299 1.503 . S
C1292 C1291 1.410 . S
C1292 C1293 1.392 . S
C1292 C1295 1.511 . S
C1293 C1289 1.376 . S
C1293 C1292 1.392 . S
C1293 H1305 0.929 . S
C1294 C1290 1.531 . S
C1294 H1306 0.960 . S
C1294 H1307 0.962 . S
C1294 H1308 0.960 . S
C1295 C1292 1.511 . S
C1295 H1309 0.961 . S
C1295 H1310 0.961 . S
C1295 H1311 0.961 . S
C1296 C1297 1.370 . S
C1296 C1298 1.363 . S
C1296 H1312 0.931 . S
C1297 C1296 1.370 . S
C1297 C1301 1.408 . S
C1298 C1296 1.363 . S
C1298 C1299 1.370 . S
C1298 C1302 1.524 . S
C1299 C1291 1.503 . S
C1299 C1298 1.370 . S
C1299 C1300 1.403 . S
C1300 C1299 1.403 . S
C1300 C1301 1.404 . S
C1300 C1303 1.539 . S
C1301 C1297 1.408 . S
C1301 C1300 1.404 . S
C1301 H1313 0.930 . S
C1302 C1298 1.524 . S
C1302 H1314 0.956 . S
C1302 H1315 0.961 . S
C1302 H1316 0.961 . S
C1303 C1300 1.539 . S
C1303 H1317 0.958 . S
C1303 H1318 0.961 . S
C1303 H1319 0.960 . S
H1304 C1288 0.931 . S
H1305 C1293 0.929 . S
H1306 C1294 0.960 . S
H1307 C1294 0.962 . S
H1308 C1294 0.960 . S
H1309 C1295 0.961 . S
H1310 C1295 0.961 . S
H1311 C1295 0.961 . S
H1312 C1296 0.931 . S
H1313 C1301 0.930 . S
H1314 C1302 0.956 . S
H1315 C1302 0.961 . S
H1316 C1302 0.961 . S
H1317 C1303 0.958 . S
H1318 C1303 0.961 . S
H1319 C1303 0.960 . S
C1320 C1321 1.391 . S
C1320 C1322 1.394 . S
C1320 H1336 0.931 . S
C1321 C1320 1.391 . S
C1321 C1325 1.376 . S
C1322 C1320 1.394 . S
C1322 C1323 1.369 . S
C1322 C1326 1.531 . S
C1323 C1322 1.369 . S
C1323 C1324 1.410 . S
C1323 C1331 1.503 . S
C1324 C1323 1.410 . S
C1324 C1325 1.392 . S
C1324 C1327 1.511 . S
C1325 C1321 1.376 . S
C1325 C1324 1.392 . S
C1325 H1337 0.929 . S
C1326 C1322 1.531 . S
C1326 H1338 0.960 . S
C1326 H1339 0.962 . S
C1326 H1340 0.960 . S
C1327 C1324 1.511 . S
C1327 H1341 0.961 . S
C1327 H1342 0.961 . S
C1327 H1343 0.961 . S
C1328 C1329 1.370 . S
C1328 C1330 1.363 . S
C1328 H1344 0.931 . S
C1329 C1328 1.370 . S
C1329 C1333 1.408 . S
C1330 C1328 1.363 . S
C1330 C1331 1.370 . S
C1330 C1334 1.524 . S
C1331 C1323 1.503 . S
C1331 C1330 1.370 . S
C1331 C1332 1.403 . S
C1332 C1331 1.403 . S
C1332 C1333 1.404 . S
C1332 C1335 1.539 . S
C1333 C1329 1.408 . S
C1333 C1332 1.404 . S
C1333 H1345 0.930 . S
C1334 C1330 1.524 . S
C1334 H1346 0.956 . S
C1334 H1347 0.961 . S
C1334 H1348 0.961 . S
C1335 C1332 1.539 . S
C1335 H1349 0.958 . S
C1335 H1350 0.961 . S
C1335 H1351 0.960 . S
H1336 C1320 0.931 . S
H1337 C1325 0.929 . S
H1338 C1326 0.960 . S
H1339 C1326 0.962 . S
H1340 C1326 0.960 . S
H1341 C1327 0.961 . S
H1342 C1327 0.961 . S
H1343 C1327 0.961 . S
H1344 C1328 0.931 . S
H1345 C1333 0.930 . S
H1346 C1334 0.956 . S
H1347 C1334 0.961 . S
H1348 C1334 0.961 . S
H1349 C1335 0.958 . S
H1350 C1335 0.961 . S
H1351 C1335 0.960 . S
C1352 C1353 1.391 . S
C1352 C1354 1.394 . S
C1352 H1368 0.931 . S
C1353 C1352 1.391 . S
C1353 C1357 1.376 . S
C1354 C1352 1.394 . S
C1354 C1355 1.369 . S
C1354 C1358 1.531 . S
C1355 C1354 1.369 . S
C1355 C1356 1.410 . S
C1355 C1363 1.503 . S
C1356 C1355 1.410 . S
C1356 C1357 1.392 . S
C1356 C1359 1.511 . S
C1357 C1353 1.376 . S
C1357 C1356 1.392 . S
C1357 H1369 0.929 . S
C1358 C1354 1.531 . S
C1358 H1370 0.960 . S
C1358 H1371 0.962 . S
C1358 H1372 0.960 . S
C1359 C1356 1.511 . S
C1359 H1373 0.961 . S
C1359 H1374 0.961 . S
C1359 H1375 0.961 . S
C1360 C1361 1.370 . S
C1360 C1362 1.363 . S
C1360 H1376 0.931 . S
C1361 C1360 1.370 . S
C1361 C1365 1.408 . S
C1362 C1360 1.363 . S
C1362 C1363 1.370 . S
C1362 C1366 1.524 . S
C1363 C1355 1.503 . S
C1363 C1362 1.370 . S
C1363 C1364 1.403 . S
C1364 C1363 1.403 . S
C1364 C1365 1.404 . S
C1364 C1367 1.539 . S
C1365 C1361 1.408 . S
C1365 C1364 1.404 . S
C1365 H1377 0.930 . S
C1366 C1362 1.524 . S
C1366 H1378 0.956 . S
C1366 H1379 0.961 . S
C1366 H1380 0.961 . S
C1367 C1364 1.539 . S
C1367 H1381 0.958 . S
C1367 H1382 0.961 . S
C1367 H1383 0.960 . S
H1368 C1352 0.931 . S
H1369 C1357 0.929 . S
H1370 C1358 0.960 . S
H1371 C1358 0.962 . S
H1372 C1358 0.960 . S
H1373 C1359 0.961 . S
H1374 C1359 0.961 . S
H1375 C1359 0.961 . S
H1376 C1360 0.931 . S
H1377 C1365 0.930 . S
H1378 C1366 0.956 . S
H1379 C1366 0.961 . S
H1380 C1366 0.961 . S
H1381 C1367 0.958 . S
H1382 C1367 0.961 . S
H1383 C1367 0.960 . S
C1384 C1385 1.391 . S
C1384 C1386 1.394 . S
C1384 H1400 0.939 . S
C1385 C1384 1.391 . S
C1385 C1389 1.376 . S
C1386 C1384 1.394 . S
C1386 C1387 1.369 . S
C1386 C1390 1.531 . S
C1387 C1386 1.369 . S
C1387 C1388 1.410 . S
C1387 C1395 1.503 . S
C1388 C1387 1.410 . S
C1388 C1389 1.392 . S
C1388 C1391 1.511 . S
C1389 C1385 1.376 . S
C1389 C1388 1.392 . S
C1389 H1401 0.929 . S
C1390 C1386 1.531 . S
C1390 H1402 0.960 . S
C1390 H1403 0.962 . S
C1390 H1404 0.960 . S
C1391 C1388 1.511 . S
C1391 H1405 0.961 . S
C1391 H1406 0.961 . S
C1391 H1407 0.961 . S
C1392 C1393 1.370 . S
C1392 C1394 1.363 . S
C1392 H1408 0.931 . S
C1393 C1392 1.370 . S
C1393 C1397 1.408 . S
C1394 C1392 1.363 . S
C1394 C1395 1.370 . S
C1394 C1398 1.524 . S
C1395 C1387 1.503 . S
C1395 C1394 1.370 . S
C1395 C1396 1.403 . S
C1396 C1395 1.403 . S
C1396 C1397 1.404 . S
C1396 C1399 1.539 . S
C1397 C1393 1.408 . S
C1397 C1396 1.404 . S
C1397 H1409 0.930 . S
C1398 C1394 1.524 . S
C1398 H1410 0.956 . S
C1398 H1411 0.961 . S
C1398 H1412 0.961 . S
C1399 C1396 1.539 . S
C1399 H1413 0.958 . S
C1399 H1414 0.961 . S
C1399 H1415 0.960 . S
H1400 C1384 0.939 . S
H1401 C1389 0.929 . S
H1402 C1390 0.960 . S
H1403 C1390 0.962 . S
H1404 C1390 0.960 . S
H1405 C1391 0.961 . S
H1406 C1391 0.961 . S
H1407 C1391 0.961 . S
H1408 C1392 0.931 . S
H1409 C1397 0.930 . S
H1410 C1398 0.956 . S
H1411 C1398 0.961 . S
H1412 C1398 0.961 . S
H1413 C1399 0.958 . S
H1414 C1399 0.961 . S
H1415 C1399 0.960 . S
C1416 C1417 1.391 . S
C1416 C1418 1.394 . S
C1416 H1432 0.931 . S
C1417 C1416 1.391 . S
C1417 C1421 1.376 . S
C1418 C1416 1.394 . S
C1418 C1419 1.369 . S
C1418 C1422 1.531 . S
C1419 C1418 1.369 . S
C1419 C1420 1.410 . S
C1419 C1427 1.503 . S
C1420 C1419 1.410 . S
C1420 C1421 1.392 . S
C1420 C1423 1.511 . S
C1421 C1417 1.376 . S
C1421 C1420 1.392 . S
C1421 H1433 0.929 . S
C1422 C1418 1.531 . S
C1422 H1434 0.960 . S
C1422 H1435 0.962 . S
C1422 H1436 0.960 . S
C1423 C1420 1.511 . S
C1423 H1437 0.961 . S
C1423 H1438 0.961 . S
C1423 H1439 0.961 . S
C1424 C1425 1.370 . S
C1424 C1426 1.363 . S
C1424 H1440 0.931 . S
C1425 C1424 1.370 . S
C1425 C1429 1.408 . S
C1426 C1424 1.363 . S
C1426 C1427 1.370 . S
C1426 C1430 1.524 . S
C1427 C1419 1.503 . S
C1427 C1426 1.370 . S
C1427 C1428 1.403 . S
C1428 C1427 1.403 . S
C1428 C1429 1.404 . S
C1428 C1431 1.539 . S
C1429 C1425 1.408 . S
C1429 C1428 1.404 . S
C1429 H1441 0.930 . S
C1430 C1426 1.524 . S
C1430 H1442 0.956 . S
C1430 H1443 0.961 . S
C1430 H1444 0.961 . S
C1431 C1428 1.539 . S
C1431 H1445 0.958 . S
C1431 H1446 0.961 . S
C1431 H1447 0.960 . S
H1432 C1416 0.931 . S
H1433 C1421 0.929 . S
H1434 C1422 0.960 . S
H1435 C1422 0.962 . S
H1436 C1422 0.960 . S
H1437 C1423 0.961 . S
H1438 C1423 0.961 . S
H1439 C1423 0.961 . S
H1440 C1424 0.931 . S
H1441 C1429 0.930 . S
H1442 C1430 0.956 . S
H1443 C1430 0.961 . S
H1444 C1430 0.961 . S
H1445 C1431 0.958 . S
H1446 C1431 0.961 . S
H1447 C1431 0.960 . S
C1448 C1449 1.391 . S
C1448 C1450 1.394 . S
C1448 H1464 0.931 . S
C1449 C1448 1.391 . S
C1449 C1453 1.376 . S
C1450 C1448 1.394 . S
C1450 C1451 1.369 . S
C1450 C1454 1.531 . S
C1451 C1450 1.369 . S
C1451 C1452 1.410 . S
C1451 C1459 1.503 . S
C1452 C1451 1.410 . S
C1452 C1453 1.392 . S
C1452 C1455 1.511 . S
C1453 C1449 1.376 . S
C1453 C1452 1.392 . S
C1453 H1465 0.929 . S
C1454 C1450 1.531 . S
C1454 H1466 0.960 . S
C1454 H1467 0.962 . S
C1454 H1468 0.960 . S
C1455 C1452 1.511 . S
C1455 H1469 0.961 . S
C1455 H1470 0.961 . S
C1455 H1471 0.961 . S
C1456 C1457 1.370 . S
C1456 C1458 1.363 . S
C1456 H1472 0.931 . S
C1457 C1456 1.370 . S
C1457 C1461 1.408 . S
C1458 C1456 1.363 . S
C1458 C1459 1.370 . S
C1458 C1462 1.524 . S
C1459 C1451 1.503 . S
C1459 C1458 1.370 . S
C1459 C1460 1.403 . S
C1460 C1459 1.403 . S
C1460 C1461 1.404 . S
C1460 C1463 1.539 . S
C1461 C1457 1.408 . S
C1461 C1460 1.404 . S
C1461 H1473 0.930 . S
C1462 C1458 1.524 . S
C1462 H1474 0.956 . S
C1462 H1475 0.961 . S
C1462 H1476 0.961 . S
C1463 C1460 1.539 . S
C1463 H1477 0.958 . S
C1463 H1478 0.961 . S
C1463 H1479 0.960 . S
H1464 C1448 0.931 . S
H1465 C1453 0.929 . S
H1466 C1454 0.960 . S
H1467 C1454 0.962 . S
H1468 C1454 0.960 . S
H1469 C1455 0.961 . S
H1470 C1455 0.961 . S
H1471 C1455 0.961 . S
H1472 C1456 0.931 . S
H1473 C1461 0.930 . S
H1474 C1462 0.956 . S
H1475 C1462 0.961 . S
H1476 C1462 0.961 . S
H1477 C1463 0.958 . S
H1478 C1463 0.961 . S
H1479 C1463 0.960 . S
C1480 C1481 1.391 . S
C1480 C1482 1.394 . S
C1480 H1496 0.931 . S
C1481 C1480 1.391 . S
C1481 C1485 1.376 . S
C1482 C1480 1.394 . S
C1482 C1483 1.369 . S
C1482 C1486 1.532 1_545 S
C1483 C1482 1.369 . S
C1483 C1484 1.410 . S
C1483 C1491 1.503 . S
C1484 C1483 1.410 . S
C1484 C1485 1.392 . S
C1484 C1487 1.511 . S
C1485 C1481 1.376 . S
C1485 C1484 1.392 . S
C1485 H1497 0.929 . S
C1486 C1482 1.532 1_565 S
C1486 H1498 0.958 . S
C1486 H1499 0.964 1_565 S
C1486 H1500 0.959 . S
C1487 C1484 1.511 . S
C1487 H1501 0.961 . S
C1487 H1502 0.961 . S
C1487 H1503 0.961 . S
C1488 C1489 1.370 . S
C1488 C1490 1.363 . S
C1488 H1504 0.931 . S
C1489 C1488 1.370 . S
C1489 C1493 1.408 1_545 S
C1490 C1488 1.363 . S
C1490 C1491 1.370 . S
C1490 C1494 1.524 . S
C1491 C1483 1.503 . S
C1491 C1490 1.370 . S
C1491 C1492 1.403 1_545 S
C1492 C1491 1.403 1_565 S
C1492 C1493 1.404 . S
C1492 C1495 1.539 . S
C1493 C1489 1.408 1_565 S
C1493 C1492 1.404 . S
C1493 H1505 0.930 . S
C1494 C1490 1.524 . S
C1494 H1506 0.956 . S
C1494 H1507 0.961 . S
C1494 H1508 0.961 . S
C1495 C1492 1.539 . S
C1495 H1509 0.958 . S
C1495 H1510 0.961 . S
C1495 H1511 0.960 . S
H1496 C1480 0.931 . S
H1497 C1485 0.929 . S
H1498 C1486 0.958 . S
H1499 C1486 0.964 1_545 S
H1500 C1486 0.959 . S
H1501 C1487 0.961 . S
H1502 C1487 0.961 . S
H1503 C1487 0.961 . S
H1504 C1488 0.931 . S
H1505 C1493 0.930 . S
H1506 C1494 0.956 . S
H1507 C1494 0.961 . S
H1508 C1494 0.961 . S
H1509 C1495 0.958 . S
H1510 C1495 0.961 . S
H1511 C1495 0.960 . S
C1512 C1513 1.391 . S
C1512 C1514 1.394 . S
C1512 H1528 0.931 . S
C1513 C1512 1.391 . S
C1513 C1517 1.376 . S
C1514 C1512 1.394 . S
C1514 C1515 1.369 . S
C1514 C1518 1.531 . S
C1515 C1514 1.369 . S
C1515 C1516 1.410 . S
C1515 C1523 1.503 . S
C1516 C1515 1.410 . S
C1516 C1517 1.392 . S
C1516 C1519 1.511 . S
C1517 C1513 1.376 . S
C1517 C1516 1.392 . S
C1517 H1529 0.929 . S
C1518 C1514 1.531 . S
C1518 H1530 0.960 . S
C1518 H1531 0.962 . S
C1518 H1532 0.960 . S
C1519 C1516 1.511 . S
C1519 H1533 0.961 . S
C1519 H1534 0.961 . S
C1519 H1535 0.961 . S
C1520 C1521 1.370 . S
C1520 C1522 1.363 . S
C1520 H1536 0.931 . S
C1521 C1520 1.370 . S
C1521 C1525 1.408 . S
C1522 C1520 1.363 . S
C1522 C1523 1.370 . S
C1522 C1526 1.524 . S
C1523 C1515 1.503 . S
C1523 C1522 1.370 . S
C1523 C1524 1.403 . S
C1524 C1523 1.403 . S
C1524 C1525 1.404 . S
C1524 C1527 1.539 . S
C1525 C1521 1.408 . S
C1525 C1524 1.404 . S
C1525 H1537 0.930 . S
C1526 C1522 1.524 . S
C1526 H1538 0.956 . S
C1526 H1539 0.961 . S
C1526 H1540 0.961 . S
C1527 C1524 1.539 . S
C1527 H1541 0.958 . S
C1527 H1542 0.961 . S
C1527 H1543 0.960 . S
H1528 C1512 0.931 . S
H1529 C1517 0.929 . S
H1530 C1518 0.960 . S
H1531 C1518 0.962 . S
H1532 C1518 0.960 . S
H1533 C1519 0.961 . S
H1534 C1519 0.961 . S
H1535 C1519 0.961 . S
H1536 C1520 0.931 . S
H1537 C1525 0.930 . S
H1538 C1526 0.956 . S
H1539 C1526 0.961 . S
H1540 C1526 0.961 . S
H1541 C1527 0.958 . S
H1542 C1527 0.961 . S
H1543 C1527 0.960 . S
C1544 C1545 1.391 . S
C1544 C1546 1.394 . S
C1544 H1560 0.931 . S
C1545 C1544 1.391 . S
C1545 C1549 1.376 . S
C1546 C1544 1.394 . S
C1546 C1547 1.369 . S
C1546 C1550 1.531 . S
C1547 C1546 1.369 . S
C1547 C1548 1.410 . S
C1547 C1555 1.503 . S
C1548 C1547 1.410 . S
C1548 C1549 1.392 . S
C1548 C1551 1.511 . S
C1549 C1545 1.376 . S
C1549 C1548 1.392 . S
C1549 H1561 0.929 . S
C1550 C1546 1.531 . S
C1550 H1562 0.960 . S
C1550 H1563 0.962 . S
C1550 H1564 0.960 . S
C1551 C1548 1.511 . S
C1551 H1565 0.961 . S
C1551 H1566 0.961 . S
C1551 H1567 0.961 . S
C1552 C1553 1.370 . S
C1552 C1554 1.363 . S
C1552 H1568 0.931 . S
C1553 C1552 1.370 . S
C1553 C1557 1.408 . S
C1554 C1552 1.363 . S
C1554 C1555 1.370 . S
C1554 C1558 1.524 . S
C1555 C1547 1.503 . S
C1555 C1554 1.370 . S
C1555 C1556 1.403 . S
C1556 C1555 1.403 . S
C1556 C1557 1.404 . S
C1556 C1559 1.539 . S
C1557 C1553 1.408 . S
C1557 C1556 1.404 . S
C1557 H1569 0.930 . S
C1558 C1554 1.524 . S
C1558 H1570 0.956 . S
C1558 H1571 0.961 . S
C1558 H1572 0.961 . S
C1559 C1556 1.539 . S
C1559 H1573 0.958 . S
C1559 H1574 0.961 . S
C1559 H1575 0.960 . S
H1560 C1544 0.931 . S
H1561 C1549 0.929 . S
H1562 C1550 0.960 . S
H1563 C1550 0.962 . S
H1564 C1550 0.960 . S
H1565 C1551 0.961 . S
H1566 C1551 0.961 . S
H1567 C1551 0.961 . S
H1568 C1552 0.931 . S
H1569 C1557 0.930 . S
H1570 C1558 0.956 . S
H1571 C1558 0.961 . S
H1572 C1558 0.961 . S
H1573 C1559 0.958 . S
H1574 C1559 0.961 . S
H1575 C1559 0.960 . S
C1576 C1577 1.391 . S
C1576 C1578 1.394 . S
C1576 H1592 0.931 . S
C1577 C1576 1.391 . S
C1577 C1581 1.376 . S
C1578 C1576 1.394 . S
C1578 C1579 1.369 . S
C1578 C1582 1.531 . S
C1579 C1578 1.369 . S
C1579 C1580 1.410 . S
C1579 C1587 1.503 . S
C1580 C1579 1.410 . S
C1580 C1581 1.392 . S
C1580 C1583 1.511 . S
C1581 C1577 1.376 . S
C1581 C1580 1.392 . S
C1581 H1593 0.929 . S
C1582 C1578 1.531 . S
C1582 H1594 0.960 . S
C1582 H1595 0.962 . S
C1582 H1596 0.960 . S
C1583 C1580 1.511 . S
C1583 H1597 0.961 . S
C1583 H1598 0.961 . S
C1583 H1599 0.961 . S
C1584 C1585 1.370 . S
C1584 C1586 1.363 . S
C1584 H1600 0.931 . S
C1585 C1584 1.370 . S
C1585 C1589 1.408 . S
C1586 C1584 1.363 . S
C1586 C1587 1.370 . S
C1586 C1590 1.524 . S
C1587 C1579 1.503 . S
C1587 C1586 1.370 . S
C1587 C1588 1.403 . S
C1588 C1587 1.403 . S
C1588 C1589 1.404 . S
C1588 C1591 1.539 . S
C1589 C1585 1.408 . S
C1589 C1588 1.404 . S
C1589 H1601 0.930 . S
C1590 C1586 1.524 . S
C1590 H1602 0.956 . S
C1590 H1603 0.961 . S
C1590 H1604 0.961 . S
C1591 C1588 1.539 . S
C1591 H1605 0.958 . S
C1591 H1606 0.961 . S
C1591 H1607 0.960 . S
H1592 C1576 0.931 . S
H1593 C1581 0.929 . S
H1594 C1582 0.960 . S
H1595 C1582 0.962 . S
H1596 C1582 0.960 . S
H1597 C1583 0.961 . S
H1598 C1583 0.961 . S
H1599 C1583 0.961 . S
H1600 C1584 0.931 . S
H1601 C1589 0.930 . S
H1602 C1590 0.956 . S
H1603 C1590 0.961 . S
H1604 C1590 0.961 . S
H1605 C1591 0.958 . S
H1606 C1591 0.961 . S
H1607 C1591 0.960 . S
C1608 C1609 1.391 . S
C1608 C1610 1.394 . S
C1608 H1624 0.931 1_545 S
C1609 C1608 1.391 . S
C1609 C1613 1.376 . S
C1610 C1608 1.394 . S
C1610 C1611 1.369 . S
C1610 C1614 1.531 1_545 S
C1611 C1610 1.369 . S
C1611 C1612 1.410 . S
C1611 C1619 1.503 . S
C1612 C1611 1.410 . S
C1612 C1613 1.392 . S
C1612 C1615 1.511 . S
C1613 C1609 1.376 . S
C1613 C1612 1.392 . S
C1613 H1625 0.929 . S
C1614 C1610 1.531 1_565 S
C1614 H1626 0.960 . S
C1614 H1627 0.962 . S
C1614 H1628 0.960 . S
C1615 C1612 1.511 . S
C1615 H1629 0.961 . S
C1615 H1630 0.961 . S
C1615 H1631 0.961 . S
C1616 C1617 1.370 . S
C1616 C1618 1.363 . S
C1616 H1632 0.931 . S
C1617 C1616 1.370 . S
C1617 C1621 1.408 . S
C1618 C1616 1.363 . S
C1618 C1619 1.370 . S
C1618 C1622 1.524 . S
C1619 C1611 1.503 . S
C1619 C1618 1.370 . S
C1619 C1620 1.403 . S
C1620 C1619 1.403 . S
C1620 C1621 1.404 . S
C1620 C1623 1.539 . S
C1621 C1617 1.408 . S
C1621 C1620 1.404 . S
C1621 H1633 0.930 . S
C1622 C1618 1.524 . S
C1622 H1634 0.956 . S
C1622 H1635 0.961 . S
C1622 H1636 0.961 . S
C1623 C1620 1.539 . S
C1623 H1637 0.958 1_545 S
C1623 H1638 0.961 . S
C1623 H1639 0.960 . S
H1624 C1608 0.931 1_565 S
H1625 C1613 0.929 . S
H1626 C1614 0.960 . S
H1627 C1614 0.962 . S
H1628 C1614 0.960 . S
H1629 C1615 0.961 . S
H1630 C1615 0.961 . S
H1631 C1615 0.961 . S
H1632 C1616 0.931 . S
H1633 C1621 0.930 . S
H1634 C1622 0.956 . S
H1635 C1622 0.961 . S
H1636 C1622 0.961 . S
H1637 C1623 0.958 1_565 S
H1638 C1623 0.961 . S
H1639 C1623 0.960 . S
C1640 C1641 1.391 . S
C1640 C1642 1.394 . S
C1640 H1656 0.931 . S
C1641 C1640 1.391 . S
C1641 C1645 1.376 . S
C1642 C1640 1.394 . S
C1642 C1643 1.369 . S
C1642 C1646 1.531 . S
C1643 C1642 1.369 . S
C1643 C1644 1.410 . S
C1643 C1651 1.503 . S
C1644 C1643 1.410 . S
C1644 C1645 1.392 . S
C1644 C1647 1.511 . S
C1645 C1641 1.376 . S
C1645 C1644 1.392 . S
C1645 H1657 0.929 . S
C1646 C1642 1.531 . S
C1646 H1658 0.960 . S
C1646 H1659 0.962 . S
C1646 H1660 0.960 . S
C1647 C1644 1.511 . S
C1647 H1661 0.961 . S
C1647 H1662 0.961 . S
C1647 H1663 0.961 . S
C1648 C1649 1.370 . S
C1648 C1650 1.363 . S
C1648 H1664 0.931 . S
C1649 C1648 1.370 . S
C1649 C1653 1.408 . S
C1650 C1648 1.363 . S
C1650 C1651 1.370 . S
C1650 C1654 1.524 . S
C1651 C1643 1.503 . S
C1651 C1650 1.370 . S
C1651 C1652 1.403 . S
C1652 C1651 1.403 . S
C1652 C1653 1.404 . S
C1652 C1655 1.539 . S
C1653 C1649 1.408 . S
C1653 C1652 1.404 . S
C1653 H1665 0.930 . S
C1654 C1650 1.524 . S
C1654 H1666 0.956 . S
C1654 H1667 0.961 . S
C1654 H1668 0.961 . S
C1655 C1652 1.539 . S
C1655 H1669 0.958 . S
C1655 H1670 0.961 . S
C1655 H1671 0.960 . S
H1656 C1640 0.931 . S
H1657 C1645 0.929 . S
H1658 C1646 0.960 . S
H1659 C1646 0.962 . S
H1660 C1646 0.960 . S
H1661 C1647 0.961 . S
H1662 C1647 0.961 . S
H1663 C1647 0.961 . S
H1664 C1648 0.931 . S
H1665 C1653 0.930 . S
H1666 C1654 0.956 . S
H1667 C1654 0.961 . S
H1668 C1654 0.961 . S
H1669 C1655 0.958 . S
H1670 C1655 0.961 . S
H1671 C1655 0.960 . S
C1672 C1673 1.391 . S
C1672 C1674 1.394 . S
C1672 H1688 0.931 . S
C1673 C1672 1.391 . S
C1673 C1677 1.376 . S
C1674 C1672 1.394 . S
C1674 C1675 1.369 . S
C1674 C1678 1.531 . S
C1675 C1674 1.369 . S
C1675 C1676 1.410 . S
C1675 C1683 1.503 . S
C1676 C1675 1.410 . S
C1676 C1677 1.392 . S
C1676 C1679 1.511 . S
C1677 C1673 1.376 . S
C1677 C1676 1.392 . S
C1677 H1689 0.929 . S
C1678 C1674 1.531 . S
C1678 H1690 0.960 . S
C1678 H1691 0.962 . S
C1678 H1692 0.960 . S
C1679 C1676 1.511 . S
C1679 H1693 0.961 . S
C1679 H1694 0.961 . S
C1679 H1695 0.961 . S
C1680 C1681 1.370 . S
C1680 C1682 1.363 . S
C1680 H1696 0.931 . S
C1681 C1680 1.370 . S
C1681 C1685 1.408 . S
C1682 C1680 1.363 . S
C1682 C1683 1.370 . S
C1682 C1686 1.524 . S
C1683 C1675 1.503 . S
C1683 C1682 1.370 . S
C1683 C1684 1.403 . S
C1684 C1683 1.403 . S
C1684 C1685 1.404 . S
C1684 C1687 1.539 . S
C1685 C1681 1.408 . S
C1685 C1684 1.404 . S
C1685 H1697 0.930 . S
C1686 C1682 1.524 . S
C1686 H1698 0.956 . S
C1686 H1699 0.961 . S
C1686 H1700 0.961 . S
C1687 C1684 1.539 . S
C1687 H1701 0.958 . S
C1687 H1702 0.961 . S
C1687 H1703 0.960 . S
H1688 C1672 0.931 . S
H1689 C1677 0.929 . S
H1690 C1678 0.960 . S
H1691 C1678 0.962 . S
H1692 C1678 0.960 . S
H1693 C1679 0.961 . S
H1694 C1679 0.961 . S
H1695 C1679 0.961 . S
H1696 C1680 0.931 . S
H1697 C1685 0.930 . S
H1698 C1686 0.956 . S
H1699 C1686 0.961 . S
H1700 C1686 0.961 . S
H1701 C1687 0.958 . S
H1702 C1687 0.961 . S
H1703 C1687 0.960 . S
C1704 C1705 1.391 . S
C1704 C1706 1.394 . S
C1704 H1720 0.931 . S
C1705 C1704 1.391 . S
C1705 C1709 1.376 . S
C1706 C1704 1.394 . S
C1706 C1707 1.369 . S
C1706 C1710 1.531 . S
C1707 C1706 1.369 . S
C1707 C1708 1.410 . S
C1707 C1715 1.503 . S
C1708 C1707 1.410 . S
C1708 C1709 1.392 . S
C1708 C1711 1.511 . S
C1709 C1705 1.376 . S
C1709 C1708 1.392 . S
C1709 H1721 0.929 . S
C1710 C1706 1.531 . S
C1710 H1722 0.960 . S
C1710 H1723 0.962 . S
C1710 H1724 0.960 . S
C1711 C1708 1.511 . S
C1711 H1725 0.961 . S
C1711 H1726 0.961 . S
C1711 H1727 0.961 . S
C1712 C1713 1.370 . S
C1712 C1714 1.363 . S
C1712 H1728 0.931 . S
C1713 C1712 1.370 . S
C1713 C1717 1.408 . S
C1714 C1712 1.363 . S
C1714 C1715 1.370 . S
C1714 C1718 1.524 . S
C1715 C1707 1.503 . S
C1715 C1714 1.370 . S
C1715 C1716 1.403 . S
C1716 C1715 1.403 . S
C1716 C1717 1.404 . S
C1716 C1719 1.539 . S
C1717 C1713 1.408 . S
C1717 C1716 1.404 . S
C1717 H1729 0.930 . S
C1718 C1714 1.524 . S
C1718 H1730 0.956 . S
C1718 H1731 0.961 . S
C1718 H1732 0.961 . S
C1719 C1716 1.539 . S
C1719 H1733 0.958 . S
C1719 H1734 0.961 . S
C1719 H1735 0.960 . S
H1720 C1704 0.931 . S
H1721 C1709 0.929 . S
H1722 C1710 0.960 . S
H1723 C1710 0.962 . S
H1724 C1710 0.960 . S
H1725 C1711 0.961 . S
H1726 C1711 0.961 . S
H1727 C1711 0.961 . S
H1728 C1712 0.931 . S
H1729 C1717 0.930 . S
H1730 C1718 0.956 . S
H1731 C1718 0.961 . S
H1732 C1718 0.961 . S
H1733 C1719 0.958 . S
H1734 C1719 0.961 . S
H1735 C1719 0.960 . S
C1736 C1737 1.391 . S
C1736 C1738 1.394 1_655 S
C1736 H1752 0.931 . S
C1737 C1736 1.391 . S
C1737 C1741 1.380 1_655 S
C1738 C1736 1.394 1_455 S
C1738 C1739 1.369 . S
C1738 C1742 1.530 1_455 S
C1739 C1738 1.369 . S
C1739 C1740 1.410 . S
C1739 C1747 1.503 . S
C1740 C1739 1.410 . S
C1740 C1741 1.399 . S
C1740 C1743 1.511 . S
C1741 C1737 1.380 1_455 S
C1741 C1740 1.399 . S
C1741 H1753 0.918 1_556 S
C1742 C1738 1.530 1_655 S
C1742 H1754 0.952 1_655 S
C1742 H1755 0.971 . S
C1742 H1756 0.959 1_655 S
C1743 C1740 1.511 . S
C1743 H1757 0.961 1_556 S
C1743 H1758 0.961 . S
C1743 H1759 0.961 . S
C1744 C1745 1.370 1_655 S
C1744 C1746 1.363 . S
C1744 H1760 0.931 . S
C1745 C1744 1.370 1_455 S
C1745 C1749 1.408 . S
C1746 C1744 1.363 . S
C1746 C1747 1.370 1_655 S
C1746 C1750 1.524 . S
C1747 C1739 1.503 . S
C1747 C1746 1.370 1_455 S
C1747 C1748 1.403 . S
C1748 C1747 1.403 . S
C1748 C1749 1.404 . S
C1748 C1751 1.539 . S
C1749 C1745 1.408 . S
C1749 C1748 1.404 . S
C1749 H1761 0.930 . S
C1750 C1746 1.524 . S
C1750 H1762 0.956 . S
C1750 H1763 0.961 . S
C1750 H1764 0.961 . S
C1751 C1748 1.539 . S
C1751 H1765 0.958 . S
C1751 H1766 0.961 . S
C1751 H1767 0.960 . S
H1752 C1736 0.931 . S
H1753 C1741 0.918 1_554 S
H1754 C1742 0.952 1_455 S
H1755 C1742 0.971 . S
H1756 C1742 0.959 1_455 S
H1757 C1743 0.961 1_554 S
H1758 C1743 0.961 . S
H1759 C1743 0.961 . S
H1760 C1744 0.931 . S
H1761 C1749 0.930 . S
H1762 C1750 0.956 . S
H1763 C1750 0.961 . S
H1764 C1750 0.961 . S
H1765 C1751 0.958 . S
H1766 C1751 0.961 . S
H1767 C1751 0.960 . S
C1768 C1769 1.391 . S
C1768 C1770 1.394 . S
C1768 H1784 0.931 . S
C1769 C1768 1.391 . S
C1769 C1773 1.376 . S
C1770 C1768 1.394 . S
C1770 C1771 1.369 . S
C1770 C1774 1.531 . S
C1771 C1770 1.369 . S
C1771 C1772 1.410 . S
C1771 C1779 1.503 . S
C1772 C1771 1.410 . S
C1772 C1773 1.392 . S
C1772 C1775 1.511 . S
C1773 C1769 1.376 . S
C1773 C1772 1.392 . S
C1773 H1785 0.929 . S
C1774 C1770 1.531 . S
C1774 H1786 0.960 . S
C1774 H1787 0.962 . S
C1774 H1788 0.960 . S
C1775 C1772 1.511 . S
C1775 H1789 0.961 . S
C1775 H1790 0.961 . S
C1775 H1791 0.961 . S
C1776 C1777 1.370 . S
C1776 C1778 1.363 . S
C1776 H1792 0.931 . S
C1777 C1776 1.370 . S
C1777 C1781 1.408 . S
C1778 C1776 1.363 . S
C1778 C1779 1.370 . S
C1778 C1782 1.524 . S
C1779 C1771 1.503 . S
C1779 C1778 1.370 . S
C1779 C1780 1.403 . S
C1780 C1779 1.403 . S
C1780 C1781 1.404 . S
C1780 C1783 1.539 . S
C1781 C1777 1.408 . S
C1781 C1780 1.404 . S
C1781 H1793 0.930 . S
C1782 C1778 1.524 . S
C1782 H1794 0.956 . S
C1782 H1795 0.961 . S
C1782 H1796 0.961 . S
C1783 C1780 1.539 . S
C1783 H1797 0.958 . S
C1783 H1798 0.961 . S
C1783 H1799 0.960 . S
H1784 C1768 0.931 . S
H1785 C1773 0.929 . S
H1786 C1774 0.960 . S
H1787 C1774 0.962 . S
H1788 C1774 0.960 . S
H1789 C1775 0.961 . S
H1790 C1775 0.961 . S
H1791 C1775 0.961 . S
H1792 C1776 0.931 . S
H1793 C1781 0.930 . S
H1794 C1782 0.956 . S
H1795 C1782 0.961 . S
H1796 C1782 0.961 . S
H1797 C1783 0.958 . S
H1798 C1783 0.961 . S
H1799 C1783 0.960 . S
C1800 C1801 1.391 . S
C1800 C1802 1.394 . S
C1800 H1816 0.931 1_556 S
C1801 C1800 1.391 . S
C1801 C1805 1.376 . S
C1802 C1800 1.394 . S
C1802 C1803 1.369 . S
C1802 C1806 1.531 . S
C1803 C1802 1.369 . S
C1803 C1804 1.410 . S
C1803 C1811 1.503 . S
C1804 C1803 1.410 . S
C1804 C1805 1.392 . S
C1804 C1807 1.511 . S
C1805 C1801 1.376 . S
C1805 C1804 1.392 . S
C1805 H1817 0.929 . S
C1806 C1802 1.531 . S
C1806 H1818 0.960 . S
C1806 H1819 0.962 . S
C1806 H1820 0.960 1_556 S
C1807 C1804 1.511 . S
C1807 H1821 0.961 . S
C1807 H1822 0.961 . S
C1807 H1823 0.961 . S
C1808 C1809 1.370 . S
C1808 C1810 1.363 . S
C1808 H1824 0.931 1_455 S
C1809 C1808 1.370 . S
C1809 C1813 1.408 . S
C1810 C1808 1.363 . S
C1810 C1811 1.370 . S
C1810 C1814 1.524 1_455 S
C1811 C1803 1.503 . S
C1811 C1810 1.370 . S
C1811 C1812 1.403 . S
C1812 C1811 1.403 . S
C1812 C1813 1.404 . S
C1812 C1815 1.539 . S
C1813 C1809 1.408 . S
C1813 C1812 1.404 . S
C1813 H1825 0.930 . S
C1814 C1810 1.524 1_655 S
C1814 H1826 0.956 . S
C1814 H1827 0.961 . S
C1814 H1828 0.961 . S
C1815 C1812 1.539 . S
C1815 H1829 0.958 . S
C1815 H1830 0.961 . S
C1815 H1831 0.960 . S
H1816 C1800 0.931 1_554 S
H1817 C1805 0.929 . S
H1818 C1806 0.960 . S
H1819 C1806 0.962 . S
H1820 C1806 0.960 1_554 S
H1821 C1807 0.961 . S
H1822 C1807 0.961 . S
H1823 C1807 0.961 . S
H1824 C1808 0.931 1_655 S
H1825 C1813 0.930 . S
H1826 C1814 0.956 . S
H1827 C1814 0.961 . S
H1828 C1814 0.961 . S
H1829 C1815 0.958 . S
H1830 C1815 0.961 . S
H1831 C1815 0.960 . S
C1832 C1833 1.391 . S
C1832 C1834 1.394 . S
C1832 H1848 0.931 . S
C1833 C1832 1.391 . S
C1833 C1837 1.376 . S
C1834 C1832 1.394 . S
C1834 C1835 1.369 . S
C1834 C1838 1.531 . S
C1835 C1834 1.369 . S
C1835 C1836 1.410 . S
C1835 C1843 1.503 . S
C1836 C1835 1.410 . S
C1836 C1837 1.392 . S
C1836 C1839 1.511 . S
C1837 C1833 1.376 . S
C1837 C1836 1.392 . S
C1837 H1849 0.929 . S
C1838 C1834 1.531 . S
C1838 H1850 0.960 . S
C1838 H1851 0.962 . S
C1838 H1852 0.960 . S
C1839 C1836 1.511 . S
C1839 H1853 0.961 . S
C1839 H1854 0.961 . S
C1839 H1855 0.961 . S
C1840 C1841 1.370 . S
C1840 C1842 1.363 . S
C1840 H1856 0.931 . S
C1841 C1840 1.370 . S
C1841 C1845 1.408 . S
C1842 C1840 1.363 . S
C1842 C1843 1.370 . S
C1842 C1846 1.524 . S
C1843 C1835 1.503 . S
C1843 C1842 1.370 . S
C1843 C1844 1.403 . S
C1844 C1843 1.403 . S
C1844 C1845 1.404 . S
C1844 C1847 1.539 . S
C1845 C1841 1.408 . S
C1845 C1844 1.404 . S
C1845 H1857 0.930 . S
C1846 C1842 1.524 . S
C1846 H1858 0.956 . S
C1846 H1859 0.961 . S
C1846 H1860 0.961 . S
C1847 C1844 1.539 . S
C1847 H1861 0.958 . S
C1847 H1862 0.961 . S
C1847 H1863 0.960 . S
H1848 C1832 0.931 . S
H1849 C1837 0.929 . S
H1850 C1838 0.960 . S
H1851 C1838 0.962 . S
H1852 C1838 0.960 . S
H1853 C1839 0.961 . S
H1854 C1839 0.961 . S
H1855 C1839 0.961 . S
H1856 C1840 0.931 . S
H1857 C1845 0.930 . S
H1858 C1846 0.956 . S
H1859 C1846 0.961 . S
H1860 C1846 0.961 . S
H1861 C1847 0.958 . S
H1862 C1847 0.961 . S
H1863 C1847 0.960 . S
C1864 C1865 1.391 . S
C1864 C1866 1.394 . S
C1864 H1880 0.931 . S
C1865 C1864 1.391 . S
C1865 C1869 1.376 . S
C1866 C1864 1.394 . S
C1866 C1867 1.369 . S
C1866 C1870 1.531 . S
C1867 C1866 1.369 . S
C1867 C1868 1.410 . S
C1867 C1875 1.503 . S
C1868 C1867 1.410 . S
C1868 C1869 1.392 . S
C1868 C1871 1.511 . S
C1869 C1865 1.376 . S
C1869 C1868 1.392 . S
C1869 H1881 0.929 . S
C1870 C1866 1.531 . S
C1870 H1882 0.960 . S
C1870 H1883 0.962 . S
C1870 H1884 0.960 . S
C1871 C1868 1.511 . S
C1871 H1885 0.961 . S
C1871 H1886 0.961 . S
C1871 H1887 0.961 . S
C1872 C1873 1.370 . S
C1872 C1874 1.363 . S
C1872 H1888 0.931 . S
C1873 C1872 1.370 . S
C1873 C1877 1.408 . S
C1874 C1872 1.363 . S
C1874 C1875 1.370 . S
C1874 C1878 1.524 . S
C1875 C1867 1.503 . S
C1875 C1874 1.370 . S
C1875 C1876 1.403 . S
C1876 C1875 1.403 . S
C1876 C1877 1.404 . S
C1876 C1879 1.539 . S
C1877 C1873 1.408 . S
C1877 C1876 1.404 . S
C1877 H1889 0.930 . S
C1878 C1874 1.524 . S
C1878 H1890 0.956 . S
C1878 H1891 0.961 . S
C1878 H1892 0.961 . S
C1879 C1876 1.539 . S
C1879 H1893 0.958 . S
C1879 H1894 0.961 . S
C1879 H1895 0.960 . S
H1880 C1864 0.931 . S
H1881 C1869 0.929 . S
H1882 C1870 0.960 . S
H1883 C1870 0.962 . S
H1884 C1870 0.960 . S
H1885 C1871 0.961 . S
H1886 C1871 0.961 . S
H1887 C1871 0.961 . S
H1888 C1872 0.931 . S
H1889 C1877 0.930 . S
H1890 C1878 0.956 . S
H1891 C1878 0.961 . S
H1892 C1878 0.961 . S
H1893 C1879 0.958 . S
H1894 C1879 0.961 . S
H1895 C1879 0.960 . S
C1896 C1897 1.391 . S
C1896 C1898 1.394 . S
C1896 H1912 0.931 . S
C1897 C1896 1.391 . S
C1897 C1901 1.376 . S
C1898 C1896 1.394 . S
C1898 C1899 1.369 . S
C1898 C1902 1.531 . S
C1899 C1898 1.369 . S
C1899 C1900 1.410 . S
C1899 C1907 1.503 . S
C1900 C1899 1.410 . S
C1900 C1901 1.392 . S
C1900 C1903 1.511 . S
C1901 C1897 1.376 . S
C1901 C1900 1.392 . S
C1901 H1913 0.929 . S
C1902 C1898 1.531 . S
C1902 H1914 0.960 . S
C1902 H1915 0.962 . S
C1902 H1916 0.960 . S
C1903 C1900 1.511 . S
C1903 H1917 0.961 . S
C1903 H1918 0.961 . S
C1903 H1919 0.961 . S
C1904 C1905 1.370 . S
C1904 C1906 1.363 . S
C1904 H1920 0.931 . S
C1905 C1904 1.370 . S
C1905 C1909 1.408 . S
C1906 C1904 1.363 . S
C1906 C1907 1.370 . S
C1906 C1910 1.524 . S
C1907 C1899 1.503 . S
C1907 C1906 1.370 . S
C1907 C1908 1.403 . S
C1908 C1907 1.403 . S
C1908 C1909 1.404 . S
C1908 C1911 1.539 . S
C1909 C1905 1.408 . S
C1909 C1908 1.404 . S
C1909 H1921 0.930 . S
C1910 C1906 1.524 . S
C1910 H1922 0.956 . S
C1910 H1923 0.961 . S
C1910 H1924 0.961 . S
C1911 C1908 1.539 . S
C1911 H1925 0.958 . S
C1911 H1926 0.961 . S
C1911 H1927 0.960 . S
H1912 C1896 0.931 . S
H1913 C1901 0.929 . S
H1914 C1902 0.960 . S
H1915 C1902 0.962 . S
H1916 C1902 0.960 . S
H1917 C1903 0.961 . S
H1918 C1903 0.961 . S
H1919 C1903 0.961 . S
H1920 C1904 0.931 . S
H1921 C1909 0.930 . S
H1922 C1910 0.956 . S
H1923 C1910 0.961 . S
H1924 C1910 0.961 . S
H1925 C1911 0.958 . S
H1926 C1911 0.961 . S
H1927 C1911 0.960 . S
C1928 C1929 1.391 . S
C1928 C1930 1.394 . S
C1928 H1944 0.931 . S
C1929 C1928 1.391 . S
C1929 C1933 1.376 . S
C1930 C1928 1.394 . S
C1930 C1931 1.369 . S
C1930 C1934 1.531 . S
C1931 C1930 1.369 . S
C1931 C1932 1.410 . S
C1931 C1939 1.503 . S
C1932 C1931 1.410 . S
C1932 C1933 1.392 . S
C1932 C1935 1.511 . S
C1933 C1929 1.376 . S
C1933 C1932 1.392 . S
C1933 H1945 0.929 . S
C1934 C1930 1.531 . S
C1934 H1946 0.960 . S
C1934 H1947 0.962 . S
C1934 H1948 0.960 . S
C1935 C1932 1.511 . S
C1935 H1949 0.961 . S
C1935 H1950 0.961 . S
C1935 H1951 0.961 . S
C1936 C1937 1.370 . S
C1936 C1938 1.363 . S
C1936 H1952 0.931 . S
C1937 C1936 1.370 . S
C1937 C1941 1.408 . S
C1938 C1936 1.363 . S
C1938 C1939 1.370 . S
C1938 C1942 1.524 . S
C1939 C1931 1.503 . S
C1939 C1938 1.370 . S
C1939 C1940 1.403 . S
C1940 C1939 1.403 . S
C1940 C1941 1.404 . S
C1940 C1943 1.539 . S
C1941 C1937 1.408 . S
C1941 C1940 1.404 . S
C1941 H1953 0.930 . S
C1942 C1938 1.524 . S
C1942 H1954 0.956 . S
C1942 H1955 0.961 . S
C1942 H1956 0.961 . S
C1943 C1940 1.539 . S
C1943 H1957 0.958 . S
C1943 H1958 0.961 . S
C1943 H1959 0.960 . S
H1944 C1928 0.931 . S
H1945 C1933 0.929 . S
H1946 C1934 0.960 . S
H1947 C1934 0.962 . S
H1948 C1934 0.960 . S
H1949 C1935 0.961 . S
H1950 C1935 0.961 . S
H1951 C1935 0.961 . S
H1952 C1936 0.931 . S
H1953 C1941 0.930 . S
H1954 C1942 0.956 . S
H1955 C1942 0.961 . S
H1956 C1942 0.961 . S
H1957 C1943 0.958 . S
H1958 C1943 0.961 . S
H1959 C1943 0.960 . S
C1960 C1961 1.391 . S
C1960 C1962 1.394 . S
C1960 H1976 0.931 . S
C1961 C1960 1.391 . S
C1961 C1965 1.376 . S
C1962 C1960 1.394 . S
C1962 C1963 1.369 . S
C1962 C1966 1.531 . S
C1963 C1962 1.369 . S
C1963 C1964 1.410 . S
C1963 C1971 1.503 . S
C1964 C1963 1.410 . S
C1964 C1965 1.392 . S
C1964 C1967 1.511 . S
C1965 C1961 1.376 . S
C1965 C1964 1.392 . S
C1965 H1977 0.929 . S
C1966 C1962 1.531 . S
C1966 H1978 0.960 . S
C1966 H1979 0.962 . S
C1966 H1980 0.960 . S
C1967 C1964 1.511 . S
C1967 H1981 0.961 . S
C1967 H1982 0.961 . S
C1967 H1983 0.961 . S
C1968 C1969 1.370 . S
C1968 C1970 1.363 . S
C1968 H1984 0.931 . S
C1969 C1968 1.370 . S
C1969 C1973 1.408 . S
C1970 C1968 1.363 . S
C1970 C1971 1.370 . S
C1970 C1974 1.524 . S
C1971 C1963 1.503 . S
C1971 C1970 1.370 . S
C1971 C1972 1.403 . S
C1972 C1971 1.403 . S
C1972 C1973 1.404 . S
C1972 C1975 1.539 . S
C1973 C1969 1.408 . S
C1973 C1972 1.404 . S
C1973 H1985 0.930 . S
C1974 C1970 1.524 . S
C1974 H1986 0.956 . S
C1974 H1987 0.961 . S
C1974 H1988 0.961 . S
C1975 C1972 1.539 . S
C1975 H1989 0.958 . S
C1975 H1990 0.961 . S
C1975 H1991 0.960 . S
H1976 C1960 0.931 . S
H1977 C1965 0.929 . S
H1978 C1966 0.960 . S
H1979 C1966 0.962 . S
H1980 C1966 0.960 . S
H1981 C1967 0.961 . S
H1982 C1967 0.961 . S
H1983 C1967 0.961 . S
H1984 C1968 0.931 . S
H1985 C1973 0.930 . S
H1986 C1974 0.956 . S
H1987 C1974 0.961 . S
H1988 C1974 0.961 . S
H1989 C1975 0.958 . S
H1990 C1975 0.961 . S
H1991 C1975 0.960 . S
C1992 C1993 1.391 . S
C1992 C1994 1.394 . S
C1992 H2008 0.931 . S
C1993 C1992 1.391 . S
C1993 C1997 1.376 . S
C1994 C1992 1.394 . S
C1994 C1995 1.369 . S
C1994 C1998 1.531 . S
C1995 C1994 1.369 . S
C1995 C1996 1.410 . S
C1995 C2003 1.503 . S
C1996 C1995 1.410 . S
C1996 C1997 1.392 . S
C1996 C1999 1.511 . S
C1997 C1993 1.376 . S
C1997 C1996 1.392 . S
C1997 H2009 0.929 . S
C1998 C1994 1.531 . S
C1998 H2010 0.960 . S
C1998 H2011 0.962 . S
C1998 H2012 0.960 . S
C1999 C1996 1.511 . S
C1999 H2013 0.961 . S
C1999 H2014 0.961 . S
C1999 H2015 0.961 . S
C2000 C2001 1.370 . S
C2000 C2002 1.363 . S
C2000 H2016 0.931 . S
C2001 C2000 1.370 . S
C2001 C2005 1.408 . S
C2002 C2000 1.363 . S
C2002 C2003 1.370 . S
C2002 C2006 1.524 . S
C2003 C1995 1.503 . S
C2003 C2002 1.370 . S
C2003 C2004 1.403 . S
C2004 C2003 1.403 . S
C2004 C2005 1.404 . S
C2004 C2007 1.539 . S
C2005 C2001 1.408 . S
C2005 C2004 1.404 . S
C2005 H2017 0.930 . S
C2006 C2002 1.524 . S
C2006 H2018 0.956 . S
C2006 H2019 0.961 . S
C2006 H2020 0.961 . S
C2007 C2004 1.539 . S
C2007 H2021 0.958 . S
C2007 H2022 0.961 . S
C2007 H2023 0.960 . S
H2008 C1992 0.931 . S
H2009 C1997 0.929 . S
H2010 C1998 0.960 . S
H2011 C1998 0.962 . S
H2012 C1998 0.960 . S
H2013 C1999 0.961 . S
H2014 C1999 0.961 . S
H2015 C1999 0.961 . S
H2016 C2000 0.931 . S
H2017 C2005 0.930 . S
H2018 C2006 0.956 . S
H2019 C2006 0.961 . S
H2020 C2006 0.961 . S
H2021 C2007 0.958 . S
H2022 C2007 0.961 . S
H2023 C2007 0.960 . S
C2024 C2025 1.391 . S
C2024 C2026 1.394 . S
C2024 H2040 0.931 . S
C2025 C2024 1.391 . S
C2025 C2029 1.376 . S
C2026 C2024 1.394 . S
C2026 C2027 1.369 . S
C2026 C2030 1.531 . S
C2027 C2026 1.369 . S
C2027 C2028 1.410 . S
C2027 C2035 1.503 . S
C2028 C2027 1.410 . S
C2028 C2029 1.392 . S
C2028 C2031 1.511 . S
C2029 C2025 1.376 . S
C2029 C2028 1.392 . S
C2029 H2041 0.929 . S
C2030 C2026 1.531 . S
C2030 H2042 0.960 . S
C2030 H2043 0.962 . S
C2030 H2044 0.960 . S
C2031 C2028 1.511 . S
C2031 H2045 0.961 . S
C2031 H2046 0.961 . S
C2031 H2047 0.961 . S
C2032 C2033 1.370 . S
C2032 C2034 1.363 . S
C2032 H2048 0.931 . S
C2033 C2032 1.370 . S
C2033 C2037 1.408 . S
C2034 C2032 1.363 . S
C2034 C2035 1.370 . S
C2034 C2038 1.524 . S
C2035 C2027 1.503 . S
C2035 C2034 1.370 . S
C2035 C2036 1.403 . S
C2036 C2035 1.403 . S
C2036 C2037 1.404 . S
C2036 C2039 1.539 . S
C2037 C2033 1.408 . S
C2037 C2036 1.404 . S
C2037 H2049 0.930 . S
C2038 C2034 1.524 . S
C2038 H2050 0.956 . S
C2038 H2051 0.961 . S
C2038 H2052 0.961 . S
C2039 C2036 1.539 . S
C2039 H2053 0.958 . S
C2039 H2054 0.961 . S
C2039 H2055 0.960 . S
H2040 C2024 0.931 . S
H2041 C2029 0.929 . S
H2042 C2030 0.960 . S
H2043 C2030 0.962 . S
H2044 C2030 0.960 . S
H2045 C2031 0.961 . S
H2046 C2031 0.961 . S
H2047 C2031 0.961 . S
H2048 C2032 0.931 . S
H2049 C2037 0.930 . S
H2050 C2038 0.956 . S
H2051 C2038 0.961 . S
H2052 C2038 0.961 . S
H2053 C2039 0.958 . S
H2054 C2039 0.961 . S
H2055 C2039 0.960 . S
C2056 C2057 1.391 . S
C2056 C2058 1.394 . S
C2056 H2072 0.931 . S
C2057 C2056 1.391 . S
C2057 C2061 1.376 . S
C2058 C2056 1.394 . S
C2058 C2059 1.369 . S
C2058 C2062 1.531 . S
C2059 C2058 1.369 . S
C2059 C2060 1.410 . S
C2059 C2067 1.503 . S
C2060 C2059 1.410 . S
C2060 C2061 1.392 . S
C2060 C2063 1.511 . S
C2061 C2057 1.376 . S
C2061 C2060 1.392 . S
C2061 H2073 0.929 . S
C2062 C2058 1.531 . S
C2062 H2074 0.960 . S
C2062 H2075 0.962 . S
C2062 H2076 0.960 . S
C2063 C2060 1.511 . S
C2063 H2077 0.961 . S
C2063 H2078 0.961 . S
C2063 H2079 0.961 . S
C2064 C2065 1.370 . S
C2064 C2066 1.363 . S
C2064 H2080 0.931 . S
C2065 C2064 1.370 . S
C2065 C2069 1.408 . S
C2066 C2064 1.363 . S
C2066 C2067 1.370 . S
C2066 C2070 1.524 . S
C2067 C2059 1.503 . S
C2067 C2066 1.370 . S
C2067 C2068 1.403 . S
C2068 C2067 1.403 . S
C2068 C2069 1.404 . S
C2068 C2071 1.539 . S
C2069 C2065 1.408 . S
C2069 C2068 1.404 . S
C2069 H2081 0.930 . S
C2070 C2066 1.524 . S
C2070 H2082 0.956 . S
C2070 H2083 0.961 . S
C2070 H2084 0.961 . S
C2071 C2068 1.539 . S
C2071 H2085 0.958 . S
C2071 H2086 0.961 . S
C2071 H2087 0.960 . S
H2072 C2056 0.931 . S
H2073 C2061 0.929 . S
H2074 C2062 0.960 . S
H2075 C2062 0.962 . S
H2076 C2062 0.960 . S
H2077 C2063 0.961 . S
H2078 C2063 0.961 . S
H2079 C2063 0.961 . S
H2080 C2064 0.931 . S
H2081 C2069 0.930 . S
H2082 C2070 0.956 . S
H2083 C2070 0.961 . S
H2084 C2070 0.961 . S
H2085 C2071 0.958 . S
H2086 C2071 0.961 . S
H2087 C2071 0.960 . S
C2088 C2089 1.391 . S
C2088 C2090 1.394 . S
C2088 H2104 0.931 . S
C2089 C2088 1.391 . S
C2089 C2093 1.376 . S
C2090 C2088 1.394 . S
C2090 C2091 1.369 . S
C2090 C2094 1.531 . S
C2091 C2090 1.369 . S
C2091 C2092 1.410 . S
C2091 C2099 1.503 . S
C2092 C2091 1.410 . S
C2092 C2093 1.392 . S
C2092 C2095 1.511 . S
C2093 C2089 1.376 . S
C2093 C2092 1.392 . S
C2093 H2105 0.929 . S
C2094 C2090 1.531 . S
C2094 H2106 0.960 . S
C2094 H2107 0.962 . S
C2094 H2108 0.960 . S
C2095 C2092 1.511 . S
C2095 H2109 0.961 . S
C2095 H2110 0.961 . S
C2095 H2111 0.961 . S
C2096 C2097 1.345 1_554 S
C2096 C2098 1.363 . S
C2096 H2112 0.931 . S
C2097 C2096 1.345 1_556 S
C2097 C2101 1.441 . S
C2098 C2096 1.363 . S
C2098 C2099 1.370 1_554 S
C2098 C2102 1.524 . S
C2099 C2091 1.503 . S
C2099 C2098 1.370 1_556 S
C2099 C2100 1.403 . S
C2100 C2099 1.403 . S
C2100 C2101 1.404 . S
C2100 C2103 1.539 . S
C2101 C2097 1.441 . S
C2101 C2100 1.404 . S
C2101 H2113 0.930 . S
C2102 C2098 1.524 . S
C2102 H2114 0.956 . S
C2102 H2115 0.961 . S
C2102 H2116 0.961 . S
C2103 C2100 1.539 . S
C2103 H2117 0.958 . S
C2103 H2118 0.961 . S
C2103 H2119 0.960 . S
H2104 C2088 0.931 . S
H2105 C2093 0.929 . S
H2106 C2094 0.960 . S
H2107 C2094 0.962 . S
H2108 C2094 0.960 . S
H2109 C2095 0.961 . S
H2110 C2095 0.961 . S
H2111 C2095 0.961 . S
H2112 C2096 0.931 . S
H2113 C2101 0.930 . S
H2114 C2102 0.956 . S
H2115 C2102 0.961 . S
H2116 C2102 0.961 . S
H2117 C2103 0.958 . S
H2118 C2103 0.961 . S
H2119 C2103 0.960 . S
C2120 C2121 1.391 . S
C2120 C2122 1.394 . S
C2120 H2136 0.931 . S
C2121 C2120 1.391 . S
C2121 C2125 1.376 . S
C2122 C2120 1.394 . S
C2122 C2123 1.369 . S
C2122 C2126 1.531 . S
C2123 C2122 1.369 . S
C2123 C2124 1.410 . S
C2123 C2131 1.503 . S
C2124 C2123 1.410 . S
C2124 C2125 1.392 . S
C2124 C2127 1.511 . S
C2125 C2121 1.376 . S
C2125 C2124 1.392 . S
C2125 H2137 0.929 . S
C2126 C2122 1.531 . S
C2126 H2138 0.960 . S
C2126 H2139 0.962 . S
C2126 H2140 0.960 . S
C2127 C2124 1.511 . S
C2127 H2141 0.961 . S
C2127 H2142 0.961 . S
C2127 H2143 0.961 . S
C2128 C2129 1.370 . S
C2128 C2130 1.363 . S
C2128 H2144 0.931 . S
C2129 C2128 1.370 . S
C2129 C2133 1.408 . S
C2130 C2128 1.363 . S
C2130 C2131 1.370 . S
C2130 C2134 1.524 . S
C2131 C2123 1.503 . S
C2131 C2130 1.370 . S
C2131 C2132 1.403 . S
C2132 C2131 1.403 . S
C2132 C2133 1.404 . S
C2132 C2135 1.539 . S
C2133 C2129 1.408 . S
C2133 C2132 1.404 . S
C2133 H2145 0.930 . S
C2134 C2130 1.524 . S
C2134 H2146 0.956 . S
C2134 H2147 0.961 . S
C2134 H2148 0.961 . S
C2135 C2132 1.539 . S
C2135 H2149 0.958 . S
C2135 H2150 0.961 . S
C2135 H2151 0.960 . S
H2136 C2120 0.931 . S
H2137 C2125 0.929 . S
H2138 C2126 0.960 . S
H2139 C2126 0.962 . S
H2140 C2126 0.960 . S
H2141 C2127 0.961 . S
H2142 C2127 0.961 . S
H2143 C2127 0.961 . S
H2144 C2128 0.931 . S
H2145 C2133 0.930 . S
H2146 C2134 0.956 . S
H2147 C2134 0.961 . S
H2148 C2134 0.961 . S
H2149 C2135 0.958 . S
H2150 C2135 0.961 . S
H2151 C2135 0.960 . S
C2152 C2153 1.391 . S
C2152 C2154 1.394 . S
C2152 H2168 0.931 . S
C2153 C2152 1.391 . S
C2153 C2157 1.376 . S
C2154 C2152 1.394 . S
C2154 C2155 1.369 . S
C2154 C2158 1.531 . S
C2155 C2154 1.369 . S
C2155 C2156 1.410 . S
C2155 C2163 1.503 . S
C2156 C2155 1.410 . S
C2156 C2157 1.392 . S
C2156 C2159 1.511 . S
C2157 C2153 1.376 . S
C2157 C2156 1.392 . S
C2157 H2169 0.929 . S
C2158 C2154 1.531 . S
C2158 H2170 0.960 . S
C2158 H2171 0.962 . S
C2158 H2172 0.960 . S
C2159 C2156 1.511 . S
C2159 H2173 0.961 . S
C2159 H2174 0.961 . S
C2159 H2175 0.961 . S
C2160 C2161 1.370 . S
C2160 C2162 1.363 . S
C2160 H2176 0.931 1_554 S
C2161 C2160 1.370 . S
C2161 C2165 1.408 . S
C2162 C2160 1.363 . S
C2162 C2163 1.370 . S
C2162 C2166 1.524 1_554 S
C2163 C2155 1.503 . S
C2163 C2162 1.370 . S
C2163 C2164 1.403 . S
C2164 C2163 1.403 . S
C2164 C2165 1.404 . S
C2164 C2167 1.539 . S
C2165 C2161 1.408 . S
C2165 C2164 1.404 . S
C2165 H2177 0.930 . S
C2166 C2162 1.524 1_556 S
C2166 H2178 0.956 . S
C2166 H2179 0.961 . S
C2166 H2180 0.961 . S
C2167 C2164 1.539 . S
C2167 H2181 0.958 . S
C2167 H2182 0.961 . S
C2167 H2183 0.960 . S
H2168 C2152 0.931 . S
H2169 C2157 0.929 . S
H2170 C2158 0.960 . S
H2171 C2158 0.962 . S
H2172 C2158 0.960 . S
H2173 C2159 0.961 . S
H2174 C2159 0.961 . S
H2175 C2159 0.961 . S
H2176 C2160 0.931 1_556 S
H2177 C2165 0.930 . S
H2178 C2166 0.956 . S
H2179 C2166 0.961 . S
H2180 C2166 0.961 . S
H2181 C2167 0.958 . S
H2182 C2167 0.961 . S
H2183 C2167 0.960 . S
C2184 C2185 1.391 . S
C2184 C2186 1.394 . S
C2184 H2200 0.931 . S
C2185 C2184 1.391 . S
C2185 C2189 1.376 . S
C2186 C2184 1.394 . S
C2186 C2187 1.369 . S
C2186 C2190 1.531 . S
C2187 C2186 1.369 . S
C2187 C2188 1.410 . S
C2187 C2195 1.503 . S
C2188 C2187 1.410 . S
C2188 C2189 1.392 . S
C2188 C2191 1.511 1_554 S
C2189 C2185 1.376 . S
C2189 C2188 1.392 . S
C2189 H2201 0.929 . S
C2190 C2186 1.531 . S
C2190 H2202 0.960 . S
C2190 H2203 0.962 . S
C2190 H2204 0.960 . S
C2191 C2188 1.511 1_556 S
C2191 H2205 0.961 . S
C2191 H2206 0.961 . S
C2191 H2207 0.961 1_556 S
C2192 C2193 1.370 1_556 S
C2192 C2194 1.363 1_556 S
C2192 H2208 0.931 . S
C2193 C2192 1.370 1_554 S
C2193 C2197 1.408 . S
C2194 C2192 1.363 1_554 S
C2194 C2195 1.370 . S
C2194 C2198 1.524 1_554 S
C2195 C2187 1.503 . S
C2195 C2194 1.370 . S
C2195 C2196 1.403 . S
C2196 C2195 1.403 . S
C2196 C2197 1.404 . S
C2196 C2199 1.539 . S
C2197 C2193 1.408 . S
C2197 C2196 1.404 . S
C2197 H2209 0.930 . S
C2198 C2194 1.524 1_556 S
C2198 H2210 0.956 . S
C2198 H2211 0.961 . S
C2198 H2212 0.961 . S
C2199 C2196 1.539 . S
C2199 H2213 0.958 . S
C2199 H2214 0.961 . S
C2199 H2215 0.960 . S
H2200 C2184 0.931 . S
H2201 C2189 0.929 . S
H2202 C2190 0.960 . S
H2203 C2190 0.962 . S
H2204 C2190 0.960 . S
H2205 C2191 0.961 . S
H2206 C2191 0.961 . S
H2207 C2191 0.961 1_554 S
H2208 C2192 0.931 . S
H2209 C2197 0.930 . S
H2210 C2198 0.956 . S
H2211 C2198 0.961 . S
H2212 C2198 0.961 . S
H2213 C2199 0.958 . S
H2214 C2199 0.961 . S
H2215 C2199 0.960 . S
C689 C523 1.422 . S
C681 C177 1.407 . S
C721 C531 1.269 . S
C713 C209 1.525 . S
C745 C253 1.347 . S
C753 C551 1.390 . S
C785 C565 1.512 . S
C777 C157 1.491 1_655 S
C817 C580 1.541 . S
C809 C343 1.492 . S
C849 C594 1.501 . S
C841 C401 1.458 . S
C873 C369 1.546 . S
C881 C608 1.579 . S
C913 C614 1.438 . S
C905 C317 1.471 . S
C937 C375 1.514 . S
C945 C628 1.485 . S
C977 C649 1.569 . S
C969 C305 1.543 . S
C1001 C349 1.435 . S
C1009 C629 1.293 . S
C1041 C650 1.537 . S
C1033 C413 1.452 . S
C1065 C241 1.409 . S
C1073 C657 1.195 . S
C1097 C151 1.426 . S
C1105 C663 1.462 . S
C1129 C189 1.471 . S
C1137 C656 1.464 . S
C1161 C215 1.447 . S
C1169 C664 1.475 . S
C1193 C113 1.439 . S
C1201 C558 1.460 . S
C1225 C471 1.459 . S
C1233 C559 1.251 . S
C1265 C516 1.533 . S
C1257 C509 1.556 . S
C1297 C537 1.447 . S
C1289 C279 1.424 . S
C1321 C145 1.433 . S
C1329 C572 1.414 . S
C1361 C622 1.571 . S
C1353 C381 1.541 . S
C1393 C573 1.221 . S
C1385 C311 1.456 . S
C1425 C601 1.291 . S
C1417 C407 1.494 . S
C1457 C607 1.423 . S
C1449 C465 1.411 . S
C1481 C497 1.541 . S
C1489 C615 1.308 . S
C1513 C285 1.344 . S
C1521 C579 1.371 . S
C1553 C593 1.516 . S
C1545 C445 1.503 . S
C1577 C119 1.503 . S
C1585 C552 1.540 . S
C1617 C566 1.502 . S
C1609 C17 1.432 . S
C1649 C524 1.576 . S
C1641 C49 1.557 . S
C1681 C530 1.444 . S
C1673 C93 1.442 . S
C1705 C55 1.480 . S
C1713 C642 1.500 . S
C1737 C81 1.551 1_556 S
C1745 C635 1.567 . S
C1769 C125 1.460 . S
C1777 C643 1.276 . S
C1801 C29 1.454 . S
C1809 C636 1.536 . S
C1841 C671 1.204 . S
C1833 C273 1.401 . S
C1873 C677 1.476 . S
C1865 C439 1.473 . S
C1905 C670 1.460 . S
C1897 C477 1.484 . S
C1929 C503 1.473 . S
C1937 C678 1.476 . S
C1961 C337 1.435 . S
C1969 C586 1.458 . S
C2001 C587 1.220 . S
C1993 C183 1.439 . S
C2033 C600 1.528 . S
C2025 C221 1.529 . S
C2065 C621 1.432 . S
C2057 C247 1.394 . S
C2089 C433 1.414 . S
C2097 C544 1.404 1_556 S
C2129 C538 1.573 . S
C2121 C61 1.504 . S
C2153 C87 1.452 . S
C2161 C545 1.216 . S
C2193 C517 1.251 . S
C2185 C23 1.481 . S
