# Generated by pormake.
# Topology the, (3,8)-cn, num edge types: 1
# Building blocks:
#     Node 0, Type 0, BuildingBlock: QEWDON_clean_linker_0, # of connection points: 3
#     Node 1, Type 0, BuildingBlock: QEWDON_clean_linker_0, # of connection points: 3
#     Node 2, Type 0, BuildingBlock: QEWDON_clean_linker_0, # of connection points: 3
#     Node 3, Type 0, BuildingBlock: QEWDON_clean_linker_0, # of connection points: 3
#     Node 4, Type 0, BuildingBlock: QEWDON_clean_linker_0, # of connection points: 3
#     Node 5, Type 0, BuildingBlock: QEWDON_clean_linker_0, # of connection points: 3
#     Node 6, Type 0, BuildingBlock: QEWDON_clean_linker_0, # of connection points: 3
#     Node 7, Type 0, BuildingBlock: QEWDON_clean_linker_0, # of connection points: 3
#     Node 8, Type 1, BuildingBlock: GIZVER_clean_sbu_0, # of connection points: 8
#     Node 9, Type 1, BuildingBlock: GIZVER_clean_sbu_0, # of connection points: 8
#     Node 10, Type 1, BuildingBlock: GIZVER_clean_sbu_0, # of connection points: 8
#     Edge 11, Type (0, 1), BuildingBlock: OJICUG_clean_linker_0, # of connection points: 2
#     Edge 12, Type (0, 1), BuildingBlock: OJICUG_clean_linker_0, # of connection points: 2
#     Edge 13, Type (0, 1), BuildingBlock: OJICUG_clean_linker_0, # of connection points: 2
#     Edge 14, Type (0, 1), BuildingBlock: OJICUG_clean_linker_0, # of connection points: 2
#     Edge 15, Type (0, 1), BuildingBlock: OJICUG_clean_linker_0, # of connection points: 2
#     Edge 16, Type (0, 1), BuildingBlock: OJICUG_clean_linker_0, # of connection points: 2
#     Edge 17, Type (0, 1), BuildingBlock: OJICUG_clean_linker_0, # of connection points: 2
#     Edge 18, Type (0, 1), BuildingBlock: OJICUG_clean_linker_0, # of connection points: 2
#     Edge 19, Type (0, 1), BuildingBlock: OJICUG_clean_linker_0, # of connection points: 2
#     Edge 20, Type (0, 1), BuildingBlock: OJICUG_clean_linker_0, # of connection points: 2
#     Edge 21, Type (0, 1), BuildingBlock: OJICUG_clean_linker_0, # of connection points: 2
#     Edge 22, Type (0, 1), BuildingBlock: OJICUG_clean_linker_0, # of connection points: 2
#     Edge 23, Type (0, 1), BuildingBlock: OJICUG_clean_linker_0, # of connection points: 2
#     Edge 24, Type (0, 1), BuildingBlock: OJICUG_clean_linker_0, # of connection points: 2
#     Edge 25, Type (0, 1), BuildingBlock: OJICUG_clean_linker_0, # of connection points: 2
#     Edge 26, Type (0, 1), BuildingBlock: OJICUG_clean_linker_0, # of connection points: 2
#     Edge 27, Type (0, 1), BuildingBlock: OJICUG_clean_linker_0, # of connection points: 2
#     Edge 28, Type (0, 1), BuildingBlock: OJICUG_clean_linker_0, # of connection points: 2
#     Edge 29, Type (0, 1), BuildingBlock: OJICUG_clean_linker_0, # of connection points: 2
#     Edge 30, Type (0, 1), BuildingBlock: OJICUG_clean_linker_0, # of connection points: 2
#     Edge 31, Type (0, 1), BuildingBlock: OJICUG_clean_linker_0, # of connection points: 2
#     Edge 32, Type (0, 1), BuildingBlock: OJICUG_clean_linker_0, # of connection points: 2
#     Edge 33, Type (0, 1), BuildingBlock: OJICUG_clean_linker_0, # of connection points: 2
#     Edge 34, Type (0, 1), BuildingBlock: OJICUG_clean_linker_0, # of connection points: 2
# Relax obj value: 0.103
# Max RMSD: 0.272
# Mean RMSD: 0.173
data_MOF--net-the--node1-GIZVER_clean_sbu_0--node2-QEWDON_clean_linker_0--edge1-OJICUG_clean_linker_0
_symmetry_space_group_name_H-M    P1
_symmetry_Int_Tables_number       1
_symmetry_cell_setting            triclinic
loop_
_symmetry_equiv_pos_as_xyz
'x, y, z'
_cell_length_a     31.698476
_cell_length_b     29.178757
_cell_length_c     27.547032
_cell_angle_alpha  86.922731
_cell_angle_beta   96.468554
_cell_angle_gamma 115.63872
loop_
_atom_site_label
_atom_site_type_symbol
_atom_site_fract_x
_atom_site_fract_y
_atom_site_fract_z
_atom_type_partial_charge
H0 H 0.3614 0.23413 0.46813 0.0
C1 C 0.37361 0.26053 0.43801 0.0
C2 C 0.41616 0.26933 0.42048 0.0
C3 C 0.345 0.28238 0.41479 0.0
H4 H 0.46306 0.30661 0.36526 0.0
C5 C 0.43105 0.30158 0.38009 0.0
C6 C 0.40311 0.32451 0.35677 0.0
C7 C 0.36003 0.31479 0.37439 0.0
C8 C 0.2971 0.2659 0.42938 0.0
H9 H 0.33746 0.33071 0.35552 0.0
C10 C 0.28136 0.30136 0.44242 0.0
C11 C 0.23568 0.28482 0.45683 0.0
C12 C 0.26699 0.21376 0.43066 0.0
H13 H 0.27839 0.18584 0.42052 0.0
C14 C 0.22171 0.19717 0.44429 0.0
H15 H 0.30509 0.34147 0.44235 0.0
C16 C 0.206 0.23227 0.45705 0.0
H17 H 0.17018 0.21805 0.46626 0.0
H18 H 0.19855 0.15694 0.44462 0.0
H19 H 0.84159 0.3498 0.30342 0.0
C20 C 0.81565 0.31742 0.32114 0.0
C21 C 0.82343 0.30863 0.37114 0.0
C22 C 0.77308 0.28656 0.29448 0.0
H23 H 0.79727 0.25868 0.43137 0.0
C24 C 0.78947 0.26658 0.39344 0.0
C25 C 0.74574 0.23607 0.36797 0.0
C26 C 0.73788 0.24683 0.31811 0.0
C27 C 0.76506 0.29747 0.24218 0.0
H28 H 0.70439 0.22504 0.29751 0.0
C29 C 0.73143 0.31568 0.22592 0.0
C30 C 0.7259 0.32915 0.17648 0.0
C31 C 0.79281 0.29205 0.20875 0.0
H32 H 0.81909 0.27838 0.22077 0.0
C33 C 0.78675 0.30412 0.15955 0.0
H34 H 0.71105 0.3212 0.25219 0.0
C35 C 0.75364 0.32262 0.14344 0.0
H36 H 0.74971 0.33174 0.10505 0.0
H37 H 0.80804 0.29949 0.13385 0.0
H38 H 0.79918 0.70022 0.43104 0.0
C39 C 0.79115 0.69222 0.39223 0.0
C40 C 0.81741 0.67322 0.36855 0.0
C41 C 0.75165 0.69596 0.36741 0.0
H42 H 0.82193 0.6411 0.30133 0.0
C43 C 0.80396 0.65885 0.31902 0.0
C44 C 0.76474 0.66332 0.29356 0.0
C45 C 0.73961 0.68295 0.3179 0.0
C46 C 0.7159 0.69913 0.39542 0.0
H47 H 0.70746 0.68309 0.29971 0.0
C48 C 0.72234 0.74433 0.41789 0.0
C49 C 0.68701 0.74453 0.44473 0.0
C50 C 0.6743 0.65473 0.39985 0.0
H51 H 0.66888 0.61964 0.38297 0.0
C52 C 0.6395 0.65493 0.42624 0.0
H53 H 0.75433 0.77872 0.41456 0.0
C54 C 0.6457 0.69939 0.44848 0.0
H55 H 0.61767 0.69864 0.46817 0.0
H56 H 0.60753 0.62054 0.42934 0.0
H57 H 0.42916 0.78193 0.33826 0.0
C58 C 0.39477 0.75727 0.3495 0.0
C59 C 0.38279 0.76361 0.39563 0.0
C60 C 0.36222 0.71939 0.31767 0.0
H61 H 0.32924 0.73497 0.44566 0.0
C62 C 0.33799 0.73083 0.40975 0.0
C63 C 0.30465 0.6931 0.37777 0.0
C64 C 0.31729 0.68853 0.33154 0.0
C65 C 0.37257 0.71361 0.26791 0.0
H66 H 0.29194 0.66114 0.30552 0.0
C67 C 0.39884 0.68667 0.25948 0.0
C68 C 0.40196 0.67449 0.21124 0.0
C69 C 0.35056 0.72966 0.22816 0.0
H70 H 0.32978 0.7498 0.23404 0.0
C71 C 0.35365 0.71829 0.18068 0.0
H72 H 0.4158 0.67462 0.29052 0.0
C73 C 0.37836 0.69041 0.17223 0.0
H74 H 0.37779 0.68046 0.13483 0.0
H75 H 0.33576 0.73003 0.15025 0.0
H76 H 0.45006 0.74103 0.7611 0.0
C77 C 0.41327 0.72963 0.74885 0.0
C78 C 0.39881 0.76448 0.72292 0.0
C79 C 0.38099 0.67855 0.75485 0.0
H80 H 0.33927 0.77224 0.6824 0.0
C81 C 0.35138 0.7471 0.70355 0.0
C82 C 0.3195 0.69626 0.70847 0.0
C83 C 0.33383 0.66308 0.73613 0.0
C84 C 0.39663 0.63897 0.77372 0.0
H85 H 0.30884 0.62362 0.73929 0.0
C86 C 0.42853 0.64637 0.81593 0.0
C87 C 0.43984 0.60647 0.83399 0.0
C88 C 0.37847 0.59224 0.74889 0.0
H89 H 0.35533 0.58584 0.71536 0.0
C90 C 0.38991 0.55311 0.76665 0.0
H91 H 0.44347 0.68221 0.83522 0.0
C92 C 0.42005 0.55993 0.80913 0.0
H93 H 0.42887 0.52909 0.82203 0.0
H94 H 0.37548 0.51739 0.74729 0.0
H95 H 0.36806 0.32468 0.7975 0.0
C96 C 0.38448 0.30548 0.77937 0.0
C97 C 0.43032 0.3119 0.79651 0.0
C98 C 0.35886 0.27221 0.74059 0.0
H99 H 0.48596 0.29033 0.78618 0.0
C100 C 0.45073 0.2855 0.77321 0.0
C101 C 0.4259 0.2531 0.73325 0.0
C102 C 0.3801 0.24701 0.71754 0.0
C103 C 0.30866 0.26005 0.72547 0.0
H104 H 0.36067 0.2227 0.68664 0.0
C105 C 0.2935 0.29812 0.71112 0.0
C106 C 0.24615 0.28476 0.69252 0.0
C107 C 0.27589 0.20877 0.72269 0.0
H108 H 0.28657 0.17885 0.73382 0.0
C109 C 0.22928 0.19539 0.70491 0.0
H110 H 0.31869 0.33768 0.71358 0.0
C111 C 0.21459 0.23282 0.68942 0.0
H112 H 0.17849 0.22068 0.67397 0.0
H113 H 0.20455 0.15569 0.7023 0.0
H114 H 0.90106 0.362 0.80037 0.0
C115 C 0.87301 0.33327 0.77751 0.0
C116 C 0.8759 0.33248 0.72705 0.0
C117 C 0.8331 0.29859 0.79854 0.0
H118 H 0.83952 0.29492 0.65893 0.0
C119 C 0.83841 0.29532 0.69808 0.0
C120 C 0.79855 0.25967 0.71918 0.0
C121 C 0.79625 0.26164 0.76955 0.0
C122 C 0.82679 0.30605 0.84906 0.0
H123 H 0.76478 0.23598 0.7859 0.0
C124 C 0.80219 0.33435 0.85742 0.0
C125 C 0.79579 0.34288 0.90519 0.0
C126 C 0.84557 0.28623 0.8886 0.0
H127 H 0.86482 0.26445 0.88254 0.0
C128 C 0.83942 0.29448 0.93628 0.0
H129 H 0.78874 0.3504 0.82648 0.0
C130 C 0.8147 0.32262 0.94466 0.0
H131 H 0.80988 0.32792 0.98191 0.0
H132 H 0.85373 0.27894 0.96685 0.0
H133 H 0.87681 0.7418 0.63632 0.0
C134 C 0.85788 0.72064 0.66667 0.0
C135 C 0.8584 0.67395 0.6807 0.0
C136 C 0.83528 0.74172 0.69271 0.0
H137 H 0.83569 0.61185 0.73277 0.0
C138 C 0.83417 0.64709 0.72058 0.0
C139 C 0.8114 0.66813 0.74725 0.0
C140 C 0.81157 0.71513 0.73249 0.0
C141 C 0.84223 0.79453 0.68232 0.0
H142 H 0.79508 0.73219 0.75339 0.0
C143 C 0.80381 0.80666 0.67157 0.0
C144 C 0.81135 0.85744 0.66203 0.0
C145 C 0.88822 0.83328 0.68379 0.0
H146 H 0.91824 0.82465 0.69232 0.0
C147 C 0.89592 0.88358 0.6753 0.0
H148 H 0.76841 0.77648 0.66959 0.0
C149 C 0.85793 0.89572 0.66478 0.0
H150 H 0.86522 0.93538 0.65943 0.0
H151 H 0.93147 0.91335 0.67719 0.0
Co152 Co 0.14723 0.47244 0.57046 0.0
Co153 Co 0.10382 0.45225 0.48264 0.0
Co154 Co 0.06812 0.52067 0.5325 0.0
O155 O 0.0869 0.46392 0.54081 0.0
H156 H 0.06194 0.43291 0.5514 0.0
O157 O 0.04717 0.57648 0.52489 0.0
Co158 Co 0.98215 0.56136 0.50293 0.0
Co159 Co 0.03322 0.58578 0.58634 0.0
H160 H 0.06995 0.60757 0.51167 0.0
O161 O 0.10115 0.38996 0.46985 0.0
O162 O 0.16259 0.45713 0.50669 0.0
O163 O 0.11383 0.50267 0.43227 0.0
O164 O 0.11489 0.55946 0.4834 0.0
O165 O 0.01865 0.48109 0.47997 0.0
O166 O 0.92454 0.55282 0.48122 0.0
O167 O 0.99096 0.62591 0.48528 0.0
O168 O 0.9638 0.49124 0.51458 0.0
O169 O 0.02329 0.48201 0.58237 0.0
O170 O 0.03361 0.53838 0.63827 0.0
O171 O 0.97035 0.57168 0.57051 0.0
O172 O 0.02933 0.64384 0.60211 0.0
C173 C 0.17392 0.42585 0.60668 0.0
C174 C 0.16105 0.57062 0.58215 0.0
C175 C 0.1276 0.54846 0.44484 0.0
C176 C 0.14486 0.4118 0.4878 0.0
C177 C 0.94572 0.60136 0.47296 0.0
C178 C 0.97538 0.46749 0.48511 0.0
C179 C 0.01875 0.49261 0.62518 0.0
C180 C 0.98466 0.61525 0.59234 0.0
O181 O 0.20117 0.47368 0.5998 0.0
O182 O 0.12963 0.40744 0.58973 0.0
O183 O 0.11786 0.55987 0.58495 0.0
O184 O 0.17274 0.54343 0.55674 0.0
Co185 Co 0.60944 0.93058 0.54597 0.0
Co186 Co 0.63194 0.97549 0.63136 0.0
Co187 Co 0.57236 0.02122 0.56696 0.0
O188 O 0.62224 0.99701 0.56785 0.0
H189 H 0.65139 0.02297 0.55779 0.0
O190 O 0.52359 0.04755 0.56637 0.0
Co191 Co 0.5407 0.1151 0.59108 0.0
Co192 Co 0.51515 0.07368 0.50573 0.0
H193 H 0.49409 0.02228 0.57639 0.0
O194 O 0.68982 0.97992 0.65262 0.0
O195 O 0.62836 0.91367 0.61407 0.0
O196 O 0.58553 0.96096 0.67643 0.0
O197 O 0.53634 0.97085 0.61753 0.0
O198 O 0.61302 0.07132 0.61815 0.0
O199 O 0.55124 0.17438 0.61645 0.0
O200 O 0.4829 0.10397 0.60743 0.0
O201 O 0.60487 0.13621 0.58089 0.0
O202 O 0.60806 0.07113 0.5158 0.0
O203 O 0.55643 0.07742 0.45748 0.0
O204 O 0.52708 0.13918 0.52404 0.0
O205 O 0.46104 0.07895 0.48476 0.0
C206 C 0.64599 0.89596 0.51908 0.0
C207 C 0.52111 0.9216 0.52389 0.0
C208 C 0.54421 0.9527 0.65902 0.0
C209 C 0.67143 0.9341 0.6353 0.0
C210 C 0.50714 0.15036 0.62393 0.0
C211 C 0.6286 0.11895 0.61026 0.0
C212 C 0.59791 0.08432 0.47273 0.0
C213 C 0.48632 0.12585 0.49826 0.0
O214 O 0.6018 0.87097 0.52556 0.0
O215 O 0.66794 0.9444 0.52934 0.0
O216 O 0.53204 0.96899 0.51631 0.0
O217 O 0.54534 0.90787 0.5566 0.0
Co218 Co 0.53732 0.52326 0.13702 0.0
Co219 Co 0.51345 0.43084 0.11883 0.0
Co220 Co 0.58924 0.50483 0.04335 0.0
O221 O 0.53219 0.48717 0.07878 0.0
H222 H 0.50576 0.48511 0.05626 0.0
O223 O 0.64697 0.5234 1.0099 0.0
Co224 Co 0.64669 0.48559 0.9565 0.0
Co225 Co 0.66491 0.57698 0.96799 0.0
H226 H 0.67338 0.52842 1.03376 0.0
O227 O 0.45206 0.39474 0.13597 0.0
O228 O 0.51165 0.4599 0.17638 0.0
O229 O 0.5574 0.40124 0.12861 0.0
O230 O 0.6112 0.45716 0.08293 0.0
O231 O 0.54887 0.44775 0.99576 0.0
O232 O 0.65146 0.44799 0.9105 0.0
O233 O 0.70263 0.48606 0.97559 0.0
O234 O 0.58707 0.47987 0.93056 0.0
O235 O 0.56689 0.55168 1.00236 0.0
O236 O 0.61853 0.60196 0.9514 0.0
O237 O 0.6749 0.54753 0.91491 0.0
O238 O 0.72709 0.61602 0.95816 0.0
C239 C 0.49705 0.55362 0.16335 0.0
C240 C 0.6334 0.55458 0.13624 0.0
C241 C 0.59737 0.41895 0.11218 0.0
C242 C 0.47024 0.42182 0.17533 0.0
C243 C 0.69012 0.45592 0.93816 0.0
C244 C 0.55004 0.45029 0.94934 0.0
C245 C 0.57918 0.58607 0.96891 0.0
C246 C 0.71556 0.58706 0.92004 0.0
O247 O 0.53646 0.55892 0.18792 0.0
O248 O 0.48149 0.52559 0.12421 0.0
O249 O 0.63022 0.56157 0.09018 0.0
O250 O 0.59735 0.52644 0.15725 0.0
C251 C 0.18558 0.30853 0.50539 0.0
C252 C 0.21794 0.32168 0.47016 0.0
H253 H 0.13639 0.32674 0.53777 0.0
C254 C 0.2303 0.36857 0.44542 0.0
H255 H 0.17634 0.27369 0.52642 0.0
C256 C 0.20873 0.39996 0.45373 0.0
C257 C 0.17401 0.3845 0.48614 0.0
H258 H 0.25473 0.37992 0.41782 0.0
H259 H 0.21711 0.43475 0.43272 0.0
C260 C 0.16313 0.33914 0.51251 0.0
C261 C 0.70642 0.2001 0.44484 0.0
C262 C 0.70805 0.19531 0.39447 0.0
H263 H 0.67159 0.16789 0.50872 0.0
C264 C 0.67291 0.1519 0.37018 0.0
H265 H 0.73106 0.23346 0.46504 0.0
C266 C 0.637 0.11517 0.3954 0.0
C267 C 0.63659 0.12015 0.44567 0.0
H268 H 0.67296 0.14606 0.33174 0.0
H269 H 0.60982 0.08277 0.37578 0.0
C270 C 0.67185 0.16258 0.47015 0.0
C271 C 0.84132 0.63062 0.44042 0.0
C272 C 0.85327 0.66024 0.39782 0.0
H273 H 0.86158 0.58924 0.49754 0.0
C274 C 0.89824 0.67458 0.38262 0.0
H275 H 0.80682 0.6185 0.45281 0.0
C276 C 0.93019 0.65863 0.40909 0.0
C277 C 0.91709 0.62705 0.45034 0.0
H278 H 0.90832 0.69738 0.34991 0.0
H279 H 0.96401 0.66865 0.39586 0.0
C280 C 0.87264 0.61385 0.46604 0.0
C281 C 0.439 0.85509 0.41228 0.0
C282 C 0.41694 0.8046 0.429 0.0
H283 H 0.48834 0.93198 0.42945 0.0
C284 C 0.42781 0.79351 0.47778 0.0
H285 H 0.43097 0.86481 0.37497 0.0
C286 C 0.46103 0.83173 0.50873 0.0
C287 C 0.48344 0.88217 0.49194 0.0
H288 H 0.41141 0.75498 0.49167 0.0
H289 H 0.46936 0.82174 0.54585 0.0
C290 C 0.47152 0.89359 0.44357 0.0
C291 C 0.27901 0.67412 0.62503 0.0
C292 C 0.27565 0.67426 0.67542 0.0
H293 H 0.24493 0.6402 0.55583 0.0
C294 C 0.23228 0.64497 0.69383 0.0
H295 H 0.31235 0.69579 0.6102 0.0
C296 C 0.19342 0.614 0.66249 0.0
C297 C 0.19808 0.61079 0.61283 0.0
H298 H 0.22923 0.64403 0.73268 0.0
H299 H 0.16086 0.58982 0.6777 0.0
C300 C 0.2407 0.6421 0.59407 0.0
C301 C 0.49415 0.25062 0.69603 0.0
C302 C 0.44721 0.22587 0.70694 0.0
H303 H 0.5494 0.24676 0.66098 0.0
C304 C 0.41997 0.17566 0.69017 0.0
H305 H 0.51604 0.28938 0.70765 0.0
C306 C 0.43897 0.15118 0.66285 0.0
C307 C 0.48579 0.17618 0.65162 0.0
H308 H 0.38382 0.15504 0.69834 0.0
H309 H 0.41701 0.1126 0.65075 0.0
C310 C 0.51312 0.22619 0.66873 0.0
C311 C 0.93427 0.42365 0.71946 0.0
C312 C 0.91618 0.37282 0.7042 0.0
H313 H 0.98132 0.50122 0.70715 0.0
C314 C 0.93546 0.36142 0.66562 0.0
H315 H 0.91984 0.434 0.74859 0.0
C316 C 0.97058 0.40016 0.64156 0.0
C317 C 0.9873 0.4512 0.6556 0.0
H318 H 0.92288 0.32261 0.65349 0.0
H319 H 0.98363 0.3902 0.61099 0.0
C320 C 0.96956 0.46234 0.6956 0.0
C321 C 0.7296 0.84735 0.67297 0.0
C322 C 0.77141 0.87142 0.64992 0.0
H323 H 0.66407 0.84805 0.68554 0.0
C324 C 0.77636 0.91188 0.61742 0.0
H325 H 0.72462 0.81625 0.6984 0.0
C326 C 0.74259 0.93071 0.61145 0.0
C327 C 0.70207 0.90817 0.63605 0.0
H328 H 0.80718 0.9303 0.59769 0.0
H329 H 0.74872 0.96385 0.58843 0.0
C330 C 0.69498 0.86549 0.66581 0.0
C331 C 0.42846 0.19215 0.41306 0.0
C332 C 0.43937 0.23671 0.4386 0.0
H333 H 0.4343 0.12202 0.41238 0.0
C334 C 0.46707 0.24586 0.48368 0.0
H335 H 0.40655 0.18418 0.37856 0.0
C336 C 0.48359 0.21048 0.503 0.0
C337 C 0.47121 0.16492 0.4781 0.0
H338 H 0.47513 0.27978 0.50422 0.0
H339 H 0.50471 0.21799 0.53793 0.0
C340 C 0.44389 0.15644 0.43275 0.0
C341 C 0.85609 0.36316 0.44519 0.0
C342 C 0.86394 0.3465 0.40161 0.0
H343 H 0.88498 0.4141 0.50551 0.0
C344 C 0.90959 0.36832 0.38666 0.0
H345 H 0.8212 0.34763 0.45735 0.0
C346 C 0.9465 0.40657 0.41462 0.0
C347 C 0.93809 0.42414 0.45742 0.0
H348 H 0.9166 0.35608 0.35327 0.0
H349 H 0.98122 0.42336 0.40198 0.0
C350 C 0.89262 0.40158 0.47263 0.0
C351 C 0.69783 0.83539 0.44066 0.0
C352 C 0.69086 0.79104 0.46815 0.0
H353 H 0.68956 0.90508 0.43596 0.0
C354 C 0.67847 0.78763 0.51602 0.0
H355 H 0.70707 0.83878 0.40353 0.0
C356 C 0.66783 0.8247 0.53394 0.0
C357 C 0.67063 0.86675 0.50502 0.0
H358 H 0.67328 0.75414 0.53819 0.0
H359 H 0.65418 0.81864 0.56922 0.0
C360 C 0.68781 0.87323 0.45911 0.0
C361 C 0.23311 0.67323 0.4231 0.0
C362 C 0.25704 0.65767 0.39226 0.0
H363 H 0.17305 0.6514 0.46337 0.0
C364 C 0.23518 0.60719 0.37542 0.0
H365 H 0.24818 0.71193 0.43619 0.0
C366 C 0.19147 0.57317 0.38952 0.0
C367 C 0.16848 0.58795 0.422 0.0
H368 H 0.2525 0.59297 0.35261 0.0
H369 H 0.17697 0.53434 0.3768 0.0
C370 C 0.18951 0.63871 0.43803 0.0
C371 C 0.47474 0.84379 0.74152 0.0
C372 C 0.43388 0.81662 0.71014 0.0
H373 H 0.54174 0.90875 0.75045 0.0
C374 C 0.42794 0.83853 0.66454 0.0
H375 H 0.48036 0.82875 0.77719 0.0
C376 C 0.46208 0.88507 0.65018 0.0
C377 C 0.50412 0.91063 0.68016 0.0
H378 H 0.39805 0.81872 0.63832 0.0
H379 H 0.45671 0.89911 0.6139 0.0
C380 C 0.50968 0.89006 0.72651 0.0
C381 C 0.25843 0.36809 0.64994 0.0
C382 C 0.2293 0.32382 0.67425 0.0
H383 H 0.26381 0.43521 0.60981 0.0
C384 C 0.18252 0.31539 0.67824 0.0
H385 H 0.29436 0.37576 0.64541 0.0
C386 C 0.16472 0.34861 0.65649 0.0
C387 C 0.19355 0.39205 0.63146 0.0
H388 H 0.15921 0.28268 0.69782 0.0
H389 H 0.12831 0.34031 0.65938 0.0
C390 C 0.24084 0.40206 0.62919 0.0
C391 C 0.73756 0.23936 0.64722 0.0
C392 C 0.75752 0.2228 0.68856 0.0
H393 H 0.68085 0.21967 0.59029 0.0
C394 C 0.73609 0.17141 0.70248 0.0
H395 H 0.75316 0.27889 0.63597 0.0
C396 C 0.69496 0.13741 0.67619 0.0
C397 C 0.67395 0.15428 0.63588 0.0
H398 H 0.75091 0.15767 0.73411 0.0
H399 H 0.67897 0.09817 0.68829 0.0
C400 C 0.696 0.20552 0.62133 0.0
C401 C 0.87369 0.60811 0.63945 0.0
C402 C 0.8895 0.65768 0.65713 0.0
H403 H 0.89116 0.55589 0.60364 0.0
C404 C 0.93589 0.69316 0.65152 0.0
H405 H 0.838 0.58018 0.6431 0.0
C406 C 0.96599 0.67956 0.62909 0.0
C407 C 0.9506 0.63005 0.61159 0.0
H408 H 0.94925 0.73153 0.66523 0.0
H409 H 1.00167 0.70787 0.62608 0.0
C410 C 0.90394 0.59448 0.61648 0.0
C411 C 0.46164 0.39542 0.31079 0.0
C412 C 0.41716 0.35433 0.31129 0.0
H413 H 0.51261 0.45011 0.26769 0.0
C414 C 0.38794 0.33907 0.26725 0.0
H415 H 0.4847 0.40795 0.34432 0.0
C416 C 0.40413 0.36257 0.223 0.0
C417 C 0.44955 0.40232 0.22217 0.0
H418 H 0.35352 0.30726 0.26674 0.0
H419 H 0.38174 0.34843 0.18935 0.0
C420 C 0.47745 0.41959 0.26682 0.0
C421 C 0.46107 0.57686 0.91553 0.0
C422 C 0.47396 0.61241 0.87717 0.0
H423 H 0.48437 0.54146 0.97574 0.0
C424 C 0.52144 0.64607 0.87535 0.0
H425 H 0.42455 0.55047 0.91752 0.0
C426 C 0.55596 0.6406 0.90834 0.0
C427 C 0.5434 0.60157 0.94381 0.0
H428 H 0.53216 0.67353 0.84587 0.0
H429 H 0.59257 0.66458 0.90376 0.0
C430 C 0.49543 0.57174 0.94882 0.0
C431 C 0.46277 0.3967 0.83848 0.0
C432 C 0.45679 0.34602 0.83882 0.0
H433 H 0.49714 0.46958 0.87364 0.0
C434 C 0.47739 0.32869 0.87923 0.0
H435 H 0.4475 0.41122 0.80783 0.0
C436 C 0.50446 0.36168 0.91769 0.0
C437 C 0.5122 0.4129 0.9161 0.0
H438 H 0.47319 0.28979 0.88066 0.0
H439 H 0.52158 0.34792 0.94728 0.0
C440 C 0.49081 0.42998 0.87629 0.0
C441 C 0.78436 0.40781 0.95176 0.0
C442 C 0.76931 0.37271 0.91335 0.0
H443 H 0.77153 0.46209 0.98942 0.0
C444 C 0.72887 0.36657 0.88228 0.0
H445 H 0.81572 0.41395 0.97593 0.0
C446 C 0.70393 0.39462 0.88956 0.0
C447 C 0.71868 0.42929 0.92825 0.0
H448 H 0.71589 0.33936 0.85274 0.0
H449 H 0.67258 0.38837 0.86532 0.0
C450 C 0.7593 0.43579 0.95915 0.0
C451 C 0.80397 0.67345 0.83583 0.0
C452 C 0.79096 0.64421 0.79315 0.0
H453 H 0.79121 0.67814 0.90948 0.0
C454 C 0.75646 0.59379 0.79415 0.0
H455 H 0.83101 0.71221 0.83625 0.0
C456 C 0.73324 0.57416 0.83624 0.0
C457 C 0.74459 0.60447 0.87817 0.0
H458 H 0.74595 0.57044 0.76176 0.0
H459 H 0.70538 0.53586 0.83535 0.0
C460 C 0.78128 0.65377 0.87789 0.0
C461 C 0.72938 0.66392 0.20726 0.0
C462 C 0.74291 0.63791 0.24587 0.0
H463 H 0.68473 0.65757 0.14068 0.0
C464 C 0.72613 0.58492 0.24287 0.0
H465 H 0.74136 0.7047 0.20905 0.0
C466 C 0.69304 0.55803 0.20452 0.0
C467 C 0.67703 0.5837 0.1678 0.0
H468 H 0.73526 0.56382 0.27245 0.0
H469 H 0.67773 0.51685 0.20517 0.0
C470 C 0.69707 0.63703 0.16817 0.0
C471 C 0.43275 0.60776 0.23412 0.0
C472 C 0.42809 0.64419 0.20074 0.0
H473 H 0.45876 0.55072 0.24875 0.0
C474 C 0.44742 0.65031 0.15578 0.0
H475 H 0.41812 0.60109 0.26884 0.0
C476 C 0.46845 0.61972 0.14366 0.0
C477 C 0.47266 0.58351 0.17676 0.0
H478 H 0.4467 0.679 0.12959 0.0
H479 H 0.48249 0.62523 0.1086 0.0
C480 C 0.4555 0.5783 0.2225 0.0
C481 C 0.7052 0.39229 0.12614 0.0
C482 C 0.6925 0.35151 0.1596 0.0
H483 H 0.68548 0.44542 0.08501 0.0
C484 C 0.64801 0.33279 0.17706 0.0
H485 H 0.73945 0.40819 0.11247 0.0
C486 C 0.61702 0.35439 0.16151 0.0
C487 C 0.6298 0.3953 0.12815 0.0
H488 H 0.63692 0.30108 0.20244 0.0
H489 H 0.58305 0.33901 0.17577 0.0
C490 C 0.67428 0.41389 0.1106 0.0
loop_
_geom_bond_atom_site_label_1
_geom_bond_atom_site_label_2
_geom_bond_distance
_geom_bond_site_symmetry_2
_ccdc_geom_bond_type
H0 C1 0.949 . S
C1 H0 0.949 . S
C1 C2 1.395 . S
C1 C3 1.391 . S
C2 C1 1.395 . S
C2 C5 1.390 . S
C3 C1 1.391 . S
C3 C7 1.387 . S
C3 C8 1.491 . S
H4 C5 0.950 . S
C5 C2 1.390 . S
C5 H4 0.950 . S
C5 C6 1.378 . S
C6 C5 1.378 . S
C6 C7 1.409 . S
C7 C3 1.387 . S
C7 C6 1.409 . S
C7 H9 0.951 . S
C8 C3 1.491 . S
C8 C10 1.382 . S
C8 C12 1.404 . S
H9 C7 0.951 . S
C10 C8 1.382 . S
C10 C11 1.390 . S
C10 H15 0.949 . S
C11 C10 1.390 . S
C11 C16 1.399 . S
C12 C8 1.404 . S
C12 H13 0.950 . S
C12 C14 1.375 . S
H13 C12 0.950 . S
C14 C12 1.375 . S
C14 C16 1.382 . S
C14 H18 0.950 . S
H15 C10 0.949 . S
C16 C11 1.399 . S
C16 C14 1.382 . S
C16 H17 0.952 . S
H17 C16 0.952 . S
H18 C14 0.950 . S
H19 C20 0.949 . S
C20 H19 0.949 . S
C20 C21 1.395 . S
C20 C22 1.391 . S
C21 C20 1.395 . S
C21 C24 1.390 . S
C22 C20 1.391 . S
C22 C26 1.387 . S
C22 C27 1.491 . S
H23 C24 0.950 . S
C24 C21 1.390 . S
C24 H23 0.950 . S
C24 C25 1.378 . S
C25 C24 1.378 . S
C25 C26 1.409 . S
C26 C22 1.387 . S
C26 C25 1.409 . S
C26 H28 0.951 . S
C27 C22 1.491 . S
C27 C29 1.382 . S
C27 C31 1.404 . S
H28 C26 0.951 . S
C29 C27 1.382 . S
C29 C30 1.390 . S
C29 H34 0.949 . S
C30 C29 1.390 . S
C30 C35 1.399 . S
C31 C27 1.404 . S
C31 H32 0.950 . S
C31 C33 1.375 . S
H32 C31 0.950 . S
C33 C31 1.375 . S
C33 C35 1.382 . S
C33 H37 0.950 . S
H34 C29 0.949 . S
C35 C30 1.399 . S
C35 C33 1.382 . S
C35 H36 0.952 . S
H36 C35 0.952 . S
H37 C33 0.950 . S
H38 C39 0.949 . S
C39 H38 0.949 . S
C39 C40 1.395 . S
C39 C41 1.391 . S
C40 C39 1.395 . S
C40 C43 1.390 . S
C41 C39 1.391 . S
C41 C45 1.387 . S
C41 C46 1.491 . S
H42 C43 0.950 . S
C43 C40 1.390 . S
C43 H42 0.950 . S
C43 C44 1.378 . S
C44 C43 1.378 . S
C44 C45 1.409 . S
C45 C41 1.387 . S
C45 C44 1.409 . S
C45 H47 0.951 . S
C46 C41 1.491 . S
C46 C48 1.382 . S
C46 C50 1.404 . S
H47 C45 0.951 . S
C48 C46 1.382 . S
C48 C49 1.390 . S
C48 H53 0.949 . S
C49 C48 1.390 . S
C49 C54 1.399 . S
C50 C46 1.404 . S
C50 H51 0.950 . S
C50 C52 1.375 . S
H51 C50 0.950 . S
C52 C50 1.375 . S
C52 C54 1.382 . S
C52 H56 0.950 . S
H53 C48 0.949 . S
C54 C49 1.399 . S
C54 C52 1.382 . S
C54 H55 0.952 . S
H55 C54 0.952 . S
H56 C52 0.950 . S
H57 C58 0.949 . S
C58 H57 0.949 . S
C58 C59 1.395 . S
C58 C60 1.391 . S
C59 C58 1.395 . S
C59 C62 1.390 . S
C60 C58 1.391 . S
C60 C64 1.387 . S
C60 C65 1.491 . S
H61 C62 0.950 . S
C62 C59 1.390 . S
C62 H61 0.950 . S
C62 C63 1.378 . S
C63 C62 1.378 . S
C63 C64 1.409 . S
C64 C60 1.387 . S
C64 C63 1.409 . S
C64 H66 0.951 . S
C65 C60 1.491 . S
C65 C67 1.382 . S
C65 C69 1.404 . S
H66 C64 0.951 . S
C67 C65 1.382 . S
C67 C68 1.390 . S
C67 H72 0.949 . S
C68 C67 1.390 . S
C68 C73 1.399 . S
C69 C65 1.404 . S
C69 H70 0.950 . S
C69 C71 1.375 . S
H70 C69 0.950 . S
C71 C69 1.375 . S
C71 C73 1.382 . S
C71 H75 0.950 . S
H72 C67 0.949 . S
C73 C68 1.399 . S
C73 C71 1.382 . S
C73 H74 0.952 . S
H74 C73 0.952 . S
H75 C71 0.950 . S
H76 C77 0.949 . S
C77 H76 0.949 . S
C77 C78 1.395 . S
C77 C79 1.391 . S
C78 C77 1.395 . S
C78 C81 1.390 . S
C79 C77 1.391 . S
C79 C83 1.387 . S
C79 C84 1.491 . S
H80 C81 0.950 . S
C81 C78 1.390 . S
C81 H80 0.950 . S
C81 C82 1.378 . S
C82 C81 1.378 . S
C82 C83 1.409 . S
C83 C79 1.387 . S
C83 C82 1.409 . S
C83 H85 0.951 . S
C84 C79 1.491 . S
C84 C86 1.382 . S
C84 C88 1.404 . S
H85 C83 0.951 . S
C86 C84 1.382 . S
C86 C87 1.390 . S
C86 H91 0.949 . S
C87 C86 1.390 . S
C87 C92 1.399 . S
C88 C84 1.404 . S
C88 H89 0.950 . S
C88 C90 1.375 . S
H89 C88 0.950 . S
C90 C88 1.375 . S
C90 C92 1.382 . S
C90 H94 0.950 . S
H91 C86 0.949 . S
C92 C87 1.399 . S
C92 C90 1.382 . S
C92 H93 0.952 . S
H93 C92 0.952 . S
H94 C90 0.950 . S
H95 C96 0.949 . S
C96 H95 0.949 . S
C96 C97 1.395 . S
C96 C98 1.391 . S
C97 C96 1.395 . S
C97 C100 1.390 . S
C98 C96 1.391 . S
C98 C102 1.387 . S
C98 C103 1.491 . S
H99 C100 0.950 . S
C100 C97 1.390 . S
C100 H99 0.950 . S
C100 C101 1.378 . S
C101 C100 1.378 . S
C101 C102 1.409 . S
C102 C98 1.387 . S
C102 C101 1.409 . S
C102 H104 0.951 . S
C103 C98 1.491 . S
C103 C105 1.382 . S
C103 C107 1.404 . S
H104 C102 0.951 . S
C105 C103 1.382 . S
C105 C106 1.390 . S
C105 H110 0.949 . S
C106 C105 1.390 . S
C106 C111 1.399 . S
C107 C103 1.404 . S
C107 H108 0.950 . S
C107 C109 1.375 . S
H108 C107 0.950 . S
C109 C107 1.375 . S
C109 C111 1.382 . S
C109 H113 0.950 . S
H110 C105 0.949 . S
C111 C106 1.399 . S
C111 C109 1.382 . S
C111 H112 0.952 . S
H112 C111 0.952 . S
H113 C109 0.950 . S
H114 C115 0.949 . S
C115 H114 0.949 . S
C115 C116 1.395 . S
C115 C117 1.391 . S
C116 C115 1.395 . S
C116 C119 1.390 . S
C117 C115 1.391 . S
C117 C121 1.387 . S
C117 C122 1.491 . S
H118 C119 0.950 . S
C119 C116 1.390 . S
C119 H118 0.950 . S
C119 C120 1.378 . S
C120 C119 1.378 . S
C120 C121 1.409 . S
C121 C117 1.387 . S
C121 C120 1.409 . S
C121 H123 0.951 . S
C122 C117 1.491 . S
C122 C124 1.382 . S
C122 C126 1.404 . S
H123 C121 0.951 . S
C124 C122 1.382 . S
C124 C125 1.390 . S
C124 H129 0.949 . S
C125 C124 1.390 . S
C125 C130 1.399 . S
C126 C122 1.404 . S
C126 H127 0.950 . S
C126 C128 1.375 . S
H127 C126 0.950 . S
C128 C126 1.375 . S
C128 C130 1.382 . S
C128 H132 0.950 . S
H129 C124 0.949 . S
C130 C125 1.399 . S
C130 C128 1.382 . S
C130 H131 0.952 . S
H131 C130 0.952 . S
H132 C128 0.950 . S
H133 C134 0.949 . S
C134 H133 0.949 . S
C134 C135 1.395 . S
C134 C136 1.391 . S
C135 C134 1.395 . S
C135 C138 1.390 . S
C136 C134 1.391 . S
C136 C140 1.387 . S
C136 C141 1.491 . S
H137 C138 0.950 . S
C138 C135 1.390 . S
C138 H137 0.950 . S
C138 C139 1.378 . S
C139 C138 1.378 . S
C139 C140 1.409 . S
C140 C136 1.387 . S
C140 C139 1.409 . S
C140 H142 0.951 . S
C141 C136 1.491 . S
C141 C143 1.382 . S
C141 C145 1.404 . S
H142 C140 0.951 . S
C143 C141 1.382 . S
C143 C144 1.390 . S
C143 H148 0.949 . S
C144 C143 1.390 . S
C144 C149 1.399 . S
C145 C141 1.404 . S
C145 H146 0.950 . S
C145 C147 1.375 . S
H146 C145 0.950 . S
C147 C145 1.375 . S
C147 C149 1.382 . S
C147 H151 0.950 . S
H148 C143 0.949 . S
C149 C144 1.399 . S
C149 C147 1.382 . S
C149 H150 0.952 . S
H150 C149 0.952 . S
H151 C147 0.950 . S
Co152 O155 2.042 . S
Co152 O162 2.264 . S
Co152 O181 2.286 . S
Co152 O182 2.069 . S
Co152 O184 2.015 . S
Co153 O155 2.122 . S
Co153 O161 2.073 . S
Co153 O162 2.327 . S
Co153 O163 1.976 . S
Co154 O155 2.087 . S
Co154 O157 2.087 . S
Co154 O164 2.111 . S
Co154 O165 2.143 1_455 S
Co154 O169 2.111 1_455 S
Co154 O183 2.143 . S
O155 Co152 2.042 . S
O155 Co153 2.122 . S
O155 Co154 2.087 . S
O155 H156 0.980 . S
H156 O155 0.980 . S
O157 Co154 2.087 . S
O157 Co158 2.042 1_455 S
O157 Co159 2.122 1_455 S
O157 H160 0.980 . S
Co158 O157 2.042 1_655 S
Co158 O166 2.286 . S
Co158 O167 2.069 . S
Co158 O168 2.015 . S
Co158 O171 2.264 . S
Co159 O157 2.122 1_655 S
Co159 O170 1.976 . S
Co159 O171 2.327 . S
Co159 O172 2.073 . S
H160 O157 0.980 . S
O161 Co153 2.073 . S
O161 C176 1.245 . S
O162 Co152 2.264 . S
O162 Co153 2.327 . S
O162 C176 1.257 . S
O163 Co153 1.976 . S
O163 C175 1.251 . S
O164 Co154 2.111 . S
O164 C175 1.274 . S
O165 Co154 2.143 1_655 S
O165 C178 1.246 . S
O166 Co158 2.286 . S
O166 C177 1.259 . S
O167 Co158 2.069 . S
O167 C177 1.289 . S
O168 Co158 2.015 . S
O168 C178 1.257 . S
O169 Co154 2.111 1_655 S
O169 C179 1.274 . S
O170 Co159 1.976 . S
O170 C179 1.251 . S
O171 Co158 2.264 . S
O171 Co159 2.327 . S
O171 C180 1.257 . S
O172 Co159 2.073 . S
O172 C180 1.245 . S
C173 O181 1.259 . S
C173 O182 1.289 . S
C174 O183 1.246 . S
C174 O184 1.257 . S
C175 O163 1.251 . S
C175 O164 1.274 . S
C176 O161 1.245 . S
C176 O162 1.257 . S
C177 O166 1.259 . S
C177 O167 1.289 . S
C178 O165 1.246 . S
C178 O168 1.257 . S
C179 O169 1.274 . S
C179 O170 1.251 . S
C180 O171 1.257 . S
C180 O172 1.245 . S
O181 Co152 2.286 . S
O181 C173 1.259 . S
O182 Co152 2.069 . S
O182 C173 1.289 . S
O183 Co154 2.143 . S
O183 C174 1.246 . S
O184 Co152 2.015 . S
O184 C174 1.257 . S
Co185 O188 2.042 . S
Co185 O195 2.264 . S
Co185 O214 2.286 . S
Co185 O215 2.069 . S
Co185 O217 2.015 . S
Co186 O188 2.122 . S
Co186 O194 2.073 . S
Co186 O195 2.327 . S
Co186 O196 1.976 . S
Co187 O188 2.087 1_545 S
Co187 O190 2.087 . S
Co187 O197 2.111 1_545 S
Co187 O198 2.143 . S
Co187 O202 2.111 . S
Co187 O216 2.143 1_545 S
O188 Co185 2.042 . S
O188 Co186 2.122 . S
O188 Co187 2.087 1_565 S
O188 H189 0.980 1_565 S
H189 O188 0.980 1_545 S
O190 Co187 2.087 . S
O190 Co191 2.042 . S
O190 Co192 2.122 . S
O190 H193 0.980 . S
Co191 O190 2.042 . S
Co191 O199 2.286 . S
Co191 O200 2.069 . S
Co191 O201 2.015 . S
Co191 O204 2.264 . S
Co192 O190 2.122 . S
Co192 O203 1.976 . S
Co192 O204 2.327 . S
Co192 O205 2.073 . S
H193 O190 0.980 . S
O194 Co186 2.073 . S
O194 C209 1.245 . S
O195 Co185 2.264 . S
O195 Co186 2.327 . S
O195 C209 1.257 . S
O196 Co186 1.976 . S
O196 C208 1.251 . S
O197 Co187 2.111 1_565 S
O197 C208 1.274 . S
O198 Co187 2.143 . S
O198 C211 1.246 . S
O199 Co191 2.286 . S
O199 C210 1.259 . S
O200 Co191 2.069 . S
O200 C210 1.289 . S
O201 Co191 2.015 . S
O201 C211 1.257 . S
O202 Co187 2.111 . S
O202 C212 1.274 . S
O203 Co192 1.976 . S
O203 C212 1.251 . S
O204 Co191 2.264 . S
O204 Co192 2.327 . S
O204 C213 1.257 . S
O205 Co192 2.073 . S
O205 C213 1.245 . S
C206 O214 1.259 . S
C206 O215 1.289 . S
C207 O216 1.246 . S
C207 O217 1.257 . S
C208 O196 1.251 . S
C208 O197 1.274 . S
C209 O194 1.245 . S
C209 O195 1.257 . S
C210 O199 1.259 . S
C210 O200 1.289 . S
C211 O198 1.246 . S
C211 O201 1.257 . S
C212 O202 1.274 . S
C212 O203 1.251 . S
C213 O204 1.257 . S
C213 O205 1.245 . S
O214 Co185 2.286 . S
O214 C206 1.259 . S
O215 Co185 2.069 . S
O215 C206 1.289 . S
O216 Co187 2.143 1_565 S
O216 C207 1.246 . S
O217 Co185 2.015 . S
O217 C207 1.257 . S
Co218 O221 2.042 . S
Co218 O228 2.264 . S
Co218 O247 2.286 . S
Co218 O248 2.069 . S
Co218 O250 2.015 . S
Co219 O221 2.122 . S
Co219 O227 2.073 . S
Co219 O228 2.327 . S
Co219 O229 1.976 . S
Co220 O221 2.087 . S
Co220 O223 2.087 1_554 S
Co220 O230 2.111 . S
Co220 O231 2.143 1_554 S
Co220 O235 2.111 1_554 S
Co220 O249 2.143 . S
O221 Co218 2.042 . S
O221 Co219 2.122 . S
O221 Co220 2.087 . S
O221 H222 0.980 . S
H222 O221 0.980 . S
O223 Co220 2.087 1_556 S
O223 Co224 2.042 . S
O223 Co225 2.122 . S
O223 H226 0.980 . S
Co224 O223 2.042 . S
Co224 O232 2.286 . S
Co224 O233 2.069 . S
Co224 O234 2.015 . S
Co224 O237 2.264 . S
Co225 O223 2.122 . S
Co225 O236 1.976 . S
Co225 O237 2.327 . S
Co225 O238 2.073 . S
H226 O223 0.980 . S
O227 Co219 2.073 . S
O227 C242 1.245 . S
O228 Co218 2.264 . S
O228 Co219 2.327 . S
O228 C242 1.257 . S
O229 Co219 1.976 . S
O229 C241 1.251 . S
O230 Co220 2.111 . S
O230 C241 1.274 . S
O231 Co220 2.143 1_556 S
O231 C244 1.246 . S
O232 Co224 2.286 . S
O232 C243 1.259 . S
O233 Co224 2.069 . S
O233 C243 1.289 . S
O234 Co224 2.015 . S
O234 C244 1.257 . S
O235 Co220 2.111 1_556 S
O235 C245 1.274 . S
O236 Co225 1.976 . S
O236 C245 1.251 . S
O237 Co224 2.264 . S
O237 Co225 2.327 . S
O237 C246 1.257 . S
O238 Co225 2.073 . S
O238 C246 1.245 . S
C239 O247 1.259 . S
C239 O248 1.289 . S
C240 O249 1.246 . S
C240 O250 1.257 . S
C241 O229 1.251 . S
C241 O230 1.274 . S
C242 O227 1.245 . S
C242 O228 1.257 . S
C243 O232 1.259 . S
C243 O233 1.289 . S
C244 O231 1.246 . S
C244 O234 1.257 . S
C245 O235 1.274 . S
C245 O236 1.251 . S
C246 O237 1.257 . S
C246 O238 1.245 . S
O247 Co218 2.286 . S
O247 C239 1.259 . S
O248 Co218 2.069 . S
O248 C239 1.289 . S
O249 Co220 2.143 . S
O249 C240 1.246 . S
O250 Co218 2.015 . S
O250 C240 1.257 . S
C251 C252 1.387 . S
C251 H255 0.950 . S
C251 C260 1.390 . S
C252 C251 1.387 . S
C252 C254 1.387 . S
H253 C260 0.950 . S
C254 C252 1.387 . S
C254 C256 1.390 . S
C254 H258 0.950 . S
H255 C251 0.950 . S
C256 C254 1.390 . S
C256 C257 1.387 . S
C256 H259 0.950 . S
C257 C256 1.387 . S
C257 C260 1.387 . S
H258 C254 0.950 . S
H259 C256 0.950 . S
C260 C251 1.390 . S
C260 H253 0.950 . S
C260 C257 1.387 . S
C261 C262 1.387 . S
C261 H265 0.950 . S
C261 C270 1.390 . S
C262 C261 1.387 . S
C262 C264 1.387 . S
H263 C270 0.950 . S
C264 C262 1.387 . S
C264 C266 1.390 . S
C264 H268 0.950 . S
H265 C261 0.950 . S
C266 C264 1.390 . S
C266 C267 1.387 . S
C266 H269 0.950 . S
C267 C266 1.387 . S
C267 C270 1.387 . S
H268 C264 0.950 . S
H269 C266 0.950 . S
C270 C261 1.390 . S
C270 H263 0.950 . S
C270 C267 1.387 . S
C271 C272 1.387 . S
C271 H275 0.950 . S
C271 C280 1.390 . S
C272 C271 1.387 . S
C272 C274 1.387 . S
H273 C280 0.950 . S
C274 C272 1.387 . S
C274 C276 1.390 . S
C274 H278 0.950 . S
H275 C271 0.950 . S
C276 C274 1.390 . S
C276 C277 1.387 . S
C276 H279 0.950 . S
C277 C276 1.387 . S
C277 C280 1.387 . S
H278 C274 0.950 . S
H279 C276 0.950 . S
C280 C271 1.390 . S
C280 H273 0.950 . S
C280 C277 1.387 . S
C281 C282 1.387 . S
C281 H285 0.950 . S
C281 C290 1.390 . S
C282 C281 1.387 . S
C282 C284 1.387 . S
H283 C290 0.950 . S
C284 C282 1.387 . S
C284 C286 1.390 . S
C284 H288 0.950 . S
H285 C281 0.950 . S
C286 C284 1.390 . S
C286 C287 1.387 . S
C286 H289 0.950 . S
C287 C286 1.387 . S
C287 C290 1.387 . S
H288 C284 0.950 . S
H289 C286 0.950 . S
C290 C281 1.390 . S
C290 H283 0.950 . S
C290 C287 1.387 . S
C291 C292 1.387 . S
C291 H295 0.950 . S
C291 C300 1.390 . S
C292 C291 1.387 . S
C292 C294 1.387 . S
H293 C300 0.950 . S
C294 C292 1.387 . S
C294 C296 1.390 . S
C294 H298 0.950 . S
H295 C291 0.950 . S
C296 C294 1.390 . S
C296 C297 1.387 . S
C296 H299 0.950 . S
C297 C296 1.387 . S
C297 C300 1.387 . S
H298 C294 0.950 . S
H299 C296 0.950 . S
C300 C291 1.390 . S
C300 H293 0.950 . S
C300 C297 1.387 . S
C301 C302 1.387 . S
C301 H305 0.950 . S
C301 C310 1.390 . S
C302 C301 1.387 . S
C302 C304 1.387 . S
H303 C310 0.950 . S
C304 C302 1.387 . S
C304 C306 1.390 . S
C304 H308 0.950 . S
H305 C301 0.950 . S
C306 C304 1.390 . S
C306 C307 1.387 . S
C306 H309 0.950 . S
C307 C306 1.387 . S
C307 C310 1.387 . S
H308 C304 0.950 . S
H309 C306 0.950 . S
C310 C301 1.390 . S
C310 H303 0.950 . S
C310 C307 1.387 . S
C311 C312 1.387 . S
C311 H315 0.950 . S
C311 C320 1.390 . S
C312 C311 1.387 . S
C312 C314 1.387 . S
H313 C320 0.950 . S
C314 C312 1.387 . S
C314 C316 1.390 . S
C314 H318 0.950 . S
H315 C311 0.950 . S
C316 C314 1.390 . S
C316 C317 1.387 . S
C316 H319 0.950 . S
C317 C316 1.387 . S
C317 C320 1.387 . S
H318 C314 0.950 . S
H319 C316 0.950 . S
C320 C311 1.390 . S
C320 H313 0.950 . S
C320 C317 1.387 . S
C321 C322 1.387 . S
C321 H325 0.950 . S
C321 C330 1.390 . S
C322 C321 1.387 . S
C322 C324 1.387 . S
H323 C330 0.950 . S
C324 C322 1.387 . S
C324 C326 1.390 . S
C324 H328 0.950 . S
H325 C321 0.950 . S
C326 C324 1.390 . S
C326 C327 1.387 . S
C326 H329 0.950 . S
C327 C326 1.387 . S
C327 C330 1.387 . S
H328 C324 0.950 . S
H329 C326 0.950 . S
C330 C321 1.390 . S
C330 H323 0.950 . S
C330 C327 1.387 . S
C331 C332 1.387 . S
C331 H335 0.950 . S
C331 C340 1.390 . S
C332 C331 1.387 . S
C332 C334 1.387 . S
H333 C340 0.950 . S
C334 C332 1.387 . S
C334 C336 1.390 . S
C334 H338 0.950 . S
H335 C331 0.950 . S
C336 C334 1.390 . S
C336 C337 1.387 . S
C336 H339 0.950 . S
C337 C336 1.387 . S
C337 C340 1.387 . S
H338 C334 0.950 . S
H339 C336 0.950 . S
C340 C331 1.390 . S
C340 H333 0.950 . S
C340 C337 1.387 . S
C341 C342 1.387 . S
C341 H345 0.950 . S
C341 C350 1.390 . S
C342 C341 1.387 . S
C342 C344 1.387 . S
H343 C350 0.950 . S
C344 C342 1.387 . S
C344 C346 1.390 . S
C344 H348 0.950 . S
H345 C341 0.950 . S
C346 C344 1.390 . S
C346 C347 1.387 . S
C346 H349 0.950 . S
C347 C346 1.387 . S
C347 C350 1.387 . S
H348 C344 0.950 . S
H349 C346 0.950 . S
C350 C341 1.390 . S
C350 H343 0.950 . S
C350 C347 1.387 . S
C351 C352 1.387 . S
C351 H355 0.950 . S
C351 C360 1.390 . S
C352 C351 1.387 . S
C352 C354 1.387 . S
H353 C360 0.950 . S
C354 C352 1.387 . S
C354 C356 1.390 . S
C354 H358 0.950 . S
H355 C351 0.950 . S
C356 C354 1.390 . S
C356 C357 1.387 . S
C356 H359 0.950 . S
C357 C356 1.387 . S
C357 C360 1.387 . S
H358 C354 0.950 . S
H359 C356 0.950 . S
C360 C351 1.390 . S
C360 H353 0.950 . S
C360 C357 1.387 . S
C361 C362 1.387 . S
C361 H365 0.950 . S
C361 C370 1.390 . S
C362 C361 1.387 . S
C362 C364 1.387 . S
H363 C370 0.950 . S
C364 C362 1.387 . S
C364 C366 1.390 . S
C364 H368 0.950 . S
H365 C361 0.950 . S
C366 C364 1.390 . S
C366 C367 1.387 . S
C366 H369 0.950 . S
C367 C366 1.387 . S
C367 C370 1.387 . S
H368 C364 0.950 . S
H369 C366 0.950 . S
C370 C361 1.390 . S
C370 H363 0.950 . S
C370 C367 1.387 . S
C371 C372 1.387 . S
C371 H375 0.950 . S
C371 C380 1.390 . S
C372 C371 1.387 . S
C372 C374 1.387 . S
H373 C380 0.950 . S
C374 C372 1.387 . S
C374 C376 1.390 . S
C374 H378 0.950 . S
H375 C371 0.950 . S
C376 C374 1.390 . S
C376 C377 1.387 . S
C376 H379 0.950 . S
C377 C376 1.387 . S
C377 C380 1.387 . S
H378 C374 0.950 . S
H379 C376 0.950 . S
C380 C371 1.390 . S
C380 H373 0.950 . S
C380 C377 1.387 . S
C381 C382 1.387 . S
C381 H385 0.950 . S
C381 C390 1.390 . S
C382 C381 1.387 . S
C382 C384 1.387 . S
H383 C390 0.950 . S
C384 C382 1.387 . S
C384 C386 1.390 . S
C384 H388 0.950 . S
H385 C381 0.950 . S
C386 C384 1.390 . S
C386 C387 1.387 . S
C386 H389 0.950 . S
C387 C386 1.387 . S
C387 C390 1.387 . S
H388 C384 0.950 . S
H389 C386 0.950 . S
C390 C381 1.390 . S
C390 H383 0.950 . S
C390 C387 1.387 . S
C391 C392 1.387 . S
C391 H395 0.950 . S
C391 C400 1.390 . S
C392 C391 1.387 . S
C392 C394 1.387 . S
H393 C400 0.950 . S
C394 C392 1.387 . S
C394 C396 1.390 . S
C394 H398 0.950 . S
H395 C391 0.950 . S
C396 C394 1.390 . S
C396 C397 1.387 . S
C396 H399 0.950 . S
C397 C396 1.387 . S
C397 C400 1.387 . S
H398 C394 0.950 . S
H399 C396 0.950 . S
C400 C391 1.390 . S
C400 H393 0.950 . S
C400 C397 1.387 . S
C401 C402 1.387 . S
C401 H405 0.950 . S
C401 C410 1.390 . S
C402 C401 1.387 . S
C402 C404 1.387 . S
H403 C410 0.950 . S
C404 C402 1.387 . S
C404 C406 1.390 . S
C404 H408 0.950 . S
H405 C401 0.950 . S
C406 C404 1.390 . S
C406 C407 1.387 . S
C406 H409 0.950 . S
C407 C406 1.387 . S
C407 C410 1.387 . S
H408 C404 0.950 . S
H409 C406 0.950 . S
C410 C401 1.390 . S
C410 H403 0.950 . S
C410 C407 1.387 . S
C411 C412 1.387 . S
C411 H415 0.950 . S
C411 C420 1.390 . S
C412 C411 1.387 . S
C412 C414 1.387 . S
H413 C420 0.950 . S
C414 C412 1.387 . S
C414 C416 1.390 . S
C414 H418 0.950 . S
H415 C411 0.950 . S
C416 C414 1.390 . S
C416 C417 1.387 . S
C416 H419 0.950 . S
C417 C416 1.387 . S
C417 C420 1.387 . S
H418 C414 0.950 . S
H419 C416 0.950 . S
C420 C411 1.390 . S
C420 H413 0.950 . S
C420 C417 1.387 . S
C421 C422 1.387 . S
C421 H425 0.950 . S
C421 C430 1.390 . S
C422 C421 1.387 . S
C422 C424 1.387 . S
H423 C430 0.950 . S
C424 C422 1.387 . S
C424 C426 1.390 . S
C424 H428 0.950 . S
H425 C421 0.950 . S
C426 C424 1.390 . S
C426 C427 1.387 . S
C426 H429 0.950 . S
C427 C426 1.387 . S
C427 C430 1.387 . S
H428 C424 0.950 . S
H429 C426 0.950 . S
C430 C421 1.390 . S
C430 H423 0.950 . S
C430 C427 1.387 . S
C431 C432 1.387 . S
C431 H435 0.950 . S
C431 C440 1.390 . S
C432 C431 1.387 . S
C432 C434 1.387 . S
H433 C440 0.950 . S
C434 C432 1.387 . S
C434 C436 1.390 . S
C434 H438 0.950 . S
H435 C431 0.950 . S
C436 C434 1.390 . S
C436 C437 1.387 . S
C436 H439 0.950 . S
C437 C436 1.387 . S
C437 C440 1.387 . S
H438 C434 0.950 . S
H439 C436 0.950 . S
C440 C431 1.390 . S
C440 H433 0.950 . S
C440 C437 1.387 . S
C441 C442 1.387 . S
C441 H445 0.950 . S
C441 C450 1.390 . S
C442 C441 1.387 . S
C442 C444 1.387 . S
H443 C450 0.950 . S
C444 C442 1.387 . S
C444 C446 1.390 . S
C444 H448 0.950 . S
H445 C441 0.950 . S
C446 C444 1.390 . S
C446 C447 1.387 . S
C446 H449 0.950 . S
C447 C446 1.387 . S
C447 C450 1.387 . S
H448 C444 0.950 . S
H449 C446 0.950 . S
C450 C441 1.390 . S
C450 H443 0.950 . S
C450 C447 1.387 . S
C451 C452 1.387 . S
C451 H455 0.950 . S
C451 C460 1.390 . S
C452 C451 1.387 . S
C452 C454 1.387 . S
H453 C460 0.950 . S
C454 C452 1.387 . S
C454 C456 1.390 . S
C454 H458 0.950 . S
H455 C451 0.950 . S
C456 C454 1.390 . S
C456 C457 1.387 . S
C456 H459 0.950 . S
C457 C456 1.387 . S
C457 C460 1.387 . S
H458 C454 0.950 . S
H459 C456 0.950 . S
C460 C451 1.390 . S
C460 H453 0.950 . S
C460 C457 1.387 . S
C461 C462 1.387 . S
C461 H465 0.950 . S
C461 C470 1.390 . S
C462 C461 1.387 . S
C462 C464 1.387 . S
H463 C470 0.950 . S
C464 C462 1.387 . S
C464 C466 1.390 . S
C464 H468 0.950 . S
H465 C461 0.950 . S
C466 C464 1.390 . S
C466 C467 1.387 . S
C466 H469 0.950 . S
C467 C466 1.387 . S
C467 C470 1.387 . S
H468 C464 0.950 . S
H469 C466 0.950 . S
C470 C461 1.390 . S
C470 H463 0.950 . S
C470 C467 1.387 . S
C471 C472 1.387 . S
C471 H475 0.950 . S
C471 C480 1.390 . S
C472 C471 1.387 . S
C472 C474 1.387 . S
H473 C480 0.950 . S
C474 C472 1.387 . S
C474 C476 1.390 . S
C474 H478 0.950 . S
H475 C471 0.950 . S
C476 C474 1.390 . S
C476 C477 1.387 . S
C476 H479 0.950 . S
C477 C476 1.387 . S
C477 C480 1.387 . S
H478 C474 0.950 . S
H479 C476 0.950 . S
C480 C471 1.390 . S
C480 H473 0.950 . S
C480 C477 1.387 . S
C481 C482 1.387 . S
C481 H485 0.950 . S
C481 C490 1.390 . S
C482 C481 1.387 . S
C482 C484 1.387 . S
H483 C490 0.950 . S
C484 C482 1.387 . S
C484 C486 1.390 . S
C484 H488 0.950 . S
H485 C481 0.950 . S
C486 C484 1.390 . S
C486 C487 1.387 . S
C486 H489 0.950 . S
C487 C486 1.387 . S
C487 C490 1.387 . S
H488 C484 0.950 . S
H489 C486 0.950 . S
C490 C481 1.390 . S
C490 H483 0.950 . S
C490 C487 1.387 . S
C257 C176 1.517 . S
C252 C11 1.462 . S
C267 C212 1.350 . S
C262 C25 1.395 . S
C277 C177 1.753 . S
C272 C40 1.767 . S
C287 C207 1.616 . S
C282 C59 1.669 . S
C297 C174 1.460 . S
C292 C82 1.516 . S
C302 C101 2.006 . S
C307 C210 2.011 . S
C312 C116 0.663 . S
C317 C179 0.699 . S
C327 C209 1.596 . S
C322 C144 1.387 . S
C337 C213 1.877 . S
C332 C2 1.916 . S
C347 C178 1.126 . S
C342 C21 1.138 . S
C357 C206 1.653 . S
C352 C49 1.354 . S
C367 C175 1.247 . S
C362 C63 1.397 . S
C377 C208 1.811 . S
C372 C78 1.932 . S
C382 C106 1.314 . S
C387 C173 1.347 . S
C392 C120 1.195 . S
C397 C211 1.218 . S
C407 C180 1.657 . S
C402 C135 1.760 . S
C417 C242 1.854 . S
C412 C6 1.969 . S
C422 C87 1.709 . S
C427 C245 1.780 . S
C437 C244 2.099 . S
C432 C97 2.148 . S
C442 C125 1.032 . S
C447 C243 1.101 . S
C457 C246 1.933 . S
C452 C139 2.052 . S
C462 C44 1.941 . S
C467 C240 1.916 . S
C477 C239 1.922 . S
C472 C68 1.866 . S
C482 C30 0.906 . S
C487 C241 0.977 . S
