# Generated by pormake.
# Topology tsx, (6,3)-cn, num edge types: 1
# Building blocks:
#     Node 0, Type 0, BuildingBlock: VOLQOD_clean_sbu_1, # of connection points: 6
#     Node 1, Type 0, BuildingBlock: VOLQOD_clean_sbu_1, # of connection points: 6
#     Node 2, Type 1, BuildingBlock: KAKCAD_clean_linker_0, # of connection points: 3
#     Node 3, Type 1, BuildingBlock: KAKCAD_clean_linker_0, # of connection points: 3
#     Node 4, Type 1, BuildingBlock: KAKCAD_clean_linker_0, # of connection points: 3
#     Node 5, Type 1, BuildingBlock: KAKCAD_clean_linker_0, # of connection points: 3
#     Edge 6, Type (0, 1), BuildingBlock: MIFKUJ_clean_linker_0, # of connection points: 2
#     Edge 7, Type (0, 1), BuildingBlock: MIFKUJ_clean_linker_0, # of connection points: 2
#     Edge 8, Type (0, 1), BuildingBlock: MIFKUJ_clean_linker_0, # of connection points: 2
#     Edge 9, Type (0, 1), BuildingBlock: MIFKUJ_clean_linker_0, # of connection points: 2
#     Edge 10, Type (0, 1), BuildingBlock: MIFKUJ_clean_linker_0, # of connection points: 2
#     Edge 11, Type (0, 1), BuildingBlock: MIFKUJ_clean_linker_0, # of connection points: 2
#     Edge 12, Type (0, 1), BuildingBlock: MIFKUJ_clean_linker_0, # of connection points: 2
#     Edge 13, Type (0, 1), BuildingBlock: MIFKUJ_clean_linker_0, # of connection points: 2
#     Edge 14, Type (0, 1), BuildingBlock: MIFKUJ_clean_linker_0, # of connection points: 2
#     Edge 15, Type (0, 1), BuildingBlock: MIFKUJ_clean_linker_0, # of connection points: 2
#     Edge 16, Type (0, 1), BuildingBlock: MIFKUJ_clean_linker_0, # of connection points: 2
#     Edge 17, Type (0, 1), BuildingBlock: MIFKUJ_clean_linker_0, # of connection points: 2
# Relax obj value: 0.075
# Max RMSD: 0.108
# Mean RMSD: 0.083
data_MOF--net-tsx--node1-VOLQOD_clean_sbu_1--node2-KAKCAD_clean_linker_0--edge1-MIFKUJ_clean_linker_0
_symmetry_space_group_name_H-M    P1
_symmetry_Int_Tables_number       1
_symmetry_cell_setting            triclinic
loop_
_symmetry_equiv_pos_as_xyz
'x, y, z'
_cell_length_a     30.892081
_cell_length_b     31.994121
_cell_length_c     61.144447
_cell_angle_alpha  90.606771
_cell_angle_beta   89.916147
_cell_angle_gamma 90.091773
loop_
_atom_site_label
_atom_site_type_symbol
_atom_site_fract_x
_atom_site_fract_y
_atom_site_fract_z
_atom_type_partial_charge
O0 O 0.04116 0.99487 0.06164 0.0
Zn1 Zn 0.05815 0.99292 0.02989 0.0
O2 O 0.00816 0.00265 0.01104 0.0
Zn3 Zn -0.0004 0.95365 0.99222 0.0
Zn4 Zn 0.95672 0.01197 0.02912 0.0
Zn5 Zn 0.01813 0.0519 0.99298 0.0
O6 O 0.00221 0.96888 0.96043 0.0
O7 O 0.0176 0.03673 0.96091 0.0
O8 O 0.0861 0.93714 0.02383 0.0
O9 O 0.04581 0.91081 0.99703 0.0
O10 O 0.94244 0.9259 0.99833 0.0
O11 O 0.91263 0.96667 0.02382 0.0
O12 O 0.9279 0.06647 0.0222 0.0
O13 O 0.10324 0.03733 0.02533 0.0
O14 O 0.971 0.09449 0.99727 0.0
O15 O 0.07516 0.07927 0.00036 0.0
C16 C 0.00609 0.00368 0.07162 0.0
C17 C 0.01019 0.0028 0.95048 0.0
C18 C 0.91132 0.93472 0.01125 0.0
C19 C 0.07764 0.90808 0.01011 0.0
C20 C 0.93724 0.096 0.00922 0.0
C21 C 0.10563 0.06961 0.01338 0.0
O22 O 0.97153 0.01197 0.0612 0.0
O23 O 0.53346 0.50997 0.55985 0.0
Zn24 Zn 0.54986 0.50632 0.528 0.0
O25 O 0.49906 0.51132 0.50925 0.0
Zn26 Zn 0.49315 0.46116 0.49095 0.0
Zn27 Zn 0.44725 0.5176 0.52737 0.0
Zn28 Zn 0.50608 0.56019 0.49065 0.0
O29 O 0.4958 0.47506 0.45892 0.0
O30 O 0.51034 0.54313 0.4589 0.0
O31 O 0.58065 0.45192 0.52276 0.0
O32 O 0.54106 0.42066 0.49708 0.0
O33 O 0.43745 0.43093 0.49677 0.0
O34 O 0.40537 0.47053 0.52199 0.0
O35 O 0.41585 0.57074 0.52045 0.0
O36 O 0.59254 0.55213 0.52231 0.0
O37 O 0.45521 0.59885 0.49397 0.0
O38 O 0.56007 0.59266 0.49809 0.0
C39 C 0.49749 0.51412 0.56984 0.0
C40 C 0.50427 0.50865 0.44876 0.0
C41 C 0.40575 0.43845 0.50951 0.0
C42 C 0.57329 0.42101 0.51002 0.0
C43 C 0.42233 0.59946 0.50656 0.0
C44 C 0.59196 0.58463 0.5105 0.0
O45 O 0.46195 0.51729 0.55946 0.0
C46 C 0.99061 0.95903 0.31712 0.0
C47 C 0.98908 -0.00226 0.30653 0.0
C48 C 0.98696 0.95696 0.33985 0.0
C49 C 0.98201 0.9936 0.35252 0.0
C50 C 0.98079 0.03236 0.34188 0.0
C51 C 0.9841 0.03438 0.31913 0.0
C52 C 0.978 0.99134 0.37672 0.0
C53 C 0.00319 0.96295 0.38861 0.0
C54 C -0.00047 0.96051 0.41148 0.0
C55 C 0.97017 0.98679 0.42245 0.0
C56 C 0.94543 0.01581 0.41091 0.0
C57 C 0.94929 0.01783 0.38808 0.0
C58 C 0.91681 0.04511 0.42287 0.0
C59 C 0.88778 0.03046 0.43875 0.0
C60 C 0.91952 0.08819 0.41895 0.0
C61 C 0.89402 0.11621 0.4309 0.0
C62 C 0.86498 0.10161 0.44679 0.0
C63 C 0.02754 0.9317 0.42399 0.0
C64 C 0.03624 0.89124 0.41601 0.0
C65 C 0.04664 0.94488 0.44376 0.0
C66 C 0.07441 0.91845 0.45509 0.0
C67 C 0.08388 0.87833 0.44686 0.0
C68 C 0.06417 0.86488 0.4273 0.0
C69 C 0.8618 0.05848 0.45051 0.0
H70 H 0.99384 0.93024 0.30778 0.0
H71 H 0.98731 0.92655 0.34746 0.0
H72 H 0.9778 0.06125 0.35114 0.0
H73 H 0.98336 0.06468 0.3114 0.0
H74 H 0.02675 0.94366 0.38011 0.0
H75 H 0.92934 0.03967 0.37918 0.0
H76 H 0.96706 0.98525 0.44009 0.0
H77 H 0.88507 -0.00267 0.44199 0.0
H78 H 0.94195 0.10023 0.40691 0.0
H79 H 0.89669 0.14932 0.42759 0.0
H80 H 0.02164 0.87999 0.40097 0.0
H81 H 0.041 0.97603 0.45024 0.0
H82 H 0.83967 0.04653 0.4627 0.0
H83 H 0.07122 0.83436 0.42035 0.0
H84 H 0.08875 0.9296 0.47022 0.0
C85 C 0.01969 0.0356 0.70333 0.0
C86 C 0.01397 -0.00163 0.71504 0.0
C87 C 0.02029 0.03519 0.6805 0.0
C88 C 0.01603 -0.00256 0.66868 0.0
C89 C 0.0107 0.96015 0.68038 0.0
C90 C 0.00932 0.96065 0.70322 0.0
C91 C 0.01686 -0.00288 0.6443 0.0
C92 C 0.04347 0.02517 0.63288 0.0
C93 C 0.04316 0.02634 0.60992 0.0
C94 C 0.01701 -0.00203 0.59829 0.0
C95 C 0.99079 0.9692 0.60932 0.0
C96 C 0.99053 0.96929 0.6323 0.0
C97 C 0.96347 0.93922 0.5968 0.0
C98 C 0.94089 0.95204 0.57808 0.0
C99 C 0.96012 0.89742 0.60339 0.0
C100 C 0.93463 0.8691 0.5916 0.0
C101 C 0.91204 0.88188 0.57288 0.0
C102 C 0.06892 0.05815 0.5981 0.0
C103 C 0.071 0.09945 0.60607 0.0
C104 C 0.09041 0.04796 0.57846 0.0
C105 C 0.11306 0.07852 0.56695 0.0
C106 C 0.11483 0.11989 0.57488 0.0
C107 C 0.09382 0.12989 0.59465 0.0
C108 C 0.91549 0.92365 0.56623 0.0
H109 H 0.02411 0.06521 0.71177 0.0
H110 H 0.02371 0.06469 0.67215 0.0
H111 H 0.00789 0.93037 0.67192 0.0
H112 H 0.00421 0.93138 0.71157 0.0
H113 H 0.0649 0.04596 0.64184 0.0
H114 H 0.96884 0.94836 0.64081 0.0
H115 H 0.0168 -0.0015 0.58058 0.0
H116 H 0.94241 0.98415 0.57271 0.0
H117 H 0.97747 0.88648 0.61761 0.0
H118 H 0.9321 0.8373 0.59738 0.0
H119 H 0.0544 0.10849 0.621 0.0
H120 H 0.08983 0.01632 0.572 0.0
H121 H 0.8987 0.93441 0.55182 0.0
H122 H 0.09522 0.16127 0.60144 0.0
H123 H 0.12873 0.06983 0.55172 0.0
C124 C 0.49057 0.46036 0.81522 0.0
C125 C 0.4942 0.49909 0.80476 0.0
C126 C 0.49044 0.45831 0.83804 0.0
C127 C 0.49319 0.49501 0.85077 0.0
C128 C 0.49642 0.53377 0.8403 0.0
C129 C 0.49726 0.53576 0.81749 0.0
C130 C 0.49288 0.49296 0.87494 0.0
C131 C 0.52093 0.4658 0.88581 0.0
C132 C 0.52141 0.46416 0.90877 0.0
C133 C 0.49323 0.49015 0.92079 0.0
C134 C 0.46468 0.51741 0.91015 0.0
C135 C 0.46479 0.51847 0.88716 0.0
C136 C 0.43465 0.54463 0.92293 0.0
C137 C 0.41492 0.53022 0.94223 0.0
C138 C 0.42499 0.58519 0.91574 0.0
C139 C 0.39555 0.6102 0.92717 0.0
C140 C 0.37571 0.59557 0.94627 0.0
C141 C 0.5516 0.43555 0.92015 0.0
C142 C 0.55946 0.39521 0.91175 0.0
C143 C 0.57314 0.44844 0.93932 0.0
C144 C 0.60206 0.42171 0.94975 0.0
C145 C 0.61035 0.38156 0.94117 0.0
C146 C 0.5886 0.36863 0.92207 0.0
C147 C 0.386 0.55563 0.95389 0.0
H148 H 0.4884 0.43164 0.80574 0.0
H149 H 0.48772 0.42809 0.84575 0.0
H150 H 0.49883 0.56248 0.84978 0.0
H151 H 0.49983 0.566 0.80979 0.0
H152 H 0.54327 0.44679 0.87633 0.0
H153 H 0.44232 0.53849 0.87862 0.0
H154 H 0.49357 0.48915 0.93849 0.0
H155 H 0.42099 0.49898 0.94811 0.0
H156 H 0.44027 0.59778 0.90128 0.0
H157 H 0.38843 0.64117 0.92116 0.0
H158 H 0.54301 0.38405 0.89718 0.0
H159 H 0.56823 0.47948 0.9461 0.0
H160 H 0.37078 0.54365 0.96852 0.0
H161 H 0.59461 0.33816 0.91481 0.0
H162 H 0.61786 0.43253 0.96456 0.0
C163 C 0.52568 0.5289 0.20184 0.0
C164 C 0.53443 0.49272 0.21388 0.0
C165 C 0.52642 0.52774 0.17901 0.0
C166 C 0.53562 0.49029 0.16772 0.0
C167 C 0.54459 0.45415 0.17976 0.0
C168 C 0.54421 0.45539 0.20262 0.0
C169 C 0.53484 0.48886 0.14347 0.0
C170 C 0.5545 0.52067 0.13133 0.0
C171 C 0.55226 0.52063 0.10836 0.0
C172 C 0.53039 0.48782 0.09759 0.0
C173 C 0.51076 0.45555 0.10948 0.0
C174 C 0.51322 0.45636 0.13243 0.0
C175 C 0.48617 0.42186 0.09808 0.0
C176 C 0.45909 0.43113 0.08031 0.0
C177 C 0.48827 0.38042 0.10543 0.0
C178 C 0.46276 0.3493 0.09575 0.0
C179 C 0.43485 0.35887 0.07841 0.0
C180 C 0.57226 0.55513 0.09571 0.0
C181 C 0.57049 0.5965 0.10363 0.0
C182 C 0.59347 0.54706 0.07574 0.0
C183 C 0.61287 0.5795 0.06414 0.0
C184 C 0.61192 0.62075 0.07232 0.0
C185 C 0.59028 0.62882 0.09216 0.0
C186 C 0.43382 0.39991 0.07052 0.0
H187 H 0.51845 0.55819 0.2101 0.0
H188 H 0.51901 0.556 0.17017 0.0
H189 H 0.55206 0.42493 0.17148 0.0
H190 H 0.55081 0.42697 0.21148 0.0
H191 H 0.57211 0.54522 0.13984 0.0
H192 H 0.49684 0.43249 0.1418 0.0
H193 H 0.52824 0.48759 0.07991 0.0
H194 H 0.45622 0.46281 0.07442 0.0
H195 H 0.50941 0.37207 0.1188 0.0
H196 H 0.4646 0.31776 0.10196 0.0
H197 H 0.55379 0.60404 0.11874 0.0
H198 H 0.59582 0.51554 0.06923 0.0
H199 H 0.41221 0.40825 0.05734 0.0
H200 H 0.58938 0.66002 0.09918 0.0
H201 H 0.62876 0.57217 0.04878 0.0
H202 H 0.18247 0.05297 0.03355 0.0
H203 H 0.2422 0.10146 0.04049 0.0
H204 H 0.17476 0.19767 0.0054 0.0
H205 H 0.1148 0.14938 0.99827 0.0
H206 H 0.29711 0.15077 0.01367 0.0
H207 H 0.18507 0.28644 0.03758 0.0
H208 H 0.11041 0.29827 0.05069 0.0
H209 H 0.11086 0.17862 0.08187 0.0
H210 H 0.18565 0.16637 0.06918 0.0
H211 H 0.41724 0.34087 0.03542 0.0
H212 H 0.36441 0.29015 0.0211 0.0
H213 H 0.33204 0.25449 0.08697 0.0
H214 H 0.38439 0.30508 0.10134 0.0
H215 H 0.26012 0.27183 0.06155 0.0
H216 H 0.39196 0.19131 0.05732 0.0
H217 H 0.46716 0.17748 0.0458 0.0
H218 H 0.429 0.18302 0.97839 0.0
H219 H 0.35363 0.19748 0.98953 0.0
C220 C 0.18051 0.08429 0.02707 0.0
C221 C 0.14366 0.09747 0.01556 0.0
C222 C 0.21482 0.11182 0.03093 0.0
C223 C 0.21265 0.15311 0.02358 0.0
C224 C 0.17684 0.16591 0.01128 0.0
C225 C 0.14265 0.13827 0.00723 0.0
C226 C 0.24599 0.18363 0.03052 0.0
C227 C 0.28908 0.17745 0.02399 0.0
C228 C 0.23542 0.21805 0.0442 0.0
C229 C 0.19072 0.22534 0.05222 0.0
C230 C 0.16924 0.26274 0.04729 0.0
C231 C 0.12692 0.26951 0.05464 0.0
C232 C 0.10585 0.23915 0.06703 0.0
C233 C 0.12714 0.20203 0.07219 0.0
C234 C 0.16947 0.19514 0.0649 0.0
C235 C 0.39889 0.32208 0.0468 0.0
C236 C 0.40494 0.32678 0.06948 0.0
C237 C 0.36896 0.29307 0.03861 0.0
C238 C 0.34447 0.26863 0.05301 0.0
C239 C 0.35068 0.27311 0.07563 0.0
C240 C 0.3808 0.30175 0.08379 0.0
C241 C 0.31136 0.23912 0.04468 0.0
C242 C 0.26819 0.24552 0.05097 0.0
C243 C 0.32202 0.20476 0.03097 0.0
C244 C 0.36726 0.19594 0.02426 0.0
C245 C 0.39968 0.18996 0.04004 0.0
C246 C 0.44231 0.18192 0.03358 0.0
C247 C 0.45288 0.1795 0.01138 0.0
C248 C 0.42079 0.18498 0.99559 0.0
C249 C 0.3781 0.19307 0.00197 0.0
H250 H 0.48591 0.17327 0.00641 0.0
H251 H 0.07308 0.24443 0.07269 0.0
H252 H 0.1412 0.88453 0.03874 0.0
H253 H 0.19033 0.8249 0.03514 0.0
H254 H 0.12833 0.78917 0.97454 0.0
H255 H 0.07846 0.84762 0.97834 0.0
H256 H 0.14565 0.7222 0.99708 0.0
H257 H 0.22468 0.84718 0.97672 0.0
H258 H 0.25493 0.91769 0.983 0.0
H259 H 0.32852 0.87236 0.03732 0.0
H260 H 0.29826 0.80164 0.03151 0.0
H261 H 0.3042 0.63121 0.92896 0.0
H262 H 0.25208 0.6772 0.94737 0.0
H263 H 0.32293 0.66576 0.00775 0.0
H264 H 0.37498 0.6189 0.98937 0.0
H265 H 0.30343 0.75074 0.99368 0.0
H266 H 0.23287 0.6214 0.00795 0.0
H267 H 0.20362 0.55154 -0.00091 0.0
H268 H 0.1147 0.60573 0.95357 0.0
H269 H 0.14388 0.6759 0.9619 0.0
C270 C 0.13786 0.86377 0.02473 0.0
C271 C 0.10612 0.87101 0.00874 0.0
C272 C 0.16601 0.82977 0.02268 0.0
C273 C 0.16339 0.80289 0.00441 0.0
C274 C 0.13093 0.80942 0.9888 0.0
C275 C 0.10252 0.84302 0.99095 0.0
C276 C 0.19541 0.76902 0.00079 0.0
C277 C 0.18014 0.72846 0.99632 0.0
C278 C 0.24055 0.77688 0.00041 0.0
C279 C 0.25881 0.81931 0.00386 0.0
C280 C 0.24707 0.85234 0.9901 0.0
C281 C 0.26424 0.89232 0.99356 0.0
C282 C 0.29351 0.89953 0.0106 0.0
C283 C 0.30576 0.86674 0.02417 0.0
C284 C 0.28863 0.82672 0.0208 0.0
C285 C 0.30844 0.63833 0.94619 0.0
C286 C 0.34348 0.62176 0.95779 0.0
C287 C 0.27863 0.66433 0.95669 0.0
C288 C 0.28365 0.67457 0.9789 0.0
C289 C 0.31853 0.65796 0.99061 0.0
C290 C 0.34803 0.63125 0.98016 0.0
C291 C 0.25343 0.70451 0.98928 0.0
C292 C 0.26903 0.74429 0.99499 0.0
C293 C 0.20859 0.69608 0.99051 0.0
C294 C 0.19079 0.65393 0.98546 0.0
C295 C 0.20733 0.61841 0.99592 0.0
C296 C 0.19071 0.57875 0.99101 0.0
C297 C 0.15737 0.57419 0.97575 0.0
C298 C 0.14053 0.60931 0.96539 0.0
C299 C 0.15706 0.64905 0.97022 0.0
H300 H 0.14454 0.54346 0.97198 0.0
H301 H 0.30677 0.9305 0.01324 0.0
H302 H 0.83024 0.95225 0.02662 0.0
H303 H 0.77033 0.9033 0.0317 0.0
H304 H 0.84845 0.80349 0.00477 0.0
H305 H 0.90773 0.85265 -0.00123 0.0
H306 H 0.76857 0.79292 0.99226 0.0
H307 H 0.83837 0.82208 0.06126 0.0
H308 H 0.86556 0.86701 0.09127 0.0
H309 H 0.73688 0.91249 0.10323 0.0
H310 H 0.70902 0.86818 0.07308 0.0
H311 H 0.68964 0.61669 0.05068 0.0
H312 H 0.73044 0.67412 0.03469 0.0
H313 H 0.62901 0.76018 0.05282 0.0
H314 H 0.58688 0.70264 0.06807 0.0
H315 H 0.71242 0.78234 0.06807 0.0
H316 H 0.64276 0.74252 0.00128 0.0
H317 H 0.6187 0.69382 0.97223 0.0
H318 H 0.75092 0.6636 0.95731 0.0
H319 H 0.7758 0.71167 0.9865 0.0
C320 C 0.83445 0.91996 0.02157 0.0
C321 C 0.87384 0.90615 0.01254 0.0
C322 C 0.80024 0.892 0.02452 0.0
C323 C 0.80523 0.84951 0.01908 0.0
C324 C 0.84386 0.83609 0.00915 0.0
C325 C 0.87779 0.8642 0.0058 0.0
C326 C 0.7715 0.81852 0.02497 0.0
C327 C 0.75647 0.79046 0.00886 0.0
C328 C 0.75507 0.81574 0.04656 0.0
C329 C 0.77171 0.8422 0.06477 0.0
C330 C 0.81594 0.84188 0.0702 0.0
C331 C 0.83146 0.86719 0.08724 0.0
C332 C 0.80299 0.89268 0.0991 0.0
C333 C 0.75891 0.8928 0.09399 0.0
C334 C 0.74323 0.86758 0.07694 0.0
C335 C 0.6753 0.64755 0.05075 0.0
C336 C 0.63499 0.65498 0.06082 0.0
C337 C 0.69881 0.68038 0.04166 0.0
C338 C 0.68263 0.72128 0.04257 0.0
C339 C 0.64199 0.72876 0.05202 0.0
C340 C 0.61818 0.69587 0.06088 0.0
C341 C 0.71002 0.75653 0.03544 0.0
C342 C 0.72399 0.78528 0.05139 0.0
C343 C 0.72596 0.75939 0.01383 0.0
C344 C 0.71113 0.73049 0.99622 0.0
C345 C 0.66671 0.72523 0.99194 0.0
C346 C 0.65292 0.69778 0.97542 0.0
C347 C 0.68326 0.67556 0.96296 0.0
C348 C 0.72746 0.68081 0.96698 0.0
C349 C 0.74142 0.7082 0.9835 0.0
H350 H 0.67252 0.65433 0.95018 0.0
H351 H 0.81506 0.91227 0.11229 0.0
H352 H 0.86088 0.10907 0.03106 0.0
H353 H 0.80559 0.16121 0.02296 0.0
H354 H 0.88828 0.21419 0.97356 0.0
H355 H 0.94365 0.1621 0.98135 0.0
H356 H 0.80115 0.24842 0.02187 0.0
H357 H 0.82536 0.23128 0.92892 0.0
H358 H 0.8549 0.18008 0.90238 0.0
H359 H 0.82226 0.07978 0.94552 0.0
H360 H 0.79196 0.13031 0.97216 0.0
H361 H 0.6881 0.40291 0.95984 0.0
H362 H 0.74214 0.35621 0.97543 0.0
H363 H 0.66008 0.25022 0.96128 0.0
H364 H 0.60517 0.29669 0.94631 0.0
H365 H 0.74423 0.24054 0.94604 0.0
H366 H 0.67042 0.27972 0.01215 0.0
H367 H 0.63983 0.32884 0.03938 0.0
H368 H 0.76617 0.38055 0.05099 0.0
H369 H 0.79744 0.33212 0.02359 0.0
C370 C 0.86764 0.13218 0.01869 0.0
C371 C 0.90646 0.131 0.00662 0.0
C372 C 0.83605 0.16206 0.01417 0.0
C373 C 0.84268 0.19107 0.99747 0.0
C374 C 0.88241 0.19166 0.98634 0.0
C375 C 0.91401 0.16185 0.99083 0.0
C376 C 0.80673 0.21817 0.99036 0.0
C377 C 0.78874 0.24687 0.00529 0.0
C378 C 0.79013 0.21547 0.96883 0.0
C379 C 0.80681 0.18464 0.95261 0.0
C380 C 0.82425 0.19828 0.93267 0.0
C381 C 0.84117 0.16939 0.91763 0.0
C382 C 0.84063 0.12674 0.92231 0.0
C383 C 0.82282 0.11285 0.94196 0.0
C384 C 0.80579 0.1416 0.95703 0.0
C385 C 0.68108 0.36977 0.96043 0.0
C386 C 0.6423 0.35356 0.95172 0.0
C387 C 0.71211 0.34314 0.96927 0.0
C388 C 0.70501 0.29985 0.96949 0.0
C389 C 0.66617 0.28358 0.96114 0.0
C390 C 0.63497 0.31018 0.95248 0.0
C391 C 0.73898 0.27131 0.97745 0.0
C392 C 0.75665 0.24226 0.96262 0.0
C393 C 0.75488 0.27347 -0.00089 0.0
C394 C 0.7362 0.30255 0.01565 0.0
C395 C 0.69163 0.30181 0.02037 0.0
C396 C 0.67417 0.32948 0.03586 0.0
C397 C 0.70102 0.35787 0.04687 0.0
C398 C 0.7454 0.35857 0.04244 0.0
C399 C 0.76302 0.33099 0.02694 0.0
H400 H 0.68745 0.37927 0.05886 0.0
H401 H 0.85402 0.10448 0.91072 0.0
H402 H 0.59226 0.66795 0.50118 0.0
H403 H 0.65167 0.71748 0.50665 0.0
H404 H 0.73444 0.61674 0.52733 0.0
H405 H 0.6746 0.56753 0.52285 0.0
H406 H 0.74056 0.67631 0.55488 0.0
H407 H 0.74724 0.66984 0.4769 0.0
H408 H 0.71965 0.67264 0.43913 0.0
H409 H 0.68262 0.80076 0.44899 0.0
H410 H 0.70945 0.79858 0.48694 0.0
H411 H 0.92865 0.79988 0.5629 0.0
H412 H 0.8788 0.74866 0.5469 0.0
H413 H 0.78243 0.84475 0.5393 0.0
H414 H 0.83168 0.89607 0.55571 0.0
H415 H 0.78722 0.78643 0.50335 0.0
H416 H 0.77644 0.78871 0.58255 0.0
H417 H 0.80651 0.78494 0.61982 0.0
H418 H 0.85434 0.66142 0.60618 0.0
H419 H 0.82509 0.66474 0.56869 0.0
C420 C 0.6233 0.65636 0.50665 0.0
C421 C 0.62876 0.61399 0.51175 0.0
C422 C 0.65734 0.68464 0.50963 0.0
C423 C 0.69774 0.67083 0.51721 0.0
C424 C 0.70356 0.62819 0.52154 0.0
C425 C 0.66935 0.6001 0.51898 0.0
C426 C 0.73275 0.70111 0.52244 0.0
C427 C 0.75126 0.69977 0.54337 0.0
C428 C 0.74617 0.73246 0.50767 0.0
C429 C 0.73003 0.73392 0.48484 0.0
C430 C 0.73291 0.69852 0.47108 0.0
C431 C 0.71746 0.70001 0.44962 0.0
C432 C 0.69931 0.73682 0.44168 0.0
C433 C 0.69666 0.77225 0.45517 0.0
C434 C 0.71203 0.77092 0.47665 0.0
C435 C 0.89691 0.81016 0.55776 0.0
C436 C 0.88388 0.85191 0.56086 0.0
C437 C 0.86865 0.78096 0.54847 0.0
C438 C 0.82692 0.79298 0.54213 0.0
C439 C 0.81463 0.83501 0.54404 0.0
C440 C 0.84282 0.86425 0.55341 0.0
C441 C 0.79473 0.76109 0.53558 0.0
C442 C 0.77666 0.76242 0.51458 0.0
C443 C 0.78193 0.72936 0.55014 0.0
C444 C 0.79898 0.72715 0.57276 0.0
C445 C 0.79365 0.76087 0.58745 0.0
C446 C 0.8105 0.7588 0.60862 0.0
C447 C 0.83243 0.72301 0.61534 0.0
C448 C 0.83741 0.68915 0.60093 0.0
C449 C 0.82069 0.6911 0.57973 0.0
H450 H 0.84546 0.72146 0.63173 0.0
H451 H 0.68737 0.73791 0.42506 0.0
H452 H 0.65579 0.41877 0.52608 0.0
H453 H 0.70835 0.36206 0.52199 0.0
H454 H 0.6124 0.2865 0.48899 0.0
H455 H 0.55971 0.34307 0.49278 0.0
H456 H 0.66651 0.24236 0.52029 0.0
H457 H 0.67617 0.33697 0.45841 0.0
H458 H 0.68557 0.40648 0.44199 0.0
H459 H 0.8097 0.41907 0.47292 0.0
H460 H 0.80072 0.3498 0.48977 0.0
H461 H 0.77786 0.0977 0.45319 0.0
H462 H 0.73174 0.15015 0.47079 0.0
H463 H 0.84447 0.22484 0.48609 0.0
H464 H 0.89053 0.17289 0.46786 0.0
H465 H 0.78695 0.27156 0.46885 0.0
H466 H 0.78396 0.17358 0.52646 0.0
H467 H 0.77597 0.10503 0.54406 0.0
H468 H 0.64301 0.09907 0.52389 0.0
H469 H 0.65034 0.16733 0.50588 0.0
C470 C 0.64567 0.38988 0.51823 0.0
C471 C 0.60375 0.38551 0.50954 0.0
C472 C 0.67572 0.35757 0.51593 0.0
C473 C 0.66414 0.32034 0.50513 0.0
C474 C 0.62176 0.31505 0.49743 0.0
C475 C 0.59186 0.34749 0.49947 0.0
C476 C 0.69708 0.28837 0.50002 0.0
C477 C 0.69284 0.24846 0.509 0.0
C478 C 0.732 0.29705 0.48583 0.0
C479 C 0.73755 0.33848 0.47554 0.0
C480 C 0.7053 0.35472 0.46185 0.0
C481 C 0.71058 0.39404 0.45244 0.0
C482 C 0.74815 0.41724 0.45647 0.0
C483 C 0.78058 0.4011 0.46985 0.0
C484 C 0.77543 0.36181 0.47932 0.0
C485 C 0.79277 0.12502 0.46062 0.0
C486 C 0.83762 0.13145 0.45913 0.0
C487 C 0.76646 0.15488 0.47078 0.0
C488 C 0.78467 0.19126 0.48001 0.0
C489 C 0.8297 0.19705 0.47908 0.0
C490 C 0.85594 0.16747 0.46865 0.0
C491 C 0.75638 0.2248 0.48887 0.0
C492 C 0.7613 0.26524 0.4805 0.0
C493 C 0.72246 0.21659 0.50385 0.0
C494 C 0.71782 0.17549 0.51468 0.0
C495 C 0.7531 0.15753 0.52563 0.0
C496 C 0.74867 0.11873 0.53571 0.0
C497 C 0.70903 0.09767 0.53506 0.0
C498 C 0.67371 0.11541 0.52437 0.0
C499 C 0.67796 0.15419 0.51425 0.0
H500 H 0.70567 0.06764 0.54288 0.0
H501 H 0.75218 0.44768 0.44917 0.0
H502 H 0.40593 0.35668 0.49634 0.0
H503 H 0.34949 0.30467 0.50236 0.0
H504 H 0.26751 0.39971 0.53109 0.0
H505 H 0.32462 0.45157 0.52591 0.0
H506 H 0.26969 0.33691 0.55644 0.0
H507 H 0.24571 0.35122 0.47994 0.0
H508 H 0.26476 0.3542 0.44081 0.0
H509 H 0.3102 0.22754 0.44271 0.0
H510 H 0.29198 0.22395 0.48193 0.0
H511 H 0.09139 0.20129 0.56861 0.0
H512 H 0.13482 0.25684 0.55238 0.0
H513 H 0.2356 0.16809 0.53714 0.0
H514 H 0.19299 0.11242 0.55391 0.0
H515 H 0.21846 0.22951 0.50331 0.0
H516 H 0.24774 0.21987 0.58105 0.0
H517 H 0.22635 0.21771 0.6199 0.0
H518 H 0.16755 0.33869 0.61452 0.0
H519 H 0.18804 0.34126 0.57552 0.0
C520 C 0.37563 0.36664 0.50364 0.0
C521 C 0.36979 0.40814 0.51079 0.0
C522 C 0.34323 0.33689 0.50695 0.0
C523 C 0.30403 0.34831 0.517 0.0
C524 C 0.29752 0.39014 0.52334 0.0
C525 C 0.33017 0.41975 0.52037 0.0
C526 C 0.27161 0.31599 0.52278 0.0
C527 C 0.25785 0.31406 0.54464 0.0
C528 C 0.25683 0.28547 0.50756 0.0
C529 C 0.26778 0.28745 0.48394 0.0
C530 C 0.26007 0.32409 0.47206 0.0
C531 C 0.27066 0.32587 0.44985 0.0
C532 C 0.28876 0.29111 0.43929 0.0
C533 C 0.2962 0.25445 0.45091 0.0
C534 C 0.28569 0.25251 0.47313 0.0
C535 C 0.12278 0.19352 0.5618 0.0
C536 C 0.13903 0.15254 0.56287 0.0
C537 C 0.14731 0.22521 0.55236 0.0
C538 C 0.1884 0.21646 0.54374 0.0
C539 C 0.2038 0.17528 0.54365 0.0
C540 C 0.1794 0.14355 0.55323 0.0
C541 C 0.21693 0.2509 0.53677 0.0
C542 C 0.23003 0.25294 0.51485 0.0
C543 C 0.23087 0.28186 0.55183 0.0
C544 C 0.219 0.28055 0.57533 0.0
C545 C 0.22994 0.24586 0.58811 0.0
C546 C 0.21803 0.24458 0.61016 0.0
C547 C 0.1955 0.27799 0.61966 0.0
C548 C 0.18495 0.31281 0.60714 0.0
C549 C 0.19671 0.3142 0.58506 0.0
H550 H 0.1863 0.27695 0.63673 0.0
H551 H 0.29694 0.29256 0.4221 0.0
H552 H 0.42276 0.66342 0.47727 0.0
H553 H 0.36581 0.71468 0.47107 0.0
H554 H 0.29079 0.66225 0.52366 0.0
H555 H 0.34773 0.61095 0.53015 0.0
H556 H 0.28406 0.69708 0.45863 0.0
H557 H 0.22826 0.7419 0.54608 0.0
H558 H 0.25886 0.74932 0.58317 0.0
H559 H 0.38426 0.77427 0.55584 0.0
H560 H 0.35431 0.76757 0.51861 0.0
H561 H 0.08 0.79374 0.45311 0.0
H562 H 0.13704 0.7487 0.4674 0.0
H563 H 0.217 0.85683 0.48012 0.0
H564 H 0.16065 0.90203 0.46548 0.0
H565 H 0.22214 0.79637 0.51315 0.0
H566 H 0.23233 0.80671 0.4345 0.0
H567 H 0.20371 0.80215 0.39692 0.0
H568 H 0.1757 0.67186 0.40557 0.0
H569 H 0.20357 0.67583 0.44335 0.0
C570 C 0.39442 0.66303 0.48772 0.0
C571 C 0.38971 0.63289 0.50413 0.0
C572 C 0.36188 0.69231 0.48411 0.0
C573 C 0.32418 0.69223 0.49691 0.0
C574 C 0.31986 0.66306 0.51374 0.0
C575 C 0.35238 0.63367 0.51735 0.0
C576 C 0.28827 0.72092 0.49166 0.0
C577 C 0.27057 0.71876 0.47057 0.0
C578 C 0.27078 0.74925 0.50724 0.0
C579 C 0.28909 0.75379 0.52956 0.0
C580 C 0.26233 0.74911 0.54799 0.0
C581 C 0.27957 0.75317 0.56904 0.0
C582 C 0.3235 0.76212 0.57186 0.0
C583 C 0.35027 0.76716 0.55363 0.0
C584 C 0.3332 0.76316 0.53255 0.0
C585 C 0.10964 0.80795 0.45904 0.0
C586 C 0.11599 0.85141 0.45792 0.0
C587 C 0.14202 0.78223 0.46732 0.0
C588 C 0.18125 0.79952 0.4746 0.0
C589 C 0.18681 0.84299 0.47465 0.0
C590 C 0.15453 0.86874 0.46629 0.0
C591 C 0.21796 0.77215 0.48022 0.0
C592 C 0.23565 0.77449 0.50131 0.0
C593 C 0.23588 0.74424 0.4646 0.0
C594 C 0.21964 0.74167 0.4418 0.0
C595 C 0.21979 0.77717 0.42844 0.0
C596 C 0.20374 0.77468 0.4071 0.0
C597 C 0.1878 0.73676 0.39888 0.0
C598 C 0.188 0.70122 0.41197 0.0
C599 C 0.20394 0.70356 0.43334 0.0
H600 H 0.17538 0.7349 0.38236 0.0
H601 H 0.33679 0.76523 0.58817 0.0
H602 H 0.94484 0.03788 0.09874 0.0
H603 H 0.94407 0.03823 0.13876 0.0
H604 H 0.06455 0.97038 0.13925 0.0
H605 H 0.06591 0.9702 0.09924 0.0
H606 H -0.00077 0.93744 0.16715 0.0
H607 H 0.06895 0.06807 0.15114 0.0
H608 H 0.0758 0.13667 0.13346 0.0
H609 H 0.95888 0.17807 0.1649 0.0
H610 H 0.95096 0.10943 0.18251 0.0
H611 H 0.04656 0.95713 0.27986 0.0
H612 H 0.05084 0.9594 0.23995 0.0
H613 H 0.94286 0.04478 0.23879 0.0
H614 H 0.93896 0.04314 0.27875 0.0
H615 H 0.00259 0.069 0.21086 0.0
H616 H 0.9308 0.93976 0.22624 0.0
H617 H 0.92105 0.87102 0.24345 0.0
H618 H 0.03767 0.82669 0.21283 0.0
H619 H 0.04844 0.8954 0.19567 0.0
C620 C 0.9712 0.02305 0.10735 0.0
C621 C 0.00548 0.00406 0.09581 0.0
C622 C 0.97076 0.02341 0.13019 0.0
C623 C 0.00436 0.0045 0.14188 0.0
C624 C 0.03837 0.98516 0.13047 0.0
C625 C 0.03915 0.98524 0.10763 0.0
C626 C 0.00375 0.00451 0.16606 0.0
C627 C 0.00057 0.96611 0.17677 0.0
C628 C 0.00432 0.04207 0.17845 0.0
C629 C 0.00912 0.08344 0.16796 0.0
C630 C 0.04448 0.09166 0.15413 0.0
C631 C 0.0486 0.13058 0.14415 0.0
C632 C 0.01773 0.16167 0.14801 0.0
C633 C 0.98273 0.15393 0.1619 0.0
C634 C 0.97843 0.11504 0.1719 0.0
C635 C 0.02366 0.97625 0.27106 0.0
C636 C 0.99228 -0.00022 0.28238 0.0
C637 C 0.0261 0.97751 0.24827 0.0
C638 C -0.00327 0.00176 0.23635 0.0
C639 C 0.96584 0.02585 0.24765 0.0
C640 C 0.96366 0.02492 0.27046 0.0
C641 C -0.00196 0.00182 0.21209 0.0
C642 C 0.0013 0.04024 0.20131 0.0
C643 C -0.00289 0.96426 0.19961 0.0
C644 C 0.99065 0.92286 0.20985 0.0
C645 C 0.95454 0.91546 0.22331 0.0
C646 C 0.9488 0.87649 0.23303 0.0
C647 C 0.97879 0.84455 0.22928 0.0
C648 C 0.01451 0.85148 0.21574 0.0
C649 C 0.02043 0.89042 0.206 0.0
H650 H 0.97428 0.81439 0.23682 0.0
H651 H 0.02098 0.19179 0.14027 0.0
H652 H -0.00058 0.06938 0.9234 0.0
H653 H -0.00066 0.06877 0.88332 0.0
H654 H 0.02272 0.93595 0.88294 0.0
H655 H 0.02207 0.93604 0.92298 0.0
H656 H 0.07837 0.98646 0.85441 0.0
H657 H 0.92756 0.96184 0.87203 0.0
H658 H 0.85841 0.97819 0.89039 0.0
H659 H 0.85481 0.09743 0.85888 0.0
H660 H 0.92426 0.08196 0.84051 0.0
H661 H 0.04518 0.93906 0.74316 0.0
H662 H 0.043 0.93995 0.78293 0.0
H663 H 0.98169 0.06102 0.78226 0.0
H664 H 0.9803 0.05881 0.74244 0.0
H665 H 0.9458 0.01811 0.81199 0.0
H666 H 0.0934 0.04601 0.79399 0.0
H667 H 0.16413 0.03462 0.77617 0.0
H668 H 0.17718 0.9172 0.80886 0.0
H669 H 0.10623 0.92763 0.82666 0.0
C670 C 0.00461 0.04006 0.91478 0.0
C671 C 0.01071 0.00273 0.92632 0.0
C672 C 0.00443 0.03977 0.89193 0.0
C673 C 0.01093 0.0023 0.88028 0.0
C674 C 0.01765 0.96513 0.89171 0.0
C675 C 0.01709 0.96524 0.91455 0.0
C676 C 0.0107 0.00185 0.85612 0.0
C677 C 0.04936 0.99287 0.84504 0.0
C678 C 0.97311 0.01162 0.84411 0.0
C679 C 0.93129 0.02089 0.85506 0.0
C680 C 0.9122 0.99168 0.86915 0.0
C681 C 0.8729 0.00075 0.87952 0.0
C682 C 0.85223 0.03882 0.8758 0.0
C683 C 0.87083 0.06793 0.86171 0.0
C684 C 0.91014 0.05901 0.85131 0.0
C685 C 0.03051 0.96562 0.75138 0.0
C686 C 0.01307 -0.00105 0.73942 0.0
C687 C 0.02996 0.96638 0.77422 0.0
C688 C 0.01307 0.00098 0.78567 0.0
C689 C 0.9952 0.03408 0.77383 0.0
C690 C 0.99496 0.03299 0.75099 0.0
C691 C 0.01365 0.0025 0.80998 0.0
C692 C 0.97502 0.01177 0.82119 0.0
C693 C 0.05157 0.99379 0.82213 0.0
C694 C 0.09431 0.98743 0.81149 0.0
C695 C 0.11121 0.01762 0.79725 0.0
C696 C 0.15136 0.01136 0.78717 0.0
C697 C 0.17508 0.97516 0.79133 0.0
C698 C 0.15875 0.9452 0.80563 0.0
C699 C 0.11858 0.95128 0.81573 0.0
H700 H 0.20616 0.97037 0.78352 0.0
H701 H 0.8218 0.04577 0.88383 0.0
H702 H 0.56324 0.53578 0.5975 0.0
H703 H 0.56265 0.53512 0.63744 0.0
H704 H 0.43068 0.49046 0.63664 0.0
H705 H 0.43046 0.49319 0.59671 0.0
H706 H 0.43752 0.54422 0.66735 0.0
H707 H 0.52219 0.42515 0.64644 0.0
H708 H 0.58072 0.38678 0.62754 0.0
H709 H 0.67577 0.46065 0.66161 0.0
H710 H 0.61777 0.49984 0.68051 0.0
H711 H 0.43765 0.46287 0.77606 0.0
H712 H 0.43844 0.46713 0.73602 0.0
H713 H 0.55318 0.54392 0.73906 0.0
H714 H 0.55225 0.54018 0.77913 0.0
H715 H 0.5555 0.47416 0.70789 0.0
H716 H 0.4663 0.59157 0.72939 0.0
H717 H 0.40532 0.62521 0.74874 0.0
H718 H 0.31546 0.54707 0.71366 0.0
H719 H 0.37599 0.51251 0.69433 0.0
C720 C 0.53409 0.52589 0.60586 0.0
C721 C 0.49696 0.51435 0.594 0.0
C722 C 0.53385 0.52527 0.6287 0.0
C723 C 0.49692 0.51186 0.64012 0.0
C724 C 0.45961 0.50086 0.62825 0.0
C725 C 0.45953 0.50236 0.60543 0.0
C726 C 0.49705 0.50943 0.66439 0.0
C727 C 0.46308 0.52838 0.67613 0.0
C728 C 0.53066 0.48931 0.67601 0.0
C729 C 0.56562 0.4657 0.66473 0.0
C730 C 0.55557 0.4334 0.64979 0.0
C731 C 0.58865 0.41148 0.63909 0.0
C732 C 0.63193 0.42134 0.64333 0.0
C733 C 0.64222 0.45308 0.65832 0.0
C734 C 0.60927 0.47513 0.66905 0.0
C735 C 0.46307 0.48053 0.76815 0.0
C736 C 0.49485 0.50127 0.78061 0.0
C737 C 0.46339 0.48308 0.74535 0.0
C738 C 0.49578 0.50596 0.73469 0.0
C739 C 0.52793 0.52617 0.74706 0.0
C740 C 0.52723 0.52419 0.76987 0.0
C741 C 0.49608 0.50879 0.71057 0.0
C742 C 0.53008 0.48992 0.69896 0.0
C743 C 0.46213 0.52824 0.69907 0.0
C744 C 0.4257 0.54917 0.71058 0.0
C745 C 0.43356 0.5813 0.72595 0.0
C746 C 0.39907 0.60059 0.73688 0.0
C747 C 0.35655 0.58821 0.73248 0.0
C748 C 0.34842 0.55659 0.71708 0.0
C749 C 0.3828 0.53716 0.70612 0.0
H750 H 0.32989 0.60318 0.74096 0.0
H751 H 0.65749 0.40434 0.63503 0.0
H752 H 0.46257 0.45636 0.42024 0.0
H753 H 0.46909 0.45424 0.3804 0.0
H754 H 0.56287 0.5544 0.38335 0.0
H755 H 0.5543 0.55826 0.42305 0.0
H756 H 0.51519 0.56794 0.35122 0.0
H757 H 0.59016 0.44592 0.37477 0.0
H758 H 0.59989 0.37966 0.39441 0.0
H759 H 0.49599 0.32412 0.35762 0.0
H760 H 0.48528 0.39023 0.33794 0.0
H761 H 0.59249 0.45941 0.24254 0.0
H762 H 0.5902 0.4625 0.28256 0.0
H763 H 0.46998 0.53077 0.27982 0.0
H764 H 0.47254 0.52835 0.23989 0.0
H765 H 0.53728 0.43334 0.31179 0.0
H766 H 0.46289 0.59964 0.32155 0.0
H767 H 0.46375 0.6671 0.30236 0.0
H768 H 0.58628 0.63607 0.27325 0.0
H769 H 0.58645 0.56874 0.29249 0.0
C770 C 0.4845 0.47794 0.41234 0.0
C771 C 0.50803 0.50739 0.4247 0.0
C772 C 0.48846 0.47653 0.38957 0.0
C773 C 0.5172 0.50356 0.3788 0.0
C774 C 0.54048 0.5332 0.3912 0.0
C775 C 0.53565 0.53535 0.4139 0.0
C776 C 0.52269 0.50133 0.35463 0.0
C777 C 0.52009 0.53846 0.34265 0.0
C778 C 0.53009 0.46306 0.34335 0.0
C779 C 0.53671 0.42313 0.35501 0.0
C780 C 0.56924 0.41964 0.37096 0.0
C781 C 0.57494 0.38211 0.38208 0.0
C782 C 0.54852 0.34773 0.3773 0.0
C783 C 0.51641 0.35078 0.36132 0.0
C784 C 0.51055 0.38826 0.35016 0.0
C785 C 0.56553 0.47495 0.25052 0.0
C786 C 0.53285 0.49391 0.23812 0.0
C787 C 0.56426 0.47671 0.27336 0.0
C788 C 0.53023 0.49735 0.28421 0.0
C789 C 0.49707 0.51549 0.27183 0.0
C790 C 0.49855 0.51408 0.24902 0.0
C791 C 0.52924 0.49983 0.30847 0.0
C792 C 0.53254 0.46277 0.32043 0.0
C793 C 0.5241 0.53833 0.3198 0.0
C794 C 0.52442 0.57895 0.30829 0.0
C795 C 0.49008 0.60729 0.31111 0.0
C796 C 0.49038 0.64549 0.30022 0.0
C797 C 0.52498 0.6558 0.28654 0.0
C798 C 0.55942 0.62798 0.28378 0.0
C799 C 0.5593 0.58977 0.29465 0.0
H800 H 0.52514 0.68538 0.27811 0.0
H801 H 0.55296 0.31871 0.38594 0.0
loop_
_geom_bond_atom_site_label_1
_geom_bond_atom_site_label_2
_geom_bond_distance
_geom_bond_site_symmetry_2
_ccdc_geom_bond_type
O0 Zn1 1.953 . S
O0 C16 1.225 1_565 S
Zn1 O0 1.953 . S
Zn1 O2 1.949 1_565 S
Zn1 O8 1.919 . S
Zn1 O13 1.924 1_565 S
O2 Zn1 1.949 1_545 S
O2 Zn3 1.923 1_444 S
O2 Zn4 1.950 1_455 S
O2 Zn5 1.945 1_554 S
Zn3 O2 1.923 1_666 S
Zn3 O6 1.934 . S
Zn3 O9 1.941 1_655 S
Zn3 O10 1.959 1_556 S
Zn4 O2 1.950 1_655 S
Zn4 O11 1.938 1_545 S
Zn4 O12 1.906 . S
Zn4 O22 1.953 . S
Zn5 O2 1.945 1_556 S
Zn5 O7 1.932 . S
Zn5 O14 1.977 1_455 S
Zn5 O15 1.910 1_556 S
O6 Zn3 1.934 . S
O6 C17 1.223 1_665 S
O7 Zn5 1.932 . S
O7 C17 1.307 . S
O8 Zn1 1.919 . S
O8 C19 1.253 . S
O9 Zn3 1.941 1_455 S
O9 C19 1.283 1_556 S
O10 Zn3 1.959 1_554 S
O10 C18 1.327 . S
O11 Zn4 1.938 1_565 S
O11 C18 1.247 . S
O12 Zn4 1.906 . S
O12 C20 1.304 . S
O13 Zn1 1.924 1_545 S
O13 C21 1.311 . S
O14 Zn5 1.977 1_655 S
O14 C20 1.272 1_556 S
O15 Zn5 1.910 1_554 S
O15 C21 1.231 . S
C16 O0 1.225 1_545 S
C16 O22 1.298 1_455 S
C17 O6 1.223 1_445 S
C17 O7 1.307 . S
C18 O10 1.327 . S
C18 O11 1.247 . S
C19 O8 1.253 . S
C19 O9 1.283 1_554 S
C20 O12 1.304 . S
C20 O14 1.272 1_554 S
C21 O13 1.311 . S
C21 O15 1.231 . S
O22 Zn4 1.953 . S
O22 C16 1.298 1_655 S
O23 Zn24 1.953 . S
O23 C39 1.225 . S
Zn24 O23 1.953 . S
Zn24 O25 1.949 . S
Zn24 O31 1.919 . S
Zn24 O36 1.924 . S
O25 Zn24 1.949 . S
O25 Zn26 1.923 . S
O25 Zn27 1.950 . S
O25 Zn28 1.945 . S
Zn26 O25 1.923 . S
Zn26 O29 1.933 . S
Zn26 O32 1.941 . S
Zn26 O33 1.965 . S
Zn27 O25 1.950 . S
Zn27 O34 1.938 . S
Zn27 O35 1.906 . S
Zn27 O45 1.953 . S
Zn28 O25 1.945 . S
Zn28 O30 1.932 . S
Zn28 O37 1.977 . S
Zn28 O38 1.910 . S
O29 Zn26 1.933 . S
O29 C40 1.226 . S
O30 Zn28 1.932 . S
O30 C40 1.307 . S
O31 Zn24 1.919 . S
O31 C42 1.253 . S
O32 Zn26 1.941 . S
O32 C42 1.283 . S
O33 Zn26 1.965 . S
O33 C41 1.303 . S
O34 Zn27 1.938 . S
O34 C41 1.247 . S
O35 Zn27 1.906 . S
O35 C43 1.304 . S
O36 Zn24 1.924 . S
O36 C44 1.311 . S
O37 Zn28 1.977 . S
O37 C43 1.272 . S
O38 Zn28 1.910 . S
O38 C44 1.231 . S
C39 O23 1.225 . S
C39 O45 1.298 . S
C40 O29 1.226 . S
C40 O30 1.307 . S
C41 O33 1.303 . S
C41 O34 1.247 . S
C42 O31 1.253 . S
C42 O32 1.283 . S
C43 O35 1.304 . S
C43 O37 1.272 . S
C44 O36 1.311 . S
C44 O38 1.231 . S
O45 Zn27 1.953 . S
O45 C39 1.298 . S
C46 C47 1.388 1_455 S
C46 C48 1.397 . S
C46 H70 0.931 . S
C47 C46 1.388 1_655 S
C47 C51 1.395 1_665 S
C48 C46 1.397 . S
C48 C49 1.384 . S
C48 H71 0.930 . S
C49 C48 1.384 . S
C49 C50 1.377 1_565 S
C49 C52 1.481 . S
C50 C49 1.377 1_545 S
C50 C51 1.389 . S
C50 H72 0.929 . S
C51 C47 1.395 1_445 S
C51 C50 1.389 . S
C51 H73 0.931 . S
C52 C49 1.481 . S
C52 C53 1.394 . S
C52 C57 1.384 1_465 S
C53 C52 1.394 . S
C53 C54 1.401 . S
C53 H74 0.930 . S
C54 C53 1.401 . S
C54 C55 1.367 1_455 S
C54 C63 1.511 . S
C55 C54 1.367 1_655 S
C55 C56 1.401 1_565 S
C55 H76 0.932 . S
C56 C55 1.401 1_545 S
C56 C57 1.361 . S
C56 C58 1.500 . S
C57 C52 1.384 1_645 S
C57 C56 1.361 . S
C57 H75 0.931 . S
C58 C56 1.500 . S
C58 C59 1.371 . S
C58 C60 1.365 . S
C59 C58 1.371 . S
C59 C69 1.386 . S
C59 H77 0.931 . S
C60 C58 1.365 . S
C60 C61 1.409 . S
C60 H78 0.929 . S
C61 C60 1.409 . S
C61 C62 1.380 . S
C61 H79 0.930 . S
C62 C61 1.380 . S
C62 C69 1.357 . S
C63 C54 1.511 . S
C63 C64 1.341 . S
C63 C65 1.371 . S
C64 C63 1.341 . S
C64 C68 1.394 . S
C64 H80 0.930 . S
C65 C63 1.371 . S
C65 C66 1.392 . S
C65 H81 0.931 . S
C66 C65 1.392 . S
C66 C67 1.331 . S
C66 H84 0.932 . S
C67 C66 1.331 . S
C67 C68 1.336 . S
C68 C64 1.394 . S
C68 C67 1.336 . S
C68 H83 0.929 . S
C69 C59 1.386 . S
C69 C62 1.357 . S
C69 H82 0.928 . S
H70 C46 0.931 . S
H71 C48 0.930 . S
H72 C50 0.929 . S
H73 C51 0.931 . S
H74 C53 0.930 . S
H75 C57 0.931 . S
H76 C55 0.932 . S
H77 C59 0.931 . S
H78 C60 0.929 . S
H79 C61 0.930 . S
H80 C64 0.930 . S
H81 C65 0.931 . S
H82 C69 0.928 . S
H83 C68 0.929 . S
H84 C66 0.932 . S
C85 C86 1.386 . S
C85 C87 1.397 . S
C85 H109 0.931 . S
C86 C85 1.386 . S
C86 C90 1.397 1_545 S
C87 C85 1.397 . S
C87 C88 1.384 . S
C87 H110 0.930 . S
C88 C87 1.384 . S
C88 C89 1.377 1_545 S
C88 C91 1.481 . S
C89 C88 1.377 1_565 S
C89 C90 1.389 . S
C89 H111 0.929 . S
C90 C86 1.397 1_565 S
C90 C89 1.389 . S
C90 H112 0.931 . S
C91 C88 1.481 . S
C91 C92 1.387 . S
C91 C96 1.390 1_445 S
C92 C91 1.387 . S
C92 C93 1.401 . S
C92 H113 0.930 . S
C93 C92 1.401 . S
C93 C94 1.376 . S
C93 C102 1.511 . S
C94 C93 1.376 . S
C94 C95 1.392 1_445 S
C94 H115 0.931 . S
C95 C94 1.392 1_665 S
C95 C96 1.361 . S
C95 C97 1.500 . S
C96 C91 1.390 1_665 S
C96 C95 1.361 . S
C96 H114 0.931 . S
C97 C95 1.500 . S
C97 C98 1.371 . S
C97 C99 1.365 . S
C98 C97 1.371 . S
C98 C108 1.386 . S
C98 H116 0.931 . S
C99 C97 1.365 . S
C99 C100 1.409 . S
C99 H117 0.929 . S
C100 C99 1.409 . S
C100 C101 1.380 . S
C100 H118 0.930 . S
C101 C100 1.380 . S
C101 C108 1.357 . S
C102 C93 1.511 . S
C102 C103 1.341 . S
C102 C104 1.371 . S
C103 C102 1.341 . S
C103 C107 1.394 . S
C103 H119 0.930 . S
C104 C102 1.371 . S
C104 C105 1.392 . S
C104 H120 0.931 . S
C105 C104 1.392 . S
C105 C106 1.331 . S
C105 H123 0.932 . S
C106 C105 1.331 . S
C106 C107 1.336 . S
C107 C103 1.394 . S
C107 C106 1.336 . S
C107 H122 0.929 . S
C108 C98 1.386 . S
C108 C101 1.357 . S
C108 H121 0.928 . S
H109 C85 0.931 . S
H110 C87 0.930 . S
H111 C89 0.929 . S
H112 C90 0.931 . S
H113 C92 0.930 . S
H114 C96 0.931 . S
H115 C94 0.931 . S
H116 C98 0.931 . S
H117 C99 0.929 . S
H118 C100 0.930 . S
H119 C103 0.930 . S
H120 C104 0.931 . S
H121 C108 0.928 . S
H122 C107 0.929 . S
H123 C105 0.932 . S
C124 C125 1.386 . S
C124 C126 1.397 . S
C124 H148 0.931 . S
C125 C124 1.386 . S
C125 C129 1.397 . S
C126 C124 1.397 . S
C126 C127 1.384 . S
C126 H149 0.930 . S
C127 C126 1.384 . S
C127 C128 1.377 . S
C127 C130 1.481 . S
C128 C127 1.377 . S
C128 C129 1.389 . S
C128 H150 0.929 . S
C129 C125 1.397 . S
C129 C128 1.389 . S
C129 H151 0.931 . S
C130 C127 1.481 . S
C130 C131 1.387 . S
C130 C135 1.390 . S
C131 C130 1.387 . S
C131 C132 1.401 . S
C131 H152 0.930 . S
C132 C131 1.401 . S
C132 C133 1.376 . S
C132 C141 1.511 . S
C133 C132 1.376 . S
C133 C134 1.392 . S
C133 H154 0.931 . S
C134 C133 1.392 . S
C134 C135 1.361 . S
C134 C136 1.500 . S
C135 C130 1.390 . S
C135 C134 1.361 . S
C135 H153 0.931 . S
C136 C134 1.500 . S
C136 C137 1.371 . S
C136 C138 1.365 . S
C137 C136 1.371 . S
C137 C147 1.386 . S
C137 H155 0.931 . S
C138 C136 1.365 . S
C138 C139 1.409 . S
C138 H156 0.929 . S
C139 C138 1.409 . S
C139 C140 1.380 . S
C139 H157 0.930 . S
C140 C139 1.380 . S
C140 C147 1.357 . S
C141 C132 1.511 . S
C141 C142 1.341 . S
C141 C143 1.371 . S
C142 C141 1.341 . S
C142 C146 1.394 . S
C142 H158 0.930 . S
C143 C141 1.371 . S
C143 C144 1.392 . S
C143 H159 0.931 . S
C144 C143 1.392 . S
C144 C145 1.331 . S
C144 H162 0.932 . S
C145 C144 1.331 . S
C145 C146 1.336 . S
C146 C142 1.394 . S
C146 C145 1.336 . S
C146 H161 0.929 . S
C147 C137 1.386 . S
C147 C140 1.357 . S
C147 H160 0.928 . S
H148 C124 0.931 . S
H149 C126 0.930 . S
H150 C128 0.929 . S
H151 C129 0.931 . S
H152 C131 0.930 . S
H153 C135 0.931 . S
H154 C133 0.931 . S
H155 C137 0.931 . S
H156 C138 0.929 . S
H157 C139 0.930 . S
H158 C142 0.930 . S
H159 C143 0.931 . S
H160 C147 0.928 . S
H161 C146 0.929 . S
H162 C144 0.932 . S
C163 C164 1.386 . S
C163 C165 1.397 . S
C163 H187 0.931 . S
C164 C163 1.386 . S
C164 C168 1.397 . S
C165 C163 1.397 . S
C165 C166 1.384 . S
C165 H188 0.930 . S
C166 C165 1.384 . S
C166 C167 1.377 . S
C166 C169 1.481 . S
C167 C166 1.377 . S
C167 C168 1.389 . S
C167 H189 0.929 . S
C168 C164 1.397 . S
C168 C167 1.389 . S
C168 H190 0.931 . S
C169 C166 1.481 . S
C169 C170 1.387 . S
C169 C174 1.390 . S
C170 C169 1.387 . S
C170 C171 1.401 . S
C170 H191 0.930 . S
C171 C170 1.401 . S
C171 C172 1.376 . S
C171 C180 1.511 . S
C172 C171 1.376 . S
C172 C173 1.392 . S
C172 H193 0.931 . S
C173 C172 1.392 . S
C173 C174 1.361 . S
C173 C175 1.500 . S
C174 C169 1.390 . S
C174 C173 1.361 . S
C174 H192 0.931 . S
C175 C173 1.500 . S
C175 C176 1.371 . S
C175 C177 1.365 . S
C176 C175 1.371 . S
C176 C186 1.386 . S
C176 H194 0.931 . S
C177 C175 1.365 . S
C177 C178 1.409 . S
C177 H195 0.929 . S
C178 C177 1.409 . S
C178 C179 1.380 . S
C178 H196 0.930 . S
C179 C178 1.380 . S
C179 C186 1.357 . S
C180 C171 1.511 . S
C180 C181 1.341 . S
C180 C182 1.371 . S
C181 C180 1.341 . S
C181 C185 1.394 . S
C181 H197 0.930 . S
C182 C180 1.371 . S
C182 C183 1.392 . S
C182 H198 0.931 . S
C183 C182 1.392 . S
C183 C184 1.331 . S
C183 H201 0.932 . S
C184 C183 1.331 . S
C184 C185 1.336 . S
C185 C181 1.394 . S
C185 C184 1.336 . S
C185 H200 0.929 . S
C186 C176 1.386 . S
C186 C179 1.357 . S
C186 H199 0.928 . S
H187 C163 0.931 . S
H188 C165 0.930 . S
H189 C167 0.929 . S
H190 C168 0.931 . S
H191 C170 0.930 . S
H192 C174 0.931 . S
H193 C172 0.931 . S
H194 C176 0.931 . S
H195 C177 0.929 . S
H196 C178 0.930 . S
H197 C181 0.930 . S
H198 C182 0.931 . S
H199 C186 0.928 . S
H200 C185 0.929 . S
H201 C183 0.932 . S
H202 C220 0.951 . S
H203 C222 0.951 . S
H204 C224 0.950 . S
H205 C225 0.950 . S
H206 C227 0.950 . S
H207 C230 0.950 . S
H208 C231 0.950 . S
H209 C233 0.950 . S
H210 C234 0.950 . S
H211 C235 0.951 . S
H212 C237 0.951 . S
H213 C239 0.950 . S
H214 C240 0.950 . S
H215 C242 0.950 . S
H216 C245 0.950 . S
H217 C246 0.950 . S
H218 C248 0.950 . S
H219 C249 0.950 . S
C220 H202 0.951 . S
C220 C221 1.366 . S
C220 C222 1.388 . S
C221 C220 1.366 . S
C221 C225 1.385 . S
C222 H203 0.951 . S
C222 C220 1.388 . S
C222 C223 1.366 . S
C223 C222 1.366 . S
C223 C224 1.414 . S
C223 C226 1.499 . S
C224 H204 0.950 . S
C224 C223 1.414 . S
C224 C225 1.374 . S
C225 H205 0.950 . S
C225 C221 1.385 . S
C225 C224 1.374 . S
C226 C223 1.499 . S
C226 C227 1.373 . S
C226 C228 1.389 . S
C227 H206 0.950 . S
C227 C226 1.373 . S
C227 C243 1.377 . S
C228 C226 1.389 . S
C228 C229 1.524 . S
C228 C242 1.377 . S
C229 C228 1.524 . S
C229 C230 1.397 . S
C229 C234 1.363 . S
C230 H207 0.950 . S
C230 C229 1.397 . S
C230 C231 1.334 . S
C231 H208 0.950 . S
C231 C230 1.334 . S
C231 C232 1.287 . S
C232 C231 1.287 . S
C232 C233 1.524 . S
C232 H251 0.913 . S
C233 H209 0.950 . S
C233 C232 1.524 . S
C233 C234 1.415 . S
C234 H210 0.950 . S
C234 C229 1.363 . S
C234 C233 1.415 . S
C235 H211 0.951 . S
C235 C236 1.366 . S
C235 C237 1.388 . S
C236 C235 1.366 . S
C236 C240 1.385 . S
C237 H212 0.951 . S
C237 C235 1.388 . S
C237 C238 1.366 . S
C238 C237 1.366 . S
C238 C239 1.414 . S
C238 C241 1.499 . S
C239 H213 0.950 . S
C239 C238 1.414 . S
C239 C240 1.374 . S
C240 H214 0.950 . S
C240 C236 1.385 . S
C240 C239 1.374 . S
C241 C238 1.499 . S
C241 C242 1.373 . S
C241 C243 1.389 . S
C242 H215 0.950 . S
C242 C228 1.377 . S
C242 C241 1.373 . S
C243 C227 1.377 . S
C243 C241 1.389 . S
C243 C244 1.524 . S
C244 C243 1.524 . S
C244 C245 1.397 . S
C244 C249 1.363 . S
C245 H216 0.950 . S
C245 C244 1.397 . S
C245 C246 1.334 . S
C246 H217 0.950 . S
C246 C245 1.334 . S
C246 C247 1.287 . S
C247 C246 1.287 . S
C247 C248 1.524 . S
C247 H250 0.999 . S
C248 H218 0.950 . S
C248 C247 1.524 . S
C248 C249 1.415 . S
C249 H219 0.950 . S
C249 C244 1.363 . S
C249 C248 1.415 . S
H250 C247 0.999 . S
H251 C232 0.913 . S
H252 C270 0.951 . S
H253 C272 0.951 . S
H254 C274 0.950 . S
H255 C275 0.950 . S
H256 C277 0.950 . S
H257 C280 0.950 . S
H258 C281 0.950 . S
H259 C283 0.950 . S
H260 C284 0.926 1_554 S
H261 C285 0.951 . S
H262 C287 0.951 . S
H263 C289 0.950 . S
H264 C290 0.950 . S
H265 C292 0.950 . S
H266 C295 0.950 . S
H267 C296 0.950 . S
H268 C298 0.950 . S
H269 C299 0.950 . S
C270 H252 0.951 . S
C270 C271 1.366 1_554 S
C270 C272 1.388 . S
C271 C270 1.366 1_556 S
C271 C275 1.385 . S
C272 H253 0.951 . S
C272 C270 1.388 . S
C272 C273 1.366 1_554 S
C273 C272 1.366 1_556 S
C273 C274 1.414 . S
C273 C276 1.499 . S
C274 H254 0.950 . S
C274 C273 1.414 . S
C274 C275 1.374 . S
C275 H255 0.950 . S
C275 C271 1.385 . S
C275 C274 1.374 . S
C276 C273 1.499 . S
C276 C277 1.373 . S
C276 C278 1.389 . S
C277 H256 0.950 . S
C277 C276 1.373 . S
C277 C293 1.377 . S
C278 C276 1.389 . S
C278 C279 1.524 . S
C278 C292 1.377 . S
C279 C278 1.524 . S
C279 C280 1.397 . S
C279 C284 1.394 . S
C280 H257 0.950 . S
C280 C279 1.397 . S
C280 C281 1.334 . S
C281 H258 0.950 . S
C281 C280 1.334 . S
C281 C282 1.287 . S
C282 C281 1.287 . S
C282 C283 1.524 1_556 S
C282 H301 0.913 . S
C283 H259 0.950 . S
C283 C282 1.524 1_554 S
C283 C284 1.410 1_554 S
C284 H260 0.926 1_556 S
C284 C279 1.394 . S
C284 C283 1.410 1_556 S
C285 H261 0.951 . S
C285 C286 1.366 . S
C285 C287 1.388 . S
C286 C285 1.366 . S
C286 C290 1.385 . S
C287 H262 0.951 . S
C287 C285 1.388 . S
C287 C288 1.366 . S
C288 C287 1.366 . S
C288 C289 1.414 . S
C288 C291 1.499 . S
C289 H263 0.950 . S
C289 C288 1.414 . S
C289 C290 1.374 . S
C290 H264 0.950 . S
C290 C286 1.385 . S
C290 C289 1.374 . S
C291 C288 1.499 . S
C291 C292 1.373 . S
C291 C293 1.389 . S
C292 H265 0.950 . S
C292 C278 1.377 . S
C292 C291 1.373 . S
C293 C277 1.377 . S
C293 C291 1.389 . S
C293 C294 1.524 . S
C294 C293 1.524 . S
C294 C295 1.397 . S
C294 C299 1.363 . S
C295 H266 0.950 . S
C295 C294 1.397 . S
C295 C296 1.334 . S
C296 H267 0.950 . S
C296 C295 1.334 . S
C296 C297 1.287 . S
C297 C296 1.287 . S
C297 C298 1.524 . S
C297 H300 0.999 . S
C298 H268 0.950 . S
C298 C297 1.524 . S
C298 C299 1.415 . S
C299 H269 0.950 . S
C299 C294 1.363 . S
C299 C298 1.415 . S
H300 C297 0.999 . S
H301 C282 0.913 . S
H302 C320 0.951 . S
H303 C322 0.951 . S
H304 C324 0.950 . S
H305 C325 0.950 . S
H306 C327 0.950 . S
H307 C330 0.950 . S
H308 C331 0.950 . S
H309 C333 0.950 . S
H310 C334 0.950 . S
H311 C335 0.951 . S
H312 C337 0.951 . S
H313 C339 0.950 . S
H314 C340 0.950 . S
H315 C342 0.950 . S
H316 C345 0.950 . S
H317 C346 0.950 . S
H318 C348 0.950 . S
H319 C349 0.950 1_554 S
C320 H302 0.951 . S
C320 C321 1.366 . S
C320 C322 1.388 . S
C321 C320 1.366 . S
C321 C325 1.385 . S
C322 H303 0.951 . S
C322 C320 1.388 . S
C322 C323 1.366 . S
C323 C322 1.366 . S
C323 C324 1.414 . S
C323 C326 1.499 . S
C324 H304 0.950 . S
C324 C323 1.414 . S
C324 C325 1.374 . S
C325 H305 0.950 . S
C325 C321 1.385 . S
C325 C324 1.374 . S
C326 C323 1.499 . S
C326 C327 1.373 . S
C326 C328 1.389 . S
C327 H306 0.950 . S
C327 C326 1.373 . S
C327 C343 1.377 . S
C328 C326 1.389 . S
C328 C329 1.524 . S
C328 C342 1.377 . S
C329 C328 1.524 . S
C329 C330 1.397 . S
C329 C334 1.363 . S
C330 H307 0.950 . S
C330 C329 1.397 . S
C330 C331 1.334 . S
C331 H308 0.950 . S
C331 C330 1.334 . S
C331 C332 1.287 . S
C332 C331 1.287 . S
C332 C333 1.524 . S
C332 H351 0.913 . S
C333 H309 0.950 . S
C333 C332 1.524 . S
C333 C334 1.415 . S
C334 H310 0.950 . S
C334 C329 1.363 . S
C334 C333 1.415 . S
C335 H311 0.951 . S
C335 C336 1.366 . S
C335 C337 1.388 . S
C336 C335 1.366 . S
C336 C340 1.385 . S
C337 H312 0.951 . S
C337 C335 1.388 . S
C337 C338 1.366 . S
C338 C337 1.366 . S
C338 C339 1.414 . S
C338 C341 1.499 . S
C339 H313 0.950 . S
C339 C338 1.414 . S
C339 C340 1.374 . S
C340 H314 0.950 . S
C340 C336 1.385 . S
C340 C339 1.374 . S
C341 C338 1.499 . S
C341 C342 1.373 . S
C341 C343 1.389 . S
C342 H315 0.950 . S
C342 C328 1.377 . S
C342 C341 1.373 . S
C343 C327 1.377 . S
C343 C341 1.389 . S
C343 C344 1.524 . S
C344 C343 1.524 . S
C344 C345 1.397 . S
C344 C349 1.363 1_554 S
C345 H316 0.950 . S
C345 C344 1.397 . S
C345 C346 1.334 1_554 S
C346 H317 0.950 . S
C346 C345 1.334 1_556 S
C346 C347 1.287 . S
C347 C346 1.287 . S
C347 C348 1.524 . S
C347 H350 0.999 . S
C348 H318 0.950 . S
C348 C347 1.524 . S
C348 C349 1.415 . S
C349 H319 0.950 1_556 S
C349 C344 1.363 1_556 S
C349 C348 1.415 . S
H350 C347 0.999 . S
H351 C332 0.913 . S
H352 C370 0.951 . S
H353 C372 0.951 . S
H354 C374 0.950 . S
H355 C375 0.950 . S
H356 C377 0.950 1_554 S
H357 C380 0.950 . S
H358 C381 0.950 . S
H359 C383 0.950 . S
H360 C384 0.950 . S
H361 C385 0.951 . S
H362 C387 0.951 . S
H363 C389 0.950 . S
H364 C390 0.950 . S
H365 C392 0.950 . S
H366 C395 0.950 1_556 S
H367 C396 0.950 . S
H368 C398 0.950 . S
H369 C399 0.950 . S
C370 H352 0.951 . S
C370 C371 1.366 . S
C370 C372 1.388 . S
C371 C370 1.366 . S
C371 C375 1.385 1_556 S
C372 H353 0.951 . S
C372 C370 1.388 . S
C372 C373 1.366 . S
C373 C372 1.366 . S
C373 C374 1.414 1_556 S
C373 C376 1.499 . S
C374 H354 0.950 . S
C374 C373 1.414 1_554 S
C374 C375 1.374 . S
C375 H355 0.950 . S
C375 C371 1.385 1_554 S
C375 C374 1.374 . S
C376 C373 1.499 . S
C376 C377 1.373 . S
C376 C378 1.389 . S
C377 H356 0.950 1_556 S
C377 C376 1.373 . S
C377 C393 1.377 . S
C378 C376 1.389 . S
C378 C379 1.524 . S
C378 C392 1.377 . S
C379 C378 1.524 . S
C379 C380 1.397 . S
C379 C384 1.363 . S
C380 H357 0.950 . S
C380 C379 1.397 . S
C380 C381 1.334 . S
C381 H358 0.950 . S
C381 C380 1.334 . S
C381 C382 1.287 . S
C382 C381 1.287 . S
C382 C383 1.524 . S
C382 H401 0.913 . S
C383 H359 0.950 . S
C383 C382 1.524 . S
C383 C384 1.415 . S
C384 H360 0.950 . S
C384 C379 1.363 . S
C384 C383 1.415 . S
C385 H361 0.951 . S
C385 C386 1.366 . S
C385 C387 1.388 . S
C386 C385 1.366 . S
C386 C390 1.385 . S
C387 H362 0.951 . S
C387 C385 1.388 . S
C387 C388 1.366 . S
C388 C387 1.366 . S
C388 C389 1.414 . S
C388 C391 1.499 . S
C389 H363 0.950 . S
C389 C388 1.414 . S
C389 C390 1.374 . S
C390 H364 0.950 . S
C390 C386 1.385 . S
C390 C389 1.374 . S
C391 C388 1.499 . S
C391 C392 1.373 . S
C391 C393 1.389 . S
C392 H365 0.950 . S
C392 C378 1.377 . S
C392 C391 1.373 . S
C393 C377 1.377 . S
C393 C391 1.389 . S
C393 C394 1.524 1_556 S
C394 C393 1.524 1_554 S
C394 C395 1.397 . S
C394 C399 1.363 . S
C395 H366 0.950 1_554 S
C395 C394 1.397 . S
C395 C396 1.334 . S
C396 H367 0.950 . S
C396 C395 1.334 . S
C396 C397 1.287 . S
C397 C396 1.287 . S
C397 C398 1.524 . S
C397 H400 0.999 . S
C398 H368 0.950 . S
C398 C397 1.524 . S
C398 C399 1.415 . S
C399 H369 0.950 . S
C399 C394 1.363 . S
C399 C398 1.415 . S
H400 C397 0.999 . S
H401 C382 0.913 . S
H402 C420 0.951 . S
H403 C422 0.951 . S
H404 C424 0.950 . S
H405 C425 0.950 . S
H406 C427 0.950 . S
H407 C430 0.950 . S
H408 C431 0.950 . S
H409 C433 0.950 . S
H410 C434 0.950 . S
H411 C435 0.951 . S
H412 C437 0.951 . S
H413 C439 0.950 . S
H414 C440 0.950 . S
H415 C442 0.950 . S
H416 C445 0.950 . S
H417 C446 0.950 . S
H418 C448 0.950 . S
H419 C449 0.950 . S
C420 H402 0.951 . S
C420 C421 1.366 . S
C420 C422 1.388 . S
C421 C420 1.366 . S
C421 C425 1.385 . S
C422 H403 0.951 . S
C422 C420 1.388 . S
C422 C423 1.366 . S
C423 C422 1.366 . S
C423 C424 1.414 . S
C423 C426 1.499 . S
C424 H404 0.950 . S
C424 C423 1.414 . S
C424 C425 1.374 . S
C425 H405 0.950 . S
C425 C421 1.385 . S
C425 C424 1.374 . S
C426 C423 1.499 . S
C426 C427 1.373 . S
C426 C428 1.389 . S
C427 H406 0.950 . S
C427 C426 1.373 . S
C427 C443 1.377 . S
C428 C426 1.389 . S
C428 C429 1.524 . S
C428 C442 1.377 . S
C429 C428 1.524 . S
C429 C430 1.397 . S
C429 C434 1.363 . S
C430 H407 0.950 . S
C430 C429 1.397 . S
C430 C431 1.334 . S
C431 H408 0.950 . S
C431 C430 1.334 . S
C431 C432 1.287 . S
C432 C431 1.287 . S
C432 C433 1.524 . S
C432 H451 0.913 . S
C433 H409 0.950 . S
C433 C432 1.524 . S
C433 C434 1.415 . S
C434 H410 0.950 . S
C434 C429 1.363 . S
C434 C433 1.415 . S
C435 H411 0.951 . S
C435 C436 1.366 . S
C435 C437 1.388 . S
C436 C435 1.366 . S
C436 C440 1.385 . S
C437 H412 0.951 . S
C437 C435 1.388 . S
C437 C438 1.366 . S
C438 C437 1.366 . S
C438 C439 1.414 . S
C438 C441 1.499 . S
C439 H413 0.950 . S
C439 C438 1.414 . S
C439 C440 1.374 . S
C440 H414 0.950 . S
C440 C436 1.385 . S
C440 C439 1.374 . S
C441 C438 1.499 . S
C441 C442 1.373 . S
C441 C443 1.389 . S
C442 H415 0.950 . S
C442 C428 1.377 . S
C442 C441 1.373 . S
C443 C427 1.377 . S
C443 C441 1.389 . S
C443 C444 1.524 . S
C444 C443 1.524 . S
C444 C445 1.397 . S
C444 C449 1.363 . S
C445 H416 0.950 . S
C445 C444 1.397 . S
C445 C446 1.334 . S
C446 H417 0.950 . S
C446 C445 1.334 . S
C446 C447 1.287 . S
C447 C446 1.287 . S
C447 C448 1.524 . S
C447 H450 0.999 . S
C448 H418 0.950 . S
C448 C447 1.524 . S
C448 C449 1.415 . S
C449 H419 0.950 . S
C449 C444 1.363 . S
C449 C448 1.415 . S
H450 C447 0.999 . S
H451 C432 0.913 . S
H452 C470 0.951 . S
H453 C472 0.951 . S
H454 C474 0.950 . S
H455 C475 0.950 . S
H456 C477 0.950 . S
H457 C480 0.950 . S
H458 C481 0.950 . S
H459 C483 0.950 . S
H460 C484 0.950 . S
H461 C485 0.951 . S
H462 C487 0.951 . S
H463 C489 0.950 . S
H464 C490 0.950 . S
H465 C492 0.950 . S
H466 C495 0.950 . S
H467 C496 0.950 . S
H468 C498 0.950 . S
H469 C499 0.950 . S
C470 H452 0.951 . S
C470 C471 1.366 . S
C470 C472 1.388 . S
C471 C470 1.366 . S
C471 C475 1.385 . S
C472 H453 0.951 . S
C472 C470 1.388 . S
C472 C473 1.366 . S
C473 C472 1.366 . S
C473 C474 1.414 . S
C473 C476 1.499 . S
C474 H454 0.950 . S
C474 C473 1.414 . S
C474 C475 1.374 . S
C475 H455 0.950 . S
C475 C471 1.385 . S
C475 C474 1.374 . S
C476 C473 1.499 . S
C476 C477 1.373 . S
C476 C478 1.389 . S
C477 H456 0.950 . S
C477 C476 1.373 . S
C477 C493 1.377 . S
C478 C476 1.389 . S
C478 C479 1.524 . S
C478 C492 1.377 . S
C479 C478 1.524 . S
C479 C480 1.397 . S
C479 C484 1.363 . S
C480 H457 0.950 . S
C480 C479 1.397 . S
C480 C481 1.334 . S
C481 H458 0.950 . S
C481 C480 1.334 . S
C481 C482 1.287 . S
C482 C481 1.287 . S
C482 C483 1.524 . S
C482 H501 0.913 . S
C483 H459 0.950 . S
C483 C482 1.524 . S
C483 C484 1.415 . S
C484 H460 0.950 . S
C484 C479 1.363 . S
C484 C483 1.415 . S
C485 H461 0.951 . S
C485 C486 1.366 . S
C485 C487 1.388 . S
C486 C485 1.366 . S
C486 C490 1.385 . S
C487 H462 0.951 . S
C487 C485 1.388 . S
C487 C488 1.366 . S
C488 C487 1.366 . S
C488 C489 1.414 . S
C488 C491 1.499 . S
C489 H463 0.950 . S
C489 C488 1.414 . S
C489 C490 1.374 . S
C490 H464 0.950 . S
C490 C486 1.385 . S
C490 C489 1.374 . S
C491 C488 1.499 . S
C491 C492 1.373 . S
C491 C493 1.389 . S
C492 H465 0.950 . S
C492 C478 1.377 . S
C492 C491 1.373 . S
C493 C477 1.377 . S
C493 C491 1.389 . S
C493 C494 1.524 . S
C494 C493 1.524 . S
C494 C495 1.397 . S
C494 C499 1.363 . S
C495 H466 0.950 . S
C495 C494 1.397 . S
C495 C496 1.334 . S
C496 H467 0.950 . S
C496 C495 1.334 . S
C496 C497 1.287 . S
C497 C496 1.287 . S
C497 C498 1.524 . S
C497 H500 0.999 . S
C498 H468 0.950 . S
C498 C497 1.524 . S
C498 C499 1.415 . S
C499 H469 0.950 . S
C499 C494 1.363 . S
C499 C498 1.415 . S
H500 C497 0.999 . S
H501 C482 0.913 . S
H502 C520 0.951 . S
H503 C522 0.951 . S
H504 C524 0.950 . S
H505 C525 0.950 . S
H506 C527 0.950 . S
H507 C530 0.950 . S
H508 C531 0.950 . S
H509 C533 0.950 . S
H510 C534 0.950 . S
H511 C535 0.951 . S
H512 C537 0.951 . S
H513 C539 0.950 . S
H514 C540 0.950 . S
H515 C542 0.950 . S
H516 C545 0.950 . S
H517 C546 0.950 . S
H518 C548 0.950 . S
H519 C549 0.950 . S
C520 H502 0.951 . S
C520 C521 1.366 . S
C520 C522 1.388 . S
C521 C520 1.366 . S
C521 C525 1.385 . S
C522 H503 0.951 . S
C522 C520 1.388 . S
C522 C523 1.366 . S
C523 C522 1.366 . S
C523 C524 1.414 . S
C523 C526 1.499 . S
C524 H504 0.950 . S
C524 C523 1.414 . S
C524 C525 1.374 . S
C525 H505 0.950 . S
C525 C521 1.385 . S
C525 C524 1.374 . S
C526 C523 1.499 . S
C526 C527 1.373 . S
C526 C528 1.389 . S
C527 H506 0.950 . S
C527 C526 1.373 . S
C527 C543 1.377 . S
C528 C526 1.389 . S
C528 C529 1.524 . S
C528 C542 1.377 . S
C529 C528 1.524 . S
C529 C530 1.397 . S
C529 C534 1.363 . S
C530 H507 0.950 . S
C530 C529 1.397 . S
C530 C531 1.334 . S
C531 H508 0.950 . S
C531 C530 1.334 . S
C531 C532 1.287 . S
C532 C531 1.287 . S
C532 C533 1.524 . S
C532 H551 0.913 . S
C533 H509 0.950 . S
C533 C532 1.524 . S
C533 C534 1.415 . S
C534 H510 0.950 . S
C534 C529 1.363 . S
C534 C533 1.415 . S
C535 H511 0.951 . S
C535 C536 1.366 . S
C535 C537 1.388 . S
C536 C535 1.366 . S
C536 C540 1.385 . S
C537 H512 0.951 . S
C537 C535 1.388 . S
C537 C538 1.366 . S
C538 C537 1.366 . S
C538 C539 1.414 . S
C538 C541 1.499 . S
C539 H513 0.950 . S
C539 C538 1.414 . S
C539 C540 1.374 . S
C540 H514 0.950 . S
C540 C536 1.385 . S
C540 C539 1.374 . S
C541 C538 1.499 . S
C541 C542 1.373 . S
C541 C543 1.389 . S
C542 H515 0.950 . S
C542 C528 1.377 . S
C542 C541 1.373 . S
C543 C527 1.377 . S
C543 C541 1.389 . S
C543 C544 1.524 . S
C544 C543 1.524 . S
C544 C545 1.397 . S
C544 C549 1.363 . S
C545 H516 0.950 . S
C545 C544 1.397 . S
C545 C546 1.334 . S
C546 H517 0.950 . S
C546 C545 1.334 . S
C546 C547 1.287 . S
C547 C546 1.287 . S
C547 C548 1.524 . S
C547 H550 0.999 . S
C548 H518 0.950 . S
C548 C547 1.524 . S
C548 C549 1.415 . S
C549 H519 0.950 . S
C549 C544 1.363 . S
C549 C548 1.415 . S
H550 C547 0.999 . S
H551 C532 0.913 . S
H552 C570 0.951 . S
H553 C572 0.951 . S
H554 C574 0.950 . S
H555 C575 0.950 . S
H556 C577 0.950 . S
H557 C580 0.950 . S
H558 C581 0.950 . S
H559 C583 0.950 . S
H560 C584 0.950 . S
H561 C585 0.951 . S
H562 C587 0.951 . S
H563 C589 0.950 . S
H564 C590 0.950 . S
H565 C592 0.950 . S
H566 C595 0.950 . S
H567 C596 0.950 . S
H568 C598 0.950 . S
H569 C599 0.950 . S
C570 H552 0.951 . S
C570 C571 1.366 . S
C570 C572 1.388 . S
C571 C570 1.366 . S
C571 C575 1.385 . S
C572 H553 0.951 . S
C572 C570 1.388 . S
C572 C573 1.366 . S
C573 C572 1.366 . S
C573 C574 1.414 . S
C573 C576 1.499 . S
C574 H554 0.950 . S
C574 C573 1.414 . S
C574 C575 1.374 . S
C575 H555 0.950 . S
C575 C571 1.385 . S
C575 C574 1.374 . S
C576 C573 1.499 . S
C576 C577 1.373 . S
C576 C578 1.389 . S
C577 H556 0.950 . S
C577 C576 1.373 . S
C577 C593 1.377 . S
C578 C576 1.389 . S
C578 C579 1.524 . S
C578 C592 1.377 . S
C579 C578 1.524 . S
C579 C580 1.397 . S
C579 C584 1.363 . S
C580 H557 0.950 . S
C580 C579 1.397 . S
C580 C581 1.334 . S
C581 H558 0.950 . S
C581 C580 1.334 . S
C581 C582 1.287 . S
C582 C581 1.287 . S
C582 C583 1.524 . S
C582 H601 0.913 . S
C583 H559 0.950 . S
C583 C582 1.524 . S
C583 C584 1.415 . S
C584 H560 0.950 . S
C584 C579 1.363 . S
C584 C583 1.415 . S
C585 H561 0.951 . S
C585 C586 1.366 . S
C585 C587 1.388 . S
C586 C585 1.366 . S
C586 C590 1.385 . S
C587 H562 0.951 . S
C587 C585 1.388 . S
C587 C588 1.366 . S
C588 C587 1.366 . S
C588 C589 1.414 . S
C588 C591 1.499 . S
C589 H563 0.950 . S
C589 C588 1.414 . S
C589 C590 1.374 . S
C590 H564 0.950 . S
C590 C586 1.385 . S
C590 C589 1.374 . S
C591 C588 1.499 . S
C591 C592 1.373 . S
C591 C593 1.389 . S
C592 H565 0.950 . S
C592 C578 1.377 . S
C592 C591 1.373 . S
C593 C577 1.377 . S
C593 C591 1.389 . S
C593 C594 1.524 . S
C594 C593 1.524 . S
C594 C595 1.397 . S
C594 C599 1.363 . S
C595 H566 0.950 . S
C595 C594 1.397 . S
C595 C596 1.334 . S
C596 H567 0.950 . S
C596 C595 1.334 . S
C596 C597 1.287 . S
C597 C596 1.287 . S
C597 C598 1.524 . S
C597 H600 0.999 . S
C598 H568 0.950 . S
C598 C597 1.524 . S
C598 C599 1.415 . S
C599 H569 0.950 . S
C599 C594 1.363 . S
C599 C598 1.415 . S
H600 C597 0.999 . S
H601 C582 0.913 . S
H602 C620 0.951 . S
H603 C622 0.951 . S
H604 C624 0.950 . S
H605 C625 0.950 . S
H606 C627 0.950 . S
H607 C630 0.950 . S
H608 C631 0.950 . S
H609 C633 0.950 . S
H610 C634 0.950 . S
H611 C635 0.951 . S
H612 C637 0.951 . S
H613 C639 0.950 . S
H614 C640 0.950 . S
H615 C642 0.950 . S
H616 C645 0.950 . S
H617 C646 0.950 . S
H618 C648 0.950 . S
H619 C649 0.950 . S
C620 H602 0.951 . S
C620 C621 1.366 1_655 S
C620 C622 1.388 . S
C621 C620 1.366 1_455 S
C621 C625 1.385 1_545 S
C622 H603 0.951 . S
C622 C620 1.388 . S
C622 C623 1.366 1_655 S
C623 C622 1.366 1_455 S
C623 C624 1.414 1_545 S
C623 C626 1.499 . S
C624 H604 0.950 . S
C624 C623 1.414 1_565 S
C624 C625 1.374 . S
C625 H605 0.950 . S
C625 C621 1.385 1_565 S
C625 C624 1.374 . S
C626 C623 1.499 . S
C626 C627 1.373 1_445 S
C626 C628 1.389 . S
C627 H606 0.950 . S
C627 C626 1.373 1_665 S
C627 C643 1.377 . S
C628 C626 1.389 . S
C628 C629 1.524 . S
C628 C642 1.377 . S
C629 C628 1.524 . S
C629 C630 1.397 . S
C629 C634 1.363 . S
C630 H607 0.950 . S
C630 C629 1.397 . S
C630 C631 1.334 . S
C631 H608 0.950 . S
C631 C630 1.334 . S
C631 C632 1.287 . S
C632 C631 1.287 . S
C632 C633 1.524 . S
C632 H651 0.913 . S
C633 H609 0.950 . S
C633 C632 1.524 . S
C633 C634 1.415 . S
C634 H610 0.950 . S
C634 C629 1.363 . S
C634 C633 1.415 . S
C635 H611 0.951 . S
C635 C636 1.348 1_565 S
C635 C637 1.388 . S
C636 C635 1.348 1_545 S
C636 C640 1.403 1_455 S
C637 H612 0.951 . S
C637 C635 1.388 . S
C637 C638 1.363 1_465 S
C638 C637 1.363 1_645 S
C638 C639 1.416 . S
C638 C641 1.499 1_655 S
C639 H613 0.950 . S
C639 C638 1.416 . S
C639 C640 1.374 . S
C640 H614 0.950 . S
C640 C636 1.403 1_655 S
C640 C639 1.374 . S
C641 C638 1.499 1_455 S
C641 C642 1.372 . S
C641 C643 1.390 1_445 S
C642 H615 0.950 . S
C642 C628 1.377 . S
C642 C641 1.372 . S
C643 C627 1.377 . S
C643 C641 1.390 1_665 S
C643 C644 1.524 . S
C644 C643 1.524 . S
C644 C645 1.397 . S
C644 C649 1.363 . S
C645 H616 0.950 . S
C645 C644 1.397 . S
C645 C646 1.334 . S
C646 H617 0.950 . S
C646 C645 1.334 . S
C646 C647 1.287 . S
C647 C646 1.287 . S
C647 C648 1.524 . S
C647 H650 0.999 . S
C648 H618 0.950 . S
C648 C647 1.524 . S
C648 C649 1.415 . S
C649 H619 0.950 . S
C649 C644 1.363 . S
C649 C648 1.415 . S
H650 C647 0.999 . S
H651 C632 0.913 . S
H652 C670 0.951 . S
H653 C672 0.951 . S
H654 C674 0.950 . S
H655 C675 0.950 . S
H656 C677 0.950 . S
H657 C680 0.950 . S
H658 C681 0.950 1_565 S
H659 C683 0.950 . S
H660 C684 0.950 . S
H661 C685 0.951 . S
H662 C687 0.951 . S
H663 C689 0.950 1_655 S
H664 C690 0.950 1_655 S
H665 C692 0.950 . S
H666 C695 0.950 . S
H667 C696 0.950 . S
H668 C698 0.950 . S
H669 C699 0.950 . S
C670 H652 0.951 . S
C670 C671 1.366 1_655 S
C670 C672 1.388 . S
C671 C670 1.366 1_455 S
C671 C675 1.385 1_545 S
C672 H653 0.951 . S
C672 C670 1.388 . S
C672 C673 1.366 1_655 S
C673 C672 1.366 1_455 S
C673 C674 1.414 1_545 S
C673 C676 1.499 . S
C674 H654 0.950 . S
C674 C673 1.414 1_565 S
C674 C675 1.374 . S
C675 H655 0.950 . S
C675 C671 1.385 1_565 S
C675 C674 1.374 . S
C676 C673 1.499 . S
C676 C677 1.373 1_545 S
C676 C678 1.389 1_455 S
C677 H656 0.950 . S
C677 C676 1.373 1_565 S
C677 C693 1.377 . S
C678 C676 1.389 1_655 S
C678 C679 1.524 . S
C678 C692 1.377 . S
C679 C678 1.524 . S
C679 C680 1.397 1_545 S
C679 C684 1.363 . S
C680 H657 0.950 . S
C680 C679 1.397 1_565 S
C680 C681 1.334 1_565 S
C681 H658 0.950 1_545 S
C681 C680 1.334 1_545 S
C681 C682 1.287 . S
C682 C681 1.287 . S
C682 C683 1.524 . S
C682 H701 0.913 . S
C683 H659 0.950 . S
C683 C682 1.524 . S
C683 C684 1.415 . S
C684 H660 0.950 . S
C684 C679 1.363 . S
C684 C683 1.415 . S
C685 H661 0.951 . S
C685 C686 1.366 1_565 S
C685 C687 1.388 . S
C686 C685 1.366 1_545 S
C686 C690 1.385 . S
C687 H662 0.951 . S
C687 C685 1.388 . S
C687 C688 1.366 1_565 S
C688 C687 1.366 1_545 S
C688 C689 1.414 . S
C688 C691 1.499 . S
C689 H663 0.950 1_455 S
C689 C688 1.414 . S
C689 C690 1.374 . S
C690 H664 0.950 1_455 S
C690 C686 1.385 . S
C690 C689 1.374 . S
C691 C688 1.499 . S
C691 C692 1.373 1_455 S
C691 C693 1.389 1_545 S
C692 H665 0.950 . S
C692 C678 1.377 . S
C692 C691 1.373 1_655 S
C693 C677 1.377 . S
C693 C691 1.389 1_565 S
C693 C694 1.524 . S
C694 C693 1.524 . S
C694 C695 1.397 1_565 S
C694 C699 1.363 . S
C695 H666 0.950 . S
C695 C694 1.397 1_545 S
C695 C696 1.334 . S
C696 H667 0.950 . S
C696 C695 1.334 . S
C696 C697 1.287 1_545 S
C697 C696 1.287 1_565 S
C697 C698 1.524 . S
C697 H700 0.999 . S
C698 H668 0.950 . S
C698 C697 1.524 . S
C698 C699 1.415 . S
C699 H669 0.950 . S
C699 C694 1.363 . S
C699 C698 1.415 . S
H700 C697 0.999 . S
H701 C682 0.913 . S
H702 C720 0.951 . S
H703 C722 0.951 . S
H704 C724 0.950 . S
H705 C725 0.950 . S
H706 C727 0.950 . S
H707 C730 0.950 . S
H708 C731 0.950 . S
H709 C733 0.950 . S
H710 C734 0.950 . S
H711 C735 0.951 . S
H712 C737 0.951 . S
H713 C739 0.950 . S
H714 C740 0.950 . S
H715 C742 0.950 . S
H716 C745 0.950 . S
H717 C746 0.950 . S
H718 C748 0.950 . S
H719 C749 0.950 . S
C720 H702 0.951 . S
C720 C721 1.366 . S
C720 C722 1.388 . S
C721 C720 1.366 . S
C721 C725 1.385 . S
C722 H703 0.951 . S
C722 C720 1.388 . S
C722 C723 1.366 . S
C723 C722 1.366 . S
C723 C724 1.414 . S
C723 C726 1.499 . S
C724 H704 0.950 . S
C724 C723 1.414 . S
C724 C725 1.374 . S
C725 H705 0.950 . S
C725 C721 1.385 . S
C725 C724 1.374 . S
C726 C723 1.499 . S
C726 C727 1.373 . S
C726 C728 1.389 . S
C727 H706 0.950 . S
C727 C726 1.373 . S
C727 C743 1.377 . S
C728 C726 1.389 . S
C728 C729 1.524 . S
C728 C742 1.377 . S
C729 C728 1.524 . S
C729 C730 1.397 . S
C729 C734 1.363 . S
C730 H707 0.950 . S
C730 C729 1.397 . S
C730 C731 1.334 . S
C731 H708 0.950 . S
C731 C730 1.334 . S
C731 C732 1.287 . S
C732 C731 1.287 . S
C732 C733 1.524 . S
C732 H751 0.913 . S
C733 H709 0.950 . S
C733 C732 1.524 . S
C733 C734 1.415 . S
C734 H710 0.950 . S
C734 C729 1.363 . S
C734 C733 1.415 . S
C735 H711 0.951 . S
C735 C736 1.366 . S
C735 C737 1.388 . S
C736 C735 1.366 . S
C736 C740 1.385 . S
C737 H712 0.951 . S
C737 C735 1.388 . S
C737 C738 1.366 . S
C738 C737 1.366 . S
C738 C739 1.414 . S
C738 C741 1.499 . S
C739 H713 0.950 . S
C739 C738 1.414 . S
C739 C740 1.374 . S
C740 H714 0.950 . S
C740 C736 1.385 . S
C740 C739 1.374 . S
C741 C738 1.499 . S
C741 C742 1.373 . S
C741 C743 1.389 . S
C742 H715 0.950 . S
C742 C728 1.377 . S
C742 C741 1.373 . S
C743 C727 1.377 . S
C743 C741 1.389 . S
C743 C744 1.524 . S
C744 C743 1.524 . S
C744 C745 1.397 . S
C744 C749 1.363 . S
C745 H716 0.950 . S
C745 C744 1.397 . S
C745 C746 1.334 . S
C746 H717 0.950 . S
C746 C745 1.334 . S
C746 C747 1.287 . S
C747 C746 1.287 . S
C747 C748 1.524 . S
C747 H750 0.999 . S
C748 H718 0.950 . S
C748 C747 1.524 . S
C748 C749 1.415 . S
C749 H719 0.950 . S
C749 C744 1.363 . S
C749 C748 1.415 . S
H750 C747 0.999 . S
H751 C732 0.913 . S
H752 C770 0.951 . S
H753 C772 0.951 . S
H754 C774 0.950 . S
H755 C775 0.950 . S
H756 C777 0.950 . S
H757 C780 0.950 . S
H758 C781 0.950 . S
H759 C783 0.950 . S
H760 C784 0.950 . S
H761 C785 0.951 . S
H762 C787 0.951 . S
H763 C789 0.950 . S
H764 C790 0.950 . S
H765 C792 0.950 . S
H766 C795 0.950 . S
H767 C796 0.950 . S
H768 C798 0.950 . S
H769 C799 0.950 . S
C770 H752 0.951 . S
C770 C771 1.366 . S
C770 C772 1.388 . S
C771 C770 1.366 . S
C771 C775 1.385 . S
C772 H753 0.951 . S
C772 C770 1.388 . S
C772 C773 1.366 . S
C773 C772 1.366 . S
C773 C774 1.414 . S
C773 C776 1.499 . S
C774 H754 0.950 . S
C774 C773 1.414 . S
C774 C775 1.374 . S
C775 H755 0.950 . S
C775 C771 1.385 . S
C775 C774 1.374 . S
C776 C773 1.499 . S
C776 C777 1.373 . S
C776 C778 1.389 . S
C777 H756 0.950 . S
C777 C776 1.373 . S
C777 C793 1.377 . S
C778 C776 1.389 . S
C778 C779 1.524 . S
C778 C792 1.377 . S
C779 C778 1.524 . S
C779 C780 1.397 . S
C779 C784 1.363 . S
C780 H757 0.950 . S
C780 C779 1.397 . S
C780 C781 1.334 . S
C781 H758 0.950 . S
C781 C780 1.334 . S
C781 C782 1.287 . S
C782 C781 1.287 . S
C782 C783 1.524 . S
C782 H801 0.913 . S
C783 H759 0.950 . S
C783 C782 1.524 . S
C783 C784 1.415 . S
C784 H760 0.950 . S
C784 C779 1.363 . S
C784 C783 1.415 . S
C785 H761 0.951 . S
C785 C786 1.366 . S
C785 C787 1.388 . S
C786 C785 1.366 . S
C786 C790 1.385 . S
C787 H762 0.951 . S
C787 C785 1.388 . S
C787 C788 1.366 . S
C788 C787 1.366 . S
C788 C789 1.414 . S
C788 C791 1.499 . S
C789 H763 0.950 . S
C789 C788 1.414 . S
C789 C790 1.374 . S
C790 H764 0.950 . S
C790 C786 1.385 . S
C790 C789 1.374 . S
C791 C788 1.499 . S
C791 C792 1.373 . S
C791 C793 1.389 . S
C792 H765 0.950 . S
C792 C778 1.377 . S
C792 C791 1.373 . S
C793 C777 1.377 . S
C793 C791 1.389 . S
C793 C794 1.524 . S
C794 C793 1.524 . S
C794 C795 1.397 . S
C794 C799 1.363 . S
C795 H766 0.950 . S
C795 C794 1.397 . S
C795 C796 1.334 . S
C796 H767 0.950 . S
C796 C795 1.334 . S
C796 C797 1.287 . S
C797 C796 1.287 . S
C797 C798 1.524 . S
C797 H800 0.999 . S
C798 H768 0.950 . S
C798 C797 1.524 . S
C798 C799 1.415 . S
C799 H769 0.950 . S
C799 C794 1.363 . S
C799 C798 1.415 . S
H800 C797 0.999 . S
H801 C782 0.913 . S
C236 C179 1.412 . S
C221 C21 1.414 . S
C271 C19 1.403 1_556 S
C286 C140 1.404 . S
C321 C18 1.367 . S
C336 C184 1.373 . S
C371 C20 1.393 1_556 S
C386 C145 1.390 . S
C421 C44 1.414 . S
C436 C101 1.412 . S
C471 C42 1.403 . S
C486 C62 1.404 . S
C536 C106 1.374 . S
C521 C41 1.368 . S
C586 C67 1.391 . S
C571 C43 1.393 . S
C621 C16 1.489 . S
C636 C47 1.489 1_445 S
C671 C17 1.448 . S
C686 C86 1.449 . S
C736 C125 1.489 . S
C721 C39 1.489 . S
C771 C40 1.448 . S
C786 C164 1.449 . S
