# Generated by pormake.
# Topology pto, (3,4)-cn, num edge types: 1
# Building blocks:
#     Node 0, Type 0, BuildingBlock: BETDAH_clean_linker_0, # of connection points: 3
#     Node 1, Type 0, BuildingBlock: BETDAH_clean_linker_0, # of connection points: 3
#     Node 2, Type 0, BuildingBlock: BETDAH_clean_linker_0, # of connection points: 3
#     Node 3, Type 0, BuildingBlock: BETDAH_clean_linker_0, # of connection points: 3
#     Node 4, Type 0, BuildingBlock: BETDAH_clean_linker_0, # of connection points: 3
#     Node 5, Type 0, BuildingBlock: BETDAH_clean_linker_0, # of connection points: 3
#     Node 6, Type 0, BuildingBlock: BETDAH_clean_linker_0, # of connection points: 3
#     Node 7, Type 0, BuildingBlock: BETDAH_clean_linker_0, # of connection points: 3
#     Node 8, Type 1, BuildingBlock: KOZSID_clean_sbu_0, # of connection points: 4
#     Node 9, Type 1, BuildingBlock: KOZSID_clean_sbu_0, # of connection points: 4
#     Node 10, Type 1, BuildingBlock: KOZSID_clean_sbu_0, # of connection points: 4
#     Node 11, Type 1, BuildingBlock: KOZSID_clean_sbu_0, # of connection points: 4
#     Node 12, Type 1, BuildingBlock: KOZSID_clean_sbu_0, # of connection points: 4
#     Node 13, Type 1, BuildingBlock: KOZSID_clean_sbu_0, # of connection points: 4
#     Edge 14, Type (0, 1), BuildingBlock: CIFDUS_clean_linker_0, # of connection points: 2
#     Edge 15, Type (0, 1), BuildingBlock: CIFDUS_clean_linker_0, # of connection points: 2
#     Edge 16, Type (0, 1), BuildingBlock: CIFDUS_clean_linker_0, # of connection points: 2
#     Edge 17, Type (0, 1), BuildingBlock: CIFDUS_clean_linker_0, # of connection points: 2
#     Edge 18, Type (0, 1), BuildingBlock: CIFDUS_clean_linker_0, # of connection points: 2
#     Edge 19, Type (0, 1), BuildingBlock: CIFDUS_clean_linker_0, # of connection points: 2
#     Edge 20, Type (0, 1), BuildingBlock: CIFDUS_clean_linker_0, # of connection points: 2
#     Edge 21, Type (0, 1), BuildingBlock: CIFDUS_clean_linker_0, # of connection points: 2
#     Edge 22, Type (0, 1), BuildingBlock: CIFDUS_clean_linker_0, # of connection points: 2
#     Edge 23, Type (0, 1), BuildingBlock: CIFDUS_clean_linker_0, # of connection points: 2
#     Edge 24, Type (0, 1), BuildingBlock: CIFDUS_clean_linker_0, # of connection points: 2
#     Edge 25, Type (0, 1), BuildingBlock: CIFDUS_clean_linker_0, # of connection points: 2
#     Edge 26, Type (0, 1), BuildingBlock: CIFDUS_clean_linker_0, # of connection points: 2
#     Edge 27, Type (0, 1), BuildingBlock: CIFDUS_clean_linker_0, # of connection points: 2
#     Edge 28, Type (0, 1), BuildingBlock: CIFDUS_clean_linker_0, # of connection points: 2
#     Edge 29, Type (0, 1), BuildingBlock: CIFDUS_clean_linker_0, # of connection points: 2
#     Edge 30, Type (0, 1), BuildingBlock: CIFDUS_clean_linker_0, # of connection points: 2
#     Edge 31, Type (0, 1), BuildingBlock: CIFDUS_clean_linker_0, # of connection points: 2
#     Edge 32, Type (0, 1), BuildingBlock: CIFDUS_clean_linker_0, # of connection points: 2
#     Edge 33, Type (0, 1), BuildingBlock: CIFDUS_clean_linker_0, # of connection points: 2
#     Edge 34, Type (0, 1), BuildingBlock: CIFDUS_clean_linker_0, # of connection points: 2
#     Edge 35, Type (0, 1), BuildingBlock: CIFDUS_clean_linker_0, # of connection points: 2
#     Edge 36, Type (0, 1), BuildingBlock: CIFDUS_clean_linker_0, # of connection points: 2
#     Edge 37, Type (0, 1), BuildingBlock: CIFDUS_clean_linker_0, # of connection points: 2
# Relax obj value: 0.010
# Max RMSD: 0.120
# Mean RMSD: 0.061
data_MOF--net-pto--node1-KOZSID_clean_sbu_0--node2-BETDAH_clean_linker_0--edge1-CIFDUS_clean_linker_0
_symmetry_space_group_name_H-M    P1
_symmetry_Int_Tables_number       1
_symmetry_cell_setting            triclinic
loop_
_symmetry_equiv_pos_as_xyz
'x, y, z'
_cell_length_a     34.143325
_cell_length_b     44.237784
_cell_length_c     39.758359
_cell_angle_alpha  102.40022
_cell_angle_beta   93.283132
_cell_angle_gamma 104.15269
loop_
_atom_site_label
_atom_site_type_symbol
_atom_site_fract_x
_atom_site_fract_y
_atom_site_fract_z
_atom_type_partial_charge
H0 H 0.35115 0.19841 0.38358 0.0
H1 H 0.33887 0.2929 0.38476 0.0
H2 H 0.31197 0.25319 0.4725 0.0
C3 C 0.34356 0.2198 0.39711 0.0
C4 C 0.33068 0.22172 0.43035 0.0
C5 C 0.34827 0.24573 0.38109 0.0
C6 C 0.33535 0.27274 0.39675 0.0
C7 C 0.32117 0.27472 0.42947 0.0
C8 C 0.32031 0.24988 0.44638 0.0
N9 N 0.31094 0.30247 0.44778 0.0
C10 C 0.29448 0.32298 0.43285 0.0
H11 H 0.31268 0.73071 0.81485 0.0
H12 H 0.33473 0.8237 0.79162 0.0
H13 H 0.22097 0.75298 0.75318 0.0
C14 C 0.30293 0.74707 0.80154 0.0
C15 C 0.26397 0.73778 0.78321 0.0
C16 C 0.32852 0.77797 0.8049 0.0
C17 C 0.3153 0.79973 0.78878 0.0
C18 C 0.27646 0.79043 0.76968 0.0
C19 C 0.25101 0.75976 0.7675 0.0
N20 N 0.26079 0.81142 0.75355 0.0
C21 C 0.28346 0.83852 0.74433 0.0
H22 H 0.89704 0.75799 0.4158 0.0
H23 H 0.79723 0.75691 0.34297 0.0
H24 H 0.85803 0.68204 0.32368 0.0
C25 C 0.87646 0.74688 0.3922 0.0
C26 C 0.88097 0.71842 0.3709 0.0
C27 C 0.84645 0.76143 0.38232 0.0
C28 C 0.82113 0.74677 0.35073 0.0
C29 C 0.82548 0.7182 0.32966 0.0
C30 C 0.855 0.70417 0.34006 0.0
N31 N 0.80012 0.70235 0.29819 0.0
C32 C 0.7814 0.71756 0.27748 0.0
H33 H 0.7959 0.2691 0.80144 0.0
H34 H 0.69815 0.22403 0.85289 0.0
H35 H 0.73959 0.32675 0.87466 0.0
C36 C 0.77441 0.27103 0.82033 0.0
C37 C 0.77156 0.30147 0.83774 0.0
C38 C 0.74774 0.243 0.82533 0.0
C39 C 0.7191 0.2455 0.84922 0.0
C40 C 0.71658 0.27587 0.86725 0.0
C41 C 0.74228 0.30349 0.86096 0.0
N42 N 0.68667 0.27974 0.88996 0.0
C43 C 0.67333 0.26016 0.91233 0.0
H44 H 0.79295 0.73282 0.85778 0.0
H45 H 0.79742 0.7302 0.74911 0.0
H46 H 0.73194 0.78947 0.80873 0.0
C47 C 0.78523 0.74093 0.83505 0.0
C48 C 0.76051 0.76244 0.83732 0.0
C49 C 0.79936 0.72937 0.80346 0.0
C50 C 0.78833 0.73965 0.77404 0.0
C51 C 0.76473 0.76159 0.77615 0.0
C52 C 0.7509 0.77297 0.80766 0.0
N53 N 0.75138 0.76935 0.74556 0.0
C54 C 0.76786 0.79869 0.73784 0.0
H55 H 0.81928 0.3041 0.37833 0.0
H56 H 0.86542 0.30201 0.48013 0.0
H57 H 0.77911 0.21861 0.41627 0.0
C58 C 0.82037 0.29115 0.39848 0.0
C59 C 0.79642 0.25938 0.39314 0.0
C60 C 0.84554 0.30664 0.42953 0.0
C61 C 0.8465 0.29013 0.45577 0.0
C62 C 0.82303 0.25845 0.45121 0.0
C63 C 0.79779 0.24293 0.41978 0.0
N64 N 0.82451 0.24405 0.47975 0.0
C65 C 0.81558 0.21139 0.4784 0.0
H66 H 0.32986 0.25089 0.87157 0.0
H67 H 0.30589 0.33632 0.93235 0.0
H68 H 0.25861 0.30202 0.82494 0.0
C69 C 0.31538 0.27036 0.8744 0.0
C70 C 0.29252 0.27314 0.84518 0.0
C71 C 0.32089 0.29294 0.90635 0.0
C72 C 0.30318 0.31875 0.90816 0.0
C73 C 0.28103 0.32232 0.87918 0.0
C74 C 0.27552 0.29937 0.84755 0.0
N75 N 0.26648 0.35018 0.88296 0.0
C76 C 0.23438 0.35391 0.86251 0.0
H77 H 0.29111 0.77956 0.39175 0.0
H78 H 0.32001 0.82145 0.30469 0.0
H79 H 0.28207 0.71904 0.29 0.0
C80 C 0.29486 0.77696 0.36447 0.0
C81 C 0.28629 0.74611 0.34271 0.0
C82 C 0.30719 0.8044 0.35112 0.0
C83 C 0.31112 0.80057 0.31541 0.0
C84 C 0.30214 0.76963 0.29343 0.0
C85 C 0.28973 0.74276 0.30724 0.0
N86 N 0.30239 0.76436 0.25698 0.0
C87 C 0.32797 0.78405 0.23993 0.0
C88 C 0.16405 0.59129 0.44406 0.0
C89 C 0.18687 0.61346 0.47289 0.0
C90 C 0.17269 0.60371 0.50126 0.0
C91 C 0.14225 0.57621 0.48815 0.0
N92 N 0.13673 0.56736 0.45309 0.0
Co93 Co 0.09399 0.53029 0.42315 0.0
N94 N 0.06973 0.51812 0.46475 0.0
C95 C 0.08274 0.53279 0.49846 0.0
C96 C 0.06083 0.51837 0.52123 0.0
C97 C 0.03247 0.49266 0.50092 0.0
C98 C 0.03885 0.49285 0.46679 0.0
N99 N 0.05076 0.49362 0.39313 0.0
C100 C 0.02127 0.47097 0.40196 0.0
C101 C 0.99847 0.44908 0.37282 0.0
C102 C 0.01414 0.45814 0.34468 0.0
C103 C 0.04557 0.48481 0.35807 0.0
N104 N 0.11864 0.5422 0.38161 0.0
C105 C 0.10697 0.52656 0.348 0.0
C106 C 0.12822 0.54124 0.32514 0.0
C107 C 0.15463 0.56821 0.34523 0.0
C108 C 0.14808 0.56834 0.37944 0.0
N109 N 0.12986 0.50106 0.42492 0.0
C110 C 0.17318 0.45497 0.42986 0.0
C111 C 0.1537 0.45521 0.39808 0.0
C112 C 0.13245 0.47832 0.3962 0.0
C113 C 0.17242 0.47925 0.45863 0.0
C114 C 0.15099 0.50184 0.45559 0.0
N115 N 0.05815 0.55939 0.42148 0.0
C116 C 0.01644 0.58251 0.38858 0.0
C117 C 0.01106 0.60338 0.41874 0.0
C118 C 0.02907 0.60138 0.45035 0.0
C119 C 0.05228 0.57945 0.45112 0.0
C120 C 0.03974 0.56084 0.39053 0.0
H121 H 0.06558 0.57945 0.47599 0.0
H122 H 0.04269 0.54563 0.36663 0.0
H123 H 0.11761 0.47677 0.37138 0.0
H124 H 0.15132 0.51926 0.47867 0.0
C125 C 0.11639 0.55951 0.50793 0.0
C126 C 0.168 0.59493 0.40873 0.0
C127 C 0.01544 0.46804 0.43734 0.0
C128 C 0.07267 0.50052 0.33851 0.0
H129 H 0.21049 0.63495 0.4733 0.0
H130 H 0.1824 0.61585 0.52821 0.0
H131 H 0.06539 0.5254 0.54928 0.0
H132 H 0.00998 0.47543 0.51014 0.0
H133 H 0.97381 0.42811 0.37183 0.0
H134 H 0.00467 0.44605 0.31768 0.0
H135 H 0.12356 0.53411 0.2971 0.0
H136 H 0.17508 0.58625 0.33546 0.0
H137 H 0.15352 0.43697 0.37498 0.0
H138 H 0.18794 0.48064 0.48368 0.0
H139 H 0.00245 0.58265 0.36349 0.0
H140 H 0.02601 0.61712 0.47444 0.0
C141 C 0.07961 0.58028 0.83205 0.0
C142 C 0.09812 0.60216 0.86275 0.0
C143 C 0.07366 0.59587 0.88787 0.0
C144 C 0.04182 0.57048 0.87129 0.0
N145 N 0.04505 0.55995 0.8374 0.0
Co146 Co 0.00505 0.52418 0.80415 0.0
N147 N 0.97816 0.5083 0.84232 0.0
C148 C 0.98106 0.52499 0.87532 0.0
C149 C 0.95906 0.50747 0.89583 0.0
C150 C 0.9412 0.47793 0.87433 0.0
C151 C 0.95341 0.47916 0.84184 0.0
N152 N 0.96506 0.48831 0.7712 0.0
C153 C 0.94156 0.46081 0.77682 0.0
C154 C 0.91799 0.44183 0.74656 0.0
C155 C 0.92715 0.45819 0.72115 0.0
C156 C 0.9557 0.48612 0.73729 0.0
N157 N 0.03147 0.54018 0.76573 0.0
C158 C 0.01537 0.53206 0.73223 0.0
C159 C 0.03974 0.54752 0.71152 0.0
C160 C 0.07296 0.56705 0.73338 0.0
C161 C 0.06695 0.56242 0.76638 0.0
N162 N 0.04194 0.49665 0.80511 0.0
C163 C 0.09267 0.45578 0.80721 0.0
C164 C 0.07616 0.45888 0.77545 0.0
C165 C 0.05053 0.47918 0.77497 0.0
C166 C 0.08361 0.47379 0.83781 0.0
C167 C 0.05861 0.49426 0.83621 0.0
N168 N 0.96805 0.55178 0.80341 0.0
C169 C 0.90106 0.56026 0.80619 0.0
C170 C 0.91632 0.59266 0.80572 0.0
C171 C 0.958 0.60383 0.80362 0.0
C172 C 0.98306 0.5831 0.80221 0.0
C173 C 0.92737 0.54032 0.80512 0.0
H174 H 0.01478 0.59273 0.80066 0.0
H175 H 0.91481 0.51566 0.80596 0.0
H176 H 0.03748 0.48056 0.75021 0.0
H177 H 0.05263 0.50803 0.86024 0.0
C178 C 0.01066 0.55411 0.88727 0.0
C179 C 0.09251 0.58294 0.79792 0.0
C180 C 0.93946 0.45298 0.81076 0.0
C181 C 0.97951 0.50756 0.72066 0.0
H182 H 0.12566 0.62143 0.86632 0.0
H183 H 0.07866 0.60823 0.915 0.0
H184 H 0.95778 0.51471 0.92345 0.0
H185 H 0.92164 0.45779 0.88174 0.0
H186 H 0.89657 0.41859 0.74319 0.0
H187 H 0.91575 0.45 0.69389 0.0
H188 H 0.03421 0.54477 0.68381 0.0
H189 H 0.09809 0.58361 0.72604 0.0
H190 H 0.08244 0.44531 0.75121 0.0
H191 H 0.09626 0.47243 0.8629 0.0
H192 H 0.86901 0.55025 0.80726 0.0
H193 H 0.97164 0.62869 0.8038 0.0
C194 C 0.34303 0.00773 0.65398 0.0
C195 C 0.37953 0.00988 0.6728 0.0
C196 C 0.40843 0.03285 0.66342 0.0
C197 C 0.38799 0.04354 0.6397 0.0
N198 N 0.34776 0.02879 0.63323 0.0
Co199 Co 0.30673 0.03815 0.60138 0.0
N200 N 0.34968 0.07105 0.58657 0.0
C201 C 0.39018 0.07886 0.59647 0.0
C202 C 0.41209 0.10318 0.5835 0.0
C203 C 0.38404 0.11147 0.5641 0.0
C204 C 0.34632 0.09138 0.56599 0.0
N205 N 0.26543 0.04836 0.5707 0.0
C206 C 0.26989 0.07039 0.55115 0.0
C207 C 0.233 0.06901 0.53336 0.0
C208 C 0.20412 0.04618 0.54288 0.0
C209 C 0.22486 0.03467 0.56555 0.0
N210 N 0.26404 0.00433 0.61513 0.0
C211 C 0.22406 0.99446 0.60295 0.0
C212 C 0.20242 0.96977 0.61559 0.0
C213 C 0.23021 0.96331 0.63709 0.0
C214 C 0.26734 0.98473 0.63656 0.0
N215 N 0.29825 0.07169 0.64035 0.0
C216 C 0.28597 0.1202 0.69434 0.0
C217 C 0.25361 0.09437 0.67739 0.0
C218 C 0.26027 0.07074 0.6504 0.0
C219 C 0.32456 0.12134 0.68403 0.0
C220 C 0.33008 0.09684 0.65751 0.0
N221 N 0.31519 0.00463 0.56227 0.0
C222 C 0.28827 0.96132 0.51141 0.0
C223 C 0.3264 0.95547 0.50827 0.0
C224 C 0.35904 0.97503 0.53224 0.0
C225 C 0.35288 0.99941 0.55863 0.0
C226 C 0.28335 0.98567 0.53838 0.0
H227 H 0.37906 0.01355 0.5759 0.0
H228 H 0.25332 0.98832 0.5395 0.0
H229 H 0.23421 0.05199 0.638 0.0
H230 H 0.36044 0.09879 0.65147 0.0
C231 C 0.40604 0.06593 0.62152 0.0
C232 C 0.30478 0.98531 0.65675 0.0
C233 C 0.30811 0.0933 0.54887 0.0
C234 C 0.20747 0.00968 0.5807 0.0
H235 H 0.38478 0.99613 0.69127 0.0
H236 H 0.44061 0.04055 0.67248 0.0
H237 H 0.44442 0.11454 0.58882 0.0
H238 H 0.3908 0.13086 0.55102 0.0
H239 H 0.2274 0.08299 0.51525 0.0
H240 H 0.1719 0.03859 0.53399 0.0
H241 H 0.17024 0.95795 0.60994 0.0
H242 H 0.22378 0.94482 0.65146 0.0
H243 H 0.22318 0.0926 0.68467 0.0
H244 H 0.35059 0.14072 0.69691 0.0
H245 H 0.26193 0.94655 0.4937 0.0
H246 H 0.38928 0.97159 0.53064 0.0
C247 C 0.52786 0.84371 0.11292 0.0
C248 C 0.53188 0.87431 0.1332 0.0
C249 C 0.56908 0.89273 0.12919 0.0
C250 C 0.58561 0.8725 0.10666 0.0
N251 N 0.56085 0.8426 0.09573 0.0
Co252 Co 0.57394 0.80596 0.06406 0.0
N253 N 0.62021 0.83484 0.0489 0.0
C254 C 0.63897 0.86536 0.06524 0.0
C255 C 0.66946 0.87936 0.04798 0.0
C256 C 0.66986 0.85615 0.01899 0.0
C257 C 0.63955 0.82921 0.02032 0.0
N258 N 0.58739 0.76947 0.03267 0.0
C259 C 0.60954 0.76944 0.00555 0.0
C260 C 0.61179 0.73865 0.99045 0.0
C261 C 0.59007 0.71877 0.00889 0.0
C262 C 0.57594 0.7385 0.03413 0.0
N263 N 0.52776 0.77676 0.07902 0.0
C264 C 0.52172 0.74481 0.07468 0.0
C265 C 0.48795 0.73079 0.08838 0.0
C266 C 0.47208 0.75547 0.10282 0.0
C267 C 0.49725 0.78339 0.09719 0.0
N268 N 0.53762 0.80976 0.02623 0.0
C269 C 0.48847 0.81435 0.96964 0.0
C270 C 0.48758 0.78451 0.97668 0.0
C271 C 0.5121 0.78275 0.00512 0.0
C272 C 0.51404 0.84194 0.99191 0.0
C273 C 0.53853 0.83911 0.01992 0.0
N274 N 0.61038 0.80201 0.10182 0.0
C275 C 0.62246 0.79825 0.16084 0.0
C276 C 0.65998 0.79195 0.15474 0.0
C277 C 0.6727 0.79177 0.12179 0.0
C278 C 0.64755 0.79693 0.09578 0.0
C279 C 0.59825 0.8032 0.13416 0.0
H280 H 0.65791 0.79621 0.07058 0.0
H281 H 0.56927 0.80727 0.13967 0.0
H282 H 0.51064 0.75944 0.00983 0.0
H283 H 0.55853 0.86066 0.03621 0.0
C284 C 0.62208 0.88148 0.09248 0.0
C285 C 0.49483 0.81574 0.11429 0.0
C286 C 0.63068 0.79829 0.99499 0.0
C287 C 0.54591 0.72842 0.05474 0.0
H288 H 0.51062 0.88222 0.14994 0.0
H289 H 0.58227 0.91793 0.14101 0.0
H290 H 0.68782 0.90397 0.05469 0.0
H291 H 0.68989 0.85885 0.99909 0.0
H292 H 0.62744 0.73136 0.96844 0.0
H293 H 0.58376 0.69289 0.00347 0.0
H294 H 0.47611 0.70561 0.08779 0.0
H295 H 0.44585 0.75326 0.11705 0.0
H296 H 0.4677 0.7626 0.96051 0.0
H297 H 0.51567 0.86548 0.98737 0.0
H298 H 0.61112 0.79828 0.18574 0.0
H299 H 0.70174 0.78743 0.11602 0.0
C300 C 0.84119 0.97784 0.66576 0.0
C301 C 0.8766 0.98017 0.68624 0.0
C302 C 0.90707 1.00139 0.67598 0.0
C303 C 0.88857 0.01095 0.65009 0.0
N304 N 0.8481 0.99711 0.64321 0.0
Co305 Co 0.80943 0.0051 0.60827 0.0
N306 N 0.85456 0.0346 0.5917 0.0
C307 C 0.89487 0.04026 0.60101 0.0
C308 C 0.91848 0.06189 0.58544 0.0
C309 C 0.89159 0.07087 0.56539 0.0
C310 C 0.85301 0.05429 0.5701 0.0
N311 N 0.77051 0.01478 0.57487 0.0
C312 C 0.77676 0.03751 0.55618 0.0
C313 C 0.74067 0.03836 0.53892 0.0
C314 C 0.71049 0.0156 0.54725 0.0
C315 C 0.72974 0.00242 0.56923 0.0
N316 N 0.76445 0.9742 0.62337 0.0
C317 C 0.72494 0.96462 0.60985 0.0
C318 C 0.70142 0.94168 0.62377 0.0
C319 C 0.72754 0.93592 0.64735 0.0
C320 C 0.76564 0.95599 0.64664 0.0
N321 N 0.80214 0.04145 0.64433 0.0
C322 C 0.79328 0.09239 0.69766 0.0
C323 C 0.7599 0.06662 0.68193 0.0
C324 C 0.76485 0.04184 0.65526 0.0
C325 C 0.8309 0.09228 0.68543 0.0
C326 C 0.83472 0.06674 0.65947 0.0
N327 N 0.81701 0.96842 0.57238 0.0
C328 C 0.79027 0.92261 0.52374 0.0
C329 C 0.82612 0.91296 0.52631 0.0
C330 C 0.85779 0.93212 0.55126 0.0
C331 C 0.85288 0.95968 0.57344 0.0
C332 C 0.78626 0.95011 0.54703 0.0
H333 H 0.87857 0.97318 0.5915 0.0
H334 H 0.75778 0.9557 0.54429 0.0
H335 H 0.73815 0.02311 0.64398 0.0
H336 H 0.86453 0.06803 0.65214 0.0
C337 C 0.90885 0.02974 0.62902 0.0
C338 C 0.80209 0.95622 0.66789 0.0
C339 C 0.81588 0.05989 0.5557 0.0
C340 C 0.71045 0.97888 0.5855 0.0
H341 H 0.88012 0.96732 0.70604 0.0
H342 H 0.93909 0.00822 0.68547 0.0
H343 H 0.95118 0.0715 0.58982 0.0
H344 H 0.8993 0.08862 0.55019 0.0
H345 H 0.73632 0.05421 0.52262 0.0
H346 H 0.67824 0.00992 0.53899 0.0
H347 H 0.66911 0.93053 0.61757 0.0
H348 H 0.7194 0.91871 0.6631 0.0
H349 H 0.73004 0.06513 0.69032 0.0
H350 H 0.85766 0.11191 0.69559 0.0
H351 H 0.76497 0.90845 0.50458 0.0
H352 H 0.88642 0.92585 0.55369 0.0
C353 C 0.4834 0.27256 0.20335 0.0
C354 C 0.48935 0.30294 0.22486 0.0
C355 C 0.52737 0.32038 0.22131 0.0
C356 C 0.54253 0.29986 0.19787 0.0
N357 N 0.51614 0.27073 0.18602 0.0
Co358 Co 0.52669 0.23398 0.15277 0.0
N359 N 0.57379 0.26223 0.1382 0.0
C360 C 0.59506 0.29169 0.15589 0.0
C361 C 0.62539 0.30548 0.13828 0.0
C362 C 0.62274 0.28325 0.10763 0.0
C363 C 0.59087 0.25717 0.1084 0.0
N364 N 0.5372 0.19765 0.11899 0.0
C365 C 0.55666 0.19831 0.09035 0.0
C366 C 0.5559 0.16763 0.07237 0.0
C367 C 0.53487 0.14705 0.0906 0.0
C368 C 0.52409 0.16636 0.11857 0.0
N369 N 0.48022 0.20532 0.16776 0.0
C370 C 0.47277 0.17314 0.16218 0.0
C371 C 0.43887 0.15957 0.17608 0.0
C372 C 0.42453 0.18476 0.19188 0.0
C373 C 0.45069 0.2125 0.18686 0.0
N374 N 0.49044 0.24033 0.11648 0.0
C375 C 0.44261 0.24776 0.06025 0.0
C376 C 0.43569 0.21837 0.07007 0.0
C377 C 0.46028 0.21503 0.09758 0.0
C378 C 0.47352 0.27362 0.08031 0.0
C379 C 0.49633 0.26958 0.1086 0.0
N380 N 0.56308 0.22751 0.18906 0.0
C381 C 0.57894 0.22744 0.24886 0.0
C382 C 0.61603 0.2204 0.24206 0.0
C383 C 0.62548 0.2164 0.20767 0.0
C384 C 0.5989 0.22036 0.18175 0.0
C385 C 0.55294 0.23048 0.22215 0.0
H386 H 0.6075 0.21787 0.1558 0.0
H387 H 0.52482 0.23578 0.2286 0.0
H388 H 0.45516 0.1917 0.10315 0.0
H389 H 0.51951 0.29 0.12353 0.0
C390 C 0.57949 0.30796 0.18401 0.0
C391 C 0.44942 0.24507 0.20443 0.0
C392 C 0.57732 0.22783 0.08089 0.0
C393 C 0.49486 0.1563 0.13998 0.0
H394 H 0.46894 0.31127 0.24226 0.0
H395 H 0.54205 0.34511 0.23414 0.0
H396 H 0.64524 0.32958 0.14571 0.0
H397 H 0.64148 0.2861 0.08689 0.0
H398 H 0.56883 0.16094 0.04854 0.0
H399 H 0.52644 0.1211 0.08319 0.0
H400 H 0.42568 0.13434 0.1744 0.0
H401 H 0.39842 0.18302 0.20626 0.0
H402 H 0.41157 0.19772 0.05668 0.0
H403 H 0.48107 0.2968 0.07404 0.0
H404 H 0.57018 0.23151 0.27484 0.0
H405 H 0.65325 0.21037 0.20063 0.0
H406 H 0.24392 0.34709 0.47157 0.0
H407 H 0.29958 0.3505 0.37756 0.0
H408 H 0.26588 0.39157 0.36746 0.0
H409 H 0.22184 0.42765 0.38689 0.0
H410 H 0.16708 0.42328 0.48156 0.0
H411 H 0.19923 0.38164 0.49004 0.0
C412 C 0.2484 0.35678 0.44878 0.0
C413 C 0.27387 0.34603 0.42525 0.0
C414 C 0.22929 0.38034 0.44347 0.0
C415 C 0.27986 0.35858 0.39588 0.0
C416 C 0.26068 0.38203 0.39022 0.0
C417 C 0.21676 0.41739 0.40921 0.0
C418 C 0.1924 0.4289 0.43376 0.0
C419 C 0.23548 0.39326 0.414 0.0
C420 C 0.18629 0.4154 0.46263 0.0
C421 C 0.20447 0.39141 0.46743 0.0
H422 H 0.18416 0.72411 0.79344 0.0
H423 H 0.28201 0.67966 0.77152 0.0
H424 H 0.23785 0.62768 0.77393 0.0
H425 H 0.17128 0.59488 0.78368 0.0
H426 H 0.07414 0.6399 0.80567 0.0
H427 H 0.1178 0.69148 0.80156 0.0
C428 C 0.19565 0.70297 0.78868 0.0
C429 C 0.23631 0.70579 0.78228 0.0
C430 C 0.17019 0.67324 0.79033 0.0
C431 C 0.25091 0.6782 0.77678 0.0
C432 C 0.22566 0.64846 0.77809 0.0
C433 C 0.15996 0.61609 0.78754 0.0
C434 C 0.1199 0.61391 0.79522 0.0
C435 C 0.18533 0.64572 0.78517 0.0
C436 C 0.10509 0.6413 0.79997 0.0
C437 C 0.12998 0.6707 0.79757 0.0
H438 H 0.88912 0.69156 0.42556 0.0
H439 H 0.94332 0.71005 0.33432 0.0
H440 H 0.98996 0.67737 0.34203 0.0
H441 H 0.01184 0.64039 0.37213 0.0
H442 H 0.95584 0.61951 0.46199 0.0
H443 H 0.91383 0.65638 0.45773 0.0
C444 C 0.91179 0.6889 0.40792 0.0
C445 C 0.91311 0.70323 0.37955 0.0
C446 C 0.93783 0.66933 0.41203 0.0
C447 C 0.94205 0.69929 0.35642 0.0
C448 C 0.9685 0.68048 0.36071 0.0
C449 C 0.99035 0.64381 0.39073 0.0
C450 C 0.98679 0.62694 0.41713 0.0
C451 C 0.966 0.66476 0.38791 0.0
C452 C 0.9594 0.63226 0.44148 0.0
C453 C 0.93521 0.65326 0.43899 0.0
H454 H 0.85323 0.31603 0.83258 0.0
H455 H 0.7484 0.35368 0.82682 0.0
H456 H 0.79085 0.40337 0.81714 0.0
H457 H 0.85812 0.43685 0.81151 0.0
H458 H 0.96325 0.4001 0.81767 0.0
H459 H 0.92055 0.34923 0.82562 0.0
C460 C 0.83968 0.33502 0.82889 0.0
C461 C 0.79772 0.3312 0.8307 0.0
C462 C 0.86436 0.36367 0.82337 0.0
C463 C 0.78068 0.35617 0.82615 0.0
C464 C 0.80489 0.38455 0.82041 0.0
C465 C 0.87139 0.41749 0.81436 0.0
C466 C 0.91342 0.42177 0.81387 0.0
C467 C 0.84675 0.38866 0.81921 0.0
C468 C 0.93078 0.39696 0.81784 0.0
C469 C 0.90642 0.36803 0.82243 0.0
H470 H 0.2841 0.20564 0.48179 0.0
H471 H 0.37682 0.17754 0.42184 0.0
H472 H 0.37474 0.1342 0.45037 0.0
H473 H 0.34817 0.10446 0.49351 0.0
H474 H 0.26676 0.13929 0.56143 0.0
H475 H 0.26364 0.18014 0.52916 0.0
C476 C 0.30468 0.19072 0.47519 0.0
C477 C 0.33002 0.19521 0.44879 0.0
C478 C 0.30554 0.16687 0.4934 0.0
C479 C 0.35556 0.17453 0.44075 0.0
C480 C 0.35499 0.14976 0.45754 0.0
C481 C 0.3302 0.12131 0.50148 0.0
C482 C 0.30768 0.11888 0.52974 0.0
C483 C 0.33022 0.14575 0.48397 0.0
C484 C 0.28419 0.14063 0.53962 0.0
C485 C 0.28249 0.164 0.52123 0.0
H486 H 0.35304 0.82681 0.86244 0.0
H487 H 0.3896 0.74853 0.79947 0.0
H488 H 0.44523 0.75486 0.84411 0.0
H489 H 0.47788 0.77815 0.90377 0.0
H490 H 0.44009 0.85514 0.96806 0.0
H491 H 0.39097 0.85419 0.92025 0.0
C492 C 0.37403 0.81187 0.85818 0.0
C493 C 0.3674 0.78727 0.82781 0.0
C494 C 0.40524 0.81505 0.88446 0.0
C495 C 0.3943 0.76765 0.82268 0.0
C496 C 0.42586 0.7711 0.84829 0.0
C497 C 0.45905 0.79485 0.90721 0.0
C498 C 0.46217 0.81636 0.93953 0.0
C499 C 0.43066 0.79393 0.87976 0.0
C500 C 0.43823 0.83834 0.94342 0.0
C501 C 0.41002 0.83771 0.91613 0.0
H502 H 0.85501 0.77982 0.45332 0.0
H503 H 0.82645 0.81181 0.36184 0.0
H504 H 0.8153 0.8602 0.39795 0.0
H505 H 0.81453 0.89427 0.45578 0.0
H506 H 0.84805 0.86419 0.54698 0.0
H507 H 0.85701 0.81467 0.51082 0.0
C508 C 0.84692 0.79751 0.44116 0.0
C509 C 0.84132 0.79174 0.40471 0.0
C510 C 0.84143 0.8258 0.46212 0.0
C511 C 0.83017 0.81499 0.38971 0.0
C512 C 0.82404 0.84292 0.41038 0.0
C513 C 0.82357 0.87672 0.46761 0.0
C514 C 0.83048 0.88273 0.50392 0.0
C515 C 0.82947 0.84857 0.44662 0.0
C516 C 0.8427 0.86007 0.51904 0.0
C517 C 0.84778 0.83176 0.49839 0.0
H518 H 0.59988 0.25567 0.93365 0.0
H519 H 0.7144 0.23478 0.95415 0.0
H520 H 0.69303 0.21955 0.00749 0.0
H521 H 0.64409 0.21758 0.05121 0.0
H522 H 0.53084 0.24059 0.03139 0.0
H523 H 0.54883 0.24938 0.97478 0.0
C524 C 0.61965 0.24705 0.94949 0.0
C525 C 0.65837 0.24596 0.94017 0.0
C526 C 0.60741 0.23903 0.98032 0.0
C527 C 0.68424 0.23537 0.96088 0.0
C528 C 0.67212 0.2269 0.99141 0.0
C529 C 0.62321 0.22387 0.03402 0.0
C530 C 0.5862 0.22833 0.04498 0.0
C531 C 0.63415 0.22938 0.00182 0.0
C532 C 0.55934 0.23689 0.02307 0.0
C533 C 0.56971 0.24202 0.99088 0.0
H534 H 0.26715 0.8957 0.76141 0.0
H535 H 0.3318 0.84117 0.69317 0.0
H536 H 0.34703 0.88339 0.66098 0.0
H537 H 0.336 0.93357 0.64899 0.0
H538 H 0.27016 0.98741 0.71673 0.0
H539 H 0.26133 0.94804 0.75255 0.0
C540 C 0.2854 0.89356 0.73999 0.0
C541 C 0.29879 0.86576 0.72972 0.0
C542 C 0.29328 0.91764 0.72132 0.0
C543 C 0.32173 0.8627 0.70165 0.0
C544 C 0.33013 0.88669 0.68313 0.0
C545 C 0.3203 0.93677 0.67192 0.0
C546 C 0.30351 0.96309 0.68028 0.0
C547 C 0.3152 0.91391 0.6922 0.0
C548 C 0.28313 0.96718 0.70992 0.0
C549 C 0.27808 0.94469 0.7303 0.0
H550 H 0.74807 0.76779 0.28744 0.0
H551 H 0.77244 0.6928 0.20939 0.0
H552 H 0.73847 0.71011 0.1639 0.0
H553 H 0.69955 0.74507 0.14668 0.0
H554 H 0.67476 0.82043 0.22429 0.0
H555 H 0.71088 0.80449 0.26962 0.0
C556 C 0.74595 0.75549 0.26041 0.0
C557 C 0.7624 0.72916 0.25141 0.0
C558 C 0.72623 0.76555 0.23444 0.0
C559 C 0.75977 0.71317 0.21657 0.0
C560 C 0.7404 0.72304 0.19065 0.0
C561 C 0.70263 0.75839 0.17342 0.0
C562 C 0.68447 0.7839 0.18204 0.0
C563 C 0.72328 0.74905 0.1993 0.0
C564 C 0.6881 0.80047 0.21697 0.0
C565 C 0.70885 0.79144 0.24291 0.0
H566 H 0.81014 0.21496 0.82008 0.0
H567 H 0.68557 0.20131 0.78004 0.0
H568 H 0.68796 0.15301 0.73726 0.0
H569 H 0.72729 0.11728 0.70859 0.0
H570 H 0.85026 0.12835 0.75246 0.0
H571 H 0.8468 0.17522 0.79584 0.0
C572 C 0.78343 0.20105 0.80225 0.0
C573 C 0.74778 0.21154 0.80304 0.0
C574 C 0.78493 0.17319 0.77802 0.0
C575 C 0.71323 0.19345 0.77998 0.0
C576 C 0.71471 0.16599 0.75541 0.0
C577 C 0.75316 0.12938 0.72795 0.0
C578 C 0.78935 0.11935 0.7263 0.0
C579 C 0.75064 0.15592 0.7538 0.0
C580 C 0.82244 0.13591 0.75187 0.0
C581 C 0.82042 0.16266 0.77712 0.0
H582 H 0.33 0.26158 0.3197 0.0
H583 H 0.41959 0.23019 0.37446 0.0
H584 H 0.4585 0.22776 0.32509 0.0
H585 H 0.46696 0.2334 0.26608 0.0
H586 H 0.37881 0.26419 0.20958 0.0
H587 H 0.33954 0.26828 0.25971 0.0
C588 C 0.35811 0.25437 0.32074 0.0
C589 C 0.37152 0.24561 0.35055 0.0
C590 C 0.38055 0.25288 0.29195 0.0
C591 C 0.40811 0.23639 0.35159 0.0
C592 C 0.43055 0.23514 0.32344 0.0
C593 C 0.43912 0.24101 0.26488 0.0
C594 C 0.42542 0.2483 0.23444 0.0
C595 C 0.41694 0.24305 0.29346 0.0
C596 C 0.38958 0.25834 0.23291 0.0
C597 C 0.36726 0.26065 0.26151 0.0
H598 H 0.79188 0.67831 0.83361 0.0
H599 H 0.86467 0.72824 0.76701 0.0
H600 H 0.90544 0.68963 0.76047 0.0
H601 H 0.92062 0.64187 0.77345 0.0
H602 H 0.8513 0.59385 0.84329 0.0
H603 H 0.80881 0.63129 0.84832 0.0
C604 C 0.81697 0.68102 0.81801 0.0
C605 C 0.82495 0.7062 0.80074 0.0
C606 C 0.84078 0.6589 0.81467 0.0
C607 C 0.85728 0.70888 0.78018 0.0
C608 C 0.88081 0.68688 0.77654 0.0
C609 C 0.89659 0.63971 0.79017 0.0
C610 C 0.88944 0.61492 0.80798 0.0
C611 C 0.87284 0.6618 0.79363 0.0
C612 C 0.85733 0.61227 0.82879 0.0
C613 C 0.83316 0.63391 0.83197 0.0
H614 H 0.92605 0.32995 0.45282 0.0
H615 H 0.8221 0.3579 0.41598 0.0
H616 H 0.86506 0.41146 0.41804 0.0
H617 H 0.93314 0.44917 0.42641 0.0
H618 H 0.03747 0.42059 0.46066 0.0
H619 H 0.99356 0.36872 0.46431 0.0
C620 C 0.91277 0.34797 0.4458 0.0
C621 C 0.87106 0.33996 0.43407 0.0
C622 C 0.93778 0.37855 0.44654 0.0
C623 C 0.85425 0.36341 0.42469 0.0
C624 C 0.87876 0.39403 0.42594 0.0
C625 C 0.94596 0.43159 0.43502 0.0
C626 C 0.9882 0.43828 0.4431 0.0
C627 C 0.92066 0.40167 0.43619 0.0
C628 C 0.00489 0.41565 0.45432 0.0
C629 C 0.97986 0.38606 0.45624 0.0
H630 H 0.2347 0.38785 0.81365 0.0
H631 H 0.16002 0.34399 0.88298 0.0
H632 H 0.10748 0.37026 0.87016 0.0
H633 H 0.08615 0.41006 0.84387 0.0
H634 H 0.16029 0.45399 0.77421 0.0
H635 H 0.20949 0.42326 0.78207 0.0
C636 C 0.20638 0.38347 0.82513 0.0
C637 C 0.20077 0.36395 0.84895 0.0
C638 C 0.17657 0.39903 0.81792 0.0
C639 C 0.1645 0.3587 0.86423 0.0
C640 C 0.13469 0.37391 0.85714 0.0
C641 C 0.11293 0.41262 0.8302 0.0
C642 C 0.11991 0.43448 0.80882 0.0
C643 C 0.14091 0.39484 0.8348 0.0
C644 C 0.15434 0.43729 0.7908 0.0
C645 C 0.18252 0.41982 0.7954 0.0
H646 H 0.22407 0.73364 0.38154 0.0
H647 H 0.31631 0.69371 0.33399 0.0
H648 H 0.28998 0.64419 0.35286 0.0
H649 H 0.23826 0.61111 0.38016 0.0
H650 H 0.14317 0.64951 0.42398 0.0
H651 H 0.17336 0.70103 0.41013 0.0
C652 C 0.23865 0.71421 0.37578 0.0
C653 C 0.27204 0.71721 0.35647 0.0
C654 C 0.22277 0.68559 0.38603 0.0
C655 C 0.29042 0.69178 0.34868 0.0
C656 C 0.27543 0.66353 0.35949 0.0
C657 C 0.22441 0.63091 0.3867 0.0
C658 C 0.18848 0.6267 0.40264 0.0
C659 C 0.24125 0.65998 0.3777 0.0
C660 C 0.17081 0.6524 0.41152 0.0
C661 C 0.18796 0.68171 0.40349 0.0
H662 H 0.75637 0.85728 0.76157 0.0
H663 H 0.81227 0.80264 0.68486 0.0
H664 H 0.83155 0.84819 0.65787 0.0
H665 H 0.82714 0.90199 0.65323 0.0
H666 H 0.77019 0.95645 0.72908 0.0
H667 H 0.75699 0.91299 0.75969 0.0
C668 C 0.77333 0.85573 0.73929 0.0
C669 C 0.78306 0.82698 0.72504 0.0
C670 C 0.78391 0.88192 0.72378 0.0
C671 C 0.80473 0.82478 0.69613 0.0
C672 C 0.81561 0.85073 0.68069 0.0
C673 C 0.81255 0.9044 0.67684 0.0
C674 C 0.79955 0.93208 0.68907 0.0
C675 C 0.80465 0.87918 0.69387 0.0
C676 C 0.78043 0.9352 0.71947 0.0
C677 C 0.77275 0.91035 0.73678 0.0
H678 H 0.71571 0.22724 0.38404 0.0
H679 H 0.81571 0.25997 0.32779 0.0
H680 H 0.76896 0.24885 0.2753 0.0
H681 H 0.69943 0.23699 0.24783 0.0
H682 H 0.59896 0.20054 0.30218 0.0
H683 H 0.64615 0.20635 0.35287 0.0
C684 C 0.72734 0.23104 0.36004 0.0
C685 C 0.76906 0.24502 0.36005 0.0
C686 C 0.70014 0.22472 0.32977 0.0
C687 C 0.78362 0.24981 0.32867 0.0
C688 C 0.75689 0.24353 0.29862 0.0
C689 C 0.68757 0.22938 0.27023 0.0
C690 C 0.64524 0.21912 0.27106 0.0
C691 C 0.71495 0.2321 0.2992 0.0
C692 C 0.63113 0.20971 0.30089 0.0
C693 C 0.65819 0.2127 0.32995 0.0
H694 H 0.26188 0.20899 0.83435 0.0
H695 H 0.31424 0.28284 0.78259 0.0
H696 H 0.31595 0.24191 0.73054 0.0
H697 H 0.30683 0.18485 0.7014 0.0
H698 H 0.25189 0.11126 0.7527 0.0
H699 H 0.24673 0.15221 0.8033 0.0
C700 C 0.27314 0.21601 0.81144 0.0
C701 C 0.28807 0.24875 0.81218 0.0
C702 C 0.27386 0.1924 0.78173 0.0
C703 C 0.30239 0.25774 0.78242 0.0
C704 C 0.30363 0.23436 0.75282 0.0
C705 C 0.29351 0.17791 0.72364 0.0
C706 C 0.28004 0.14518 0.72357 0.0
C707 C 0.29016 0.20161 0.75243 0.0
C708 C 0.26236 0.13633 0.75224 0.0
C709 C 0.25954 0.15972 0.78116 0.0
H710 H 0.40936 0.80532 0.24887 0.0
H711 H 0.30315 0.79114 0.17756 0.0
H712 H 0.34607 0.80329 0.13228 0.0
H713 H 0.41378 0.81154 0.11114 0.0
H714 H 0.51967 0.82431 0.1823 0.0
H715 H 0.47743 0.81955 0.22956 0.0
C716 C 0.39588 0.80581 0.22367 0.0
C717 C 0.35347 0.79769 0.21635 0.0
C718 C 0.42076 0.81224 0.19768 0.0
C719 C 0.33592 0.79775 0.18363 0.0
C720 C 0.36041 0.80444 0.15772 0.0
C721 C 0.42744 0.81403 0.13723 0.0
C722 C 0.46955 0.81839 0.14349 0.0
C723 C 0.40283 0.81081 0.16414 0.0
C724 C 0.48724 0.8212 0.17716 0.0
C725 C 0.4631 0.81829 0.20408 0.0
H726 H 0.8289 0.20114 0.54072 0.0
H727 H 0.79514 0.15279 0.43303 0.0
H728 H 0.79259 0.1009 0.44731 0.0
H729 H 0.80103 0.06962 0.49105 0.0
H730 H 0.83464 0.11892 0.59857 0.0
H731 H 0.83674 0.17029 0.58399 0.0
C732 C 0.82077 0.17912 0.52048 0.0
C733 C 0.81196 0.18039 0.48601 0.0
C734 C 0.81967 0.14974 0.52894 0.0
C735 C 0.80175 0.15206 0.45978 0.0
C736 C 0.80045 0.12254 0.46797 0.0
C737 C 0.80867 0.09171 0.51112 0.0
C738 C 0.81748 0.09073 0.54583 0.0
C739 C 0.8095 0.12111 0.50249 0.0
C740 C 0.82774 0.11932 0.57175 0.0
C741 C 0.82882 0.14857 0.56342 0.0
H742 H 0.33254 0.2379 0.92241 0.0
H743 H 0.36556 0.34103 0.96134 0.0
H744 H 0.40251 0.33581 0.01277 0.0
H745 H 0.42579 0.30238 0.04687 0.0
H746 H 0.4045 0.20072 0.00195 0.0
H747 H 0.36298 0.20542 0.95293 0.0
C748 C 0.34843 0.25951 0.94152 0.0
C749 C 0.34525 0.28981 0.93753 0.0
C750 C 0.37179 0.25668 0.97041 0.0
C751 C 0.36576 0.31714 0.96362 0.0
C752 C 0.38757 0.3143 0.99311 0.0
C753 C 0.41301 0.28117 0.02625 0.0
C754 C 0.41824 0.25109 0.02918 0.0
C755 C 0.39081 0.28417 0.99678 0.0
C756 C 0.40023 0.22411 0.0018 0.0
C757 C 0.37672 0.22677 0.9732 0.0
H758 H 0.34933 0.82738 0.41547 0.0
H759 H 0.27738 0.85359 0.3393 0.0
H760 H 0.27903 0.90376 0.38056 0.0
H761 H 0.29633 0.93811 0.43987 0.0
H762 H 0.36758 0.91135 0.5161 0.0
H763 H 0.37092 0.86361 0.47329 0.0
C764 C 0.33427 0.84422 0.40785 0.0
C765 C 0.31302 0.83668 0.37446 0.0
C766 C 0.33498 0.87282 0.43182 0.0
C767 C 0.29418 0.85892 0.36475 0.0
C768 C 0.29482 0.88748 0.38844 0.0
C769 C 0.31271 0.92186 0.44702 0.0
C770 C 0.33143 0.92816 0.4812 0.0
C771 C 0.31438 0.89435 0.42228 0.0
C772 C 0.35312 0.90718 0.48995 0.0
C773 C 0.35485 0.87977 0.46553 0.0
H774 H 0.68316 0.76686 0.84477 0.0
H775 H 0.79885 0.78057 0.90372 0.0
H776 H 0.76941 0.79438 0.95771 0.0
H777 H 0.70987 0.80055 0.98836 0.0
H778 H 0.59437 0.78641 0.92948 0.0
H779 H 0.62462 0.77522 0.87516 0.0
C780 C 0.70214 0.77338 0.86939 0.0
C781 C 0.74319 0.77263 0.87013 0.0
C782 C 0.68499 0.78126 0.90032 0.0
C783 C 0.76708 0.78057 0.90237 0.0
C784 C 0.75031 0.78862 0.93326 0.0
C785 C 0.69171 0.79555 0.96353 0.0
C786 C 0.65028 0.79476 0.96256 0.0
C787 C 0.70923 0.78877 0.93257 0.0
C788 C 0.62649 0.78752 0.93052 0.0
C789 C 0.64374 0.78102 0.89961 0.0
loop_
_geom_bond_atom_site_label_1
_geom_bond_atom_site_label_2
_geom_bond_distance
_geom_bond_site_symmetry_2
_ccdc_geom_bond_type
H0 C3 0.929 . S
H1 C6 0.929 . S
H2 C8 0.930 . S
C3 H0 0.929 . S
C3 C4 1.398 . S
C3 C5 1.396 . S
C4 C3 1.398 . S
C4 C8 1.407 . S
C5 C3 1.396 . S
C5 C6 1.394 . S
C6 H1 0.929 . S
C6 C5 1.394 . S
C6 C7 1.382 . S
C7 C6 1.382 . S
C7 C8 1.392 . S
C7 N9 1.420 . S
C8 H2 0.930 . S
C8 C4 1.407 . S
C8 C7 1.392 . S
N9 C7 1.420 . S
N9 C10 1.244 . S
C10 N9 1.244 . S
H11 C14 0.929 . S
H12 C17 0.929 . S
H13 C19 0.930 . S
C14 H11 0.929 . S
C14 C15 1.398 . S
C14 C16 1.396 . S
C15 C14 1.398 . S
C15 C19 1.407 . S
C16 C14 1.396 . S
C16 C17 1.394 . S
C17 H12 0.929 . S
C17 C16 1.394 . S
C17 C18 1.382 . S
C18 C17 1.382 . S
C18 C19 1.392 . S
C18 N20 1.420 . S
C19 H13 0.930 . S
C19 C15 1.407 . S
C19 C18 1.392 . S
N20 C18 1.420 . S
N20 C21 1.244 . S
C21 N20 1.244 . S
H22 C25 0.929 . S
H23 C28 0.929 . S
H24 C30 0.930 . S
C25 H22 0.929 . S
C25 C26 1.398 . S
C25 C27 1.396 . S
C26 C25 1.398 . S
C26 C30 1.407 . S
C27 C25 1.396 . S
C27 C28 1.394 . S
C28 H23 0.929 . S
C28 C27 1.394 . S
C28 C29 1.382 . S
C29 C28 1.382 . S
C29 C30 1.392 . S
C29 N31 1.420 . S
C30 H24 0.930 . S
C30 C26 1.407 . S
C30 C29 1.392 . S
N31 C29 1.420 . S
N31 C32 1.244 . S
C32 N31 1.244 . S
H33 C36 0.929 . S
H34 C39 0.929 . S
H35 C41 0.930 . S
C36 H33 0.929 . S
C36 C37 1.398 . S
C36 C38 1.396 . S
C37 C36 1.398 . S
C37 C41 1.407 . S
C38 C36 1.396 . S
C38 C39 1.394 . S
C39 H34 0.929 . S
C39 C38 1.394 . S
C39 C40 1.382 . S
C40 C39 1.382 . S
C40 C41 1.392 . S
C40 N42 1.420 . S
C41 H35 0.930 . S
C41 C37 1.407 . S
C41 C40 1.392 . S
N42 C40 1.420 . S
N42 C43 1.244 . S
C43 N42 1.244 . S
H44 C47 0.929 . S
H45 C50 0.929 . S
H46 C52 0.930 . S
C47 H44 0.929 . S
C47 C48 1.398 . S
C47 C49 1.396 . S
C48 C47 1.398 . S
C48 C52 1.407 . S
C49 C47 1.396 . S
C49 C50 1.394 . S
C50 H45 0.929 . S
C50 C49 1.394 . S
C50 C51 1.382 . S
C51 C50 1.382 . S
C51 C52 1.392 . S
C51 N53 1.420 . S
C52 H46 0.930 . S
C52 C48 1.407 . S
C52 C51 1.392 . S
N53 C51 1.420 . S
N53 C54 1.244 . S
C54 N53 1.244 . S
H55 C58 0.929 . S
H56 C61 0.929 . S
H57 C63 0.930 . S
C58 H55 0.929 . S
C58 C59 1.398 . S
C58 C60 1.396 . S
C59 C58 1.398 . S
C59 C63 1.407 . S
C60 C58 1.396 . S
C60 C61 1.394 . S
C61 H56 0.929 . S
C61 C60 1.394 . S
C61 C62 1.382 . S
C62 C61 1.382 . S
C62 C63 1.392 . S
C62 N64 1.420 . S
C63 H57 0.930 . S
C63 C59 1.407 . S
C63 C62 1.392 . S
N64 C62 1.420 . S
N64 C65 1.244 . S
C65 N64 1.244 . S
H66 C69 0.929 . S
H67 C72 0.929 . S
H68 C74 0.930 . S
C69 H66 0.929 . S
C69 C70 1.398 . S
C69 C71 1.396 . S
C70 C69 1.398 . S
C70 C74 1.407 . S
C71 C69 1.396 . S
C71 C72 1.394 . S
C72 H67 0.929 . S
C72 C71 1.394 . S
C72 C73 1.382 . S
C73 C72 1.382 . S
C73 C74 1.392 . S
C73 N75 1.420 . S
C74 H68 0.930 . S
C74 C70 1.407 . S
C74 C73 1.392 . S
N75 C73 1.420 . S
N75 C76 1.244 . S
C76 N75 1.244 . S
H77 C80 0.929 . S
H78 C83 0.929 . S
H79 C85 0.930 . S
C80 H77 0.929 . S
C80 C81 1.398 . S
C80 C82 1.396 . S
C81 C80 1.398 . S
C81 C85 1.407 . S
C82 C80 1.396 . S
C82 C83 1.394 . S
C83 H78 0.929 . S
C83 C82 1.394 . S
C83 C84 1.382 . S
C84 C83 1.382 . S
C84 C85 1.392 . S
C84 N86 1.420 . S
C85 H79 0.930 . S
C85 C81 1.407 . S
C85 C84 1.392 . S
N86 C84 1.420 . S
N86 C87 1.244 . S
C87 N86 1.244 . S
C88 C89 1.443 . S
C88 N92 1.376 . S
C88 C126 1.389 . S
C89 C88 1.443 . S
C89 C90 1.340 . S
C89 H129 0.951 . S
C90 C89 1.340 . S
C90 C91 1.439 . S
C90 H130 0.950 . S
C91 C90 1.439 . S
C91 N92 1.374 . S
C91 C125 1.395 . S
N92 C88 1.376 . S
N92 C91 1.374 . S
N92 Co93 2.008 . S
Co93 N92 2.008 . S
Co93 N94 1.995 . S
Co93 N99 2.008 . S
Co93 N104 1.995 . S
Co93 N109 2.282 . S
Co93 N115 2.282 . S
N94 Co93 1.995 . S
N94 C95 1.376 . S
N94 C98 1.383 . S
C95 N94 1.376 . S
C95 C96 1.446 . S
C95 C125 1.391 . S
C96 C95 1.446 . S
C96 C97 1.339 . S
C96 H131 0.949 . S
C97 C96 1.339 . S
C97 C98 1.439 . S
C97 H132 0.950 1_455 S
C98 N94 1.383 . S
C98 C97 1.439 . S
C98 C127 1.392 1_455 S
N99 Co93 2.008 . S
N99 C100 1.376 . S
N99 C103 1.374 . S
C100 N99 1.376 . S
C100 C101 1.443 1_455 S
C100 C127 1.389 1_455 S
C101 C100 1.443 1_655 S
C101 C102 1.340 . S
C101 H133 0.951 . S
C102 C101 1.340 . S
C102 C103 1.439 1_655 S
C102 H134 0.950 . S
C103 N99 1.374 . S
C103 C102 1.439 1_455 S
C103 C128 1.395 . S
N104 Co93 1.995 . S
N104 C105 1.376 . S
N104 C108 1.383 . S
C105 N104 1.376 . S
C105 C106 1.446 . S
C105 C128 1.391 . S
C106 C105 1.446 . S
C106 C107 1.339 . S
C106 H135 0.949 . S
C107 C106 1.339 . S
C107 C108 1.439 . S
C107 H136 0.950 . S
C108 N104 1.383 . S
C108 C107 1.439 . S
C108 C126 1.392 . S
N109 Co93 2.282 . S
N109 C112 1.332 . S
N109 C114 1.332 . S
C110 C111 1.386 . S
C110 C113 1.388 . S
C111 C110 1.386 . S
C111 C112 1.382 . S
C111 H137 0.950 . S
C112 N109 1.332 . S
C112 C111 1.382 . S
C112 H123 0.952 . S
C113 C110 1.388 . S
C113 C114 1.382 . S
C113 H138 0.950 . S
C114 N109 1.332 . S
C114 C113 1.382 . S
C114 H124 0.948 . S
N115 Co93 2.282 . S
N115 C119 1.332 . S
N115 C120 1.332 . S
C116 C117 1.388 . S
C116 C120 1.382 1_655 S
C116 H139 0.950 . S
C117 C116 1.388 . S
C117 C118 1.386 . S
C118 C117 1.386 . S
C118 C119 1.382 1_655 S
C118 H140 0.950 . S
C119 N115 1.332 . S
C119 C118 1.382 1_455 S
C119 H121 0.952 . S
C120 N115 1.332 . S
C120 C116 1.382 1_455 S
C120 H122 0.948 . S
H121 C119 0.952 . S
H122 C120 0.948 . S
H123 C112 0.952 . S
H124 C114 0.948 . S
C125 C91 1.395 . S
C125 C95 1.391 . S
C126 C88 1.389 . S
C126 C108 1.392 . S
C127 C98 1.392 1_655 S
C127 C100 1.389 1_655 S
C128 C103 1.395 . S
C128 C105 1.391 . S
H129 C89 0.951 . S
H130 C90 0.950 . S
H131 C96 0.949 . S
H132 C97 0.950 1_655 S
H133 C101 0.951 . S
H134 C102 0.950 . S
H135 C106 0.949 . S
H136 C107 0.950 . S
H137 C111 0.950 . S
H138 C113 0.950 . S
H139 C116 0.950 . S
H140 C118 0.950 . S
C141 C142 1.443 . S
C141 N145 1.376 . S
C141 C179 1.389 . S
C142 C141 1.443 . S
C142 C143 1.340 . S
C142 H182 0.951 . S
C143 C142 1.340 . S
C143 C144 1.439 . S
C143 H183 0.950 . S
C144 C143 1.439 . S
C144 N145 1.374 . S
C144 C178 1.395 . S
N145 C141 1.376 . S
N145 C144 1.374 . S
N145 Co146 2.008 . S
Co146 N145 2.008 . S
Co146 N147 1.995 1_455 S
Co146 N152 2.008 1_455 S
Co146 N157 1.995 . S
Co146 N162 2.282 . S
Co146 N168 2.282 1_455 S
N147 Co146 1.995 1_655 S
N147 C148 1.376 1_655 S
N147 C151 1.383 . S
C148 N147 1.376 1_455 S
C148 C149 1.444 1_455 S
C148 C178 1.393 . S
C149 C148 1.444 1_655 S
C149 C150 1.339 . S
C149 H184 0.949 . S
C150 C149 1.339 . S
C150 C151 1.439 . S
C150 H185 0.950 . S
C151 N147 1.383 . S
C151 C150 1.439 . S
C151 C180 1.392 . S
N152 Co146 2.008 1_655 S
N152 C153 1.376 . S
N152 C156 1.374 . S
C153 N152 1.376 . S
C153 C154 1.443 . S
C153 C180 1.389 . S
C154 C153 1.443 . S
C154 C155 1.340 . S
C154 H186 0.951 . S
C155 C154 1.340 . S
C155 C156 1.439 . S
C155 H187 0.950 . S
C156 N152 1.374 . S
C156 C155 1.439 . S
C156 C181 1.395 . S
N157 Co146 1.995 . S
N157 C158 1.376 . S
N157 C161 1.383 . S
C158 N157 1.376 . S
C158 C159 1.446 . S
C158 C181 1.391 1_455 S
C159 C158 1.446 . S
C159 C160 1.339 . S
C159 H188 0.949 . S
C160 C159 1.339 . S
C160 C161 1.439 . S
C160 H189 0.950 . S
C161 N157 1.383 . S
C161 C160 1.439 . S
C161 C179 1.392 . S
N162 Co146 2.282 . S
N162 C165 1.332 . S
N162 C167 1.332 . S
C163 C164 1.386 . S
C163 C166 1.388 . S
C164 C163 1.386 . S
C164 C165 1.382 . S
C164 H190 0.950 . S
C165 N162 1.332 . S
C165 C164 1.382 . S
C165 H176 0.952 . S
C166 C163 1.388 . S
C166 C167 1.382 . S
C166 H191 0.950 . S
C167 N162 1.332 . S
C167 C166 1.382 . S
C167 H177 0.948 . S
N168 Co146 2.282 1_655 S
N168 C172 1.332 . S
N168 C173 1.332 . S
C169 C170 1.388 . S
C169 C173 1.382 . S
C169 H192 0.950 . S
C170 C169 1.388 . S
C170 C171 1.386 . S
C171 C170 1.386 . S
C171 C172 1.382 . S
C171 H193 0.950 . S
C172 N168 1.332 . S
C172 C171 1.382 . S
C172 H174 0.952 . S
C173 N168 1.332 . S
C173 C169 1.382 . S
C173 H175 0.948 . S
H174 C172 0.952 . S
H175 C173 0.948 . S
H176 C165 0.952 . S
H177 C167 0.948 . S
C178 C144 1.395 . S
C178 C148 1.393 . S
C179 C141 1.389 . S
C179 C161 1.392 . S
C180 C151 1.392 . S
C180 C153 1.389 . S
C181 C156 1.395 . S
C181 C158 1.391 1_655 S
H182 C142 0.951 . S
H183 C143 0.950 . S
H184 C149 0.949 . S
H185 C150 0.950 . S
H186 C154 0.951 . S
H187 C155 0.950 . S
H188 C159 0.949 . S
H189 C160 0.950 . S
H190 C164 0.950 . S
H191 C166 0.950 . S
H192 C169 0.950 . S
H193 C171 0.950 . S
C194 C195 1.443 . S
C194 N198 1.376 1_565 S
C194 C232 1.389 . S
C195 C194 1.443 . S
C195 C196 1.340 1_565 S
C195 H235 0.951 . S
C196 C195 1.340 1_545 S
C196 C197 1.439 . S
C196 H236 0.950 . S
C197 C196 1.439 . S
C197 N198 1.374 . S
C197 C231 1.395 . S
N198 C194 1.376 1_545 S
N198 C197 1.374 . S
N198 Co199 2.008 . S
Co199 N198 2.008 . S
Co199 N200 1.995 . S
Co199 N205 2.008 . S
Co199 N210 1.995 . S
Co199 N215 2.282 . S
Co199 N221 2.282 1_545 S
N200 Co199 1.995 . S
N200 C201 1.376 . S
N200 C204 1.383 . S
C201 N200 1.376 . S
C201 C202 1.446 . S
C201 C231 1.391 . S
C202 C201 1.446 . S
C202 C203 1.339 . S
C202 H237 0.949 . S
C203 C202 1.339 . S
C203 C204 1.439 . S
C203 H238 0.950 . S
C204 N200 1.383 . S
C204 C203 1.439 . S
C204 C233 1.392 . S
N205 Co199 2.008 . S
N205 C206 1.376 . S
N205 C209 1.374 . S
C206 N205 1.376 . S
C206 C207 1.443 . S
C206 C233 1.389 . S
C207 C206 1.443 . S
C207 C208 1.340 . S
C207 H239 0.951 . S
C208 C207 1.340 . S
C208 C209 1.439 . S
C208 H240 0.950 . S
C209 N205 1.374 . S
C209 C208 1.439 . S
C209 C234 1.395 . S
N210 Co199 1.995 . S
N210 C211 1.376 1_545 S
N210 C214 1.383 1_545 S
C211 N210 1.376 1_565 S
C211 C212 1.446 . S
C211 C234 1.391 1_565 S
C212 C211 1.446 . S
C212 C213 1.339 . S
C212 H241 0.949 . S
C213 C212 1.339 . S
C213 C214 1.439 . S
C213 H242 0.950 . S
C214 N210 1.383 1_565 S
C214 C213 1.439 . S
C214 C232 1.392 . S
N215 Co199 2.282 . S
N215 C218 1.332 . S
N215 C220 1.332 . S
C216 C217 1.386 . S
C216 C219 1.388 . S
C217 C216 1.386 . S
C217 C218 1.382 . S
C217 H243 0.950 . S
C218 N215 1.332 . S
C218 C217 1.382 . S
C218 H229 0.952 . S
C219 C216 1.388 . S
C219 C220 1.382 . S
C219 H244 0.950 . S
C220 N215 1.332 . S
C220 C219 1.382 . S
C220 H230 0.948 . S
N221 Co199 2.282 1_565 S
N221 C225 1.332 . S
N221 C226 1.332 . S
C222 C223 1.388 . S
C222 C226 1.382 . S
C222 H245 0.950 . S
C223 C222 1.388 . S
C223 C224 1.386 . S
C224 C223 1.386 . S
C224 C225 1.382 . S
C224 H246 0.950 . S
C225 N221 1.332 . S
C225 C224 1.382 . S
C225 H227 0.952 1_565 S
C226 N221 1.332 . S
C226 C222 1.382 . S
C226 H228 0.948 . S
H227 C225 0.952 1_545 S
H228 C226 0.948 . S
H229 C218 0.952 . S
H230 C220 0.948 . S
C231 C197 1.395 . S
C231 C201 1.391 . S
C232 C194 1.389 . S
C232 C214 1.392 . S
C233 C204 1.392 . S
C233 C206 1.389 . S
C234 C209 1.395 . S
C234 C211 1.391 1_545 S
H235 C195 0.951 . S
H236 C196 0.950 . S
H237 C202 0.949 . S
H238 C203 0.950 . S
H239 C207 0.951 . S
H240 C208 0.950 . S
H241 C212 0.949 . S
H242 C213 0.950 . S
H243 C217 0.950 . S
H244 C219 0.950 . S
H245 C222 0.950 . S
H246 C224 0.950 . S
C247 C248 1.443 . S
C247 N251 1.376 . S
C247 C285 1.389 . S
C248 C247 1.443 . S
C248 C249 1.340 . S
C248 H288 0.951 . S
C249 C248 1.340 . S
C249 C250 1.439 . S
C249 H289 0.950 . S
C250 C249 1.439 . S
C250 N251 1.374 . S
C250 C284 1.395 . S
N251 C247 1.376 . S
N251 C250 1.374 . S
N251 Co252 2.008 . S
Co252 N251 2.008 . S
Co252 N253 1.995 1_554 S
Co252 N258 2.008 1_554 S
Co252 N263 1.995 . S
Co252 N268 2.282 1_554 S
Co252 N274 2.282 . S
N253 Co252 1.995 1_556 S
N253 C254 1.376 1_556 S
N253 C257 1.383 . S
C254 N253 1.376 1_554 S
C254 C255 1.446 1_554 S
C254 C284 1.391 . S
C255 C254 1.446 1_556 S
C255 C256 1.339 . S
C255 H290 0.949 . S
C256 C255 1.339 . S
C256 C257 1.439 . S
C256 H291 0.950 . S
C257 N253 1.383 . S
C257 C256 1.439 . S
C257 C286 1.392 . S
N258 Co252 2.008 1_556 S
N258 C259 1.376 . S
N258 C262 1.374 . S
C259 N258 1.376 . S
C259 C260 1.443 . S
C259 C286 1.389 . S
C260 C259 1.443 . S
C260 C261 1.340 . S
C260 H292 0.951 . S
C261 C260 1.340 . S
C261 C262 1.439 . S
C261 H293 0.950 . S
C262 N258 1.374 . S
C262 C261 1.439 . S
C262 C287 1.395 . S
N263 Co252 1.995 . S
N263 C264 1.376 . S
N263 C267 1.383 . S
C264 N263 1.376 . S
C264 C265 1.446 . S
C264 C287 1.391 1_554 S
C265 C264 1.446 . S
C265 C266 1.339 . S
C265 H294 0.949 . S
C266 C265 1.339 . S
C266 C267 1.439 . S
C266 H295 0.950 . S
C267 N263 1.383 . S
C267 C266 1.439 . S
C267 C285 1.392 . S
N268 Co252 2.282 1_556 S
N268 C271 1.332 . S
N268 C273 1.332 . S
C269 C270 1.386 . S
C269 C272 1.388 . S
C270 C269 1.386 . S
C270 C271 1.382 . S
C270 H296 0.950 . S
C271 N268 1.332 . S
C271 C270 1.382 . S
C271 H282 0.952 . S
C272 C269 1.388 . S
C272 C273 1.382 . S
C272 H297 0.950 . S
C273 N268 1.332 . S
C273 C272 1.382 . S
C273 H283 0.948 . S
N274 Co252 2.282 . S
N274 C278 1.332 . S
N274 C279 1.332 . S
C275 C276 1.388 . S
C275 C279 1.382 . S
C275 H298 0.950 . S
C276 C275 1.388 . S
C276 C277 1.386 . S
C277 C276 1.386 . S
C277 C278 1.382 . S
C277 H299 0.950 . S
C278 N274 1.332 . S
C278 C277 1.382 . S
C278 H280 0.952 . S
C279 N274 1.332 . S
C279 C275 1.382 . S
C279 H281 0.948 . S
H280 C278 0.952 . S
H281 C279 0.948 . S
H282 C271 0.952 . S
H283 C273 0.948 . S
C284 C250 1.395 . S
C284 C254 1.391 . S
C285 C247 1.389 . S
C285 C267 1.392 . S
C286 C257 1.392 . S
C286 C259 1.389 . S
C287 C262 1.395 . S
C287 C264 1.391 1_556 S
H288 C248 0.951 . S
H289 C249 0.950 . S
H290 C255 0.949 . S
H291 C256 0.950 . S
H292 C260 0.951 . S
H293 C261 0.950 . S
H294 C265 0.949 . S
H295 C266 0.950 . S
H296 C270 0.950 . S
H297 C272 0.950 . S
H298 C275 0.950 . S
H299 C277 0.950 . S
C300 C301 1.443 . S
C300 N304 1.376 1_565 S
C300 C338 1.389 . S
C301 C300 1.443 . S
C301 C302 1.340 1_565 S
C301 H341 0.951 . S
C302 C301 1.340 1_545 S
C302 C303 1.439 . S
C302 H342 0.950 1_655 S
C303 C302 1.439 . S
C303 N304 1.374 . S
C303 C337 1.388 1_655 S
N304 C300 1.376 1_545 S
N304 C303 1.374 . S
N304 Co305 2.008 . S
Co305 N304 2.008 . S
Co305 N306 1.995 . S
Co305 N311 2.008 . S
Co305 N316 1.995 . S
Co305 N321 2.282 . S
Co305 N327 2.282 . S
N306 Co305 1.995 . S
N306 C307 1.376 . S
N306 C310 1.383 . S
C307 N306 1.376 . S
C307 C308 1.446 1_655 S
C307 C337 1.377 1_655 S
C308 C307 1.446 1_455 S
C308 C309 1.339 1_455 S
C308 H343 0.949 . S
C309 C308 1.339 1_655 S
C309 C310 1.439 . S
C309 H344 0.950 . S
C310 N306 1.383 . S
C310 C309 1.439 . S
C310 C339 1.392 . S
N311 Co305 2.008 . S
N311 C312 1.376 . S
N311 C315 1.374 . S
C312 N311 1.376 . S
C312 C313 1.443 . S
C312 C339 1.389 . S
C313 C312 1.443 . S
C313 C314 1.340 . S
C313 H345 0.951 . S
C314 C313 1.340 . S
C314 C315 1.439 . S
C314 H346 0.950 . S
C315 N311 1.374 . S
C315 C314 1.439 . S
C315 C340 1.395 . S
N316 Co305 1.995 . S
N316 C317 1.376 . S
N316 C320 1.383 1_545 S
C317 N316 1.376 . S
C317 C318 1.446 1_545 S
C317 C340 1.391 . S
C318 C317 1.446 1_565 S
C318 C319 1.339 . S
C318 H347 0.949 . S
C319 C318 1.339 . S
C319 C320 1.439 . S
C319 H348 0.950 . S
C320 N316 1.383 1_565 S
C320 C319 1.439 . S
C320 C338 1.392 . S
N321 Co305 2.282 . S
N321 C324 1.332 . S
N321 C326 1.332 . S
C322 C323 1.386 . S
C322 C325 1.388 . S
C323 C322 1.386 . S
C323 C324 1.382 . S
C323 H349 0.950 . S
C324 N321 1.332 . S
C324 C323 1.382 . S
C324 H335 0.952 . S
C325 C322 1.388 . S
C325 C326 1.382 . S
C325 H350 0.950 . S
C326 N321 1.332 . S
C326 C325 1.382 . S
C326 H336 0.948 . S
N327 Co305 2.282 . S
N327 C331 1.332 . S
N327 C332 1.332 1_545 S
C328 C329 1.388 . S
C328 C332 1.382 . S
C328 H351 0.950 . S
C329 C328 1.388 . S
C329 C330 1.386 . S
C330 C329 1.386 . S
C330 C331 1.382 1_565 S
C330 H352 0.950 . S
C331 N327 1.332 . S
C331 C330 1.382 1_545 S
C331 H333 0.952 . S
C332 N327 1.332 1_565 S
C332 C328 1.382 . S
C332 H334 0.948 . S
H333 C331 0.952 . S
H334 C332 0.948 . S
H335 C324 0.952 . S
H336 C326 0.948 . S
C337 C303 1.388 1_455 S
C337 C307 1.377 1_455 S
C338 C300 1.389 . S
C338 C320 1.392 . S
C339 C310 1.392 . S
C339 C312 1.389 . S
C340 C315 1.395 . S
C340 C317 1.391 . S
H341 C301 0.951 . S
H342 C302 0.950 1_455 S
H343 C308 0.949 . S
H344 C309 0.950 . S
H345 C313 0.951 . S
H346 C314 0.950 . S
H347 C318 0.949 . S
H348 C319 0.950 . S
H349 C323 0.950 . S
H350 C325 0.950 . S
H351 C328 0.950 . S
H352 C330 0.950 . S
C353 C354 1.443 . S
C353 N357 1.376 . S
C353 C391 1.389 . S
C354 C353 1.443 . S
C354 C355 1.340 . S
C354 H394 0.951 . S
C355 C354 1.340 . S
C355 C356 1.439 . S
C355 H395 0.950 . S
C356 C355 1.439 . S
C356 N357 1.374 . S
C356 C390 1.395 . S
N357 C353 1.376 . S
N357 C356 1.374 . S
N357 Co358 2.008 . S
Co358 N357 2.008 . S
Co358 N359 1.995 . S
Co358 N364 2.008 . S
Co358 N369 1.995 . S
Co358 N374 2.282 . S
Co358 N380 2.282 . S
N359 Co358 1.995 . S
N359 C360 1.376 . S
N359 C363 1.383 . S
C360 N359 1.376 . S
C360 C361 1.446 . S
C360 C390 1.391 . S
C361 C360 1.446 . S
C361 C362 1.339 . S
C361 H396 0.949 . S
C362 C361 1.339 . S
C362 C363 1.439 . S
C362 H397 0.950 . S
C363 N359 1.383 . S
C363 C362 1.439 . S
C363 C392 1.392 . S
N364 Co358 2.008 . S
N364 C365 1.376 . S
N364 C368 1.374 . S
C365 N364 1.376 . S
C365 C366 1.443 . S
C365 C392 1.389 . S
C366 C365 1.443 . S
C366 C367 1.340 . S
C366 H398 0.951 . S
C367 C366 1.340 . S
C367 C368 1.439 . S
C367 H399 0.950 . S
C368 N364 1.374 . S
C368 C367 1.439 . S
C368 C393 1.395 . S
N369 Co358 1.995 . S
N369 C370 1.376 . S
N369 C373 1.383 . S
C370 N369 1.376 . S
C370 C371 1.446 . S
C370 C393 1.391 . S
C371 C370 1.446 . S
C371 C372 1.339 . S
C371 H400 0.949 . S
C372 C371 1.339 . S
C372 C373 1.439 . S
C372 H401 0.950 . S
C373 N369 1.383 . S
C373 C372 1.439 . S
C373 C391 1.392 . S
N374 Co358 2.282 . S
N374 C377 1.332 . S
N374 C379 1.332 . S
C375 C376 1.386 . S
C375 C378 1.388 . S
C376 C375 1.386 . S
C376 C377 1.382 . S
C376 H402 0.950 . S
C377 N374 1.332 . S
C377 C376 1.382 . S
C377 H388 0.952 . S
C378 C375 1.388 . S
C378 C379 1.382 . S
C378 H403 0.950 . S
C379 N374 1.332 . S
C379 C378 1.382 . S
C379 H389 0.948 . S
N380 Co358 2.282 . S
N380 C384 1.332 . S
N380 C385 1.332 . S
C381 C382 1.388 . S
C381 C385 1.382 . S
C381 H404 0.950 . S
C382 C381 1.388 . S
C382 C383 1.386 . S
C383 C382 1.386 . S
C383 C384 1.382 . S
C383 H405 0.950 . S
C384 N380 1.332 . S
C384 C383 1.382 . S
C384 H386 0.952 . S
C385 N380 1.332 . S
C385 C381 1.382 . S
C385 H387 0.948 . S
H386 C384 0.952 . S
H387 C385 0.948 . S
H388 C377 0.952 . S
H389 C379 0.948 . S
C390 C356 1.395 . S
C390 C360 1.391 . S
C391 C353 1.389 . S
C391 C373 1.392 . S
C392 C363 1.392 . S
C392 C365 1.389 . S
C393 C368 1.395 . S
C393 C370 1.391 . S
H394 C354 0.951 . S
H395 C355 0.950 . S
H396 C361 0.949 . S
H397 C362 0.950 . S
H398 C366 0.951 . S
H399 C367 0.950 . S
H400 C371 0.949 . S
H401 C372 0.950 . S
H402 C376 0.950 . S
H403 C378 0.950 . S
H404 C381 0.950 . S
H405 C383 0.950 . S
H406 C412 0.930 . S
H407 C415 0.930 . S
H408 C416 0.930 . S
H409 C417 0.930 . S
H410 C420 0.930 . S
H411 C421 0.930 . S
C412 H406 0.930 . S
C412 C413 1.355 . S
C412 C414 1.415 . S
C413 C412 1.355 . S
C413 C415 1.419 . S
C414 C412 1.415 . S
C414 C419 1.425 . S
C414 C421 1.409 . S
C415 H407 0.930 . S
C415 C413 1.419 . S
C415 C416 1.362 . S
C416 H408 0.930 . S
C416 C415 1.362 . S
C416 C419 1.409 . S
C417 H409 0.930 . S
C417 C418 1.355 . S
C417 C419 1.415 . S
C418 C417 1.355 . S
C418 C420 1.419 . S
C419 C414 1.425 . S
C419 C416 1.409 . S
C419 C417 1.415 . S
C420 H410 0.930 . S
C420 C418 1.419 . S
C420 C421 1.362 . S
C421 H411 0.930 . S
C421 C414 1.409 . S
C421 C420 1.362 . S
H422 C428 0.930 . S
H423 C431 0.930 . S
H424 C432 0.930 . S
H425 C433 0.930 . S
H426 C436 0.930 . S
H427 C437 0.930 . S
C428 H422 0.930 . S
C428 C429 1.355 . S
C428 C430 1.415 . S
C429 C428 1.355 . S
C429 C431 1.419 . S
C430 C428 1.415 . S
C430 C435 1.425 . S
C430 C437 1.409 . S
C431 H423 0.930 . S
C431 C429 1.419 . S
C431 C432 1.362 . S
C432 H424 0.930 . S
C432 C431 1.362 . S
C432 C435 1.409 . S
C433 H425 0.930 . S
C433 C434 1.355 . S
C433 C435 1.415 . S
C434 C433 1.355 . S
C434 C436 1.419 . S
C435 C430 1.425 . S
C435 C432 1.409 . S
C435 C433 1.415 . S
C436 H426 0.930 . S
C436 C434 1.419 . S
C436 C437 1.362 . S
C437 H427 0.930 . S
C437 C430 1.409 . S
C437 C436 1.362 . S
H438 C444 0.930 . S
H439 C447 0.930 . S
H440 C448 0.930 . S
H441 C449 0.930 . S
H442 C452 0.930 . S
H443 C453 0.930 . S
C444 H438 0.930 . S
C444 C445 1.355 . S
C444 C446 1.415 . S
C445 C444 1.355 . S
C445 C447 1.419 . S
C446 C444 1.415 . S
C446 C451 1.425 . S
C446 C453 1.409 . S
C447 H439 0.930 . S
C447 C445 1.419 . S
C447 C448 1.362 . S
C448 H440 0.930 . S
C448 C447 1.362 . S
C448 C451 1.409 . S
C449 H441 0.930 . S
C449 C450 1.355 . S
C449 C451 1.415 . S
C450 C449 1.355 . S
C450 C452 1.419 . S
C451 C446 1.425 . S
C451 C448 1.409 . S
C451 C449 1.415 . S
C452 H442 0.930 . S
C452 C450 1.419 . S
C452 C453 1.362 . S
C453 H443 0.930 . S
C453 C446 1.409 . S
C453 C452 1.362 . S
H454 C460 0.930 . S
H455 C463 0.930 . S
H456 C464 0.930 . S
H457 C465 0.930 . S
H458 C468 0.930 . S
H459 C469 0.930 . S
C460 H454 0.930 . S
C460 C461 1.355 . S
C460 C462 1.415 . S
C461 C460 1.355 . S
C461 C463 1.419 . S
C462 C460 1.415 . S
C462 C467 1.425 . S
C462 C469 1.409 . S
C463 H455 0.930 . S
C463 C461 1.419 . S
C463 C464 1.362 . S
C464 H456 0.930 . S
C464 C463 1.362 . S
C464 C467 1.409 . S
C465 H457 0.930 . S
C465 C466 1.355 . S
C465 C467 1.415 . S
C466 C465 1.355 . S
C466 C468 1.419 . S
C467 C462 1.425 . S
C467 C464 1.409 . S
C467 C465 1.415 . S
C468 H458 0.930 . S
C468 C466 1.419 . S
C468 C469 1.362 . S
C469 H459 0.930 . S
C469 C462 1.409 . S
C469 C468 1.362 . S
H470 C476 0.930 . S
H471 C479 0.930 . S
H472 C480 0.930 . S
H473 C481 0.930 . S
H474 C484 0.930 . S
H475 C485 0.930 . S
C476 H470 0.930 . S
C476 C477 1.355 . S
C476 C478 1.415 . S
C477 C476 1.355 . S
C477 C479 1.419 . S
C478 C476 1.415 . S
C478 C483 1.425 . S
C478 C485 1.409 . S
C479 H471 0.930 . S
C479 C477 1.419 . S
C479 C480 1.362 . S
C480 H472 0.930 . S
C480 C479 1.362 . S
C480 C483 1.409 . S
C481 H473 0.930 . S
C481 C482 1.355 . S
C481 C483 1.415 . S
C482 C481 1.355 . S
C482 C484 1.419 . S
C483 C478 1.425 . S
C483 C480 1.409 . S
C483 C481 1.415 . S
C484 H474 0.930 . S
C484 C482 1.419 . S
C484 C485 1.362 . S
C485 H475 0.930 . S
C485 C478 1.409 . S
C485 C484 1.362 . S
H486 C492 0.930 . S
H487 C495 0.930 . S
H488 C496 0.930 . S
H489 C497 0.930 . S
H490 C500 0.930 . S
H491 C501 0.930 . S
C492 H486 0.930 . S
C492 C493 1.355 . S
C492 C494 1.415 . S
C493 C492 1.355 . S
C493 C495 1.419 . S
C494 C492 1.415 . S
C494 C499 1.425 . S
C494 C501 1.409 . S
C495 H487 0.930 . S
C495 C493 1.419 . S
C495 C496 1.362 . S
C496 H488 0.930 . S
C496 C495 1.362 . S
C496 C499 1.409 . S
C497 H489 0.930 . S
C497 C498 1.355 . S
C497 C499 1.415 . S
C498 C497 1.355 . S
C498 C500 1.419 . S
C499 C494 1.425 . S
C499 C496 1.409 . S
C499 C497 1.415 . S
C500 H490 0.930 . S
C500 C498 1.419 . S
C500 C501 1.362 . S
C501 H491 0.930 . S
C501 C494 1.409 . S
C501 C500 1.362 . S
H502 C508 0.930 . S
H503 C511 0.930 . S
H504 C512 0.930 . S
H505 C513 0.930 . S
H506 C516 0.930 . S
H507 C517 0.930 . S
C508 H502 0.930 . S
C508 C509 1.355 . S
C508 C510 1.415 . S
C509 C508 1.355 . S
C509 C511 1.419 . S
C510 C508 1.415 . S
C510 C515 1.425 . S
C510 C517 1.409 . S
C511 H503 0.930 . S
C511 C509 1.419 . S
C511 C512 1.362 . S
C512 H504 0.930 . S
C512 C511 1.362 . S
C512 C515 1.409 . S
C513 H505 0.930 . S
C513 C514 1.355 . S
C513 C515 1.415 . S
C514 C513 1.355 . S
C514 C516 1.419 . S
C515 C510 1.425 . S
C515 C512 1.409 . S
C515 C513 1.415 . S
C516 H506 0.930 . S
C516 C514 1.419 . S
C516 C517 1.362 . S
C517 H507 0.930 . S
C517 C510 1.409 . S
C517 C516 1.362 . S
H518 C524 0.930 . S
H519 C527 0.930 . S
H520 C528 0.930 . S
H521 C529 0.930 . S
H522 C532 0.930 . S
H523 C533 0.930 . S
C524 H518 0.930 . S
C524 C525 1.355 . S
C524 C526 1.415 1_556 S
C525 C524 1.355 . S
C525 C527 1.419 . S
C526 C524 1.415 1_554 S
C526 C531 1.425 . S
C526 C533 1.409 . S
C527 H519 0.930 . S
C527 C525 1.419 . S
C527 C528 1.362 . S
C528 H520 0.930 . S
C528 C527 1.362 . S
C528 C531 1.409 1_556 S
C529 H521 0.930 . S
C529 C530 1.355 . S
C529 C531 1.415 . S
C530 C529 1.355 . S
C530 C532 1.419 . S
C531 C526 1.425 . S
C531 C528 1.409 1_554 S
C531 C529 1.415 . S
C532 H522 0.930 . S
C532 C530 1.419 . S
C532 C533 1.362 . S
C533 H523 0.930 . S
C533 C526 1.409 . S
C533 C532 1.362 . S
H534 C540 0.930 . S
H535 C543 0.930 . S
H536 C544 0.930 . S
H537 C545 0.930 . S
H538 C548 0.930 . S
H539 C549 0.930 . S
C540 H534 0.930 . S
C540 C541 1.355 . S
C540 C542 1.415 . S
C541 C540 1.355 . S
C541 C543 1.419 . S
C542 C540 1.415 . S
C542 C547 1.425 . S
C542 C549 1.409 . S
C543 H535 0.930 . S
C543 C541 1.419 . S
C543 C544 1.362 . S
C544 H536 0.930 . S
C544 C543 1.362 . S
C544 C547 1.409 . S
C545 H537 0.930 . S
C545 C546 1.355 . S
C545 C547 1.415 . S
C546 C545 1.355 . S
C546 C548 1.419 . S
C547 C542 1.425 . S
C547 C544 1.409 . S
C547 C545 1.415 . S
C548 H538 0.930 . S
C548 C546 1.419 . S
C548 C549 1.362 . S
C549 H539 0.930 . S
C549 C542 1.409 . S
C549 C548 1.362 . S
H550 C556 0.930 . S
H551 C559 0.930 . S
H552 C560 0.930 . S
H553 C561 0.930 . S
H554 C564 0.930 . S
H555 C565 0.930 . S
C556 H550 0.930 . S
C556 C557 1.355 . S
C556 C558 1.415 . S
C557 C556 1.355 . S
C557 C559 1.419 . S
C558 C556 1.415 . S
C558 C563 1.425 . S
C558 C565 1.409 . S
C559 H551 0.930 . S
C559 C557 1.419 . S
C559 C560 1.362 . S
C560 H552 0.930 . S
C560 C559 1.362 . S
C560 C563 1.409 . S
C561 H553 0.930 . S
C561 C562 1.355 . S
C561 C563 1.415 . S
C562 C561 1.355 . S
C562 C564 1.419 . S
C563 C558 1.425 . S
C563 C560 1.409 . S
C563 C561 1.415 . S
C564 H554 0.930 . S
C564 C562 1.419 . S
C564 C565 1.362 . S
C565 H555 0.930 . S
C565 C558 1.409 . S
C565 C564 1.362 . S
H566 C572 0.930 . S
H567 C575 0.930 . S
H568 C576 0.930 . S
H569 C577 0.930 . S
H570 C580 0.930 . S
H571 C581 0.930 . S
C572 H566 0.930 . S
C572 C573 1.355 . S
C572 C574 1.415 . S
C573 C572 1.355 . S
C573 C575 1.419 . S
C574 C572 1.415 . S
C574 C579 1.425 . S
C574 C581 1.409 . S
C575 H567 0.930 . S
C575 C573 1.419 . S
C575 C576 1.362 . S
C576 H568 0.930 . S
C576 C575 1.362 . S
C576 C579 1.409 . S
C577 H569 0.930 . S
C577 C578 1.355 . S
C577 C579 1.415 . S
C578 C577 1.355 . S
C578 C580 1.419 . S
C579 C574 1.425 . S
C579 C576 1.409 . S
C579 C577 1.415 . S
C580 H570 0.930 . S
C580 C578 1.419 . S
C580 C581 1.362 . S
C581 H571 0.930 . S
C581 C574 1.409 . S
C581 C580 1.362 . S
H582 C588 0.930 . S
H583 C591 0.930 . S
H584 C592 0.930 . S
H585 C593 0.930 . S
H586 C596 0.930 . S
H587 C597 0.930 . S
C588 H582 0.930 . S
C588 C589 1.355 . S
C588 C590 1.415 . S
C589 C588 1.355 . S
C589 C591 1.419 . S
C590 C588 1.415 . S
C590 C595 1.425 . S
C590 C597 1.409 . S
C591 H583 0.930 . S
C591 C589 1.419 . S
C591 C592 1.362 . S
C592 H584 0.930 . S
C592 C591 1.362 . S
C592 C595 1.409 . S
C593 H585 0.930 . S
C593 C594 1.355 . S
C593 C595 1.415 . S
C594 C593 1.355 . S
C594 C596 1.419 . S
C595 C590 1.425 . S
C595 C592 1.409 . S
C595 C593 1.415 . S
C596 H586 0.930 . S
C596 C594 1.419 . S
C596 C597 1.362 . S
C597 H587 0.930 . S
C597 C590 1.409 . S
C597 C596 1.362 . S
H598 C604 0.930 . S
H599 C607 0.930 . S
H600 C608 0.930 . S
H601 C609 0.930 . S
H602 C612 0.930 . S
H603 C613 0.930 . S
C604 H598 0.930 . S
C604 C605 1.355 . S
C604 C606 1.415 . S
C605 C604 1.355 . S
C605 C607 1.419 . S
C606 C604 1.415 . S
C606 C611 1.425 . S
C606 C613 1.409 . S
C607 H599 0.930 . S
C607 C605 1.419 . S
C607 C608 1.362 . S
C608 H600 0.930 . S
C608 C607 1.362 . S
C608 C611 1.409 . S
C609 H601 0.930 . S
C609 C610 1.355 . S
C609 C611 1.415 . S
C610 C609 1.355 . S
C610 C612 1.419 . S
C611 C606 1.425 . S
C611 C608 1.409 . S
C611 C609 1.415 . S
C612 H602 0.930 . S
C612 C610 1.419 . S
C612 C613 1.362 . S
C613 H603 0.930 . S
C613 C606 1.409 . S
C613 C612 1.362 . S
H614 C620 0.930 . S
H615 C623 0.930 . S
H616 C624 0.930 . S
H617 C625 0.930 . S
H618 C628 0.930 1_455 S
H619 C629 0.930 . S
C620 H614 0.930 . S
C620 C621 1.355 . S
C620 C622 1.415 . S
C621 C620 1.355 . S
C621 C623 1.419 . S
C622 C620 1.415 . S
C622 C627 1.425 . S
C622 C629 1.409 . S
C623 H615 0.930 . S
C623 C621 1.419 . S
C623 C624 1.362 . S
C624 H616 0.930 . S
C624 C623 1.362 . S
C624 C627 1.409 . S
C625 H617 0.930 . S
C625 C626 1.355 . S
C625 C627 1.415 . S
C626 C625 1.355 . S
C626 C628 1.419 . S
C627 C622 1.425 . S
C627 C624 1.409 . S
C627 C625 1.415 . S
C628 H618 0.930 1_655 S
C628 C626 1.419 . S
C628 C629 1.362 . S
C629 H619 0.930 . S
C629 C622 1.409 . S
C629 C628 1.362 . S
H630 C636 0.930 . S
H631 C639 0.930 . S
H632 C640 0.930 . S
H633 C641 0.930 . S
H634 C644 0.930 . S
H635 C645 0.930 . S
C636 H630 0.930 . S
C636 C637 1.355 . S
C636 C638 1.415 . S
C637 C636 1.355 . S
C637 C639 1.419 . S
C638 C636 1.415 . S
C638 C643 1.425 . S
C638 C645 1.409 . S
C639 H631 0.930 . S
C639 C637 1.419 . S
C639 C640 1.362 . S
C640 H632 0.930 . S
C640 C639 1.362 . S
C640 C643 1.409 . S
C641 H633 0.930 . S
C641 C642 1.355 . S
C641 C643 1.415 . S
C642 C641 1.355 . S
C642 C644 1.419 . S
C643 C638 1.425 . S
C643 C640 1.409 . S
C643 C641 1.415 . S
C644 H634 0.930 . S
C644 C642 1.419 . S
C644 C645 1.362 . S
C645 H635 0.930 . S
C645 C638 1.409 . S
C645 C644 1.362 . S
H646 C652 0.930 . S
H647 C655 0.930 . S
H648 C656 0.930 . S
H649 C657 0.930 . S
H650 C660 0.930 . S
H651 C661 0.930 . S
C652 H646 0.930 . S
C652 C653 1.355 . S
C652 C654 1.415 . S
C653 C652 1.355 . S
C653 C655 1.419 . S
C654 C652 1.415 . S
C654 C659 1.425 . S
C654 C661 1.409 . S
C655 H647 0.930 . S
C655 C653 1.419 . S
C655 C656 1.362 . S
C656 H648 0.930 . S
C656 C655 1.362 . S
C656 C659 1.409 . S
C657 H649 0.930 . S
C657 C658 1.355 . S
C657 C659 1.415 . S
C658 C657 1.355 . S
C658 C660 1.419 . S
C659 C654 1.425 . S
C659 C656 1.409 . S
C659 C657 1.415 . S
C660 H650 0.930 . S
C660 C658 1.419 . S
C660 C661 1.362 . S
C661 H651 0.930 . S
C661 C654 1.409 . S
C661 C660 1.362 . S
H662 C668 0.930 . S
H663 C671 0.930 . S
H664 C672 0.930 . S
H665 C673 0.930 . S
H666 C676 0.930 . S
H667 C677 0.930 . S
C668 H662 0.930 . S
C668 C669 1.355 . S
C668 C670 1.415 . S
C669 C668 1.355 . S
C669 C671 1.419 . S
C670 C668 1.415 . S
C670 C675 1.425 . S
C670 C677 1.409 . S
C671 H663 0.930 . S
C671 C669 1.419 . S
C671 C672 1.362 . S
C672 H664 0.930 . S
C672 C671 1.362 . S
C672 C675 1.409 . S
C673 H665 0.930 . S
C673 C674 1.355 . S
C673 C675 1.415 . S
C674 C673 1.355 . S
C674 C676 1.419 . S
C675 C670 1.425 . S
C675 C672 1.409 . S
C675 C673 1.415 . S
C676 H666 0.930 . S
C676 C674 1.419 . S
C676 C677 1.362 . S
C677 H667 0.930 . S
C677 C670 1.409 . S
C677 C676 1.362 . S
H678 C684 0.930 . S
H679 C687 0.930 . S
H680 C688 0.930 . S
H681 C689 0.930 . S
H682 C692 0.930 . S
H683 C693 0.930 . S
C684 H678 0.930 . S
C684 C685 1.355 . S
C684 C686 1.415 . S
C685 C684 1.355 . S
C685 C687 1.419 . S
C686 C684 1.415 . S
C686 C691 1.425 . S
C686 C693 1.409 . S
C687 H679 0.930 . S
C687 C685 1.419 . S
C687 C688 1.362 . S
C688 H680 0.930 . S
C688 C687 1.362 . S
C688 C691 1.409 . S
C689 H681 0.930 . S
C689 C690 1.355 . S
C689 C691 1.415 . S
C690 C689 1.355 . S
C690 C692 1.419 . S
C691 C686 1.425 . S
C691 C688 1.409 . S
C691 C689 1.415 . S
C692 H682 0.930 . S
C692 C690 1.419 . S
C692 C693 1.362 . S
C693 H683 0.930 . S
C693 C686 1.409 . S
C693 C692 1.362 . S
H694 C700 0.930 . S
H695 C703 0.930 . S
H696 C704 0.930 . S
H697 C705 0.930 . S
H698 C708 0.930 . S
H699 C709 0.930 . S
C700 H694 0.930 . S
C700 C701 1.355 . S
C700 C702 1.415 . S
C701 C700 1.355 . S
C701 C703 1.419 . S
C702 C700 1.415 . S
C702 C707 1.425 . S
C702 C709 1.409 . S
C703 H695 0.930 . S
C703 C701 1.419 . S
C703 C704 1.362 . S
C704 H696 0.930 . S
C704 C703 1.362 . S
C704 C707 1.409 . S
C705 H697 0.930 . S
C705 C706 1.355 . S
C705 C707 1.415 . S
C706 C705 1.355 . S
C706 C708 1.419 . S
C707 C702 1.425 . S
C707 C704 1.409 . S
C707 C705 1.415 . S
C708 H698 0.930 . S
C708 C706 1.419 . S
C708 C709 1.362 . S
C709 H699 0.930 . S
C709 C702 1.409 . S
C709 C708 1.362 . S
H710 C716 0.930 . S
H711 C719 0.930 . S
H712 C720 0.930 . S
H713 C721 0.930 . S
H714 C724 0.930 . S
H715 C725 0.930 . S
C716 H710 0.930 . S
C716 C717 1.355 . S
C716 C718 1.415 . S
C717 C716 1.355 . S
C717 C719 1.419 . S
C718 C716 1.415 . S
C718 C723 1.425 . S
C718 C725 1.409 . S
C719 H711 0.930 . S
C719 C717 1.419 . S
C719 C720 1.362 . S
C720 H712 0.930 . S
C720 C719 1.362 . S
C720 C723 1.409 . S
C721 H713 0.930 . S
C721 C722 1.355 . S
C721 C723 1.415 . S
C722 C721 1.355 . S
C722 C724 1.419 . S
C723 C718 1.425 . S
C723 C720 1.409 . S
C723 C721 1.415 . S
C724 H714 0.930 . S
C724 C722 1.419 . S
C724 C725 1.362 . S
C725 H715 0.930 . S
C725 C718 1.409 . S
C725 C724 1.362 . S
H726 C732 0.930 . S
H727 C735 0.930 . S
H728 C736 0.930 . S
H729 C737 0.930 . S
H730 C740 0.930 . S
H731 C741 0.930 . S
C732 H726 0.930 . S
C732 C733 1.355 . S
C732 C734 1.415 . S
C733 C732 1.355 . S
C733 C735 1.419 . S
C734 C732 1.415 . S
C734 C739 1.425 . S
C734 C741 1.409 . S
C735 H727 0.930 . S
C735 C733 1.419 . S
C735 C736 1.362 . S
C736 H728 0.930 . S
C736 C735 1.362 . S
C736 C739 1.409 . S
C737 H729 0.930 . S
C737 C738 1.355 . S
C737 C739 1.415 . S
C738 C737 1.355 . S
C738 C740 1.419 . S
C739 C734 1.425 . S
C739 C736 1.409 . S
C739 C737 1.415 . S
C740 H730 0.930 . S
C740 C738 1.419 . S
C740 C741 1.362 . S
C741 H731 0.930 . S
C741 C734 1.409 . S
C741 C740 1.362 . S
H742 C748 0.930 . S
H743 C751 0.930 . S
H744 C752 0.930 1_554 S
H745 C753 0.930 . S
H746 C756 0.930 . S
H747 C757 0.930 . S
C748 H742 0.930 . S
C748 C749 1.355 . S
C748 C750 1.415 . S
C749 C748 1.355 . S
C749 C751 1.419 . S
C750 C748 1.415 . S
C750 C755 1.425 . S
C750 C757 1.409 . S
C751 H743 0.930 . S
C751 C749 1.419 . S
C751 C752 1.362 . S
C752 H744 0.930 1_556 S
C752 C751 1.362 . S
C752 C755 1.409 . S
C753 H745 0.930 . S
C753 C754 1.355 . S
C753 C755 1.415 1_554 S
C754 C753 1.355 . S
C754 C756 1.419 1_554 S
C755 C750 1.425 . S
C755 C752 1.409 . S
C755 C753 1.415 1_556 S
C756 H746 0.930 . S
C756 C754 1.419 1_556 S
C756 C757 1.362 . S
C757 H747 0.930 . S
C757 C750 1.409 . S
C757 C756 1.362 . S
H758 C764 0.930 . S
H759 C767 0.930 . S
H760 C768 0.930 . S
H761 C769 0.930 . S
H762 C772 0.930 . S
H763 C773 0.930 . S
C764 H758 0.930 . S
C764 C765 1.355 . S
C764 C766 1.415 . S
C765 C764 1.355 . S
C765 C767 1.419 . S
C766 C764 1.415 . S
C766 C771 1.425 . S
C766 C773 1.409 . S
C767 H759 0.930 . S
C767 C765 1.419 . S
C767 C768 1.362 . S
C768 H760 0.930 . S
C768 C767 1.362 . S
C768 C771 1.409 . S
C769 H761 0.930 . S
C769 C770 1.355 . S
C769 C771 1.415 . S
C770 C769 1.355 . S
C770 C772 1.419 . S
C771 C766 1.425 . S
C771 C768 1.409 . S
C771 C769 1.415 . S
C772 H762 0.930 . S
C772 C770 1.419 . S
C772 C773 1.362 . S
C773 H763 0.930 . S
C773 C766 1.409 . S
C773 C772 1.362 . S
H774 C780 0.930 . S
H775 C783 0.930 . S
H776 C784 0.930 . S
H777 C785 0.930 . S
H778 C788 0.930 . S
H779 C789 0.930 . S
C780 H774 0.930 . S
C780 C781 1.355 . S
C780 C782 1.415 . S
C781 C780 1.355 . S
C781 C783 1.419 . S
C782 C780 1.415 . S
C782 C787 1.425 . S
C782 C789 1.409 . S
C783 H775 0.930 . S
C783 C781 1.419 . S
C783 C784 1.362 . S
C784 H776 0.930 . S
C784 C783 1.362 . S
C784 C787 1.409 . S
C785 H777 0.930 . S
C785 C786 1.355 . S
C785 C787 1.415 . S
C786 C785 1.355 . S
C786 C788 1.419 . S
C787 C782 1.425 . S
C787 C784 1.409 . S
C787 C785 1.415 . S
C788 H778 0.930 . S
C788 C786 1.419 . S
C788 C789 1.362 . S
C789 H779 0.930 . S
C789 C782 1.409 . S
C789 C788 1.362 . S
C418 C110 1.655 . S
C413 C10 1.645 . S
C434 C179 1.479 . S
C429 C15 1.426 . S
C450 C117 1.652 . S
C445 C26 1.659 . S
C466 C180 1.461 . S
C461 C37 1.473 . S
C482 C233 1.733 . S
C477 C4 1.742 . S
C498 C269 1.488 . S
C493 C16 1.483 . S
C509 C27 1.756 . S
C514 C329 1.740 . S
C530 C392 1.477 . S
C525 C43 1.470 . S
C546 C232 1.564 . S
C541 C21 1.553 . S
C557 C32 1.454 . S
C562 C276 1.435 . S
C578 C322 1.770 . S
C573 C38 1.758 . S
C594 C391 1.669 . S
C589 C5 1.666 . S
C605 C49 1.482 . S
C610 C170 1.505 . S
C626 C127 1.709 . S
C621 C60 1.752 . S
C637 C76 1.483 . S
C642 C163 1.485 . S
C653 C81 1.716 . S
C658 C126 1.723 . S
C674 C338 1.570 . S
C669 C54 1.568 . S
C690 C382 1.682 . S
C685 C59 1.689 . S
C706 C216 1.584 . S
C701 C70 1.595 . S
C717 C87 1.624 . S
C722 C285 1.630 . S
C738 C339 1.637 . S
C733 C65 1.639 . S
C754 C375 1.727 . S
C749 C71 1.716 . S
C770 C223 1.604 . S
C765 C82 1.605 . S
C781 C48 1.550 . S
C786 C286 1.565 . S
