# Generated by pormake.
# Topology anh, (6,3)-cn, num edge types: 1
# Building blocks:
#     Node 0, Type 0, BuildingBlock: VOLQOD_clean_sbu_1, # of connection points: 6
#     Node 1, Type 0, BuildingBlock: VOLQOD_clean_sbu_1, # of connection points: 6
#     Node 2, Type 0, BuildingBlock: VOLQOD_clean_sbu_1, # of connection points: 6
#     Node 3, Type 1, BuildingBlock: ESEHIV_clean_linker_0, # of connection points: 3
#     Node 4, Type 1, BuildingBlock: ESEHIV_clean_linker_0, # of connection points: 3
#     Node 5, Type 1, BuildingBlock: ESEHIV_clean_linker_0, # of connection points: 3
#     Node 6, Type 1, BuildingBlock: ESEHIV_clean_linker_0, # of connection points: 3
#     Node 7, Type 1, BuildingBlock: ESEHIV_clean_linker_0, # of connection points: 3
#     Node 8, Type 1, BuildingBlock: ESEHIV_clean_linker_0, # of connection points: 3
#     Edge 9, Type (0, 1), BuildingBlock: UVAHIK_clean_linker_0, # of connection points: 2
#     Edge 10, Type (0, 1), BuildingBlock: UVAHIK_clean_linker_0, # of connection points: 2
#     Edge 11, Type (0, 1), BuildingBlock: UVAHIK_clean_linker_0, # of connection points: 2
#     Edge 12, Type (0, 1), BuildingBlock: UVAHIK_clean_linker_0, # of connection points: 2
#     Edge 13, Type (0, 1), BuildingBlock: UVAHIK_clean_linker_0, # of connection points: 2
#     Edge 14, Type (0, 1), BuildingBlock: UVAHIK_clean_linker_0, # of connection points: 2
#     Edge 15, Type (0, 1), BuildingBlock: UVAHIK_clean_linker_0, # of connection points: 2
#     Edge 16, Type (0, 1), BuildingBlock: UVAHIK_clean_linker_0, # of connection points: 2
#     Edge 17, Type (0, 1), BuildingBlock: UVAHIK_clean_linker_0, # of connection points: 2
#     Edge 18, Type (0, 1), BuildingBlock: UVAHIK_clean_linker_0, # of connection points: 2
#     Edge 19, Type (0, 1), BuildingBlock: UVAHIK_clean_linker_0, # of connection points: 2
#     Edge 20, Type (0, 1), BuildingBlock: UVAHIK_clean_linker_0, # of connection points: 2
#     Edge 21, Type (0, 1), BuildingBlock: UVAHIK_clean_linker_0, # of connection points: 2
#     Edge 22, Type (0, 1), BuildingBlock: UVAHIK_clean_linker_0, # of connection points: 2
#     Edge 23, Type (0, 1), BuildingBlock: UVAHIK_clean_linker_0, # of connection points: 2
#     Edge 24, Type (0, 1), BuildingBlock: UVAHIK_clean_linker_0, # of connection points: 2
#     Edge 25, Type (0, 1), BuildingBlock: UVAHIK_clean_linker_0, # of connection points: 2
#     Edge 26, Type (0, 1), BuildingBlock: UVAHIK_clean_linker_0, # of connection points: 2
# Relax obj value: 0.167
# Max RMSD: 0.230
# Mean RMSD: 0.114
data_MOF--net-anh--node1-VOLQOD_clean_sbu_1--node2-ESEHIV_clean_linker_0--edge1-UVAHIK_clean_linker_0
_symmetry_space_group_name_H-M    P1
_symmetry_Int_Tables_number       1
_symmetry_cell_setting            triclinic
loop_
_symmetry_equiv_pos_as_xyz
'x, y, z'
_cell_length_a     35.300229
_cell_length_b     35.183567
_cell_length_c     75.049711
_cell_angle_alpha  90.060214
_cell_angle_beta   89.708585
_cell_angle_gamma 120.26327
loop_
_atom_site_label
_atom_site_type_symbol
_atom_site_fract_x
_atom_site_fract_y
_atom_site_fract_z
_atom_type_partial_charge
O0 O 0.97904 0.51917 0.19879 0.0
Zn1 Zn -0.01198 0.53798 0.17313 0.0
O2 O -0.00472 0.49619 0.15832 0.0
Zn3 Zn 0.94968 0.4717 0.14039 0.0
Zn4 Zn -0.0093 0.44844 0.17313 0.0
Zn5 Zn 0.05224 0.52619 0.14642 0.0
O6 O 0.9745 0.48366 0.1157 0.0
O7 O 0.04615 0.52649 0.11968 0.0
O8 O 0.93746 0.54511 0.16513 0.0
O9 O 0.91343 0.50029 0.14185 0.0
O10 O 0.90852 0.40688 0.14387 0.0
O11 O 0.93615 0.39165 0.16745 0.0
O12 O 0.04206 0.43944 0.16928 0.0
O13 O 0.04239 0.59755 0.1724 0.0
O14 O 0.08624 0.49614 0.15197 0.0
O15 O 0.08779 0.58879 0.15458 0.0
C16 C 0.98101 0.48888 0.20726 0.0
C17 C 0.01308 0.50721 0.10944 0.0
C18 C 0.907 0.37975 0.15546 0.0
C19 C 0.91141 0.52809 0.15205 0.0
C20 C 0.07799 0.46192 0.16082 0.0
C21 C 0.07948 0.61275 0.16471 0.0
O22 O -0.01298 0.46047 0.19917 0.0
O23 O 0.46609 0.01069 0.46237 0.0
Zn24 Zn 0.44841 -0.00208 0.48813 0.0
O25 O 0.48837 0.98432 0.50095 0.0
Zn26 Zn 0.51871 0.02745 0.51947 0.0
Zn27 Zn 0.53182 0.98487 0.48448 0.0
Zn28 Zn 0.45479 0.92717 0.51229 0.0
O29 O 0.5099 0.00019 0.54363 0.0
O30 O 0.45805 0.93095 0.5391 0.0
O31 O 0.44708 0.04979 0.49899 0.0
O32 O 0.4945 0.06747 0.52114 0.0
O33 O 0.58294 0.06518 0.51425 0.0
O34 O 0.59223 0.03532 0.4898 0.0
O35 O 0.53325 0.92831 0.48587 0.0
O36 O 0.38673 0.94609 0.48835 0.0
O37 O 0.47845 0.88887 0.50472 0.0
O38 O 0.39169 0.89699 0.50516 0.0
C39 C 0.49333 0.00627 0.45266 0.0
C40 C 0.48299 0.96198 0.54956 0.0
C41 C 0.60752 0.06452 0.50194 0.0
C42 C 0.46708 0.07338 0.51244 0.0
C43 C 0.50915 0.89291 0.4945 0.0
C44 C 0.36926 0.90828 0.49564 0.0
O45 O 0.51901 -0.00552 0.45927 0.0
O46 O 0.47235 0.49852 0.79462 0.0
Zn47 Zn 0.45913 0.47232 0.81929 0.0
O48 O 0.50593 0.50915 0.83592 0.0
Zn49 Zn 0.48275 0.53082 0.85426 0.0
Zn50 Zn 0.55247 0.55904 0.82306 0.0
Zn51 Zn 0.52927 0.47528 0.84715 0.0
O52 O 0.49331 0.51571 0.87866 0.0
O53 O 0.51971 0.47114 0.8739 0.0
O54 O 0.4004 0.46263 0.82725 0.0
O55 O 0.41785 0.50179 0.85213 0.0
O56 O 0.50655 0.59589 0.85218 0.0
O57 O 0.55484 0.61523 0.8301 0.0
O58 O 0.61116 0.56549 0.82782 0.0
O59 O 0.45299 0.41253 0.81761 0.0
O60 O 0.59417 0.50422 0.84268 0.0
O61 O 0.5007 0.41395 0.83717 0.0
C62 C 0.50752 0.52867 0.78747 0.0
C63 C 0.50623 0.49022 0.88447 0.0
C64 C 0.53493 0.62502 0.8418 0.0
C65 C 0.38942 0.4761 0.84099 0.0
C66 C 0.62228 0.54022 0.83533 0.0
C67 C 0.47108 0.39381 0.82551 0.0
O68 O 0.54183 0.5524 0.7966 0.0
H69 H 0.41683 0.98786 0.26382 0.0
H70 H 0.55132 0.08963 0.25672 0.0
H71 H 0.473 0.02025 0.21126 0.0
C72 C 0.44441 0.00798 0.25511 0.0
C73 C 0.43997 0.00103 0.23665 0.0
C74 C 0.48456 0.03968 0.26245 0.0
C75 C 0.52039 0.06483 0.2511 0.0
C76 C 0.5163 0.05848 0.23256 0.0
C77 C 0.47591 0.02661 0.22547 0.0
H78 H 0.53915 0.59106 0.58855 0.0
H79 H 0.50964 0.45915 0.60023 0.0
H80 H 0.54013 0.50746 0.54679 0.0
C81 C 0.53643 0.5604 0.58426 0.0
C82 C 0.5422 0.55409 0.5661 0.0
C83 C 0.525 0.52655 0.59681 0.0
C84 C 0.51817 0.48568 0.59085 0.0
C85 C 0.52242 0.47849 0.5728 0.0
C86 C 0.53596 0.51313 0.56066 0.0
H87 H -0.0083 0.58094 0.91611 0.0
H88 H 0.06735 0.51605 0.91857 0.0
H89 H 0.01915 0.53135 0.86827 0.0
C90 C 0.00735 0.56502 0.90948 0.0
C91 C 0.00277 0.55806 0.89099 0.0
C92 C 0.03085 0.55015 0.91953 0.0
C93 C 0.04977 0.5283 0.91089 0.0
C94 C 0.04563 0.52153 0.89244 0.0
C95 C 0.02257 0.53687 0.88254 0.0
H96 H 0.92022 0.42327 0.40249 0.0
H97 H 0.01885 0.56038 0.40002 0.0
H98 H 0.97339 0.49613 0.45082 0.0
C99 C 0.94246 0.45389 0.40913 0.0
C100 C 0.94424 0.45526 0.4278 0.0
C101 C 0.96912 0.49176 0.399 0.0
C102 C -0.00259 0.53132 0.40778 0.0
C103 C -0.00059 0.53323 0.42648 0.0
C104 C 0.97281 0.49491 0.43638 0.0
H105 H 0.4159 -0.00019 0.7362 0.0
H106 H 0.43917 0.89327 0.74646 0.0
H107 H 0.42976 0.96731 0.79012 0.0
C108 C 0.42045 0.97901 0.74555 0.0
C109 C 0.42136 0.98721 0.76392 0.0
C110 C 0.42702 0.94527 0.73913 0.0
C111 C 0.43356 0.91902 0.75135 0.0
C112 C 0.43451 0.92666 0.76976 0.0
C113 C 0.4282 0.96071 0.77596 0.0
H114 H 0.39951 0.41023 0.07747 0.0
H115 H 0.54011 0.47171 0.07457 0.0
H116 H 0.47716 0.45953 0.12501 0.0
C117 C 0.43113 0.42555 0.084 0.0
C118 C 0.43371 0.43309 0.10247 0.0
C119 C 0.46942 0.4391 0.07384 0.0
C120 C 0.51031 0.46031 0.08233 0.0
C121 C 0.51316 0.46769 0.10075 0.0
C122 C 0.47484 0.45354 0.11077 0.0
C123 C 0.15537 0.47902 0.15952 0.0
C124 C 0.11058 0.4476 0.16074 0.0
C125 C 0.18635 0.46578 0.15796 0.0
C126 C 0.20221 0.38546 0.13704 0.0
H127 H 0.30887 0.43463 0.16486 0.0
C128 C 0.35484 0.38277 0.11106 0.0
C129 C 0.3941 0.4231 0.11292 0.0
C130 C 0.31718 0.37484 0.12045 0.0
C131 C 0.27928 0.42059 0.15694 0.0
H132 H 0.06285 0.37781 0.16166 0.0
H133 H 0.11747 0.35456 0.1581 0.0
H134 H 0.24712 0.44148 0.17551 0.0
H135 H 0.42483 0.48674 0.1259 0.0
H136 H 0.35949 0.4736 0.14182 0.0
H137 H 0.23534 0.36801 0.11767 0.0
C138 C 0.12833 0.38933 0.15878 0.0
C139 C 0.24392 0.4242 0.16314 0.0
C140 C 0.09729 0.40262 0.16082 0.0
C141 C 0.39523 0.45503 0.12446 0.0
C142 C 0.35772 0.44732 0.13369 0.0
C143 C 0.23787 0.38251 0.13066 0.0
C144 C 0.17301 0.4209 0.1572 0.0
C145 C 0.20577 0.40805 0.15292 0.0
C146 C 0.31809 0.4073 0.13172 0.0
C147 C 0.27748 0.40172 0.14019 0.0
H148 H 0.16639 0.51388 0.15951 0.0
H149 H 0.22066 0.49065 0.15655 0.0
H150 H 0.1731 0.37308 0.12889 0.0
H151 H 0.35327 0.35749 0.10233 0.0
H152 H 0.28729 0.34354 0.11873 0.0
C153 C 0.66796 0.13853 0.51153 0.0
C154 C 0.65312 0.10163 0.50037 0.0
C155 C 0.70719 0.17721 0.50774 0.0
C156 C 0.80781 0.22754 0.47986 0.0
H157 H 0.78427 0.32358 0.47533 0.0
C158 C 0.87025 0.39154 0.43491 0.0
C159 C 0.91539 0.41551 0.43838 0.0
C160 C 0.84266 0.35459 0.44512 0.0
C161 C 0.7914 0.29715 0.47665 0.0
H162 H 0.67005 0.07502 0.47756 0.0
H163 H 0.73844 0.14259 0.47098 0.0
H164 H 0.73047 0.25543 0.48983 0.0
H165 H 0.96742 0.41958 0.45494 0.0
H166 H 0.91892 0.35401 0.47269 0.0
H167 H 0.86832 0.26924 0.46609 0.0
C168 C 0.71967 0.14162 0.48261 0.0
C169 C 0.76088 0.25833 0.48511 0.0
C170 C 0.6803 0.10298 0.48632 0.0
C171 C 0.93261 0.40164 0.45211 0.0
C172 C 0.90505 0.36419 0.46216 0.0
C173 C 0.83869 0.26673 0.47156 0.0
C174 C 0.73249 0.17964 0.49283 0.0
C175 C 0.76827 0.22275 0.48642 0.0
C176 C 0.8598 0.34063 0.45883 0.0
C177 C 0.8301 0.30135 0.46948 0.0
H178 H 0.64809 0.13852 0.52258 0.0
H179 H 0.7167 0.20592 0.51598 0.0
H180 H 0.8143 0.20062 0.48075 0.0
H181 H 0.8562 0.40177 0.42447 0.0
H182 H 0.8079 0.33665 0.44219 0.0
C183 C 0.57154 0.70208 0.83016 0.0
C184 C 0.54028 0.66949 0.84151 0.0
C185 C 0.56972 0.73996 0.82646 0.0
C186 C 0.52512 0.78175 0.80766 0.0
H187 H 0.48753 0.84638 0.83782 0.0
C188 C 0.42752 0.85548 0.77952 0.0
C189 C 0.44532 0.90084 0.7822 0.0
C190 C 0.44255 0.83223 0.78936 0.0
C191 C 0.49835 0.82876 0.82931 0.0
H192 H 0.48586 0.65351 0.8595 0.0
H193 H 0.48228 0.71927 0.85277 0.0
H194 H 0.51447 0.80098 0.85145 0.0
H195 H 0.49097 0.95686 0.79807 0.0
H196 H 0.51659 0.9156 0.81561 0.0
H197 H 0.50778 0.80808 0.78558 0.0
C198 C 0.50825 0.71563 0.84677 0.0
C199 C 0.51364 0.80284 0.83707 0.0
C200 C 0.51017 0.67777 0.85054 0.0
C201 C 0.47641 0.92186 0.79578 0.0
C202 C 0.49121 0.89839 0.80577 0.0
C203 C 0.50947 0.8071 0.79998 0.0
C204 C 0.53653 0.74588 0.83398 0.0
C205 C 0.52655 0.77857 0.82628 0.0
C206 C 0.47538 0.85374 0.8022 0.0
C207 C 0.49508 0.83003 0.81071 0.0
H208 H 0.59571 0.69711 0.82324 0.0
H209 H 0.59253 0.76327 0.81682 0.0
H210 H 0.53411 0.76294 0.79897 0.0
H211 H 0.40287 0.8382 0.76942 0.0
H212 H 0.42931 0.79757 0.78662 0.0
C213 C 0.85502 0.52775 0.13223 0.0
C214 C 0.8778 0.54025 0.14844 0.0
C215 C 0.8215 0.53654 0.12889 0.0
C216 C 0.73829 0.54966 0.15179 0.0
H217 H 0.71477 0.56966 0.10335 0.0
C218 C 0.56515 0.47167 0.12403 0.0
C219 C 0.55636 0.49085 0.10946 0.0
C220 C 0.60716 0.49164 0.13127 0.0
C221 C 0.72092 0.56512 0.11708 0.0
H222 H 0.88424 0.57316 0.17365 0.0
H223 H 0.82483 0.58833 0.16778 0.0
H224 H 0.78696 0.58275 0.11098 0.0
H225 H 0.58302 0.54725 0.09182 0.0
H226 H 0.6563 0.58304 0.10479 0.0
H227 H 0.67194 0.53139 0.15783 0.0
C228 C 0.83318 0.57163 0.15772 0.0
C229 C 0.7623 0.57217 0.12139 0.0
C230 C 0.86715 0.56302 0.16105 0.0
C231 C 0.58944 0.53153 0.10287 0.0
C232 C 0.63129 0.55192 0.1103 0.0
C233 C 0.69691 0.54306 0.14752 0.0
C234 C 0.80979 0.55806 0.14165 0.0
C235 C 0.77064 0.5622 0.13852 0.0
C236 C 0.64105 0.53154 0.12423 0.0
C237 C 0.6871 0.54852 0.12989 0.0
H238 H 0.86251 0.5104 0.12216 0.0
H239 H 0.8036 0.52483 0.11652 0.0
H240 H 0.74379 0.54185 0.16514 0.0
H241 H 0.54004 0.44023 0.12929 0.0
H242 H 0.61349 0.4745 0.14177 0.0
C243 C 0.30366 0.8332 0.49947 0.0
C244 C 0.32287 0.87549 0.49193 0.0
C245 C 0.26186 0.80043 0.49437 0.0
C246 C 0.18915 0.76907 0.45595 0.0
H247 H 0.10848 0.67538 0.48743 0.0
C248 C 0.03517 0.61527 0.42945 0.0
C249 C 0.02972 0.57507 0.43562 0.0
C250 C 0.06509 0.6548 0.43762 0.0
C251 C 0.1307 0.70134 0.47849 0.0
H252 H 0.31204 0.91725 0.47389 0.0
H253 H 0.23874 0.85995 0.46509 0.0
H254 H 0.17098 0.74099 0.49995 0.0
H255 H 0.05109 0.54486 0.45531 0.0
H256 H 0.10315 0.61377 0.46958 0.0
H257 H 0.14965 0.72894 0.43447 0.0
C258 C 0.25644 0.85206 0.47475 0.0
C259 C 0.16644 0.73887 0.48565 0.0
C260 C 0.29835 0.88492 0.47986 0.0
C261 C 0.05407 0.57519 0.45039 0.0
C262 C 0.08385 0.61467 0.45859 0.0
C263 C 0.15335 0.73162 0.44881 0.0
C264 C 0.2382 0.80918 0.48162 0.0
C265 C 0.1967 0.77262 0.47441 0.0
C266 C 0.09003 0.65492 0.45217 0.0
C267 C 0.12443 0.69689 0.45997 0.0
H268 H 0.32151 0.8248 0.50886 0.0
H269 H 0.24902 0.76764 0.49978 0.0
H270 H 0.21214 0.79416 0.4469 0.0
H271 H 0.01631 0.61618 0.41829 0.0
H272 H 0.06886 0.68531 0.43251 0.0
C273 C 0.48021 0.32785 0.82793 0.0
C274 C 0.45795 0.34799 0.82076 0.0
C275 C 0.46917 0.28538 0.82276 0.0
C276 C 0.42675 0.18751 0.81549 0.0
H277 H 0.40987 0.1627 0.76487 0.0
C278 C 0.39342 0.02177 0.7857 0.0
C279 C 0.41824 0.02532 0.77043 0.0
C280 C 0.39222 0.05843 0.79217 0.0
C281 C 0.4145 0.16914 0.77904 0.0
H282 H 0.40549 0.33862 0.80303 0.0
H283 H 0.38603 0.26439 0.79418 0.0
H284 H 0.41933 0.23182 0.77615 0.0
H285 H 0.46162 0.07015 0.7501 0.0
H286 H 0.45942 0.13384 0.76131 0.0
H287 H 0.42378 0.12551 0.81822 0.0
C288 C 0.4125 0.28175 0.80356 0.0
C289 C 0.41942 0.20852 0.78554 0.0
C290 C 0.4236 0.32425 0.80869 0.0
C291 C 0.44145 0.0661 0.76168 0.0
C292 C 0.4402 0.10262 0.76811 0.0
C293 C 0.42183 0.14807 0.80897 0.0
C294 C 0.43556 0.26208 0.81035 0.0
C295 C 0.42636 0.21849 0.80379 0.0
C296 C 0.41577 0.09927 0.78346 0.0
C297 C 0.4165 0.13888 0.79063 0.0
H298 H 0.50682 0.34519 0.83726 0.0
H299 H 0.48795 0.27137 0.82806 0.0
H300 H 0.43149 0.19403 0.82965 0.0
H301 H 0.37487 -0.00936 0.79263 0.0
H302 H 0.37279 0.05479 0.80394 0.0
C303 C 0.55833 0.86238 0.48747 0.0
C304 C 0.51779 0.85607 0.49352 0.0
C305 C 0.56783 0.82836 0.48886 0.0
C306 C 0.51596 0.70852 0.49855 0.0
H307 H 0.62433 0.74173 0.52332 0.0
C308 C 0.53366 0.57737 0.53539 0.0
C309 C 0.55149 0.58888 0.55263 0.0
C310 C 0.53939 0.60961 0.52316 0.0
C311 C 0.59389 0.73185 0.51642 0.0
H312 H 0.45446 0.8085 0.50467 0.0
H313 H 0.47099 0.74999 0.50728 0.0
H314 H 0.61321 0.79849 0.51006 0.0
H315 H 0.59174 0.64407 0.56996 0.0
H316 H 0.59831 0.69995 0.54926 0.0
H317 H 0.49449 0.64267 0.50629 0.0
C318 C 0.49549 0.78076 0.50132 0.0
C319 C 0.58784 0.76438 0.50854 0.0
C320 C 0.48614 0.81457 0.50002 0.0
C321 C 0.57655 0.63375 0.55701 0.0
C322 C 0.58118 0.666 0.54492 0.0
C323 C 0.52164 0.67619 0.50665 0.0
C324 C 0.53673 0.78747 0.49615 0.0
C325 C 0.54792 0.75313 0.50027 0.0
C326 C 0.5617 0.65425 0.52797 0.0
C327 C 0.55993 0.68758 0.51636 0.0
H328 H 0.58333 0.89404 0.48236 0.0
H329 H 0.59979 0.83436 0.48467 0.0
H330 H 0.48521 0.69877 0.49191 0.0
H331 H 0.5136 0.54333 0.53143 0.0
H332 H 0.52481 0.59924 0.51011 0.0
C333 C 0.68102 0.52093 0.83666 0.0
C334 C 0.66893 0.55324 0.83584 0.0
C335 C 0.72502 0.53304 0.83806 0.0
C336 C 0.82297 0.61155 0.85865 0.0
H337 H 0.87771 0.56127 0.82953 0.0
C338 C 0.97685 0.61032 0.88273 0.0
C339 C 0.9743 0.56943 0.88067 0.0
C340 C 0.94785 0.61941 0.87361 0.0
C341 C 0.86295 0.57562 0.83779 0.0
H342 H 0.69307 0.62345 0.83559 0.0
H343 H 0.77041 0.64458 0.83884 0.0
H344 H 0.80922 0.55579 0.81982 0.0
H345 H 0.93976 0.50607 0.86751 0.0
H346 H 0.88876 0.5212 0.85206 0.0
H347 H 0.87418 0.62796 0.87743 0.0
C348 C 0.7457 0.61004 0.83799 0.0
C349 C 0.82402 0.57275 0.83215 0.0
C350 C 0.70165 0.59794 0.83614 0.0
C351 C 0.94295 0.53817 0.86911 0.0
C352 C 0.91386 0.54703 0.86015 0.0
C353 C 0.86151 0.61375 0.86448 0.0
C354 C 0.75756 0.57761 0.83905 0.0
C355 C 0.80301 0.5893 0.84285 0.0
C356 C 0.91557 0.58754 0.86242 0.0
C357 C 0.88089 0.59412 0.85446 0.0
H358 H 0.65642 0.48628 0.83635 0.0
H359 H 0.73352 0.50751 0.83908 0.0
H360 H 0.80702 0.62427 0.86716 0.0
H361 H 0.00105 0.6351 0.89147 0.0
H362 H 0.95028 0.65107 0.87552 0.0
C363 C 0.10654 0.68515 0.18002 0.0
C364 C 0.1146 0.65818 0.16864 0.0
C365 C 0.14087 0.72607 0.18538 0.0
C366 C 0.2581 0.78001 0.19326 0.0
H367 H 0.25096 0.88583 0.19901 0.0
C368 C 0.38093 0.97116 0.21354 0.0
C369 C 0.39903 0.96477 0.2291 0.0
C370 C 0.34452 0.93579 0.20558 0.0
C371 C 0.25339 0.85654 0.19738 0.0
H372 H 0.16462 0.65422 0.15314 0.0
H373 H 0.22443 0.72562 0.16254 0.0
H374 H 0.19086 0.82116 0.18454 0.0
H375 H 0.39289 0.91675 0.24872 0.0
H376 H 0.32918 0.8551 0.23488 0.0
H377 H 0.32027 0.81497 0.20617 0.0
C378 C 0.19161 0.71478 0.16746 0.0
C379 C 0.21902 0.81958 0.1892 0.0
C380 C 0.1573 0.67397 0.16203 0.0
C381 C 0.37938 0.9227 0.23682 0.0
C382 C 0.34325 0.88737 0.22881 0.0
C383 C 0.29215 0.81669 0.20153 0.0
C384 C 0.1839 0.7407 0.17952 0.0
C385 C 0.22105 0.78094 0.18714 0.0
C386 C 0.32596 0.89344 0.21297 0.0
C387 C 0.28998 0.85515 0.2038 0.0
H388 H 0.07397 0.67409 0.18528 0.0
H389 H 0.13406 0.7453 0.19477 0.0
H390 H 0.2603 0.75049 0.19206 0.0
H391 H 0.39535 0.00338 0.20739 0.0
H392 H 0.33185 0.94126 0.19333 0.0
C393 C 0.43914 0.12535 0.50693 0.0
C394 C 0.45917 0.10886 0.51823 0.0
C395 C 0.43518 0.16135 0.51222 0.0
C396 C 0.44136 0.22752 0.5517 0.0
H397 H 0.48812 0.32538 0.51851 0.0
C398 C 0.46929 0.39773 0.57185 0.0
C399 C 0.5094 0.43387 0.56635 0.0
C400 C 0.4554 0.3559 0.565 0.0
C401 C 0.47496 0.2983 0.52791 0.0
H402 H 0.48872 0.11566 0.54422 0.0
H403 H 0.48208 0.17809 0.55329 0.0
H404 H 0.47495 0.25374 0.50849 0.0
H405 H 0.56668 0.45475 0.54956 0.0
H406 H 0.54293 0.38142 0.53785 0.0
H407 H 0.44372 0.2725 0.5714 0.0
C408 C 0.4692 0.16331 0.54043 0.0
C409 C 0.46682 0.25717 0.52211 0.0
C410 C 0.47345 0.12778 0.53513 0.0
C411 C 0.53549 0.42744 0.55393 0.0
C412 C 0.5217 0.38556 0.54714 0.0
C413 C 0.44958 0.26861 0.55751 0.0
C414 C 0.45069 0.18093 0.52896 0.0
C415 C 0.45126 0.22178 0.53411 0.0
C416 C 0.48143 0.34938 0.55256 0.0
C417 C 0.46768 0.30474 0.54581 0.0
H418 H 0.42774 0.11133 0.49384 0.0
H419 H 0.42061 0.17425 0.50316 0.0
H420 H 0.42884 0.20061 0.56118 0.0
H421 H 0.44817 0.40199 0.58116 0.0
H422 H 0.42402 0.32877 0.56929 0.0
C423 C 0.31049 0.43816 0.83149 0.0
C424 C 0.34286 0.46172 0.84435 0.0
C425 C 0.26687 0.4266 0.83469 0.0
C426 C 0.19129 0.41973 0.87088 0.0
H427 H 0.14034 0.45821 0.83455 0.0
C428 C 0.05736 0.45741 0.88992 0.0
C429 C 0.06527 0.49821 0.88349 0.0
C430 C 0.07864 0.43702 0.88226 0.0
C431 C 0.15397 0.44707 0.84481 0.0
H432 H 0.35455 0.49012 0.87087 0.0
H433 H 0.27941 0.47077 0.87625 0.0
H434 H 0.20374 0.45101 0.82725 0.0
H435 H 0.09985 0.54899 0.86368 0.0
H436 H 0.13861 0.51474 0.85078 0.0
H437 H 0.14465 0.41987 0.88891 0.0
C438 C 0.28723 0.46055 0.86382 0.0
C439 C 0.18994 0.44235 0.84055 0.0
C440 C 0.33056 0.4722 0.86062 0.0
C441 C 0.09324 0.51745 0.86882 0.0
C442 C 0.11505 0.49747 0.86133 0.0
C443 C 0.15579 0.42497 0.87519 0.0
C444 C 0.25495 0.43805 0.85085 0.0
C445 C 0.21037 0.43097 0.85383 0.0
C446 C 0.10883 0.45751 0.86823 0.0
C447 C 0.13819 0.44097 0.86244 0.0
H448 H 0.31896 0.42945 0.81884 0.0
H449 H 0.24262 0.40923 0.82446 0.0
H450 H 0.2058 0.40987 0.88127 0.0
H451 H 0.0352 0.44164 0.90105 0.0
H452 H 0.07244 0.40588 0.88768 0.0
C453 C 0.83143 0.32358 0.14555 0.0
C454 C 0.86804 0.33509 0.15639 0.0
C455 C 0.79172 0.28495 0.14886 0.0
C456 C 0.73847 0.18159 0.17557 0.0
H457 H 0.64541 0.20887 0.18097 0.0
C458 C 0.59618 0.09173 0.22525 0.0
C459 C 0.55441 0.08402 0.22058 0.0
C460 C 0.63206 0.11584 0.21397 0.0
C461 C 0.67062 0.20022 0.17921 0.0
H462 H 0.89282 0.31298 0.17804 0.0
H463 H 0.82364 0.24615 0.1839 0.0
H464 H 0.71311 0.26097 0.16603 0.0
H465 H 0.51738 0.09517 0.20034 0.0
H466 H 0.57996 0.13677 0.18053 0.0
H467 H 0.69634 0.12148 0.18943 0.0
C468 C 0.82549 0.26678 0.17284 0.0
C469 C 0.70946 0.23008 0.17059 0.0
C470 C 0.86514 0.30536 0.16956 0.0
C471 C 0.54914 0.10038 0.20427 0.0
C472 C 0.585 0.12444 0.19298 0.0
C473 C 0.69953 0.15165 0.1842 0.0
C474 C 0.78793 0.25708 0.163 0.0
C475 C 0.74428 0.22168 0.16912 0.0
C476 C 0.62692 0.13272 0.19777 0.0
C477 C 0.66571 0.16127 0.18655 0.0
H478 H 0.83267 0.34552 0.13516 0.0
H479 H 0.76345 0.27791 0.14086 0.0
H480 H 0.76455 0.174 0.17443 0.0
H481 H 0.60116 0.07899 0.2376 0.0
H482 H 0.66403 0.12218 0.21817 0.0
C483 C 0.9821 0.5007 0.079 0.0
C484 C 0.01891 0.51431 0.08996 0.0
C485 C -0.01278 0.50959 0.06077 0.0
C486 C 0.06128 0.532 0.0232 0.0
H487 H -0.0068 0.57783 0.00121 0.0
C488 C 0.07353 0.56876 0.94792 0.0
C489 C 0.0336 0.55492 0.93915 0.0
C490 C 0.07532 0.56962 0.96651 0.0
C491 C 0.01218 0.56472 0.00711 0.0
H492 H 0.08999 0.54717 0.09027 0.0
H493 H 0.09882 0.56213 0.05821 0.0
H494 H -0.01056 0.56683 0.03338 0.0
H495 H 0.96442 0.53172 0.94288 0.0
H496 H 0.96726 0.53254 0.9753 0.0
H497 H 0.08291 0.5284 0.99692 0.0
C498 C 0.06607 0.54477 0.06387 0.0
C499 C 0.01009 0.55854 0.02552 0.0
C500 C 0.06098 0.53627 0.08219 0.0
C501 C -0.00426 0.54309 0.9493 0.0
C502 C -0.00256 0.54365 0.96788 0.0
C503 C 0.0631 0.53783 0.00474 0.0
C504 C 0.02921 0.53194 0.05305 0.0
C505 C 0.03411 0.54152 0.03371 0.0
C506 C 0.03714 0.55637 0.97671 0.0
C507 C 0.03806 0.55366 0.99645 0.0
H508 H 0.9492 0.48376 0.08451 0.0
H509 H 0.95822 0.49875 0.05269 0.0
H510 H 0.07986 0.51851 0.02917 0.0
H511 H 0.10331 0.57855 0.94038 0.0
H512 H 0.10656 0.58035 0.97288 0.0
C513 C 0.46355 0.02279 0.42539 0.0
C514 C 0.49483 0.01465 0.43328 0.0
C515 C 0.46424 0.02968 0.40705 0.0
C516 C 0.53505 0.0614 0.36724 0.0
H517 H 0.42494 -0.00222 0.34189 0.0
C518 C 0.52502 0.04539 0.29054 0.0
C519 C 0.48933 0.04469 0.28204 0.0
C520 C 0.52743 0.04597 0.30912 0.0
C521 C 0.45588 0.01641 0.34877 0.0
H522 H 0.55189 0.00819 0.42808 0.0
H523 H 0.55296 0.0202 0.39602 0.0
H524 H 0.42584 -0.00931 0.37411 0.0
H525 H 0.42939 0.04632 0.28617 0.0
H526 H 0.43392 0.04819 0.31861 0.0
H527 H 0.56512 0.08713 0.34188 0.0
C528 C 0.52807 0.02143 0.40409 0.0
C529 C 0.45638 0.01222 0.36724 0.0
C530 C 0.52724 0.01426 0.42243 0.0
C531 C 0.45694 0.04622 0.29242 0.0
C532 C 0.45949 0.04713 0.31098 0.0
C533 C 0.53454 0.06581 0.34875 0.0
C534 C 0.49636 0.02885 0.3962 0.0
C535 C 0.49597 0.03448 0.37665 0.0
C536 C 0.49431 0.04615 0.31956 0.0
C537 C 0.49495 0.04317 0.33929 0.0
H538 H 0.43819 0.02344 0.43334 0.0
H539 H 0.43967 0.0358 0.40135 0.0
H540 H 0.56598 0.07933 0.3742 0.0
H541 H 0.55021 0.04374 0.28285 0.0
H542 H 0.55441 0.04465 0.31529 0.0
C543 C 0.47138 0.52988 0.75915 0.0
C544 C 0.50872 0.53568 0.76808 0.0
C545 C 0.47223 0.53553 0.7407 0.0
C546 C 0.54881 0.5756 0.70124 0.0
H547 H 0.44122 0.50124 0.67568 0.0
C548 C 0.54639 0.57397 0.62436 0.0
C549 C 0.51939 0.53322 0.61606 0.0
C550 C 0.54273 0.57913 0.64266 0.0
C551 C 0.4718 0.52189 0.68253 0.0
H552 H 0.57615 0.55167 0.76488 0.0
H553 H 0.577 0.55853 0.73265 0.0
H554 H 0.44077 0.4998 0.70782 0.0
H555 H 0.46555 0.46664 0.62055 0.0
H556 H 0.46167 0.47444 0.65232 0.0
H557 H 0.58061 0.59467 0.6759 0.0
C558 C 0.5475 0.55169 0.73978 0.0
C559 C 0.47136 0.52179 0.70113 0.0
C560 C 0.547 0.54736 0.75829 0.0
C561 C 0.48785 0.49821 0.62647 0.0
C562 C 0.48493 0.50304 0.64477 0.0
C563 C 0.54951 0.57476 0.68263 0.0
C564 C 0.51006 0.54572 0.73067 0.0
C565 C 0.50997 0.54823 0.7108 0.0
C566 C 0.51256 0.54344 0.65321 0.0
C567 C 0.51112 0.54739 0.67298 0.0
H568 H 0.4416 0.5214 0.76647 0.0
H569 H 0.44307 0.53179 0.73437 0.0
H570 H 0.57906 0.59738 0.70808 0.0
H571 H 0.57121 0.6017 0.61684 0.0
H572 H 0.56397 0.61108 0.64851 0.0
C573 C 0.44826 0.91332 0.57623 0.0
C574 C 0.4791 0.95446 0.56905 0.0
C575 C 0.4427 0.90742 0.59468 0.0
C576 C 0.49632 0.95703 0.63759 0.0
H577 H 0.37766 0.89492 0.65643 0.0
C578 C 0.40147 0.94292 0.70773 0.0
C579 C 0.43009 0.93942 0.71968 0.0
C580 C 0.40621 0.9399 0.68937 0.0
C581 C 0.41098 0.91248 0.65137 0.0
H582 H 0.52891 0.0214 0.57568 0.0
H583 H 0.51884 0.01121 0.60769 0.0
H584 H 0.38961 0.89937 0.62427 0.0
H585 H 0.48591 0.92962 0.72169 0.0
H586 H 0.49328 0.92304 0.68979 0.0
H587 H 0.51772 0.97172 0.66458 0.0
C588 C 0.49933 0.98333 0.59912 0.0
C589 C 0.41785 0.91456 0.63296 0.0
C590 C 0.50491 0.98921 0.58073 0.0
C591 C 0.46293 0.93191 0.71289 0.0
C592 C 0.46755 0.92871 0.69457 0.0
C593 C 0.48946 0.95504 0.65596 0.0
C594 C 0.46789 0.94251 0.60631 0.0
C595 C 0.4606 0.93734 0.62586 0.0
C596 C 0.43964 0.93327 0.68258 0.0
C597 C 0.44671 0.93314 0.66307 0.0
H598 H 0.42793 0.88582 0.56762 0.0
H599 H 0.41858 0.87542 0.59983 0.0
H600 H 0.52967 0.97438 0.63255 0.0
H601 H 0.37558 0.94829 0.71256 0.0
H602 H 0.38443 0.94399 0.68049 0.0
C603 C 0.52105 0.45703 0.91132 0.0
C604 C 0.50288 0.48086 0.90383 0.0
C605 C 0.51595 0.44691 0.92953 0.0
C606 C 0.44455 0.43293 0.96771 0.0
H607 H 0.5452 0.45869 0.99675 0.0
C608 C 0.44255 0.4467 0.04401 0.0
C609 C 0.46741 0.43386 0.05422 0.0
C610 C 0.44429 0.44619 0.02543 0.0
C611 C 0.51654 0.45044 0.98881 0.0
H612 H 0.46527 0.51288 0.90963 0.0
H613 H 0.45637 0.49508 0.9412 0.0
H614 H 0.55408 0.46976 0.96458 0.0
H615 H 0.51184 0.4083 0.05309 0.0
H616 H 0.51427 0.40654 0.02059 0.0
H617 H 0.40693 0.41375 0.99183 0.0
C618 C 0.47431 0.48403 0.93301 0.0
C619 C 0.52173 0.45693 0.97039 0.0
C620 C 0.47978 0.49453 0.91493 0.0
C621 C 0.49275 0.41888 0.0455 0.0
C622 C 0.49426 0.41806 0.02691 0.0
C623 C 0.43926 0.42608 0.98609 0.0
C624 C 0.49212 0.45994 0.94048 0.0
C625 C 0.48596 0.44909 0.95972 0.0
C626 C 0.47069 0.4325 0.01664 0.0
C627 C 0.47537 0.4356 0.99692 0.0
H628 H 0.53902 0.44603 0.90314 0.0
H629 H 0.52996 0.42824 0.93499 0.0
H630 H 0.41627 0.42594 0.95974 0.0
H631 H 0.42319 0.45894 0.05038 0.0
H632 H 0.42624 0.45819 0.01797 0.0
C633 C 0.97339 0.52012 0.23617 0.0
C634 C 0.97708 0.48732 0.22694 0.0
C635 C 0.97096 0.51953 0.25474 0.0
C636 C 0.94455 0.4472 0.29384 0.0
H637 H 0.01493 0.55693 0.31913 0.0
C638 C 0.96761 0.45491 0.37018 0.0
C639 C 0.96784 0.48997 0.37926 0.0
C640 C 0.96747 0.4538 0.35157 0.0
C641 C -0.00537 0.52611 0.31227 0.0
H642 H 0.98047 0.42777 0.23004 0.0
H643 H 0.97637 0.4269 0.26251 0.0
H644 H 0.01673 0.55623 0.28669 0.0
H645 H 0.96696 0.55073 0.37602 0.0
H646 H 0.96638 0.54866 0.34354 0.0
H647 H 0.92235 0.41709 0.31945 0.0
C648 C 0.97508 0.4529 0.25532 0.0
C649 C -0.00429 0.52571 0.29369 0.0
C650 C 0.97767 0.45355 0.23672 0.0
C651 C 0.96744 0.52363 0.36937 0.0
C652 C 0.96717 0.52245 0.35077 0.0
C653 C 0.94336 0.44761 0.31245 0.0
C654 C 0.97203 0.48607 0.26452 0.0
C655 C 0.97068 0.48628 0.28427 0.0
C656 C 0.96745 0.48766 0.34165 0.0
C657 C 0.96839 0.48709 0.32188 0.0
H658 H 0.97269 0.54656 0.22907 0.0
H659 H 0.96803 0.54521 0.26145 0.0
H660 H 0.9245 0.4164 0.28693 0.0
H661 H 0.96849 0.4288 0.37745 0.0
H662 H 0.96834 0.42686 0.34496 0.0
loop_
_geom_bond_atom_site_label_1
_geom_bond_atom_site_label_2
_geom_bond_distance
_geom_bond_site_symmetry_2
_ccdc_geom_bond_type
O0 Zn1 1.953 . S
O0 C16 1.225 1_655 S
Zn1 O0 1.953 . S
Zn1 O2 1.949 1_655 S
Zn1 O8 1.919 . S
Zn1 O13 1.924 1_655 S
O2 Zn1 1.949 1_455 S
O2 Zn3 1.923 1_455 S
O2 Zn4 1.950 . S
O2 Zn5 1.945 . S
Zn3 O2 1.923 1_655 S
Zn3 O6 1.933 . S
Zn3 O9 1.941 . S
Zn3 O10 1.965 . S
Zn4 O2 1.950 . S
Zn4 O11 1.938 1_455 S
Zn4 O12 1.906 . S
Zn4 O22 1.953 . S
Zn5 O2 1.945 . S
Zn5 O7 1.932 . S
Zn5 O14 1.977 . S
Zn5 O15 1.910 . S
O6 Zn3 1.933 . S
O6 C17 1.226 1_655 S
O7 Zn5 1.932 . S
O7 C17 1.307 . S
O8 Zn1 1.919 . S
O8 C19 1.253 . S
O9 Zn3 1.941 . S
O9 C19 1.283 . S
O10 Zn3 1.965 . S
O10 C18 1.303 . S
O11 Zn4 1.938 1_655 S
O11 C18 1.247 . S
O12 Zn4 1.906 . S
O12 C20 1.304 . S
O13 Zn1 1.924 1_455 S
O13 C21 1.311 . S
O14 Zn5 1.977 . S
O14 C20 1.272 . S
O15 Zn5 1.910 . S
O15 C21 1.231 . S
C16 O0 1.225 1_455 S
C16 O22 1.298 . S
C17 O6 1.226 1_455 S
C17 O7 1.307 . S
C18 O10 1.303 . S
C18 O11 1.247 . S
C19 O8 1.253 . S
C19 O9 1.283 . S
C20 O12 1.304 . S
C20 O14 1.272 . S
C21 O13 1.311 . S
C21 O15 1.231 . S
O22 Zn4 1.953 . S
O22 C16 1.298 . S
O23 Zn24 1.953 . S
O23 C39 1.225 . S
Zn24 O23 1.953 . S
Zn24 O25 1.949 . S
Zn24 O31 1.919 . S
Zn24 O36 1.924 1_545 S
O25 Zn24 1.949 . S
O25 Zn26 1.923 . S
O25 Zn27 1.950 1_545 S
O25 Zn28 1.945 1_545 S
Zn26 O25 1.923 . S
Zn26 O29 1.933 . S
Zn26 O32 1.941 . S
Zn26 O33 1.965 . S
Zn27 O25 1.950 1_565 S
Zn27 O34 1.938 1_565 S
Zn27 O35 1.906 . S
Zn27 O45 1.953 . S
Zn28 O25 1.945 1_565 S
Zn28 O30 1.932 . S
Zn28 O37 1.977 . S
Zn28 O38 1.910 . S
O29 Zn26 1.933 . S
O29 C40 1.226 . S
O30 Zn28 1.932 . S
O30 C40 1.307 1_565 S
O31 Zn24 1.919 . S
O31 C42 1.253 . S
O32 Zn26 1.941 . S
O32 C42 1.283 . S
O33 Zn26 1.965 . S
O33 C41 1.303 . S
O34 Zn27 1.938 1_545 S
O34 C41 1.247 . S
O35 Zn27 1.906 . S
O35 C43 1.304 . S
O36 Zn24 1.924 1_565 S
O36 C44 1.311 . S
O37 Zn28 1.977 . S
O37 C43 1.272 . S
O38 Zn28 1.910 . S
O38 C44 1.231 . S
C39 O23 1.225 . S
C39 O45 1.298 1_545 S
C40 O29 1.226 . S
C40 O30 1.307 1_545 S
C41 O33 1.303 . S
C41 O34 1.247 . S
C42 O31 1.253 . S
C42 O32 1.283 . S
C43 O35 1.304 . S
C43 O37 1.272 . S
C44 O36 1.311 . S
C44 O38 1.231 . S
O45 Zn27 1.953 . S
O45 C39 1.298 1_565 S
O46 Zn47 1.953 . S
O46 C62 1.225 . S
Zn47 O46 1.953 . S
Zn47 O48 1.949 . S
Zn47 O54 1.919 . S
Zn47 O59 1.924 . S
O48 Zn47 1.949 . S
O48 Zn49 1.923 . S
O48 Zn50 1.950 . S
O48 Zn51 1.945 . S
Zn49 O48 1.923 . S
Zn49 O52 1.933 . S
Zn49 O55 1.941 . S
Zn49 O56 1.965 . S
Zn50 O48 1.950 . S
Zn50 O57 1.938 . S
Zn50 O58 1.906 . S
Zn50 O68 1.953 . S
Zn51 O48 1.945 . S
Zn51 O53 1.932 . S
Zn51 O60 1.977 . S
Zn51 O61 1.910 . S
O52 Zn49 1.933 . S
O52 C63 1.226 . S
O53 Zn51 1.932 . S
O53 C63 1.307 . S
O54 Zn47 1.919 . S
O54 C65 1.253 . S
O55 Zn49 1.941 . S
O55 C65 1.283 . S
O56 Zn49 1.965 . S
O56 C64 1.303 . S
O57 Zn50 1.938 . S
O57 C64 1.247 . S
O58 Zn50 1.906 . S
O58 C66 1.304 . S
O59 Zn47 1.924 . S
O59 C67 1.311 . S
O60 Zn51 1.977 . S
O60 C66 1.272 . S
O61 Zn51 1.910 . S
O61 C67 1.231 . S
C62 O46 1.225 . S
C62 O68 1.298 . S
C63 O52 1.226 . S
C63 O53 1.307 . S
C64 O56 1.303 . S
C64 O57 1.247 . S
C65 O54 1.253 . S
C65 O55 1.283 . S
C66 O58 1.304 . S
C66 O60 1.272 . S
C67 O59 1.311 . S
C67 O61 1.231 . S
O68 Zn50 1.953 . S
O68 C62 1.298 . S
H69 C72 0.931 . S
H70 C75 0.928 . S
H71 C77 0.930 . S
C72 H69 0.931 . S
C72 C73 1.413 . S
C72 C74 1.360 1_565 S
C73 C72 1.413 . S
C73 C77 1.429 1_565 S
C74 C72 1.360 1_545 S
C74 C75 1.372 . S
C75 H70 0.928 . S
C75 C74 1.372 . S
C75 C76 1.404 . S
C76 C75 1.404 . S
C76 C77 1.391 . S
C77 H71 0.930 . S
C77 C73 1.429 1_545 S
C77 C76 1.391 . S
H78 C81 0.931 . S
H79 C84 0.928 . S
H80 C86 0.930 . S
C81 H78 0.931 . S
C81 C82 1.413 . S
C81 C83 1.360 . S
C82 C81 1.413 . S
C82 C86 1.429 . S
C83 C81 1.360 . S
C83 C84 1.372 . S
C84 H79 0.928 . S
C84 C83 1.372 . S
C84 C85 1.404 . S
C85 C84 1.404 . S
C85 C86 1.391 . S
C86 H80 0.930 . S
C86 C82 1.429 . S
C86 C85 1.391 . S
H87 C90 0.931 . S
H88 C93 0.928 . S
H89 C95 0.930 . S
C90 H87 0.931 . S
C90 C91 1.413 . S
C90 C92 1.360 1_655 S
C91 C90 1.413 . S
C91 C95 1.429 1_655 S
C92 C90 1.360 1_455 S
C92 C93 1.372 . S
C93 H88 0.928 . S
C93 C92 1.372 . S
C93 C94 1.404 . S
C94 C93 1.404 . S
C94 C95 1.391 . S
C95 H89 0.930 . S
C95 C91 1.429 1_455 S
C95 C94 1.391 . S
H96 C99 0.931 . S
H97 C102 0.928 . S
H98 C104 0.930 . S
C99 H96 0.931 . S
C99 C100 1.413 . S
C99 C101 1.360 1_655 S
C100 C99 1.413 . S
C100 C104 1.429 1_655 S
C101 C99 1.360 1_455 S
C101 C102 1.372 . S
C102 H97 0.928 . S
C102 C101 1.372 . S
C102 C103 1.404 . S
C103 C102 1.404 . S
C103 C104 1.391 . S
C104 H98 0.930 . S
C104 C100 1.429 1_455 S
C104 C103 1.391 . S
H105 C108 0.931 . S
H106 C111 0.928 . S
H107 C113 0.930 . S
C108 H105 0.931 . S
C108 C109 1.413 . S
C108 C110 1.354 1_545 S
C109 C108 1.413 . S
C109 C113 1.412 1_545 S
C110 C108 1.354 1_565 S
C110 C111 1.378 . S
C111 H106 0.928 . S
C111 C110 1.378 . S
C111 C112 1.404 . S
C112 C111 1.404 . S
C112 C113 1.408 . S
C113 H107 0.930 . S
C113 C109 1.412 1_565 S
C113 C112 1.408 . S
H114 C117 0.931 . S
H115 C120 0.928 . S
H116 C122 0.930 . S
C117 H114 0.931 . S
C117 C118 1.413 . S
C117 C119 1.360 . S
C118 C117 1.413 . S
C118 C122 1.429 . S
C119 C117 1.360 . S
C119 C120 1.372 . S
C120 H115 0.928 . S
C120 C119 1.372 . S
C120 C121 1.404 . S
C121 C120 1.404 . S
C121 C122 1.391 . S
C122 H116 0.930 . S
C122 C118 1.429 . S
C122 C121 1.391 . S
C123 C124 1.349 . S
C123 C125 1.327 . S
C123 H148 0.950 . S
C124 C123 1.349 . S
C124 C140 1.349 . S
C125 C123 1.327 . S
C125 C144 1.429 . S
C125 H149 0.950 . S
C126 C143 1.574 . S
C126 C145 1.368 . S
C126 H150 0.949 . S
H127 C131 0.949 . S
C128 C129 1.349 . S
C128 C130 1.327 . S
C128 H151 0.950 . S
C129 C128 1.349 . S
C129 C141 1.349 . S
C130 C128 1.327 . S
C130 C146 1.429 . S
C130 H152 0.950 . S
C131 H127 0.949 . S
C131 C139 1.574 . S
C131 C147 1.368 . S
H132 C140 0.950 . S
H133 C138 0.950 . S
H134 C139 0.949 . S
H135 C141 0.950 . S
H136 C142 0.950 . S
H137 C143 0.949 . S
C138 H133 0.950 . S
C138 C140 1.327 . S
C138 C144 1.429 . S
C139 C131 1.574 . S
C139 H134 0.949 . S
C139 C145 1.368 . S
C140 C124 1.349 . S
C140 H132 0.950 . S
C140 C138 1.327 . S
C141 C129 1.349 . S
C141 H135 0.950 . S
C141 C142 1.327 . S
C142 H136 0.950 . S
C142 C141 1.327 . S
C142 C146 1.429 . S
C143 C126 1.574 . S
C143 H137 0.949 . S
C143 C147 1.368 . S
C144 C125 1.429 . S
C144 C138 1.429 . S
C144 C145 1.523 . S
C145 C126 1.368 . S
C145 C139 1.368 . S
C145 C144 1.523 . S
C146 C130 1.429 . S
C146 C142 1.429 . S
C146 C147 1.523 . S
C147 C131 1.368 . S
C147 C143 1.368 . S
C147 C146 1.523 . S
H148 C123 0.950 . S
H149 C125 0.950 . S
H150 C126 0.949 . S
H151 C128 0.950 . S
H152 C130 0.950 . S
C153 C154 1.349 . S
C153 C155 1.327 . S
C153 H178 0.950 . S
C154 C153 1.349 . S
C154 C170 1.349 . S
C155 C153 1.327 . S
C155 C174 1.429 . S
C155 H179 0.950 . S
C156 C173 1.574 . S
C156 C175 1.368 . S
C156 H180 0.949 . S
H157 C161 0.949 . S
C158 C159 1.349 . S
C158 C160 1.327 . S
C158 H181 0.950 . S
C159 C158 1.349 . S
C159 C171 1.349 . S
C160 C158 1.327 . S
C160 C176 1.429 . S
C160 H182 0.950 . S
C161 H157 0.949 . S
C161 C169 1.574 . S
C161 C177 1.368 . S
H162 C170 0.950 . S
H163 C168 0.950 . S
H164 C169 0.949 . S
H165 C171 0.950 . S
H166 C172 0.950 . S
H167 C173 0.949 . S
C168 H163 0.950 . S
C168 C170 1.327 . S
C168 C174 1.429 . S
C169 C161 1.574 . S
C169 H164 0.949 . S
C169 C175 1.368 . S
C170 C154 1.349 . S
C170 H162 0.950 . S
C170 C168 1.327 . S
C171 C159 1.349 . S
C171 H165 0.950 . S
C171 C172 1.327 . S
C172 H166 0.950 . S
C172 C171 1.327 . S
C172 C176 1.429 . S
C173 C156 1.574 . S
C173 H167 0.949 . S
C173 C177 1.368 . S
C174 C155 1.429 . S
C174 C168 1.429 . S
C174 C175 1.523 . S
C175 C156 1.368 . S
C175 C169 1.368 . S
C175 C174 1.523 . S
C176 C160 1.429 . S
C176 C172 1.429 . S
C176 C177 1.523 . S
C177 C161 1.368 . S
C177 C173 1.368 . S
C177 C176 1.523 . S
H178 C153 0.950 . S
H179 C155 0.950 . S
H180 C156 0.949 . S
H181 C158 0.950 . S
H182 C160 0.950 . S
C183 C184 1.349 . S
C183 C185 1.327 . S
C183 H208 0.950 . S
C184 C183 1.349 . S
C184 C200 1.349 . S
C185 C183 1.327 . S
C185 C204 1.429 . S
C185 H209 0.950 . S
C186 C203 1.574 . S
C186 C205 1.368 . S
C186 H210 0.949 . S
H187 C191 0.949 . S
C188 C189 1.349 . S
C188 C190 1.327 . S
C188 H211 0.950 . S
C189 C188 1.349 . S
C189 C201 1.349 . S
C190 C188 1.327 . S
C190 C206 1.429 . S
C190 H212 0.950 . S
C191 H187 0.949 . S
C191 C199 1.574 . S
C191 C207 1.368 . S
H192 C200 0.950 . S
H193 C198 0.950 . S
H194 C199 0.949 . S
H195 C201 0.950 . S
H196 C202 0.950 . S
H197 C203 0.949 . S
C198 H193 0.950 . S
C198 C200 1.327 . S
C198 C204 1.429 . S
C199 C191 1.574 . S
C199 H194 0.949 . S
C199 C205 1.368 . S
C200 C184 1.349 . S
C200 H192 0.950 . S
C200 C198 1.327 . S
C201 C189 1.349 . S
C201 H195 0.950 . S
C201 C202 1.327 . S
C202 H196 0.950 . S
C202 C201 1.327 . S
C202 C206 1.429 . S
C203 C186 1.574 . S
C203 H197 0.949 . S
C203 C207 1.368 . S
C204 C185 1.429 . S
C204 C198 1.429 . S
C204 C205 1.523 . S
C205 C186 1.368 . S
C205 C199 1.368 . S
C205 C204 1.523 . S
C206 C190 1.429 . S
C206 C202 1.429 . S
C206 C207 1.523 . S
C207 C191 1.368 . S
C207 C203 1.368 . S
C207 C206 1.523 . S
H208 C183 0.950 . S
H209 C185 0.950 . S
H210 C186 0.949 . S
H211 C188 0.950 . S
H212 C190 0.950 . S
C213 C214 1.349 . S
C213 C215 1.327 . S
C213 H238 0.950 . S
C214 C213 1.349 . S
C214 C230 1.349 . S
C215 C213 1.327 . S
C215 C234 1.429 . S
C215 H239 0.950 . S
C216 C233 1.574 . S
C216 C235 1.368 . S
C216 H240 0.949 . S
H217 C221 0.949 . S
C218 C219 1.349 . S
C218 C220 1.327 . S
C218 H241 0.950 . S
C219 C218 1.349 . S
C219 C231 1.349 . S
C220 C218 1.327 . S
C220 C236 1.429 . S
C220 H242 0.950 . S
C221 H217 0.949 . S
C221 C229 1.574 . S
C221 C237 1.368 . S
H222 C230 0.950 . S
H223 C228 0.950 . S
H224 C229 0.949 . S
H225 C231 0.950 . S
H226 C232 0.950 . S
H227 C233 0.949 . S
C228 H223 0.950 . S
C228 C230 1.327 . S
C228 C234 1.429 . S
C229 C221 1.574 . S
C229 H224 0.949 . S
C229 C235 1.368 . S
C230 C214 1.349 . S
C230 H222 0.950 . S
C230 C228 1.327 . S
C231 C219 1.349 . S
C231 H225 0.950 . S
C231 C232 1.327 . S
C232 H226 0.950 . S
C232 C231 1.327 . S
C232 C236 1.429 . S
C233 C216 1.574 . S
C233 H227 0.949 . S
C233 C237 1.368 . S
C234 C215 1.429 . S
C234 C228 1.429 . S
C234 C235 1.523 . S
C235 C216 1.368 . S
C235 C229 1.368 . S
C235 C234 1.523 . S
C236 C220 1.429 . S
C236 C232 1.429 . S
C236 C237 1.523 . S
C237 C221 1.368 . S
C237 C233 1.368 . S
C237 C236 1.523 . S
H238 C213 0.950 . S
H239 C215 0.950 . S
H240 C216 0.949 . S
H241 C218 0.950 . S
H242 C220 0.950 . S
C243 C244 1.349 . S
C243 C245 1.327 . S
C243 H268 0.950 . S
C244 C243 1.349 . S
C244 C260 1.349 . S
C245 C243 1.327 . S
C245 C264 1.429 . S
C245 H269 0.950 . S
C246 C263 1.574 . S
C246 C265 1.368 . S
C246 H270 0.949 . S
H247 C251 0.949 . S
C248 C249 1.349 . S
C248 C250 1.327 . S
C248 H271 0.950 . S
C249 C248 1.349 . S
C249 C261 1.349 . S
C250 C248 1.327 . S
C250 C266 1.429 . S
C250 H272 0.950 . S
C251 H247 0.949 . S
C251 C259 1.574 . S
C251 C267 1.368 . S
H252 C260 0.950 . S
H253 C258 0.950 . S
H254 C259 0.949 . S
H255 C261 0.950 . S
H256 C262 0.950 . S
H257 C263 0.949 . S
C258 H253 0.950 . S
C258 C260 1.327 . S
C258 C264 1.429 . S
C259 C251 1.574 . S
C259 H254 0.949 . S
C259 C265 1.368 . S
C260 C244 1.349 . S
C260 H252 0.950 . S
C260 C258 1.327 . S
C261 C249 1.349 . S
C261 H255 0.950 . S
C261 C262 1.327 . S
C262 H256 0.950 . S
C262 C261 1.327 . S
C262 C266 1.429 . S
C263 C246 1.574 . S
C263 H257 0.949 . S
C263 C267 1.368 . S
C264 C245 1.429 . S
C264 C258 1.429 . S
C264 C265 1.523 . S
C265 C246 1.368 . S
C265 C259 1.368 . S
C265 C264 1.523 . S
C266 C250 1.429 . S
C266 C262 1.429 . S
C266 C267 1.523 . S
C267 C251 1.368 . S
C267 C263 1.368 . S
C267 C266 1.523 . S
H268 C243 0.950 . S
H269 C245 0.950 . S
H270 C246 0.949 . S
H271 C248 0.950 . S
H272 C250 0.950 . S
C273 C274 1.349 . S
C273 C275 1.327 . S
C273 H298 0.950 . S
C274 C273 1.349 . S
C274 C290 1.349 . S
C275 C273 1.327 . S
C275 C294 1.429 . S
C275 H299 0.950 . S
C276 C293 1.574 . S
C276 C295 1.368 . S
C276 H300 0.949 . S
H277 C281 0.949 . S
C278 C279 1.349 . S
C278 C280 1.327 . S
C278 H301 0.950 . S
C279 C278 1.349 . S
C279 C291 1.349 . S
C280 C278 1.327 . S
C280 C296 1.429 . S
C280 H302 0.950 . S
C281 H277 0.949 . S
C281 C289 1.574 . S
C281 C297 1.368 . S
H282 C290 0.950 . S
H283 C288 0.950 . S
H284 C289 0.949 . S
H285 C291 0.950 . S
H286 C292 0.950 . S
H287 C293 0.949 . S
C288 H283 0.950 . S
C288 C290 1.327 . S
C288 C294 1.429 . S
C289 C281 1.574 . S
C289 H284 0.949 . S
C289 C295 1.368 . S
C290 C274 1.349 . S
C290 H282 0.950 . S
C290 C288 1.327 . S
C291 C279 1.349 . S
C291 H285 0.950 . S
C291 C292 1.327 . S
C292 H286 0.950 . S
C292 C291 1.327 . S
C292 C296 1.429 . S
C293 C276 1.574 . S
C293 H287 0.949 . S
C293 C297 1.368 . S
C294 C275 1.429 . S
C294 C288 1.429 . S
C294 C295 1.523 . S
C295 C276 1.368 . S
C295 C289 1.368 . S
C295 C294 1.523 . S
C296 C280 1.429 . S
C296 C292 1.429 . S
C296 C297 1.523 . S
C297 C281 1.368 . S
C297 C293 1.368 . S
C297 C296 1.523 . S
H298 C273 0.950 . S
H299 C275 0.950 . S
H300 C276 0.949 . S
H301 C278 0.950 . S
H302 C280 0.950 . S
C303 C304 1.349 . S
C303 C305 1.327 . S
C303 H328 0.950 . S
C304 C303 1.349 . S
C304 C320 1.349 . S
C305 C303 1.327 . S
C305 C324 1.429 . S
C305 H329 0.950 . S
C306 C323 1.574 . S
C306 C325 1.368 . S
C306 H330 0.949 . S
H307 C311 0.949 . S
C308 C309 1.349 . S
C308 C310 1.327 . S
C308 H331 0.950 . S
C309 C308 1.349 . S
C309 C321 1.349 . S
C310 C308 1.327 . S
C310 C326 1.429 . S
C310 H332 0.950 . S
C311 H307 0.949 . S
C311 C319 1.574 . S
C311 C327 1.368 . S
H312 C320 0.950 . S
H313 C318 0.950 . S
H314 C319 0.949 . S
H315 C321 0.950 . S
H316 C322 0.950 . S
H317 C323 0.949 . S
C318 H313 0.950 . S
C318 C320 1.327 . S
C318 C324 1.429 . S
C319 C311 1.574 . S
C319 H314 0.949 . S
C319 C325 1.368 . S
C320 C304 1.349 . S
C320 H312 0.950 . S
C320 C318 1.327 . S
C321 C309 1.349 . S
C321 H315 0.950 . S
C321 C322 1.327 . S
C322 H316 0.950 . S
C322 C321 1.327 . S
C322 C326 1.429 . S
C323 C306 1.574 . S
C323 H317 0.949 . S
C323 C327 1.368 . S
C324 C305 1.429 . S
C324 C318 1.429 . S
C324 C325 1.523 . S
C325 C306 1.368 . S
C325 C319 1.368 . S
C325 C324 1.523 . S
C326 C310 1.429 . S
C326 C322 1.429 . S
C326 C327 1.523 . S
C327 C311 1.368 . S
C327 C323 1.368 . S
C327 C326 1.523 . S
H328 C303 0.950 . S
H329 C305 0.950 . S
H330 C306 0.949 . S
H331 C308 0.950 . S
H332 C310 0.950 . S
C333 C334 1.349 . S
C333 C335 1.327 . S
C333 H358 0.950 . S
C334 C333 1.349 . S
C334 C350 1.349 . S
C335 C333 1.327 . S
C335 C354 1.429 . S
C335 H359 0.950 . S
C336 C353 1.574 . S
C336 C355 1.368 . S
C336 H360 0.949 . S
H337 C341 0.949 . S
C338 C339 1.349 . S
C338 C340 1.327 . S
C338 H361 0.950 . S
C339 C338 1.349 . S
C339 C351 1.349 . S
C340 C338 1.327 . S
C340 C356 1.429 . S
C340 H362 0.950 . S
C341 H337 0.949 . S
C341 C349 1.574 . S
C341 C357 1.368 . S
H342 C350 0.950 . S
H343 C348 0.950 . S
H344 C349 0.949 . S
H345 C351 0.950 . S
H346 C352 0.950 . S
H347 C353 0.949 . S
C348 H343 0.950 . S
C348 C350 1.327 . S
C348 C354 1.429 . S
C349 C341 1.574 . S
C349 H344 0.949 . S
C349 C355 1.368 . S
C350 C334 1.349 . S
C350 H342 0.950 . S
C350 C348 1.327 . S
C351 C339 1.349 . S
C351 H345 0.950 . S
C351 C352 1.327 . S
C352 H346 0.950 . S
C352 C351 1.327 . S
C352 C356 1.429 . S
C353 C336 1.574 . S
C353 H347 0.949 . S
C353 C357 1.368 . S
C354 C335 1.429 . S
C354 C348 1.429 . S
C354 C355 1.523 . S
C355 C336 1.368 . S
C355 C349 1.368 . S
C355 C354 1.523 . S
C356 C340 1.429 . S
C356 C352 1.429 . S
C356 C357 1.523 . S
C357 C341 1.368 . S
C357 C353 1.368 . S
C357 C356 1.523 . S
H358 C333 0.950 . S
H359 C335 0.950 . S
H360 C336 0.949 . S
H361 C338 0.950 . S
H362 C340 0.950 . S
C363 C364 1.349 . S
C363 C365 1.327 . S
C363 H388 0.950 . S
C364 C363 1.349 . S
C364 C380 1.349 . S
C365 C363 1.327 . S
C365 C384 1.429 . S
C365 H389 0.950 . S
C366 C383 1.574 . S
C366 C385 1.368 . S
C366 H390 0.949 . S
H367 C371 0.949 . S
C368 C369 1.349 . S
C368 C370 1.327 . S
C368 H391 0.950 . S
C369 C368 1.349 . S
C369 C381 1.349 . S
C370 C368 1.327 . S
C370 C386 1.429 . S
C370 H392 0.950 . S
C371 H367 0.949 . S
C371 C379 1.574 . S
C371 C387 1.368 . S
H372 C380 0.950 . S
H373 C378 0.950 . S
H374 C379 0.949 . S
H375 C381 0.950 . S
H376 C382 0.950 . S
H377 C383 0.949 . S
C378 H373 0.950 . S
C378 C380 1.327 . S
C378 C384 1.429 . S
C379 C371 1.574 . S
C379 H374 0.949 . S
C379 C385 1.368 . S
C380 C364 1.349 . S
C380 H372 0.950 . S
C380 C378 1.327 . S
C381 C369 1.349 . S
C381 H375 0.950 . S
C381 C382 1.327 . S
C382 H376 0.950 . S
C382 C381 1.327 . S
C382 C386 1.429 . S
C383 C366 1.574 . S
C383 H377 0.949 . S
C383 C387 1.368 . S
C384 C365 1.429 . S
C384 C378 1.429 . S
C384 C385 1.523 . S
C385 C366 1.368 . S
C385 C379 1.368 . S
C385 C384 1.523 . S
C386 C370 1.429 . S
C386 C382 1.429 . S
C386 C387 1.523 . S
C387 C371 1.368 . S
C387 C383 1.368 . S
C387 C386 1.523 . S
H388 C363 0.950 . S
H389 C365 0.950 . S
H390 C366 0.949 . S
H391 C368 0.950 . S
H392 C370 0.950 . S
C393 C394 1.349 . S
C393 C395 1.327 . S
C393 H418 0.950 . S
C394 C393 1.349 . S
C394 C410 1.349 . S
C395 C393 1.327 . S
C395 C414 1.429 . S
C395 H419 0.950 . S
C396 C413 1.574 . S
C396 C415 1.368 . S
C396 H420 0.949 . S
H397 C401 0.949 . S
C398 C399 1.349 . S
C398 C400 1.327 . S
C398 H421 0.950 . S
C399 C398 1.349 . S
C399 C411 1.349 . S
C400 C398 1.327 . S
C400 C416 1.429 . S
C400 H422 0.950 . S
C401 H397 0.949 . S
C401 C409 1.574 . S
C401 C417 1.368 . S
H402 C410 0.950 . S
H403 C408 0.950 . S
H404 C409 0.949 . S
H405 C411 0.950 . S
H406 C412 0.950 . S
H407 C413 0.949 . S
C408 H403 0.950 . S
C408 C410 1.327 . S
C408 C414 1.429 . S
C409 C401 1.574 . S
C409 H404 0.949 . S
C409 C415 1.368 . S
C410 C394 1.349 . S
C410 H402 0.950 . S
C410 C408 1.327 . S
C411 C399 1.349 . S
C411 H405 0.950 . S
C411 C412 1.327 . S
C412 H406 0.950 . S
C412 C411 1.327 . S
C412 C416 1.429 . S
C413 C396 1.574 . S
C413 H407 0.949 . S
C413 C417 1.368 . S
C414 C395 1.429 . S
C414 C408 1.429 . S
C414 C415 1.523 . S
C415 C396 1.368 . S
C415 C409 1.368 . S
C415 C414 1.523 . S
C416 C400 1.429 . S
C416 C412 1.429 . S
C416 C417 1.523 . S
C417 C401 1.368 . S
C417 C413 1.368 . S
C417 C416 1.523 . S
H418 C393 0.950 . S
H419 C395 0.950 . S
H420 C396 0.949 . S
H421 C398 0.950 . S
H422 C400 0.950 . S
C423 C424 1.349 . S
C423 C425 1.327 . S
C423 H448 0.950 . S
C424 C423 1.349 . S
C424 C440 1.349 . S
C425 C423 1.327 . S
C425 C444 1.429 . S
C425 H449 0.950 . S
C426 C443 1.574 . S
C426 C445 1.368 . S
C426 H450 0.949 . S
H427 C431 0.949 . S
C428 C429 1.349 . S
C428 C430 1.327 . S
C428 H451 0.950 . S
C429 C428 1.349 . S
C429 C441 1.349 . S
C430 C428 1.327 . S
C430 C446 1.429 . S
C430 H452 0.950 . S
C431 H427 0.949 . S
C431 C439 1.574 . S
C431 C447 1.368 . S
H432 C440 0.950 . S
H433 C438 0.950 . S
H434 C439 0.949 . S
H435 C441 0.950 . S
H436 C442 0.950 . S
H437 C443 0.949 . S
C438 H433 0.950 . S
C438 C440 1.327 . S
C438 C444 1.429 . S
C439 C431 1.574 . S
C439 H434 0.949 . S
C439 C445 1.368 . S
C440 C424 1.349 . S
C440 H432 0.950 . S
C440 C438 1.327 . S
C441 C429 1.349 . S
C441 H435 0.950 . S
C441 C442 1.327 . S
C442 H436 0.950 . S
C442 C441 1.327 . S
C442 C446 1.429 . S
C443 C426 1.574 . S
C443 H437 0.949 . S
C443 C447 1.368 . S
C444 C425 1.429 . S
C444 C438 1.429 . S
C444 C445 1.523 . S
C445 C426 1.368 . S
C445 C439 1.368 . S
C445 C444 1.523 . S
C446 C430 1.429 . S
C446 C442 1.429 . S
C446 C447 1.523 . S
C447 C431 1.368 . S
C447 C443 1.368 . S
C447 C446 1.523 . S
H448 C423 0.950 . S
H449 C425 0.950 . S
H450 C426 0.949 . S
H451 C428 0.950 . S
H452 C430 0.950 . S
C453 C454 1.349 . S
C453 C455 1.327 . S
C453 H478 0.950 . S
C454 C453 1.349 . S
C454 C470 1.349 . S
C455 C453 1.327 . S
C455 C474 1.429 . S
C455 H479 0.950 . S
C456 C473 1.574 . S
C456 C475 1.368 . S
C456 H480 0.949 . S
H457 C461 0.949 . S
C458 C459 1.349 . S
C458 C460 1.327 . S
C458 H481 0.950 . S
C459 C458 1.349 . S
C459 C471 1.349 . S
C460 C458 1.327 . S
C460 C476 1.429 . S
C460 H482 0.950 . S
C461 H457 0.949 . S
C461 C469 1.574 . S
C461 C477 1.368 . S
H462 C470 0.950 . S
H463 C468 0.950 . S
H464 C469 0.949 . S
H465 C471 0.950 . S
H466 C472 0.950 . S
H467 C473 0.949 . S
C468 H463 0.950 . S
C468 C470 1.327 . S
C468 C474 1.429 . S
C469 C461 1.574 . S
C469 H464 0.949 . S
C469 C475 1.368 . S
C470 C454 1.349 . S
C470 H462 0.950 . S
C470 C468 1.327 . S
C471 C459 1.349 . S
C471 H465 0.950 . S
C471 C472 1.327 . S
C472 H466 0.950 . S
C472 C471 1.327 . S
C472 C476 1.429 . S
C473 C456 1.574 . S
C473 H467 0.949 . S
C473 C477 1.368 . S
C474 C455 1.429 . S
C474 C468 1.429 . S
C474 C475 1.523 . S
C475 C456 1.368 . S
C475 C469 1.368 . S
C475 C474 1.523 . S
C476 C460 1.429 . S
C476 C472 1.429 . S
C476 C477 1.523 . S
C477 C461 1.368 . S
C477 C473 1.368 . S
C477 C476 1.523 . S
H478 C453 0.950 . S
H479 C455 0.950 . S
H480 C456 0.949 . S
H481 C458 0.950 . S
H482 C460 0.950 . S
C483 C484 1.349 1_655 S
C483 C485 1.327 . S
C483 H508 0.950 . S
C484 C483 1.349 1_455 S
C484 C500 1.349 . S
C485 C483 1.327 . S
C485 C504 1.429 1_655 S
C485 H509 0.950 . S
C486 C503 1.574 . S
C486 C505 1.368 . S
C486 H510 0.949 . S
H487 C491 0.949 . S
C488 C489 1.349 . S
C488 C490 1.327 . S
C488 H511 0.950 . S
C489 C488 1.349 . S
C489 C501 1.349 1_455 S
C490 C488 1.327 . S
C490 C506 1.429 . S
C490 H512 0.950 . S
C491 H487 0.949 . S
C491 C499 1.574 . S
C491 C507 1.368 1_655 S
H492 C500 0.950 . S
H493 C498 0.950 . S
H494 C499 0.949 . S
H495 C501 0.950 . S
H496 C502 0.950 . S
H497 C503 0.949 . S
C498 H493 0.950 . S
C498 C500 1.327 . S
C498 C504 1.429 . S
C499 C491 1.574 . S
C499 H494 0.949 . S
C499 C505 1.368 1_655 S
C500 C484 1.349 . S
C500 H492 0.950 . S
C500 C498 1.327 . S
C501 C489 1.349 1_655 S
C501 H495 0.950 . S
C501 C502 1.327 . S
C502 H496 0.950 . S
C502 C501 1.327 . S
C502 C506 1.429 1_655 S
C503 C486 1.574 . S
C503 H497 0.949 . S
C503 C507 1.368 . S
C504 C485 1.429 1_455 S
C504 C498 1.429 . S
C504 C505 1.523 . S
C505 C486 1.368 . S
C505 C499 1.368 1_455 S
C505 C504 1.523 . S
C506 C490 1.429 . S
C506 C502 1.429 1_455 S
C506 C507 1.523 1_556 S
C507 C491 1.368 1_455 S
C507 C503 1.368 . S
C507 C506 1.523 1_554 S
H508 C483 0.950 . S
H509 C485 0.950 . S
H510 C486 0.949 . S
H511 C488 0.950 . S
H512 C490 0.950 . S
C513 C514 1.349 1_565 S
C513 C515 1.327 . S
C513 H538 0.950 . S
C514 C513 1.349 1_545 S
C514 C530 1.349 . S
C515 C513 1.327 . S
C515 C534 1.429 1_565 S
C515 H539 0.950 . S
C516 C533 1.574 . S
C516 C535 1.368 . S
C516 H540 0.949 . S
H517 C521 0.949 . S
C518 C519 1.349 . S
C518 C520 1.327 . S
C518 H541 0.950 . S
C519 C518 1.349 . S
C519 C531 1.349 1_545 S
C520 C518 1.327 . S
C520 C536 1.429 . S
C520 H542 0.950 . S
C521 H517 0.949 . S
C521 C529 1.574 . S
C521 C537 1.368 1_565 S
H522 C530 0.950 . S
H523 C528 0.950 . S
H524 C529 0.949 . S
H525 C531 0.950 . S
H526 C532 0.950 . S
H527 C533 0.949 . S
C528 H523 0.950 . S
C528 C530 1.327 . S
C528 C534 1.429 . S
C529 C521 1.574 . S
C529 H524 0.949 . S
C529 C535 1.368 1_565 S
C530 C514 1.349 . S
C530 H522 0.950 . S
C530 C528 1.327 . S
C531 C519 1.349 1_565 S
C531 H525 0.950 . S
C531 C532 1.327 . S
C532 H526 0.950 . S
C532 C531 1.327 . S
C532 C536 1.429 1_565 S
C533 C516 1.574 . S
C533 H527 0.949 . S
C533 C537 1.368 . S
C534 C515 1.429 1_545 S
C534 C528 1.429 . S
C534 C535 1.523 . S
C535 C516 1.368 . S
C535 C529 1.368 1_545 S
C535 C534 1.523 . S
C536 C520 1.429 . S
C536 C532 1.429 1_545 S
C536 C537 1.523 . S
C537 C521 1.368 1_545 S
C537 C533 1.368 . S
C537 C536 1.523 . S
H538 C513 0.950 . S
H539 C515 0.950 . S
H540 C516 0.949 . S
H541 C518 0.950 . S
H542 C520 0.950 . S
C543 C544 1.349 . S
C543 C545 1.327 . S
C543 H568 0.950 . S
C544 C543 1.349 . S
C544 C560 1.349 . S
C545 C543 1.327 . S
C545 C564 1.429 . S
C545 H569 0.950 . S
C546 C563 1.574 . S
C546 C565 1.368 . S
C546 H570 0.949 . S
H547 C551 0.949 . S
C548 C549 1.349 . S
C548 C550 1.327 . S
C548 H571 0.950 . S
C549 C548 1.349 . S
C549 C561 1.349 . S
C550 C548 1.327 . S
C550 C566 1.429 . S
C550 H572 0.950 . S
C551 H547 0.949 . S
C551 C559 1.574 . S
C551 C567 1.368 . S
H552 C560 0.950 . S
H553 C558 0.950 . S
H554 C559 0.949 . S
H555 C561 0.950 . S
H556 C562 0.950 . S
H557 C563 0.949 . S
C558 H553 0.950 . S
C558 C560 1.327 . S
C558 C564 1.429 . S
C559 C551 1.574 . S
C559 H554 0.949 . S
C559 C565 1.368 . S
C560 C544 1.349 . S
C560 H552 0.950 . S
C560 C558 1.327 . S
C561 C549 1.349 . S
C561 H555 0.950 . S
C561 C562 1.327 . S
C562 H556 0.950 . S
C562 C561 1.327 . S
C562 C566 1.429 . S
C563 C546 1.574 . S
C563 H557 0.949 . S
C563 C567 1.368 . S
C564 C545 1.429 . S
C564 C558 1.429 . S
C564 C565 1.523 . S
C565 C546 1.368 . S
C565 C559 1.368 . S
C565 C564 1.523 . S
C566 C550 1.429 . S
C566 C562 1.429 . S
C566 C567 1.523 . S
C567 C551 1.368 . S
C567 C563 1.368 . S
C567 C566 1.523 . S
H568 C543 0.950 . S
H569 C545 0.950 . S
H570 C546 0.949 . S
H571 C548 0.950 . S
H572 C550 0.950 . S
C573 C574 1.349 1_565 S
C573 C575 1.327 . S
C573 H598 0.950 . S
C574 C573 1.349 1_545 S
C574 C590 1.349 . S
C575 C573 1.327 . S
C575 C594 1.429 1_565 S
C575 H599 0.950 . S
C576 C593 1.574 . S
C576 C595 1.368 . S
C576 H600 0.949 . S
H577 C581 0.949 . S
C578 C579 1.363 . S
C578 C580 1.327 . S
C578 H601 0.950 . S
C579 C578 1.363 . S
C579 C591 1.335 1_545 S
C580 C578 1.327 . S
C580 C596 1.429 . S
C580 H602 0.950 . S
C581 H577 0.949 . S
C581 C589 1.574 . S
C581 C597 1.368 1_565 S
H582 C590 0.950 . S
H583 C588 0.950 . S
H584 C589 0.949 . S
H585 C591 0.950 . S
H586 C592 0.950 . S
H587 C593 0.949 . S
C588 H583 0.950 . S
C588 C590 1.327 . S
C588 C594 1.429 . S
C589 C581 1.574 . S
C589 H584 0.949 . S
C589 C595 1.368 1_565 S
C590 C574 1.349 . S
C590 H582 0.950 . S
C590 C588 1.327 . S
C591 C579 1.335 1_565 S
C591 H585 0.950 . S
C591 C592 1.327 . S
C592 H586 0.950 . S
C592 C591 1.327 . S
C592 C596 1.429 1_565 S
C593 C576 1.574 . S
C593 H587 0.949 . S
C593 C597 1.368 . S
C594 C575 1.429 1_545 S
C594 C588 1.429 . S
C594 C595 1.523 . S
C595 C576 1.368 . S
C595 C589 1.368 1_545 S
C595 C594 1.523 . S
C596 C580 1.429 . S
C596 C592 1.429 1_545 S
C596 C597 1.523 . S
C597 C581 1.368 1_545 S
C597 C593 1.368 . S
C597 C596 1.523 . S
H598 C573 0.950 . S
H599 C575 0.950 . S
H600 C576 0.949 . S
H601 C578 0.950 . S
H602 C580 0.950 . S
C603 C604 1.349 . S
C603 C605 1.327 . S
C603 H628 0.950 . S
C604 C603 1.349 . S
C604 C620 1.349 . S
C605 C603 1.327 . S
C605 C624 1.429 . S
C605 H629 0.950 . S
C606 C623 1.574 . S
C606 C625 1.368 . S
C606 H630 0.949 . S
H607 C611 0.949 . S
C608 C609 1.349 . S
C608 C610 1.327 . S
C608 H631 0.950 . S
C609 C608 1.349 . S
C609 C621 1.349 . S
C610 C608 1.327 . S
C610 C626 1.429 . S
C610 H632 0.950 . S
C611 H607 0.949 . S
C611 C619 1.574 . S
C611 C627 1.368 . S
H612 C620 0.950 . S
H613 C618 0.950 . S
H614 C619 0.949 . S
H615 C621 0.950 . S
H616 C622 0.950 . S
H617 C623 0.949 . S
C618 H613 0.950 . S
C618 C620 1.327 . S
C618 C624 1.429 . S
C619 C611 1.574 . S
C619 H614 0.949 . S
C619 C625 1.368 . S
C620 C604 1.349 . S
C620 H612 0.950 . S
C620 C618 1.327 . S
C621 C609 1.349 . S
C621 H615 0.950 . S
C621 C622 1.327 . S
C622 H616 0.950 . S
C622 C621 1.327 . S
C622 C626 1.429 . S
C623 C606 1.574 . S
C623 H617 0.949 . S
C623 C627 1.368 . S
C624 C605 1.429 . S
C624 C618 1.429 . S
C624 C625 1.523 . S
C625 C606 1.368 . S
C625 C619 1.368 . S
C625 C624 1.523 . S
C626 C610 1.429 . S
C626 C622 1.429 . S
C626 C627 1.523 1_554 S
C627 C611 1.368 . S
C627 C623 1.368 . S
C627 C626 1.523 1_556 S
H628 C603 0.950 . S
H629 C605 0.950 . S
H630 C606 0.949 . S
H631 C608 0.950 . S
H632 C610 0.950 . S
C633 C634 1.349 . S
C633 C635 1.328 . S
C633 H658 0.950 1_455 S
C634 C633 1.349 . S
C634 C650 1.349 . S
C635 C633 1.328 . S
C635 C654 1.437 . S
C635 H659 0.941 1_455 S
C636 C653 1.574 . S
C636 C655 1.368 . S
C636 H660 0.949 . S
H637 C641 0.963 . S
C638 C639 1.349 . S
C638 C640 1.327 . S
C638 H661 0.950 . S
C639 C638 1.349 . S
C639 C651 1.349 1_455 S
C640 C638 1.327 . S
C640 C656 1.429 . S
C640 H662 0.950 . S
C641 H637 0.963 . S
C641 C649 1.574 . S
C641 C657 1.353 1_655 S
H642 C650 0.950 . S
H643 C648 0.950 . S
H644 C649 0.955 . S
H645 C651 0.950 . S
H646 C652 0.950 . S
H647 C653 0.949 . S
C648 H643 0.950 . S
C648 C650 1.327 . S
C648 C654 1.429 . S
C649 C641 1.574 . S
C649 H644 0.955 . S
C649 C655 1.362 1_655 S
C650 C634 1.349 . S
C650 H642 0.950 . S
C650 C648 1.327 . S
C651 C639 1.349 1_655 S
C651 H645 0.950 . S
C651 C652 1.327 . S
C652 H646 0.950 . S
C652 C651 1.327 . S
C652 C656 1.429 1_655 S
C653 C636 1.574 . S
C653 H647 0.949 . S
C653 C657 1.368 . S
C654 C635 1.437 . S
C654 C648 1.429 . S
C654 C655 1.523 . S
C655 C636 1.368 . S
C655 C649 1.362 1_455 S
C655 C654 1.523 . S
C656 C640 1.429 . S
C656 C652 1.429 1_455 S
C656 C657 1.523 . S
C657 C641 1.353 1_455 S
C657 C653 1.368 . S
C657 C656 1.523 . S
H658 C633 0.950 1_655 S
H659 C635 0.941 1_655 S
H660 C636 0.949 . S
H661 C638 0.950 . S
H662 C640 0.950 . S
C124 C20 1.132 . S
C129 C118 1.158 . S
C154 C41 1.187 . S
C159 C100 1.182 . S
C184 C64 1.187 . S
C189 C112 1.184 . S
C214 C19 1.152 . S
C219 C121 1.181 . S
C249 C103 1.163 . S
C244 C44 1.163 . S
C279 C109 1.173 . S
C274 C67 1.170 . S
C304 C43 1.130 . S
C309 C82 1.157 . S
C334 C66 1.131 . S
C339 C91 1.157 . S
C364 C21 1.182 . S
C369 C73 1.182 . S
C399 C85 1.174 . S
C394 C42 1.147 . S
C429 C94 1.183 . S
C424 C65 1.153 . S
C454 C18 1.169 . S
C459 C76 1.164 . S
C489 C92 1.461 . S
C484 C17 1.460 . S
C514 C39 1.457 . S
C519 C74 1.458 . S
C544 C62 1.474 . S
C549 C83 1.475 . S
C579 C110 1.443 1_545 S
C574 C40 1.442 . S
C609 C119 1.460 . S
C604 C63 1.460 . S
C634 C16 1.457 . S
C639 C101 1.457 . S
