# Generated by pormake.
# Topology zzz, (3,6)-cn, num edge types: 1
# Building blocks:
#     Node 0, Type 0, BuildingBlock: MIDCAF_clean_linker_0, # of connection points: 3
#     Node 1, Type 0, BuildingBlock: MIDCAF_clean_linker_0, # of connection points: 3
#     Node 2, Type 0, BuildingBlock: MIDCAF_clean_linker_0, # of connection points: 3
#     Node 3, Type 0, BuildingBlock: MIDCAF_clean_linker_0, # of connection points: 3
#     Node 4, Type 0, BuildingBlock: MIDCAF_clean_linker_0, # of connection points: 3
#     Node 5, Type 0, BuildingBlock: MIDCAF_clean_linker_0, # of connection points: 3
#     Node 6, Type 0, BuildingBlock: MIDCAF_clean_linker_0, # of connection points: 3
#     Node 7, Type 0, BuildingBlock: MIDCAF_clean_linker_0, # of connection points: 3
#     Node 8, Type 1, BuildingBlock: HISSIN_clean_sbu_0, # of connection points: 6
#     Node 9, Type 1, BuildingBlock: HISSIN_clean_sbu_0, # of connection points: 6
#     Node 10, Type 1, BuildingBlock: HISSIN_clean_sbu_0, # of connection points: 6
#     Node 11, Type 1, BuildingBlock: HISSIN_clean_sbu_0, # of connection points: 6
#     Edge 12, Type (0, 1), BuildingBlock: XUDNAN_clean_linker_2, # of connection points: 2
#     Edge 13, Type (0, 1), BuildingBlock: XUDNAN_clean_linker_2, # of connection points: 2
#     Edge 14, Type (0, 1), BuildingBlock: XUDNAN_clean_linker_2, # of connection points: 2
#     Edge 15, Type (0, 1), BuildingBlock: XUDNAN_clean_linker_2, # of connection points: 2
#     Edge 16, Type (0, 1), BuildingBlock: XUDNAN_clean_linker_2, # of connection points: 2
#     Edge 17, Type (0, 1), BuildingBlock: XUDNAN_clean_linker_2, # of connection points: 2
#     Edge 18, Type (0, 1), BuildingBlock: XUDNAN_clean_linker_2, # of connection points: 2
#     Edge 19, Type (0, 1), BuildingBlock: XUDNAN_clean_linker_2, # of connection points: 2
#     Edge 20, Type (0, 1), BuildingBlock: XUDNAN_clean_linker_2, # of connection points: 2
#     Edge 21, Type (0, 1), BuildingBlock: XUDNAN_clean_linker_2, # of connection points: 2
#     Edge 22, Type (0, 1), BuildingBlock: XUDNAN_clean_linker_2, # of connection points: 2
#     Edge 23, Type (0, 1), BuildingBlock: XUDNAN_clean_linker_2, # of connection points: 2
#     Edge 24, Type (0, 1), BuildingBlock: XUDNAN_clean_linker_2, # of connection points: 2
#     Edge 25, Type (0, 1), BuildingBlock: XUDNAN_clean_linker_2, # of connection points: 2
#     Edge 26, Type (0, 1), BuildingBlock: XUDNAN_clean_linker_2, # of connection points: 2
#     Edge 27, Type (0, 1), BuildingBlock: XUDNAN_clean_linker_2, # of connection points: 2
#     Edge 28, Type (0, 1), BuildingBlock: XUDNAN_clean_linker_2, # of connection points: 2
#     Edge 29, Type (0, 1), BuildingBlock: XUDNAN_clean_linker_2, # of connection points: 2
#     Edge 30, Type (0, 1), BuildingBlock: XUDNAN_clean_linker_2, # of connection points: 2
#     Edge 31, Type (0, 1), BuildingBlock: XUDNAN_clean_linker_2, # of connection points: 2
#     Edge 32, Type (0, 1), BuildingBlock: XUDNAN_clean_linker_2, # of connection points: 2
#     Edge 33, Type (0, 1), BuildingBlock: XUDNAN_clean_linker_2, # of connection points: 2
#     Edge 34, Type (0, 1), BuildingBlock: XUDNAN_clean_linker_2, # of connection points: 2
#     Edge 35, Type (0, 1), BuildingBlock: XUDNAN_clean_linker_2, # of connection points: 2
# Relax obj value: 0.396
# Max RMSD: 0.224
# Mean RMSD: 0.192
data_MOF--net-zzz--node1-HISSIN_clean_sbu_0--node2-MIDCAF_clean_linker_0--edge1-XUDNAN_clean_linker_2
_symmetry_space_group_name_H-M    P1
_symmetry_Int_Tables_number       1
_symmetry_cell_setting            triclinic
loop_
_symmetry_equiv_pos_as_xyz
'x, y, z'
_cell_length_a     55.879758
_cell_length_b     56.093577
_cell_length_c     21.478682
_cell_angle_alpha  89.726284
_cell_angle_beta   91.617155
_cell_angle_gamma 91.922891
loop_
_atom_site_label
_atom_site_type_symbol
_atom_site_fract_x
_atom_site_fract_y
_atom_site_fract_z
_atom_type_partial_charge
C0 C 0.79643 0.57421 0.4314 0.0
C1 C 0.80484 0.55108 0.44153 0.0
C2 C 0.79418 0.53224 0.40597 0.0
C3 C 0.77685 0.53676 0.35887 0.0
H4 H 0.70196 0.52488 0.22781 0.0
H5 H 0.66664 0.5103 0.16689 0.0
H6 H 0.66771 0.57582 0.06029 0.0
H7 H 0.70221 0.59035 0.12139 0.0
H8 H 0.76018 0.59348 0.06341 0.0
H9 H 0.79236 0.59672 0.98948 0.0
H10 H 0.84402 0.60439 0.14226 0.0
H11 H 0.81206 0.60209 0.21555 0.0
H12 H 0.77464 0.59695 0.37509 0.0
H13 H 0.80429 0.58936 0.4565 0.0
H14 H 0.79991 0.51414 0.41275 0.0
H15 H 0.77038 0.52227 0.32906 0.0
N16 N 0.73698 0.55923 0.2641 0.0
N17 N 0.74376 0.57945 0.1694 0.0
N18 N 0.77353 0.58007 0.2475 0.0
C19 C 0.72895 0.5662 0.20609 0.0
C20 C 0.76607 0.58638 0.18953 0.0
C21 C 0.75934 0.56671 0.28509 0.0
C22 C 0.70507 0.55867 0.17914 0.0
C23 C 0.69419 0.53636 0.1925 0.0
C24 C 0.6741 0.52794 0.15708 0.0
C25 C 0.66437 0.54176 0.108 0.0
C26 C 0.67441 0.56469 0.09778 0.0
C27 C 0.69443 0.57297 0.13269 0.0
C28 C 0.78366 0.59647 0.14551 0.0
C29 C 0.77831 0.59678 0.08115 0.0
C30 C 0.79678 0.59855 0.03869 0.0
C31 C 0.82082 0.59991 0.05998 0.0
C32 C 0.82577 0.60317 0.12396 0.0
C33 C 0.80735 0.60158 0.1663 0.0
C34 C 0.76982 0.56017 0.34657 0.0
C35 C 0.77924 0.57864 0.38466 0.0
C36 C 0.98405 0.79537 0.4163 0.0
C37 C 0.99829 0.81579 0.40182 0.0
C38 C 1.00838 0.8171 0.3425 0.0
C39 C 1.00326 0.79925 0.29794 0.0
H40 H 0.99464 0.69701 0.2248 0.0
H41 H 1.00358 0.66102 0.1657 0.0
H42 H 0.97935 0.69524 0.99594 0.0
H43 H 0.97079 0.73071 0.05404 0.0
H44 H 0.92575 0.76142 0.06238 0.0
H45 H 0.91396 0.79309 0.99137 0.0
H46 H 0.91644 0.84288 0.14435 0.0
H47 H 0.92734 0.81132 0.21536 0.0
H48 H 0.96614 0.76326 0.38235 0.0
H49 H 0.97573 0.79378 0.46112 0.0
H50 H 0.01962 0.83235 0.32972 0.0
H51 H 1.00991 0.8017 0.25136 0.0
N52 N 0.98412 0.74667 0.23211 0.0
N53 N 0.95414 0.74922 0.15317 0.0
N54 N 0.95668 0.77765 0.23198 0.0
C55 C 0.97304 0.7377 0.17891 0.0
C56 C 0.94573 0.76906 0.1794 0.0
C57 C 0.9756 0.76675 0.25891 0.0
C58 C 0.98183 0.71674 0.14446 0.0
C59 C 0.99168 0.69692 0.17476 0.0
C60 C 0.99658 0.67623 0.14084 0.0
C61 C 0.99211 0.67507 0.07578 0.0
C62 C 0.9833 0.69537 0.04559 0.0
C63 C 0.97819 0.71576 0.07929 0.0
C64 C 0.92893 0.78422 0.14384 0.0
C65 C 0.9227 0.77886 0.08145 0.0
C66 C 0.91585 0.79702 0.04064 0.0
C67 C 0.91552 0.82071 0.06166 0.0
C68 C 0.91701 0.82495 0.12613 0.0
C69 C 0.92361 0.80678 0.16701 0.0
C70 C 0.98796 0.77959 0.31139 0.0
C71 C 0.97876 0.77765 0.37144 0.0
C72 C 0.69939 0.98526 0.29626 0.0
C73 C 0.70749 0.99143 0.35672 0.0
C74 C 0.73252 0.99235 0.36921 0.0
C75 C 0.74878 0.98598 0.32327 0.0
H76 H 0.82832 0.99124 0.20242 0.0
H77 H 0.86562 1.0027 0.14973 0.0
H78 H 0.83543 0.97411 0.97717 0.0
H79 H 0.79874 0.96392 0.0281 0.0
H80 H 0.77278 0.91184 0.04127 0.0
H81 H 0.74856 0.90269 0.94809 0.0
H82 H 0.68481 0.91839 0.04796 0.0
H83 H 0.70865 0.92596 0.14063 0.0
H84 H 0.70822 0.97364 0.20554 0.0
H85 H 0.68047 0.98502 0.28386 0.0
H86 H 0.73951 0.99707 0.4152 0.0
H87 H 0.76773 0.98567 0.33512 0.0
N88 N 0.77736 0.97644 0.1988 0.0
N89 N 0.77793 0.94667 0.12184 0.0
N90 N 0.74564 0.94783 0.18732 0.0
C91 C 0.7886 0.96599 0.15017 0.0
C92 C 0.75661 0.9374 0.13981 0.0
C93 C 0.75565 0.96703 0.21764 0.0
C94 C 0.8105 0.97638 0.12004 0.0
C95 C 0.8296 0.98793 0.15302 0.0
C96 C 0.85109 0.99423 0.12272 0.0
C97 C 0.85388 0.98927 0.05871 0.0
C98 C 0.83425 0.97866 0.02587 0.0
C99 C 0.81306 0.97248 0.05575 0.0
C100 C 0.74272 0.92118 0.09706 0.0
C101 C 0.75346 0.9122 0.04397 0.0
C102 C 0.73954 0.90707 0.99031 0.0
C103 C 0.71489 0.91154 0.98877 0.0
C104 C 0.7038 0.91542 0.04586 0.0
C105 C 0.71764 0.92003 0.09973 0.0
C106 C 0.74031 0.9786 0.26394 0.0
C107 C 0.71546 0.97896 0.25092 0.0
C108 C 0.43139 0.71891 0.10052 0.0
C109 C 0.42773 0.72635 0.03852 0.0
C110 C 0.4395 0.74733 0.01798 0.0
C111 C 0.45619 0.75944 0.05689 0.0
H112 H 0.53159 0.82986 0.20887 0.0
H113 H 0.54313 0.86554 0.14845 0.0
H114 H 0.54297 0.82297 0.98138 0.0
H115 H 0.53097 0.78786 0.04131 0.0
H116 H 0.48011 0.74687 0.33327 0.0
H117 H 0.48599 0.71804 0.41637 0.0
H118 H 0.5586 0.70881 0.3593 0.0
H119 H 0.5524 0.73801 0.27469 0.0
H120 H 0.45147 0.72395 0.1858 0.0
H121 H 0.42275 0.70269 0.11761 0.0
H122 H 0.4368 0.7536 0.97059 0.0
H123 H 0.46586 0.77483 0.03836 0.0
N124 N 0.49634 0.77838 0.12972 0.0
N125 N 0.52351 0.77604 0.21529 0.0
N126 N 0.48913 0.75055 0.20844 0.0
C127 C 0.51666 0.78639 0.15996 0.0
C128 C 0.50951 0.75793 0.23958 0.0
C129 C 0.4824 0.76062 0.15359 0.0
C130 C 0.53049 0.80608 0.12984 0.0
C131 C 0.53488 0.82808 0.15968 0.0
C132 C 0.54132 0.84854 0.12483 0.0
C133 C 0.54346 0.8473 0.05957 0.0
C134 C 0.54086 0.82482 0.03108 0.0
C135 C 0.53433 0.80458 0.06562 0.0
C136 C 0.51588 0.74498 0.29792 0.0
C137 C 0.49758 0.73922 0.33947 0.0
C138 C 0.50099 0.72261 0.38726 0.0
C139 C 0.52279 0.71095 0.39488 0.0
C140 C 0.54152 0.71731 0.35463 0.0
C141 C 0.53814 0.73431 0.30682 0.0
C142 C 0.4615 0.75073 0.11709 0.0
C143 C 0.44811 0.73099 0.13944 0.0
C144 C 0.20947 0.49708 0.99116 0.0
C145 C 0.21243 0.49055 0.92883 0.0
C146 C 0.23355 0.47909 0.9134 0.0
C147 C 0.25033 0.47266 0.96017 0.0
H148 H 0.31996 0.49927 0.1257 0.0
H149 H 0.35731 0.5106 0.1825 0.0
H150 H 0.3546 0.44323 0.28063 0.0
H151 H 0.31757 0.43214 0.22509 0.0
H152 H 0.26029 0.4295 0.28398 0.0
H153 H 0.228 0.42463 0.35723 0.0
H154 H 0.17693 0.41566 0.20386 0.0
H155 H 0.20906 0.4202 0.13071 0.0
H156 H 0.22246 0.49462 0.08559 0.0
H157 H 0.19371 0.50631 1.00462 0.0
H158 H 0.23636 0.47375 0.86585 0.0
H159 H 0.26542 0.46219 0.94788 0.0
N160 N 0.28182 0.46999 0.09291 0.0
N161 N 0.27685 0.4436 0.17764 0.0
N162 N 0.24498 0.44952 0.10761 0.0
C163 C 0.29111 0.45893 0.14485 0.0
C164 C 0.25385 0.43869 0.15924 0.0
C165 C 0.25864 0.4649 0.07393 0.0
C166 C 0.31556 0.4649 0.1711 0.0
C167 C 0.32757 0.48677 0.15868 0.0
C168 C 0.34896 0.49327 0.19143 0.0
C169 C 0.35878 0.47802 0.23719 0.0
C170 C 0.34729 0.45574 0.24718 0.0
C171 C 0.32606 0.4493 0.21476 0.0
C172 C 0.23704 0.42628 0.20151 0.0
C173 C 0.24235 0.42536 0.26583 0.0
C174 C 0.22385 0.42255 0.30793 0.0
C175 C 0.19991 0.42056 0.28616 0.0
C176 C 0.19518 0.41737 0.22214 0.0
C177 C 0.21363 0.42024 0.18007 0.0
C178 C 0.24633 0.47782 0.02286 0.0
C179 C 0.22614 0.49073 0.03747 0.0
C180 C 0.0311 0.21849 0.97971 0.0
C181 C 0.04458 0.21862 0.92528 0.0
C182 C 0.05865 0.23929 0.91206 0.0
C183 C 0.06127 0.25801 0.95518 0.0
H184 H 0.02647 0.3274 0.12119 0.0
H185 H 0.01522 0.36258 0.18029 0.0
H186 H 0.07667 0.3542 0.30377 0.0
H187 H 0.08764 0.31961 0.2465 0.0
H188 H 0.09292 0.25989 0.27354 0.0
H189 H 0.10335 0.2241 0.32718 0.0
H190 H 0.13464 0.19766 0.1595 0.0
H191 H 0.12175 0.2332 0.10427 0.0
H192 H 0.02519 0.23536 0.06729 0.0
H193 H 0.02019 0.20293 0.99188 0.0
H194 H 0.06897 0.24031 0.87016 0.0
H195 H 0.07423 0.27236 0.94645 0.0
N196 N 0.05386 0.28944 0.09282 0.0
N197 N 0.08284 0.28534 0.17368 0.0
N198 N 0.07946 0.25687 0.09511 0.0
C199 C 0.06506 0.29806 0.14641 0.0
C200 C 0.09026 0.26497 0.14821 0.0
C201 C 0.06142 0.26873 0.067 0.0
C202 C 0.0579 0.32031 0.17879 0.0
C203 C 0.03757 0.33312 0.16084 0.0
C204 C 0.03115 0.35334 0.1948 0.0
C205 C 0.04484 0.36117 0.24765 0.0
C206 C 0.06528 0.34853 0.26459 0.0
C207 C 0.07168 0.32858 0.23095 0.0
C208 C 0.10566 0.24884 0.18427 0.0
C209 C 0.10275 0.24681 0.24861 0.0
C210 C 0.10898 0.22596 0.27965 0.0
C211 C 0.11883 0.20693 0.24717 0.0
C212 C 0.12579 0.21114 0.1854 0.0
C213 C 0.11873 0.23168 0.15376 0.0
C214 C 0.04969 0.25675 1.01231 0.0
C215 C 0.03373 0.23728 0.02278 0.0
C216 C 0.32533 0.01921 1.00914 0.0
C217 C 0.32334 0.02769 0.94745 0.0
C218 C 0.3026 0.04005 0.92991 0.0
C219 C 0.28523 0.04511 0.97372 0.0
H220 H 0.20229 0.03657 0.12017 0.0
H221 H 0.16603 0.0297 0.18114 0.0
H222 H 0.20763 0.04232 0.35085 0.0
H223 H 0.24342 0.04924 0.29035 0.0
H224 H 0.28019 0.09346 0.28264 0.0
H225 H 0.31589 0.10808 0.33844 0.0
H226 H 0.34941 0.12468 0.16406 0.0
H227 H 0.31372 0.10944 0.10781 0.0
H228 H 0.31083 0.01875 0.10074 0.0
H229 H 0.34083 0.00942 0.02441 0.0
H230 H 0.30046 0.04712 0.88316 0.0
H231 H 0.27059 0.05636 0.95997 0.0
N232 N 0.25523 0.04109 0.1138 0.0
N233 N 0.25912 0.07202 0.18784 0.0
N234 N 0.28682 0.06985 0.10901 0.0
C235 C 0.24691 0.05243 0.16509 0.0
C236 C 0.27885 0.08103 0.15966 0.0
C237 C 0.27538 0.05007 0.08562 0.0
C238 C 0.22576 0.04344 0.2003 0.0
C239 C 0.20373 0.03725 0.17052 0.0
C240 C 0.18292 0.03357 0.20554 0.0
C241 C 0.18379 0.03559 0.27116 0.0
C242 C 0.20617 0.0404 0.30072 0.0
C243 C 0.22674 0.04446 0.26586 0.0
C244 C 0.29467 0.09919 0.19091 0.0
C245 C 0.29467 0.10128 0.25603 0.0
C246 C 0.31521 0.10989 0.2882 0.0
C247 C 0.33585 0.1166 0.25548 0.0
C248 C 0.33398 0.11896 0.19039 0.0
C249 C 0.31356 0.11011 0.1582 0.0
C250 C 0.28783 0.03752 0.03588 0.0
C251 C 0.30784 0.02408 0.05266 0.0
C252 C 0.62 0.30908 0.21386 0.0
C253 C 0.62718 0.30051 0.27292 0.0
C254 C 0.61755 0.27843 0.29329 0.0
C255 C 0.59966 0.2663 0.25791 0.0
H256 H 0.52291 0.24009 0.29071 0.0
H257 H 0.50876 0.20652 0.35335 0.0
H258 H 0.50543 0.16211 0.18906 0.0
H259 H 0.51838 0.19641 0.12609 0.0
H260 H 0.49797 0.28703 0.05611 0.0
H261 H 0.49012 0.31486 0.96947 0.0
H262 H 0.56015 0.30221 0.89894 0.0
H263 H 0.56787 0.27487 0.98499 0.0
H264 H 0.59643 0.30474 0.13459 0.0
H265 H 0.62672 0.32614 0.19672 0.0
H266 H 0.62298 0.27108 0.33801 0.0
H267 H 0.59179 0.24995 0.27644 0.0
N268 N 0.55595 0.24835 0.19681 0.0
N269 N 0.52736 0.24922 0.11407 0.0
N270 N 0.56188 0.27449 0.11342 0.0
C271 C 0.53509 0.23993 0.16992 0.0
C272 C 0.54097 0.26665 0.0857 0.0
C273 C 0.56952 0.2655 0.16884 0.0
C274 C 0.52156 0.22091 0.20346 0.0
C275 C 0.51848 0.22328 0.26779 0.0
C276 C 0.51072 0.20385 0.3039 0.0
C277 C 0.50638 0.18121 0.27704 0.0
C278 C 0.50834 0.17918 0.2118 0.0
C279 C 0.51571 0.19886 0.17538 0.0
C280 C 0.53341 0.27854 0.02682 0.0
C281 C 0.51129 0.28967 0.02083 0.0
C282 C 0.50697 0.30585 0.97175 0.0
C283 C 0.52454 0.31088 0.92722 0.0
C284 C 0.54609 0.29865 0.93173 0.0
C285 C 0.55052 0.28291 0.98107 0.0
C286 C 0.59118 0.27591 0.20116 0.0
C287 C 0.60231 0.29688 0.17831 0.0
Eu288 Eu 1.00233 0.02461 0.63227 0.0
Eu289 Eu 0.04413 1.00438 0.7218 0.0
C290 C 0.03467 0.0599 0.72156 0.0
C291 C 0.9852 0.06652 0.51687 0.0
C292 C 1.00338 0.08064 0.5462 0.0
C293 C 0.99841 0.08137 0.41674 0.0
C294 C 0.01986 0.09361 0.51133 0.0
C295 C 0.98224 0.06767 0.45195 0.0
C296 C 0.01823 0.09351 0.44587 0.0
C297 C 0.97526 0.04608 0.55187 0.0
O298 O 0.01166 0.0087 0.78163 0.0
O299 O 0.98081 1.00737 0.70911 0.0
C300 C 0.98862 1.00619 0.76737 0.0
O301 O 1.00697 0.98658 0.59951 0.0
O302 O 0.06286 1.00446 0.81246 0.0
O303 O 0.0727 0.9796 0.74183 0.0
O304 O 0.02186 0.97196 0.69116 0.0
C305 C 0.01266 0.96839 0.635 0.0
O306 O 0.03747 0.03631 0.58935 0.0
O307 O 0.06165 1.00752 0.62804 0.0
O308 O 0.05159 0.04422 0.7205 0.0
O309 O 0.98536 0.02612 0.53951 0.0
O310 O 0.97347 0.0492 0.61176 0.0
O311 O 0.01284 0.0541 0.70135 0.0
C312 C 0.0639 0.96404 0.84135 0.0
C313 C 0.05699 0.94209 0.81366 0.0
C314 C 0.03897 0.95376 0.92913 0.0
C315 C 0.03984 0.92713 0.84099 0.0
C316 C 0.05604 0.96886 0.90147 0.0
C317 C 0.02958 0.93353 0.89726 0.0
C318 C 0.0724 0.98401 0.80148 0.0
C319 C 0.05688 0.02384 0.58587 0.0
H320 H 1.00644 0.07988 0.59616 0.0
H321 H 0.99592 0.08147 0.36661 0.0
H322 H 0.03484 0.10215 0.53634 0.0
H323 H 0.96855 0.05669 0.42825 0.0
H324 H 0.06285 0.93755 0.76768 0.0
H325 H 0.03208 0.95874 0.97369 0.0
H326 H 0.03322 0.91165 0.81508 0.0
H327 H 0.06124 0.98548 0.9244 0.0
Eu328 Eu 0.53001 0.03436 0.71525 0.0
Eu329 Eu 0.50955 0.99284 0.62082 0.0
C330 C 0.53339 0.97888 0.7527 0.0
C331 C 0.57728 0.05853 0.81484 0.0
C332 C 0.58114 0.04671 0.87188 0.0
C333 C 0.61546 0.04477 0.78 0.0
C334 C 0.60102 0.03251 0.88072 0.0
C335 C 0.59568 0.05906 0.77134 0.0
C336 C 0.61742 0.03005 0.83283 0.0
C337 C 0.5524 0.06279 0.79322 0.0
O338 O 0.4769 0.01068 0.65706 0.0
O339 O 0.49254 0.02565 0.74873 0.0
C340 C 0.47396 0.01877 0.7136 0.0
O341 O 0.51057 0.05562 0.64117 0.0
O342 O 0.48376 0.96373 0.59849 0.0
O343 O 0.50979 0.97484 0.53096 0.0
O344 O 0.50944 0.02704 0.56483 0.0
C345 C 0.50723 0.04922 0.5827 0.0
O346 O 0.55934 0.02901 0.64627 0.0
O347 O 0.5498 0.99131 0.61112 0.0
O348 O 0.51617 0.97352 0.71184 0.0
O349 O 0.54945 0.06814 0.73431 0.0
O350 O 0.53665 0.04657 0.81074 0.0
O351 O 0.54484 0.99968 0.75096 0.0
C352 C 0.4695 0.97289 0.49667 0.0
C353 C 0.47557 0.98233 0.43815 0.0
C354 C 0.43339 0.99585 0.49295 0.0
C355 C 0.46169 0.99986 0.41002 0.0
C356 C 0.4472 0.97832 0.52095 0.0
C357 C 0.44143 1.00795 0.43973 0.0
C358 C 0.48879 0.96464 0.53946 0.0
C359 C 0.56504 0.00962 0.6166 0.0
H360 H 0.56749 0.04626 0.90675 0.0
H361 H 0.62795 0.04365 0.74258 0.0
H362 H 0.60258 0.02214 0.92323 0.0
H363 H 0.5936 0.06835 0.7273 0.0
H364 H 0.49247 0.97828 0.41777 0.0
H365 H 0.41732 1.00114 0.51554 0.0
H366 H 0.46815 0.00866 0.36844 0.0
H367 H 0.44161 0.97103 0.56523 0.0
Eu368 Eu 0.49742 0.51453 0.69844 0.0
Eu369 Eu 0.54241 0.50393 0.60915 0.0
C370 C 0.55062 0.51285 0.75569 0.0
C371 C 0.4455 0.54336 0.77756 0.0
C372 C 0.44465 0.56249 0.73534 0.0
C373 C 0.42068 0.56473 0.84761 0.0
C374 C 0.43211 0.5828 0.74961 0.0
C375 C 0.43309 0.54439 0.83309 0.0
C376 C 0.42046 0.58438 0.80663 0.0
C377 C 0.46034 0.52288 0.76596 0.0
O378 O 0.52656 0.4674 0.63495 0.0
O379 O 0.50792 0.4773 0.72459 0.0
C380 C 0.51692 0.4613 0.68834 0.0
O381 O 0.48217 0.49861 0.6081 0.0
O382 O 0.58089 0.50619 0.5922 0.0
O383 O 0.55621 0.48968 0.52406 0.0
O384 O 0.51144 0.51243 0.54463 0.0
C385 C 0.48935 0.50474 0.5524 0.0
O386 O 0.50383 0.54948 0.64807 0.0
O387 O 0.54167 0.54431 0.61124 0.0
O388 O 0.55569 0.49946 0.70833 0.0
O389 O 0.45878 0.51399 0.71009 0.0
O390 O 0.4824 0.52473 0.78688 0.0
O391 O 0.53111 0.52529 0.7546 0.0
C392 C 0.59445 0.47333 0.53577 0.0
C393 C 0.58499 0.44986 0.5352 0.0
C394 C 0.63391 0.45831 0.5171 0.0
C395 C 0.59963 0.43089 0.52326 0.0
C396 C 0.61909 0.4774 0.5281 0.0
C397 C 0.62424 0.43484 0.51284 0.0
C398 C 0.57859 0.49361 0.54128 0.0
C399 C 0.52339 0.55784 0.62171 0.0
H400 H 0.45418 0.56198 0.69215 0.0
H401 H 0.41233 0.56547 0.89241 0.0
H402 H 0.43212 0.59753 0.71683 0.0
H403 H 0.43368 0.52977 0.86623 0.0
H404 H 0.56606 0.44618 0.54166 0.0
H405 H 0.6528 0.46204 0.51034 0.0
H406 H 0.59123 0.41328 0.51914 0.0
H407 H 0.62677 0.49539 0.52906 0.0
Eu408 Eu 0.02097 0.54025 0.61775 0.0
Eu409 Eu 1.00335 0.49492 0.69953 0.0
C410 C 0.05934 0.50952 0.69556 0.0
C411 C 0.05667 0.56389 0.49475 0.0
C412 C 0.0806 0.56168 0.51551 0.0
C413 C 0.06376 0.53635 0.41062 0.0
C414 C 0.09518 0.54538 0.48753 0.0
C415 C 0.04908 0.55253 0.43899 0.0
C416 C 0.08635 0.53144 0.43715 0.0
C417 C 0.0386 0.57084 0.53987 0.0
O418 O 0.99458 0.5274 0.7565 0.0
O419 O 0.01971 0.55593 0.7143 0.0
C420 C 1.00587 0.5484 0.75931 0.0
O421 O 0.98162 0.54573 0.63066 0.0
O422 O 1.0035 0.47444 0.7861 0.0
O423 O 0.98006 0.46309 0.7096 0.0
O424 O 0.97178 0.50608 0.63835 0.0
C425 C 0.96562 0.52812 0.62759 0.0
O426 O 0.01357 0.50909 0.55208 0.0
O427 O 0.02095 0.47804 0.61778 0.0
O428 O 0.04197 0.5012 0.73015 0.0
O429 O 0.01732 0.56078 0.53151 0.0
O430 O 0.04561 0.57022 0.59841 0.0
O431 O 0.05467 0.52062 0.64288 0.0
C432 C 0.96342 0.46614 0.80936 0.0
C433 C 0.94144 0.47266 0.7817 0.0
C434 C 0.95163 0.48368 0.90653 0.0
C435 C 0.92556 0.48603 0.81492 0.0
C436 C 0.96748 0.47019 0.87337 0.0
C437 C 0.93134 0.49299 0.87635 0.0
C438 C 0.98411 0.4622 0.76973 0.0
C439 C 0.01902 0.48669 0.561 0.0
H440 H 0.08723 0.57043 0.55772 0.0
H441 H 0.05677 0.52659 0.37031 0.0
H442 H 0.11255 0.54229 0.50911 0.0
H443 H 0.03091 0.55418 0.4209 0.0
H444 H 0.93754 0.46966 0.73262 0.0
H445 H 0.95617 0.4883 0.95444 0.0
H446 H 0.90997 0.49281 0.79049 0.0
H447 H 0.98415 0.46519 0.89607 0.0
H448 H 0.17601 0.01344 0.38514 0.0
H449 H 0.14104 0.05636 0.24314 0.0
H450 H 0.10529 0.05808 0.30787 0.0
H451 H 0.1224 0.97913 0.42944 0.0
H452 H 0.13101 0.97835 0.51091 0.0
H453 H 0.15365 0.98007 0.45283 0.0
H454 H 0.17217 0.01811 0.50533 0.0
H455 H 0.14949 0.0166 0.56331 0.0
H456 H 0.15364 0.0433 0.51728 0.0
H457 H 0.0739 0.05672 0.39039 0.0
H458 H 0.04813 0.05022 0.4806 0.0
H459 H 0.10265 1.00725 0.56938 0.0
C460 C 0.16078 0.02309 0.36746 0.0
C461 C 0.16143 0.03468 0.30854 0.0
C462 C 0.14097 0.047 0.28736 0.0
C463 C 0.1206 0.04824 0.32413 0.0
C464 C 0.12069 0.03686 0.38207 0.0
C465 C 0.14013 0.02428 0.40337 0.0
C466 C 0.13551 0.01353 0.46731 0.0
C467 C 0.13565 0.98614 0.46496 0.0
C468 C 0.15379 0.02348 0.51619 0.0
C469 C 0.11052 0.0222 0.47892 0.0
C470 C 0.1024 0.03575 0.42922 0.0
C471 C 0.08006 0.04608 0.4294 0.0
C472 C 0.06556 0.04234 0.48122 0.0
C473 C 0.07322 0.02823 0.5326 0.0
C474 C 0.09613 0.01807 0.53106 0.0
H475 H 0.5236 0.17209 0.39677 0.0
H476 H 0.47772 0.14118 0.24945 0.0
H477 H 0.47149 0.10505 0.31375 0.0
H478 H 0.55153 0.1198 0.44462 0.0
H479 H 0.55201 0.12661 0.52658 0.0
H480 H 0.55223 0.1504 0.47007 0.0
H481 H 0.51446 0.16749 0.51824 0.0
H482 H 0.51417 0.14376 0.57513 0.0
H483 H 0.48801 0.14854 0.5262 0.0
H484 H 0.47281 0.07085 0.39085 0.0
H485 H 0.48027 0.04228 0.47668 0.0
H486 H 0.52223 0.09657 0.57753 0.0
C487 C 0.51174 0.15807 0.37817 0.0
C488 C 0.50121 0.15977 0.31739 0.0
C489 C 0.48638 0.14043 0.29509 0.0
C490 C 0.48252 0.11983 0.33158 0.0
C491 C 0.49332 0.11879 0.39083 0.0
C492 C 0.50742 0.13752 0.41426 0.0
C493 C 0.51735 0.13177 0.47897 0.0
C494 C 0.54491 0.13216 0.48009 0.0
C495 C 0.50793 0.14891 0.52751 0.0
C496 C 0.50704 0.10666 0.48789 0.0
C497 C 0.49326 0.09949 0.43636 0.0
C498 C 0.48323 0.07645 0.43177 0.0
C499 C 0.48756 0.06033 0.48071 0.0
C500 C 0.50145 0.06728 0.53417 0.0
C501 C 0.51105 0.0909 0.53797 0.0
H502 H 0.36743 0.47037 0.3626 0.0
H503 H 0.39969 0.50192 0.19883 0.0
H504 H 0.43618 0.51263 0.26181 0.0
H505 H 0.39189 0.51337 0.47377 0.0
H506 H 0.39651 0.49151 0.5343 0.0
H507 H 0.3728 0.48686 0.47664 0.0
H508 H 0.38992 0.44606 0.44852 0.0
H509 H 0.4137 0.45058 0.50603 0.0
H510 H 0.42071 0.44467 0.42629 0.0
H511 H 0.46977 0.51866 0.34229 0.0
H512 H 0.49731 0.52079 0.43395 0.0
H513 H 0.44317 0.48524 0.5458 0.0
C514 C 0.38219 0.47942 0.33973 0.0
C515 C 0.38062 0.48521 0.27541 0.0
C516 C 0.40028 0.49747 0.24794 0.0
C517 C 0.42116 0.5035 0.28333 0.0
C518 C 0.42214 0.49729 0.34634 0.0
C519 C 0.40312 0.48562 0.37436 0.0
C520 C 0.40873 0.48089 0.44282 0.0
C521 C 0.39145 0.49394 0.48432 0.0
C522 C 0.40824 0.45395 0.45671 0.0
C523 C 0.43397 0.4916 0.44898 0.0
C524 C 0.44136 0.50093 0.39274 0.0
C525 C 0.46411 0.51147 0.38654 0.0
C526 C 0.47967 0.51253 0.43904 0.0
C527 C 0.4725 0.50319 0.4974 0.0
C528 C 0.44925 0.49262 0.5021 0.0
H529 H 0.04784 0.36713 0.37558 0.0
H530 H 0.02755 0.40391 0.20485 0.0
H531 H 0.01911 0.43978 0.26597 0.0
H532 H 1.00368 0.39211 0.47269 0.0
H533 H 0.02343 0.39438 0.54038 0.0
H534 H 0.02765 0.37161 0.48323 0.0
H535 H 0.07153 0.38685 0.47051 0.0
H536 H 0.06743 0.40972 0.52746 0.0
H537 H 0.07757 0.41771 0.451 0.0
H538 H 0.01401 0.47228 0.34612 0.0
H539 H 1.01058 0.49788 0.43817 0.0
H540 H 0.03392 0.43996 0.55757 0.0
C541 C 0.04171 0.38274 0.35078 0.0
C542 C 0.03842 0.38254 0.28494 0.0
C543 C 0.02998 0.40335 0.25502 0.0
C544 C 0.02531 0.42393 0.28941 0.0
C545 C 0.02905 0.42354 0.35398 0.0
C546 C 0.03694 0.40341 0.3844 0.0
C547 C 0.03937 0.40755 0.45425 0.0
C548 C 0.02253 0.39039 0.48972 0.0
C549 C 0.06553 0.40533 0.47713 0.0
C550 C 0.03149 0.43313 0.45858 0.0
C551 C 0.02579 0.44207 0.4001 0.0
C552 C 0.0183 0.46536 0.39206 0.0
C553 C 0.01642 0.47981 0.44491 0.0
C554 C 0.02178 0.47101 0.50563 0.0
C555 C 0.02952 0.44729 0.51211 0.0
H556 H 0.86137 1.00218 0.93515 0.0
H557 H 0.89987 0.98545 0.10755 0.0
H558 H 0.93799 0.98869 0.05244 0.0
H559 H 0.89694 0.96744 0.83676 0.0
H560 H 0.89583 0.98804 0.77217 0.0
H561 H 0.87164 0.98629 0.82585 0.0
H562 H 0.87689 0.03158 0.84728 0.0
H563 H 0.90101 0.0335 0.79337 0.0
H564 H 0.90583 0.04375 0.87228 0.0
H565 H 0.97211 0.99243 0.97747 0.0
H566 H 0.99942 0.99638 0.8897 0.0
H567 H 0.93888 0.00886 0.76394 0.0
C568 C 0.87774 0.99915 0.96169 0.0
C569 C 0.87728 0.99357 0.02639 0.0
C570 C 0.89944 0.99018 0.05864 0.0
C571 C 0.92128 0.99177 0.02745 0.0
C572 C 0.92091 0.99674 0.96367 0.0
C573 C 0.8997 1.00045 0.93116 0.0
C574 C 0.90417 1.00484 0.86238 0.0
C575 C 0.89139 0.9855 0.82191 0.0
C576 C 0.89652 0.02991 0.84268 0.0
C577 C 0.93122 1.00286 0.86109 0.0
C578 C 0.9405 0.99833 0.92018 0.0
C579 C 0.965 0.99595 0.93108 0.0
C580 C 0.98041 0.99826 0.88064 0.0
C581 C 0.97147 1.00294 0.8194 0.0
C582 C 0.9464 1.00514 0.80983 0.0
H583 H 0.52149 0.8571 0.94656 0.0
H584 H 0.57192 0.88771 0.08377 0.0
H585 H 0.57588 0.92424 0.01903 0.0
H586 H 0.55091 0.88092 0.8099 0.0
H587 H 0.52306 0.88596 0.7683 0.0
H588 H 0.52482 0.86221 0.82484 0.0
H589 H 0.48953 0.87964 0.88357 0.0
H590 H 0.48769 0.90345 0.82731 0.0
H591 H 0.49155 0.91025 0.90898 0.0
H592 H 0.57302 0.95822 0.93956 0.0
H593 H 0.56441 0.98598 0.85288 0.0
H594 H 0.51606 0.93261 0.7677 0.0
C595 C 0.5337 0.87128 0.96279 0.0
C596 C 0.54654 0.86933 0.02038 0.0
C597 C 0.56178 0.88872 0.0402 0.0
C598 C 0.56422 0.90952 1.00352 0.0
C599 C 0.55123 0.91077 0.94712 0.0
C600 C 0.5363 0.8921 0.92691 0.0
C601 C 0.52391 0.89795 0.86524 0.0
C602 C 0.53111 0.88074 0.81405 0.0
C603 C 0.49655 0.89782 0.8717 0.0
C604 C 0.53402 0.92295 0.85386 0.0
C605 C 0.5498 0.93004 0.9015 0.0
C606 C 0.56093 0.95267 0.90177 0.0
C607 C 0.55591 0.96835 0.85213 0.0
C608 C 0.53965 0.96152 0.80294 0.0
C609 C 0.52869 0.93841 0.80414 0.0
H610 H 0.62613 0.56462 0.05143 0.0
H611 H 0.66062 0.49641 0.06099 0.0
H612 H 0.63328 0.48108 0.97742 0.0
H613 H 0.56481 0.54057 1.01465 0.0
H614 H 0.55814 0.56476 0.9621 0.0
H615 H 0.57869 0.56969 0.02733 0.0
H616 H 0.61108 0.58548 0.95223 0.0
H617 H 0.59072 0.58046 0.88681 0.0
H618 H 0.61958 0.56701 0.88858 0.0
H619 H 0.60573 0.47451 0.88506 0.0
H620 H 0.57776 0.47612 0.79452 0.0
H621 H 0.55995 0.54819 0.84397 0.0
C622 C 0.62775 0.54634 0.03659 0.0
C623 C 0.64558 0.53171 0.06346 0.0
C624 C 0.64693 0.50789 0.04243 0.0
C625 C 0.63155 0.49904 0.99448 0.0
C626 C 0.61469 0.51412 0.96805 0.0
C627 C 0.61245 0.53717 0.98878 0.0
C628 C 0.59347 0.54995 0.95039 0.0
C629 C 0.57253 0.55663 0.99105 0.0
C630 C 0.60437 0.57203 0.91756 0.0
C631 C 0.58582 0.53066 0.90384 0.0
C632 C 0.59833 0.51014 0.91509 0.0
C633 C 0.59559 0.49035 0.87637 0.0
C634 C 0.57973 0.4915 0.82477 0.0
C635 C 0.56656 0.51223 0.81222 0.0
C636 C 0.56949 0.53198 0.85286 0.0
H637 H 1.0097 0.66999 0.95725 0.0
H638 H 0.98041 0.62902 0.1109 0.0
H639 H 0.98146 0.59235 0.04787 0.0
H640 H 0.97692 0.63927 0.83601 0.0
H641 H 1.00103 0.64037 0.78196 0.0
H642 H 0.99926 0.6632 0.84014 0.0
H643 H 0.04222 0.65441 0.88024 0.0
H644 H 0.04418 0.63163 0.8219 0.0
H645 H 0.04934 0.62443 0.90294 0.0
H646 H 0.9836 0.56032 0.96552 0.0
H647 H 0.98819 0.53521 0.87258 0.0
H648 H 0.01661 0.59676 0.77231 0.0
C649 C 1.00362 0.6533 0.97791 0.0
C650 C 0.99502 0.65254 0.03953 0.0
C651 C 0.98743 0.63017 0.06448 0.0
C652 C 0.98779 0.60922 0.02874 0.0
C653 C 0.99598 0.61072 0.96799 0.0
C654 C 1.00398 0.63217 0.94296 0.0
C655 C 0.0116 0.62897 0.87617 0.0
C656 C 0.99628 0.64384 0.83091 0.0
C657 C 0.03843 0.63523 0.86997 0.0
C658 C 1.0064 0.60243 0.86723 0.0
C659 C 0.99735 0.59226 0.92075 0.0
C660 C 0.99068 0.5681 0.9234 0.0
C661 C 0.99331 0.55398 0.87019 0.0
C662 C 1.00277 0.56389 0.81482 0.0
C663 C 1.00944 0.58851 0.81379 0.0
H664 H 0.11754 0.19198 0.37024 0.0
H665 H 0.11258 0.16484 0.18082 0.0
H666 H 0.09361 0.12807 0.21847 0.0
H667 H 0.11584 0.13208 0.45824 0.0
H668 H 0.09587 0.14412 0.51359 0.0
H669 H 0.1185 0.16319 0.47891 0.0
H670 H 0.08554 0.19194 0.44222 0.0
H671 H 0.06285 0.17283 0.47525 0.0
H672 H 0.06085 0.18065 0.3938 0.0
H673 H 0.06586 0.09908 0.26948 0.0
H674 H 0.03345 0.08044 0.32963 0.0
H675 H 0.0486 0.13166 0.47818 0.0
C676 C 0.11305 0.17818 0.33654 0.0
C677 C 0.11625 0.18202 0.27213 0.0
C678 C 0.11077 0.16282 0.23055 0.0
C679 C 0.09968 0.14163 0.25151 0.0
C680 C 0.09397 0.13984 0.314 0.0
C681 C 0.1007 0.15755 0.35619 0.0
C682 C 0.08784 0.15417 0.41686 0.0
C683 C 0.10557 0.14802 0.47005 0.0
C684 C 0.07342 0.17619 0.43287 0.0
C685 C 0.07155 0.13294 0.40036 0.0
C686 C 0.0761 0.12425 0.34208 0.0
C687 C 0.06233 0.10558 0.31556 0.0
C688 C 0.04351 0.09546 0.34971 0.0
C689 C 0.03803 0.10453 0.40906 0.0
C690 C 0.05242 0.12361 0.4341 0.0
H691 H 0.37168 0.09132 0.21015 0.0
H692 H 0.3522 0.13152 0.3718 0.0
H693 H 0.38412 0.11232 0.43385 0.0
H694 H 0.37424 0.04061 0.27904 0.0
H695 H 0.3991 0.02832 0.23983 0.0
H696 H 0.38174 0.05073 0.20196 0.0
H697 H 0.41954 0.07763 0.18744 0.0
H698 H 0.43758 0.05516 0.22401 0.0
H699 H 0.43877 0.0852 0.2536 0.0
H700 H 0.40933 0.08156 0.48323 0.0
H701 H 0.42843 0.04423 0.51459 0.0
H702 H 0.43019 0.0229 0.32102 0.0
C703 C 0.37514 0.09736 0.25744 0.0
C704 C 0.35961 0.11313 0.286 0.0
C705 C 0.36404 0.11965 0.34892 0.0
C706 C 0.38214 0.10881 0.38444 0.0
C707 C 0.39573 0.0917 0.35608 0.0
C708 C 0.3928 0.0864 0.29346 0.0
C709 C 0.40623 0.06444 0.27645 0.0
C710 C 0.38931 0.0449 0.2477 0.0
C711 C 0.42676 0.071 0.23281 0.0
C712 C 0.41571 0.05716 0.34 0.0
C713 C 0.40999 0.07341 0.38507 0.0
C714 C 0.4144 0.06905 0.44815 0.0
C715 C 0.42484 0.04759 0.46556 0.0
C716 C 0.43054 0.03059 0.42012 0.0
C717 C 0.42629 0.03571 0.35657 0.0
H718 H 0.62022 0.30662 0.39678 0.0
H719 H 0.66481 0.33164 0.24641 0.0
H720 H 0.67825 0.36631 0.30964 0.0
H721 H 0.59714 0.3555 0.43024 0.0
H722 H 0.59682 0.35334 0.51399 0.0
H723 H 0.59727 0.32678 0.46839 0.0
H724 H 0.63576 0.31372 0.52708 0.0
H725 H 0.63525 0.3402 0.5743 0.0
H726 H 0.66164 0.33376 0.5319 0.0
H727 H 0.67573 0.40307 0.37075 0.0
H728 H 0.6598 0.43679 0.42669 0.0
H729 H 0.62055 0.38746 0.54558 0.0
C730 C 0.63396 0.31854 0.37855 0.0
C731 C 0.64127 0.31648 0.31641 0.0
C732 C 0.65868 0.33299 0.2936 0.0
C733 C 0.66662 0.35265 0.32952 0.0
C734 C 0.65754 0.3552 0.38885 0.0
C735 C 0.64215 0.33814 0.4141 0.0
C736 C 0.63181 0.34682 0.47405 0.0
C737 C 0.60416 0.34555 0.47138 0.0
C738 C 0.64172 0.33279 0.53016 0.0
C739 C 0.64156 0.37231 0.47465 0.0
C740 C 0.65695 0.37663 0.42625 0.0
C741 C 0.66456 0.39975 0.41042 0.0
C742 C 0.65539 0.41891 0.44279 0.0
C743 C 0.63874 0.4149 0.49064 0.0
C744 C 0.63306 0.3912 0.50898 0.0
H745 H 0.20131 0.46004 0.35735 0.0
H746 H 0.15418 0.40108 0.29753 0.0
H747 H 0.11958 0.42187 0.33895 0.0
H748 H 0.16777 0.47786 0.49871 0.0
H749 H 0.1742 0.50895 0.48264 0.0
H750 H 0.19531 0.48688 0.46223 0.0
H751 H 0.19411 0.5026 0.34858 0.0
H752 H 0.1725 0.52418 0.36787 0.0
H753 H 0.16582 0.50314 0.30612 0.0
H754 H 0.08978 0.45197 0.3729 0.0
H755 H 0.06769 0.48749 0.40117 0.0
H756 H 0.13502 0.52742 0.42917 0.0
C757 C 0.18394 0.45085 0.35593 0.0
C758 C 0.18046 0.42872 0.32546 0.0
C759 C 0.15722 0.41787 0.32163 0.0
C760 C 0.13752 0.42958 0.34486 0.0
C761 C 0.14147 0.45208 0.37146 0.0
C762 C 0.16421 0.46243 0.37775 0.0
C763 C 0.16358 0.48789 0.40022 0.0
C764 C 0.17594 0.49054 0.4648 0.0
C765 C 0.17465 0.50546 0.35286 0.0
C766 C 0.13689 0.49061 0.40369 0.0
C767 C 0.12439 0.4697 0.38801 0.0
C768 C 0.09945 0.46834 0.38578 0.0
C769 C 0.08705 0.48876 0.40092 0.0
C770 C 0.09958 0.5104 0.41703 0.0
C771 C 0.12485 0.51117 0.41797 0.0
H772 H 0.94791 0.82007 0.97065 0.0
H773 H 0.89929 0.86677 0.06066 0.0
H774 H 0.92113 0.90175 0.01672 0.0
H775 H 0.99708 0.84972 1.01008 0.0
H776 H 0.01354 0.84554 0.94022 0.0
H777 H 0.99047 0.82421 0.96101 0.0
H778 H 0.96819 0.83004 0.85498 0.0
H779 H 0.99173 0.85079 0.83233 0.0
H780 H 0.96101 0.85966 0.82929 0.0
H781 H 0.95331 0.93108 0.98238 0.0
H782 H 0.99054 0.95227 0.9518 0.0
H783 H 0.0188 0.88544 0.89075 0.0
C784 C 0.9408 0.83751 0.97808 0.0
C785 C 0.92173 0.84064 0.01873 0.0
C786 C 0.91378 0.86396 0.02935 0.0
C787 C 0.92611 0.88391 1.00465 0.0
C788 C 0.94613 0.88016 0.969 0.0
C789 C 0.95307 0.85746 0.95456 0.0
C790 C 0.97706 0.85792 0.92357 0.0
C791 C 0.9956 0.84351 0.96099 0.0
C792 C 0.97433 0.84909 0.85602 0.0
C793 C 0.9832 0.88429 0.92584 0.0
C794 C 0.965 0.89693 0.951 0.0
C795 C 0.96745 0.92138 0.96157 0.0
C796 C 0.98885 0.93321 0.94493 0.0
C797 C 1.00768 0.92057 0.91872 0.0
C798 C 1.00467 0.89576 0.90947 0.0
H799 H 0.66673 0.90877 0.9553 0.0
H800 H 0.73572 0.93499 0.89057 0.0
H801 H 0.71583 0.96361 0.82327 0.0
H802 H 0.62906 0.92676 0.80642 0.0
H803 H 0.60529 0.93588 0.85492 0.0
H804 H 0.62287 0.91074 0.87746 0.0
H805 H 0.63265 0.93043 0.98347 0.0
H806 H 0.61612 0.9562 0.96236 0.0
H807 H 0.64719 0.95963 0.98622 0.0
H808 H 0.69177 0.99788 0.7946 0.0
H809 H 0.66373 0.03088 0.79216 0.0
H810 H 0.60991 0.98465 0.87718 0.0
C811 C 0.67758 0.91978 0.92484 0.0
C812 C 0.70287 0.91978 0.92991 0.0
C813 C 0.71635 0.93424 0.88818 0.0
C814 C 0.70515 0.95091 0.84965 0.0
C815 C 0.68045 0.95272 0.8524 0.0
C816 C 0.66662 0.937 0.88732 0.0
C817 C 0.64123 0.94545 0.89167 0.0
C818 C 0.62357 0.92871 0.85546 0.0
C819 C 0.6339 0.94809 0.95994 0.0
C820 C 0.64376 0.96944 0.85956 0.0
C821 C 0.66627 0.973 0.83558 0.0
C822 C 0.67377 0.99497 0.81096 0.0
C823 C 0.65777 0.0137 0.81022 0.0
C824 C 0.63461 0.01043 0.83455 0.0
C825 C 0.62754 0.98784 0.85865 0.0
H826 H 0.44378 0.71367 0.9262 0.0
H827 H 0.38534 0.70054 0.05149 0.0
H828 H 0.37124 0.66609 0.98739 0.0
H829 H 0.41184 0.68992 0.77682 0.0
H830 H 0.4393 0.67719 0.75291 0.0
H831 H 0.44021 0.70462 0.79653 0.0
H832 H 0.46873 0.68567 0.87864 0.0
H833 H 0.46772 0.65829 0.83599 0.0
H834 H 0.45949 0.65826 0.91654 0.0
H835 H 0.36919 0.62862 0.92519 0.0
H836 H 0.37967 0.59156 0.87231 0.0
H837 H 0.44037 0.62888 0.79044 0.0
C838 C 0.42723 0.70439 0.93816 0.0
C839 C 0.41543 0.70994 0.99319 0.0
C840 C 0.3945 0.69665 1.00913 0.0
C841 C 0.38631 0.67716 0.97277 0.0
C842 C 0.39917 0.67133 0.9205 0.0
C843 C 0.41907 0.6848 0.90282 0.0
C844 C 0.43232 0.67265 0.85205 0.0
C845 C 0.43082 0.68695 0.79095 0.0
C846 C 0.45858 0.66846 0.87207 0.0
C847 C 0.41781 0.64949 0.84697 0.0
C848 C 0.39832 0.64932 0.8853 0.0
C849 C 0.38404 0.62877 0.89389 0.0
C850 C 0.39025 0.60774 0.86412 0.0
C851 C 0.41081 0.60733 0.82705 0.0
C852 C 0.42416 0.62873 0.81687 0.0
H853 H 0.81835 0.56418 0.97449 0.0
H854 H 0.86755 0.61741 0.05707 0.0
H855 H 0.9015 0.59676 1.0129 0.0
H856 H 0.85013 0.51638 1.00773 0.0
H857 H 0.84381 0.50005 0.93674 0.0
H858 H 0.82293 0.52126 0.96293 0.0
H859 H 0.82514 0.5443 0.85833 0.0
H860 H 0.84542 0.52266 0.83063 0.0
H861 H 0.85391 0.55394 0.82963 0.0
H862 H 0.92994 0.56634 0.97714 0.0
H863 H 0.95077 0.5315 0.93849 0.0
H864 H 0.88274 0.49889 0.87735 0.0
C865 C 0.83609 0.57231 0.98071 0.0
C866 C 0.84025 0.59247 0.01929 0.0
C867 C 0.86394 0.60192 0.02796 0.0
C868 C 0.88332 0.59033 1.003 0.0
C869 C 0.87862 0.56961 0.96862 0.0
C870 C 0.85554 0.56106 0.95595 0.0
C871 C 0.85531 0.53738 0.92238 0.0
C872 C 0.84228 0.51762 0.95971 0.0
C873 C 0.8443 0.53972 0.85631 0.0
C874 C 0.88187 0.53338 0.9207 0.0
C875 C 0.89503 0.55222 0.94726 0.0
C876 C 0.91982 0.55174 0.95507 0.0
C877 C 0.93147 0.53176 0.93372 0.0
C878 C 0.91837 0.51257 0.90483 0.0
C879 C 0.89323 0.51343 0.89861 0.0
H880 H 1.00911 0.18472 0.88894 0.0
H881 H 0.08538 0.20114 0.87826 0.0
H882 H 0.09062 0.16345 0.82302 0.0
H883 H 0.01386 0.12207 0.91623 0.0
H884 H 0.9879 0.11337 0.86892 0.0
H885 H 0.98961 0.14223 0.90551 0.0
H886 H 0.98286 0.16255 0.79826 0.0
H887 H 0.98106 0.13373 0.76136 0.0
H888 H 1.0024 0.15619 0.73548 0.0
H889 H 0.0885 0.1227 0.77522 0.0
H890 H 0.07855 0.08274 0.7322 0.0
H891 H 1.00352 0.09229 0.76895 0.0
C892 C 0.02688 0.18048 0.87454 0.0
C893 C 0.04678 0.1963 0.88758 0.0
C894 C 0.06971 0.18983 0.86785 0.0
C895 C 0.07294 0.16827 0.83676 0.0
C896 C 0.05309 0.15312 0.82499 0.0
C897 C 0.03044 0.15898 0.84264 0.0
C898 C 0.01221 0.13925 0.82436 0.0
C899 C 1.00019 0.1286 0.88221 0.0
C900 C 0.99353 0.14849 0.77705 0.0
C901 C 0.02824 0.12134 0.79457 0.0
C902 C 0.05178 0.12971 0.79579 0.0
C903 C 0.07009 0.11607 0.77347 0.0
C904 C 0.06426 0.09331 0.74925 0.0
C905 C 0.04026 0.08431 0.7467 0.0
C906 C 0.02202 0.09871 0.76946 0.0
H907 H 0.37246 0.03218 0.96991 0.0
H908 H 0.31952 0.01678 0.82263 0.0
H909 H 0.35194 0.01335 0.74763 0.0
H910 H 0.41271 0.06772 0.87709 0.0
H911 H 0.43952 0.05676 0.91423 0.0
H912 H 0.41225 0.05759 0.95685 0.0
H913 H 0.41476 0.01248 0.98099 0.0
H914 H 0.4421 0.01152 0.93872 0.0
H915 H 0.41712 0.99172 0.91779 0.0
H916 H 0.39037 0.01145 0.68797 0.0
H917 H 0.4314 0.01128 0.64866 0.0
H918 H 0.4599 0.02829 0.83391 0.0
C919 C 0.36764 0.0278 0.92205 0.0
C920 C 0.34322 0.02471 0.90252 0.0
C921 C 0.33792 0.01945 0.83898 0.0
C922 C 0.35628 0.01737 0.79595 0.0
C923 C 0.38005 0.02068 0.81668 0.0
C924 C 0.38579 0.02579 0.87827 0.0
C925 C 0.41281 0.02884 0.88823 0.0
C926 C 0.41972 0.05424 0.91041 0.0
C927 C 0.42225 0.01002 0.93415 0.0
C928 C 0.42138 0.02459 0.82271 0.0
C929 C 0.40216 0.01987 0.7822 0.0
C930 C 0.40551 0.01516 0.71938 0.0
C931 C 0.42899 0.01511 0.69742 0.0
C932 C 0.44911 0.01984 0.73786 0.0
C933 C 0.44505 0.02475 0.80144 0.0
H934 H 0.50706 0.35596 0.94068 0.0
H935 H 0.53585 0.30897 0.80376 0.0
H936 H 0.53524 0.34159 0.72606 0.0
H937 H 0.4678 0.38886 0.83197 0.0
H938 H 0.47367 0.41685 0.87134 0.0
H939 H 0.47465 0.38925 0.9145 0.0
H940 H 0.5178 0.40047 0.9538 0.0
H941 H 0.51701 0.42799 0.91049 0.0
H942 H 0.54055 0.40748 0.89806 0.0
H943 H 0.53421 0.3805 0.66501 0.0
H944 H 0.53186 0.42191 0.62568 0.0
H945 H 0.50334 0.44337 0.80204 0.0
C946 C 0.51267 0.35234 0.89392 0.0
C947 C 0.52142 0.32978 0.87843 0.0
C948 C 0.52918 0.32607 0.81699 0.0
C949 C 0.52883 0.34451 0.7724 0.0
C950 C 0.52062 0.36667 0.7896 0.0
C951 C 0.51253 0.37061 0.84882 0.0
C952 C 0.50567 0.39637 0.85633 0.0
C953 C 0.47885 0.39792 0.86929 0.0
C954 C 0.52119 0.4088 0.90771 0.0
C955 C 0.51141 0.40636 0.79243 0.0
C956 C 0.51995 0.38894 0.75449 0.0
C957 C 0.52729 0.3942 0.69418 0.0
C958 C 0.52591 0.41782 0.6722 0.0
C959 C 0.51723 0.43601 0.71033 0.0
C960 C 0.50979 0.42996 0.77116 0.0
H961 H 0.16432 0.48191 0.94325 0.0
H962 H 0.21559 0.50697 0.80781 0.0
H963 H 0.18225 0.51342 0.73151 0.0
H964 H 0.12399 0.45083 0.83421 0.0
H965 H 0.09753 0.45874 0.87442 0.0
H966 H 0.12548 0.45571 0.91715 0.0
H967 H 0.12246 0.49861 0.95975 0.0
H968 H 0.0945 0.50176 0.9173 0.0
H969 H 0.11885 0.52307 0.9059 0.0
H970 H 0.14242 0.51863 0.67138 0.0
H971 H 0.10045 0.5213 0.63283 0.0
H972 H 0.07581 0.49219 0.80827 0.0
C973 C 0.16859 0.48891 0.89768 0.0
C974 C 0.19263 0.49415 0.88178 0.0
C975 C 0.19737 0.50276 0.82107 0.0
C976 C 0.17853 0.50654 0.77751 0.0
C977 C 0.15502 0.50137 0.79507 0.0
C978 C 0.15008 0.4926 0.8537 0.0
C979 C 0.12338 0.48844 0.86144 0.0
C980 C 0.11724 0.46185 0.87244 0.0
C981 C 0.11427 0.5039 0.91421 0.0
C982 C 0.11392 0.49662 0.79838 0.0
C983 C 0.1324 0.50397 0.76055 0.0
C984 C 0.12788 0.51278 0.70062 0.0
C985 C 0.10393 0.51423 0.6791 0.0
C986 C 0.0847 0.50687 0.71728 0.0
C987 C 0.08998 0.49781 0.77755 0.0
H988 H 0.99728 0.86438 0.37799 0.0
H989 H 1.00622 0.81338 0.52871 0.0
H990 H 1.00991 0.84655 0.60406 0.0
H991 H 0.03934 0.90966 0.4392 0.0
H992 H 0.0215 0.9342 0.41338 0.0
H993 H 0.0198 0.90646 0.37131 0.0
H994 H 0.97387 0.90402 0.38461 0.0
H995 H 0.97546 0.93167 0.42709 0.0
H996 H 0.96199 0.90532 0.46165 0.0
H997 H 0.01304 0.8855 0.66352 0.0
H998 H 0.01539 0.92687 0.70215 0.0
H999 H 1.00383 0.95304 0.51354 0.0
C1000 C 1.0003 0.86015 0.42675 0.0
C1001 C 1.00151 0.83608 0.44713 0.0
C1002 C 1.00502 0.83152 0.5117 0.0
C1003 C 1.00722 0.8503 0.55493 0.0
C1004 C 1.00577 0.87372 0.5333 0.0
C1005 C 1.00238 0.87873 0.4707 0.0
C1006 C 1.00121 0.9055 0.4598 0.0
C1007 C 0.02168 0.91448 0.41848 0.0
C1008 C 0.97667 0.91201 0.43162 0.0
C1009 C 1.00455 0.91479 0.52599 0.0
C1010 C 1.00719 0.89613 0.56763 0.0
C1011 C 1.01093 0.9002 0.63124 0.0
C1012 C 0.01223 0.92386 0.6528 0.0
C1013 C 1.00968 0.94339 0.61118 0.0
C1014 C 1.0056 0.93861 0.54685 0.0
H1015 H 0.66372 0.96843 0.37681 0.0
H1016 H 0.71035 0.0261 0.44778 0.0
H1017 H 0.67989 0.03578 0.52431 0.0
H1018 H 0.60884 0.99862 0.38733 0.0
H1019 H 0.59156 0.97253 0.41061 0.0
H1020 H 0.61747 0.9694 0.36373 0.0
H1021 H 0.63552 0.9407 0.44591 0.0
H1022 H 0.60964 0.94374 0.49307 0.0
H1023 H 0.63919 0.95025 0.52574 0.0
H1024 H 0.64295 0.04081 0.58905 0.0
H1025 H 0.60368 0.03998 0.63859 0.0
H1026 H 0.58099 0.97852 0.52732 0.0
C1027 C 0.66761 0.98314 0.40833 0.0
C1028 C 0.68962 0.99654 0.40573 0.0
C1029 C 0.69389 0.01537 0.44886 0.0
C1030 C 0.67658 0.02109 0.4924 0.0
C1031 C 0.65501 1.00773 0.49293 0.0
C1032 C 0.65056 0.98902 0.45225 0.0
C1033 C 0.62581 0.97765 0.46178 0.0
C1034 C 0.60999 0.97968 0.40233 0.0
C1035 C 0.62766 0.95153 0.48289 0.0
C1036 C 0.61683 0.99307 0.51364 0.0
C1037 C 0.63398 0.01032 0.5309 0.0
C1038 C 0.62954 0.02721 0.57617 0.0
C1039 C 0.60708 0.02658 0.60419 0.0
C1040 C 0.58913 0.00906 0.58766 0.0
C1041 C 0.59431 0.99198 0.54186 0.0
H1042 H 0.54402 0.66711 0.38455 0.0
H1043 H 0.5061 0.71046 0.51372 0.0
H1044 H 0.50426 0.67678 0.58763 0.0
H1045 H 0.51201 0.61339 0.41071 0.0
H1046 H 0.53724 0.59433 0.40664 0.0
H1047 H 0.53749 0.62234 0.36541 0.0
H1048 H 0.57736 0.63515 0.42197 0.0
H1049 H 0.57734 0.60706 0.46309 0.0
H1050 H 0.57929 0.63465 0.50589 0.0
H1051 H 0.50212 0.63721 0.64228 0.0
H1052 H 0.50309 0.59531 0.67803 0.0
H1053 H 0.54478 0.57763 0.51838 0.0
C1054 C 0.5359 0.66975 0.42906 0.0
C1055 C 0.52504 0.69155 0.44283 0.0
C1056 C 0.51423 0.69394 0.50137 0.0
C1057 C 0.51318 0.6749 0.54395 0.0
C1058 C 0.52334 0.65349 0.52813 0.0
C1059 C 0.53485 0.65087 0.47257 0.0
C1060 C 0.54355 0.6256 0.46637 0.0
C1061 C 0.53187 0.61319 0.40887 0.0
C1062 C 0.57102 0.62562 0.46421 0.0
C1063 C 0.53467 0.61435 0.52641 0.0
C1064 C 0.52299 0.6308 0.56119 0.0
C1065 C 0.51165 0.62431 0.61607 0.0
C1066 C 0.51223 0.60044 0.63596 0.0
C1067 C 0.52435 0.58328 0.60168 0.0
C1068 C 0.5359 0.59047 0.54644 0.0
H1069 H 0.8422 0.52013 0.42935 0.0
H1070 H 0.81593 0.57404 0.55236 0.0
H1071 H 0.85359 0.57314 0.61441 0.0
H1072 H 0.87345 0.48616 0.55526 0.0
H1073 H 0.89758 0.47884 0.50555 0.0
H1074 H 0.86793 0.48274 0.47262 0.0
H1075 H 0.88505 0.51458 0.39679 0.0
H1076 H 0.91466 0.51103 0.42996 0.0
H1077 H 0.90184 0.54009 0.42765 0.0
H1078 H 0.89613 0.57031 0.65515 0.0
H1079 H 0.93849 0.56149 0.68026 0.0
H1080 H 0.93595 0.50645 0.53918 0.0
C1081 C 0.84397 0.53128 0.47031 0.0
C1082 C 0.82597 0.54744 0.48499 0.0
C1083 C 0.82949 0.56192 0.53877 0.0
C1084 C 0.85084 0.56144 0.57475 0.0
C1085 C 0.86849 0.546 0.55758 0.0
C1086 C 0.86508 0.53074 0.50756 0.0
C1087 C 0.8871 0.51604 0.49882 0.0
C1088 C 0.88115 0.48936 0.50866 0.0
C1089 C 0.89779 0.52073 0.43449 0.0
C1090 C 0.90359 0.52587 0.55068 0.0
C1091 C 0.89254 0.5433 0.58369 0.0
C1092 C 0.90478 0.55634 0.63051 0.0
C1093 C 0.92884 0.55134 0.64424 0.0
C1094 C 0.94029 0.53315 0.61219 0.0
C1095 C 0.92742 0.52014 0.56516 0.0
loop_
_geom_bond_atom_site_label_1
_geom_bond_atom_site_label_2
_geom_bond_distance
_geom_bond_site_symmetry_2
_ccdc_geom_bond_type
C0 C1 1.384 . S
C0 H13 0.947 . S
C0 C35 1.382 . S
C1 C0 1.384 . S
C1 C2 1.378 . S
C2 C1 1.378 . S
C2 C3 1.378 . S
C2 H14 0.952 . S
C3 C2 1.378 . S
C3 H15 0.950 . S
C3 C34 1.383 . S
H4 C23 0.947 . S
H5 C24 0.946 . S
H6 C26 0.953 . S
H7 C27 0.945 . S
H8 C29 0.952 . S
H9 C30 0.949 1_556 S
H10 C32 0.950 . S
H11 C33 0.948 . S
H12 C35 0.951 . S
H13 C0 0.947 . S
H14 C2 0.952 . S
H15 C3 0.950 . S
N16 C19 1.382 . S
N16 C21 1.363 . S
N17 C19 1.371 . S
N17 C20 1.372 . S
N18 C20 1.361 . S
N18 C21 1.377 . S
C19 N16 1.382 . S
C19 N17 1.371 . S
C19 C22 1.480 . S
C20 N17 1.372 . S
C20 N18 1.361 . S
C20 C28 1.457 . S
C21 N16 1.363 . S
C21 N18 1.377 . S
C21 C34 1.479 . S
C22 C19 1.480 . S
C22 C23 1.383 . S
C22 C27 1.385 . S
C23 H4 0.947 . S
C23 C22 1.383 . S
C23 C24 1.388 . S
C24 H5 0.946 . S
C24 C23 1.388 . S
C24 C25 1.384 . S
C25 C24 1.384 . S
C25 C26 1.377 . S
C26 H6 0.953 . S
C26 C25 1.377 . S
C26 C27 1.369 . S
C27 H7 0.945 . S
C27 C22 1.385 . S
C27 C26 1.369 . S
C28 C20 1.457 . S
C28 C29 1.372 . S
C28 C33 1.364 . S
C29 H8 0.952 . S
C29 C28 1.372 . S
C29 C30 1.389 . S
C30 H9 0.949 1_554 S
C30 C29 1.389 . S
C30 C31 1.387 . S
C31 C30 1.387 . S
C31 C32 1.372 . S
C32 H10 0.950 . S
C32 C31 1.372 . S
C32 C33 1.379 . S
C33 H11 0.948 . S
C33 C28 1.364 . S
C33 C32 1.379 . S
C34 C3 1.383 . S
C34 C21 1.479 . S
C34 C35 1.398 . S
C35 C0 1.382 . S
C35 H12 0.951 . S
C35 C34 1.398 . S
C36 C37 1.384 . S
C36 H49 0.947 . S
C36 C71 1.382 . S
C37 C36 1.384 . S
C37 C38 1.378 . S
C38 C37 1.378 . S
C38 C39 1.378 . S
C38 H50 0.952 . S
C39 C38 1.378 . S
C39 H51 0.950 . S
C39 C70 1.383 . S
H40 C59 0.947 . S
H41 C60 0.946 . S
H42 C62 0.953 . S
H43 C63 0.945 . S
H44 C65 0.952 . S
H45 C66 0.949 . S
H46 C68 0.950 . S
H47 C69 0.948 . S
H48 C71 0.951 . S
H49 C36 0.947 . S
H50 C38 0.952 . S
H51 C39 0.950 . S
N52 C55 1.382 . S
N52 C57 1.363 . S
N53 C55 1.371 . S
N53 C56 1.372 . S
N54 C56 1.361 . S
N54 C57 1.377 . S
C55 N52 1.382 . S
C55 N53 1.371 . S
C55 C58 1.480 . S
C56 N53 1.372 . S
C56 N54 1.361 . S
C56 C64 1.457 . S
C57 N52 1.363 . S
C57 N54 1.377 . S
C57 C70 1.479 . S
C58 C55 1.480 . S
C58 C59 1.383 . S
C58 C63 1.385 . S
C59 H40 0.947 . S
C59 C58 1.383 . S
C59 C60 1.388 . S
C60 H41 0.946 . S
C60 C59 1.388 . S
C60 C61 1.384 . S
C61 C60 1.384 . S
C61 C62 1.377 . S
C62 H42 0.953 . S
C62 C61 1.377 . S
C62 C63 1.369 . S
C63 H43 0.945 . S
C63 C58 1.385 . S
C63 C62 1.369 . S
C64 C56 1.457 . S
C64 C65 1.372 . S
C64 C69 1.364 . S
C65 H44 0.952 . S
C65 C64 1.372 . S
C65 C66 1.389 . S
C66 H45 0.949 . S
C66 C65 1.389 . S
C66 C67 1.387 . S
C67 C66 1.387 . S
C67 C68 1.372 . S
C68 H46 0.950 . S
C68 C67 1.372 . S
C68 C69 1.379 . S
C69 H47 0.948 . S
C69 C64 1.364 . S
C69 C68 1.379 . S
C70 C39 1.383 . S
C70 C57 1.479 . S
C70 C71 1.398 . S
C71 C36 1.382 . S
C71 H48 0.951 . S
C71 C70 1.398 . S
C72 C73 1.384 . S
C72 H85 0.947 . S
C72 C107 1.382 . S
C73 C72 1.384 . S
C73 C74 1.378 . S
C74 C73 1.378 . S
C74 C75 1.378 . S
C74 H86 0.952 . S
C75 C74 1.378 . S
C75 H87 0.950 . S
C75 C106 1.383 . S
H76 C95 0.947 . S
H77 C96 0.946 . S
H78 C98 0.953 . S
H79 C99 0.945 . S
H80 C101 0.952 . S
H81 C102 0.949 . S
H82 C104 0.950 . S
H83 C105 0.948 . S
H84 C107 0.951 . S
H85 C72 0.947 . S
H86 C74 0.952 . S
H87 C75 0.950 . S
N88 C91 1.382 . S
N88 C93 1.363 . S
N89 C91 1.371 . S
N89 C92 1.372 . S
N90 C92 1.361 . S
N90 C93 1.377 . S
C91 N88 1.382 . S
C91 N89 1.371 . S
C91 C94 1.480 . S
C92 N89 1.372 . S
C92 N90 1.361 . S
C92 C100 1.457 . S
C93 N88 1.363 . S
C93 N90 1.377 . S
C93 C106 1.479 . S
C94 C91 1.480 . S
C94 C95 1.383 . S
C94 C99 1.385 . S
C95 H76 0.947 . S
C95 C94 1.383 . S
C95 C96 1.388 . S
C96 H77 0.946 . S
C96 C95 1.388 . S
C96 C97 1.384 . S
C97 C96 1.384 . S
C97 C98 1.377 . S
C98 H78 0.953 . S
C98 C97 1.377 . S
C98 C99 1.369 . S
C99 H79 0.945 . S
C99 C94 1.385 . S
C99 C98 1.369 . S
C100 C92 1.457 . S
C100 C101 1.372 . S
C100 C105 1.364 . S
C101 H80 0.952 . S
C101 C100 1.372 . S
C101 C102 1.389 . S
C102 H81 0.949 . S
C102 C101 1.389 . S
C102 C103 1.387 . S
C103 C102 1.387 . S
C103 C104 1.372 . S
C104 H82 0.950 . S
C104 C103 1.372 . S
C104 C105 1.379 . S
C105 H83 0.948 . S
C105 C100 1.364 . S
C105 C104 1.379 . S
C106 C75 1.383 . S
C106 C93 1.479 . S
C106 C107 1.398 . S
C107 C72 1.382 . S
C107 H84 0.951 . S
C107 C106 1.398 . S
C108 C109 1.384 . S
C108 H121 0.947 . S
C108 C143 1.382 . S
C109 C108 1.384 . S
C109 C110 1.378 . S
C110 C109 1.378 . S
C110 C111 1.378 . S
C110 H122 0.952 1_554 S
C111 C110 1.378 . S
C111 H123 0.950 . S
C111 C142 1.383 . S
H112 C131 0.947 . S
H113 C132 0.946 . S
H114 C134 0.953 . S
H115 C135 0.945 . S
H116 C137 0.952 . S
H117 C138 0.949 . S
H118 C140 0.950 . S
H119 C141 0.948 . S
H120 C143 0.951 . S
H121 C108 0.947 . S
H122 C110 0.952 1_556 S
H123 C111 0.950 . S
N124 C127 1.382 . S
N124 C129 1.363 . S
N125 C127 1.371 . S
N125 C128 1.372 . S
N126 C128 1.361 . S
N126 C129 1.377 . S
C127 N124 1.382 . S
C127 N125 1.371 . S
C127 C130 1.480 . S
C128 N125 1.372 . S
C128 N126 1.361 . S
C128 C136 1.457 . S
C129 N124 1.363 . S
C129 N126 1.377 . S
C129 C142 1.479 . S
C130 C127 1.480 . S
C130 C131 1.383 . S
C130 C135 1.385 . S
C131 H112 0.947 . S
C131 C130 1.383 . S
C131 C132 1.388 . S
C132 H113 0.946 . S
C132 C131 1.388 . S
C132 C133 1.384 . S
C133 C132 1.384 . S
C133 C134 1.377 . S
C134 H114 0.953 . S
C134 C133 1.377 . S
C134 C135 1.369 . S
C135 H115 0.945 . S
C135 C130 1.385 . S
C135 C134 1.369 . S
C136 C128 1.457 . S
C136 C137 1.372 . S
C136 C141 1.364 . S
C137 H116 0.952 . S
C137 C136 1.372 . S
C137 C138 1.389 . S
C138 H117 0.949 . S
C138 C137 1.389 . S
C138 C139 1.387 . S
C139 C138 1.387 . S
C139 C140 1.372 . S
C140 H118 0.950 . S
C140 C139 1.372 . S
C140 C141 1.379 . S
C141 H119 0.948 . S
C141 C136 1.364 . S
C141 C140 1.379 . S
C142 C111 1.383 . S
C142 C129 1.479 . S
C142 C143 1.398 . S
C143 C108 1.382 . S
C143 H120 0.951 . S
C143 C142 1.398 . S
C144 C145 1.384 . S
C144 H157 0.947 . S
C144 C179 1.382 . S
C145 C144 1.384 . S
C145 C146 1.378 . S
C146 C145 1.378 . S
C146 C147 1.378 . S
C146 H158 0.952 . S
C147 C146 1.378 . S
C147 H159 0.950 . S
C147 C178 1.383 . S
H148 C167 0.947 . S
H149 C168 0.946 . S
H150 C170 0.953 . S
H151 C171 0.945 . S
H152 C173 0.952 . S
H153 C174 0.949 . S
H154 C176 0.950 . S
H155 C177 0.948 . S
H156 C179 0.951 . S
H157 C144 0.947 . S
H158 C146 0.952 . S
H159 C147 0.950 . S
N160 C163 1.382 . S
N160 C165 1.363 . S
N161 C163 1.371 . S
N161 C164 1.372 . S
N162 C164 1.361 . S
N162 C165 1.377 . S
C163 N160 1.382 . S
C163 N161 1.371 . S
C163 C166 1.480 . S
C164 N161 1.372 . S
C164 N162 1.361 . S
C164 C172 1.457 . S
C165 N160 1.363 . S
C165 N162 1.377 . S
C165 C178 1.479 1_554 S
C166 C163 1.480 . S
C166 C167 1.383 . S
C166 C171 1.385 . S
C167 H148 0.947 . S
C167 C166 1.383 . S
C167 C168 1.388 . S
C168 H149 0.946 . S
C168 C167 1.388 . S
C168 C169 1.384 . S
C169 C168 1.384 . S
C169 C170 1.377 . S
C170 H150 0.953 . S
C170 C169 1.377 . S
C170 C171 1.369 . S
C171 H151 0.945 . S
C171 C166 1.385 . S
C171 C170 1.369 . S
C172 C164 1.457 . S
C172 C173 1.372 . S
C172 C177 1.364 . S
C173 H152 0.952 . S
C173 C172 1.372 . S
C173 C174 1.389 . S
C174 H153 0.949 . S
C174 C173 1.389 . S
C174 C175 1.387 . S
C175 C174 1.387 . S
C175 C176 1.372 . S
C176 H154 0.950 . S
C176 C175 1.372 . S
C176 C177 1.379 . S
C177 H155 0.948 . S
C177 C172 1.364 . S
C177 C176 1.379 . S
C178 C147 1.383 . S
C178 C165 1.479 1_556 S
C178 C179 1.398 . S
C179 C144 1.382 . S
C179 H156 0.951 . S
C179 C178 1.398 . S
C180 C181 1.384 . S
C180 H193 0.947 . S
C180 C215 1.382 . S
C181 C180 1.384 . S
C181 C182 1.378 . S
C182 C181 1.378 . S
C182 C183 1.378 . S
C182 H194 0.952 . S
C183 C182 1.378 . S
C183 H195 0.950 . S
C183 C214 1.383 . S
H184 C203 0.947 1_556 S
H185 C204 0.946 . S
H186 C206 0.953 . S
H187 C207 0.945 . S
H188 C209 0.952 . S
H189 C210 0.949 . S
H190 C212 0.950 . S
H191 C213 0.948 . S
H192 C215 0.951 . S
H193 C180 0.947 . S
H194 C182 0.952 . S
H195 C183 0.950 . S
N196 C199 1.382 1_556 S
N196 C201 1.363 . S
N197 C199 1.371 . S
N197 C200 1.372 . S
N198 C200 1.361 . S
N198 C201 1.377 1_554 S
C199 N196 1.382 1_554 S
C199 N197 1.371 . S
C199 C202 1.480 . S
C200 N197 1.372 . S
C200 N198 1.361 . S
C200 C208 1.457 . S
C201 N196 1.363 . S
C201 N198 1.377 1_556 S
C201 C214 1.479 . S
C202 C199 1.480 . S
C202 C203 1.383 . S
C202 C207 1.385 . S
C203 H184 0.947 1_554 S
C203 C202 1.383 . S
C203 C204 1.388 . S
C204 H185 0.946 . S
C204 C203 1.388 . S
C204 C205 1.384 . S
C205 C204 1.384 . S
C205 C206 1.377 . S
C206 H186 0.953 . S
C206 C205 1.377 . S
C206 C207 1.369 . S
C207 H187 0.945 . S
C207 C202 1.385 . S
C207 C206 1.369 . S
C208 C200 1.457 . S
C208 C209 1.372 . S
C208 C213 1.364 . S
C209 H188 0.952 . S
C209 C208 1.372 . S
C209 C210 1.389 . S
C210 H189 0.949 . S
C210 C209 1.389 . S
C210 C211 1.387 . S
C211 C210 1.387 . S
C211 C212 1.372 . S
C212 H190 0.950 . S
C212 C211 1.372 . S
C212 C213 1.379 . S
C213 H191 0.948 . S
C213 C208 1.364 . S
C213 C212 1.379 . S
C214 C183 1.383 . S
C214 C201 1.479 . S
C214 C215 1.398 . S
C215 C180 1.382 . S
C215 H192 0.951 . S
C215 C214 1.398 . S
C216 C217 1.384 . S
C216 H229 0.947 . S
C216 C251 1.382 . S
C217 C216 1.384 . S
C217 C218 1.378 . S
C218 C217 1.378 . S
C218 C219 1.378 . S
C218 H230 0.952 . S
C219 C218 1.378 . S
C219 H231 0.950 . S
C219 C250 1.383 . S
H220 C239 0.947 . S
H221 C240 0.946 1_556 S
H222 C242 0.953 . S
H223 C243 0.945 . S
H224 C245 0.952 . S
H225 C246 0.949 . S
H226 C248 0.950 . S
H227 C249 0.948 . S
H228 C251 0.951 . S
H229 C216 0.947 . S
H230 C218 0.952 . S
H231 C219 0.950 . S
N232 C235 1.382 1_556 S
N232 C237 1.363 . S
N233 C235 1.371 . S
N233 C236 1.372 . S
N234 C236 1.361 . S
N234 C237 1.377 1_554 S
C235 N232 1.382 1_554 S
C235 N233 1.371 . S
C235 C238 1.480 . S
C236 N233 1.372 . S
C236 N234 1.361 . S
C236 C244 1.457 . S
C237 N232 1.363 . S
C237 N234 1.377 1_556 S
C237 C250 1.479 . S
C238 C235 1.480 . S
C238 C239 1.383 1_554 S
C238 C243 1.385 . S
C239 H220 0.947 . S
C239 C238 1.383 1_556 S
C239 C240 1.388 1_556 S
C240 H221 0.946 1_554 S
C240 C239 1.388 1_554 S
C240 C241 1.384 . S
C241 C240 1.384 . S
C241 C242 1.377 . S
C242 H222 0.953 . S
C242 C241 1.377 . S
C242 C243 1.369 . S
C243 H223 0.945 . S
C243 C238 1.385 . S
C243 C242 1.369 . S
C244 C236 1.457 . S
C244 C245 1.372 . S
C244 C249 1.364 . S
C245 H224 0.952 . S
C245 C244 1.372 . S
C245 C246 1.389 . S
C246 H225 0.949 . S
C246 C245 1.389 . S
C246 C247 1.387 . S
C247 C246 1.387 . S
C247 C248 1.372 . S
C248 H226 0.950 . S
C248 C247 1.372 . S
C248 C249 1.379 . S
C249 H227 0.948 . S
C249 C244 1.364 . S
C249 C248 1.379 . S
C250 C219 1.383 . S
C250 C237 1.479 . S
C250 C251 1.398 . S
C251 C216 1.382 . S
C251 H228 0.951 . S
C251 C250 1.398 . S
C252 C253 1.384 . S
C252 H265 0.947 . S
C252 C287 1.382 . S
C253 C252 1.384 . S
C253 C254 1.378 . S
C254 C253 1.378 . S
C254 C255 1.378 . S
C254 H266 0.952 . S
C255 C254 1.378 . S
C255 H267 0.950 . S
C255 C286 1.383 . S
H256 C275 0.947 . S
H257 C276 0.946 . S
H258 C278 0.953 . S
H259 C279 0.945 . S
H260 C281 0.952 . S
H261 C282 0.949 . S
H262 C284 0.950 . S
H263 C285 0.948 . S
H264 C287 0.951 . S
H265 C252 0.947 . S
H266 C254 0.952 . S
H267 C255 0.950 . S
N268 C271 1.382 . S
N268 C273 1.363 . S
N269 C271 1.371 . S
N269 C272 1.372 . S
N270 C272 1.361 . S
N270 C273 1.377 . S
C271 N268 1.382 . S
C271 N269 1.371 . S
C271 C274 1.480 . S
C272 N269 1.372 . S
C272 N270 1.361 . S
C272 C280 1.457 1_554 S
C273 N268 1.363 . S
C273 N270 1.377 . S
C273 C286 1.479 . S
C274 C271 1.480 . S
C274 C275 1.383 . S
C274 C279 1.385 . S
C275 H256 0.947 . S
C275 C274 1.383 . S
C275 C276 1.388 . S
C276 H257 0.946 . S
C276 C275 1.388 . S
C276 C277 1.384 . S
C277 C276 1.384 . S
C277 C278 1.377 . S
C278 H258 0.953 . S
C278 C277 1.377 . S
C278 C279 1.369 . S
C279 H259 0.945 . S
C279 C274 1.385 . S
C279 C278 1.369 . S
C280 C272 1.457 1_556 S
C280 C281 1.372 . S
C280 C285 1.364 . S
C281 H260 0.952 . S
C281 C280 1.372 . S
C281 C282 1.389 . S
C282 H261 0.949 . S
C282 C281 1.389 . S
C282 C283 1.387 . S
C283 C282 1.387 . S
C283 C284 1.372 . S
C284 H262 0.950 . S
C284 C283 1.372 . S
C284 C285 1.379 . S
C285 H263 0.948 . S
C285 C280 1.364 . S
C285 C284 1.379 . S
C286 C255 1.383 . S
C286 C273 1.479 . S
C286 C287 1.398 . S
C287 C252 1.382 . S
C287 H264 0.951 . S
C287 C286 1.398 . S
Eu288 C297 2.828 . S
Eu288 O299 2.392 . S
Eu288 O301 2.418 1_545 S
Eu288 O306 2.373 1_655 S
Eu288 O309 2.488 . S
Eu288 O310 2.471 . S
Eu288 O311 2.349 1_655 S
Eu289 O298 2.373 1_455 S
Eu289 O302 2.488 . S
Eu289 O303 2.471 . S
Eu289 O304 2.349 . S
Eu289 O307 2.392 1_565 S
Eu289 O308 2.418 1_565 S
Eu289 C318 2.828 . S
C290 O308 1.244 . S
C290 O311 1.265 . S
C291 C292 1.379 1_655 S
C291 C295 1.373 . S
C291 C297 1.505 . S
C292 C291 1.379 1_455 S
C292 C294 1.369 . S
C292 H320 0.930 . S
C293 C295 1.383 . S
C293 C296 1.362 1_655 S
C293 H321 0.930 . S
C294 C292 1.369 . S
C294 C296 1.408 . S
C294 H322 0.930 . S
C295 C291 1.373 . S
C295 C293 1.383 . S
C295 H323 0.931 . S
C296 C293 1.362 1_455 S
C296 C294 1.408 . S
C297 Eu288 2.828 . S
C297 C291 1.505 . S
C297 O309 1.249 . S
C297 O310 1.244 . S
O298 Eu289 2.373 1_655 S
O298 C300 1.258 . S
O299 Eu288 2.392 . S
O299 C300 1.242 1_545 S
C300 O298 1.258 . S
C300 O299 1.242 1_565 S
O301 Eu288 2.418 1_565 S
O301 C305 1.244 . S
O302 Eu289 2.488 . S
O302 C318 1.249 . S
O303 Eu289 2.471 . S
O303 C318 1.244 . S
O304 Eu289 2.349 . S
O304 C305 1.265 1_455 S
C305 O301 1.244 . S
C305 O304 1.265 1_655 S
O306 Eu288 2.373 1_455 S
O306 C319 1.258 . S
O307 Eu289 2.392 1_545 S
O307 C319 1.242 . S
O308 Eu289 2.418 1_545 S
O308 C290 1.244 . S
O309 Eu288 2.488 . S
O309 C297 1.249 . S
O310 Eu288 2.471 . S
O310 C297 1.244 . S
O311 Eu288 2.349 1_455 S
O311 C290 1.265 . S
C312 C313 1.379 . S
C312 C316 1.373 . S
C312 C318 1.505 . S
C313 C312 1.379 . S
C313 C315 1.369 . S
C313 H324 0.930 1_455 S
C314 C316 1.383 . S
C314 C317 1.382 . S
C314 H325 0.930 . S
C315 C313 1.369 . S
C315 C317 1.392 . S
C315 H326 0.930 1_455 S
C316 C312 1.373 . S
C316 C314 1.383 . S
C316 H327 0.931 . S
C317 C314 1.382 . S
C317 C315 1.392 . S
C318 Eu289 2.828 . S
C318 O302 1.249 . S
C318 O303 1.244 . S
C318 C312 1.505 . S
C319 O306 1.258 . S
C319 O307 1.242 . S
H320 C292 0.930 . S
H321 C293 0.930 . S
H322 C294 0.930 . S
H323 C295 0.931 . S
H324 C313 0.930 1_655 S
H325 C314 0.930 . S
H326 C315 0.930 1_655 S
H327 C316 0.931 . S
Eu328 C337 2.828 . S
Eu328 O339 2.392 . S
Eu328 O341 2.418 . S
Eu328 O346 2.373 . S
Eu328 O349 2.488 . S
Eu328 O350 2.471 . S
Eu328 O351 2.349 1_545 S
Eu329 O338 2.373 1_565 S
Eu329 O342 2.488 . S
Eu329 O343 2.471 1_565 S
Eu329 O344 2.349 1_565 S
Eu329 O347 2.392 . S
Eu329 O348 2.418 . S
Eu329 C358 2.828 . S
C330 O348 1.244 . S
C330 O351 1.265 . S
C331 C332 1.379 1_545 S
C331 C335 1.373 . S
C331 C337 1.505 . S
C332 C331 1.379 1_565 S
C332 C334 1.369 . S
C332 H360 0.930 . S
C333 C335 1.383 . S
C333 C336 1.382 . S
C333 H361 0.930 . S
C334 C332 1.369 . S
C334 C336 1.392 1_565 S
C334 H362 0.930 . S
C335 C331 1.373 . S
C335 C333 1.383 . S
C335 H363 0.931 . S
C336 C333 1.382 . S
C336 C334 1.392 1_545 S
C337 Eu328 2.828 . S
C337 C331 1.505 . S
C337 O349 1.249 . S
C337 O350 1.244 . S
O338 Eu329 2.373 1_545 S
O338 C340 1.258 . S
O339 Eu328 2.392 . S
O339 C340 1.242 . S
C340 O338 1.258 . S
C340 O339 1.242 . S
O341 Eu328 2.418 . S
O341 C345 1.244 . S
O342 Eu329 2.488 . S
O342 C358 1.249 . S
O343 Eu329 2.471 1_545 S
O343 C358 1.244 1_545 S
O344 Eu329 2.349 1_545 S
O344 C345 1.265 . S
C345 O341 1.244 . S
C345 O344 1.265 . S
O346 Eu328 2.373 . S
O346 C359 1.258 1_545 S
O347 Eu329 2.392 . S
O347 C359 1.242 . S
O348 Eu329 2.418 . S
O348 C330 1.244 . S
O349 Eu328 2.488 . S
O349 C337 1.249 . S
O350 Eu328 2.471 . S
O350 C337 1.244 . S
O351 Eu328 2.349 1_565 S
O351 C330 1.265 . S
C352 C353 1.379 1_565 S
C352 C356 1.373 . S
C352 C358 1.505 . S
C353 C352 1.379 1_545 S
C353 C355 1.369 . S
C353 H364 0.930 . S
C354 C356 1.383 . S
C354 C357 1.382 . S
C354 H365 0.930 . S
C355 C353 1.369 . S
C355 C357 1.392 1_545 S
C355 H366 0.930 . S
C356 C352 1.373 . S
C356 C354 1.383 . S
C356 H367 0.931 . S
C357 C354 1.382 . S
C357 C355 1.392 1_565 S
C358 Eu329 2.828 . S
C358 O342 1.249 . S
C358 O343 1.244 1_565 S
C358 C352 1.505 . S
C359 O346 1.258 1_565 S
C359 O347 1.242 . S
H360 C332 0.930 . S
H361 C333 0.930 . S
H362 C334 0.930 . S
H363 C335 0.931 . S
H364 C353 0.930 . S
H365 C354 0.930 . S
H366 C355 0.930 . S
H367 C356 0.931 . S
Eu368 C377 2.828 . S
Eu368 O379 2.392 . S
Eu368 O381 2.418 . S
Eu368 O386 2.373 . S
Eu368 O389 2.488 . S
Eu368 O390 2.471 . S
Eu368 O391 2.349 . S
Eu369 O378 2.373 . S
Eu369 O382 2.488 . S
Eu369 O383 2.471 . S
Eu369 O384 2.349 . S
Eu369 O387 2.392 . S
Eu369 O388 2.418 . S
Eu369 C398 2.828 . S
C370 O388 1.244 . S
C370 O391 1.265 . S
C371 C372 1.379 . S
C371 C375 1.373 . S
C371 C377 1.505 . S
C372 C371 1.379 . S
C372 C374 1.369 . S
C372 H400 0.930 . S
C373 C375 1.383 . S
C373 C376 1.382 . S
C373 H401 0.930 . S
C374 C372 1.369 . S
C374 C376 1.392 . S
C374 H402 0.930 . S
C375 C371 1.373 . S
C375 C373 1.383 . S
C375 H403 0.931 . S
C376 C373 1.382 . S
C376 C374 1.392 . S
C377 Eu368 2.828 . S
C377 C371 1.505 . S
C377 O389 1.249 . S
C377 O390 1.244 . S
O378 Eu369 2.373 . S
O378 C380 1.258 . S
O379 Eu368 2.392 . S
O379 C380 1.242 . S
C380 O378 1.258 . S
C380 O379 1.242 . S
O381 Eu368 2.418 . S
O381 C385 1.244 . S
O382 Eu369 2.488 . S
O382 C398 1.249 . S
O383 Eu369 2.471 . S
O383 C398 1.244 . S
O384 Eu369 2.349 . S
O384 C385 1.265 . S
C385 O381 1.244 . S
C385 O384 1.265 . S
O386 Eu368 2.373 . S
O386 C399 1.258 . S
O387 Eu369 2.392 . S
O387 C399 1.242 . S
O388 Eu369 2.418 . S
O388 C370 1.244 . S
O389 Eu368 2.488 . S
O389 C377 1.249 . S
O390 Eu368 2.471 . S
O390 C377 1.244 . S
O391 Eu368 2.349 . S
O391 C370 1.265 . S
C392 C393 1.379 . S
C392 C396 1.373 . S
C392 C398 1.505 . S
C393 C392 1.379 . S
C393 C395 1.369 . S
C393 H404 0.930 . S
C394 C396 1.383 . S
C394 C397 1.382 . S
C394 H405 0.930 . S
C395 C393 1.369 . S
C395 C397 1.392 . S
C395 H406 0.930 . S
C396 C392 1.373 . S
C396 C394 1.383 . S
C396 H407 0.931 . S
C397 C394 1.382 . S
C397 C395 1.392 . S
C398 Eu369 2.828 . S
C398 O382 1.249 . S
C398 O383 1.244 . S
C398 C392 1.505 . S
C399 O386 1.258 . S
C399 O387 1.242 . S
H400 C372 0.930 . S
H401 C373 0.930 . S
H402 C374 0.930 . S
H403 C375 0.931 . S
H404 C393 0.930 . S
H405 C394 0.930 . S
H406 C395 0.930 . S
H407 C396 0.931 . S
Eu408 C417 2.828 . S
Eu408 O419 2.392 . S
Eu408 O421 2.418 1_455 S
Eu408 O426 2.373 . S
Eu408 O429 2.488 . S
Eu408 O430 2.471 . S
Eu408 O431 2.349 . S
Eu409 O418 2.373 . S
Eu409 O422 2.488 . S
Eu409 O423 2.471 . S
Eu409 O424 2.349 . S
Eu409 O427 2.392 1_655 S
Eu409 O428 2.418 1_655 S
Eu409 C438 2.828 . S
C410 O428 1.244 . S
C410 O431 1.265 . S
C411 C412 1.379 . S
C411 C415 1.373 . S
C411 C417 1.505 . S
C412 C411 1.379 . S
C412 C414 1.369 . S
C412 H440 0.930 . S
C413 C415 1.383 . S
C413 C416 1.382 . S
C413 H441 0.930 . S
C414 C412 1.369 . S
C414 C416 1.392 . S
C414 H442 0.930 . S
C415 C411 1.373 . S
C415 C413 1.383 . S
C415 H443 0.931 . S
C416 C413 1.382 . S
C416 C414 1.392 . S
C417 Eu408 2.828 . S
C417 C411 1.505 . S
C417 O429 1.249 . S
C417 O430 1.244 . S
O418 Eu409 2.373 . S
O418 C420 1.258 1_655 S
O419 Eu408 2.392 . S
O419 C420 1.242 . S
C420 O418 1.258 1_455 S
C420 O419 1.242 . S
O421 Eu408 2.418 1_655 S
O421 C425 1.244 . S
O422 Eu409 2.488 . S
O422 C438 1.249 . S
O423 Eu409 2.471 . S
O423 C438 1.244 . S
O424 Eu409 2.349 . S
O424 C425 1.265 . S
C425 O421 1.244 . S
C425 O424 1.265 . S
O426 Eu408 2.373 . S
O426 C439 1.258 . S
O427 Eu409 2.392 1_455 S
O427 C439 1.242 . S
O428 Eu409 2.418 1_455 S
O428 C410 1.244 . S
O429 Eu408 2.488 . S
O429 C417 1.249 . S
O430 Eu408 2.471 . S
O430 C417 1.244 . S
O431 Eu408 2.349 . S
O431 C410 1.265 . S
C432 C433 1.379 . S
C432 C436 1.373 . S
C432 C438 1.505 . S
C433 C432 1.379 . S
C433 C435 1.369 . S
C433 H444 0.930 . S
C434 C436 1.383 . S
C434 C437 1.382 . S
C434 H445 0.930 . S
C435 C433 1.369 . S
C435 C437 1.392 . S
C435 H446 0.930 . S
C436 C432 1.373 . S
C436 C434 1.383 . S
C436 H447 0.931 . S
C437 C434 1.382 . S
C437 C435 1.392 . S
C438 Eu409 2.828 . S
C438 O422 1.249 . S
C438 O423 1.244 . S
C438 C432 1.505 . S
C439 O426 1.258 . S
C439 O427 1.242 . S
H440 C412 0.930 . S
H441 C413 0.930 . S
H442 C414 0.930 . S
H443 C415 0.931 . S
H444 C433 0.930 . S
H445 C434 0.930 . S
H446 C435 0.930 . S
H447 C436 0.931 . S
H448 C460 0.930 . S
H449 C462 0.930 . S
H450 C463 0.930 . S
H451 C467 0.959 1_545 S
H452 C467 0.959 . S
H453 C467 0.961 . S
H454 C468 0.960 . S
H455 C468 0.961 . S
H456 C468 0.959 . S
H457 C471 0.929 . S
H458 C472 0.931 . S
H459 C474 0.930 1_565 S
C460 H448 0.930 . S
C460 C461 1.399 . S
C460 C465 1.399 . S
C461 C460 1.399 . S
C461 C462 1.376 . S
C462 H449 0.930 . S
C462 C461 1.376 . S
C462 C463 1.388 . S
C463 H450 0.930 . S
C463 C462 1.388 . S
C463 C464 1.390 . S
C464 C463 1.390 . S
C464 C465 1.394 . S
C464 C470 1.465 . S
C465 C460 1.399 . S
C465 C464 1.394 . S
C465 C466 1.516 . S
C466 C465 1.516 . S
C466 C467 1.502 1_545 S
C466 C468 1.561 1_545 S
C466 C469 1.526 . S
C467 H451 0.959 1_565 S
C467 H452 0.959 . S
C467 H453 0.961 . S
C467 C466 1.502 1_565 S
C468 H454 0.960 . S
C468 H455 0.961 . S
C468 H456 0.959 . S
C468 C466 1.561 1_565 S
C469 C466 1.526 . S
C469 C470 1.396 . S
C469 C474 1.390 . S
C470 C464 1.465 . S
C470 C469 1.396 . S
C470 C471 1.399 . S
C471 H457 0.929 . S
C471 C470 1.399 . S
C471 C472 1.385 . S
C472 H458 0.931 . S
C472 C471 1.385 . S
C472 C473 1.389 . S
C473 C472 1.389 . S
C473 C474 1.387 . S
C474 H459 0.930 1_545 S
C474 C469 1.390 . S
C474 C473 1.387 . S
H475 C487 0.930 . S
H476 C489 0.930 . S
H477 C490 0.930 . S
H478 C494 0.959 . S
H479 C494 0.959 . S
H480 C494 0.961 . S
H481 C495 0.960 . S
H482 C495 0.961 . S
H483 C495 0.959 . S
H484 C498 0.929 . S
H485 C499 0.931 . S
H486 C501 0.930 . S
C487 H475 0.930 . S
C487 C488 1.399 . S
C487 C492 1.399 . S
C488 C487 1.399 . S
C488 C489 1.376 . S
C489 H476 0.930 . S
C489 C488 1.376 . S
C489 C490 1.388 . S
C490 H477 0.930 . S
C490 C489 1.388 . S
C490 C491 1.390 . S
C491 C490 1.390 . S
C491 C492 1.394 . S
C491 C497 1.465 . S
C492 C487 1.399 . S
C492 C491 1.394 . S
C492 C493 1.516 . S
C493 C492 1.516 . S
C493 C494 1.502 . S
C493 C495 1.561 . S
C493 C496 1.526 . S
C494 H478 0.959 . S
C494 H479 0.959 . S
C494 H480 0.961 . S
C494 C493 1.502 . S
C495 H481 0.960 . S
C495 H482 0.961 . S
C495 H483 0.959 . S
C495 C493 1.561 . S
C496 C493 1.526 . S
C496 C497 1.396 . S
C496 C501 1.390 . S
C497 C491 1.465 . S
C497 C496 1.396 . S
C497 C498 1.399 . S
C498 H484 0.929 . S
C498 C497 1.399 . S
C498 C499 1.385 . S
C499 H485 0.931 . S
C499 C498 1.385 . S
C499 C500 1.389 . S
C500 C499 1.389 . S
C500 C501 1.387 . S
C501 H486 0.930 . S
C501 C496 1.390 . S
C501 C500 1.387 . S
H502 C514 0.930 . S
H503 C516 0.930 . S
H504 C517 0.930 . S
H505 C521 0.959 . S
H506 C521 0.959 . S
H507 C521 0.961 . S
H508 C522 0.960 . S
H509 C522 0.961 . S
H510 C522 0.959 . S
H511 C525 0.929 . S
H512 C526 0.931 . S
H513 C528 0.930 . S
C514 H502 0.930 . S
C514 C515 1.399 . S
C514 C519 1.399 . S
C515 C514 1.399 . S
C515 C516 1.376 . S
C516 H503 0.930 . S
C516 C515 1.376 . S
C516 C517 1.388 . S
C517 H504 0.930 . S
C517 C516 1.388 . S
C517 C518 1.390 . S
C518 C517 1.390 . S
C518 C519 1.394 . S
C518 C524 1.465 . S
C519 C514 1.399 . S
C519 C518 1.394 . S
C519 C520 1.516 . S
C520 C519 1.516 . S
C520 C521 1.502 . S
C520 C522 1.561 . S
C520 C523 1.526 . S
C521 H505 0.959 . S
C521 H506 0.959 . S
C521 H507 0.961 . S
C521 C520 1.502 . S
C522 H508 0.960 . S
C522 H509 0.961 . S
C522 H510 0.959 . S
C522 C520 1.561 . S
C523 C520 1.526 . S
C523 C524 1.396 . S
C523 C528 1.390 . S
C524 C518 1.465 . S
C524 C523 1.396 . S
C524 C525 1.399 . S
C525 H511 0.929 . S
C525 C524 1.399 . S
C525 C526 1.385 . S
C526 H512 0.931 . S
C526 C525 1.385 . S
C526 C527 1.389 . S
C527 C526 1.389 . S
C527 C528 1.387 . S
C528 H513 0.930 . S
C528 C523 1.390 . S
C528 C527 1.387 . S
H529 C541 0.930 . S
H530 C543 0.930 . S
H531 C544 0.930 . S
H532 C548 0.959 1_655 S
H533 C548 0.959 . S
H534 C548 0.961 . S
H535 C549 0.960 . S
H536 C549 0.961 . S
H537 C549 0.959 . S
H538 C552 0.929 . S
H539 C553 0.931 . S
H540 C555 0.930 . S
C541 H529 0.930 . S
C541 C542 1.399 . S
C541 C546 1.399 . S
C542 C541 1.399 . S
C542 C543 1.376 . S
C543 H530 0.930 . S
C543 C542 1.376 . S
C543 C544 1.388 . S
C544 H531 0.930 . S
C544 C543 1.388 . S
C544 C545 1.390 . S
C545 C544 1.390 . S
C545 C546 1.394 . S
C545 C551 1.465 . S
C546 C541 1.399 . S
C546 C545 1.394 . S
C546 C547 1.516 . S
C547 C546 1.516 . S
C547 C548 1.502 . S
C547 C549 1.561 . S
C547 C550 1.526 . S
C548 H532 0.959 1_455 S
C548 H533 0.959 . S
C548 H534 0.961 . S
C548 C547 1.502 . S
C549 H535 0.960 . S
C549 H536 0.961 . S
C549 H537 0.959 . S
C549 C547 1.561 . S
C550 C547 1.526 . S
C550 C551 1.396 . S
C550 C555 1.390 . S
C551 C545 1.465 . S
C551 C550 1.396 . S
C551 C552 1.399 . S
C552 H538 0.929 . S
C552 C551 1.399 . S
C552 C553 1.385 . S
C553 H539 0.931 . S
C553 C552 1.385 . S
C553 C554 1.389 . S
C554 C553 1.389 . S
C554 C555 1.387 . S
C555 H540 0.930 . S
C555 C550 1.390 . S
C555 C554 1.387 . S
H556 C568 0.930 . S
H557 C570 0.930 . S
H558 C571 0.930 . S
H559 C575 0.959 . S
H560 C575 0.959 . S
H561 C575 0.961 . S
H562 C576 0.960 1_554 S
H563 C576 0.961 . S
H564 C576 0.959 . S
H565 C579 0.929 . S
H566 C580 0.931 . S
H567 C582 0.911 1_545 S
C568 H556 0.930 . S
C568 C569 1.399 . S
C568 C573 1.399 . S
C569 C568 1.399 . S
C569 C570 1.376 . S
C570 H557 0.930 . S
C570 C569 1.376 . S
C570 C571 1.388 . S
C571 H558 0.930 . S
C571 C570 1.388 . S
C571 C572 1.390 . S
C572 C571 1.390 . S
C572 C573 1.394 . S
C572 C578 1.465 1_554 S
C573 C568 1.399 . S
C573 C572 1.394 . S
C573 C574 1.516 1_554 S
C574 C573 1.516 1_556 S
C574 C575 1.502 . S
C574 C576 1.561 1_565 S
C574 C577 1.526 . S
C575 H559 0.959 . S
C575 H560 0.959 . S
C575 H561 0.961 . S
C575 C574 1.502 . S
C576 H562 0.960 1_556 S
C576 H563 0.961 . S
C576 H564 0.959 . S
C576 C574 1.561 1_545 S
C577 C574 1.526 . S
C577 C578 1.396 . S
C577 C582 1.390 . S
C578 C572 1.465 1_556 S
C578 C577 1.396 . S
C578 C579 1.399 . S
C579 H565 0.929 . S
C579 C578 1.399 . S
C579 C580 1.385 . S
C580 H566 0.931 . S
C580 C579 1.385 . S
C580 C581 1.389 . S
C581 C580 1.389 . S
C581 C582 1.387 . S
C582 H567 0.911 1_565 S
C582 C577 1.390 . S
C582 C581 1.387 . S
H583 C595 0.930 . S
H584 C597 0.930 . S
H585 C598 0.930 . S
H586 C602 0.959 . S
H587 C602 0.959 . S
H588 C602 0.961 . S
H589 C603 0.960 . S
H590 C603 0.961 . S
H591 C603 0.959 . S
H592 C606 0.929 . S
H593 C607 0.931 . S
H594 C609 0.930 . S
C595 H583 0.930 . S
C595 C596 1.399 . S
C595 C600 1.399 1_554 S
C596 C595 1.399 . S
C596 C597 1.376 . S
C597 H584 0.930 . S
C597 C596 1.376 . S
C597 C598 1.388 . S
C598 H585 0.930 . S
C598 C597 1.388 . S
C598 C599 1.390 1_554 S
C599 C598 1.390 1_556 S
C599 C600 1.394 . S
C599 C605 1.465 . S
C600 C595 1.399 1_556 S
C600 C599 1.394 . S
C600 C601 1.516 . S
C601 C600 1.516 . S
C601 C602 1.502 . S
C601 C603 1.561 . S
C601 C604 1.526 . S
C602 H586 0.959 . S
C602 H587 0.959 . S
C602 H588 0.961 . S
C602 C601 1.502 . S
C603 H589 0.960 . S
C603 H590 0.961 . S
C603 H591 0.959 . S
C603 C601 1.561 . S
C604 C601 1.526 . S
C604 C605 1.396 . S
C604 C609 1.390 . S
C605 C599 1.465 . S
C605 C604 1.396 . S
C605 C606 1.399 . S
C606 H592 0.929 . S
C606 C605 1.399 . S
C606 C607 1.385 . S
C607 H593 0.931 . S
C607 C606 1.385 . S
C607 C608 1.389 . S
C608 C607 1.389 . S
C608 C609 1.387 . S
C609 H594 0.930 . S
C609 C604 1.390 . S
C609 C608 1.387 . S
H610 C622 0.930 . S
H611 C624 0.930 . S
H612 C625 0.930 . S
H613 C629 0.959 . S
H614 C629 0.959 . S
H615 C629 0.961 . S
H616 C630 0.960 . S
H617 C630 0.961 . S
H618 C630 0.959 . S
H619 C633 0.929 . S
H620 C634 0.931 . S
H621 C636 0.930 . S
C622 H610 0.930 . S
C622 C623 1.399 . S
C622 C627 1.399 1_554 S
C623 C622 1.399 . S
C623 C624 1.376 . S
C624 H611 0.930 . S
C624 C623 1.376 . S
C624 C625 1.389 1_554 S
C625 H612 0.930 . S
C625 C624 1.389 1_556 S
C625 C626 1.390 . S
C626 C625 1.390 . S
C626 C627 1.394 . S
C626 C632 1.465 . S
C627 C622 1.399 1_556 S
C627 C626 1.394 . S
C627 C628 1.516 . S
C628 C627 1.516 . S
C628 C629 1.502 . S
C628 C630 1.561 . S
C628 C631 1.526 . S
C629 H613 0.959 . S
C629 H614 0.959 . S
C629 H615 0.961 . S
C629 C628 1.502 . S
C630 H616 0.960 . S
C630 H617 0.961 . S
C630 H618 0.959 . S
C630 C628 1.561 . S
C631 C628 1.526 . S
C631 C632 1.396 . S
C631 C636 1.390 . S
C632 C626 1.465 . S
C632 C631 1.396 . S
C632 C633 1.399 . S
C633 H619 0.929 . S
C633 C632 1.399 . S
C633 C634 1.385 . S
C634 H620 0.931 . S
C634 C633 1.385 . S
C634 C635 1.389 . S
C635 C634 1.389 . S
C635 C636 1.387 . S
C636 H621 0.930 . S
C636 C631 1.390 . S
C636 C635 1.387 . S
H637 C649 0.930 . S
H638 C651 0.930 . S
H639 C652 0.930 1_455 S
H640 C656 0.959 . S
H641 C656 0.959 . S
H642 C656 0.961 . S
H643 C657 0.960 . S
H644 C657 0.961 . S
H645 C657 0.959 . S
H646 C660 0.929 . S
H647 C661 0.931 . S
H648 C663 0.930 . S
C649 H637 0.930 . S
C649 C650 1.399 . S
C649 C654 1.399 1_554 S
C650 C649 1.399 . S
C650 C651 1.376 . S
C651 H638 0.930 . S
C651 C650 1.376 . S
C651 C652 1.388 . S
C652 H639 0.930 1_655 S
C652 C651 1.388 . S
C652 C653 1.390 . S
C653 C652 1.390 . S
C653 C654 1.394 1_554 S
C653 C659 1.465 1_554 S
C654 C649 1.399 1_556 S
C654 C653 1.394 1_556 S
C654 C655 1.516 . S
C655 C654 1.516 . S
C655 C656 1.502 . S
C655 C657 1.561 . S
C655 C658 1.526 . S
C656 H640 0.959 . S
C656 H641 0.959 . S
C656 H642 0.961 . S
C656 C655 1.502 . S
C657 H643 0.960 . S
C657 H644 0.961 . S
C657 H645 0.959 . S
C657 C655 1.561 . S
C658 C655 1.526 . S
C658 C659 1.396 . S
C658 C663 1.390 . S
C659 C653 1.465 1_556 S
C659 C658 1.396 . S
C659 C660 1.399 1_655 S
C660 H646 0.929 . S
C660 C659 1.399 1_455 S
C660 C661 1.385 . S
C661 H647 0.931 . S
C661 C660 1.385 . S
C661 C662 1.389 1_455 S
C662 C661 1.389 1_655 S
C662 C663 1.387 . S
C663 H648 0.930 . S
C663 C658 1.390 . S
C663 C662 1.387 . S
H664 C676 0.930 . S
H665 C678 0.930 . S
H666 C679 0.930 . S
H667 C683 0.959 . S
H668 C683 0.959 . S
H669 C683 0.961 . S
H670 C684 0.960 . S
H671 C684 0.961 . S
H672 C684 0.990 . S
H673 C687 0.929 . S
H674 C688 0.931 . S
H675 C690 0.930 . S
C676 H664 0.930 . S
C676 C677 1.399 . S
C676 C681 1.399 . S
C677 C676 1.399 . S
C677 C678 1.376 . S
C678 H665 0.930 . S
C678 C677 1.376 . S
C678 C679 1.388 . S
C679 H666 0.930 . S
C679 C678 1.388 . S
C679 C680 1.390 . S
C680 C679 1.390 . S
C680 C681 1.394 . S
C680 C686 1.465 . S
C681 C676 1.399 . S
C681 C680 1.394 . S
C681 C682 1.516 . S
C682 C681 1.516 . S
C682 C683 1.502 . S
C682 C684 1.561 . S
C682 C685 1.526 . S
C683 H667 0.959 . S
C683 H668 0.959 . S
C683 H669 0.961 . S
C683 C682 1.502 . S
C684 H670 0.960 . S
C684 H671 0.961 . S
C684 H672 0.990 . S
C684 C682 1.561 . S
C685 C682 1.526 . S
C685 C686 1.396 . S
C685 C690 1.390 . S
C686 C680 1.465 . S
C686 C685 1.396 . S
C686 C687 1.399 . S
C687 H673 0.929 . S
C687 C686 1.399 . S
C687 C688 1.385 1_455 S
C688 H674 0.931 . S
C688 C687 1.385 1_655 S
C688 C689 1.389 . S
C689 C688 1.389 . S
C689 C690 1.387 1_655 S
C690 H675 0.930 . S
C690 C685 1.390 . S
C690 C689 1.387 1_455 S
H691 C703 0.930 . S
H692 C705 0.930 . S
H693 C706 0.930 . S
H694 C710 0.959 . S
H695 C710 0.959 . S
H696 C710 0.961 . S
H697 C711 0.960 . S
H698 C711 0.961 . S
H699 C711 0.959 . S
H700 C714 0.929 . S
H701 C715 0.931 . S
H702 C717 0.930 . S
C703 H691 0.930 . S
C703 C704 1.399 . S
C703 C708 1.399 . S
C704 C703 1.399 . S
C704 C705 1.376 . S
C705 H692 0.930 . S
C705 C704 1.376 . S
C705 C706 1.388 . S
C706 H693 0.930 . S
C706 C705 1.388 . S
C706 C707 1.390 . S
C707 C706 1.390 . S
C707 C708 1.394 . S
C707 C713 1.465 . S
C708 C703 1.399 . S
C708 C707 1.394 . S
C708 C709 1.516 . S
C709 C708 1.516 . S
C709 C710 1.502 1_545 S
C709 C711 1.561 1_545 S
C709 C712 1.526 . S
C710 H694 0.959 . S
C710 H695 0.959 . S
C710 H696 0.961 . S
C710 C709 1.502 1_565 S
C711 H697 0.960 . S
C711 H698 0.961 . S
C711 H699 0.959 . S
C711 C709 1.561 1_565 S
C712 C709 1.526 . S
C712 C713 1.396 . S
C712 C717 1.390 1_545 S
C713 C707 1.465 . S
C713 C712 1.396 . S
C713 C714 1.399 . S
C714 H700 0.929 . S
C714 C713 1.399 . S
C714 C715 1.385 . S
C715 H701 0.931 . S
C715 C714 1.385 . S
C715 C716 1.372 1_545 S
C716 C715 1.372 1_565 S
C716 C717 1.392 . S
C717 H702 0.930 . S
C717 C712 1.390 1_565 S
C717 C716 1.392 . S
H718 C730 0.930 . S
H719 C732 0.930 . S
H720 C733 0.930 . S
H721 C737 0.959 . S
H722 C737 0.959 . S
H723 C737 0.961 . S
H724 C738 0.960 . S
H725 C738 0.961 . S
H726 C738 0.959 . S
H727 C741 0.929 . S
H728 C742 0.931 . S
H729 C744 0.930 . S
C730 H718 0.930 . S
C730 C731 1.399 . S
C730 C735 1.399 . S
C731 C730 1.399 . S
C731 C732 1.376 . S
C732 H719 0.930 . S
C732 C731 1.376 . S
C732 C733 1.388 . S
C733 H720 0.930 . S
C733 C732 1.388 . S
C733 C734 1.390 . S
C734 C733 1.390 . S
C734 C735 1.394 . S
C734 C740 1.465 . S
C735 C730 1.399 . S
C735 C734 1.394 . S
C735 C736 1.516 . S
C736 C735 1.516 . S
C736 C737 1.502 . S
C736 C738 1.561 . S
C736 C739 1.526 . S
C737 H721 0.959 . S
C737 H722 0.959 . S
C737 H723 0.961 . S
C737 C736 1.502 . S
C738 H724 0.960 . S
C738 H725 0.961 . S
C738 H726 0.959 . S
C738 C736 1.561 . S
C739 C736 1.526 . S
C739 C740 1.396 . S
C739 C744 1.390 . S
C740 C734 1.465 . S
C740 C739 1.396 . S
C740 C741 1.399 . S
C741 H727 0.929 . S
C741 C740 1.399 . S
C741 C742 1.385 . S
C742 H728 0.931 . S
C742 C741 1.385 . S
C742 C743 1.389 . S
C743 C742 1.389 . S
C743 C744 1.387 . S
C744 H729 0.930 . S
C744 C739 1.390 . S
C744 C743 1.387 . S
H745 C757 0.930 . S
H746 C759 0.930 . S
H747 C760 0.930 . S
H748 C764 0.959 . S
H749 C764 0.959 . S
H750 C764 0.961 . S
H751 C765 0.960 . S
H752 C765 0.961 . S
H753 C765 0.959 . S
H754 C768 0.929 . S
H755 C769 0.931 . S
H756 C771 0.930 . S
C757 H745 0.930 . S
C757 C758 1.399 . S
C757 C762 1.399 . S
C758 C757 1.399 . S
C758 C759 1.376 . S
C759 H746 0.930 . S
C759 C758 1.376 . S
C759 C760 1.388 . S
C760 H747 0.930 . S
C760 C759 1.388 . S
C760 C761 1.390 . S
C761 C760 1.390 . S
C761 C762 1.394 . S
C761 C767 1.465 . S
C762 C757 1.399 . S
C762 C761 1.394 . S
C762 C763 1.516 . S
C763 C762 1.516 . S
C763 C764 1.502 . S
C763 C765 1.561 . S
C763 C766 1.526 . S
C764 H748 0.959 . S
C764 H749 0.959 . S
C764 H750 0.961 . S
C764 C763 1.502 . S
C765 H751 0.960 . S
C765 H752 0.961 . S
C765 H753 0.959 . S
C765 C763 1.561 . S
C766 C763 1.526 . S
C766 C767 1.396 . S
C766 C771 1.390 . S
C767 C761 1.465 . S
C767 C766 1.396 . S
C767 C768 1.399 . S
C768 H754 0.929 . S
C768 C767 1.399 . S
C768 C769 1.385 . S
C769 H755 0.931 . S
C769 C768 1.385 . S
C769 C770 1.389 . S
C770 C769 1.389 . S
C770 C771 1.387 . S
C771 H756 0.930 . S
C771 C766 1.390 . S
C771 C770 1.387 . S
H772 C784 0.930 . S
H773 C786 0.930 . S
H774 C787 0.930 . S
H775 C791 0.959 1_554 S
H776 C791 0.959 . S
H777 C791 0.961 . S
H778 C792 0.960 . S
H779 C792 0.961 1_455 S
H780 C792 0.959 . S
H781 C795 0.929 . S
H782 C796 0.928 1_554 S
H783 C798 0.930 . S
C784 H772 0.930 . S
C784 C785 1.399 . S
C784 C789 1.399 . S
C785 C784 1.399 . S
C785 C786 1.376 . S
C786 H773 0.930 . S
C786 C785 1.376 . S
C786 C787 1.388 . S
C787 H774 0.930 . S
C787 C786 1.388 . S
C787 C788 1.390 . S
C788 C787 1.390 . S
C788 C789 1.394 . S
C788 C794 1.465 . S
C789 C784 1.399 . S
C789 C788 1.394 . S
C789 C790 1.519 1_654 S
C790 C789 1.519 1_456 S
C790 C791 1.498 . S
C790 C792 1.563 1_455 S
C790 C793 1.526 . S
C791 H775 0.959 1_556 S
C791 H776 0.959 . S
C791 H777 0.961 . S
C791 C790 1.498 . S
C792 H778 0.960 . S
C792 H779 0.961 1_655 S
C792 H780 0.959 . S
C792 C790 1.563 1_655 S
C793 C790 1.526 . S
C793 C794 1.396 1_456 S
C793 C798 1.390 . S
C794 C788 1.465 . S
C794 C793 1.396 1_654 S
C794 C795 1.399 . S
C795 H781 0.929 . S
C795 C794 1.399 . S
C795 C796 1.389 1_554 S
C796 H782 0.928 1_556 S
C796 C795 1.389 1_556 S
C796 C797 1.385 1_655 S
C797 C796 1.385 1_455 S
C797 C798 1.387 . S
C798 H783 0.930 . S
C798 C793 1.390 . S
C798 C797 1.387 . S
H799 C811 0.930 . S
H800 C813 0.930 . S
H801 C814 0.930 1_545 S
H802 C818 0.959 . S
H803 C818 0.959 . S
H804 C818 0.961 . S
H805 C819 0.960 . S
H806 C819 0.961 . S
H807 C819 0.959 1_554 S
H808 C822 0.929 . S
H809 C823 0.931 . S
H810 C825 0.930 . S
C811 H799 0.930 . S
C811 C812 1.399 . S
C811 C816 1.393 1_554 S
C812 C811 1.399 . S
C812 C813 1.376 . S
C813 H800 0.930 . S
C813 C812 1.376 . S
C813 C814 1.388 . S
C814 H801 0.930 1_565 S
C814 C813 1.388 . S
C814 C815 1.390 . S
C815 C814 1.390 . S
C815 C816 1.391 1_554 S
C815 C821 1.471 1_554 S
C816 C811 1.393 1_556 S
C816 C815 1.391 1_556 S
C816 C817 1.526 . S
C817 C816 1.526 . S
C817 C818 1.502 . S
C817 C819 1.561 . S
C817 C820 1.526 . S
C818 H802 0.959 . S
C818 H803 0.959 . S
C818 H804 0.961 . S
C818 C817 1.502 . S
C819 H805 0.960 . S
C819 H806 0.961 . S
C819 H807 0.959 1_556 S
C819 C817 1.561 . S
C820 C817 1.526 . S
C820 C821 1.404 . S
C820 C825 1.390 . S
C821 C815 1.471 1_556 S
C821 C820 1.404 . S
C821 C822 1.387 1_565 S
C822 H808 0.929 . S
C822 C821 1.387 1_545 S
C822 C823 1.385 . S
C823 H809 0.931 . S
C823 C822 1.385 . S
C823 C824 1.389 . S
C824 C823 1.389 . S
C824 C825 1.387 1_545 S
C825 H810 0.930 . S
C825 C820 1.390 . S
C825 C824 1.387 1_565 S
H826 C838 0.930 . S
H827 C840 0.930 . S
H828 C841 0.930 . S
H829 C845 0.959 . S
H830 C845 0.959 . S
H831 C845 0.961 . S
H832 C846 0.960 . S
H833 C846 0.961 . S
H834 C846 0.959 . S
H835 C849 0.929 . S
H836 C850 0.931 . S
H837 C852 0.930 . S
C838 H826 0.930 . S
C838 C839 1.399 . S
C838 C843 1.399 1_554 S
C839 C838 1.399 . S
C839 C840 1.377 . S
C840 H827 0.930 . S
C840 C839 1.377 . S
C840 C841 1.388 1_554 S
C841 H828 0.930 . S
C841 C840 1.388 1_556 S
C841 C842 1.390 . S
C842 C841 1.390 . S
C842 C843 1.394 . S
C842 C848 1.465 . S
C843 C838 1.399 1_556 S
C843 C842 1.394 . S
C843 C844 1.516 . S
C844 C843 1.516 . S
C844 C845 1.502 . S
C844 C846 1.561 1_556 S
C844 C847 1.526 . S
C845 H829 0.959 . S
C845 H830 0.959 . S
C845 H831 0.961 . S
C845 C844 1.502 . S
C846 H832 0.960 . S
C846 H833 0.961 . S
C846 H834 0.959 . S
C846 C844 1.561 1_554 S
C847 C844 1.526 . S
C847 C848 1.396 . S
C847 C852 1.390 . S
C848 C842 1.465 . S
C848 C847 1.396 . S
C848 C849 1.399 . S
C849 H835 0.929 . S
C849 C848 1.399 . S
C849 C850 1.385 . S
C850 H836 0.931 . S
C850 C849 1.385 . S
C850 C851 1.389 . S
C851 C850 1.389 . S
C851 C852 1.387 . S
C852 H837 0.930 . S
C852 C847 1.390 . S
C852 C851 1.387 . S
H853 C865 0.930 . S
H854 C867 0.930 . S
H855 C868 0.930 . S
H856 C872 0.959 . S
H857 C872 0.959 . S
H858 C872 0.961 . S
H859 C873 0.960 . S
H860 C873 0.961 . S
H861 C873 0.959 . S
H862 C876 0.929 . S
H863 C877 0.940 . S
H864 C879 0.930 . S
C865 H853 0.930 . S
C865 C866 1.399 1_556 S
C865 C870 1.399 . S
C866 C865 1.399 1_554 S
C866 C867 1.376 . S
C867 H854 0.930 . S
C867 C866 1.376 . S
C867 C868 1.388 . S
C868 H855 0.930 . S
C868 C867 1.388 . S
C868 C869 1.390 . S
C869 C868 1.390 . S
C869 C870 1.394 1_554 S
C869 C875 1.465 1_554 S
C870 C865 1.399 . S
C870 C869 1.394 1_556 S
C870 C871 1.516 . S
C871 C870 1.516 . S
C871 C872 1.502 . S
C871 C873 1.561 . S
C871 C874 1.526 . S
C872 H856 0.959 . S
C872 H857 0.959 . S
C872 H858 0.961 . S
C872 C871 1.502 . S
C873 H859 0.960 . S
C873 H860 0.961 . S
C873 H861 0.959 . S
C873 C871 1.561 . S
C874 C871 1.526 . S
C874 C875 1.396 . S
C874 C879 1.390 . S
C875 C869 1.465 1_556 S
C875 C874 1.396 . S
C875 C876 1.399 1_556 S
C876 H862 0.929 . S
C876 C875 1.399 1_554 S
C876 C877 1.396 . S
C877 H863 0.940 . S
C877 C876 1.396 . S
C877 C878 1.370 1_554 S
C878 C877 1.370 1_556 S
C878 C879 1.387 . S
C879 H864 0.930 . S
C879 C874 1.390 . S
C879 C878 1.387 . S
H880 C892 0.930 . S
H881 C894 0.930 . S
H882 C895 0.930 . S
H883 C899 0.961 1_455 S
H884 C899 0.959 . S
H885 C899 0.961 . S
H886 C900 0.960 . S
H887 C900 0.961 . S
H888 C900 0.959 1_455 S
H889 C903 0.929 . S
H890 C904 0.931 . S
H891 C906 0.928 1_655 S
C892 H880 0.930 . S
C892 C893 1.399 . S
C892 C897 1.399 . S
C893 C892 1.399 . S
C893 C894 1.376 . S
C894 H881 0.930 . S
C894 C893 1.376 . S
C894 C895 1.388 . S
C895 H882 0.930 . S
C895 C894 1.388 . S
C895 C896 1.390 . S
C896 C895 1.390 . S
C896 C897 1.394 . S
C896 C902 1.465 . S
C897 C892 1.399 . S
C897 C896 1.394 . S
C897 C898 1.516 . S
C898 C897 1.516 . S
C898 C899 1.502 1_455 S
C898 C900 1.561 1_455 S
C898 C901 1.526 . S
C899 H883 0.961 1_655 S
C899 H884 0.959 . S
C899 H885 0.961 . S
C899 C898 1.502 1_655 S
C900 H886 0.960 . S
C900 H887 0.961 . S
C900 H888 0.959 1_655 S
C900 C898 1.561 1_655 S
C901 C898 1.526 . S
C901 C902 1.396 . S
C901 C906 1.390 . S
C902 C896 1.465 . S
C902 C901 1.396 . S
C902 C903 1.399 . S
C903 H889 0.929 . S
C903 C902 1.399 . S
C903 C904 1.385 . S
C904 H890 0.931 . S
C904 C903 1.385 . S
C904 C905 1.389 . S
C905 C904 1.389 . S
C905 C906 1.387 . S
C906 H891 0.928 1_455 S
C906 C901 1.390 . S
C906 C905 1.387 . S
H907 C919 0.930 . S
H908 C921 0.930 . S
H909 C922 0.930 . S
H910 C926 0.959 . S
H911 C926 0.959 . S
H912 C926 0.961 . S
H913 C927 0.960 . S
H914 C927 0.961 . S
H915 C927 0.959 . S
H916 C930 0.929 . S
H917 C931 0.931 . S
H918 C933 0.930 . S
C919 H907 0.930 . S
C919 C920 1.399 . S
C919 C924 1.399 . S
C920 C919 1.399 . S
C920 C921 1.376 . S
C921 H908 0.930 . S
C921 C920 1.376 . S
C921 C922 1.388 . S
C922 H909 0.930 . S
C922 C921 1.388 . S
C922 C923 1.390 . S
C923 C922 1.390 . S
C923 C924 1.394 . S
C923 C929 1.465 . S
C924 C919 1.399 . S
C924 C923 1.394 . S
C924 C925 1.516 . S
C925 C924 1.516 . S
C925 C926 1.502 . S
C925 C927 1.561 . S
C925 C928 1.526 . S
C926 H910 0.959 . S
C926 H911 0.959 . S
C926 H912 0.961 . S
C926 C925 1.502 . S
C927 H913 0.960 . S
C927 H914 0.961 . S
C927 H915 0.959 . S
C927 C925 1.561 . S
C928 C925 1.526 . S
C928 C929 1.396 . S
C928 C933 1.390 . S
C929 C923 1.465 . S
C929 C928 1.396 . S
C929 C930 1.399 . S
C930 H916 0.929 . S
C930 C929 1.399 . S
C930 C931 1.385 . S
C931 H917 0.931 . S
C931 C930 1.385 . S
C931 C932 1.389 . S
C932 C931 1.389 . S
C932 C933 1.387 . S
C933 H918 0.930 . S
C933 C928 1.390 . S
C933 C932 1.387 . S
H934 C946 0.930 . S
H935 C948 0.930 . S
H936 C949 0.930 . S
H937 C953 0.959 . S
H938 C953 0.959 . S
H939 C953 0.961 . S
H940 C954 0.960 . S
H941 C954 0.961 . S
H942 C954 0.959 . S
H943 C957 0.929 . S
H944 C958 0.931 . S
H945 C960 0.930 . S
C946 H934 0.930 . S
C946 C947 1.399 . S
C946 C951 1.399 . S
C947 C946 1.399 . S
C947 C948 1.376 . S
C948 H935 0.930 . S
C948 C947 1.376 . S
C948 C949 1.388 . S
C949 H936 0.930 . S
C949 C948 1.388 . S
C949 C950 1.390 . S
C950 C949 1.390 . S
C950 C951 1.394 . S
C950 C956 1.465 . S
C951 C946 1.399 . S
C951 C950 1.394 . S
C951 C952 1.516 . S
C952 C951 1.516 . S
C952 C953 1.502 . S
C952 C954 1.561 . S
C952 C955 1.526 . S
C953 H937 0.959 . S
C953 H938 0.959 . S
C953 H939 0.961 . S
C953 C952 1.502 . S
C954 H940 0.960 . S
C954 H941 0.961 . S
C954 H942 0.959 . S
C954 C952 1.561 . S
C955 C952 1.526 . S
C955 C956 1.396 . S
C955 C960 1.390 . S
C956 C950 1.465 . S
C956 C955 1.396 . S
C956 C957 1.399 . S
C957 H943 0.929 . S
C957 C956 1.399 . S
C957 C958 1.385 . S
C958 H944 0.931 . S
C958 C957 1.385 . S
C958 C959 1.389 . S
C959 C958 1.389 . S
C959 C960 1.387 . S
C960 H945 0.930 . S
C960 C955 1.390 . S
C960 C959 1.387 . S
H961 C973 0.930 . S
H962 C975 0.930 . S
H963 C976 0.930 . S
H964 C980 0.959 . S
H965 C980 0.959 . S
H966 C980 0.961 . S
H967 C981 0.960 . S
H968 C981 0.961 . S
H969 C981 0.959 . S
H970 C984 0.929 . S
H971 C985 0.931 . S
H972 C987 0.930 . S
C973 H961 0.930 . S
C973 C974 1.399 . S
C973 C978 1.399 . S
C974 C973 1.399 . S
C974 C975 1.376 . S
C975 H962 0.930 . S
C975 C974 1.376 . S
C975 C976 1.388 . S
C976 H963 0.930 . S
C976 C975 1.388 . S
C976 C977 1.390 . S
C977 C976 1.390 . S
C977 C978 1.394 . S
C977 C983 1.465 . S
C978 C973 1.399 . S
C978 C977 1.394 . S
C978 C979 1.516 . S
C979 C978 1.516 . S
C979 C980 1.502 . S
C979 C981 1.561 . S
C979 C982 1.526 . S
C980 H964 0.959 . S
C980 H965 0.959 . S
C980 H966 0.961 . S
C980 C979 1.502 . S
C981 H967 0.960 . S
C981 H968 0.961 . S
C981 H969 0.959 . S
C981 C979 1.561 . S
C982 C979 1.526 . S
C982 C983 1.396 . S
C982 C987 1.390 . S
C983 C977 1.465 . S
C983 C982 1.396 . S
C983 C984 1.399 . S
C984 H970 0.929 . S
C984 C983 1.399 . S
C984 C985 1.385 . S
C985 H971 0.931 . S
C985 C984 1.385 . S
C985 C986 1.389 . S
C986 C985 1.389 . S
C986 C987 1.387 . S
C987 H972 0.930 . S
C987 C982 1.390 . S
C987 C986 1.387 . S
H988 C1000 0.930 . S
H989 C1002 0.930 . S
H990 C1003 0.930 . S
H991 C1007 0.959 . S
H992 C1007 0.959 . S
H993 C1007 0.961 . S
H994 C1008 0.960 . S
H995 C1008 0.961 . S
H996 C1008 0.959 . S
H997 C1011 0.929 . S
H998 C1012 0.931 . S
H999 C1014 0.930 1_455 S
C1000 H988 0.930 . S
C1000 C1001 1.399 . S
C1000 C1005 1.399 . S
C1001 C1000 1.399 . S
C1001 C1002 1.376 . S
C1002 H989 0.930 . S
C1002 C1001 1.376 . S
C1002 C1003 1.388 . S
C1003 H990 0.930 . S
C1003 C1002 1.388 . S
C1003 C1004 1.390 . S
C1004 C1003 1.390 . S
C1004 C1005 1.394 . S
C1004 C1010 1.465 . S
C1005 C1000 1.399 . S
C1005 C1004 1.394 . S
C1005 C1006 1.516 . S
C1006 C1005 1.516 . S
C1006 C1007 1.502 1_655 S
C1006 C1008 1.561 . S
C1006 C1009 1.526 . S
C1007 H991 0.959 . S
C1007 H992 0.959 . S
C1007 H993 0.961 . S
C1007 C1006 1.502 1_455 S
C1008 H994 0.960 . S
C1008 H995 0.961 . S
C1008 H996 0.959 . S
C1008 C1006 1.561 . S
C1009 C1006 1.526 . S
C1009 C1010 1.396 . S
C1009 C1014 1.390 . S
C1010 C1004 1.465 . S
C1010 C1009 1.396 . S
C1010 C1011 1.399 . S
C1011 H997 0.929 . S
C1011 C1010 1.399 . S
C1011 C1012 1.385 . S
C1012 H998 0.931 . S
C1012 C1011 1.385 . S
C1012 C1013 1.389 . S
C1013 C1012 1.389 . S
C1013 C1014 1.387 . S
C1014 H999 0.930 1_655 S
C1014 C1009 1.390 . S
C1014 C1013 1.387 . S
H1015 C1027 0.930 . S
H1016 C1029 0.930 . S
H1017 C1030 0.930 . S
H1018 C1034 0.959 . S
H1019 C1034 0.959 . S
H1020 C1034 0.961 . S
H1021 C1035 0.960 . S
H1022 C1035 0.961 . S
H1023 C1035 0.959 . S
H1024 C1038 0.929 . S
H1025 C1039 0.931 . S
H1026 C1041 0.930 . S
C1027 H1015 0.930 . S
C1027 C1028 1.399 . S
C1027 C1032 1.399 . S
C1028 C1027 1.399 . S
C1028 C1029 1.376 . S
C1029 H1016 0.930 . S
C1029 C1028 1.376 . S
C1029 C1030 1.388 . S
C1030 H1017 0.930 . S
C1030 C1029 1.388 . S
C1030 C1031 1.390 . S
C1031 C1030 1.390 . S
C1031 C1032 1.394 . S
C1031 C1037 1.465 . S
C1032 C1027 1.399 . S
C1032 C1031 1.394 . S
C1032 C1033 1.516 . S
C1033 C1032 1.516 . S
C1033 C1034 1.502 1_565 S
C1033 C1035 1.561 . S
C1033 C1036 1.526 . S
C1034 H1018 0.959 . S
C1034 H1019 0.959 . S
C1034 H1020 0.961 . S
C1034 C1033 1.502 1_545 S
C1035 H1021 0.960 . S
C1035 H1022 0.961 . S
C1035 H1023 0.959 . S
C1035 C1033 1.561 . S
C1036 C1033 1.526 . S
C1036 C1037 1.396 . S
C1036 C1041 1.390 . S
C1037 C1031 1.465 . S
C1037 C1036 1.396 . S
C1037 C1038 1.399 . S
C1038 H1024 0.929 . S
C1038 C1037 1.399 . S
C1038 C1039 1.385 . S
C1039 H1025 0.931 . S
C1039 C1038 1.385 . S
C1039 C1040 1.389 . S
C1040 C1039 1.389 . S
C1040 C1041 1.387 . S
C1041 H1026 0.930 . S
C1041 C1036 1.390 . S
C1041 C1040 1.387 . S
H1042 C1054 0.930 . S
H1043 C1056 0.930 . S
H1044 C1057 0.930 . S
H1045 C1061 0.959 . S
H1046 C1061 0.959 . S
H1047 C1061 0.961 . S
H1048 C1062 0.960 . S
H1049 C1062 0.961 . S
H1050 C1062 0.959 . S
H1051 C1065 0.929 . S
H1052 C1066 0.931 . S
H1053 C1068 0.930 . S
C1054 H1042 0.930 . S
C1054 C1055 1.399 . S
C1054 C1059 1.399 . S
C1055 C1054 1.399 . S
C1055 C1056 1.376 . S
C1056 H1043 0.930 . S
C1056 C1055 1.376 . S
C1056 C1057 1.388 . S
C1057 H1044 0.930 . S
C1057 C1056 1.388 . S
C1057 C1058 1.390 . S
C1058 C1057 1.390 . S
C1058 C1059 1.394 . S
C1058 C1064 1.465 . S
C1059 C1054 1.399 . S
C1059 C1058 1.394 . S
C1059 C1060 1.516 . S
C1060 C1059 1.516 . S
C1060 C1061 1.502 . S
C1060 C1062 1.561 . S
C1060 C1063 1.526 . S
C1061 H1045 0.959 . S
C1061 H1046 0.959 . S
C1061 H1047 0.961 . S
C1061 C1060 1.502 . S
C1062 H1048 0.960 . S
C1062 H1049 0.961 . S
C1062 H1050 0.959 . S
C1062 C1060 1.561 . S
C1063 C1060 1.526 . S
C1063 C1064 1.396 . S
C1063 C1068 1.390 . S
C1064 C1058 1.465 . S
C1064 C1063 1.396 . S
C1064 C1065 1.399 . S
C1065 H1051 0.929 . S
C1065 C1064 1.399 . S
C1065 C1066 1.385 . S
C1066 H1052 0.931 . S
C1066 C1065 1.385 . S
C1066 C1067 1.389 . S
C1067 C1066 1.389 . S
C1067 C1068 1.387 . S
C1068 H1053 0.930 . S
C1068 C1063 1.390 . S
C1068 C1067 1.387 . S
H1069 C1081 0.930 . S
H1070 C1083 0.930 . S
H1071 C1084 0.930 . S
H1072 C1088 0.959 . S
H1073 C1088 0.959 . S
H1074 C1088 0.961 . S
H1075 C1089 0.960 . S
H1076 C1089 0.961 . S
H1077 C1089 0.959 . S
H1078 C1092 0.929 . S
H1079 C1093 0.931 . S
H1080 C1095 0.930 . S
C1081 H1069 0.930 . S
C1081 C1082 1.399 . S
C1081 C1086 1.399 . S
C1082 C1081 1.399 . S
C1082 C1083 1.376 . S
C1083 H1070 0.930 . S
C1083 C1082 1.376 . S
C1083 C1084 1.388 . S
C1084 H1071 0.930 . S
C1084 C1083 1.388 . S
C1084 C1085 1.390 . S
C1085 C1084 1.390 . S
C1085 C1086 1.394 . S
C1085 C1091 1.465 . S
C1086 C1081 1.399 . S
C1086 C1085 1.394 . S
C1086 C1087 1.516 . S
C1087 C1086 1.516 . S
C1087 C1088 1.502 . S
C1087 C1089 1.561 . S
C1087 C1090 1.526 . S
C1088 H1072 0.959 . S
C1088 H1073 0.959 . S
C1088 H1074 0.961 . S
C1088 C1087 1.502 . S
C1089 H1075 0.960 . S
C1089 H1076 0.961 . S
C1089 H1077 0.959 . S
C1089 C1087 1.561 . S
C1090 C1087 1.526 . S
C1090 C1091 1.396 . S
C1090 C1095 1.390 . S
C1091 C1085 1.465 . S
C1091 C1090 1.396 . S
C1091 C1092 1.399 . S
C1092 H1078 0.929 . S
C1092 C1091 1.399 . S
C1092 C1093 1.385 . S
C1093 H1079 0.931 . S
C1093 C1092 1.385 . S
C1093 C1094 1.389 . S
C1094 C1093 1.389 . S
C1094 C1095 1.387 . S
C1095 H1080 0.930 . S
C1095 C1090 1.390 . S
C1095 C1094 1.387 . S
C461 C241 2.651 . S
C473 C319 2.917 . S
C500 C345 2.354 . S
C488 C277 2.209 . S
C527 C385 2.330 . S
C515 C169 2.149 . S
C554 C439 2.831 . S
C542 C205 2.674 . S
C581 C300 2.892 . S
C569 C97 2.678 . S
C596 C133 2.182 . S
C608 C330 2.342 . S
C623 C25 2.045 . S
C635 C370 2.335 . S
C650 C61 2.618 . S
C662 C420 2.836 1_655 S
C689 C296 0.526 1_655 S
C677 C211 0.281 . S
C716 C357 0.584 . S
C704 C247 0.696 . S
C743 C397 0.360 . S
C731 C253 0.303 . S
C758 C175 0.396 . S
C770 C416 0.386 . S
C785 C67 0.602 . S
C797 C317 0.444 . S
C824 C336 0.703 . S
C812 C103 0.568 . S
C851 C376 0.465 . S
C839 C109 0.364 . S
C866 C31 0.515 . S
C878 C437 0.482 . S
C893 C181 2.561 . S
C905 C290 2.863 . S
C920 C217 3.196 . S
C932 C340 3.469 . S
C959 C380 3.196 . S
C947 C283 2.886 . S
C986 C410 2.579 . S
C974 C145 2.283 . S
C1001 C37 2.553 . S
C1013 C305 2.861 . S
C1040 C359 3.475 . S
C1028 C73 3.174 . S
C1067 C399 3.202 . S
C1055 C139 2.851 . S
C1082 C1 2.300 . S
C1094 C425 2.563 . S
