# Generated by pormake.
# Topology cml, (3,6)-cn, num edge types: 1
# Building blocks:
#     Node 0, Type 0, BuildingBlock: ESEHIV_clean_linker_0, # of connection points: 3
#     Node 1, Type 0, BuildingBlock: ESEHIV_clean_linker_0, # of connection points: 3
#     Node 2, Type 0, BuildingBlock: ESEHIV_clean_linker_0, # of connection points: 3
#     Node 3, Type 0, BuildingBlock: ESEHIV_clean_linker_0, # of connection points: 3
#     Node 4, Type 0, BuildingBlock: ESEHIV_clean_linker_0, # of connection points: 3
#     Node 5, Type 0, BuildingBlock: ESEHIV_clean_linker_0, # of connection points: 3
#     Node 6, Type 0, BuildingBlock: ESEHIV_clean_linker_0, # of connection points: 3
#     Node 7, Type 0, BuildingBlock: ESEHIV_clean_linker_0, # of connection points: 3
#     Node 8, Type 1, BuildingBlock: OJICUG_clean_sbu_0, # of connection points: 6
#     Node 9, Type 1, BuildingBlock: OJICUG_clean_sbu_0, # of connection points: 6
#     Node 10, Type 1, BuildingBlock: OJICUG_clean_sbu_0, # of connection points: 6
#     Node 11, Type 1, BuildingBlock: OJICUG_clean_sbu_0, # of connection points: 6
#     Edge 12, Type (0, 1), BuildingBlock: TEMPAE_clean_linker_10, # of connection points: 2
#     Edge 13, Type (0, 1), BuildingBlock: TEMPAE_clean_linker_10, # of connection points: 2
#     Edge 14, Type (0, 1), BuildingBlock: TEMPAE_clean_linker_10, # of connection points: 2
#     Edge 15, Type (0, 1), BuildingBlock: TEMPAE_clean_linker_10, # of connection points: 2
#     Edge 16, Type (0, 1), BuildingBlock: TEMPAE_clean_linker_10, # of connection points: 2
#     Edge 17, Type (0, 1), BuildingBlock: TEMPAE_clean_linker_10, # of connection points: 2
#     Edge 18, Type (0, 1), BuildingBlock: TEMPAE_clean_linker_10, # of connection points: 2
#     Edge 19, Type (0, 1), BuildingBlock: TEMPAE_clean_linker_10, # of connection points: 2
#     Edge 20, Type (0, 1), BuildingBlock: TEMPAE_clean_linker_10, # of connection points: 2
#     Edge 21, Type (0, 1), BuildingBlock: TEMPAE_clean_linker_10, # of connection points: 2
#     Edge 22, Type (0, 1), BuildingBlock: TEMPAE_clean_linker_10, # of connection points: 2
#     Edge 23, Type (0, 1), BuildingBlock: TEMPAE_clean_linker_10, # of connection points: 2
#     Edge 24, Type (0, 1), BuildingBlock: TEMPAE_clean_linker_10, # of connection points: 2
#     Edge 25, Type (0, 1), BuildingBlock: TEMPAE_clean_linker_10, # of connection points: 2
#     Edge 26, Type (0, 1), BuildingBlock: TEMPAE_clean_linker_10, # of connection points: 2
#     Edge 27, Type (0, 1), BuildingBlock: TEMPAE_clean_linker_10, # of connection points: 2
#     Edge 28, Type (0, 1), BuildingBlock: TEMPAE_clean_linker_10, # of connection points: 2
#     Edge 29, Type (0, 1), BuildingBlock: TEMPAE_clean_linker_10, # of connection points: 2
#     Edge 30, Type (0, 1), BuildingBlock: TEMPAE_clean_linker_10, # of connection points: 2
#     Edge 31, Type (0, 1), BuildingBlock: TEMPAE_clean_linker_10, # of connection points: 2
#     Edge 32, Type (0, 1), BuildingBlock: TEMPAE_clean_linker_10, # of connection points: 2
#     Edge 33, Type (0, 1), BuildingBlock: TEMPAE_clean_linker_10, # of connection points: 2
#     Edge 34, Type (0, 1), BuildingBlock: TEMPAE_clean_linker_10, # of connection points: 2
#     Edge 35, Type (0, 1), BuildingBlock: TEMPAE_clean_linker_10, # of connection points: 2
# Relax obj value: 0.072
# Max RMSD: 0.084
# Mean RMSD: 0.079
data_MOF--net-cml--node1-OJICUG_clean_sbu_0--node2-ESEHIV_clean_linker_0--edge1-TEMPAE_clean_linker_10
_symmetry_space_group_name_H-M    P1
_symmetry_Int_Tables_number       1
_symmetry_cell_setting            triclinic
loop_
_symmetry_equiv_pos_as_xyz
'x, y, z'
_cell_length_a     37.259065
_cell_length_b     37.529057
_cell_length_c     35.39083
_cell_angle_alpha  89.964556
_cell_angle_beta   90.097619
_cell_angle_gamma 89.771665
loop_
_atom_site_label
_atom_site_type_symbol
_atom_site_fract_x
_atom_site_fract_y
_atom_site_fract_z
_atom_type_partial_charge
H0 H 0.30938 0.43189 0.06105 0.0
H1 H 0.24185 0.43556 0.96241 0.0
H2 H 0.23623 0.34641 0.03876 0.0
C3 C 0.28815 0.42055 0.04391 0.0
C4 C 0.27381 0.38736 0.05379 0.0
C5 C 0.27702 0.43806 0.01082 0.0
C6 C 0.24987 0.42281 0.98861 0.0
C7 C 0.2349 0.38982 -0.00151 0.0
C8 C 0.24718 0.37214 0.03109 0.0
H9 H 0.64864 0.57084 0.53234 0.0
H10 H 0.73285 0.57114 0.44968 0.0
H11 H 0.72984 0.65189 0.53592 0.0
C12 C 0.67255 0.58289 0.5206 0.0
C13 C 0.68686 0.61356 0.53749 0.0
C14 C 0.68907 0.5673 0.48907 0.0
C15 C 0.72059 0.58236 0.47478 0.0
C16 C 0.73557 0.61273 0.49157 0.0
C17 C 0.71858 0.62826 0.52299 0.0
H18 H 0.68019 0.43084 0.0488 0.0
H19 H 0.7602 0.35064 0.02822 0.0
H20 H 0.74373 0.43478 0.94735 0.0
C21 C 0.70177 0.42044 0.03143 0.0
C22 C 0.71 0.43696 0.99692 0.0
C23 C 0.71969 0.38928 0.04267 0.0
C24 C 0.74699 0.37526 0.01998 0.0
C25 C 0.75616 0.39201 0.9859 0.0
C26 C 0.73754 0.42273 0.9744 0.0
H27 H 0.33451 0.5589 0.53414 0.0
H28 H 0.26117 0.56297 0.44031 0.0
H29 H 0.25522 0.64235 0.52759 0.0
C30 C 0.31244 0.5718 0.51948 0.0
C31 C 0.29673 0.60263 0.53492 0.0
C32 C 0.29997 0.55735 0.48534 0.0
C33 C 0.27076 0.57355 0.46696 0.0
C34 C 0.25421 0.60383 0.48246 0.0
C35 C 0.26723 0.6182 0.51643 0.0
H36 H 0.83867 0.91701 0.02421 0.0
H37 H 0.76116 0.91727 0.9344 0.0
H38 H 0.74721 0.84713 0.02903 0.0
C39 C 0.81386 0.90705 0.01235 0.0
C40 C 0.79459 0.88027 0.03136 0.0
C41 C 0.80162 0.92108 0.97784 0.0
C42 C 0.77031 0.90735 0.96156 0.0
C43 C 0.7509 0.88052 0.9798 0.0
C44 C 0.76267 0.86758 0.01496 0.0
H45 H 0.14984 0.07925 0.51183 0.0
H46 H 0.22673 0.07728 0.42154 0.0
H47 H 0.2321 0.15914 0.5063 0.0
C48 C 0.17267 0.09099 0.49761 0.0
C49 C 0.1889 0.12154 0.51279 0.0
C50 C 0.18593 0.07497 0.46462 0.0
C51 C 0.21656 0.08912 0.44734 0.0
C52 C 0.23336 0.11936 0.46235 0.0
C53 C 0.21931 0.13557 0.49492 0.0
H54 H 0.17011 0.94391 0.05881 0.0
H55 H 0.24008 0.85439 0.04092 0.0
H56 H 0.24101 0.94226 0.96288 0.0
C57 C 0.19134 0.93118 0.04274 0.0
C58 C 0.20429 0.94749 0.00976 0.0
C59 C 0.20389 0.89749 0.05384 0.0
C60 C 0.23047 0.88051 0.03243 0.0
C61 C 0.24449 0.89691 3e-05 0.0
C62 C 0.23148 0.93047 0.98896 0.0
H63 H 0.81274 0.04584 0.55739 0.0
H64 H 0.74476 0.04572 0.45887 0.0
H65 H 0.74025 0.13309 0.5373 0.0
C66 C 0.79148 0.05786 0.54067 0.0
C67 C 0.77742 0.091 0.55147 0.0
C68 C 0.78013 0.04135 0.50715 0.0
C69 C 0.75321 0.0577 0.48528 0.0
C70 C 0.73829 0.09041 0.49644 0.0
C71 C 0.75058 0.10706 0.52948 0.0
Sc72 Sc 0.99289 0.757 0.30179 0.0
Sc73 Sc 0.98046 0.84907 0.30573 0.0
Sc74 Sc -0.00429 0.80139 0.38875 0.0
O75 O 0.98971 0.80252 0.3322 0.0
C76 C 0.94641 0.73353 0.37114 0.0
C77 C 0.93131 0.80015 0.25781 0.0
C78 C 0.93382 0.8584 0.38096 0.0
C79 C 0.03592 0.80912 0.25081 0.0
C80 C 0.05218 0.74352 0.36568 0.0
C81 C 0.03862 0.87185 0.36574 0.0
O82 O 0.95102 0.73352 0.33545 0.0
O83 O 0.9343 0.8282 0.27746 0.0
O84 O 0.94773 0.83213 0.39837 0.0
O85 O 0.03494 0.77899 0.26731 0.0
O86 O 0.04426 0.77104 0.38474 0.0
O87 O 0.02575 0.87387 0.33249 0.0
O88 O 0.03359 0.73307 0.33766 0.0
O89 O 0.01499 0.83486 0.25911 0.0
O90 O 0.02835 0.8487 0.38965 0.0
O91 O 0.95311 0.77406 0.26044 0.0
O92 O 0.96361 0.75394 0.39347 0.0
O93 O 0.94482 0.86868 0.34879 0.0
Sc94 Sc -0.00057 0.22769 0.7911 0.0
Sc95 Sc 0.00733 0.13465 0.7997 0.0
Sc96 Sc 0.99483 0.18692 0.88026 0.0
O97 O 0.00061 0.18307 0.82365 0.0
C98 C 0.04477 0.2539 0.86046 0.0
C99 C 0.05911 0.18042 0.74902 0.0
C100 C 0.05593 0.12858 0.87429 0.0
C101 C 0.95297 0.17408 0.74304 0.0
C102 C 0.93946 0.24472 0.85319 0.0
C103 C 0.9506 0.11593 0.86291 0.0
O104 O 0.04034 0.25291 0.8248 0.0
O105 O 0.05199 0.15204 0.76693 0.0
O106 O 0.04186 0.15515 0.89101 0.0
O107 O 0.95805 0.20544 0.7556 0.0
O108 O 0.94734 0.21864 0.87452 0.0
O109 O 0.96322 0.11158 0.82993 0.0
O110 O 0.9578 0.25301 0.82424 0.0
O111 O 0.97061 0.14699 0.75441 0.0
O112 O 0.9609 0.14082 0.88464 0.0
O113 O 0.04099 0.20897 0.75308 0.0
O114 O 0.02801 0.23358 0.88311 0.0
O115 O 0.04492 0.11736 0.84239 0.0
Sc116 Sc 0.50444 0.25895 0.29034 0.0
Sc117 Sc 0.5026 0.35286 0.29602 0.0
Sc118 Sc 0.50445 0.30193 0.37906 0.0
O119 O 0.50383 0.30453 0.32175 0.0
C120 C 0.45207 0.23785 0.35712 0.0
C121 C 0.44992 0.30844 0.24396 0.0
C122 C 0.44913 0.3653 0.36554 0.0
C123 C 0.55636 0.30904 0.24324 0.0
C124 C 0.5591 0.24025 0.35734 0.0
C125 C 0.55582 0.36835 0.36408 0.0
O126 O 0.46196 0.23545 0.32288 0.0
O127 O 0.46059 0.33743 0.25843 0.0
O128 O 0.46058 0.33908 0.38496 0.0
O129 O 0.54715 0.27815 0.25433 0.0
O130 O 0.54844 0.26505 0.37902 0.0
O131 O 0.54498 0.37389 0.33054 0.0
O132 O 0.54486 0.23373 0.32539 0.0
O133 O 0.54198 0.33761 0.25517 0.0
O134 O 0.54291 0.34406 0.38496 0.0
O135 O 0.46346 0.27818 0.25183 0.0
O136 O 0.46601 0.2595 0.38044 0.0
O137 O 0.46241 0.37367 0.3337 0.0
Sc138 Sc 0.48566 0.72468 0.80925 0.0
Sc139 Sc 0.48526 0.63111 0.81945 0.0
Sc140 Sc 0.48908 0.68505 0.89989 0.0
O141 O 0.48659 0.68036 0.84279 0.0
C142 C 0.5431 0.74494 0.87306 0.0
C143 C 0.53732 0.67283 0.76297 0.0
C144 C 0.54064 0.61812 0.88634 0.0
C145 C 0.43031 0.67333 0.76672 0.0
C146 C 0.43626 0.74922 0.87744 0.0
C147 C 0.43325 0.62208 0.89073 0.0
O148 O 0.5277 0.75061 0.84146 0.0
O149 O 0.52431 0.64466 0.77736 0.0
O150 O 0.52807 0.64307 0.90666 0.0
O151 O 0.4437 0.70397 0.77287 0.0
O152 O 0.45092 0.72794 0.90078 0.0
O153 O 0.44582 0.6122 0.85901 0.0
O154 O 0.44459 0.7502 0.84263 0.0
O155 O 0.44207 0.64521 0.78246 0.0
O156 O 0.44536 0.64876 0.90874 0.0
O157 O 0.52666 0.70391 0.7721 0.0
O158 O 0.53293 0.72128 0.89629 0.0
O159 O 0.52862 0.61128 0.85358 0.0
C160 C 0.21061 0.33666 0.96482 0.0
C161 C 0.2078 0.37294 0.97372 0.0
C162 C 0.1844 0.31984 0.94287 0.0
C163 C 0.15471 0.33983 0.92946 0.0
C164 C 0.15238 0.37677 0.93713 0.0
C165 C 0.17902 0.39292 0.95925 0.0
C166 C 0.18783 0.28037 0.93519 0.0
C167 C 0.12107 0.39888 0.9233 0.0
C168 C 0.09762 0.29483 0.85459 0.0
C169 C 0.07112 0.27884 0.87695 0.0
C170 C 0.12447 0.31594 0.87107 0.0
C171 C 0.12457 0.32118 0.91068 0.0
C172 C 0.09702 0.3064 0.9331 0.0
C173 C 0.07069 0.28541 0.91599 0.0
C174 C 0.15345 0.33147 0.84636 0.0
C175 C 0.09607 0.31157 0.97544 0.0
H176 H 0.23327 0.32133 0.97527 0.0
H177 H 0.17676 0.42098 0.96616 0.0
H178 H 0.16574 0.26594 0.9495 0.0
H179 H 0.18536 0.27506 0.90447 0.0
H180 H 0.2138 0.26928 0.94533 0.0
H181 H 0.12514 0.42781 0.9283 0.0
H182 H 0.11666 0.3945 0.89265 0.0
H183 H 0.09627 0.39053 0.93812 0.0
H184 H 0.09808 0.28993 0.82441 0.0
H185 H 0.05003 0.27361 0.93346 0.0
H186 H 0.17951 0.31847 0.85299 0.0
H187 H 0.15655 0.36035 0.8521 0.0
H188 H 0.1477 0.32775 0.8158 0.0
H189 H 0.11986 0.29859 0.98849 0.0
H190 H 0.07153 0.30018 0.98843 0.0
H191 H 0.0973 0.34034 0.98246 0.0
C192 C 0.7971 0.60691 0.46422 0.0
C193 C 0.76825 0.6287 0.4751 0.0
C194 C 0.8274 0.62136 0.44664 0.0
C195 C 0.82879 0.65846 0.43984 0.0
C196 C 0.7999 0.68066 0.45108 0.0
C197 C 0.76995 0.66548 0.46864 0.0
C198 C 0.85786 0.59697 0.4353 0.0
C199 C 0.80052 0.72039 0.44426 0.0
C200 C 0.91766 0.70513 0.42708 0.0
C201 C 0.9184 0.71064 0.38784 0.0
C202 C 0.8892 0.68709 0.44421 0.0
C203 C 0.86072 0.67435 0.4216 0.0
C204 C 0.86193 0.67847 0.38185 0.0
C205 C 0.89089 0.69651 0.36538 0.0
C206 C 0.88898 0.68288 0.48667 0.0
C207 C 0.83196 0.66511 0.3569 0.0
H208 H 0.79596 0.57848 0.46954 0.0
H209 H 0.74746 0.6823 0.47655 0.0
H210 H 0.86258 0.59898 0.40443 0.0
H211 H 0.88299 0.60527 0.44962 0.0
H212 H 0.85248 0.56868 0.44249 0.0
H213 H 0.77581 0.73385 0.4546 0.0
H214 H 0.82403 0.73234 0.45868 0.0
H215 H 0.80338 0.72587 0.41361 0.0
H216 H 0.93901 0.71562 0.44463 0.0
H217 H 0.89124 0.7007 0.33507 0.0
H218 H 0.88471 0.65457 0.49444 0.0
H219 H 0.86642 0.69846 0.49882 0.0
H220 H 0.91437 0.69208 0.49988 0.0
H221 H 0.82671 0.63656 0.36269 0.0
H222 H 0.8381 0.66832 0.32638 0.0
H223 H 0.8069 0.67999 0.36328 0.0
C224 C 0.81719 0.36678 0.97573 0.0
C225 C 0.78339 0.37562 0.96116 0.0
C226 C 0.84215 0.34808 0.95379 0.0
C227 C 0.8327 0.33747 0.9167 0.0
C228 C 0.79901 0.34744 0.90139 0.0
C229 C 0.77475 0.36666 0.92382 0.0
C230 C 0.87809 0.33843 0.97086 0.0
C231 C 0.7879 0.33623 0.86213 0.0
C232 C 0.90974 0.30436 0.85627 0.0
C233 C 0.90926 0.26781 0.86449 0.0
C234 C 0.88399 0.32742 0.87183 0.0
C235 C 0.85696 0.31336 0.89551 0.0
C236 C 0.85503 0.27617 0.90182 0.0
C237 C 0.88143 0.25387 0.8865 0.0
C238 C 0.88703 0.36698 0.8648 0.0
C239 C 0.82612 0.2601 0.9263 0.0
H240 H 0.82381 0.37403 0.00456 0.0
H241 H 0.7484 0.37333 0.91276 0.0
H242 H 0.87982 0.30915 0.97486 0.0
H243 H 0.90012 0.34623 0.95153 0.0
H244 H 0.88247 0.35149 -0.00135 0.0
H245 H 0.76244 0.34919 0.85306 0.0
H246 H 0.80916 0.34278 0.84139 0.0
H247 H 0.78417 0.30692 0.86143 0.0
H248 H 0.93133 0.31523 0.83938 0.0
H249 H 0.88078 0.22554 0.8925 0.0
H250 H 0.89546 0.38044 0.89126 0.0
H251 H 0.86065 0.37838 0.85653 0.0
H252 H 0.90691 0.3732 0.8424 0.0
H253 H 0.83017 0.26842 0.95608 0.0
H254 H 0.82623 0.23052 0.92517 0.0
H255 H 0.79928 0.26989 0.91736 0.0
C256 C 0.22805 0.63177 0.42458 0.0
C257 C 0.22423 0.62149 0.46242 0.0
C258 C 0.20061 0.65052 0.40593 0.0
C259 C 0.16849 0.65857 0.42551 0.0
C260 C 0.16412 0.6472 0.46339 0.0
C261 C 0.19225 0.62908 0.48153 0.0
C262 C 0.20645 0.66274 0.36576 0.0
C263 C 0.13001 0.65477 0.48498 0.0
C264 C 0.11142 0.73819 0.39803 0.0
C265 C 0.08341 0.72206 0.37794 0.0
C266 C 0.13999 0.71792 0.41242 0.0
C267 C 0.14014 0.68053 0.40724 0.0
C268 C 0.11236 0.66415 0.38624 0.0
C269 C 0.08444 0.68521 0.37148 0.0
C270 C 0.16955 0.73644 0.43398 0.0
C271 C 0.1114 0.62429 0.38065 0.0
H272 H 0.25298 0.62609 0.40998 0.0
H273 H 0.1893 0.62082 0.51073 0.0
H274 H 0.18425 0.65343 0.34739 0.0
H275 H 0.20637 0.69229 0.36468 0.0
H276 H 0.23227 0.65288 0.35399 0.0
H277 H 0.12997 0.64198 0.51331 0.0
H278 H 0.12665 0.68394 0.48872 0.0
H279 H 0.10643 0.64511 0.46882 0.0
H280 H 0.11089 0.76673 0.40274 0.0
H281 H 0.0627 0.67263 0.35614 0.0
H282 H 0.19612 0.72897 0.42222 0.0
H283 H 0.1692 0.72778 0.46396 0.0
H284 H 0.16679 0.76591 0.43309 0.0
H285 H 0.13701 0.61478 0.36824 0.0
H286 H 0.08896 0.61592 0.362 0.0
H287 H 0.10835 0.6109 0.40842 0.0
C288 C 0.72237 0.85134 0.92426 0.0
C289 C 0.71932 0.8647 0.96107 0.0
C290 C 0.69351 0.83401 0.90686 0.0
C291 C 0.66076 0.83048 0.92667 0.0
C292 C 0.65712 0.84524 0.9633 0.0
C293 C 0.68665 0.8619 0.98026 0.0
C294 C 0.69861 0.81802 0.86808 0.0
C295 C 0.6224 0.84245 0.98502 0.0
C296 C 0.57664 0.80257 0.87368 0.0
C297 C 0.57432 0.76661 0.88398 0.0
C298 C 0.60482 0.82386 0.88716 0.0
C299 C 0.6315 0.80844 0.91067 0.0
C300 C 0.62991 0.7718 0.91988 0.0
C301 C 0.60114 0.75143 0.90673 0.0
C302 C 0.60547 0.86298 0.8773 0.0
C303 C 0.65828 0.75418 0.94416 0.0
H304 H 0.74782 0.85334 0.90959 0.0
H305 H 0.68432 0.87258 0.00862 0.0
H306 H 0.69727 0.78854 0.87003 0.0
H307 H 0.67677 0.82677 0.84882 0.0
H308 H 0.72479 0.82544 0.85539 0.0
H309 H 0.62287 0.85834 0.01149 0.0
H310 H 0.59958 0.85167 0.96731 0.0
H311 H 0.61733 0.81419 0.99245 0.0
H312 H 0.55574 0.81434 0.85629 0.0
H313 H 0.59955 0.72349 0.91437 0.0
H314 H 0.63152 0.87005 0.86423 0.0
H315 H 0.60279 0.87908 0.90344 0.0
H316 H 0.5835 0.87055 0.85756 0.0
H317 H 0.6853 0.7588 0.93201 0.0
H318 H 0.65411 0.72499 0.94691 0.0
H319 H 0.65807 0.76609 0.97284 0.0
C320 C 0.29417 0.11194 0.43384 0.0
C321 C 0.26547 0.13425 0.44382 0.0
C322 C 0.32538 0.12598 0.41765 0.0
C323 C 0.32764 0.1631 0.41114 0.0
C324 C 0.29833 0.18559 0.42028 0.0
C325 C 0.2676 0.17088 0.43666 0.0
C326 C 0.35628 0.1013 0.40855 0.0
C327 C 0.2997 0.2253 0.41343 0.0
C328 C 0.41724 0.20983 0.40921 0.0
C329 C 0.42202 0.21563 0.3704 0.0
C330 C 0.38729 0.19144 0.42271 0.0
C331 C 0.36131 0.17893 0.39678 0.0
C332 C 0.36652 0.18363 0.35749 0.0
C333 C 0.39701 0.20179 0.34471 0.0
C334 C 0.38285 0.18649 0.46481 0.0
C335 C 0.33918 0.17079 0.3291 0.0
H336 H 0.29256 0.08362 0.43962 0.0
H337 H 0.24516 0.18802 0.4439 0.0
H338 H 0.36455 0.10469 0.37867 0.0
H339 H 0.37977 0.10812 0.42642 0.0
H340 H 0.34944 0.07287 0.41336 0.0
H341 H 0.27389 0.23873 0.42026 0.0
H342 H 0.32117 0.23729 0.43101 0.0
H343 H 0.30638 0.23078 0.38345 0.0
H344 H 0.43672 0.22011 0.42917 0.0
H345 H 0.40053 0.2063 0.31469 0.0
H346 H 0.37788 0.15805 0.47147 0.0
H347 H 0.35919 0.20188 0.47472 0.0
H348 H 0.40678 0.19545 0.48093 0.0
H349 H 0.33314 0.14222 0.33385 0.0
H350 H 0.34844 0.1743 0.29951 0.0
H351 H 0.31372 0.18582 0.3328 0.0
C352 C 0.26592 0.84227 0.9669 0.0
C353 C 0.27136 0.878 0.97673 0.0
C354 C 0.29205 0.82318 0.94691 0.0
C355 C 0.32445 0.84022 0.93679 0.0
C356 C 0.32949 0.87672 0.94531 0.0
C357 C 0.30273 0.89527 0.96512 0.0
C358 C 0.28557 0.78437 0.93801 0.0
C359 C 0.3638 0.89568 0.93514 0.0
C360 C 0.40492 0.77893 0.93107 0.0
C361 C 0.40847 0.77389 0.89197 0.0
C362 C 0.37827 0.80123 0.94583 0.0
C363 C 0.35433 0.8188 0.92092 0.0
C364 C 0.35804 0.81445 0.88139 0.0
C365 C 0.38523 0.7921 0.86732 0.0
C366 C 0.37533 0.80543 0.98819 0.0
C367 C 0.33279 0.83269 0.85409 0.0
H368 H 0.24131 0.82913 0.97526 0.0
H369 H 0.30688 0.92292 0.97276 0.0
H370 H 0.29081 0.77903 0.90768 0.0
H371 H 0.3044 0.76754 0.95462 0.0
H372 H 0.25771 0.77607 0.94469 0.0
H373 H 0.36203 0.92483 0.94031 0.0
H374 H 0.38626 0.88471 0.95224 0.0
H375 H 0.37052 0.89117 0.90499 0.0
H376 H 0.42299 0.76532 0.95036 0.0
H377 H 0.3878 0.78834 0.83708 0.0
H378 H 0.34919 0.79485 -0.00198 0.0
H379 H 0.37623 0.83405 0.99594 0.0
H380 H 0.39715 0.79124 0.00354 0.0
H381 H 0.30511 0.8227 0.85841 0.0
H382 H 0.34046 0.82808 0.82417 0.0
H383 H 0.33225 0.86181 0.85947 0.0
C384 C 0.67839 0.11848 0.48671 0.0
C385 C 0.71186 0.10869 0.47214 0.0
C386 C 0.6538 0.13775 0.46464 0.0
C387 C 0.66345 0.14817 0.42755 0.0
C388 C 0.69709 0.1378 0.41253 0.0
C389 C 0.72083 0.11781 0.43496 0.0
C390 C 0.61788 0.14772 0.48137 0.0
C391 C 0.70859 0.14908 0.37344 0.0
C392 C 0.58794 0.18041 0.36384 0.0
C393 C 0.58831 0.21709 0.37118 0.0
C394 C 0.61291 0.15755 0.38123 0.0
C395 C 0.63922 0.17198 0.40569 0.0
C396 C 0.6409 0.20926 0.41139 0.0
C397 C 0.61511 0.23133 0.39444 0.0
C398 C 0.60995 0.11787 0.37503 0.0
C399 C 0.66914 0.22575 0.43649 0.0
H400 H 0.67159 0.11118 0.51546 0.0
H401 H 0.74696 0.11038 0.42398 0.0
H402 H 0.61623 0.17704 0.48499 0.0
H403 H 0.59589 0.13982 0.46196 0.0
H404 H 0.61337 0.13494 0.50927 0.0
H405 H 0.73464 0.13693 0.3651 0.0
H406 H 0.68796 0.1416 0.35229 0.0
H407 H 0.71126 0.17851 0.37245 0.0
H408 H 0.56703 0.16939 0.34605 0.0
H409 H 0.61558 0.25977 0.39981 0.0
H410 H 0.60198 0.10478 0.40185 0.0
H411 H 0.63629 0.10651 0.36671 0.0
H412 H 0.58985 0.11116 0.35296 0.0
H413 H 0.66452 0.2177 0.46625 0.0
H414 H 0.66888 0.25533 0.43499 0.0
H415 H 0.69622 0.21604 0.42841 0.0
C416 C 0.27826 0.49865 0.98063 0.0
C417 C 0.29663 0.46987 0.99715 0.0
C418 C 0.2971 0.52715 0.96441 0.0
C419 C 0.33508 0.52665 0.96468 0.0
C420 C 0.35369 0.49827 0.98245 0.0
C421 C 0.33425 0.47021 -0.00165 0.0
C422 C 0.27642 0.55711 0.94589 0.0
C423 C 0.39422 0.49674 0.98327 0.0
C424 C 0.39007 0.57126 0.88865 0.0
C425 C 0.40458 0.60036 0.90823 0.0
C426 C 0.36582 0.54812 0.90615 0.0
C427 C 0.35578 0.55422 0.94414 0.0
C428 C 0.3687 0.58459 0.96343 0.0
C429 C 0.39298 0.60734 0.94524 0.0
C430 C 0.35245 0.51607 0.88456 0.0
C431 C 0.35839 0.59202 0.00391 0.0
H432 H 0.24918 0.49861 0.97993 0.0
H433 H 0.34865 0.44778 0.01042 0.0
H434 H 0.28606 0.58324 0.95637 0.0
H435 H 0.28102 0.55655 0.91493 0.0
H436 H 0.24711 0.5552 0.95115 0.0
H437 H 0.4045 0.47399 0.00029 0.0
H438 H 0.40464 0.4941 0.95405 0.0
H439 H 0.40521 0.52177 0.99516 0.0
H440 H 0.39846 0.56584 0.85991 0.0
H441 H 0.40377 0.6299 0.96056 0.0
H442 H 0.32281 0.51421 0.88654 0.0
H443 H 0.36383 0.49142 0.89721 0.0
H444 H 0.3601 0.51697 0.85425 0.0
H445 H 0.32892 0.58978 0.00762 0.0
H446 H 0.36698 0.61893 0.01326 0.0
H447 H 0.37115 0.57191 0.02266 0.0
C448 C 0.63556 0.53481 0.46448 0.0
C449 C 0.67275 0.53599 0.47032 0.0
C450 C 0.6196 0.50568 0.4465 0.0
C451 C 0.64142 0.47717 0.43379 0.0
C452 C 0.67899 0.47819 0.43941 0.0
C453 C 0.69424 0.50761 0.45775 0.0
C454 C 0.57937 0.50549 0.44103 0.0
C455 C 0.703 0.44823 0.42612 0.0
C456 C 0.59075 0.39121 0.41931 0.0
C457 C 0.58232 0.39314 0.38068 0.0
C458 C 0.6116 0.41752 0.43667 0.0
C459 C 0.62449 0.4463 0.41483 0.0
C460 C 0.61809 0.44725 0.37543 0.0
C461 C 0.597 0.42066 0.3588 0.0
C462 C 0.61797 0.41563 0.47879 0.0
C463 C 0.63181 0.47737 0.35118 0.0
H464 H 0.61891 0.55696 0.47355 0.0
H465 H 0.72297 0.50826 0.46255 0.0
H466 H 0.57286 0.5039 0.41048 0.0
H467 H 0.56767 0.48165 0.4548 0.0
H468 H 0.56626 0.52964 0.45291 0.0
H469 H 0.73178 0.4534 0.43216 0.0
H470 H 0.69522 0.42296 0.44011 0.0
H471 H 0.69966 0.44427 0.39525 0.0
H472 H 0.57979 0.36994 0.43646 0.0
H473 H 0.591 0.42221 0.32887 0.0
H474 H 0.60268 0.43724 0.49297 0.0
H475 H 0.64677 0.41972 0.48536 0.0
H476 H 0.60945 0.38972 0.49095 0.0
H477 H 0.61726 0.5023 0.35842 0.0
H478 H 0.62807 0.47207 0.32055 0.0
H479 H 0.66073 0.48202 0.35671 0.0
C480 C 0.65008 0.46488 0.98544 0.0
C481 C 0.68757 0.46684 0.98275 0.0
C482 C 0.62812 0.49167 0.97033 0.0
C483 C 0.64401 0.52112 0.95193 0.0
C484 C 0.68184 0.52366 0.94966 0.0
C485 C 0.70323 0.49638 0.96508 0.0
C486 C 0.58785 0.48797 0.97319 0.0
C487 C 0.69965 0.5548 0.93037 0.0
C488 C 0.58345 0.56682 0.88073 0.0
C489 C 0.56958 0.59525 0.90201 0.0
C490 C 0.60885 0.54331 0.89618 0.0
C491 C 0.6207 0.54835 0.93379 0.0
C492 C 0.60799 0.57777 0.95493 0.0
C493 C 0.58256 0.60088 0.93879 0.0
C494 C 0.62191 0.51225 0.87273 0.0
C495 C 0.62016 0.58402 0.99509 0.0
H496 H 0.63781 0.44179 -0.00156 0.0
H497 H 0.7322 0.49809 0.96321 0.0
H498 H 0.57608 0.51196 0.98673 0.0
H499 H 0.57603 0.48588 0.94448 0.0
H500 H 0.57983 0.46413 0.98974 0.0
H501 H 0.72937 0.55364 0.93262 0.0
H502 H 0.69216 0.55521 0.90002 0.0
H503 H 0.69012 0.58022 0.94289 0.0
H504 H 0.57387 0.56235 0.8522 0.0
H505 H 0.57227 0.6229 0.95541 0.0
H506 H 0.61245 0.48694 0.88542 0.0
H507 H 0.65167 0.51134 0.87253 0.0
H508 H 0.61216 0.51363 0.84308 0.0
H509 H 0.61009 0.5623 0.01347 0.0
H510 H 0.61032 0.60986 0.00644 0.0
H511 H 0.64989 0.58354 0.99682 0.0
C512 C 0.35626 0.52536 0.46725 0.0
C513 C 0.31865 0.52638 0.46814 0.0
C514 C 0.3746 0.49678 0.45061 0.0
C515 C 0.35487 0.46852 0.43432 0.0
C516 C 0.31689 0.46917 0.43533 0.0
C517 C 0.29919 0.49818 0.45221 0.0
C518 C 0.41515 0.49715 0.44995 0.0
C519 C 0.29504 0.43942 0.41834 0.0
C520 C 0.40713 0.4173 0.36046 0.0
C521 C 0.42094 0.38874 0.38171 0.0
C522 C 0.38398 0.44246 0.37675 0.0
C523 C 0.37436 0.43903 0.41522 0.0
C524 C 0.38645 0.40921 0.43625 0.0
C525 C 0.4096 0.38438 0.41924 0.0
C526 C 0.37144 0.47379 0.35331 0.0
C527 C 0.37657 0.40456 0.47731 0.0
H528 H 0.37142 0.54734 0.47897 0.0
H529 H 0.27012 0.49872 0.45317 0.0
H530 H 0.42591 0.47266 0.46348 0.0
H531 H 0.42476 0.49736 0.42029 0.0
H532 H 0.42644 0.52067 0.46477 0.0
H533 H 0.26574 0.44344 0.42244 0.0
H534 H 0.30052 0.43747 0.38761 0.0
H535 H 0.30291 0.41356 0.43118 0.0
H536 H 0.41534 0.42075 0.33132 0.0
H537 H 0.41987 0.36232 0.43587 0.0
H538 H 0.38417 0.49853 0.36393 0.0
H539 H 0.34197 0.4773 0.35587 0.0
H540 H 0.3783 0.47069 0.32295 0.0
H541 H 0.3901 0.42531 0.49445 0.0
H542 H 0.38461 0.37798 0.48837 0.0
H543 H 0.34723 0.40801 0.48127 0.0
C544 C 0.85921 0.94871 0.9566 0.0
C545 C 0.82166 0.94999 0.95872 0.0
C546 C 0.87853 0.97639 0.93967 0.0
C547 C 0.85981 0.00593 0.92428 0.0
C548 C 0.82189 0.00714 0.92575 0.0
C549 C 0.80325 0.97916 0.94306 0.0
C550 C 0.91901 0.9742 0.93861 0.0
C551 C 0.80107 0.03821 0.90955 0.0
C552 C 0.91356 0.09094 0.91548 0.0
C553 C 0.92448 0.08967 0.87756 0.0
C554 C 0.89162 0.06436 0.93077 0.0
C555 C 0.88017 0.03591 0.90754 0.0
C556 C 0.88983 0.03516 0.86891 0.0
C557 C 0.91193 0.06203 0.85437 0.0
C558 C 0.8818 0.06604 0.97213 0.0
C559 C 0.87779 0.00537 0.84324 0.0
H560 H 0.87352 0.92594 0.9681 0.0
H561 H 0.77424 0.98044 0.94499 0.0
H562 H 0.92855 0.97576 0.90899 0.0
H563 H 0.93069 -0.00287 0.95404 0.0
H564 H 0.92943 0.94918 0.95144 0.0
H565 H 0.77159 0.03436 0.91159 0.0
H566 H 0.80826 0.063 0.9248 0.0
H567 H 0.80825 0.04218 0.87944 0.0
H568 H 0.92296 0.1122 0.93364 0.0
H569 H 0.91998 0.0609 0.82498 0.0
H570 H 0.89401 0.04309 0.98726 0.0
H571 H 0.85229 0.06406 0.97561 0.0
H572 H 0.89109 0.09102 0.98576 0.0
H573 H 0.89002 0.97987 0.85269 0.0
H574 H 0.88543 0.01006 0.81333 0.0
H575 H 0.84823 0.00221 0.84479 0.0
C576 C 0.18638 0.0146 0.43419 0.0
C577 C 0.16709 0.04404 0.44788 0.0
C578 C 0.16852 0.98505 0.41893 0.0
C579 C 0.13056 0.98504 0.4175 0.0
C580 C 0.111 0.01486 0.43086 0.0
C581 C 0.12952 0.04403 0.44576 0.0
C582 C 0.19017 0.95369 0.40485 0.0
C583 C 0.07047 0.01583 0.42978 0.0
C584 C 0.07774 0.92457 0.35249 0.0
C585 C 0.06535 0.89865 0.37788 0.0
C586 C 0.10045 0.95201 0.36461 0.0
C587 C 0.11088 0.95359 0.40303 0.0
C588 C 0.09984 0.92667 0.42841 0.0
C589 C 0.07727 0.89948 0.41552 0.0
C590 C 0.11202 0.98013 0.33668 0.0
C591 C 0.11046 0.92749 0.46961 0.0
H592 H 0.21543 0.0144 0.43604 0.0
H593 H 0.11453 0.06701 0.45566 0.0
H594 H 0.18383 0.92969 0.42185 0.0
H595 H 0.18293 0.94765 0.37512 0.0
H596 H 0.21953 0.95854 0.40645 0.0
H597 H 0.05937 0.04125 0.4409 0.0
H598 H 0.06086 0.01224 0.40034 0.0
H599 H 0.05951 0.99354 0.44678 0.0
H600 H 0.069 0.92401 0.32326 0.0
H601 H 0.06811 0.87949 0.43535 0.0
H602 H 0.14147 0.9841 0.33819 0.0
H603 H 0.09911 0.00593 0.3439 0.0
H604 H 0.10464 0.97313 0.30719 0.0
H605 H 0.13994 0.93053 0.47248 0.0
H606 H 0.10217 0.90301 0.4849 0.0
H607 H 0.09777 0.95083 0.48353 0.0
C608 C 0.20624 0.00724 0.97775 0.0
C609 C 0.18634 0.97977 0.99444 0.0
C610 C 0.18898 0.03581 0.95951 0.0
C611 C 0.15103 0.03668 0.95784 0.0
C612 C 0.13086 0.00979 0.97598 0.0
C613 C 0.14875 0.98166 0.99396 0.0
C614 C 0.2113 0.06423 0.94075 0.0
C615 C 0.0903 0.00974 0.97482 0.0
C616 C 0.09505 0.11718 0.93083 0.0
C617 C 0.08463 0.10824 0.89388 0.0
C618 C 0.11865 0.09528 0.95138 0.0
C619 C 0.13202 0.06373 0.93458 0.0
C620 C 0.12348 0.05579 0.89654 0.0
C621 C 0.09995 0.07816 0.87664 0.0
C622 C 0.12748 0.10478 0.99177 0.0
C623 C 0.13737 0.02244 0.87756 0.0
H624 H 0.23531 0.00603 0.97837 0.0
H625 H 0.13317 0.96024 0.00619 0.0
H626 H 0.20874 0.06192 0.90961 0.0
H627 H 0.20148 0.09113 0.94874 0.0
H628 H 0.24016 0.062 0.94837 0.0
H629 H 0.07866 0.98824 0.99252 0.0
H630 H 0.07958 0.0357 0.98475 0.0
H631 H 0.08103 0.00599 0.94528 0.0
H632 H 0.08371 0.14056 0.94433 0.0
H633 H 0.0925 0.0712 0.84797 0.0
H634 H 0.15662 0.10147 0.9973 0.0
H635 H 0.11306 0.08651 0.01111 0.0
H636 H 0.11956 0.13258 -0.00128 0.0
H637 H 0.16683 0.02001 0.88139 0.0
H638 H 0.13124 0.022 0.84684 0.0
H639 H 0.12493 -0.00129 0.89084 0.0
C640 C 0.78038 0.98107 0.4764 0.0
C641 C 0.79924 0.0094 0.4928 0.0
C642 C 0.79873 0.95232 0.45978 0.0
C643 C 0.83672 0.95222 0.45939 0.0
C644 C 0.85582 0.98016 0.47706 0.0
C645 C 0.83686 0.0084 0.49349 0.0
C646 C 0.77753 0.92279 0.44149 0.0
C647 C 0.89637 0.98113 0.47707 0.0
C648 C 0.89449 0.87169 0.43679 0.0
C649 C 0.90513 0.8794 0.39963 0.0
C650 C 0.87042 0.89407 0.45606 0.0
C651 C 0.85685 0.92484 0.43776 0.0
C652 C 0.86586 0.93162 0.39962 0.0
C653 C 0.88979 0.90879 0.38101 0.0
C654 C 0.86107 0.88583 0.49661 0.0
C655 C 0.85188 0.96415 0.37907 0.0
H656 H 0.75129 0.98163 0.47612 0.0
H657 H 0.8516 0.0305 0.50555 0.0
H658 H 0.7811 0.92388 0.4104 0.0
H659 H 0.78753 0.89642 0.45114 0.0
H660 H 0.7484 0.9248 0.44783 0.0
H661 H 0.90709 0.0035 0.49419 0.0
H662 H 0.90743 0.95579 0.48836 0.0
H663 H 0.90626 0.98404 0.44767 0.0
H664 H 0.90588 0.84888 0.45135 0.0
H665 H 0.89743 0.91481 0.35217 0.0
H666 H 0.83174 0.88851 0.50124 0.0
H667 H 0.87455 0.90522 0.5155 0.0
H668 H 0.86962 0.85854 0.50497 0.0
H669 H 0.82229 0.9661 0.38185 0.0
H670 H 0.8588 0.96384 0.34855 0.0
H671 H 0.86348 0.98849 0.39193 0.0
C672 C 0.29379 0.38299 0.12086 0.0
C673 C 0.29004 0.36714 0.08531 0.0
C674 C 0.31549 0.36726 0.14867 0.0
C675 C 0.33446 0.33547 0.14022 0.0
C676 C 0.32853 0.318 0.10535 0.0
C677 C 0.30611 0.334 0.0783 0.0
C678 C 0.32046 0.3863 0.18587 0.0
C679 C 0.34847 0.28428 0.09511 0.0
C680 C 0.4265 0.33439 0.1849 0.0
C681 C 0.42168 0.31101 0.21519 0.0
C682 C 0.39875 0.341 0.1592 0.0
C683 C 0.36499 0.32457 0.16467 0.0
C684 C 0.3603 0.3 0.19468 0.0
C685 C 0.38903 0.29317 0.21952 0.0
C686 C 0.40521 0.3667 0.12704 0.0
C687 C 0.32456 0.2825 0.20174 0.0
H688 H 0.28107 0.40852 0.12624 0.0
H689 H 0.3033 0.32189 0.05064 0.0
H690 H 0.31972 0.36711 0.20972 0.0
H691 H 0.34711 0.39939 0.18631 0.0
H692 H 0.29955 0.40703 0.19047 0.0
H693 H 0.33634 0.27082 0.07025 0.0
H694 H 0.37671 0.29094 0.08822 0.0
H695 H 0.34897 0.26538 0.11921 0.0
H696 H 0.45197 0.34799 0.18171 0.0
H697 H 0.38544 0.27535 0.24333 0.0
H698 H 0.38875 0.39109 0.13117 0.0
H699 H 0.39693 0.35458 0.09981 0.0
H700 H 0.43382 0.37465 0.1249 0.0
H701 H 0.30521 0.30274 0.21223 0.0
H702 H 0.32657 0.26078 0.223 0.0
H703 H 0.3134 0.27146 0.17516 0.0
C704 C 0.63082 0.63369 0.56967 0.0
C705 C 0.66826 0.62985 0.57025 0.0
C706 C 0.6121 0.64503 0.60177 0.0
C707 C 0.63132 0.6529 0.63525 0.0
C708 C 0.66929 0.65109 0.63539 0.0
C709 C 0.68737 0.63952 0.6028 0.0
C710 C 0.5716 0.64675 0.60039 0.0
C711 C 0.69067 0.65952 0.6705 0.0
C712 C 0.57634 0.69822 0.71177 0.0
C713 C 0.56476 0.66878 0.73294 0.0
C714 C 0.59951 0.69378 0.68083 0.0
C715 C 0.61124 0.65913 0.67086 0.0
C716 C 0.60104 0.62958 0.69319 0.0
C717 C 0.57802 0.63477 0.72393 0.0
C718 C 0.61014 0.72593 0.65784 0.0
C719 C 0.61303 0.59217 0.68354 0.0
H720 H 0.61605 0.62693 0.54426 0.0
H721 H 0.71632 0.63653 0.60336 0.0
H722 H 0.56026 0.62592 0.61911 0.0
H723 H 0.56193 0.67291 0.61091 0.0
H724 H 0.56096 0.64262 0.57138 0.0
H725 H 0.71986 0.66155 0.66457 0.0
H726 H 0.68132 0.68491 0.68324 0.0
H727 H 0.68657 0.63822 0.69179 0.0
H728 H 0.56644 0.72464 0.71859 0.0
H729 H 0.56965 0.61184 0.74029 0.0
H730 H 0.59676 0.72489 0.62983 0.0
H731 H 0.63952 0.72593 0.65278 0.0
H732 H 0.6025 0.75131 0.67188 0.0
H733 H 0.60123 0.58413 0.65604 0.0
H734 H 0.60483 0.57246 0.70529 0.0
H735 H 0.64264 0.59105 0.68053 0.0
C736 C 0.69011 0.33604 0.06986 0.0
C737 C 0.70626 0.36924 0.07549 0.0
C738 C 0.66989 0.32011 0.09861 0.0
C739 C 0.66641 0.33768 0.1338 0.0
C740 C 0.68568 0.36952 0.14065 0.0
C741 C 0.70497 0.38527 0.11111 0.0
C742 C 0.64937 0.28649 0.08994 0.0
C743 C 0.68338 0.3886 0.1781 0.0
C744 C 0.57715 0.33652 0.18396 0.0
C745 C 0.58365 0.3127 0.21362 0.0
C746 C 0.60349 0.34357 0.15697 0.0
C747 C 0.63757 0.32704 0.16032 0.0
C748 C 0.64406 0.30217 0.18973 0.0
C749 C 0.61669 0.29492 0.21595 0.0
C750 C 0.59509 0.36958 0.1255 0.0
C751 C 0.68026 0.28457 0.19449 0.0
H752 H 0.69101 0.32388 0.04208 0.0
H753 H 0.71768 0.41092 0.11529 0.0
H754 H 0.65063 0.2676 0.11401 0.0
H755 H 0.6207 0.29329 0.08518 0.0
H756 H 0.65972 0.27295 0.06423 0.0
H757 H 0.7047 0.40901 0.18115 0.0
H758 H 0.65692 0.40211 0.18043 0.0
H759 H 0.6856 0.3694 0.20185 0.0
H760 H 0.55137 0.34997 0.18211 0.0
H761 H 0.62164 0.27669 0.23917 0.0
H762 H 0.60158 0.35757 0.09769 0.0
H763 H 0.61183 0.39378 0.1287 0.0
H764 H 0.56643 0.37786 0.12531 0.0
H765 H 0.6896 0.27316 0.16732 0.0
H766 H 0.67977 0.26311 0.21611 0.0
H767 H 0.70021 0.30484 0.20325 0.0
C768 C 0.34953 0.62031 0.57426 0.0
C769 C 0.31217 0.619 0.56954 0.0
C770 C 0.36484 0.63342 0.60758 0.0
C771 C 0.34229 0.64617 0.6368 0.0
C772 C 0.30462 0.64662 0.63157 0.0
C773 C 0.28995 0.63279 0.59805 0.0
C774 C 0.40518 0.63234 0.61205 0.0
C775 C 0.27978 0.6605 0.66187 0.0
C776 C 0.38571 0.63573 0.73256 0.0
C777 C 0.40211 0.66905 0.73743 0.0
C778 C 0.36415 0.62869 0.70105 0.0
C779 C 0.35843 0.65573 0.67384 0.0
C780 C 0.3723 0.69031 0.68012 0.0
C781 C 0.39414 0.69658 0.71185 0.0
C782 C 0.34984 0.59143 0.69549 0.0
C783 C 0.36609 0.72003 0.65209 0.0
H784 H 0.36693 0.61067 0.55195 0.0
H785 H 0.26106 0.63184 0.59467 0.0
H786 H 0.41544 0.65918 0.61933 0.0
H787 H 0.41253 0.61416 0.6356 0.0
H788 H 0.41895 0.62301 0.58603 0.0
H789 H 0.2518 0.66364 0.65145 0.0
H790 H 0.27966 0.64173 0.68609 0.0
H791 H 0.28931 0.68659 0.67259 0.0
H792 H 0.39111 0.61441 0.75248 0.0
H793 H 0.40637 0.72251 0.7155 0.0
H794 H 0.36405 0.57857 0.67153 0.0
H795 H 0.32088 0.59222 0.68829 0.0
H796 H 0.35354 0.57455 0.72101 0.0
H797 H 0.38286 0.71539 0.62668 0.0
H798 H 0.37314 0.74645 0.66406 0.0
H799 H 0.33765 0.72064 0.64276 0.0
C800 C 0.82799 0.88632 0.0928 0.0
C801 C 0.8087 0.8649 0.06743 0.0
C802 C 0.84494 0.87166 0.1246 0.0
C803 C 0.8412 0.83487 0.1324 0.0
C804 C 0.81989 0.81344 0.10843 0.0
C805 C 0.8045 0.82852 0.07584 0.0
C806 C 0.86797 0.8954 0.14909 0.0
C807 C 0.81413 0.7744 0.11664 0.0
C808 C 0.91786 0.79585 0.18952 0.0
C809 C 0.90549 0.80115 0.2264 0.0
C810 C 0.89646 0.80516 0.15838 0.0
C811 C 0.86144 0.81884 0.16446 0.0
C812 C 0.84775 0.82118 0.2017 0.0
C813 C 0.87032 0.81311 0.23236 0.0
C814 C 0.91252 0.80328 0.11927 0.0
C815 C 0.81006 0.83414 0.20927 0.0
H816 H 0.83046 0.91464 0.08754 0.0
H817 H 0.79004 0.81143 0.05649 0.0
H818 H 0.85769 0.89558 0.17846 0.0
H819 H 0.89584 0.88488 0.15003 0.0
H820 H 0.86872 0.9233 0.13862 0.0
H821 H 0.79273 0.7628 0.09861 0.0
H822 H 0.83937 0.75942 0.11154 0.0
H823 H 0.80682 0.77049 0.14675 0.0
H824 H 0.94533 0.78715 0.18506 0.0
H825 H 0.86089 0.81721 0.26101 0.0
H826 H 0.91599 0.83069 0.10807 0.0
H827 H 0.8943 0.78904 0.0997 0.0
H828 H 0.93905 0.78967 0.11913 0.0
H829 H 0.8087 0.86342 0.20525 0.0
H830 H 0.80139 0.82798 0.23857 0.0
H831 H 0.79084 0.82189 0.18916 0.0
C832 C 0.13671 0.14046 0.55235 0.0
C833 C 0.17398 0.1383 0.54742 0.0
C834 C 0.12193 0.15237 0.58642 0.0
C835 C 0.14498 0.16315 0.61608 0.0
C836 C 0.18256 0.1634 0.61045 0.0
C837 C 0.19668 0.15062 0.57625 0.0
C838 C 0.08165 0.15154 0.59132 0.0
C839 C 0.20792 0.17545 0.64115 0.0
C840 C 0.09397 0.20776 0.69568 0.0
C841 C 0.08693 0.17845 0.71917 0.0
C842 C 0.11539 0.20396 0.66328 0.0
C843 C 0.12955 0.17002 0.65403 0.0
C844 C 0.12477 0.14108 0.67911 0.0
C845 C 0.10382 0.14574 0.71151 0.0
C846 C 0.12091 0.23568 0.63775 0.0
C847 C 0.13932 0.10438 0.67026 0.0
H848 H 0.11898 0.13196 0.5298 0.0
H849 H 0.22553 0.149 0.57274 0.0
H850 H 0.07455 0.13184 0.61347 0.0
H851 H 0.07165 0.17791 0.60083 0.0
H852 H 0.06746 0.14423 0.56482 0.0
H853 H 0.23541 0.18015 0.63013 0.0
H854 H 0.19798 0.20029 0.65459 0.0
H855 H 0.20955 0.15473 0.66345 0.0
H856 H 0.0815 0.23329 0.70159 0.0
H857 H 0.09907 0.12299 0.72968 0.0
H858 H 0.10346 0.23313 0.61247 0.0
H859 H 0.1491 0.23683 0.62778 0.0
H860 H 0.11418 0.26113 0.65216 0.0
H861 H 0.12507 0.09342 0.6453 0.0
H862 H 0.13595 0.08555 0.69422 0.0
H863 H 0.16823 0.10574 0.66307 0.0
C864 C 0.18173 0.89562 0.12031 0.0
C865 C 0.18631 0.87868 0.08542 0.0
C866 C 0.16076 0.88006 0.14867 0.0
C867 C 0.14343 0.84722 0.1415 0.0
C868 C 0.1495 0.82917 0.10699 0.0
C869 C 0.17113 0.84506 0.07939 0.0
C870 C 0.15545 0.8998 0.18542 0.0
C871 C 0.1311 0.79439 0.09809 0.0
C872 C 0.09736 0.80099 0.22371 0.0
C873 C 0.0627 0.81542 0.22102 0.0
C874 C 0.12403 0.81054 0.1976 0.0
C875 C 0.11539 0.8344 0.16789 0.0
C876 C 0.07993 0.8476 0.16413 0.0
C877 C 0.05413 0.83824 0.19098 0.0
C878 C 0.16169 0.79639 0.20272 0.0
C879 C 0.06941 0.87248 0.13235 0.0
H880 H 0.19377 0.92152 0.12496 0.0
H881 H 0.17447 0.83213 0.05222 0.0
H882 H 0.12768 0.91051 0.18668 0.0
H883 H 0.15898 0.88147 0.20977 0.0
H884 H 0.17444 0.92236 0.18852 0.0
H885 H 0.14215 0.78161 0.07227 0.0
H886 H 0.13373 0.77551 0.12206 0.0
H887 H 0.10202 0.79935 0.09361 0.0
H888 H 0.10402 0.78354 0.24714 0.0
H889 H 0.02719 0.84909 0.1887 0.0
H890 H 0.17992 0.81867 0.21003 0.0
H891 H 0.17165 0.78453 0.17601 0.0
H892 H 0.16337 0.77598 0.22542 0.0
H893 H 0.08398 0.89805 0.13532 0.0
H894 H 0.04014 0.87823 0.13196 0.0
H895 H 0.07709 0.86078 0.10472 0.0
C896 C 0.79714 0.09523 0.61861 0.0
C897 C 0.79466 0.11057 0.58267 0.0
C898 C 0.81924 0.11024 0.64642 0.0
C899 C 0.84005 0.14062 0.6375 0.0
C900 C 0.83599 0.15733 0.60186 0.0
C901 C 0.81301 0.14222 0.57492 0.0
C902 C 0.82219 0.09215 0.68441 0.0
C903 C 0.85817 0.18931 0.59099 0.0
C904 C 0.89213 0.18644 0.71606 0.0
C905 C 0.92495 0.16815 0.71436 0.0
C906 C 0.8641 0.17808 0.691 0.0
C907 C 0.86958 0.15152 0.66317 0.0
C908 C 0.90327 0.13412 0.66044 0.0
C909 C 0.93036 0.14231 0.68641 0.0
C910 C 0.82831 0.19662 0.69519 0.0
C911 C 0.91052 0.10627 0.63056 0.0
H912 H 0.78284 0.07072 0.62443 0.0
H913 H 0.81131 0.15376 0.54686 0.0
H914 H 0.84832 0.07798 0.68644 0.0
H915 H 0.8213 0.1121 0.70752 0.0
H916 H 0.80039 0.07248 0.68888 0.0
H917 H 0.8484 0.20194 0.56447 0.0
H918 H 0.85796 0.20953 0.61382 0.0
H919 H 0.88646 0.18086 0.58677 0.0
H920 H 0.88789 0.20621 0.73796 0.0
H921 H 0.95588 0.12839 0.68494 0.0
H922 H 0.80766 0.17692 0.70358 0.0
H923 H 0.81966 0.20825 0.66782 0.0
H924 H 0.82907 0.21811 0.71675 0.0
H925 H 0.89305 0.08283 0.63528 0.0
H926 H 0.93892 0.09712 0.63067 0.0
H927 H 0.90407 0.11704 0.60213 0.0
loop_
_geom_bond_atom_site_label_1
_geom_bond_atom_site_label_2
_geom_bond_distance
_geom_bond_site_symmetry_2
_ccdc_geom_bond_type
H0 C3 0.931 . S
H1 C6 0.928 . S
H2 C8 0.930 . S
C3 H0 0.931 . S
C3 C4 1.413 . S
C3 C5 1.360 1_554 S
C4 C3 1.413 . S
C4 C8 1.429 . S
C5 C3 1.360 1_556 S
C5 C6 1.372 . S
C6 H1 0.928 . S
C6 C5 1.372 . S
C6 C7 1.404 . S
C7 C6 1.404 . S
C7 C8 1.391 1_556 S
C8 H2 0.930 . S
C8 C4 1.429 . S
C8 C7 1.391 1_554 S
H9 C12 0.931 . S
H10 C15 0.928 . S
H11 C17 0.930 . S
C12 H9 0.931 . S
C12 C13 1.413 . S
C12 C14 1.360 . S
C13 C12 1.413 . S
C13 C17 1.429 . S
C14 C12 1.360 . S
C14 C15 1.372 . S
C15 H10 0.928 . S
C15 C14 1.372 . S
C15 C16 1.404 . S
C16 C15 1.404 . S
C16 C17 1.391 . S
C17 H11 0.930 . S
C17 C13 1.429 . S
C17 C16 1.391 . S
H18 C21 0.931 . S
H19 C24 0.928 . S
H20 C26 0.930 . S
C21 H18 0.931 . S
C21 C22 1.413 1_554 S
C21 C23 1.360 . S
C22 C21 1.413 1_556 S
C22 C26 1.429 . S
C23 C21 1.360 . S
C23 C24 1.372 . S
C24 H19 0.928 . S
C24 C23 1.372 . S
C24 C25 1.404 1_554 S
C25 C24 1.404 1_556 S
C25 C26 1.391 . S
C26 H20 0.930 . S
C26 C22 1.429 . S
C26 C25 1.391 . S
H27 C30 0.931 . S
H28 C33 0.928 . S
H29 C35 0.930 . S
C30 H27 0.931 . S
C30 C31 1.413 . S
C30 C32 1.360 . S
C31 C30 1.413 . S
C31 C35 1.429 . S
C32 C30 1.360 . S
C32 C33 1.372 . S
C33 H28 0.928 . S
C33 C32 1.372 . S
C33 C34 1.404 . S
C34 C33 1.404 . S
C34 C35 1.391 . S
C35 H29 0.930 . S
C35 C31 1.429 . S
C35 C34 1.391 . S
H36 C39 0.931 . S
H37 C42 0.928 . S
H38 C44 0.930 . S
C39 H36 0.931 . S
C39 C40 1.413 . S
C39 C41 1.360 1_554 S
C40 C39 1.413 . S
C40 C44 1.429 . S
C41 C39 1.360 1_556 S
C41 C42 1.372 . S
C42 H37 0.928 . S
C42 C41 1.372 . S
C42 C43 1.404 . S
C43 C42 1.404 . S
C43 C44 1.391 1_556 S
C44 H38 0.930 . S
C44 C40 1.429 . S
C44 C43 1.391 1_554 S
H45 C48 0.931 . S
H46 C51 0.928 . S
H47 C53 0.930 . S
C48 H45 0.931 . S
C48 C49 1.413 . S
C48 C50 1.360 . S
C49 C48 1.413 . S
C49 C53 1.429 . S
C50 C48 1.360 . S
C50 C51 1.372 . S
C51 H46 0.928 . S
C51 C50 1.372 . S
C51 C52 1.404 . S
C52 C51 1.404 . S
C52 C53 1.391 . S
C53 H47 0.930 . S
C53 C49 1.429 . S
C53 C52 1.391 . S
H54 C57 0.931 . S
H55 C60 0.928 . S
H56 C62 0.930 . S
C57 H54 0.931 . S
C57 C58 1.413 1_554 S
C57 C59 1.360 . S
C58 C57 1.413 1_556 S
C58 C62 1.429 . S
C59 C57 1.360 . S
C59 C60 1.372 . S
C60 H55 0.928 . S
C60 C59 1.372 . S
C60 C61 1.404 1_554 S
C61 C60 1.404 1_556 S
C61 C62 1.391 . S
C62 H56 0.930 . S
C62 C58 1.429 . S
C62 C61 1.391 . S
H63 C66 0.931 . S
H64 C69 0.928 . S
H65 C71 0.930 . S
C66 H63 0.931 . S
C66 C67 1.413 . S
C66 C68 1.360 . S
C67 C66 1.413 . S
C67 C71 1.429 . S
C68 C66 1.360 . S
C68 C69 1.372 . S
C69 H64 0.928 . S
C69 C68 1.372 . S
C69 C70 1.404 . S
C70 C69 1.404 . S
C70 C71 1.391 . S
C71 H65 0.930 . S
C71 C67 1.429 . S
C71 C70 1.391 . S
Sc72 O75 2.025 . S
Sc72 O82 2.093 1_455 S
Sc72 O85 2.117 . S
Sc72 O88 2.117 . S
Sc72 O91 2.093 1_455 S
Sc73 O75 2.025 . S
Sc73 O83 2.093 1_455 S
Sc73 O87 2.117 . S
Sc73 O89 2.117 . S
Sc73 O93 2.093 1_455 S
Sc74 O75 2.025 . S
Sc74 O84 2.093 1_455 S
Sc74 O86 2.117 . S
Sc74 O90 2.117 . S
Sc74 O92 2.093 1_455 S
O75 Sc72 2.025 . S
O75 Sc73 2.025 . S
O75 Sc74 2.025 . S
C76 O82 1.268 . S
C76 O92 1.268 . S
C77 O83 1.268 . S
C77 O91 1.268 . S
C78 O84 1.268 . S
C78 O93 1.268 . S
C79 O85 1.268 . S
C79 O89 1.268 . S
C80 O86 1.268 . S
C80 O88 1.268 . S
C81 O87 1.268 . S
C81 O90 1.268 . S
O82 Sc72 2.093 1_655 S
O82 C76 1.268 . S
O83 Sc73 2.093 1_655 S
O83 C77 1.268 . S
O84 Sc74 2.093 1_655 S
O84 C78 1.268 . S
O85 Sc72 2.117 . S
O85 C79 1.268 . S
O86 Sc74 2.117 . S
O86 C80 1.268 . S
O87 Sc73 2.117 . S
O87 C81 1.268 . S
O88 Sc72 2.117 . S
O88 C80 1.268 . S
O89 Sc73 2.117 . S
O89 C79 1.268 . S
O90 Sc74 2.117 . S
O90 C81 1.268 . S
O91 Sc72 2.093 1_655 S
O91 C77 1.268 . S
O92 Sc74 2.093 1_655 S
O92 C76 1.268 . S
O93 Sc73 2.093 1_655 S
O93 C78 1.268 . S
Sc94 O97 2.025 . S
Sc94 O104 2.112 . S
Sc94 O107 2.098 1_455 S
Sc94 O110 2.098 1_455 S
Sc94 O113 2.112 . S
Sc95 O97 2.025 . S
Sc95 O105 2.111 . S
Sc95 O109 2.098 1_455 S
Sc95 O111 2.098 1_455 S
Sc95 O115 2.111 . S
Sc96 O97 2.025 . S
Sc96 O106 2.111 . S
Sc96 O108 2.099 1_455 S
Sc96 O112 2.099 1_455 S
Sc96 O114 2.111 . S
O97 Sc94 2.025 . S
O97 Sc95 2.025 . S
O97 Sc96 2.025 . S
C98 O104 1.268 . S
C98 O114 1.268 . S
C99 O105 1.268 . S
C99 O113 1.268 . S
C100 O106 1.268 . S
C100 O115 1.268 . S
C101 O107 1.268 . S
C101 O111 1.268 . S
C102 O108 1.268 . S
C102 O110 1.268 . S
C103 O109 1.268 . S
C103 O112 1.268 . S
O104 Sc94 2.112 . S
O104 C98 1.268 . S
O105 Sc95 2.111 . S
O105 C99 1.268 . S
O106 Sc96 2.111 . S
O106 C100 1.268 . S
O107 Sc94 2.098 1_655 S
O107 C101 1.268 . S
O108 Sc96 2.099 1_655 S
O108 C102 1.268 . S
O109 Sc95 2.098 1_655 S
O109 C103 1.268 . S
O110 Sc94 2.098 1_655 S
O110 C102 1.268 . S
O111 Sc95 2.098 1_655 S
O111 C101 1.268 . S
O112 Sc96 2.099 1_655 S
O112 C103 1.268 . S
O113 Sc94 2.112 . S
O113 C99 1.268 . S
O114 Sc96 2.111 . S
O114 C98 1.268 . S
O115 Sc95 2.111 . S
O115 C100 1.268 . S
Sc116 O119 2.025 . S
Sc116 O126 2.105 . S
Sc116 O129 2.105 . S
Sc116 O132 2.105 . S
Sc116 O135 2.105 . S
Sc117 O119 2.025 . S
Sc117 O127 2.105 . S
Sc117 O131 2.105 . S
Sc117 O133 2.105 . S
Sc117 O137 2.105 . S
Sc118 O119 2.025 . S
Sc118 O128 2.105 . S
Sc118 O130 2.105 . S
Sc118 O134 2.105 . S
Sc118 O136 2.105 . S
O119 Sc116 2.025 . S
O119 Sc117 2.025 . S
O119 Sc118 2.025 . S
C120 O126 1.268 . S
C120 O136 1.268 . S
C121 O127 1.268 . S
C121 O135 1.268 . S
C122 O128 1.268 . S
C122 O137 1.268 . S
C123 O129 1.268 . S
C123 O133 1.268 . S
C124 O130 1.268 . S
C124 O132 1.268 . S
C125 O131 1.268 . S
C125 O134 1.268 . S
O126 Sc116 2.105 . S
O126 C120 1.268 . S
O127 Sc117 2.105 . S
O127 C121 1.268 . S
O128 Sc118 2.105 . S
O128 C122 1.268 . S
O129 Sc116 2.105 . S
O129 C123 1.268 . S
O130 Sc118 2.105 . S
O130 C124 1.268 . S
O131 Sc117 2.105 . S
O131 C125 1.268 . S
O132 Sc116 2.105 . S
O132 C124 1.268 . S
O133 Sc117 2.105 . S
O133 C123 1.268 . S
O134 Sc118 2.105 . S
O134 C125 1.268 . S
O135 Sc116 2.105 . S
O135 C121 1.268 . S
O136 Sc118 2.105 . S
O136 C120 1.268 . S
O137 Sc117 2.105 . S
O137 C122 1.268 . S
Sc138 O141 2.025 . S
Sc138 O148 2.105 . S
Sc138 O151 2.105 . S
Sc138 O154 2.105 . S
Sc138 O157 2.105 . S
Sc139 O141 2.025 . S
Sc139 O149 2.105 . S
Sc139 O153 2.105 . S
Sc139 O155 2.105 . S
Sc139 O159 2.105 . S
Sc140 O141 2.025 . S
Sc140 O150 2.105 . S
Sc140 O152 2.105 . S
Sc140 O156 2.105 . S
Sc140 O158 2.105 . S
O141 Sc138 2.025 . S
O141 Sc139 2.025 . S
O141 Sc140 2.025 . S
C142 O148 1.268 . S
C142 O158 1.268 . S
C143 O149 1.268 . S
C143 O157 1.268 . S
C144 O150 1.268 . S
C144 O159 1.268 . S
C145 O151 1.268 . S
C145 O155 1.268 . S
C146 O152 1.268 . S
C146 O154 1.268 . S
C147 O153 1.268 . S
C147 O156 1.268 . S
O148 Sc138 2.105 . S
O148 C142 1.268 . S
O149 Sc139 2.105 . S
O149 C143 1.268 . S
O150 Sc140 2.105 . S
O150 C144 1.268 . S
O151 Sc138 2.105 . S
O151 C145 1.268 . S
O152 Sc140 2.105 . S
O152 C146 1.268 . S
O153 Sc139 2.105 . S
O153 C147 1.268 . S
O154 Sc138 2.105 . S
O154 C146 1.268 . S
O155 Sc139 2.105 . S
O155 C145 1.268 . S
O156 Sc140 2.105 . S
O156 C147 1.268 . S
O157 Sc138 2.105 . S
O157 C143 1.268 . S
O158 Sc140 2.105 . S
O158 C142 1.268 . S
O159 Sc139 2.105 . S
O159 C144 1.268 . S
C160 C161 1.391 . S
C160 C162 1.394 . S
C160 H176 0.931 . S
C161 C160 1.391 . S
C161 C165 1.376 . S
C162 C160 1.394 . S
C162 C163 1.369 . S
C162 C166 1.531 . S
C163 C162 1.369 . S
C163 C164 1.410 . S
C163 C171 1.503 . S
C164 C163 1.410 . S
C164 C165 1.392 . S
C164 C167 1.511 . S
C165 C161 1.376 . S
C165 C164 1.392 . S
C165 H177 0.929 . S
C166 C162 1.531 . S
C166 H178 0.960 . S
C166 H179 0.962 . S
C166 H180 0.960 . S
C167 C164 1.511 . S
C167 H181 0.961 . S
C167 H182 0.961 . S
C167 H183 0.961 . S
C168 C169 1.370 . S
C168 C170 1.363 . S
C168 H184 0.931 . S
C169 C168 1.370 . S
C169 C173 1.408 . S
C170 C168 1.363 . S
C170 C171 1.370 . S
C170 C174 1.524 . S
C171 C163 1.503 . S
C171 C170 1.370 . S
C171 C172 1.403 . S
C172 C171 1.403 . S
C172 C173 1.404 . S
C172 C175 1.539 . S
C173 C169 1.408 . S
C173 C172 1.404 . S
C173 H185 0.930 . S
C174 C170 1.524 . S
C174 H186 0.956 . S
C174 H187 0.961 . S
C174 H188 0.961 . S
C175 C172 1.539 . S
C175 H189 0.958 . S
C175 H190 0.961 . S
C175 H191 0.960 . S
H176 C160 0.931 . S
H177 C165 0.929 . S
H178 C166 0.960 . S
H179 C166 0.962 . S
H180 C166 0.960 . S
H181 C167 0.961 . S
H182 C167 0.961 . S
H183 C167 0.961 . S
H184 C168 0.931 . S
H185 C173 0.930 . S
H186 C174 0.956 . S
H187 C174 0.961 . S
H188 C174 0.961 . S
H189 C175 0.958 . S
H190 C175 0.961 . S
H191 C175 0.960 . S
C192 C193 1.391 . S
C192 C194 1.394 . S
C192 H208 0.931 . S
C193 C192 1.391 . S
C193 C197 1.376 . S
C194 C192 1.394 . S
C194 C195 1.369 . S
C194 C198 1.531 . S
C195 C194 1.369 . S
C195 C196 1.410 . S
C195 C203 1.503 . S
C196 C195 1.410 . S
C196 C197 1.392 . S
C196 C199 1.511 . S
C197 C193 1.376 . S
C197 C196 1.392 . S
C197 H209 0.929 . S
C198 C194 1.531 . S
C198 H210 0.960 . S
C198 H211 0.962 . S
C198 H212 0.960 . S
C199 C196 1.511 . S
C199 H213 0.961 . S
C199 H214 0.961 . S
C199 H215 0.961 . S
C200 C201 1.370 . S
C200 C202 1.363 . S
C200 H216 0.931 . S
C201 C200 1.370 . S
C201 C205 1.408 . S
C202 C200 1.363 . S
C202 C203 1.370 . S
C202 C206 1.524 . S
C203 C195 1.503 . S
C203 C202 1.370 . S
C203 C204 1.403 . S
C204 C203 1.403 . S
C204 C205 1.404 . S
C204 C207 1.539 . S
C205 C201 1.408 . S
C205 C204 1.404 . S
C205 H217 0.930 . S
C206 C202 1.524 . S
C206 H218 0.956 . S
C206 H219 0.961 . S
C206 H220 0.961 . S
C207 C204 1.539 . S
C207 H221 0.958 . S
C207 H222 0.961 . S
C207 H223 0.960 . S
H208 C192 0.931 . S
H209 C197 0.929 . S
H210 C198 0.960 . S
H211 C198 0.962 . S
H212 C198 0.960 . S
H213 C199 0.961 . S
H214 C199 0.961 . S
H215 C199 0.961 . S
H216 C200 0.931 . S
H217 C205 0.930 . S
H218 C206 0.956 . S
H219 C206 0.961 . S
H220 C206 0.961 . S
H221 C207 0.958 . S
H222 C207 0.961 . S
H223 C207 0.960 . S
C224 C225 1.391 . S
C224 C226 1.394 . S
C224 H240 0.931 1_556 S
C225 C224 1.391 . S
C225 C229 1.376 . S
C226 C224 1.394 . S
C226 C227 1.369 . S
C226 C230 1.531 . S
C227 C226 1.369 . S
C227 C228 1.410 . S
C227 C235 1.503 . S
C228 C227 1.410 . S
C228 C229 1.392 . S
C228 C231 1.511 . S
C229 C225 1.376 . S
C229 C228 1.392 . S
C229 H241 0.929 . S
C230 C226 1.531 . S
C230 H242 0.960 . S
C230 H243 0.962 1_556 S
C230 H244 0.960 1_556 S
C231 C228 1.511 . S
C231 H245 0.961 . S
C231 H246 0.961 . S
C231 H247 0.961 . S
C232 C233 1.370 . S
C232 C234 1.363 . S
C232 H248 0.931 . S
C233 C232 1.370 . S
C233 C237 1.408 . S
C234 C232 1.363 . S
C234 C235 1.370 . S
C234 C238 1.524 . S
C235 C227 1.503 . S
C235 C234 1.370 . S
C235 C236 1.403 . S
C236 C235 1.403 . S
C236 C237 1.404 . S
C236 C239 1.539 . S
C237 C233 1.408 . S
C237 C236 1.404 . S
C237 H249 0.930 . S
C238 C234 1.524 . S
C238 H250 0.956 . S
C238 H251 0.961 . S
C238 H252 0.961 . S
C239 C236 1.539 . S
C239 H253 0.958 . S
C239 H254 0.961 . S
C239 H255 0.960 . S
H240 C224 0.931 1_554 S
H241 C229 0.929 . S
H242 C230 0.960 . S
H243 C230 0.962 1_554 S
H244 C230 0.960 1_554 S
H245 C231 0.961 . S
H246 C231 0.961 . S
H247 C231 0.961 . S
H248 C232 0.931 . S
H249 C237 0.930 . S
H250 C238 0.956 . S
H251 C238 0.961 . S
H252 C238 0.961 . S
H253 C239 0.958 . S
H254 C239 0.961 . S
H255 C239 0.960 . S
C256 C257 1.391 . S
C256 C258 1.394 . S
C256 H272 0.931 . S
C257 C256 1.391 . S
C257 C261 1.376 . S
C258 C256 1.394 . S
C258 C259 1.369 . S
C258 C262 1.531 . S
C259 C258 1.369 . S
C259 C260 1.410 . S
C259 C267 1.503 . S
C260 C259 1.410 . S
C260 C261 1.392 . S
C260 C263 1.511 . S
C261 C257 1.376 . S
C261 C260 1.392 . S
C261 H273 0.929 . S
C262 C258 1.531 . S
C262 H274 0.960 . S
C262 H275 0.962 . S
C262 H276 0.960 . S
C263 C260 1.511 . S
C263 H277 0.961 . S
C263 H278 0.961 . S
C263 H279 0.961 . S
C264 C265 1.370 . S
C264 C266 1.363 . S
C264 H280 0.931 . S
C265 C264 1.370 . S
C265 C269 1.408 . S
C266 C264 1.363 . S
C266 C267 1.370 . S
C266 C270 1.524 . S
C267 C259 1.503 . S
C267 C266 1.370 . S
C267 C268 1.403 . S
C268 C267 1.403 . S
C268 C269 1.404 . S
C268 C271 1.539 . S
C269 C265 1.408 . S
C269 C268 1.404 . S
C269 H281 0.930 . S
C270 C266 1.524 . S
C270 H282 0.956 . S
C270 H283 0.961 . S
C270 H284 0.961 . S
C271 C268 1.539 . S
C271 H285 0.958 . S
C271 H286 0.961 . S
C271 H287 0.960 . S
H272 C256 0.931 . S
H273 C261 0.929 . S
H274 C262 0.960 . S
H275 C262 0.962 . S
H276 C262 0.960 . S
H277 C263 0.961 . S
H278 C263 0.961 . S
H279 C263 0.961 . S
H280 C264 0.931 . S
H281 C269 0.930 . S
H282 C270 0.956 . S
H283 C270 0.961 . S
H284 C270 0.961 . S
H285 C271 0.958 . S
H286 C271 0.961 . S
H287 C271 0.960 . S
C288 C289 1.391 . S
C288 C290 1.394 . S
C288 H304 0.931 . S
C289 C288 1.391 . S
C289 C293 1.376 . S
C290 C288 1.394 . S
C290 C291 1.369 . S
C290 C294 1.531 . S
C291 C290 1.369 . S
C291 C292 1.410 . S
C291 C299 1.503 . S
C292 C291 1.410 . S
C292 C293 1.392 . S
C292 C295 1.511 . S
C293 C289 1.376 . S
C293 C292 1.392 . S
C293 H305 0.929 . S
C294 C290 1.531 . S
C294 H306 0.960 . S
C294 H307 0.962 . S
C294 H308 0.960 . S
C295 C292 1.511 . S
C295 H309 0.961 . S
C295 H310 0.961 . S
C295 H311 0.961 . S
C296 C297 1.370 . S
C296 C298 1.363 . S
C296 H312 0.931 . S
C297 C296 1.370 . S
C297 C301 1.408 . S
C298 C296 1.363 . S
C298 C299 1.370 . S
C298 C302 1.524 . S
C299 C291 1.503 . S
C299 C298 1.370 . S
C299 C300 1.403 . S
C300 C299 1.403 . S
C300 C301 1.404 . S
C300 C303 1.539 . S
C301 C297 1.408 . S
C301 C300 1.404 . S
C301 H313 0.930 . S
C302 C298 1.524 . S
C302 H314 0.956 . S
C302 H315 0.961 . S
C302 H316 0.961 . S
C303 C300 1.539 . S
C303 H317 0.958 . S
C303 H318 0.961 . S
C303 H319 0.960 . S
H304 C288 0.931 . S
H305 C293 0.929 . S
H306 C294 0.960 . S
H307 C294 0.962 . S
H308 C294 0.960 . S
H309 C295 0.961 . S
H310 C295 0.961 . S
H311 C295 0.961 . S
H312 C296 0.931 . S
H313 C301 0.930 . S
H314 C302 0.956 . S
H315 C302 0.961 . S
H316 C302 0.961 . S
H317 C303 0.958 . S
H318 C303 0.961 . S
H319 C303 0.960 . S
C320 C321 1.391 . S
C320 C322 1.394 . S
C320 H336 0.931 . S
C321 C320 1.391 . S
C321 C325 1.376 . S
C322 C320 1.394 . S
C322 C323 1.369 . S
C322 C326 1.531 . S
C323 C322 1.369 . S
C323 C324 1.410 . S
C323 C331 1.503 . S
C324 C323 1.410 . S
C324 C325 1.392 . S
C324 C327 1.511 . S
C325 C321 1.376 . S
C325 C324 1.392 . S
C325 H337 0.929 . S
C326 C322 1.531 . S
C326 H338 0.960 . S
C326 H339 0.962 . S
C326 H340 0.960 . S
C327 C324 1.511 . S
C327 H341 0.961 . S
C327 H342 0.961 . S
C327 H343 0.961 . S
C328 C329 1.370 . S
C328 C330 1.363 . S
C328 H344 0.931 . S
C329 C328 1.370 . S
C329 C333 1.408 . S
C330 C328 1.363 . S
C330 C331 1.370 . S
C330 C334 1.524 . S
C331 C323 1.503 . S
C331 C330 1.370 . S
C331 C332 1.403 . S
C332 C331 1.403 . S
C332 C333 1.404 . S
C332 C335 1.539 . S
C333 C329 1.408 . S
C333 C332 1.404 . S
C333 H345 0.930 . S
C334 C330 1.524 . S
C334 H346 0.956 . S
C334 H347 0.961 . S
C334 H348 0.961 . S
C335 C332 1.539 . S
C335 H349 0.958 . S
C335 H350 0.961 . S
C335 H351 0.960 . S
H336 C320 0.931 . S
H337 C325 0.929 . S
H338 C326 0.960 . S
H339 C326 0.962 . S
H340 C326 0.960 . S
H341 C327 0.961 . S
H342 C327 0.961 . S
H343 C327 0.961 . S
H344 C328 0.931 . S
H345 C333 0.930 . S
H346 C334 0.956 . S
H347 C334 0.961 . S
H348 C334 0.961 . S
H349 C335 0.958 . S
H350 C335 0.961 . S
H351 C335 0.960 . S
C352 C353 1.391 . S
C352 C354 1.394 . S
C352 H368 0.931 . S
C353 C352 1.391 . S
C353 C357 1.376 . S
C354 C352 1.394 . S
C354 C355 1.369 . S
C354 C358 1.531 . S
C355 C354 1.369 . S
C355 C356 1.410 . S
C355 C363 1.503 . S
C356 C355 1.410 . S
C356 C357 1.392 . S
C356 C359 1.511 . S
C357 C353 1.376 . S
C357 C356 1.392 . S
C357 H369 0.929 . S
C358 C354 1.531 . S
C358 H370 0.960 . S
C358 H371 0.962 . S
C358 H372 0.960 . S
C359 C356 1.511 . S
C359 H373 0.961 . S
C359 H374 0.961 . S
C359 H375 0.961 . S
C360 C361 1.370 . S
C360 C362 1.363 . S
C360 H376 0.931 . S
C361 C360 1.370 . S
C361 C365 1.408 . S
C362 C360 1.363 . S
C362 C363 1.370 . S
C362 C366 1.524 . S
C363 C355 1.503 . S
C363 C362 1.370 . S
C363 C364 1.403 . S
C364 C363 1.403 . S
C364 C365 1.404 . S
C364 C367 1.539 . S
C365 C361 1.408 . S
C365 C364 1.404 . S
C365 H377 0.930 . S
C366 C362 1.524 . S
C366 H378 0.956 . S
C366 H379 0.961 . S
C366 H380 0.961 . S
C367 C364 1.539 . S
C367 H381 0.958 . S
C367 H382 0.961 . S
C367 H383 0.960 . S
H368 C352 0.931 . S
H369 C357 0.929 . S
H370 C358 0.960 . S
H371 C358 0.962 . S
H372 C358 0.960 . S
H373 C359 0.961 . S
H374 C359 0.961 . S
H375 C359 0.961 . S
H376 C360 0.931 . S
H377 C365 0.930 . S
H378 C366 0.956 . S
H379 C366 0.961 . S
H380 C366 0.961 . S
H381 C367 0.958 . S
H382 C367 0.961 . S
H383 C367 0.960 . S
C384 C385 1.391 . S
C384 C386 1.394 . S
C384 H400 0.931 . S
C385 C384 1.391 . S
C385 C389 1.376 . S
C386 C384 1.394 . S
C386 C387 1.369 . S
C386 C390 1.531 . S
C387 C386 1.369 . S
C387 C388 1.410 . S
C387 C395 1.503 . S
C388 C387 1.410 . S
C388 C389 1.392 . S
C388 C391 1.511 . S
C389 C385 1.376 . S
C389 C388 1.392 . S
C389 H401 0.929 . S
C390 C386 1.531 . S
C390 H402 0.960 . S
C390 H403 0.962 . S
C390 H404 0.960 . S
C391 C388 1.511 . S
C391 H405 0.961 . S
C391 H406 0.961 . S
C391 H407 0.961 . S
C392 C393 1.370 . S
C392 C394 1.363 . S
C392 H408 0.931 . S
C393 C392 1.370 . S
C393 C397 1.408 . S
C394 C392 1.363 . S
C394 C395 1.370 . S
C394 C398 1.524 . S
C395 C387 1.503 . S
C395 C394 1.370 . S
C395 C396 1.403 . S
C396 C395 1.403 . S
C396 C397 1.404 . S
C396 C399 1.539 . S
C397 C393 1.408 . S
C397 C396 1.404 . S
C397 H409 0.930 . S
C398 C394 1.524 . S
C398 H410 0.956 . S
C398 H411 0.961 . S
C398 H412 0.961 . S
C399 C396 1.539 . S
C399 H413 0.958 . S
C399 H414 0.961 . S
C399 H415 0.960 . S
H400 C384 0.931 . S
H401 C389 0.929 . S
H402 C390 0.960 . S
H403 C390 0.962 . S
H404 C390 0.960 . S
H405 C391 0.961 . S
H406 C391 0.961 . S
H407 C391 0.961 . S
H408 C392 0.931 . S
H409 C397 0.930 . S
H410 C398 0.956 . S
H411 C398 0.961 . S
H412 C398 0.961 . S
H413 C399 0.958 . S
H414 C399 0.961 . S
H415 C399 0.960 . S
C416 C417 1.391 . S
C416 C418 1.394 . S
C416 H432 0.931 . S
C417 C416 1.391 . S
C417 C421 1.376 . S
C418 C416 1.394 . S
C418 C419 1.369 . S
C418 C422 1.531 . S
C419 C418 1.369 . S
C419 C420 1.410 . S
C419 C427 1.503 . S
C420 C419 1.410 . S
C420 C421 1.392 . S
C420 C423 1.511 . S
C421 C417 1.376 . S
C421 C420 1.392 . S
C421 H433 0.929 . S
C422 C418 1.531 . S
C422 H434 0.960 . S
C422 H435 0.962 . S
C422 H436 0.960 . S
C423 C420 1.511 . S
C423 H437 0.961 . S
C423 H438 0.961 . S
C423 H439 0.961 . S
C424 C425 1.370 . S
C424 C426 1.363 . S
C424 H440 0.931 . S
C425 C424 1.370 . S
C425 C429 1.408 . S
C426 C424 1.363 . S
C426 C427 1.370 . S
C426 C430 1.524 . S
C427 C419 1.503 . S
C427 C426 1.370 . S
C427 C428 1.403 . S
C428 C427 1.403 . S
C428 C429 1.404 . S
C428 C431 1.539 . S
C429 C425 1.408 . S
C429 C428 1.404 . S
C429 H441 0.930 . S
C430 C426 1.524 . S
C430 H442 0.956 . S
C430 H443 0.961 . S
C430 H444 0.961 . S
C431 C428 1.539 . S
C431 H445 0.958 . S
C431 H446 0.961 . S
C431 H447 0.971 . S
H432 C416 0.931 . S
H433 C421 0.929 . S
H434 C422 0.960 . S
H435 C422 0.962 . S
H436 C422 0.960 . S
H437 C423 0.961 . S
H438 C423 0.961 . S
H439 C423 0.961 . S
H440 C424 0.931 . S
H441 C429 0.930 . S
H442 C430 0.956 . S
H443 C430 0.961 . S
H444 C430 0.961 . S
H445 C431 0.958 . S
H446 C431 0.961 . S
H447 C431 0.971 . S
C448 C449 1.391 . S
C448 C450 1.394 . S
C448 H464 0.931 . S
C449 C448 1.391 . S
C449 C453 1.376 . S
C450 C448 1.394 . S
C450 C451 1.369 . S
C450 C454 1.531 . S
C451 C450 1.369 . S
C451 C452 1.410 . S
C451 C459 1.503 . S
C452 C451 1.410 . S
C452 C453 1.392 . S
C452 C455 1.511 . S
C453 C449 1.376 . S
C453 C452 1.392 . S
C453 H465 0.929 . S
C454 C450 1.531 . S
C454 H466 0.960 . S
C454 H467 0.962 . S
C454 H468 0.960 . S
C455 C452 1.511 . S
C455 H469 0.961 . S
C455 H470 0.961 . S
C455 H471 0.961 . S
C456 C457 1.370 . S
C456 C458 1.363 . S
C456 H472 0.931 . S
C457 C456 1.370 . S
C457 C461 1.408 . S
C458 C456 1.363 . S
C458 C459 1.370 . S
C458 C462 1.524 . S
C459 C451 1.503 . S
C459 C458 1.370 . S
C459 C460 1.403 . S
C460 C459 1.403 . S
C460 C461 1.404 . S
C460 C463 1.539 . S
C461 C457 1.408 . S
C461 C460 1.404 . S
C461 H473 0.930 . S
C462 C458 1.524 . S
C462 H474 0.956 . S
C462 H475 0.961 . S
C462 H476 0.961 . S
C463 C460 1.539 . S
C463 H477 0.958 . S
C463 H478 0.961 . S
C463 H479 0.960 . S
H464 C448 0.931 . S
H465 C453 0.929 . S
H466 C454 0.960 . S
H467 C454 0.962 . S
H468 C454 0.960 . S
H469 C455 0.961 . S
H470 C455 0.961 . S
H471 C455 0.961 . S
H472 C456 0.931 . S
H473 C461 0.930 . S
H474 C462 0.956 . S
H475 C462 0.961 . S
H476 C462 0.961 . S
H477 C463 0.958 . S
H478 C463 0.961 . S
H479 C463 0.960 . S
C480 C481 1.391 . S
C480 C482 1.394 . S
C480 H496 0.931 . S
C481 C480 1.391 . S
C481 C485 1.376 . S
C482 C480 1.394 . S
C482 C483 1.369 . S
C482 C486 1.531 . S
C483 C482 1.369 . S
C483 C484 1.410 . S
C483 C491 1.503 . S
C484 C483 1.410 . S
C484 C485 1.392 . S
C484 C487 1.516 . S
C485 C481 1.376 . S
C485 C484 1.392 . S
C485 H497 0.929 1_556 S
C486 C482 1.531 . S
C486 H498 0.960 . S
C486 H499 0.962 . S
C486 H500 0.960 . S
C487 C484 1.516 . S
C487 H501 0.956 1_556 S
C487 H502 0.966 . S
C487 H503 0.956 1_556 S
C488 C489 1.370 . S
C488 C490 1.363 . S
C488 H504 0.931 . S
C489 C488 1.370 . S
C489 C493 1.408 . S
C490 C488 1.363 . S
C490 C491 1.370 . S
C490 C494 1.524 . S
C491 C483 1.503 . S
C491 C490 1.370 . S
C491 C492 1.403 . S
C492 C491 1.403 . S
C492 C493 1.404 . S
C492 C495 1.539 . S
C493 C489 1.408 . S
C493 C492 1.404 . S
C493 H505 0.930 . S
C494 C490 1.524 . S
C494 H506 0.956 . S
C494 H507 0.961 . S
C494 H508 0.961 . S
C495 C492 1.539 . S
C495 H509 0.958 . S
C495 H510 0.961 . S
C495 H511 0.960 . S
H496 C480 0.931 . S
H497 C485 0.929 1_554 S
H498 C486 0.960 . S
H499 C486 0.962 . S
H500 C486 0.960 . S
H501 C487 0.956 1_554 S
H502 C487 0.966 . S
H503 C487 0.956 1_554 S
H504 C488 0.931 . S
H505 C493 0.930 . S
H506 C494 0.956 . S
H507 C494 0.961 . S
H508 C494 0.961 . S
H509 C495 0.958 . S
H510 C495 0.961 . S
H511 C495 0.960 . S
C512 C513 1.391 . S
C512 C514 1.394 . S
C512 H528 0.931 . S
C513 C512 1.391 . S
C513 C517 1.376 . S
C514 C512 1.394 . S
C514 C515 1.369 . S
C514 C518 1.531 . S
C515 C514 1.369 . S
C515 C516 1.410 . S
C515 C523 1.503 . S
C516 C515 1.410 . S
C516 C517 1.392 . S
C516 C519 1.511 . S
C517 C513 1.376 . S
C517 C516 1.392 . S
C517 H529 0.929 . S
C518 C514 1.531 . S
C518 H530 0.960 . S
C518 H531 0.962 . S
C518 H532 0.960 . S
C519 C516 1.511 . S
C519 H533 0.961 . S
C519 H534 0.961 . S
C519 H535 0.961 . S
C520 C521 1.370 . S
C520 C522 1.363 . S
C520 H536 0.931 . S
C521 C520 1.370 . S
C521 C525 1.408 . S
C522 C520 1.363 . S
C522 C523 1.370 . S
C522 C526 1.524 . S
C523 C515 1.503 . S
C523 C522 1.370 . S
C523 C524 1.403 . S
C524 C523 1.403 . S
C524 C525 1.404 . S
C524 C527 1.539 . S
C525 C521 1.408 . S
C525 C524 1.404 . S
C525 H537 0.930 . S
C526 C522 1.524 . S
C526 H538 0.956 . S
C526 H539 0.961 . S
C526 H540 0.961 . S
C527 C524 1.539 . S
C527 H541 0.958 . S
C527 H542 0.961 . S
C527 H543 0.960 . S
H528 C512 0.931 . S
H529 C517 0.929 . S
H530 C518 0.960 . S
H531 C518 0.962 . S
H532 C518 0.960 . S
H533 C519 0.961 . S
H534 C519 0.961 . S
H535 C519 0.961 . S
H536 C520 0.931 . S
H537 C525 0.930 . S
H538 C526 0.956 . S
H539 C526 0.961 . S
H540 C526 0.961 . S
H541 C527 0.958 . S
H542 C527 0.961 . S
H543 C527 0.960 . S
C544 C545 1.391 . S
C544 C546 1.394 . S
C544 H560 0.931 . S
C545 C544 1.391 . S
C545 C549 1.399 . S
C546 C544 1.394 . S
C546 C547 1.369 1_565 S
C546 C550 1.531 . S
C547 C546 1.369 1_545 S
C547 C548 1.410 . S
C547 C555 1.503 . S
C548 C547 1.410 . S
C548 C549 1.376 1_545 S
C548 C551 1.511 . S
C549 C545 1.399 . S
C549 C548 1.376 1_565 S
C549 H561 0.922 1_565 S
C550 C546 1.531 . S
C550 H562 0.960 . S
C550 H563 0.962 . S
C550 H564 0.960 . S
C551 C548 1.511 . S
C551 H565 0.961 . S
C551 H566 0.961 . S
C551 H567 0.961 . S
C552 C553 1.370 . S
C552 C554 1.363 . S
C552 H568 0.931 . S
C553 C552 1.370 . S
C553 C557 1.408 . S
C554 C552 1.363 . S
C554 C555 1.370 . S
C554 C558 1.524 . S
C555 C547 1.503 . S
C555 C554 1.370 . S
C555 C556 1.403 . S
C556 C555 1.403 . S
C556 C557 1.404 . S
C556 C559 1.539 . S
C557 C553 1.408 . S
C557 C556 1.404 . S
C557 H569 0.930 . S
C558 C554 1.524 . S
C558 H570 0.956 . S
C558 H571 0.961 . S
C558 H572 0.961 . S
C559 C556 1.539 . S
C559 H573 0.958 . S
C559 H574 0.961 . S
C559 H575 0.960 . S
H560 C544 0.931 . S
H561 C549 0.922 1_545 S
H562 C550 0.960 . S
H563 C550 0.962 . S
H564 C550 0.960 . S
H565 C551 0.961 . S
H566 C551 0.961 . S
H567 C551 0.961 . S
H568 C552 0.931 . S
H569 C557 0.930 . S
H570 C558 0.956 . S
H571 C558 0.961 . S
H572 C558 0.961 . S
H573 C559 0.958 . S
H574 C559 0.961 . S
H575 C559 0.960 . S
C576 C577 1.391 . S
C576 C578 1.394 1_545 S
C576 H592 0.931 1_545 S
C577 C576 1.391 . S
C577 C581 1.376 . S
C578 C576 1.394 1_565 S
C578 C579 1.369 . S
C578 C582 1.531 . S
C579 C578 1.369 . S
C579 C580 1.410 1_565 S
C579 C587 1.503 . S
C580 C579 1.410 1_545 S
C580 C581 1.392 . S
C580 C583 1.511 . S
C581 C577 1.376 . S
C581 C580 1.392 . S
C581 H593 0.929 . S
C582 C578 1.531 . S
C582 H594 0.960 . S
C582 H595 0.962 . S
C582 H596 0.960 . S
C583 C580 1.511 . S
C583 H597 0.961 . S
C583 H598 0.961 . S
C583 H599 0.961 . S
C584 C585 1.370 . S
C584 C586 1.363 . S
C584 H600 0.931 . S
C585 C584 1.370 . S
C585 C589 1.408 . S
C586 C584 1.363 . S
C586 C587 1.370 . S
C586 C590 1.524 . S
C587 C579 1.503 . S
C587 C586 1.370 . S
C587 C588 1.403 . S
C588 C587 1.403 . S
C588 C589 1.404 . S
C588 C591 1.539 . S
C589 C585 1.408 . S
C589 C588 1.404 . S
C589 H601 0.930 . S
C590 C586 1.524 . S
C590 H602 0.956 . S
C590 H603 0.961 1_565 S
C590 H604 0.961 . S
C591 C588 1.539 . S
C591 H605 0.958 . S
C591 H606 0.961 . S
C591 H607 0.960 . S
H592 C576 0.931 1_565 S
H593 C581 0.929 . S
H594 C582 0.960 . S
H595 C582 0.962 . S
H596 C582 0.960 . S
H597 C583 0.961 . S
H598 C583 0.961 . S
H599 C583 0.961 . S
H600 C584 0.931 . S
H601 C589 0.930 . S
H602 C590 0.956 . S
H603 C590 0.961 1_545 S
H604 C590 0.961 . S
H605 C591 0.958 . S
H606 C591 0.961 . S
H607 C591 0.960 . S
C608 C609 1.391 . S
C608 C610 1.394 1_565 S
C608 H624 0.931 . S
C609 C608 1.391 . S
C609 C613 1.376 . S
C610 C608 1.394 1_545 S
C610 C611 1.369 . S
C610 C614 1.531 . S
C611 C610 1.369 . S
C611 C612 1.410 1_545 S
C611 C619 1.503 . S
C612 C611 1.410 1_565 S
C612 C613 1.392 . S
C612 C615 1.511 . S
C613 C609 1.376 . S
C613 C612 1.392 . S
C613 H625 0.929 . S
C614 C610 1.531 . S
C614 H626 0.960 . S
C614 H627 0.962 . S
C614 H628 0.960 . S
C615 C612 1.511 . S
C615 H629 0.961 . S
C615 H630 0.933 1_565 S
C615 H631 0.961 . S
C616 C617 1.370 . S
C616 C618 1.363 . S
C616 H632 0.931 . S
C617 C616 1.370 . S
C617 C621 1.408 . S
C618 C616 1.363 . S
C618 C619 1.370 . S
C618 C622 1.524 . S
C619 C611 1.503 . S
C619 C618 1.370 . S
C619 C620 1.403 . S
C620 C619 1.403 . S
C620 C621 1.404 . S
C620 C623 1.539 1_545 S
C621 C617 1.408 . S
C621 C620 1.404 . S
C621 H633 0.930 . S
C622 C618 1.524 . S
C622 H634 0.956 . S
C622 H635 0.961 . S
C622 H636 0.961 . S
C623 C620 1.539 1_565 S
C623 H637 0.958 . S
C623 H638 0.961 . S
C623 H639 0.960 . S
H624 C608 0.931 . S
H625 C613 0.929 . S
H626 C614 0.960 . S
H627 C614 0.962 . S
H628 C614 0.960 . S
H629 C615 0.961 . S
H630 C615 0.933 1_545 S
H631 C615 0.961 . S
H632 C616 0.931 . S
H633 C621 0.930 . S
H634 C622 0.956 . S
H635 C622 0.961 . S
H636 C622 0.961 . S
H637 C623 0.958 . S
H638 C623 0.961 . S
H639 C623 0.960 . S
C640 C641 1.391 . S
C640 C642 1.394 1_545 S
C640 H656 0.931 1_545 S
C641 C640 1.391 . S
C641 C645 1.376 . S
C642 C640 1.394 1_565 S
C642 C643 1.369 . S
C642 C646 1.531 . S
C643 C642 1.369 . S
C643 C644 1.410 1_565 S
C643 C651 1.503 . S
C644 C643 1.410 1_545 S
C644 C645 1.392 . S
C644 C647 1.511 . S
C645 C641 1.376 . S
C645 C644 1.392 . S
C645 H657 0.929 . S
C646 C642 1.531 . S
C646 H658 0.960 . S
C646 H659 0.962 . S
C646 H660 0.960 . S
C647 C644 1.511 . S
C647 H661 0.961 . S
C647 H662 0.961 . S
C647 H663 0.961 . S
C648 C649 1.370 . S
C648 C650 1.363 . S
C648 H664 0.931 . S
C649 C648 1.370 . S
C649 C653 1.408 . S
C650 C648 1.363 . S
C650 C651 1.370 . S
C650 C654 1.524 . S
C651 C643 1.503 . S
C651 C650 1.370 . S
C651 C652 1.403 . S
C652 C651 1.403 . S
C652 C653 1.404 . S
C652 C655 1.539 . S
C653 C649 1.408 . S
C653 C652 1.404 . S
C653 H665 0.930 . S
C654 C650 1.524 . S
C654 H666 0.956 . S
C654 H667 0.961 . S
C654 H668 0.961 . S
C655 C652 1.539 . S
C655 H669 0.958 . S
C655 H670 0.961 . S
C655 H671 0.938 1_565 S
H656 C640 0.931 1_565 S
H657 C645 0.929 . S
H658 C646 0.960 . S
H659 C646 0.962 . S
H660 C646 0.960 . S
H661 C647 0.961 . S
H662 C647 0.961 . S
H663 C647 0.961 . S
H664 C648 0.931 . S
H665 C653 0.930 . S
H666 C654 0.956 . S
H667 C654 0.961 . S
H668 C654 0.961 . S
H669 C655 0.958 . S
H670 C655 0.961 . S
H671 C655 0.938 1_545 S
C672 C673 1.391 . S
C672 C674 1.394 . S
C672 H688 0.931 . S
C673 C672 1.391 . S
C673 C677 1.376 . S
C674 C672 1.394 . S
C674 C675 1.369 . S
C674 C678 1.531 . S
C675 C674 1.369 . S
C675 C676 1.410 . S
C675 C683 1.503 . S
C676 C675 1.410 . S
C676 C677 1.392 . S
C676 C679 1.511 . S
C677 C673 1.376 . S
C677 C676 1.392 . S
C677 H689 0.929 . S
C678 C674 1.531 . S
C678 H690 0.960 . S
C678 H691 0.962 . S
C678 H692 0.960 . S
C679 C676 1.511 . S
C679 H693 0.961 . S
C679 H694 0.961 . S
C679 H695 0.961 . S
C680 C681 1.370 . S
C680 C682 1.363 . S
C680 H696 0.931 . S
C681 C680 1.370 . S
C681 C685 1.408 . S
C682 C680 1.363 . S
C682 C683 1.370 . S
C682 C686 1.524 . S
C683 C675 1.503 . S
C683 C682 1.370 . S
C683 C684 1.403 . S
C684 C683 1.403 . S
C684 C685 1.404 . S
C684 C687 1.539 . S
C685 C681 1.408 . S
C685 C684 1.404 . S
C685 H697 0.930 . S
C686 C682 1.524 . S
C686 H698 0.956 . S
C686 H699 0.961 . S
C686 H700 0.961 . S
C687 C684 1.539 . S
C687 H701 0.958 . S
C687 H702 0.961 . S
C687 H703 0.960 . S
H688 C672 0.931 . S
H689 C677 0.929 . S
H690 C678 0.960 . S
H691 C678 0.962 . S
H692 C678 0.960 . S
H693 C679 0.961 . S
H694 C679 0.961 . S
H695 C679 0.961 . S
H696 C680 0.931 . S
H697 C685 0.930 . S
H698 C686 0.956 . S
H699 C686 0.961 . S
H700 C686 0.961 . S
H701 C687 0.958 . S
H702 C687 0.961 . S
H703 C687 0.960 . S
C704 C705 1.391 . S
C704 C706 1.394 . S
C704 H720 0.931 . S
C705 C704 1.391 . S
C705 C709 1.376 . S
C706 C704 1.394 . S
C706 C707 1.369 . S
C706 C710 1.531 . S
C707 C706 1.369 . S
C707 C708 1.410 . S
C707 C715 1.503 . S
C708 C707 1.410 . S
C708 C709 1.392 . S
C708 C711 1.511 . S
C709 C705 1.376 . S
C709 C708 1.392 . S
C709 H721 0.929 . S
C710 C706 1.531 . S
C710 H722 0.960 . S
C710 H723 0.962 . S
C710 H724 0.960 . S
C711 C708 1.511 . S
C711 H725 0.961 . S
C711 H726 0.961 . S
C711 H727 0.961 . S
C712 C713 1.370 . S
C712 C714 1.363 . S
C712 H728 0.931 . S
C713 C712 1.370 . S
C713 C717 1.408 . S
C714 C712 1.363 . S
C714 C715 1.370 . S
C714 C718 1.524 . S
C715 C707 1.503 . S
C715 C714 1.370 . S
C715 C716 1.403 . S
C716 C715 1.403 . S
C716 C717 1.404 . S
C716 C719 1.539 . S
C717 C713 1.408 . S
C717 C716 1.404 . S
C717 H729 0.930 . S
C718 C714 1.524 . S
C718 H730 0.956 . S
C718 H731 0.961 . S
C718 H732 0.961 . S
C719 C716 1.539 . S
C719 H733 0.958 . S
C719 H734 0.961 . S
C719 H735 0.960 . S
H720 C704 0.931 . S
H721 C709 0.929 . S
H722 C710 0.960 . S
H723 C710 0.962 . S
H724 C710 0.960 . S
H725 C711 0.961 . S
H726 C711 0.961 . S
H727 C711 0.961 . S
H728 C712 0.931 . S
H729 C717 0.930 . S
H730 C718 0.956 . S
H731 C718 0.961 . S
H732 C718 0.961 . S
H733 C719 0.958 . S
H734 C719 0.961 . S
H735 C719 0.960 . S
C736 C737 1.391 . S
C736 C738 1.394 . S
C736 H752 0.931 . S
C737 C736 1.391 . S
C737 C741 1.376 . S
C738 C736 1.394 . S
C738 C739 1.369 . S
C738 C742 1.531 . S
C739 C738 1.369 . S
C739 C740 1.410 . S
C739 C747 1.503 . S
C740 C739 1.410 . S
C740 C741 1.392 . S
C740 C743 1.511 . S
C741 C737 1.376 . S
C741 C740 1.392 . S
C741 H753 0.929 . S
C742 C738 1.531 . S
C742 H754 0.960 . S
C742 H755 0.962 . S
C742 H756 0.960 . S
C743 C740 1.511 . S
C743 H757 0.961 . S
C743 H758 0.961 . S
C743 H759 0.961 . S
C744 C745 1.370 . S
C744 C746 1.363 . S
C744 H760 0.931 . S
C745 C744 1.370 . S
C745 C749 1.408 . S
C746 C744 1.363 . S
C746 C747 1.370 . S
C746 C750 1.524 . S
C747 C739 1.503 . S
C747 C746 1.370 . S
C747 C748 1.403 . S
C748 C747 1.403 . S
C748 C749 1.404 . S
C748 C751 1.539 . S
C749 C745 1.408 . S
C749 C748 1.404 . S
C749 H761 0.930 . S
C750 C746 1.524 . S
C750 H762 0.956 . S
C750 H763 0.961 . S
C750 H764 0.961 . S
C751 C748 1.539 . S
C751 H765 0.958 . S
C751 H766 0.961 . S
C751 H767 0.960 . S
H752 C736 0.931 . S
H753 C741 0.929 . S
H754 C742 0.960 . S
H755 C742 0.962 . S
H756 C742 0.960 . S
H757 C743 0.961 . S
H758 C743 0.961 . S
H759 C743 0.961 . S
H760 C744 0.931 . S
H761 C749 0.930 . S
H762 C750 0.956 . S
H763 C750 0.961 . S
H764 C750 0.961 . S
H765 C751 0.958 . S
H766 C751 0.961 . S
H767 C751 0.960 . S
C768 C769 1.391 . S
C768 C770 1.394 . S
C768 H784 0.931 . S
C769 C768 1.391 . S
C769 C773 1.376 . S
C770 C768 1.394 . S
C770 C771 1.369 . S
C770 C774 1.531 . S
C771 C770 1.369 . S
C771 C772 1.410 . S
C771 C779 1.503 . S
C772 C771 1.410 . S
C772 C773 1.392 . S
C772 C775 1.511 . S
C773 C769 1.376 . S
C773 C772 1.392 . S
C773 H785 0.929 . S
C774 C770 1.531 . S
C774 H786 0.960 . S
C774 H787 0.962 . S
C774 H788 0.960 . S
C775 C772 1.511 . S
C775 H789 0.961 . S
C775 H790 0.961 . S
C775 H791 0.961 . S
C776 C777 1.370 . S
C776 C778 1.363 . S
C776 H792 0.931 . S
C777 C776 1.370 . S
C777 C781 1.408 . S
C778 C776 1.363 . S
C778 C779 1.370 . S
C778 C782 1.524 . S
C779 C771 1.503 . S
C779 C778 1.370 . S
C779 C780 1.403 . S
C780 C779 1.403 . S
C780 C781 1.404 . S
C780 C783 1.539 . S
C781 C777 1.408 . S
C781 C780 1.404 . S
C781 H793 0.930 . S
C782 C778 1.524 . S
C782 H794 0.956 . S
C782 H795 0.961 . S
C782 H796 0.961 . S
C783 C780 1.539 . S
C783 H797 0.958 . S
C783 H798 0.961 . S
C783 H799 0.960 . S
H784 C768 0.931 . S
H785 C773 0.929 . S
H786 C774 0.960 . S
H787 C774 0.962 . S
H788 C774 0.960 . S
H789 C775 0.961 . S
H790 C775 0.961 . S
H791 C775 0.961 . S
H792 C776 0.931 . S
H793 C781 0.930 . S
H794 C782 0.956 . S
H795 C782 0.961 . S
H796 C782 0.961 . S
H797 C783 0.958 . S
H798 C783 0.961 . S
H799 C783 0.960 . S
C800 C801 1.391 . S
C800 C802 1.394 . S
C800 H816 0.931 . S
C801 C800 1.391 . S
C801 C805 1.376 . S
C802 C800 1.394 . S
C802 C803 1.369 . S
C802 C806 1.531 . S
C803 C802 1.369 . S
C803 C804 1.410 . S
C803 C811 1.503 . S
C804 C803 1.410 . S
C804 C805 1.392 . S
C804 C807 1.511 . S
C805 C801 1.376 . S
C805 C804 1.392 . S
C805 H817 0.929 . S
C806 C802 1.531 . S
C806 H818 0.960 . S
C806 H819 0.962 . S
C806 H820 0.960 . S
C807 C804 1.511 . S
C807 H821 0.961 . S
C807 H822 0.961 . S
C807 H823 0.961 . S
C808 C809 1.370 . S
C808 C810 1.363 . S
C808 H824 0.931 . S
C809 C808 1.370 . S
C809 C813 1.408 . S
C810 C808 1.363 . S
C810 C811 1.370 . S
C810 C814 1.524 . S
C811 C803 1.503 . S
C811 C810 1.370 . S
C811 C812 1.403 . S
C812 C811 1.403 . S
C812 C813 1.404 . S
C812 C815 1.539 . S
C813 C809 1.408 . S
C813 C812 1.404 . S
C813 H825 0.930 . S
C814 C810 1.524 . S
C814 H826 0.956 . S
C814 H827 0.961 . S
C814 H828 0.961 . S
C815 C812 1.539 . S
C815 H829 0.958 . S
C815 H830 0.961 . S
C815 H831 0.960 . S
H816 C800 0.931 . S
H817 C805 0.929 . S
H818 C806 0.960 . S
H819 C806 0.962 . S
H820 C806 0.960 . S
H821 C807 0.961 . S
H822 C807 0.961 . S
H823 C807 0.961 . S
H824 C808 0.931 . S
H825 C813 0.930 . S
H826 C814 0.956 . S
H827 C814 0.961 . S
H828 C814 0.961 . S
H829 C815 0.958 . S
H830 C815 0.961 . S
H831 C815 0.960 . S
C832 C833 1.391 . S
C832 C834 1.394 . S
C832 H848 0.931 . S
C833 C832 1.391 . S
C833 C837 1.376 . S
C834 C832 1.394 . S
C834 C835 1.369 . S
C834 C838 1.531 . S
C835 C834 1.369 . S
C835 C836 1.410 . S
C835 C843 1.503 . S
C836 C835 1.410 . S
C836 C837 1.392 . S
C836 C839 1.511 . S
C837 C833 1.376 . S
C837 C836 1.392 . S
C837 H849 0.929 . S
C838 C834 1.531 . S
C838 H850 0.960 . S
C838 H851 0.962 . S
C838 H852 0.960 . S
C839 C836 1.511 . S
C839 H853 0.961 . S
C839 H854 0.961 . S
C839 H855 0.961 . S
C840 C841 1.370 . S
C840 C842 1.363 . S
C840 H856 0.931 . S
C841 C840 1.370 . S
C841 C845 1.408 . S
C842 C840 1.363 . S
C842 C843 1.370 . S
C842 C846 1.524 . S
C843 C835 1.503 . S
C843 C842 1.370 . S
C843 C844 1.403 . S
C844 C843 1.403 . S
C844 C845 1.404 . S
C844 C847 1.539 . S
C845 C841 1.408 . S
C845 C844 1.404 . S
C845 H857 0.930 . S
C846 C842 1.524 . S
C846 H858 0.956 . S
C846 H859 0.961 . S
C846 H860 0.961 . S
C847 C844 1.539 . S
C847 H861 0.958 . S
C847 H862 0.961 . S
C847 H863 0.960 . S
H848 C832 0.931 . S
H849 C837 0.929 . S
H850 C838 0.960 . S
H851 C838 0.962 . S
H852 C838 0.960 . S
H853 C839 0.961 . S
H854 C839 0.961 . S
H855 C839 0.961 . S
H856 C840 0.931 . S
H857 C845 0.930 . S
H858 C846 0.956 . S
H859 C846 0.961 . S
H860 C846 0.961 . S
H861 C847 0.958 . S
H862 C847 0.961 . S
H863 C847 0.960 . S
C864 C865 1.391 . S
C864 C866 1.394 . S
C864 H880 0.931 . S
C865 C864 1.391 . S
C865 C869 1.376 . S
C866 C864 1.394 . S
C866 C867 1.369 . S
C866 C870 1.531 . S
C867 C866 1.369 . S
C867 C868 1.410 . S
C867 C875 1.503 . S
C868 C867 1.410 . S
C868 C869 1.392 . S
C868 C871 1.511 . S
C869 C865 1.376 . S
C869 C868 1.392 . S
C869 H881 0.929 . S
C870 C866 1.531 . S
C870 H882 0.960 . S
C870 H883 0.962 . S
C870 H884 0.960 . S
C871 C868 1.511 . S
C871 H885 0.961 . S
C871 H886 0.961 . S
C871 H887 0.961 . S
C872 C873 1.370 . S
C872 C874 1.363 . S
C872 H888 0.931 . S
C873 C872 1.370 . S
C873 C877 1.408 . S
C874 C872 1.363 . S
C874 C875 1.370 . S
C874 C878 1.524 . S
C875 C867 1.503 . S
C875 C874 1.370 . S
C875 C876 1.403 . S
C876 C875 1.403 . S
C876 C877 1.404 . S
C876 C879 1.539 . S
C877 C873 1.408 . S
C877 C876 1.404 . S
C877 H889 0.930 . S
C878 C874 1.524 . S
C878 H890 0.956 . S
C878 H891 0.961 . S
C878 H892 0.961 . S
C879 C876 1.539 . S
C879 H893 0.958 . S
C879 H894 0.961 . S
C879 H895 0.960 . S
H880 C864 0.931 . S
H881 C869 0.929 . S
H882 C870 0.960 . S
H883 C870 0.962 . S
H884 C870 0.960 . S
H885 C871 0.961 . S
H886 C871 0.961 . S
H887 C871 0.961 . S
H888 C872 0.931 . S
H889 C877 0.930 . S
H890 C878 0.956 . S
H891 C878 0.961 . S
H892 C878 0.961 . S
H893 C879 0.958 . S
H894 C879 0.961 . S
H895 C879 0.960 . S
C896 C897 1.391 . S
C896 C898 1.394 . S
C896 H912 0.931 . S
C897 C896 1.391 . S
C897 C901 1.376 . S
C898 C896 1.394 . S
C898 C899 1.369 . S
C898 C902 1.531 . S
C899 C898 1.369 . S
C899 C900 1.410 . S
C899 C907 1.503 . S
C900 C899 1.410 . S
C900 C901 1.392 . S
C900 C903 1.511 . S
C901 C897 1.376 . S
C901 C900 1.392 . S
C901 H913 0.929 . S
C902 C898 1.531 . S
C902 H914 0.960 . S
C902 H915 0.962 . S
C902 H916 0.960 . S
C903 C900 1.511 . S
C903 H917 0.961 . S
C903 H918 0.961 . S
C903 H919 0.961 . S
C904 C905 1.370 . S
C904 C906 1.363 . S
C904 H920 0.931 . S
C905 C904 1.370 . S
C905 C909 1.408 . S
C906 C904 1.363 . S
C906 C907 1.370 . S
C906 C910 1.524 . S
C907 C899 1.503 . S
C907 C906 1.370 . S
C907 C908 1.403 . S
C908 C907 1.403 . S
C908 C909 1.404 . S
C908 C911 1.539 . S
C909 C905 1.408 . S
C909 C908 1.404 . S
C909 H921 0.930 . S
C910 C906 1.524 . S
C910 H922 0.956 . S
C910 H923 0.961 . S
C910 H924 0.961 . S
C911 C908 1.539 . S
C911 H925 0.958 . S
C911 H926 0.961 . S
C911 H927 0.960 . S
H912 C896 0.931 . S
H913 C901 0.929 . S
H914 C902 0.960 . S
H915 C902 0.962 . S
H916 C902 0.960 . S
H917 C903 0.961 . S
H918 C903 0.961 . S
H919 C903 0.961 . S
H920 C904 0.931 . S
H921 C909 0.930 . S
H922 C910 0.956 . S
H923 C910 0.961 . S
H924 C910 0.961 . S
H925 C911 0.958 . S
H926 C911 0.961 . S
H927 C911 0.960 . S
C161 C7 1.513 . S
C169 C98 1.479 . S
C201 C76 1.495 . S
C193 C16 1.495 . S
C233 C102 1.493 . S
C225 C25 1.496 . S
C265 C80 1.485 . S
C257 C34 1.507 . S
C297 C142 1.481 . S
C289 C43 1.510 . S
C329 C120 1.496 . S
C321 C52 1.494 . S
C353 C61 1.496 . S
C361 C146 1.492 . S
C393 C124 1.488 . S
C385 C70 1.506 . S
C417 C5 1.472 . S
C425 C147 1.459 . S
C457 C125 1.460 . S
C449 C14 1.472 . S
C481 C22 1.458 . S
C489 C144 1.450 . S
C513 C32 1.484 . S
C521 C122 1.471 . S
C553 C103 1.469 . S
C545 C41 1.486 . S
C577 C50 1.468 . S
C585 C81 1.457 . S
C617 C100 1.456 . S
C609 C58 1.471 . S
C649 C78 1.466 . S
C641 C68 1.481 . S
C681 C121 1.451 . S
C673 C4 1.474 . S
C713 C143 1.447 . S
C705 C13 1.470 . S
C737 C23 1.466 . S
C745 C123 1.452 . S
C777 C145 1.442 . S
C769 C31 1.445 . S
C809 C77 1.450 . S
C801 C40 1.472 . S
C833 C49 1.464 . S
C841 C99 1.443 . S
C865 C59 1.455 . S
C873 C79 1.434 . S
C897 C67 1.450 . S
C905 C101 1.434 . S
