# Generated by pormake.
# Topology pto, (3,4)-cn, num edge types: 1
# Building blocks:
#     Node 0, Type 0, BuildingBlock: QEWDON_clean_linker_0, # of connection points: 3
#     Node 1, Type 0, BuildingBlock: QEWDON_clean_linker_0, # of connection points: 3
#     Node 2, Type 0, BuildingBlock: QEWDON_clean_linker_0, # of connection points: 3
#     Node 3, Type 0, BuildingBlock: QEWDON_clean_linker_0, # of connection points: 3
#     Node 4, Type 0, BuildingBlock: QEWDON_clean_linker_0, # of connection points: 3
#     Node 5, Type 0, BuildingBlock: QEWDON_clean_linker_0, # of connection points: 3
#     Node 6, Type 0, BuildingBlock: QEWDON_clean_linker_0, # of connection points: 3
#     Node 7, Type 0, BuildingBlock: QEWDON_clean_linker_0, # of connection points: 3
#     Node 8, Type 1, BuildingBlock: KOZSID_clean_sbu_0, # of connection points: 4
#     Node 9, Type 1, BuildingBlock: KOZSID_clean_sbu_0, # of connection points: 4
#     Node 10, Type 1, BuildingBlock: KOZSID_clean_sbu_0, # of connection points: 4
#     Node 11, Type 1, BuildingBlock: KOZSID_clean_sbu_0, # of connection points: 4
#     Node 12, Type 1, BuildingBlock: KOZSID_clean_sbu_0, # of connection points: 4
#     Node 13, Type 1, BuildingBlock: KOZSID_clean_sbu_0, # of connection points: 4
#     Edge 14, Type (0, 1), BuildingBlock: UVAHIK_clean_linker_0, # of connection points: 2
#     Edge 15, Type (0, 1), BuildingBlock: UVAHIK_clean_linker_0, # of connection points: 2
#     Edge 16, Type (0, 1), BuildingBlock: UVAHIK_clean_linker_0, # of connection points: 2
#     Edge 17, Type (0, 1), BuildingBlock: UVAHIK_clean_linker_0, # of connection points: 2
#     Edge 18, Type (0, 1), BuildingBlock: UVAHIK_clean_linker_0, # of connection points: 2
#     Edge 19, Type (0, 1), BuildingBlock: UVAHIK_clean_linker_0, # of connection points: 2
#     Edge 20, Type (0, 1), BuildingBlock: UVAHIK_clean_linker_0, # of connection points: 2
#     Edge 21, Type (0, 1), BuildingBlock: UVAHIK_clean_linker_0, # of connection points: 2
#     Edge 22, Type (0, 1), BuildingBlock: UVAHIK_clean_linker_0, # of connection points: 2
#     Edge 23, Type (0, 1), BuildingBlock: UVAHIK_clean_linker_0, # of connection points: 2
#     Edge 24, Type (0, 1), BuildingBlock: UVAHIK_clean_linker_0, # of connection points: 2
#     Edge 25, Type (0, 1), BuildingBlock: UVAHIK_clean_linker_0, # of connection points: 2
#     Edge 26, Type (0, 1), BuildingBlock: UVAHIK_clean_linker_0, # of connection points: 2
#     Edge 27, Type (0, 1), BuildingBlock: UVAHIK_clean_linker_0, # of connection points: 2
#     Edge 28, Type (0, 1), BuildingBlock: UVAHIK_clean_linker_0, # of connection points: 2
#     Edge 29, Type (0, 1), BuildingBlock: UVAHIK_clean_linker_0, # of connection points: 2
#     Edge 30, Type (0, 1), BuildingBlock: UVAHIK_clean_linker_0, # of connection points: 2
#     Edge 31, Type (0, 1), BuildingBlock: UVAHIK_clean_linker_0, # of connection points: 2
#     Edge 32, Type (0, 1), BuildingBlock: UVAHIK_clean_linker_0, # of connection points: 2
#     Edge 33, Type (0, 1), BuildingBlock: UVAHIK_clean_linker_0, # of connection points: 2
#     Edge 34, Type (0, 1), BuildingBlock: UVAHIK_clean_linker_0, # of connection points: 2
#     Edge 35, Type (0, 1), BuildingBlock: UVAHIK_clean_linker_0, # of connection points: 2
#     Edge 36, Type (0, 1), BuildingBlock: UVAHIK_clean_linker_0, # of connection points: 2
#     Edge 37, Type (0, 1), BuildingBlock: UVAHIK_clean_linker_0, # of connection points: 2
# Relax obj value: 0.016
# Max RMSD: 0.202
# Mean RMSD: 0.078
data_MOF--net-pto--node1-KOZSID_clean_sbu_0--node2-QEWDON_clean_linker_0--edge1-UVAHIK_clean_linker_0
_symmetry_space_group_name_H-M    P1
_symmetry_Int_Tables_number       1
_symmetry_cell_setting            triclinic
loop_
_symmetry_equiv_pos_as_xyz
'x, y, z'
_cell_length_a     42.919659
_cell_length_b     65.491683
_cell_length_c     59.264507
_cell_angle_alpha  93.055494
_cell_angle_beta   110.33385
_cell_angle_gamma 102.64682
loop_
_atom_site_label
_atom_site_type_symbol
_atom_site_fract_x
_atom_site_fract_y
_atom_site_fract_z
_atom_type_partial_charge
H0 H 0.24622 0.30286 0.29182 0.0
C1 C 0.24261 0.28708 0.29685 0.0
C2 C 0.24572 0.27044 0.28243 0.0
C3 C 0.23568 0.28345 0.31801 0.0
H4 H 0.24663 0.23769 0.27908 0.0
C5 C 0.24241 0.25019 0.28952 0.0
C6 C 0.2359 0.24634 0.31075 0.0
C7 C 0.2316 0.26295 0.3244 0.0
C8 C 0.23428 0.30101 0.33433 0.0
H9 H 0.22532 0.25993 0.34031 0.0
C10 C 0.2171 0.31655 0.32501 0.0
C11 C 0.21432 0.33215 0.34094 0.0
C12 C 0.24966 0.30192 0.35972 0.0
H13 H 0.26381 0.29056 0.36748 0.0
C14 C 0.24708 0.31749 0.37544 0.0
H15 H 0.20504 0.31615 0.30555 0.0
C16 C 0.22926 0.33243 0.36614 0.0
H17 H 0.22747 0.34442 0.37864 0.0
H18 H 0.25887 0.31795 0.3949 0.0
H19 H 0.30678 0.79793 0.69228 0.0
C20 C 0.29196 0.78167 0.68929 0.0
C21 C 0.30654 0.76692 0.70298 0.0
C22 C 0.2577 0.77581 0.67282 0.0
H23 H 0.29706 0.73503 0.71128 0.0
C24 C 0.28663 0.7461 0.69975 0.0
C25 C 0.25235 0.74 0.68349 0.0
C26 C 0.23836 0.75485 0.66976 0.0
C27 C 0.24086 0.79195 0.66073 0.0
H28 H 0.21193 0.75021 0.65711 0.0
C29 C 0.25752 0.80742 0.6502 0.0
C30 C 0.24149 0.82296 0.63947 0.0
C31 C 0.20799 0.79224 0.66035 0.0
H32 H 0.19479 0.78083 0.6687 0.0
C33 C 0.19202 0.80752 0.64965 0.0
H34 H 0.28288 0.8074 0.65044 0.0
C35 C 0.20857 0.82278 0.63927 0.0
H36 H 0.1954 0.83433 0.63082 0.0
H37 H 0.16672 0.80757 0.64944 0.0
H38 H 0.89361 0.82412 0.43406 0.0
C39 C 0.88891 0.82745 0.4156 0.0
C40 C 0.90441 0.81857 0.40159 0.0
C41 C 0.86625 0.83993 0.40547 0.0
H42 H 0.90778 0.81467 0.36622 0.0
C43 C 0.89684 0.82215 0.37735 0.0
C44 C 0.87359 0.83418 0.36688 0.0
C45 C 0.85881 0.84336 0.38119 0.0
C46 C 0.84648 0.84688 0.41894 0.0
H47 H 0.83998 0.85212 0.37307 0.0
C48 C 0.85957 0.86604 0.43485 0.0
C49 C 0.83929 0.87299 0.44638 0.0
C50 C 0.81345 0.8345 0.41496 0.0
H51 H 0.80306 0.81973 0.40268 0.0
C52 C 0.79352 0.84117 0.42662 0.0
H53 H 0.88493 0.87572 0.43768 0.0
C54 C 0.80623 0.86032 0.44215 0.0
H55 H 0.79027 0.86518 0.451 0.0
H56 H 0.76805 0.83154 0.42349 0.0
H57 H 0.85152 0.33982 0.9489 0.0
C58 C 0.85304 0.32658 0.93788 0.0
C59 C 0.85231 0.32854 0.91424 0.0
C60 C 0.85667 0.30772 0.94753 0.0
H61 H 0.85533 0.31322 0.88232 0.0
C62 C 0.85471 0.31141 0.90025 0.0
C63 C 0.85871 0.29256 0.90973 0.0
C64 C 0.85985 0.29086 0.9335 0.0
C65 C 0.85819 0.3057 0.97256 0.0
H66 H 0.86286 0.27637 0.94103 0.0
C67 C 0.83001 0.30691 0.97901 0.0
C68 C 0.83069 0.30375 0.00248 0.0
C69 C 0.88742 0.30173 0.98982 0.0
H70 H 0.90935 0.30072 0.98513 0.0
C71 C 0.88863 0.29915 0.01329 0.0
H72 H 0.80712 0.30943 0.96543 0.0
C73 C 0.86047 0.30008 0.01961 0.0
H74 H 0.86202 0.29793 0.03793 0.0
H75 H 0.91135 0.29624 0.02658 0.0
H76 H 0.99255 0.80763 0.83666 0.0
C77 C 0.97395 0.8091 0.84479 0.0
C78 C 0.95105 0.79092 0.8467 0.0
C79 C 0.97285 0.82931 0.853 0.0
H80 H 0.90982 0.77938 0.85936 0.0
C81 C 0.92682 0.79328 0.85699 0.0
C82 C 0.92557 0.81345 0.86545 0.0
C83 C 0.94851 0.83142 0.86317 0.0
C84 C 0.99817 0.84814 0.85178 0.0
H85 H 0.94786 0.84705 0.8697 0.0
C86 C 0.98733 0.86456 0.8394 0.0
C87 C 0.01156 0.88225 0.83776 0.0
C88 C 0.03341 0.84955 0.86279 0.0
H89 H 0.04224 0.83707 0.87245 0.0
C90 C 0.05753 0.8672 0.86168 0.0
H91 H 0.96008 0.86314 0.8304 0.0
C92 C 0.04678 0.88345 0.8493 0.0
H93 H 0.06612 0.89703 0.84891 0.0
H94 H 0.08468 0.86829 0.87043 0.0
H95 H 0.88039 0.31763 0.43608 0.0
C96 C 0.85535 0.31781 0.42316 0.0
C97 C 0.84737 0.33719 0.41806 0.0
C98 C 0.83195 0.29865 0.41053 0.0
H99 H 0.80888 0.35192 0.39646 0.0
C100 C 0.81503 0.33708 0.40082 0.0
C101 C 0.79135 0.31802 0.38803 0.0
C102 C 0.80005 0.29885 0.3931 0.0
C103 C 0.84234 0.27858 0.41328 0.0
H104 H 0.78264 0.28405 0.38274 0.0
C105 C 0.85138 0.27096 0.43581 0.0
C106 C 0.86155 0.25189 0.43808 0.0
C107 C 0.84353 0.26703 0.39307 0.0
H108 H 0.83674 0.27268 0.37558 0.0
C109 C 0.85396 0.24828 0.39533 0.0
H110 H 0.85037 0.27979 0.45143 0.0
C111 C 0.86299 0.24074 0.41768 0.0
H112 H 0.87047 0.22595 0.41891 0.0
H113 H 0.85493 0.23951 0.37968 0.0
H114 H 0.24842 0.24495 0.71125 0.0
C115 C 0.23122 0.25479 0.71149 0.0
C116 C 0.22412 0.25834 0.73258 0.0
C117 C 0.21716 0.26462 0.69109 0.0
H118 H 0.19872 0.2752 0.74987 0.0
C119 C 0.20323 0.27189 0.73329 0.0
C120 C 0.18963 0.28213 0.71339 0.0
C121 C 0.19597 0.27805 0.69215 0.0
C122 C 0.22649 0.26232 0.66934 0.0
H123 H 0.18552 0.28603 0.67676 0.0
C124 C 0.22631 0.24241 0.6589 0.0
C125 C 0.23375 0.24051 0.63763 0.0
C126 C 0.23531 0.28032 0.6587 0.0
H127 H 0.2364 0.29588 0.66659 0.0
C128 C 0.24314 0.2785 0.63787 0.0
H129 H 0.21932 0.22839 0.66679 0.0
C130 C 0.2422 0.25876 0.62731 0.0
H131 H 0.24847 0.25777 0.61115 0.0
H132 H 0.24994 0.29247 0.62987 0.0
H133 H 0.29138 0.80625 0.1912 0.0
C134 C 0.28278 0.79353 0.20034 0.0
C135 C 0.28372 0.79809 0.22403 0.0
C136 C 0.26978 0.77266 0.18816 0.0
H137 H 0.27186 0.78521 0.25363 0.0
C138 C 0.27165 0.78165 0.23548 0.0
C139 C 0.25805 0.76082 0.22349 0.0
C140 C 0.2576 0.75639 0.19993 0.0
C141 C 0.26691 0.7679 0.16265 0.0
H142 H 0.24694 0.74036 0.19047 0.0
C143 C 0.29499 0.77535 0.15555 0.0
C144 C 0.29215 0.7704 0.13134 0.0
C145 C 0.23581 0.75566 0.14526 0.0
H146 H 0.21372 0.74992 0.15019 0.0
C147 C 0.23277 0.75086 0.12127 0.0
H148 H 0.31901 0.78483 0.16888 0.0
C149 C 0.26068 0.75809 0.11433 0.0
H150 H 0.25777 0.75369 0.09569 0.0
H151 H 0.20872 0.74138 0.10802 0.0
C152 C 0.12716 0.60688 0.37192 0.0
C153 C 0.16136 0.61779 0.38375 0.0
C154 C 0.17105 0.6131 0.40694 0.0
C155 C 0.14235 0.5997 0.40797 0.0
N156 N 0.11487 0.59544 0.3868 0.0
Co157 Co 0.0678 0.57695 0.38036 0.0
N158 N 0.08247 0.5695 0.41422 0.0
C159 C 0.11353 0.5769 0.43232 0.0
C160 C 0.11629 0.56813 0.45321 0.0
C161 C 0.08537 0.55397 0.44801 0.0
C162 C 0.06555 0.55493 0.42415 0.0
N163 N 0.02075 0.55849 0.37401 0.0
C164 C 0.00966 0.54518 0.38795 0.0
C165 C 0.97534 0.53443 0.37621 0.0
C166 C 0.9645 0.541 0.35399 0.0
C167 C 0.99266 0.55524 0.35335 0.0
N168 N 0.05319 0.58418 0.3464 0.0
C169 C 0.02167 0.57738 0.32867 0.0
C170 C 0.01944 0.58491 0.30718 0.0
C171 C 0.05144 0.59732 0.3114 0.0
C172 C 0.07137 0.59667 0.33536 0.0
N173 N 0.08139 0.55229 0.36944 0.0
C174 C 0.10014 0.51641 0.35517 0.0
C175 C 0.06804 0.51995 0.34238 0.0
C176 C 0.05941 0.53792 0.34962 0.0
C177 C 0.12282 0.53146 0.37497 0.0
C178 C 0.1129 0.54895 0.38186 0.0
N179 N 0.05419 0.60177 0.39133 0.0
C180 C 0.01414 0.62377 0.38487 0.0
C181 C 0.0367 0.63832 0.40506 0.0
C182 C 0.06775 0.63406 0.41863 0.0
C183 C 0.07574 0.61574 0.41167 0.0
C184 C 0.0234 0.60585 0.37832 0.0
H185 H 0.09966 0.61342 0.42294 0.0
H186 H 0.00537 0.59575 0.36242 0.0
H187 H 0.03466 0.53976 0.33907 0.0
H188 H 0.13112 0.55951 0.39741 0.0
C189 C 0.14043 0.59073 0.42849 0.0
C190 C 0.1073 0.60834 0.34678 0.0
C191 C 0.03144 0.541 0.41139 0.0
C192 C 0.99454 0.56414 0.33281 0.0
H193 H 0.17757 0.62819 0.37641 0.0
H194 H 0.196 0.61884 0.42135 0.0
H195 H 0.13855 0.5711 0.46992 0.0
H196 H 0.07842 0.54368 0.46013 0.0
H197 H 0.95995 0.52249 0.38257 0.0
H198 H 0.93952 0.53532 0.33959 0.0
H199 H 0.99717 0.58182 0.29046 0.0
H200 H 0.05922 0.60594 0.29835 0.0
H201 H 0.04925 0.50875 0.32709 0.0
H202 H 0.14832 0.52988 0.38523 0.0
H203 H 0.98983 0.62653 0.3737 0.0
H204 H 0.08584 0.64481 0.43462 0.0
C205 C 0.08597 0.54741 0.76511 0.0
C206 C 0.12037 0.5561 0.77925 0.0
C207 C 0.12545 0.55011 0.80168 0.0
C208 C 0.09402 0.53821 0.80003 0.0
N209 N 0.06921 0.53601 0.77778 0.0
Co210 Co 0.01964 0.5204 0.76751 0.0
N211 N 0.02582 0.51478 0.80158 0.0
C212 C 0.05496 0.52124 0.82158 0.0
C213 C 0.05123 0.51524 0.84248 0.0
C214 C 0.01772 0.50422 0.83544 0.0
C215 C 0.00294 0.5041 0.81053 0.0
N216 N 0.97035 0.50422 0.75708 0.0
C217 C 0.95311 0.49384 0.7701 0.0
C218 C 0.91933 0.48388 0.75563 0.0
C219 C 0.91512 0.48791 0.73255 0.0
C220 C 0.94645 0.50005 0.73425 0.0
N221 N 0.01318 0.52682 0.73368 0.0
C222 C 0.98399 0.5207 0.7137 0.0
C223 C 0.98704 0.52842 0.69332 0.0
C224 C 0.01995 0.54059 0.70082 0.0
C225 C 0.03504 0.53957 0.72545 0.0
N226 N 0.0318 0.4937 0.76056 0.0
C227 C 0.05114 0.45667 0.75046 0.0
C228 C 0.02614 0.46357 0.73254 0.0
C229 C 0.01672 0.48181 0.73799 0.0
C230 C 0.0656 0.46842 0.77367 0.0
C231 C 0.05589 0.48673 0.77821 0.0
N232 N 0.00773 0.54703 0.77439 0.0
C233 C 0.97133 0.57113 0.76286 0.0
C234 C 0.99327 0.58603 0.78299 0.0
C235 C 0.0221 0.58081 0.799 0.0
C236 C 0.0288 0.56145 0.79438 0.0
C237 C 0.97895 0.55186 0.75896 0.0
H238 H 0.05139 0.55856 0.80714 0.0
H239 H 0.96148 0.54121 0.74318 0.0
H240 H 0.99733 0.48597 0.72353 0.0
H241 H 0.06841 0.49491 0.7962 0.0
C242 C 0.08599 0.5315 0.81977 0.0
C243 C 0.06971 0.55167 0.7404 0.0
C244 C 0.9677 0.49261 0.79601 0.0
C245 C 0.95395 0.50814 0.71489 0.0
H246 H 0.1396 0.56634 0.77422 0.0
H247 H 0.14885 0.55481 0.81765 0.0
H248 H 0.07076 0.51806 0.86056 0.0
H249 H 0.0057 0.4967 0.84722 0.0
H250 H 0.89982 0.47456 0.7612 0.0
H251 H 0.89201 0.48262 0.71645 0.0
H252 H 0.96745 0.52588 0.67528 0.0
H253 H 0.03143 0.54955 0.6896 0.0
H254 H 0.01417 0.4552 0.71418 0.0
H255 H 0.08438 0.46355 0.78849 0.0
H256 H 0.94877 0.57446 0.74982 0.0
H257 H 0.03952 0.5916 0.81514 0.0
C258 C 0.32624 0.99226 0.48858 0.0
C259 C 0.35962 0.99333 0.50391 0.0
C260 C 0.38048 0.00953 0.49837 0.0
C261 C 0.35875 0.01744 0.48013 0.0
N262 N 0.32521 0.00722 0.47356 0.0
Co263 Co 0.28486 0.01393 0.44826 0.0
N264 N 0.31552 0.03821 0.44075 0.0
C265 C 0.35026 0.04418 0.45025 0.0
C266 C 0.36413 0.06141 0.44152 0.0
C267 C 0.33662 0.06692 0.42564 0.0
C268 C 0.30744 0.05273 0.42573 0.0
N269 N 0.24447 0.02091 0.42331 0.0
C270 C 0.2431 0.03736 0.41035 0.0
C271 C 0.2095 0.03697 0.39604 0.0
C272 C 0.18893 0.01967 0.40005 0.0
C273 C 0.21095 0.0106 0.41663 0.0
N274 N 0.25423 0.98949 0.45554 0.0
C275 C 0.21972 0.98236 0.44448 0.0
C276 C 0.20581 0.96511 0.45315 0.0
C277 C 0.23301 0.96095 0.47085 0.0
C278 C 0.26207 0.97603 0.47202 0.0
N279 N 0.28074 0.03318 0.47348 0.0
C280 C 0.27406 0.06312 0.50642 0.0
C281 C 0.24561 0.04727 0.49131 0.0
C282 C 0.24953 0.03252 0.47521 0.0
C283 C 0.30614 0.06309 0.50542 0.0
C284 C 0.30887 0.04814 0.48899 0.0
N285 N 0.289 0.99473 0.42279 0.0
C286 C 0.26275 0.96879 0.3865 0.0
C287 C 0.29487 0.96815 0.38616 0.0
C288 C 0.32401 0.98092 0.40451 0.0
C289 C 0.32052 0.99402 0.42239 0.0
C290 C 0.26043 0.98195 0.40489 0.0
H291 H 0.34378 0.00343 0.43562 0.0
H292 H 0.2352 0.98144 0.40417 0.0
H293 H 0.22683 0.02099 0.46398 0.0
H294 H 0.33393 0.04919 0.48886 0.0
C295 C 0.36903 0.03428 0.46863 0.0
C296 C 0.29641 0.97693 0.48919 0.0
C297 C 0.27269 0.05409 0.41174 0.0
C298 C 0.20089 0.99279 0.42681 0.0
H299 H 0.368 0.98345 0.51772 0.0
H300 H 0.40819 0.01493 0.50668 0.0
H301 H 0.39101 0.06934 0.44655 0.0
H302 H 0.33786 0.0801 0.41544 0.0
H303 H 0.2006 0.0482 0.38422 0.0
H304 H 0.16117 0.01456 0.39221 0.0
H305 H 0.17902 0.95673 0.44747 0.0
H306 H 0.23161 0.9483 0.48178 0.0
H307 H 0.22015 0.04659 0.49126 0.0
H308 H 0.32914 0.07469 0.51714 0.0
H309 H 0.23941 0.95891 0.37285 0.0
H310 H 0.34949 0.98107 0.4049 0.0
C311 C 0.58501 0.82891 0.0377 0.0
C312 C 0.57438 0.84698 0.04123 0.0
C313 C 0.59605 0.86333 0.0366 0.0
C314 C 0.61863 0.85439 0.03057 0.0
N315 N 0.61272 0.83328 0.03105 0.0
Co316 Co 0.63949 0.81408 0.02344 0.0
N317 N 0.67214 0.83832 0.01757 0.0
C318 C 0.673 0.85906 0.02087 0.0
C319 C 0.69767 0.87196 0.01472 0.0
C320 C 0.71332 0.85867 0.00679 0.0
C321 C 0.69728 0.83833 0.00864 0.0
N322 N 0.6653 0.79477 0.0148 0.0
C323 C 0.69061 0.79886 0.00572 0.0
C324 C 0.7006 0.78074 0.00127 0.0
C325 C 0.68023 0.7645 0.00713 0.0
C326 C 0.65917 0.77361 0.01485 0.0
N327 N 0.60762 0.78993 0.03013 0.0
C328 C 0.60904 0.76947 0.0293 0.0
C329 C 0.58428 0.75655 0.03533 0.0
C330 C 0.56614 0.76953 0.04062 0.0
C331 C 0.58104 0.78974 0.03757 0.0
N332 N 0.60883 0.80971 0.98877 0.0
C333 C 0.56671 0.80377 0.93914 0.0
C334 C 0.57208 0.78649 0.9515 0.0
C335 C 0.59307 0.78979 0.97612 0.0
C336 C 0.58278 0.82404 0.95211 0.0
C337 C 0.60345 0.82662 0.97668 0.0
N338 N 0.67032 0.81852 0.05829 0.0
C339 C 0.70367 0.80514 0.09366 0.0
C340 C 0.71113 0.82436 0.10818 0.0
C341 C 0.69852 0.84073 0.09735 0.0
C342 C 0.67872 0.83759 0.07256 0.0
C343 C 0.68313 0.80252 0.069 0.0
H344 H 0.67037 0.85084 0.0655 0.0
H345 H 0.6777 0.78731 0.05914 0.0
H346 H 0.59623 0.77601 0.98455 0.0
H347 H 0.61499 0.84249 0.98547 0.0
C348 C 0.64729 0.8656 0.02637 0.0
C349 C 0.56901 0.80819 0.04203 0.0
C350 C 0.7052 0.81942 1.00027 0.0
C351 C 0.63312 0.76273 0.02196 0.0
H352 H 0.55358 0.84833 0.04707 0.0
H353 H 0.59596 0.87986 0.03811 0.0
H354 H 0.70253 0.8889 0.0148 0.0
H355 H 0.73341 0.86344 0.99965 0.0
H356 H 0.72023 0.77936 0.99415 0.0
H357 H 0.68037 0.74798 0.00556 0.0
H358 H 0.57984 0.73967 0.03572 0.0
H359 H 0.54438 0.76464 0.0461 0.0
H360 H 0.55983 0.77045 0.94235 0.0
H361 H 0.57987 0.83796 0.94332 0.0
H362 H 0.71285 0.79199 0.10142 0.0
H363 H 0.70409 0.85598 0.10796 0.0
C364 C 0.97334 0.07783 0.72007 0.0
C365 C 0.00663 0.07742 0.73416 0.0
C366 C 0.02769 0.09625 0.73348 0.0
C367 C 0.00625 0.107 0.71893 0.0
N368 N 0.97309 0.09604 0.71035 0.0
Co369 Co 0.93384 0.10527 0.68818 0.0
N370 N 0.96462 0.12681 0.67799 0.0
C371 C 0.99871 0.13447 0.6898 0.0
C372 C 0.01331 0.14884 0.67801 0.0
C373 C 0.98668 0.15043 0.65765 0.0
C374 C 0.95711 0.13704 0.6583 0.0
N375 N 0.89451 0.11456 0.66619 0.0
C376 C 0.89281 0.12605 0.64769 0.0
C377 C 0.86043 0.12971 0.63755 0.0
C378 C 0.84142 0.1202 0.65032 0.0
C379 C 0.86315 0.11134 0.66751 0.0
N380 N 0.90307 0.08383 0.69842 0.0
C381 C 0.87085 0.08373 0.69648 0.0
C382 C 0.85611 0.06697 0.70553 0.0
C383 C 0.88073 0.05598 0.71378 0.0
C384 C 0.90916 0.06669 0.70922 0.0
N385 N 0.93772 0.12606 0.71458 0.0
C386 C 0.93338 0.15394 0.75015 0.0
C387 C 0.93893 0.13406 0.75503 0.0
C388 C 0.94112 0.1204 0.73703 0.0
C389 C 0.93219 0.16002 0.72761 0.0
C390 C 0.93449 0.14591 0.71015 0.0
N391 N 0.92958 0.08444 0.66177 0.0
C392 C 0.89384 0.05679 0.6288 0.0
C393 C 0.92258 0.05402 0.6241 0.0
C394 C 0.95499 0.06686 0.63874 0.0
C395 C 0.95792 0.082 0.65744 0.0
C396 C 0.89788 0.07203 0.64762 0.0
H397 H 0.98311 0.0917 0.66842 0.0
H398 H 0.87527 0.07368 0.65082 0.0
H399 H 0.94421 0.10492 0.74099 0.0
H400 H 0.93241 0.15084 0.69275 0.0
C401 C 0.01668 0.12514 0.70924 0.0
C402 C 0.94238 0.06132 0.71721 0.0
C403 C 0.92215 0.13545 0.64101 0.0
C404 C 0.85373 0.09735 0.6825 0.0
H405 H 0.01497 0.06485 0.74382 0.0
H406 H 0.05546 0.10102 0.74162 0.0
H407 H 0.04027 0.15655 0.68301 0.0
H408 H 0.98891 0.16034 0.64398 0.0
H409 H 0.85163 0.13861 0.62277 0.0
H410 H 0.8147 0.11936 0.64699 0.0
H411 H 0.83021 0.0628 0.70539 0.0
H412 H 0.8782 0.04187 0.72239 0.0
H413 H 0.94002 0.1287 0.77219 0.0
H414 H 0.92874 0.17543 0.72327 0.0
H415 H 0.86834 0.04701 0.61829 0.0
H416 H 0.97789 0.06539 0.63565 0.0
C417 C 0.39799 0.29808 0.08653 0.0
C418 C 0.38535 0.31573 0.08754 0.0
C419 C 0.40467 0.33134 0.08005 0.0
C420 C 0.42776 0.3223 0.0748 0.0
N421 N 0.42389 0.30174 0.07801 0.0
Co422 Co 0.45239 0.28262 0.0733 0.0
N423 N 0.48516 0.30658 0.06709 0.0
C424 C 0.48327 0.32693 0.06668 0.0
C425 C 0.50952 0.33981 0.06209 0.0
C426 C 0.52949 0.32697 0.05948 0.0
C427 C 0.51422 0.3069 0.0627 0.0
N428 N 0.48065 0.2634 0.06827 0.0
C429 C 0.5098 0.26772 0.06333 0.0
C430 C 0.52113 0.24967 0.06118 0.0
C431 C 0.49817 0.23334 0.06464 0.0
C432 C 0.47428 0.24228 0.06877 0.0
N433 N 0.42005 0.25883 0.08021 0.0
C434 C 0.42102 0.2383 0.07973 0.0
C435 C 0.39735 0.22606 0.08731 0.0
C436 C 0.38075 0.23963 0.09354 0.0
C437 C 0.39515 0.25946 0.0892 0.0
N438 N 0.42382 0.27623 0.03785 0.0
C439 C 0.38781 0.26714 0.98699 0.0
C440 C 0.39235 0.25095 0.00125 0.0
C441 C 0.41017 0.25579 0.02634 0.0
C442 C 0.40079 0.28796 0.99874 0.0
C443 C 0.41836 0.29209 0.02391 0.0
N444 N 0.48089 0.28891 0.10844 0.0
C445 C 0.51009 0.27698 0.14609 0.0
C446 C 0.52137 0.29758 0.15841 0.0
C447 C 0.51189 0.31378 0.14529 0.0
C448 C 0.49166 0.30912 0.1205 0.0
C449 C 0.49012 0.27304 0.12133 0.0
H450 H 0.48499 0.32207 0.11141 0.0
H451 H 0.48257 0.25704 0.11295 0.0
H452 H 0.41271 0.24264 0.03589 0.0
H453 H 0.42761 0.30829 0.0315 0.0
C454 C 0.45602 0.33335 0.07004 0.0
C455 C 0.38624 0.2787 0.09545 0.0
C456 C 0.5278 0.2886 0.06074 0.0
C457 C 0.44655 0.23145 0.07428 0.0
H458 H 0.36513 0.31734 0.09393 0.0
H459 H 0.40322 0.34762 0.07968 0.0
H460 H 0.5135 0.35651 0.06061 0.0
H461 H 0.55251 0.33182 0.05542 0.0
H462 H 0.54379 0.24844 0.05764 0.0
H463 H 0.49903 0.21694 0.06447 0.0
H464 H 0.39372 0.20944 0.08919 0.0
H465 H 0.36115 0.23544 0.10122 0.0
H466 H 0.38211 0.23451 0.99314 0.0
H467 H 0.39816 0.30114 0.98855 0.0
H468 H 0.51721 0.26394 0.15539 0.0
H469 H 0.51982 0.32998 0.15412 0.0
C470 C 0.16728 0.34972 0.33729 0.0
C471 C 0.19614 0.34845 0.33182 0.0
C472 C 0.15361 0.36723 0.33277 0.0
C473 C 0.18368 0.42306 0.33442 0.0
H474 H 0.08712 0.42273 0.31037 0.0
C475 C 0.13105 0.48775 0.36629 0.0
C476 C 0.10981 0.49711 0.3483 0.0
C477 C 0.14075 0.46994 0.36002 0.0
C478 C 0.11416 0.42305 0.31687 0.0
H479 H 0.23267 0.36377 0.31655 0.0
H480 H 0.20916 0.39483 0.30907 0.0
H481 H 0.10411 0.38991 0.30495 0.0
H482 H 0.08204 0.49467 0.3094 0.0
H483 H 0.09787 0.46286 0.29871 0.0
H484 H 0.19367 0.45587 0.34753 0.0
C485 C 0.19689 0.38216 0.31656 0.0
C486 C 0.12385 0.40433 0.31384 0.0
C487 C 0.21019 0.36442 0.32069 0.0
C488 C 0.098 0.48782 0.32384 0.0
C489 C 0.10721 0.46969 0.31764 0.0
C490 C 0.17398 0.44164 0.33782 0.0
C491 C 0.16901 0.38395 0.32313 0.0
C492 C 0.15869 0.40411 0.32295 0.0
C493 C 0.12893 0.46076 0.33568 0.0
C494 C 0.13914 0.4417 0.32948 0.0
H495 H 0.15624 0.33758 0.34603 0.0
H496 H 0.13236 0.36831 0.33824 0.0
H497 H 0.21068 0.42329 0.34187 0.0
H498 H 0.13992 0.49397 0.38536 0.0
H499 H 0.15707 0.46309 0.3743 0.0
C500 C 0.2425 0.70079 0.6846 0.0
C501 C 0.23015 0.71907 0.68334 0.0
C502 C 0.22311 0.68172 0.68764 0.0
C503 C 0.15799 0.66279 0.71359 0.0
H504 H 0.14901 0.60761 0.68119 0.0
C505 C 0.07365 0.58789 0.72883 0.0
C506 C 0.08663 0.56995 0.73145 0.0
C507 C 0.08969 0.60541 0.7209 0.0
C508 C 0.15158 0.6229 0.69056 0.0
H509 H 0.18728 0.73144 0.68357 0.0
H510 H 0.15336 0.69817 0.68843 0.0
H511 H 0.17951 0.63936 0.67035 0.0
H512 H 0.12546 0.55563 0.72718 0.0
H513 H 0.15437 0.58654 0.7139 0.0
H514 H 0.13089 0.64655 0.73419 0.0
C515 C 0.17814 0.69863 0.6873 0.0
C516 C 0.16896 0.64106 0.6843 0.0
C517 C 0.19742 0.71763 0.68419 0.0
C518 C 0.11536 0.56948 0.72547 0.0
C519 C 0.13161 0.58708 0.71768 0.0
C520 C 0.14083 0.6447 0.71993 0.0
C521 C 0.1911 0.6806 0.68963 0.0
C522 C 0.17223 0.6612 0.69572 0.0
C523 C 0.11916 0.60535 0.71553 0.0
C524 C 0.13731 0.62452 0.70847 0.0
H525 H 0.26752 0.70138 0.68382 0.0
H526 H 0.23381 0.66811 0.68945 0.0
H527 H 0.16072 0.67806 0.7231 0.0
H528 H 0.05124 0.58839 0.73313 0.0
H529 H 0.07899 0.61903 0.71899 0.0
C530 C 0.91104 0.78503 0.41851 0.0
C531 C 0.92531 0.8035 0.41092 0.0
C532 C 0.92808 0.76891 0.42311 0.0
C533 C 0.99314 0.74929 0.40649 0.0
H534 H 0.98015 0.70842 0.44952 0.0
C535 C 0.0524 0.6777 0.41542 0.0
C536 C 0.02836 0.65816 0.41125 0.0
C537 C 0.04366 0.69657 0.41933 0.0
C538 C 0.98401 0.71977 0.43748 0.0
H539 H 0.96936 0.82039 0.4037 0.0
H540 H 1.00013 0.79279 0.41294 0.0
H541 H 0.95958 0.74029 0.45055 0.0
H542 H 0.97693 0.64293 0.40887 0.0
H543 H 0.96177 0.67597 0.41606 0.0
H544 H 0.01777 0.72876 0.39361 0.0
C545 C 0.9752 0.79026 0.41448 0.0
C546 C 0.9721 0.73798 0.43795 0.0
C547 C 0.95783 0.80619 0.40944 0.0
C548 C 0.99584 0.6578 0.41191 0.0
C549 C 0.98729 0.67666 0.4162 0.0
C550 C 0.00551 0.73129 0.40634 0.0
C551 C 0.96003 0.77107 0.42053 0.0
C552 C 0.97591 0.75281 0.42211 0.0
C553 C 0.01091 0.69622 0.41952 0.0
C554 C 1.00054 0.71618 0.4215 0.0
H555 H 0.88575 0.78252 0.41948 0.0
H556 H 0.91525 0.75434 0.42739 0.0
H557 H 0.99597 0.75999 0.39363 0.0
H558 H 0.07757 0.67842 0.41485 0.0
H559 H 0.06235 0.71145 0.42191 0.0
C560 C 0.8791 0.36691 0.9169 0.0
C561 C 0.85255 0.34888 0.90453 0.0
C562 C 0.88438 0.38466 0.90526 0.0
C563 C 0.86887 0.39645 0.84284 0.0
H564 H 0.91342 0.45389 0.87522 0.0
C565 C 0.94923 0.45601 0.80437 0.0
C566 C 0.94849 0.47724 0.80694 0.0
C567 C 0.93255 0.4415 0.8155 0.0
C568 C 0.90053 0.438 0.86578 0.0
H569 H 0.80882 0.33581 0.87129 0.0
H570 H 0.81706 0.36706 0.85125 0.0
H571 H 0.89069 0.42744 0.89683 0.0
H572 H 0.9299 0.50025 0.82267 0.0
H573 H 0.90006 0.47476 0.84204 0.0
H574 H 0.87854 0.40693 0.81182 0.0
C575 C 0.8346 0.36733 0.8696 0.0
C576 C 0.88783 0.42278 0.87827 0.0
C577 C 0.82963 0.34951 0.88112 0.0
C578 C 0.9306 0.48384 0.82054 0.0
C579 C 0.9138 0.46931 0.83168 0.0
C580 C 0.88138 0.41165 0.83037 0.0
C581 C 0.86296 0.38475 0.8811 0.0
C582 C 0.87248 0.40169 0.86711 0.0
C583 C 0.91471 0.44796 0.82936 0.0
C584 C 0.89812 0.43248 0.84185 0.0
H585 H 0.8973 0.3667 0.93488 0.0
H586 H 0.90663 0.39768 0.91466 0.0
H587 H 0.85767 0.38036 0.83369 0.0
H588 H 0.96319 0.45074 0.79406 0.0
H589 H 0.93437 0.4253 0.8137 0.0
C590 C 0.25121 0.22463 0.34469 0.0
C591 C 0.23601 0.22551 0.31967 0.0
C592 C 0.25229 0.2053 0.35329 0.0
C593 C 0.25252 0.15114 0.33569 0.0
H594 H 0.23061 0.1403 0.39285 0.0
C595 C 0.2548 0.07198 0.37466 0.0
C596 C 0.26742 0.07317 0.40005 0.0
C597 C 0.24906 0.08993 0.36379 0.0
C598 C 0.23722 0.14316 0.37705 0.0
H599 H 0.20986 0.20654 0.28412 0.0
H600 H 0.2125 0.17267 0.29924 0.0
H601 H 0.22337 0.17268 0.37561 0.0
H602 H 0.28491 0.09377 0.43411 0.0
H603 H 0.2759 0.12537 0.41528 0.0
H604 H 0.26728 0.12192 0.33748 0.0
C605 C 0.22348 0.18709 0.31209 0.0
C606 C 0.2329 0.16167 0.36712 0.0
C607 C 0.22206 0.20648 0.30346 0.0
C608 C 0.27492 0.09257 0.41446 0.0
C609 C 0.26944 0.11055 0.40364 0.0
C610 C 0.25712 0.13267 0.34575 0.0
C611 C 0.23858 0.18633 0.33711 0.0
C612 C 0.24086 0.16596 0.34651 0.0
C613 C 0.25617 0.10943 0.37815 0.0
C614 C 0.2499 0.12858 0.36673 0.0
H615 H 0.26303 0.23895 0.35769 0.0
H616 H 0.26465 0.20523 0.37263 0.0
H617 H 0.25918 0.15416 0.31993 0.0
H618 H 0.24902 0.0571 0.36329 0.0
H619 H 0.23854 0.08843 0.34414 0.0
C620 C 0.36361 0.76054 0.72718 0.0
C621 C 0.34075 0.77359 0.72296 0.0
C622 C 0.39318 0.76502 0.74826 0.0
C623 C 0.44865 0.80619 0.80124 0.0
H624 H 0.46263 0.75778 0.83481 0.0
C625 C 0.5224 0.81406 0.90434 0.0
C626 C 0.54435 0.80077 0.91298 0.0
C627 C 0.50137 0.81134 0.87981 0.0
C628 C 0.45948 0.77143 0.82553 0.0
H629 H 0.33174 0.80206 0.73707 0.0
H630 H 0.38312 0.80985 0.77381 0.0
H631 H 0.42014 0.75248 0.79371 0.0
H632 H 0.56171 0.77438 0.90242 0.0
H633 H 0.52459 0.76947 0.85958 0.0
H634 H 0.48733 0.82516 0.83347 0.0
C635 C 0.37856 0.7963 0.76072 0.0
C636 C 0.43516 0.7684 0.80192 0.0
C637 C 0.34906 0.79185 0.73962 0.0
C638 C 0.54475 0.78469 0.89645 0.0
C639 C 0.52358 0.78192 0.8719 0.0
C640 C 0.4729 0.80921 0.8249 0.0
C641 C 0.40048 0.78262 0.76563 0.0
C642 C 0.42902 0.78577 0.78963 0.0
C643 C 0.50164 0.79521 0.86332 0.0
C644 C 0.47815 0.79189 0.83746 0.0
H645 H 0.35805 0.74648 0.71451 0.0
H646 H 0.40987 0.75438 0.75125 0.0
H647 H 0.44497 0.81988 0.79216 0.0
H648 H 0.52096 0.82635 0.91662 0.0
H649 H 0.48428 0.82158 0.87388 0.0
C650 C 0.88441 0.89887 0.48137 0.0
C651 C 0.85195 0.8935 0.46254 0.0
C652 C 0.89469 0.91738 0.49792 0.0
C653 C 0.85675 0.95496 0.52187 0.0
H654 H 0.95042 0.98962 0.55 0.0
C655 C 0.89024 0.03399 0.58212 0.0
C656 C 0.91842 0.03758 0.60423 0.0
C657 C 0.88446 0.01742 0.56416 0.0
C658 C 0.92421 0.97999 0.54239 0.0
H659 H 0.80574 0.90384 0.44527 0.0
H660 H 0.82383 0.93625 0.47361 0.0
H661 H 0.93607 0.95888 0.5195 0.0
H662 H 0.96334 0.02695 0.6244 0.0
H663 H 0.95332 0.99802 0.59282 0.0
H664 H 0.84479 0.976 0.54458 0.0
C665 C 0.84099 0.92593 0.47622 0.0
C666 C 0.91599 0.96237 0.52496 0.0
C667 C 0.83064 0.9074 0.4599 0.0
C668 C 0.94153 0.02471 0.60751 0.0
C669 C 0.93579 0.00813 0.58945 0.0
C670 C 0.86491 0.97257 0.5391 0.0
C671 C 0.87278 0.93093 0.4958 0.0
C672 C 0.88207 0.9497 0.5144 0.0
C673 C 0.90678 0.00406 0.56779 0.0
C674 C 0.89865 0.98535 0.54948 0.0
H675 H 0.90128 0.88837 0.48386 0.0
H676 H 0.91925 0.92065 0.51285 0.0
H677 H 0.83057 0.94528 0.51466 0.0
H678 H 0.87238 0.0439 0.57875 0.0
H679 H 0.86227 0.01495 0.54745 0.0
C680 C 0.78052 0.31819 0.0014 0.0
C681 C 0.80003 0.30341 0.00887 0.0
C682 C 0.75151 0.31762 0.00731 0.0
C683 C 0.71041 0.29684 0.0499 0.0
H684 H 0.62803 0.30566 0.00177 0.0
C685 C 0.59144 0.30143 0.07257 0.0
C686 C 0.5593 0.29109 0.05499 0.0
C687 C 0.6211 0.30388 0.0671 0.0
C688 C 0.65076 0.30303 0.01537 0.0
H689 H 0.80385 0.27615 0.02792 0.0
H690 H 0.75337 0.2751 0.03814 0.0
H691 H 0.67919 0.30791 0.99189 0.0
H692 H 0.5324 0.27527 0.01807 0.0
H693 H 0.58429 0.27916 0.00847 0.0
H694 H 0.68175 0.29137 0.07314 0.0
C695 C 0.76084 0.28743 0.02817 0.0
C696 C 0.68023 0.30458 0.00981 0.0
C697 C 0.7898 0.28803 0.0223 0.0
C698 C 0.55708 0.28328 0.03185 0.0
C699 C 0.58671 0.28567 0.02636 0.0
C700 C 0.68097 0.29528 0.05545 0.0
C701 C 0.74133 0.30222 0.02078 0.0
C702 C 0.71034 0.30136 0.02695 0.0
C703 C 0.61911 0.29599 0.04394 0.0
C704 C 0.65071 0.29823 0.03821 0.0
H705 H 0.78792 0.33038 0.99124 0.0
H706 H 0.7373 0.3294 0.00159 0.0
H707 H 0.73329 0.29453 0.06364 0.0
H708 H 0.59352 0.30763 0.09049 0.0
H709 H 0.64555 0.31214 0.08094 0.0
C710 C 0.25724 0.86042 0.63205 0.0
C711 C 0.25843 0.8393 0.62811 0.0
C712 C 0.26969 0.87549 0.61942 0.0
C713 C 0.28337 0.87947 0.56202 0.0
H714 H 0.32559 0.93827 0.59004 0.0
C715 C 0.31133 0.94387 0.50371 0.0
C716 C 0.30075 0.96213 0.50745 0.0
C717 C 0.31284 0.92912 0.52003 0.0
C718 C 0.31375 0.92192 0.58195 0.0
H719 H 0.27495 0.81761 0.60859 0.0
H720 H 0.2971 0.84408 0.58657 0.0
H721 H 0.31735 0.91181 0.61632 0.0
H722 H 0.28402 0.97975 0.53091 0.0
H723 H 0.28643 0.95399 0.55951 0.0
H724 H 0.27891 0.88965 0.52757 0.0
C725 C 0.28615 0.84889 0.59929 0.0
C726 C 0.30905 0.90676 0.59699 0.0
C727 C 0.27377 0.83378 0.61204 0.0
C728 C 0.29244 0.96577 0.5279 0.0
C729 C 0.29404 0.95109 0.54426 0.0
C730 C 0.28812 0.89463 0.54698 0.0
C731 C 0.28365 0.86983 0.60251 0.0
C732 C 0.29304 0.88543 0.58713 0.0
C733 C 0.30384 0.93246 0.54036 0.0
C734 C 0.30262 0.9161 0.55669 0.0
H735 H 0.24594 0.8652 0.64455 0.0
H736 H 0.26703 0.8914 0.6222 0.0
H737 H 0.27057 0.86324 0.55377 0.0
H738 H 0.31776 0.94086 0.48792 0.0
H739 H 0.32075 0.91503 0.51664 0.0
C740 C 0.84943 0.8161 0.32413 0.0
C741 C 0.86167 0.83497 0.34039 0.0
C742 C 0.83635 0.8164 0.2991 0.0
C743 C 0.80175 0.8504 0.25326 0.0
H744 H 0.8089 0.8069 0.20971 0.0
C745 C 0.71816 0.83466 0.15119 0.0
C746 C 0.73114 0.82717 0.13459 0.0
C747 C 0.73648 0.83685 0.17618 0.0
C748 C 0.80705 0.81942 0.22149 0.0
H749 H 0.87046 0.86899 0.3434 0.0
H750 H 0.84892 0.86973 0.29951 0.0
H751 H 0.83833 0.80915 0.25316 0.0
H752 H 0.7737 0.81661 0.13087 0.0
H753 H 0.80661 0.82128 0.17448 0.0
H754 H 0.77177 0.86127 0.22153 0.0
C755 C 0.84849 0.85458 0.30603 0.0
C756 C 0.82351 0.82047 0.24657 0.0
C757 C 0.86105 0.85423 0.33117 0.0
C758 C 0.76305 0.82223 0.14338 0.0
C759 C 0.78174 0.82481 0.16838 0.0
C760 C 0.7858 0.84958 0.22814 0.0
C761 C 0.83565 0.83564 0.28964 0.0
C762 C 0.82054 0.8357 0.26285 0.0
C763 C 0.76858 0.83198 0.18517 0.0
C764 C 0.78766 0.83383 0.21189 0.0
H765 H 0.84905 0.801 0.33081 0.0
H766 H 0.82595 0.80144 0.28723 0.0
H767 H 0.79852 0.86225 0.26511 0.0
H768 H 0.69339 0.83835 0.14482 0.0
H769 H 0.72501 0.84193 0.1884 0.0
C770 C 0.84356 0.27006 0.87006 0.0
C771 C 0.86354 0.27531 0.895 0.0
C772 C 0.8507 0.25576 0.85544 0.0
C773 C 0.89607 0.21388 0.85588 0.0
H774 H 0.89757 0.23172 0.79482 0.0
C775 C 0.94571 0.17019 0.79283 0.0
C776 C 0.92671 0.16773 0.76774 0.0
C777 C 0.93864 0.18294 0.8092 0.0
C778 C 0.89691 0.22637 0.81167 0.0
H779 H 0.90581 0.269 0.92436 0.0
H780 H 0.91821 0.24384 0.89876 0.0
H781 H 0.8827 0.25374 0.82181 0.0
H782 H 0.88468 0.1762 0.74026 0.0
H783 H 0.87236 0.1983 0.76866 0.0
H784 H 0.91016 0.1864 0.84557 0.0
C785 C 0.89693 0.25077 0.89057 0.0
C786 C 0.88836 0.23899 0.82714 0.0
C787 C 0.88979 0.26514 0.90524 0.0
C788 C 0.90035 0.17815 0.75941 0.0
C789 C 0.89325 0.19082 0.77572 0.0
C790 C 0.90455 0.20117 0.84031 0.0
C791 C 0.87797 0.24634 0.86541 0.0
C792 C 0.88754 0.23282 0.84931 0.0
C793 C 0.91237 0.19345 0.8008 0.0
C794 C 0.90477 0.2072 0.81792 0.0
H795 H 0.82276 0.27735 0.86173 0.0
H796 H 0.83514 0.2523 0.83621 0.0
H797 H 0.8955 0.20867 0.87281 0.0
H798 H 0.96632 0.16246 0.79979 0.0
H799 H 0.95407 0.18482 0.82839 0.0
C800 C 0.28355 0.29028 0.26259 0.0
C801 C 0.25477 0.27423 0.2608 0.0
C802 C 0.29451 0.29219 0.24298 0.0
C803 C 0.28744 0.26026 0.18689 0.0
H804 H 0.33398 0.31402 0.17507 0.0
C805 C 0.33394 0.26816 0.10638 0.0
C806 C 0.36835 0.27932 0.11279 0.0
C807 C 0.31767 0.26852 0.1231 0.0
C808 C 0.32107 0.2989 0.17822 0.0
H809 H 0.21376 0.24837 0.23684 0.0
H810 H 0.23194 0.25216 0.20227 0.0
H811 H 0.30869 0.31323 0.2062 0.0
H812 H 0.41242 0.30031 0.14099 0.0
H813 H 0.38383 0.30126 0.17022 0.0
H814 H 0.29962 0.24602 0.15871 0.0
C815 C 0.24687 0.26284 0.21901 0.0
C816 C 0.30669 0.29841 0.19612 0.0
C817 C 0.23624 0.26075 0.23873 0.0
C818 C 0.38589 0.29148 0.1358 0.0
C819 C 0.36951 0.29208 0.1524 0.0
C820 C 0.30141 0.2608 0.16881 0.0
C821 C 0.27665 0.27826 0.22105 0.0
C822 C 0.29003 0.27905 0.20091 0.0
C823 C 0.33536 0.28041 0.14632 0.0
C824 C 0.31872 0.28009 0.16449 0.0
H825 H 0.29848 0.30073 0.27951 0.0
H826 H 0.31779 0.30407 0.24542 0.0
H827 H 0.27549 0.24501 0.19032 0.0
H828 H 0.3198 0.25904 0.08851 0.0
H829 H 0.29121 0.25958 0.11786 0.0
C830 C 0.98541 0.76534 0.8428 0.0
C831 C 0.95324 0.76954 0.83862 0.0
C832 C 0.98766 0.7454 0.83505 0.0
C833 C 0.94076 0.68947 0.81921 0.0
H834 H 0.00575 0.68543 0.78827 0.0
C835 C 0.95304 0.60891 0.7828 0.0
C836 C 0.98658 0.60698 0.78723 0.0
C837 C 0.9471 0.62863 0.78734 0.0
C838 C 0.98771 0.68627 0.7971 0.0
H839 H 0.89817 0.75591 0.82294 0.0
H840 H 0.9022 0.72091 0.80973 0.0
H841 H 0.99895 0.72 0.79976 0.0
H842 H 0.04006 0.62443 0.79928 0.0
H843 H 0.02989 0.65854 0.80786 0.0
H844 H 0.93005 0.65578 0.81706 0.0
C845 C 0.92564 0.73314 0.81909 0.0
C846 C 0.98378 0.70608 0.80363 0.0
C847 C 0.92336 0.75317 0.82671 0.0
C848 C 0.01395 0.62526 0.79601 0.0
C849 C 0.00805 0.64491 0.80061 0.0
C850 C 0.94483 0.66962 0.81281 0.0
C851 C 0.95783 0.72909 0.82307 0.0
C852 C 0.96055 0.70792 0.81499 0.0
C853 C 0.97458 0.64686 0.7964 0.0
C854 C 0.96866 0.6678 0.80192 0.0
H855 H 0.00898 0.7774 0.85239 0.0
H856 H 0.01285 0.74266 0.83878 0.0
H857 H 0.92287 0.69042 0.82814 0.0
H858 H 0.93139 0.59514 0.77621 0.0
H859 H 0.92096 0.62959 0.78366 0.0
C860 C 0.86533 0.37588 0.43457 0.0
C861 C 0.87399 0.35756 0.42796 0.0
C862 C 0.88852 0.39571 0.43938 0.0
C863 C 0.95817 0.42201 0.42089 0.0
H864 H 0.96722 0.46949 0.46671 0.0
C865 C 0.03629 0.50459 0.4193 0.0
C866 C 0.02068 0.52107 0.42058 0.0
C867 C 0.02391 0.48494 0.42538 0.0
C868 C 0.96485 0.4564 0.45374 0.0
H869 H 0.9147 0.34561 0.42276 0.0
H870 H 0.95533 0.38009 0.43165 0.0
H871 H 0.93558 0.43414 0.46873 0.0
H872 H 0.98162 0.53072 0.43055 0.0
H873 H 0.95909 0.49618 0.44055 0.0
H874 H 0.98605 0.44413 0.40521 0.0
C875 C 0.93039 0.37916 0.43274 0.0
C876 C 0.9468 0.43616 0.45495 0.0
C877 C 0.90723 0.35935 0.42794 0.0
C878 C 0.99375 0.51806 0.42927 0.0
C879 C 0.98112 0.49835 0.43516 0.0
C880 C 0.97602 0.44219 0.41961 0.0
C881 C 0.92086 0.39763 0.43766 0.0
C882 C 0.94291 0.41878 0.43832 0.0
C883 C 0.9955 0.48138 0.43271 0.0
C884 C 0.97922 0.45971 0.43579 0.0
H885 H 0.84005 0.37498 0.43503 0.0
H886 H 0.88031 0.40961 0.44304 0.0
H887 H 0.95508 0.40908 0.40747 0.0
H888 H 0.05736 0.50674 0.41284 0.0
H889 H 0.03609 0.47239 0.42378 0.0
C890 C 0.14013 0.29896 0.69834 0.0
C891 C 0.17194 0.29868 0.71589 0.0
C892 C 0.12385 0.31475 0.70118 0.0
C893 C 0.12618 0.35594 0.74824 0.0
H894 H 0.07727 0.38035 0.69265 0.0
C895 C 0.09675 0.43678 0.75679 0.0
C896 C 0.06243 0.43759 0.7451 0.0
C897 C 0.10734 0.41878 0.75243 0.0
C898 C 0.09059 0.3735 0.70827 0.0
H899 H 0.21234 0.31505 0.74956 0.0
H900 H 0.1848 0.3428 0.75418 0.0
H901 H 0.1011 0.35077 0.68647 0.0
H902 H 0.01248 0.41988 0.71928 0.0
H903 H 0.03158 0.38873 0.71102 0.0
H904 H 0.11691 0.37931 0.77005 0.0
C905 C 0.17152 0.3305 0.73871 0.0
C906 C 0.10413 0.35651 0.70477 0.0
C907 C 0.18746 0.31464 0.73602 0.0
C908 C 0.0392 0.42002 0.72842 0.0
C909 C 0.05001 0.40211 0.72374 0.0
C910 C 0.11316 0.37308 0.75173 0.0
C911 C 0.13934 0.3307 0.72148 0.0
C912 C 0.12258 0.34772 0.72477 0.0
C913 C 0.08409 0.40127 0.73594 0.0
C914 C 0.09565 0.38219 0.73183 0.0
H915 H 0.12765 0.2868 0.68266 0.0
H916 H 0.09897 0.31427 0.68765 0.0
H917 H 0.13933 0.34924 0.76403 0.0
H918 H 0.11569 0.45012 0.76923 0.0
H919 H 0.13391 0.41862 0.76179 0.0
C920 C 0.24928 0.72403 0.23477 0.0
C921 C 0.24259 0.74409 0.2352 0.0
C922 C 0.23528 0.70864 0.24652 0.0
C923 C 0.19856 0.70331 0.2946 0.0
H924 H 0.16171 0.64453 0.26543 0.0
C925 C 0.11626 0.64313 0.33166 0.0
C926 C 0.12297 0.62317 0.33339 0.0
C927 C 0.13148 0.65738 0.3195 0.0
C928 C 0.17225 0.66085 0.27391 0.0
H929 H 0.21474 0.7634 0.24729 0.0
H930 H 0.19027 0.73667 0.26757 0.0
H931 H 0.18726 0.67029 0.24435 0.0
H932 H 0.15022 0.60209 0.32389 0.0
H933 H 0.17712 0.62707 0.3025 0.0
H934 H 0.18333 0.69398 0.32402 0.0
C935 C 0.20703 0.73294 0.25877 0.0
C936 C 0.18691 0.6756 0.26186 0.0
C937 C 0.22103 0.74827 0.24712 0.0
C938 C 0.1448 0.61748 0.32264 0.0
C939 C 0.15997 0.6317 0.31037 0.0
C940 C 0.18385 0.68862 0.30658 0.0
C941 C 0.21424 0.71301 0.25885 0.0
C942 C 0.19993 0.69705 0.27196 0.0
C943 C 0.15363 0.65187 0.3088 0.0
C944 C 0.17024 0.66726 0.29629 0.0
H945 H 0.26592 0.7204 0.22581 0.0
H946 H 0.24153 0.6935 0.24639 0.0
H947 H 0.20903 0.71962 0.30316 0.0
H948 H 0.09936 0.6477 0.33984 0.0
H949 H 0.12571 0.67267 0.31831 0.0
C950 C 0.97173 0.9061 0.82427 0.0
C951 C 1.00032 0.89923 0.82371 0.0
C952 C 0.96173 0.92231 0.81133 0.0
C953 C 0.95972 0.96541 0.79519 0.0
H954 H 0.97025 0.97115 0.73327 0.0
C955 C 0.9595 0.04291 0.75376 0.0
C956 C 0.9455 0.04181 0.72842 0.0
C957 C 0.96287 0.0246 0.76439 0.0
C958 C 0.96667 0.96967 0.75037 0.0
H959 H 0.04018 0.9037 0.80846 0.0
H960 H 0.02365 0.9324 0.78679 0.0
H961 H 0.98112 0.94039 0.7529 0.0
H962 H 0.92228 0.02097 0.69423 0.0
H963 H 0.92739 0.98867 0.71273 0.0
H964 H 0.94454 0.99445 0.7924 0.0
C965 C 0.00854 0.92507 0.79688 0.0
C966 C 0.9734 0.95215 0.76183 0.0
C967 C 0.01838 0.90881 0.80967 0.0
C968 C 0.9337 0.0221 0.71382 0.0
C969 C 0.93681 0.0037 0.72444 0.0
C970 C 0.95275 0.98285 0.78365 0.0
C971 C 0.98015 0.9321 0.79759 0.0
C972 C 0.97055 0.94996 0.78457 0.0
C973 C 0.95174 0.00475 0.74987 0.0
C974 C 0.95666 0.98539 0.76128 0.0
H975 H 0.95737 0.8992 0.83503 0.0
H976 H 0.9395 0.92714 0.81208 0.0
H977 H 0.95751 0.96437 0.81276 0.0
H978 H 0.96822 0.058 0.76532 0.0
H979 H 0.97485 0.0261 0.78397 0.0
C980 C 0.72827 0.30304 0.36391 0.0
C981 C 0.7591 0.31815 0.36774 0.0
C982 C 0.69874 0.30215 0.34362 0.0
C983 C 0.6599 0.33232 0.29465 0.0
H984 H 0.61161 0.27672 0.25779 0.0
C985 C 0.57288 0.31928 0.19317 0.0
C986 C 0.54378 0.30204 0.18456 0.0
C987 C 0.59568 0.32236 0.2173 0.0
C988 C 0.62434 0.29234 0.26804 0.0
H989 H 0.7829 0.34432 0.35328 0.0
H990 H 0.73152 0.34284 0.31811 0.0
H991 H 0.6575 0.28011 0.29708 0.0
H992 H 0.51471 0.2752 0.19485 0.0
H993 H 0.55435 0.28064 0.23701 0.0
H994 H 0.62714 0.34457 0.26532 0.0
C995 C 0.72996 0.33187 0.33096 0.0
C996 C 0.65068 0.29428 0.2906 0.0
C997 C 0.75945 0.33273 0.35118 0.0
C998 C 0.53726 0.28842 0.20084 0.0
C999 C 0.55998 0.29153 0.22499 0.0
C1000 C 0.63348 0.33038 0.27209 0.0
C1001 C 0.6994 0.31638 0.32674 0.0
C1002 C 0.66916 0.31431 0.30398 0.0
C1003 C 0.58981 0.3083 0.23339 0.0
C1004 C 0.61576 0.31038 0.25833 0.0
H1005 H 0.72705 0.29176 0.37649 0.0
H1006 H 0.67545 0.2902 0.34103 0.0
H1007 H 0.67333 0.34796 0.3047 0.0
H1008 H 0.5788 0.32993 0.181 0.0
H1009 H 0.61862 0.33528 0.22306 0.0
C1010 C 0.21569 0.21412 0.60055 0.0
C1011 C 0.23269 0.2197 0.6258 0.0
C1012 C 0.21781 0.19578 0.58871 0.0
C1013 C 0.24324 0.14519 0.59788 0.0
H1014 H 0.257 0.15212 0.53716 0.0
C1015 C 0.24664 0.07573 0.53407 0.0
C1016 C 0.27014 0.0801 0.52221 0.0
C1017 C 0.24188 0.092 0.54783 0.0
C1018 C 0.25351 0.14992 0.55419 0.0
H1019 H 0.26403 0.21 0.65865 0.0
H1020 H 0.26832 0.17797 0.63788 0.0
H1021 H 0.24832 0.18135 0.55912 0.0
H1022 H 0.30722 0.10514 0.51577 0.0
H1023 H 0.2997 0.13324 0.54023 0.0
H1024 H 0.24947 0.11383 0.59312 0.0
C1025 C 0.25297 0.18768 0.62725 0.0
C1026 C 0.24798 0.16662 0.56664 0.0
C1027 C 0.25059 0.20602 0.63916 0.0
C1028 C 0.2892 0.10108 0.52485 0.0
C1029 C 0.28452 0.11729 0.53863 0.0
C1030 C 0.24886 0.12842 0.5854 0.0
C1031 C 0.23729 0.18263 0.60178 0.0
C1032 C 0.24271 0.1645 0.58862 0.0
C1033 C 0.26049 0.11303 0.55003 0.0
C1034 C 0.2542 0.13063 0.56343 0.0
H1035 H 0.2012 0.2242 0.58986 0.0
H1036 H 0.20462 0.19211 0.56918 0.0
H1037 H 0.23906 0.14297 0.61468 0.0
H1038 H 0.23182 0.05972 0.53268 0.0
H1039 H 0.22301 0.08817 0.55624 0.0
C1040 C 0.35503 0.77621 0.13859 0.0
C1041 C 0.32198 0.77738 0.12376 0.0
C1042 C 0.38241 0.78111 0.13047 0.0
C1043 C 0.39947 0.78312 0.07379 0.0
H1044 H 0.49118 0.81452 0.11588 0.0
C1045 C 0.50842 0.80751 0.03718 0.0
C1046 C 0.54115 0.80594 0.05186 0.0
C1047 C 0.48206 0.80502 0.04632 0.0
C1048 C 0.4658 0.80553 0.10396 0.0
H1049 H 0.29227 0.78569 0.0893 0.0
H1050 H 0.33991 0.79412 0.07514 0.0
H1051 H 0.44472 0.80872 0.13149 0.0
H1052 H 0.57241 0.80059 0.08736 0.0
H1053 H 0.52622 0.7958 0.10336 0.0
H1054 H 0.42044 0.77962 0.04637 0.0
C1055 C 0.34453 0.78904 0.09285 0.0
C1056 C 0.43918 0.80224 0.11291 0.0
C1057 C 0.31723 0.78421 0.10098 0.0
C1058 C 0.54727 0.80191 0.07581 0.0
C1059 C 0.5209 0.79933 0.08496 0.0
C1060 C 0.42607 0.78632 0.06488 0.0
C1061 C 0.37731 0.78724 0.10733 0.0
C1062 C 0.40569 0.79102 0.09791 0.0
C1063 C 0.48791 0.80079 0.0703 0.0
C1064 C 0.45958 0.79758 0.07983 0.0
H1065 H 0.3595 0.77079 0.15612 0.0
H1066 H 0.40729 0.77939 0.14198 0.0
H1067 H 0.37411 0.77407 0.06189 0.0
H1068 H 0.50329 0.81062 0.01863 0.0
H1069 H 0.45715 0.80655 0.03463 0.0
C1070 C 0.84666 0.24068 0.47363 0.0
C1071 C 0.86966 0.24308 0.46135 0.0
C1072 C 0.85261 0.23034 0.4942 0.0
C1073 C 0.91962 0.21459 0.54284 0.0
H1074 H 0.84501 0.16911 0.54354 0.0
C1075 C 0.92677 0.1705 0.62575 0.0
C1076 C 0.9167 0.14834 0.62079 0.0
C1077 C 0.92102 0.18268 0.60679 0.0
C1078 C 0.86606 0.18174 0.54354 0.0
H1079 H 0.91757 0.23739 0.46144 0.0
H1080 H 0.92826 0.21961 0.4976 0.0
H1081 H 0.83548 0.19022 0.51008 0.0
H1082 H 0.89135 0.12145 0.59251 0.0
H1083 H 0.88078 0.14281 0.55908 0.0
H1084 H 0.95024 0.20606 0.57626 0.0
C1085 C 0.90555 0.2256 0.49126 0.0
C1086 C 0.86053 0.19394 0.52455 0.0
C1087 C 0.89936 0.23566 0.47052 0.0
C1088 C 0.89977 0.13853 0.59663 0.0
C1089 C 0.89359 0.15073 0.57763 0.0
C1090 C 0.92502 0.20257 0.562 0.0
C1091 C 0.88194 0.2225 0.50305 0.0
C1092 C 0.88733 0.21037 0.52391 0.0
C1093 C 0.90438 0.17293 0.58253 0.0
C1094 C 0.89838 0.18592 0.56243 0.0
H1095 H 0.82346 0.24614 0.46682 0.0
H1096 H 0.83414 0.2283 0.50307 0.0
H1097 H 0.94068 0.22721 0.54284 0.0
H1098 H 0.93903 0.17836 0.64434 0.0
H1099 H 0.92911 0.19975 0.6111 0.0
C1100 C 0.277 0.25643 0.76674 0.0
C1101 C 0.24114 0.25011 0.75516 0.0
C1102 C 0.29262 0.25342 0.7909 0.0
C1103 C 0.32169 0.24189 0.84181 0.0
H1104 H 0.27129 0.25475 0.88149 0.0
C1105 C 0.37514 0.24586 0.94675 0.0
C1106 C 0.36997 0.26237 0.96011 0.0
C1107 C 0.35876 0.2416 0.92145 0.0
C1108 C 0.28582 0.25123 0.87072 0.0
H1109 H 0.19366 0.23415 0.75871 0.0
H1110 H 0.22089 0.22799 0.80048 0.0
H1111 H 0.24477 0.25109 0.83759 0.0
H1112 H 0.34306 0.28713 0.95724 0.0
H1113 H 0.31538 0.28013 0.91321 0.0
H1114 H 0.36344 0.24316 0.8752 0.0
C1115 C 0.23699 0.23592 0.79135 0.0
C1116 C 0.27037 0.24876 0.84544 0.0
C1117 C 0.22139 0.23919 0.76736 0.0
C1118 C 0.34795 0.27445 0.94754 0.0
C1119 C 0.33168 0.27023 0.92228 0.0
C1120 C 0.33725 0.24448 0.86718 0.0
C1121 C 0.27263 0.24386 0.8038 0.0
C1122 C 0.2882 0.24431 0.83062 0.0
C1123 C 0.33685 0.25375 0.90889 0.0
C1124 C 0.31968 0.24952 0.88194 0.0
H1125 H 0.29268 0.26513 0.75776 0.0
H1126 H 0.32007 0.25988 0.79988 0.0
H1127 H 0.33608 0.23827 0.83099 0.0
H1128 H 0.39226 0.2364 0.95579 0.0
H1129 H 0.36311 0.22868 0.91175 0.0
C1130 C 0.27809 0.83533 0.2252 0.0
C1131 C 0.29424 0.8201 0.23645 0.0
C1132 C 0.2826 0.85471 0.23862 0.0
C1133 C 0.33487 0.89013 0.29669 0.0
H1134 H 0.24815 0.9015 0.29225 0.0
C1135 C 0.32194 0.94178 0.37312 0.0
C1136 C 0.29795 0.95406 0.367 0.0
C1137 C 0.32406 0.92795 0.35522 0.0
C1138 C 0.27271 0.89891 0.29346 0.0
H1139 H 0.32963 0.81367 0.26989 0.0
H1140 H 0.33782 0.84754 0.29327 0.0
H1141 H 0.24888 0.87373 0.26369 0.0
H1142 H 0.25824 0.96208 0.33723 0.0
H1143 H 0.26229 0.93824 0.30589 0.0
H1144 H 0.35869 0.91514 0.32667 0.0
C1145 C 0.32163 0.84458 0.27416 0.0
C1146 C 0.2731 0.88295 0.27703 0.0
C1147 C 0.31684 0.82515 0.26084 0.0
C1148 C 0.27662 0.95256 0.34253 0.0
C1149 C 0.27894 0.93888 0.32459 0.0
C1150 C 0.33452 0.90623 0.31301 0.0
C1151 C 0.30363 0.85926 0.26343 0.0
C1152 C 0.30409 0.87809 0.27877 0.0
C1153 C 0.30244 0.92621 0.33073 0.0
C1154 C 0.30334 0.91053 0.31194 0.0
H1155 H 0.26034 0.83175 0.20647 0.0
H1156 H 0.26866 0.86582 0.22983 0.0
H1157 H 0.35917 0.88687 0.29831 0.0
H1158 H 0.33845 0.94241 0.39186 0.0
H1159 H 0.342 0.91819 0.36075 0.0
C1160 C 0.86699 0.80405 0.86783 0.0
C1161 C 0.90151 0.81563 0.87781 0.0
C1162 C 0.84472 0.8055 0.88001 0.0
C1163 C 0.8359 0.83822 0.92984 0.0
H1164 H 0.76916 0.78721 0.92882 0.0
C1165 C 0.76223 0.83042 0.99568 0.0
C1166 C 0.72692 0.82073 0.98535 0.0
C1167 C 0.78278 0.83071 0.98178 0.0
C1168 C 0.78745 0.80163 0.92907 0.0
H1169 H 0.93989 0.8377 0.90841 0.0
H1170 H 0.90141 0.83991 0.92996 0.0
H1171 H 0.8064 0.786 0.90601 0.0
H1172 H 0.68522 0.80359 0.95278 0.0
H1173 H 0.7212 0.80383 0.92842 0.0
H1174 H 0.81739 0.85364 0.95352 0.0
C1175 C 0.89113 0.83012 0.91243 0.0
C1176 C 0.80874 0.80098 0.91593 0.0
C1177 C 0.91327 0.82882 0.90012 0.0
C1178 C 0.71243 0.81124 0.96099 0.0
C1179 C 0.73299 0.8113 0.94717 0.0
C1180 C 0.81483 0.83881 0.9432 0.0
C1181 C 0.85658 0.8184 0.9026 0.0
C1182 C 0.83331 0.81926 0.91615 0.0
C1183 C 0.7684 0.82099 0.95743 0.0
C1184 C 0.79042 0.82051 0.94297 0.0
H1185 H 0.85716 0.79392 0.85053 0.0
H1186 H 0.81816 0.79656 0.87164 0.0
H1187 H 0.85405 0.8527 0.93012 0.0
H1188 H 0.77393 0.83754 0.01456 0.0
H1189 H 0.81005 0.83806 0.99024 0.0
loop_
_geom_bond_atom_site_label_1
_geom_bond_atom_site_label_2
_geom_bond_distance
_geom_bond_site_symmetry_2
_ccdc_geom_bond_type
H0 C1 0.949 . S
C1 H0 0.949 . S
C1 C2 1.395 . S
C1 C3 1.391 . S
C2 C1 1.395 . S
C2 C5 1.390 . S
C3 C1 1.391 . S
C3 C7 1.387 . S
C3 C8 1.491 . S
H4 C5 0.950 . S
C5 C2 1.390 . S
C5 H4 0.950 . S
C5 C6 1.378 . S
C6 C5 1.378 . S
C6 C7 1.409 . S
C7 C3 1.387 . S
C7 C6 1.409 . S
C7 H9 0.951 . S
C8 C3 1.491 . S
C8 C10 1.382 . S
C8 C12 1.404 . S
H9 C7 0.951 . S
C10 C8 1.382 . S
C10 C11 1.390 . S
C10 H15 0.949 . S
C11 C10 1.390 . S
C11 C16 1.399 . S
C12 C8 1.404 . S
C12 H13 0.950 . S
C12 C14 1.375 . S
H13 C12 0.950 . S
C14 C12 1.375 . S
C14 C16 1.382 . S
C14 H18 0.950 . S
H15 C10 0.949 . S
C16 C11 1.399 . S
C16 C14 1.382 . S
C16 H17 0.952 . S
H17 C16 0.952 . S
H18 C14 0.950 . S
H19 C20 0.949 . S
C20 H19 0.949 . S
C20 C21 1.395 . S
C20 C22 1.391 . S
C21 C20 1.395 . S
C21 C24 1.390 . S
C22 C20 1.391 . S
C22 C26 1.387 . S
C22 C27 1.491 . S
H23 C24 0.950 . S
C24 C21 1.390 . S
C24 H23 0.950 . S
C24 C25 1.378 . S
C25 C24 1.378 . S
C25 C26 1.409 . S
C26 C22 1.387 . S
C26 C25 1.409 . S
C26 H28 0.951 . S
C27 C22 1.491 . S
C27 C29 1.382 . S
C27 C31 1.404 . S
H28 C26 0.951 . S
C29 C27 1.382 . S
C29 C30 1.390 . S
C29 H34 0.949 . S
C30 C29 1.390 . S
C30 C35 1.399 . S
C31 C27 1.404 . S
C31 H32 0.950 . S
C31 C33 1.375 . S
H32 C31 0.950 . S
C33 C31 1.375 . S
C33 C35 1.382 . S
C33 H37 0.950 . S
H34 C29 0.949 . S
C35 C30 1.399 . S
C35 C33 1.382 . S
C35 H36 0.952 . S
H36 C35 0.952 . S
H37 C33 0.950 . S
H38 C39 0.949 . S
C39 H38 0.949 . S
C39 C40 1.395 . S
C39 C41 1.391 . S
C40 C39 1.395 . S
C40 C43 1.390 . S
C41 C39 1.391 . S
C41 C45 1.387 . S
C41 C46 1.491 . S
H42 C43 0.950 . S
C43 C40 1.390 . S
C43 H42 0.950 . S
C43 C44 1.378 . S
C44 C43 1.378 . S
C44 C45 1.409 . S
C45 C41 1.387 . S
C45 C44 1.409 . S
C45 H47 0.951 . S
C46 C41 1.491 . S
C46 C48 1.382 . S
C46 C50 1.404 . S
H47 C45 0.951 . S
C48 C46 1.382 . S
C48 C49 1.390 . S
C48 H53 0.949 . S
C49 C48 1.390 . S
C49 C54 1.399 . S
C50 C46 1.404 . S
C50 H51 0.950 . S
C50 C52 1.375 . S
H51 C50 0.950 . S
C52 C50 1.375 . S
C52 C54 1.382 . S
C52 H56 0.950 . S
H53 C48 0.949 . S
C54 C49 1.399 . S
C54 C52 1.382 . S
C54 H55 0.952 . S
H55 C54 0.952 . S
H56 C52 0.950 . S
H57 C58 0.949 . S
C58 H57 0.949 . S
C58 C59 1.395 . S
C58 C60 1.391 . S
C59 C58 1.395 . S
C59 C62 1.390 . S
C60 C58 1.391 . S
C60 C64 1.387 . S
C60 C65 1.491 . S
H61 C62 0.950 . S
C62 C59 1.390 . S
C62 H61 0.950 . S
C62 C63 1.378 . S
C63 C62 1.378 . S
C63 C64 1.409 . S
C64 C60 1.387 . S
C64 C63 1.409 . S
C64 H66 0.951 . S
C65 C60 1.491 . S
C65 C67 1.382 . S
C65 C69 1.404 . S
H66 C64 0.951 . S
C67 C65 1.382 . S
C67 C68 1.390 . S
C67 H72 0.949 . S
C68 C67 1.390 . S
C68 C73 1.399 . S
C69 C65 1.404 . S
C69 H70 0.950 . S
C69 C71 1.375 . S
H70 C69 0.950 . S
C71 C69 1.375 . S
C71 C73 1.382 . S
C71 H75 0.950 . S
H72 C67 0.949 . S
C73 C68 1.399 . S
C73 C71 1.382 . S
C73 H74 0.952 . S
H74 C73 0.952 . S
H75 C71 0.950 . S
H76 C77 0.949 . S
C77 H76 0.949 . S
C77 C78 1.395 . S
C77 C79 1.391 . S
C78 C77 1.395 . S
C78 C81 1.390 . S
C79 C77 1.391 . S
C79 C83 1.387 . S
C79 C84 1.491 . S
H80 C81 0.950 . S
C81 C78 1.390 . S
C81 H80 0.950 . S
C81 C82 1.378 . S
C82 C81 1.378 . S
C82 C83 1.409 . S
C83 C79 1.387 . S
C83 C82 1.409 . S
C83 H85 0.951 . S
C84 C79 1.491 . S
C84 C86 1.382 . S
C84 C88 1.404 . S
H85 C83 0.951 . S
C86 C84 1.382 . S
C86 C87 1.390 . S
C86 H91 0.949 . S
C87 C86 1.390 . S
C87 C92 1.399 1_655 S
C88 C84 1.404 . S
C88 H89 0.950 . S
C88 C90 1.380 . S
H89 C88 0.950 . S
C90 C88 1.380 . S
C90 C92 1.371 1_655 S
C90 H94 0.957 1_655 S
H91 C86 0.949 . S
C92 C87 1.399 1_455 S
C92 C90 1.371 1_455 S
C92 H93 0.952 . S
H93 C92 0.952 . S
H94 C90 0.957 1_455 S
H95 C96 0.949 . S
C96 H95 0.949 . S
C96 C97 1.395 . S
C96 C98 1.391 . S
C97 C96 1.395 . S
C97 C100 1.390 . S
C98 C96 1.391 . S
C98 C102 1.387 . S
C98 C103 1.491 . S
H99 C100 0.950 . S
C100 C97 1.390 . S
C100 H99 0.950 . S
C100 C101 1.378 . S
C101 C100 1.378 . S
C101 C102 1.409 . S
C102 C98 1.387 . S
C102 C101 1.409 . S
C102 H104 0.951 . S
C103 C98 1.491 . S
C103 C105 1.382 . S
C103 C107 1.404 . S
H104 C102 0.951 . S
C105 C103 1.382 . S
C105 C106 1.390 . S
C105 H110 0.949 . S
C106 C105 1.390 . S
C106 C111 1.399 . S
C107 C103 1.404 . S
C107 H108 0.950 . S
C107 C109 1.375 . S
H108 C107 0.950 . S
C109 C107 1.375 . S
C109 C111 1.382 . S
C109 H113 0.950 . S
H110 C105 0.949 . S
C111 C106 1.399 . S
C111 C109 1.382 . S
C111 H112 0.952 . S
H112 C111 0.952 . S
H113 C109 0.950 . S
H114 C115 0.949 . S
C115 H114 0.949 . S
C115 C116 1.395 . S
C115 C117 1.391 . S
C116 C115 1.395 . S
C116 C119 1.390 . S
C117 C115 1.391 . S
C117 C121 1.387 . S
C117 C122 1.491 . S
H118 C119 0.950 . S
C119 C116 1.390 . S
C119 H118 0.950 . S
C119 C120 1.378 . S
C120 C119 1.378 . S
C120 C121 1.409 . S
C121 C117 1.387 . S
C121 C120 1.409 . S
C121 H123 0.951 . S
C122 C117 1.491 . S
C122 C124 1.382 . S
C122 C126 1.404 . S
H123 C121 0.951 . S
C124 C122 1.382 . S
C124 C125 1.390 . S
C124 H129 0.949 . S
C125 C124 1.390 . S
C125 C130 1.399 . S
C126 C122 1.404 . S
C126 H127 0.950 . S
C126 C128 1.375 . S
H127 C126 0.950 . S
C128 C126 1.375 . S
C128 C130 1.382 . S
C128 H132 0.950 . S
H129 C124 0.949 . S
C130 C125 1.399 . S
C130 C128 1.382 . S
C130 H131 0.952 . S
H131 C130 0.952 . S
H132 C128 0.950 . S
H133 C134 0.949 . S
C134 H133 0.949 . S
C134 C135 1.395 . S
C134 C136 1.391 . S
C135 C134 1.395 . S
C135 C138 1.390 . S
C136 C134 1.391 . S
C136 C140 1.387 . S
C136 C141 1.491 . S
H137 C138 0.950 . S
C138 C135 1.390 . S
C138 H137 0.950 . S
C138 C139 1.378 . S
C139 C138 1.378 . S
C139 C140 1.409 . S
C140 C136 1.387 . S
C140 C139 1.409 . S
C140 H142 0.951 . S
C141 C136 1.491 . S
C141 C143 1.382 . S
C141 C145 1.404 . S
H142 C140 0.951 . S
C143 C141 1.382 . S
C143 C144 1.390 . S
C143 H148 0.949 . S
C144 C143 1.390 . S
C144 C149 1.399 . S
C145 C141 1.404 . S
C145 H146 0.950 . S
C145 C147 1.375 . S
H146 C145 0.950 . S
C147 C145 1.375 . S
C147 C149 1.382 . S
C147 H151 0.950 . S
H148 C143 0.949 . S
C149 C144 1.399 . S
C149 C147 1.382 . S
C149 H150 0.952 . S
H150 C149 0.952 . S
H151 C147 0.950 . S
C152 C153 1.443 . S
C152 N156 1.376 . S
C152 C190 1.389 . S
C153 C152 1.443 . S
C153 C154 1.340 . S
C153 H193 0.951 . S
C154 C153 1.340 . S
C154 C155 1.439 . S
C154 H194 0.950 . S
C155 C154 1.439 . S
C155 N156 1.374 . S
C155 C189 1.395 . S
N156 C152 1.376 . S
N156 C155 1.374 . S
N156 Co157 2.008 . S
Co157 N156 2.008 . S
Co157 N158 1.995 . S
Co157 N163 2.008 1_455 S
Co157 N168 1.995 . S
Co157 N173 2.282 . S
Co157 N179 2.282 . S
N158 Co157 1.995 . S
N158 C159 1.376 . S
N158 C162 1.383 . S
C159 N158 1.376 . S
C159 C160 1.446 . S
C159 C189 1.391 . S
C160 C159 1.446 . S
C160 C161 1.339 . S
C160 H195 0.949 . S
C161 C160 1.339 . S
C161 C162 1.439 . S
C161 H196 0.950 . S
C162 N158 1.383 . S
C162 C161 1.439 . S
C162 C191 1.392 1_455 S
N163 Co157 2.008 1_655 S
N163 C164 1.376 . S
N163 C167 1.374 . S
C164 N163 1.376 . S
C164 C165 1.443 . S
C164 C191 1.389 . S
C165 C164 1.443 . S
C165 C166 1.340 . S
C165 H197 0.951 . S
C166 C165 1.340 . S
C166 C167 1.439 . S
C166 H198 0.950 . S
C167 N163 1.374 . S
C167 C166 1.439 . S
C167 C192 1.395 . S
N168 Co157 1.995 . S
N168 C169 1.376 1_455 S
N168 C172 1.383 . S
C169 N168 1.376 1_655 S
C169 C170 1.446 . S
C169 C192 1.391 . S
C170 C169 1.446 . S
C170 C171 1.339 1_655 S
C170 H199 0.949 . S
C171 C170 1.339 1_455 S
C171 C172 1.439 . S
C171 H200 0.950 . S
C172 N168 1.383 . S
C172 C171 1.439 . S
C172 C190 1.392 . S
N173 Co157 2.282 . S
N173 C176 1.332 . S
N173 C178 1.332 . S
C174 C175 1.386 . S
C174 C177 1.388 . S
C175 C174 1.386 . S
C175 C176 1.382 . S
C175 H201 0.950 . S
C176 N173 1.332 . S
C176 C175 1.382 . S
C176 H187 0.952 . S
C177 C174 1.388 . S
C177 C178 1.382 . S
C177 H202 0.950 . S
C178 N173 1.332 . S
C178 C177 1.382 . S
C178 H188 0.948 . S
N179 Co157 2.282 . S
N179 C183 1.332 . S
N179 C184 1.332 1_455 S
C180 C181 1.388 . S
C180 C184 1.382 . S
C180 H203 0.950 . S
C181 C180 1.388 . S
C181 C182 1.386 1_655 S
C182 C181 1.386 1_455 S
C182 C183 1.382 . S
C182 H204 0.950 . S
C183 N179 1.332 . S
C183 C182 1.382 . S
C183 H185 0.952 . S
C184 N179 1.332 1_655 S
C184 C180 1.382 . S
C184 H186 0.948 . S
H185 C183 0.952 . S
H186 C184 0.948 . S
H187 C176 0.952 . S
H188 C178 0.948 . S
C189 C155 1.395 . S
C189 C159 1.391 . S
C190 C152 1.389 . S
C190 C172 1.392 . S
C191 C162 1.392 1_655 S
C191 C164 1.389 . S
C192 C167 1.395 . S
C192 C169 1.391 . S
H193 C153 0.951 . S
H194 C154 0.950 . S
H195 C160 0.949 . S
H196 C161 0.950 . S
H197 C165 0.951 . S
H198 C166 0.950 . S
H199 C170 0.949 . S
H200 C171 0.950 . S
H201 C175 0.950 . S
H202 C177 0.950 . S
H203 C180 0.950 . S
H204 C182 0.950 . S
C205 C206 1.443 . S
C205 N209 1.376 . S
C205 C243 1.389 . S
C206 C205 1.443 . S
C206 C207 1.340 . S
C206 H246 0.951 . S
C207 C206 1.340 . S
C207 C208 1.439 . S
C207 H247 0.950 . S
C208 C207 1.439 . S
C208 N209 1.374 . S
C208 C242 1.395 . S
N209 C205 1.376 . S
N209 C208 1.374 . S
N209 Co210 2.008 . S
Co210 N209 2.008 . S
Co210 N211 1.995 . S
Co210 N216 2.008 1_455 S
Co210 N221 1.995 . S
Co210 N226 2.282 . S
Co210 N232 2.282 . S
N211 Co210 1.995 . S
N211 C212 1.376 . S
N211 C215 1.383 . S
C212 N211 1.376 . S
C212 C213 1.446 . S
C212 C242 1.391 . S
C213 C212 1.446 . S
C213 C214 1.339 . S
C213 H248 0.949 . S
C214 C213 1.339 . S
C214 C215 1.439 . S
C214 H249 0.950 . S
C215 N211 1.383 . S
C215 C214 1.439 . S
C215 C244 1.411 . S
N216 Co210 2.008 1_655 S
N216 C217 1.376 . S
N216 C220 1.374 . S
C217 N216 1.376 . S
C217 C218 1.443 . S
C217 C244 1.385 1_655 S
C218 C217 1.443 . S
C218 C219 1.340 . S
C218 H250 0.951 . S
C219 C218 1.340 . S
C219 C220 1.439 . S
C219 H251 0.950 . S
C220 N216 1.374 . S
C220 C219 1.439 . S
C220 C245 1.395 . S
N221 Co210 1.995 . S
N221 C222 1.376 . S
N221 C225 1.383 . S
C222 N221 1.376 . S
C222 C223 1.446 . S
C222 C245 1.391 1_455 S
C223 C222 1.446 . S
C223 C224 1.339 . S
C223 H252 0.949 1_455 S
C224 C223 1.339 . S
C224 C225 1.439 . S
C224 H253 0.950 . S
C225 N221 1.383 . S
C225 C224 1.439 . S
C225 C243 1.392 . S
N226 Co210 2.282 . S
N226 C229 1.332 . S
N226 C231 1.332 . S
C227 C228 1.386 . S
C227 C230 1.388 . S
C228 C227 1.386 . S
C228 C229 1.382 . S
C228 H254 0.950 . S
C229 N226 1.332 . S
C229 C228 1.382 . S
C229 H240 0.952 . S
C230 C227 1.388 . S
C230 C231 1.382 . S
C230 H255 0.950 . S
C231 N226 1.332 . S
C231 C230 1.382 . S
C231 H241 0.948 . S
N232 Co210 2.282 . S
N232 C236 1.332 . S
N232 C237 1.332 . S
C233 C234 1.388 . S
C233 C237 1.382 . S
C233 H256 0.950 1_455 S
C234 C233 1.388 . S
C234 C235 1.386 . S
C235 C234 1.386 . S
C235 C236 1.382 . S
C235 H257 0.950 . S
C236 N232 1.332 . S
C236 C235 1.382 . S
C236 H238 0.952 . S
C237 N232 1.332 . S
C237 C233 1.382 . S
C237 H239 0.948 1_455 S
H238 C236 0.952 . S
H239 C237 0.948 1_655 S
H240 C229 0.952 . S
H241 C231 0.948 . S
C242 C208 1.395 . S
C242 C212 1.391 . S
C243 C205 1.389 . S
C243 C225 1.392 . S
C244 C215 1.411 . S
C244 C217 1.385 1_455 S
C245 C220 1.395 . S
C245 C222 1.391 1_655 S
H246 C206 0.951 . S
H247 C207 0.950 . S
H248 C213 0.949 . S
H249 C214 0.950 . S
H250 C218 0.951 . S
H251 C219 0.950 . S
H252 C223 0.949 1_655 S
H253 C224 0.950 . S
H254 C228 0.950 . S
H255 C230 0.950 . S
H256 C233 0.950 1_655 S
H257 C235 0.950 . S
C258 C259 1.443 . S
C258 N262 1.376 1_565 S
C258 C296 1.389 . S
C259 C258 1.443 . S
C259 C260 1.340 1_565 S
C259 H299 0.951 . S
C260 C259 1.340 1_545 S
C260 C261 1.439 . S
C260 H300 0.950 . S
C261 C260 1.439 . S
C261 N262 1.374 . S
C261 C295 1.395 . S
N262 C258 1.376 1_545 S
N262 C261 1.374 . S
N262 Co263 2.008 . S
Co263 N262 2.008 . S
Co263 N264 1.995 . S
Co263 N269 2.008 . S
Co263 N274 1.995 1_545 S
Co263 N279 2.282 . S
Co263 N285 2.282 1_545 S
N264 Co263 1.995 . S
N264 C265 1.376 . S
N264 C268 1.383 . S
C265 N264 1.376 . S
C265 C266 1.446 . S
C265 C295 1.391 . S
C266 C265 1.446 . S
C266 C267 1.339 . S
C266 H301 0.949 . S
C267 C266 1.339 . S
C267 C268 1.439 . S
C267 H302 0.950 . S
C268 N264 1.383 . S
C268 C267 1.439 . S
C268 C297 1.392 . S
N269 Co263 2.008 . S
N269 C270 1.376 . S
N269 C273 1.374 . S
C270 N269 1.376 . S
C270 C271 1.443 . S
C270 C297 1.389 . S
C271 C270 1.443 . S
C271 C272 1.340 . S
C271 H303 0.951 . S
C272 C271 1.340 . S
C272 C273 1.439 . S
C272 H304 0.950 . S
C273 N269 1.374 . S
C273 C272 1.439 . S
C273 C298 1.395 1_545 S
N274 Co263 1.995 1_565 S
N274 C275 1.376 . S
N274 C278 1.383 . S
C275 N274 1.376 . S
C275 C276 1.446 . S
C275 C298 1.391 . S
C276 C275 1.446 . S
C276 C277 1.339 . S
C276 H305 0.949 . S
C277 C276 1.339 . S
C277 C278 1.439 . S
C277 H306 0.950 . S
C278 N274 1.383 . S
C278 C277 1.439 . S
C278 C296 1.392 . S
N279 Co263 2.282 . S
N279 C282 1.332 . S
N279 C284 1.332 . S
C280 C281 1.386 . S
C280 C283 1.388 . S
C281 C280 1.386 . S
C281 C282 1.382 . S
C281 H307 0.950 . S
C282 N279 1.332 . S
C282 C281 1.382 . S
C282 H293 0.952 . S
C283 C280 1.388 . S
C283 C284 1.382 . S
C283 H308 0.950 . S
C284 N279 1.332 . S
C284 C283 1.382 . S
C284 H294 0.948 . S
N285 Co263 2.282 1_565 S
N285 C289 1.332 . S
N285 C290 1.332 . S
C286 C287 1.388 . S
C286 C290 1.382 . S
C286 H309 0.950 . S
C287 C286 1.388 . S
C287 C288 1.386 . S
C288 C287 1.386 . S
C288 C289 1.382 . S
C288 H310 0.950 . S
C289 N285 1.332 . S
C289 C288 1.382 . S
C289 H291 0.952 1_565 S
C290 N285 1.332 . S
C290 C286 1.382 . S
C290 H292 0.948 . S
H291 C289 0.952 1_545 S
H292 C290 0.948 . S
H293 C282 0.952 . S
H294 C284 0.948 . S
C295 C261 1.395 . S
C295 C265 1.391 . S
C296 C258 1.389 . S
C296 C278 1.392 . S
C297 C268 1.392 . S
C297 C270 1.389 . S
C298 C273 1.395 1_565 S
C298 C275 1.391 . S
H299 C259 0.951 . S
H300 C260 0.950 . S
H301 C266 0.949 . S
H302 C267 0.950 . S
H303 C271 0.951 . S
H304 C272 0.950 . S
H305 C276 0.949 . S
H306 C277 0.950 . S
H307 C281 0.950 . S
H308 C283 0.950 . S
H309 C286 0.950 . S
H310 C288 0.950 . S
C311 C312 1.443 . S
C311 N315 1.376 . S
C311 C349 1.389 . S
C312 C311 1.443 . S
C312 C313 1.340 . S
C312 H352 0.951 . S
C313 C312 1.340 . S
C313 C314 1.439 . S
C313 H353 0.950 . S
C314 C313 1.439 . S
C314 N315 1.374 . S
C314 C348 1.395 . S
N315 C311 1.376 . S
N315 C314 1.374 . S
N315 Co316 2.008 . S
Co316 N315 2.008 . S
Co316 N317 1.995 . S
Co316 N322 2.011 . S
Co316 N327 1.995 . S
Co316 N332 2.282 1_554 S
Co316 N338 2.282 . S
N317 Co316 1.995 . S
N317 C318 1.376 . S
N317 C321 1.383 1_554 S
C318 N317 1.376 . S
C318 C319 1.446 1_554 S
C318 C348 1.391 . S
C319 C318 1.446 1_556 S
C319 C320 1.339 . S
C319 H354 0.949 . S
C320 C319 1.339 . S
C320 C321 1.439 . S
C320 H355 0.950 . S
C321 N317 1.383 1_556 S
C321 C320 1.439 . S
C321 C350 1.392 . S
N322 Co316 2.011 . S
N322 C323 1.372 1_554 S
N322 C326 1.374 1_554 S
C323 N322 1.372 1_556 S
C323 C324 1.443 . S
C323 C350 1.389 . S
C324 C323 1.443 . S
C324 C325 1.340 . S
C324 H356 0.951 . S
C325 C324 1.340 . S
C325 C326 1.439 . S
C325 H357 0.950 . S
C326 N322 1.374 1_556 S
C326 C325 1.439 . S
C326 C351 1.395 1_556 S
N327 Co316 1.995 . S
N327 C328 1.376 . S
N327 C331 1.383 . S
C328 N327 1.376 . S
C328 C329 1.446 . S
C328 C351 1.391 . S
C329 C328 1.446 . S
C329 C330 1.339 . S
C329 H358 0.949 . S
C330 C329 1.339 . S
C330 C331 1.439 . S
C330 H359 0.950 . S
C331 N327 1.383 . S
C331 C330 1.439 . S
C331 C349 1.392 . S
N332 Co316 2.282 1_556 S
N332 C335 1.332 . S
N332 C337 1.332 . S
C333 C334 1.386 . S
C333 C336 1.388 . S
C334 C333 1.386 . S
C334 C335 1.382 . S
C334 H360 0.950 . S
C335 N332 1.332 . S
C335 C334 1.382 . S
C335 H346 0.952 . S
C336 C333 1.388 . S
C336 C337 1.382 . S
C336 H361 0.950 . S
C337 N332 1.332 . S
C337 C336 1.382 . S
C337 H347 0.948 . S
N338 Co316 2.282 . S
N338 C342 1.332 . S
N338 C343 1.332 . S
C339 C340 1.388 . S
C339 C343 1.382 . S
C339 H362 0.950 . S
C340 C339 1.388 . S
C340 C341 1.386 . S
C341 C340 1.386 . S
C341 C342 1.382 . S
C341 H363 0.950 . S
C342 N338 1.332 . S
C342 C341 1.382 . S
C342 H344 0.952 . S
C343 N338 1.332 . S
C343 C339 1.382 . S
C343 H345 0.948 . S
H344 C342 0.952 . S
H345 C343 0.948 . S
H346 C335 0.952 . S
H347 C337 0.948 . S
C348 C314 1.395 . S
C348 C318 1.391 . S
C349 C311 1.389 . S
C349 C331 1.392 . S
C350 C321 1.392 . S
C350 C323 1.389 . S
C351 C326 1.395 1_554 S
C351 C328 1.391 . S
H352 C312 0.951 . S
H353 C313 0.950 . S
H354 C319 0.949 . S
H355 C320 0.950 . S
H356 C324 0.951 . S
H357 C325 0.950 . S
H358 C329 0.949 . S
H359 C330 0.950 . S
H360 C334 0.950 . S
H361 C336 0.950 . S
H362 C339 0.950 . S
H363 C341 0.950 . S
C364 C365 1.443 . S
C364 N368 1.376 . S
C364 C402 1.389 . S
C365 C364 1.443 . S
C365 C366 1.340 . S
C365 H405 0.951 . S
C366 C365 1.340 . S
C366 C367 1.439 . S
C366 H406 0.950 . S
C367 C366 1.439 . S
C367 N368 1.374 . S
C367 C401 1.395 . S
N368 C364 1.376 . S
N368 C367 1.374 . S
N368 Co369 2.008 1_455 S
Co369 N368 2.008 1_655 S
Co369 N370 1.995 1_655 S
Co369 N375 2.008 . S
Co369 N380 1.995 . S
Co369 N385 2.267 . S
Co369 N391 2.270 1_655 S
N370 Co369 1.995 1_455 S
N370 C371 1.376 . S
N370 C374 1.383 . S
C371 N370 1.376 . S
C371 C372 1.446 . S
C371 C401 1.391 . S
C372 C371 1.446 . S
C372 C373 1.339 . S
C372 H407 0.949 . S
C373 C372 1.339 . S
C373 C374 1.439 . S
C373 H408 0.950 . S
C374 N370 1.383 . S
C374 C373 1.439 . S
C374 C403 1.392 1_455 S
N375 Co369 2.008 . S
N375 C376 1.376 . S
N375 C379 1.374 . S
C376 N375 1.376 . S
C376 C377 1.443 . S
C376 C403 1.389 . S
C377 C376 1.443 . S
C377 C378 1.340 . S
C377 H409 0.951 . S
C378 C377 1.340 . S
C378 C379 1.439 . S
C378 H410 0.950 . S
C379 N375 1.374 . S
C379 C378 1.439 . S
C379 C404 1.395 . S
N380 Co369 1.995 . S
N380 C381 1.376 . S
N380 C384 1.383 . S
C381 N380 1.376 . S
C381 C382 1.446 . S
C381 C404 1.391 . S
C382 C381 1.446 . S
C382 C383 1.339 . S
C382 H411 0.949 . S
C383 C382 1.339 . S
C383 C384 1.439 . S
C383 H412 0.950 . S
C384 N380 1.383 . S
C384 C383 1.439 . S
C384 C402 1.392 1_655 S
N385 Co369 2.267 . S
N385 C388 1.368 . S
N385 C390 1.317 1_655 S
C386 C387 1.386 . S
C386 C389 1.388 1_655 S
C387 C386 1.386 . S
C387 C388 1.382 . S
C387 H413 0.950 . S
C388 N385 1.368 . S
C388 C387 1.382 . S
C388 H399 0.952 . S
C389 C386 1.388 1_455 S
C389 C390 1.382 . S
C389 H414 0.950 . S
C390 N385 1.317 1_455 S
C390 C389 1.382 . S
C390 H400 0.948 . S
N391 Co369 2.270 1_455 S
N391 C395 1.359 . S
N391 C396 1.320 1_455 S
C392 C393 1.388 1_655 S
C392 C396 1.382 . S
C392 H415 0.950 . S
C393 C392 1.388 1_455 S
C393 C394 1.386 . S
C394 C393 1.386 . S
C394 C395 1.382 . S
C394 H416 0.950 . S
C395 N391 1.359 . S
C395 C394 1.382 . S
C395 H397 0.952 . S
C396 N391 1.320 1_655 S
C396 C392 1.382 . S
C396 H398 0.948 . S
H397 C395 0.952 . S
H398 C396 0.948 . S
H399 C388 0.952 . S
H400 C390 0.948 . S
C401 C367 1.395 . S
C401 C371 1.391 . S
C402 C364 1.389 . S
C402 C384 1.392 1_455 S
C403 C374 1.392 1_655 S
C403 C376 1.389 . S
C404 C379 1.395 . S
C404 C381 1.391 . S
H405 C365 0.951 . S
H406 C366 0.950 . S
H407 C372 0.949 . S
H408 C373 0.950 . S
H409 C377 0.951 . S
H410 C378 0.950 . S
H411 C382 0.949 . S
H412 C383 0.950 . S
H413 C387 0.950 . S
H414 C389 0.950 . S
H415 C392 0.950 . S
H416 C394 0.950 . S
C417 C418 1.443 . S
C417 N421 1.376 . S
C417 C455 1.389 . S
C418 C417 1.443 . S
C418 C419 1.340 . S
C418 H458 0.951 . S
C419 C418 1.340 . S
C419 C420 1.439 . S
C419 H459 0.950 . S
C420 C419 1.439 . S
C420 N421 1.374 . S
C420 C454 1.395 . S
N421 C417 1.376 . S
N421 C420 1.374 . S
N421 Co422 2.008 . S
Co422 N421 2.008 . S
Co422 N423 1.995 . S
Co422 N428 2.008 . S
Co422 N433 1.995 . S
Co422 N438 2.282 . S
Co422 N444 2.282 . S
N423 Co422 1.995 . S
N423 C424 1.376 . S
N423 C427 1.383 . S
C424 N423 1.376 . S
C424 C425 1.446 . S
C424 C454 1.391 . S
C425 C424 1.446 . S
C425 C426 1.339 . S
C425 H460 0.949 . S
C426 C425 1.339 . S
C426 C427 1.439 . S
C426 H461 0.950 . S
C427 N423 1.383 . S
C427 C426 1.439 . S
C427 C456 1.392 . S
N428 Co422 2.008 . S
N428 C429 1.376 . S
N428 C432 1.374 . S
C429 N428 1.376 . S
C429 C430 1.443 . S
C429 C456 1.389 . S
C430 C429 1.443 . S
C430 C431 1.340 . S
C430 H462 0.951 . S
C431 C430 1.340 . S
C431 C432 1.439 . S
C431 H463 0.950 . S
C432 N428 1.374 . S
C432 C431 1.439 . S
C432 C457 1.395 . S
N433 Co422 1.995 . S
N433 C434 1.376 . S
N433 C437 1.383 . S
C434 N433 1.376 . S
C434 C435 1.446 . S
C434 C457 1.391 . S
C435 C434 1.446 . S
C435 C436 1.339 . S
C435 H464 0.949 . S
C436 C435 1.339 . S
C436 C437 1.439 . S
C436 H465 0.950 . S
C437 N433 1.383 . S
C437 C436 1.439 . S
C437 C455 1.392 . S
N438 Co422 2.282 . S
N438 C441 1.332 . S
N438 C443 1.332 . S
C439 C440 1.386 . S
C439 C442 1.388 . S
C440 C439 1.386 . S
C440 C441 1.382 . S
C440 H466 0.950 . S
C441 N438 1.332 . S
C441 C440 1.382 . S
C441 H452 0.952 . S
C442 C439 1.388 . S
C442 C443 1.382 . S
C442 H467 0.950 . S
C443 N438 1.332 . S
C443 C442 1.382 . S
C443 H453 0.948 . S
N444 Co422 2.282 . S
N444 C448 1.332 . S
N444 C449 1.332 . S
C445 C446 1.388 . S
C445 C449 1.382 . S
C445 H468 0.950 . S
C446 C445 1.388 . S
C446 C447 1.386 . S
C447 C446 1.386 . S
C447 C448 1.382 . S
C447 H469 0.950 . S
C448 N444 1.332 . S
C448 C447 1.382 . S
C448 H450 0.952 . S
C449 N444 1.332 . S
C449 C445 1.382 . S
C449 H451 0.948 . S
H450 C448 0.952 . S
H451 C449 0.948 . S
H452 C441 0.952 . S
H453 C443 0.948 . S
C454 C420 1.395 . S
C454 C424 1.391 . S
C455 C417 1.389 . S
C455 C437 1.392 . S
C456 C427 1.392 . S
C456 C429 1.389 . S
C457 C432 1.395 . S
C457 C434 1.391 . S
H458 C418 0.951 . S
H459 C419 0.950 . S
H460 C425 0.949 . S
H461 C426 0.950 . S
H462 C430 0.951 . S
H463 C431 0.950 . S
H464 C435 0.949 . S
H465 C436 0.950 . S
H466 C440 0.950 . S
H467 C442 0.950 . S
H468 C445 0.950 . S
H469 C447 0.950 . S
C470 C471 1.349 . S
C470 C472 1.327 . S
C470 H495 0.950 . S
C471 C470 1.349 . S
C471 C487 1.349 . S
C472 C470 1.327 . S
C472 C491 1.429 . S
C472 H496 0.950 . S
C473 C490 1.574 . S
C473 C492 1.368 . S
C473 H497 0.949 . S
H474 C478 0.949 . S
C475 C476 1.349 . S
C475 C477 1.327 . S
C475 H498 0.950 . S
C476 C475 1.349 . S
C476 C488 1.349 . S
C477 C475 1.327 . S
C477 C493 1.429 . S
C477 H499 0.950 . S
C478 H474 0.949 . S
C478 C486 1.574 . S
C478 C494 1.368 . S
H479 C487 0.950 . S
H480 C485 0.950 . S
H481 C486 0.949 . S
H482 C488 0.950 . S
H483 C489 0.950 . S
H484 C490 0.949 . S
C485 H480 0.950 . S
C485 C487 1.327 . S
C485 C491 1.429 . S
C486 C478 1.574 . S
C486 H481 0.949 . S
C486 C492 1.368 . S
C487 C471 1.349 . S
C487 H479 0.950 . S
C487 C485 1.327 . S
C488 C476 1.349 . S
C488 H482 0.950 . S
C488 C489 1.327 . S
C489 H483 0.950 . S
C489 C488 1.327 . S
C489 C493 1.429 . S
C490 C473 1.574 . S
C490 H484 0.949 . S
C490 C494 1.368 . S
C491 C472 1.429 . S
C491 C485 1.429 . S
C491 C492 1.523 . S
C492 C473 1.368 . S
C492 C486 1.368 . S
C492 C491 1.523 . S
C493 C477 1.429 . S
C493 C489 1.429 . S
C493 C494 1.523 . S
C494 C478 1.368 . S
C494 C490 1.368 . S
C494 C493 1.523 . S
H495 C470 0.950 . S
H496 C472 0.950 . S
H497 C473 0.949 . S
H498 C475 0.950 . S
H499 C477 0.950 . S
C500 C501 1.349 . S
C500 C502 1.327 . S
C500 H525 0.950 . S
C501 C500 1.349 . S
C501 C517 1.349 . S
C502 C500 1.327 . S
C502 C521 1.429 . S
C502 H526 0.950 . S
C503 C520 1.574 . S
C503 C522 1.368 . S
C503 H527 0.949 . S
H504 C508 0.949 . S
C505 C506 1.349 . S
C505 C507 1.327 . S
C505 H528 0.950 . S
C506 C505 1.349 . S
C506 C518 1.349 . S
C507 C505 1.327 . S
C507 C523 1.429 . S
C507 H529 0.950 . S
C508 H504 0.949 . S
C508 C516 1.574 . S
C508 C524 1.368 . S
H509 C517 0.950 . S
H510 C515 0.950 . S
H511 C516 0.949 . S
H512 C518 0.950 . S
H513 C519 0.950 . S
H514 C520 0.949 . S
C515 H510 0.950 . S
C515 C517 1.327 . S
C515 C521 1.429 . S
C516 C508 1.574 . S
C516 H511 0.949 . S
C516 C522 1.368 . S
C517 C501 1.349 . S
C517 H509 0.950 . S
C517 C515 1.327 . S
C518 C506 1.349 . S
C518 H512 0.950 . S
C518 C519 1.327 . S
C519 H513 0.950 . S
C519 C518 1.327 . S
C519 C523 1.429 . S
C520 C503 1.574 . S
C520 H514 0.949 . S
C520 C524 1.368 . S
C521 C502 1.429 . S
C521 C515 1.429 . S
C521 C522 1.523 . S
C522 C503 1.368 . S
C522 C516 1.368 . S
C522 C521 1.523 . S
C523 C507 1.429 . S
C523 C519 1.429 . S
C523 C524 1.523 . S
C524 C508 1.368 . S
C524 C520 1.368 . S
C524 C523 1.523 . S
H525 C500 0.950 . S
H526 C502 0.950 . S
H527 C503 0.949 . S
H528 C505 0.950 . S
H529 C507 0.950 . S
C530 C531 1.349 . S
C530 C532 1.327 . S
C530 H555 0.950 . S
C531 C530 1.349 . S
C531 C547 1.349 . S
C532 C530 1.327 . S
C532 C551 1.429 . S
C532 H556 0.950 . S
C533 C550 1.574 . S
C533 C552 1.368 . S
C533 H557 0.949 . S
H534 C538 0.949 . S
C535 C536 1.349 1_455 S
C535 C537 1.330 . S
C535 H558 0.950 . S
C536 C535 1.349 1_655 S
C536 C548 1.349 . S
C537 C535 1.330 . S
C537 C553 1.421 1_455 S
C537 H559 0.954 . S
C538 H534 0.949 . S
C538 C546 1.574 . S
C538 C554 1.368 . S
H539 C547 0.950 . S
H540 C545 0.950 . S
H541 C546 0.949 . S
H542 C548 0.950 . S
H543 C549 0.950 . S
H544 C550 0.949 1_455 S
C545 H540 0.950 . S
C545 C547 1.327 . S
C545 C551 1.429 . S
C546 C538 1.574 . S
C546 H541 0.949 . S
C546 C552 1.368 . S
C547 C531 1.349 . S
C547 H539 0.950 . S
C547 C545 1.327 . S
C548 C536 1.349 . S
C548 H542 0.950 . S
C548 C549 1.327 . S
C549 H543 0.950 . S
C549 C548 1.327 . S
C549 C553 1.429 . S
C550 C533 1.574 . S
C550 H544 0.949 1_655 S
C550 C554 1.368 . S
C551 C532 1.429 . S
C551 C545 1.429 . S
C551 C552 1.523 . S
C552 C533 1.368 . S
C552 C546 1.368 . S
C552 C551 1.523 . S
C553 C537 1.421 1_655 S
C553 C549 1.429 . S
C553 C554 1.523 . S
C554 C538 1.368 . S
C554 C550 1.368 . S
C554 C553 1.523 . S
H555 C530 0.950 . S
H556 C532 0.950 . S
H557 C533 0.949 . S
H558 C535 0.950 . S
H559 C537 0.954 . S
C560 C561 1.349 . S
C560 C562 1.327 . S
C560 H585 0.950 . S
C561 C560 1.349 . S
C561 C577 1.349 . S
C562 C560 1.327 . S
C562 C581 1.429 . S
C562 H586 0.950 . S
C563 C580 1.574 . S
C563 C582 1.368 . S
C563 H587 0.949 . S
H564 C568 0.949 . S
C565 C566 1.349 . S
C565 C567 1.327 . S
C565 H588 0.950 . S
C566 C565 1.349 . S
C566 C578 1.349 . S
C567 C565 1.327 . S
C567 C583 1.429 . S
C567 H589 0.950 . S
C568 H564 0.949 . S
C568 C576 1.574 . S
C568 C584 1.368 . S
H569 C577 0.950 . S
H570 C575 0.950 . S
H571 C576 0.949 . S
H572 C578 0.950 . S
H573 C579 0.950 . S
H574 C580 0.949 . S
C575 H570 0.950 . S
C575 C577 1.327 . S
C575 C581 1.429 . S
C576 C568 1.574 . S
C576 H571 0.949 . S
C576 C582 1.368 . S
C577 C561 1.349 . S
C577 H569 0.950 . S
C577 C575 1.327 . S
C578 C566 1.349 . S
C578 H572 0.950 . S
C578 C579 1.327 . S
C579 H573 0.950 . S
C579 C578 1.327 . S
C579 C583 1.429 . S
C580 C563 1.574 . S
C580 H574 0.949 . S
C580 C584 1.368 . S
C581 C562 1.429 . S
C581 C575 1.429 . S
C581 C582 1.523 . S
C582 C563 1.368 . S
C582 C576 1.368 . S
C582 C581 1.523 . S
C583 C567 1.429 . S
C583 C579 1.429 . S
C583 C584 1.523 . S
C584 C568 1.368 . S
C584 C580 1.368 . S
C584 C583 1.523 . S
H585 C560 0.950 . S
H586 C562 0.950 . S
H587 C563 0.949 . S
H588 C565 0.950 . S
H589 C567 0.950 . S
C590 C591 1.349 . S
C590 C592 1.327 . S
C590 H615 0.950 . S
C591 C590 1.349 . S
C591 C607 1.349 . S
C592 C590 1.327 . S
C592 C611 1.429 . S
C592 H616 0.950 . S
C593 C610 1.574 . S
C593 C612 1.368 . S
C593 H617 0.949 . S
H594 C598 0.949 . S
C595 C596 1.349 . S
C595 C597 1.327 . S
C595 H618 0.950 . S
C596 C595 1.349 . S
C596 C608 1.349 . S
C597 C595 1.327 . S
C597 C613 1.429 . S
C597 H619 0.950 . S
C598 H594 0.949 . S
C598 C606 1.574 . S
C598 C614 1.368 . S
H599 C607 0.950 . S
H600 C605 0.950 . S
H601 C606 0.949 . S
H602 C608 0.950 . S
H603 C609 0.950 . S
H604 C610 0.949 . S
C605 H600 0.950 . S
C605 C607 1.327 . S
C605 C611 1.429 . S
C606 C598 1.574 . S
C606 H601 0.949 . S
C606 C612 1.368 . S
C607 C591 1.349 . S
C607 H599 0.950 . S
C607 C605 1.327 . S
C608 C596 1.349 . S
C608 H602 0.950 . S
C608 C609 1.327 . S
C609 H603 0.950 . S
C609 C608 1.327 . S
C609 C613 1.429 . S
C610 C593 1.574 . S
C610 H604 0.949 . S
C610 C614 1.368 . S
C611 C592 1.429 . S
C611 C605 1.429 . S
C611 C612 1.523 . S
C612 C593 1.368 . S
C612 C606 1.368 . S
C612 C611 1.523 . S
C613 C597 1.429 . S
C613 C609 1.429 . S
C613 C614 1.523 . S
C614 C598 1.368 . S
C614 C610 1.368 . S
C614 C613 1.523 . S
H615 C590 0.950 . S
H616 C592 0.950 . S
H617 C593 0.949 . S
H618 C595 0.950 . S
H619 C597 0.950 . S
C620 C621 1.349 . S
C620 C622 1.327 . S
C620 H645 0.950 . S
C621 C620 1.349 . S
C621 C637 1.349 . S
C622 C620 1.327 . S
C622 C641 1.429 . S
C622 H646 0.950 . S
C623 C640 1.574 . S
C623 C642 1.368 . S
C623 H647 0.949 . S
H624 C628 0.949 . S
C625 C626 1.349 . S
C625 C627 1.327 . S
C625 H648 0.950 . S
C626 C625 1.349 . S
C626 C638 1.349 . S
C627 C625 1.327 . S
C627 C643 1.429 . S
C627 H649 0.950 . S
C628 H624 0.949 . S
C628 C636 1.574 . S
C628 C644 1.368 . S
H629 C637 0.950 . S
H630 C635 0.950 . S
H631 C636 0.949 . S
H632 C638 0.950 . S
H633 C639 0.950 . S
H634 C640 0.949 . S
C635 H630 0.950 . S
C635 C637 1.327 . S
C635 C641 1.429 . S
C636 C628 1.574 . S
C636 H631 0.949 . S
C636 C642 1.368 . S
C637 C621 1.349 . S
C637 H629 0.950 . S
C637 C635 1.327 . S
C638 C626 1.349 . S
C638 H632 0.950 . S
C638 C639 1.327 . S
C639 H633 0.950 . S
C639 C638 1.327 . S
C639 C643 1.429 . S
C640 C623 1.574 . S
C640 H634 0.949 . S
C640 C644 1.368 . S
C641 C622 1.429 . S
C641 C635 1.429 . S
C641 C642 1.523 . S
C642 C623 1.368 . S
C642 C636 1.368 . S
C642 C641 1.523 . S
C643 C627 1.429 . S
C643 C639 1.429 . S
C643 C644 1.523 . S
C644 C628 1.368 . S
C644 C640 1.368 . S
C644 C643 1.523 . S
H645 C620 0.950 . S
H646 C622 0.950 . S
H647 C623 0.949 . S
H648 C625 0.950 . S
H649 C627 0.950 . S
C650 C651 1.349 . S
C650 C652 1.327 . S
C650 H675 0.950 . S
C651 C650 1.349 . S
C651 C667 1.349 . S
C652 C650 1.327 . S
C652 C671 1.429 . S
C652 H676 0.950 . S
C653 C670 1.574 1_565 S
C653 C672 1.368 . S
C653 H677 0.949 . S
H654 C658 0.949 1_455 S
C655 C656 1.349 1_655 S
C655 C657 1.327 . S
C655 H678 0.950 . S
C656 C655 1.349 1_455 S
C656 C668 1.349 . S
C657 C655 1.327 . S
C657 C673 1.429 . S
C657 H679 0.950 . S
C658 H654 0.949 1_655 S
C658 C666 1.574 . S
C658 C674 1.368 1_565 S
H659 C667 0.950 . S
H660 C665 0.950 . S
H661 C666 0.949 . S
H662 C668 0.950 . S
H663 C669 0.950 . S
H664 C670 0.949 . S
C665 H660 0.950 . S
C665 C667 1.327 . S
C665 C671 1.429 . S
C666 C658 1.574 . S
C666 H661 0.949 . S
C666 C672 1.368 . S
C667 C651 1.349 . S
C667 H659 0.950 . S
C667 C665 1.327 . S
C668 C656 1.349 . S
C668 H662 0.950 . S
C668 C669 1.327 . S
C669 H663 0.950 . S
C669 C668 1.327 . S
C669 C673 1.429 1_455 S
C670 C653 1.574 1_545 S
C670 H664 0.949 . S
C670 C674 1.368 . S
C671 C652 1.429 . S
C671 C665 1.429 . S
C671 C672 1.523 . S
C672 C653 1.368 . S
C672 C666 1.368 . S
C672 C671 1.523 . S
C673 C657 1.429 . S
C673 C669 1.429 1_655 S
C673 C674 1.523 . S
C674 C658 1.368 1_545 S
C674 C670 1.368 . S
C674 C673 1.523 . S
H675 C650 0.950 . S
H676 C652 0.950 . S
H677 C653 0.949 . S
H678 C655 0.950 . S
H679 C657 0.950 . S
C680 C681 1.349 . S
C680 C682 1.327 . S
C680 H705 0.950 . S
C681 C680 1.349 . S
C681 C697 1.349 . S
C682 C680 1.327 . S
C682 C701 1.429 . S
C682 H706 0.950 . S
C683 C700 1.574 . S
C683 C702 1.368 . S
C683 H707 0.949 . S
H684 C688 0.949 . S
C685 C686 1.349 . S
C685 C687 1.327 . S
C685 H708 0.950 . S
C686 C685 1.349 . S
C686 C698 1.349 . S
C687 C685 1.327 . S
C687 C703 1.429 . S
C687 H709 0.950 . S
C688 H684 0.949 . S
C688 C696 1.580 . S
C688 C704 1.368 . S
H689 C697 0.950 . S
H690 C695 0.950 1_554 S
H691 C696 0.944 1_556 S
H692 C698 0.950 . S
H693 C699 0.950 . S
H694 C700 0.949 . S
C695 H690 0.950 1_556 S
C695 C697 1.327 . S
C695 C701 1.429 . S
C696 C688 1.580 . S
C696 H691 0.944 1_554 S
C696 C702 1.369 . S
C697 C681 1.349 . S
C697 H689 0.950 . S
C697 C695 1.327 . S
C698 C686 1.349 . S
C698 H692 0.950 . S
C698 C699 1.327 . S
C699 H693 0.950 . S
C699 C698 1.327 . S
C699 C703 1.429 . S
C700 C683 1.574 . S
C700 H694 0.949 . S
C700 C704 1.368 . S
C701 C682 1.429 . S
C701 C695 1.429 . S
C701 C702 1.523 1_556 S
C702 C683 1.368 . S
C702 C696 1.369 . S
C702 C701 1.523 1_554 S
C703 C687 1.429 . S
C703 C699 1.429 . S
C703 C704 1.523 . S
C704 C688 1.368 . S
C704 C700 1.368 . S
C704 C703 1.523 . S
H705 C680 0.950 . S
H706 C682 0.950 . S
H707 C683 0.949 . S
H708 C685 0.950 . S
H709 C687 0.950 . S
C710 C711 1.349 . S
C710 C712 1.327 . S
C710 H735 0.950 . S
C711 C710 1.349 . S
C711 C727 1.349 . S
C712 C710 1.327 . S
C712 C731 1.429 . S
C712 H736 0.950 . S
C713 C730 1.574 . S
C713 C732 1.368 . S
C713 H737 0.949 . S
H714 C718 0.949 . S
C715 C716 1.349 . S
C715 C717 1.327 . S
C715 H738 0.950 . S
C716 C715 1.349 . S
C716 C728 1.349 . S
C717 C715 1.327 . S
C717 C733 1.429 . S
C717 H739 0.950 . S
C718 H714 0.949 . S
C718 C726 1.574 . S
C718 C734 1.368 . S
H719 C727 0.950 . S
H720 C725 0.950 . S
H721 C726 0.949 . S
H722 C728 0.950 . S
H723 C729 0.950 . S
H724 C730 0.949 . S
C725 H720 0.950 . S
C725 C727 1.327 . S
C725 C731 1.429 . S
C726 C718 1.574 . S
C726 H721 0.949 . S
C726 C732 1.368 . S
C727 C711 1.349 . S
C727 H719 0.950 . S
C727 C725 1.327 . S
C728 C716 1.349 . S
C728 H722 0.950 . S
C728 C729 1.327 . S
C729 H723 0.950 . S
C729 C728 1.327 . S
C729 C733 1.429 . S
C730 C713 1.574 . S
C730 H724 0.949 . S
C730 C734 1.368 . S
C731 C712 1.429 . S
C731 C725 1.429 . S
C731 C732 1.523 . S
C732 C713 1.368 . S
C732 C726 1.368 . S
C732 C731 1.523 . S
C733 C717 1.429 . S
C733 C729 1.429 . S
C733 C734 1.523 . S
C734 C718 1.368 . S
C734 C730 1.368 . S
C734 C733 1.523 . S
H735 C710 0.950 . S
H736 C712 0.950 . S
H737 C713 0.949 . S
H738 C715 0.950 . S
H739 C717 0.950 . S
C740 C741 1.349 . S
C740 C742 1.327 . S
C740 H765 0.950 . S
C741 C740 1.349 . S
C741 C757 1.349 . S
C742 C740 1.327 . S
C742 C761 1.429 . S
C742 H766 0.950 . S
C743 C760 1.574 . S
C743 C762 1.368 . S
C743 H767 0.949 . S
H744 C748 0.949 . S
C745 C746 1.349 . S
C745 C747 1.327 . S
C745 H768 0.950 . S
C746 C745 1.349 . S
C746 C758 1.349 . S
C747 C745 1.327 . S
C747 C763 1.429 . S
C747 H769 0.950 . S
C748 H744 0.949 . S
C748 C756 1.574 . S
C748 C764 1.368 . S
H749 C757 0.950 . S
H750 C755 0.950 . S
H751 C756 0.949 . S
H752 C758 0.950 . S
H753 C759 0.950 . S
H754 C760 0.949 . S
C755 H750 0.950 . S
C755 C757 1.327 . S
C755 C761 1.429 . S
C756 C748 1.574 . S
C756 H751 0.949 . S
C756 C762 1.368 . S
C757 C741 1.349 . S
C757 H749 0.950 . S
C757 C755 1.327 . S
C758 C746 1.349 . S
C758 H752 0.950 . S
C758 C759 1.327 . S
C759 H753 0.950 . S
C759 C758 1.327 . S
C759 C763 1.429 . S
C760 C743 1.574 . S
C760 H754 0.949 . S
C760 C764 1.368 . S
C761 C742 1.429 . S
C761 C755 1.429 . S
C761 C762 1.523 . S
C762 C743 1.368 . S
C762 C756 1.368 . S
C762 C761 1.523 . S
C763 C747 1.429 . S
C763 C759 1.429 . S
C763 C764 1.523 . S
C764 C748 1.368 . S
C764 C760 1.368 . S
C764 C763 1.523 . S
H765 C740 0.950 . S
H766 C742 0.950 . S
H767 C743 0.949 . S
H768 C745 0.950 . S
H769 C747 0.950 . S
C770 C771 1.349 . S
C770 C772 1.327 . S
C770 H795 0.950 . S
C771 C770 1.349 . S
C771 C787 1.349 . S
C772 C770 1.327 . S
C772 C791 1.429 . S
C772 H796 0.950 . S
C773 C790 1.574 . S
C773 C792 1.368 . S
C773 H797 0.949 . S
H774 C778 0.949 . S
C775 C776 1.349 . S
C775 C777 1.327 . S
C775 H798 0.950 . S
C776 C775 1.349 . S
C776 C788 1.349 . S
C777 C775 1.327 . S
C777 C793 1.429 . S
C777 H799 0.950 . S
C778 H774 0.949 . S
C778 C786 1.574 . S
C778 C794 1.368 . S
H779 C787 0.950 . S
H780 C785 0.950 . S
H781 C786 0.949 . S
H782 C788 0.950 . S
H783 C789 0.950 . S
H784 C790 0.949 . S
C785 H780 0.950 . S
C785 C787 1.327 . S
C785 C791 1.429 . S
C786 C778 1.574 . S
C786 H781 0.949 . S
C786 C792 1.368 . S
C787 C771 1.349 . S
C787 H779 0.950 . S
C787 C785 1.327 . S
C788 C776 1.349 . S
C788 H782 0.950 . S
C788 C789 1.327 . S
C789 H783 0.950 . S
C789 C788 1.327 . S
C789 C793 1.429 . S
C790 C773 1.574 . S
C790 H784 0.949 . S
C790 C794 1.368 . S
C791 C772 1.429 . S
C791 C785 1.429 . S
C791 C792 1.523 . S
C792 C773 1.368 . S
C792 C786 1.368 . S
C792 C791 1.523 . S
C793 C777 1.429 . S
C793 C789 1.429 . S
C793 C794 1.523 . S
C794 C778 1.368 . S
C794 C790 1.368 . S
C794 C793 1.523 . S
H795 C770 0.950 . S
H796 C772 0.950 . S
H797 C773 0.949 . S
H798 C775 0.950 . S
H799 C777 0.950 . S
C800 C801 1.349 . S
C800 C802 1.327 . S
C800 H825 0.950 . S
C801 C800 1.349 . S
C801 C817 1.349 . S
C802 C800 1.327 . S
C802 C821 1.429 . S
C802 H826 0.950 . S
C803 C820 1.574 . S
C803 C822 1.368 . S
C803 H827 0.949 . S
H804 C808 0.949 . S
C805 C806 1.349 . S
C805 C807 1.327 . S
C805 H828 0.950 . S
C806 C805 1.349 . S
C806 C818 1.349 . S
C807 C805 1.327 . S
C807 C823 1.429 . S
C807 H829 0.950 . S
C808 H804 0.949 . S
C808 C816 1.574 . S
C808 C824 1.368 . S
H809 C817 0.950 . S
H810 C815 0.950 . S
H811 C816 0.949 . S
H812 C818 0.950 . S
H813 C819 0.950 . S
H814 C820 0.949 . S
C815 H810 0.950 . S
C815 C817 1.327 . S
C815 C821 1.429 . S
C816 C808 1.574 . S
C816 H811 0.949 . S
C816 C822 1.368 . S
C817 C801 1.349 . S
C817 H809 0.950 . S
C817 C815 1.327 . S
C818 C806 1.349 . S
C818 H812 0.950 . S
C818 C819 1.327 . S
C819 H813 0.950 . S
C819 C818 1.327 . S
C819 C823 1.429 . S
C820 C803 1.574 . S
C820 H814 0.949 . S
C820 C824 1.368 . S
C821 C802 1.429 . S
C821 C815 1.429 . S
C821 C822 1.523 . S
C822 C803 1.368 . S
C822 C816 1.368 . S
C822 C821 1.523 . S
C823 C807 1.429 . S
C823 C819 1.429 . S
C823 C824 1.523 . S
C824 C808 1.368 . S
C824 C820 1.368 . S
C824 C823 1.523 . S
H825 C800 0.950 . S
H826 C802 0.950 . S
H827 C803 0.949 . S
H828 C805 0.950 . S
H829 C807 0.950 . S
C830 C831 1.349 1_455 S
C830 C832 1.327 . S
C830 H855 0.950 . S
C831 C830 1.349 1_655 S
C831 C847 1.349 . S
C832 C830 1.327 . S
C832 C851 1.429 1_455 S
C832 H856 0.950 . S
C833 C850 1.574 . S
C833 C852 1.368 . S
C833 H857 0.949 . S
H834 C838 0.949 . S
C835 C836 1.349 1_655 S
C835 C837 1.327 . S
C835 H858 0.950 . S
C836 C835 1.349 1_455 S
C836 C848 1.349 . S
C837 C835 1.327 . S
C837 C853 1.429 1_655 S
C837 H859 0.950 . S
C838 H834 0.949 . S
C838 C846 1.574 . S
C838 C854 1.368 . S
H839 C847 0.950 . S
H840 C845 0.950 . S
H841 C846 0.949 . S
H842 C848 0.950 . S
H843 C849 0.950 . S
H844 C850 0.949 . S
C845 H840 0.950 . S
C845 C847 1.327 . S
C845 C851 1.429 . S
C846 C838 1.574 . S
C846 H841 0.949 . S
C846 C852 1.368 1_455 S
C847 C831 1.349 . S
C847 H839 0.950 . S
C847 C845 1.327 . S
C848 C836 1.349 . S
C848 H842 0.950 . S
C848 C849 1.327 . S
C849 H843 0.950 . S
C849 C848 1.327 . S
C849 C853 1.429 . S
C850 C833 1.574 . S
C850 H844 0.949 . S
C850 C854 1.368 1_655 S
C851 C832 1.429 1_655 S
C851 C845 1.429 . S
C851 C852 1.523 . S
C852 C833 1.368 . S
C852 C846 1.368 1_655 S
C852 C851 1.523 . S
C853 C837 1.429 1_455 S
C853 C849 1.429 . S
C853 C854 1.523 . S
C854 C838 1.368 . S
C854 C850 1.368 1_455 S
C854 C853 1.523 . S
H855 C830 0.950 . S
H856 C832 0.950 . S
H857 C833 0.949 . S
H858 C835 0.950 . S
H859 C837 0.950 . S
C860 C861 1.349 . S
C860 C862 1.327 . S
C860 H885 0.950 . S
C861 C860 1.349 . S
C861 C877 1.349 . S
C862 C860 1.327 . S
C862 C881 1.429 . S
C862 H886 0.950 . S
C863 C880 1.574 . S
C863 C882 1.368 . S
C863 H887 0.949 . S
H864 C868 0.949 . S
C865 C866 1.349 . S
C865 C867 1.327 . S
C865 H888 0.950 . S
C866 C865 1.349 . S
C866 C878 1.349 . S
C867 C865 1.327 . S
C867 C883 1.429 . S
C867 H889 0.950 . S
C868 H864 0.949 . S
C868 C876 1.574 . S
C868 C884 1.368 . S
H869 C877 0.950 . S
H870 C875 0.950 . S
H871 C876 0.949 . S
H872 C878 0.950 . S
H873 C879 0.950 . S
H874 C880 0.949 . S
C875 H870 0.950 . S
C875 C877 1.327 . S
C875 C881 1.429 . S
C876 C868 1.574 . S
C876 H871 0.949 . S
C876 C882 1.368 . S
C877 C861 1.349 . S
C877 H869 0.950 . S
C877 C875 1.327 . S
C878 C866 1.349 . S
C878 H872 0.950 . S
C878 C879 1.327 . S
C879 H873 0.950 . S
C879 C878 1.327 . S
C879 C883 1.429 . S
C880 C863 1.574 . S
C880 H874 0.949 . S
C880 C884 1.368 . S
C881 C862 1.429 . S
C881 C875 1.429 . S
C881 C882 1.523 . S
C882 C863 1.368 . S
C882 C876 1.368 . S
C882 C881 1.523 . S
C883 C867 1.429 . S
C883 C879 1.429 . S
C883 C884 1.523 . S
C884 C868 1.368 . S
C884 C880 1.368 . S
C884 C883 1.523 . S
H885 C860 0.950 . S
H886 C862 0.950 . S
H887 C863 0.949 . S
H888 C865 0.950 . S
H889 C867 0.950 . S
C890 C891 1.349 . S
C890 C892 1.327 . S
C890 H915 0.950 . S
C891 C890 1.349 . S
C891 C907 1.349 . S
C892 C890 1.327 . S
C892 C911 1.429 . S
C892 H916 0.950 . S
C893 C910 1.574 . S
C893 C912 1.368 . S
C893 H917 0.949 . S
H894 C898 0.949 . S
C895 C896 1.349 . S
C895 C897 1.327 . S
C895 H918 0.950 . S
C896 C895 1.349 . S
C896 C908 1.349 . S
C897 C895 1.327 . S
C897 C913 1.429 . S
C897 H919 0.950 . S
C898 H894 0.949 . S
C898 C906 1.574 . S
C898 C914 1.368 . S
H899 C907 0.950 . S
H900 C905 0.950 . S
H901 C906 0.949 . S
H902 C908 0.950 . S
H903 C909 0.950 . S
H904 C910 0.949 . S
C905 H900 0.950 . S
C905 C907 1.327 . S
C905 C911 1.429 . S
C906 C898 1.574 . S
C906 H901 0.949 . S
C906 C912 1.368 . S
C907 C891 1.349 . S
C907 H899 0.950 . S
C907 C905 1.327 . S
C908 C896 1.349 . S
C908 H902 0.950 . S
C908 C909 1.327 . S
C909 H903 0.950 . S
C909 C908 1.327 . S
C909 C913 1.429 . S
C910 C893 1.574 . S
C910 H904 0.949 . S
C910 C914 1.368 . S
C911 C892 1.429 . S
C911 C905 1.429 . S
C911 C912 1.523 . S
C912 C893 1.368 . S
C912 C906 1.368 . S
C912 C911 1.523 . S
C913 C897 1.429 . S
C913 C909 1.429 . S
C913 C914 1.523 . S
C914 C898 1.368 . S
C914 C910 1.368 . S
C914 C913 1.523 . S
H915 C890 0.950 . S
H916 C892 0.950 . S
H917 C893 0.949 . S
H918 C895 0.950 . S
H919 C897 0.950 . S
C920 C921 1.349 . S
C920 C922 1.327 . S
C920 H945 0.950 . S
C921 C920 1.349 . S
C921 C937 1.349 . S
C922 C920 1.327 . S
C922 C941 1.429 . S
C922 H946 0.950 . S
C923 C940 1.574 . S
C923 C942 1.368 . S
C923 H947 0.949 . S
H924 C928 0.949 . S
C925 C926 1.349 . S
C925 C927 1.327 . S
C925 H948 0.950 . S
C926 C925 1.349 . S
C926 C938 1.349 . S
C927 C925 1.327 . S
C927 C943 1.429 . S
C927 H949 0.950 . S
C928 H924 0.949 . S
C928 C936 1.574 . S
C928 C944 1.368 . S
H929 C937 0.950 . S
H930 C935 0.950 . S
H931 C936 0.949 . S
H932 C938 0.950 . S
H933 C939 0.950 . S
H934 C940 0.949 . S
C935 H930 0.950 . S
C935 C937 1.327 . S
C935 C941 1.429 . S
C936 C928 1.574 . S
C936 H931 0.949 . S
C936 C942 1.368 . S
C937 C921 1.349 . S
C937 H929 0.950 . S
C937 C935 1.327 . S
C938 C926 1.349 . S
C938 H932 0.950 . S
C938 C939 1.327 . S
C939 H933 0.950 . S
C939 C938 1.327 . S
C939 C943 1.429 . S
C940 C923 1.574 . S
C940 H934 0.949 . S
C940 C944 1.368 . S
C941 C922 1.429 . S
C941 C935 1.429 . S
C941 C942 1.523 . S
C942 C923 1.368 . S
C942 C936 1.368 . S
C942 C941 1.523 . S
C943 C927 1.429 . S
C943 C939 1.429 . S
C943 C944 1.523 . S
C944 C928 1.368 . S
C944 C940 1.368 . S
C944 C943 1.523 . S
H945 C920 0.950 . S
H946 C922 0.950 . S
H947 C923 0.949 . S
H948 C925 0.950 . S
H949 C927 0.950 . S
C950 C951 1.349 . S
C950 C952 1.327 . S
C950 H975 0.950 . S
C951 C950 1.349 . S
C951 C967 1.349 1_655 S
C952 C950 1.327 . S
C952 C971 1.429 1_655 S
C952 H976 0.950 . S
C953 C970 1.574 1_565 S
C953 C972 1.368 . S
C953 H977 0.949 . S
H954 C958 0.949 . S
C955 C956 1.349 . S
C955 C957 1.327 . S
C955 H978 0.950 . S
C956 C955 1.349 . S
C956 C968 1.349 . S
C957 C955 1.327 . S
C957 C973 1.429 . S
C957 H979 0.950 . S
C958 H954 0.949 . S
C958 C966 1.574 . S
C958 C974 1.368 1_665 S
H959 C967 0.950 . S
H960 C965 0.950 . S
H961 C966 0.949 . S
H962 C968 0.950 1_655 S
H963 C969 0.950 1_655 S
H964 C970 0.949 . S
C965 H960 0.950 . S
C965 C967 1.327 . S
C965 C971 1.429 . S
C966 C958 1.574 . S
C966 H961 0.949 . S
C966 C972 1.368 1_655 S
C967 C951 1.349 1_455 S
C967 H959 0.950 . S
C967 C965 1.327 . S
C968 C956 1.349 . S
C968 H962 0.950 1_455 S
C968 C969 1.328 . S
C969 H963 0.950 1_455 S
C969 C968 1.328 . S
C969 C973 1.429 . S
C970 C953 1.574 1_545 S
C970 H964 0.949 . S
C970 C974 1.368 . S
C971 C952 1.429 1_455 S
C971 C965 1.429 . S
C971 C972 1.523 . S
C972 C953 1.368 . S
C972 C966 1.368 1_455 S
C972 C971 1.523 . S
C973 C957 1.429 . S
C973 C969 1.429 . S
C973 C974 1.523 . S
C974 C958 1.368 1_445 S
C974 C970 1.368 . S
C974 C973 1.523 . S
H975 C950 0.950 . S
H976 C952 0.950 . S
H977 C953 0.949 . S
H978 C955 0.950 . S
H979 C957 0.950 . S
C980 C981 1.349 . S
C980 C982 1.327 . S
C980 H1005 0.950 . S
C981 C980 1.349 . S
C981 C997 1.349 . S
C982 C980 1.327 . S
C982 C1001 1.429 . S
C982 H1006 0.950 . S
C983 C1000 1.574 . S
C983 C1002 1.368 . S
C983 H1007 0.949 . S
H984 C988 0.949 . S
C985 C986 1.349 . S
C985 C987 1.327 . S
C985 H1008 0.950 . S
C986 C985 1.349 . S
C986 C998 1.349 . S
C987 C985 1.327 . S
C987 C1003 1.429 . S
C987 H1009 0.950 . S
C988 H984 0.949 . S
C988 C996 1.574 . S
C988 C1004 1.368 . S
H989 C997 0.950 . S
H990 C995 0.950 . S
H991 C996 0.949 . S
H992 C998 0.950 . S
H993 C999 0.950 . S
H994 C1000 0.949 . S
C995 H990 0.950 . S
C995 C997 1.327 . S
C995 C1001 1.429 . S
C996 C988 1.574 . S
C996 H991 0.949 . S
C996 C1002 1.368 . S
C997 C981 1.349 . S
C997 H989 0.950 . S
C997 C995 1.327 . S
C998 C986 1.349 . S
C998 H992 0.950 . S
C998 C999 1.327 . S
C999 H993 0.950 . S
C999 C998 1.327 . S
C999 C1003 1.429 . S
C1000 C983 1.574 . S
C1000 H994 0.949 . S
C1000 C1004 1.368 . S
C1001 C982 1.429 . S
C1001 C995 1.429 . S
C1001 C1002 1.523 . S
C1002 C983 1.368 . S
C1002 C996 1.368 . S
C1002 C1001 1.523 . S
C1003 C987 1.429 . S
C1003 C999 1.429 . S
C1003 C1004 1.523 . S
C1004 C988 1.368 . S
C1004 C1000 1.368 . S
C1004 C1003 1.523 . S
H1005 C980 0.950 . S
H1006 C982 0.950 . S
H1007 C983 0.949 . S
H1008 C985 0.950 . S
H1009 C987 0.950 . S
C1010 C1011 1.349 . S
C1010 C1012 1.327 . S
C1010 H1035 0.950 . S
C1011 C1010 1.349 . S
C1011 C1027 1.349 . S
C1012 C1010 1.327 . S
C1012 C1031 1.429 . S
C1012 H1036 0.950 . S
C1013 C1030 1.574 . S
C1013 C1032 1.368 . S
C1013 H1037 0.949 . S
H1014 C1018 0.949 . S
C1015 C1016 1.349 . S
C1015 C1017 1.327 . S
C1015 H1038 0.950 . S
C1016 C1015 1.349 . S
C1016 C1028 1.349 . S
C1017 C1015 1.327 . S
C1017 C1033 1.429 . S
C1017 H1039 0.950 . S
C1018 H1014 0.949 . S
C1018 C1026 1.574 . S
C1018 C1034 1.368 . S
H1019 C1027 0.950 . S
H1020 C1025 0.950 . S
H1021 C1026 0.949 . S
H1022 C1028 0.950 . S
H1023 C1029 0.950 . S
H1024 C1030 0.949 . S
C1025 H1020 0.950 . S
C1025 C1027 1.327 . S
C1025 C1031 1.429 . S
C1026 C1018 1.574 . S
C1026 H1021 0.949 . S
C1026 C1032 1.368 . S
C1027 C1011 1.349 . S
C1027 H1019 0.950 . S
C1027 C1025 1.327 . S
C1028 C1016 1.349 . S
C1028 H1022 0.950 . S
C1028 C1029 1.327 . S
C1029 H1023 0.950 . S
C1029 C1028 1.327 . S
C1029 C1033 1.429 . S
C1030 C1013 1.574 . S
C1030 H1024 0.949 . S
C1030 C1034 1.368 . S
C1031 C1012 1.429 . S
C1031 C1025 1.429 . S
C1031 C1032 1.523 . S
C1032 C1013 1.368 . S
C1032 C1026 1.368 . S
C1032 C1031 1.523 . S
C1033 C1017 1.429 . S
C1033 C1029 1.429 . S
C1033 C1034 1.523 . S
C1034 C1018 1.368 . S
C1034 C1030 1.368 . S
C1034 C1033 1.523 . S
H1035 C1010 0.950 . S
H1036 C1012 0.950 . S
H1037 C1013 0.949 . S
H1038 C1015 0.950 . S
H1039 C1017 0.950 . S
C1040 C1041 1.349 . S
C1040 C1042 1.327 . S
C1040 H1065 0.950 . S
C1041 C1040 1.349 . S
C1041 C1057 1.349 . S
C1042 C1040 1.327 . S
C1042 C1061 1.429 . S
C1042 H1066 0.950 . S
C1043 C1060 1.574 . S
C1043 C1062 1.368 . S
C1043 H1067 0.949 . S
H1044 C1048 0.949 . S
C1045 C1046 1.349 . S
C1045 C1047 1.327 . S
C1045 H1068 0.950 . S
C1046 C1045 1.349 . S
C1046 C1058 1.349 . S
C1047 C1045 1.327 . S
C1047 C1063 1.429 . S
C1047 H1069 0.950 . S
C1048 H1044 0.949 . S
C1048 C1056 1.574 . S
C1048 C1064 1.368 . S
H1049 C1057 0.950 . S
H1050 C1055 0.950 . S
H1051 C1056 0.949 . S
H1052 C1058 0.950 . S
H1053 C1059 0.950 . S
H1054 C1060 0.949 . S
C1055 H1050 0.950 . S
C1055 C1057 1.327 . S
C1055 C1061 1.429 . S
C1056 C1048 1.574 . S
C1056 H1051 0.949 . S
C1056 C1062 1.368 . S
C1057 C1041 1.349 . S
C1057 H1049 0.950 . S
C1057 C1055 1.327 . S
C1058 C1046 1.349 . S
C1058 H1052 0.950 . S
C1058 C1059 1.327 . S
C1059 H1053 0.950 . S
C1059 C1058 1.327 . S
C1059 C1063 1.429 . S
C1060 C1043 1.574 . S
C1060 H1054 0.949 . S
C1060 C1064 1.368 . S
C1061 C1042 1.429 . S
C1061 C1055 1.429 . S
C1061 C1062 1.523 . S
C1062 C1043 1.368 . S
C1062 C1056 1.368 . S
C1062 C1061 1.523 . S
C1063 C1047 1.429 . S
C1063 C1059 1.429 . S
C1063 C1064 1.523 . S
C1064 C1048 1.368 . S
C1064 C1060 1.368 . S
C1064 C1063 1.523 . S
H1065 C1040 0.950 . S
H1066 C1042 0.950 . S
H1067 C1043 0.949 . S
H1068 C1045 0.950 . S
H1069 C1047 0.950 . S
C1070 C1071 1.349 . S
C1070 C1072 1.327 . S
C1070 H1095 0.950 . S
C1071 C1070 1.349 . S
C1071 C1087 1.349 . S
C1072 C1070 1.327 . S
C1072 C1091 1.429 . S
C1072 H1096 0.950 . S
C1073 C1090 1.574 . S
C1073 C1092 1.368 . S
C1073 H1097 0.949 . S
H1074 C1078 0.949 . S
C1075 C1076 1.349 . S
C1075 C1077 1.327 . S
C1075 H1098 0.950 . S
C1076 C1075 1.349 . S
C1076 C1088 1.349 . S
C1077 C1075 1.327 . S
C1077 C1093 1.429 . S
C1077 H1099 0.950 . S
C1078 H1074 0.949 . S
C1078 C1086 1.574 . S
C1078 C1094 1.368 . S
H1079 C1087 0.950 . S
H1080 C1085 0.950 . S
H1081 C1086 0.949 . S
H1082 C1088 0.950 . S
H1083 C1089 0.950 . S
H1084 C1090 0.949 . S
C1085 H1080 0.950 . S
C1085 C1087 1.327 . S
C1085 C1091 1.429 . S
C1086 C1078 1.574 . S
C1086 H1081 0.949 . S
C1086 C1092 1.368 . S
C1087 C1071 1.349 . S
C1087 H1079 0.950 . S
C1087 C1085 1.327 . S
C1088 C1076 1.349 . S
C1088 H1082 0.950 . S
C1088 C1089 1.327 . S
C1089 H1083 0.950 . S
C1089 C1088 1.327 . S
C1089 C1093 1.429 . S
C1090 C1073 1.574 . S
C1090 H1084 0.949 . S
C1090 C1094 1.368 . S
C1091 C1072 1.429 . S
C1091 C1085 1.429 . S
C1091 C1092 1.523 . S
C1092 C1073 1.368 . S
C1092 C1086 1.368 . S
C1092 C1091 1.523 . S
C1093 C1077 1.429 . S
C1093 C1089 1.429 . S
C1093 C1094 1.523 . S
C1094 C1078 1.368 . S
C1094 C1090 1.368 . S
C1094 C1093 1.523 . S
H1095 C1070 0.950 . S
H1096 C1072 0.950 . S
H1097 C1073 0.949 . S
H1098 C1075 0.950 . S
H1099 C1077 0.950 . S
C1100 C1101 1.349 . S
C1100 C1102 1.327 . S
C1100 H1125 0.950 . S
C1101 C1100 1.349 . S
C1101 C1117 1.349 . S
C1102 C1100 1.327 . S
C1102 C1121 1.429 . S
C1102 H1126 0.950 . S
C1103 C1120 1.574 . S
C1103 C1122 1.368 . S
C1103 H1127 0.949 . S
H1104 C1108 0.949 . S
C1105 C1106 1.349 . S
C1105 C1107 1.327 . S
C1105 H1128 0.950 . S
C1106 C1105 1.349 . S
C1106 C1118 1.349 . S
C1107 C1105 1.327 . S
C1107 C1123 1.429 . S
C1107 H1129 0.950 . S
C1108 H1104 0.949 . S
C1108 C1116 1.574 . S
C1108 C1124 1.368 . S
H1109 C1117 0.950 . S
H1110 C1115 0.950 . S
H1111 C1116 0.949 . S
H1112 C1118 0.950 . S
H1113 C1119 0.950 . S
H1114 C1120 0.949 . S
C1115 H1110 0.950 . S
C1115 C1117 1.327 . S
C1115 C1121 1.429 . S
C1116 C1108 1.574 . S
C1116 H1111 0.949 . S
C1116 C1122 1.368 . S
C1117 C1101 1.349 . S
C1117 H1109 0.950 . S
C1117 C1115 1.327 . S
C1118 C1106 1.349 . S
C1118 H1112 0.950 . S
C1118 C1119 1.327 . S
C1119 H1113 0.950 . S
C1119 C1118 1.327 . S
C1119 C1123 1.429 . S
C1120 C1103 1.574 . S
C1120 H1114 0.949 . S
C1120 C1124 1.368 . S
C1121 C1102 1.429 . S
C1121 C1115 1.429 . S
C1121 C1122 1.523 . S
C1122 C1103 1.368 . S
C1122 C1116 1.368 . S
C1122 C1121 1.523 . S
C1123 C1107 1.429 . S
C1123 C1119 1.429 . S
C1123 C1124 1.523 . S
C1124 C1108 1.368 . S
C1124 C1120 1.368 . S
C1124 C1123 1.523 . S
H1125 C1100 0.950 . S
H1126 C1102 0.950 . S
H1127 C1103 0.949 . S
H1128 C1105 0.950 . S
H1129 C1107 0.950 . S
C1130 C1131 1.349 . S
C1130 C1132 1.327 . S
C1130 H1155 0.950 . S
C1131 C1130 1.349 . S
C1131 C1147 1.349 . S
C1132 C1130 1.327 . S
C1132 C1151 1.429 . S
C1132 H1156 0.950 . S
C1133 C1150 1.574 . S
C1133 C1152 1.368 . S
C1133 H1157 0.949 . S
H1134 C1138 0.949 . S
C1135 C1136 1.349 . S
C1135 C1137 1.327 . S
C1135 H1158 0.950 . S
C1136 C1135 1.349 . S
C1136 C1148 1.349 . S
C1137 C1135 1.327 . S
C1137 C1153 1.429 . S
C1137 H1159 0.950 . S
C1138 H1134 0.949 . S
C1138 C1146 1.574 . S
C1138 C1154 1.368 . S
H1139 C1147 0.950 . S
H1140 C1145 0.950 . S
H1141 C1146 0.949 . S
H1142 C1148 0.950 . S
H1143 C1149 0.950 . S
H1144 C1150 0.949 . S
C1145 H1140 0.950 . S
C1145 C1147 1.327 . S
C1145 C1151 1.429 . S
C1146 C1138 1.574 . S
C1146 H1141 0.949 . S
C1146 C1152 1.368 . S
C1147 C1131 1.349 . S
C1147 H1139 0.950 . S
C1147 C1145 1.327 . S
C1148 C1136 1.349 . S
C1148 H1142 0.950 . S
C1148 C1149 1.327 . S
C1149 H1143 0.950 . S
C1149 C1148 1.327 . S
C1149 C1153 1.429 . S
C1150 C1133 1.574 . S
C1150 H1144 0.949 . S
C1150 C1154 1.368 . S
C1151 C1132 1.429 . S
C1151 C1145 1.429 . S
C1151 C1152 1.523 . S
C1152 C1133 1.368 . S
C1152 C1146 1.368 . S
C1152 C1151 1.523 . S
C1153 C1137 1.429 . S
C1153 C1149 1.429 . S
C1153 C1154 1.523 . S
C1154 C1138 1.368 . S
C1154 C1150 1.368 . S
C1154 C1153 1.523 . S
H1155 C1130 0.950 . S
H1156 C1132 0.950 . S
H1157 C1133 0.949 . S
H1158 C1135 0.950 . S
H1159 C1137 0.950 . S
C1160 C1161 1.349 . S
C1160 C1162 1.327 . S
C1160 H1185 0.950 . S
C1161 C1160 1.349 . S
C1161 C1177 1.349 . S
C1162 C1160 1.327 . S
C1162 C1181 1.429 . S
C1162 H1186 0.950 . S
C1163 C1180 1.574 . S
C1163 C1182 1.368 . S
C1163 H1187 0.949 . S
H1164 C1168 0.949 . S
C1165 C1166 1.349 . S
C1165 C1167 1.327 . S
C1165 H1188 0.950 . S
C1166 C1165 1.349 . S
C1166 C1178 1.349 . S
C1167 C1165 1.327 . S
C1167 C1183 1.429 . S
C1167 H1189 0.950 . S
C1168 H1164 0.949 . S
C1168 C1176 1.574 . S
C1168 C1184 1.368 . S
H1169 C1177 0.950 . S
H1170 C1175 0.950 . S
H1171 C1176 0.949 . S
H1172 C1178 0.950 . S
H1173 C1179 0.950 . S
H1174 C1180 0.949 . S
C1175 H1170 0.950 . S
C1175 C1177 1.327 . S
C1175 C1181 1.429 . S
C1176 C1168 1.574 . S
C1176 H1171 0.949 . S
C1176 C1182 1.368 . S
C1177 C1161 1.349 . S
C1177 H1169 0.950 . S
C1177 C1175 1.327 . S
C1178 C1166 1.349 . S
C1178 H1172 0.950 . S
C1178 C1179 1.327 . S
C1179 H1173 0.950 . S
C1179 C1178 1.327 . S
C1179 C1183 1.429 . S
C1180 C1163 1.574 . S
C1180 H1174 0.949 . S
C1180 C1184 1.368 . S
C1181 C1162 1.429 . S
C1181 C1175 1.429 . S
C1181 C1182 1.523 . S
C1182 C1163 1.368 . S
C1182 C1176 1.368 . S
C1182 C1181 1.523 . S
C1183 C1167 1.429 . S
C1183 C1179 1.429 . S
C1183 C1184 1.523 . S
C1184 C1168 1.368 . S
C1184 C1180 1.368 . S
C1184 C1183 1.523 . S
H1185 C1160 0.950 . S
H1186 C1162 0.950 . S
H1187 C1163 0.949 . S
H1188 C1165 0.950 . S
H1189 C1167 0.950 . S
C476 C174 1.497 . S
C471 C11 1.350 . S
C506 C243 1.679 . S
C501 C25 1.644 . S
C536 C181 1.168 . S
C531 C40 1.134 . S
C566 C244 1.391 1_655 S
C561 C59 1.355 . S
C596 C297 1.911 . S
C591 C6 1.895 . S
C626 C333 1.808 . S
C621 C21 1.745 . S
C651 C49 1.572 . S
C656 C393 1.652 . S
C686 C456 1.519 . S
C681 C68 1.417 . S
C716 C296 1.878 . S
C711 C30 1.671 . S
C741 C44 1.685 . S
C746 C340 1.693 . S
C776 C386 1.769 . S
C771 C63 1.774 . S
C806 C455 1.695 . S
C801 C2 1.671 . S
C831 C78 1.724 . S
C836 C234 1.765 . S
C866 C191 1.537 . S
C861 C97 1.468 . S
C891 C120 1.716 . S
C896 C227 1.725 . S
C921 C139 1.724 . S
C926 C190 1.732 . S
C956 C402 1.561 . S
C951 C87 1.441 . S
C986 C446 1.632 . S
C981 C101 1.602 . S
C1016 C280 1.632 . S
C1011 C125 1.495 . S
C1041 C144 1.700 . S
C1046 C349 1.795 . S
C1076 C403 1.756 . S
C1071 C106 1.530 . S
C1106 C439 1.642 1_556 S
C1101 C116 1.612 . S
C1136 C287 1.630 . S
C1131 C135 1.595 . S
C1161 C82 1.785 . S
C1166 C350 1.774 . S
