# Generated by pormake.
# Topology zzz, (3,6)-cn, num edge types: 1
# Building blocks:
#     Node 0, Type 0, BuildingBlock: QEWDON_clean_linker_0, # of connection points: 3
#     Node 1, Type 0, BuildingBlock: QEWDON_clean_linker_0, # of connection points: 3
#     Node 2, Type 0, BuildingBlock: QEWDON_clean_linker_0, # of connection points: 3
#     Node 3, Type 0, BuildingBlock: QEWDON_clean_linker_0, # of connection points: 3
#     Node 4, Type 0, BuildingBlock: QEWDON_clean_linker_0, # of connection points: 3
#     Node 5, Type 0, BuildingBlock: QEWDON_clean_linker_0, # of connection points: 3
#     Node 6, Type 0, BuildingBlock: QEWDON_clean_linker_0, # of connection points: 3
#     Node 7, Type 0, BuildingBlock: QEWDON_clean_linker_0, # of connection points: 3
#     Node 8, Type 1, BuildingBlock: BETGAK_clean_sbu_0, # of connection points: 6
#     Node 9, Type 1, BuildingBlock: BETGAK_clean_sbu_0, # of connection points: 6
#     Node 10, Type 1, BuildingBlock: BETGAK_clean_sbu_0, # of connection points: 6
#     Node 11, Type 1, BuildingBlock: BETGAK_clean_sbu_0, # of connection points: 6
#     Edge 12, Type (0, 1), BuildingBlock: UVAHIK_clean_linker_0, # of connection points: 2
#     Edge 13, Type (0, 1), BuildingBlock: UVAHIK_clean_linker_0, # of connection points: 2
#     Edge 14, Type (0, 1), BuildingBlock: UVAHIK_clean_linker_0, # of connection points: 2
#     Edge 15, Type (0, 1), BuildingBlock: UVAHIK_clean_linker_0, # of connection points: 2
#     Edge 16, Type (0, 1), BuildingBlock: UVAHIK_clean_linker_0, # of connection points: 2
#     Edge 17, Type (0, 1), BuildingBlock: UVAHIK_clean_linker_0, # of connection points: 2
#     Edge 18, Type (0, 1), BuildingBlock: UVAHIK_clean_linker_0, # of connection points: 2
#     Edge 19, Type (0, 1), BuildingBlock: UVAHIK_clean_linker_0, # of connection points: 2
#     Edge 20, Type (0, 1), BuildingBlock: UVAHIK_clean_linker_0, # of connection points: 2
#     Edge 21, Type (0, 1), BuildingBlock: UVAHIK_clean_linker_0, # of connection points: 2
#     Edge 22, Type (0, 1), BuildingBlock: UVAHIK_clean_linker_0, # of connection points: 2
#     Edge 23, Type (0, 1), BuildingBlock: UVAHIK_clean_linker_0, # of connection points: 2
#     Edge 24, Type (0, 1), BuildingBlock: UVAHIK_clean_linker_0, # of connection points: 2
#     Edge 25, Type (0, 1), BuildingBlock: UVAHIK_clean_linker_0, # of connection points: 2
#     Edge 26, Type (0, 1), BuildingBlock: UVAHIK_clean_linker_0, # of connection points: 2
#     Edge 27, Type (0, 1), BuildingBlock: UVAHIK_clean_linker_0, # of connection points: 2
#     Edge 28, Type (0, 1), BuildingBlock: UVAHIK_clean_linker_0, # of connection points: 2
#     Edge 29, Type (0, 1), BuildingBlock: UVAHIK_clean_linker_0, # of connection points: 2
#     Edge 30, Type (0, 1), BuildingBlock: UVAHIK_clean_linker_0, # of connection points: 2
#     Edge 31, Type (0, 1), BuildingBlock: UVAHIK_clean_linker_0, # of connection points: 2
#     Edge 32, Type (0, 1), BuildingBlock: UVAHIK_clean_linker_0, # of connection points: 2
#     Edge 33, Type (0, 1), BuildingBlock: UVAHIK_clean_linker_0, # of connection points: 2
#     Edge 34, Type (0, 1), BuildingBlock: UVAHIK_clean_linker_0, # of connection points: 2
#     Edge 35, Type (0, 1), BuildingBlock: UVAHIK_clean_linker_0, # of connection points: 2
# Relax obj value: 0.144
# Max RMSD: 0.164
# Mean RMSD: 0.120
data_MOF--net-zzz--node1-BETGAK_clean_sbu_0--node2-QEWDON_clean_linker_0--edge1-UVAHIK_clean_linker_0
_symmetry_space_group_name_H-M    P1
_symmetry_Int_Tables_number       1
_symmetry_cell_setting            triclinic
loop_
_symmetry_equiv_pos_as_xyz
'x, y, z'
_cell_length_a     72.386431
_cell_length_b     72.366992
_cell_length_c     16.341377
_cell_angle_alpha  89.92797
_cell_angle_beta   89.942175
_cell_angle_gamma 90.011004
loop_
_atom_site_label
_atom_site_type_symbol
_atom_site_fract_x
_atom_site_fract_y
_atom_site_fract_z
_atom_type_partial_charge
H0 H 0.75381 0.50935 0.13161 0.0
C1 C 0.76408 0.51112 0.17889 0.0
C2 C 0.7813 0.50271 0.16731 0.0
C3 C 0.76041 0.52187 0.2494 0.0
H4 H 0.80909 0.50009 0.21212 0.0
C5 C 0.79551 0.5059 0.22342 0.0
C6 C 0.79283 0.51709 0.29187 0.0
C7 C 0.7751 0.52445 0.30666 0.0
C8 C 0.74171 0.53095 0.2605 0.0
H9 H 0.77314 0.53246 0.36173 0.0
C10 C 0.72566 0.52465 0.21836 0.0
C11 C 0.70849 0.53377 0.22666 0.0
C12 C 0.73979 0.54657 0.31145 0.0
H13 H 0.75146 0.55262 0.34257 0.0
C14 C 0.72271 0.55519 0.32179 0.0
H15 H 0.72618 0.51259 0.17951 0.0
C16 C 0.7072 0.54889 0.27993 0.0
H17 H 0.69427 0.55624 0.28727 0.0
H18 H 0.72159 0.56714 0.36128 0.0
H19 H 0.02117 0.75852 0.13206 0.0
C20 C 0.02089 0.768 0.18325 0.0
C21 C 0.03224 0.78362 0.18005 0.0
C22 C 1.00856 0.76526 0.24903 0.0
H23 H 0.0393 0.80949 0.23546 0.0
C24 C 0.03118 0.79695 0.2417 0.0
C25 C 0.01855 0.79527 0.30626 0.0
C26 C 1.00747 0.7792 0.31047 0.0
C27 C 0.99583 0.74879 0.24849 0.0
H28 H 0.998 0.77774 0.36135 0.0
C29 C 1.00072 0.73197 0.20875 0.0
C30 C 0.98778 0.71746 0.2003 0.0
C31 C 0.97801 0.75021 0.28264 0.0
H32 H 0.97334 0.76281 0.31151 0.0
C33 C 0.9655 0.73561 0.27723 0.0
H34 H 0.01432 0.73026 0.18228 0.0
C35 C 0.97024 0.71946 0.2359 0.0
H36 H 0.96009 0.70851 0.23128 0.0
H37 H 0.95185 0.73699 0.30363 0.0
H38 H 0.77143 0.01654 0.13168 0.0
C39 C 0.76109 0.01791 0.17904 0.0
C40 C 0.74372 0.02471 0.15677 0.0
C41 C 0.76496 1.0126 0.26033 0.0
H42 H 0.71596 0.03014 0.19744 0.0
C43 C 0.72966 0.02568 0.21564 0.0
C44 C 0.7326 0.01993 0.29641 0.0
C45 C 0.75034 0.01353 0.31887 0.0
C46 C 0.78399 1.0055 0.28164 0.0
H47 H 0.75263 1.0096 0.38192 0.0
C48 C 0.79981 1.01036 0.23438 0.0
C49 C 0.81736 1.00264 0.25069 0.0
C50 C 0.78647 0.9931 0.34725 0.0
H51 H 0.77493 0.98844 0.38391 0.0
C52 C 0.80391 0.98595 0.36539 0.0
H53 H 0.79874 0.02026 0.18501 0.0
C54 C 0.8192 0.99058 0.31756 0.0
H55 H 0.83239 0.98429 0.33161 0.0
H56 H 0.8055 0.97639 0.4159 0.0
H57 H 0.51314 0.77496 0.1187 0.0
C58 C 0.5126 0.76486 0.16749 0.0
C59 C 0.5067 0.747 0.14819 0.0
C60 C 0.51848 0.7693 0.24752 0.0
H61 H 0.50236 0.71933 0.19189 0.0
C62 C 0.50671 0.73321 0.20804 0.0
C63 C 0.51268 0.73687 0.28761 0.0
C64 C 0.51846 0.75495 0.30754 0.0
C65 C 0.52522 0.78857 0.26651 0.0
H66 H 0.52263 0.75767 0.36989 0.0
C67 C 0.51959 0.80416 0.21947 0.0
C68 C 0.52668 0.822 0.23533 0.0
C69 C 0.53798 0.79153 0.33028 0.0
H70 H 0.54332 0.78019 0.3663 0.0
C71 C 0.54458 0.80921 0.34755 0.0
H72 H 0.50954 0.80268 0.17097 0.0
C73 C 0.53903 0.82431 0.30064 0.0
H74 H 0.54484 0.83776 0.31412 0.0
H75 H 0.5544 0.81116 0.39674 0.0
H76 H 0.27453 0.51376 0.22871 0.0
C77 C 0.26404 0.51164 0.18249 0.0
C78 C 0.24646 0.50601 0.2078 0.0
C79 C 0.2679 0.51524 0.09947 0.0
H80 H 0.21855 0.50047 0.16996 0.0
C81 C 0.23237 0.50406 0.14973 0.0
C82 C 0.23539 0.50804 0.06688 0.0
C83 C 0.25325 0.5136 0.04171 0.0
C84 C 0.28688 0.52192 0.07609 0.0
H85 H 0.25563 0.51648 0.97756 0.0
C86 C 0.30276 0.51669 0.12176 0.0
C87 C 0.32025 0.52477 0.10678 0.0
C88 C 0.28913 0.53472 0.01206 0.0
H89 H 0.27744 0.53946 0.97657 0.0
C90 C 0.30644 0.54228 0.995 0.0
H91 H 0.30156 0.50634 0.16927 0.0
C92 C 0.32179 0.53757 0.04224 0.0
H93 H 0.33476 0.54442 0.02929 0.0
H94 H 0.30787 0.55231 0.94618 0.0
H95 H 0.02555 0.27621 0.23311 0.0
C96 C 0.02572 0.2668 0.18167 0.0
C97 C 0.03647 0.2508 0.18779 0.0
C98 C 0.01459 0.27009 0.11237 0.0
H99 H 0.04354 0.2248 0.13296 0.0
C100 C 0.03596 0.23762 0.12526 0.0
C101 C 0.02436 0.23979 0.0575 0.0
C102 C 0.0139 0.25621 0.05052 0.0
C103 C 1.00275 0.28723 0.1089 0.0
H104 H 1.00529 0.25797 0.99703 0.0
C105 C 1.0077 0.30372 0.15123 0.0
C106 C 0.99562 0.31909 0.15408 0.0
C107 C 0.98575 0.28692 0.06709 0.0
H108 H 0.98097 0.27464 0.03598 0.0
C109 C 0.97418 0.30232 0.06685 0.0
H110 H 0.02069 0.30455 0.1836 0.0
C111 C 0.97898 0.31819 0.11006 0.0
H112 H 0.96956 0.32982 0.10912 0.0
H113 H 0.96119 0.30181 0.03417 0.0
H114 H 0.2511 1.00828 0.24181 0.0
C115 C 0.26158 1.01226 0.19782 0.0
C116 C 0.2799 0.01372 0.22424 0.0
C117 C 0.25687 0.01517 0.11521 0.0
H118 H 0.30807 0.01861 0.1877 0.0
C119 C 0.29379 0.01811 0.16767 0.0
C120 C 0.28979 0.02055 0.08458 0.0
C121 C 0.27126 0.01908 0.05828 0.0
C122 C 0.23713 1.01264 0.08924 0.0
H123 H 0.26815 0.0211 0.9941 0.0
C124 C 0.22222 0.01705 0.14249 0.0
C125 C 0.20372 1.01261 0.12209 0.0
C126 C 0.23307 1.00443 0.0135 0.0
H127 H 0.24398 1.00049 0.97167 0.0
C128 C 0.21489 1.00038 0.99205 0.0
H129 H 0.22503 0.02395 0.19985 0.0
C130 C 0.2004 1.00417 0.04586 0.0
H131 H 0.18663 1.00001 0.02802 0.0
H132 H 0.21203 0.99377 0.93403 0.0
H133 H 0.5167 0.2565 0.2337 0.0
C134 C 0.51368 0.26701 0.18845 0.0
C135 C 0.51121 0.28525 0.21477 0.0
C136 C 0.51311 0.26245 0.10473 0.0
H137 H 0.50683 0.31345 0.17674 0.0
C138 C 0.50805 0.2992 0.1568 0.0
C139 C 0.50786 0.29535 0.07291 0.0
C140 C 0.51036 0.27691 0.04687 0.0
C141 C 0.51689 0.24286 0.07915 0.0
H142 H 0.5101 0.27395 0.98196 0.0
C143 C 0.51189 0.22764 0.12963 0.0
C144 C 0.5173 0.20936 0.10995 0.0
C145 C 0.52679 0.23931 0.00684 0.0
H146 H 0.53129 0.25045 0.96737 0.0
C147 C 0.53181 0.22132 0.98599 0.0
H148 H 0.50376 0.22998 0.18424 0.0
C149 C 0.52733 0.20654 0.03714 0.0
H150 H 0.5322 0.19293 0.02026 0.0
H151 H 0.53967 0.21886 0.93068 0.0
La152 La 0.01886 1.01105 0.77439 0.0
La153 La 1.00462 0.02304 0.61587 0.0
C154 C 0.02446 0.99385 0.90567 0.0
C155 C 0.03203 0.97512 0.91878 0.0
C156 C 0.04977 0.9729 0.95231 0.0
C157 C 0.05834 0.95558 0.95198 0.0
C158 C 0.04936 0.9403 0.91721 0.0
C159 C 0.03131 0.94231 0.88746 0.0
C160 C 0.02265 0.95951 0.88898 0.0
C161 C 0.04515 0.01952 0.66751 0.0
C162 C 1.00868 0.98063 0.6354 0.0
C163 C 1.0021 0.0416 0.48709 0.0
C164 C 1.01198 0.05905 0.47144 0.0
C165 C 1.00227 0.07475 0.44559 0.0
C166 C 1.01067 0.09215 0.44811 0.0
C167 C 0.0289 0.09413 0.4771 0.0
C168 C 0.03882 0.07825 0.49931 0.0
C169 C 0.03046 0.06094 0.4966 0.0
C170 C 0.97843 0.01415 0.72186 0.0
C171 C 0.0152 0.05286 0.75155 0.0
O172 O 0.0361 1.00583 0.87507 0.0
O173 O 1.00826 0.99488 0.87025 0.0
O174 O 0.04617 0.02244 0.74545 0.0
O175 O 0.03023 1.01119 0.65288 0.0
O176 O 0.01326 0.9844 0.71235 0.0
O177 O 1.00543 0.994 0.58218 0.0
O178 O 0.98984 0.04244 0.54578 0.0
O179 O 1.01247 0.02685 0.49327 0.0
O180 O 0.97744 1.01138 0.64353 0.0
O181 O 0.99319 0.02277 0.73734 0.0
O182 O 0.01565 0.04844 0.67304 0.0
O183 O 0.01342 0.03972 0.80707 0.0
H184 H 0.05727 0.9847 0.97601 0.0
H185 H 0.0722 0.95423 0.97627 0.0
H186 H 0.02397 0.93058 0.86226 0.0
H187 H 1.00886 0.96065 0.86388 0.0
H188 H 0.98795 0.07366 0.42696 0.0
H189 H 1.00276 0.1041 0.42894 0.0
H190 H 0.05276 0.07924 0.5229 0.0
H191 H 0.0382 0.04918 0.51881 0.0
La192 La 0.51652 0.02465 0.7578 0.0
La193 La 0.50422 1.00896 0.60454 0.0
C194 C 0.53566 0.03074 0.88271 0.0
C195 C 0.55606 0.03119 0.88775 0.0
C196 C 0.56577 0.04754 0.86965 0.0
C197 C 0.5848 0.04709 0.85559 0.0
C198 C 0.59453 0.03031 0.85962 0.0
C199 C 0.58501 0.01422 0.88323 0.0
C200 C 0.56602 0.01467 0.89756 0.0
C201 C 0.50702 0.04978 0.64789 0.0
C202 C 0.54625 0.01435 0.61846 0.0
C203 C 0.48561 1.00118 0.47972 0.0
C204 C 0.46595 0.99573 0.47634 0.0
C205 C 0.46111 0.97721 0.4615 0.0
C206 C 0.44304 0.97108 0.47556 0.0
C207 C 0.42965 0.98338 0.50542 0.0
C208 C 0.43419 1.00206 0.51545 0.0
C209 C 0.45211 1.00822 0.50049 0.0
C210 C 0.51373 0.98391 0.71516 0.0
C211 C 0.4744 0.01965 0.74455 0.0
O212 O 0.52803 0.04388 0.83935 0.0
O213 O 0.52837 0.01462 0.86626 0.0
O214 O 0.5038 0.05104 0.72571 0.0
O215 O 0.51591 0.03508 0.63426 0.0
O216 O 0.54261 0.01624 0.69749 0.0
O217 O 0.53259 0.01377 0.56495 0.0
O218 O 0.49646 0.98935 0.5163 0.0
O219 O 0.48907 0.01816 0.50278 0.0
O220 O 0.51714 0.9827 0.63766 0.0
O221 O 0.5047 0.99854 0.72789 0.0
O222 O 0.47788 0.0165 0.66602 0.0
O223 O 0.48805 0.02135 0.79749 0.0
H224 H 0.55855 0.06055 0.86252 0.0
H225 H 0.59181 0.05984 0.84001 0.0
H226 H 0.592 1.00101 0.8866 0.0
H227 H 0.55902 1.00183 0.91176 0.0
H228 H 0.47149 0.9673 0.44266 0.0
H229 H 0.43971 0.95665 0.46614 0.0
H230 H 0.4239 1.01189 0.53606 0.0
H231 H 0.45526 0.02263 0.51158 0.0
La232 La 0.5041 0.52183 0.75631 0.0
La233 La 0.5209 0.51011 0.60589 0.0
C234 C 0.49525 0.5399 0.88169 0.0
C235 C 0.48883 0.55926 0.88792 0.0
C236 C 0.46993 0.56317 0.89864 0.0
C237 C 0.46332 0.58122 0.88921 0.0
C238 C 0.47551 0.59552 0.86822 0.0
C239 C 0.49447 0.59186 0.86253 0.0
C240 C 0.50111 0.57394 0.87284 0.0
C241 C 0.47976 0.51228 0.64262 0.0
C242 C 0.51473 0.55206 0.61821 0.0
C243 C 0.52983 0.49126 0.48323 0.0
C244 C 0.53331 0.47116 0.4811 0.0
C245 C 0.55136 0.46455 0.46878 0.0
C246 C 0.55566 0.44605 0.48494 0.0
C247 C 0.54199 0.43397 0.51429 0.0
C248 C 0.52377 0.44031 0.52198 0.0
C249 C 0.51944 0.45868 0.50521 0.0
C250 C 0.54518 0.52013 0.71866 0.0
C251 C 0.51014 0.48008 0.74274 0.0
O252 O 0.48401 0.52861 0.84425 0.0
O253 O 0.51236 0.53747 0.85801 0.0
O254 O 0.47819 0.50867 0.71984 0.0
O255 O 0.49438 0.52145 0.63149 0.0
O256 O 0.51127 0.54838 0.69631 0.0
O257 O 0.5169 0.53846 0.56521 0.0
O258 O 0.54169 0.5007 0.52644 0.0
O259 O 0.51283 0.49646 0.49818 0.0
O260 O 0.54643 0.52386 0.64144 0.0
O261 O 0.53076 0.51064 0.73066 0.0
O262 O 0.51215 0.48383 0.66396 0.0
O263 O 0.50948 0.49364 0.79647 0.0
H264 H 0.46018 0.55215 0.91097 0.0
H265 H 0.44866 0.58389 0.89526 0.0
H266 H 0.50413 0.60285 0.84829 0.0
H267 H 0.51577 0.57153 0.86505 0.0
H268 H 0.56231 0.47389 0.4505 0.0
H269 H 0.56978 0.44137 0.47749 0.0
H270 H 0.51288 0.43108 0.54206 0.0
H271 H 0.50536 0.46324 0.51494 0.0
La272 La 1.00723 0.50784 0.76438 0.0
La273 La 0.01852 0.52541 0.61559 0.0
C274 C 0.98911 0.49727 0.88674 0.0
C275 C 0.97129 0.4876 0.88431 0.0
C276 C 0.96574 0.47897 0.81135 0.0
C277 C 0.94781 0.47221 0.80284 0.0
C278 C 0.93512 0.47387 0.86733 0.0
C279 C 0.94095 0.48178 0.9417 0.0
C280 C 0.95891 0.4887 0.94995 0.0
C281 C 0.01703 0.48399 0.64862 0.0
C282 C 0.97652 0.51936 0.62992 0.0
C283 C 0.0368 0.53324 0.48967 0.0
C284 C 0.0567 0.53009 0.47577 0.0
C285 C 0.06875 0.54524 0.47125 0.0
C286 C 0.08778 0.54271 0.48005 0.0
C287 C 0.09509 0.52494 0.49351 0.0
C288 C 0.08311 0.50966 0.49077 0.0
C289 C 0.06413 0.5122 0.48222 0.0
C290 C 1.00758 0.54914 0.72866 0.0
C291 C 0.04864 0.51479 0.75114 0.0
O292 O 1.00308 0.48806 0.85672 0.0
O293 O 0.98862 0.51423 0.85903 0.0
O294 O 0.02068 0.48221 0.72553 0.0
O295 O 1.00768 0.49853 0.63919 0.0
O296 O 0.98041 0.5143 0.70591 0.0
O297 O 0.98988 0.52316 0.57759 0.0
O298 O 0.03301 0.54524 0.54694 0.0
O299 O 0.02646 0.51846 0.49587 0.0
O300 O 1.00393 0.55049 0.65128 0.0
O301 O 0.01754 0.53503 0.74064 0.0
O302 O 0.04474 0.516 0.67212 0.0
O303 O 0.03506 0.51447 0.80497 0.0
H304 H 0.97508 0.47809 0.7596 0.0
H305 H 0.94373 0.46612 0.7451 0.0
H306 H 0.93136 0.48344 0.99208 0.0
H307 H 0.96289 0.49552 0.00623 0.0
H308 H 0.06336 0.55916 0.46594 0.0
H309 H 0.09667 0.55473 0.47903 0.0
H310 H 0.08816 0.49578 0.50134 0.0
H311 H 0.05526 0.50017 0.48629 0.0
C312 C 0.1903 0.01457 0.26586 0.0
C313 C 0.18793 0.01595 0.18048 0.0
C314 C 0.17522 0.01637 0.31952 0.0
C315 C 0.12483 0.03051 0.32638 0.0
H316 H 0.12541 1.00279 0.52946 0.0
C317 C 0.0596 0.01581 0.5279 0.0
C318 C 0.06133 0.02032 0.61124 0.0
C319 C 0.07503 0.01631 0.47573 0.0
C320 C 0.12509 1.01068 0.47308 0.0
H321 H 0.16746 0.02124 0.08618 0.0
H322 H 0.14136 0.02306 0.17788 0.0
H323 H 0.15214 1.00173 0.43892 0.0
H324 H 0.08073 0.02865 0.70518 0.0
H325 H 0.10773 0.02882 0.61481 0.0
H326 H 0.09728 0.03865 0.35983 0.0
C327 C 0.1549 0.02103 0.20442 0.0
C328 C 0.14053 1.01023 0.42109 0.0
C329 C 0.17 0.01961 0.15104 0.0
C330 C 0.07889 0.02515 0.64128 0.0
C331 C 0.09438 0.0252 0.58963 0.0
C332 C 0.10924 0.0306 0.37758 0.0
C333 C 0.15715 0.01931 0.28974 0.0
C334 C 0.14073 0.02015 0.34664 0.0
C335 C 0.09264 0.02082 0.50621 0.0
C336 C 0.1092 0.02072 0.45159 0.0
H337 H 0.20375 1.01162 0.29166 0.0
H338 H 0.17783 0.01536 0.38455 0.0
H339 H 0.12437 0.03875 0.27116 0.0
H340 H 0.04633 1.01187 0.50299 0.0
H341 H 0.07328 0.01276 0.41184 0.0
C342 C 0.51354 0.19531 0.25175 0.0
C343 C 0.51336 0.19329 0.16591 0.0
C344 C 0.51141 0.17992 0.3035 0.0
C345 C 0.51925 0.12981 0.30924 0.0
H346 H 0.48589 0.12952 0.49473 0.0
C347 C 0.50981 0.06373 0.50702 0.0
C348 C 0.50612 0.0658 0.59089 0.0
C349 C 0.50964 0.07909 0.45437 0.0
C350 C 0.49555 0.12936 0.44415 0.0
H351 H 0.50967 0.17321 0.06846 0.0
H352 H 0.5067 0.14654 0.1584 0.0
H353 H 0.48776 0.1568 0.40731 0.0
H354 H 0.49938 0.08569 0.68526 0.0
H355 H 0.49987 0.11243 0.59523 0.0
H356 H 0.52768 0.10282 0.34697 0.0
C357 C 0.50864 0.16006 0.18548 0.0
C358 C 0.49651 0.14506 0.39367 0.0
C359 C 0.51044 0.17543 0.13385 0.0
C360 C 0.50217 0.08357 0.62081 0.0
C361 C 0.50231 0.09896 0.56862 0.0
C362 C 0.51856 0.11426 0.36047 0.0
C363 C 0.50931 0.16205 0.27092 0.0
C364 C 0.50831 0.14545 0.32537 0.0
C365 C 0.50609 0.09705 0.48437 0.0
C366 C 0.50666 0.1137 0.42883 0.0
H367 H 0.51596 0.20869 0.2793 0.0
H368 H 0.51206 0.18192 0.36911 0.0
H369 H 0.52866 0.12975 0.25769 0.0
H370 H 0.51285 0.05021 0.48204 0.0
H371 H 0.51222 0.07679 0.38995 0.0
C372 C 0.35476 0.52085 0.12805 0.0
C373 C 0.33669 0.52071 0.16032 0.0
C374 C 0.37021 0.51876 0.17896 0.0
C375 C 0.38431 0.52185 0.39945 0.0
H376 H 0.4296 0.49968 0.31929 0.0
C377 C 0.44638 0.50608 0.61216 0.0
C378 C 0.46396 0.51154 0.5845 0.0
C379 C 0.4311 0.50644 0.55962 0.0
C380 C 0.41709 0.50603 0.34242 0.0
H381 H 0.32104 0.51766 0.27289 0.0
H382 H 0.34776 0.51306 0.3605 0.0
H383 H 0.40247 0.50089 0.23094 0.0
H384 H 0.47934 0.52122 0.47913 0.0
H385 H 0.45264 0.5215 0.38652 0.0
H386 H 0.39892 0.52656 0.51162 0.0
C387 C 0.35008 0.5154 0.29587 0.0
C388 C 0.40147 0.5068 0.29158 0.0
C389 C 0.33461 0.51771 0.24503 0.0
C390 C 0.46599 0.51692 0.50225 0.0
C391 C 0.4507 0.51704 0.44921 0.0
C392 C 0.39983 0.52084 0.45054 0.0
C393 C 0.36818 0.51619 0.26397 0.0
C394 C 0.3848 0.51481 0.31905 0.0
C395 C 0.43299 0.51204 0.47757 0.0
C396 C 0.41646 0.51298 0.4227 0.0
H397 H 0.35706 0.52277 0.06313 0.0
H398 H 0.38378 0.51966 0.15143 0.0
H399 H 0.37201 0.52852 0.42287 0.0
H400 H 0.44433 0.50182 0.67508 0.0
H401 H 0.41774 0.50229 0.58329 0.0
C402 C 0.98552 0.34428 0.25051 0.0
C403 C 0.99971 0.33587 0.20479 0.0
C404 C 0.98869 0.36052 0.29471 0.0
C405 C 0.02567 0.39016 0.3836 0.0
H406 H 0.98633 0.42649 0.38996 0.0
C407 C 0.0254 0.4513 0.61376 0.0
C408 C 0.01747 0.46822 0.59022 0.0
C409 C 0.02458 0.43584 0.56223 0.0
C410 C 0.99759 0.41666 0.38827 0.0
H411 H 0.02863 0.33798 0.17185 0.0
H412 H 0.03422 0.36647 0.24901 0.0
H413 H 0.98251 0.39853 0.30943 0.0
H414 H 1.00301 0.48234 0.49258 0.0
H415 H 1.0018 0.45547 0.40181 0.0
H416 H 0.04085 0.40849 0.46165 0.0
C417 C 0.02058 0.36035 0.25089 0.0
C418 C 0.99529 0.4004 0.3428 0.0
C419 C 0.01738 0.34399 0.20656 0.0
C420 C 1.00918 0.46948 0.51268 0.0
C421 C 1.00837 0.454 0.46094 0.0
C422 C 0.02798 0.40646 0.42916 0.0
C423 C 1.00619 0.369 0.29484 0.0
C424 C 1.00918 0.38677 0.34046 0.0
C425 C 0.01584 0.43684 0.48538 0.0
C426 C 0.0139 0.4199 0.43289 0.0
H427 H 0.97183 0.33823 0.25243 0.0
H428 H 0.97737 0.36637 0.32941 0.0
H429 H 0.03667 0.38003 0.38385 0.0
H430 H 0.03189 0.44984 0.67312 0.0
H431 H 0.0303 0.42292 0.58403 0.0
C432 C 0.83187 1.00518 0.11049 0.0
C433 C 0.83361 1.00626 0.19612 0.0
C434 C 0.84745 1.00666 0.05961 0.0
C435 C 0.89599 0.02326 0.05181 0.0
H436 H 0.90126 0.98726 0.87801 0.0
C437 C 0.96379 0.01743 0.86129 0.0
C438 C 0.9623 0.01277 0.7781 0.0
C439 C 0.94828 0.01667 0.91305 0.0
C440 C 0.89997 0.99765 0.92527 0.0
H441 H 0.85311 1.01051 0.29485 0.0
H442 H 0.88021 0.01331 0.20622 0.0
H443 H 0.87379 0.98686 0.96403 0.0
H444 H 0.94331 1.00365 0.68412 0.0
H445 H 0.91631 1.00283 0.77282 0.0
H446 H 0.92199 0.03429 0.01241 0.0
C447 C 0.8668 1.01121 0.17834 0.0
C448 C 0.88415 0.99737 0.9749 0.0
C449 C 0.85127 1.0095 0.22925 0.0
C450 C 0.94498 1.00724 0.74801 0.0
C451 C 0.92946 1.00665 0.79936 0.0
C452 C 0.91175 0.02367 0.00158 0.0
C453 C 0.86517 1.00951 0.09286 0.0
C454 C 0.88193 1.01014 0.03896 0.0
C455 C 0.9308 1.01137 0.88283 0.0
C456 C 0.91403 1.01086 0.9374 0.0
H457 H 0.81853 1.00255 0.08286 0.0
H458 H 0.84563 1.00548 0.99405 0.0
H459 H 0.89468 0.03343 0.10004 0.0
H460 H 0.97696 0.0217 0.88643 0.0
H461 H 0.95007 0.02012 0.97698 0.0
C462 C 0.51778 0.85544 0.21716 0.0
C463 C 0.52206 0.83821 0.18225 0.0
C464 C 0.51544 0.87117 0.16802 0.0
C465 C 0.50943 0.88664 0.94986 0.0
H466 H 0.5271 0.93338 0.03536 0.0
C467 C 0.52108 0.95069 0.74331 0.0
C468 C 0.51477 0.96788 0.77203 0.0
C469 C 0.52124 0.93516 0.79452 0.0
C470 C 0.52193 0.92048 0.0108 0.0
H471 H 0.52697 0.824 0.06782 0.0
H472 H 0.52336 0.85139 0.98208 0.0
H473 H 0.52839 0.90578 0.12073 0.0
H474 H 0.50398 0.9823 0.8778 0.0
H475 H 0.50456 0.95516 0.96815 0.0
H476 H 0.50351 0.90138 0.83899 0.0
C477 C 0.52136 0.8528 0.04741 0.0
C478 C 0.52259 0.90458 0.05997 0.0
C479 C 0.52346 0.83701 0.09662 0.0
C480 C 0.50897 0.96926 0.85392 0.0
C481 C 0.50933 0.95372 0.90564 0.0
C482 C 0.50898 0.90251 0.90045 0.0
C483 C 0.51757 0.87022 0.08238 0.0
C484 C 0.51639 0.88735 0.03031 0.0
C485 C 0.51528 0.9364 0.87628 0.0
C486 C 0.51528 0.91964 0.93009 0.0
H487 H 0.5164 0.85681 0.28289 0.0
H488 H 0.51206 0.88411 0.19758 0.0
H489 H 0.50416 0.87384 0.92488 0.0
H490 H 0.52571 0.94915 0.68063 0.0
H491 H 0.52617 0.92215 0.77012 0.0
C492 C 0.67454 0.52657 0.21344 0.0
C493 C 0.69204 0.52851 0.17671 0.0
C494 C 0.65865 0.5241 0.16558 0.0
C495 C 0.64033 0.53577 0.96361 0.0
H496 H 0.60205 0.49976 0.00987 0.0
C497 C 0.57861 0.52658 0.74413 0.0
C498 C 0.56131 0.52112 0.77485 0.0
C499 C 0.59422 0.52692 0.79448 0.0
C500 C 0.61241 0.51014 0.99665 0.0
H501 H 0.70655 0.529 0.06084 0.0
H502 H 0.67876 0.52499 0.97705 0.0
H503 H 0.6299 0.50063 0.09431 0.0
H504 H 0.5468 0.51196 0.88337 0.0
H505 H 0.57392 0.51327 0.97286 0.0
H506 H 0.62282 0.54588 0.86853 0.0
C507 C 0.67738 0.52527 0.04304 0.0
C508 C 0.62847 0.51052 0.04491 0.0
C509 C 0.69331 0.52739 0.09101 0.0
C510 C 0.55995 0.51621 0.85786 0.0
C511 C 0.5756 0.51681 0.90893 0.0
C512 C 0.62419 0.53562 0.91636 0.0
C513 C 0.65981 0.52388 0.07967 0.0
C514 C 0.64271 0.52323 0.02847 0.0
C515 C 0.59305 0.52213 0.87794 0.0
C516 C 0.60999 0.52267 0.93133 0.0
H517 H 0.67311 0.52737 0.27933 0.0
H518 H 0.64535 0.52315 0.19573 0.0
H519 H 0.65084 0.546 0.95031 0.0
H520 H 0.58022 0.53031 0.68029 0.0
H521 H 0.60732 0.53064 0.76703 0.0
C522 C 0.97917 0.69471 0.09123 0.0
C523 C 0.99182 0.70052 0.15113 0.0
C524 C 0.98175 0.67811 0.04894 0.0
C525 C 0.01622 0.64082 0.00254 0.0
H526 H 0.97187 0.61388 0.94361 0.0
C527 C 0.01685 0.56689 0.85531 0.0
C528 C 1.00555 0.56497 0.78583 0.0
C529 C 0.01571 0.58282 0.90441 0.0
C530 C 0.98441 0.62125 0.95929 0.0
H531 H 0.01741 0.69358 0.21209 0.0
H532 H 0.02178 0.66422 0.13969 0.0
H533 H 0.96931 0.64264 0.01944 0.0
H534 H 0.98395 0.578 0.71464 0.0
H535 H 0.98165 0.60541 0.80091 0.0
H536 H 0.03123 0.61897 0.9431 0.0
C537 C 1.00995 0.67267 0.1243 0.0
C538 C 0.98296 0.63789 0.00248 0.0
C539 C 1.00746 0.68951 0.16606 0.0
C540 C 0.99281 0.57905 0.76782 0.0
C541 C 0.99147 0.59476 0.81743 0.0
C542 C 0.01766 0.62398 0.96005 0.0
C543 C 0.99694 0.66655 0.06592 0.0
C544 C 0.9988 0.64818 0.02358 0.0
C545 C 1.00301 0.59698 0.88594 0.0
C546 C 1.00174 0.61414 0.93671 0.0
H547 H 0.96713 0.70302 0.07728 0.0
H548 H 0.97171 0.67436 0.00281 0.0
H549 H 0.02876 0.64829 0.01683 0.0
H550 H 0.02686 0.55632 0.87053 0.0
H551 H 0.02472 0.58404 0.95701 0.0
C552 C 0.03479 0.24188 0.3338 0.0
C553 C 0.0457 0.24577 0.26503 0.0
C554 C 0.0415 0.23026 0.39515 0.0
C555 C 0.07109 0.19015 0.38491 0.0
H556 H 0.04656 0.17939 0.59036 0.0
C557 C 0.05609 0.11561 0.46799 0.0
C558 C 0.03735 0.11269 0.4867 0.0
C559 C 0.06376 0.13328 0.47288 0.0
C560 C 0.05367 0.18222 0.53335 0.0
H561 H 0.07297 0.24337 0.21204 0.0
H562 H 0.08513 0.22383 0.32135 0.0
H563 H 0.0498 0.21144 0.54532 0.0
H564 H 1.0124 0.1258 0.53177 0.0
H565 H 0.02543 0.15672 0.53605 0.0
H566 H 0.07384 0.16111 0.36949 0.0
C567 C 0.07115 0.22904 0.32668 0.0
C568 C 0.05558 0.20058 0.50765 0.0
C569 C 0.06429 0.24034 0.26442 0.0
C570 C 0.02673 0.12767 0.5146 0.0
C571 C 0.03435 0.14536 0.51889 0.0
C572 C 0.06923 0.1719 0.41057 0.0
C573 C 0.05929 0.2225 0.38865 0.0
C574 C 0.06323 0.20465 0.4305 0.0
C575 C 0.05281 0.14847 0.49569 0.0
C576 C 0.05949 0.16766 0.48252 0.0
H577 H 0.02038 0.24593 0.33535 0.0
H578 H 0.03191 0.22568 0.44181 0.0
H579 H 0.07697 0.19254 0.32489 0.0
H580 H 0.06471 0.10439 0.44651 0.0
H581 H 0.07808 0.13516 0.45562 0.0
C582 C 0.2798 0.99181 0.34288 0.0
C583 C 0.28516 1.00885 0.30902 0.0
C584 C 0.2887 0.98497 0.41259 0.0
C585 C 0.32693 0.9961 0.56038 0.0
H586 H 0.34593 0.94909 0.48453 0.0
C587 C 0.40266 0.98159 0.60035 0.0
C588 C 0.41076 0.97709 0.52483 0.0
C589 C 0.38379 0.97873 0.61319 0.0
C590 C 0.34073 0.96214 0.50735 0.0
H591 H 0.30208 0.03315 0.32678 0.0
H592 H 0.31786 0.02126 0.44619 0.0
H593 H 0.31589 0.9595 0.43867 0.0
H594 H 0.4061 0.96478 0.40619 0.0
H595 H 0.37316 0.9606 0.42624 0.0
H596 H 0.35272 0.99985 0.62054 0.0
C597 C 0.30682 0.01304 0.42041 0.0
C598 C 0.32329 0.96803 0.48201 0.0
C599 C 0.29794 0.01984 0.35109 0.0
C600 C 0.40011 0.96835 0.46486 0.0
C601 C 0.3812 0.96582 0.477 0.0
C602 C 0.34452 0.99038 0.58444 0.0
C603 C 0.30311 0.99505 0.44913 0.0
C604 C 0.31691 0.9858 0.50267 0.0
C605 C 0.37264 0.97176 0.54995 0.0
C606 C 0.3522 0.97404 0.55243 0.0
H607 H 0.2699 0.98309 0.31172 0.0
H608 H 0.28526 0.97123 0.43402 0.0
H609 H 0.32209 1.00956 0.57995 0.0
H610 H 0.41077 0.98806 0.64811 0.0
H611 H 0.37777 0.98296 0.67083 0.0
C612 C 0.50241 0.30356 0.33818 0.0
C613 C 0.51398 0.2904 0.30164 0.0
C614 C 0.50765 0.31219 0.41069 0.0
C615 C 0.55144 0.32666 0.49578 0.0
H616 H 0.51762 0.35794 0.61615 0.0
C617 C 0.55547 0.40333 0.47856 0.0
C618 C 0.54636 0.41459 0.53524 0.0
C619 C 0.55647 0.3843 0.49131 0.0
C620 C 0.52754 0.34916 0.58538 0.0
H621 H 0.53891 0.27418 0.3176 0.0
H622 H 0.54788 0.28896 0.44558 0.0
H623 H 0.50746 0.32778 0.57026 0.0
H624 H 0.53316 0.41537 0.65413 0.0
H625 H 0.53495 0.38204 0.67708 0.0
H626 H 0.57132 0.34829 0.50865 0.0
C627 C 0.53497 0.29297 0.41716 0.0
C628 C 0.5216 0.33188 0.55816 0.0
C629 C 0.52976 0.28439 0.34411 0.0
C630 C 0.5398 0.4068 0.60855 0.0
C631 C 0.5409 0.38776 0.62173 0.0
C632 C 0.55749 0.34379 0.52427 0.0
C633 C 0.52458 0.30779 0.44845 0.0
C634 C 0.53292 0.32124 0.50651 0.0
C635 C 0.54848 0.37617 0.5614 0.0
C636 C 0.54505 0.35591 0.56264 0.0
H637 H 0.48998 0.30817 0.30746 0.0
H638 H 0.49921 0.32354 0.43225 0.0
H639 H 0.56075 0.31878 0.45741 0.0
H640 H 0.56064 0.40902 0.42161 0.0
H641 H 0.56219 0.37589 0.44275 0.0
C642 C 0.24629 0.5184 0.35075 0.0
C643 C 0.24191 0.50414 0.29579 0.0
C644 C 0.23748 0.51936 0.42679 0.0
C645 C 0.19975 0.49659 0.54983 0.0
H646 H 0.17715 0.54475 0.5228 0.0
C647 C 0.12452 0.50666 0.48844 0.0
C648 C 0.11487 0.52239 0.51501 0.0
C649 C 0.14304 0.50419 0.50874 0.0
C650 C 0.18346 0.53141 0.53379 0.0
H651 H 0.22729 0.47827 0.28161 0.0
H652 H 0.21149 0.48013 0.41185 0.0
H653 H 0.20846 0.53995 0.47699 0.0
H654 H 0.11705 0.54743 0.58768 0.0
H655 H 0.14981 0.54357 0.61894 0.0
H656 H 0.17372 0.4877 0.59843 0.0
C657 C 0.22169 0.49062 0.39781 0.0
C658 C 0.20157 0.52861 0.50762 0.0
C659 C 0.23055 0.48963 0.32226 0.0
C660 C 0.12417 0.53541 0.56404 0.0
C661 C 0.14283 0.53307 0.58329 0.0
C662 C 0.18154 0.49937 0.57529 0.0
C663 C 0.22402 0.50619 0.44839 0.0
C664 C 0.20932 0.51076 0.50868 0.0
C665 C 0.15248 0.51751 0.55519 0.0
C666 C 0.17283 0.51642 0.56118 0.0
H667 H 0.25516 0.52972 0.33219 0.0
H668 H 0.23992 0.5313 0.46517 0.0
H669 H 0.20557 0.48284 0.55418 0.0
H670 H 0.11796 0.49646 0.4497 0.0
H671 H 0.15024 0.49231 0.48411 0.0
C672 C 0.06204 0.78993 0.10909 0.0
C673 C 0.04277 0.78824 0.10578 0.0
C674 C 0.07137 0.8005 0.05046 0.0
C675 C 0.06146 0.8344 0.87857 0.0
H676 H 0.09375 0.86492 0.0101 0.0
C677 C 0.05946 0.91253 0.83831 0.0
C678 C 0.05849 0.92211 0.91283 0.0
C679 C 0.06594 0.89435 0.836 0.0
C680 C 0.08465 0.85664 0.97249 0.0
H681 H 0.01828 0.79439 0.03557 0.0
H682 H 0.03398 0.81353 0.93674 0.0
H683 H 0.08907 0.83313 0.04749 0.0
H684 H 0.06424 0.92078 0.04242 0.0
H685 H 0.0745 0.88893 0.04018 0.0
H686 H 0.05512 0.85866 0.81041 0.0
C687 C 0.04238 0.80647 0.98162 0.0
C688 C 0.08223 0.83808 0.99293 0.0
C689 C 0.0332 0.79547 0.03873 0.0
C690 C 0.06496 0.91365 0.98425 0.0
C691 C 0.07104 0.89537 0.98241 0.0
C692 C 0.06335 0.85316 0.85997 0.0
C693 C 0.06142 0.81024 0.99004 0.0
C694 C 0.06943 0.82705 0.95009 0.0
C695 C 0.07113 0.88524 0.90862 0.0
C696 C 0.07392 0.8648 0.91062 0.0
H697 H 0.06965 0.78433 0.16049 0.0
H698 H 0.08613 0.8023 0.05713 0.0
H699 H 0.05233 0.82616 0.84098 0.0
H700 H 0.05473 0.91897 0.78218 0.0
H701 H 0.06621 0.88727 0.77772 0.0
C702 C 0.72864 0.04517 0.05356 0.0
C703 C 0.73948 0.02958 0.07065 0.0
C704 C 0.7205 0.04731 0.97698 0.0
C705 C 0.70159 0.01481 0.83131 0.0
H706 H 0.67355 0.05908 0.7831 0.0
C707 C 0.62633 0.0177 0.88135 0.0
C708 C 0.61444 0.02944 0.83784 0.0
C709 C 0.64503 0.01691 0.86214 0.0
C710 C 0.68142 0.04654 0.79304 0.0
H711 H 0.7526 1.00547 0.0176 0.0
H712 H 0.73882 1.00949 0.88269 0.0
H713 H 0.70528 0.06176 0.83023 0.0
H714 H 0.61285 0.04904 0.73726 0.0
H715 H 0.64589 0.04808 0.70551 0.0
H716 H 0.67743 0.99967 0.79752 0.0
C717 C 0.73606 0.01976 0.92926 0.0
C718 C 0.69958 0.04808 0.82108 0.0
C719 C 0.74408 0.01751 0.0065 0.0
C720 C 0.62171 0.04016 0.77332 0.0
C721 C 0.64056 0.03943 0.75426 0.0
C722 C 0.6836 0.01328 0.80178 0.0
C723 C 0.72309 0.03393 0.91546 0.0
C724 C 0.70907 0.03231 0.84911 0.0
C725 C 0.65243 0.02793 0.79916 0.0
C726 C 0.67277 0.02917 0.79078 0.0
H727 H 0.7253 0.05498 0.10138 0.0
H728 H 0.71069 0.05847 0.96963 0.0
H729 H 0.70847 1.00223 0.85011 0.0
H730 H 0.62134 1.00952 0.93233 0.0
H731 H 0.65386 1.00832 0.89977 0.0
C732 C 0.51176 0.72941 0.02074 0.0
C733 C 0.501 0.74201 0.06477 0.0
C734 C 0.50429 0.72009 0.95406 0.0
C735 C 0.45916 0.70183 0.90588 0.0
H736 H 0.48992 0.67355 0.75801 0.0
C737 C 0.46064 0.62459 0.91557 0.0
C738 C 0.46881 0.61441 0.85251 0.0
C739 C 0.45792 0.64357 0.90647 0.0
C740 C 0.48071 0.6814 0.79693 0.0
H741 H 0.47481 0.75632 0.07013 0.0
H742 H 0.4616 0.74011 0.95218 0.0
H743 H 0.49916 0.70446 0.79644 0.0
H744 H 0.47866 0.61526 0.72754 0.0
H745 H 0.47334 0.64838 0.71006 0.0
H746 H 0.4409 0.67863 0.90782 0.0
C747 C 0.47576 0.73726 0.96946 0.0
C748 C 0.48618 0.69916 0.81971 0.0
C749 C 0.48331 0.74663 0.03645 0.0
C750 C 0.47261 0.62304 0.77741 0.0
C751 C 0.46961 0.64198 0.76766 0.0
C752 C 0.45348 0.68422 0.88178 0.0
C753 C 0.48581 0.7231 0.93055 0.0
C754 C 0.47635 0.70885 0.88017 0.0
C755 C 0.46314 0.65268 0.83357 0.0
C756 C 0.46504 0.67318 0.83288 0.0
H757 H 0.52541 0.72564 0.04217 0.0
H758 H 0.51247 0.70921 0.92667 0.0
H759 H 0.451 0.70895 0.9516 0.0
H760 H 0.45764 0.61814 0.97399 0.0
H761 H 0.45313 0.65123 0.95922 0.0
C762 C 0.78414 0.49949 0.01538 0.0
C763 C 0.78556 0.49164 0.09367 0.0
C764 C 0.7937 0.49164 0.9495 0.0
C765 C 0.82775 0.45364 0.8998 0.0
H766 H 0.85627 0.49513 0.81876 0.0
C767 C 0.90603 0.47509 0.78483 0.0
C768 C 0.91548 0.4689 0.85488 0.0
C769 C 0.8869 0.47299 0.77866 0.0
C770 C 0.84829 0.48328 0.83871 0.0
H771 H 0.79568 0.46823 0.16271 0.0
H772 H 0.81267 0.45487 0.05012 0.0
H773 H 0.82537 0.50027 0.86976 0.0
H774 H 0.91264 0.45427 0.96986 0.0
H775 H 0.87923 0.45048 0.95908 0.0
H776 H 0.85179 0.43712 0.87662 0.0
C777 C 0.80425 0.4669 0.03767 0.0
C778 C 0.83041 0.48619 0.86784 0.0
C779 C 0.79461 0.47464 0.10293 0.0
C780 C 0.90566 0.45934 0.91571 0.0
C781 C 0.88658 0.45698 0.90895 0.0
C782 C 0.8458 0.4508 0.87204 0.0
C783 C 0.80498 0.47598 0.96148 0.0
C784 C 0.82037 0.47163 0.90397 0.0
C785 C 0.87694 0.46436 0.84179 0.0
C786 C 0.85656 0.46582 0.8458 0.0
H787 H 0.77711 0.51256 0.00668 0.0
H788 H 0.7935 0.49872 0.89109 0.0
H789 H 0.8202 0.44197 0.92449 0.0
H790 H 0.91328 0.48248 0.73695 0.0
H791 H 0.87978 0.47884 0.72639 0.0
C792 C 1.00466 0.21565 0.98834 0.0
C793 C 0.02212 0.22369 0.00083 0.0
C794 C 1.00304 0.19814 0.95161 0.0
C795 C 0.02863 0.16235 0.83072 0.0
H796 H 0.99599 0.128 0.94167 0.0
C797 C 0.0175 0.0868 0.71678 0.0
C798 C 0.01608 0.07275 0.77623 0.0
C799 C 0.0178 0.10552 0.7393 0.0
C800 C 1.00527 0.13734 0.91009 0.0
H801 H 0.05144 0.22006 0.98019 0.0
H802 H 0.04865 0.18985 0.91516 0.0
H803 H 0.99696 0.16024 0.98471 0.0
H804 H 0.01386 0.06764 0.90657 0.0
H805 H 0.01446 0.10019 0.94589 0.0
H806 H 0.0372 0.13936 0.75709 0.0
C807 C 0.03616 0.19694 0.93372 0.0
C808 C 1.00563 0.15597 0.93413 0.0
C809 C 0.03778 0.21431 0.97109 0.0
C810 C 0.01498 0.07801 0.85897 0.0
C811 C 0.01518 0.09675 0.8815 0.0
C812 C 0.02817 0.14374 0.80625 0.0
C813 C 0.01882 0.18831 0.92563 0.0
C814 C 0.01746 0.16874 0.89543 0.0
C815 C 0.01655 0.11082 0.82203 0.0
C816 C 0.01663 0.13088 0.84621 0.0
H817 H 0.99235 0.22237 0.01142 0.0
H818 H 0.98943 0.19209 0.94547 0.0
H819 H 0.03782 0.17175 0.79891 0.0
H820 H 0.01818 0.08337 0.65244 0.0
H821 H 0.01865 0.11587 0.69153 0.0
C822 C 0.31789 0.03828 0.04126 0.0
C823 C 0.30566 0.02352 0.02754 0.0
C824 C 0.33512 0.03897 0.00215 0.0
C825 C 0.36449 0.01727 0.83809 0.0
H826 H 0.40424 0.03509 0.97576 0.0
C827 C 0.44026 0.0239 0.71854 0.0
C828 C 0.45482 0.02058 0.77359 0.0
C829 C 0.42184 0.02454 0.74555 0.0
C830 C 0.39343 0.02986 0.9364 0.0
H831 H 0.30174 0.99818 0.95986 0.0
H832 H 0.33192 0.99918 0.8918 0.0
H833 H 0.37277 0.0357 0.02621 0.0
H834 H 0.46123 0.01519 0.90084 0.0
H835 H 0.42929 0.01594 0.94787 0.0
H836 H 0.38538 1.01091 0.7493 0.0
C837 C 0.32811 1.01048 0.93177 0.0
C838 C 0.37517 0.03052 0.965 0.0
C839 C 0.31072 1.0099 0.97049 0.0
C840 C 0.45043 0.01794 0.85663 0.0
C841 C 0.43201 0.01847 0.88368 0.0
C842 C 0.38283 0.01657 0.80949 0.0
C843 C 0.34085 0.02474 0.94903 0.0
C844 C 0.36034 0.02427 0.91647 0.0
C845 C 0.41736 0.02185 0.82872 0.0
C846 C 0.39764 0.02277 0.85835 0.0
H847 H 0.31443 0.04892 0.08525 0.0
H848 H 0.34418 0.05047 0.01559 0.0
H849 H 0.35356 1.01244 0.79832 0.0
H850 H 0.44314 0.02638 0.65456 0.0
H851 H 0.41115 0.0275 0.70115 0.0
C852 C 0.52149 0.31645 0.96607 0.0
C853 C 0.50637 0.31125 0.01499 0.0
C854 C 0.52174 0.33371 0.92625 0.0
C855 C 0.49232 0.3732 0.85942 0.0
H856 H 0.53638 0.40272 0.8928 0.0
C857 C 0.50212 0.44671 0.71803 0.0
C858 C 0.50925 0.46042 0.77009 0.0
C859 C 0.50166 0.4281 0.74244 0.0
C860 C 0.52396 0.39468 0.88297 0.0
H861 H 0.47941 0.31975 0.05809 0.0
H862 H 0.47953 0.34948 0.98673 0.0
H863 H 0.53563 0.37062 0.93991 0.0
H864 H 0.52147 0.46528 0.889 0.0
H865 H 0.52106 0.43275 0.93109 0.0
H866 H 0.48061 0.39731 0.80305 0.0
C867 C 0.49124 0.34033 0.97902 0.0
C868 C 0.52359 0.37619 0.9092 0.0
C869 C 0.49113 0.32326 0.01979 0.0
C870 C 0.51587 0.45507 0.84744 0.0
C871 C 0.51577 0.4364 0.87125 0.0
C872 C 0.49278 0.39161 0.8321 0.0
C873 C 0.50676 0.34605 0.93356 0.0
C874 C 0.50768 0.36524 0.89888 0.0
C875 C 0.50868 0.42263 0.81903 0.0
C876 C 0.50851 0.40271 0.84462 0.0
H877 H 0.53356 0.30764 0.96244 0.0
H878 H 0.53385 0.33758 0.89127 0.0
H879 H 0.47987 0.36518 0.84997 0.0
H880 H 0.49669 0.45039 0.65853 0.0
H881 H 0.49617 0.41792 0.70046 0.0
C882 C 0.2077 0.49155 0.01036 0.0
C883 C 0.21911 0.50729 0.01054 0.0
C884 C 0.1902 0.49195 0.97377 0.0
C885 C 0.15869 0.5193 0.8374 0.0
H886 H 0.12068 0.49401 0.96194 0.0
C887 C 0.08283 0.5132 0.72103 0.0
C888 C 0.06837 0.51399 0.77855 0.0
C889 C 0.10137 0.51239 0.74597 0.0
C890 C 0.13102 0.50131 0.92655 0.0
H891 H 0.22131 0.53558 0.96892 0.0
H892 H 0.19069 0.53638 0.90484 0.0
H893 H 0.1526 0.49261 0.00713 0.0
H894 H 0.06234 0.51479 0.90841 0.0
H895 H 0.09457 0.51374 0.95211 0.0
H896 H 0.13687 0.5285 0.75848 0.0
C897 C 0.19534 0.5236 0.93242 0.0
C898 C 0.14951 0.50026 0.95186 0.0
C899 C 0.21298 0.52315 0.96883 0.0
C900 C 0.07304 0.51408 0.86212 0.0
C901 C 0.0916 0.51337 0.88722 0.0
C902 C 0.14014 0.52037 0.81212 0.0
C903 C 0.18342 0.50817 0.93675 0.0
C904 C 0.16369 0.5092 0.90776 0.0
C905 C 0.1061 0.51247 0.82954 0.0
C906 C 0.12598 0.5114 0.85633 0.0
H907 H 0.21202 0.4791 0.04188 0.0
H908 H 0.18177 0.4796 0.97659 0.0
H909 H 0.16912 0.5263 0.80132 0.0
H910 H 0.0798 0.51307 0.65641 0.0
H911 H 0.11198 0.51134 0.69954 0.0
C912 C 0.0316 0.8212 0.39133 0.0
C913 C 0.01608 0.81145 0.36254 0.0
C914 C 0.02968 0.83843 0.42942 0.0
C915 C 0.99719 0.87825 0.44164 0.0
H916 H 0.03166 0.89537 0.60622 0.0
C917 C 1.004 0.95617 0.52642 0.0
C918 C 1.00811 0.96088 0.60797 0.0
C919 C 1.00405 0.93762 0.50078 0.0
C920 C 0.02174 0.89086 0.56091 0.0
H921 H 0.98622 0.81196 0.35535 0.0
H922 H 0.98277 0.84184 0.42395 0.0
H923 H 0.03279 0.86341 0.5609 0.0
H924 H 0.01537 0.94944 0.726 0.0
H925 H 0.01511 0.91737 0.68259 0.0
H926 H 0.98594 0.90565 0.44275 0.0
C927 C 0.99653 0.8363 0.41547 0.0
C928 C 0.02255 0.87246 0.53402 0.0
C929 C 0.99847 0.81898 0.37727 0.0
C930 C 1.01212 0.94646 0.663 0.0
C931 C 1.01212 0.92795 0.63762 0.0
C932 C 0.99636 0.89666 0.46869 0.0
C933 C 1.01216 0.84653 0.4403 0.0
C934 C 1.01041 0.86586 0.47334 0.0
C935 C 1.00819 0.92318 0.55592 0.0
C936 C 1.00872 0.90333 0.52834 0.0
H937 H 0.04538 0.81582 0.38129 0.0
H938 H 0.0421 0.84579 0.44679 0.0
H939 H 0.98772 0.87388 0.39422 0.0
H940 H 1.00093 0.96683 0.4819 0.0
H941 H 1.00121 0.93466 0.4371 0.0
C942 C 0.70544 0.03605 0.36008 0.0
C943 C 0.71643 0.02008 0.35364 0.0
C944 C 0.68806 0.03546 0.39788 0.0
C945 C 0.65622 1.00663 0.52697 0.0
H946 H 0.61859 0.0348 0.41333 0.0
C947 C 0.58042 1.01231 0.64762 0.0
C948 C 0.56594 0.01376 0.59052 0.0
C949 C 0.59897 1.01246 0.62237 0.0
C950 C 0.62879 0.02664 0.44559 0.0
H951 H 0.71801 0.99111 0.38553 0.0
H952 H 0.68758 0.98997 0.45158 0.0
H953 H 0.6504 0.03629 0.36713 0.0
H954 H 0.55985 0.0161 0.46116 0.0
H955 H 0.59205 0.01631 0.41696 0.0
H956 H 0.6344 0.99657 0.60403 0.0
C957 C 0.69248 1.00307 0.428 0.0
C958 C 0.64724 0.02775 0.41977 0.0
C959 C 0.71001 1.00371 0.3904 0.0
C960 C 0.57058 0.01506 0.5071 0.0
C961 C 0.58915 0.01534 0.48181 0.0
C962 C 0.63769 1.00549 0.55283 0.0
C963 C 0.68097 0.01882 0.42989 0.0
C964 C 0.6613 0.01777 0.45986 0.0
C965 C 0.6037 0.01427 0.5391 0.0
C966 C 0.62362 0.01541 0.51223 0.0
H967 H 0.71 0.0489 0.33261 0.0
H968 H 0.67996 0.04802 0.39995 0.0
H969 H 0.66658 0.99884 0.56004 0.0
H970 H 0.57743 1.01111 0.71224 0.0
H971 H 0.60961 1.0115 0.66859 0.0
C972 C 0.49714 0.71103 0.36325 0.0
C973 C 0.51331 0.72113 0.34652 0.0
C974 C 0.49798 0.69385 0.40286 0.0
C975 C 0.52939 0.65428 0.42898 0.0
H976 H 0.49287 0.63733 0.58568 0.0
C977 C 0.51883 0.57638 0.50794 0.0
C978 C 0.5155 0.57175 0.59036 0.0
C979 C 0.51929 0.59495 0.48257 0.0
C980 C 0.50327 0.64184 0.54236 0.0
H981 H 0.54302 0.72129 0.35986 0.0
H982 H 0.54458 0.69121 0.42933 0.0
H983 H 0.49258 0.66951 0.54002 0.0
H984 H 0.51037 0.58328 0.71031 0.0
H985 H 0.51115 0.61545 0.66662 0.0
H986 H 0.53997 0.62658 0.43075 0.0
C987 C 0.5312 0.69663 0.41195 0.0
C988 C 0.50302 0.6603 0.51571 0.0
C989 C 0.53031 0.71398 0.37323 0.0
C990 C 0.51279 0.58623 0.64648 0.0
C991 C 0.51315 0.60475 0.6212 0.0
C992 C 0.52952 0.63578 0.45501 0.0
C993 C 0.51507 0.68613 0.42563 0.0
C994 C 0.51603 0.66677 0.45833 0.0
C995 C 0.51634 0.60942 0.53881 0.0
C996 C 0.51641 0.62925 0.51182 0.0
H997 H 0.48387 0.71607 0.34218 0.0
H998 H 0.48529 0.68617 0.41162 0.0
H999 H 0.5395 0.65868 0.3841 0.0
H1000 H 0.52099 0.56566 0.46278 0.0
H1001 H 0.52163 0.59797 0.41847 0.0
C1002 C 0.82494 0.52939 0.30292 0.0
C1003 C 0.80939 0.52181 0.34213 0.0
C1004 C 0.84183 0.53098 0.34363 0.0
C1005 C 0.86836 0.51081 0.51652 0.0
H1006 H 0.90276 0.54996 0.46109 0.0
C1007 C 0.94233 0.51591 0.65754 0.0
C1008 C 0.9568 0.5205 0.60341 0.0
C1009 C 0.9238 0.51704 0.63262 0.0
C1010 C 0.8934 0.53884 0.47687 0.0
H1011 H 0.79924 0.51052 0.45618 0.0
H1012 H 0.82884 0.51362 0.52885 0.0
H1013 H 0.87124 0.55118 0.40973 0.0
H1014 H 0.96288 0.52989 0.48022 0.0
H1015 H 0.9307 0.53172 0.43685 0.0
H1016 H 0.89067 0.49852 0.58388 0.0
C1017 C 0.82798 0.51813 0.46578 0.0
C1018 C 0.87524 0.53952 0.44733 0.0
C1019 C 0.81094 0.51657 0.42468 0.0
C1020 C 0.95218 0.52627 0.52375 0.0
C1021 C 0.93366 0.52743 0.49897 0.0
C1022 C 0.88654 0.5102 0.54664 0.0
C1023 C 0.84379 0.52506 0.42525 0.0
C1024 C 0.86251 0.52533 0.4651 0.0
C1025 C 0.91919 0.52283 0.55298 0.0
C1026 C 0.89943 0.52403 0.52584 0.0
H1027 H 0.8242 0.53344 0.23914 0.0
H1028 H 0.85359 0.53611 0.30946 0.0
H1029 H 0.85912 0.49951 0.53108 0.0
H1030 H 0.94529 0.51148 0.71949 0.0
H1031 H 0.91305 0.51367 0.67625 0.0
loop_
_geom_bond_atom_site_label_1
_geom_bond_atom_site_label_2
_geom_bond_distance
_geom_bond_site_symmetry_2
_ccdc_geom_bond_type
H0 C1 0.949 . S
C1 H0 0.949 . S
C1 C2 1.395 . S
C1 C3 1.391 . S
C2 C1 1.395 . S
C2 C5 1.390 . S
C3 C1 1.391 . S
C3 C7 1.387 . S
C3 C8 1.491 . S
H4 C5 0.950 . S
C5 C2 1.390 . S
C5 H4 0.950 . S
C5 C6 1.378 . S
C6 C5 1.378 . S
C6 C7 1.409 . S
C7 C3 1.387 . S
C7 C6 1.409 . S
C7 H9 0.951 . S
C8 C3 1.491 . S
C8 C10 1.382 . S
C8 C12 1.404 . S
H9 C7 0.951 . S
C10 C8 1.382 . S
C10 C11 1.390 . S
C10 H15 0.949 . S
C11 C10 1.390 . S
C11 C16 1.399 . S
C12 C8 1.404 . S
C12 H13 0.950 . S
C12 C14 1.375 . S
H13 C12 0.950 . S
C14 C12 1.375 . S
C14 C16 1.382 . S
C14 H18 0.950 . S
H15 C10 0.949 . S
C16 C11 1.399 . S
C16 C14 1.382 . S
C16 H17 0.952 . S
H17 C16 0.952 . S
H18 C14 0.950 . S
H19 C20 0.949 . S
C20 H19 0.949 . S
C20 C21 1.399 . S
C20 C22 1.391 . S
C21 C20 1.399 . S
C21 C24 1.387 1_655 S
C22 C20 1.391 . S
C22 C26 1.387 . S
C22 C27 1.491 . S
H23 C24 0.958 . S
C24 C21 1.387 1_455 S
C24 H23 0.958 . S
C24 C25 1.374 1_455 S
C25 C24 1.374 1_655 S
C25 C26 1.416 . S
C26 C22 1.387 . S
C26 C25 1.416 . S
C26 H28 0.951 . S
C27 C22 1.491 . S
C27 C29 1.382 . S
C27 C31 1.404 . S
H28 C26 0.951 . S
C29 C27 1.382 . S
C29 C30 1.390 . S
C29 H34 0.949 1_655 S
C30 C29 1.390 . S
C30 C35 1.399 . S
C31 C27 1.404 . S
C31 H32 0.950 . S
C31 C33 1.375 . S
H32 C31 0.950 . S
C33 C31 1.375 . S
C33 C35 1.382 . S
C33 H37 0.950 . S
H34 C29 0.949 1_455 S
C35 C30 1.399 . S
C35 C33 1.382 . S
C35 H36 0.952 . S
H36 C35 0.952 . S
H37 C33 0.950 . S
H38 C39 0.949 . S
C39 H38 0.949 . S
C39 C40 1.400 . S
C39 C41 1.391 . S
C40 C39 1.400 . S
C40 C43 1.387 1_565 S
C41 C39 1.391 . S
C41 C45 1.387 . S
C41 C46 1.491 . S
H42 C43 0.956 . S
C43 C40 1.387 1_545 S
C43 H42 0.956 . S
C43 C44 1.374 1_545 S
C44 C43 1.374 1_565 S
C44 C45 1.418 . S
C45 C41 1.387 . S
C45 C44 1.418 . S
C45 H47 0.951 . S
C46 C41 1.491 . S
C46 C48 1.382 . S
C46 C50 1.404 . S
H47 C45 0.951 . S
C48 C46 1.382 . S
C48 C49 1.390 . S
C48 H53 0.949 1_565 S
C49 C48 1.390 . S
C49 C54 1.399 . S
C50 C46 1.404 . S
C50 H51 0.950 . S
C50 C52 1.375 . S
H51 C50 0.950 . S
C52 C50 1.375 . S
C52 C54 1.382 . S
C52 H56 0.950 . S
H53 C48 0.949 1_545 S
C54 C49 1.399 . S
C54 C52 1.382 . S
C54 H55 0.952 . S
H55 C54 0.952 . S
H56 C52 0.950 . S
H57 C58 0.949 . S
C58 H57 0.949 . S
C58 C59 1.395 . S
C58 C60 1.391 . S
C59 C58 1.395 . S
C59 C62 1.390 . S
C60 C58 1.391 . S
C60 C64 1.387 . S
C60 C65 1.491 . S
H61 C62 0.950 . S
C62 C59 1.390 . S
C62 H61 0.950 . S
C62 C63 1.378 . S
C63 C62 1.378 . S
C63 C64 1.409 . S
C64 C60 1.387 . S
C64 C63 1.409 . S
C64 H66 0.951 . S
C65 C60 1.491 . S
C65 C67 1.382 . S
C65 C69 1.404 . S
H66 C64 0.951 . S
C67 C65 1.382 . S
C67 C68 1.390 . S
C67 H72 0.949 . S
C68 C67 1.390 . S
C68 C73 1.399 . S
C69 C65 1.404 . S
C69 H70 0.950 . S
C69 C71 1.375 . S
H70 C69 0.950 . S
C71 C69 1.375 . S
C71 C73 1.382 . S
C71 H75 0.950 . S
H72 C67 0.949 . S
C73 C68 1.399 . S
C73 C71 1.382 . S
C73 H74 0.952 . S
H74 C73 0.952 . S
H75 C71 0.950 . S
H76 C77 0.949 . S
C77 H76 0.949 . S
C77 C78 1.395 . S
C77 C79 1.391 1_554 S
C78 C77 1.395 . S
C78 C81 1.390 1_554 S
C79 C77 1.391 1_556 S
C79 C83 1.387 . S
C79 C84 1.491 . S
H80 C81 0.950 . S
C81 C78 1.390 1_556 S
C81 H80 0.950 . S
C81 C82 1.378 . S
C82 C81 1.378 . S
C82 C83 1.409 . S
C83 C79 1.387 . S
C83 C82 1.409 . S
C83 H85 0.951 . S
C84 C79 1.491 . S
C84 C86 1.382 1_556 S
C84 C88 1.404 . S
H85 C83 0.951 . S
C86 C84 1.382 1_554 S
C86 C87 1.390 . S
C86 H91 0.949 . S
C87 C86 1.390 . S
C87 C92 1.399 1_554 S
C88 C84 1.404 . S
C88 H89 0.950 . S
C88 C90 1.375 . S
H89 C88 0.950 . S
C90 C88 1.375 . S
C90 C92 1.382 . S
C90 H94 0.950 . S
H91 C86 0.949 . S
C92 C87 1.399 1_556 S
C92 C90 1.382 . S
C92 H93 0.952 . S
H93 C92 0.952 . S
H94 C90 0.950 . S
H95 C96 0.949 . S
C96 H95 0.949 . S
C96 C97 1.395 . S
C96 C98 1.389 1_454 S
C97 C96 1.395 . S
C97 C100 1.390 1_554 S
C98 C96 1.389 1_656 S
C98 C102 1.386 1_655 S
C98 C103 1.494 . S
H99 C100 0.950 . S
C100 C97 1.390 1_556 S
C100 H99 0.950 . S
C100 C101 1.378 . S
C101 C100 1.378 . S
C101 C102 1.409 . S
C102 C98 1.386 1_455 S
C102 C101 1.409 . S
C102 H104 0.951 . S
C103 C98 1.494 . S
C103 C105 1.382 1_656 S
C103 C107 1.404 . S
H104 C102 0.951 . S
C105 C103 1.382 1_454 S
C105 C106 1.387 1_455 S
C105 H110 0.949 . S
C106 C105 1.387 1_655 S
C106 C111 1.406 1_554 S
C107 C103 1.404 . S
C107 H108 0.950 . S
C107 C109 1.375 . S
H108 C107 0.950 . S
C109 C107 1.375 . S
C109 C111 1.382 . S
C109 H113 0.950 . S
H110 C105 0.949 . S
C111 C106 1.406 1_556 S
C111 C109 1.382 . S
C111 H112 0.952 . S
H112 C111 0.952 . S
H113 C109 0.950 . S
H114 C115 0.954 . S
C115 H114 0.954 . S
C115 C116 1.395 . S
C115 C117 1.389 1_544 S
C116 C115 1.395 . S
C116 C119 1.390 1_554 S
C117 C115 1.389 1_566 S
C117 C121 1.386 1_565 S
C117 C122 1.496 . S
H118 C119 0.950 . S
C119 C116 1.390 1_556 S
C119 H118 0.950 . S
C119 C120 1.378 . S
C120 C119 1.378 . S
C120 C121 1.409 . S
C121 C117 1.386 1_545 S
C121 C120 1.409 . S
C121 H123 0.951 1_545 S
C122 C117 1.496 . S
C122 C124 1.382 1_566 S
C122 C126 1.404 . S
H123 C121 0.951 1_565 S
C124 C122 1.382 1_544 S
C124 C125 1.386 1_545 S
C124 H129 0.949 . S
C125 C124 1.386 1_565 S
C125 C130 1.411 1_554 S
C126 C122 1.404 . S
C126 H127 0.950 . S
C126 C128 1.375 . S
H127 C126 0.950 . S
C128 C126 1.375 . S
C128 C130 1.382 . S
C128 H132 0.950 . S
H129 C124 0.949 . S
C130 C125 1.411 1_556 S
C130 C128 1.382 . S
C130 H131 0.952 . S
H131 C130 0.952 . S
H132 C128 0.950 . S
H133 C134 0.949 . S
C134 H133 0.949 . S
C134 C135 1.395 . S
C134 C136 1.391 1_554 S
C135 C134 1.395 . S
C135 C138 1.390 1_554 S
C136 C134 1.391 1_556 S
C136 C140 1.387 . S
C136 C141 1.491 . S
H137 C138 0.950 . S
C138 C135 1.390 1_556 S
C138 H137 0.950 . S
C138 C139 1.378 . S
C139 C138 1.378 . S
C139 C140 1.409 . S
C140 C136 1.387 . S
C140 C139 1.409 . S
C140 H142 0.951 . S
C141 C136 1.491 . S
C141 C143 1.382 1_556 S
C141 C145 1.404 . S
H142 C140 0.951 . S
C143 C141 1.382 1_554 S
C143 C144 1.390 . S
C143 H148 0.949 . S
C144 C143 1.390 . S
C144 C149 1.399 1_554 S
C145 C141 1.404 . S
C145 H146 0.950 . S
C145 C147 1.375 . S
H146 C145 0.950 . S
C147 C145 1.375 . S
C147 C149 1.382 . S
C147 H151 0.950 . S
H148 C143 0.949 . S
C149 C144 1.399 1_556 S
C149 C147 1.382 . S
C149 H150 0.952 . S
H150 C149 0.952 . S
H151 C147 0.950 . S
La152 C154 2.928 . S
La152 O172 2.521 . S
La152 O173 2.639 . S
La152 O174 2.554 . S
La152 O175 2.757 1_565 S
La152 O176 2.470 . S
La152 O181 2.482 1_455 S
La152 O183 2.503 1_565 S
La153 C163 2.928 . S
La153 O175 2.482 1_655 S
La153 O177 2.503 1_545 S
La153 O178 2.521 . S
La153 O179 2.628 1_655 S
La153 O180 2.554 . S
La153 O181 2.757 1_545 S
La153 O182 2.470 . S
C154 La152 2.928 . S
C154 C155 1.503 . S
C154 O172 1.261 . S
C154 O173 1.267 . S
C155 C154 1.503 . S
C155 C156 1.394 . S
C155 C160 1.373 . S
C156 C155 1.394 . S
C156 C157 1.380 . S
C156 H184 0.930 . S
C157 C156 1.380 . S
C157 C158 1.376 . S
C157 H185 0.930 . S
C158 C157 1.376 . S
C158 C159 1.370 . S
C159 C158 1.370 . S
C159 C160 1.396 . S
C159 H186 0.929 1_455 S
C160 C155 1.373 . S
C160 C159 1.396 . S
C160 H187 0.929 1_455 S
C161 O174 1.240 1_545 S
C161 O175 1.289 . S
C162 O176 1.258 1_655 S
C162 O177 1.256 . S
C163 La153 2.928 . S
C163 C164 1.503 . S
C163 O178 1.261 . S
C163 O179 1.243 1_655 S
C164 C163 1.503 . S
C164 C165 1.394 . S
C164 C169 1.373 1_655 S
C165 C164 1.394 . S
C165 C166 1.380 . S
C165 H188 0.930 . S
C166 C165 1.380 . S
C166 C167 1.376 . S
C166 H189 0.930 . S
C167 C166 1.376 . S
C167 C168 1.405 . S
C168 C167 1.405 . S
C168 C169 1.392 1_655 S
C168 H190 0.898 1_655 S
C169 C164 1.373 1_455 S
C169 C168 1.392 1_455 S
C169 H191 0.929 . S
C170 O180 1.240 . S
C170 O181 1.289 1_545 S
C171 O182 1.258 1_455 S
C171 O183 1.256 . S
O172 La152 2.521 . S
O172 C154 1.261 . S
O173 La152 2.639 . S
O173 C154 1.267 . S
O174 La152 2.554 . S
O174 C161 1.240 1_565 S
O175 La152 2.757 1_545 S
O175 La153 2.482 1_455 S
O175 C161 1.289 . S
O176 La152 2.470 . S
O176 C162 1.258 1_455 S
O177 La153 2.503 1_565 S
O177 C162 1.256 . S
O178 La153 2.521 . S
O178 C163 1.261 . S
O179 La153 2.628 1_455 S
O179 C163 1.243 1_455 S
O180 La153 2.554 . S
O180 C170 1.240 . S
O181 La152 2.482 1_655 S
O181 La153 2.757 1_565 S
O181 C170 1.289 1_565 S
O182 La153 2.470 . S
O182 C171 1.258 1_655 S
O183 La152 2.503 1_545 S
O183 C171 1.256 . S
H184 C156 0.930 . S
H185 C157 0.930 . S
H186 C159 0.929 1_655 S
H187 C160 0.929 1_655 S
H188 C165 0.930 . S
H189 C166 0.930 . S
H190 C168 0.898 1_455 S
H191 C169 0.929 . S
La192 C194 2.928 . S
La192 O212 2.521 . S
La192 O213 2.635 . S
La192 O214 2.554 . S
La192 O215 2.757 . S
La192 O216 2.470 . S
La192 O221 2.482 1_545 S
La192 O223 2.503 . S
La193 C203 2.928 . S
La193 O215 2.482 1_565 S
La193 O217 2.503 . S
La193 O218 2.521 . S
La193 O219 2.628 1_565 S
La193 O220 2.554 . S
La193 O221 2.757 . S
La193 O222 2.470 . S
C194 La192 2.928 . S
C194 C195 1.503 . S
C194 O212 1.261 . S
C194 O213 1.259 . S
C195 C194 1.503 . S
C195 C196 1.394 . S
C195 C200 1.373 . S
C196 C195 1.394 . S
C196 C197 1.380 . S
C196 H224 0.930 . S
C197 C196 1.380 . S
C197 C198 1.376 . S
C197 H225 0.930 . S
C198 C197 1.376 . S
C198 C199 1.370 . S
C199 C198 1.370 . S
C199 C200 1.396 . S
C199 H226 0.929 1_545 S
C200 C195 1.373 . S
C200 C199 1.396 . S
C200 H227 0.929 1_545 S
C201 O214 1.240 . S
C201 O215 1.289 . S
C202 O216 1.258 1_565 S
C202 O217 1.256 . S
C203 La193 2.928 . S
C203 C204 1.503 . S
C203 O218 1.261 . S
C203 O219 1.243 1_565 S
C204 C203 1.503 . S
C204 C205 1.394 . S
C204 C209 1.373 1_565 S
C205 C204 1.394 . S
C205 C206 1.380 . S
C205 H228 0.930 . S
C206 C205 1.380 . S
C206 C207 1.376 . S
C206 H229 0.930 . S
C207 C206 1.376 . S
C207 C208 1.413 . S
C208 C207 1.413 . S
C208 C209 1.392 1_565 S
C208 H230 0.891 1_565 S
C209 C204 1.373 1_545 S
C209 C208 1.392 1_545 S
C209 H231 0.929 . S
C210 O220 1.240 . S
C210 O221 1.289 . S
C211 O222 1.258 1_545 S
C211 O223 1.256 . S
O212 La192 2.521 . S
O212 C194 1.261 . S
O213 La192 2.635 . S
O213 C194 1.259 . S
O214 La192 2.554 . S
O214 C201 1.240 . S
O215 La192 2.757 . S
O215 La193 2.482 1_545 S
O215 C201 1.289 . S
O216 La192 2.470 . S
O216 C202 1.258 1_545 S
O217 La193 2.503 . S
O217 C202 1.256 . S
O218 La193 2.521 . S
O218 C203 1.261 . S
O219 La193 2.628 1_545 S
O219 C203 1.243 1_545 S
O220 La193 2.554 . S
O220 C210 1.240 . S
O221 La192 2.482 1_565 S
O221 La193 2.757 . S
O221 C210 1.289 . S
O222 La193 2.470 . S
O222 C211 1.258 1_565 S
O223 La192 2.503 . S
O223 C211 1.256 . S
H224 C196 0.930 . S
H225 C197 0.930 . S
H226 C199 0.929 1_565 S
H227 C200 0.929 1_565 S
H228 C205 0.930 . S
H229 C206 0.930 . S
H230 C208 0.891 1_545 S
H231 C209 0.929 . S
La232 C234 2.928 . S
La232 O252 2.521 . S
La232 O253 2.628 . S
La232 O254 2.554 . S
La232 O255 2.757 . S
La232 O256 2.470 . S
La232 O261 2.482 . S
La232 O263 2.503 . S
La233 C243 2.928 . S
La233 O255 2.482 . S
La233 O257 2.503 . S
La233 O258 2.521 . S
La233 O259 2.628 . S
La233 O260 2.554 . S
La233 O261 2.757 . S
La233 O262 2.470 . S
C234 La232 2.928 . S
C234 C235 1.503 . S
C234 O252 1.261 . S
C234 O253 1.243 . S
C235 C234 1.503 . S
C235 C236 1.394 . S
C235 C240 1.373 . S
C236 C235 1.394 . S
C236 C237 1.380 . S
C236 H264 0.930 . S
C237 C236 1.380 . S
C237 C238 1.376 . S
C237 H265 0.930 . S
C238 C237 1.376 . S
C238 C239 1.370 . S
C239 C238 1.370 . S
C239 C240 1.396 . S
C239 H266 0.929 . S
C240 C235 1.373 . S
C240 C239 1.396 . S
C240 H267 0.929 . S
C241 O254 1.240 . S
C241 O255 1.289 . S
C242 O256 1.258 . S
C242 O257 1.256 . S
C243 La233 2.928 . S
C243 C244 1.503 . S
C243 O258 1.261 . S
C243 O259 1.243 . S
C244 C243 1.503 . S
C244 C245 1.394 . S
C244 C249 1.373 . S
C245 C244 1.394 . S
C245 C246 1.380 . S
C245 H268 0.930 . S
C246 C245 1.380 . S
C246 C247 1.376 . S
C246 H269 0.930 . S
C247 C246 1.376 . S
C247 C248 1.370 . S
C248 C247 1.370 . S
C248 C249 1.396 . S
C248 H270 0.929 . S
C249 C244 1.373 . S
C249 C248 1.396 . S
C249 H271 0.929 . S
C250 O260 1.240 . S
C250 O261 1.289 . S
C251 O262 1.258 . S
C251 O263 1.256 . S
O252 La232 2.521 . S
O252 C234 1.261 . S
O253 La232 2.628 . S
O253 C234 1.243 . S
O254 La232 2.554 . S
O254 C241 1.240 . S
O255 La232 2.757 . S
O255 La233 2.482 . S
O255 C241 1.289 . S
O256 La232 2.470 . S
O256 C242 1.258 . S
O257 La233 2.503 . S
O257 C242 1.256 . S
O258 La233 2.521 . S
O258 C243 1.261 . S
O259 La233 2.628 . S
O259 C243 1.243 . S
O260 La233 2.554 . S
O260 C250 1.240 . S
O261 La232 2.482 . S
O261 La233 2.757 . S
O261 C250 1.289 . S
O262 La233 2.470 . S
O262 C251 1.258 . S
O263 La232 2.503 . S
O263 C251 1.256 . S
H264 C236 0.930 . S
H265 C237 0.930 . S
H266 C239 0.929 . S
H267 C240 0.929 . S
H268 C245 0.930 . S
H269 C246 0.930 . S
H270 C248 0.929 . S
H271 C249 0.929 . S
La272 C274 2.928 . S
La272 O292 2.521 . S
La272 O293 2.628 . S
La272 O294 2.554 . S
La272 O295 2.757 1_655 S
La272 O296 2.470 . S
La272 O301 2.482 . S
La272 O303 2.503 1_655 S
La273 C283 2.928 . S
La273 O295 2.482 . S
La273 O297 2.503 1_455 S
La273 O298 2.521 . S
La273 O299 2.628 . S
La273 O300 2.554 . S
La273 O301 2.757 1_455 S
La273 O302 2.470 . S
C274 La272 2.928 . S
C274 C275 1.503 . S
C274 O292 1.261 . S
C274 O293 1.243 . S
C275 C274 1.503 . S
C275 C276 1.394 . S
C275 C280 1.373 . S
C276 C275 1.394 . S
C276 C277 1.380 . S
C276 H304 0.930 . S
C277 C276 1.380 . S
C277 C278 1.376 . S
C277 H305 0.930 . S
C278 C277 1.376 . S
C278 C279 1.370 . S
C279 C278 1.370 . S
C279 C280 1.396 . S
C279 H306 0.929 . S
C280 C275 1.373 . S
C280 C279 1.396 . S
C280 H307 0.929 . S
C281 O294 1.240 1_455 S
C281 O295 1.289 . S
C282 O296 1.258 . S
C282 O297 1.256 . S
C283 La273 2.928 . S
C283 C284 1.503 . S
C283 O298 1.261 . S
C283 O299 1.243 . S
C284 C283 1.503 . S
C284 C285 1.394 . S
C284 C289 1.373 . S
C285 C284 1.394 . S
C285 C286 1.380 . S
C285 H308 0.930 . S
C286 C285 1.380 . S
C286 C287 1.376 . S
C286 H309 0.930 . S
C287 C286 1.376 . S
C287 C288 1.370 . S
C288 C287 1.370 . S
C288 C289 1.396 . S
C288 H310 0.929 . S
C289 C284 1.373 . S
C289 C288 1.396 . S
C289 H311 0.929 . S
C290 O300 1.240 . S
C290 O301 1.289 1_455 S
C291 O302 1.258 . S
C291 O303 1.256 . S
O292 La272 2.521 . S
O292 C274 1.261 . S
O293 La272 2.628 . S
O293 C274 1.243 . S
O294 La272 2.554 . S
O294 C281 1.240 1_655 S
O295 La272 2.757 1_455 S
O295 La273 2.482 . S
O295 C281 1.289 . S
O296 La272 2.470 . S
O296 C282 1.258 . S
O297 La273 2.503 1_655 S
O297 C282 1.256 . S
O298 La273 2.521 . S
O298 C283 1.261 . S
O299 La273 2.628 . S
O299 C283 1.243 . S
O300 La273 2.554 . S
O300 C290 1.240 . S
O301 La272 2.482 . S
O301 La273 2.757 1_655 S
O301 C290 1.289 1_655 S
O302 La273 2.470 . S
O302 C291 1.258 . S
O303 La272 2.503 1_455 S
O303 C291 1.256 . S
H304 C276 0.930 . S
H305 C277 0.930 . S
H306 C279 0.929 . S
H307 C280 0.929 . S
H308 C285 0.930 . S
H309 C286 0.930 . S
H310 C288 0.929 . S
H311 C289 0.929 . S
C312 C313 1.349 1_565 S
C312 C314 1.327 . S
C312 H337 0.950 . S
C313 C312 1.349 1_545 S
C313 C329 1.349 . S
C314 C312 1.327 . S
C314 C333 1.429 1_565 S
C314 H338 0.950 . S
C315 C332 1.574 . S
C315 C334 1.368 . S
C315 H339 0.949 . S
H316 C320 0.949 . S
C317 C318 1.349 . S
C317 C319 1.327 . S
C317 H340 0.950 . S
C318 C317 1.349 . S
C318 C330 1.349 1_545 S
C319 C317 1.327 . S
C319 C335 1.429 . S
C319 H341 0.950 . S
C320 H316 0.949 . S
C320 C328 1.574 . S
C320 C336 1.368 1_565 S
H321 C329 0.950 . S
H322 C327 0.950 . S
H323 C328 0.949 . S
H324 C330 0.950 . S
H325 C331 0.950 . S
H326 C332 0.949 . S
C327 H322 0.950 . S
C327 C329 1.327 . S
C327 C333 1.429 . S
C328 C320 1.574 . S
C328 H323 0.949 . S
C328 C334 1.368 1_565 S
C329 C313 1.349 . S
C329 H321 0.950 . S
C329 C327 1.327 . S
C330 C318 1.349 1_565 S
C330 H324 0.950 . S
C330 C331 1.327 . S
C331 H325 0.950 . S
C331 C330 1.327 . S
C331 C335 1.429 1_565 S
C332 C315 1.574 . S
C332 H326 0.949 . S
C332 C336 1.368 . S
C333 C314 1.429 1_545 S
C333 C327 1.429 . S
C333 C334 1.523 . S
C334 C315 1.368 . S
C334 C328 1.368 1_545 S
C334 C333 1.523 . S
C335 C319 1.429 . S
C335 C331 1.429 1_545 S
C335 C336 1.523 . S
C336 C320 1.368 1_545 S
C336 C332 1.368 . S
C336 C335 1.523 . S
H337 C312 0.950 . S
H338 C314 0.950 . S
H339 C315 0.949 . S
H340 C317 0.950 . S
H341 C319 0.950 . S
C342 C343 1.349 . S
C342 C344 1.327 . S
C342 H367 0.950 . S
C343 C342 1.349 . S
C343 C359 1.349 . S
C344 C342 1.327 . S
C344 C363 1.429 . S
C344 H368 0.950 . S
C345 C362 1.574 . S
C345 C364 1.368 . S
C345 H369 0.949 . S
H346 C350 0.949 . S
C347 C348 1.349 . S
C347 C349 1.327 . S
C347 H370 0.950 . S
C348 C347 1.349 . S
C348 C360 1.349 . S
C349 C347 1.327 . S
C349 C365 1.429 . S
C349 H371 0.950 . S
C350 H346 0.949 . S
C350 C358 1.574 . S
C350 C366 1.368 . S
H351 C359 0.950 . S
H352 C357 0.950 . S
H353 C358 0.949 . S
H354 C360 0.950 . S
H355 C361 0.950 . S
H356 C362 0.949 . S
C357 H352 0.950 . S
C357 C359 1.327 . S
C357 C363 1.429 . S
C358 C350 1.574 . S
C358 H353 0.949 . S
C358 C364 1.368 . S
C359 C343 1.349 . S
C359 H351 0.950 . S
C359 C357 1.327 . S
C360 C348 1.349 . S
C360 H354 0.950 . S
C360 C361 1.327 . S
C361 H355 0.950 . S
C361 C360 1.327 . S
C361 C365 1.429 . S
C362 C345 1.574 . S
C362 H356 0.949 . S
C362 C366 1.368 . S
C363 C344 1.429 . S
C363 C357 1.429 . S
C363 C364 1.523 . S
C364 C345 1.368 . S
C364 C358 1.368 . S
C364 C363 1.523 . S
C365 C349 1.429 . S
C365 C361 1.429 . S
C365 C366 1.523 . S
C366 C350 1.368 . S
C366 C362 1.368 . S
C366 C365 1.523 . S
H367 C342 0.950 . S
H368 C344 0.950 . S
H369 C345 0.949 . S
H370 C347 0.950 . S
H371 C349 0.950 . S
C372 C373 1.349 . S
C372 C374 1.327 . S
C372 H397 0.950 . S
C373 C372 1.349 . S
C373 C389 1.349 . S
C374 C372 1.327 . S
C374 C393 1.429 . S
C374 H398 0.950 . S
C375 C392 1.574 . S
C375 C394 1.368 . S
C375 H399 0.949 . S
H376 C380 0.949 . S
C377 C378 1.349 . S
C377 C379 1.327 . S
C377 H400 0.950 . S
C378 C377 1.349 . S
C378 C390 1.349 . S
C379 C377 1.327 . S
C379 C395 1.429 . S
C379 H401 0.950 . S
C380 H376 0.949 . S
C380 C388 1.574 . S
C380 C396 1.368 . S
H381 C389 0.950 . S
H382 C387 0.950 . S
H383 C388 0.949 . S
H384 C390 0.950 . S
H385 C391 0.950 . S
H386 C392 0.949 . S
C387 H382 0.950 . S
C387 C389 1.327 . S
C387 C393 1.429 . S
C388 C380 1.574 . S
C388 H383 0.949 . S
C388 C394 1.368 . S
C389 C373 1.349 . S
C389 H381 0.950 . S
C389 C387 1.327 . S
C390 C378 1.349 . S
C390 H384 0.950 . S
C390 C391 1.327 . S
C391 H385 0.950 . S
C391 C390 1.327 . S
C391 C395 1.429 . S
C392 C375 1.574 . S
C392 H386 0.949 . S
C392 C396 1.368 . S
C393 C374 1.429 . S
C393 C387 1.429 . S
C393 C394 1.523 . S
C394 C375 1.368 . S
C394 C388 1.368 . S
C394 C393 1.523 . S
C395 C379 1.429 . S
C395 C391 1.429 . S
C395 C396 1.523 . S
C396 C380 1.368 . S
C396 C392 1.368 . S
C396 C395 1.523 . S
H397 C372 0.950 . S
H398 C374 0.950 . S
H399 C375 0.949 . S
H400 C377 0.950 . S
H401 C379 0.950 . S
C402 C403 1.349 1_655 S
C402 C404 1.327 . S
C402 H427 0.950 . S
C403 C402 1.349 1_455 S
C403 C419 1.349 . S
C404 C402 1.327 . S
C404 C423 1.429 1_655 S
C404 H428 0.950 . S
C405 C422 1.574 . S
C405 C424 1.368 . S
C405 H429 0.949 . S
H406 C410 0.949 . S
C407 C408 1.349 . S
C407 C409 1.327 . S
C407 H430 0.950 . S
C408 C407 1.349 . S
C408 C420 1.349 1_455 S
C409 C407 1.327 . S
C409 C425 1.429 . S
C409 H431 0.950 . S
C410 H406 0.949 . S
C410 C418 1.574 . S
C410 C426 1.368 1_655 S
H411 C419 0.950 . S
H412 C417 0.950 . S
H413 C418 0.949 . S
H414 C420 0.950 . S
H415 C421 0.950 . S
H416 C422 0.949 . S
C417 H412 0.950 . S
C417 C419 1.327 . S
C417 C423 1.429 . S
C418 C410 1.574 . S
C418 H413 0.949 . S
C418 C424 1.368 1_655 S
C419 C403 1.349 . S
C419 H411 0.950 . S
C419 C417 1.327 . S
C420 C408 1.349 1_655 S
C420 H414 0.950 . S
C420 C421 1.327 . S
C421 H415 0.950 . S
C421 C420 1.327 . S
C421 C425 1.429 1_655 S
C422 C405 1.574 . S
C422 H416 0.949 . S
C422 C426 1.368 . S
C423 C404 1.429 1_455 S
C423 C417 1.429 . S
C423 C424 1.523 . S
C424 C405 1.368 . S
C424 C418 1.368 1_455 S
C424 C423 1.523 . S
C425 C409 1.429 . S
C425 C421 1.429 1_455 S
C425 C426 1.523 . S
C426 C410 1.368 1_455 S
C426 C422 1.368 . S
C426 C425 1.523 . S
H427 C402 0.950 . S
H428 C404 0.950 . S
H429 C405 0.949 . S
H430 C407 0.950 . S
H431 C409 0.950 . S
C432 C433 1.365 . S
C432 C434 1.327 . S
C432 H457 0.950 . S
C433 C432 1.365 . S
C433 C449 1.333 1_565 S
C434 C432 1.327 . S
C434 C453 1.432 . S
C434 H458 0.950 . S
C435 C452 1.574 . S
C435 C454 1.371 1_545 S
C435 H459 0.949 . S
H436 C440 0.949 . S
C437 C438 1.371 . S
C437 C439 1.327 . S
C437 H460 0.950 . S
C438 C437 1.371 . S
C438 C450 1.327 1_545 S
C439 C437 1.327 . S
C439 C455 1.439 . S
C439 H461 0.950 . S
C440 H436 0.949 . S
C440 C448 1.574 1_556 S
C440 C456 1.364 1_565 S
H441 C449 0.950 . S
H442 C447 0.950 . S
H443 C448 0.949 . S
H444 C450 0.950 . S
H445 C451 0.950 . S
H446 C452 0.949 . S
C447 H442 0.950 . S
C447 C449 1.327 . S
C447 C453 1.425 1_545 S
C448 C440 1.574 1_554 S
C448 H443 0.949 . S
C448 C454 1.365 . S
C449 C433 1.333 1_545 S
C449 H441 0.950 . S
C449 C447 1.327 . S
C450 C438 1.327 1_565 S
C450 H444 0.950 . S
C450 C451 1.327 . S
C451 H445 0.950 . S
C451 C450 1.327 . S
C451 C455 1.419 1_565 S
C452 C435 1.574 . S
C452 H446 0.949 . S
C452 C456 1.372 1_554 S
C453 C434 1.432 . S
C453 C447 1.425 1_565 S
C453 C454 1.523 . S
C454 C435 1.371 1_565 S
C454 C448 1.365 . S
C454 C453 1.523 . S
C455 C439 1.439 . S
C455 C451 1.419 1_545 S
C455 C456 1.523 . S
C456 C440 1.364 1_545 S
C456 C452 1.372 1_556 S
C456 C455 1.523 . S
H457 C432 0.950 . S
H458 C434 0.950 . S
H459 C435 0.949 . S
H460 C437 0.950 . S
H461 C439 0.950 . S
C462 C463 1.349 . S
C462 C464 1.327 . S
C462 H487 0.950 . S
C463 C462 1.349 . S
C463 C479 1.349 . S
C464 C462 1.327 . S
C464 C483 1.429 . S
C464 H488 0.950 . S
C465 C482 1.574 . S
C465 C484 1.368 1_556 S
C465 H489 0.949 . S
H466 C470 0.949 . S
C467 C468 1.349 . S
C467 C469 1.327 . S
C467 H490 0.950 . S
C468 C467 1.349 . S
C468 C480 1.349 . S
C469 C467 1.327 . S
C469 C485 1.429 . S
C469 H491 0.950 . S
C470 H466 0.949 . S
C470 C478 1.574 . S
C470 C486 1.368 1_554 S
H471 C479 0.950 . S
H472 C477 0.950 . S
H473 C478 0.949 . S
H474 C480 0.950 . S
H475 C481 0.950 1_554 S
H476 C482 0.949 . S
C477 H472 0.950 . S
C477 C479 1.327 . S
C477 C483 1.429 . S
C478 C470 1.574 . S
C478 H473 0.949 . S
C478 C484 1.368 . S
C479 C463 1.349 . S
C479 H471 0.950 . S
C479 C477 1.327 . S
C480 C468 1.349 . S
C480 H474 0.950 . S
C480 C481 1.327 . S
C481 H475 0.950 1_556 S
C481 C480 1.327 . S
C481 C485 1.429 . S
C482 C465 1.574 . S
C482 H476 0.949 . S
C482 C486 1.368 . S
C483 C464 1.429 . S
C483 C477 1.429 . S
C483 C484 1.523 . S
C484 C465 1.368 1_554 S
C484 C478 1.368 . S
C484 C483 1.523 . S
C485 C469 1.429 . S
C485 C481 1.429 . S
C485 C486 1.523 . S
C486 C470 1.368 1_556 S
C486 C482 1.368 . S
C486 C485 1.523 . S
H487 C462 0.950 . S
H488 C464 0.950 . S
H489 C465 0.949 . S
H490 C467 0.950 . S
H491 C469 0.950 . S
C492 C493 1.349 . S
C492 C494 1.327 . S
C492 H517 0.950 . S
C493 C492 1.349 . S
C493 C509 1.349 . S
C494 C492 1.327 . S
C494 C513 1.429 . S
C494 H518 0.950 . S
C495 C512 1.574 1_554 S
C495 C514 1.368 . S
C495 H519 0.949 . S
H496 C500 0.949 . S
C497 C498 1.349 . S
C497 C499 1.327 . S
C497 H520 0.950 . S
C498 C497 1.349 . S
C498 C510 1.349 . S
C499 C497 1.327 . S
C499 C515 1.429 . S
C499 H521 0.950 . S
C500 H496 0.949 . S
C500 C508 1.574 . S
C500 C516 1.368 1_554 S
H501 C509 0.950 . S
H502 C507 0.950 . S
H503 C508 0.949 . S
H504 C510 0.950 . S
H505 C511 0.950 . S
H506 C512 0.949 . S
C507 H502 0.950 . S
C507 C509 1.327 . S
C507 C513 1.429 . S
C508 C500 1.574 . S
C508 H503 0.949 . S
C508 C514 1.368 . S
C509 C493 1.349 . S
C509 H501 0.950 . S
C509 C507 1.327 . S
C510 C498 1.349 . S
C510 H504 0.950 . S
C510 C511 1.327 . S
C511 H505 0.950 . S
C511 C510 1.327 . S
C511 C515 1.429 . S
C512 C495 1.574 1_556 S
C512 H506 0.949 . S
C512 C516 1.368 . S
C513 C494 1.429 . S
C513 C507 1.429 . S
C513 C514 1.523 . S
C514 C495 1.368 . S
C514 C508 1.368 . S
C514 C513 1.523 . S
C515 C499 1.429 . S
C515 C511 1.429 . S
C515 C516 1.523 . S
C516 C500 1.368 1_556 S
C516 C512 1.368 . S
C516 C515 1.523 . S
H517 C492 0.950 . S
H518 C494 0.950 . S
H519 C495 0.949 . S
H520 C497 0.950 . S
H521 C499 0.950 . S
C522 C523 1.360 . S
C522 C524 1.327 . S
C522 H547 0.950 . S
C523 C522 1.360 . S
C523 C539 1.338 1_655 S
C524 C522 1.327 . S
C524 C543 1.426 . S
C524 H548 0.950 . S
C525 C542 1.574 1_554 S
C525 C544 1.367 . S
C525 H549 0.949 . S
H526 C530 0.949 . S
C527 C528 1.383 . S
C527 C529 1.327 . S
C527 H550 0.950 . S
C528 C527 1.383 . S
C528 C540 1.315 1_455 S
C529 C527 1.327 . S
C529 C545 1.448 . S
C529 H551 0.950 . S
C530 H526 0.949 . S
C530 C538 1.574 . S
C530 C546 1.356 1_654 S
H531 C539 0.950 . S
H532 C537 0.950 . S
H533 C538 0.949 . S
H534 C540 0.950 . S
H535 C541 0.950 . S
H536 C542 0.949 . S
C537 H532 0.950 . S
C537 C539 1.327 . S
C537 C543 1.431 1_455 S
C538 C530 1.574 . S
C538 H533 0.949 . S
C538 C544 1.370 1_655 S
C539 C523 1.338 1_455 S
C539 H531 0.950 . S
C539 C537 1.327 . S
C540 C528 1.315 1_655 S
C540 H534 0.950 . S
C540 C541 1.327 . S
C541 H535 0.950 . S
C541 C540 1.327 . S
C541 C545 1.410 1_655 S
C542 C525 1.574 1_556 S
C542 H536 0.949 . S
C542 C546 1.381 . S
C543 C524 1.426 . S
C543 C537 1.431 1_655 S
C543 C544 1.523 1_655 S
C544 C525 1.367 . S
C544 C538 1.370 1_455 S
C544 C543 1.523 1_455 S
C545 C529 1.448 . S
C545 C541 1.410 1_455 S
C545 C546 1.523 . S
C546 C530 1.356 1_456 S
C546 C542 1.381 . S
C546 C545 1.523 . S
H547 C522 0.950 . S
H548 C524 0.950 . S
H549 C525 0.949 . S
H550 C527 0.950 . S
H551 C529 0.950 . S
C552 C553 1.349 1_655 S
C552 C554 1.327 . S
C552 H577 0.950 . S
C553 C552 1.349 1_455 S
C553 C569 1.349 . S
C554 C552 1.327 . S
C554 C573 1.449 . S
C554 H578 0.950 . S
C555 C572 1.581 . S
C555 C574 1.368 1_455 S
C555 H579 0.949 . S
H556 C560 0.949 . S
C557 C558 1.349 . S
C557 C559 1.327 . S
C557 H580 0.950 . S
C558 C557 1.349 . S
C558 C570 1.349 . S
C559 C557 1.327 . S
C559 C575 1.429 . S
C559 H581 0.950 1_655 S
C560 H556 0.949 . S
C560 C568 1.574 . S
C560 C576 1.368 . S
H561 C569 0.950 . S
H562 C567 0.950 . S
H563 C568 0.949 . S
H564 C570 0.950 . S
H565 C571 0.950 . S
H566 C572 0.964 . S
C567 H562 0.950 . S
C567 C569 1.327 . S
C567 C573 1.400 1_455 S
C568 C560 1.574 . S
C568 H563 0.949 . S
C568 C574 1.368 . S
C569 C553 1.349 . S
C569 H561 0.950 . S
C569 C567 1.327 . S
C570 C558 1.349 . S
C570 H564 0.950 . S
C570 C571 1.327 . S
C571 H565 0.950 . S
C571 C570 1.327 . S
C571 C575 1.429 . S
C572 C555 1.581 . S
C572 H566 0.964 . S
C572 C576 1.346 1_455 S
C573 C554 1.449 . S
C573 C567 1.400 1_655 S
C573 C574 1.533 . S
C574 C555 1.368 1_655 S
C574 C568 1.368 . S
C574 C573 1.533 . S
C575 C559 1.429 . S
C575 C571 1.429 . S
C575 C576 1.523 . S
C576 C560 1.368 . S
C576 C572 1.346 1_655 S
C576 C575 1.523 . S
H577 C552 0.950 . S
H578 C554 0.950 . S
H579 C555 0.949 . S
H580 C557 0.950 . S
H581 C559 0.950 1_455 S
C582 C583 1.349 1_565 S
C582 C584 1.327 . S
C582 H607 0.950 . S
C583 C582 1.349 1_545 S
C583 C599 1.349 . S
C584 C582 1.327 . S
C584 C603 1.455 . S
C584 H608 0.950 . S
C585 C602 1.574 . S
C585 C604 1.368 1_545 S
C585 H609 0.949 . S
H586 C590 0.949 . S
C587 C588 1.349 . S
C587 C589 1.327 . S
C587 H610 0.950 . S
C588 C587 1.349 . S
C588 C600 1.349 . S
C589 C587 1.327 . S
C589 C605 1.429 . S
C589 H611 0.950 1_565 S
C590 H586 0.949 . S
C590 C598 1.574 . S
C590 C606 1.368 . S
H591 C599 0.950 . S
H592 C597 0.950 . S
H593 C598 0.949 . S
H594 C600 0.950 . S
H595 C601 0.950 . S
H596 C602 0.949 . S
C597 H592 0.950 . S
C597 C599 1.327 . S
C597 C603 1.393 1_545 S
C598 C590 1.574 . S
C598 H593 0.949 . S
C598 C604 1.368 . S
C599 C583 1.349 . S
C599 H591 0.950 . S
C599 C597 1.327 . S
C600 C588 1.349 . S
C600 H594 0.950 . S
C600 C601 1.327 . S
C601 H595 0.950 . S
C601 C600 1.327 . S
C601 C605 1.429 . S
C602 C585 1.574 . S
C602 H596 0.949 . S
C602 C606 1.368 1_545 S
C603 C584 1.455 . S
C603 C597 1.393 1_565 S
C603 C604 1.534 . S
C604 C585 1.368 1_565 S
C604 C598 1.368 . S
C604 C603 1.534 . S
C605 C589 1.429 . S
C605 C601 1.429 . S
C605 C606 1.523 . S
C606 C590 1.368 . S
C606 C602 1.368 1_565 S
C606 C605 1.523 . S
H607 C582 0.950 . S
H608 C584 0.950 . S
H609 C585 0.949 . S
H610 C587 0.950 . S
H611 C589 0.950 1_545 S
C612 C613 1.349 . S
C612 C614 1.327 . S
C612 H637 0.950 . S
C613 C612 1.349 . S
C613 C629 1.349 . S
C614 C612 1.327 . S
C614 C633 1.429 . S
C614 H638 0.950 . S
C615 C632 1.574 . S
C615 C634 1.368 . S
C615 H639 0.949 . S
H616 C620 0.949 . S
C617 C618 1.349 . S
C617 C619 1.327 . S
C617 H640 0.950 . S
C618 C617 1.349 . S
C618 C630 1.349 . S
C619 C617 1.327 . S
C619 C635 1.429 . S
C619 H641 0.950 . S
C620 H616 0.949 . S
C620 C628 1.574 . S
C620 C636 1.368 . S
H621 C629 0.950 1_556 S
H622 C627 0.950 . S
H623 C628 0.949 . S
H624 C630 0.950 . S
H625 C631 0.950 . S
H626 C632 0.949 . S
C627 H622 0.950 . S
C627 C629 1.327 . S
C627 C633 1.429 . S
C628 C620 1.574 . S
C628 H623 0.949 . S
C628 C634 1.368 . S
C629 C613 1.349 . S
C629 H621 0.950 1_554 S
C629 C627 1.327 . S
C630 C618 1.349 . S
C630 H624 0.950 . S
C630 C631 1.327 . S
C631 H625 0.950 . S
C631 C630 1.327 . S
C631 C635 1.429 . S
C632 C615 1.574 . S
C632 H626 0.949 . S
C632 C636 1.368 . S
C633 C614 1.429 . S
C633 C627 1.429 . S
C633 C634 1.523 . S
C634 C615 1.368 . S
C634 C628 1.368 . S
C634 C633 1.523 . S
C635 C619 1.429 . S
C635 C631 1.429 . S
C635 C636 1.523 . S
C636 C620 1.368 . S
C636 C632 1.368 . S
C636 C635 1.523 . S
H637 C612 0.950 . S
H638 C614 0.950 . S
H639 C615 0.949 . S
H640 C617 0.950 . S
H641 C619 0.950 . S
C642 C643 1.349 . S
C642 C644 1.327 . S
C642 H667 0.950 . S
C643 C642 1.349 . S
C643 C659 1.349 . S
C644 C642 1.327 . S
C644 C663 1.429 . S
C644 H668 0.950 . S
C645 C662 1.574 . S
C645 C664 1.368 . S
C645 H669 0.949 . S
H646 C650 0.949 . S
C647 C648 1.349 . S
C647 C649 1.327 . S
C647 H670 0.950 . S
C648 C647 1.349 . S
C648 C660 1.349 . S
C649 C647 1.327 . S
C649 C665 1.429 . S
C649 H671 0.950 . S
C650 H646 0.949 . S
C650 C658 1.574 . S
C650 C666 1.368 . S
H651 C659 0.950 . S
H652 C657 0.950 . S
H653 C658 0.949 . S
H654 C660 0.950 . S
H655 C661 0.950 . S
H656 C662 0.949 . S
C657 H652 0.950 . S
C657 C659 1.327 . S
C657 C663 1.429 . S
C658 C650 1.574 . S
C658 H653 0.949 . S
C658 C664 1.368 . S
C659 C643 1.349 . S
C659 H651 0.950 . S
C659 C657 1.327 . S
C660 C648 1.349 . S
C660 H654 0.950 . S
C660 C661 1.327 . S
C661 H655 0.950 . S
C661 C660 1.327 . S
C661 C665 1.429 . S
C662 C645 1.574 . S
C662 H656 0.949 . S
C662 C666 1.368 . S
C663 C644 1.429 . S
C663 C657 1.429 . S
C663 C664 1.523 . S
C664 C645 1.368 . S
C664 C658 1.368 . S
C664 C663 1.523 . S
C665 C649 1.429 . S
C665 C661 1.429 . S
C665 C666 1.523 . S
C666 C650 1.368 . S
C666 C662 1.368 . S
C666 C665 1.523 . S
H667 C642 0.950 . S
H668 C644 0.950 . S
H669 C645 0.949 . S
H670 C647 0.950 . S
H671 C649 0.950 . S
C672 C673 1.349 1_455 S
C672 C674 1.327 . S
C672 H697 0.950 . S
C673 C672 1.349 1_655 S
C673 C689 1.349 . S
C674 C672 1.327 . S
C674 C693 1.429 . S
C674 H698 0.950 . S
C675 C692 1.568 1_655 S
C675 C694 1.352 1_655 S
C675 H699 0.970 . S
H676 C680 0.949 . S
C677 C678 1.349 . S
C677 C679 1.327 . S
C677 H700 0.950 . S
C678 C677 1.349 . S
C678 C690 1.349 1_556 S
C679 C677 1.327 . S
C679 C695 1.429 1_556 S
C679 H701 0.950 . S
C680 H676 0.949 . S
C680 C688 1.574 . S
C680 C696 1.368 . S
H681 C689 0.950 . S
H682 C687 0.950 . S
H683 C688 0.949 . S
H684 C690 0.950 . S
H685 C691 0.950 . S
H686 C692 0.949 1_655 S
C687 H682 0.950 . S
C687 C689 1.327 . S
C687 C693 1.429 1_655 S
C688 C680 1.574 . S
C688 H683 0.949 . S
C688 C694 1.368 . S
C689 C673 1.349 . S
C689 H681 0.950 . S
C689 C687 1.327 . S
C690 C678 1.349 1_554 S
C690 H684 0.950 . S
C690 C691 1.327 . S
C691 H685 0.950 . S
C691 C690 1.327 . S
C691 C695 1.429 . S
C692 C675 1.568 1_455 S
C692 H686 0.949 1_455 S
C692 C696 1.368 . S
C693 C674 1.429 . S
C693 C687 1.429 1_455 S
C693 C694 1.523 . S
C694 C675 1.352 1_455 S
C694 C688 1.368 . S
C694 C693 1.523 . S
C695 C679 1.429 1_554 S
C695 C691 1.429 . S
C695 C696 1.523 . S
C696 C680 1.368 . S
C696 C692 1.368 . S
C696 C695 1.523 . S
H697 C672 0.950 . S
H698 C674 0.950 . S
H699 C675 0.970 . S
H700 C677 0.950 . S
H701 C679 0.950 . S
C702 C703 1.349 1_545 S
C702 C704 1.327 . S
C702 H727 0.950 . S
C703 C702 1.349 1_565 S
C703 C719 1.349 . S
C704 C702 1.327 . S
C704 C723 1.429 . S
C704 H728 0.950 . S
C705 C722 1.579 . S
C705 C724 1.368 1_565 S
C705 H729 0.949 . S
H706 C710 0.949 . S
C707 C708 1.349 1_554 S
C707 C709 1.327 . S
C707 H730 0.950 . S
C708 C707 1.349 1_556 S
C708 C720 1.349 . S
C709 C707 1.327 . S
C709 C725 1.429 . S
C709 H731 0.950 1_545 S
C710 H706 0.949 . S
C710 C718 1.574 . S
C710 C726 1.368 . S
H711 C719 0.950 . S
H712 C717 0.950 . S
H713 C718 0.949 . S
H714 C720 0.950 . S
H715 C721 0.950 1_556 S
H716 C722 0.965 . S
C717 H712 0.950 . S
C717 C719 1.327 . S
C717 C723 1.429 1_565 S
C718 C710 1.574 . S
C718 H713 0.949 . S
C718 C724 1.368 . S
C719 C703 1.349 . S
C719 H711 0.950 . S
C719 C717 1.327 . S
C720 C708 1.349 . S
C720 H714 0.950 . S
C720 C721 1.327 1_556 S
C721 H715 0.950 1_554 S
C721 C720 1.327 1_554 S
C721 C725 1.429 . S
C722 C705 1.579 . S
C722 H716 0.965 . S
C722 C726 1.346 1_565 S
C723 C704 1.429 . S
C723 C717 1.429 1_545 S
C723 C724 1.523 . S
C724 C705 1.368 1_545 S
C724 C718 1.368 . S
C724 C723 1.523 . S
C725 C709 1.429 . S
C725 C721 1.429 . S
C725 C726 1.523 . S
C726 C710 1.368 . S
C726 C722 1.346 1_545 S
C726 C725 1.523 . S
H727 C702 0.950 . S
H728 C704 0.950 . S
H729 C705 0.949 . S
H730 C707 0.950 . S
H731 C709 0.950 1_565 S
C732 C733 1.349 . S
C732 C734 1.327 . S
C732 H757 0.950 . S
C733 C732 1.349 . S
C733 C749 1.349 . S
C734 C732 1.327 . S
C734 C753 1.429 . S
C734 H758 0.950 . S
C735 C752 1.574 . S
C735 C754 1.368 . S
C735 H759 0.949 . S
H736 C740 0.949 . S
C737 C738 1.349 1_554 S
C737 C739 1.327 . S
C737 H760 0.950 . S
C738 C737 1.349 1_556 S
C738 C750 1.349 . S
C739 C737 1.327 . S
C739 C755 1.429 . S
C739 H761 0.950 . S
C740 H736 0.949 . S
C740 C748 1.574 . S
C740 C756 1.368 . S
H741 C749 0.950 . S
H742 C747 0.950 . S
H743 C748 0.949 . S
H744 C750 0.950 . S
H745 C751 0.950 1_556 S
H746 C752 0.949 . S
C747 H742 0.950 . S
C747 C749 1.327 . S
C747 C753 1.429 . S
C748 C740 1.574 . S
C748 H743 0.949 . S
C748 C754 1.368 . S
C749 C733 1.349 . S
C749 H741 0.950 . S
C749 C747 1.327 . S
C750 C738 1.349 . S
C750 H744 0.950 . S
C750 C751 1.327 1_556 S
C751 H745 0.950 1_554 S
C751 C750 1.327 1_554 S
C751 C755 1.429 . S
C752 C735 1.574 . S
C752 H746 0.949 . S
C752 C756 1.368 . S
C753 C734 1.429 . S
C753 C747 1.429 . S
C753 C754 1.523 . S
C754 C735 1.368 . S
C754 C748 1.368 . S
C754 C753 1.523 . S
C755 C739 1.429 . S
C755 C751 1.429 . S
C755 C756 1.523 . S
C756 C740 1.368 . S
C756 C752 1.368 . S
C756 C755 1.523 . S
H757 C732 0.950 . S
H758 C734 0.950 . S
H759 C735 0.949 . S
H760 C737 0.950 . S
H761 C739 0.950 . S
C762 C763 1.349 . S
C762 C764 1.327 . S
C762 H787 0.950 . S
C763 C762 1.349 . S
C763 C779 1.349 . S
C764 C762 1.327 . S
C764 C783 1.429 . S
C764 H788 0.950 . S
C765 C782 1.574 . S
C765 C784 1.368 . S
C765 H789 0.949 . S
H766 C770 0.949 . S
C767 C768 1.349 . S
C767 C769 1.327 1_556 S
C767 H790 0.950 . S
C768 C767 1.349 . S
C768 C780 1.349 1_556 S
C769 C767 1.327 1_554 S
C769 C785 1.429 . S
C769 H791 0.950 . S
C770 H766 0.949 . S
C770 C778 1.574 . S
C770 C786 1.368 . S
H771 C779 0.950 . S
H772 C777 0.950 . S
H773 C778 0.949 . S
H774 C780 0.950 . S
H775 C781 0.950 . S
H776 C782 0.949 . S
C777 H772 0.950 . S
C777 C779 1.327 . S
C777 C783 1.429 . S
C778 C770 1.574 . S
C778 H773 0.949 . S
C778 C784 1.368 . S
C779 C763 1.349 . S
C779 H771 0.950 . S
C779 C777 1.327 . S
C780 C768 1.349 1_554 S
C780 H774 0.950 . S
C780 C781 1.327 . S
C781 H775 0.950 . S
C781 C780 1.327 . S
C781 C785 1.429 . S
C782 C765 1.574 . S
C782 H776 0.949 . S
C782 C786 1.368 . S
C783 C764 1.429 . S
C783 C777 1.429 . S
C783 C784 1.523 . S
C784 C765 1.368 . S
C784 C778 1.368 . S
C784 C783 1.523 . S
C785 C769 1.429 . S
C785 C781 1.429 . S
C785 C786 1.523 . S
C786 C770 1.368 . S
C786 C782 1.368 . S
C786 C785 1.523 . S
H787 C762 0.950 . S
H788 C764 0.950 . S
H789 C765 0.949 . S
H790 C767 0.950 . S
H791 C769 0.950 . S
C792 C793 1.349 1_655 S
C792 C794 1.327 . S
C792 H817 0.950 . S
C793 C792 1.349 1_455 S
C793 C809 1.349 . S
C794 C792 1.327 . S
C794 C813 1.429 1_655 S
C794 H818 0.950 . S
C795 C812 1.574 . S
C795 C814 1.368 . S
C795 H819 0.949 . S
H796 C800 0.955 . S
C797 C798 1.349 . S
C797 C799 1.327 . S
C797 H820 0.950 . S
C798 C797 1.349 . S
C798 C810 1.349 . S
C799 C797 1.327 . S
C799 C815 1.429 . S
C799 H821 0.950 . S
C800 H796 0.955 . S
C800 C808 1.573 . S
C800 C816 1.361 1_655 S
H801 C809 0.950 . S
H802 C807 0.950 . S
H803 C808 0.979 . S
H804 C810 0.950 1_655 S
H805 C811 0.950 1_655 S
H806 C812 0.949 . S
C807 H802 0.950 . S
C807 C809 1.327 . S
C807 C813 1.429 . S
C808 C800 1.573 . S
C808 H803 0.979 . S
C808 C814 1.341 1_655 S
C809 C793 1.349 . S
C809 H801 0.950 . S
C809 C807 1.327 . S
C810 C798 1.349 . S
C810 H804 0.950 1_455 S
C810 C811 1.327 . S
C811 H805 0.950 1_455 S
C811 C810 1.327 . S
C811 C815 1.429 . S
C812 C795 1.574 . S
C812 H806 0.949 . S
C812 C816 1.368 . S
C813 C794 1.429 1_455 S
C813 C807 1.429 . S
C813 C814 1.523 . S
C814 C795 1.368 . S
C814 C808 1.341 1_455 S
C814 C813 1.523 . S
C815 C799 1.429 . S
C815 C811 1.429 . S
C815 C816 1.523 . S
C816 C800 1.361 1_455 S
C816 C812 1.368 . S
C816 C815 1.523 . S
H817 C792 0.950 . S
H818 C794 0.950 . S
H819 C795 0.949 . S
H820 C797 0.950 . S
H821 C799 0.950 . S
C822 C823 1.349 . S
C822 C824 1.327 . S
C822 H847 0.950 . S
C823 C822 1.349 . S
C823 C839 1.349 1_545 S
C824 C822 1.327 . S
C824 C843 1.429 . S
C824 H848 0.950 . S
C825 C842 1.574 . S
C825 C844 1.368 1_565 S
C825 H849 0.949 . S
H826 C830 0.949 . S
C827 C828 1.349 1_565 S
C827 C829 1.327 . S
C827 H850 0.950 . S
C828 C827 1.349 1_545 S
C828 C840 1.349 . S
C829 C827 1.327 . S
C829 C845 1.429 1_565 S
C829 H851 0.950 . S
C830 H826 0.949 . S
C830 C838 1.574 . S
C830 C846 1.368 . S
H831 C839 0.950 . S
H832 C837 0.950 . S
H833 C838 0.949 . S
H834 C840 0.950 . S
H835 C841 0.950 . S
H836 C842 0.949 . S
C837 H832 0.950 . S
C837 C839 1.327 . S
C837 C843 1.429 1_565 S
C838 C830 1.574 . S
C838 H833 0.949 . S
C838 C844 1.368 . S
C839 C823 1.349 1_565 S
C839 H831 0.950 . S
C839 C837 1.327 . S
C840 C828 1.349 . S
C840 H834 0.950 . S
C840 C841 1.327 . S
C841 H835 0.950 . S
C841 C840 1.327 . S
C841 C845 1.429 . S
C842 C825 1.574 . S
C842 H836 0.949 . S
C842 C846 1.368 1_565 S
C843 C824 1.429 . S
C843 C837 1.429 1_545 S
C843 C844 1.523 . S
C844 C825 1.368 1_545 S
C844 C838 1.368 . S
C844 C843 1.523 . S
C845 C829 1.429 1_545 S
C845 C841 1.429 . S
C845 C846 1.523 . S
C846 C830 1.368 . S
C846 C842 1.368 1_545 S
C846 C845 1.523 . S
H847 C822 0.950 . S
H848 C824 0.950 . S
H849 C825 0.949 . S
H850 C827 0.950 . S
H851 C829 0.950 . S
C852 C853 1.349 . S
C852 C854 1.327 . S
C852 H877 0.950 . S
C853 C852 1.349 . S
C853 C869 1.349 . S
C854 C852 1.327 . S
C854 C873 1.429 . S
C854 H878 0.950 . S
C855 C872 1.574 . S
C855 C874 1.368 . S
C855 H879 0.949 . S
H856 C860 0.949 . S
C857 C858 1.349 . S
C857 C859 1.327 . S
C857 H880 0.950 . S
C858 C857 1.349 . S
C858 C870 1.349 . S
C859 C857 1.327 . S
C859 C875 1.429 . S
C859 H881 0.950 . S
C860 H856 0.949 . S
C860 C868 1.574 . S
C860 C876 1.368 . S
H861 C869 0.950 . S
H862 C867 0.950 . S
H863 C868 0.949 . S
H864 C870 0.950 . S
H865 C871 0.950 . S
H866 C872 0.949 . S
C867 H862 0.950 . S
C867 C869 1.327 . S
C867 C873 1.429 . S
C868 C860 1.574 . S
C868 H863 0.949 . S
C868 C874 1.368 . S
C869 C853 1.349 . S
C869 H861 0.950 . S
C869 C867 1.327 . S
C870 C858 1.349 . S
C870 H864 0.950 . S
C870 C871 1.327 . S
C871 H865 0.950 . S
C871 C870 1.327 . S
C871 C875 1.429 . S
C872 C855 1.574 . S
C872 H866 0.949 . S
C872 C876 1.368 . S
C873 C854 1.429 . S
C873 C867 1.429 . S
C873 C874 1.523 . S
C874 C855 1.368 . S
C874 C868 1.368 . S
C874 C873 1.523 . S
C875 C859 1.429 . S
C875 C871 1.429 . S
C875 C876 1.523 . S
C876 C860 1.368 . S
C876 C872 1.368 . S
C876 C875 1.523 . S
H877 C852 0.950 . S
H878 C854 0.950 . S
H879 C855 0.949 . S
H880 C857 0.950 . S
H881 C859 0.950 . S
C882 C883 1.349 . S
C882 C884 1.327 . S
C882 H907 0.950 . S
C883 C882 1.349 . S
C883 C899 1.349 . S
C884 C882 1.327 . S
C884 C903 1.429 . S
C884 H908 0.950 . S
C885 C902 1.574 . S
C885 C904 1.368 . S
C885 H909 0.949 . S
H886 C890 0.949 . S
C887 C888 1.349 . S
C887 C889 1.327 . S
C887 H910 0.950 . S
C888 C887 1.349 . S
C888 C900 1.349 . S
C889 C887 1.327 . S
C889 C905 1.429 . S
C889 H911 0.950 . S
C890 H886 0.949 . S
C890 C898 1.574 . S
C890 C906 1.368 . S
H891 C899 0.950 . S
H892 C897 0.950 . S
H893 C898 0.949 . S
H894 C900 0.950 . S
H895 C901 0.950 . S
H896 C902 0.949 . S
C897 H892 0.950 . S
C897 C899 1.327 . S
C897 C903 1.429 . S
C898 C890 1.574 . S
C898 H893 0.949 . S
C898 C904 1.368 . S
C899 C883 1.349 . S
C899 H891 0.950 . S
C899 C897 1.327 . S
C900 C888 1.349 . S
C900 H894 0.950 . S
C900 C901 1.327 . S
C901 H895 0.950 . S
C901 C900 1.327 . S
C901 C905 1.429 . S
C902 C885 1.574 . S
C902 H896 0.949 . S
C902 C906 1.368 . S
C903 C884 1.429 . S
C903 C897 1.429 . S
C903 C904 1.523 . S
C904 C885 1.368 . S
C904 C898 1.368 . S
C904 C903 1.523 . S
C905 C889 1.429 . S
C905 C901 1.429 . S
C905 C906 1.523 . S
C906 C890 1.368 . S
C906 C902 1.368 . S
C906 C905 1.523 . S
H907 C882 0.950 . S
H908 C884 0.950 . S
H909 C885 0.949 . S
H910 C887 0.950 . S
H911 C889 0.950 . S
C912 C913 1.318 1_455 S
C912 C914 1.327 . S
C912 H937 0.950 . S
C913 C912 1.318 1_655 S
C913 C929 1.384 . S
C914 C912 1.327 . S
C914 C933 1.429 1_455 S
C914 H938 0.950 . S
C915 C932 1.574 . S
C915 C934 1.368 . S
C915 H939 0.949 . S
H916 C920 0.949 . S
C917 C918 1.349 . S
C917 C919 1.327 . S
C917 H940 0.950 . S
C918 C917 1.349 . S
C918 C930 1.349 1_655 S
C919 C917 1.327 . S
C919 C935 1.429 . S
C919 H941 0.950 . S
C920 H916 0.949 . S
C920 C928 1.574 . S
C920 C936 1.368 1_455 S
H921 C929 0.950 . S
H922 C927 0.950 . S
H923 C928 0.949 . S
H924 C930 0.950 . S
H925 C931 0.950 . S
H926 C932 0.949 . S
C927 H922 0.950 . S
C927 C929 1.327 . S
C927 C933 1.429 . S
C928 C920 1.574 . S
C928 H923 0.949 . S
C928 C934 1.368 1_455 S
C929 C913 1.384 . S
C929 H921 0.950 . S
C929 C927 1.327 . S
C930 C918 1.349 1_455 S
C930 H924 0.950 . S
C930 C931 1.327 . S
C931 H925 0.950 . S
C931 C930 1.327 . S
C931 C935 1.429 1_455 S
C932 C915 1.574 . S
C932 H926 0.949 . S
C932 C936 1.368 . S
C933 C914 1.429 1_655 S
C933 C927 1.429 . S
C933 C934 1.523 . S
C934 C915 1.368 . S
C934 C928 1.368 1_655 S
C934 C933 1.523 . S
C935 C919 1.429 . S
C935 C931 1.429 1_655 S
C935 C936 1.523 . S
C936 C920 1.368 1_655 S
C936 C932 1.368 . S
C936 C935 1.523 . S
H937 C912 0.950 . S
H938 C914 0.950 . S
H939 C915 0.949 . S
H940 C917 0.950 . S
H941 C919 0.950 . S
C942 C943 1.349 1_545 S
C942 C944 1.327 . S
C942 H967 0.950 . S
C943 C942 1.349 1_565 S
C943 C959 1.349 . S
C944 C942 1.327 . S
C944 C963 1.429 1_545 S
C944 H968 0.950 . S
C945 C962 1.574 . S
C945 C964 1.368 . S
C945 H969 0.949 . S
H946 C950 0.949 . S
C947 C948 1.349 . S
C947 C949 1.327 . S
C947 H970 0.950 . S
C948 C947 1.349 . S
C948 C960 1.349 1_565 S
C949 C947 1.327 . S
C949 C965 1.429 . S
C949 H971 0.950 . S
C950 H946 0.949 . S
C950 C958 1.574 . S
C950 C966 1.368 1_545 S
H951 C959 0.950 . S
H952 C957 0.950 . S
H953 C958 0.949 . S
H954 C960 0.950 . S
H955 C961 0.950 . S
H956 C962 0.949 . S
C957 H952 0.950 . S
C957 C959 1.327 . S
C957 C963 1.429 . S
C958 C950 1.574 . S
C958 H953 0.949 . S
C958 C964 1.368 1_545 S
C959 C943 1.349 . S
C959 H951 0.950 . S
C959 C957 1.327 . S
C960 C948 1.349 1_545 S
C960 H954 0.950 . S
C960 C961 1.327 . S
C961 H955 0.950 . S
C961 C960 1.327 . S
C961 C965 1.429 1_545 S
C962 C945 1.574 . S
C962 H956 0.949 . S
C962 C966 1.368 . S
C963 C944 1.429 1_565 S
C963 C957 1.429 . S
C963 C964 1.523 . S
C964 C945 1.368 . S
C964 C958 1.368 1_565 S
C964 C963 1.523 . S
C965 C949 1.429 . S
C965 C961 1.429 1_565 S
C965 C966 1.523 . S
C966 C950 1.368 1_565 S
C966 C962 1.368 . S
C966 C965 1.523 . S
H967 C942 0.950 . S
H968 C944 0.950 . S
H969 C945 0.949 . S
H970 C947 0.950 . S
H971 C949 0.950 . S
C972 C973 1.349 . S
C972 C974 1.327 . S
C972 H997 0.950 . S
C973 C972 1.349 . S
C973 C989 1.349 . S
C974 C972 1.327 . S
C974 C993 1.429 . S
C974 H998 0.950 . S
C975 C992 1.574 . S
C975 C994 1.368 . S
C975 H999 0.949 . S
H976 C980 0.949 . S
C977 C978 1.349 . S
C977 C979 1.327 . S
C977 H1000 0.950 . S
C978 C977 1.349 . S
C978 C990 1.349 . S
C979 C977 1.327 . S
C979 C995 1.429 . S
C979 H1001 0.950 . S
C980 H976 0.949 . S
C980 C988 1.574 . S
C980 C996 1.368 . S
H981 C989 0.950 . S
H982 C987 0.950 . S
H983 C988 0.949 . S
H984 C990 0.950 . S
H985 C991 0.950 . S
H986 C992 0.949 . S
C987 H982 0.950 . S
C987 C989 1.327 . S
C987 C993 1.429 . S
C988 C980 1.574 . S
C988 H983 0.949 . S
C988 C994 1.368 . S
C989 C973 1.349 . S
C989 H981 0.950 . S
C989 C987 1.327 . S
C990 C978 1.349 . S
C990 H984 0.950 . S
C990 C991 1.327 . S
C991 H985 0.950 . S
C991 C990 1.327 . S
C991 C995 1.429 . S
C992 C975 1.574 . S
C992 H986 0.949 . S
C992 C996 1.368 . S
C993 C974 1.429 . S
C993 C987 1.429 . S
C993 C994 1.523 . S
C994 C975 1.368 . S
C994 C988 1.368 . S
C994 C993 1.523 . S
C995 C979 1.429 . S
C995 C991 1.429 . S
C995 C996 1.523 . S
C996 C980 1.368 . S
C996 C992 1.368 . S
C996 C995 1.523 . S
H997 C972 0.950 . S
H998 C974 0.950 . S
H999 C975 0.949 . S
H1000 C977 0.950 . S
H1001 C979 0.950 . S
C1002 C1003 1.349 . S
C1002 C1004 1.327 . S
C1002 H1027 0.950 . S
C1003 C1002 1.349 . S
C1003 C1019 1.349 . S
C1004 C1002 1.327 . S
C1004 C1023 1.429 . S
C1004 H1028 0.950 . S
C1005 C1022 1.574 . S
C1005 C1024 1.368 . S
C1005 H1029 0.949 . S
H1006 C1010 0.949 . S
C1007 C1008 1.349 . S
C1007 C1009 1.327 . S
C1007 H1030 0.950 . S
C1008 C1007 1.349 . S
C1008 C1020 1.349 . S
C1009 C1007 1.327 . S
C1009 C1025 1.429 . S
C1009 H1031 0.950 . S
C1010 H1006 0.949 . S
C1010 C1018 1.574 . S
C1010 C1026 1.368 . S
H1011 C1019 0.950 . S
H1012 C1017 0.950 . S
H1013 C1018 0.949 . S
H1014 C1020 0.950 . S
H1015 C1021 0.950 . S
H1016 C1022 0.949 . S
C1017 H1012 0.950 . S
C1017 C1019 1.327 . S
C1017 C1023 1.429 . S
C1018 C1010 1.574 . S
C1018 H1013 0.949 . S
C1018 C1024 1.368 . S
C1019 C1003 1.349 . S
C1019 H1011 0.950 . S
C1019 C1017 1.327 . S
C1020 C1008 1.349 . S
C1020 H1014 0.950 . S
C1020 C1021 1.327 . S
C1021 H1015 0.950 . S
C1021 C1020 1.327 . S
C1021 C1025 1.429 . S
C1022 C1005 1.574 . S
C1022 H1016 0.949 . S
C1022 C1026 1.368 . S
C1023 C1004 1.429 . S
C1023 C1017 1.429 . S
C1023 C1024 1.523 . S
C1024 C1005 1.368 . S
C1024 C1018 1.368 . S
C1024 C1023 1.523 . S
C1025 C1009 1.429 . S
C1025 C1021 1.429 . S
C1025 C1026 1.523 . S
C1026 C1010 1.368 . S
C1026 C1022 1.368 . S
C1026 C1025 1.523 . S
H1027 C1002 0.950 . S
H1028 C1004 0.950 . S
H1029 C1005 0.949 . S
H1030 C1007 0.950 . S
H1031 C1009 0.950 . S
C313 C125 1.798 1_545 S
C318 C161 1.840 . S
C348 C201 1.841 . S
C343 C144 1.802 . S
C378 C241 1.840 . S
C373 C87 1.802 . S
C408 C281 1.839 . S
C403 C106 1.799 1_455 S
C438 C170 1.843 . S
C433 C49 1.809 . S
C463 C68 1.804 . S
C468 C210 1.840 . S
C493 C11 1.804 . S
C498 C250 1.840 . S
C523 C30 1.807 . S
C528 C290 1.844 . S
C558 C167 0.359 . S
C553 C97 0.461 . S
C588 C207 0.359 . S
C583 C116 0.461 . S
C618 C247 0.360 . S
C613 C135 0.461 . S
C643 C78 0.461 . S
C648 C287 0.360 . S
C673 C21 0.464 . S
C678 C158 0.359 . S
C708 C198 0.360 . S
C703 C40 0.466 . S
C738 C238 0.360 . S
C733 C59 0.460 . S
C763 C2 0.460 . S
C768 C278 0.360 . S
C793 C101 1.931 . S
C798 C171 2.095 . S
C823 C120 1.932 . S
C828 C211 2.095 . S
C858 C251 2.095 . S
C853 C139 1.932 . S
C888 C291 2.095 . S
C883 C82 1.931 . S
C913 C25 1.931 . S
C918 C162 2.095 . S
C948 C202 2.095 . S
C943 C44 1.932 . S
C978 C242 2.094 . S
C973 C63 1.930 . S
C1003 C6 1.931 . S
C1008 C282 2.095 . S
