# Generated by pormake.
# Topology zzz, (3,6)-cn, num edge types: 1
# Building blocks:
#     Node 0, Type 0, BuildingBlock: VETTIZ_charged_linker_0, # of connection points: 3
#     Node 1, Type 0, BuildingBlock: VETTIZ_charged_linker_0, # of connection points: 3
#     Node 2, Type 0, BuildingBlock: VETTIZ_charged_linker_0, # of connection points: 3
#     Node 3, Type 0, BuildingBlock: VETTIZ_charged_linker_0, # of connection points: 3
#     Node 4, Type 0, BuildingBlock: VETTIZ_charged_linker_0, # of connection points: 3
#     Node 5, Type 0, BuildingBlock: VETTIZ_charged_linker_0, # of connection points: 3
#     Node 6, Type 0, BuildingBlock: VETTIZ_charged_linker_0, # of connection points: 3
#     Node 7, Type 0, BuildingBlock: VETTIZ_charged_linker_0, # of connection points: 3
#     Node 8, Type 1, BuildingBlock: JUFBIX_clean_sbu_0, # of connection points: 6
#     Node 9, Type 1, BuildingBlock: JUFBIX_clean_sbu_0, # of connection points: 6
#     Node 10, Type 1, BuildingBlock: JUFBIX_clean_sbu_0, # of connection points: 6
#     Node 11, Type 1, BuildingBlock: JUFBIX_clean_sbu_0, # of connection points: 6
#     Edge 12, Type (0, 1), BuildingBlock: ZUJKAS_clean_linker_0, # of connection points: 2
#     Edge 13, Type (0, 1), BuildingBlock: ZUJKAS_clean_linker_0, # of connection points: 2
#     Edge 14, Type (0, 1), BuildingBlock: ZUJKAS_clean_linker_0, # of connection points: 2
#     Edge 15, Type (0, 1), BuildingBlock: ZUJKAS_clean_linker_0, # of connection points: 2
#     Edge 16, Type (0, 1), BuildingBlock: ZUJKAS_clean_linker_0, # of connection points: 2
#     Edge 17, Type (0, 1), BuildingBlock: ZUJKAS_clean_linker_0, # of connection points: 2
#     Edge 18, Type (0, 1), BuildingBlock: ZUJKAS_clean_linker_0, # of connection points: 2
#     Edge 19, Type (0, 1), BuildingBlock: ZUJKAS_clean_linker_0, # of connection points: 2
#     Edge 20, Type (0, 1), BuildingBlock: ZUJKAS_clean_linker_0, # of connection points: 2
#     Edge 21, Type (0, 1), BuildingBlock: ZUJKAS_clean_linker_0, # of connection points: 2
#     Edge 22, Type (0, 1), BuildingBlock: ZUJKAS_clean_linker_0, # of connection points: 2
#     Edge 23, Type (0, 1), BuildingBlock: ZUJKAS_clean_linker_0, # of connection points: 2
#     Edge 24, Type (0, 1), BuildingBlock: ZUJKAS_clean_linker_0, # of connection points: 2
#     Edge 25, Type (0, 1), BuildingBlock: ZUJKAS_clean_linker_0, # of connection points: 2
#     Edge 26, Type (0, 1), BuildingBlock: ZUJKAS_clean_linker_0, # of connection points: 2
#     Edge 27, Type (0, 1), BuildingBlock: ZUJKAS_clean_linker_0, # of connection points: 2
#     Edge 28, Type (0, 1), BuildingBlock: ZUJKAS_clean_linker_0, # of connection points: 2
#     Edge 29, Type (0, 1), BuildingBlock: ZUJKAS_clean_linker_0, # of connection points: 2
#     Edge 30, Type (0, 1), BuildingBlock: ZUJKAS_clean_linker_0, # of connection points: 2
#     Edge 31, Type (0, 1), BuildingBlock: ZUJKAS_clean_linker_0, # of connection points: 2
#     Edge 32, Type (0, 1), BuildingBlock: ZUJKAS_clean_linker_0, # of connection points: 2
#     Edge 33, Type (0, 1), BuildingBlock: ZUJKAS_clean_linker_0, # of connection points: 2
#     Edge 34, Type (0, 1), BuildingBlock: ZUJKAS_clean_linker_0, # of connection points: 2
#     Edge 35, Type (0, 1), BuildingBlock: ZUJKAS_clean_linker_0, # of connection points: 2
# Relax obj value: 0.304
# Max RMSD: 0.225
# Mean RMSD: 0.192
data_MOF--net-zzz--node1-JUFBIX_clean_sbu_0--node2-VETTIZ_charged_linker_0--edge1-ZUJKAS_clean_linker_0
_symmetry_space_group_name_H-M    P1
_symmetry_Int_Tables_number       1
_symmetry_cell_setting            triclinic
loop_
_symmetry_equiv_pos_as_xyz
'x, y, z'
_cell_length_a     70.225053
_cell_length_b     72.265555
_cell_length_c     27.949051
_cell_angle_alpha  84.003059
_cell_angle_beta   90.106062
_cell_angle_gamma 86.789349
loop_
_atom_site_label
_atom_site_type_symbol
_atom_site_fract_x
_atom_site_fract_y
_atom_site_fract_z
_atom_type_partial_charge
C0 C 0.79316 0.56232 0.3997 0.0
C1 C 0.81248 0.56582 0.40749 0.0
C2 C 0.82354 0.57254 0.36824 0.0
C3 C 0.79729 0.57013 0.31382 0.0
C4 C 0.78571 0.56506 0.35232 0.0
C5 C 0.76536 0.5633 0.33576 0.0
H6 H 0.70404 0.56485 0.14383 0.0
C7 C 0.78627 0.57019 0.26906 0.0
C8 C 0.76725 0.56683 0.2811 0.0
H9 H 0.68898 0.55701 0.2937 0.0
H10 H 0.72229 0.55961 0.31668 0.0
H11 H 0.73442 0.5969 0.14837 0.0
H12 H 0.73724 0.53742 0.15352 0.0
H13 H 0.75955 0.54354 0.13106 0.0
H14 H 0.73819 0.55173 0.09743 0.0
H15 H 0.72919 0.58398 0.09886 0.0
H16 H 0.75308 0.59032 0.11035 0.0
C17 C 0.75261 0.57864 0.35629 0.0
C18 C 0.75943 0.54336 0.35174 0.0
C19 C 0.8224 0.56599 0.11378 0.0
C20 C 0.81661 0.56235 0.06769 0.0
C21 C 0.79703 0.56356 0.05616 0.0
C22 C 0.7834 0.56718 0.09103 0.0
C23 C 0.78941 0.56925 0.13814 0.0
C24 C 0.80863 0.56921 0.14843 0.0
C25 C 0.81247 0.57118 0.20052 0.0
C26 C 0.79233 0.57108 0.22052 0.0
C27 C 0.77898 0.57002 0.18384 0.0
C28 C 0.8216 0.5901 0.20373 0.0
C29 C 0.8251 0.55392 0.22148 0.0
C30 C 0.70788 0.56403 0.18162 0.0
C31 C 0.69404 0.56113 0.21701 0.0
C32 C 0.69953 0.5595 0.2659 0.0
C33 C 0.71879 0.56107 0.27903 0.0
C34 C 0.73256 0.56409 0.24278 0.0
C35 C 0.72685 0.56531 0.19505 0.0
C36 C 0.74311 0.56699 0.16076 0.0
C37 C 0.75955 0.56789 0.19522 0.0
C38 C 0.75354 0.56615 0.2435 0.0
C39 C 0.73984 0.58544 0.12745 0.0
C40 C 0.74464 0.54914 0.13399 0.0
H41 H 0.82536 0.57954 0.29341 0.0
H42 H 0.78423 0.55757 0.42952 0.0
H43 H 0.77077 0.53293 0.34285 0.0
H44 H 0.74635 0.53996 0.33342 0.0
H45 H 0.75709 0.5414 0.39121 0.0
H46 H 0.75971 0.59209 0.35282 0.0
H47 H 0.74973 0.57484 0.39505 0.0
H48 H 0.73891 0.5815 0.33689 0.0
H49 H 0.83735 0.56508 0.12377 0.0
H50 H 0.79226 0.56112 0.0206 0.0
H51 H 0.76871 0.56762 0.08031 0.0
H52 H 0.81998 0.5995 0.16962 0.0
H53 H 0.83712 0.5881 0.2118 0.0
H54 H 0.81464 0.59808 0.23139 0.0
H55 H 0.81926 0.5409 0.21112 0.0
H56 H 0.82597 0.55226 0.26101 0.0
H57 H 0.83989 0.55462 0.2077 0.0
H58 H 0.83835 0.5754 0.37337 0.0
C59 C 0.81604 0.57478 0.32171 0.0
C60 C 0.05619 0.81484 0.0943 0.0
C61 C 0.06413 0.83148 0.10473 0.0
C62 C 0.06562 0.83497 0.15333 0.0
C63 C 0.04812 0.80774 0.17826 0.0
C64 C 0.04856 0.80311 0.13167 0.0
C65 C 0.03974 0.78486 0.12728 0.0
H66 H 0.99342 0.71099 0.22796 0.0
C67 C 0.03693 0.79401 0.20725 0.0
C68 C 0.03234 0.78031 0.17813 0.0
H69 H 0.01982 0.71951 0.08835 0.0
H70 H 0.02813 0.74994 0.10401 0.0
H71 H 0.02618 0.73036 0.29238 0.0
H72 H 0.97503 0.75743 0.22289 0.0
H73 H 0.97758 0.76261 0.28288 0.0
H74 H 0.97362 0.73909 0.27123 0.0
H75 H 0.00285 0.72251 0.3075 0.0
H76 H 0.0114 0.74257 0.33165 0.0
C77 C 0.05582 0.77061 0.11423 0.0
C78 C 0.02322 0.78829 0.09002 0.0
C79 C 0.01512 0.81007 0.36999 0.0
C80 C 1.00221 0.80287 0.40424 0.0
C81 C 0.9935 0.78625 0.39626 0.0
C82 C 0.99782 0.77707 0.35481 0.0
C83 C 0.01069 0.78479 0.32057 0.0
C84 C 0.01897 0.80109 0.329 0.0
C85 C 0.03131 0.80842 0.28873 0.0
C86 C 0.02915 0.79402 0.25393 0.0
C87 C 0.01725 0.77989 0.27234 0.0
C88 C 0.05209 0.80827 0.30798 0.0
C89 C 0.02264 0.82794 0.26864 0.0
C90 C 1.00103 0.71955 0.20114 0.0
C91 C 0.00631 0.71276 0.15704 0.0
C92 C 0.01596 0.7243 0.12271 0.0
C93 C 0.0209 0.74197 0.13202 0.0
C94 C 0.01637 0.74837 0.17646 0.0
C95 C 0.00637 0.73749 0.21026 0.0
C96 C 0.00276 0.74739 0.25509 0.0
C97 C 0.01363 0.76509 0.2437 0.0
C98 C 0.02121 0.76548 0.19699 0.0
C99 C 0.01118 0.73507 0.29927 0.0
C100 C 0.98109 0.75184 0.25865 0.0
H101 H 0.05847 0.82721 0.22579 0.0
H102 H 0.05504 0.81137 0.05772 0.0
H103 H 0.01463 0.8013 0.09549 0.0
H104 H 0.01304 0.77713 0.09308 0.0
H105 H 0.02878 0.78978 0.05272 0.0
H106 H 0.0703 0.77531 0.12124 0.0
H107 H 0.0552 0.76833 0.07558 0.0
H108 H 0.05525 0.75701 0.13639 0.0
H109 H 0.02169 0.82305 0.3739 0.0
H110 H 0.98343 0.78035 0.42204 0.0
H111 H 0.99094 0.76443 0.35072 0.0
H112 H 0.05465 0.79776 0.3397 0.0
H113 H 0.05535 0.82205 0.31923 0.0
H114 H 0.06277 0.80421 0.2813 0.0
H115 H 0.00679 0.82803 0.26737 0.0
H116 H 0.02683 0.83235 0.23145 0.0
H117 H 0.02657 0.83878 0.29169 0.0
H118 H 0.07246 0.84711 0.16309 0.0
C119 C 0.05758 0.82329 0.18996 0.0
C120 C 0.81768 0.96842 0.18539 0.0
C121 C 0.82806 0.96192 0.14641 0.0
C122 C 0.82012 0.9486 0.11999 0.0
C123 C 0.79092 0.95125 0.16387 0.0
C124 C 0.79916 0.96226 0.19447 0.0
C125 C 0.78629 0.96485 0.23728 0.0
H126 H 0.69938 0.94736 0.34019 0.0
C127 C 0.77172 0.94763 0.1798 0.0
C128 C 0.76893 0.95424 0.22477 0.0
H129 H 0.74362 0.97757 0.39896 0.0
H130 H 0.76384 0.97229 0.33009 0.0
H131 H 0.69571 0.96417 0.25487 0.0
H132 H 0.72626 0.91414 0.29579 0.0
H133 H 0.71496 0.91245 0.23985 0.0
H134 H 0.70103 0.91967 0.28946 0.0
H135 H 0.68894 0.94447 0.22795 0.0
H136 H 0.7046 0.96079 0.19731 0.0
C137 C 0.78125 0.98584 0.23824 0.0
C138 C 0.79662 0.95569 0.28324 0.0
C139 C 0.72025 0.94636 0.05531 0.0
C140 C 0.70067 0.94353 0.05985 0.0
C141 C 0.69377 0.93496 0.10352 0.0
C142 C 0.70582 0.93131 0.14372 0.0
C143 C 0.72466 0.93668 0.14021 0.0
C144 C 0.73209 0.9425 0.09591 0.0
C145 C 0.75317 0.945 0.09876 0.0
C146 C 0.75629 0.94201 0.15342 0.0
C147 C 0.73916 0.93844 0.17714 0.0
C148 C 0.75753 0.96495 0.07787 0.0
C149 C 0.76363 0.93009 0.07092 0.0
C150 C 0.71361 0.95247 0.33898 0.0
C151 C 0.72009 0.96246 0.37552 0.0
C152 C 0.7384 0.96962 0.3714 0.0
C153 C 0.75009 0.96652 0.33155 0.0
C154 C 0.7432 0.95653 0.29504 0.0
C155 C 0.72504 0.95004 0.29908 0.0
C156 C 0.71884 0.94145 0.25555 0.0
C157 C 0.73662 0.94301 0.22502 0.0
C158 C 0.75108 0.95163 0.24832 0.0
C159 C 0.70119 0.95319 0.23256 0.0
C160 C 0.71494 0.92082 0.27079 0.0
H161 H 0.79674 0.9316 0.11198 0.0
H162 H 0.82389 0.97775 0.20818 0.0
H163 H 0.80306 0.94171 0.27728 0.0
H164 H 0.78691 0.95339 0.31396 0.0
H165 H 0.80825 0.96432 0.2936 0.0
H166 H 0.77643 0.99225 0.20201 0.0
H167 H 0.79387 0.99313 0.24886 0.0
H168 H 0.76952 0.98861 0.26314 0.0
H169 H 0.72595 0.9522 0.02142 0.0
H170 H 0.67882 0.93222 0.10747 0.0
H171 H 0.70001 0.92499 0.17646 0.0
H172 H 0.74933 0.97548 0.09707 0.0
H173 H 0.7538 0.96738 0.03901 0.0
H174 H 0.77292 0.96732 0.08122 0.0
H175 H 0.75476 0.92621 0.04091 0.0
H176 H 0.7673 0.91712 0.09493 0.0
H177 H 0.77668 0.93535 0.05329 0.0
H178 H 0.82806 0.9427 0.09147 0.0
C179 C 0.80176 0.94291 0.12952 0.0
C180 C 0.5006 0.71942 0.35622 0.0
C181 C 0.49578 0.7016 0.37689 0.0
C182 C 0.48394 0.69108 0.35112 0.0
C183 C 0.4827 0.71507 0.284 0.0
C184 C 0.49358 0.72604 0.3097 0.0
C185 C 0.49609 0.74488 0.28157 0.0
H186 H 0.48112 0.79997 0.06813 0.0
C187 C 0.47847 0.72503 0.23613 0.0
C188 C 0.486 0.74272 0.23404 0.0
H189 H 0.50646 0.81631 0.19714 0.0
H190 H 0.50299 0.78514 0.23745 0.0
H191 H 0.50253 0.76101 0.07188 0.0
H192 H 0.44705 0.77891 0.11961 0.0
H193 H 0.44433 0.75866 0.09103 0.0
H194 H 0.4533 0.77892 0.05735 0.0
H195 H 0.48277 0.76596 0.03098 0.0
H196 H 0.48769 0.74303 0.06225 0.0
C197 C 0.51759 0.74753 0.2746 0.0
C198 C 0.48583 0.75998 0.30898 0.0
C199 C 0.44945 0.68932 0.11008 0.0
C200 C 0.44644 0.69336 0.06033 0.0
C201 C 0.44923 0.71149 0.03866 0.0
C202 C 0.45563 0.72518 0.06595 0.0
C203 C 0.4595 0.72063 0.11534 0.0
C204 C 0.45612 0.70302 0.1366 0.0
C205 C 0.46196 0.70024 0.18865 0.0
C206 C 0.46975 0.71902 0.19507 0.0
C207 C 0.46818 0.7309 0.15224 0.0
C208 C 0.47772 0.68419 0.19466 0.0
C209 C 0.44379 0.6967 0.2191 0.0
C210 C 0.48568 0.79709 0.10534 0.0
C211 C 0.49373 0.81086 0.12954 0.0
C212 C 0.50013 0.80604 0.1775 0.0
C213 C 0.49793 0.78799 0.20103 0.0
C214 C 0.48924 0.7746 0.17642 0.0
C215 C 0.48342 0.77939 0.12919 0.0
C216 C 0.47453 0.76381 0.10766 0.0
C217 C 0.47519 0.74897 0.15003 0.0
C218 C 0.48401 0.75506 0.19053 0.0
C219 C 0.48736 0.75814 0.06579 0.0
C220 C 0.45374 0.77031 0.09271 0.0
H221 H 0.46872 0.68871 0.28748 0.0
H222 H 0.50946 0.72791 0.37576 0.0
H223 H 0.47185 0.75529 0.32274 0.0
H224 H 0.48252 0.7731 0.28595 0.0
H225 H 0.49451 0.76295 0.34028 0.0
H226 H 0.52476 0.73491 0.26153 0.0
H227 H 0.52449 0.74989 0.30908 0.0
H228 H 0.52042 0.7593 0.24765 0.0
H229 H 0.44781 0.67541 0.12761 0.0
H230 H 0.44693 0.71492 1.00035 0.0
H231 H 0.45778 0.73862 0.04721 0.0
H232 H 0.48733 0.68482 0.16299 0.0
H233 H 0.47141 0.67037 0.198 0.0
H234 H 0.48729 0.68485 0.22566 0.0
H235 H 0.43067 0.70286 0.19983 0.0
H236 H 0.44389 0.70341 0.25295 0.0
H237 H 0.44192 0.68156 0.22766 0.0
H238 H 0.48006 0.6774 0.36637 0.0
C239 C 0.4774 0.69767 0.30512 0.0
C240 C 0.29842 0.45917 0.29681 0.0
C241 C 0.30767 0.4549 0.34192 0.0
C242 C 0.29741 0.4467 0.38101 0.0
C243 C 0.26877 0.44904 0.33256 0.0
C244 C 0.27894 0.45559 0.29271 0.0
C245 C 0.26646 0.45792 0.24788 0.0
H246 H 0.17725 0.45114 0.15331 0.0
C247 C 0.24878 0.44792 0.31854 0.0
C248 C 0.24721 0.45226 0.26841 0.0
H249 H 0.22693 0.46898 0.07479 0.0
H250 H 0.24589 0.46431 0.14891 0.0
H251 H 0.19727 0.4177 0.22954 0.0
H252 H 0.18066 0.47538 0.22501 0.0
H253 H 0.18238 0.46879 0.28701 0.0
H254 H 0.16536 0.45826 0.25129 0.0
H255 H 0.17329 0.4278 0.22868 0.0
H256 H 0.18601 0.42127 0.28453 0.0
C257 C 0.27449 0.44439 0.21272 0.0
C258 C 0.26578 0.47858 0.22697 0.0
C259 C 0.19792 0.44996 0.44593 0.0
C260 C 0.17792 0.45142 0.44245 0.0
C261 C 0.16906 0.44723 0.39994 0.0
C262 C 0.17995 0.44343 0.35994 0.0
C263 C 0.19986 0.44412 0.36221 0.0
C264 C 0.20862 0.44628 0.40537 0.0
C265 C 0.23 0.44555 0.40135 0.0
C266 C 0.23232 0.44518 0.34713 0.0
C267 C 0.2146 0.44446 0.3247 0.0
C268 C 0.23811 0.42729 0.43042 0.0
C269 C 0.2374 0.46347 0.41904 0.0
C270 C 0.19235 0.45355 0.15174 0.0
C271 C 0.20076 0.4599 0.10821 0.0
C272 C 0.22024 0.46379 0.10802 0.0
C273 C 0.23117 0.46108 0.15098 0.0
C274 C 0.22236 0.45484 0.19457 0.0
C275 C 0.20316 0.45146 0.19408 0.0
C276 C 0.19522 0.44721 0.24336 0.0
C277 C 0.213 0.44742 0.27389 0.0
C278 C 0.22906 0.45171 0.24554 0.0
C279 C 0.18738 0.4275 0.24694 0.0
C280 C 0.18009 0.46307 0.25235 0.0
H281 H 0.27106 0.43763 0.40755 0.0
H282 H 0.30611 0.4651 0.2659 0.0
H283 H 0.26357 0.48783 0.25613 0.0
H284 H 0.25389 0.48226 0.20132 0.0
H285 H 0.27936 0.48203 0.20865 0.0
H286 H 0.27802 0.43037 0.23211 0.0
H287 H 0.28774 0.4495 0.19556 0.0
H288 H 0.26421 0.44223 0.18426 0.0
H289 H 0.20501 0.45252 0.47884 0.0
H290 H 0.15366 0.4481 0.39643 0.0
H291 H 0.1724 0.44093 0.32812 0.0
H292 H 0.22673 0.41807 0.44428 0.0
H293 H 0.24648 0.43026 0.46224 0.0
H294 H 0.24728 0.41872 0.40786 0.0
H295 H 0.22978 0.47605 0.40012 0.0
H296 H 0.25275 0.4649 0.41272 0.0
H297 H 0.23512 0.46366 0.45829 0.0
H298 H 0.30419 0.44324 0.41592 0.0
C299 C 0.27812 0.44366 0.37643 0.0
C300 C 0.93339 0.21227 0.42768 0.0
C301 C 0.92469 0.19624 0.41555 0.0
C302 C 0.92333 0.1934 0.36645 0.0
C303 C 0.943 0.21939 0.34491 0.0
C304 C 0.94217 0.22373 0.39171 0.0
C305 C 0.95222 0.24115 0.39819 0.0
H306 H 0.00723 0.3104 0.30866 0.0
C307 C 0.95592 0.23215 0.31823 0.0
C308 C 0.96101 0.24523 0.34869 0.0
H309 H 0.97606 0.30439 0.44219 0.0
H310 H 0.96569 0.27499 0.42413 0.0
H311 H 0.02148 0.26288 0.3173 0.0
H312 H 0.97497 0.294 0.23677 0.0
H313 H 0.98998 0.28051 0.20079 0.0
H314 H 0.99941 0.29965 0.2273 0.0
H315 H 0.02598 0.28046 0.26891 0.0
H316 H 0.02026 0.25734 0.2574 0.0
C317 C 0.96771 0.23645 0.43784 0.0
C318 C 0.93688 0.25645 0.40925 0.0
C319 C 0.98114 0.21412 0.16004 0.0
C320 C 0.99608 0.21976 0.1298 0.0
C321 C 0.0061 0.23531 0.14039 0.0
C322 C 1.00112 0.24497 0.18057 0.0
C323 C 0.98629 0.23875 0.21109 0.0
C324 C 0.97673 0.22345 0.20021 0.0
C325 C 0.96258 0.21734 0.2376 0.0
C326 C 0.965 0.23142 0.27321 0.0
C327 C 0.97871 0.24426 0.25781 0.0
C328 C 0.96897 0.19721 0.25877 0.0
C329 C 0.94241 0.21936 0.21418 0.0
C330 C 0.99811 0.30263 0.33361 0.0
C331 C 0.99208 0.3099 0.37658 0.0
C332 C 0.9805 0.29932 0.40856 0.0
C333 C 0.97435 0.28224 0.39785 0.0
C334 C 0.97964 0.27545 0.35436 0.0
C335 C 0.99153 0.28531 0.323 0.0
C336 C 0.99566 0.27508 0.27895 0.0
C337 C 0.98286 0.25858 0.28752 0.0
C338 C 0.97392 0.25891 0.3325 0.0
C339 C 0.017 0.26863 0.28025 0.0
C340 C 0.98976 0.28797 0.23327 0.0
H341 H 0.93177 0.20132 0.29492 0.0
H342 H 0.93445 0.21533 0.46462 0.0
H343 H 0.92219 0.25282 0.40026 0.0
H344 H 0.93881 0.26992 0.38739 0.0
H345 H 0.93695 0.25868 0.44797 0.0
H346 H 0.97553 0.22294 0.43314 0.0
H347 H 0.96125 0.23525 0.47419 0.0
H348 H 0.9787 0.24682 0.43687 0.0
H349 H 0.97347 0.20197 0.15388 0.0
H350 H 0.01774 0.23995 0.11765 0.0
H351 H 0.00908 0.25677 0.18673 0.0
H352 H 0.98472 0.19576 0.26389 0.0
H353 H 0.96498 0.18687 0.23429 0.0
H354 H 0.96312 0.19309 0.29453 0.0
H355 H 0.94165 0.23008 0.18251 0.0
H356 H 0.93133 0.22423 0.23886 0.0
H357 H 0.93834 0.20602 0.20165 0.0
H358 H 0.91589 0.18183 0.35533 0.0
C359 C 0.93251 0.20481 0.3312 0.0
C360 C 0.27763 0.05416 0.17406 0.0
C361 C 0.2969 0.05759 0.16392 0.0
C362 C 0.3075 0.06662 0.19622 0.0
C363 C 0.28102 0.06654 0.25105 0.0
C364 C 0.26988 0.05897 0.21808 0.0
C365 C 0.24982 0.05649 0.23684 0.0
H366 H 0.18842 0.0634 0.4255 0.0
C367 C 0.2699 0.06831 0.29502 0.0
C368 C 0.25131 0.06295 0.28706 0.0
H369 H 0.17495 0.04522 0.28787 0.0
H370 H 0.20763 0.04982 0.26131 0.0
H371 H 0.22378 0.03924 0.43959 0.0
H372 H 0.21575 0.09724 0.38996 0.0
H373 H 0.23453 0.09457 0.43264 0.0
H374 H 0.21127 0.08711 0.45006 0.0
H375 H 0.22315 0.05657 0.48093 0.0
H376 H 0.24522 0.04851 0.45488 0.0
C377 C 0.24569 0.03566 0.23901 0.0
C378 C 0.23589 0.06937 0.20399 0.0
C379 C 0.30553 0.07677 0.44781 0.0
C380 C 0.30005 0.0751 0.49629 0.0
C381 C 0.2805 0.07535 0.5075 0.0
C382 C 0.26671 0.07589 0.47096 0.0
C383 C 0.27258 0.07575 0.42287 0.0
C384 C 0.29166 0.07682 0.4119 0.0
C385 C 0.29548 0.07565 0.35943 0.0
C386 C 0.27563 0.07257 0.34112 0.0
C387 C 0.26234 0.07273 0.3783 0.0
C388 C 0.30958 0.05856 0.35519 0.0
C389 C 0.30284 0.09458 0.33778 0.0
C390 C 0.19237 0.06079 0.38922 0.0
C391 C 0.17908 0.05442 0.35831 0.0
C392 C 0.18497 0.05038 0.31208 0.0
C393 C 0.20388 0.0531 0.29679 0.0
C394 C 0.21704 0.05956 0.32849 0.0
C395 C 0.21108 0.06305 0.37403 0.0
C396 C 0.22693 0.06812 0.4051 0.0
C397 C 0.24329 0.06837 0.37004 0.0
C398 C 0.23765 0.06334 0.32491 0.0
C399 C 0.22995 0.05246 0.4475 0.0
C400 C 0.22193 0.08775 0.42069 0.0
H401 H 0.30869 0.0777 0.2627 0.0
H402 H 0.2691 0.04751 0.14921 0.0
H403 H 0.2416 0.08341 0.19609 0.0
H404 H 0.22188 0.0717 0.22071 0.0
H405 H 0.23376 0.06359 0.16919 0.0
H406 H 0.25803 0.02683 0.25515 0.0
H407 H 0.24313 0.03159 0.2024 0.0
H408 H 0.23332 0.03207 0.26166 0.0
H409 H 0.32046 0.07643 0.43809 0.0
H410 H 0.27595 0.07433 0.54465 0.0
H411 H 0.25209 0.07561 0.48179 0.0
H412 H 0.30559 0.04647 0.38042 0.0
H413 H 0.32437 0.06176 0.36414 0.0
H414 H 0.30973 0.0535 0.3194 0.0
H415 H 0.29928 0.10596 0.36076 0.0
H416 H 0.29609 0.09949 0.30247 0.0
H417 H 0.31858 0.09374 0.3336 0.0
H418 H 0.3222 0.06964 0.18856 0.0
C419 C 0.29964 0.07124 0.23933 0.0
C420 C 0.50242 0.30694 0.16804 0.0
C421 C 0.50548 0.32546 0.14919 0.0
C422 C 0.51511 0.337 0.17728 0.0
C423 C 0.51818 0.31231 0.24257 0.0
C424 C 0.50913 0.30057 0.21502 0.0
C425 C 0.50796 0.28129 0.24197 0.0
H426 H 0.52609 0.22514 0.45246 0.0
C427 C 0.52305 0.30212 0.28981 0.0
C428 C 0.51734 0.28377 0.29021 0.0
H429 H 0.50122 0.20884 0.32279 0.0
H430 H 0.5034 0.24039 0.28392 0.0
H431 H 0.55876 0.24779 0.40148 0.0
H432 H 0.50287 0.2641 0.4504 0.0
H433 H 0.51818 0.28099 0.46548 0.0
H434 H 0.5224 0.25715 0.49101 0.0
H435 H 0.55333 0.24835 0.46404 0.0
H436 H 0.56091 0.26866 0.42752 0.0
C437 C 0.51961 0.26722 0.21413 0.0
C438 C 0.48675 0.27702 0.24776 0.0
C439 C 0.54976 0.33823 0.41787 0.0
C440 C 0.5547 0.33363 0.46658 0.0
C441 C 0.55426 0.31485 0.48626 0.0
C442 C 0.54827 0.30115 0.45835 0.0
C443 C 0.54263 0.30623 0.41018 0.0
C444 C 0.54386 0.32445 0.39064 0.0
C445 C 0.5373 0.32753 0.33923 0.0
C446 C 0.53136 0.30822 0.33125 0.0
C447 C 0.53444 0.29583 0.37278 0.0
C448 C 0.55467 0.33331 0.30786 0.0
C449 C 0.52006 0.34206 0.33606 0.0
C450 C 0.52134 0.22813 0.41542 0.0
C451 C 0.51374 0.21427 0.39067 0.0
C452 C 0.50715 0.2192 0.34291 0.0
C453 C 0.50854 0.23749 0.32025 0.0
C454 C 0.51658 0.25106 0.34556 0.0
C455 C 0.52273 0.24612 0.39247 0.0
C456 C 0.53086 0.26194 0.41479 0.0
C457 C 0.52897 0.27723 0.37357 0.0
C458 C 0.52047 0.27104 0.33272 0.0
C459 C 0.55203 0.25649 0.4281 0.0
C460 C 0.5181 0.26631 0.45791 0.0
H461 H 0.52844 0.34032 0.24282 0.0
H462 H 0.49514 0.29776 0.14683 0.0
H463 H 0.47843 0.28914 0.26025 0.0
H464 H 0.48455 0.2651 0.27476 0.0
H465 H 0.48053 0.2741 0.21294 0.0
H466 H 0.53341 0.27291 0.20219 0.0
H467 H 0.5117 0.2642 0.18163 0.0
H468 H 0.52334 0.25398 0.2363 0.0
H469 H 0.54953 0.3525 0.40148 0.0
H470 H 0.55823 0.3108 0.52349 0.0
H471 H 0.54791 0.2872 0.47567 0.0
H472 H 0.56843 0.32812 0.32561 0.0
H473 H 0.55498 0.3487 0.30087 0.0
H474 H 0.55495 0.32719 0.27314 0.0
H475 H 0.51111 0.34025 0.36887 0.0
H476 H 0.51016 0.34067 0.30611 0.0
H477 H 0.52489 0.35651 0.33276 0.0
H478 H 0.51755 0.35125 0.16342 0.0
C479 C 0.52144 0.33059 0.22354 0.0
Co480 Co 0.00903 0.02386 0.776 0.0
C481 C 0.9777 0.00695 0.81895 0.0
Co482 Co 0.99486 0.00521 0.72964 0.0
C483 C 0.01349 0.05514 0.83326 0.0
C484 C 0.03929 0.03831 0.82838 0.0
N485 N 0.02081 0.03965 0.8148 0.0
N486 N 0.0267 0.06358 0.8576 0.0
C487 C 0.04292 0.05281 0.85463 0.0
H488 H 0.99881 0.06032 0.82787 0.0
H489 H 0.0496 0.02759 0.8192 0.0
C490 C 0.02618 0.0221 0.68661 0.0
N491 N 0.98352 0.98952 0.68905 0.0
C492 C 0.9852 0.97066 0.68938 0.0
C493 C 0.97452 0.99544 0.64702 0.0
N494 N 0.97789 0.96482 0.64903 0.0
C495 C 0.97108 0.98042 0.62259 0.0
C496 C 0.98007 0.04186 0.71869 0.0
O497 O 0.02739 0.02915 0.72638 0.0
O498 O 0.01277 0.01144 0.68053 0.0
O499 O 0.97835 0.02581 0.70497 0.0
O500 O 0.99293 0.04415 0.74915 0.0
O501 O 0.97699 0.99922 0.77995 0.0
H502 H 0.97161 0.00986 0.63326 0.0
H503 H 0.99276 0.96147 0.71699 0.0
O504 O 0.99062 0.01828 0.82435 0.0
O505 O 0.02489 1.00309 0.80284 0.0
O506 O 0.01158 0.9852 0.75504 0.0
C507 C 0.02373 0.98723 0.78751 0.0
H508 H 0.05657 0.05512 0.87025 0.0
H509 H 0.96471 0.981 0.58711 0.0
Co510 Co 0.49875 0.02006 0.78681 0.0
C511 C 0.50291 0.98167 0.8139 0.0
Co512 Co 0.51055 1.0039 0.72937 0.0
C513 C 0.46863 0.02878 0.85135 0.0
C514 C 0.4906 0.04802 0.8531 0.0
N515 N 0.48592 0.03271 0.83301 0.0
N516 N 0.46217 0.04108 0.88149 0.0
C517 C 0.47606 0.05316 0.8831 0.0
H518 H 0.4608 0.0171 0.84248 0.0
H519 H 0.50351 0.05525 0.8455 0.0
C520 C 0.50639 0.04231 0.70243 0.0
N521 N 0.5234 0.99117 0.68341 0.0
C522 C 0.5403 0.99551 0.66335 0.0
C523 C 0.51942 0.97498 0.66676 0.0
N524 N 0.54726 0.98256 0.63543 0.0
C525 C 0.53406 0.96963 0.63735 0.0
C526 C 0.47226 0.00749 0.72269 0.0
O527 O 0.50007 0.04282 0.74502 0.0
O528 O 0.512 0.02667 0.68875 0.0
O529 O 0.48646 1.0005 0.70131 0.0
O530 O 0.47502 0.01608 0.75918 0.0
O531 O 0.50887 0.98108 0.771 0.0
H532 H 0.50702 0.96724 0.67666 0.0
H533 H 0.54782 0.00753 0.67109 0.0
O534 O 0.49764 0.99737 0.82776 0.0
O535 O 0.52281 0.02375 0.81414 0.0
O536 O 0.5343 0.00746 0.75779 0.0
C537 C 0.53704 0.0162 0.79407 0.0
H538 H 0.47545 0.06522 0.90312 0.0
H539 H 0.535 0.95704 0.61947 0.0
Co540 Co 0.51658 0.51515 0.78498 0.0
C541 C 0.49507 0.48426 0.81668 0.0
Co542 Co 0.48911 0.51353 0.74624 0.0
C543 C 0.54586 0.52619 0.84997 0.0
C544 C 0.5531 0.50035 0.82163 0.0
N545 N 0.53961 0.51448 0.81922 0.0
N546 N 0.56271 0.51989 0.87108 0.0
C547 C 0.56726 0.50367 0.85303 0.0
H548 H 0.53807 0.53891 0.85736 0.0
H549 H 0.55238 0.48797 0.80327 0.0
C550 C 0.5106 0.54438 0.71431 0.0
N551 N 0.46602 0.51446 0.7119 0.0
C552 C 0.46013 0.50389 0.67792 0.0
C553 C 0.45259 0.52862 0.71117 0.0
N554 N 0.44376 0.51113 0.65594 0.0
C555 C 0.43898 0.52658 0.67722 0.0
C556 C 0.48674 0.53381 0.82611 0.0
O557 O 0.52276 0.53753 0.7462 0.0
O558 O 0.49539 0.53598 0.70915 0.0
O559 O 0.47727 0.52769 0.79295 0.0
O560 O 0.50454 0.52976 0.82962 0.0
O561 O 0.48319 0.49089 0.78386 0.0
H562 H 0.45308 0.54033 0.73216 0.0
H563 H 0.4682 0.49177 0.66755 0.0
O564 O 0.51003 0.49293 0.82306 0.0
O565 O 0.52832 0.50039 0.73947 0.0
O566 O 0.50129 0.49943 0.70062 0.0
C567 C 0.51896 0.4948 0.70534 0.0
H568 H 0.57953 0.49438 0.86341 0.0
H569 H 0.42672 0.53605 0.66802 0.0
Co570 Co 0.00396 0.5261 0.77519 0.0
C571 C 0.03236 0.50235 0.82063 0.0
Co572 Co 0.00269 0.49687 0.75741 0.0
C573 C 0.00335 0.55643 0.83659 0.0
C574 C 0.00403 0.56623 0.7617 0.0
N575 N 0.00402 0.55049 0.79214 0.0
N576 N 0.00298 0.57525 0.83505 0.0
C577 C 0.00344 0.58139 0.78782 0.0
H578 H 0.00316 0.54709 0.86945 0.0
H579 H 0.00415 0.56667 0.7229 0.0
C580 C 0.9743 0.52062 0.71188 0.0
N581 N 0.00259 0.47247 0.74057 0.0
C582 C 0.00304 0.46645 0.69619 0.0
C583 C 0.00242 0.45678 0.77117 0.0
N584 N 0.00307 0.44765 0.69797 0.0
C585 C 0.00265 0.44158 0.74524 0.0
C586 C 0.98059 0.50402 0.83472 0.0
O587 O 0.98231 0.53285 0.73346 0.0
O588 O 0.98128 0.50389 0.71673 0.0
O589 O 0.98573 0.49114 0.80903 0.0
O590 O 0.98723 0.52 0.82609 0.0
O591 O 0.02442 0.49014 0.79884 0.0
H592 H 1.00232 0.45639 0.80996 0.0
H593 H 0.00319 0.47573 0.66318 0.0
O594 O 0.02529 0.51905 0.81609 0.0
O595 O 0.02106 0.5318 0.72375 0.0
O596 O 0.01929 0.503 0.70627 0.0
C597 C 0.02602 0.51894 0.69782 0.0
H598 H 0.0029 0.59585 0.77296 0.0
H599 H 0.00288 0.42713 0.76018 0.0
H600 H 0.16028 0.02211 0.36596 0.0
H601 H 0.13135 0.01573 0.41299 0.0
H602 H 0.12584 0.07326 0.44171 0.0
H603 H 0.15461 0.07961 0.39501 0.0
H604 H 0.12921 0.02131 0.51218 0.0
H605 H 0.07081 0.06187 0.40781 0.0
H606 H 0.09331 0.05536 0.38119 0.0
H607 H 0.09141 0.07485 0.41626 0.0
C608 C 0.15248 0.03348 0.38097 0.0
C609 C 0.15957 0.05137 0.37663 0.0
C610 C 0.13608 0.02981 0.40812 0.0
C611 C 0.12635 0.04405 0.43062 0.0
C612 C 0.13289 0.06213 0.42409 0.0
H613 H 0.05943 0.04015 0.69089 0.0
H614 H 0.08338 0.04495 0.62773 0.0
C615 C 0.14933 0.06574 0.39745 0.0
C616 C 0.11069 0.03977 0.46509 0.0
H617 H 0.06429 0.05184 0.49014 0.0
C618 C 0.11496 0.02782 0.50711 0.0
C619 C 0.09209 0.04826 0.45846 0.0
C620 C 0.08652 0.06068 0.4133 0.0
C621 C 0.1013 0.02458 0.54328 0.0
C622 C 0.08293 0.03363 0.53749 0.0
C623 C 0.07845 0.04509 0.49479 0.0
C624 C 0.06817 0.03123 0.57535 0.0
C625 C 0.10662 0.01148 0.58749 0.0
C626 C 0.05149 0.02229 0.56653 0.0
C627 C 0.03781 0.0195 0.60254 0.0
C628 C 0.04043 0.02577 0.64802 0.0
C629 C 0.05697 0.03511 0.65637 0.0
C630 C 0.07071 0.03779 0.62038 0.0
H631 H 0.11966 1.00256 0.5818 0.0
H632 H 0.10944 0.01974 0.61781 0.0
H633 H 0.09478 1.00238 0.59806 0.0
H634 H 0.0492 0.0172 0.53199 0.0
H635 H 0.02522 0.01231 0.59474 0.0
H636 H 0.54049 0.19501 0.45077 0.0
H637 H 0.53798 0.16517 0.49856 0.0
H638 H 0.48321 0.15904 0.43388 0.0
H639 H 0.48514 0.18966 0.38748 0.0
H640 H 0.48182 0.15023 0.52865 0.0
H641 H 0.54587 0.11354 0.46215 0.0
H642 H 0.55189 0.13479 0.48474 0.0
H643 H 0.53637 0.13558 0.43302 0.0
C644 C 0.52783 0.1874 0.4466 0.0
C645 C 0.51292 0.19493 0.4154 0.0
C646 C 0.52656 0.17012 0.47359 0.0
C647 C 0.51056 0.15959 0.46944 0.0
C648 C 0.49578 0.16682 0.43759 0.0
H649 H 0.51188 0.04481 0.60527 0.0
H650 H 0.51147 0.07283 0.54827 0.0
C651 C 0.49697 0.18427 0.41072 0.0
C652 C 0.50899 0.14156 0.50029 0.0
H653 H 0.53359 0.1004 0.53764 0.0
C654 C 0.49304 0.13924 0.53019 0.0
C655 C 0.52345 0.12701 0.502 0.0
C656 C 0.54024 0.12776 0.46834 0.0
C657 C 0.49146 0.12313 0.56265 0.0
C658 C 0.50651 0.10912 0.56653 0.0
C659 C 0.52216 0.1112 0.53551 0.0
C660 C 0.50628 0.09208 0.6018 0.0
C661 C 0.47348 0.12122 0.59182 0.0
C662 C 0.5037 0.0934 0.65129 0.0
C663 C 0.50367 0.0773 0.68407 0.0
C664 C 0.50664 0.05952 0.66822 0.0
C665 C 0.50959 0.05826 0.61884 0.0
C666 C 0.50936 0.07431 0.58609 0.0
H667 H 0.46128 0.12971 0.57394 0.0
H668 H 0.46958 0.10649 0.59767 0.0
H669 H 0.47575 0.12631 0.62739 0.0
H670 H 0.50189 0.10689 0.66475 0.0
H671 H 0.50151 0.07879 0.72187 0.0
H672 H 0.32166 0.48945 0.3294 0.0
H673 H 0.34991 0.49926 0.36969 0.0
H674 H 0.36538 0.44195 0.42026 0.0
H675 H 0.33733 0.43217 0.37977 0.0
H676 H 0.35171 0.49197 0.46919 0.0
H677 H 0.41751 0.46263 0.38951 0.0
H678 H 0.3949 0.46538 0.35783 0.0
H679 H 0.39967 0.44602 0.40288 0.0
C680 C 0.33161 0.47892 0.34712 0.0
C681 C 0.32737 0.46006 0.35138 0.0
C682 C 0.34766 0.48453 0.37051 0.0
C683 C 0.35983 0.47135 0.39797 0.0
C684 C 0.35646 0.45236 0.39869 0.0
H685 H 0.44008 0.47552 0.63546 0.0
H686 H 0.42071 0.46552 0.57023 0.0
C687 C 0.3404 0.44677 0.37556 0.0
C688 C 0.37385 0.4775 0.43215 0.0
H689 H 0.42071 0.47313 0.46744 0.0
C690 C 0.36684 0.48805 0.46836 0.0
C691 C 0.39352 0.47205 0.43173 0.0
C692 C 0.40192 0.46102 0.39317 0.0
C693 C 0.37882 0.49306 0.50453 0.0
C694 C 0.39853 0.48778 0.50398 0.0
C695 C 0.40561 0.47719 0.46781 0.0
C696 C 0.41188 0.49354 0.54033 0.0
C697 C 0.37011 0.50355 0.54385 0.0
C698 C 0.41386 0.51253 0.54415 0.0
C699 C 0.42471 0.5182 0.58131 0.0
C700 C 0.43406 0.50501 0.61531 0.0
C701 C 0.43299 0.48596 0.6099 0.0
C702 C 0.42194 0.48027 0.57271 0.0
H703 H 0.35449 0.50194 0.54667 0.0
H704 H 0.37683 0.49871 0.57928 0.0
H705 H 0.37239 0.51862 0.53565 0.0
H706 H 0.40665 0.52302 0.5189 0.0
H707 H 0.42566 0.53297 0.58367 0.0
H708 H 0.0275 0.32242 0.39402 0.0
H709 H 0.03399 0.34947 0.43713 0.0
H710 H 0.97381 0.36522 0.43623 0.0
H711 H 0.96748 0.33873 0.39226 0.0
H712 H 0.99423 0.39571 0.42752 0.0
H713 H 0.02298 0.34609 0.5793 0.0
H714 H 0.03577 0.3455 0.52388 0.0
H715 H 0.01163 0.33839 0.5276 0.0
C716 C 0.0158 0.33208 0.40155 0.0
C717 C 0.99699 0.32848 0.38988 0.0
C718 C 0.01945 0.34737 0.42688 0.0
C719 C 0.00432 0.35915 0.44129 0.0
C720 C 0.98575 0.35635 0.42599 0.0
H721 H 0.98807 0.41404 0.69561 0.0
H722 H 0.98999 0.394 0.63055 0.0
C723 C 0.98213 0.34121 0.40069 0.0
C724 C 0.00721 0.37333 0.47563 0.0
H725 H 0.02037 0.37768 0.5917 0.0
C726 C 1.00015 0.39182 0.46326 0.0
C727 C 0.01466 0.36825 0.52266 0.0
C728 C 0.02155 0.34847 0.5395 0.0
C729 C 0.99985 0.40515 0.49673 0.0
C730 C 0.00719 0.40001 0.54381 0.0
C731 C 0.01478 0.38168 0.55567 0.0
C732 C 0.00584 0.41283 0.58257 0.0
C733 C 0.99079 0.42433 0.48201 0.0
C734 C 0.01407 0.43024 0.57765 0.0
C735 C 0.01285 0.44187 0.61498 0.0
C736 C 0.00365 0.4362 0.65836 0.0
C737 C 0.99546 0.41878 0.66306 0.0
C738 C 0.99652 0.40729 0.62572 0.0
H739 H 0.98178 0.42463 0.44919 0.0
H740 H 0.98185 0.42928 0.51136 0.0
H741 H 1.00216 0.43425 0.47409 0.0
H742 H 0.02172 0.43473 0.5453 0.0
H743 H 0.01956 0.45506 0.61039 0.0
H744 H 0.83699 0.99804 0.12276 0.0
H745 H 0.86465 0.00852 0.07567 0.0
H746 H 0.88824 0.95186 0.08459 0.0
H747 H 0.86093 0.94147 0.13223 0.0
H748 H 0.91618 0.97745 0.08829 0.0
H749 H 0.86612 0.99734 0.93482 0.0
H750 H 0.86118 0.00888 0.9877 0.0
H751 H 0.85902 0.98415 0.98961 0.0
C752 C 0.84844 0.98797 0.11613 0.0
C753 C 0.84677 0.96894 0.13082 0.0
C754 C 0.8641 0.99391 0.08865 0.0
C755 C 0.87827 0.98089 0.07547 0.0
C756 C 0.87742 0.96214 0.09389 0.0
H757 H 0.94869 0.98291 0.82165 0.0
H758 H 0.92523 0.97709 0.88543 0.0
C759 C 0.86183 0.95622 0.1212 0.0
C760 C 0.89301 0.98626 0.03919 0.0
H761 H 0.89865 1.00162 0.9204 0.0
C762 C 0.91237 0.98289 0.05168 0.0
C763 C 0.88802 0.99298 0.9911 0.0
C764 C 0.86748 0.99592 0.97467 0.0
C765 C 0.92684 0.98602 0.01747 0.0
C766 C 0.92183 0.99295 0.96955 0.0
C767 C 0.90248 0.99639 0.95714 0.0
C768 C 0.93638 0.99632 0.93137 0.0
C769 C 0.94732 0.98126 0.03258 0.0
C770 C 0.95037 0.00918 0.93569 0.0
C771 C 0.96384 0.01249 0.89938 0.0
C772 C 0.96353 1.00312 0.85767 0.0
C773 C 0.9494 0.99033 0.85327 0.0
C774 C 0.93595 0.98701 0.8897 0.0
H775 H 0.9484 0.97172 0.06644 0.0
H776 H 0.95537 0.97464 0.0041 0.0
H777 H 0.95423 0.99424 0.03887 0.0
H778 H 0.95076 0.01685 0.96693 0.0
H779 H 0.9744 0.02254 0.9039 0.0
H780 H 0.52305 0.83478 0.13137 0.0
H781 H 0.52557 0.86515 0.08399 0.0
H782 H 0.47033 0.85999 0.02066 0.0
H783 H 0.46728 0.83043 0.06933 0.0
H784 H 0.52665 0.87366 0.98861 0.0
H785 H 0.46384 0.91183 0.05665 0.0
H786 H 0.47306 0.88971 0.08592 0.0
H787 H 0.45719 0.89064 0.03484 0.0
C788 C 0.51127 0.84033 0.10817 0.0
C789 C 0.49501 0.83003 0.10413 0.0
C790 C 0.51279 0.85763 0.08075 0.0
C791 C 0.49804 0.86507 0.04903 0.0
C792 C 0.48175 0.85488 0.04551 0.0
H793 H 0.50705 0.94508 0.79474 0.0
H794 H 0.50661 0.9171 0.85229 0.0
C795 C 0.48016 0.83776 0.073 0.0
C796 C 0.49985 0.88297 0.0178 0.0
H797 H 0.47592 0.92448 0.98047 0.0
C798 C 0.51566 0.88486 0.98724 0.0
C799 C 0.48571 0.8978 0.01631 0.0
C800 C 0.46912 0.89749 0.05059 0.0
C801 C 0.51739 0.90083 0.95434 0.0
C802 C 0.50262 0.91513 0.95074 0.0
C803 C 0.48713 0.91346 0.9824 0.0
C804 C 0.503 0.93208 0.91518 0.0
C805 C 0.5352 0.90228 0.9244 0.0
C806 C 0.50042 0.94991 0.93075 0.0
C807 C 0.50021 0.9659 0.89779 0.0
C808 C 0.50271 0.96451 0.84831 0.0
C809 C 0.50523 0.94667 0.8326 0.0
C810 C 0.50517 0.93064 0.86562 0.0
H811 H 0.54733 0.89357 0.94189 0.0
H812 H 0.53253 0.89717 0.88904 0.0
H813 H 0.53942 0.91691 0.91812 0.0
H814 H 0.49863 0.9515 0.96863 0.0
H815 H 0.49829 0.97939 0.91128 0.0
H816 H 0.66864 0.58872 0.18131 0.0
H817 H 0.64055 0.58515 0.13163 0.0
H818 H 0.64851 0.52538 0.16043 0.0
H819 H 0.67627 0.52906 0.2111 0.0
H820 H 0.64381 0.56941 0.05076 0.0
H821 H 0.59124 0.53144 0.16396 0.0
H822 H 0.61066 0.54268 0.18932 0.0
H823 H 0.61452 0.51985 0.16952 0.0
C824 C 0.66376 0.57489 0.17887 0.0
C825 C 0.67428 0.55917 0.2008 0.0
C826 C 0.64784 0.57283 0.15011 0.0
C827 C 0.64224 0.55499 0.14241 0.0
C828 C 0.65215 0.53929 0.16666 0.0
H829 H 0.60078 0.51643 0.88669 0.0
H830 H 0.6184 0.52698 0.95306 0.0
C831 C 0.66801 0.54138 0.19575 0.0
C832 C 0.6281 0.55276 0.10386 0.0
H833 H 0.58873 0.52967 0.07826 0.0
C834 C 0.63159 0.56097 0.05708 0.0
C835 C 0.61201 0.54191 0.11183 0.0
C836 C 0.60676 0.53363 0.1615 0.0
C837 C 0.62003 0.55793 0.01792 0.0
C838 C 0.60471 0.54608 0.02539 0.0
C839 C 0.6006 0.5386 0.07243 0.0
C840 C 0.59376 0.54027 0.98441 0.0
C841 C 0.6245 0.56728 0.96872 0.0
C842 C 0.57394 0.54403 0.98009 0.0
C843 C 0.56375 0.53791 0.94202 0.0
C844 C 0.57318 0.52767 0.90803 0.0
C845 C 0.59304 0.52412 0.91239 0.0
C846 C 0.60318 0.5303 0.95014 0.0
H847 H 0.63244 0.58002 0.97118 0.0
H848 H 0.63358 0.55753 0.94922 0.0
H849 H 0.61128 0.57114 0.94726 0.0
H850 H 0.56636 0.55162 0.0063 0.0
H851 H 0.54844 0.54068 0.94005 0.0
H852 H 0.97199 0.69833 0.13938 0.0
H853 H 0.9673 0.67065 0.09721 0.0
H854 H 0.02808 0.65803 0.09995 0.0
H855 H 0.03262 0.68522 0.14267 0.0
H856 H 0.97988 0.6668 0.00959 0.0
H857 H 0.01037 0.60652 0.12752 0.0
H858 H 0.00467 0.6288 0.14941 0.0
H859 H 0.02708 0.62443 0.12004 0.0
C860 C 0.98419 0.68911 0.13287 0.0
C861 C 0.00264 0.69373 0.14494 0.0
C862 C 0.98156 0.67341 0.1083 0.0
C863 C 0.99731 0.66202 0.09563 0.0
C864 C 0.01562 0.66615 0.11021 0.0
H865 H 0.01583 0.60984 0.83741 0.0
H866 H 0.01258 0.62976 0.9025 0.0
C867 C 0.01822 0.68176 0.13466 0.0
C868 C 0.99513 0.64746 0.06193 0.0
H869 H 0.01018 0.60305 0.04194 0.0
C870 C 0.98622 0.65277 0.01715 0.0
C871 C 0.00315 0.62898 0.07155 0.0
C872 C 0.01166 0.6218 0.11998 0.0
C873 C 0.98601 0.64056 0.98109 0.0
C874 C 0.99537 0.62262 0.98934 0.0
C875 C 0.00332 0.6169 0.03505 0.0
C876 C 0.99773 0.61002 0.95033 0.0
C877 C 0.97581 0.64712 0.93429 0.0
C878 C 0.9912 0.59188 0.95593 0.0
C879 C 0.99316 0.58032 0.91857 0.0
C880 C 1.00175 0.58664 0.87481 0.0
C881 C 0.00874 0.60462 0.87 0.0
C882 C 0.00685 0.61609 0.9073 0.0
H883 H 0.96444 0.65807 0.93922 0.0
H884 H 0.98618 0.65326 0.90814 0.0
H885 H 0.96931 0.63543 0.91868 0.0
H886 H 0.98425 0.58677 0.98889 0.0
H887 H 0.98753 0.56662 0.92356 0.0
H888 H 0.927 0.1585 0.41092 0.0
H889 H 0.92555 0.13414 0.47673 0.0
H890 H 0.91165 0.17501 0.57469 0.0
H891 H 0.91173 0.19982 0.50801 0.0
H892 H 0.94811 0.15172 0.58884 0.0
H893 H 0.88509 0.10989 0.57238 0.0
H894 H 0.89652 0.11695 0.51643 0.0
H895 H 0.88529 0.13432 0.55019 0.0
C896 C 0.92265 0.16248 0.44569 0.0
C897 C 0.91968 0.18135 0.45379 0.0
C898 C 0.92191 0.1484 0.48352 0.0
C899 C 0.91842 0.15279 0.53041 0.0
C900 C 0.91425 0.17139 0.53854 0.0
H901 H 0.97023 0.07344 0.76032 0.0
H902 H 0.95148 0.10101 0.72444 0.0
C903 C 0.91458 0.18555 0.5004 0.0
C904 C 0.92289 0.13834 0.57074 0.0
H905 H 0.91235 0.09429 0.61417 0.0
C906 C 0.94009 0.13933 0.5956 0.0
C907 C 0.91244 0.12221 0.57867 0.0
C908 C 0.8937 0.12076 0.55331 0.0
C909 C 0.94798 0.12397 0.62525 0.0
C910 C 0.93794 0.10741 0.63161 0.0
C911 C 0.92005 0.10694 0.60925 0.0
C912 C 0.94675 0.0899 0.65664 0.0
C913 C 0.96768 0.1252 0.6461 0.0
C914 C 0.94928 0.07406 0.63165 0.0
C915 C 0.95952 0.05813 0.65256 0.0
C916 C 0.96764 0.05789 0.69855 0.0
C917 C 0.9644 0.07342 0.72441 0.0
C918 C 0.95377 0.08919 0.7039 0.0
H919 H 0.97512 0.13722 0.6284 0.0
H920 H 0.9665 0.12704 0.68492 0.0
H921 H 0.97667 0.1123 0.64238 0.0
H922 H 0.94394 0.07426 0.59519 0.0
H923 H 0.96176 0.04632 0.63194 0.0
H924 H 0.29935 0.04739 0.56991 0.0
H925 H 0.32639 0.03401 0.61961 0.0
H926 H 0.36152 0.07674 0.55484 0.0
H927 H 0.33441 0.09046 0.50578 0.0
H928 H 0.35952 0.0203 0.57652 0.0
H929 H 0.37582 0.07341 0.69796 0.0
H930 H 0.35306 0.07329 0.66782 0.0
H931 H 0.3732 0.08261 0.63595 0.0
C932 C 0.31261 0.05438 0.56764 0.0
C933 C 0.3148 0.06997 0.53396 0.0
C934 C 0.32809 0.0466 0.59569 0.0
C935 C 0.3459 0.0544 0.59084 0.0
C936 C 0.34781 0.07066 0.55952 0.0
H937 H 0.46065 0.00786 0.62907 0.0
H938 H 0.42828 0.01633 0.59806 0.0
C939 C 0.33236 0.07843 0.53139 0.0
C940 C 0.36294 0.04445 0.61428 0.0
H941 H 0.40034 0.04982 0.68835 0.0
C942 C 0.36835 0.02662 0.60149 0.0
C943 C 0.37432 0.05273 0.64689 0.0
C944 C 0.36874 0.07149 0.66337 0.0
C945 C 0.38522 0.01705 0.61945 0.0
C946 C 0.39701 0.02568 0.65043 0.0
C947 C 0.3913 0.04328 0.66431 0.0
C948 C 0.41557 0.01705 0.66847 0.0
C949 C 0.39029 0.99785 0.60511 0.0
C950 C 0.41899 0.01418 0.71815 0.0
C951 C 0.43737 0.00951 0.73573 0.0
C952 C 0.45267 0.00762 0.70394 0.0
C953 C 0.44905 0.00906 0.65426 0.0
C954 C 0.43058 0.0139 0.63657 0.0
H955 H 0.37756 0.99125 0.59236 0.0
H956 H 0.40071 0.99893 0.5753 0.0
H957 H 0.39691 0.98864 0.63566 0.0
H958 H 0.40759 0.0165 0.7433 0.0
H959 H 0.43978 0.00836 0.77426 0.0
H960 H 0.54383 0.33617 0.56007 0.0
H961 H 0.54361 0.36375 0.6034 0.0
H962 H 0.57173 0.39358 0.48448 0.0
H963 H 0.57347 0.36561 0.44251 0.0
H964 H 0.58235 0.40532 0.56692 0.0
H965 H 0.50354 0.4038 0.56102 0.0
H966 H 0.5146 0.38344 0.59419 0.0
H967 H 0.51891 0.38807 0.53066 0.0
C968 C 0.55061 0.34834 0.54374 0.0
C969 C 0.55821 0.34879 0.49712 0.0
C970 C 0.55019 0.36422 0.56831 0.0
C971 C 0.55691 0.38094 0.54627 0.0
C972 C 0.56612 0.38093 0.50181 0.0
H973 H 0.50745 0.48698 0.61676 0.0
H974 H 0.51917 0.46098 0.57345 0.0
C975 C 0.56691 0.36496 0.47763 0.0
C976 C 0.55281 0.39875 0.56715 0.0
H977 H 0.51623 0.42668 0.60441 0.0
C978 C 0.5679 0.41005 0.57505 0.0
C979 C 0.53388 0.40516 0.57638 0.0
C980 C 0.51679 0.39459 0.56465 0.0
C981 C 0.5646 0.42744 0.59272 0.0
C982 C 0.54575 0.43339 0.6042 0.0
C983 C 0.53069 0.42214 0.59578 0.0
C984 C 0.54109 0.45094 0.62598 0.0
C985 C 0.58128 0.4394 0.59772 0.0
C986 C 0.54988 0.45433 0.66913 0.0
C987 C 0.54351 0.46945 0.69326 0.0
C988 C 0.52787 0.48114 0.67537 0.0
C989 C 0.51952 0.47817 0.63136 0.0
C990 C 0.52618 0.4633 0.6067 0.0
H991 H 0.59286 0.43615 0.57234 0.0
H992 H 0.57695 0.45446 0.59108 0.0
H993 H 0.58722 0.43654 0.63474 0.0
H994 H 0.56101 0.44475 0.68555 0.0
H995 H 0.55006 0.47126 0.72743 0.0
H996 H 0.14427 0.44001 0.48126 0.0
H997 H 0.12227 0.4578 0.52955 0.0
H998 H 0.16311 0.49994 0.53417 0.0
H999 H 0.18517 0.48235 0.48569 0.0
H1000 H 0.13213 0.47816 0.62784 0.0
H1001 H 0.10828 0.5205 0.45768 0.0
H1002 H 0.11719 0.49661 0.45688 0.0
H1003 H 0.13321 0.51401 0.46901 0.0
C1004 C 0.1487 0.45286 0.49343 0.0
C1005 C 0.16637 0.45983 0.47962 0.0
C1006 C 0.13619 0.46295 0.52102 0.0
C1007 C 0.14114 0.48015 0.53492 0.0
C1008 C 0.15916 0.48664 0.52371 0.0
H1009 H 0.05663 0.54033 0.70261 0.0
H1010 H 0.08691 0.53604 0.66021 0.0
C1011 C 0.17175 0.47651 0.49633 0.0
C1012 C 0.12663 0.49199 0.5569 0.0
H1013 H 0.08964 0.52369 0.52658 0.0
C1014 C 0.12309 0.48847 0.60617 0.0
C1015 C 0.11498 0.50534 0.52809 0.0
C1016 C 0.11848 0.50947 0.47491 0.0
C1017 C 0.10741 0.49734 0.62708 0.0
C1018 C 0.09512 0.50996 0.5977 0.0
C1019 C 0.09925 0.51415 0.54889 0.0
C1020 C 0.07633 0.51618 0.61532 0.0
C1021 C 0.10331 0.49226 0.67968 0.0
C1022 C 0.06029 0.50717 0.60203 0.0
C1023 C 0.04314 0.5095 0.62614 0.0
C1024 C 0.04177 0.52103 0.66354 0.0
C1025 C 0.05731 0.53149 0.67359 0.0
C1026 C 0.07461 0.52896 0.64974 0.0
H1027 H 0.11372 0.48142 0.69681 0.0
H1028 H 0.10381 0.50484 0.69919 0.0
H1029 H 0.08875 0.48708 0.68394 0.0
H1030 H 0.06142 0.49727 0.57546 0.0
H1031 H 0.03135 0.50131 0.61777 0.0
H1032 H 0.07793 0.82691 0.01361 0.0
H1033 H 0.07998 0.85117 0.94595 0.0
H1034 H 0.06369 0.89317 0.03898 0.0
H1035 H 0.06034 0.86935 0.10556 0.0
H1036 H 0.0444 0.87712 0.92329 0.0
H1037 H 0.1102 0.9135 0.95345 0.0
H1038 H 0.10756 0.88922 0.97437 0.0
H1039 H 0.0965 0.90719 0.00643 0.0
C1040 C 0.07487 0.8413 0.01987 0.0
C1041 C 0.06886 0.84603 0.06537 0.0
C1042 C 0.0763 0.85513 0.98124 0.0
C1043 C 0.07223 0.8739 0.98785 0.0
C1044 C 0.06728 0.87876 0.03353 0.0
H1045 H 0.04007 0.98227 0.87672 0.0
H1046 H 0.05517 0.95346 0.91678 0.0
C1047 C 0.06548 0.86501 0.07177 0.0
C1048 C 0.07014 0.88833 0.94652 0.0
H1049 H 0.0858 0.93078 0.90476 0.0
C1050 C 0.05367 0.88867 0.91807 0.0
C1051 C 0.08221 0.90334 0.94061 0.0
C1052 C 0.10022 0.90332 0.97005 0.0
C1053 C 0.04806 0.90438 0.88643 0.0
C1054 C 0.0597 0.91987 0.88198 0.0
C1055 C 0.07689 0.91893 0.90818 0.0
C1056 C 0.05314 0.93786 0.85501 0.0
C1057 C 0.02895 0.90474 0.86127 0.0
C1058 C 0.04764 0.93889 0.80646 0.0
C1059 C 0.03857 0.9552 0.78392 0.0
C1060 C 0.03541 0.97091 0.80916 0.0
C1061 C 0.04229 0.97034 0.8565 0.0
C1062 C 0.05096 0.9539 0.87934 0.0
H1063 H 0.01999 0.89351 0.87719 0.0
H1064 H 0.02092 0.91832 0.86299 0.0
H1065 H 0.03121 0.90265 0.82288 0.0
H1066 H 0.04973 0.92689 0.78651 0.0
H1067 H 0.03367 0.95539 0.74708 0.0
H1068 H 0.6714 0.92704 0.01928 0.0
H1069 H 0.64605 0.94263 0.96679 0.0
H1070 H 0.67319 0.99474 0.96751 0.0
H1071 H 0.69883 0.97908 0.01809 0.0
H1072 H 0.62179 0.9687 0.99107 0.0
H1073 H 0.65966 0.99723 0.82861 0.0
H1074 H 0.67087 0.9802 0.87315 0.0
H1075 H 0.66929 0.00451 0.8826 0.0
C1076 C 0.67215 0.94171 0.00703 0.0
C1077 C 0.68709 0.95185 0.02222 0.0
C1078 C 0.65769 0.95061 0.97727 0.0
C1079 C 0.65782 0.96983 0.96279 0.0
C1080 C 0.67304 0.97984 0.97697 0.0
H1081 H 0.54844 0.02903 0.87825 0.0
H1082 H 0.57916 0.02144 0.91966 0.0
C1083 C 0.68766 0.97087 0.00598 0.0
C1084 C 0.64114 0.97969 0.93699 0.0
H1085 H 0.62765 0.00916 0.83782 0.0
C1086 C 0.62307 0.97748 0.95742 0.0
C1087 C 0.64285 0.99115 0.89314 0.0
C1088 C 0.66169 0.99328 0.86786 0.0
C1089 C 0.60658 0.9861 0.93486 0.0
C1090 C 0.6083 0.99793 0.89158 0.0
C1091 C 0.62642 1.00038 0.87148 0.0
C1092 C 0.5913 0.00593 0.86371 0.0
C1093 C 0.58745 0.98175 0.95661 0.0
C1094 C 0.58857 1.00099 0.81714 0.0
C1095 C 0.57132 0.00564 0.79313 0.0
C1096 C 0.55635 0.01518 0.81542 0.0
C1097 C 0.55963 0.02148 0.86045 0.0
C1098 C 0.57709 0.017 0.88429 0.0
H1099 H 0.58847 0.96916 0.98314 0.0
H1100 H 0.58194 0.99365 0.97564 0.0
H1101 H 0.57695 0.97948 0.92836 0.0
H1102 H 0.59939 0.9926 0.80034 0.0
H1103 H 0.5694 1.00078 0.75815 0.0
H1104 H 0.42105 0.66601 0.07715 0.0
H1105 H 0.42003 0.63745 0.03712 0.0
H1106 H 0.46354 0.65714 0.93883 0.0
H1107 H 0.46439 0.68572 0.97798 0.0
H1108 H 0.43676 0.63835 0.89484 0.0
H1109 H 0.46333 0.59805 0.06477 0.0
H1110 H 0.44087 0.61092 0.06879 0.0
H1111 H 0.46219 0.62316 0.05643 0.0
C1112 C 0.43012 0.66435 0.0464 0.0
C1113 C 0.44291 0.67799 0.03089 0.0
C1114 C 0.42958 0.64803 0.02376 0.0
C1115 C 0.44204 0.64501 0.9858 0.0
C1116 C 0.45385 0.65918 0.96818 0.0
H1117 H 0.50386 0.55299 0.89171 0.0
H1118 H 0.48967 0.57848 0.93278 0.0
C1119 C 0.45426 0.67554 0.99046 0.0
C1120 C 0.44418 0.62664 0.96682 0.0
H1121 H 0.46068 0.5816 0.99738 0.0
C1122 C 0.44172 0.62585 0.91727 0.0
C1123 C 0.45087 0.61043 0.99628 0.0
C1124 C 0.45464 0.6106 0.04944 0.0
C1125 C 0.4465 0.60948 0.89597 0.0
C1126 C 0.45349 0.59337 0.92533 0.0
C1127 C 0.45519 0.59395 0.97514 0.0
C1128 C 0.46122 0.57653 0.90445 0.0
C1129 C 0.4451 0.60993 0.84194 0.0
C1130 C 0.44977 0.56655 0.87626 0.0
C1131 C 0.4579 0.55203 0.85236 0.0
C1132 C 0.47755 0.54715 0.85674 0.0
C1133 C 0.4887 0.55643 0.88741 0.0
C1134 C 0.4806 0.57101 0.91095 0.0
H1135 H 0.44313 0.62438 0.82402 0.0
H1136 H 0.45811 0.60319 0.82729 0.0
H1137 H 0.43269 0.60216 0.83247 0.0
H1138 H 0.43469 0.57032 0.87172 0.0
H1139 H 0.44889 0.54502 0.82931 0.0
H1140 H 0.81378 0.5328 0.01525 0.0
H1141 H 0.83967 0.51687 0.9741 0.0
H1142 H 0.8778 0.55865 0.0066 0.0
H1143 H 0.85196 0.5749 0.04695 0.0
H1144 H 0.86852 0.53314 0.8962 0.0
H1145 H 0.89811 0.50419 0.07482 0.0
H1146 H 0.87332 0.51192 0.06562 0.0
H1147 H 0.89112 0.52867 0.06833 0.0
C1148 C 0.82751 0.53893 0.01229 0.0
C1149 C 0.83092 0.55502 0.03463 0.0
C1150 C 0.84228 0.52972 0.98915 0.0
C1151 C 0.86058 0.53648 0.98824 0.0
C1152 C 0.86373 0.55317 0.00763 0.0
H1153 H 0.9727 0.52434 0.90912 0.0
H1154 H 0.94227 0.52699 0.95032 0.0
C1155 C 0.849 0.56241 0.0306 0.0
C1156 C 0.87684 0.52562 0.97002 0.0
H1157 H 0.91852 0.50203 0.00743 0.0
C1158 C 0.87931 0.52596 0.92026 0.0
C1159 C 0.89068 0.51623 1.00189 0.0
C1160 C 0.8882 0.51504 0.05571 0.0
C1161 C 0.89608 0.51822 0.90139 0.0
C1162 C 0.91044 0.50972 0.93339 0.0
C1163 C 0.90741 0.50846 0.98313 0.0
C1164 C 0.92975 0.50499 0.91614 0.0
C1165 C 0.89889 0.52033 0.84758 0.0
C1166 C 0.93308 0.491 0.88545 0.0
C1167 C 0.95057 0.48937 0.86198 0.0
C1168 C 0.96477 0.50182 0.86886 0.0
C1169 C 0.96194 0.51465 0.90294 0.0
C1170 C 0.94457 0.51618 0.92649 0.0
H1171 H 0.88729 0.52922 0.82829 0.0
H1172 H 0.91272 0.52652 0.8385 0.0
H1173 H 0.89923 0.5064 0.83416 0.0
H1174 H 0.92182 0.48209 0.87763 0.0
H1175 H 0.95239 0.47938 0.83578 0.0
H1176 H 0.03164 0.20572 0.10606 0.0
H1177 H 0.03892 0.18172 0.05156 0.0
H1178 H 0.97944 0.18284 0.01204 0.0
H1179 H 0.9723 0.20709 0.06476 0.0
H1180 H 0.02609 0.14734 0.06124 0.0
H1181 H 0.00288 0.18097 0.88253 0.0
H1182 H 0.00614 0.19412 0.93309 0.0
H1183 H 0.9843 0.1827 0.92597 0.0
C1184 C 0.02026 0.20131 0.08438 0.0
C1185 C 1.00139 0.20834 0.08976 0.0
C1186 C 0.02439 0.18745 0.05358 0.0
C1187 C 0.00977 0.18047 0.02718 0.0
C1188 C 0.99109 0.18816 0.03095 0.0
H1189 H 0.99341 0.0817 0.88217 0.0
H1190 H 0.9899 0.11031 0.92186 0.0
C1191 C 0.98699 0.20198 0.06151 0.0
C1192 C 0.01354 0.164 0.99957 0.0
H1193 H 0.00555 0.14741 0.89129 0.0
C1194 C 0.02184 0.14748 0.02387 0.0
C1195 C 0.00793 0.16402 0.95078 0.0
C1196 C 1.0 0.18147 0.92146 0.0
C1197 C 0.02412 0.13096 1.00137 0.0
C1198 C 0.01806 0.13088 0.95308 0.0
C1199 C 0.01002 0.14742 0.92846 0.0
C1200 C 0.02017 0.11377 0.92755 0.0
C1201 C 0.03254 0.11351 0.02984 0.0
C1202 C 0.03833 0.10633 0.91677 0.0
C1203 C 0.04042 0.09006 0.89363 0.0
C1204 C 0.02438 0.08068 0.88073 0.0
C1205 C 0.00614 0.0884 0.89108 0.0
C1206 C 0.00408 0.10479 0.914 0.0
H1207 H 0.03302 0.1149 0.06903 0.0
H1208 H 0.02418 0.10135 0.02384 0.0
H1209 H 0.04733 0.11062 0.01759 0.0
H1210 H 0.05095 0.11316 0.92616 0.0
H1211 H 0.05471 0.08501 0.88564 0.0
H1212 H 0.32279 0.02864 0.16526 0.0
H1213 H 0.34771 0.02446 0.10587 0.0
H1214 H 0.3202 0.06857 0.00969 0.0
H1215 H 0.2955 0.07317 0.07034 0.0
H1216 H 0.35212 0.01713 0.01476 0.0
H1217 H 0.37081 0.08984 0.03201 0.0
H1218 H 0.35335 0.07834 0.0698 0.0
H1219 H 0.34719 0.08781 0.00929 0.0
C1220 C 0.32169 0.03695 0.13067 0.0
C1221 C 0.3072 0.05112 0.12211 0.0
C1222 C 0.33602 0.03466 0.09684 0.0
C1223 C 0.33618 0.04654 0.05376 0.0
C1224 C 0.32067 0.05956 0.04319 0.0
H1225 H 0.42877 0.03072 0.84672 0.0
H1226 H 0.39753 0.03212 0.88505 0.0
C1227 C 0.30637 0.06196 0.07739 0.0
C1228 C 0.35349 0.04631 0.02291 0.0
H1229 H 0.38996 0.07288 0.98119 0.0
C1230 C 0.36032 0.02936 0.00705 0.0
C1231 C 0.36446 0.06217 0.01373 0.0
C1232 C 0.35873 0.08053 0.03242 0.0
C1233 C 0.37784 0.02775 0.98302 0.0
C1234 C 0.38866 0.04368 0.97327 0.0
C1235 C 0.38167 0.06069 0.9884 0.0
C1236 C 0.40762 0.04292 0.94932 0.0
C1237 C 0.38494 0.00879 0.97032 0.0
C1238 C 0.4237 0.04914 0.97168 0.0
C1239 C 0.44155 0.04863 0.94941 0.0
C1240 C 0.44376 0.04176 0.90442 0.0
C1241 C 0.42764 0.0357 0.88187 0.0
C1242 C 0.40975 0.03644 0.90385 0.0
H1243 H 0.37788 0.99741 0.99213 0.0
H1244 H 0.38168 0.00767 0.93191 0.0
H1245 H 0.4006 0.00659 0.97583 0.0
H1246 H 0.42247 0.05427 0.00667 0.0
H1247 H 0.45369 0.05333 0.96772 0.0
H1248 H 0.46976 0.33957 0.12409 0.0
H1249 H 0.46185 0.36347 0.0569 0.0
H1250 H 0.51894 0.35635 1.00257 0.0
H1251 H 0.52669 0.33242 0.06926 0.0
H1252 H 0.47996 0.39553 0.04958 0.0
H1253 H 0.4887 0.36439 0.87806 0.0
H1254 H 0.48578 0.35046 0.93483 0.0
H1255 H 0.50881 0.35853 0.91748 0.0
C1256 C 0.48023 0.3424 0.09624 0.0
C1257 C 0.49869 0.33386 0.10117 0.0
C1258 C 0.4758 0.35622 0.05817 0.0
C1259 C 0.48974 0.3617 0.02429 0.0
C1260 C 0.50777 0.35215 0.02735 0.0
H1261 H 0.51603 0.46882 0.89455 0.0
H1262 H 0.51217 0.43918 0.94285 0.0
C1263 C 0.51219 0.33838 0.06541 0.0
C1264 C 0.48664 0.37917 0.99099 0.0
H1265 H 0.49193 0.39769 0.8743 0.0
C1266 C 0.48223 0.39591 0.01112 0.0
C1267 C 0.4895 0.3798 0.9407 0.0
C1268 C 0.49327 0.3623 0.91642 0.0
C1269 C 0.48156 0.41322 0.98293 0.0
C1270 C 0.48561 0.41394 0.93323 0.0
C1271 C 0.48903 0.39718 0.9125 0.0
C1272 C 0.48764 0.432 0.90322 0.0
C1273 C 0.47686 0.43068 0.00681 0.0
C1274 C 0.47528 0.43778 0.86424 0.0
C1275 C 0.4774 0.45489 0.83641 0.0
C1276 C 0.49208 0.46641 0.84673 0.0
C1277 C 0.50449 0.46042 0.8856 0.0
C1278 C 0.50228 0.44345 0.91343 0.0
H1279 H 0.46907 0.42762 0.04103 0.0
H1280 H 0.49031 0.43707 0.01525 0.0
H1281 H 0.4681 0.44102 0.98269 0.0
H1282 H 0.46393 0.42912 0.85555 0.0
H1283 H 0.46768 0.459 0.80657 0.0
H1284 H 0.19391 0.49287 0.05199 0.0
H1285 H 0.16731 0.50063 0.99469 0.0
H1286 H 0.15216 0.44335 0.01199 0.0
H1287 H 0.17856 0.4356 0.06939 0.0
H1288 H 0.14995 0.46562 0.90916 0.0
H1289 H 0.11101 0.49697 0.05728 0.0
H1290 H 0.13507 0.50341 0.04503 0.0
H1291 H 0.1308 0.48001 0.06882 0.0
C1292 C 0.18531 0.48185 0.04219 0.0
C1293 C 0.1883 0.46363 0.06492 0.0
C1294 C 0.17004 0.48631 0.00983 0.0
C1295 C 0.1577 0.47258 0.99946 0.0
C1296 C 0.16152 0.45413 0.01946 0.0
H1297 H 0.05121 0.46802 0.84063 0.0
H1298 H 0.08179 0.46085 0.88266 0.0
C1299 C 0.17662 0.44972 0.0521 0.0
C1300 C 0.13969 0.47766 0.97208 0.0
H1301 H 0.09471 0.49712 0.98388 0.0
C1302 C 0.13787 0.47259 0.92527 0.0
C1303 C 0.12398 0.48669 0.99334 0.0
C1304 C 0.12511 0.49206 0.04398 0.0
C1305 C 0.12075 0.4765 0.89887 0.0
C1306 C 0.10486 0.48523 0.9205 0.0
C1307 C 0.10681 0.49039 0.96729 0.0
C1308 C 0.08613 0.48938 0.89529 0.0
C1309 C 0.12001 0.47161 0.84775 0.0
C1310 C 0.07794 0.50766 0.88997 0.0
C1311 C 0.06032 0.51174 0.86673 0.0
C1312 C 0.05042 0.49762 0.84819 0.0
C1313 C 0.05846 0.47924 0.85427 0.0
C1314 C 0.07607 0.47515 0.87786 0.0
H1315 H 0.13451 0.47021 0.83222 0.0
H1316 H 0.11339 0.45804 0.84721 0.0
H1317 H 0.11135 0.48231 0.82442 0.0
H1318 H 0.08532 0.51887 0.90337 0.0
H1319 H 0.05461 0.52606 0.86266 0.0
H1320 H 0.96699 0.81128 0.44307 0.0
H1321 H 0.95953 0.83469 0.49899 0.0
H1322 H 0.01947 0.84356 0.51214 0.0
H1323 H 0.02698 0.81945 0.45952 0.0
H1324 H 0.00371 0.84807 0.59336 0.0
H1325 H 0.95831 0.88835 0.45159 0.0
H1326 H 0.94977 0.86601 0.47222 0.0
H1327 H 0.97208 0.86747 0.44074 0.0
C1328 C 0.97858 0.81782 0.45909 0.0
C1329 C 0.99756 0.81375 0.44587 0.0
C1330 C 0.97429 0.83148 0.49044 0.0
C1331 C 0.98886 0.84156 0.50846 0.0
C1332 C 0.00787 0.83631 0.4984 0.0
H1333 H 0.98625 0.95608 0.55975 0.0
H1334 H 0.98797 0.92527 0.53132 0.0
C1335 C 0.01216 0.82253 0.46791 0.0
C1336 C 0.98468 0.85834 0.53488 0.0
H1337 H 0.96226 0.90186 0.52323 0.0
C1338 C 0.99454 0.85979 0.57813 0.0
C1339 C 0.97289 0.87384 0.51495 0.0
C1340 C 0.96279 0.87398 0.46715 0.0
C1341 C 0.99354 0.87635 0.60085 0.0
C1342 C 0.98176 0.89182 0.58086 0.0
C1343 C 0.9713 0.89008 0.53874 0.0
C1344 C 0.98123 0.91046 0.60007 0.0
C1345 C 0.00597 0.87737 0.64451 0.0
C1346 C 0.97702 0.91267 0.64853 0.0
C1347 C 0.97641 0.93042 0.66513 0.0
C1348 C 0.97946 0.94636 0.63332 0.0
C1349 C 0.9836 0.94411 0.58501 0.0
C1350 C 0.98458 0.92644 0.56872 0.0
H1351 H 0.01775 0.86638 0.64733 0.0
H1352 H 0.01226 0.89115 0.64362 0.0
H1353 H 0.99719 0.87527 0.67739 0.0
H1354 H 0.97388 0.90074 0.67338 0.0
H1355 H 0.97301 0.93178 0.70241 0.0
H1356 H 0.70004 0.93715 0.43051 0.0
H1357 H 0.67292 0.94348 0.48213 0.0
H1358 H 0.6825 1.00219 0.46181 0.0
H1359 H 0.70956 0.9959 0.409 0.0
H1360 H 0.66716 0.96069 0.56569 0.0
H1361 H 0.62811 1.00012 0.41048 0.0
H1362 H 0.64989 0.98627 0.40324 0.0
H1363 H 0.65069 0.00874 0.42506 0.0
C1364 C 0.69659 0.95138 0.43775 0.0
C1365 C 0.70682 0.96605 0.41538 0.0
C1366 C 0.68107 0.95499 0.46727 0.0
C1367 C 0.67536 0.97335 0.47498 0.0
C1368 C 0.68639 0.98794 0.45554 0.0
H1369 H 0.56839 0.01187 0.60497 0.0
H1370 H 0.60016 0.01067 0.56909 0.0
C1371 C 0.702 0.98432 0.42592 0.0
C1372 C 0.6572 0.97701 0.50073 0.0
H1373 H 0.61178 0.99637 0.48387 0.0
C1374 C 0.6551 0.96862 0.54793 0.0
C1375 C 0.6414 0.98731 0.47751 0.0
C1376 C 0.64247 0.99603 0.42616 0.0
C1377 C 0.63766 0.97008 0.5723 0.0
C1378 C 0.62175 0.97993 0.5486 0.0
C1379 C 0.62397 0.98878 0.50196 0.0
C1380 C 0.6025 0.98064 0.57086 0.0
C1381 C 0.63643 0.96106 0.6233 0.0
C1382 C 0.59306 0.9642 0.58303 0.0
C1383 C 0.57489 0.96483 0.60359 0.0
C1384 C 0.5657 0.98195 0.61238 0.0
C1385 C 0.57511 0.99843 0.59942 0.0
C1386 C 0.59325 0.99778 0.57869 0.0
H1387 H 0.65073 0.95877 0.64067 0.0
H1388 H 0.62715 0.96971 0.6454 0.0
H1389 H 0.63022 0.94729 0.62303 0.0
H1390 H 0.59972 0.95083 0.57644 0.0
H1391 H 0.56822 0.95185 0.61335 0.0
H1392 H 0.47545 0.69343 0.45787 0.0
H1393 H 0.48455 0.66993 0.52449 0.0
H1394 H 0.54129 0.66465 0.46686 0.0
H1395 H 0.53204 0.68819 0.39972 0.0
H1396 H 0.52435 0.63169 0.47726 0.0
H1397 H 0.51617 0.66413 0.647 0.0
H1398 H 0.49559 0.66914 0.60874 0.0
H1399 H 0.51821 0.67772 0.58936 0.0
C1400 C 0.49012 0.68791 0.46078 0.0
C1401 C 0.50314 0.69285 0.42416 0.0
C1402 C 0.49533 0.67442 0.49887 0.0
C1403 C 0.51368 0.66555 0.50113 0.0
C1404 C 0.5271 0.67138 0.46619 0.0
H1405 H 0.53827 0.56961 0.72241 0.0
H1406 H 0.54192 0.59922 0.67201 0.0
C1407 C 0.5219 0.68499 0.42813 0.0
C1408 C 0.51768 0.64841 0.53513 0.0
H1409 H 0.51351 0.63066 0.65282 0.0
C1410 C 0.52236 0.63157 0.51577 0.0
C1411 C 0.51521 0.64813 0.5855 0.0
C1412 C 0.51121 0.66579 0.60893 0.0
C1413 C 0.52355 0.61445 0.54483 0.0
C1414 C 0.51979 0.61404 0.59462 0.0
C1415 C 0.51621 0.63094 0.61456 0.0
C1416 C 0.51793 0.59613 0.62543 0.0
C1417 C 0.52837 0.59683 0.52174 0.0
C1418 C 0.50315 0.58467 0.6163 0.0
C1419 C 0.50099 0.56789 0.64495 0.0
C1420 C 0.51357 0.56208 0.68358 0.0
C1421 C 0.52841 0.57358 0.69279 0.0
C1422 C 0.53048 0.59053 0.66415 0.0
H1423 H 0.53595 0.59976 0.48715 0.0
H1424 H 0.53738 0.58677 0.54603 0.0
H1425 H 0.51499 0.59016 0.51415 0.0
H1426 H 0.49313 0.5888 0.58711 0.0
H1427 H 0.48935 0.55948 0.63678 0.0
H1428 H 0.83063 0.5896 0.45885 0.0
H1429 H 0.85517 0.5809 0.52083 0.0
H1430 H 0.84241 0.52321 0.52178 0.0
H1431 H 0.81775 0.53192 0.45971 0.0
H1432 H 0.85721 0.55741 0.61715 0.0
H1433 H 0.89876 0.52854 0.46971 0.0
H1434 H 0.87814 0.54446 0.45813 0.0
H1435 H 0.87515 0.52055 0.4799 0.0
C1436 C 0.83254 0.57516 0.47375 0.0
C1437 C 0.82226 0.56143 0.45471 0.0
C1438 C 0.84662 0.57019 0.50896 0.0
C1439 C 0.8508 0.55139 0.52537 0.0
C1440 C 0.83947 0.53779 0.50934 0.0
H1441 H 0.95242 0.49705 0.66822 0.0
H1442 H 0.92202 0.50435 0.62609 0.0
C1443 C 0.82525 0.54279 0.47432 0.0
C1444 C 0.8684 0.54598 0.55426 0.0
H1445 H 0.91366 0.52674 0.5454 0.0
C1446 C 0.86954 0.55062 0.60167 0.0
C1447 C 0.8845 0.53722 0.53383 0.0
C1448 C 0.88427 0.53247 0.48251 0.0
C1449 C 0.88631 0.5465 0.62942 0.0
C1450 C 0.90254 0.538 0.60867 0.0
C1451 C 0.90128 0.53327 0.56133 0.0
C1452 C 0.92096 0.53375 0.63524 0.0
C1453 C 0.88634 0.55098 0.68094 0.0
C1454 C 0.93077 0.5479 0.65382 0.0
C1455 C 0.94822 0.54375 0.67815 0.0
C1456 C 0.95634 0.5254 0.68392 0.0
C1457 C 0.94665 0.51135 0.66444 0.0
C1458 C 0.9292 0.51549 0.64038 0.0
H1459 H 0.87164 0.55228 0.69528 0.0
H1460 H 0.89471 0.54011 0.70444 0.0
H1461 H 0.89293 0.56449 0.68286 0.0
H1462 H 0.92501 0.56219 0.64922 0.0
H1463 H 0.95531 0.55492 0.69255 0.0
loop_
_geom_bond_atom_site_label_1
_geom_bond_atom_site_label_2
_geom_bond_distance
_geom_bond_site_symmetry_2
_ccdc_geom_bond_type
C0 C1 1.391 . S
C0 C4 1.391 . S
C0 H42 0.948 . S
C1 C0 1.391 . S
C1 C2 1.391 . S
C2 C1 1.391 . S
C2 H58 0.947 . S
C2 C59 1.392 . S
C3 C4 1.391 . S
C3 C7 1.397 . S
C3 C59 1.419 . S
C4 C0 1.391 . S
C4 C3 1.391 . S
C4 C5 1.399 . S
C5 C4 1.399 . S
C5 C8 1.396 . S
C5 C17 1.453 . S
C5 C18 1.684 . S
H6 C30 0.948 . S
C7 C3 1.397 . S
C7 C8 1.394 . S
C7 C26 1.723 . S
C8 C5 1.396 . S
C8 C7 1.394 . S
C8 C38 1.723 . S
H9 C32 0.947 . S
H10 C33 0.948 . S
H11 C39 0.982 . S
H12 C40 0.979 . S
H13 C40 0.980 1_556 S
H14 C40 0.983 1_556 S
H15 C39 0.979 1_556 S
H16 C39 0.977 1_556 S
C17 C5 1.453 . S
C17 H46 0.982 . S
C17 H47 0.979 . S
C17 H48 0.977 . S
C18 C5 1.684 . S
C18 H43 0.979 . S
C18 H44 0.980 . S
C18 H45 0.983 . S
C19 C20 1.391 1_554 S
C19 C24 1.391 . S
C19 H49 0.948 . S
C20 C19 1.391 1_556 S
C20 C21 1.391 . S
C21 C20 1.391 . S
C21 C22 1.392 . S
C21 H50 0.947 . S
C22 C21 1.392 . S
C22 C23 1.419 1_556 S
C22 H51 0.948 . S
C23 C22 1.419 1_554 S
C23 C24 1.391 . S
C23 C27 1.397 . S
C24 C19 1.391 . S
C24 C23 1.391 . S
C24 C25 1.399 . S
C25 C24 1.399 . S
C25 C26 1.396 . S
C25 C28 1.453 . S
C25 C29 1.684 . S
C26 C7 1.723 . S
C26 C25 1.396 . S
C26 C27 1.394 . S
C27 C23 1.397 . S
C27 C26 1.394 . S
C27 C37 1.723 . S
C28 C25 1.453 . S
C28 H52 0.982 . S
C28 H53 0.979 . S
C28 H54 0.977 . S
C29 C25 1.684 . S
C29 H55 0.979 . S
C29 H56 0.980 . S
C29 H57 0.983 . S
C30 H6 0.948 . S
C30 C31 1.391 . S
C30 C35 1.391 . S
C31 C30 1.391 . S
C31 C32 1.391 . S
C32 H9 0.947 . S
C32 C31 1.391 . S
C32 C33 1.392 . S
C33 H10 0.948 . S
C33 C32 1.392 . S
C33 C34 1.419 . S
C34 C33 1.419 . S
C34 C35 1.391 . S
C34 C38 1.397 . S
C35 C30 1.391 . S
C35 C34 1.391 . S
C35 C36 1.399 . S
C36 C35 1.399 . S
C36 C37 1.396 . S
C36 C39 1.453 . S
C36 C40 1.684 . S
C37 C27 1.723 . S
C37 C36 1.396 . S
C37 C38 1.394 . S
C38 C8 1.723 . S
C38 C34 1.397 . S
C38 C37 1.394 . S
C39 H11 0.982 . S
C39 H15 0.979 1_554 S
C39 H16 0.977 1_554 S
C39 C36 1.453 . S
C40 H12 0.979 . S
C40 H13 0.980 1_554 S
C40 H14 0.983 1_554 S
C40 C36 1.684 . S
H41 C59 0.948 . S
H42 C0 0.948 . S
H43 C18 0.979 . S
H44 C18 0.980 . S
H45 C18 0.983 . S
H46 C17 0.982 . S
H47 C17 0.979 . S
H48 C17 0.977 . S
H49 C19 0.948 . S
H50 C21 0.947 . S
H51 C22 0.948 . S
H52 C28 0.982 . S
H53 C28 0.979 . S
H54 C28 0.977 . S
H55 C29 0.979 . S
H56 C29 0.980 . S
H57 C29 0.983 . S
H58 C2 0.947 . S
C59 C2 1.392 . S
C59 C3 1.419 . S
C59 H41 0.948 . S
C60 C61 1.391 . S
C60 C64 1.391 1_556 S
C60 H102 0.948 . S
C61 C60 1.391 . S
C61 C62 1.391 1_556 S
C62 C61 1.391 1_554 S
C62 H118 0.947 . S
C62 C119 1.392 . S
C63 C64 1.391 . S
C63 C67 1.397 1_655 S
C63 C119 1.419 . S
C64 C60 1.391 1_554 S
C64 C63 1.391 . S
C64 C65 1.399 . S
C65 C64 1.399 . S
C65 C68 1.389 1_655 S
C65 C77 1.466 1_655 S
C65 C78 1.684 1_554 S
H66 C90 0.948 . S
C67 C63 1.397 1_455 S
C67 C68 1.396 . S
C67 C86 1.722 . S
C68 C65 1.389 1_455 S
C68 C67 1.396 . S
C68 C98 1.719 . S
H69 C92 0.947 . S
H70 C93 0.948 . S
H71 C99 0.982 . S
H72 C100 0.979 . S
H73 C100 0.980 . S
H74 C100 0.983 . S
H75 C99 0.979 . S
H76 C99 0.977 . S
C77 C65 1.466 1_455 S
C77 H106 0.992 . S
C77 H107 0.955 1_554 S
C77 H108 0.978 . S
C78 C65 1.684 1_556 S
C78 H103 0.979 . S
C78 H104 0.980 . S
C78 H105 0.983 . S
C79 C80 1.391 . S
C79 C84 1.391 . S
C79 H109 0.948 . S
C80 C79 1.391 . S
C80 C81 1.391 . S
C81 C80 1.391 . S
C81 C82 1.392 . S
C81 H110 0.947 . S
C82 C81 1.392 . S
C82 C83 1.419 . S
C82 H111 0.948 . S
C83 C82 1.419 . S
C83 C84 1.391 . S
C83 C87 1.397 1_655 S
C84 C79 1.391 . S
C84 C83 1.391 . S
C84 C85 1.399 . S
C85 C84 1.399 . S
C85 C86 1.390 1_655 S
C85 C88 1.453 1_655 S
C85 C89 1.684 . S
C86 C67 1.722 . S
C86 C85 1.390 1_455 S
C86 C87 1.390 . S
C87 C83 1.397 1_455 S
C87 C86 1.390 . S
C87 C97 1.725 . S
C88 C85 1.453 1_455 S
C88 H112 0.982 . S
C88 H113 0.979 . S
C88 H114 0.977 . S
C89 C85 1.684 . S
C89 H115 0.979 . S
C89 H116 0.980 . S
C89 H117 0.983 . S
C90 H66 0.948 . S
C90 C91 1.391 . S
C90 C95 1.391 . S
C91 C90 1.391 . S
C91 C92 1.391 . S
C92 H69 0.947 . S
C92 C91 1.391 . S
C92 C93 1.392 . S
C93 H70 0.948 . S
C93 C92 1.392 . S
C93 C94 1.419 . S
C94 C93 1.419 . S
C94 C95 1.391 . S
C94 C98 1.397 1_655 S
C95 C90 1.391 . S
C95 C94 1.391 . S
C95 C96 1.399 . S
C96 C95 1.399 . S
C96 C97 1.385 1_655 S
C96 C99 1.453 1_655 S
C96 C100 1.684 . S
C97 C87 1.725 . S
C97 C96 1.385 1_455 S
C97 C98 1.394 . S
C98 C68 1.719 . S
C98 C94 1.397 1_455 S
C98 C97 1.394 . S
C99 H71 0.982 . S
C99 H75 0.979 . S
C99 H76 0.977 . S
C99 C96 1.453 1_455 S
C100 H72 0.979 . S
C100 H73 0.980 . S
C100 H74 0.983 . S
C100 C96 1.684 . S
H101 C119 0.948 . S
H102 C60 0.948 . S
H103 C78 0.979 . S
H104 C78 0.980 . S
H105 C78 0.983 . S
H106 C77 0.992 . S
H107 C77 0.955 1_556 S
H108 C77 0.978 . S
H109 C79 0.948 . S
H110 C81 0.947 . S
H111 C82 0.948 . S
H112 C88 0.982 . S
H113 C88 0.979 . S
H114 C88 0.977 . S
H115 C89 0.979 . S
H116 C89 0.980 . S
H117 C89 0.983 . S
H118 C62 0.947 . S
C119 C62 1.392 . S
C119 C63 1.419 . S
C119 H101 0.948 . S
C120 C121 1.391 . S
C120 C124 1.391 . S
C120 H162 0.948 . S
C121 C120 1.391 . S
C121 C122 1.391 . S
C122 C121 1.391 . S
C122 H178 0.947 1_554 S
C122 C179 1.392 . S
C123 C124 1.391 . S
C123 C127 1.397 . S
C123 C179 1.419 . S
C124 C120 1.391 . S
C124 C123 1.391 . S
C124 C125 1.399 . S
C125 C124 1.399 . S
C125 C128 1.396 . S
C125 C137 1.453 . S
C125 C138 1.684 . S
H126 C150 0.948 . S
C127 C123 1.397 . S
C127 C128 1.394 . S
C127 C146 1.723 . S
C128 C125 1.396 . S
C128 C127 1.394 . S
C128 C158 1.723 . S
H129 C152 0.947 . S
H130 C153 0.948 . S
H131 C159 0.982 . S
H132 C160 0.979 . S
H133 C160 0.980 . S
H134 C160 0.983 . S
H135 C159 0.979 . S
H136 C159 0.977 . S
C137 C125 1.453 . S
C137 H166 0.982 . S
C137 H167 0.979 . S
C137 H168 0.977 . S
C138 C125 1.684 . S
C138 H163 0.979 . S
C138 H164 0.980 . S
C138 H165 0.983 . S
C139 C140 1.391 . S
C139 C144 1.390 . S
C139 H169 0.948 . S
C140 C139 1.391 . S
C140 C141 1.391 1_556 S
C141 C140 1.391 1_554 S
C141 C142 1.392 . S
C141 H170 0.947 . S
C142 C141 1.392 . S
C142 C143 1.419 . S
C142 H171 0.948 . S
C143 C142 1.419 . S
C143 C144 1.393 1_554 S
C143 C147 1.397 . S
C144 C139 1.390 . S
C144 C143 1.393 1_556 S
C144 C145 1.399 1_556 S
C145 C144 1.399 1_554 S
C145 C146 1.396 . S
C145 C148 1.453 1_554 S
C145 C149 1.684 1_554 S
C146 C127 1.723 . S
C146 C145 1.396 . S
C146 C147 1.394 . S
C147 C143 1.397 . S
C147 C146 1.394 . S
C147 C157 1.723 . S
C148 C145 1.453 1_556 S
C148 H172 0.982 . S
C148 H173 0.979 . S
C148 H174 0.977 . S
C149 C145 1.684 1_556 S
C149 H175 0.979 . S
C149 H176 0.980 . S
C149 H177 0.983 . S
C150 H126 0.948 . S
C150 C151 1.391 . S
C150 C155 1.391 . S
C151 C150 1.391 . S
C151 C152 1.391 . S
C152 H129 0.947 . S
C152 C151 1.391 . S
C152 C153 1.392 . S
C153 H130 0.948 . S
C153 C152 1.392 . S
C153 C154 1.419 . S
C154 C153 1.419 . S
C154 C155 1.391 . S
C154 C158 1.397 . S
C155 C150 1.391 . S
C155 C154 1.391 . S
C155 C156 1.399 . S
C156 C155 1.399 . S
C156 C157 1.396 . S
C156 C159 1.453 . S
C156 C160 1.684 . S
C157 C147 1.723 . S
C157 C156 1.396 . S
C157 C158 1.394 . S
C158 C128 1.723 . S
C158 C154 1.397 . S
C158 C157 1.394 . S
C159 H131 0.982 . S
C159 H135 0.979 . S
C159 H136 0.977 . S
C159 C156 1.453 . S
C160 H132 0.979 . S
C160 H133 0.980 . S
C160 H134 0.983 . S
C160 C156 1.684 . S
H161 C179 0.948 1_556 S
H162 C120 0.948 . S
H163 C138 0.979 . S
H164 C138 0.980 . S
H165 C138 0.983 . S
H166 C137 0.982 . S
H167 C137 0.979 . S
H168 C137 0.977 . S
H169 C139 0.948 . S
H170 C141 0.947 . S
H171 C142 0.948 . S
H172 C148 0.982 . S
H173 C148 0.979 . S
H174 C148 0.977 . S
H175 C149 0.979 . S
H176 C149 0.980 . S
H177 C149 0.983 . S
H178 C122 0.947 1_556 S
C179 C122 1.392 . S
C179 C123 1.419 . S
C179 H161 0.948 1_554 S
C180 C181 1.391 . S
C180 C184 1.391 . S
C180 H222 0.948 . S
C181 C180 1.391 . S
C181 C182 1.391 . S
C182 C181 1.391 . S
C182 H238 0.947 . S
C182 C239 1.392 . S
C183 C184 1.391 . S
C183 C187 1.397 . S
C183 C239 1.419 . S
C184 C180 1.391 . S
C184 C183 1.391 . S
C184 C185 1.399 . S
C185 C184 1.399 . S
C185 C188 1.396 . S
C185 C197 1.453 . S
C185 C198 1.684 . S
H186 C210 0.948 . S
C187 C183 1.397 . S
C187 C188 1.394 . S
C187 C206 1.723 . S
C188 C185 1.396 . S
C188 C187 1.394 . S
C188 C218 1.723 . S
H189 C212 0.947 . S
H190 C213 0.948 . S
H191 C219 0.982 . S
H192 C220 0.972 1_554 S
H193 C220 0.980 . S
H194 C220 0.983 . S
H195 C219 0.979 1_556 S
H196 C219 0.977 1_556 S
C197 C185 1.453 . S
C197 H226 0.982 . S
C197 H227 0.979 . S
C197 H228 0.977 . S
C198 C185 1.684 . S
C198 H223 0.979 . S
C198 H224 0.980 . S
C198 H225 0.983 . S
C199 C200 1.391 1_554 S
C199 C204 1.391 . S
C199 H229 0.948 . S
C200 C199 1.391 1_556 S
C200 C201 1.391 . S
C201 C200 1.391 . S
C201 C202 1.392 . S
C201 H230 0.947 . S
C202 C201 1.392 . S
C202 C203 1.419 1_556 S
C202 H231 0.948 . S
C203 C202 1.419 1_554 S
C203 C204 1.391 . S
C203 C207 1.397 . S
C204 C199 1.391 . S
C204 C203 1.391 . S
C204 C205 1.399 . S
C205 C204 1.399 . S
C205 C206 1.396 . S
C205 C208 1.453 . S
C205 C209 1.684 . S
C206 C187 1.723 . S
C206 C205 1.396 . S
C206 C207 1.394 . S
C207 C203 1.397 . S
C207 C206 1.394 . S
C207 C217 1.723 . S
C208 C205 1.453 . S
C208 H232 0.982 . S
C208 H233 0.979 . S
C208 H234 0.977 . S
C209 C205 1.684 . S
C209 H235 0.979 . S
C209 H236 0.980 . S
C209 H237 0.983 . S
C210 H186 0.948 . S
C210 C211 1.391 . S
C210 C215 1.391 . S
C211 C210 1.391 . S
C211 C212 1.391 . S
C212 H189 0.947 . S
C212 C211 1.391 . S
C212 C213 1.392 . S
C213 H190 0.948 . S
C213 C212 1.392 . S
C213 C214 1.419 . S
C214 C213 1.419 . S
C214 C215 1.391 . S
C214 C218 1.397 . S
C215 C210 1.391 . S
C215 C214 1.391 . S
C215 C216 1.399 . S
C216 C215 1.399 . S
C216 C217 1.396 . S
C216 C219 1.453 . S
C216 C220 1.684 1_554 S
C217 C207 1.723 . S
C217 C216 1.396 . S
C217 C218 1.394 . S
C218 C188 1.723 . S
C218 C214 1.397 . S
C218 C217 1.394 . S
C219 H191 0.982 . S
C219 H195 0.979 1_554 S
C219 H196 0.977 1_554 S
C219 C216 1.453 . S
C220 H192 0.972 1_556 S
C220 H193 0.980 . S
C220 H194 0.983 . S
C220 C216 1.684 1_556 S
H221 C239 0.948 . S
H222 C180 0.948 . S
H223 C198 0.979 . S
H224 C198 0.980 . S
H225 C198 0.983 . S
H226 C197 0.982 . S
H227 C197 0.979 . S
H228 C197 0.977 . S
H229 C199 0.948 . S
H230 C201 0.947 . S
H231 C202 0.948 . S
H232 C208 0.982 . S
H233 C208 0.979 . S
H234 C208 0.977 . S
H235 C209 0.979 . S
H236 C209 0.980 . S
H237 C209 0.983 . S
H238 C182 0.947 . S
C239 C182 1.392 . S
C239 C183 1.419 . S
C239 H221 0.948 . S
C240 C241 1.391 . S
C240 C244 1.391 . S
C240 H282 0.948 . S
C241 C240 1.391 . S
C241 C242 1.391 . S
C242 C241 1.391 . S
C242 H298 0.947 . S
C242 C299 1.392 . S
C243 C244 1.391 . S
C243 C247 1.397 . S
C243 C299 1.419 . S
C244 C240 1.391 . S
C244 C243 1.391 . S
C244 C245 1.399 . S
C245 C244 1.399 . S
C245 C248 1.396 . S
C245 C257 1.453 . S
C245 C258 1.684 . S
H246 C270 0.948 . S
C247 C243 1.397 . S
C247 C248 1.394 . S
C247 C266 1.723 . S
C248 C245 1.396 . S
C248 C247 1.394 . S
C248 C278 1.723 . S
H249 C272 0.947 . S
H250 C273 0.948 . S
H251 C279 0.982 . S
H252 C280 0.979 . S
H253 C280 0.980 . S
H254 C280 0.983 . S
H255 C279 0.979 . S
H256 C279 0.977 . S
C257 C245 1.453 . S
C257 H286 0.982 . S
C257 H287 0.979 . S
C257 H288 0.977 . S
C258 C245 1.684 . S
C258 H283 0.979 . S
C258 H284 0.980 . S
C258 H285 0.983 . S
C259 C260 1.391 . S
C259 C264 1.391 . S
C259 H289 0.948 . S
C260 C259 1.391 . S
C260 C261 1.391 . S
C261 C260 1.391 . S
C261 C262 1.392 . S
C261 H290 0.947 . S
C262 C261 1.392 . S
C262 C263 1.419 . S
C262 H291 0.948 . S
C263 C262 1.419 . S
C263 C264 1.391 . S
C263 C267 1.397 . S
C264 C259 1.391 . S
C264 C263 1.391 . S
C264 C265 1.399 . S
C265 C264 1.399 . S
C265 C266 1.396 . S
C265 C268 1.453 . S
C265 C269 1.684 . S
C266 C247 1.723 . S
C266 C265 1.396 . S
C266 C267 1.394 . S
C267 C263 1.397 . S
C267 C266 1.394 . S
C267 C277 1.723 . S
C268 C265 1.453 . S
C268 H292 0.982 . S
C268 H293 0.979 . S
C268 H294 0.977 . S
C269 C265 1.684 . S
C269 H295 0.979 . S
C269 H296 0.980 . S
C269 H297 0.983 . S
C270 H246 0.948 . S
C270 C271 1.391 . S
C270 C275 1.391 . S
C271 C270 1.391 . S
C271 C272 1.391 . S
C272 H249 0.947 . S
C272 C271 1.391 . S
C272 C273 1.392 . S
C273 H250 0.948 . S
C273 C272 1.392 . S
C273 C274 1.419 . S
C274 C273 1.419 . S
C274 C275 1.391 . S
C274 C278 1.397 . S
C275 C270 1.391 . S
C275 C274 1.391 . S
C275 C276 1.399 . S
C276 C275 1.399 . S
C276 C277 1.396 . S
C276 C279 1.453 . S
C276 C280 1.684 . S
C277 C267 1.723 . S
C277 C276 1.396 . S
C277 C278 1.394 . S
C278 C248 1.723 . S
C278 C274 1.397 . S
C278 C277 1.394 . S
C279 H251 0.982 . S
C279 H255 0.979 . S
C279 H256 0.977 . S
C279 C276 1.453 . S
C280 H252 0.979 . S
C280 H253 0.980 . S
C280 H254 0.983 . S
C280 C276 1.684 . S
H281 C299 0.948 . S
H282 C240 0.948 . S
H283 C258 0.979 . S
H284 C258 0.980 . S
H285 C258 0.983 . S
H286 C257 0.982 . S
H287 C257 0.979 . S
H288 C257 0.977 . S
H289 C259 0.948 . S
H290 C261 0.947 . S
H291 C262 0.948 . S
H292 C268 0.982 . S
H293 C268 0.979 . S
H294 C268 0.977 . S
H295 C269 0.979 . S
H296 C269 0.980 . S
H297 C269 0.983 . S
H298 C242 0.947 . S
C299 C242 1.392 . S
C299 C243 1.419 . S
C299 H281 0.948 . S
C300 C301 1.391 . S
C300 C304 1.391 . S
C300 H342 0.948 . S
C301 C300 1.391 . S
C301 C302 1.391 . S
C302 C301 1.391 . S
C302 H358 0.947 . S
C302 C359 1.392 . S
C303 C304 1.397 . S
C303 C307 1.392 1_655 S
C303 C359 1.427 . S
C304 C300 1.391 . S
C304 C303 1.397 . S
C304 C305 1.399 . S
C305 C304 1.399 . S
C305 C308 1.396 1_655 S
C305 C317 1.453 1_655 S
C305 C318 1.684 . S
H306 C330 0.948 . S
C307 C303 1.392 1_455 S
C307 C308 1.395 . S
C307 C326 1.723 . S
C308 C305 1.396 1_455 S
C308 C307 1.395 . S
C308 C338 1.723 . S
H309 C332 0.947 . S
H310 C333 0.948 . S
H311 C339 0.982 . S
H312 C340 0.979 . S
H313 C340 0.980 . S
H314 C340 0.983 . S
H315 C339 0.979 . S
H316 C339 0.977 . S
C317 C305 1.453 1_455 S
C317 H346 0.982 . S
C317 H347 0.979 . S
C317 H348 0.977 . S
C318 C305 1.684 . S
C318 H343 0.979 . S
C318 H344 0.980 . S
C318 H345 0.983 . S
C319 C320 1.391 . S
C319 C324 1.391 . S
C319 H349 0.948 . S
C320 C319 1.391 . S
C320 C321 1.391 . S
C321 C320 1.391 . S
C321 C322 1.392 . S
C321 H350 0.947 . S
C322 C321 1.392 . S
C322 C323 1.422 . S
C322 H351 0.948 . S
C323 C322 1.422 . S
C323 C324 1.401 . S
C323 C327 1.395 1_655 S
C324 C319 1.391 . S
C324 C323 1.401 . S
C324 C325 1.399 . S
C325 C324 1.399 . S
C325 C326 1.396 1_655 S
C325 C328 1.453 1_655 S
C325 C329 1.684 . S
C326 C307 1.723 . S
C326 C325 1.396 1_455 S
C326 C327 1.394 . S
C327 C323 1.395 1_455 S
C327 C326 1.394 . S
C327 C337 1.724 . S
C328 C325 1.453 1_455 S
C328 H352 0.982 . S
C328 H353 0.979 . S
C328 H354 0.977 . S
C329 C325 1.684 . S
C329 H355 0.979 . S
C329 H356 0.980 . S
C329 H357 0.983 . S
C330 H306 0.948 . S
C330 C331 1.391 . S
C330 C335 1.391 . S
C331 C330 1.391 . S
C331 C332 1.391 . S
C332 H309 0.947 . S
C332 C331 1.391 . S
C332 C333 1.392 . S
C333 H310 0.948 . S
C333 C332 1.392 . S
C333 C334 1.423 . S
C334 C333 1.423 . S
C334 C335 1.396 . S
C334 C338 1.398 1_655 S
C335 C330 1.391 . S
C335 C334 1.396 . S
C335 C336 1.399 . S
C336 C335 1.399 . S
C336 C337 1.396 1_655 S
C336 C339 1.453 1_655 S
C336 C340 1.684 . S
C337 C327 1.724 . S
C337 C336 1.396 1_455 S
C337 C338 1.395 . S
C338 C308 1.723 . S
C338 C334 1.398 1_455 S
C338 C337 1.395 . S
C339 H311 0.982 . S
C339 H315 0.979 . S
C339 H316 0.977 . S
C339 C336 1.453 1_455 S
C340 H312 0.979 . S
C340 H313 0.980 . S
C340 H314 0.983 . S
C340 C336 1.684 . S
H341 C359 0.948 . S
H342 C300 0.948 . S
H343 C318 0.979 . S
H344 C318 0.980 . S
H345 C318 0.983 . S
H346 C317 0.982 . S
H347 C317 0.979 . S
H348 C317 0.977 . S
H349 C319 0.948 . S
H350 C321 0.947 . S
H351 C322 0.948 . S
H352 C328 0.982 . S
H353 C328 0.979 . S
H354 C328 0.977 . S
H355 C329 0.979 . S
H356 C329 0.980 . S
H357 C329 0.983 . S
H358 C302 0.947 . S
C359 C302 1.392 . S
C359 C303 1.427 . S
C359 H341 0.948 . S
C360 C361 1.391 . S
C360 C364 1.391 . S
C360 H402 0.948 . S
C361 C360 1.391 . S
C361 C362 1.391 . S
C362 C361 1.391 . S
C362 H418 0.947 . S
C362 C419 1.392 . S
C363 C364 1.391 . S
C363 C367 1.397 . S
C363 C419 1.419 . S
C364 C360 1.391 . S
C364 C363 1.391 . S
C364 C365 1.399 . S
C365 C364 1.399 . S
C365 C368 1.396 . S
C365 C377 1.453 . S
C365 C378 1.684 . S
H366 C390 0.948 . S
C367 C363 1.397 . S
C367 C368 1.394 . S
C367 C386 1.723 . S
C368 C365 1.396 . S
C368 C367 1.394 . S
C368 C398 1.723 . S
H369 C392 0.947 . S
H370 C393 0.948 . S
H371 C399 0.982 . S
H372 C400 0.979 . S
H373 C400 0.980 . S
H374 C400 0.983 . S
H375 C399 0.979 . S
H376 C399 0.977 . S
C377 C365 1.453 . S
C377 H406 0.982 . S
C377 H407 0.979 . S
C377 H408 0.977 . S
C378 C365 1.684 . S
C378 H403 0.979 . S
C378 H404 0.980 . S
C378 H405 0.983 . S
C379 C380 1.391 . S
C379 C384 1.391 . S
C379 H409 0.948 . S
C380 C379 1.391 . S
C380 C381 1.391 . S
C381 C380 1.391 . S
C381 C382 1.392 . S
C381 H410 0.947 . S
C382 C381 1.392 . S
C382 C383 1.419 . S
C382 H411 0.948 . S
C383 C382 1.419 . S
C383 C384 1.391 . S
C383 C387 1.397 . S
C384 C379 1.391 . S
C384 C383 1.391 . S
C384 C385 1.399 . S
C385 C384 1.399 . S
C385 C386 1.396 . S
C385 C388 1.453 . S
C385 C389 1.684 . S
C386 C367 1.723 . S
C386 C385 1.396 . S
C386 C387 1.394 . S
C387 C383 1.397 . S
C387 C386 1.394 . S
C387 C397 1.723 . S
C388 C385 1.453 . S
C388 H412 0.982 . S
C388 H413 0.979 . S
C388 H414 0.977 . S
C389 C385 1.684 . S
C389 H415 0.979 . S
C389 H416 0.980 . S
C389 H417 0.983 . S
C390 H366 0.948 . S
C390 C391 1.391 . S
C390 C395 1.391 . S
C391 C390 1.391 . S
C391 C392 1.391 . S
C392 H369 0.947 . S
C392 C391 1.391 . S
C392 C393 1.392 . S
C393 H370 0.948 . S
C393 C392 1.392 . S
C393 C394 1.419 . S
C394 C393 1.419 . S
C394 C395 1.391 . S
C394 C398 1.397 . S
C395 C390 1.391 . S
C395 C394 1.391 . S
C395 C396 1.399 . S
C396 C395 1.399 . S
C396 C397 1.396 . S
C396 C399 1.453 . S
C396 C400 1.684 . S
C397 C387 1.723 . S
C397 C396 1.396 . S
C397 C398 1.394 . S
C398 C368 1.723 . S
C398 C394 1.397 . S
C398 C397 1.394 . S
C399 H371 0.982 . S
C399 H375 0.979 . S
C399 H376 0.977 . S
C399 C396 1.453 . S
C400 H372 0.979 . S
C400 H373 0.980 . S
C400 H374 0.983 . S
C400 C396 1.684 . S
H401 C419 0.948 . S
H402 C360 0.948 . S
H403 C378 0.979 . S
H404 C378 0.980 . S
H405 C378 0.983 . S
H406 C377 0.982 . S
H407 C377 0.979 . S
H408 C377 0.977 . S
H409 C379 0.948 . S
H410 C381 0.947 . S
H411 C382 0.948 . S
H412 C388 0.982 . S
H413 C388 0.979 . S
H414 C388 0.977 . S
H415 C389 0.979 . S
H416 C389 0.980 . S
H417 C389 0.983 . S
H418 C362 0.947 . S
C419 C362 1.392 . S
C419 C363 1.419 . S
C419 H401 0.948 . S
C420 C421 1.391 . S
C420 C424 1.391 . S
C420 H462 0.948 . S
C421 C420 1.391 . S
C421 C422 1.391 . S
C422 C421 1.391 . S
C422 H478 0.947 . S
C422 C479 1.392 . S
C423 C424 1.391 . S
C423 C427 1.397 . S
C423 C479 1.419 . S
C424 C420 1.391 . S
C424 C423 1.391 . S
C424 C425 1.399 . S
C425 C424 1.399 . S
C425 C428 1.396 . S
C425 C437 1.453 . S
C425 C438 1.684 . S
H426 C450 0.948 . S
C427 C423 1.397 . S
C427 C428 1.394 . S
C427 C446 1.723 . S
C428 C425 1.396 . S
C428 C427 1.394 . S
C428 C458 1.723 . S
H429 C452 0.947 . S
H430 C453 0.948 . S
H431 C459 0.982 . S
H432 C460 0.979 . S
H433 C460 0.980 . S
H434 C460 0.983 . S
H435 C459 0.979 . S
H436 C459 0.977 . S
C437 C425 1.453 . S
C437 H466 0.982 . S
C437 H467 0.979 . S
C437 H468 0.977 . S
C438 C425 1.684 . S
C438 H463 0.979 . S
C438 H464 0.980 . S
C438 H465 0.983 . S
C439 C440 1.391 . S
C439 C444 1.391 . S
C439 H469 0.948 . S
C440 C439 1.391 . S
C440 C441 1.391 . S
C441 C440 1.391 . S
C441 C442 1.392 . S
C441 H470 0.947 . S
C442 C441 1.392 . S
C442 C443 1.419 . S
C442 H471 0.948 . S
C443 C442 1.419 . S
C443 C444 1.391 . S
C443 C447 1.397 . S
C444 C439 1.391 . S
C444 C443 1.391 . S
C444 C445 1.399 . S
C445 C444 1.399 . S
C445 C446 1.396 . S
C445 C448 1.453 . S
C445 C449 1.684 . S
C446 C427 1.723 . S
C446 C445 1.396 . S
C446 C447 1.394 . S
C447 C443 1.397 . S
C447 C446 1.394 . S
C447 C457 1.723 . S
C448 C445 1.453 . S
C448 H472 0.982 . S
C448 H473 0.979 . S
C448 H474 0.977 . S
C449 C445 1.684 . S
C449 H475 0.979 . S
C449 H476 0.980 . S
C449 H477 0.983 . S
C450 H426 0.948 . S
C450 C451 1.391 . S
C450 C455 1.391 . S
C451 C450 1.391 . S
C451 C452 1.391 . S
C452 H429 0.947 . S
C452 C451 1.391 . S
C452 C453 1.392 . S
C453 H430 0.948 . S
C453 C452 1.392 . S
C453 C454 1.419 . S
C454 C453 1.419 . S
C454 C455 1.391 . S
C454 C458 1.397 . S
C455 C450 1.391 . S
C455 C454 1.391 . S
C455 C456 1.399 . S
C456 C455 1.399 . S
C456 C457 1.396 . S
C456 C459 1.453 . S
C456 C460 1.684 . S
C457 C447 1.723 . S
C457 C456 1.396 . S
C457 C458 1.394 . S
C458 C428 1.723 . S
C458 C454 1.397 . S
C458 C457 1.394 . S
C459 H431 0.982 . S
C459 H435 0.979 . S
C459 H436 0.977 . S
C459 C456 1.453 . S
C460 H432 0.979 . S
C460 H433 0.980 . S
C460 H434 0.983 . S
C460 C456 1.684 . S
H461 C479 0.948 . S
H462 C420 0.948 . S
H463 C438 0.979 . S
H464 C438 0.980 . S
H465 C438 0.983 . S
H466 C437 0.982 . S
H467 C437 0.979 . S
H468 C437 0.977 . S
H469 C439 0.948 . S
H470 C441 0.947 . S
H471 C442 0.948 . S
H472 C448 0.982 . S
H473 C448 0.979 . S
H474 C448 0.977 . S
H475 C449 0.979 . S
H476 C449 0.980 . S
H477 C449 0.983 . S
H478 C422 0.947 . S
C479 C422 1.392 . S
C479 C423 1.419 . S
C479 H461 0.948 . S
Co480 N485 2.057 . S
Co480 O497 2.021 . S
Co480 O500 2.062 1_455 S
Co480 O504 2.117 1_455 S
Co480 O505 2.020 1_545 S
C481 O501 1.259 1_545 S
C481 O504 1.258 . S
Co482 N491 2.057 . S
Co482 O498 2.117 1_665 S
Co482 O499 2.020 1_565 S
Co482 O501 2.021 . S
Co482 O506 2.062 1_655 S
C483 N485 1.316 . S
C483 N486 1.347 . S
C483 H488 0.931 . S
C484 N485 1.375 1_655 S
C484 C487 1.350 . S
C484 H489 0.930 . S
N485 Co480 2.057 . S
N485 C483 1.316 . S
N485 C484 1.375 1_455 S
N486 C483 1.347 . S
N486 C487 1.373 1_455 S
C487 C484 1.350 . S
C487 N486 1.373 1_655 S
C487 H508 0.931 . S
H488 C483 0.931 . S
H489 C484 0.930 . S
C490 O497 1.259 . S
C490 O498 1.258 . S
N491 Co482 2.057 . S
N491 C492 1.316 . S
N491 C493 1.375 1_655 S
C492 N491 1.316 . S
C492 N494 1.347 . S
C492 H503 0.931 . S
C493 N491 1.375 1_455 S
C493 C495 1.350 . S
C493 H502 0.930 . S
N494 C492 1.347 . S
N494 C495 1.373 1_655 S
C495 C493 1.350 . S
C495 N494 1.373 1_455 S
C495 H509 0.931 . S
C496 O499 1.256 . S
C496 O500 1.255 . S
O497 Co480 2.021 . S
O497 C490 1.259 . S
O498 Co482 2.117 1_445 S
O498 C490 1.258 . S
O499 Co482 2.020 1_545 S
O499 C496 1.256 . S
O500 Co480 2.062 1_655 S
O500 C496 1.255 . S
O501 C481 1.259 1_565 S
O501 Co482 2.021 . S
H502 C493 0.930 . S
H503 C492 0.931 . S
O504 Co480 2.117 1_655 S
O504 C481 1.258 . S
O505 Co480 2.020 1_565 S
O505 C507 1.256 . S
O506 Co482 2.062 1_455 S
O506 C507 1.255 . S
C507 O505 1.256 . S
C507 O506 1.255 . S
H508 C487 0.931 . S
H509 C495 0.931 . S
Co510 N515 2.057 . S
Co510 O527 2.021 . S
Co510 O530 2.062 . S
Co510 O534 2.117 1_545 S
Co510 O535 2.020 . S
C511 O531 1.259 . S
C511 O534 1.258 . S
Co512 N521 2.056 1_545 S
Co512 O528 2.123 . S
Co512 O529 2.020 . S
Co512 O531 2.015 1_545 S
Co512 O536 2.062 1_545 S
C513 N515 1.316 . S
C513 N516 1.347 . S
C513 H518 0.931 . S
C514 N515 1.375 . S
C514 C517 1.350 . S
C514 H519 0.930 1_545 S
N515 Co510 2.057 . S
N515 C513 1.316 . S
N515 C514 1.375 . S
N516 C513 1.347 . S
N516 C517 1.373 . S
C517 C514 1.350 . S
C517 N516 1.373 . S
C517 H538 0.931 . S
H518 C513 0.931 . S
H519 C514 0.930 1_565 S
C520 O527 1.259 . S
C520 O528 1.258 . S
N521 Co512 2.056 1_565 S
N521 C522 1.316 . S
N521 C523 1.375 1_565 S
C522 N521 1.316 . S
C522 N524 1.347 . S
C522 H533 0.931 . S
C523 N521 1.375 1_545 S
C523 C525 1.350 . S
C523 H532 0.930 . S
N524 C522 1.347 . S
N524 C525 1.373 1_565 S
C525 C523 1.350 . S
C525 N524 1.373 1_545 S
C525 H539 0.931 . S
C526 O529 1.256 . S
C526 O530 1.255 . S
O527 Co510 2.021 . S
O527 C520 1.259 . S
O528 Co512 2.123 . S
O528 C520 1.258 . S
O529 Co512 2.020 . S
O529 C526 1.256 . S
O530 Co510 2.062 . S
O530 C526 1.255 . S
O531 C511 1.259 . S
O531 Co512 2.015 1_565 S
H532 C523 0.930 . S
H533 C522 0.931 . S
O534 Co510 2.117 1_565 S
O534 C511 1.258 . S
O535 Co510 2.020 . S
O535 C537 1.256 . S
O536 Co512 2.062 1_565 S
O536 C537 1.255 1_565 S
C537 O535 1.256 . S
C537 O536 1.255 1_545 S
H538 C517 0.931 . S
H539 C525 0.931 . S
Co540 N545 2.057 . S
Co540 O557 2.021 . S
Co540 O560 2.062 . S
Co540 O564 2.117 . S
Co540 O565 2.020 . S
C541 O561 1.259 . S
C541 O564 1.258 . S
Co542 N551 2.057 . S
Co542 O558 2.117 . S
Co542 O559 2.020 . S
Co542 O561 2.021 . S
Co542 O566 2.062 . S
C543 N545 1.316 . S
C543 N546 1.347 . S
C543 H548 0.931 . S
C544 N545 1.375 . S
C544 C547 1.350 . S
C544 H549 0.930 . S
N545 Co540 2.057 . S
N545 C543 1.316 . S
N545 C544 1.375 . S
N546 C543 1.347 . S
N546 C547 1.373 . S
C547 C544 1.350 . S
C547 N546 1.373 . S
C547 H568 0.931 . S
H548 C543 0.931 . S
H549 C544 0.930 . S
C550 O557 1.259 . S
C550 O558 1.258 . S
N551 Co542 2.057 . S
N551 C552 1.316 . S
N551 C553 1.375 . S
C552 N551 1.316 . S
C552 N554 1.347 . S
C552 H563 0.931 . S
C553 N551 1.375 . S
C553 C555 1.350 . S
C553 H562 0.930 . S
N554 C552 1.347 . S
N554 C555 1.373 . S
C555 C553 1.350 . S
C555 N554 1.373 . S
C555 H569 0.931 . S
C556 O559 1.256 . S
C556 O560 1.255 . S
O557 Co540 2.021 . S
O557 C550 1.259 . S
O558 Co542 2.117 . S
O558 C550 1.258 . S
O559 Co542 2.020 . S
O559 C556 1.256 . S
O560 Co540 2.062 . S
O560 C556 1.255 . S
O561 C541 1.259 . S
O561 Co542 2.021 . S
H562 C553 0.930 . S
H563 C552 0.931 . S
O564 Co540 2.117 . S
O564 C541 1.258 . S
O565 Co540 2.020 . S
O565 C567 1.256 . S
O566 Co542 2.062 . S
O566 C567 1.255 . S
C567 O565 1.256 . S
C567 O566 1.255 . S
H568 C547 0.931 . S
H569 C555 0.931 . S
Co570 N575 2.057 . S
Co570 O587 2.021 1_455 S
Co570 O590 2.062 1_455 S
Co570 O594 2.117 . S
Co570 O595 2.020 . S
C571 O591 1.259 . S
C571 O594 1.258 . S
Co572 N581 2.057 . S
Co572 O588 2.117 . S
Co572 O589 2.020 . S
Co572 O591 2.021 1_655 S
Co572 O596 2.062 1_655 S
C573 N575 1.316 . S
C573 N576 1.347 . S
C573 H578 0.931 1_455 S
C574 N575 1.375 . S
C574 C577 1.350 . S
C574 H579 0.930 . S
N575 Co570 2.057 . S
N575 C573 1.316 . S
N575 C574 1.375 . S
N576 C573 1.347 . S
N576 C577 1.373 . S
C577 C574 1.350 . S
C577 N576 1.373 . S
C577 H598 0.931 . S
H578 C573 0.931 1_655 S
H579 C574 0.930 . S
C580 O587 1.259 . S
C580 O588 1.258 . S
N581 Co572 2.057 . S
N581 C582 1.316 . S
N581 C583 1.375 . S
C582 N581 1.316 . S
C582 N584 1.347 . S
C582 H593 0.931 1_655 S
C583 N581 1.375 . S
C583 C585 1.350 . S
C583 H592 0.930 . S
N584 C582 1.347 . S
N584 C585 1.373 . S
C585 C583 1.350 . S
C585 N584 1.373 . S
C585 H599 0.931 . S
C586 O589 1.256 . S
C586 O590 1.255 . S
O587 Co570 2.021 1_655 S
O587 C580 1.259 . S
O588 Co572 2.117 . S
O588 C580 1.258 . S
O589 Co572 2.020 . S
O589 C586 1.256 . S
O590 Co570 2.062 1_655 S
O590 C586 1.255 . S
O591 C571 1.259 . S
O591 Co572 2.021 1_455 S
H592 C583 0.930 . S
H593 C582 0.931 1_455 S
O594 Co570 2.117 . S
O594 C571 1.258 . S
O595 Co570 2.020 . S
O595 C597 1.256 . S
O596 Co572 2.062 1_455 S
O596 C597 1.255 . S
C597 O595 1.256 . S
C597 O596 1.255 . S
H598 C577 0.931 . S
H599 C585 0.931 . S
H600 C608 0.929 . S
H601 C610 0.930 . S
H602 C612 0.930 . S
H603 C615 0.929 . S
H604 C618 0.930 . S
H605 C620 0.960 . S
H606 C620 0.960 . S
H607 C620 0.960 . S
C608 H600 0.929 . S
C608 C609 1.377 . S
C608 C610 1.384 . S
C609 C608 1.377 . S
C609 C615 1.390 . S
C610 H601 0.930 . S
C610 C608 1.384 . S
C610 C611 1.372 . S
C611 C610 1.372 . S
C611 C612 1.400 . S
C611 C616 1.490 . S
C612 H602 0.930 . S
C612 C611 1.400 . S
C612 C615 1.386 . S
H613 C629 0.930 . S
H614 C630 0.931 . S
C615 H603 0.929 . S
C615 C609 1.390 . S
C615 C612 1.386 . S
C616 C611 1.490 . S
C616 C618 1.395 . S
C616 C619 1.403 . S
H617 C623 0.930 . S
C618 H604 0.930 . S
C618 C616 1.395 . S
C618 C621 1.403 . S
C619 C616 1.403 . S
C619 C620 1.524 . S
C619 C623 1.400 . S
C620 H605 0.960 . S
C620 H606 0.960 . S
C620 H607 0.960 . S
C620 C619 1.524 . S
C621 C618 1.403 . S
C621 C622 1.392 . S
C621 C625 1.495 . S
C622 C621 1.392 . S
C622 C623 1.385 . S
C622 C624 1.478 . S
C623 H617 0.930 . S
C623 C619 1.400 . S
C623 C622 1.385 . S
C624 C622 1.478 . S
C624 C626 1.381 . S
C624 C630 1.383 . S
C625 C621 1.495 . S
C625 H631 0.982 . S
C625 H632 0.961 . S
C625 H633 0.959 1_545 S
C626 C624 1.381 . S
C626 C627 1.394 . S
C626 H634 0.930 . S
C627 C626 1.394 . S
C627 C628 1.383 . S
C627 H635 0.929 . S
C628 C627 1.383 . S
C628 C629 1.377 . S
C629 H613 0.930 . S
C629 C628 1.377 . S
C629 C630 1.379 . S
C630 H614 0.931 . S
C630 C624 1.383 . S
C630 C629 1.379 . S
H631 C625 0.982 . S
H632 C625 0.961 . S
H633 C625 0.959 1_565 S
H634 C626 0.930 . S
H635 C627 0.929 . S
H636 C644 0.929 . S
H637 C646 0.930 . S
H638 C648 0.930 . S
H639 C651 0.929 . S
H640 C654 0.930 . S
H641 C656 0.960 . S
H642 C656 0.960 . S
H643 C656 0.960 . S
C644 H636 0.929 . S
C644 C645 1.377 . S
C644 C646 1.384 . S
C645 C644 1.377 . S
C645 C651 1.390 . S
C646 H637 0.930 . S
C646 C644 1.384 . S
C646 C647 1.372 . S
C647 C646 1.372 . S
C647 C648 1.400 . S
C647 C652 1.490 . S
C648 H638 0.930 . S
C648 C647 1.400 . S
C648 C651 1.386 . S
H649 C665 0.930 . S
H650 C666 0.931 . S
C651 H639 0.929 . S
C651 C645 1.390 . S
C651 C648 1.386 . S
C652 C647 1.490 . S
C652 C654 1.395 . S
C652 C655 1.403 . S
H653 C659 0.930 . S
C654 H640 0.930 . S
C654 C652 1.395 . S
C654 C657 1.403 . S
C655 C652 1.403 . S
C655 C656 1.524 . S
C655 C659 1.400 . S
C656 H641 0.960 . S
C656 H642 0.960 . S
C656 H643 0.960 . S
C656 C655 1.524 . S
C657 C654 1.403 . S
C657 C658 1.392 . S
C657 C661 1.495 . S
C658 C657 1.392 . S
C658 C659 1.385 . S
C658 C660 1.478 . S
C659 H653 0.930 . S
C659 C655 1.400 . S
C659 C658 1.385 . S
C660 C658 1.478 . S
C660 C662 1.381 . S
C660 C666 1.383 . S
C661 C657 1.495 . S
C661 H667 0.959 . S
C661 H668 0.961 . S
C661 H669 0.960 . S
C662 C660 1.381 . S
C662 C663 1.394 . S
C662 H670 0.930 . S
C663 C662 1.394 . S
C663 C664 1.383 . S
C663 H671 0.929 . S
C664 C663 1.383 . S
C664 C665 1.377 . S
C665 H649 0.930 . S
C665 C664 1.377 . S
C665 C666 1.379 . S
C666 H650 0.931 . S
C666 C660 1.383 . S
C666 C665 1.379 . S
H667 C661 0.959 . S
H668 C661 0.961 . S
H669 C661 0.960 . S
H670 C662 0.930 . S
H671 C663 0.929 . S
H672 C680 0.929 . S
H673 C682 0.930 . S
H674 C684 0.930 . S
H675 C687 0.929 . S
H676 C690 0.930 . S
H677 C692 0.960 . S
H678 C692 0.960 . S
H679 C692 0.960 . S
C680 H672 0.929 . S
C680 C681 1.377 . S
C680 C682 1.384 . S
C681 C680 1.377 . S
C681 C687 1.390 . S
C682 H673 0.930 . S
C682 C680 1.384 . S
C682 C683 1.372 . S
C683 C682 1.372 . S
C683 C684 1.400 . S
C683 C688 1.490 . S
C684 H674 0.930 . S
C684 C683 1.400 . S
C684 C687 1.386 . S
H685 C701 0.930 . S
H686 C702 0.931 . S
C687 H675 0.929 . S
C687 C681 1.390 . S
C687 C684 1.386 . S
C688 C683 1.490 . S
C688 C690 1.395 . S
C688 C691 1.403 . S
H689 C695 0.930 . S
C690 H676 0.930 . S
C690 C688 1.395 . S
C690 C693 1.403 . S
C691 C688 1.403 . S
C691 C692 1.524 . S
C691 C695 1.400 . S
C692 H677 0.960 . S
C692 H678 0.960 . S
C692 H679 0.960 . S
C692 C691 1.524 . S
C693 C690 1.403 . S
C693 C694 1.392 . S
C693 C697 1.495 . S
C694 C693 1.392 . S
C694 C695 1.385 . S
C694 C696 1.478 . S
C695 H689 0.930 . S
C695 C691 1.400 . S
C695 C694 1.385 . S
C696 C694 1.478 . S
C696 C698 1.381 . S
C696 C702 1.383 . S
C697 C693 1.495 . S
C697 H703 0.959 . S
C697 H704 0.961 . S
C697 H705 0.960 . S
C698 C696 1.381 . S
C698 C699 1.394 . S
C698 H706 0.930 . S
C699 C698 1.394 . S
C699 C700 1.383 . S
C699 H707 0.929 . S
C700 C699 1.383 . S
C700 C701 1.377 . S
C701 H685 0.930 . S
C701 C700 1.377 . S
C701 C702 1.379 . S
C702 H686 0.931 . S
C702 C696 1.383 . S
C702 C701 1.379 . S
H703 C697 0.959 . S
H704 C697 0.961 . S
H705 C697 0.960 . S
H706 C698 0.930 . S
H707 C699 0.929 . S
H708 C716 0.929 . S
H709 C718 0.930 . S
H710 C720 0.930 . S
H711 C723 0.929 . S
H712 C726 0.930 . S
H713 C728 0.960 . S
H714 C728 0.960 1_455 S
H715 C728 0.960 . S
C716 H708 0.929 . S
C716 C717 1.375 1_455 S
C716 C718 1.384 . S
C717 C716 1.375 1_655 S
C717 C723 1.392 . S
C718 H709 0.930 . S
C718 C716 1.384 . S
C718 C719 1.372 1_455 S
C719 C718 1.372 1_655 S
C719 C720 1.400 . S
C719 C724 1.490 . S
C720 H710 0.930 . S
C720 C719 1.400 . S
C720 C723 1.386 . S
H721 C737 0.930 . S
H722 C738 0.931 . S
C723 H711 0.929 . S
C723 C717 1.392 . S
C723 C720 1.386 . S
C724 C719 1.490 . S
C724 C726 1.395 . S
C724 C727 1.403 . S
H725 C731 0.930 . S
C726 H712 0.930 . S
C726 C724 1.395 . S
C726 C729 1.403 . S
C727 C724 1.403 . S
C727 C728 1.524 . S
C727 C731 1.400 . S
C728 H713 0.960 . S
C728 H714 0.960 1_655 S
C728 H715 0.960 . S
C728 C727 1.524 . S
C729 C726 1.403 . S
C729 C730 1.392 . S
C729 C733 1.495 . S
C730 C729 1.392 . S
C730 C731 1.385 . S
C730 C732 1.478 . S
C731 H725 0.930 . S
C731 C727 1.400 . S
C731 C730 1.385 . S
C732 C730 1.478 . S
C732 C734 1.381 1_655 S
C732 C738 1.383 . S
C733 C729 1.495 . S
C733 H739 0.959 . S
C733 H740 0.961 . S
C733 H741 0.960 1_655 S
C734 C732 1.381 1_455 S
C734 C735 1.394 . S
C734 H742 0.930 . S
C735 C734 1.394 . S
C735 C736 1.383 1_455 S
C735 H743 0.929 . S
C736 C735 1.383 1_655 S
C736 C737 1.377 . S
C737 H721 0.930 . S
C737 C736 1.377 . S
C737 C738 1.379 . S
C738 H722 0.931 . S
C738 C732 1.383 . S
C738 C737 1.379 . S
H739 C733 0.959 . S
H740 C733 0.961 . S
H741 C733 0.960 1_455 S
H742 C734 0.930 . S
H743 C735 0.929 . S
H744 C752 0.929 . S
H745 C754 0.930 . S
H746 C756 0.930 . S
H747 C759 0.929 . S
H748 C762 0.930 . S
H749 C764 0.960 . S
H750 C764 0.960 . S
H751 C764 0.960 . S
C752 H744 0.929 . S
C752 C753 1.377 . S
C752 C754 1.384 . S
C753 C752 1.377 . S
C753 C759 1.390 1_554 S
C754 H745 0.930 . S
C754 C752 1.384 . S
C754 C755 1.372 1_554 S
C755 C754 1.372 1_556 S
C755 C756 1.400 . S
C755 C760 1.490 . S
C756 H746 0.930 . S
C756 C755 1.400 . S
C756 C759 1.386 . S
H757 C773 0.930 . S
H758 C774 0.931 . S
C759 H747 0.929 . S
C759 C753 1.390 1_556 S
C759 C756 1.386 . S
C760 C755 1.490 . S
C760 C762 1.395 . S
C760 C763 1.403 . S
H761 C767 0.930 . S
C762 H748 0.930 . S
C762 C760 1.395 . S
C762 C765 1.403 . S
C763 C760 1.403 . S
C763 C764 1.524 . S
C763 C767 1.400 . S
C764 H749 0.960 . S
C764 H750 0.960 . S
C764 H751 0.960 . S
C764 C763 1.524 . S
C765 C762 1.403 . S
C765 C766 1.392 . S
C765 C769 1.495 . S
C766 C765 1.392 . S
C766 C767 1.385 . S
C766 C768 1.478 . S
C767 H761 0.930 . S
C767 C763 1.400 . S
C767 C766 1.385 . S
C768 C766 1.478 . S
C768 C770 1.381 . S
C768 C774 1.383 . S
C769 C765 1.495 . S
C769 H775 0.959 . S
C769 H776 0.961 . S
C769 H777 0.960 . S
C770 C768 1.381 . S
C770 C771 1.386 1_565 S
C770 H778 0.930 . S
C771 C770 1.386 1_545 S
C771 C772 1.376 1_545 S
C771 H779 0.945 . S
C772 C771 1.376 1_565 S
C772 C773 1.377 . S
C773 H757 0.930 . S
C773 C772 1.377 . S
C773 C774 1.379 . S
C774 H758 0.931 . S
C774 C768 1.383 . S
C774 C773 1.379 . S
H775 C769 0.959 . S
H776 C769 0.961 . S
H777 C769 0.960 . S
H778 C770 0.930 . S
H779 C771 0.945 . S
H780 C788 0.929 . S
H781 C790 0.930 . S
H782 C792 0.930 . S
H783 C795 0.929 . S
H784 C798 0.930 . S
H785 C800 0.960 . S
H786 C800 0.960 . S
H787 C800 0.960 . S
C788 H780 0.929 . S
C788 C789 1.377 . S
C788 C790 1.384 . S
C789 C788 1.377 . S
C789 C795 1.390 1_554 S
C790 H781 0.930 . S
C790 C788 1.384 . S
C790 C791 1.372 1_554 S
C791 C790 1.372 1_556 S
C791 C792 1.400 . S
C791 C796 1.490 . S
C792 H782 0.930 . S
C792 C791 1.400 . S
C792 C795 1.386 . S
H793 C809 0.930 . S
H794 C810 0.931 . S
C795 H783 0.929 . S
C795 C789 1.390 1_556 S
C795 C792 1.386 . S
C796 C791 1.490 . S
C796 C798 1.395 . S
C796 C799 1.403 . S
H797 C803 0.930 . S
C798 H784 0.930 . S
C798 C796 1.395 . S
C798 C801 1.403 . S
C799 C796 1.403 . S
C799 C800 1.524 . S
C799 C803 1.400 . S
C800 H785 0.960 . S
C800 H786 0.960 . S
C800 H787 0.960 . S
C800 C799 1.524 . S
C801 C798 1.403 . S
C801 C802 1.392 . S
C801 C805 1.495 . S
C802 C801 1.392 . S
C802 C803 1.385 . S
C802 C804 1.478 . S
C803 H797 0.930 . S
C803 C799 1.400 . S
C803 C802 1.385 . S
C804 C802 1.478 . S
C804 C806 1.381 . S
C804 C810 1.383 . S
C805 C801 1.495 . S
C805 H811 0.959 . S
C805 H812 0.961 . S
C805 H813 0.960 . S
C806 C804 1.381 . S
C806 C807 1.394 . S
C806 H814 0.930 . S
C807 C806 1.394 . S
C807 C808 1.383 . S
C807 H815 0.929 . S
C808 C807 1.383 . S
C808 C809 1.377 . S
C809 H793 0.930 . S
C809 C808 1.377 . S
C809 C810 1.379 . S
C810 H794 0.931 . S
C810 C804 1.383 . S
C810 C809 1.379 . S
H811 C805 0.959 . S
H812 C805 0.961 . S
H813 C805 0.960 . S
H814 C806 0.930 . S
H815 C807 0.929 . S
H816 C824 0.929 . S
H817 C826 0.930 . S
H818 C828 0.930 . S
H819 C831 0.929 . S
H820 C834 0.930 . S
H821 C836 0.960 . S
H822 C836 0.960 . S
H823 C836 0.960 . S
C824 H816 0.929 . S
C824 C825 1.377 . S
C824 C826 1.384 1_554 S
C825 C824 1.377 . S
C825 C831 1.390 . S
C826 H817 0.930 . S
C826 C824 1.384 1_556 S
C826 C827 1.372 . S
C827 C826 1.372 . S
C827 C828 1.400 1_556 S
C827 C832 1.490 . S
C828 H818 0.930 . S
C828 C827 1.400 1_554 S
C828 C831 1.386 . S
H829 C845 0.930 . S
H830 C846 0.931 . S
C831 H819 0.929 . S
C831 C825 1.390 . S
C831 C828 1.386 . S
C832 C827 1.490 . S
C832 C834 1.395 . S
C832 C835 1.403 . S
H833 C839 0.930 . S
C834 H820 0.930 . S
C834 C832 1.395 . S
C834 C837 1.403 . S
C835 C832 1.403 . S
C835 C836 1.524 1_556 S
C835 C839 1.400 . S
C836 H821 0.960 . S
C836 H822 0.960 . S
C836 H823 0.960 . S
C836 C835 1.524 1_554 S
C837 C834 1.403 . S
C837 C838 1.392 . S
C837 C841 1.495 . S
C838 C837 1.392 . S
C838 C839 1.385 . S
C838 C840 1.478 . S
C839 H833 0.930 . S
C839 C835 1.400 . S
C839 C838 1.385 . S
C840 C838 1.478 . S
C840 C842 1.381 . S
C840 C846 1.383 . S
C841 C837 1.495 . S
C841 H847 0.959 . S
C841 H848 0.961 . S
C841 H849 0.960 . S
C842 C840 1.381 . S
C842 C843 1.394 . S
C842 H850 0.930 . S
C843 C842 1.394 . S
C843 C844 1.383 . S
C843 H851 0.929 . S
C844 C843 1.383 . S
C844 C845 1.377 . S
C845 H829 0.930 . S
C845 C844 1.377 . S
C845 C846 1.379 . S
C846 H830 0.931 . S
C846 C840 1.383 . S
C846 C845 1.379 . S
H847 C841 0.959 . S
H848 C841 0.961 . S
H849 C841 0.960 . S
H850 C842 0.930 . S
H851 C843 0.929 . S
H852 C860 0.929 . S
H853 C862 0.930 . S
H854 C864 0.930 1_556 S
H855 C867 0.929 . S
H856 C870 0.930 . S
H857 C872 0.959 1_556 S
H858 C872 0.963 . S
H859 C872 0.960 1_556 S
C860 H852 0.929 . S
C860 C861 1.362 1_655 S
C860 C862 1.384 . S
C861 C860 1.362 1_455 S
C861 C867 1.405 . S
C862 H853 0.930 . S
C862 C860 1.384 . S
C862 C863 1.372 1_655 S
C863 C862 1.372 1_455 S
C863 C864 1.400 . S
C863 C868 1.490 1_554 S
C864 H854 0.930 1_554 S
C864 C863 1.400 . S
C864 C867 1.386 . S
H865 C881 0.930 . S
H866 C882 0.931 . S
C867 H855 0.929 . S
C867 C861 1.405 . S
C867 C864 1.386 . S
C868 C863 1.490 1_556 S
C868 C870 1.395 1_455 S
C868 C871 1.403 . S
H869 C875 0.930 . S
C870 H856 0.930 . S
C870 C868 1.395 1_655 S
C870 C873 1.403 . S
C871 C868 1.403 . S
C871 C872 1.522 1_556 S
C871 C875 1.400 . S
C872 H857 0.959 1_554 S
C872 H858 0.963 . S
C872 H859 0.960 1_554 S
C872 C871 1.522 1_554 S
C873 C870 1.403 . S
C873 C874 1.392 1_655 S
C873 C877 1.495 . S
C874 C873 1.392 1_455 S
C874 C875 1.385 . S
C874 C876 1.478 . S
C875 H869 0.930 . S
C875 C871 1.400 . S
C875 C874 1.385 . S
C876 C874 1.478 . S
C876 C878 1.381 1_455 S
C876 C882 1.383 . S
C877 C873 1.495 . S
C877 H883 0.959 . S
C877 H884 0.961 . S
C877 H885 0.960 . S
C878 C876 1.381 1_655 S
C878 C879 1.394 . S
C878 H886 0.930 . S
C879 C878 1.394 . S
C879 C880 1.383 1_655 S
C879 H887 0.929 . S
C880 C879 1.383 1_455 S
C880 C881 1.377 . S
C881 H865 0.930 . S
C881 C880 1.377 . S
C881 C882 1.379 . S
C882 H866 0.931 . S
C882 C876 1.383 . S
C882 C881 1.379 . S
H883 C877 0.959 . S
H884 C877 0.961 . S
H885 C877 0.960 . S
H886 C878 0.930 . S
H887 C879 0.929 . S
H888 C896 0.929 . S
H889 C898 0.930 . S
H890 C900 0.930 . S
H891 C903 0.929 . S
H892 C906 0.930 . S
H893 C908 0.960 . S
H894 C908 0.960 . S
H895 C908 0.960 . S
C896 H888 0.929 . S
C896 C897 1.377 . S
C896 C898 1.384 . S
C897 C896 1.377 . S
C897 C903 1.390 1_455 S
C898 H889 0.930 . S
C898 C896 1.384 . S
C898 C899 1.372 1_455 S
C899 C898 1.372 1_655 S
C899 C900 1.400 . S
C899 C904 1.490 . S
C900 H890 0.930 . S
C900 C899 1.400 . S
C900 C903 1.386 . S
H901 C917 0.930 . S
H902 C918 0.931 . S
C903 H891 0.929 . S
C903 C897 1.390 1_655 S
C903 C900 1.386 . S
C904 C899 1.490 . S
C904 C906 1.395 1_655 S
C904 C907 1.403 . S
H905 C911 0.930 . S
C906 H892 0.930 . S
C906 C904 1.395 1_455 S
C906 C909 1.403 . S
C907 C904 1.403 . S
C907 C908 1.524 . S
C907 C911 1.400 . S
C908 H893 0.960 . S
C908 H894 0.960 . S
C908 H895 0.960 . S
C908 C907 1.524 . S
C909 C906 1.403 . S
C909 C910 1.392 1_455 S
C909 C913 1.495 . S
C910 C909 1.392 1_655 S
C910 C911 1.385 . S
C910 C912 1.478 . S
C911 H905 0.930 . S
C911 C907 1.400 . S
C911 C910 1.385 . S
C912 C910 1.478 . S
C912 C914 1.385 . S
C912 C918 1.383 . S
C913 C909 1.495 . S
C913 H919 0.959 . S
C913 H920 0.961 . S
C913 H921 0.960 . S
C914 C912 1.385 . S
C914 C915 1.398 . S
C914 H922 0.923 1_655 S
C915 C914 1.398 . S
C915 C916 1.383 . S
C915 H923 0.935 . S
C916 C915 1.383 . S
C916 C917 1.377 . S
C917 H901 0.930 . S
C917 C916 1.377 . S
C917 C918 1.379 . S
C918 H902 0.931 . S
C918 C912 1.383 . S
C918 C917 1.379 . S
H919 C913 0.959 . S
H920 C913 0.961 . S
H921 C913 0.960 . S
H922 C914 0.923 1_455 S
H923 C915 0.935 . S
H924 C932 0.929 . S
H925 C934 0.930 . S
H926 C936 0.930 . S
H927 C939 0.929 . S
H928 C942 0.930 . S
H929 C944 0.960 . S
H930 C944 0.960 . S
H931 C944 0.960 . S
C932 H924 0.929 . S
C932 C933 1.377 . S
C932 C934 1.384 . S
C933 C932 1.377 . S
C933 C939 1.390 . S
C934 H925 0.930 . S
C934 C932 1.384 . S
C934 C935 1.372 . S
C935 C934 1.372 . S
C935 C936 1.400 . S
C935 C940 1.490 . S
C936 H926 0.930 . S
C936 C935 1.400 . S
C936 C939 1.386 . S
H937 C953 0.930 . S
H938 C954 0.931 . S
C939 H927 0.929 . S
C939 C933 1.390 . S
C939 C936 1.386 . S
C940 C935 1.490 . S
C940 C942 1.395 . S
C940 C943 1.403 . S
H941 C947 0.930 . S
C942 H928 0.930 . S
C942 C940 1.395 . S
C942 C945 1.403 . S
C943 C940 1.403 . S
C943 C944 1.524 . S
C943 C947 1.400 . S
C944 H929 0.960 . S
C944 H930 0.960 . S
C944 H931 0.960 . S
C944 C943 1.524 . S
C945 C942 1.403 . S
C945 C946 1.392 . S
C945 C949 1.495 . S
C946 C945 1.392 . S
C946 C947 1.385 . S
C946 C948 1.478 . S
C947 H941 0.930 . S
C947 C943 1.400 . S
C947 C946 1.385 . S
C948 C946 1.478 . S
C948 C950 1.381 . S
C948 C954 1.383 . S
C949 C945 1.495 . S
C949 H955 0.959 . S
C949 H956 0.961 . S
C949 H957 0.960 . S
C950 C948 1.381 . S
C950 C951 1.394 . S
C950 H958 0.930 . S
C951 C950 1.394 . S
C951 C952 1.383 . S
C951 H959 0.929 1_545 S
C952 C951 1.383 . S
C952 C953 1.377 . S
C953 H937 0.930 . S
C953 C952 1.377 . S
C953 C954 1.379 . S
C954 H938 0.931 . S
C954 C948 1.383 . S
C954 C953 1.379 . S
H955 C949 0.959 . S
H956 C949 0.961 . S
H957 C949 0.960 . S
H958 C950 0.930 . S
H959 C951 0.929 1_565 S
H960 C968 0.929 . S
H961 C970 0.930 . S
H962 C972 0.930 . S
H963 C975 0.929 . S
H964 C978 0.930 . S
H965 C980 0.960 . S
H966 C980 0.960 . S
H967 C980 0.960 . S
C968 H960 0.929 . S
C968 C969 1.377 . S
C968 C970 1.384 . S
C969 C968 1.377 . S
C969 C975 1.390 . S
C970 H961 0.930 . S
C970 C968 1.384 . S
C970 C971 1.372 . S
C971 C970 1.372 . S
C971 C972 1.400 . S
C971 C976 1.490 . S
C972 H962 0.930 . S
C972 C971 1.400 . S
C972 C975 1.386 . S
H973 C989 0.930 . S
H974 C990 0.931 . S
C975 H963 0.929 . S
C975 C969 1.390 . S
C975 C972 1.386 . S
C976 C971 1.490 . S
C976 C978 1.395 . S
C976 C979 1.403 . S
H977 C983 0.930 . S
C978 H964 0.930 . S
C978 C976 1.395 . S
C978 C981 1.403 . S
C979 C976 1.403 . S
C979 C980 1.524 . S
C979 C983 1.400 . S
C980 H965 0.960 . S
C980 H966 0.960 . S
C980 H967 0.960 . S
C980 C979 1.524 . S
C981 C978 1.403 . S
C981 C982 1.392 . S
C981 C985 1.495 . S
C982 C981 1.392 . S
C982 C983 1.385 . S
C982 C984 1.478 . S
C983 H977 0.930 . S
C983 C979 1.400 . S
C983 C982 1.385 . S
C984 C982 1.478 . S
C984 C986 1.381 . S
C984 C990 1.383 . S
C985 C981 1.495 . S
C985 H991 0.959 . S
C985 H992 0.961 . S
C985 H993 0.960 . S
C986 C984 1.381 . S
C986 C987 1.394 . S
C986 H994 0.930 . S
C987 C986 1.394 . S
C987 C988 1.383 . S
C987 H995 0.929 . S
C988 C987 1.383 . S
C988 C989 1.377 . S
C989 H973 0.930 . S
C989 C988 1.377 . S
C989 C990 1.379 . S
C990 H974 0.931 . S
C990 C984 1.383 . S
C990 C989 1.379 . S
H991 C985 0.959 . S
H992 C985 0.961 . S
H993 C985 0.960 . S
H994 C986 0.930 . S
H995 C987 0.929 . S
H996 C1004 0.929 . S
H997 C1006 0.930 . S
H998 C1008 0.930 . S
H999 C1011 0.929 . S
H1000 C1014 0.930 . S
H1001 C1016 0.960 . S
H1002 C1016 0.960 . S
H1003 C1016 0.960 . S
C1004 H996 0.929 . S
C1004 C1005 1.377 . S
C1004 C1006 1.384 . S
C1005 C1004 1.377 . S
C1005 C1011 1.390 . S
C1006 H997 0.930 . S
C1006 C1004 1.384 . S
C1006 C1007 1.372 . S
C1007 C1006 1.372 . S
C1007 C1008 1.400 . S
C1007 C1012 1.490 . S
C1008 H998 0.930 . S
C1008 C1007 1.400 . S
C1008 C1011 1.386 . S
H1009 C1025 0.930 . S
H1010 C1026 0.931 . S
C1011 H999 0.929 . S
C1011 C1005 1.390 . S
C1011 C1008 1.386 . S
C1012 C1007 1.490 . S
C1012 C1014 1.395 . S
C1012 C1015 1.403 . S
H1013 C1019 0.930 . S
C1014 H1000 0.930 . S
C1014 C1012 1.395 . S
C1014 C1017 1.403 . S
C1015 C1012 1.403 . S
C1015 C1016 1.524 . S
C1015 C1019 1.400 . S
C1016 H1001 0.960 . S
C1016 H1002 0.960 . S
C1016 H1003 0.960 . S
C1016 C1015 1.524 . S
C1017 C1014 1.403 . S
C1017 C1018 1.392 . S
C1017 C1021 1.495 . S
C1018 C1017 1.392 . S
C1018 C1019 1.385 . S
C1018 C1020 1.478 . S
C1019 H1013 0.930 . S
C1019 C1015 1.400 . S
C1019 C1018 1.385 . S
C1020 C1018 1.478 . S
C1020 C1022 1.381 . S
C1020 C1026 1.383 . S
C1021 C1017 1.495 . S
C1021 H1027 0.959 . S
C1021 H1028 0.961 . S
C1021 H1029 0.960 . S
C1022 C1020 1.381 . S
C1022 C1023 1.394 . S
C1022 H1030 0.930 . S
C1023 C1022 1.394 . S
C1023 C1024 1.383 . S
C1023 H1031 0.929 . S
C1024 C1023 1.383 . S
C1024 C1025 1.377 . S
C1025 H1009 0.930 . S
C1025 C1024 1.377 . S
C1025 C1026 1.379 . S
C1026 H1010 0.931 . S
C1026 C1020 1.383 . S
C1026 C1025 1.379 . S
H1027 C1021 0.959 . S
H1028 C1021 0.961 . S
H1029 C1021 0.960 . S
H1030 C1022 0.930 . S
H1031 C1023 0.929 . S
H1032 C1040 0.929 . S
H1033 C1042 0.930 . S
H1034 C1044 0.930 . S
H1035 C1047 0.929 . S
H1036 C1050 0.930 . S
H1037 C1052 0.960 . S
H1038 C1052 0.960 . S
H1039 C1052 0.960 1_554 S
C1040 H1032 0.929 . S
C1040 C1041 1.377 1_455 S
C1040 C1042 1.384 . S
C1041 C1040 1.377 1_655 S
C1041 C1047 1.390 1_556 S
C1042 H1033 0.930 . S
C1042 C1040 1.384 . S
C1042 C1043 1.372 . S
C1043 C1042 1.372 . S
C1043 C1044 1.400 1_455 S
C1043 C1048 1.490 . S
C1044 H1034 0.930 . S
C1044 C1043 1.400 1_655 S
C1044 C1047 1.386 1_556 S
H1045 C1061 0.941 . S
H1046 C1062 0.931 . S
C1047 H1035 0.929 . S
C1047 C1041 1.390 1_554 S
C1047 C1044 1.386 1_554 S
C1048 C1043 1.490 . S
C1048 C1050 1.395 1_455 S
C1048 C1051 1.403 . S
H1049 C1055 0.930 . S
C1050 H1036 0.930 . S
C1050 C1048 1.395 1_655 S
C1050 C1053 1.403 . S
C1051 C1048 1.403 . S
C1051 C1052 1.524 . S
C1051 C1055 1.400 . S
C1052 H1037 0.960 . S
C1052 H1038 0.960 . S
C1052 H1039 0.960 1_556 S
C1052 C1051 1.524 . S
C1053 C1050 1.403 . S
C1053 C1054 1.392 1_655 S
C1053 C1057 1.495 . S
C1054 C1053 1.392 1_455 S
C1054 C1055 1.385 . S
C1054 C1056 1.478 . S
C1055 H1049 0.930 . S
C1055 C1051 1.400 . S
C1055 C1054 1.385 . S
C1056 C1054 1.478 . S
C1056 C1058 1.381 . S
C1056 C1062 1.383 1_455 S
C1057 C1053 1.495 . S
C1057 H1063 0.959 . S
C1057 H1064 0.961 . S
C1057 H1065 0.960 . S
C1058 C1056 1.381 . S
C1058 C1059 1.394 . S
C1058 H1066 0.930 . S
C1059 C1058 1.394 . S
C1059 C1060 1.383 . S
C1059 H1067 0.929 . S
C1060 C1059 1.383 . S
C1060 C1061 1.361 1_455 S
C1061 H1045 0.941 . S
C1061 C1060 1.361 1_655 S
C1061 C1062 1.384 . S
C1062 H1046 0.931 . S
C1062 C1056 1.383 1_655 S
C1062 C1061 1.384 . S
H1063 C1057 0.959 . S
H1064 C1057 0.961 . S
H1065 C1057 0.960 . S
H1066 C1058 0.930 . S
H1067 C1059 0.929 . S
H1068 C1076 0.929 . S
H1069 C1078 0.930 . S
H1070 C1080 0.930 . S
H1071 C1083 0.919 1_554 S
H1072 C1086 0.930 . S
H1073 C1088 0.939 1_545 S
H1074 C1088 0.960 . S
H1075 C1088 0.960 . S
C1076 H1068 0.929 . S
C1076 C1077 1.377 . S
C1076 C1078 1.384 . S
C1077 C1076 1.377 . S
C1077 C1083 1.390 . S
C1078 H1069 0.930 . S
C1078 C1076 1.384 . S
C1078 C1079 1.372 . S
C1079 C1078 1.372 . S
C1079 C1080 1.400 . S
C1079 C1084 1.490 . S
C1080 H1070 0.930 . S
C1080 C1079 1.400 . S
C1080 C1083 1.386 . S
H1081 C1097 0.930 . S
H1082 C1098 0.936 . S
C1083 H1071 0.919 1_556 S
C1083 C1077 1.390 . S
C1083 C1080 1.386 . S
C1084 C1079 1.490 . S
C1084 C1086 1.395 . S
C1084 C1087 1.403 . S
H1085 C1091 0.930 . S
C1086 H1072 0.930 . S
C1086 C1084 1.395 . S
C1086 C1089 1.403 . S
C1087 C1084 1.403 . S
C1087 C1088 1.524 . S
C1087 C1091 1.400 . S
C1088 H1073 0.939 1_565 S
C1088 H1074 0.960 . S
C1088 H1075 0.960 . S
C1088 C1087 1.524 . S
C1089 C1086 1.403 . S
C1089 C1090 1.392 . S
C1089 C1093 1.495 . S
C1090 C1089 1.392 . S
C1090 C1091 1.385 . S
C1090 C1092 1.478 . S
C1091 H1085 0.930 . S
C1091 C1087 1.400 . S
C1091 C1090 1.385 . S
C1092 C1090 1.478 . S
C1092 C1094 1.381 . S
C1092 C1098 1.383 . S
C1093 C1089 1.495 . S
C1093 H1099 0.959 . S
C1093 H1100 0.961 . S
C1093 H1101 0.960 . S
C1094 C1092 1.381 . S
C1094 C1095 1.394 . S
C1094 H1102 0.930 . S
C1095 C1094 1.394 . S
C1095 C1096 1.383 1_565 S
C1095 H1103 0.929 . S
C1096 C1095 1.383 1_545 S
C1096 C1097 1.377 . S
C1097 H1081 0.930 . S
C1097 C1096 1.377 . S
C1097 C1098 1.379 1_545 S
C1098 H1082 0.936 . S
C1098 C1092 1.383 . S
C1098 C1097 1.379 1_565 S
H1099 C1093 0.959 . S
H1100 C1093 0.961 . S
H1101 C1093 0.960 . S
H1102 C1094 0.930 . S
H1103 C1095 0.929 . S
H1104 C1112 0.929 . S
H1105 C1114 0.930 . S
H1106 C1116 0.930 . S
H1107 C1119 0.929 . S
H1108 C1122 0.930 . S
H1109 C1124 0.960 . S
H1110 C1124 0.960 1_554 S
H1111 C1124 0.960 . S
C1112 H1104 0.929 . S
C1112 C1113 1.377 . S
C1112 C1114 1.384 . S
C1113 C1112 1.377 . S
C1113 C1119 1.390 . S
C1114 H1105 0.930 . S
C1114 C1112 1.384 . S
C1114 C1115 1.372 . S
C1115 C1114 1.372 . S
C1115 C1116 1.400 . S
C1115 C1120 1.490 . S
C1116 H1106 0.930 . S
C1116 C1115 1.400 . S
C1116 C1119 1.386 . S
H1117 C1133 0.930 . S
H1118 C1134 0.931 . S
C1119 H1107 0.929 . S
C1119 C1113 1.390 . S
C1119 C1116 1.386 . S
C1120 C1115 1.490 . S
C1120 C1122 1.395 . S
C1120 C1123 1.403 . S
H1121 C1127 0.930 . S
C1122 H1108 0.930 . S
C1122 C1120 1.395 . S
C1122 C1125 1.403 . S
C1123 C1120 1.403 . S
C1123 C1124 1.524 . S
C1123 C1127 1.400 . S
C1124 H1109 0.960 . S
C1124 H1110 0.960 1_556 S
C1124 H1111 0.960 . S
C1124 C1123 1.524 . S
C1125 C1122 1.403 . S
C1125 C1126 1.392 . S
C1125 C1129 1.495 . S
C1126 C1125 1.392 . S
C1126 C1127 1.385 . S
C1126 C1128 1.478 . S
C1127 H1121 0.930 . S
C1127 C1123 1.400 . S
C1127 C1126 1.385 . S
C1128 C1126 1.478 . S
C1128 C1130 1.381 . S
C1128 C1134 1.383 . S
C1129 C1125 1.495 . S
C1129 H1135 0.959 . S
C1129 H1136 0.961 . S
C1129 H1137 0.960 . S
C1130 C1128 1.381 . S
C1130 C1131 1.394 . S
C1130 H1138 0.930 . S
C1131 C1130 1.394 . S
C1131 C1132 1.383 . S
C1131 H1139 0.929 . S
C1132 C1131 1.383 . S
C1132 C1133 1.377 . S
C1133 H1117 0.930 . S
C1133 C1132 1.377 . S
C1133 C1134 1.379 . S
C1134 H1118 0.931 . S
C1134 C1128 1.383 . S
C1134 C1133 1.379 . S
H1135 C1129 0.959 . S
H1136 C1129 0.961 . S
H1137 C1129 0.960 . S
H1138 C1130 0.930 . S
H1139 C1131 0.929 . S
H1140 C1148 0.929 . S
H1141 C1150 0.930 . S
H1142 C1152 0.930 . S
H1143 C1155 0.929 . S
H1144 C1158 0.930 . S
H1145 C1160 0.960 1_554 S
H1146 C1160 0.960 1_554 S
H1147 C1160 0.960 1_554 S
C1148 H1140 0.929 . S
C1148 C1149 1.377 . S
C1148 C1150 1.384 . S
C1149 C1148 1.377 . S
C1149 C1155 1.390 . S
C1150 H1141 0.930 . S
C1150 C1148 1.384 . S
C1150 C1151 1.372 . S
C1151 C1150 1.372 . S
C1151 C1152 1.400 . S
C1151 C1156 1.490 . S
C1152 H1142 0.930 . S
C1152 C1151 1.400 . S
C1152 C1155 1.386 . S
H1153 C1169 0.930 . S
H1154 C1170 0.931 . S
C1155 H1143 0.929 . S
C1155 C1149 1.390 . S
C1155 C1152 1.386 . S
C1156 C1151 1.490 . S
C1156 C1158 1.395 . S
C1156 C1159 1.403 . S
H1157 C1163 0.930 . S
C1158 H1144 0.930 . S
C1158 C1156 1.395 . S
C1158 C1161 1.403 . S
C1159 C1156 1.403 . S
C1159 C1160 1.524 . S
C1159 C1163 1.400 . S
C1160 H1145 0.960 1_556 S
C1160 H1146 0.960 1_556 S
C1160 H1147 0.960 1_556 S
C1160 C1159 1.524 . S
C1161 C1158 1.403 . S
C1161 C1162 1.392 . S
C1161 C1165 1.495 . S
C1162 C1161 1.392 . S
C1162 C1163 1.385 . S
C1162 C1164 1.478 . S
C1163 H1157 0.930 . S
C1163 C1159 1.400 . S
C1163 C1162 1.385 . S
C1164 C1162 1.478 . S
C1164 C1166 1.381 . S
C1164 C1170 1.383 . S
C1165 C1161 1.495 . S
C1165 H1171 0.959 . S
C1165 H1172 0.961 . S
C1165 H1173 0.960 . S
C1166 C1164 1.381 . S
C1166 C1167 1.394 . S
C1166 H1174 0.930 . S
C1167 C1166 1.394 . S
C1167 C1168 1.383 . S
C1167 H1175 0.929 . S
C1168 C1167 1.383 . S
C1168 C1169 1.377 . S
C1169 H1153 0.930 . S
C1169 C1168 1.377 . S
C1169 C1170 1.379 . S
C1170 H1154 0.931 . S
C1170 C1164 1.383 . S
C1170 C1169 1.379 . S
H1171 C1165 0.959 . S
H1172 C1165 0.961 . S
H1173 C1165 0.960 . S
H1174 C1166 0.930 . S
H1175 C1167 0.929 . S
H1176 C1184 0.929 . S
H1177 C1186 0.930 . S
H1178 C1188 0.930 . S
H1179 C1191 0.929 . S
H1180 C1194 0.926 1_655 S
H1181 C1196 0.960 . S
H1182 C1196 0.960 1_554 S
H1183 C1196 0.959 1_554 S
C1184 H1176 0.929 . S
C1184 C1185 1.377 . S
C1184 C1186 1.384 . S
C1185 C1184 1.377 . S
C1185 C1191 1.390 1_455 S
C1186 H1177 0.930 . S
C1186 C1184 1.384 . S
C1186 C1187 1.372 . S
C1187 C1186 1.372 . S
C1187 C1188 1.400 1_455 S
C1187 C1192 1.490 . S
C1188 H1178 0.930 . S
C1188 C1187 1.400 1_655 S
C1188 C1191 1.386 . S
H1189 C1205 0.930 . S
H1190 C1206 0.931 . S
C1191 H1179 0.929 . S
C1191 C1185 1.390 1_655 S
C1191 C1188 1.386 . S
C1192 C1187 1.490 . S
C1192 C1194 1.395 . S
C1192 C1195 1.403 . S
H1193 C1199 0.930 1_556 S
C1194 H1180 0.926 1_455 S
C1194 C1192 1.395 . S
C1194 C1197 1.403 . S
C1195 C1192 1.403 . S
C1195 C1196 1.524 1_554 S
C1195 C1199 1.400 . S
C1196 H1181 0.960 . S
C1196 H1182 0.960 1_556 S
C1196 H1183 0.959 1_556 S
C1196 C1195 1.524 1_556 S
C1197 C1194 1.403 . S
C1197 C1198 1.392 . S
C1197 C1201 1.495 1_455 S
C1198 C1197 1.392 . S
C1198 C1199 1.385 . S
C1198 C1200 1.478 1_554 S
C1199 H1193 0.930 1_554 S
C1199 C1195 1.400 . S
C1199 C1198 1.385 . S
C1200 C1198 1.478 1_556 S
C1200 C1202 1.381 1_556 S
C1200 C1206 1.383 1_455 S
C1201 C1197 1.495 1_655 S
C1201 H1207 0.959 . S
C1201 H1208 0.961 . S
C1201 H1209 0.960 1_655 S
C1202 C1200 1.381 1_554 S
C1202 C1203 1.394 1_554 S
C1202 H1210 0.930 . S
C1203 C1202 1.394 1_556 S
C1203 C1204 1.383 . S
C1203 H1211 0.929 . S
C1204 C1203 1.383 . S
C1204 C1205 1.377 1_455 S
C1205 H1189 0.930 . S
C1205 C1204 1.377 1_655 S
C1205 C1206 1.379 . S
C1206 H1190 0.931 . S
C1206 C1200 1.383 1_655 S
C1206 C1205 1.379 . S
H1207 C1201 0.959 . S
H1208 C1201 0.961 . S
H1209 C1201 0.960 1_455 S
H1210 C1202 0.930 . S
H1211 C1203 0.929 . S
H1212 C1220 0.929 . S
H1213 C1222 0.930 . S
H1214 C1224 0.930 . S
H1215 C1227 0.929 . S
H1216 C1230 0.930 . S
H1217 C1232 0.960 . S
H1218 C1232 0.960 . S
H1219 C1232 0.960 . S
C1220 H1212 0.929 . S
C1220 C1221 1.377 . S
C1220 C1222 1.384 . S
C1221 C1220 1.377 . S
C1221 C1227 1.390 . S
C1222 H1213 0.930 . S
C1222 C1220 1.384 . S
C1222 C1223 1.372 . S
C1223 C1222 1.372 . S
C1223 C1224 1.400 . S
C1223 C1228 1.490 . S
C1224 H1214 0.930 . S
C1224 C1223 1.400 . S
C1224 C1227 1.386 . S
H1225 C1241 0.930 . S
H1226 C1242 0.931 . S
C1227 H1215 0.929 . S
C1227 C1221 1.390 . S
C1227 C1224 1.386 . S
C1228 C1223 1.490 . S
C1228 C1230 1.395 . S
C1228 C1231 1.403 . S
H1229 C1235 0.930 . S
C1230 H1216 0.930 . S
C1230 C1228 1.395 . S
C1230 C1233 1.403 . S
C1231 C1228 1.403 . S
C1231 C1232 1.524 . S
C1231 C1235 1.400 . S
C1232 H1217 0.960 . S
C1232 H1218 0.960 . S
C1232 H1219 0.960 . S
C1232 C1231 1.524 . S
C1233 C1230 1.403 . S
C1233 C1234 1.392 . S
C1233 C1237 1.495 . S
C1234 C1233 1.392 . S
C1234 C1235 1.385 . S
C1234 C1236 1.478 . S
C1235 H1229 0.930 . S
C1235 C1231 1.400 . S
C1235 C1234 1.385 . S
C1236 C1234 1.478 . S
C1236 C1238 1.381 . S
C1236 C1242 1.383 1_554 S
C1237 C1233 1.495 . S
C1237 H1243 0.959 . S
C1237 H1244 0.961 . S
C1237 H1245 0.960 . S
C1238 C1236 1.381 . S
C1238 C1239 1.394 1_554 S
C1238 H1246 0.930 . S
C1239 C1238 1.394 1_556 S
C1239 C1240 1.383 . S
C1239 H1247 0.929 1_556 S
C1240 C1239 1.383 . S
C1240 C1241 1.377 . S
C1241 H1225 0.930 . S
C1241 C1240 1.377 . S
C1241 C1242 1.379 . S
C1242 H1226 0.931 . S
C1242 C1236 1.383 1_556 S
C1242 C1241 1.379 . S
H1243 C1237 0.959 . S
H1244 C1237 0.961 . S
H1245 C1237 0.960 . S
H1246 C1238 0.930 . S
H1247 C1239 0.929 1_554 S
H1248 C1256 0.929 . S
H1249 C1258 0.930 . S
H1250 C1260 0.930 . S
H1251 C1263 0.929 . S
H1252 C1266 0.930 . S
H1253 C1268 0.956 1_556 S
H1254 C1268 0.960 . S
H1255 C1268 0.960 . S
C1256 H1248 0.929 . S
C1256 C1257 1.377 . S
C1256 C1258 1.384 . S
C1257 C1256 1.377 . S
C1257 C1263 1.390 . S
C1258 H1249 0.930 . S
C1258 C1256 1.384 . S
C1258 C1259 1.372 . S
C1259 C1258 1.372 . S
C1259 C1260 1.400 . S
C1259 C1264 1.490 . S
C1260 H1250 0.930 . S
C1260 C1259 1.400 . S
C1260 C1263 1.386 . S
H1261 C1277 0.930 . S
H1262 C1278 0.931 . S
C1263 H1251 0.929 . S
C1263 C1257 1.390 . S
C1263 C1260 1.386 . S
C1264 C1259 1.490 . S
C1264 C1266 1.395 . S
C1264 C1267 1.403 . S
H1265 C1271 0.930 . S
C1266 H1252 0.930 . S
C1266 C1264 1.395 . S
C1266 C1269 1.403 . S
C1267 C1264 1.403 . S
C1267 C1268 1.524 . S
C1267 C1271 1.400 1_554 S
C1268 H1253 0.956 1_554 S
C1268 H1254 0.960 . S
C1268 H1255 0.960 . S
C1268 C1267 1.524 . S
C1269 C1266 1.403 . S
C1269 C1270 1.392 1_554 S
C1269 C1273 1.495 . S
C1270 C1269 1.392 1_556 S
C1270 C1271 1.385 . S
C1270 C1272 1.478 . S
C1271 H1265 0.930 . S
C1271 C1267 1.400 1_556 S
C1271 C1270 1.385 . S
C1272 C1270 1.478 . S
C1272 C1274 1.381 . S
C1272 C1278 1.383 . S
C1273 C1269 1.495 . S
C1273 H1279 0.959 . S
C1273 H1280 0.961 . S
C1273 H1281 0.960 1_554 S
C1274 C1272 1.381 . S
C1274 C1275 1.394 . S
C1274 H1282 0.930 . S
C1275 C1274 1.394 . S
C1275 C1276 1.383 . S
C1275 H1283 0.929 . S
C1276 C1275 1.383 . S
C1276 C1277 1.377 . S
C1277 H1261 0.930 . S
C1277 C1276 1.377 . S
C1277 C1278 1.379 . S
C1278 H1262 0.931 . S
C1278 C1272 1.383 . S
C1278 C1277 1.379 . S
H1279 C1273 0.959 . S
H1280 C1273 0.961 . S
H1281 C1273 0.960 1_556 S
H1282 C1274 0.930 . S
H1283 C1275 0.929 . S
H1284 C1292 0.929 . S
H1285 C1294 0.930 . S
H1286 C1296 0.930 . S
H1287 C1299 0.929 . S
H1288 C1302 0.924 1_556 S
H1289 C1304 0.960 . S
H1290 C1304 0.960 . S
H1291 C1304 0.960 . S
C1292 H1284 0.929 . S
C1292 C1293 1.377 . S
C1292 C1294 1.384 . S
C1293 C1292 1.377 . S
C1293 C1299 1.390 . S
C1294 H1285 0.930 . S
C1294 C1292 1.384 . S
C1294 C1295 1.372 . S
C1295 C1294 1.372 . S
C1295 C1296 1.400 . S
C1295 C1300 1.490 . S
C1296 H1286 0.930 . S
C1296 C1295 1.400 . S
C1296 C1299 1.386 . S
H1297 C1313 0.930 . S
H1298 C1314 0.931 . S
C1299 H1287 0.929 . S
C1299 C1293 1.390 . S
C1299 C1296 1.386 . S
C1300 C1295 1.490 . S
C1300 C1302 1.415 . S
C1300 C1303 1.403 . S
H1301 C1307 0.930 . S
C1302 H1288 0.924 1_554 S
C1302 C1300 1.415 . S
C1302 C1305 1.389 1_554 S
C1303 C1300 1.403 . S
C1303 C1304 1.524 . S
C1303 C1307 1.400 . S
C1304 H1289 0.960 . S
C1304 H1290 0.960 . S
C1304 H1291 0.960 . S
C1304 C1303 1.524 . S
C1305 C1302 1.389 1_556 S
C1305 C1306 1.392 . S
C1305 C1309 1.495 . S
C1306 C1305 1.392 . S
C1306 C1307 1.385 1_556 S
C1306 C1308 1.478 . S
C1307 H1301 0.930 . S
C1307 C1303 1.400 . S
C1307 C1306 1.385 1_554 S
C1308 C1306 1.478 . S
C1308 C1310 1.381 . S
C1308 C1314 1.383 . S
C1309 C1305 1.495 . S
C1309 H1315 0.959 . S
C1309 H1316 0.961 . S
C1309 H1317 0.960 . S
C1310 C1308 1.381 . S
C1310 C1311 1.394 . S
C1310 H1318 0.930 . S
C1311 C1310 1.394 . S
C1311 C1312 1.383 . S
C1311 H1319 0.929 . S
C1312 C1311 1.383 . S
C1312 C1313 1.377 . S
C1313 H1297 0.930 . S
C1313 C1312 1.377 . S
C1313 C1314 1.379 . S
C1314 H1298 0.931 . S
C1314 C1308 1.383 . S
C1314 C1313 1.379 . S
H1315 C1309 0.959 . S
H1316 C1309 0.961 . S
H1317 C1309 0.960 . S
H1318 C1310 0.930 . S
H1319 C1311 0.929 . S
H1320 C1328 0.929 . S
H1321 C1330 0.930 . S
H1322 C1332 0.930 . S
H1323 C1335 0.929 . S
H1324 C1338 0.930 . S
H1325 C1340 0.960 1_455 S
H1326 C1340 0.959 . S
H1327 C1340 0.961 1_455 S
C1328 H1320 0.929 . S
C1328 C1329 1.377 . S
C1328 C1330 1.384 . S
C1329 C1328 1.377 . S
C1329 C1335 1.390 1_655 S
C1330 H1321 0.930 . S
C1330 C1328 1.384 . S
C1330 C1331 1.372 . S
C1331 C1330 1.372 . S
C1331 C1332 1.400 1_655 S
C1331 C1336 1.490 . S
C1332 H1322 0.930 . S
C1332 C1331 1.400 1_455 S
C1332 C1335 1.386 . S
H1333 C1349 0.930 . S
H1334 C1350 0.931 . S
C1335 H1323 0.929 . S
C1335 C1329 1.390 1_455 S
C1335 C1332 1.386 . S
C1336 C1331 1.490 . S
C1336 C1338 1.395 . S
C1336 C1339 1.403 . S
H1337 C1343 0.930 . S
C1338 H1324 0.930 . S
C1338 C1336 1.395 . S
C1338 C1341 1.403 . S
C1339 C1336 1.403 . S
C1339 C1340 1.524 . S
C1339 C1343 1.400 . S
C1340 H1325 0.960 1_655 S
C1340 H1326 0.959 . S
C1340 H1327 0.961 1_655 S
C1340 C1339 1.524 . S
C1341 C1338 1.403 . S
C1341 C1342 1.392 . S
C1341 C1345 1.495 . S
C1342 C1341 1.392 . S
C1342 C1343 1.385 . S
C1342 C1344 1.478 . S
C1343 H1337 0.930 . S
C1343 C1339 1.400 . S
C1343 C1342 1.385 . S
C1344 C1342 1.478 . S
C1344 C1346 1.381 . S
C1344 C1350 1.383 1_655 S
C1345 C1341 1.495 . S
C1345 H1351 0.959 . S
C1345 H1352 0.961 . S
C1345 H1353 0.960 . S
C1346 C1344 1.381 . S
C1346 C1347 1.394 . S
C1346 H1354 0.930 . S
C1347 C1346 1.394 . S
C1347 C1348 1.383 . S
C1347 H1355 0.929 . S
C1348 C1347 1.383 . S
C1348 C1349 1.377 1_655 S
C1349 H1333 0.930 . S
C1349 C1348 1.377 1_455 S
C1349 C1350 1.379 . S
C1350 H1334 0.931 . S
C1350 C1344 1.383 1_455 S
C1350 C1349 1.379 . S
H1351 C1345 0.959 . S
H1352 C1345 0.961 . S
H1353 C1345 0.960 . S
H1354 C1346 0.930 . S
H1355 C1347 0.929 . S
H1356 C1364 0.929 . S
H1357 C1366 0.930 . S
H1358 C1368 0.930 . S
H1359 C1371 0.929 . S
H1360 C1374 0.930 . S
H1361 C1376 0.960 . S
H1362 C1376 0.960 . S
H1363 C1376 0.960 . S
C1364 H1356 0.929 . S
C1364 C1365 1.377 . S
C1364 C1366 1.384 . S
C1365 C1364 1.377 . S
C1365 C1371 1.390 . S
C1366 H1357 0.930 . S
C1366 C1364 1.384 . S
C1366 C1367 1.372 . S
C1367 C1366 1.372 . S
C1367 C1368 1.400 . S
C1367 C1372 1.490 . S
C1368 H1358 0.930 . S
C1368 C1367 1.400 . S
C1368 C1371 1.386 . S
H1369 C1385 0.930 . S
H1370 C1386 0.931 . S
C1371 H1359 0.929 . S
C1371 C1365 1.390 . S
C1371 C1368 1.386 . S
C1372 C1367 1.490 . S
C1372 C1374 1.395 . S
C1372 C1375 1.403 . S
H1373 C1379 0.930 . S
C1374 H1360 0.930 . S
C1374 C1372 1.395 . S
C1374 C1377 1.403 . S
C1375 C1372 1.403 . S
C1375 C1376 1.524 . S
C1375 C1379 1.400 . S
C1376 H1361 0.960 . S
C1376 H1362 0.960 . S
C1376 H1363 0.960 . S
C1376 C1375 1.524 . S
C1377 C1374 1.403 . S
C1377 C1378 1.392 . S
C1377 C1381 1.495 . S
C1378 C1377 1.392 . S
C1378 C1379 1.385 . S
C1378 C1380 1.478 . S
C1379 H1373 0.930 . S
C1379 C1375 1.400 . S
C1379 C1378 1.385 . S
C1380 C1378 1.478 . S
C1380 C1382 1.381 . S
C1380 C1386 1.383 . S
C1381 C1377 1.495 . S
C1381 H1387 0.959 . S
C1381 H1388 0.961 . S
C1381 H1389 0.960 . S
C1382 C1380 1.381 . S
C1382 C1383 1.394 . S
C1382 H1390 0.930 . S
C1383 C1382 1.394 . S
C1383 C1384 1.383 . S
C1383 H1391 0.929 . S
C1384 C1383 1.383 . S
C1384 C1385 1.377 . S
C1385 H1369 0.930 . S
C1385 C1384 1.377 . S
C1385 C1386 1.379 . S
C1386 H1370 0.931 . S
C1386 C1380 1.383 . S
C1386 C1385 1.379 . S
H1387 C1381 0.959 . S
H1388 C1381 0.961 . S
H1389 C1381 0.960 . S
H1390 C1382 0.930 . S
H1391 C1383 0.929 . S
H1392 C1400 0.929 . S
H1393 C1402 0.930 . S
H1394 C1404 0.930 . S
H1395 C1407 0.929 . S
H1396 C1410 0.930 . S
H1397 C1412 0.960 . S
H1398 C1412 0.960 . S
H1399 C1412 0.960 . S
C1400 H1392 0.929 . S
C1400 C1401 1.377 . S
C1400 C1402 1.384 . S
C1401 C1400 1.377 . S
C1401 C1407 1.390 . S
C1402 H1393 0.930 . S
C1402 C1400 1.384 . S
C1402 C1403 1.372 . S
C1403 C1402 1.372 . S
C1403 C1404 1.400 . S
C1403 C1408 1.490 . S
C1404 H1394 0.930 . S
C1404 C1403 1.400 . S
C1404 C1407 1.386 . S
H1405 C1421 0.930 . S
H1406 C1422 0.931 . S
C1407 H1395 0.929 . S
C1407 C1401 1.390 . S
C1407 C1404 1.386 . S
C1408 C1403 1.490 . S
C1408 C1410 1.395 . S
C1408 C1411 1.403 . S
H1409 C1415 0.930 . S
C1410 H1396 0.930 . S
C1410 C1408 1.395 . S
C1410 C1413 1.403 . S
C1411 C1408 1.403 . S
C1411 C1412 1.524 . S
C1411 C1415 1.400 . S
C1412 H1397 0.960 . S
C1412 H1398 0.960 . S
C1412 H1399 0.960 . S
C1412 C1411 1.524 . S
C1413 C1410 1.403 . S
C1413 C1414 1.392 . S
C1413 C1417 1.495 . S
C1414 C1413 1.392 . S
C1414 C1415 1.385 . S
C1414 C1416 1.478 . S
C1415 H1409 0.930 . S
C1415 C1411 1.400 . S
C1415 C1414 1.385 . S
C1416 C1414 1.478 . S
C1416 C1418 1.381 . S
C1416 C1422 1.383 . S
C1417 C1413 1.495 . S
C1417 H1423 0.959 . S
C1417 H1424 0.961 . S
C1417 H1425 0.960 . S
C1418 C1416 1.381 . S
C1418 C1419 1.394 . S
C1418 H1426 0.930 . S
C1419 C1418 1.394 . S
C1419 C1420 1.383 . S
C1419 H1427 0.929 . S
C1420 C1419 1.383 . S
C1420 C1421 1.377 . S
C1421 H1405 0.930 . S
C1421 C1420 1.377 . S
C1421 C1422 1.379 . S
C1422 H1406 0.931 . S
C1422 C1416 1.383 . S
C1422 C1421 1.379 . S
H1423 C1417 0.959 . S
H1424 C1417 0.961 . S
H1425 C1417 0.960 . S
H1426 C1418 0.930 . S
H1427 C1419 0.929 . S
H1428 C1436 0.929 . S
H1429 C1438 0.930 . S
H1430 C1440 0.930 . S
H1431 C1443 0.929 . S
H1432 C1446 0.930 . S
H1433 C1448 0.960 . S
H1434 C1448 0.960 . S
H1435 C1448 0.960 . S
C1436 H1428 0.929 . S
C1436 C1437 1.377 . S
C1436 C1438 1.384 . S
C1437 C1436 1.377 . S
C1437 C1443 1.390 . S
C1438 H1429 0.930 . S
C1438 C1436 1.384 . S
C1438 C1439 1.372 . S
C1439 C1438 1.372 . S
C1439 C1440 1.400 . S
C1439 C1444 1.490 . S
C1440 H1430 0.930 . S
C1440 C1439 1.400 . S
C1440 C1443 1.386 . S
H1441 C1457 0.930 . S
H1442 C1458 0.931 . S
C1443 H1431 0.929 . S
C1443 C1437 1.390 . S
C1443 C1440 1.386 . S
C1444 C1439 1.490 . S
C1444 C1446 1.395 . S
C1444 C1447 1.403 . S
H1445 C1451 0.930 . S
C1446 H1432 0.930 . S
C1446 C1444 1.395 . S
C1446 C1449 1.403 . S
C1447 C1444 1.403 . S
C1447 C1448 1.524 . S
C1447 C1451 1.400 . S
C1448 H1433 0.960 . S
C1448 H1434 0.960 . S
C1448 H1435 0.960 . S
C1448 C1447 1.524 . S
C1449 C1446 1.403 . S
C1449 C1450 1.392 . S
C1449 C1453 1.495 . S
C1450 C1449 1.392 . S
C1450 C1451 1.385 . S
C1450 C1452 1.478 . S
C1451 H1445 0.930 . S
C1451 C1447 1.400 . S
C1451 C1450 1.385 . S
C1452 C1450 1.478 . S
C1452 C1454 1.381 . S
C1452 C1458 1.383 . S
C1453 C1449 1.495 . S
C1453 H1459 0.959 . S
C1453 H1460 0.961 . S
C1453 H1461 0.960 . S
C1454 C1452 1.381 . S
C1454 C1455 1.394 . S
C1454 H1462 0.930 . S
C1455 C1454 1.394 . S
C1455 C1456 1.383 . S
C1455 H1463 0.929 . S
C1456 C1455 1.383 . S
C1456 C1457 1.377 . S
C1457 H1441 0.930 . S
C1457 C1456 1.377 . S
C1457 C1458 1.379 . S
C1458 H1442 0.931 . S
C1458 C1452 1.383 . S
C1458 C1457 1.379 . S
H1459 C1453 0.959 . S
H1460 C1453 0.961 . S
H1461 C1453 0.960 . S
H1462 C1454 0.930 . S
H1463 C1455 0.929 . S
C609 C391 1.806 . S
C628 C490 1.792 . S
C664 C520 1.680 . S
C645 C451 1.671 . S
C700 N554 1.704 . S
C681 C241 1.587 . S
C736 N584 1.220 . S
C717 C331 1.221 . S
C772 C481 1.770 1_565 S
C753 C121 1.725 . S
C789 C211 1.684 . S
C808 C511 1.674 . S
C825 C31 1.699 . S
C844 N546 1.718 . S
C861 C91 1.237 1_455 S
C880 N576 1.284 . S
C916 C496 0.713 . S
C897 C301 0.973 1_455 S
C952 C526 0.342 . S
C933 C380 0.258 . S
C988 C567 0.225 . S
C969 C440 0.218 . S
C1005 C260 0.646 . S
C1024 C597 0.287 . S
C1041 C61 0.954 . S
C1060 C507 0.711 . S
C1096 C537 0.253 . S
C1077 C140 0.564 . S
C1132 C556 0.192 . S
C1113 C200 0.126 . S
C1149 C20 0.564 . S
C1168 C586 0.352 . S
C1185 C320 1.659 1_455 S
C1204 N486 1.623 . S
C1221 C361 1.654 . S
C1240 N516 1.771 . S
C1276 C541 1.808 . S
C1257 C421 1.628 . S
C1312 C571 2.102 . S
C1293 C271 2.024 . S
C1329 C80 1.646 . S
C1348 N494 1.645 . S
C1384 N524 1.808 . S
C1365 C151 1.816 . S
C1420 C550 1.809 . S
C1401 C181 1.654 . S
C1437 C1 1.869 . S
C1456 C580 2.107 . S
