# Generated by pormake.
# Topology pyr, (3,6)-cn, num edge types: 1
# Building blocks:
#     Node 0, Type 0, BuildingBlock: PAMTOO_clean_linker_0, # of connection points: 3
#     Node 1, Type 0, BuildingBlock: PAMTOO_clean_linker_0, # of connection points: 3
#     Node 2, Type 0, BuildingBlock: PAMTOO_clean_linker_0, # of connection points: 3
#     Node 3, Type 0, BuildingBlock: PAMTOO_clean_linker_0, # of connection points: 3
#     Node 4, Type 0, BuildingBlock: PAMTOO_clean_linker_0, # of connection points: 3
#     Node 5, Type 0, BuildingBlock: PAMTOO_clean_linker_0, # of connection points: 3
#     Node 6, Type 0, BuildingBlock: PAMTOO_clean_linker_0, # of connection points: 3
#     Node 7, Type 0, BuildingBlock: PAMTOO_clean_linker_0, # of connection points: 3
#     Node 8, Type 1, BuildingBlock: BETDEL_clean_sbu_0, # of connection points: 6
#     Node 9, Type 1, BuildingBlock: BETDEL_clean_sbu_0, # of connection points: 6
#     Node 10, Type 1, BuildingBlock: BETDEL_clean_sbu_0, # of connection points: 6
#     Node 11, Type 1, BuildingBlock: BETDEL_clean_sbu_0, # of connection points: 6
#     Edge 12, Type (0, 1), BuildingBlock: ZUJKAS_clean_linker_0, # of connection points: 2
#     Edge 13, Type (0, 1), BuildingBlock: ZUJKAS_clean_linker_0, # of connection points: 2
#     Edge 14, Type (0, 1), BuildingBlock: ZUJKAS_clean_linker_0, # of connection points: 2
#     Edge 15, Type (0, 1), BuildingBlock: ZUJKAS_clean_linker_0, # of connection points: 2
#     Edge 16, Type (0, 1), BuildingBlock: ZUJKAS_clean_linker_0, # of connection points: 2
#     Edge 17, Type (0, 1), BuildingBlock: ZUJKAS_clean_linker_0, # of connection points: 2
#     Edge 18, Type (0, 1), BuildingBlock: ZUJKAS_clean_linker_0, # of connection points: 2
#     Edge 19, Type (0, 1), BuildingBlock: ZUJKAS_clean_linker_0, # of connection points: 2
#     Edge 20, Type (0, 1), BuildingBlock: ZUJKAS_clean_linker_0, # of connection points: 2
#     Edge 21, Type (0, 1), BuildingBlock: ZUJKAS_clean_linker_0, # of connection points: 2
#     Edge 22, Type (0, 1), BuildingBlock: ZUJKAS_clean_linker_0, # of connection points: 2
#     Edge 23, Type (0, 1), BuildingBlock: ZUJKAS_clean_linker_0, # of connection points: 2
#     Edge 24, Type (0, 1), BuildingBlock: ZUJKAS_clean_linker_0, # of connection points: 2
#     Edge 25, Type (0, 1), BuildingBlock: ZUJKAS_clean_linker_0, # of connection points: 2
#     Edge 26, Type (0, 1), BuildingBlock: ZUJKAS_clean_linker_0, # of connection points: 2
#     Edge 27, Type (0, 1), BuildingBlock: ZUJKAS_clean_linker_0, # of connection points: 2
#     Edge 28, Type (0, 1), BuildingBlock: ZUJKAS_clean_linker_0, # of connection points: 2
#     Edge 29, Type (0, 1), BuildingBlock: ZUJKAS_clean_linker_0, # of connection points: 2
#     Edge 30, Type (0, 1), BuildingBlock: ZUJKAS_clean_linker_0, # of connection points: 2
#     Edge 31, Type (0, 1), BuildingBlock: ZUJKAS_clean_linker_0, # of connection points: 2
#     Edge 32, Type (0, 1), BuildingBlock: ZUJKAS_clean_linker_0, # of connection points: 2
#     Edge 33, Type (0, 1), BuildingBlock: ZUJKAS_clean_linker_0, # of connection points: 2
#     Edge 34, Type (0, 1), BuildingBlock: ZUJKAS_clean_linker_0, # of connection points: 2
#     Edge 35, Type (0, 1), BuildingBlock: ZUJKAS_clean_linker_0, # of connection points: 2
# Relax obj value: 0.080
# Max RMSD: 0.195
# Mean RMSD: 0.138
data_MOF--net-pyr--node1-BETDEL_clean_sbu_0--node2-PAMTOO_clean_linker_0--edge1-ZUJKAS_clean_linker_0
_symmetry_space_group_name_H-M    P1
_symmetry_Int_Tables_number       1
_symmetry_cell_setting            triclinic
loop_
_symmetry_equiv_pos_as_xyz
'x, y, z'
_cell_length_a     46.723813
_cell_length_b     50.257194
_cell_length_c     45.651296
_cell_angle_alpha  91.844349
_cell_angle_beta   90.628584
_cell_angle_gamma 99.176561
loop_
_atom_site_label
_atom_site_type_symbol
_atom_site_fract_x
_atom_site_fract_y
_atom_site_fract_z
_atom_type_partial_charge
H0 H 0.16947 0.22109 0.20515 0.0
H1 H 0.22962 0.16436 0.20541 0.0
H2 H 0.23554 0.22369 0.13972 0.0
H3 H 0.24338 0.17161 0.11607 0.0
C4 C 0.25081 0.16252 0.13612 0.0
O5 O 0.25626 0.18197 0.15835 0.0
H6 H 0.2332 0.14617 0.1425 0.0
C7 C 0.18816 0.21364 0.19616 0.0
C8 C 0.20146 0.2255 0.1712 0.0
C9 C 0.19805 0.19156 0.20887 0.0
C10 C 0.22143 0.18127 0.19607 0.0
C11 C 0.23454 0.19269 0.17105 0.0
C12 C 0.22483 0.21489 0.15887 0.0
H13 H 0.30036 0.89128 0.7086 0.0
H14 H 0.2925 0.83954 0.6307 0.0
H15 H 0.35397 0.82952 0.69807 0.0
H16 H 0.37127 0.83375 0.63436 0.0
C17 C 0.35463 0.81635 0.62694 0.0
O18 O 0.33253 0.81185 0.6469 0.0
H19 H 0.34551 0.82147 0.60562 0.0
C20 C 0.30713 0.87503 0.6956 0.0
C21 C 0.32886 0.86151 0.70671 0.0
C22 C 0.29358 0.86726 0.66826 0.0
C23 C 0.30216 0.84564 0.65204 0.0
C24 C 0.32389 0.83218 0.66287 0.0
C25 C 0.33697 0.83995 0.69017 0.0
H26 H 0.71446 0.31744 0.91909 0.0
H27 H 0.63951 0.31668 0.86303 0.0
H28 H 0.71014 0.38234 0.86066 0.0
H29 H 0.65169 0.39601 0.86302 0.0
C30 C 0.64094 0.38083 0.84642 0.0
O31 O 0.65899 0.36252 0.83914 0.0
H32 H 0.62082 0.37005 0.85617 0.0
C33 C 0.70297 0.32671 0.90248 0.0
C34 C 0.71573 0.35149 0.89133 0.0
C35 C 0.67553 0.31381 0.89247 0.0
C36 C 0.66081 0.32606 0.87092 0.0
C37 C 0.67329 0.35079 0.85974 0.0
C38 C 0.70068 0.36336 0.86979 0.0
H39 H 0.85322 0.71328 0.41285 0.0
H40 H 0.85474 0.64584 0.3523 0.0
H41 H 0.91683 0.7178 0.34496 0.0
H42 H 0.89432 0.69557 0.28895 0.0
C43 C 0.88819 0.67395 0.29411 0.0
O44 O 0.89781 0.66979 0.32202 0.0
H45 H 0.86411 0.66882 0.29279 0.0
C46 C 0.8627 0.704 0.39436 0.0
C47 C 0.88652 0.71865 0.38034 0.0
C48 C 0.85105 0.67757 0.3847 0.0
C49 C 0.86326 0.66613 0.36025 0.0
C50 C 0.88677 0.68072 0.34595 0.0
C51 C 0.89865 0.70671 0.35625 0.0
H52 H 0.83321 0.89386 0.86368 0.0
H53 H 0.81901 0.8364 0.93215 0.0
H54 H 0.88762 0.8327 0.87168 0.0
H55 H 0.84614 0.78183 0.88335 0.0
C56 C 0.8473 0.7843 0.9077 0.0
O57 O 0.86024 0.81006 0.91605 0.0
H58 H 0.82473 0.78059 0.91593 0.0
C59 C 0.83937 0.87699 0.87504 0.0
C60 C 0.86271 0.86492 0.86474 0.0
C61 C 0.82337 0.867 0.89939 0.0
C62 C 0.83075 0.84438 0.91319 0.0
C63 C 0.85355 0.83195 0.90281 0.0
C64 C 0.86961 0.84228 0.87889 0.0
H65 H 0.77779 0.15741 0.35271 0.0
H66 H 0.7249 0.2202 0.35503 0.0
H67 H 0.78476 0.21522 0.42545 0.0
H68 H 0.72836 0.22958 0.44532 0.0
C69 C 0.72143 0.2377 0.42447 0.0
O70 O 0.74463 0.24098 0.40571 0.0
H71 H 0.70316 0.22306 0.41467 0.0
C72 C 0.77165 0.17519 0.36335 0.0
C73 C 0.7844 0.18475 0.3906 0.0
C74 C 0.75008 0.18773 0.35028 0.0
C75 C 0.74134 0.21011 0.36473 0.0
C76 C 0.75366 0.21971 0.39185 0.0
C77 C 0.7752 0.20721 0.40464 0.0
H78 H 0.37051 0.71719 0.13105 0.0
H79 H 0.37431 0.65578 0.1939 0.0
H80 H 0.44306 0.72305 0.19154 0.0
H81 H 0.46245 0.6708 0.20183 0.0
C82 C 0.44277 0.66037 0.21267 0.0
O83 O 0.42375 0.67836 0.21745 0.0
H84 H 0.43254 0.6433 0.19798 0.0
C85 C 0.3819 0.70905 0.14862 0.0
C86 C 0.40834 0.7234 0.15967 0.0
C87 C 0.36941 0.68466 0.16079 0.0
C88 C 0.38353 0.67462 0.18432 0.0
C89 C 0.41008 0.68844 0.19514 0.0
C90 C 0.4224 0.71274 0.18295 0.0
H91 H 0.13805 0.33192 0.73848 0.0
H92 H 0.20433 0.40239 0.73773 0.0
H93 H 0.20792 0.33649 0.67707 0.0
H94 H 0.26281 0.36051 0.70499 0.0
C95 C 0.26002 0.38211 0.70543 0.0
O96 O 0.23288 0.38452 0.69474 0.0
H97 H 0.26237 0.38987 0.72859 0.0
C98 C 0.15772 0.34285 0.72955 0.0
C99 C 0.17167 0.33087 0.70662 0.0
C100 C 0.1692 0.36878 0.74106 0.0
C101 C 0.19471 0.38264 0.72905 0.0
C102 C 0.2085 0.37093 0.70614 0.0
C103 C 0.19703 0.3452 0.69497 0.0
Dy104 Dy 0.04631 0.03488 0.50882 0.0
C105 C 0.00569 0.99078 0.61729 0.0
C106 C 0.06286 0.06047 0.45837 0.0
Dy107 Dy 0.02194 0.01662 0.56691 0.0
O108 O 0.06866 0.03713 0.46546 0.0
O109 O 0.04775 0.06992 0.4788 0.0
O110 O 0.0768 0.00479 0.50983 0.0
O111 O 0.06557 0.02234 0.54939 0.0
C112 C 0.07872 0.00459 0.53814 0.0
C113 C 0.9895 0.04671 0.53718 0.0
O114 O 0.054 0.05214 0.58262 0.0
O115 O 0.05846 0.07231 0.53771 0.0
O116 O 1.00002 0.01427 0.61053 0.0
O117 O 0.02046 0.98135 0.59658 0.0
O118 O 0.99097 0.0465 0.56552 0.0
O119 O 0.00285 0.02899 0.52633 0.0
O120 O 0.01406 0.99934 0.49319 0.0
O121 O 0.00975 0.97921 0.53813 0.0
C122 C 0.06196 0.07351 0.56663 0.0
C123 C 0.00609 0.97799 0.50924 0.0
Dy124 Dy 0.56483 0.03415 0.05468 0.0
C125 C 0.48378 0.96933 0.96675 0.0
C126 C 0.60349 0.06752 0.0897 0.0
Dy127 Dy 0.52211 0.00348 0.00128 0.0
O128 O 0.60641 0.04332 0.08068 0.0
O129 O 0.57958 0.07382 0.07901 0.0
O130 O 0.55232 1.00113 0.08745 0.0
O131 O 0.53439 0.99802 0.046 0.0
C132 C 0.53454 0.98592 0.06947 0.0
C133 C 0.55246 0.05149 0.98608 0.0
O134 O 0.49191 0.02025 0.03222 0.0
O135 O 0.52446 0.05252 0.05931 0.0
O136 O 0.4795 0.99273 0.97718 0.0
O137 O 0.50887 0.9643 0.97571 0.0
O138 O 0.5346 0.03616 0.96827 0.0
O139 O 0.55254 0.03975 0.00982 0.0
O140 O 0.59504 0.01709 0.02395 0.0
O141 O 0.56217 0.98464 0.99749 0.0
C142 C 0.49775 0.04163 0.05061 0.0
C143 C 0.58897 0.99548 0.00592 0.0
Dy144 Dy 0.55592 0.50716 0.51776 0.0
C145 C 0.50889 0.59395 0.57473 0.0
C146 C 0.58406 0.46804 0.49406 0.0
Dy147 Dy 0.53899 0.55607 0.55149 0.0
O148 O 0.55706 0.46462 0.50156 0.0
O149 O 0.59575 0.49302 0.49918 0.0
O150 O 0.5088 0.48906 0.5136 0.0
O151 O 0.5239 0.51301 0.55074 0.0
C152 C 0.50161 0.50054 0.53775 0.0
C153 C 0.59333 0.56291 0.53168 0.0
O154 O 0.55081 0.53275 0.58947 0.0
O155 O 0.57683 0.50522 0.56228 0.0
O156 O 0.53696 0.5961 0.57446 0.0
O157 O 0.49728 0.57094 0.56269 0.0
O158 O 0.58593 0.57458 0.55562 0.0
O159 O 0.57111 0.55038 0.51858 0.0
O160 O 0.54235 0.5288 0.47937 0.0
O161 O 0.51964 0.55922 0.50641 0.0
C162 C 0.56909 0.51509 0.58783 0.0
C163 C 0.52563 0.54777 0.48102 0.0
Dy164 Dy 0.04974 0.48802 0.04545 0.0
C165 C 0.00827 0.5832 0.00814 0.0
C166 C 0.07453 0.44485 0.06119 0.0
Dy167 Dy 0.03407 0.53968 0.02018 0.0
O168 O 0.06438 0.46137 0.0792 0.0
O169 O 0.07102 0.45177 0.03437 0.0
O170 O 0.01688 0.49028 0.08053 0.0
O171 O 0.03981 0.52598 0.06407 0.0
C172 C 0.01986 0.51644 0.08092 0.0
C173 C 0.06287 0.51089 0.98374 0.0
O174 O 0.07461 0.55697 0.04471 0.0
O175 O 0.09228 0.51648 0.04669 0.0
O176 O 0.02915 0.57543 0.99325 0.0
O177 O 0.00159 0.5673 0.02972 0.0
O178 O 0.0651 0.53698 0.98335 0.0
O179 O 0.04365 0.50168 0.00148 0.0
O180 O 0.0079 0.46993 0.02353 0.0
O181 O 0.99226 0.51061 0.01428 0.0
C182 C 0.09607 0.5432 0.04934 0.0
C183 C 0.98761 0.48385 0.01501 0.0
H184 H 0.17734 0.21682 0.25649 0.0
H185 H 0.15291 0.19592 0.29913 0.0
H186 H 0.16207 0.11727 0.26365 0.0
H187 H 0.18569 0.1378 0.22051 0.0
H188 H 0.10015 0.15241 0.29794 0.0
H189 H 0.19893 0.12403 0.34947 0.0
H190 H 0.20056 0.15021 0.32304 0.0
H191 H 0.19316 0.1154 0.31106 0.0
C192 C 0.17392 0.19506 0.25757 0.0
C193 C 0.18358 0.179 0.23506 0.0
C194 C 0.16009 0.18319 0.28202 0.0
C195 C 0.15596 0.15514 0.28455 0.0
C196 C 0.16543 0.13902 0.26219 0.0
H197 H 0.09051 0.04037 0.41285 0.0
H198 H 0.11133 0.06428 0.37035 0.0
C199 C 0.17907 0.15082 0.23764 0.0
C200 C 0.14162 0.14257 0.31051 0.0
H201 H 0.15401 0.10738 0.37072 0.0
C202 C 0.11185 0.14267 0.31402 0.0
C203 C 0.15707 0.12993 0.33127 0.0
C204 C 0.18925 0.12995 0.3288 0.0
C205 C 0.09686 0.12967 0.33741 0.0
C206 C 0.11229 0.11682 0.35813 0.0
C207 C 0.14219 0.11716 0.35479 0.0
C208 C 0.09788 0.10222 0.38307 0.0
C209 C 0.06453 0.12903 0.33914 0.0
C210 C 0.08324 0.11557 0.40429 0.0
C211 C 0.07104 0.10181 0.42848 0.0
C212 C 0.0737 0.07466 0.43198 0.0
C213 C 0.08814 0.06131 0.41065 0.0
C214 C 0.10008 0.07496 0.38641 0.0
H215 H 0.055 0.13332 0.31773 0.0
H216 H 0.05348 0.10912 0.34626 0.0
H217 H 0.06003 0.14467 0.35539 0.0
H218 H 0.08183 0.13675 0.40251 0.0
H219 H 0.0602 0.11259 0.44478 0.0
H220 H 0.3491 0.91295 0.72681 0.0
H221 H 0.37424 0.92727 0.7734 0.0
H222 H 0.36713 0.84429 0.79759 0.0
H223 H 0.34168 0.82977 0.7511 0.0
H224 H 0.35133 0.88294 0.84276 0.0
H225 H 0.45911 0.91446 0.79329 0.0
H226 H 0.42938 0.92746 0.77661 0.0
H227 H 0.43029 0.89187 0.77448 0.0
C228 C 0.35267 0.89776 0.74215 0.0
C229 C 0.34347 0.87023 0.73527 0.0
C230 C 0.36721 0.90596 0.76863 0.0
C231 C 0.37275 0.8868 0.78873 0.0
C232 C 0.36315 0.85934 0.78224 0.0
H233 H 0.49387 0.92393 0.93687 0.0
H234 H 0.46552 0.9006 0.8954 0.0
C235 C 0.34878 0.8511 0.75566 0.0
C236 C 0.38871 0.89551 0.81646 0.0
H237 H 0.45451 0.92625 0.84354 0.0
C238 C 0.37394 0.89225 0.84302 0.0
C239 C 0.41826 0.90733 0.81667 0.0
C240 C 0.43537 0.91035 0.7888 0.0
C241 C 0.38778 0.90131 0.86982 0.0
C242 C 0.41705 0.91406 0.86991 0.0
C243 C 0.43203 0.91654 0.8434 0.0
C244 C 0.4323 0.92607 0.897 0.0
C245 C 0.37101 0.8972 0.89779 0.0
C246 C 0.42283 0.94789 0.9118 0.0
C247 C 0.43897 0.96123 0.93539 0.0
C248 C 0.46491 0.95301 0.94452 0.0
C249 C 0.47388 0.93059 0.93035 0.0
C250 C 0.45777 0.91732 0.90665 0.0
H251 H 0.35193 0.88098 0.89501 0.0
H252 H 0.385 0.89204 0.91589 0.0
H253 H 0.36303 0.91615 0.90425 0.0
H254 H 0.40354 0.95529 0.90438 0.0
H255 H 0.43166 0.97855 0.94583 0.0
H256 H 0.67816 0.41539 0.8143 0.0
H257 H 0.66723 0.43949 0.77064 0.0
H258 H 0.57733 0.40307 0.77484 0.0
H259 H 0.58838 0.37856 0.81805 0.0
H260 H 0.59822 0.40127 0.7194 0.0
H261 H 0.62603 0.50482 0.76823 0.0
H262 H 0.65489 0.48527 0.77074 0.0
H263 H 0.62179 0.47517 0.79005 0.0
C264 C 0.6561 0.41265 0.80582 0.0
C265 C 0.63406 0.39535 0.81955 0.0
C266 C 0.64983 0.42652 0.78108 0.0
C267 C 0.62135 0.42349 0.76983 0.0
C268 C 0.59941 0.40586 0.78329 0.0
H269 H 0.55093 0.52288 0.64391 0.0
H270 H 0.56422 0.50099 0.68803 0.0
C271 C 0.6057 0.39191 0.80795 0.0
C272 C 0.61448 0.43816 0.74361 0.0
H273 H 0.61681 0.50115 0.7168 0.0
C274 C 0.60223 0.42311 0.71885 0.0
C275 C 0.61936 0.46667 0.74307 0.0
C276 C 0.63097 0.48398 0.76953 0.0
C277 C 0.59506 0.43576 0.69343 0.0
C278 C 0.60086 0.46424 0.69253 0.0
C279 C 0.61272 0.47932 0.71742 0.0
C280 C 0.59422 0.4787 0.6661 0.0
C281 C 0.5808 0.41851 0.66798 0.0
C282 C 0.6073 0.47402 0.63931 0.0
C283 C 0.59969 0.48641 0.61404 0.0
C284 C 0.57904 0.50395 0.61512 0.0
C285 C 0.56688 0.50947 0.64226 0.0
C286 C 0.57442 0.49696 0.66752 0.0
H287 H 0.57093 0.39814 0.67493 0.0
H288 H 0.56368 0.42814 0.65748 0.0
H289 H 0.59735 0.41594 0.65133 0.0
H290 H 0.62316 0.46052 0.63786 0.0
H291 H 0.60972 0.4819 0.59358 0.0
H292 H 0.94562 0.67738 0.28151 0.0
H293 H 0.96813 0.6509 0.24469 0.0
H294 H 0.88401 0.60631 0.22077 0.0
H295 H 0.86151 0.63269 0.25749 0.0
H296 H 0.96497 0.5931 0.23968 0.0
H297 H 0.91871 0.63557 0.14223 0.0
H298 H 0.91998 0.65169 0.17827 0.0
H299 H 0.89289 0.62292 0.16936 0.0
C300 C 0.93205 0.66187 0.26837 0.0
C301 C 0.9019 0.6571 0.27216 0.0
C302 C 0.94486 0.64681 0.24742 0.0
C303 C 0.92766 0.62693 0.22978 0.0
C304 C 0.89758 0.62187 0.23385 0.0
H305 H 0.9802 0.49841 0.12195 0.0
H306 H 0.95787 0.52548 0.15809 0.0
C307 C 0.88479 0.63683 0.25487 0.0
C308 C 0.94121 0.61131 0.2073 0.0
H309 H 0.94376 0.59866 0.13349 0.0
C310 C 0.9604 0.59432 0.21646 0.0
C311 C 0.9354 0.61322 0.17703 0.0
C312 C 0.91582 0.63199 0.16598 0.0
C313 C 0.97358 0.57876 0.19613 0.0
C314 C 0.96716 0.58013 0.16592 0.0
C315 C 0.94839 0.5975 0.15671 0.0
C316 C 0.97997 0.56381 0.14353 0.0
C317 C 0.99451 0.56121 0.20706 0.0
C318 C 0.9992 0.57647 0.12296 0.0
C319 C 0.01199 0.56107 0.10235 0.0
C320 C 0.00549 0.53278 0.10182 0.0
C321 C 0.98569 0.52018 0.12198 0.0
C322 C 0.97303 0.53558 0.14267 0.0
H323 H 0.00196 0.56691 0.22993 0.0
H324 H 0.98362 0.5399 0.20655 0.0
H325 H 0.01375 0.56253 0.19279 0.0
H326 H 0.0047 0.59825 0.12321 0.0
H327 H 0.0272 0.57129 0.08706 0.0
H328 H 0.29788 0.18567 0.10583 0.0
H329 H 0.34157 0.16648 0.09348 0.0
H330 H 0.3084 0.09481 0.13972 0.0
H331 H 0.26503 0.11419 0.15255 0.0
H332 H 0.36695 0.11279 0.15084 0.0
H333 H 0.34231 0.10624 0.03128 0.0
H334 H 0.34409 0.13943 0.0477 0.0
H335 H 0.31605 0.11279 0.05817 0.0
C336 C 0.30005 0.16584 0.11331 0.0
C337 C 0.27797 0.15111 0.12956 0.0
C338 C 0.32486 0.15487 0.10619 0.0
C339 C 0.3279 0.12898 0.11515 0.0
C340 C 0.30634 0.11471 0.13238 0.0
H341 H 0.43974 0.02376 0.04156 0.0
H342 H 0.39923 0.04498 0.05873 0.0
C343 C 0.28159 0.12572 0.13959 0.0
C344 C 0.35325 0.11651 0.10617 0.0
H345 H 0.38753 0.09524 0.04622 0.0
C346 C 0.3715 0.10895 0.12798 0.0
C347 C 0.35886 0.11119 0.07634 0.0
C348 C 0.33918 0.11758 0.05199 0.0
C349 C 0.39537 0.09636 0.12073 0.0
C350 C 0.40135 0.09163 0.09086 0.0
C351 C 0.383 0.09906 0.06909 0.0
C352 C 0.42612 0.07844 0.0816 0.0
C353 C 0.41355 0.08769 0.14508 0.0
C354 C 0.45472 0.09026 0.0887 0.0
C355 C 0.478 0.07813 0.07901 0.0
C356 C 0.47311 0.05404 0.06179 0.0
C357 C 0.44438 0.04227 0.05477 0.0
C358 C 0.42115 0.05438 0.06454 0.0
H359 H 0.40188 0.0864 0.1662 0.0
H360 H 0.41993 0.06778 0.13964 0.0
H361 H 0.4336 0.10269 0.14819 0.0
H362 H 0.45907 0.10913 0.10132 0.0
H363 H 0.49982 0.08788 0.08468 0.0
H364 H 0.29266 0.92169 0.67057 0.0
H365 H 0.25488 0.94559 0.6521 0.0
H366 H 0.20559 0.87016 0.62014 0.0
H367 H 0.24279 0.84597 0.63945 0.0
H368 H 0.23551 0.9479 0.59557 0.0
H369 H 0.14511 0.90399 0.66569 0.0
H370 H 0.1824 0.90089 0.67337 0.0
H371 H 0.16173 0.87913 0.64603 0.0
C372 C 0.27358 0.91011 0.66002 0.0
C373 C 0.2707 0.88185 0.65669 0.0
C374 C 0.25208 0.92384 0.64932 0.0
C375 C 0.22716 0.90964 0.63518 0.0
C376 C 0.22432 0.88149 0.63154 0.0
H377 H 0.11151 0.96959 0.51478 0.0
H378 H 0.14717 0.94732 0.53977 0.0
C379 C 0.24581 0.86772 0.64225 0.0
C380 C 0.20477 0.92443 0.62318 0.0
H381 H 0.13258 0.92901 0.62518 0.0
C382 C 0.21305 0.94388 0.6022 0.0
C383 C 0.17553 0.91949 0.63214 0.0
C384 C 0.16565 0.89993 0.65576 0.0
C385 C 0.19276 0.95793 0.58931 0.0
C386 C 0.16329 0.95208 0.59726 0.0
C387 C 0.15513 0.93325 0.6189 0.0
C388 C 0.1406 0.96477 0.58264 0.0
C389 C 0.2031 0.97902 0.56734 0.0
C390 C 0.12429 0.98125 0.59863 0.0
C391 C 0.10372 0.99398 0.58436 0.0
C392 C 0.0991 0.99025 0.55393 0.0
C393 C 0.11481 0.97307 0.5382 0.0
C394 C 0.1353 0.96041 0.55242 0.0
H395 H 0.22677 0.9863 0.56969 0.0
H396 H 0.1988 0.97011 0.54486 0.0
H397 H 0.19146 0.99656 0.56977 0.0
H398 H 0.12789 0.98468 0.62202 0.0
H399 H 0.09176 0.007 0.59703 0.0
H400 H 0.76373 0.32851 0.90312 0.0
H401 H 0.80985 0.35034 0.9251 0.0
H402 H 0.77932 0.42694 0.92622 0.0
H403 H 0.73274 0.40512 0.90523 0.0
H404 H 0.85048 0.3921 0.90531 0.0
H405 H 0.80477 0.42071 0.01132 0.0
H406 H 0.7846 0.3969 0.98527 0.0
H407 H 0.78787 0.43253 0.97983 0.0
C408 C 0.76674 0.34997 0.90828 0.0
C409 C 0.74445 0.36504 0.90273 0.0
C410 C 0.79315 0.36242 0.92066 0.0
C411 C 0.79776 0.39014 0.92779 0.0
C412 C 0.77595 0.40541 0.92144 0.0
H413 H 0.93964 0.50522 0.99939 0.0
H414 H 0.89393 0.48139 0.97863 0.0
C415 C 0.74949 0.39297 0.90911 0.0
C416 C 0.82545 0.40305 0.94181 0.0
H417 H 0.85407 0.43876 0.00306 0.0
C418 C 0.85133 0.40217 0.92675 0.0
C419 C 0.82643 0.41605 0.96984 0.0
C420 C 0.79948 0.41644 0.98767 0.0
C421 C 0.87815 0.41458 0.93868 0.0
C422 C 0.87905 0.42787 0.96652 0.0
C423 C 0.85323 0.42856 0.98169 0.0
C424 C 0.90654 0.44187 0.97994 0.0
C425 C 0.90522 0.41399 0.9211 0.0
C426 C 0.92852 0.42741 0.98807 0.0
C427 C 0.95472 0.44094 1.00002 0.0
C428 C 0.95933 0.46919 0.00404 0.0
C429 C 0.93692 0.48348 0.99646 0.0
C430 C 0.91075 0.46992 0.98462 0.0
H431 H 0.90014 0.40793 0.89777 0.0
H432 H 0.91923 0.43405 0.92208 0.0
H433 H 0.91775 0.39922 0.9305 0.0
H434 H 0.92544 0.40566 0.98505 0.0
H435 H 0.97147 0.4293 0.00569 0.0
H436 H 0.84184 0.67569 0.44379 0.0
H437 H 0.79944 0.65265 0.46883 0.0
H438 H 0.76152 0.62126 0.38578 0.0
H439 H 0.80357 0.64474 0.36038 0.0
H440 H 0.74059 0.66148 0.45718 0.0
H441 H 0.7546 0.55437 0.43909 0.0
H442 H 0.78419 0.58205 0.43624 0.0
H443 H 0.75753 0.5748 0.40728 0.0
C444 C 0.82447 0.66396 0.43079 0.0
C445 C 0.82606 0.6622 0.40003 0.0
C446 C 0.80037 0.65065 0.44517 0.0
C447 C 0.77754 0.63507 0.42917 0.0
C448 C 0.77919 0.63282 0.39855 0.0
H449 H 0.60805 0.55082 0.47565 0.0
H450 H 0.65353 0.56743 0.45115 0.0
C451 C 0.80325 0.64624 0.38409 0.0
C452 C 0.75119 0.62268 0.44443 0.0
H453 H 0.71095 0.56237 0.46107 0.0
C454 C 0.73414 0.63981 0.45818 0.0
C455 C 0.7428 0.59444 0.44539 0.0
C456 C 0.76077 0.57523 0.43142 0.0
C457 C 0.70864 0.62948 0.47262 0.0
C458 C 0.7004 0.60119 0.47402 0.0
C459 C 0.7174 0.58403 0.46012 0.0
C460 C 0.67396 0.58919 0.48954 0.0
C461 C 0.69038 0.649 0.48556 0.0
C462 C 0.67076 0.59516 0.51947 0.0
C463 C 0.64478 0.58589 0.53341 0.0
C464 C 0.6217 0.57022 0.51774 0.0
C465 C 0.62547 0.56301 0.4882 0.0
C466 C 0.65142 0.57246 0.4742 0.0
H467 H 0.69526 0.6691 0.47567 0.0
H468 H 0.66689 0.64125 0.48237 0.0
H469 H 0.69504 0.65177 0.50944 0.0
H470 H 0.68817 0.60746 0.5319 0.0
H471 H 0.64254 0.59147 0.55629 0.0
H472 H 0.18389 0.26897 0.19913 0.0
H473 H 0.1638 0.3058 0.17706 0.0
H474 H 0.17509 0.27168 0.09088 0.0
H475 H 0.19417 0.23418 0.11279 0.0
H476 H 0.18879 0.34363 0.13795 0.0
H477 H 0.08983 0.28092 0.08939 0.0
H478 H 0.11236 0.26842 0.11642 0.0
H479 H 0.12338 0.2705 0.07886 0.0
C480 C 0.18181 0.26913 0.17549 0.0
C481 C 0.19042 0.24851 0.15774 0.0
C482 C 0.17052 0.29029 0.16291 0.0
C483 C 0.16755 0.29123 0.13237 0.0
C484 C 0.1767 0.27105 0.11453 0.0
H485 H 0.0961 0.40793 0.02604 0.0
H486 H 0.12034 0.3707 0.04174 0.0
C487 C 0.18793 0.24982 0.12708 0.0
C488 C 0.15498 0.31348 0.11935 0.0
H489 H 0.09748 0.32724 0.07892 0.0
C490 C 0.16886 0.34006 0.12499 0.0
C491 C 0.12901 0.30871 0.10239 0.0
C492 C 0.11258 0.28063 0.09655 0.0
C493 C 0.1574 0.36205 0.11424 0.0
C494 C 0.13119 0.3573 0.09774 0.0
C495 C 0.11762 0.33074 0.09154 0.0
C496 C 0.11673 0.37972 0.08809 0.0
C497 C 0.17344 0.3902 0.12057 0.0
C498 C 0.10633 0.39673 0.10898 0.0
C499 C 0.09247 0.41781 0.10012 0.0
C500 C 0.0887 0.42219 0.0702 0.0
C501 C 0.09882 0.40498 0.04925 0.0
C502 C 0.11263 0.38378 0.05816 0.0
H503 H 0.19654 0.3901 0.12653 0.0
H504 H 0.17245 0.40305 0.10136 0.0
H505 H 0.16318 0.39946 0.13929 0.0
H506 H 0.10881 0.39359 0.13218 0.0
H507 H 0.08477 0.43072 0.11672 0.0
H508 H 0.64666 0.2693 0.86247 0.0
H509 H 0.62744 0.22538 0.88206 0.0
H510 H 0.65721 0.25448 0.96876 0.0
H511 H 0.67549 0.29871 0.94959 0.0
H512 H 0.65876 0.19097 0.9105 0.0
H513 H 0.57343 0.2208 0.9827 0.0
H514 H 0.59045 0.2423 0.95481 0.0
H515 H 0.60897 0.23986 0.98909 0.0
C516 C 0.64863 0.26651 0.88579 0.0
C517 C 0.6626 0.28751 0.90446 0.0
C518 C 0.63784 0.24135 0.89691 0.0
C519 C 0.64065 0.23676 0.9269 0.0
C520 C 0.65438 0.25771 0.94563 0.0
H521 H 0.58619 0.08835 0.02277 0.0
H522 H 0.61066 0.1336 0.01035 0.0
C523 C 0.66512 0.28288 0.93456 0.0
C524 C 0.63019 0.20971 0.93829 0.0
H525 H 0.582 0.17576 0.98515 0.0
C526 C 0.64201 0.18765 0.92685 0.0
C527 C 0.60852 0.20548 0.95982 0.0
C528 C 0.59438 0.22829 0.97219 0.0
C529 C 0.63249 0.16142 0.93611 0.0
C530 C 0.61038 0.15713 0.95711 0.0
C531 C 0.59908 0.17922 0.96916 0.0
C532 C 0.59687 0.12964 0.96478 0.0
C533 C 0.64605 0.13845 0.92325 0.0
C534 C 0.58098 0.11268 0.94335 0.0
C535 C 0.56697 0.08715 0.95042 0.0
C536 C 0.56857 0.07809 0.97907 0.0
C537 C 0.5847 0.09492 1.00055 0.0
C538 C 0.59861 0.12067 0.99348 0.0
H539 H 0.66758 0.1457 0.91378 0.0
H540 H 0.64862 0.12351 0.94009 0.0
H541 H 0.63174 0.12804 0.90543 0.0
H542 H 0.57899 0.1194 0.92121 0.0
H543 H 0.5546 0.0746 0.93346 0.0
H544 H 0.8567 0.76006 0.3922 0.0
H545 H 0.87608 0.80563 0.41093 0.0
H546 H 0.96233 0.78514 0.41206 0.0
H547 H 0.94308 0.73981 0.39244 0.0
H548 H 0.90218 0.8213 0.46106 0.0
H549 H 0.97736 0.85553 0.37217 0.0
H550 H 0.95089 0.82523 0.36852 0.0
H551 H 0.98494 0.82486 0.38728 0.0
C552 C 0.87983 0.76539 0.39628 0.0
C553 C 0.89843 0.74648 0.39081 0.0
C554 C 0.89089 0.79142 0.40692 0.0
C555 C 0.92075 0.79901 0.41248 0.0
C556 C 0.93935 0.78007 0.40714 0.0
H557 H 0.99743 0.92806 0.53249 0.0
H558 H 0.97601 0.88535 0.50848 0.0
C559 C 0.92834 0.75413 0.3961 0.0
C560 C 0.9321 0.82625 0.42533 0.0
H561 H 0.98342 0.88191 0.41707 0.0
C562 C 0.91979 0.83464 0.45128 0.0
C563 C 0.95475 0.84389 0.41235 0.0
C564 C 0.96753 0.83705 0.38338 0.0
C565 C 0.92989 0.85984 0.46496 0.0
C566 C 0.95363 0.87682 0.45289 0.0
C567 C 0.96548 0.86876 0.42655 0.0
C568 C 0.9667 0.90287 0.46742 0.0
C569 C 0.91467 0.86811 0.49196 0.0
C570 C 0.96956 0.92689 0.45204 0.0
C571 C 0.9823 0.95136 0.46559 0.0
C572 C 0.99231 0.95225 0.49482 0.0
C573 C 0.98957 0.92815 0.51009 0.0
C574 C 0.97716 0.90369 0.49643 0.0
H575 H 0.89197 0.85741 0.49262 0.0
H576 H 0.92621 0.86277 0.51176 0.0
H577 H 0.91435 0.89017 0.49299 0.0
H578 H 0.96181 0.92673 0.42957 0.0
H579 H 0.98415 0.96956 0.4532 0.0
H580 H 0.38759 0.79562 0.66753 0.0
H581 H 0.41362 0.757 0.66146 0.0
H582 H 0.38005 0.74325 0.57294 0.0
H583 H 0.3542 0.78185 0.57891 0.0
H584 H 0.39268 0.7018 0.64598 0.0
H585 H 0.46886 0.75074 0.56396 0.0
H586 H 0.44701 0.76936 0.58669 0.0
H587 H 0.4312 0.75009 0.55504 0.0
C588 C 0.38576 0.78421 0.64686 0.0
C589 C 0.36918 0.79177 0.6236 0.0
C590 C 0.40056 0.76222 0.64341 0.0
C591 C 0.39912 0.74755 0.6166 0.0
C592 C 0.38187 0.75461 0.59363 0.0
H593 H 0.45031 0.59253 0.57403 0.0
H594 H 0.42375 0.62954 0.58642 0.0
C595 C 0.36704 0.77655 0.59709 0.0
C596 C 0.41594 0.72506 0.61247 0.0
H597 H 0.46967 0.70441 0.57166 0.0
C598 C 0.40958 0.70237 0.62981 0.0
C599 C 0.43826 0.72604 0.59166 0.0
C600 C 0.447 0.75045 0.57342 0.0
C601 C 0.42454 0.68033 0.62641 0.0
C602 C 0.44618 0.68093 0.60488 0.0
C603 C 0.45294 0.70389 0.58801 0.0
C604 C 0.46201 0.65794 0.59925 0.0
C605 C 0.41728 0.65673 0.64609 0.0
C606 C 0.49236 0.66166 0.60209 0.0
C607 C 0.50756 0.64058 0.59491 0.0
C608 C 0.49269 0.61547 0.58457 0.0
C609 C 0.4623 0.61163 0.58213 0.0
C610 C 0.44709 0.63272 0.58934 0.0
H611 H 0.40614 0.66235 0.6662 0.0
H612 H 0.40254 0.64038 0.6341 0.0
H613 H 0.43713 0.64869 0.65261 0.0
H614 H 0.50431 0.681 0.60956 0.0
H615 H 0.531 0.64412 0.59689 0.0
H616 H 0.87958 0.91798 0.85219 0.0
H617 H 0.90643 0.93629 0.80986 0.0
H618 H 0.9132 0.85572 0.77839 0.0
H619 H 0.88497 0.83712 0.81988 0.0
H620 H 0.96099 0.93214 0.79259 0.0
H621 H 0.88117 0.88671 0.70673 0.0
H622 H 0.87264 0.88696 0.74517 0.0
H623 H 0.89341 0.8627 0.7302 0.0
C624 C 0.88633 0.90409 0.83604 0.0
C625 C 0.87981 0.87604 0.83933 0.0
C626 C 0.90194 0.91461 0.81199 0.0
C627 C 0.91144 0.89737 0.79072 0.0
C628 C 0.90556 0.8694 0.7942 0.0
H629 H 0.00799 0.93843 0.63012 0.0
H630 H 0.98752 0.91425 0.673 0.0
C631 C 0.88974 0.85881 0.81817 0.0
C632 C 0.92769 0.90888 0.76512 0.0
H633 H 0.92541 0.91081 0.69039 0.0
C634 C 0.95325 0.92741 0.77024 0.0
C635 C 0.91756 0.90266 0.73596 0.0
C636 C 0.88957 0.88387 0.72909 0.0
C637 C 0.96877 0.94009 0.74703 0.0
C638 C 0.95841 0.93415 0.71801 0.0
C639 C 0.93331 0.91515 0.71275 0.0
C640 C 0.97215 0.94885 0.69296 0.0
C641 C 0.99605 0.95991 0.75364 0.0
C642 C 0.97014 0.97618 0.6901 0.0
C643 C 0.98154 0.98989 0.66567 0.0
C644 C 0.99523 0.9765 0.64375 0.0
C645 C 0.99764 0.94922 0.64682 0.0
C646 C 0.98596 0.93541 0.67119 0.0
H647 H 0.0046 0.95781 0.77612 0.0
H648 H 0.01313 0.95717 0.7376 0.0
H649 H 0.99126 0.98074 0.75188 0.0
H650 H 0.95922 0.98677 0.70652 0.0
H651 H 0.97933 0.0109 0.66378 0.0
H652 H 0.69239 0.17981 0.33554 0.0
H653 H 0.66942 0.16165 0.28908 0.0
H654 H 0.75311 0.15308 0.25459 0.0
H655 H 0.77636 0.17154 0.30094 0.0
H656 H 0.71342 0.17805 0.21594 0.0
H657 H 0.66414 0.08015 0.26137 0.0
H658 H 0.65825 0.11001 0.28169 0.0
H659 H 0.69423 0.10197 0.27914 0.0
C660 C 0.70595 0.17429 0.31798 0.0
C661 C 0.7362 0.17706 0.32192 0.0
C662 C 0.69277 0.16378 0.29154 0.0
C663 C 0.70958 0.15589 0.26855 0.0
C664 C 0.73979 0.15901 0.27216 0.0
H665 H 0.65081 0.05372 0.11667 0.0
H666 H 0.67828 0.07695 0.15852 0.0
C667 C 0.753 0.16937 0.29868 0.0
C668 C 0.69551 0.1439 0.24092 0.0
H669 H 0.65115 0.08823 0.21267 0.0
C670 C 0.69982 0.15841 0.21514 0.0
C671 C 0.67802 0.1182 0.24001 0.0
C672 C 0.67345 0.10149 0.26693 0.0
C673 C 0.68666 0.14797 0.18844 0.0
C674 C 0.66877 0.12246 0.18767 0.0
C675 C 0.6648 0.10785 0.2134 0.0
C676 C 0.6541 0.11024 0.16038 0.0
C677 C 0.69225 0.16406 0.1612 0.0
C678 C 0.63166 0.12149 0.14732 0.0
C679 C 0.61585 0.1082 0.12339 0.0
C680 C 0.62228 0.08347 0.11227 0.0
C681 C 0.64542 0.07278 0.12475 0.0
C682 C 0.66109 0.08599 0.14868 0.0
H683 H 0.71095 0.18065 0.16419 0.0
H684 H 0.69649 0.15083 0.14231 0.0
H685 H 0.67276 0.17307 0.15572 0.0
H686 H 0.62568 0.14001 0.15628 0.0
H687 H 0.59802 0.11679 0.11427 0.0
H688 H 0.4061 0.63385 0.25216 0.0
H689 H 0.4185 0.6149 0.29868 0.0
H690 H 0.50932 0.64154 0.28314 0.0
H691 H 0.49692 0.661 0.23706 0.0
H692 H 0.45144 0.57558 0.30853 0.0
H693 H 0.50043 0.67129 0.36575 0.0
H694 H 0.47913 0.67042 0.33241 0.0
H695 H 0.51649 0.66579 0.33099 0.0
C696 C 0.42866 0.63585 0.25894 0.0
C697 C 0.45054 0.64918 0.24135 0.0
C698 C 0.43573 0.62498 0.28537 0.0
C699 C 0.4648 0.62723 0.29462 0.0
C700 C 0.48671 0.64017 0.2768 0.0
H701 H 0.53695 0.53323 0.42444 0.0
H702 H 0.5209 0.55178 0.3794 0.0
C703 C 0.47964 0.65114 0.25044 0.0
C704 C 0.47225 0.61539 0.3225 0.0
H705 H 0.50744 0.6307 0.38829 0.0
C706 C 0.46356 0.58764 0.32605 0.0
C707 C 0.48772 0.63123 0.34547 0.0
C708 C 0.49625 0.66138 0.34366 0.0
C709 C 0.47043 0.57519 0.35172 0.0
C710 C 0.48688 0.59084 0.3742 0.0
C711 C 0.49507 0.61868 0.3709 0.0
C712 C 0.49577 0.57883 0.40143 0.0
C713 C 0.45967 0.54547 0.35471 0.0
C714 C 0.48736 0.58818 0.4288 0.0
C715 C 0.49666 0.57776 0.45461 0.0
C716 C 0.5147 0.55786 0.45357 0.0
C717 C 0.52293 0.54841 0.42608 0.0
C718 C 0.51365 0.55889 0.40026 0.0
H719 H 0.44108 0.53819 0.33958 0.0
H720 H 0.47742 0.53399 0.34921 0.0
H721 H 0.4529 0.54096 0.3775 0.0
H722 H 0.47366 0.60364 0.43018 0.0
H723 H 0.48989 0.58554 0.47537 0.0
H724 H 0.14485 0.34453 0.78993 0.0
H725 H 0.12371 0.36586 0.83162 0.0
H726 H 0.14222 0.44284 0.79092 0.0
H727 H 0.16203 0.42156 0.74867 0.0
H728 H 0.14991 0.40501 0.86962 0.0
H729 H 0.05888 0.44132 0.81309 0.0
H730 H 0.07884 0.41718 0.79614 0.0
H731 H 0.09292 0.4527 0.79623 0.0
C732 C 0.14383 0.3659 0.78955 0.0
C733 C 0.1551 0.38131 0.76588 0.0
C734 C 0.13196 0.37809 0.81352 0.0
C735 C 0.131 0.40588 0.81423 0.0
C736 C 0.14213 0.42128 0.79061 0.0
H737 H 0.0979 0.52857 0.93878 0.0
H738 H 0.11443 0.50138 0.89877 0.0
C739 C 0.15384 0.40911 0.76661 0.0
C740 C 0.11967 0.41914 0.8402 0.0
H741 H 0.07226 0.46122 0.86075 0.0
C742 C 0.13267 0.41701 0.86775 0.0
C743 C 0.09709 0.43471 0.83777 0.0
C744 C 0.08092 0.4364 0.80926 0.0
C745 C 0.12441 0.43085 0.8927 0.0
C746 C 0.10264 0.44717 0.88995 0.0
C747 C 0.08917 0.44884 0.86263 0.0
C748 C 0.09391 0.4632 0.91507 0.0
C749 C 0.13951 0.42866 0.92168 0.0
C750 C 0.07701 0.45062 0.93745 0.0
C751 C 0.06738 0.4661 0.96021 0.0
C752 C 0.07462 0.49437 0.96094 0.0
C753 C 0.09203 0.50683 0.93879 0.0
C754 C 0.10145 0.49137 0.91594 0.0
H755 H 0.15827 0.4177 0.91946 0.0
H756 H 0.14721 0.44906 0.93156 0.0
H757 H 0.12393 0.41773 0.93704 0.0
H758 H 0.07077 0.4289 0.93695 0.0
H759 H 0.05378 0.45599 0.97687 0.0
H760 H 0.77061 0.84288 0.91914 0.0
H761 H 0.73078 0.86485 0.93718 0.0
H762 H 0.78095 0.94276 0.92209 0.0
H763 H 0.82114 0.92108 0.9046 0.0
H764 H 0.73243 0.90446 0.98493 0.0
H765 H 0.70241 0.94264 0.87774 0.0
H766 H 0.7241 0.9161 0.88072 0.0
H767 H 0.74016 0.95062 0.88794 0.0
C768 C 0.7733 0.8647 0.91989 0.0
C769 C 0.79906 0.88021 0.91032 0.0
C770 C 0.75046 0.87719 0.93005 0.0
C771 C 0.75285 0.90537 0.9306 0.0
C772 C 0.77854 0.92095 0.92133 0.0
H773 H 0.64652 0.00735 0.02173 0.0
H774 H 0.68629 0.98535 0.00368 0.0
C775 C 0.80143 0.9085 0.91127 0.0
C776 C 0.72859 0.91852 0.94124 0.0
H777 H 0.67907 0.95739 0.91968 0.0
C778 C 0.72071 0.91601 0.97071 0.0
C779 C 0.71323 0.93332 0.92249 0.0
C780 C 0.72015 0.93573 0.89038 0.0
C781 C 0.69807 0.92832 0.98207 0.0
C782 C 0.68317 0.94366 0.96348 0.0
C783 C 0.69076 0.94581 0.9339 0.0
C784 C 0.65923 0.95721 0.97421 0.0
C785 C 0.68997 0.92453 0.01374 0.0
C786 C 0.631 0.94899 0.96314 0.0
C787 C 0.60821 0.9615 0.97335 0.0
C788 C 0.6133 0.98266 0.99467 0.0
C789 C 0.64177 0.99111 0.00536 0.0
C790 C 0.66453 0.97848 0.99521 0.0
H791 H 0.69924 0.90763 0.02327 0.0
H792 H 0.69841 0.94325 0.02669 0.0
H793 H 0.66604 0.92056 0.01601 0.0
H794 H 0.62654 0.93268 0.94681 0.0
H795 H 0.58662 0.95451 0.96451 0.0
H796 H 0.79103 0.17481 0.44886 0.0
H797 H 0.82762 0.15218 0.47173 0.0
H798 H 0.86392 0.13918 0.38702 0.0
H799 H 0.82833 0.163 0.3641 0.0
H800 H 0.83702 0.1008 0.4636 0.0
H801 H 0.93572 0.17091 0.43385 0.0
H802 H 0.89976 0.17928 0.42996 0.0
H803 H 0.91323 0.15777 0.40292 0.0
C804 C 0.80712 0.16763 0.4351 0.0
C805 C 0.80678 0.17096 0.4046 0.0
C806 C 0.8279 0.15447 0.44821 0.0
C807 C 0.84884 0.14433 0.43119 0.0
C808 C 0.84842 0.14735 0.40072 0.0
H809 H 0.98225 0.04797 0.47768 0.0
H810 H 0.94826 0.07133 0.45081 0.0
C811 C 0.82775 0.16066 0.38759 0.0
C812 C 0.87041 0.12983 0.4453 0.0
H813 H 0.9431 0.1301 0.45544 0.0
C814 C 0.86021 0.10728 0.46186 0.0
C815 C 0.9007 0.13822 0.44298 0.0
C816 C 0.91306 0.16301 0.4267 0.0
C817 C 0.8794 0.09289 0.47605 0.0
C818 C 0.90961 0.10135 0.4738 0.0
C819 C 0.9199 0.12364 0.45698 0.0
C820 C 0.93075 0.08787 0.48979 0.0
C821 C 0.86728 0.06861 0.49324 0.0
C822 C 0.93247 0.08989 0.52049 0.0
C823 C 0.95188 0.07677 0.53579 0.0
C824 C 0.96987 0.0613 0.52067 0.0
C825 C 0.96851 0.05965 0.48987 0.0
C826 C 0.94918 0.07298 0.47453 0.0
H827 H 0.84408 0.06131 0.4877 0.0
H828 H 0.87979 0.05188 0.48912 0.0
H829 H 0.86904 0.07411 0.51701 0.0
H830 H 0.9187 0.10158 0.53262 0.0
H831 H 0.95258 0.07852 0.55951 0.0
H832 H 0.32125 0.66409 0.19098 0.0
H833 H 0.27531 0.6397 0.1709 0.0
H834 H 0.30951 0.64655 0.08355 0.0
H835 H 0.35514 0.67167 0.10351 0.0
H836 H 0.25628 0.65784 0.08439 0.0
H837 H 0.25762 0.56274 0.14194 0.0
H838 H 0.25988 0.59131 0.1669 0.0
H839 H 0.28873 0.58907 0.14155 0.0
C840 C 0.31896 0.66019 0.16752 0.0
C841 C 0.34171 0.66964 0.14877 0.0
C842 C 0.29279 0.64615 0.15608 0.0
C843 C 0.28916 0.64079 0.12576 0.0
C844 C 0.31186 0.65035 0.10702 0.0
H845 H 0.14797 0.5247 0.04895 0.0
H846 H 0.19521 0.54883 0.06574 0.0
C847 C 0.33787 0.66472 0.11841 0.0
C848 C 0.26142 0.62592 0.11344 0.0
H849 H 0.21299 0.56782 0.11855 0.0
C850 C 0.24691 0.63807 0.09172 0.0
C851 C 0.24942 0.59993 0.12264 0.0
C852 C 0.26488 0.58488 0.14431 0.0
C853 C 0.22051 0.62517 0.0793 0.0
C854 C 0.2078 0.59978 0.08957 0.0
C855 C 0.22256 0.58742 0.11091 0.0
C856 C 0.17925 0.5856 0.07848 0.0
C857 C 0.20687 0.63869 0.05492 0.0
C858 C 0.15453 0.59816 0.0802 0.0
C859 C 0.12759 0.58456 0.07023 0.0
C860 C 0.12475 0.55789 0.05895 0.0
C861 C 0.14945 0.54522 0.05756 0.0
C862 C 0.17646 0.55898 0.06716 0.0
H863 H 0.22328 0.65304 0.04352 0.0
H864 H 0.19574 0.62367 0.03848 0.0
H865 H 0.19066 0.65033 0.06428 0.0
H866 H 0.15595 0.61838 0.08965 0.0
H867 H 0.1089 0.59476 0.07196 0.0
H868 H 0.29809 0.42829 0.7199 0.0
H869 H 0.33631 0.4521 0.68953 0.0
H870 H 0.31118 0.39412 0.61848 0.0
H871 H 0.27286 0.3703 0.64883 0.0
H872 H 0.38229 0.42844 0.66496 0.0
H873 H 0.31657 0.46777 0.57914 0.0
H874 H 0.30185 0.45673 0.61394 0.0
H875 H 0.30683 0.4324 0.58553 0.0
C876 C 0.30066 0.42079 0.69773 0.0
C877 C 0.28277 0.39742 0.68665 0.0
C878 C 0.32239 0.43439 0.68043 0.0
C879 C 0.32632 0.42503 0.65168 0.0
C880 C 0.30816 0.40193 0.64043 0.0
H881 H 0.45517 0.46384 0.51853 0.0
H882 H 0.41157 0.44715 0.54608 0.0
C883 C 0.28648 0.38827 0.65777 0.0
C884 C 0.3507 0.43835 0.63422 0.0
H885 H 0.36719 0.47149 0.57093 0.0
C886 C 0.37903 0.43806 0.64452 0.0
C887 C 0.34629 0.45066 0.60748 0.0
C888 C 0.31625 0.45218 0.5959 0.0
C889 C 0.40316 0.44926 0.62849 0.0
C890 C 0.3988 0.46167 0.60175 0.0
C891 C 0.37044 0.46205 0.59147 0.0
C892 C 0.42355 0.47378 0.58395 0.0
C893 C 0.43308 0.44694 0.63991 0.0
C894 C 0.44416 0.49492 0.5957 0.0
C895 C 0.46911 0.5043 0.58015 0.0
C896 C 0.47367 0.49293 0.55241 0.0
C897 C 0.45223 0.47287 0.53993 0.0
C898 C 0.42734 0.46335 0.55561 0.0
H899 H 0.43242 0.43098 0.65629 0.0
H900 H 0.44739 0.44239 0.62178 0.0
H901 H 0.4429 0.46638 0.65077 0.0
H902 H 0.44131 0.50367 0.61726 0.0
H903 H 0.48519 0.51994 0.59019 0.0
H904 H 0.83892 0.75731 0.95888 0.0
H905 H 0.8676 0.72496 0.97883 0.0
H906 H 0.92358 0.73482 0.9041 0.0
H907 H 0.89511 0.76737 0.88433 0.0
H908 H 0.87727 0.67618 0.95207 0.0
H909 H 0.98077 0.74547 0.97379 0.0
H910 H 0.94688 0.75743 0.96729 0.0
H911 H 0.9668 0.7462 0.93708 0.0
C912 C 0.85736 0.7525 0.9468 0.0
C913 C 0.86464 0.76437 0.9199 0.0
C914 C 0.87372 0.73413 0.95819 0.0
C915 C 0.89785 0.72772 0.94307 0.0
C916 C 0.90532 0.73982 0.91633 0.0
H917 H 0.018 0.61549 0.96141 0.0
H918 H 0.99087 0.65099 0.94701 0.0
C919 C 0.88896 0.75817 0.90495 0.0
C920 C 0.91451 0.70753 0.95465 0.0
H921 H 0.98219 0.6985 0.97691 0.0
C922 C 0.90015 0.68107 0.95776 0.0
C923 C 0.94436 0.71403 0.96195 0.0
C924 C 0.9606 0.74238 0.96014 0.0
C925 C 0.91504 0.66069 0.96722 0.0
C926 C 0.94496 0.66713 0.97429 0.0
C927 C 0.95925 0.69366 0.97147 0.0
C928 C 0.96197 0.64641 0.98387 0.0
C929 C 0.89882 0.63229 0.96867 0.0
C930 C 0.95506 0.6325 0.00968 0.0
C931 C 0.97045 0.61217 0.01787 0.0
C932 C 0.99313 0.60564 1.00049 0.0
C933 C 1.00057 0.62011 0.97515 0.0
C934 C 0.98512 0.64038 0.96692 0.0
H935 H 0.87814 0.62952 0.95586 0.0
H936 H 0.91222 0.61742 0.9603 0.0
H937 H 0.89357 0.62783 0.99183 0.0
H938 H 0.93764 0.63724 0.02337 0.0
H939 H 0.96443 0.6014 0.03763 0.0
H940 H 0.43556 0.76894 0.18919 0.0
H941 H 0.45588 0.81215 0.1688 0.0
H942 H 0.4293 0.78107 0.08196 0.0
H943 H 0.40961 0.73742 0.10196 0.0
H944 H 0.49986 0.81958 0.12036 0.0
H945 H 0.39495 0.85421 0.09548 0.0
H946 H 0.39797 0.82923 0.12247 0.0
H947 H 0.39911 0.82037 0.0842 0.0
C948 C 0.43431 0.77111 0.1657 0.0
C949 C 0.42093 0.74965 0.14723 0.0
C950 C 0.44574 0.79589 0.15414 0.0
C951 C 0.44378 0.79979 0.12397 0.0
C952 C 0.43062 0.7785 0.10538 0.0
H953 H 0.50017 0.95015 0.03224 0.0
H954 H 0.47789 0.90373 0.04262 0.0
C955 C 0.41932 0.75362 0.11689 0.0
C956 C 0.45613 0.82607 0.11206 0.0
H957 H 0.43774 0.8838 0.08522 0.0
C958 C 0.48633 0.83358 0.11249 0.0
C959 C 0.43835 0.84406 0.10153 0.0
C960 C 0.40576 0.8368 0.1009 0.0
C961 C 0.49929 0.85892 0.10314 0.0
C962 C 0.4815 0.87746 0.09386 0.0
C963 C 0.45129 0.86959 0.09246 0.0
C964 C 0.49386 0.90565 0.08747 0.0
C965 C 0.53196 0.86561 0.10334 0.0
C966 C 0.50944 0.92224 0.10943 0.0
C967 C 0.52218 0.94848 0.10351 0.0
C968 C 0.51931 0.95876 0.0756 0.0
C969 C 0.50283 0.94256 0.05385 0.0
C970 C 0.49012 0.91614 0.05977 0.0
H971 H 0.5421 0.84706 0.10195 0.0
H972 H 0.5397 0.87854 0.08484 0.0
H973 H 0.53947 0.87665 0.12416 0.0
H974 H 0.51194 0.91479 0.13117 0.0
H975 H 0.53455 0.96063 0.12075 0.0
H976 H 0.11581 0.31072 0.68989 0.0
H977 H 0.0975 0.26617 0.66759 0.0
H978 H 0.18298 0.24452 0.67464 0.0
H979 H 0.20146 0.28921 0.69623 0.0
H980 H 0.16033 0.23147 0.62173 0.0
H981 H 0.07902 0.19405 0.7043 0.0
H982 H 0.07315 0.22549 0.68972 0.0
H983 H 0.10561 0.22393 0.71078 0.0
C984 C 0.13055 0.29629 0.68701 0.0
C985 C 0.16003 0.30339 0.69478 0.0
C986 C 0.12007 0.27081 0.67438 0.0
C987 C 0.13876 0.2518 0.66983 0.0
C988 C 0.16814 0.25881 0.67794 0.0
H989 H 0.08172 0.08203 0.62336 0.0
H990 H 0.10166 0.125 0.64804 0.0
C991 C 0.17868 0.28435 0.69024 0.0
C992 C 0.12816 0.2251 0.65532 0.0
H993 H 0.07704 0.16865 0.65906 0.0
C994 C 0.14222 0.21766 0.63001 0.0
C995 C 0.1048 0.20691 0.66633 0.0
C996 C 0.08996 0.21284 0.69444 0.0
C997 C 0.13334 0.19276 0.61518 0.0
C998 C 0.10916 0.17509 0.62544 0.0
C999 C 0.09538 0.18232 0.65101 0.0
C1000 C 0.09785 0.14896 0.61006 0.0
C1001 C 0.15037 0.18548 0.58902 0.0
C1002 C 0.08895 0.14811 0.58051 0.0
C1003 C 0.07788 0.12354 0.56624 0.0
C1004 C 0.075 0.09935 0.58138 0.0
C1005 C 0.0837 0.10027 0.61104 0.0
C1006 C 0.09505 0.12483 0.6252 0.0
H1007 H 0.17281 0.19689 0.58963 0.0
H1008 H 0.15155 0.16358 0.58789 0.0
H1009 H 0.13959 0.19066 0.56868 0.0
H1010 H 0.09015 0.16651 0.56857 0.0
H1011 H 0.07104 0.1236 0.5435 0.0
H1012 H 0.70148 0.25653 0.4759 0.0
H1013 H 0.68014 0.29745 0.48477 0.0
H1014 H 0.69498 0.31882 0.39479 0.0
H1015 H 0.71548 0.2774 0.38563 0.0
H1016 H 0.70205 0.35037 0.48074 0.0
H1017 H 0.60969 0.32232 0.4024 0.0
H1018 H 0.6329 0.29874 0.41306 0.0
H1019 H 0.64454 0.32322 0.38598 0.0
C1020 C 0.70041 0.27011 0.45811 0.0
C1021 C 0.71065 0.26409 0.43025 0.0
C1022 C 0.68819 0.29345 0.46317 0.0
C1023 C 0.68568 0.3111 0.44039 0.0
C1024 C 0.69623 0.30529 0.41259 0.0
H1025 H 0.64013 0.47222 0.47585 0.0
H1026 H 0.66601 0.43529 0.46086 0.0
C1027 C 0.70825 0.28181 0.40746 0.0
C1028 C 0.67177 0.33537 0.44588 0.0
H1029 H 0.61497 0.36596 0.42483 0.0
C1030 C 0.68305 0.35384 0.46847 0.0
C1031 C 0.64675 0.33968 0.4301 0.0
C1032 C 0.63255 0.31984 0.40672 0.0
C1033 C 0.66991 0.37637 0.47586 0.0
C1034 C 0.64522 0.38095 0.45971 0.0
C1035 C 0.63407 0.36259 0.43698 0.0
C1036 C 0.6295 0.40369 0.4672 0.0
C1037 C 0.682 0.39445 0.5016 0.0
C1038 C 0.60011 0.39833 0.47462 0.0
C1039 C 0.58525 0.41937 0.48272 0.0
C1040 C 0.59949 0.44619 0.48361 0.0
C1041 C 0.62871 0.45168 0.47552 0.0
C1042 C 0.64355 0.4306 0.46718 0.0
H1043 H 0.69597 0.38439 0.51606 0.0
H1044 H 0.69542 0.41285 0.49341 0.0
H1045 H 0.66431 0.40072 0.51491 0.0
H1046 H 0.58878 0.37777 0.4747 0.0
H1047 H 0.56272 0.41456 0.48883 0.0
loop_
_geom_bond_atom_site_label_1
_geom_bond_atom_site_label_2
_geom_bond_distance
_geom_bond_site_symmetry_2
_ccdc_geom_bond_type
H0 C7 0.929 . S
H1 C10 0.930 . S
H2 C12 0.929 . S
H3 C4 0.969 . S
C4 H3 0.969 . S
C4 O5 1.550 . S
C4 H6 0.973 . S
O5 C4 1.550 . S
O5 C11 1.412 . S
H6 C4 0.973 . S
C7 H0 0.929 . S
C7 C8 1.400 . S
C7 C9 1.364 . S
C8 C7 1.400 . S
C8 C12 1.377 . S
C9 C7 1.364 . S
C9 C10 1.374 . S
C10 H1 0.930 . S
C10 C9 1.374 . S
C10 C11 1.383 . S
C11 O5 1.412 . S
C11 C10 1.383 . S
C11 C12 1.394 . S
C12 H2 0.929 . S
C12 C8 1.377 . S
C12 C11 1.394 . S
H13 C20 0.929 . S
H14 C23 0.930 . S
H15 C25 0.929 . S
H16 C17 0.969 . S
C17 H16 0.969 . S
C17 O18 1.550 . S
C17 H19 0.973 . S
O18 C17 1.550 . S
O18 C24 1.412 . S
H19 C17 0.973 . S
C20 H13 0.929 . S
C20 C21 1.400 . S
C20 C22 1.364 . S
C21 C20 1.400 . S
C21 C25 1.377 . S
C22 C20 1.364 . S
C22 C23 1.374 . S
C23 H14 0.930 . S
C23 C22 1.374 . S
C23 C24 1.383 . S
C24 O18 1.412 . S
C24 C23 1.383 . S
C24 C25 1.394 . S
C25 H15 0.929 . S
C25 C21 1.377 . S
C25 C24 1.394 . S
H26 C33 0.929 . S
H27 C36 0.930 . S
H28 C38 0.929 . S
H29 C30 0.969 . S
C30 H29 0.969 . S
C30 O31 1.550 . S
C30 H32 0.973 . S
O31 C30 1.550 . S
O31 C37 1.412 . S
H32 C30 0.973 . S
C33 H26 0.929 . S
C33 C34 1.400 . S
C33 C35 1.364 . S
C34 C33 1.400 . S
C34 C38 1.377 . S
C35 C33 1.364 . S
C35 C36 1.374 . S
C36 H27 0.930 . S
C36 C35 1.374 . S
C36 C37 1.383 . S
C37 O31 1.412 . S
C37 C36 1.383 . S
C37 C38 1.394 . S
C38 H28 0.929 . S
C38 C34 1.377 . S
C38 C37 1.394 . S
H39 C46 0.929 . S
H40 C49 0.930 . S
H41 C51 0.929 . S
H42 C43 0.969 . S
C43 H42 0.969 . S
C43 O44 1.550 . S
C43 H45 0.973 . S
O44 C43 1.550 . S
O44 C50 1.412 . S
H45 C43 0.973 . S
C46 H39 0.929 . S
C46 C47 1.400 . S
C46 C48 1.364 . S
C47 C46 1.400 . S
C47 C51 1.377 . S
C48 C46 1.364 . S
C48 C49 1.374 . S
C49 H40 0.930 . S
C49 C48 1.374 . S
C49 C50 1.383 . S
C50 O44 1.412 . S
C50 C49 1.383 . S
C50 C51 1.394 . S
C51 H41 0.929 . S
C51 C47 1.377 . S
C51 C50 1.394 . S
H52 C59 0.929 . S
H53 C62 0.930 . S
H54 C64 0.929 . S
H55 C56 0.969 . S
C56 H55 0.969 . S
C56 O57 1.550 . S
C56 H58 0.973 . S
O57 C56 1.550 . S
O57 C63 1.412 . S
H58 C56 0.973 . S
C59 H52 0.929 . S
C59 C60 1.400 . S
C59 C61 1.364 . S
C60 C59 1.400 . S
C60 C64 1.377 . S
C61 C59 1.364 . S
C61 C62 1.374 . S
C62 H53 0.930 . S
C62 C61 1.374 . S
C62 C63 1.383 . S
C63 O57 1.412 . S
C63 C62 1.383 . S
C63 C64 1.394 . S
C64 H54 0.929 . S
C64 C60 1.377 . S
C64 C63 1.394 . S
H65 C72 0.929 . S
H66 C75 0.930 . S
H67 C77 0.929 . S
H68 C69 0.969 . S
C69 H68 0.969 . S
C69 O70 1.550 . S
C69 H71 0.973 . S
O70 C69 1.550 . S
O70 C76 1.412 . S
H71 C69 0.973 . S
C72 H65 0.929 . S
C72 C73 1.400 . S
C72 C74 1.364 . S
C73 C72 1.400 . S
C73 C77 1.377 . S
C74 C72 1.364 . S
C74 C75 1.374 . S
C75 H66 0.930 . S
C75 C74 1.374 . S
C75 C76 1.383 . S
C76 O70 1.412 . S
C76 C75 1.383 . S
C76 C77 1.394 . S
C77 H67 0.929 . S
C77 C73 1.377 . S
C77 C76 1.394 . S
H78 C85 0.929 . S
H79 C88 0.930 . S
H80 C90 0.929 . S
H81 C82 0.969 . S
C82 H81 0.969 . S
C82 O83 1.550 . S
C82 H84 0.973 . S
O83 C82 1.550 . S
O83 C89 1.412 . S
H84 C82 0.973 . S
C85 H78 0.929 . S
C85 C86 1.400 . S
C85 C87 1.364 . S
C86 C85 1.400 . S
C86 C90 1.377 . S
C87 C85 1.364 . S
C87 C88 1.374 . S
C88 H79 0.930 . S
C88 C87 1.374 . S
C88 C89 1.383 . S
C89 O83 1.412 . S
C89 C88 1.383 . S
C89 C90 1.394 . S
C90 H80 0.929 . S
C90 C86 1.377 . S
C90 C89 1.394 . S
H91 C98 0.929 . S
H92 C101 0.930 . S
H93 C103 0.929 . S
H94 C95 0.969 . S
C95 H94 0.969 . S
C95 O96 1.550 . S
C95 H97 0.973 . S
O96 C95 1.550 . S
O96 C102 1.412 . S
H97 C95 0.973 . S
C98 H91 0.929 . S
C98 C99 1.400 . S
C98 C100 1.364 . S
C99 C98 1.400 . S
C99 C103 1.377 . S
C100 C98 1.364 . S
C100 C101 1.374 . S
C101 H92 0.930 . S
C101 C100 1.374 . S
C101 C102 1.383 . S
C102 O96 1.412 . S
C102 C101 1.383 . S
C102 C103 1.394 . S
C103 H93 0.929 . S
C103 C99 1.377 . S
C103 C102 1.394 . S
Dy104 O108 2.398 . S
Dy104 O109 2.491 . S
Dy104 O110 2.403 . S
Dy104 O111 2.664 . S
Dy104 O115 2.326 . S
Dy104 O119 2.306 . S
Dy104 O120 2.351 1_545 S
C105 O116 1.185 . S
C105 O117 1.355 . S
C106 O108 1.185 . S
C106 O109 1.355 . S
Dy107 O111 2.309 . S
Dy107 O114 2.351 . S
Dy107 O116 2.398 1_445 S
Dy107 O117 2.491 1_445 S
Dy107 O118 2.404 1_455 S
Dy107 O119 2.664 . S
Dy107 O121 2.326 1_445 S
O108 Dy104 2.398 . S
O108 C106 1.185 . S
O109 Dy104 2.491 . S
O109 C106 1.355 . S
O110 Dy104 2.403 . S
O110 C112 1.254 . S
O111 Dy104 2.664 . S
O111 Dy107 2.309 . S
O111 C112 1.268 . S
C112 O110 1.254 . S
C112 O111 1.268 . S
C113 O118 1.254 . S
C113 O119 1.272 1_655 S
O114 Dy107 2.351 . S
O114 C122 1.249 . S
O115 Dy104 2.326 . S
O115 C122 1.267 . S
O116 C105 1.185 . S
O116 Dy107 2.398 1_665 S
O117 C105 1.355 . S
O117 Dy107 2.491 1_665 S
O118 Dy107 2.404 1_655 S
O118 C113 1.254 . S
O119 Dy104 2.306 . S
O119 Dy107 2.664 . S
O119 C113 1.272 1_455 S
O120 Dy104 2.351 1_565 S
O120 C123 1.249 1_455 S
O121 Dy107 2.326 1_665 S
O121 C123 1.267 . S
C122 O114 1.249 . S
C122 O115 1.267 . S
C123 O120 1.249 1_655 S
C123 O121 1.267 . S
Dy124 O128 2.398 . S
Dy124 O129 2.491 . S
Dy124 O130 2.403 1_545 S
Dy124 O131 2.664 1_545 S
Dy124 O135 2.326 . S
Dy124 O139 2.310 . S
Dy124 O140 2.367 . S
C125 O136 1.185 1_565 S
C125 O137 1.355 . S
C126 O128 1.185 . S
C126 O129 1.355 . S
Dy127 O131 2.310 1_546 S
Dy127 O134 2.351 1_556 S
Dy127 O136 2.398 . S
Dy127 O137 2.491 1_545 S
Dy127 O138 2.403 . S
Dy127 O139 2.664 1_556 S
Dy127 O141 2.326 . S
O128 Dy124 2.398 . S
O128 C126 1.185 . S
O129 Dy124 2.491 . S
O129 C126 1.355 . S
O130 Dy124 2.403 1_565 S
O130 C132 1.254 . S
O131 Dy124 2.664 1_565 S
O131 Dy127 2.310 1_564 S
O131 C132 1.268 . S
C132 O130 1.254 . S
C132 O131 1.268 . S
C133 O138 1.254 . S
C133 O139 1.268 1_556 S
O134 Dy127 2.351 1_554 S
O134 C142 1.249 . S
O135 Dy124 2.326 . S
O135 C142 1.267 . S
O136 C125 1.185 1_545 S
O136 Dy127 2.398 . S
O137 C125 1.355 . S
O137 Dy127 2.491 1_565 S
O138 Dy127 2.403 . S
O138 C133 1.254 . S
O139 Dy124 2.310 . S
O139 Dy127 2.664 1_554 S
O139 C133 1.268 1_554 S
O140 Dy124 2.367 . S
O140 C143 1.246 1_544 S
O141 Dy127 2.326 . S
O141 C143 1.267 1_545 S
C142 O134 1.249 . S
C142 O135 1.267 . S
C143 O140 1.246 1_566 S
C143 O141 1.267 1_565 S
Dy144 O148 2.398 . S
Dy144 O149 2.491 . S
Dy144 O150 2.403 . S
Dy144 O151 2.664 . S
Dy144 O155 2.326 . S
Dy144 O159 2.310 . S
Dy144 O160 2.351 . S
C145 O156 1.185 . S
C145 O157 1.355 . S
C146 O148 1.185 . S
C146 O149 1.355 . S
Dy147 O151 2.310 . S
Dy147 O154 2.351 . S
Dy147 O156 2.398 . S
Dy147 O157 2.491 . S
Dy147 O158 2.403 . S
Dy147 O159 2.664 . S
Dy147 O161 2.326 . S
O148 Dy144 2.398 . S
O148 C146 1.185 . S
O149 Dy144 2.491 . S
O149 C146 1.355 . S
O150 Dy144 2.403 . S
O150 C152 1.254 . S
O151 Dy144 2.664 . S
O151 Dy147 2.310 . S
O151 C152 1.268 . S
C152 O150 1.254 . S
C152 O151 1.268 . S
C153 O158 1.254 . S
C153 O159 1.268 . S
O154 Dy147 2.351 . S
O154 C162 1.249 . S
O155 Dy144 2.326 . S
O155 C162 1.267 . S
O156 C145 1.185 . S
O156 Dy147 2.398 . S
O157 C145 1.355 . S
O157 Dy147 2.491 . S
O158 Dy147 2.403 . S
O158 C153 1.254 . S
O159 Dy144 2.310 . S
O159 Dy147 2.664 . S
O159 C153 1.268 . S
O160 Dy144 2.351 . S
O160 C163 1.249 . S
O161 Dy147 2.326 . S
O161 C163 1.267 . S
C162 O154 1.249 . S
C162 O155 1.267 . S
C163 O160 1.249 . S
C163 O161 1.267 . S
Dy164 O168 2.398 . S
Dy164 O169 2.491 . S
Dy164 O170 2.403 . S
Dy164 O171 2.664 . S
Dy164 O175 2.326 . S
Dy164 O179 2.310 . S
Dy164 O180 2.351 1_455 S
C165 O176 1.185 1_655 S
C165 O177 1.355 1_556 S
C166 O168 1.185 . S
C166 O169 1.355 . S
Dy167 O171 2.310 . S
Dy167 O174 2.351 . S
Dy167 O176 2.398 1_554 S
Dy167 O177 2.491 1_455 S
Dy167 O178 2.403 1_554 S
Dy167 O179 2.664 . S
Dy167 O181 2.326 1_455 S
O168 Dy164 2.398 . S
O168 C166 1.185 . S
O169 Dy164 2.491 . S
O169 C166 1.355 . S
O170 Dy164 2.403 . S
O170 C172 1.254 . S
O171 Dy164 2.664 . S
O171 Dy167 2.310 . S
O171 C172 1.268 . S
C172 O170 1.254 . S
C172 O171 1.268 . S
C173 O178 1.254 . S
C173 O179 1.268 1_556 S
O174 Dy167 2.351 . S
O174 C182 1.249 . S
O175 Dy164 2.326 . S
O175 C182 1.267 . S
O176 C165 1.185 1_455 S
O176 Dy167 2.398 1_556 S
O177 C165 1.355 1_554 S
O177 Dy167 2.491 1_655 S
O178 Dy167 2.403 1_556 S
O178 C173 1.254 . S
O179 Dy164 2.310 . S
O179 Dy167 2.664 . S
O179 C173 1.268 1_554 S
O180 Dy164 2.351 1_655 S
O180 C183 1.249 . S
O181 Dy167 2.326 1_655 S
O181 C183 1.267 . S
C182 O174 1.249 . S
C182 O175 1.267 . S
C183 O180 1.249 . S
C183 O181 1.267 . S
H184 C192 0.929 . S
H185 C194 0.930 . S
H186 C196 0.930 . S
H187 C199 0.929 . S
H188 C202 0.930 . S
H189 C204 0.960 . S
H190 C204 0.960 . S
H191 C204 0.960 . S
C192 H184 0.929 . S
C192 C193 1.377 . S
C192 C194 1.384 . S
C193 C192 1.377 . S
C193 C199 1.390 . S
C194 H185 0.930 . S
C194 C192 1.384 . S
C194 C195 1.372 . S
C195 C194 1.372 . S
C195 C196 1.400 . S
C195 C200 1.490 . S
C196 H186 0.930 . S
C196 C195 1.400 . S
C196 C199 1.386 . S
H197 C213 0.930 . S
H198 C214 0.931 . S
C199 H187 0.929 . S
C199 C193 1.390 . S
C199 C196 1.386 . S
C200 C195 1.490 . S
C200 C202 1.395 . S
C200 C203 1.403 . S
H201 C207 0.930 . S
C202 H188 0.930 . S
C202 C200 1.395 . S
C202 C205 1.403 . S
C203 C200 1.403 . S
C203 C204 1.524 . S
C203 C207 1.400 . S
C204 H189 0.960 . S
C204 H190 0.960 . S
C204 H191 0.960 . S
C204 C203 1.524 . S
C205 C202 1.403 . S
C205 C206 1.392 . S
C205 C209 1.495 . S
C206 C205 1.392 . S
C206 C207 1.385 . S
C206 C208 1.478 . S
C207 H201 0.930 . S
C207 C203 1.400 . S
C207 C206 1.385 . S
C208 C206 1.478 . S
C208 C210 1.381 . S
C208 C214 1.383 . S
C209 C205 1.495 . S
C209 H215 0.959 . S
C209 H216 0.961 . S
C209 H217 0.960 . S
C210 C208 1.381 . S
C210 C211 1.394 . S
C210 H218 0.930 . S
C211 C210 1.394 . S
C211 C212 1.383 . S
C211 H219 0.929 . S
C212 C211 1.383 . S
C212 C213 1.377 . S
C213 H197 0.930 . S
C213 C212 1.377 . S
C213 C214 1.379 . S
C214 H198 0.931 . S
C214 C208 1.383 . S
C214 C213 1.379 . S
H215 C209 0.959 . S
H216 C209 0.961 . S
H217 C209 0.960 . S
H218 C210 0.930 . S
H219 C211 0.929 . S
H220 C228 0.929 . S
H221 C230 0.930 . S
H222 C232 0.930 . S
H223 C235 0.929 . S
H224 C238 0.930 . S
H225 C240 0.960 . S
H226 C240 0.960 . S
H227 C240 0.960 . S
C228 H220 0.929 . S
C228 C229 1.377 . S
C228 C230 1.384 . S
C229 C228 1.377 . S
C229 C235 1.390 . S
C230 H221 0.930 . S
C230 C228 1.384 . S
C230 C231 1.372 . S
C231 C230 1.372 . S
C231 C232 1.400 . S
C231 C236 1.490 . S
C232 H222 0.930 . S
C232 C231 1.400 . S
C232 C235 1.386 . S
H233 C249 0.930 . S
H234 C250 0.931 . S
C235 H223 0.929 . S
C235 C229 1.390 . S
C235 C232 1.386 . S
C236 C231 1.490 . S
C236 C238 1.395 . S
C236 C239 1.403 . S
H237 C243 0.930 . S
C238 H224 0.930 . S
C238 C236 1.395 . S
C238 C241 1.403 . S
C239 C236 1.403 . S
C239 C240 1.524 . S
C239 C243 1.400 . S
C240 H225 0.960 . S
C240 H226 0.960 . S
C240 H227 0.960 . S
C240 C239 1.524 . S
C241 C238 1.403 . S
C241 C242 1.392 . S
C241 C245 1.495 . S
C242 C241 1.392 . S
C242 C243 1.385 . S
C242 C244 1.478 . S
C243 H237 0.930 . S
C243 C239 1.400 . S
C243 C242 1.385 . S
C244 C242 1.478 . S
C244 C246 1.381 . S
C244 C250 1.383 . S
C245 C241 1.495 . S
C245 H251 0.959 . S
C245 H252 0.961 . S
C245 H253 0.960 1_565 S
C246 C244 1.381 . S
C246 C247 1.394 . S
C246 H254 0.904 1_565 S
C247 C246 1.394 . S
C247 C248 1.383 . S
C247 H255 0.929 1_565 S
C248 C247 1.383 . S
C248 C249 1.377 . S
C249 H233 0.930 . S
C249 C248 1.377 . S
C249 C250 1.379 . S
C250 H234 0.931 . S
C250 C244 1.383 . S
C250 C249 1.379 . S
H251 C245 0.959 . S
H252 C245 0.961 . S
H253 C245 0.960 1_545 S
H254 C246 0.904 1_545 S
H255 C247 0.929 1_545 S
H256 C264 0.929 . S
H257 C266 0.930 . S
H258 C268 0.930 . S
H259 C271 0.929 . S
H260 C274 0.930 . S
H261 C276 0.960 . S
H262 C276 0.960 . S
H263 C276 0.960 . S
C264 H256 0.929 . S
C264 C265 1.377 . S
C264 C266 1.384 . S
C265 C264 1.377 . S
C265 C271 1.390 . S
C266 H257 0.930 . S
C266 C264 1.384 . S
C266 C267 1.372 . S
C267 C266 1.372 . S
C267 C268 1.400 . S
C267 C272 1.490 . S
C268 H258 0.930 . S
C268 C267 1.400 . S
C268 C271 1.386 . S
H269 C285 0.930 . S
H270 C286 0.931 . S
C271 H259 0.929 . S
C271 C265 1.390 . S
C271 C268 1.386 . S
C272 C267 1.490 . S
C272 C274 1.395 . S
C272 C275 1.403 . S
H273 C279 0.930 . S
C274 H260 0.930 . S
C274 C272 1.395 . S
C274 C277 1.403 . S
C275 C272 1.403 . S
C275 C276 1.524 . S
C275 C279 1.400 . S
C276 H261 0.960 . S
C276 H262 0.960 . S
C276 H263 0.960 . S
C276 C275 1.524 . S
C277 C274 1.403 . S
C277 C278 1.392 . S
C277 C281 1.495 . S
C278 C277 1.392 . S
C278 C279 1.385 . S
C278 C280 1.478 . S
C279 H273 0.930 . S
C279 C275 1.400 . S
C279 C278 1.385 . S
C280 C278 1.478 . S
C280 C282 1.381 . S
C280 C286 1.383 . S
C281 C277 1.495 . S
C281 H287 0.959 . S
C281 H288 0.961 . S
C281 H289 0.960 . S
C282 C280 1.381 . S
C282 C283 1.394 . S
C282 H290 0.930 . S
C283 C282 1.394 . S
C283 C284 1.383 . S
C283 H291 0.929 . S
C284 C283 1.383 . S
C284 C285 1.377 . S
C285 H269 0.930 . S
C285 C284 1.377 . S
C285 C286 1.379 . S
C286 H270 0.931 . S
C286 C280 1.383 . S
C286 C285 1.379 . S
H287 C281 0.959 . S
H288 C281 0.961 . S
H289 C281 0.960 . S
H290 C282 0.930 . S
H291 C283 0.929 . S
H292 C300 0.929 . S
H293 C302 0.930 . S
H294 C304 0.930 . S
H295 C307 0.929 . S
H296 C310 0.930 . S
H297 C312 0.960 . S
H298 C312 0.960 . S
H299 C312 0.960 . S
C300 H292 0.929 . S
C300 C301 1.377 . S
C300 C302 1.384 . S
C301 C300 1.377 . S
C301 C307 1.390 . S
C302 H293 0.930 . S
C302 C300 1.384 . S
C302 C303 1.372 . S
C303 C302 1.372 . S
C303 C304 1.400 . S
C303 C308 1.490 . S
C304 H294 0.930 . S
C304 C303 1.400 . S
C304 C307 1.386 . S
H305 C321 0.930 . S
H306 C322 0.931 . S
C307 H295 0.929 . S
C307 C301 1.390 . S
C307 C304 1.386 . S
C308 C303 1.490 . S
C308 C310 1.395 . S
C308 C311 1.403 . S
H309 C315 0.930 . S
C310 H296 0.930 . S
C310 C308 1.395 . S
C310 C313 1.403 . S
C311 C308 1.403 . S
C311 C312 1.524 . S
C311 C315 1.400 . S
C312 H297 0.960 . S
C312 H298 0.960 . S
C312 H299 0.960 . S
C312 C311 1.524 . S
C313 C310 1.403 . S
C313 C314 1.392 . S
C313 C317 1.495 1_655 S
C314 C313 1.392 . S
C314 C315 1.385 . S
C314 C316 1.478 . S
C315 H309 0.930 . S
C315 C311 1.400 . S
C315 C314 1.385 . S
C316 C314 1.478 . S
C316 C318 1.381 1_655 S
C316 C322 1.383 . S
C317 C313 1.495 1_455 S
C317 H323 0.959 . S
C317 H324 0.961 1_455 S
C317 H325 0.960 . S
C318 C316 1.381 1_455 S
C318 C319 1.394 . S
C318 H326 0.930 . S
C319 C318 1.394 . S
C319 C320 1.366 1_455 S
C319 H327 0.929 . S
C320 C319 1.366 1_655 S
C320 C321 1.405 . S
C321 H305 0.930 . S
C321 C320 1.405 . S
C321 C322 1.379 . S
C322 H306 0.931 . S
C322 C316 1.383 . S
C322 C321 1.379 . S
H323 C317 0.959 . S
H324 C317 0.961 1_655 S
H325 C317 0.960 . S
H326 C318 0.930 . S
H327 C319 0.929 . S
H328 C336 0.929 . S
H329 C338 0.930 . S
H330 C340 0.930 . S
H331 C343 0.929 . S
H332 C346 0.930 . S
H333 C348 0.960 . S
H334 C348 0.960 . S
H335 C348 0.960 . S
C336 H328 0.929 . S
C336 C337 1.377 . S
C336 C338 1.384 . S
C337 C336 1.377 . S
C337 C343 1.390 . S
C338 H329 0.930 . S
C338 C336 1.384 . S
C338 C339 1.372 . S
C339 C338 1.372 . S
C339 C340 1.400 . S
C339 C344 1.490 . S
C340 H330 0.930 . S
C340 C339 1.400 . S
C340 C343 1.386 . S
H341 C357 0.930 . S
H342 C358 0.931 . S
C343 H331 0.929 . S
C343 C337 1.390 . S
C343 C340 1.386 . S
C344 C339 1.490 . S
C344 C346 1.395 . S
C344 C347 1.403 . S
H345 C351 0.930 . S
C346 H332 0.930 . S
C346 C344 1.395 . S
C346 C349 1.403 . S
C347 C344 1.403 . S
C347 C348 1.524 . S
C347 C351 1.400 . S
C348 H333 0.960 . S
C348 H334 0.960 . S
C348 H335 0.960 . S
C348 C347 1.524 . S
C349 C346 1.403 . S
C349 C350 1.392 . S
C349 C353 1.495 . S
C350 C349 1.392 . S
C350 C351 1.385 . S
C350 C352 1.478 . S
C351 H345 0.930 . S
C351 C347 1.400 . S
C351 C350 1.385 . S
C352 C350 1.478 . S
C352 C354 1.381 . S
C352 C358 1.383 . S
C353 C349 1.495 . S
C353 H359 0.959 . S
C353 H360 0.961 . S
C353 H361 0.960 . S
C354 C352 1.381 . S
C354 C355 1.394 . S
C354 H362 0.930 . S
C355 C354 1.394 . S
C355 C356 1.383 . S
C355 H363 0.929 . S
C356 C355 1.383 . S
C356 C357 1.377 . S
C357 H341 0.930 . S
C357 C356 1.377 . S
C357 C358 1.379 . S
C358 H342 0.931 . S
C358 C352 1.383 . S
C358 C357 1.379 . S
H359 C353 0.959 . S
H360 C353 0.961 . S
H361 C353 0.960 . S
H362 C354 0.930 . S
H363 C355 0.929 . S
H364 C372 0.929 . S
H365 C374 0.930 . S
H366 C376 0.930 . S
H367 C379 0.929 . S
H368 C382 0.930 . S
H369 C384 0.960 . S
H370 C384 0.960 . S
H371 C384 0.960 . S
C372 H364 0.929 . S
C372 C373 1.377 . S
C372 C374 1.384 . S
C373 C372 1.377 . S
C373 C379 1.390 . S
C374 H365 0.930 . S
C374 C372 1.384 . S
C374 C375 1.372 . S
C375 C374 1.372 . S
C375 C376 1.400 . S
C375 C380 1.490 . S
C376 H366 0.930 . S
C376 C375 1.400 . S
C376 C379 1.386 . S
H377 C393 0.930 . S
H378 C394 0.931 . S
C379 H367 0.929 . S
C379 C373 1.390 . S
C379 C376 1.386 . S
C380 C375 1.490 . S
C380 C382 1.395 . S
C380 C383 1.403 . S
H381 C387 0.930 . S
C382 H368 0.930 . S
C382 C380 1.395 . S
C382 C385 1.403 . S
C383 C380 1.403 . S
C383 C384 1.524 . S
C383 C387 1.400 . S
C384 H369 0.960 . S
C384 H370 0.960 . S
C384 H371 0.960 . S
C384 C383 1.524 . S
C385 C382 1.403 . S
C385 C386 1.392 . S
C385 C389 1.495 1_565 S
C386 C385 1.392 . S
C386 C387 1.385 . S
C386 C388 1.478 . S
C387 H381 0.930 . S
C387 C383 1.400 . S
C387 C386 1.385 . S
C388 C386 1.478 . S
C388 C390 1.384 1_565 S
C388 C394 1.383 . S
C389 C385 1.495 1_545 S
C389 H395 0.959 . S
C389 H396 0.961 . S
C389 H397 0.960 . S
C390 C388 1.384 1_545 S
C390 C391 1.392 . S
C390 H398 0.929 . S
C391 C390 1.392 . S
C391 C392 1.383 1_545 S
C391 H399 0.929 . S
C392 C391 1.383 1_565 S
C392 C393 1.377 . S
C393 H377 0.930 . S
C393 C392 1.377 . S
C393 C394 1.379 . S
C394 H378 0.931 . S
C394 C388 1.383 . S
C394 C393 1.379 . S
H395 C389 0.959 . S
H396 C389 0.961 . S
H397 C389 0.960 . S
H398 C390 0.929 . S
H399 C391 0.929 . S
H400 C408 0.929 . S
H401 C410 0.930 . S
H402 C412 0.930 . S
H403 C415 0.929 . S
H404 C418 0.930 . S
H405 C420 0.960 . S
H406 C420 0.960 . S
H407 C420 0.960 . S
C408 H400 0.929 . S
C408 C409 1.377 . S
C408 C410 1.384 . S
C409 C408 1.377 . S
C409 C415 1.390 . S
C410 H401 0.930 . S
C410 C408 1.384 . S
C410 C411 1.372 . S
C411 C410 1.372 . S
C411 C412 1.400 . S
C411 C416 1.490 . S
C412 H402 0.930 . S
C412 C411 1.400 . S
C412 C415 1.386 . S
H413 C429 0.930 . S
H414 C430 0.931 . S
C415 H403 0.929 . S
C415 C409 1.390 . S
C415 C412 1.386 . S
C416 C411 1.490 . S
C416 C418 1.395 . S
C416 C419 1.403 . S
H417 C423 0.930 . S
C418 H404 0.930 . S
C418 C416 1.395 . S
C418 C421 1.403 . S
C419 C416 1.403 . S
C419 C420 1.524 . S
C419 C423 1.400 . S
C420 H405 0.960 . S
C420 H406 0.960 . S
C420 H407 0.960 . S
C420 C419 1.524 . S
C421 C418 1.403 . S
C421 C422 1.392 . S
C421 C425 1.495 . S
C422 C421 1.392 . S
C422 C423 1.385 . S
C422 C424 1.478 . S
C423 H417 0.930 . S
C423 C419 1.400 . S
C423 C422 1.385 . S
C424 C422 1.478 . S
C424 C426 1.381 . S
C424 C430 1.383 . S
C425 C421 1.495 . S
C425 H431 0.959 . S
C425 H432 0.961 . S
C425 H433 0.960 . S
C426 C424 1.381 . S
C426 C427 1.394 1_556 S
C426 H434 0.930 1_556 S
C427 C426 1.394 1_554 S
C427 C428 1.383 . S
C427 H435 0.929 . S
C428 C427 1.383 . S
C428 C429 1.377 1_554 S
C429 H413 0.930 . S
C429 C428 1.377 1_556 S
C429 C430 1.379 . S
C430 H414 0.931 . S
C430 C424 1.383 . S
C430 C429 1.379 . S
H431 C425 0.959 . S
H432 C425 0.961 . S
H433 C425 0.960 . S
H434 C426 0.930 1_554 S
H435 C427 0.929 . S
H436 C444 0.929 . S
H437 C446 0.930 . S
H438 C448 0.930 . S
H439 C451 0.929 . S
H440 C454 0.930 . S
H441 C456 0.960 . S
H442 C456 0.960 . S
H443 C456 0.960 . S
C444 H436 0.929 . S
C444 C445 1.377 . S
C444 C446 1.384 . S
C445 C444 1.377 . S
C445 C451 1.390 . S
C446 H437 0.930 . S
C446 C444 1.384 . S
C446 C447 1.372 . S
C447 C446 1.372 . S
C447 C448 1.400 . S
C447 C452 1.490 . S
C448 H438 0.930 . S
C448 C447 1.400 . S
C448 C451 1.386 . S
H449 C465 0.930 . S
H450 C466 0.931 . S
C451 H439 0.929 . S
C451 C445 1.390 . S
C451 C448 1.386 . S
C452 C447 1.490 . S
C452 C454 1.395 . S
C452 C455 1.403 . S
H453 C459 0.930 . S
C454 H440 0.930 . S
C454 C452 1.395 . S
C454 C457 1.403 . S
C455 C452 1.403 . S
C455 C456 1.524 . S
C455 C459 1.400 . S
C456 H441 0.960 . S
C456 H442 0.960 . S
C456 H443 0.960 . S
C456 C455 1.524 . S
C457 C454 1.403 . S
C457 C458 1.392 . S
C457 C461 1.495 . S
C458 C457 1.392 . S
C458 C459 1.385 . S
C458 C460 1.478 . S
C459 H453 0.930 . S
C459 C455 1.400 . S
C459 C458 1.385 . S
C460 C458 1.478 . S
C460 C462 1.381 . S
C460 C466 1.383 . S
C461 C457 1.495 . S
C461 H467 0.959 . S
C461 H468 0.961 . S
C461 H469 0.960 . S
C462 C460 1.381 . S
C462 C463 1.394 . S
C462 H470 0.930 . S
C463 C462 1.394 . S
C463 C464 1.383 . S
C463 H471 0.929 . S
C464 C463 1.383 . S
C464 C465 1.377 . S
C465 H449 0.930 . S
C465 C464 1.377 . S
C465 C466 1.379 . S
C466 H450 0.931 . S
C466 C460 1.383 . S
C466 C465 1.379 . S
H467 C461 0.959 . S
H468 C461 0.961 . S
H469 C461 0.960 . S
H470 C462 0.930 . S
H471 C463 0.929 . S
H472 C480 0.929 . S
H473 C482 0.930 . S
H474 C484 0.930 . S
H475 C487 0.929 . S
H476 C490 0.930 . S
H477 C492 0.960 . S
H478 C492 0.960 . S
H479 C492 0.960 . S
C480 H472 0.929 . S
C480 C481 1.377 . S
C480 C482 1.384 . S
C481 C480 1.377 . S
C481 C487 1.390 . S
C482 H473 0.930 . S
C482 C480 1.384 . S
C482 C483 1.372 . S
C483 C482 1.372 . S
C483 C484 1.400 . S
C483 C488 1.490 . S
C484 H474 0.930 . S
C484 C483 1.400 . S
C484 C487 1.386 . S
H485 C501 0.930 . S
H486 C502 0.931 . S
C487 H475 0.929 . S
C487 C481 1.390 . S
C487 C484 1.386 . S
C488 C483 1.490 . S
C488 C490 1.395 . S
C488 C491 1.403 . S
H489 C495 0.930 . S
C490 H476 0.930 . S
C490 C488 1.395 . S
C490 C493 1.403 . S
C491 C488 1.403 . S
C491 C492 1.524 . S
C491 C495 1.400 . S
C492 H477 0.960 . S
C492 H478 0.960 . S
C492 H479 0.960 . S
C492 C491 1.524 . S
C493 C490 1.403 . S
C493 C494 1.392 . S
C493 C497 1.495 . S
C494 C493 1.392 . S
C494 C495 1.385 . S
C494 C496 1.478 . S
C495 H489 0.930 . S
C495 C491 1.400 . S
C495 C494 1.385 . S
C496 C494 1.478 . S
C496 C498 1.381 . S
C496 C502 1.383 . S
C497 C493 1.495 . S
C497 H503 0.959 . S
C497 H504 0.961 . S
C497 H505 0.960 . S
C498 C496 1.381 . S
C498 C499 1.394 . S
C498 H506 0.930 . S
C499 C498 1.394 . S
C499 C500 1.383 . S
C499 H507 0.929 . S
C500 C499 1.383 . S
C500 C501 1.377 . S
C501 H485 0.930 . S
C501 C500 1.377 . S
C501 C502 1.379 . S
C502 H486 0.931 . S
C502 C496 1.383 . S
C502 C501 1.379 . S
H503 C497 0.959 . S
H504 C497 0.961 . S
H505 C497 0.960 . S
H506 C498 0.930 . S
H507 C499 0.929 . S
H508 C516 0.929 . S
H509 C518 0.930 . S
H510 C520 0.930 . S
H511 C523 0.929 . S
H512 C526 0.930 . S
H513 C528 0.960 . S
H514 C528 0.960 . S
H515 C528 0.960 . S
C516 H508 0.929 . S
C516 C517 1.377 . S
C516 C518 1.384 . S
C517 C516 1.377 . S
C517 C523 1.390 . S
C518 H509 0.930 . S
C518 C516 1.384 . S
C518 C519 1.372 . S
C519 C518 1.372 . S
C519 C520 1.400 . S
C519 C524 1.490 . S
C520 H510 0.930 . S
C520 C519 1.400 . S
C520 C523 1.386 . S
H521 C537 0.908 1_554 S
H522 C538 0.931 . S
C523 H511 0.929 . S
C523 C517 1.390 . S
C523 C520 1.386 . S
C524 C519 1.490 . S
C524 C526 1.395 . S
C524 C527 1.403 . S
H525 C531 0.930 . S
C526 H512 0.930 . S
C526 C524 1.395 . S
C526 C529 1.403 . S
C527 C524 1.403 . S
C527 C528 1.524 . S
C527 C531 1.400 . S
C528 H513 0.960 . S
C528 H514 0.960 . S
C528 H515 0.960 . S
C528 C527 1.524 . S
C529 C526 1.403 . S
C529 C530 1.392 . S
C529 C533 1.495 . S
C530 C529 1.392 . S
C530 C531 1.385 . S
C530 C532 1.478 . S
C531 H525 0.930 . S
C531 C527 1.400 . S
C531 C530 1.385 . S
C532 C530 1.478 . S
C532 C534 1.381 . S
C532 C538 1.383 . S
C533 C529 1.495 . S
C533 H539 0.959 . S
C533 H540 0.961 . S
C533 H541 0.960 . S
C534 C532 1.381 . S
C534 C535 1.394 . S
C534 H542 0.930 . S
C535 C534 1.394 . S
C535 C536 1.383 . S
C535 H543 0.929 . S
C536 C535 1.383 . S
C536 C537 1.389 . S
C537 H521 0.908 1_556 S
C537 C536 1.389 . S
C537 C538 1.390 . S
C538 H522 0.931 . S
C538 C532 1.383 . S
C538 C537 1.390 . S
H539 C533 0.959 . S
H540 C533 0.961 . S
H541 C533 0.960 . S
H542 C534 0.930 . S
H543 C535 0.929 . S
H544 C552 0.929 . S
H545 C554 0.930 . S
H546 C556 0.930 . S
H547 C559 0.929 . S
H548 C562 0.930 . S
H549 C564 0.960 1_455 S
H550 C564 0.960 . S
H551 C564 0.960 . S
C552 H544 0.929 . S
C552 C553 1.377 . S
C552 C554 1.384 . S
C553 C552 1.377 . S
C553 C559 1.390 . S
C554 H545 0.930 . S
C554 C552 1.384 . S
C554 C555 1.372 . S
C555 C554 1.372 . S
C555 C556 1.400 . S
C555 C560 1.490 . S
C556 H546 0.930 . S
C556 C555 1.400 . S
C556 C559 1.386 . S
H557 C573 0.930 1_455 S
H558 C574 0.931 . S
C559 H547 0.929 . S
C559 C553 1.390 . S
C559 C556 1.386 . S
C560 C555 1.490 . S
C560 C562 1.395 . S
C560 C563 1.403 . S
H561 C567 0.930 . S
C562 H548 0.930 . S
C562 C560 1.395 . S
C562 C565 1.403 . S
C563 C560 1.403 . S
C563 C564 1.524 . S
C563 C567 1.400 . S
C564 H549 0.960 1_655 S
C564 H550 0.960 . S
C564 H551 0.960 . S
C564 C563 1.524 . S
C565 C562 1.403 . S
C565 C566 1.392 . S
C565 C569 1.495 . S
C566 C565 1.392 . S
C566 C567 1.385 . S
C566 C568 1.478 . S
C567 H561 0.930 . S
C567 C563 1.400 . S
C567 C566 1.385 . S
C568 C566 1.478 . S
C568 C570 1.381 . S
C568 C574 1.383 . S
C569 C565 1.495 . S
C569 H575 0.959 . S
C569 H576 0.961 . S
C569 H577 0.960 . S
C570 C568 1.381 . S
C570 C571 1.394 . S
C570 H578 0.930 . S
C571 C570 1.394 . S
C571 C572 1.383 . S
C571 H579 0.929 . S
C572 C571 1.383 . S
C572 C573 1.377 . S
C573 H557 0.930 1_655 S
C573 C572 1.377 . S
C573 C574 1.379 . S
C574 H558 0.931 . S
C574 C568 1.383 . S
C574 C573 1.379 . S
H575 C569 0.959 . S
H576 C569 0.961 . S
H577 C569 0.960 . S
H578 C570 0.930 . S
H579 C571 0.929 . S
H580 C588 0.929 . S
H581 C590 0.930 . S
H582 C592 0.930 . S
H583 C595 0.929 . S
H584 C598 0.930 . S
H585 C600 0.960 . S
H586 C600 0.960 . S
H587 C600 0.960 . S
C588 H580 0.929 . S
C588 C589 1.377 . S
C588 C590 1.384 . S
C589 C588 1.377 . S
C589 C595 1.390 . S
C590 H581 0.930 . S
C590 C588 1.384 . S
C590 C591 1.372 . S
C591 C590 1.372 . S
C591 C592 1.400 . S
C591 C596 1.490 . S
C592 H582 0.930 . S
C592 C591 1.400 . S
C592 C595 1.386 . S
H593 C609 0.930 . S
H594 C610 0.931 . S
C595 H583 0.929 . S
C595 C589 1.390 . S
C595 C592 1.386 . S
C596 C591 1.490 . S
C596 C598 1.395 . S
C596 C599 1.403 . S
H597 C603 0.930 . S
C598 H584 0.930 . S
C598 C596 1.395 . S
C598 C601 1.403 . S
C599 C596 1.403 . S
C599 C600 1.524 . S
C599 C603 1.400 . S
C600 H585 0.960 . S
C600 H586 0.960 . S
C600 H587 0.960 . S
C600 C599 1.524 . S
C601 C598 1.403 . S
C601 C602 1.392 . S
C601 C605 1.495 . S
C602 C601 1.392 . S
C602 C603 1.385 . S
C602 C604 1.478 . S
C603 H597 0.930 . S
C603 C599 1.400 . S
C603 C602 1.385 . S
C604 C602 1.478 . S
C604 C606 1.381 . S
C604 C610 1.383 . S
C605 C601 1.495 . S
C605 H611 0.959 . S
C605 H612 0.961 . S
C605 H613 0.960 . S
C606 C604 1.381 . S
C606 C607 1.394 . S
C606 H614 0.930 . S
C607 C606 1.394 . S
C607 C608 1.383 . S
C607 H615 0.929 . S
C608 C607 1.383 . S
C608 C609 1.377 . S
C609 H593 0.930 . S
C609 C608 1.377 . S
C609 C610 1.379 . S
C610 H594 0.931 . S
C610 C604 1.383 . S
C610 C609 1.379 . S
H611 C605 0.959 . S
H612 C605 0.961 . S
H613 C605 0.960 . S
H614 C606 0.930 . S
H615 C607 0.929 . S
H616 C624 0.929 . S
H617 C626 0.930 . S
H618 C628 0.930 . S
H619 C631 0.929 . S
H620 C634 0.930 . S
H621 C636 0.960 . S
H622 C636 0.960 . S
H623 C636 0.960 . S
C624 H616 0.929 . S
C624 C625 1.377 . S
C624 C626 1.384 . S
C625 C624 1.377 . S
C625 C631 1.390 . S
C626 H617 0.930 . S
C626 C624 1.384 . S
C626 C627 1.372 . S
C627 C626 1.372 . S
C627 C628 1.400 . S
C627 C632 1.490 . S
C628 H618 0.930 . S
C628 C627 1.400 . S
C628 C631 1.386 . S
H629 C645 0.930 . S
H630 C646 0.931 . S
C631 H619 0.929 . S
C631 C625 1.390 . S
C631 C628 1.386 . S
C632 C627 1.490 . S
C632 C634 1.395 . S
C632 C635 1.403 . S
H633 C639 0.930 . S
C634 H620 0.930 . S
C634 C632 1.395 . S
C634 C637 1.403 . S
C635 C632 1.403 . S
C635 C636 1.524 . S
C635 C639 1.400 . S
C636 H621 0.960 . S
C636 H622 0.960 . S
C636 H623 0.960 . S
C636 C635 1.524 . S
C637 C634 1.403 . S
C637 C638 1.392 . S
C637 C641 1.495 . S
C638 C637 1.392 . S
C638 C639 1.385 . S
C638 C640 1.478 . S
C639 H633 0.930 . S
C639 C635 1.400 . S
C639 C638 1.385 . S
C640 C638 1.478 . S
C640 C642 1.381 . S
C640 C646 1.383 . S
C641 C637 1.495 . S
C641 H647 0.959 . S
C641 H648 0.961 . S
C641 H649 0.960 . S
C642 C640 1.381 . S
C642 C643 1.394 . S
C642 H650 0.930 . S
C643 C642 1.394 . S
C643 C644 1.383 . S
C643 H651 0.929 . S
C644 C643 1.383 . S
C644 C645 1.377 . S
C645 H629 0.930 . S
C645 C644 1.377 . S
C645 C646 1.379 . S
C646 H630 0.931 . S
C646 C640 1.383 . S
C646 C645 1.379 . S
H647 C641 0.959 . S
H648 C641 0.961 . S
H649 C641 0.960 . S
H650 C642 0.930 . S
H651 C643 0.929 . S
H652 C660 0.929 . S
H653 C662 0.930 . S
H654 C664 0.930 . S
H655 C667 0.929 . S
H656 C670 0.930 . S
H657 C672 0.960 . S
H658 C672 0.960 . S
H659 C672 0.960 . S
C660 H652 0.929 . S
C660 C661 1.377 . S
C660 C662 1.384 . S
C661 C660 1.377 . S
C661 C667 1.390 . S
C662 H653 0.930 . S
C662 C660 1.384 . S
C662 C663 1.372 . S
C663 C662 1.372 . S
C663 C664 1.400 . S
C663 C668 1.490 . S
C664 H654 0.930 . S
C664 C663 1.400 . S
C664 C667 1.386 . S
H665 C681 0.930 . S
H666 C682 0.931 . S
C667 H655 0.929 . S
C667 C661 1.390 . S
C667 C664 1.386 . S
C668 C663 1.490 . S
C668 C670 1.395 . S
C668 C671 1.403 . S
H669 C675 0.930 . S
C670 H656 0.930 . S
C670 C668 1.395 . S
C670 C673 1.403 . S
C671 C668 1.403 . S
C671 C672 1.524 . S
C671 C675 1.400 . S
C672 H657 0.960 . S
C672 H658 0.960 . S
C672 H659 0.960 . S
C672 C671 1.524 . S
C673 C670 1.403 . S
C673 C674 1.392 . S
C673 C677 1.495 . S
C674 C673 1.392 . S
C674 C675 1.385 . S
C674 C676 1.478 . S
C675 H669 0.930 . S
C675 C671 1.400 . S
C675 C674 1.385 . S
C676 C674 1.478 . S
C676 C678 1.381 . S
C676 C682 1.383 . S
C677 C673 1.495 . S
C677 H683 0.959 . S
C677 H684 0.961 . S
C677 H685 0.960 . S
C678 C676 1.381 . S
C678 C679 1.394 . S
C678 H686 0.930 . S
C679 C678 1.394 . S
C679 C680 1.383 . S
C679 H687 0.929 . S
C680 C679 1.383 . S
C680 C681 1.377 . S
C681 H665 0.930 . S
C681 C680 1.377 . S
C681 C682 1.379 . S
C682 H666 0.931 . S
C682 C676 1.383 . S
C682 C681 1.379 . S
H683 C677 0.959 . S
H684 C677 0.961 . S
H685 C677 0.960 . S
H686 C678 0.930 . S
H687 C679 0.929 . S
H688 C696 0.929 . S
H689 C698 0.930 . S
H690 C700 0.930 . S
H691 C703 0.929 . S
H692 C706 0.930 . S
H693 C708 0.960 . S
H694 C708 0.960 . S
H695 C708 0.960 . S
C696 H688 0.929 . S
C696 C697 1.377 . S
C696 C698 1.384 . S
C697 C696 1.377 . S
C697 C703 1.390 . S
C698 H689 0.930 . S
C698 C696 1.384 . S
C698 C699 1.372 . S
C699 C698 1.372 . S
C699 C700 1.400 . S
C699 C704 1.490 . S
C700 H690 0.930 . S
C700 C699 1.400 . S
C700 C703 1.386 . S
H701 C717 0.930 . S
H702 C718 0.931 . S
C703 H691 0.929 . S
C703 C697 1.390 . S
C703 C700 1.386 . S
C704 C699 1.490 . S
C704 C706 1.395 . S
C704 C707 1.403 . S
H705 C711 0.930 . S
C706 H692 0.930 . S
C706 C704 1.395 . S
C706 C709 1.403 . S
C707 C704 1.403 . S
C707 C708 1.524 . S
C707 C711 1.400 . S
C708 H693 0.960 . S
C708 H694 0.960 . S
C708 H695 0.960 . S
C708 C707 1.524 . S
C709 C706 1.403 . S
C709 C710 1.392 . S
C709 C713 1.495 . S
C710 C709 1.392 . S
C710 C711 1.385 . S
C710 C712 1.478 . S
C711 H705 0.930 . S
C711 C707 1.400 . S
C711 C710 1.385 . S
C712 C710 1.478 . S
C712 C714 1.381 . S
C712 C718 1.383 . S
C713 C709 1.495 . S
C713 H719 0.959 . S
C713 H720 0.961 . S
C713 H721 0.960 . S
C714 C712 1.381 . S
C714 C715 1.394 . S
C714 H722 0.930 . S
C715 C714 1.394 . S
C715 C716 1.383 . S
C715 H723 0.929 . S
C716 C715 1.383 . S
C716 C717 1.377 . S
C717 H701 0.930 . S
C717 C716 1.377 . S
C717 C718 1.379 . S
C718 H702 0.931 . S
C718 C712 1.383 . S
C718 C717 1.379 . S
H719 C713 0.959 . S
H720 C713 0.961 . S
H721 C713 0.960 . S
H722 C714 0.930 . S
H723 C715 0.929 . S
H724 C732 0.929 . S
H725 C734 0.930 . S
H726 C736 0.930 . S
H727 C739 0.929 . S
H728 C742 0.930 . S
H729 C744 0.960 . S
H730 C744 0.960 . S
H731 C744 0.960 . S
C732 H724 0.929 . S
C732 C733 1.377 . S
C732 C734 1.384 . S
C733 C732 1.377 . S
C733 C739 1.390 . S
C734 H725 0.930 . S
C734 C732 1.384 . S
C734 C735 1.372 . S
C735 C734 1.372 . S
C735 C736 1.400 . S
C735 C740 1.490 . S
C736 H726 0.930 . S
C736 C735 1.400 . S
C736 C739 1.386 . S
H737 C753 0.930 . S
H738 C754 0.931 . S
C739 H727 0.929 . S
C739 C733 1.390 . S
C739 C736 1.386 . S
C740 C735 1.490 . S
C740 C742 1.395 . S
C740 C743 1.403 . S
H741 C747 0.930 . S
C742 H728 0.930 . S
C742 C740 1.395 . S
C742 C745 1.403 . S
C743 C740 1.403 . S
C743 C744 1.524 . S
C743 C747 1.400 . S
C744 H729 0.960 . S
C744 H730 0.960 . S
C744 H731 0.960 . S
C744 C743 1.524 . S
C745 C742 1.403 . S
C745 C746 1.392 . S
C745 C749 1.495 . S
C746 C745 1.392 . S
C746 C747 1.385 . S
C746 C748 1.478 . S
C747 H741 0.930 . S
C747 C743 1.400 . S
C747 C746 1.385 . S
C748 C746 1.478 . S
C748 C750 1.381 . S
C748 C754 1.383 . S
C749 C745 1.495 . S
C749 H755 0.959 . S
C749 H756 0.961 . S
C749 H757 0.960 . S
C750 C748 1.381 . S
C750 C751 1.394 . S
C750 H758 0.930 . S
C751 C750 1.394 . S
C751 C752 1.383 . S
C751 H759 0.929 . S
C752 C751 1.383 . S
C752 C753 1.377 . S
C753 H737 0.930 . S
C753 C752 1.377 . S
C753 C754 1.379 . S
C754 H738 0.931 . S
C754 C748 1.383 . S
C754 C753 1.379 . S
H755 C749 0.959 . S
H756 C749 0.961 . S
H757 C749 0.960 . S
H758 C750 0.930 . S
H759 C751 0.929 . S
H760 C768 0.929 . S
H761 C770 0.930 . S
H762 C772 0.930 . S
H763 C775 0.929 . S
H764 C778 0.930 . S
H765 C780 0.960 . S
H766 C780 0.960 . S
H767 C780 0.960 . S
C768 H760 0.929 . S
C768 C769 1.377 . S
C768 C770 1.384 . S
C769 C768 1.377 . S
C769 C775 1.390 . S
C770 H761 0.930 . S
C770 C768 1.384 . S
C770 C771 1.372 . S
C771 C770 1.372 . S
C771 C772 1.400 . S
C771 C776 1.490 . S
C772 H762 0.930 . S
C772 C771 1.400 . S
C772 C775 1.386 . S
H773 C789 0.930 . S
H774 C790 0.931 . S
C775 H763 0.929 . S
C775 C769 1.390 . S
C775 C772 1.386 . S
C776 C771 1.490 . S
C776 C778 1.395 . S
C776 C779 1.403 . S
H777 C783 0.930 . S
C778 H764 0.930 . S
C778 C776 1.395 . S
C778 C781 1.403 . S
C779 C776 1.403 . S
C779 C780 1.524 . S
C779 C783 1.400 . S
C780 H765 0.960 . S
C780 H766 0.960 . S
C780 H767 0.960 . S
C780 C779 1.524 . S
C781 C778 1.403 . S
C781 C782 1.392 . S
C781 C785 1.495 . S
C782 C781 1.392 . S
C782 C783 1.385 . S
C782 C784 1.478 . S
C783 H777 0.930 . S
C783 C779 1.400 . S
C783 C782 1.385 . S
C784 C782 1.478 . S
C784 C786 1.381 . S
C784 C790 1.383 . S
C785 C781 1.495 . S
C785 H791 0.959 . S
C785 H792 0.961 . S
C785 H793 0.960 . S
C786 C784 1.381 . S
C786 C787 1.394 . S
C786 H794 0.930 . S
C787 C786 1.394 . S
C787 C788 1.383 . S
C787 H795 0.929 . S
C788 C787 1.383 . S
C788 C789 1.377 . S
C789 H773 0.930 . S
C789 C788 1.377 . S
C789 C790 1.379 . S
C790 H774 0.931 . S
C790 C784 1.383 . S
C790 C789 1.379 . S
H791 C785 0.959 . S
H792 C785 0.961 . S
H793 C785 0.960 . S
H794 C786 0.930 . S
H795 C787 0.929 . S
H796 C804 0.929 . S
H797 C806 0.930 . S
H798 C808 0.930 . S
H799 C811 0.929 . S
H800 C814 0.930 . S
H801 C816 0.960 . S
H802 C816 0.960 . S
H803 C816 0.960 . S
C804 H796 0.929 . S
C804 C805 1.377 . S
C804 C806 1.384 . S
C805 C804 1.377 . S
C805 C811 1.390 . S
C806 H797 0.930 . S
C806 C804 1.384 . S
C806 C807 1.372 . S
C807 C806 1.372 . S
C807 C808 1.400 . S
C807 C812 1.490 . S
C808 H798 0.930 . S
C808 C807 1.400 . S
C808 C811 1.386 . S
H809 C825 0.930 . S
H810 C826 0.931 . S
C811 H799 0.929 . S
C811 C805 1.390 . S
C811 C808 1.386 . S
C812 C807 1.490 . S
C812 C814 1.395 . S
C812 C815 1.403 . S
H813 C819 0.930 . S
C814 H800 0.930 . S
C814 C812 1.395 . S
C814 C817 1.403 . S
C815 C812 1.403 . S
C815 C816 1.524 . S
C815 C819 1.400 . S
C816 H801 0.960 . S
C816 H802 0.960 . S
C816 H803 0.960 . S
C816 C815 1.524 . S
C817 C814 1.403 . S
C817 C818 1.392 . S
C817 C821 1.495 . S
C818 C817 1.392 . S
C818 C819 1.385 . S
C818 C820 1.478 . S
C819 H813 0.930 . S
C819 C815 1.400 . S
C819 C818 1.385 . S
C820 C818 1.478 . S
C820 C822 1.381 . S
C820 C826 1.383 . S
C821 C817 1.495 . S
C821 H827 0.959 . S
C821 H828 0.961 . S
C821 H829 0.960 . S
C822 C820 1.381 . S
C822 C823 1.394 . S
C822 H830 0.930 . S
C823 C822 1.394 . S
C823 C824 1.383 . S
C823 H831 0.929 . S
C824 C823 1.383 . S
C824 C825 1.377 . S
C825 H809 0.930 . S
C825 C824 1.377 . S
C825 C826 1.379 . S
C826 H810 0.931 . S
C826 C820 1.383 . S
C826 C825 1.379 . S
H827 C821 0.959 . S
H828 C821 0.961 . S
H829 C821 0.960 . S
H830 C822 0.930 . S
H831 C823 0.929 . S
H832 C840 0.929 . S
H833 C842 0.930 . S
H834 C844 0.930 . S
H835 C847 0.929 . S
H836 C850 0.930 . S
H837 C852 0.960 . S
H838 C852 0.960 . S
H839 C852 0.960 . S
C840 H832 0.929 . S
C840 C841 1.377 . S
C840 C842 1.384 . S
C841 C840 1.377 . S
C841 C847 1.390 . S
C842 H833 0.930 . S
C842 C840 1.384 . S
C842 C843 1.372 . S
C843 C842 1.372 . S
C843 C844 1.400 . S
C843 C848 1.490 . S
C844 H834 0.930 . S
C844 C843 1.400 . S
C844 C847 1.386 . S
H845 C861 0.930 . S
H846 C862 0.931 . S
C847 H835 0.929 . S
C847 C841 1.390 . S
C847 C844 1.386 . S
C848 C843 1.490 . S
C848 C850 1.395 . S
C848 C851 1.403 . S
H849 C855 0.930 . S
C850 H836 0.930 . S
C850 C848 1.395 . S
C850 C853 1.403 . S
C851 C848 1.403 . S
C851 C852 1.524 . S
C851 C855 1.400 . S
C852 H837 0.960 . S
C852 H838 0.960 . S
C852 H839 0.960 . S
C852 C851 1.524 . S
C853 C850 1.403 . S
C853 C854 1.392 . S
C853 C857 1.495 . S
C854 C853 1.392 . S
C854 C855 1.385 . S
C854 C856 1.478 . S
C855 H849 0.930 . S
C855 C851 1.400 . S
C855 C854 1.385 . S
C856 C854 1.478 . S
C856 C858 1.381 . S
C856 C862 1.383 . S
C857 C853 1.495 . S
C857 H863 0.959 . S
C857 H864 0.961 . S
C857 H865 0.960 . S
C858 C856 1.381 . S
C858 C859 1.394 . S
C858 H866 0.930 . S
C859 C858 1.394 . S
C859 C860 1.383 . S
C859 H867 0.929 . S
C860 C859 1.383 . S
C860 C861 1.377 . S
C861 H845 0.930 . S
C861 C860 1.377 . S
C861 C862 1.379 . S
C862 H846 0.931 . S
C862 C856 1.383 . S
C862 C861 1.379 . S
H863 C857 0.959 . S
H864 C857 0.961 . S
H865 C857 0.960 . S
H866 C858 0.930 . S
H867 C859 0.929 . S
H868 C876 0.929 . S
H869 C878 0.930 . S
H870 C880 0.930 . S
H871 C883 0.929 . S
H872 C886 0.930 . S
H873 C888 0.960 . S
H874 C888 0.960 . S
H875 C888 0.960 . S
C876 H868 0.929 . S
C876 C877 1.377 . S
C876 C878 1.384 . S
C877 C876 1.377 . S
C877 C883 1.390 . S
C878 H869 0.930 . S
C878 C876 1.384 . S
C878 C879 1.372 . S
C879 C878 1.372 . S
C879 C880 1.400 . S
C879 C884 1.490 . S
C880 H870 0.930 . S
C880 C879 1.400 . S
C880 C883 1.386 . S
H881 C897 0.930 . S
H882 C898 0.931 . S
C883 H871 0.929 . S
C883 C877 1.390 . S
C883 C880 1.386 . S
C884 C879 1.490 . S
C884 C886 1.395 . S
C884 C887 1.403 . S
H885 C891 0.930 . S
C886 H872 0.930 . S
C886 C884 1.395 . S
C886 C889 1.403 . S
C887 C884 1.403 . S
C887 C888 1.524 . S
C887 C891 1.400 . S
C888 H873 0.960 . S
C888 H874 0.960 . S
C888 H875 0.960 . S
C888 C887 1.524 . S
C889 C886 1.403 . S
C889 C890 1.392 . S
C889 C893 1.495 . S
C890 C889 1.392 . S
C890 C891 1.385 . S
C890 C892 1.478 . S
C891 H885 0.930 . S
C891 C887 1.400 . S
C891 C890 1.385 . S
C892 C890 1.478 . S
C892 C894 1.381 . S
C892 C898 1.383 . S
C893 C889 1.495 . S
C893 H899 0.959 . S
C893 H900 0.961 . S
C893 H901 0.960 . S
C894 C892 1.381 . S
C894 C895 1.394 . S
C894 H902 0.930 . S
C895 C894 1.394 . S
C895 C896 1.383 . S
C895 H903 0.929 . S
C896 C895 1.383 . S
C896 C897 1.377 . S
C897 H881 0.930 . S
C897 C896 1.377 . S
C897 C898 1.379 . S
C898 H882 0.931 . S
C898 C892 1.383 . S
C898 C897 1.379 . S
H899 C893 0.959 . S
H900 C893 0.961 . S
H901 C893 0.960 . S
H902 C894 0.930 . S
H903 C895 0.929 . S
H904 C912 0.929 . S
H905 C914 0.930 . S
H906 C916 0.930 . S
H907 C919 0.929 . S
H908 C922 0.930 . S
H909 C924 0.960 . S
H910 C924 0.960 . S
H911 C924 0.960 . S
C912 H904 0.929 . S
C912 C913 1.377 . S
C912 C914 1.384 . S
C913 C912 1.377 . S
C913 C919 1.390 . S
C914 H905 0.930 . S
C914 C912 1.384 . S
C914 C915 1.372 . S
C915 C914 1.372 . S
C915 C916 1.400 . S
C915 C920 1.490 . S
C916 H906 0.930 . S
C916 C915 1.400 . S
C916 C919 1.386 . S
H917 C933 0.930 . S
H918 C934 0.931 . S
C919 H907 0.929 . S
C919 C913 1.390 . S
C919 C916 1.386 . S
C920 C915 1.490 . S
C920 C922 1.395 . S
C920 C923 1.403 . S
H921 C927 0.930 . S
C922 H908 0.930 . S
C922 C920 1.395 . S
C922 C925 1.403 . S
C923 C920 1.403 . S
C923 C924 1.524 . S
C923 C927 1.400 . S
C924 H909 0.960 . S
C924 H910 0.960 . S
C924 H911 0.960 . S
C924 C923 1.524 . S
C925 C922 1.403 . S
C925 C926 1.392 . S
C925 C929 1.495 . S
C926 C925 1.392 . S
C926 C927 1.385 . S
C926 C928 1.478 . S
C927 H921 0.930 . S
C927 C923 1.400 . S
C927 C926 1.385 . S
C928 C926 1.478 . S
C928 C930 1.381 . S
C928 C934 1.383 . S
C929 C925 1.495 . S
C929 H935 0.959 . S
C929 H936 0.961 . S
C929 H937 0.960 . S
C930 C928 1.381 . S
C930 C931 1.394 . S
C930 H938 0.930 . S
C931 C930 1.394 . S
C931 C932 1.383 . S
C931 H939 0.929 1_556 S
C932 C931 1.383 . S
C932 C933 1.377 . S
C933 H917 0.930 . S
C933 C932 1.377 . S
C933 C934 1.379 . S
C934 H918 0.931 . S
C934 C928 1.383 . S
C934 C933 1.379 . S
H935 C929 0.959 . S
H936 C929 0.961 . S
H937 C929 0.960 . S
H938 C930 0.930 . S
H939 C931 0.929 1_554 S
H940 C948 0.929 . S
H941 C950 0.930 . S
H942 C952 0.930 . S
H943 C955 0.929 . S
H944 C958 0.930 . S
H945 C960 0.960 . S
H946 C960 0.960 . S
H947 C960 0.960 . S
C948 H940 0.929 . S
C948 C949 1.377 . S
C948 C950 1.384 . S
C949 C948 1.377 . S
C949 C955 1.390 . S
C950 H941 0.930 . S
C950 C948 1.384 . S
C950 C951 1.372 . S
C951 C950 1.372 . S
C951 C952 1.400 . S
C951 C956 1.490 . S
C952 H942 0.930 . S
C952 C951 1.400 . S
C952 C955 1.386 . S
H953 C969 0.930 . S
H954 C970 0.931 . S
C955 H943 0.929 . S
C955 C949 1.390 . S
C955 C952 1.386 . S
C956 C951 1.490 . S
C956 C958 1.395 . S
C956 C959 1.403 . S
H957 C963 0.930 . S
C958 H944 0.930 . S
C958 C956 1.395 . S
C958 C961 1.403 . S
C959 C956 1.403 . S
C959 C960 1.524 . S
C959 C963 1.400 . S
C960 H945 0.960 . S
C960 H946 0.960 . S
C960 H947 0.960 . S
C960 C959 1.524 . S
C961 C958 1.403 . S
C961 C962 1.392 . S
C961 C965 1.495 . S
C962 C961 1.392 . S
C962 C963 1.385 . S
C962 C964 1.478 . S
C963 H957 0.930 . S
C963 C959 1.400 . S
C963 C962 1.385 . S
C964 C962 1.478 . S
C964 C966 1.381 . S
C964 C970 1.383 . S
C965 C961 1.495 . S
C965 H971 0.959 . S
C965 H972 0.961 . S
C965 H973 0.960 . S
C966 C964 1.381 . S
C966 C967 1.394 . S
C966 H974 0.930 . S
C967 C966 1.394 . S
C967 C968 1.383 . S
C967 H975 0.929 . S
C968 C967 1.383 . S
C968 C969 1.377 . S
C969 H953 0.930 . S
C969 C968 1.377 . S
C969 C970 1.379 . S
C970 H954 0.931 . S
C970 C964 1.383 . S
C970 C969 1.379 . S
H971 C965 0.959 . S
H972 C965 0.961 . S
H973 C965 0.960 . S
H974 C966 0.930 . S
H975 C967 0.929 . S
H976 C984 0.929 . S
H977 C986 0.930 . S
H978 C988 0.930 . S
H979 C991 0.929 . S
H980 C994 0.930 . S
H981 C996 0.960 . S
H982 C996 0.960 . S
H983 C996 0.960 . S
C984 H976 0.929 . S
C984 C985 1.377 . S
C984 C986 1.384 . S
C985 C984 1.377 . S
C985 C991 1.390 . S
C986 H977 0.930 . S
C986 C984 1.384 . S
C986 C987 1.372 . S
C987 C986 1.372 . S
C987 C988 1.400 . S
C987 C992 1.490 . S
C988 H978 0.930 . S
C988 C987 1.400 . S
C988 C991 1.386 . S
H989 C1005 0.930 . S
H990 C1006 0.931 . S
C991 H979 0.929 . S
C991 C985 1.390 . S
C991 C988 1.386 . S
C992 C987 1.490 . S
C992 C994 1.395 . S
C992 C995 1.403 . S
H993 C999 0.930 . S
C994 H980 0.930 . S
C994 C992 1.395 . S
C994 C997 1.403 . S
C995 C992 1.403 . S
C995 C996 1.524 . S
C995 C999 1.400 . S
C996 H981 0.960 . S
C996 H982 0.960 . S
C996 H983 0.960 . S
C996 C995 1.524 . S
C997 C994 1.403 . S
C997 C998 1.392 . S
C997 C1001 1.495 . S
C998 C997 1.392 . S
C998 C999 1.385 . S
C998 C1000 1.478 . S
C999 H993 0.930 . S
C999 C995 1.400 . S
C999 C998 1.385 . S
C1000 C998 1.478 . S
C1000 C1002 1.381 . S
C1000 C1006 1.383 . S
C1001 C997 1.495 . S
C1001 H1007 0.959 . S
C1001 H1008 0.961 . S
C1001 H1009 0.960 . S
C1002 C1000 1.381 . S
C1002 C1003 1.394 . S
C1002 H1010 0.930 . S
C1003 C1002 1.394 . S
C1003 C1004 1.383 . S
C1003 H1011 0.929 . S
C1004 C1003 1.383 . S
C1004 C1005 1.377 . S
C1005 H989 0.930 . S
C1005 C1004 1.377 . S
C1005 C1006 1.379 . S
C1006 H990 0.931 . S
C1006 C1000 1.383 . S
C1006 C1005 1.379 . S
H1007 C1001 0.959 . S
H1008 C1001 0.961 . S
H1009 C1001 0.960 . S
H1010 C1002 0.930 . S
H1011 C1003 0.929 . S
H1012 C1020 0.929 . S
H1013 C1022 0.930 . S
H1014 C1024 0.930 . S
H1015 C1027 0.929 . S
H1016 C1030 0.930 . S
H1017 C1032 0.960 . S
H1018 C1032 0.960 . S
H1019 C1032 0.960 . S
C1020 H1012 0.929 . S
C1020 C1021 1.377 . S
C1020 C1022 1.384 . S
C1021 C1020 1.377 . S
C1021 C1027 1.390 . S
C1022 H1013 0.930 . S
C1022 C1020 1.384 . S
C1022 C1023 1.372 . S
C1023 C1022 1.372 . S
C1023 C1024 1.400 . S
C1023 C1028 1.490 . S
C1024 H1014 0.930 . S
C1024 C1023 1.400 . S
C1024 C1027 1.386 . S
H1025 C1041 0.930 . S
H1026 C1042 0.931 . S
C1027 H1015 0.929 . S
C1027 C1021 1.390 . S
C1027 C1024 1.386 . S
C1028 C1023 1.490 . S
C1028 C1030 1.395 . S
C1028 C1031 1.403 . S
H1029 C1035 0.930 . S
C1030 H1016 0.930 . S
C1030 C1028 1.395 . S
C1030 C1033 1.403 . S
C1031 C1028 1.403 . S
C1031 C1032 1.524 . S
C1031 C1035 1.400 . S
C1032 H1017 0.960 . S
C1032 H1018 0.960 . S
C1032 H1019 0.960 . S
C1032 C1031 1.524 . S
C1033 C1030 1.403 . S
C1033 C1034 1.392 . S
C1033 C1037 1.495 . S
C1034 C1033 1.392 . S
C1034 C1035 1.385 . S
C1034 C1036 1.478 . S
C1035 H1029 0.930 . S
C1035 C1031 1.400 . S
C1035 C1034 1.385 . S
C1036 C1034 1.478 . S
C1036 C1038 1.381 . S
C1036 C1042 1.383 . S
C1037 C1033 1.495 . S
C1037 H1043 0.959 . S
C1037 H1044 0.961 . S
C1037 H1045 0.960 . S
C1038 C1036 1.381 . S
C1038 C1039 1.394 . S
C1038 H1046 0.930 . S
C1039 C1038 1.394 . S
C1039 C1040 1.383 . S
C1039 H1047 0.929 . S
C1040 C1039 1.383 . S
C1040 C1041 1.377 . S
C1041 H1025 0.930 . S
C1041 C1040 1.377 . S
C1041 C1042 1.379 . S
C1042 H1026 0.931 . S
C1042 C1036 1.383 . S
C1042 C1041 1.379 . S
H1043 C1037 0.959 . S
H1044 C1037 0.961 . S
H1045 C1037 0.960 . S
H1046 C1038 0.930 . S
H1047 C1039 0.929 . S
C193 C9 1.851 . S
C212 C106 1.830 . S
C229 C21 1.410 . S
C248 C125 1.343 . S
C284 C162 1.404 . S
C265 C30 1.385 . S
C301 C43 1.404 . S
C320 C172 1.415 1_655 S
C356 C142 1.794 . S
C337 C4 1.672 . S
C392 C112 2.047 1_565 S
C373 C22 2.131 . S
C428 C183 1.064 . S
C409 C34 1.106 . S
C464 C153 1.140 . S
C445 C48 1.182 . S
C481 C8 1.737 . S
C500 C166 1.751 . S
C536 C133 1.709 . S
C517 C35 1.752 . S
C553 C47 1.901 . S
C572 C123 1.897 . S
C589 C17 1.082 . S
C608 C145 1.071 . S
C644 C105 1.440 . S
C625 C60 1.456 . S
C661 C74 1.598 . S
C680 C126 1.579 . S
C697 C82 1.173 . S
C716 C163 1.203 . S
C733 C100 1.972 . S
C752 C173 1.932 . S
C769 C61 2.285 . S
C788 C143 2.313 . S
C824 C113 1.507 . S
C805 C73 1.576 . S
C860 C182 1.683 . S
C841 C87 1.737 . S
C896 C152 0.901 . S
C877 C95 0.896 . S
C913 C56 1.740 . S
C932 C165 1.744 . S
C968 C132 1.791 . S
C949 C86 1.862 . S
C1004 C122 1.662 . S
C985 C99 1.659 . S
C1021 C69 1.083 . S
C1040 C146 1.137 . S
