# Generated by pormake.
# Topology ssa, (4,4)-cn, num edge types: 1
# Building blocks:
#     Node 0, Type 0, BuildingBlock: NAWXER_clean_sbu_0, # of connection points: 4
#     Node 1, Type 0, BuildingBlock: NAWXER_clean_sbu_0, # of connection points: 4
#     Node 2, Type 0, BuildingBlock: NAWXER_clean_sbu_0, # of connection points: 4
#     Node 3, Type 0, BuildingBlock: NAWXER_clean_sbu_0, # of connection points: 4
#     Node 4, Type 0, BuildingBlock: NAWXER_clean_sbu_0, # of connection points: 4
#     Node 5, Type 0, BuildingBlock: NAWXER_clean_sbu_0, # of connection points: 4
#     Node 6, Type 1, BuildingBlock: MIFKUJ_clean_linker_1, # of connection points: 4
#     Node 7, Type 1, BuildingBlock: MIFKUJ_clean_linker_1, # of connection points: 4
#     Node 8, Type 1, BuildingBlock: MIFKUJ_clean_linker_1, # of connection points: 4
#     Node 9, Type 1, BuildingBlock: MIFKUJ_clean_linker_1, # of connection points: 4
#     Node 10, Type 1, BuildingBlock: MIFKUJ_clean_linker_1, # of connection points: 4
#     Node 11, Type 1, BuildingBlock: MIFKUJ_clean_linker_1, # of connection points: 4
#     Edge 12, Type (0, 1), BuildingBlock: TEMPAE_clean_linker_10, # of connection points: 2
#     Edge 13, Type (0, 1), BuildingBlock: TEMPAE_clean_linker_10, # of connection points: 2
#     Edge 14, Type (0, 1), BuildingBlock: TEMPAE_clean_linker_10, # of connection points: 2
#     Edge 15, Type (0, 1), BuildingBlock: TEMPAE_clean_linker_10, # of connection points: 2
#     Edge 16, Type (0, 1), BuildingBlock: TEMPAE_clean_linker_10, # of connection points: 2
#     Edge 17, Type (0, 1), BuildingBlock: TEMPAE_clean_linker_10, # of connection points: 2
#     Edge 18, Type (0, 1), BuildingBlock: TEMPAE_clean_linker_10, # of connection points: 2
#     Edge 19, Type (0, 1), BuildingBlock: TEMPAE_clean_linker_10, # of connection points: 2
#     Edge 20, Type (0, 1), BuildingBlock: TEMPAE_clean_linker_10, # of connection points: 2
#     Edge 21, Type (0, 1), BuildingBlock: TEMPAE_clean_linker_10, # of connection points: 2
#     Edge 22, Type (0, 1), BuildingBlock: TEMPAE_clean_linker_10, # of connection points: 2
#     Edge 23, Type (0, 1), BuildingBlock: TEMPAE_clean_linker_10, # of connection points: 2
#     Edge 24, Type (0, 1), BuildingBlock: TEMPAE_clean_linker_10, # of connection points: 2
#     Edge 25, Type (0, 1), BuildingBlock: TEMPAE_clean_linker_10, # of connection points: 2
#     Edge 26, Type (0, 1), BuildingBlock: TEMPAE_clean_linker_10, # of connection points: 2
#     Edge 27, Type (0, 1), BuildingBlock: TEMPAE_clean_linker_10, # of connection points: 2
#     Edge 28, Type (0, 1), BuildingBlock: TEMPAE_clean_linker_10, # of connection points: 2
#     Edge 29, Type (0, 1), BuildingBlock: TEMPAE_clean_linker_10, # of connection points: 2
#     Edge 30, Type (0, 1), BuildingBlock: TEMPAE_clean_linker_10, # of connection points: 2
#     Edge 31, Type (0, 1), BuildingBlock: TEMPAE_clean_linker_10, # of connection points: 2
#     Edge 32, Type (0, 1), BuildingBlock: TEMPAE_clean_linker_10, # of connection points: 2
#     Edge 33, Type (0, 1), BuildingBlock: TEMPAE_clean_linker_10, # of connection points: 2
#     Edge 34, Type (0, 1), BuildingBlock: TEMPAE_clean_linker_10, # of connection points: 2
#     Edge 35, Type (0, 1), BuildingBlock: TEMPAE_clean_linker_10, # of connection points: 2
# Relax obj value: 0.011
# Max RMSD: 0.026
# Mean RMSD: 0.026
data_MOF--net-ssa--node1-NAWXER_clean_sbu_0--node2-MIFKUJ_clean_linker_1--edge1-TEMPAE_clean_linker_10
_symmetry_space_group_name_H-M    P1
_symmetry_Int_Tables_number       1
_symmetry_cell_setting            triclinic
loop_
_symmetry_equiv_pos_as_xyz
'x, y, z'
_cell_length_a     59.855709
_cell_length_b     59.868574
_cell_length_c     37.859796
_cell_angle_alpha  90.075409
_cell_angle_beta   89.935687
_cell_angle_gamma 120.0282
loop_
_atom_site_label
_atom_site_type_symbol
_atom_site_fract_x
_atom_site_fract_y
_atom_site_fract_z
_atom_type_partial_charge
C0 C 0.04004 0.54694 0.00088 0.0
C1 C 0.9903 0.46396 0.94155 0.0
O2 O 0.01939 0.53126 0.01752 0.0
Zn3 Zn 0.98811 0.49232 0.01236 0.0
O4 O 0.04604 0.53972 0.97256 0.0
Zn5 Zn 0.01644 0.5052 0.97162 0.0
O6 O 0.9848 0.51234 0.96333 0.0
O7 O 0.95916 0.49783 0.00998 0.0
O8 O 0.01258 0.48213 0.933 0.0
O9 O 0.97956 0.46565 0.96993 0.0
O10 O 0.99177 0.47495 0.05333 0.0
O11 O 0.0243 0.4884 0.01606 0.0
C12 C 0.96446 0.50864 0.97982 0.0
C13 C 0.01359 0.47765 0.04533 0.0
C14 C 0.49982 0.02743 0.5009 0.0
C15 C 0.5332 0.97778 0.44159 0.0
O16 O 0.49567 0.00729 0.51814 0.0
Zn17 Zn 0.50254 0.97558 0.51253 0.0
O18 O 0.51103 0.03215 0.47105 0.0
Zn19 Zn 0.5164 0.00284 0.47057 0.0
O20 O 0.47796 0.97131 0.46395 0.0
O21 O 0.46793 0.94603 0.51054 0.0
O22 O 0.53419 0.9984 0.43105 0.0
O23 O 0.52229 0.96777 0.47115 0.0
O24 O 0.52351 0.98045 0.55369 0.0
O25 O 0.54261 0.01152 0.51418 0.0
C26 C 0.46169 0.95106 0.48076 0.0
C27 C 0.54289 0.0017 0.54419 0.0
C28 C 0.47228 0.43743 0.98043 0.0
C29 C 0.50613 0.51773 0.04769 0.0
O30 O 0.469 0.45463 0.96502 0.0
Zn31 Zn 0.4764 0.49293 0.97467 0.0
O32 O 0.48235 0.44195 0.01106 0.0
Zn33 Zn 0.48823 0.4767 0.01613 0.0
O34 O 0.45037 0.47126 0.02218 0.0
O35 O 0.44253 0.48976 0.97723 0.0
O36 O 0.50588 0.4973 0.0576 0.0
O37 O 0.49582 0.51792 0.01813 0.0
O38 O 0.49982 0.51181 0.93618 0.0
O39 O 0.51625 0.49698 0.97572 0.0
C40 C 0.43529 0.47726 0.00607 0.0
C41 C 0.51864 0.50944 0.94712 0.0
C42 C 0.99929 0.53993 0.45843 0.0
C43 C 0.95082 0.45945 0.52404 0.0
O44 O 0.0096 0.54003 0.48812 0.0
Zn45 Zn 0.00226 0.51497 0.53216 0.0
O46 O 0.97806 0.52027 0.44957 0.0
Zn47 Zn 0.97429 0.49958 0.49098 0.0
O48 O 0.96591 0.51858 0.53285 0.0
O49 O 0.99832 0.53395 0.57069 0.0
O50 O 0.94557 0.46475 0.49374 0.0
O51 O 0.971 0.47634 0.5405 0.0
O52 O 0.03221 0.51058 0.53094 0.0
O53 O 0.0064 0.49342 0.48512 0.0
C54 C 0.97654 0.53083 0.56144 0.0
C55 C 0.02709 0.49853 0.5017 0.0
C56 C 0.50648 0.96058 0.01598 0.0
C57 C 0.4715 0.00644 0.95079 0.0
O58 O 0.50921 0.98057 0.03246 0.0
Zn59 Zn 0.49977 0.01064 0.02444 0.0
O60 O 0.49523 0.95462 0.98613 0.0
Zn61 Zn 0.48828 0.98263 0.98351 0.0
O62 O 0.52667 0.01485 0.979 0.0
O63 O 0.53341 0.04155 0.02336 0.0
O64 O 0.47116 0.9858 0.94193 0.0
O65 O 0.48134 0.01699 0.98053 0.0
O66 O 0.47665 0.00541 0.06333 0.0
O67 O 0.46085 0.97303 0.02544 0.0
C68 C 0.54143 0.03584 0.99558 0.0
C69 C 0.4587 0.98317 0.05419 0.0
C70 C 0.53975 0.53289 0.55789 0.0
C71 C 0.46095 0.49811 0.48807 0.0
O72 O 0.51888 0.53208 0.56688 0.0
Zn73 Zn 0.49956 0.51439 0.5249 0.0
O74 O 0.54088 0.52242 0.5289 0.0
Zn75 Zn 0.51629 0.50169 0.48553 0.0
O76 O 0.53527 0.52349 0.44621 0.0
O77 O 0.52103 0.54177 0.48399 0.0
O78 O 0.4782 0.49422 0.47399 0.0
O79 O 0.46521 0.50904 0.51809 0.0
O80 O 0.49307 0.47628 0.53265 0.0
O81 O 0.51285 0.4679 0.48987 0.0
C82 C 0.53351 0.54292 0.45583 0.0
C83 C 0.49929 0.46091 0.51782 0.0
H84 H 0.15605 0.41049 0.22493 0.0
H85 H 0.1178 0.40779 0.19721 0.0
H86 H 0.14912 0.48946 0.21575 0.0
H87 H 0.18639 0.49152 0.24477 0.0
H88 H 0.21039 0.44596 0.2037 0.0
H89 H 0.15351 0.42503 0.3055 0.0
H90 H 0.12476 0.43087 0.34576 0.0
H91 H 0.18574 0.50857 0.36789 0.0
H92 H 0.21419 0.5028 0.32714 0.0
H93 H 0.28036 0.50473 0.31611 0.0
H94 H 0.3176 0.50988 0.3494 0.0
H95 H 0.30139 0.43439 0.31495 0.0
H96 H 0.26382 0.42917 0.28204 0.0
H97 H 0.23168 0.46931 0.32986 0.0
H98 H 0.28584 0.49664 0.22898 0.0
H99 H 0.31684 0.49928 0.18499 0.0
H100 H 0.26648 0.41881 0.15917 0.0
H101 H 0.23506 0.41672 0.20243 0.0
C102 C 0.17388 0.45115 0.237 0.0
C103 C 0.15443 0.42769 0.2232 0.0
C104 C 0.13266 0.42624 0.20724 0.0
C105 C 0.13022 0.44839 0.20425 0.0
C106 C 0.14989 0.47184 0.21826 0.0
C107 C 0.17139 0.47316 0.2346 0.0
C108 C 0.19725 0.45308 0.25319 0.0
C109 C 0.21484 0.45047 0.23147 0.0
C110 C 0.20351 0.46018 0.28896 0.0
C111 C 0.18591 0.46356 0.31312 0.0
C112 C 0.1606 0.44337 0.31884 0.0
C113 C 0.1443 0.44664 0.3421 0.0
C114 C 0.15303 0.47017 0.35999 0.0
C115 C 0.1784 0.49031 0.35424 0.0
C116 C 0.19471 0.48699 0.33113 0.0
C117 C 0.26935 0.46659 0.29658 0.0
C118 C 0.28502 0.48942 0.31537 0.0
C119 C 0.30635 0.49239 0.33425 0.0
C120 C 0.31231 0.47248 0.33492 0.0
C121 C 0.29706 0.44993 0.31519 0.0
C122 C 0.27579 0.44704 0.29611 0.0
C123 C 0.24499 0.46231 0.28043 0.0
C124 C 0.22716 0.46443 0.30218 0.0
C125 C 0.23892 0.45557 0.24448 0.0
C126 C 0.25828 0.45642 0.21922 0.0
C127 C 0.2816 0.47951 0.21405 0.0
C128 C 0.29936 0.48095 0.18889 0.0
C129 C 0.29429 0.45923 0.16847 0.0
C130 C 0.2709 0.43604 0.17395 0.0
C131 C 0.253 0.43472 0.19888 0.0
H132 H 0.74067 0.21065 0.83694 0.0
H133 H 0.70713 0.18264 0.87875 0.0
H134 H 0.70033 0.11563 0.82604 0.0
H135 H 0.73515 0.14366 0.7853 0.0
H136 H 0.78624 0.21994 0.82158 0.0
H137 H 0.70373 0.17766 0.75637 0.0
H138 H 0.66608 0.14069 0.72989 0.0
H139 H 0.7167 0.12381 0.66817 0.0
H140 H 0.75404 0.15986 0.69609 0.0
H141 H 0.81602 0.23316 0.67136 0.0
H142 H 0.83991 0.26836 0.62944 0.0
H143 H 0.83024 0.3204 0.6987 0.0
H144 H 0.80533 0.28497 0.73934 0.0
H145 H 0.76811 0.21103 0.69306 0.0
H146 H 0.85 0.25866 0.74792 0.0
H147 H 0.88818 0.29659 0.77212 0.0
H148 H 0.84088 0.30335 0.85267 0.0
H149 H 0.80259 0.2665 0.82754 0.0
C150 C 0.74022 0.17932 0.8075 0.0
C151 C 0.73242 0.18995 0.83471 0.0
C152 C 0.71325 0.17401 0.85854 0.0
C153 C 0.70126 0.14716 0.85529 0.0
C154 C 0.70936 0.13638 0.82877 0.0
C155 C 0.72906 0.15236 0.80542 0.0
C156 C 0.75939 0.1968 0.78107 0.0
C157 C 0.78221 0.21815 0.79347 0.0
C158 C 0.75479 0.19369 0.74418 0.0
C159 C 0.7317 0.1713 0.72857 0.0
C160 C 0.70665 0.16573 0.73753 0.0
C161 C 0.68516 0.14472 0.72211 0.0
C162 C 0.68831 0.12914 0.69696 0.0
C163 C 0.71347 0.13498 0.68795 0.0
C164 C 0.73489 0.15579 0.7036 0.0
C165 C 0.8092 0.25649 0.70876 0.0
C166 C 0.81898 0.25215 0.67737 0.0
C167 C 0.83278 0.27233 0.65356 0.0
C168 C 0.83701 0.29724 0.66068 0.0
C169 C 0.82705 0.30142 0.69208 0.0
C170 C 0.8131 0.28123 0.71565 0.0
C171 C 0.79413 0.23507 0.73385 0.0
C172 C 0.77232 0.21283 0.72113 0.0
C173 C 0.79971 0.23736 0.77047 0.0
C174 C 0.82324 0.25976 0.78561 0.0
C175 C 0.84774 0.26847 0.7705 0.0
C176 C 0.86956 0.29 0.7844 0.0
C177 C 0.86735 0.30267 0.81426 0.0
C178 C 0.84304 0.29368 0.82981 0.0
C179 C 0.82119 0.27258 0.81549 0.0
H180 H 0.61258 0.83701 0.28902 0.0
H181 H 0.60716 0.86967 0.32036 0.0
H182 H 0.53673 0.84664 0.26224 0.0
H183 H 0.54127 0.81285 0.23321 0.0
H184 H 0.58206 0.78565 0.29083 0.0
H185 H 0.6082 0.85099 0.19621 0.0
H186 H 0.59815 0.87902 0.16052 0.0
H187 H 0.52979 0.81194 0.12096 0.0
H188 H 0.53951 0.78419 0.15717 0.0
H189 H 0.54132 0.72508 0.1675 0.0
H190 H 0.5332 0.68308 0.14663 0.0
H191 H 0.60321 0.69563 0.19727 0.0
H192 H 0.61161 0.73811 0.21751 0.0
H193 H 0.5777 0.77434 0.16065 0.0
H194 H 0.53986 0.71286 0.25046 0.0
H195 H 0.53553 0.67675 0.28508 0.0
H196 H 0.60859 0.72719 0.33583 0.0
H197 H 0.61354 0.76305 0.29899 0.0
C198 C 0.57761 0.82273 0.25827 0.0
C199 C 0.59598 0.83903 0.28307 0.0
C200 C 0.59297 0.8579 0.30071 0.0
C201 C 0.57155 0.86096 0.2938 0.0
C202 C 0.55331 0.84471 0.26865 0.0
C203 C 0.55611 0.82559 0.25151 0.0
C204 C 0.58022 0.80189 0.24082 0.0
C205 C 0.58189 0.78366 0.26233 0.0
C206 C 0.57863 0.79843 0.20365 0.0
C207 C 0.57448 0.81554 0.17959 0.0
C208 C 0.59116 0.84237 0.17966 0.0
C209 C 0.58548 0.85832 0.15913 0.0
C210 C 0.56306 0.84764 0.13822 0.0
C211 C 0.54699 0.82072 0.13722 0.0
C212 C 0.55266 0.80484 0.15763 0.0
C213 C 0.577 0.73468 0.19418 0.0
C214 C 0.55521 0.71905 0.17354 0.0
C215 C 0.55039 0.69489 0.16209 0.0
C216 C 0.56733 0.68589 0.1709 0.0
C217 C 0.5898 0.70205 0.19017 0.0
C218 C 0.5946 0.72627 0.20173 0.0
C219 C 0.57968 0.75841 0.21064 0.0
C220 C 0.57893 0.77701 0.18908 0.0
C221 C 0.58068 0.76154 0.24775 0.0
C222 C 0.57727 0.74049 0.27165 0.0
C223 C 0.55504 0.71611 0.26889 0.0
C224 C 0.55246 0.69552 0.28905 0.0
C225 C 0.57174 0.69899 0.31328 0.0
C226 C 0.59361 0.72372 0.31696 0.0
C227 C 0.59634 0.74431 0.29628 0.0
H228 H 0.71742 0.54345 0.74926 0.0
H229 H 0.67925 0.53838 0.71927 0.0
H230 H 0.72426 0.61512 0.67572 0.0
H231 H 0.76235 0.62054 0.70772 0.0
H232 H 0.78811 0.59062 0.70697 0.0
H233 H 0.7292 0.54287 0.83001 0.0
H234 H 0.68741 0.53422 0.85289 0.0
H235 H 0.70154 0.60763 0.81251 0.0
H236 H 0.74363 0.61641 0.79018 0.0
H237 H 0.8292 0.60479 0.85165 0.0
H238 H 0.85517 0.59234 0.88749 0.0
H239 H 0.83992 0.53146 0.81309 0.0
H240 H 0.81283 0.54302 0.7787 0.0
H241 H 0.77942 0.57827 0.83694 0.0
H242 H 0.8576 0.61351 0.76924 0.0
H243 H 0.89228 0.6101 0.73949 0.0
H244 H 0.83751 0.55734 0.66376 0.0
H245 H 0.80261 0.55943 0.69439 0.0
C246 C 0.74258 0.58249 0.73104 0.0
C247 C 0.71907 0.55922 0.7333 0.0
C248 C 0.69729 0.55628 0.71589 0.0
C249 C 0.69867 0.57635 0.69507 0.0
C250 C 0.72248 0.59945 0.69199 0.0
C251 C 0.74431 0.60248 0.70984 0.0
C252 C 0.76472 0.58592 0.75251 0.0
C253 C 0.7866 0.58835 0.73544 0.0
C254 C 0.76267 0.58337 0.78965 0.0
C255 C 0.73948 0.58024 0.80835 0.0
C256 C 0.72358 0.55736 0.8268 0.0
C257 C 0.69956 0.55229 0.83938 0.0
C258 C 0.69107 0.57009 0.83396 0.0
C259 C 0.70758 0.59358 0.81705 0.0
C260 C 0.7316 0.59861 0.80433 0.0
C261 C 0.81941 0.57512 0.8122 0.0
C262 C 0.83145 0.58874 0.84316 0.0
C263 C 0.84644 0.58171 0.86346 0.0
C264 C 0.84968 0.56091 0.85316 0.0
C265 C 0.83757 0.54733 0.8221 0.0
C266 C 0.82237 0.55418 0.80208 0.0
C267 C 0.80268 0.58189 0.79135 0.0
C268 C 0.78172 0.5815 0.80865 0.0
C269 C 0.80563 0.58611 0.7543 0.0
C270 C 0.82731 0.58646 0.73442 0.0
C271 C 0.85297 0.60111 0.74633 0.0
C272 C 0.87278 0.59931 0.72931 0.0
C273 C 0.86735 0.5835 0.6995 0.0
C274 C 0.84203 0.56975 0.68665 0.0
C275 C 0.82216 0.57108 0.70407 0.0
H276 H 0.23985 0.84222 0.21534 0.0
H277 H 0.27814 0.87954 0.19072 0.0
H278 H 0.32293 0.84263 0.2132 0.0
H279 H 0.28485 0.80616 0.23922 0.0
H280 H 0.22061 0.78646 0.1907 0.0
H281 H 0.25499 0.84322 0.29586 0.0
H282 H 0.29127 0.86849 0.33577 0.0
H283 H 0.29416 0.79971 0.36169 0.0
H284 H 0.2585 0.77478 0.32105 0.0
H285 H 0.19239 0.71599 0.30985 0.0
H286 H 0.15481 0.67795 0.334 0.0
H287 H 0.10454 0.69695 0.27564 0.0
H288 H 0.14226 0.73558 0.25259 0.0
H289 H 0.20922 0.76445 0.31825 0.0
H290 H 0.19613 0.71382 0.21807 0.0
H291 H 0.17164 0.68092 0.17396 0.0
H292 H 0.13771 0.72578 0.13738 0.0
H293 H 0.16359 0.75939 0.18072 0.0
C294 C 0.25964 0.82158 0.22914 0.0
C295 C 0.25804 0.8424 0.21519 0.0
C296 C 0.27993 0.86363 0.20097 0.0
C297 C 0.30373 0.86418 0.19984 0.0
C298 C 0.30516 0.84323 0.21419 0.0
C299 C 0.28336 0.82221 0.22883 0.0
C300 C 0.23632 0.7987 0.24293 0.0
C301 C 0.21771 0.78201 0.21868 0.0
C302 C 0.23364 0.79194 0.2791 0.0
C303 C 0.25423 0.80717 0.30517 0.0
C304 C 0.26346 0.83362 0.31014 0.0
C305 C 0.28402 0.84797 0.3332 0.0
C306 C 0.29566 0.8361 0.35173 0.0
C307 C 0.28584 0.80947 0.34744 0.0
C308 C 0.26532 0.79517 0.32444 0.0
C309 C 0.17019 0.72864 0.27934 0.0
C310 C 0.17328 0.71198 0.30224 0.0
C311 C 0.15176 0.69006 0.31571 0.0
C312 C 0.12665 0.68434 0.30661 0.0
C313 C 0.1236 0.7009 0.28334 0.0
C314 C 0.14515 0.72286 0.2699 0.0
C315 C 0.19308 0.75247 0.26613 0.0
C316 C 0.21166 0.76925 0.29037 0.0
C317 C 0.19672 0.7585 0.22975 0.0
C318 C 0.18142 0.73883 0.20281 0.0
C319 C 0.18341 0.71654 0.20049 0.0
C320 C 0.16923 0.69766 0.17536 0.0
C321 C 0.15239 0.70046 0.15226 0.0
C322 C 0.15067 0.72306 0.15442 0.0
C323 C 0.16527 0.74221 0.17931 0.0
H324 H 0.48444 0.2595 0.80415 0.0
H325 H 0.48707 0.29205 0.84571 0.0
H326 H 0.41758 0.28535 0.80111 0.0
H327 H 0.41489 0.25254 0.75973 0.0
H328 H 0.44692 0.20944 0.79712 0.0
H329 H 0.48955 0.28395 0.71919 0.0
H330 H 0.49705 0.32164 0.68505 0.0
H331 H 0.41947 0.27857 0.64333 0.0
H332 H 0.41276 0.24059 0.67627 0.0
H333 H 0.41891 0.17057 0.65116 0.0
H334 H 0.42698 0.14456 0.60873 0.0
H335 H 0.49195 0.15513 0.67138 0.0
H336 H 0.48483 0.18238 0.71213 0.0
H337 H 0.44764 0.21933 0.66703 0.0
H338 H 0.41329 0.14098 0.73545 0.0
H339 H 0.41402 0.10426 0.76288 0.0
H340 H 0.48056 0.15704 0.82436 0.0
H341 H 0.48014 0.19348 0.79634 0.0
C342 C 0.44955 0.25371 0.77873 0.0
C343 C 0.46977 0.26504 0.80332 0.0
C344 C 0.47132 0.28371 0.82692 0.0
C345 C 0.45252 0.29122 0.82664 0.0
C346 C 0.43221 0.27977 0.8021 0.0
C347 C 0.43078 0.26122 0.77827 0.0
C348 C 0.44787 0.23354 0.75433 0.0
C349 C 0.44714 0.21158 0.76864 0.0
C350 C 0.44746 0.236 0.71729 0.0
C351 C 0.45058 0.25961 0.70031 0.0
C352 C 0.47409 0.28282 0.70301 0.0
C353 C 0.47828 0.30438 0.68351 0.0
C354 C 0.45892 0.30321 0.66117 0.0
C355 C 0.43503 0.28007 0.6596 0.0
C356 C 0.43102 0.25841 0.67869 0.0
C357 C 0.45097 0.17809 0.68521 0.0
C358 C 0.4349 0.16727 0.65568 0.0
C359 C 0.43944 0.15226 0.63156 0.0
C360 C 0.46016 0.14776 0.63654 0.0
C361 C 0.47608 0.15851 0.66631 0.0
C362 C 0.47173 0.17373 0.6901 0.0
C363 C 0.44722 0.19533 0.7097 0.0
C364 C 0.44677 0.21673 0.69546 0.0
C365 C 0.44684 0.19242 0.74686 0.0
C366 C 0.44674 0.16999 0.76372 0.0
C367 C 0.42811 0.14459 0.75468 0.0
C368 C 0.42845 0.12364 0.7705 0.0
C369 C 0.44746 0.12776 0.79558 0.0
C370 C 0.46594 0.15322 0.80469 0.0
C371 C 0.46555 0.17408 0.78899 0.0
C372 C 0.0547 0.48263 0.06829 0.0
C373 C 0.02772 0.47017 0.07022 0.0
C374 C 0.06893 0.47678 0.09205 0.0
C375 C 0.05584 0.45751 0.11795 0.0
C376 C 0.02854 0.44448 0.11972 0.0
C377 C 0.01476 0.45123 0.09606 0.0
C378 C 0.09805 0.49152 0.08968 0.0
C379 C 0.01394 0.42341 0.14645 0.0
C380 C 0.09827 0.43267 0.15425 0.0
C381 C 0.10812 0.4476 0.185 0.0
C382 C 0.07968 0.43423 0.1335 0.0
C383 C 0.07113 0.45155 0.14326 0.0
C384 C 0.07991 0.46563 0.17518 0.0
C385 C 0.09803 0.46323 0.19586 0.0
C386 C 0.07037 0.41848 0.10001 0.0
C387 C 0.0715 0.48452 0.18635 0.0
H388 H 0.06484 0.49749 0.0486 0.0
H389 H 0.99389 0.44148 0.09749 0.0
H390 H 0.10641 0.50127 0.11521 0.0
H391 H 0.1053 0.47803 0.08448 0.0
H392 H 0.10524 0.50632 0.06848 0.0
H393 H 0.99271 0.41462 0.1437 0.0
H394 H 0.01903 0.40805 0.14341 0.0
H395 H 0.01954 0.43125 0.17359 0.0
H396 H 0.10595 0.42064 0.14535 0.0
H397 H 0.10491 0.47429 0.22006 0.0
H398 H 0.07918 0.43128 0.07684 0.0
H399 H 0.04912 0.40946 0.09748 0.0
H400 H 0.07557 0.40309 0.09907 0.0
H401 H 0.07958 0.50107 0.16776 0.0
H402 H 0.07808 0.49206 0.21347 0.0
H403 H 0.05019 0.47537 0.18531 0.0
C404 C 0.58816 0.0366 0.55527 0.0
C405 C 0.56484 0.01649 0.56847 0.0
C406 C 0.60816 0.05299 0.57806 0.0
C407 C 0.60466 0.04941 0.61503 0.0
C408 C 0.58153 0.02857 0.62853 0.0
C409 C 0.56192 0.01222 0.60503 0.0
C410 C 0.6327 0.07473 0.56256 0.0
C411 C 0.57702 0.02426 0.66778 0.0
C412 C 0.66537 0.08455 0.67075 0.0
C413 C 0.66562 0.10757 0.67897 0.0
C414 C 0.64523 0.06505 0.6509 0.0
C415 C 0.62469 0.06849 0.63931 0.0
C416 C 0.62423 0.09114 0.64882 0.0
C417 C 0.64475 0.11045 0.66834 0.0
C418 C 0.64643 0.04119 0.64124 0.0
C419 C 0.60255 0.09545 0.63719 0.0
H420 H 0.59061 0.03989 0.52702 0.0
H421 H 0.54388 0.9968 0.61541 0.0
H422 H 0.63462 0.09353 0.57013 0.0
H423 H 0.64973 0.07432 0.57329 0.0
H424 H 0.63311 0.07374 0.53328 0.0
H425 H 0.55898 0.006 0.67395 0.0
H426 H 0.59346 0.02382 0.68055 0.0
H427 H 0.57572 0.04053 0.67968 0.0
H428 H 0.68113 0.08191 0.67943 0.0
H429 H 0.64485 0.12822 0.67416 0.0
H430 H 0.64873 0.04059 0.61223 0.0
H431 H 0.62817 0.02359 0.64859 0.0
H432 H 0.66273 0.04063 0.65437 0.0
H433 H 0.60296 0.09748 0.60804 0.0
H434 H 0.60392 0.11302 0.64926 0.0
H435 H 0.58362 0.07858 0.64432 0.0
C436 C 0.52704 0.542 0.10376 0.0
C437 C 0.5181 0.54155 0.06937 0.0
C438 C 0.53734 0.56461 0.12437 0.0
C439 C 0.53868 0.58713 0.11014 0.0
C440 C 0.5303 0.58689 0.07517 0.0
C441 C 0.52016 0.56419 0.05531 0.0
C442 C 0.54622 0.56425 0.16154 0.0
C443 C 0.53141 0.61048 0.05889 0.0
C444 C 0.53594 0.63885 0.16392 0.0
C445 C 0.56116 0.65959 0.16009 0.0
C446 C 0.52881 0.61447 0.15006 0.0
C447 C 0.54737 0.61074 0.13191 0.0
C448 C 0.57331 0.63111 0.13012 0.0
C449 C 0.57991 0.65536 0.14427 0.0
C450 C 0.50098 0.59325 0.15271 0.0
C451 C 0.59368 0.62786 0.11113 0.0
H452 H 0.52559 0.52462 0.11476 0.0
H453 H 0.51356 0.56419 0.02866 0.0
H454 H 0.56609 0.5806 0.1656 0.0
H455 H 0.53353 0.56671 0.18063 0.0
H456 H 0.54589 0.54595 0.16768 0.0
H457 H 0.52504 0.60735 0.03088 0.0
H458 H 0.51888 0.61582 0.07402 0.0
H459 H 0.55138 0.62711 0.06014 0.0
H460 H 0.52153 0.6419 0.17692 0.0
H461 H 0.59945 0.67133 0.14133 0.0
H462 H 0.49971 0.57496 0.16136 0.0
H463 H 0.49179 0.58978 0.1263 0.0
H464 H 0.48978 0.59818 0.17143 0.0
H465 H 0.59241 0.60933 0.11852 0.0
H466 H 0.61345 0.64389 0.11699 0.0
H467 H 0.59047 0.62738 0.08222 0.0
C468 C 0.93579 0.52792 0.58254 0.0
C469 C 0.96279 0.54036 0.58377 0.0
C470 C 0.92211 0.53641 0.60334 0.0
C471 C 0.93578 0.55831 0.62528 0.0
C472 C 0.96309 0.57107 0.62655 0.0
C473 C 0.97629 0.56171 0.60609 0.0
C474 C 0.89297 0.52187 0.60182 0.0
C475 C 0.97832 0.5948 0.64905 0.0
C476 C 0.89656 0.59009 0.64882 0.0
C477 C 0.88762 0.58009 0.68255 0.0
C478 C 0.91361 0.58444 0.6307 0.0
C479 C 0.92124 0.56783 0.64641 0.0
C480 C 0.9128 0.55834 0.68103 0.0
C481 C 0.89622 0.5648 0.69884 0.0
C482 C 0.92257 0.59535 0.59415 0.0
C483 C 0.92004 0.54017 0.69843 0.0
H484 H 0.92527 0.51122 0.56561 0.0
H485 H 0.99718 0.57143 0.60694 0.0
H486 H 0.88487 0.51568 0.62874 0.0
H487 H 0.886 0.53467 0.59165 0.0
H488 H 0.88526 0.50454 0.58459 0.0
H489 H 0.99945 0.60246 0.64715 0.0
H490 H 0.97416 0.61012 0.64072 0.0
H491 H 0.97241 0.59035 0.6771 0.0
H492 H 0.88975 0.60189 0.63638 0.0
H493 H 0.889 0.55694 0.72487 0.0
H494 H 0.91354 0.57963 0.57433 0.0
H495 H 0.94378 0.60394 0.59185 0.0
H496 H 0.91745 0.61031 0.58749 0.0
H497 H 0.91098 0.52158 0.68385 0.0
H498 H 0.91367 0.53624 0.72643 0.0
H499 H 0.94122 0.54821 0.69741 0.0
C500 C 0.42142 0.94127 0.07334 0.0
C501 C 0.43596 0.96816 0.07713 0.0
C502 C 0.40022 0.92631 0.09521 0.0
C503 C 0.39299 0.93853 0.12117 0.0
C504 C 0.40737 0.96571 0.12494 0.0
C505 C 0.42891 0.98022 0.10308 0.0
C506 C 0.38568 0.89733 0.0907 0.0
C507 C 0.3999 0.97943 0.15187 0.0
C508 C 0.32366 0.89681 0.15106 0.0
C509 C 0.32663 0.88573 0.18211 0.0
C510 C 0.34516 0.91531 0.13214 0.0
C511 C 0.37029 0.92256 0.1441 0.0
C512 C 0.37348 0.91232 0.17613 0.0
C513 C 0.35164 0.89424 0.19491 0.0
C514 C 0.34095 0.92608 0.09838 0.0
C515 C 0.39995 0.91939 0.18963 0.0
H516 H 0.42691 0.93178 0.05358 0.0
H517 H 0.44004 0.00101 0.10603 0.0
H518 H 0.38563 0.88789 0.11593 0.0
H519 H 0.36528 0.89059 0.08373 0.0
H520 H 0.39419 0.89081 0.06982 0.0
H521 H 0.41288 0.00068 0.15119 0.0
H522 H 0.37983 0.97504 0.14701 0.0
H523 H 0.40041 0.97241 0.17879 0.0
H524 H 0.30453 0.89027 0.1406 0.0
H525 H 0.35419 0.88632 0.21929 0.0
H526 H 0.34628 0.91816 0.07544 0.0
H527 H 0.35347 0.94738 0.0977 0.0
H528 H 0.32054 0.9212 0.09521 0.0
H529 H 0.40903 0.91178 0.17127 0.0
H530 H 0.39924 0.91146 0.21638 0.0
H531 H 0.4126 0.94065 0.19055 0.0
C532 C 0.47007 0.42448 0.55702 0.0
C533 C 0.49165 0.43586 0.53469 0.0
C534 C 0.46373 0.40195 0.57592 0.0
C535 C 0.47972 0.39087 0.57305 0.0
C536 C 0.50124 0.40196 0.54995 0.0
C537 C 0.50679 0.42421 0.5307 0.0
C538 C 0.44027 0.39036 0.59961 0.0
C539 C 0.51898 0.39093 0.54666 0.0
C540 C 0.47926 0.35102 0.65129 0.0
C541 C 0.46396 0.32572 0.63872 0.0
C542 C 0.48488 0.37236 0.62997 0.0
C543 C 0.47451 0.36837 0.59544 0.0
C544 C 0.4588 0.34295 0.58266 0.0
C545 C 0.45395 0.32196 0.60428 0.0
C546 C 0.50192 0.39921 0.64443 0.0
C547 C 0.44706 0.33793 0.54619 0.0
H548 H 0.4582 0.43335 0.55996 0.0
H549 H 0.52361 0.43309 0.51368 0.0
H550 H 0.42766 0.36959 0.59344 0.0
H551 H 0.44633 0.39175 0.62758 0.0
H552 H 0.4288 0.40021 0.59686 0.0
H553 H 0.53426 0.40118 0.52649 0.0
H554 H 0.52834 0.39231 0.57249 0.0
H555 H 0.50779 0.37019 0.53954 0.0
H556 H 0.48676 0.35422 0.67799 0.0
H557 H 0.44254 0.30257 0.59394 0.0
H558 H 0.49097 0.40963 0.64579 0.0
H559 H 0.51857 0.41031 0.62652 0.0
H560 H 0.50937 0.39902 0.67122 0.0
H561 H 0.43506 0.34717 0.54344 0.0
H562 H 0.43486 0.317 0.54046 0.0
H563 H 0.46252 0.34664 0.52597 0.0
C564 C 0.5484 0.94611 0.43438 0.0
C565 C 0.54301 0.96426 0.41925 0.0
C566 C 0.55524 0.93117 0.41333 0.0
C567 C 0.55626 0.93411 0.37617 0.0
C568 C 0.55164 0.95299 0.36079 0.0
C569 C 0.54529 0.96802 0.38258 0.0
C570 C 0.5605 0.9116 0.43081 0.0
C571 C 0.55219 0.95644 0.32125 0.0
C572 C 0.5888 0.90441 0.32288 0.0
C573 C 0.5677 0.88032 0.31365 0.0
C574 C 0.5854 0.92228 0.34289 0.0
C575 C 0.56027 0.91611 0.35345 0.0
C576 C 0.53884 0.89214 0.34354 0.0
C577 C 0.54283 0.87448 0.32411 0.0
C578 C 0.60874 0.94755 0.35329 0.0
C579 C 0.51168 0.8849 0.35403 0.0
H580 H 0.54689 0.94328 0.46275 0.0
H581 H 0.54101 0.98194 0.37074 0.0
H582 H 0.54516 0.89184 0.42358 0.0
H583 H 0.57911 0.91394 0.42136 0.0
H584 H 0.56119 0.91332 0.46006 0.0
H585 H 0.55009 0.97321 0.31362 0.0
H586 H 0.57051 0.95911 0.31009 0.0
H587 H 0.53624 0.93881 0.30902 0.0
H588 H 0.60805 0.90935 0.3145 0.0
H589 H 0.52641 0.85579 0.31781 0.0
H590 H 0.61037 0.94894 0.3825 0.0
H591 H 0.60658 0.96393 0.344 0.0
H592 H 0.62693 0.94969 0.34231 0.0
H593 H 0.50974 0.8834 0.3832 0.0
H594 H 0.497 0.86623 0.34233 0.0
H595 H 0.50743 0.90012 0.34554 0.0
C596 C 0.5643 0.51969 0.94268 0.0
C597 C 0.54344 0.52079 0.92767 0.0
C598 C 0.58787 0.5295 0.92495 0.0
C599 C 0.5908 0.54072 0.89119 0.0
C600 C 0.57003 0.54233 0.87597 0.0
C601 C 0.54653 0.53235 0.89445 0.0
C602 C 0.60954 0.52743 0.94219 0.0
C603 C 0.57253 0.55418 0.83999 0.0
C604 C 0.6609 0.58172 0.86396 0.0
C605 C 0.66481 0.56372 0.8453 0.0
C606 C 0.63643 0.57501 0.87732 0.0
C607 C 0.61545 0.54976 0.87175 0.0
C608 C 0.61903 0.53202 0.85122 0.0
C609 C 0.64368 0.53921 0.83832 0.0
C610 C 0.63338 0.59446 0.89911 0.0
C611 C 0.59714 0.50497 0.84447 0.0
H612 H 0.56224 0.51097 0.96844 0.0
H613 H 0.53053 0.5333 0.8827 0.0
H614 H 0.61464 0.51529 0.92571 0.0
H615 H 0.62702 0.54679 0.94424 0.0
H616 H 0.60437 0.51888 0.96905 0.0
H617 H 0.55506 0.55511 0.83257 0.0
H618 H 0.58949 0.57396 0.83935 0.0
H619 H 0.57582 0.54269 0.81977 0.0
H620 H 0.67719 0.6007 0.86938 0.0
H621 H 0.64654 0.52544 0.8232 0.0
H622 H 0.63052 0.58847 0.92724 0.0
H623 H 0.61608 0.59528 0.89059 0.0
H624 H 0.65053 0.6141 0.89719 0.0
H625 H 0.59176 0.49387 0.86952 0.0
H626 H 0.60238 0.49457 0.82478 0.0
H627 H 0.57985 0.50538 0.83489 0.0
C628 C 0.00636 0.56031 0.39836 0.0
C629 C 0.01356 0.5619 0.43395 0.0
C630 C 0.02194 0.57989 0.37431 0.0
C631 C 0.04518 0.60145 0.38621 0.0
C632 C 0.05187 0.60366 0.42239 0.0
C633 C 0.03599 0.58393 0.44576 0.0
C634 C 0.01409 0.57703 0.33597 0.0
C635 C 0.07644 0.62637 0.43623 0.0
C636 C 0.10355 0.63841 0.32727 0.0
C637 C 0.10388 0.66182 0.32279 0.0
C638 C 0.08369 0.61799 0.34621 0.0
C639 C 0.06359 0.62101 0.3609 0.0
C640 C 0.06299 0.64402 0.35471 0.0
C641 C 0.0832 0.66419 0.33581 0.0
C642 C 0.085 0.59373 0.35212 0.0
C643 C 0.04182 0.64791 0.36976 0.0
H644 H 0.98907 0.54336 0.38903 0.0
H645 H 0.04162 0.58547 0.47325 0.0
H646 H 0.01519 0.59501 0.32617 0.0
H647 H 0.02763 0.57368 0.31987 0.0
H648 H 0.99421 0.56068 0.33167 0.0
H649 H 0.07813 0.62585 0.4654 0.0
H650 H 0.09338 0.62649 0.42406 0.0
H651 H 0.07732 0.64473 0.42889 0.0
H652 H 0.11919 0.63625 0.31665 0.0
H653 H 0.08337 0.68227 0.33267 0.0
H654 H 0.0663 0.57644 0.34535 0.0
H655 H 0.08877 0.59221 0.38047 0.0
H656 H 0.10048 0.59345 0.33624 0.0
H657 H 0.02263 0.63075 0.36467 0.0
H658 H 0.04212 0.66519 0.35852 0.0
H659 H 0.04417 0.65037 0.39882 0.0
C660 C 0.45683 0.01196 0.89088 0.0
C661 C 0.46254 0.01963 0.92631 0.0
C662 C 0.4515 0.02653 0.86674 0.0
C663 C 0.45193 0.04923 0.87839 0.0
C664 C 0.45638 0.05628 0.91448 0.0
C665 C 0.46161 0.04141 0.93794 0.0
C666 C 0.44661 0.01831 0.82851 0.0
C667 C 0.4569 0.08028 0.92806 0.0
C668 C 0.47152 0.10656 0.81823 0.0
C669 C 0.44796 0.10577 0.81294 0.0
C670 C 0.47285 0.08747 0.83798 0.0
C671 C 0.45002 0.06701 0.85275 0.0
C672 C 0.42597 0.06532 0.84589 0.0
C673 C 0.42522 0.08476 0.82607 0.0
C674 C 0.49889 0.08994 0.84451 0.0
C675 C 0.40121 0.04373 0.86103 0.0
H676 H 0.45745 0.99512 0.88169 0.0
H677 H 0.46574 0.04737 0.96533 0.0
H678 H 0.42931 0.01858 0.81863 0.0
H679 H 0.46325 0.03212 0.81225 0.0
H680 H 0.44382 0.99868 0.82452 0.0
H681 H 0.45883 0.08206 0.95725 0.0
H682 H 0.47339 0.09761 0.91607 0.0
H683 H 0.43902 0.08025 0.92029 0.0
H684 H 0.48908 0.12248 0.80751 0.0
H685 H 0.40695 0.08409 0.82218 0.0
H686 H 0.49833 0.07161 0.83796 0.0
H687 H 0.50388 0.09391 0.87292 0.0
H688 H 0.51444 0.10573 0.82878 0.0
H689 H 0.39993 0.02482 0.85641 0.0
H690 H 0.38391 0.04322 0.84946 0.0
H691 H 0.40093 0.04631 0.89002 0.0
C692 C 0.41891 0.49743 0.48101 0.0
C693 C 0.43722 0.49145 0.46789 0.0
C694 C 0.39761 0.49321 0.46044 0.0
C695 C 0.39465 0.48285 0.42598 0.0
C696 C 0.41263 0.47606 0.41305 0.0
C697 C 0.43363 0.48038 0.43416 0.0
C698 C 0.37868 0.50051 0.47518 0.0
C699 C 0.41014 0.46497 0.37644 0.0
C700 C 0.3299 0.45439 0.37941 0.0
C701 C 0.33364 0.47486 0.35749 0.0
C702 C 0.3495 0.45678 0.40211 0.0
C703 C 0.37343 0.48014 0.40274 0.0
C704 C 0.37737 0.5008 0.38049 0.0
C705 C 0.3574 0.49793 0.35819 0.0
C706 C 0.34457 0.43438 0.42555 0.0
C707 C 0.40274 0.52592 0.38015 0.0
H708 H 0.4215 0.50594 0.50704 0.0
H709 H 0.44761 0.47561 0.42377 0.0
H710 H 0.37939 0.51641 0.45929 0.0
H711 H 0.35873 0.48391 0.47336 0.0
H712 H 0.38282 0.50686 0.50317 0.0
H713 H 0.4251 0.45961 0.37096 0.0
H714 H 0.39084 0.44759 0.37305 0.0
H715 H 0.41189 0.47929 0.35642 0.0
H716 H 0.31142 0.43666 0.37933 0.0
H717 H 0.36043 0.5137 0.34106 0.0
H718 H 0.34717 0.44044 0.45366 0.0
H719 H 0.35876 0.4281 0.41969 0.0
H720 H 0.32483 0.41761 0.4221 0.0
H721 H 0.40717 0.53451 0.40699 0.0
H722 H 0.40261 0.54017 0.36149 0.0
H723 H 0.41858 0.52234 0.37255 0.0
C724 C 0.94917 0.43204 0.91372 0.0
C725 C 0.97564 0.44158 0.91821 0.0
C726 C 0.9341 0.40997 0.89338 0.0
C727 C 0.94563 0.39661 0.87804 0.0
C728 C 0.97252 0.40644 0.88193 0.0
C729 C 0.98735 0.42914 0.90162 0.0
C730 C 0.90566 0.40061 0.88911 0.0
C731 C 0.98536 0.3924 0.86661 0.0
C732 C 0.89623 0.32614 0.86486 0.0
C733 C 0.8901 0.32561 0.8291 0.0
C734 C 0.91573 0.34876 0.88053 0.0
C735 C 0.92893 0.37154 0.86006 0.0
C736 C 0.92358 0.37076 0.82349 0.0
C737 C 0.90432 0.34766 0.80833 0.0
C738 C 0.92117 0.34862 0.91944 0.0
C739 C 0.93688 0.39469 0.80091 0.0
H740 H 0.94022 0.44191 0.92622 0.0
H741 H 0.00784 0.43654 0.90527 0.0
H742 H 0.90024 0.3974 0.86077 0.0
H743 H 0.89417 0.38187 0.90286 0.0
H744 H 0.90023 0.41447 0.90005 0.0
H745 H 0.00667 0.40354 0.86966 0.0
H746 H 0.9779 0.37354 0.88009 0.0
H747 H 0.98064 0.38835 0.83816 0.0
H748 H 0.88531 0.30896 0.88077 0.0
H749 H 0.89941 0.3472 0.78068 0.0
H750 H 0.91388 0.35972 0.93414 0.0
H751 H 0.94226 0.3581 0.92419 0.0
H752 H 0.91181 0.32876 0.93039 0.0
H753 H 0.92997 0.40812 0.8085 0.0
H754 H 0.933 0.39021 0.77233 0.0
H755 H 0.95804 0.40492 0.80528 0.0
C756 C 0.94956 0.52232 0.92695 0.0
C757 C 0.94717 0.51653 0.96312 0.0
C758 C 0.93325 0.52955 0.91031 0.0
C759 C 0.91429 0.53137 0.93041 0.0
C760 C 0.91188 0.52577 0.96701 0.0
C761 C 0.92825 0.51822 0.98292 0.0
C762 C 0.93619 0.53503 0.87111 0.0
C763 C 0.89205 0.52782 0.98931 0.0
C764 C 0.88881 0.5722 0.88994 0.0
C765 C 0.86562 0.55334 0.87463 0.0
C766 C 0.90445 0.56529 0.90919 0.0
C767 C 0.89688 0.53891 0.91283 0.0
C768 C 0.87331 0.51976 0.89798 0.0
C769 C 0.85789 0.5272 0.87929 0.0
C770 C 0.92939 0.58624 0.92487 0.0
C771 C 0.86468 0.49143 0.90111 0.0
H772 H 0.96401 0.52087 0.91141 0.0
H773 H 0.92639 0.51388 0.01091 0.0
H774 H 0.91784 0.5219 0.85738 0.0
H775 H 0.94049 0.55505 0.86612 0.0
H776 H 0.95182 0.53258 0.85927 0.0
H777 H 0.89295 0.52323 0.01752 0.0
H778 H 0.89503 0.54763 0.98757 0.0
H779 H 0.87239 0.51444 0.97918 0.0
H780 H 0.89511 0.59244 0.88616 0.0
H781 H 0.83975 0.51248 0.86819 0.0
H782 H 0.94598 0.58627 0.91172 0.0
H783 H 0.93039 0.5825 0.95336 0.0
H784 H 0.93156 0.60569 0.92192 0.0
H785 H 0.87889 0.48744 0.88791 0.0
H786 H 0.84543 0.47892 0.88902 0.0
H787 H 0.86385 0.48601 0.92929 0.0
C788 C 0.41764 0.91141 0.48228 0.0
C789 C 0.43609 0.93374 0.46479 0.0
C790 C 0.39367 0.89473 0.46651 0.0
C791 C 0.38813 0.90052 0.43249 0.0
C792 C 0.40655 0.92318 0.41496 0.0
C793 C 0.43023 0.9395 0.43132 0.0
C794 C 0.37442 0.87075 0.486 0.0
C795 C 0.40143 0.93002 0.3786 0.0
C796 C 0.33991 0.84776 0.37227 0.0
C797 C 0.31864 0.85157 0.3743 0.0
C798 C 0.36232 0.86299 0.392 0.0
C799 C 0.36353 0.88254 0.41436 0.0
C800 C 0.3419 0.88607 0.41725 0.0
C801 C 0.31972 0.87058 0.39709 0.0
C802 C 0.38504 0.85877 0.38796 0.0
C803 C 0.34244 0.90664 0.44093 0.0
H804 H 0.42197 0.90685 0.50816 0.0
H805 H 0.44431 0.95671 0.41755 0.0
H806 H 0.35571 0.87028 0.48837 0.0
H807 H 0.37079 0.85337 0.47086 0.0
H808 H 0.3812 0.86957 0.51287 0.0
H809 H 0.41753 0.94869 0.36896 0.0
H810 H 0.39846 0.91469 0.35952 0.0
H811 H 0.38351 0.93118 0.37886 0.0
H812 H 0.33933 0.83333 0.35436 0.0
H813 H 0.30322 0.87338 0.39908 0.0
H814 H 0.39158 0.85611 0.41422 0.0
H815 H 0.40143 0.87603 0.37571 0.0
H816 H 0.3804 0.84169 0.3713 0.0
H817 H 0.34823 0.90473 0.46808 0.0
H818 H 0.32343 0.90568 0.44216 0.0
H819 H 0.35702 0.92598 0.43107 0.0
C820 C 0.45775 0.41045 0.92581 0.0
C821 C 0.46618 0.4135 0.961 0.0
C822 C 0.45429 0.38937 0.9055 0.0
C823 C 0.45915 0.37066 0.92077 0.0
C824 C 0.46668 0.37302 0.95666 0.0
C825 C 0.47022 0.3945 0.97635 0.0
C826 C 0.44636 0.38766 0.86727 0.0
C827 C 0.47174 0.35327 0.97393 0.0
C828 C 0.43251 0.30735 0.87062 0.0
C829 C 0.4543 0.31112 0.85172 0.0
C830 C 0.43396 0.32623 0.89409 0.0
C831 C 0.45768 0.34951 0.8984 0.0
C832 C 0.47979 0.35328 0.87964 0.0
C833 C 0.47785 0.33399 0.85665 0.0
C834 C 0.41004 0.32142 0.91388 0.0
C835 C 0.50536 0.37798 0.88314 0.0
H836 H 0.45452 0.42497 0.91364 0.0
H837 H 0.47667 0.39665 0.00353 0.0
H838 H 0.46198 0.38906 0.84993 0.0
H839 H 0.42891 0.36874 0.86195 0.0
H840 H 0.44225 0.40319 0.85984 0.0
H841 H 0.47546 0.35677 0.00271 0.0
H842 H 0.45504 0.33359 0.96995 0.0
H843 H 0.48874 0.35374 0.96142 0.0
H844 H 0.41435 0.28954 0.86719 0.0
H845 H 0.49466 0.33707 0.84183 0.0
H846 H 0.40436 0.33565 0.90557 0.0
H847 H 0.41403 0.32408 0.94265 0.0
H848 H 0.39352 0.30171 0.9092 0.0
H849 H 0.50342 0.39449 0.87378 0.0
H850 H 0.52091 0.37749 0.86773 0.0
H851 H 0.51128 0.38164 0.91127 0.0
C852 C 0.03907 0.47857 0.45278 0.0
C853 C 0.04541 0.4918 0.48515 0.0
C854 C 0.05687 0.47411 0.43462 0.0
C855 C 0.08165 0.48298 0.44921 0.0
C856 C 0.0879 0.49546 0.48251 0.0
C857 C 0.06969 0.49977 0.50011 0.0
C858 C 0.04943 0.46072 0.39917 0.0
C859 C 0.1141 0.50501 0.49896 0.0
C860 C 0.12016 0.45471 0.4086 0.0
C861 C 0.13561 0.47388 0.38416 0.0
C862 C 0.1031 0.45777 0.43088 0.0
C863 C 0.10135 0.48044 0.42842 0.0
C864 C 0.11724 0.50004 0.40422 0.0
C865 C 0.13422 0.49654 0.38244 0.0
C866 C 0.08657 0.43652 0.4565 0.0
C867 C 0.11576 0.52439 0.40055 0.0
H868 H 0.02032 0.4722 0.44103 0.0
H869 H 0.07474 0.50996 0.52513 0.0
H870 H 0.06187 0.47417 0.37823 0.0
H871 H 0.05255 0.44395 0.39899 0.0
H872 H 0.02896 0.45387 0.39235 0.0
H873 H 0.11523 0.51245 0.52618 0.0
H874 H 0.11877 0.48927 0.49981 0.0
H875 H 0.12909 0.52072 0.48255 0.0
H876 H 0.12144 0.43732 0.41032 0.0
H877 H 0.14593 0.51129 0.36334 0.0
H878 H 0.06594 0.42798 0.44922 0.0
H879 H 0.08882 0.44447 0.48359 0.0
H880 H 0.09149 0.42093 0.45686 0.0
H881 H 0.0963 0.5195 0.39103 0.0
H882 H 0.13037 0.53832 0.3818 0.0
H883 H 0.11865 0.53394 0.42661 0.0
C884 C 0.58147 0.04269 0.96636 0.0
C885 C 0.56735 0.05321 0.98132 0.0
C886 C 0.60485 0.05837 0.94887 0.0
C887 C 0.61382 0.08507 0.94523 0.0
C888 C 0.59997 0.09591 0.96121 0.0
C889 C 0.57701 0.07984 0.9796 0.0
C890 C 0.61942 0.0462 0.93315 0.0
C891 C 0.6086 0.12417 0.95716 0.0
C892 C 0.6827 0.12992 0.91476 0.0
C893 C 0.67925 0.13059 0.8783 0.0
C894 C 0.6616 0.11498 0.93699 0.0
C895 C 0.63649 0.1011 0.92234 0.0
C896 C 0.63299 0.10204 0.88547 0.0
C897 C 0.65452 0.11655 0.86381 0.0
C898 C 0.66615 0.11388 0.97599 0.0
C899 C 0.60649 0.08795 0.86892 0.0
H900 H 0.574 0.02206 0.96795 0.0
H901 H 0.5659 0.08786 0.99092 0.0
H902 H 0.61846 0.04651 0.90391 0.0
H903 H 0.64009 0.05735 0.94071 0.0
H904 H 0.61145 0.02588 0.9418 0.0
H905 H 0.59668 0.1299 0.9731 0.0
H906 H 0.62907 0.13625 0.96516 0.0
H907 H 0.60725 0.12843 0.92898 0.0
H908 H 0.70195 0.14094 0.92577 0.0
H909 H 0.65199 0.11745 0.83559 0.0
H910 H 0.65883 0.09358 0.98412 0.0
H911 H 0.65532 0.12114 0.99139 0.0
H912 H 0.6869 0.12545 0.98307 0.0
H913 H 0.59777 0.06688 0.87311 0.0
H914 H 0.60701 0.09162 0.84009 0.0
H915 H 0.59366 0.09397 0.88175 0.0
C916 C 0.55202 0.5903 0.45096 0.0
C917 C 0.54474 0.56666 0.43447 0.0
C918 C 0.55961 0.61267 0.43109 0.0
C919 C 0.55935 0.61121 0.39378 0.0
C920 C 0.55317 0.58764 0.37699 0.0
C921 C 0.54617 0.56561 0.39763 0.0
C922 C 0.56661 0.63756 0.45001 0.0
C923 C 0.55235 0.58528 0.33725 0.0
C924 C 0.54454 0.65819 0.34706 0.0
C925 C 0.56889 0.67674 0.33434 0.0
C926 C 0.54118 0.63654 0.36571 0.0
C927 C 0.56279 0.63358 0.3726 0.0
C928 C 0.5875 0.65235 0.36034 0.0
C929 C 0.59023 0.67362 0.3411 0.0
C930 C 0.51445 0.61687 0.37822 0.0
C931 C 0.61102 0.65 0.36771 0.0
H932 H 0.55122 0.59118 0.47952 0.0
H933 H 0.54044 0.5473 0.38488 0.0
H934 H 0.58482 0.65365 0.43925 0.0
H935 H 0.55126 0.6425 0.44572 0.0
H936 H 0.56893 0.6362 0.4789 0.0
H937 H 0.5498 0.56645 0.32837 0.0
H938 H 0.53605 0.5872 0.32692 0.0
H939 H 0.5703 0.601 0.32541 0.0
H940 H 0.52802 0.66065 0.34266 0.0
H941 H 0.60906 0.68764 0.33098 0.0
H942 H 0.51401 0.61607 0.4075 0.0
H943 H 0.50932 0.59739 0.36846 0.0
H944 H 0.4995 0.62137 0.36912 0.0
H945 H 0.6136 0.64935 0.39664 0.0
H946 H 0.62889 0.6663 0.35645 0.0
H947 H 0.60837 0.6317 0.35651 0.0
C948 C 0.4877 0.04401 0.55349 0.0
C949 C 0.49264 0.04546 0.51709 0.0
C950 C 0.48183 0.06133 0.5701 0.0
C951 C 0.48042 0.0804 0.54976 0.0
C952 C 0.48485 0.0817 0.51285 0.0
C953 C 0.49117 0.06433 0.49695 0.0
C954 C 0.47765 0.05955 0.60962 0.0
C955 C 0.48307 0.10152 0.4903 0.0
C956 C 0.44474 0.10943 0.59624 0.0
C957 C 0.46521 0.13183 0.61109 0.0
C958 C 0.44941 0.09323 0.57441 0.0
C959 C 0.47514 0.09936 0.56773 0.0
C960 C 0.49587 0.12243 0.58147 0.0
C961 C 0.49065 0.13848 0.60268 0.0
C962 C 0.42681 0.06894 0.55985 0.0
C963 C 0.52359 0.12954 0.57522 0.0
H964 H 0.48898 0.02961 0.56931 0.0
H965 H 0.49485 0.06544 0.46879 0.0
H966 H 0.49204 0.07788 0.62232 0.0
H967 H 0.45825 0.05662 0.61584 0.0
H968 H 0.47933 0.0435 0.62155 0.0
H969 H 0.48583 0.09919 0.46178 0.0
H970 H 0.46397 0.10003 0.49395 0.0
H971 H 0.49792 0.1212 0.49865 0.0
H972 H 0.42502 0.104 0.60271 0.0
H973 H 0.5066 0.15608 0.61324 0.0
H974 H 0.42547 0.05189 0.57337 0.0
H975 H 0.42955 0.06696 0.53126 0.0
H976 H 0.40825 0.06865 0.56359 0.0
H977 H 0.52742 0.11524 0.58838 0.0
H978 H 0.53746 0.14902 0.58558 0.0
H979 H 0.52724 0.129 0.5466 0.0
C980 C 0.40019 0.48747 0.01801 0.0
C981 C 0.41075 0.47145 0.02323 0.0
C982 C 0.37951 0.48472 0.03891 0.0
C983 C 0.36895 0.46522 0.06511 0.0
C984 C 0.37848 0.44796 0.06879 0.0
C985 C 0.39941 0.45144 0.04805 0.0
C986 C 0.37007 0.50367 0.03443 0.0
C987 C 0.36744 0.42659 0.09588 0.0
C988 C 0.33991 0.47575 0.14828 0.0
C989 C 0.31332 0.46089 0.1416 0.0
C990 C 0.35812 0.47778 0.12323 0.0
C991 C 0.34964 0.46424 0.09085 0.0
C992 C 0.32289 0.44915 0.08386 0.0
C993 C 0.30506 0.4478 0.10919 0.0
C994 C 0.3865 0.4942 0.13165 0.0
C995 C 0.31311 0.43421 0.04981 0.0
H996 H 0.40901 0.50306 0.99902 0.0
H997 H 0.40739 0.43888 0.05196 0.0
H998 H 0.34873 0.49337 0.03231 0.0
H999 H 0.37544 0.51632 0.05805 0.0
H1000 H 0.37845 0.51601 0.0107 0.0
H1001 H 0.37506 0.41316 0.09275 0.0
H1002 H 0.37231 0.43501 0.12281 0.0
H1003 H 0.34609 0.41538 0.09388 0.0
H1004 H 0.34658 0.48557 0.17339 0.0
H1005 H 0.28461 0.4366 0.10344 0.0
H1006 H 0.39644 0.50861 0.11041 0.0
H1007 H 0.39551 0.48192 0.13292 0.0
H1008 H 0.38992 0.50458 0.15719 0.0
H1009 H 0.32094 0.44749 0.02693 0.0
H1010 H 0.29171 0.42358 0.04823 0.0
H1011 H 0.31997 0.42015 0.04736 0.0
C1012 C 0.93631 0.43119 0.57728 0.0
C1013 C 0.93362 0.43432 0.54111 0.0
C1014 C 0.91997 0.40788 0.59445 0.0
C1015 C 0.90061 0.387 0.57491 0.0
C1016 C 0.89799 0.38983 0.53827 0.0
C1017 C 0.91443 0.41357 0.52181 0.0
C1018 C 0.9232 0.40574 0.63367 0.0
C1019 C 0.87778 0.36784 0.51655 0.0
C1020 C 0.87444 0.32189 0.61954 0.0
C1021 C 0.85207 0.31897 0.63588 0.0
C1022 C 0.88981 0.34337 0.59818 0.0
C1023 C 0.88281 0.36251 0.59337 0.0
C1024 C 0.85981 0.35925 0.60877 0.0
C1025 C 0.84465 0.33745 0.62963 0.0
C1026 C 0.91409 0.34607 0.58192 0.0
C1027 C 0.85174 0.37929 0.6044 0.0
H1028 H 0.95099 0.44716 0.59245 0.0
H1029 H 0.91234 0.41582 0.49381 0.0
H1030 H 0.90513 0.40127 0.64769 0.0
H1031 H 0.92692 0.38968 0.63899 0.0
H1032 H 0.9393 0.42376 0.64496 0.0
H1033 H 0.87883 0.37287 0.48812 0.0
H1034 H 0.88013 0.35067 0.51912 0.0
H1035 H 0.85825 0.3623 0.52654 0.0
H1036 H 0.88046 0.30785 0.62442 0.0
H1037 H 0.8271 0.33506 0.64149 0.0
H1038 H 0.93122 0.36231 0.59466 0.0
H1039 H 0.91499 0.35064 0.55338 0.0
H1040 H 0.91536 0.32829 0.58501 0.0
H1041 H 0.86617 0.39757 0.61719 0.0
H1042 H 0.83253 0.37311 0.61626 0.0
H1043 H 0.85112 0.38348 0.57601 0.0
C1044 C 0.52669 0.95027 0.06636 0.0
C1045 C 0.51622 0.94459 0.03219 0.0
C1046 C 0.53536 0.93501 0.08272 0.0
C1047 C 0.53363 0.91358 0.06441 0.0
C1048 C 0.52355 0.908 0.02967 0.0
C1049 C 0.51489 0.92354 0.01398 0.0
C1050 C 0.54587 0.9415 0.11988 0.0
C1051 C 0.52151 0.88534 0.00932 0.0
C1052 C 0.57396 0.88547 0.09893 0.0
C1053 C 0.55568 0.86443 0.1187 0.0
C1054 C 0.56699 0.90146 0.0806 0.0
C1055 C 0.54122 0.89634 0.08239 0.0
C1056 C 0.52271 0.87512 0.10231 0.0
C1057 C 0.53017 0.85942 0.12019 0.0
C1058 C 0.5872 0.92388 0.0595 0.0
C1059 C 0.4951 0.86919 0.10518 0.0
H1060 H 0.52784 0.96651 0.08066 0.0
H1061 H 0.50693 0.91908 0.98752 0.0
H1062 H 0.53351 0.92535 0.13788 0.0
H1063 H 0.56553 0.94404 0.12088 0.0
H1064 H 0.54676 0.95936 0.12999 0.0
H1065 H 0.51444 0.88437 0.98194 0.0
H1066 H 0.54061 0.88655 0.00817 0.0
H1067 H 0.50811 0.86711 0.02309 0.0
H1068 H 0.59365 0.88927 0.09752 0.0
H1069 H 0.51608 0.84342 0.13591 0.0
H1070 H 0.58965 0.94225 0.07011 0.0
H1071 H 0.58088 0.92234 0.03162 0.0
H1072 H 0.60621 0.92482 0.06003 0.0
H1073 H 0.49452 0.88572 0.1175 0.0
H1074 H 0.48298 0.85164 0.12115 0.0
H1075 H 0.48646 0.86639 0.07848 0.0
C1076 C 0.5609 0.54356 0.61726 0.0
C1077 C 0.56289 0.54529 0.5804 0.0
C1078 C 0.58299 0.5515 0.63821 0.0
C1079 C 0.60747 0.56176 0.62175 0.0
C1080 C 0.60964 0.56538 0.58473 0.0
C1081 C 0.58728 0.55683 0.56448 0.0
C1082 C 0.57991 0.54714 0.6776 0.0
C1083 C 0.63541 0.57671 0.5662 0.0
C1084 C 0.66966 0.59301 0.67497 0.0
C1085 C 0.67524 0.57288 0.6766 0.0
C1086 C 0.64737 0.58962 0.6578 0.0
C1087 C 0.63024 0.5655 0.6422 0.0
C1088 C 0.63562 0.54505 0.64416 0.0
C1089 C 0.65813 0.54906 0.66103 0.0
C1090 C 0.64234 0.61191 0.65589 0.0
C1091 C 0.61782 0.519 0.62786 0.0
H1092 H 0.542 0.53458 0.62952 0.0
H1093 H 0.58882 0.55849 0.53594 0.0
H1094 H 0.58304 0.53093 0.68465 0.0
H1095 H 0.59453 0.56445 0.69202 0.0
H1096 H 0.56038 0.54238 0.68679 0.0
H1097 H 0.63419 0.58139 0.53813 0.0
H1098 H 0.64997 0.59452 0.5798 0.0
H1099 H 0.64241 0.56271 0.567 0.0
H1100 H 0.68261 0.61135 0.68736 0.0
H1101 H 0.6625 0.53355 0.66159 0.0
H1102 H 0.62302 0.60614 0.66693 0.0
H1103 H 0.64229 0.61735 0.62789 0.0
H1104 H 0.65706 0.62913 0.67046 0.0
H1105 H 0.59786 0.51136 0.63783 0.0
H1106 H 0.62397 0.50469 0.63365 0.0
H1107 H 0.6173 0.52096 0.59878 0.0
C1108 C 0.08387 0.58502 0.01168 0.0
C1109 C 0.05707 0.57271 0.01614 0.0
C1110 C 0.10029 0.60759 0.03064 0.0
C1111 C 0.08951 0.61824 0.05393 0.0
C1112 C 0.06239 0.60678 0.05661 0.0
C1113 C 0.04651 0.584 0.03799 0.0
C1114 C 0.12912 0.61905 0.02746 0.0
C1115 C 0.05011 0.61782 0.08055 0.0
C1116 C 0.12622 0.65361 0.1362 0.0
C1117 C 0.13645 0.67958 0.12659 0.0
C1118 C 0.11156 0.63361 0.11243 0.0
C1119 C 0.10636 0.63957 0.07835 0.0
C1120 C 0.11635 0.66565 0.06843 0.0
C1121 C 0.13146 0.68537 0.09257 0.0
C1122 C 0.10137 0.60603 0.124 0.0
C1123 C 0.11084 0.6727 0.03251 0.0
H1124 H 0.09207 0.57625 0.99492 0.0
H1125 H 0.02574 0.57465 0.04116 0.0
H1126 H 0.13869 0.64016 0.02299 0.0
H1127 H 0.13682 0.61603 0.05255 0.0
H1128 H 0.13443 0.61018 0.00561 0.0
H1129 H 0.02894 0.60851 0.07636 0.0
H1130 H 0.05361 0.615 0.10853 0.0
H1131 H 0.05888 0.63888 0.07616 0.0
H1132 H 0.12939 0.64881 0.16262 0.0
H1133 H 0.13951 0.70532 0.08466 0.0
H1134 H 0.10722 0.59586 0.10483 0.0
H1135 H 0.07997 0.59565 0.12458 0.0
H1136 H 0.10843 0.60473 0.15062 0.0
H1137 H 0.11768 0.66462 0.01152 0.0
H1138 H 0.1202 0.6939 0.02875 0.0
H1139 H 0.08971 0.66412 0.02896 0.0
loop_
_geom_bond_atom_site_label_1
_geom_bond_atom_site_label_2
_geom_bond_distance
_geom_bond_site_symmetry_2
_ccdc_geom_bond_type
C0 O2 1.247 . S
C0 O4 1.258 . S
C1 O8 1.247 . S
C1 O9 1.258 . S
O2 C0 1.247 . S
O2 Zn3 2.028 1_455 S
Zn3 O2 2.028 1_655 S
Zn3 O7 2.035 1_554 S
Zn3 O9 2.035 1_554 S
Zn3 O10 2.028 1_655 S
O4 C0 1.258 . S
O4 Zn5 2.035 1_554 S
Zn5 O4 2.035 1_556 S
Zn5 O6 2.028 1_455 S
Zn5 O8 2.028 1_455 S
Zn5 O11 2.035 1_556 S
O6 Zn5 2.028 1_655 S
O6 C12 1.247 . S
O7 Zn3 2.035 1_556 S
O7 C12 1.258 . S
O8 C1 1.247 . S
O8 Zn5 2.028 1_655 S
O9 C1 1.258 . S
O9 Zn3 2.035 1_556 S
O10 Zn3 2.028 1_455 S
O10 C13 1.247 . S
O11 Zn5 2.035 1_554 S
O11 C13 1.258 . S
C12 O6 1.247 . S
C12 O7 1.258 . S
C13 O10 1.247 . S
C13 O11 1.258 . S
C14 O16 1.247 . S
C14 O18 1.258 . S
C15 O22 1.247 . S
C15 O23 1.258 . S
O16 C14 1.247 . S
O16 Zn17 2.028 1_545 S
Zn17 O16 2.028 1_565 S
Zn17 O21 2.035 . S
Zn17 O23 2.035 . S
Zn17 O24 2.028 1_565 S
O18 C14 1.258 . S
O18 Zn19 2.035 . S
Zn19 O18 2.035 . S
Zn19 O20 2.028 1_545 S
Zn19 O22 2.028 1_545 S
Zn19 O25 2.035 . S
O20 Zn19 2.028 1_565 S
O20 C26 1.247 . S
O21 Zn17 2.035 . S
O21 C26 1.258 . S
O22 C15 1.247 . S
O22 Zn19 2.028 1_565 S
O23 C15 1.258 . S
O23 Zn17 2.035 . S
O24 Zn17 2.028 1_545 S
O24 C27 1.247 . S
O25 Zn19 2.035 . S
O25 C27 1.258 . S
C26 O20 1.247 . S
C26 O21 1.258 . S
C27 O24 1.247 . S
C27 O25 1.258 . S
C28 O30 1.247 . S
C28 O32 1.258 . S
C29 O36 1.247 . S
C29 O37 1.258 . S
O30 C28 1.247 . S
O30 Zn31 2.028 . S
Zn31 O30 2.028 . S
Zn31 O35 2.035 1_556 S
Zn31 O37 2.035 1_556 S
Zn31 O38 2.028 . S
O32 C28 1.258 . S
O32 Zn33 2.035 1_556 S
Zn33 O32 2.035 1_554 S
Zn33 O34 2.028 . S
Zn33 O36 2.028 . S
Zn33 O39 2.035 1_554 S
O34 Zn33 2.028 . S
O34 C40 1.247 . S
O35 Zn31 2.035 1_554 S
O35 C40 1.258 . S
O36 C29 1.247 . S
O36 Zn33 2.028 . S
O37 C29 1.258 . S
O37 Zn31 2.035 1_554 S
O38 Zn31 2.028 . S
O38 C41 1.247 . S
O39 Zn33 2.035 1_556 S
O39 C41 1.258 . S
C40 O34 1.247 . S
C40 O35 1.258 . S
C41 O38 1.247 . S
C41 O39 1.258 . S
C42 O44 1.247 . S
C42 O46 1.258 . S
C43 O50 1.247 . S
C43 O51 1.258 . S
O44 C42 1.247 . S
O44 Zn45 2.028 . S
Zn45 O44 2.028 . S
Zn45 O49 2.035 1_455 S
Zn45 O51 2.035 1_455 S
Zn45 O52 2.028 . S
O46 C42 1.258 . S
O46 Zn47 2.035 1_455 S
Zn47 O46 2.035 1_655 S
Zn47 O48 2.028 . S
Zn47 O50 2.028 . S
Zn47 O53 2.035 1_655 S
O48 Zn47 2.028 . S
O48 C54 1.247 . S
O49 Zn45 2.035 1_655 S
O49 C54 1.258 . S
O50 C43 1.247 . S
O50 Zn47 2.028 . S
O51 C43 1.258 . S
O51 Zn45 2.035 1_655 S
O52 Zn45 2.028 . S
O52 C55 1.247 . S
O53 Zn47 2.035 1_455 S
O53 C55 1.258 . S
C54 O48 1.247 . S
C54 O49 1.258 . S
C55 O52 1.247 . S
C55 O53 1.258 . S
C56 O58 1.247 . S
C56 O60 1.258 . S
C57 O64 1.247 . S
C57 O65 1.258 . S
O58 C56 1.247 . S
O58 Zn59 2.028 1_565 S
Zn59 O58 2.028 1_545 S
Zn59 O63 2.035 1_554 S
Zn59 O65 2.035 1_554 S
Zn59 O66 2.028 1_545 S
O60 C56 1.258 . S
O60 Zn61 2.035 1_554 S
Zn61 O60 2.035 1_556 S
Zn61 O62 2.028 1_565 S
Zn61 O64 2.028 1_565 S
Zn61 O67 2.035 1_556 S
O62 Zn61 2.028 1_545 S
O62 C68 1.247 . S
O63 Zn59 2.035 1_556 S
O63 C68 1.258 . S
O64 C57 1.247 . S
O64 Zn61 2.028 1_545 S
O65 C57 1.258 . S
O65 Zn59 2.035 1_556 S
O66 Zn59 2.028 1_565 S
O66 C69 1.247 . S
O67 Zn61 2.035 1_554 S
O67 C69 1.258 . S
C68 O62 1.247 . S
C68 O63 1.258 . S
C69 O66 1.247 . S
C69 O67 1.258 . S
C70 O72 1.247 . S
C70 O74 1.258 . S
C71 O78 1.247 . S
C71 O79 1.258 . S
O72 C70 1.247 . S
O72 Zn73 2.028 . S
Zn73 O72 2.028 . S
Zn73 O77 2.035 . S
Zn73 O79 2.035 . S
Zn73 O80 2.028 . S
O74 C70 1.258 . S
O74 Zn75 2.035 . S
Zn75 O74 2.035 . S
Zn75 O76 2.028 . S
Zn75 O78 2.028 . S
Zn75 O81 2.035 . S
O76 Zn75 2.028 . S
O76 C82 1.247 . S
O77 Zn73 2.035 . S
O77 C82 1.258 . S
O78 C71 1.247 . S
O78 Zn75 2.028 . S
O79 C71 1.258 . S
O79 Zn73 2.035 . S
O80 Zn73 2.028 . S
O80 C83 1.247 . S
O81 Zn75 2.035 . S
O81 C83 1.258 . S
C82 O76 1.247 . S
C82 O77 1.258 . S
C83 O80 1.247 . S
C83 O81 1.258 . S
H84 C103 0.949 . S
H85 C104 0.950 . S
H86 C106 0.950 . S
H87 C107 0.950 . S
H88 C109 0.950 . S
H89 C112 0.950 . S
H90 C113 0.950 . S
H91 C115 0.951 . S
H92 C116 0.949 . S
H93 C118 0.949 . S
H94 C119 0.950 . S
H95 C121 0.950 . S
H96 C122 0.950 . S
H97 C124 0.950 . S
H98 C127 0.950 . S
H99 C128 0.950 . S
H100 C130 0.951 . S
H101 C131 0.949 . S
C102 C103 1.376 . S
C102 C107 1.386 . S
C102 C108 1.483 . S
C103 H84 0.949 . S
C103 C102 1.376 . S
C103 C104 1.397 . S
C104 H85 0.950 . S
C104 C103 1.397 . S
C104 C105 1.391 . S
C105 C104 1.391 . S
C105 C106 1.405 . S
C106 H86 0.950 . S
C106 C105 1.405 . S
C106 C107 1.367 . S
C107 H87 0.950 . S
C107 C102 1.386 . S
C107 C106 1.367 . S
C108 C102 1.483 . S
C108 C109 1.382 . S
C108 C110 1.403 . S
C109 H88 0.950 . S
C109 C108 1.382 . S
C109 C125 1.411 . S
C110 C108 1.403 . S
C110 C111 1.489 . S
C110 C124 1.411 . S
C111 C110 1.489 . S
C111 C112 1.383 . S
C111 C116 1.382 . S
C112 H89 0.950 . S
C112 C111 1.383 . S
C112 C113 1.395 . S
C113 H90 0.950 . S
C113 C112 1.395 . S
C113 C114 1.288 . S
C114 C113 1.288 . S
C114 C115 1.392 . S
C115 H91 0.951 . S
C115 C114 1.392 . S
C115 C116 1.392 . S
C116 H92 0.949 . S
C116 C111 1.382 . S
C116 C115 1.392 . S
C117 C118 1.376 . S
C117 C122 1.386 . S
C117 C123 1.483 . S
C118 H93 0.949 . S
C118 C117 1.376 . S
C118 C119 1.397 . S
C119 H94 0.950 . S
C119 C118 1.397 . S
C119 C120 1.391 . S
C120 C119 1.391 . S
C120 C121 1.405 . S
C121 H95 0.950 . S
C121 C120 1.405 . S
C121 C122 1.367 . S
C122 H96 0.950 . S
C122 C117 1.386 . S
C122 C121 1.367 . S
C123 C117 1.483 . S
C123 C124 1.382 . S
C123 C125 1.403 . S
C124 H97 0.950 . S
C124 C110 1.411 . S
C124 C123 1.382 . S
C125 C109 1.411 . S
C125 C123 1.403 . S
C125 C126 1.489 . S
C126 C125 1.489 . S
C126 C127 1.383 . S
C126 C131 1.382 . S
C127 H98 0.950 . S
C127 C126 1.383 . S
C127 C128 1.395 . S
C128 H99 0.950 . S
C128 C127 1.395 . S
C128 C129 1.288 . S
C129 C128 1.288 . S
C129 C130 1.392 . S
C130 H100 0.951 . S
C130 C129 1.392 . S
C130 C131 1.392 . S
C131 H101 0.949 . S
C131 C126 1.382 . S
C131 C130 1.392 . S
H132 C151 0.949 . S
H133 C152 0.950 . S
H134 C154 0.950 . S
H135 C155 0.950 . S
H136 C157 0.950 . S
H137 C160 0.950 . S
H138 C161 0.950 . S
H139 C163 0.951 . S
H140 C164 0.949 . S
H141 C166 0.949 . S
H142 C167 0.950 . S
H143 C169 0.950 . S
H144 C170 0.950 . S
H145 C172 0.950 . S
H146 C175 0.950 . S
H147 C176 0.950 . S
H148 C178 0.951 . S
H149 C179 0.949 . S
C150 C151 1.376 . S
C150 C155 1.386 . S
C150 C156 1.483 . S
C151 H132 0.949 . S
C151 C150 1.376 . S
C151 C152 1.397 . S
C152 H133 0.950 . S
C152 C151 1.397 . S
C152 C153 1.391 . S
C153 C152 1.391 . S
C153 C154 1.405 . S
C154 H134 0.950 . S
C154 C153 1.405 . S
C154 C155 1.367 . S
C155 H135 0.950 . S
C155 C150 1.386 . S
C155 C154 1.367 . S
C156 C150 1.483 . S
C156 C157 1.382 . S
C156 C158 1.403 . S
C157 H136 0.950 . S
C157 C156 1.382 . S
C157 C173 1.411 . S
C158 C156 1.403 . S
C158 C159 1.489 . S
C158 C172 1.411 . S
C159 C158 1.489 . S
C159 C160 1.383 . S
C159 C164 1.382 . S
C160 H137 0.950 . S
C160 C159 1.383 . S
C160 C161 1.395 . S
C161 H138 0.950 . S
C161 C160 1.395 . S
C161 C162 1.288 . S
C162 C161 1.288 . S
C162 C163 1.392 . S
C163 H139 0.951 . S
C163 C162 1.392 . S
C163 C164 1.392 . S
C164 H140 0.949 . S
C164 C159 1.382 . S
C164 C163 1.392 . S
C165 C166 1.376 . S
C165 C170 1.386 . S
C165 C171 1.483 . S
C166 H141 0.949 . S
C166 C165 1.376 . S
C166 C167 1.397 . S
C167 H142 0.950 . S
C167 C166 1.397 . S
C167 C168 1.391 . S
C168 C167 1.391 . S
C168 C169 1.405 . S
C169 H143 0.950 . S
C169 C168 1.405 . S
C169 C170 1.367 . S
C170 H144 0.950 . S
C170 C165 1.386 . S
C170 C169 1.367 . S
C171 C165 1.483 . S
C171 C172 1.382 . S
C171 C173 1.403 . S
C172 H145 0.950 . S
C172 C158 1.411 . S
C172 C171 1.382 . S
C173 C157 1.411 . S
C173 C171 1.403 . S
C173 C174 1.489 . S
C174 C173 1.489 . S
C174 C175 1.383 . S
C174 C179 1.382 . S
C175 H146 0.950 . S
C175 C174 1.383 . S
C175 C176 1.395 . S
C176 H147 0.950 . S
C176 C175 1.395 . S
C176 C177 1.288 . S
C177 C176 1.288 . S
C177 C178 1.392 . S
C178 H148 0.951 . S
C178 C177 1.392 . S
C178 C179 1.392 . S
C179 H149 0.949 . S
C179 C174 1.382 . S
C179 C178 1.392 . S
H180 C199 0.949 . S
H181 C200 0.950 . S
H182 C202 0.950 . S
H183 C203 0.950 . S
H184 C205 0.950 . S
H185 C208 0.950 . S
H186 C209 0.950 . S
H187 C211 0.951 . S
H188 C212 0.949 . S
H189 C214 0.949 . S
H190 C215 0.950 . S
H191 C217 0.950 . S
H192 C218 0.950 . S
H193 C220 0.950 . S
H194 C223 0.950 . S
H195 C224 0.950 . S
H196 C226 0.951 . S
H197 C227 0.949 . S
C198 C199 1.376 . S
C198 C203 1.386 . S
C198 C204 1.483 . S
C199 H180 0.949 . S
C199 C198 1.376 . S
C199 C200 1.397 . S
C200 H181 0.950 . S
C200 C199 1.397 . S
C200 C201 1.391 . S
C201 C200 1.391 . S
C201 C202 1.405 . S
C202 H182 0.950 . S
C202 C201 1.405 . S
C202 C203 1.367 . S
C203 H183 0.950 . S
C203 C198 1.386 . S
C203 C202 1.367 . S
C204 C198 1.483 . S
C204 C205 1.382 . S
C204 C206 1.403 . S
C205 H184 0.950 . S
C205 C204 1.382 . S
C205 C221 1.411 . S
C206 C204 1.403 . S
C206 C207 1.489 . S
C206 C220 1.411 . S
C207 C206 1.489 . S
C207 C208 1.383 . S
C207 C212 1.382 . S
C208 H185 0.950 . S
C208 C207 1.383 . S
C208 C209 1.395 . S
C209 H186 0.950 . S
C209 C208 1.395 . S
C209 C210 1.288 . S
C210 C209 1.288 . S
C210 C211 1.392 . S
C211 H187 0.951 . S
C211 C210 1.392 . S
C211 C212 1.392 . S
C212 H188 0.949 . S
C212 C207 1.382 . S
C212 C211 1.392 . S
C213 C214 1.376 . S
C213 C218 1.386 . S
C213 C219 1.483 . S
C214 H189 0.949 . S
C214 C213 1.376 . S
C214 C215 1.397 . S
C215 H190 0.950 . S
C215 C214 1.397 . S
C215 C216 1.391 . S
C216 C215 1.391 . S
C216 C217 1.405 . S
C217 H191 0.950 . S
C217 C216 1.405 . S
C217 C218 1.367 . S
C218 H192 0.950 . S
C218 C213 1.386 . S
C218 C217 1.367 . S
C219 C213 1.483 . S
C219 C220 1.382 . S
C219 C221 1.403 . S
C220 H193 0.950 . S
C220 C206 1.411 . S
C220 C219 1.382 . S
C221 C205 1.411 . S
C221 C219 1.403 . S
C221 C222 1.489 . S
C222 C221 1.489 . S
C222 C223 1.383 . S
C222 C227 1.382 . S
C223 H194 0.950 . S
C223 C222 1.383 . S
C223 C224 1.395 . S
C224 H195 0.950 . S
C224 C223 1.395 . S
C224 C225 1.288 . S
C225 C224 1.288 . S
C225 C226 1.392 . S
C226 H196 0.951 . S
C226 C225 1.392 . S
C226 C227 1.392 . S
C227 H197 0.949 . S
C227 C222 1.382 . S
C227 C226 1.392 . S
H228 C247 0.949 . S
H229 C248 0.950 . S
H230 C250 0.950 . S
H231 C251 0.950 . S
H232 C253 0.950 . S
H233 C256 0.950 . S
H234 C257 0.950 . S
H235 C259 0.951 . S
H236 C260 0.949 . S
H237 C262 0.949 . S
H238 C263 0.950 . S
H239 C265 0.950 . S
H240 C266 0.950 . S
H241 C268 0.950 . S
H242 C271 0.950 . S
H243 C272 0.950 . S
H244 C274 0.951 . S
H245 C275 0.949 . S
C246 C247 1.376 . S
C246 C251 1.386 . S
C246 C252 1.483 . S
C247 H228 0.949 . S
C247 C246 1.376 . S
C247 C248 1.397 . S
C248 H229 0.950 . S
C248 C247 1.397 . S
C248 C249 1.391 . S
C249 C248 1.391 . S
C249 C250 1.405 . S
C250 H230 0.950 . S
C250 C249 1.405 . S
C250 C251 1.367 . S
C251 H231 0.950 . S
C251 C246 1.386 . S
C251 C250 1.367 . S
C252 C246 1.483 . S
C252 C253 1.382 . S
C252 C254 1.403 . S
C253 H232 0.950 . S
C253 C252 1.382 . S
C253 C269 1.411 . S
C254 C252 1.403 . S
C254 C255 1.489 . S
C254 C268 1.411 . S
C255 C254 1.489 . S
C255 C256 1.383 . S
C255 C260 1.382 . S
C256 H233 0.950 . S
C256 C255 1.383 . S
C256 C257 1.395 . S
C257 H234 0.950 . S
C257 C256 1.395 . S
C257 C258 1.288 . S
C258 C257 1.288 . S
C258 C259 1.392 . S
C259 H235 0.951 . S
C259 C258 1.392 . S
C259 C260 1.392 . S
C260 H236 0.949 . S
C260 C255 1.382 . S
C260 C259 1.392 . S
C261 C262 1.376 . S
C261 C266 1.386 . S
C261 C267 1.483 . S
C262 H237 0.949 . S
C262 C261 1.376 . S
C262 C263 1.397 . S
C263 H238 0.950 . S
C263 C262 1.397 . S
C263 C264 1.391 . S
C264 C263 1.391 . S
C264 C265 1.405 . S
C265 H239 0.950 . S
C265 C264 1.405 . S
C265 C266 1.367 . S
C266 H240 0.950 . S
C266 C261 1.386 . S
C266 C265 1.367 . S
C267 C261 1.483 . S
C267 C268 1.382 . S
C267 C269 1.403 . S
C268 H241 0.950 . S
C268 C254 1.411 . S
C268 C267 1.382 . S
C269 C253 1.411 . S
C269 C267 1.403 . S
C269 C270 1.489 . S
C270 C269 1.489 . S
C270 C271 1.383 . S
C270 C275 1.382 . S
C271 H242 0.950 . S
C271 C270 1.383 . S
C271 C272 1.395 . S
C272 H243 0.950 . S
C272 C271 1.395 . S
C272 C273 1.288 . S
C273 C272 1.288 . S
C273 C274 1.392 . S
C274 H244 0.951 . S
C274 C273 1.392 . S
C274 C275 1.392 . S
C275 H245 0.949 . S
C275 C270 1.382 . S
C275 C274 1.392 . S
H276 C295 0.949 . S
H277 C296 0.950 . S
H278 C298 0.950 . S
H279 C299 0.950 . S
H280 C301 0.950 . S
H281 C304 0.950 . S
H282 C305 0.950 . S
H283 C307 0.951 . S
H284 C308 0.949 . S
H285 C310 0.949 . S
H286 C311 0.950 . S
H287 C313 0.950 . S
H288 C314 0.950 . S
H289 C316 0.950 . S
H290 C319 0.950 . S
H291 C320 0.950 . S
H292 C322 0.951 . S
H293 C323 0.949 . S
C294 C295 1.376 . S
C294 C299 1.386 . S
C294 C300 1.483 . S
C295 H276 0.949 . S
C295 C294 1.376 . S
C295 C296 1.397 . S
C296 H277 0.950 . S
C296 C295 1.397 . S
C296 C297 1.391 . S
C297 C296 1.391 . S
C297 C298 1.405 . S
C298 H278 0.950 . S
C298 C297 1.405 . S
C298 C299 1.367 . S
C299 H279 0.950 . S
C299 C294 1.386 . S
C299 C298 1.367 . S
C300 C294 1.483 . S
C300 C301 1.382 . S
C300 C302 1.403 . S
C301 H280 0.950 . S
C301 C300 1.382 . S
C301 C317 1.411 . S
C302 C300 1.403 . S
C302 C303 1.489 . S
C302 C316 1.411 . S
C303 C302 1.489 . S
C303 C304 1.383 . S
C303 C308 1.382 . S
C304 H281 0.950 . S
C304 C303 1.383 . S
C304 C305 1.395 . S
C305 H282 0.950 . S
C305 C304 1.395 . S
C305 C306 1.288 . S
C306 C305 1.288 . S
C306 C307 1.392 . S
C307 H283 0.951 . S
C307 C306 1.392 . S
C307 C308 1.392 . S
C308 H284 0.949 . S
C308 C303 1.382 . S
C308 C307 1.392 . S
C309 C310 1.376 . S
C309 C314 1.386 . S
C309 C315 1.483 . S
C310 H285 0.949 . S
C310 C309 1.376 . S
C310 C311 1.397 . S
C311 H286 0.950 . S
C311 C310 1.397 . S
C311 C312 1.391 . S
C312 C311 1.391 . S
C312 C313 1.405 . S
C313 H287 0.950 . S
C313 C312 1.405 . S
C313 C314 1.367 . S
C314 H288 0.950 . S
C314 C309 1.386 . S
C314 C313 1.367 . S
C315 C309 1.483 . S
C315 C316 1.382 . S
C315 C317 1.403 . S
C316 H289 0.950 . S
C316 C302 1.411 . S
C316 C315 1.382 . S
C317 C301 1.411 . S
C317 C315 1.403 . S
C317 C318 1.489 . S
C318 C317 1.489 . S
C318 C319 1.383 . S
C318 C323 1.382 . S
C319 H290 0.950 . S
C319 C318 1.383 . S
C319 C320 1.395 . S
C320 H291 0.950 . S
C320 C319 1.395 . S
C320 C321 1.288 . S
C321 C320 1.288 . S
C321 C322 1.392 . S
C322 H292 0.951 . S
C322 C321 1.392 . S
C322 C323 1.392 . S
C323 H293 0.949 . S
C323 C318 1.382 . S
C323 C322 1.392 . S
H324 C343 0.949 . S
H325 C344 0.950 . S
H326 C346 0.950 . S
H327 C347 0.950 . S
H328 C349 0.950 . S
H329 C352 0.950 . S
H330 C353 0.950 . S
H331 C355 0.951 . S
H332 C356 0.949 . S
H333 C358 0.949 . S
H334 C359 0.950 . S
H335 C361 0.950 . S
H336 C362 0.950 . S
H337 C364 0.950 . S
H338 C367 0.950 . S
H339 C368 0.950 . S
H340 C370 0.951 . S
H341 C371 0.949 . S
C342 C343 1.376 . S
C342 C347 1.386 . S
C342 C348 1.483 . S
C343 H324 0.949 . S
C343 C342 1.376 . S
C343 C344 1.397 . S
C344 H325 0.950 . S
C344 C343 1.397 . S
C344 C345 1.391 . S
C345 C344 1.391 . S
C345 C346 1.405 . S
C346 H326 0.950 . S
C346 C345 1.405 . S
C346 C347 1.367 . S
C347 H327 0.950 . S
C347 C342 1.386 . S
C347 C346 1.367 . S
C348 C342 1.483 . S
C348 C349 1.382 . S
C348 C350 1.403 . S
C349 H328 0.950 . S
C349 C348 1.382 . S
C349 C365 1.411 . S
C350 C348 1.403 . S
C350 C351 1.489 . S
C350 C364 1.411 . S
C351 C350 1.489 . S
C351 C352 1.383 . S
C351 C356 1.382 . S
C352 H329 0.950 . S
C352 C351 1.383 . S
C352 C353 1.395 . S
C353 H330 0.950 . S
C353 C352 1.395 . S
C353 C354 1.288 . S
C354 C353 1.288 . S
C354 C355 1.392 . S
C355 H331 0.951 . S
C355 C354 1.392 . S
C355 C356 1.392 . S
C356 H332 0.949 . S
C356 C351 1.382 . S
C356 C355 1.392 . S
C357 C358 1.376 . S
C357 C362 1.386 . S
C357 C363 1.483 . S
C358 H333 0.949 . S
C358 C357 1.376 . S
C358 C359 1.397 . S
C359 H334 0.950 . S
C359 C358 1.397 . S
C359 C360 1.391 . S
C360 C359 1.391 . S
C360 C361 1.405 . S
C361 H335 0.950 . S
C361 C360 1.405 . S
C361 C362 1.367 . S
C362 H336 0.950 . S
C362 C357 1.386 . S
C362 C361 1.367 . S
C363 C357 1.483 . S
C363 C364 1.382 . S
C363 C365 1.403 . S
C364 H337 0.950 . S
C364 C350 1.411 . S
C364 C363 1.382 . S
C365 C349 1.411 . S
C365 C363 1.403 . S
C365 C366 1.489 . S
C366 C365 1.489 . S
C366 C367 1.383 . S
C366 C371 1.382 . S
C367 H338 0.950 . S
C367 C366 1.383 . S
C367 C368 1.395 . S
C368 H339 0.950 . S
C368 C367 1.395 . S
C368 C369 1.288 . S
C369 C368 1.288 . S
C369 C370 1.392 . S
C370 H340 0.951 . S
C370 C369 1.392 . S
C370 C371 1.392 . S
C371 H341 0.949 . S
C371 C366 1.382 . S
C371 C370 1.392 . S
C372 C373 1.391 . S
C372 C374 1.394 . S
C372 H388 0.931 . S
C373 C372 1.391 . S
C373 C377 1.376 . S
C374 C372 1.394 . S
C374 C375 1.369 . S
C374 C378 1.531 . S
C375 C374 1.369 . S
C375 C376 1.410 . S
C375 C383 1.503 . S
C376 C375 1.410 . S
C376 C377 1.392 . S
C376 C379 1.511 . S
C377 C373 1.376 . S
C377 C376 1.392 . S
C377 H389 0.929 . S
C378 C374 1.531 . S
C378 H390 0.960 . S
C378 H391 0.962 . S
C378 H392 0.960 . S
C379 C376 1.511 . S
C379 H393 0.961 . S
C379 H394 0.961 . S
C379 H395 0.961 . S
C380 C381 1.370 . S
C380 C382 1.363 . S
C380 H396 0.931 . S
C381 C380 1.370 . S
C381 C385 1.408 . S
C382 C380 1.363 . S
C382 C383 1.370 . S
C382 C386 1.524 . S
C383 C375 1.503 . S
C383 C382 1.370 . S
C383 C384 1.403 . S
C384 C383 1.403 . S
C384 C385 1.404 . S
C384 C387 1.539 . S
C385 C381 1.408 . S
C385 C384 1.404 . S
C385 H397 0.930 . S
C386 C382 1.524 . S
C386 H398 0.956 . S
C386 H399 0.961 . S
C386 H400 0.961 . S
C387 C384 1.539 . S
C387 H401 0.958 . S
C387 H402 0.961 . S
C387 H403 0.960 . S
H388 C372 0.931 . S
H389 C377 0.929 . S
H390 C378 0.960 . S
H391 C378 0.962 . S
H392 C378 0.960 . S
H393 C379 0.961 . S
H394 C379 0.961 . S
H395 C379 0.961 . S
H396 C380 0.931 . S
H397 C385 0.930 . S
H398 C386 0.956 . S
H399 C386 0.961 . S
H400 C386 0.961 . S
H401 C387 0.958 . S
H402 C387 0.961 . S
H403 C387 0.960 . S
C404 C405 1.391 . S
C404 C406 1.394 . S
C404 H420 0.931 . S
C405 C404 1.391 . S
C405 C409 1.376 . S
C406 C404 1.394 . S
C406 C407 1.369 . S
C406 C410 1.531 . S
C407 C406 1.369 . S
C407 C408 1.410 . S
C407 C415 1.503 . S
C408 C407 1.410 . S
C408 C409 1.392 . S
C408 C411 1.511 . S
C409 C405 1.376 . S
C409 C408 1.392 . S
C409 H421 0.929 . S
C410 C406 1.531 . S
C410 H422 0.960 . S
C410 H423 0.962 . S
C410 H424 0.960 . S
C411 C408 1.511 . S
C411 H425 0.961 . S
C411 H426 0.961 . S
C411 H427 0.961 . S
C412 C413 1.370 . S
C412 C414 1.363 . S
C412 H428 0.931 . S
C413 C412 1.370 . S
C413 C417 1.408 . S
C414 C412 1.363 . S
C414 C415 1.370 . S
C414 C418 1.524 . S
C415 C407 1.503 . S
C415 C414 1.370 . S
C415 C416 1.403 . S
C416 C415 1.403 . S
C416 C417 1.404 . S
C416 C419 1.539 . S
C417 C413 1.408 . S
C417 C416 1.404 . S
C417 H429 0.930 . S
C418 C414 1.524 . S
C418 H430 0.956 . S
C418 H431 0.961 . S
C418 H432 0.961 . S
C419 C416 1.539 . S
C419 H433 0.958 . S
C419 H434 0.961 . S
C419 H435 0.960 . S
H420 C404 0.931 . S
H421 C409 0.929 . S
H422 C410 0.960 . S
H423 C410 0.962 . S
H424 C410 0.960 . S
H425 C411 0.961 . S
H426 C411 0.961 . S
H427 C411 0.961 . S
H428 C412 0.931 . S
H429 C417 0.930 . S
H430 C418 0.956 . S
H431 C418 0.961 . S
H432 C418 0.961 . S
H433 C419 0.958 . S
H434 C419 0.961 . S
H435 C419 0.960 . S
C436 C437 1.391 . S
C436 C438 1.394 . S
C436 H452 0.931 . S
C437 C436 1.391 . S
C437 C441 1.376 . S
C438 C436 1.394 . S
C438 C439 1.369 . S
C438 C442 1.531 . S
C439 C438 1.369 . S
C439 C440 1.410 . S
C439 C447 1.503 . S
C440 C439 1.410 . S
C440 C441 1.392 . S
C440 C443 1.511 . S
C441 C437 1.376 . S
C441 C440 1.392 . S
C441 H453 0.929 . S
C442 C438 1.531 . S
C442 H454 0.960 . S
C442 H455 0.962 . S
C442 H456 0.960 . S
C443 C440 1.511 . S
C443 H457 0.961 . S
C443 H458 0.961 . S
C443 H459 0.961 . S
C444 C445 1.370 . S
C444 C446 1.363 . S
C444 H460 0.931 . S
C445 C444 1.370 . S
C445 C449 1.408 . S
C446 C444 1.363 . S
C446 C447 1.370 . S
C446 C450 1.524 . S
C447 C439 1.503 . S
C447 C446 1.370 . S
C447 C448 1.403 . S
C448 C447 1.403 . S
C448 C449 1.404 . S
C448 C451 1.539 . S
C449 C445 1.408 . S
C449 C448 1.404 . S
C449 H461 0.930 . S
C450 C446 1.524 . S
C450 H462 0.956 . S
C450 H463 0.961 . S
C450 H464 0.961 . S
C451 C448 1.539 . S
C451 H465 0.958 . S
C451 H466 0.961 . S
C451 H467 0.960 . S
H452 C436 0.931 . S
H453 C441 0.929 . S
H454 C442 0.960 . S
H455 C442 0.962 . S
H456 C442 0.960 . S
H457 C443 0.961 . S
H458 C443 0.961 . S
H459 C443 0.961 . S
H460 C444 0.931 . S
H461 C449 0.930 . S
H462 C450 0.956 . S
H463 C450 0.961 . S
H464 C450 0.961 . S
H465 C451 0.958 . S
H466 C451 0.961 . S
H467 C451 0.960 . S
C468 C469 1.391 . S
C468 C470 1.394 . S
C468 H484 0.931 . S
C469 C468 1.391 . S
C469 C473 1.376 . S
C470 C468 1.394 . S
C470 C471 1.369 . S
C470 C474 1.531 . S
C471 C470 1.369 . S
C471 C472 1.410 . S
C471 C479 1.503 . S
C472 C471 1.410 . S
C472 C473 1.392 . S
C472 C475 1.511 . S
C473 C469 1.376 . S
C473 C472 1.392 . S
C473 H485 0.929 . S
C474 C470 1.531 . S
C474 H486 0.960 . S
C474 H487 0.962 . S
C474 H488 0.960 . S
C475 C472 1.511 . S
C475 H489 0.961 . S
C475 H490 0.961 . S
C475 H491 0.961 . S
C476 C477 1.370 . S
C476 C478 1.363 . S
C476 H492 0.931 . S
C477 C476 1.370 . S
C477 C481 1.408 . S
C478 C476 1.363 . S
C478 C479 1.370 . S
C478 C482 1.524 . S
C479 C471 1.503 . S
C479 C478 1.370 . S
C479 C480 1.403 . S
C480 C479 1.403 . S
C480 C481 1.404 . S
C480 C483 1.539 . S
C481 C477 1.408 . S
C481 C480 1.404 . S
C481 H493 0.930 . S
C482 C478 1.524 . S
C482 H494 0.956 . S
C482 H495 0.961 . S
C482 H496 0.961 . S
C483 C480 1.539 . S
C483 H497 0.958 . S
C483 H498 0.961 . S
C483 H499 0.960 . S
H484 C468 0.931 . S
H485 C473 0.929 . S
H486 C474 0.960 . S
H487 C474 0.962 . S
H488 C474 0.960 . S
H489 C475 0.961 . S
H490 C475 0.961 . S
H491 C475 0.961 . S
H492 C476 0.931 . S
H493 C481 0.930 . S
H494 C482 0.956 . S
H495 C482 0.961 . S
H496 C482 0.961 . S
H497 C483 0.958 . S
H498 C483 0.961 . S
H499 C483 0.960 . S
C500 C501 1.391 . S
C500 C502 1.394 . S
C500 H516 0.931 . S
C501 C500 1.391 . S
C501 C505 1.376 . S
C502 C500 1.394 . S
C502 C503 1.369 . S
C502 C506 1.531 . S
C503 C502 1.369 . S
C503 C504 1.410 . S
C503 C511 1.503 . S
C504 C503 1.410 . S
C504 C505 1.392 . S
C504 C507 1.511 . S
C505 C501 1.376 . S
C505 C504 1.392 . S
C505 H517 0.929 . S
C506 C502 1.531 . S
C506 H518 0.960 . S
C506 H519 0.962 . S
C506 H520 0.960 . S
C507 C504 1.511 . S
C507 H521 0.961 . S
C507 H522 0.961 . S
C507 H523 0.961 . S
C508 C509 1.370 . S
C508 C510 1.363 . S
C508 H524 0.931 . S
C509 C508 1.370 . S
C509 C513 1.408 . S
C510 C508 1.363 . S
C510 C511 1.370 . S
C510 C514 1.524 . S
C511 C503 1.503 . S
C511 C510 1.370 . S
C511 C512 1.403 . S
C512 C511 1.403 . S
C512 C513 1.404 . S
C512 C515 1.539 . S
C513 C509 1.408 . S
C513 C512 1.404 . S
C513 H525 0.930 . S
C514 C510 1.524 . S
C514 H526 0.956 . S
C514 H527 0.961 . S
C514 H528 0.961 . S
C515 C512 1.539 . S
C515 H529 0.958 . S
C515 H530 0.961 . S
C515 H531 0.960 . S
H516 C500 0.931 . S
H517 C505 0.929 . S
H518 C506 0.960 . S
H519 C506 0.962 . S
H520 C506 0.960 . S
H521 C507 0.961 . S
H522 C507 0.961 . S
H523 C507 0.961 . S
H524 C508 0.931 . S
H525 C513 0.930 . S
H526 C514 0.956 . S
H527 C514 0.961 . S
H528 C514 0.961 . S
H529 C515 0.958 . S
H530 C515 0.961 . S
H531 C515 0.960 . S
C532 C533 1.391 . S
C532 C534 1.394 . S
C532 H548 0.931 . S
C533 C532 1.391 . S
C533 C537 1.376 . S
C534 C532 1.394 . S
C534 C535 1.369 . S
C534 C538 1.531 . S
C535 C534 1.369 . S
C535 C536 1.410 . S
C535 C543 1.503 . S
C536 C535 1.410 . S
C536 C537 1.392 . S
C536 C539 1.511 . S
C537 C533 1.376 . S
C537 C536 1.392 . S
C537 H549 0.929 . S
C538 C534 1.531 . S
C538 H550 0.960 . S
C538 H551 0.962 . S
C538 H552 0.960 . S
C539 C536 1.511 . S
C539 H553 0.961 . S
C539 H554 0.961 . S
C539 H555 0.961 . S
C540 C541 1.370 . S
C540 C542 1.363 . S
C540 H556 0.931 . S
C541 C540 1.370 . S
C541 C545 1.408 . S
C542 C540 1.363 . S
C542 C543 1.370 . S
C542 C546 1.524 . S
C543 C535 1.503 . S
C543 C542 1.370 . S
C543 C544 1.403 . S
C544 C543 1.403 . S
C544 C545 1.404 . S
C544 C547 1.539 . S
C545 C541 1.408 . S
C545 C544 1.404 . S
C545 H557 0.930 . S
C546 C542 1.524 . S
C546 H558 0.956 . S
C546 H559 0.961 . S
C546 H560 0.961 . S
C547 C544 1.539 . S
C547 H561 0.958 . S
C547 H562 0.961 . S
C547 H563 0.960 . S
H548 C532 0.931 . S
H549 C537 0.929 . S
H550 C538 0.960 . S
H551 C538 0.962 . S
H552 C538 0.960 . S
H553 C539 0.961 . S
H554 C539 0.961 . S
H555 C539 0.961 . S
H556 C540 0.931 . S
H557 C545 0.930 . S
H558 C546 0.956 . S
H559 C546 0.961 . S
H560 C546 0.961 . S
H561 C547 0.958 . S
H562 C547 0.961 . S
H563 C547 0.960 . S
C564 C565 1.391 . S
C564 C566 1.394 . S
C564 H580 0.931 . S
C565 C564 1.391 . S
C565 C569 1.376 . S
C566 C564 1.394 . S
C566 C567 1.369 . S
C566 C570 1.531 . S
C567 C566 1.369 . S
C567 C568 1.410 . S
C567 C575 1.503 . S
C568 C567 1.410 . S
C568 C569 1.392 . S
C568 C571 1.511 . S
C569 C565 1.376 . S
C569 C568 1.392 . S
C569 H581 0.929 . S
C570 C566 1.531 . S
C570 H582 0.960 . S
C570 H583 0.962 . S
C570 H584 0.960 . S
C571 C568 1.511 . S
C571 H585 0.961 . S
C571 H586 0.961 . S
C571 H587 0.961 . S
C572 C573 1.370 . S
C572 C574 1.363 . S
C572 H588 0.931 . S
C573 C572 1.370 . S
C573 C577 1.408 . S
C574 C572 1.363 . S
C574 C575 1.370 . S
C574 C578 1.524 . S
C575 C567 1.503 . S
C575 C574 1.370 . S
C575 C576 1.403 . S
C576 C575 1.403 . S
C576 C577 1.404 . S
C576 C579 1.539 . S
C577 C573 1.408 . S
C577 C576 1.404 . S
C577 H589 0.930 . S
C578 C574 1.524 . S
C578 H590 0.956 . S
C578 H591 0.961 . S
C578 H592 0.961 . S
C579 C576 1.539 . S
C579 H593 0.958 . S
C579 H594 0.961 . S
C579 H595 0.960 . S
H580 C564 0.931 . S
H581 C569 0.929 . S
H582 C570 0.960 . S
H583 C570 0.962 . S
H584 C570 0.960 . S
H585 C571 0.961 . S
H586 C571 0.961 . S
H587 C571 0.961 . S
H588 C572 0.931 . S
H589 C577 0.930 . S
H590 C578 0.956 . S
H591 C578 0.961 . S
H592 C578 0.961 . S
H593 C579 0.958 . S
H594 C579 0.961 . S
H595 C579 0.960 . S
C596 C597 1.391 . S
C596 C598 1.394 . S
C596 H612 0.931 . S
C597 C596 1.391 . S
C597 C601 1.376 . S
C598 C596 1.394 . S
C598 C599 1.369 . S
C598 C602 1.531 . S
C599 C598 1.369 . S
C599 C600 1.410 . S
C599 C607 1.503 . S
C600 C599 1.410 . S
C600 C601 1.392 . S
C600 C603 1.511 . S
C601 C597 1.376 . S
C601 C600 1.392 . S
C601 H613 0.929 . S
C602 C598 1.531 . S
C602 H614 0.960 . S
C602 H615 0.962 . S
C602 H616 0.960 . S
C603 C600 1.511 . S
C603 H617 0.961 . S
C603 H618 0.961 . S
C603 H619 0.961 . S
C604 C605 1.370 . S
C604 C606 1.363 . S
C604 H620 0.931 . S
C605 C604 1.370 . S
C605 C609 1.408 . S
C606 C604 1.363 . S
C606 C607 1.370 . S
C606 C610 1.524 . S
C607 C599 1.503 . S
C607 C606 1.370 . S
C607 C608 1.403 . S
C608 C607 1.403 . S
C608 C609 1.404 . S
C608 C611 1.539 . S
C609 C605 1.408 . S
C609 C608 1.404 . S
C609 H621 0.930 . S
C610 C606 1.524 . S
C610 H622 0.956 . S
C610 H623 0.961 . S
C610 H624 0.961 . S
C611 C608 1.539 . S
C611 H625 0.958 . S
C611 H626 0.961 . S
C611 H627 0.960 . S
H612 C596 0.931 . S
H613 C601 0.929 . S
H614 C602 0.960 . S
H615 C602 0.962 . S
H616 C602 0.960 . S
H617 C603 0.961 . S
H618 C603 0.961 . S
H619 C603 0.961 . S
H620 C604 0.931 . S
H621 C609 0.930 . S
H622 C610 0.956 . S
H623 C610 0.961 . S
H624 C610 0.961 . S
H625 C611 0.958 . S
H626 C611 0.961 . S
H627 C611 0.960 . S
C628 C629 1.391 . S
C628 C630 1.394 . S
C628 H644 0.931 . S
C629 C628 1.391 . S
C629 C633 1.376 . S
C630 C628 1.394 . S
C630 C631 1.369 . S
C630 C634 1.531 . S
C631 C630 1.369 . S
C631 C632 1.410 . S
C631 C639 1.503 . S
C632 C631 1.410 . S
C632 C633 1.392 . S
C632 C635 1.511 . S
C633 C629 1.376 . S
C633 C632 1.392 . S
C633 H645 0.929 . S
C634 C630 1.531 . S
C634 H646 0.960 . S
C634 H647 0.962 . S
C634 H648 0.960 . S
C635 C632 1.511 . S
C635 H649 0.961 . S
C635 H650 0.961 . S
C635 H651 0.961 . S
C636 C637 1.370 . S
C636 C638 1.363 . S
C636 H652 0.931 . S
C637 C636 1.370 . S
C637 C641 1.408 . S
C638 C636 1.363 . S
C638 C639 1.370 . S
C638 C642 1.524 . S
C639 C631 1.503 . S
C639 C638 1.370 . S
C639 C640 1.403 . S
C640 C639 1.403 . S
C640 C641 1.404 . S
C640 C643 1.539 . S
C641 C637 1.408 . S
C641 C640 1.404 . S
C641 H653 0.930 . S
C642 C638 1.524 . S
C642 H654 0.956 . S
C642 H655 0.961 . S
C642 H656 0.961 . S
C643 C640 1.539 . S
C643 H657 0.958 . S
C643 H658 0.961 . S
C643 H659 0.960 . S
H644 C628 0.931 . S
H645 C633 0.929 . S
H646 C634 0.960 . S
H647 C634 0.962 . S
H648 C634 0.960 . S
H649 C635 0.961 . S
H650 C635 0.961 . S
H651 C635 0.961 . S
H652 C636 0.931 . S
H653 C641 0.930 . S
H654 C642 0.956 . S
H655 C642 0.961 . S
H656 C642 0.961 . S
H657 C643 0.958 . S
H658 C643 0.961 . S
H659 C643 0.960 . S
C660 C661 1.391 . S
C660 C662 1.394 . S
C660 H676 0.931 . S
C661 C660 1.391 . S
C661 C665 1.376 . S
C662 C660 1.394 . S
C662 C663 1.369 . S
C662 C666 1.531 . S
C663 C662 1.369 . S
C663 C664 1.410 . S
C663 C671 1.503 . S
C664 C663 1.410 . S
C664 C665 1.392 . S
C664 C667 1.511 . S
C665 C661 1.376 . S
C665 C664 1.392 . S
C665 H677 0.929 . S
C666 C662 1.531 . S
C666 H678 0.960 . S
C666 H679 0.962 . S
C666 H680 0.960 . S
C667 C664 1.511 . S
C667 H681 0.961 . S
C667 H682 0.961 . S
C667 H683 0.961 . S
C668 C669 1.370 . S
C668 C670 1.363 . S
C668 H684 0.931 . S
C669 C668 1.370 . S
C669 C673 1.408 . S
C670 C668 1.363 . S
C670 C671 1.370 . S
C670 C674 1.524 . S
C671 C663 1.503 . S
C671 C670 1.370 . S
C671 C672 1.403 . S
C672 C671 1.403 . S
C672 C673 1.404 . S
C672 C675 1.539 . S
C673 C669 1.408 . S
C673 C672 1.404 . S
C673 H685 0.930 . S
C674 C670 1.524 . S
C674 H686 0.956 . S
C674 H687 0.961 . S
C674 H688 0.961 . S
C675 C672 1.539 . S
C675 H689 0.958 . S
C675 H690 0.961 . S
C675 H691 0.960 . S
H676 C660 0.931 . S
H677 C665 0.929 . S
H678 C666 0.960 . S
H679 C666 0.962 . S
H680 C666 0.960 . S
H681 C667 0.961 . S
H682 C667 0.961 . S
H683 C667 0.961 . S
H684 C668 0.931 . S
H685 C673 0.930 . S
H686 C674 0.956 . S
H687 C674 0.961 . S
H688 C674 0.961 . S
H689 C675 0.958 . S
H690 C675 0.961 . S
H691 C675 0.960 . S
C692 C693 1.391 . S
C692 C694 1.394 . S
C692 H708 0.931 . S
C693 C692 1.391 . S
C693 C697 1.376 . S
C694 C692 1.394 . S
C694 C695 1.369 . S
C694 C698 1.531 . S
C695 C694 1.369 . S
C695 C696 1.410 . S
C695 C703 1.503 . S
C696 C695 1.410 . S
C696 C697 1.392 . S
C696 C699 1.511 . S
C697 C693 1.376 . S
C697 C696 1.392 . S
C697 H709 0.929 . S
C698 C694 1.531 . S
C698 H710 0.960 . S
C698 H711 0.962 . S
C698 H712 0.960 . S
C699 C696 1.511 . S
C699 H713 0.961 . S
C699 H714 0.961 . S
C699 H715 0.961 . S
C700 C701 1.370 . S
C700 C702 1.363 . S
C700 H716 0.931 . S
C701 C700 1.370 . S
C701 C705 1.408 . S
C702 C700 1.363 . S
C702 C703 1.370 . S
C702 C706 1.524 . S
C703 C695 1.503 . S
C703 C702 1.370 . S
C703 C704 1.403 . S
C704 C703 1.403 . S
C704 C705 1.404 . S
C704 C707 1.539 . S
C705 C701 1.408 . S
C705 C704 1.404 . S
C705 H717 0.930 . S
C706 C702 1.524 . S
C706 H718 0.956 . S
C706 H719 0.961 . S
C706 H720 0.961 . S
C707 C704 1.539 . S
C707 H721 0.958 . S
C707 H722 0.961 . S
C707 H723 0.960 . S
H708 C692 0.931 . S
H709 C697 0.929 . S
H710 C698 0.960 . S
H711 C698 0.962 . S
H712 C698 0.960 . S
H713 C699 0.961 . S
H714 C699 0.961 . S
H715 C699 0.961 . S
H716 C700 0.931 . S
H717 C705 0.930 . S
H718 C706 0.956 . S
H719 C706 0.961 . S
H720 C706 0.961 . S
H721 C707 0.958 . S
H722 C707 0.961 . S
H723 C707 0.960 . S
C724 C725 1.391 . S
C724 C726 1.394 . S
C724 H740 0.931 . S
C725 C724 1.391 . S
C725 C729 1.376 . S
C726 C724 1.394 . S
C726 C727 1.369 . S
C726 C730 1.531 . S
C727 C726 1.369 . S
C727 C728 1.410 . S
C727 C735 1.503 . S
C728 C727 1.410 . S
C728 C729 1.392 . S
C728 C731 1.511 . S
C729 C725 1.376 . S
C729 C728 1.392 . S
C729 H741 0.929 . S
C730 C726 1.531 . S
C730 H742 0.960 . S
C730 H743 0.962 . S
C730 H744 0.960 . S
C731 C728 1.511 . S
C731 H745 0.961 . S
C731 H746 0.961 . S
C731 H747 0.961 . S
C732 C733 1.370 . S
C732 C734 1.363 . S
C732 H748 0.931 . S
C733 C732 1.370 . S
C733 C737 1.408 . S
C734 C732 1.363 . S
C734 C735 1.370 . S
C734 C738 1.524 . S
C735 C727 1.503 . S
C735 C734 1.370 . S
C735 C736 1.403 . S
C736 C735 1.403 . S
C736 C737 1.404 . S
C736 C739 1.539 . S
C737 C733 1.408 . S
C737 C736 1.404 . S
C737 H749 0.930 . S
C738 C734 1.524 . S
C738 H750 0.956 . S
C738 H751 0.961 . S
C738 H752 0.961 . S
C739 C736 1.539 . S
C739 H753 0.958 . S
C739 H754 0.961 . S
C739 H755 0.960 . S
H740 C724 0.931 . S
H741 C729 0.929 . S
H742 C730 0.960 . S
H743 C730 0.962 . S
H744 C730 0.960 . S
H745 C731 0.961 . S
H746 C731 0.961 . S
H747 C731 0.961 . S
H748 C732 0.931 . S
H749 C737 0.930 . S
H750 C738 0.956 . S
H751 C738 0.961 . S
H752 C738 0.961 . S
H753 C739 0.958 . S
H754 C739 0.961 . S
H755 C739 0.960 . S
C756 C757 1.391 . S
C756 C758 1.394 . S
C756 H772 0.931 . S
C757 C756 1.391 . S
C757 C761 1.376 . S
C758 C756 1.394 . S
C758 C759 1.369 . S
C758 C762 1.531 . S
C759 C758 1.369 . S
C759 C760 1.410 . S
C759 C767 1.503 . S
C760 C759 1.410 . S
C760 C761 1.392 . S
C760 C763 1.511 . S
C761 C757 1.376 . S
C761 C760 1.392 . S
C761 H773 0.929 . S
C762 C758 1.531 . S
C762 H774 0.960 . S
C762 H775 0.962 . S
C762 H776 0.960 . S
C763 C760 1.511 . S
C763 H777 0.961 . S
C763 H778 0.961 . S
C763 H779 0.961 . S
C764 C765 1.370 . S
C764 C766 1.363 . S
C764 H780 0.931 . S
C765 C764 1.370 . S
C765 C769 1.408 . S
C766 C764 1.363 . S
C766 C767 1.370 . S
C766 C770 1.524 . S
C767 C759 1.503 . S
C767 C766 1.370 . S
C767 C768 1.403 . S
C768 C767 1.403 . S
C768 C769 1.404 . S
C768 C771 1.539 . S
C769 C765 1.408 . S
C769 C768 1.404 . S
C769 H781 0.930 . S
C770 C766 1.524 . S
C770 H782 0.956 . S
C770 H783 0.961 . S
C770 H784 0.961 . S
C771 C768 1.539 . S
C771 H785 0.958 . S
C771 H786 0.961 . S
C771 H787 0.960 . S
H772 C756 0.931 . S
H773 C761 0.929 . S
H774 C762 0.960 . S
H775 C762 0.962 . S
H776 C762 0.960 . S
H777 C763 0.961 . S
H778 C763 0.961 . S
H779 C763 0.961 . S
H780 C764 0.931 . S
H781 C769 0.930 . S
H782 C770 0.956 . S
H783 C770 0.961 . S
H784 C770 0.961 . S
H785 C771 0.958 . S
H786 C771 0.961 . S
H787 C771 0.960 . S
C788 C789 1.391 . S
C788 C790 1.394 . S
C788 H804 0.931 . S
C789 C788 1.391 . S
C789 C793 1.376 . S
C790 C788 1.394 . S
C790 C791 1.369 . S
C790 C794 1.531 . S
C791 C790 1.369 . S
C791 C792 1.410 . S
C791 C799 1.503 . S
C792 C791 1.410 . S
C792 C793 1.392 . S
C792 C795 1.511 . S
C793 C789 1.376 . S
C793 C792 1.392 . S
C793 H805 0.929 . S
C794 C790 1.531 . S
C794 H806 0.960 . S
C794 H807 0.962 . S
C794 H808 0.960 . S
C795 C792 1.511 . S
C795 H809 0.961 . S
C795 H810 0.961 . S
C795 H811 0.961 . S
C796 C797 1.370 . S
C796 C798 1.363 . S
C796 H812 0.931 . S
C797 C796 1.370 . S
C797 C801 1.408 . S
C798 C796 1.363 . S
C798 C799 1.370 . S
C798 C802 1.524 . S
C799 C791 1.503 . S
C799 C798 1.370 . S
C799 C800 1.403 . S
C800 C799 1.403 . S
C800 C801 1.404 . S
C800 C803 1.539 . S
C801 C797 1.408 . S
C801 C800 1.404 . S
C801 H813 0.930 . S
C802 C798 1.524 . S
C802 H814 0.956 . S
C802 H815 0.961 . S
C802 H816 0.961 . S
C803 C800 1.539 . S
C803 H817 0.958 . S
C803 H818 0.961 . S
C803 H819 0.960 . S
H804 C788 0.931 . S
H805 C793 0.929 . S
H806 C794 0.960 . S
H807 C794 0.962 . S
H808 C794 0.960 . S
H809 C795 0.961 . S
H810 C795 0.961 . S
H811 C795 0.961 . S
H812 C796 0.931 . S
H813 C801 0.930 . S
H814 C802 0.956 . S
H815 C802 0.961 . S
H816 C802 0.961 . S
H817 C803 0.958 . S
H818 C803 0.961 . S
H819 C803 0.960 . S
C820 C821 1.391 . S
C820 C822 1.394 . S
C820 H836 0.931 . S
C821 C820 1.391 . S
C821 C825 1.376 . S
C822 C820 1.394 . S
C822 C823 1.369 . S
C822 C826 1.531 . S
C823 C822 1.369 . S
C823 C824 1.410 . S
C823 C831 1.503 . S
C824 C823 1.410 . S
C824 C825 1.392 . S
C824 C827 1.511 . S
C825 C821 1.376 . S
C825 C824 1.392 . S
C825 H837 0.929 . S
C826 C822 1.531 . S
C826 H838 0.960 . S
C826 H839 0.962 . S
C826 H840 0.960 . S
C827 C824 1.511 . S
C827 H841 0.961 . S
C827 H842 0.961 . S
C827 H843 0.961 . S
C828 C829 1.370 . S
C828 C830 1.363 . S
C828 H844 0.931 . S
C829 C828 1.370 . S
C829 C833 1.408 . S
C830 C828 1.363 . S
C830 C831 1.370 . S
C830 C834 1.524 . S
C831 C823 1.503 . S
C831 C830 1.370 . S
C831 C832 1.403 . S
C832 C831 1.403 . S
C832 C833 1.404 . S
C832 C835 1.539 . S
C833 C829 1.408 . S
C833 C832 1.404 . S
C833 H845 0.930 . S
C834 C830 1.524 . S
C834 H846 0.956 . S
C834 H847 0.961 . S
C834 H848 0.961 . S
C835 C832 1.539 . S
C835 H849 0.958 . S
C835 H850 0.961 . S
C835 H851 0.960 . S
H836 C820 0.931 . S
H837 C825 0.929 . S
H838 C826 0.960 . S
H839 C826 0.962 . S
H840 C826 0.960 . S
H841 C827 0.961 . S
H842 C827 0.961 . S
H843 C827 0.961 . S
H844 C828 0.931 . S
H845 C833 0.930 . S
H846 C834 0.956 . S
H847 C834 0.961 . S
H848 C834 0.961 . S
H849 C835 0.958 . S
H850 C835 0.961 . S
H851 C835 0.960 . S
C852 C853 1.391 . S
C852 C854 1.394 . S
C852 H868 0.931 . S
C853 C852 1.391 . S
C853 C857 1.376 . S
C854 C852 1.394 . S
C854 C855 1.369 . S
C854 C858 1.531 . S
C855 C854 1.369 . S
C855 C856 1.410 . S
C855 C863 1.503 . S
C856 C855 1.410 . S
C856 C857 1.392 . S
C856 C859 1.511 . S
C857 C853 1.376 . S
C857 C856 1.392 . S
C857 H869 0.929 . S
C858 C854 1.531 . S
C858 H870 0.960 . S
C858 H871 0.962 . S
C858 H872 0.960 . S
C859 C856 1.511 . S
C859 H873 0.961 . S
C859 H874 0.961 . S
C859 H875 0.961 . S
C860 C861 1.370 . S
C860 C862 1.363 . S
C860 H876 0.931 . S
C861 C860 1.370 . S
C861 C865 1.408 . S
C862 C860 1.363 . S
C862 C863 1.370 . S
C862 C866 1.524 . S
C863 C855 1.503 . S
C863 C862 1.370 . S
C863 C864 1.403 . S
C864 C863 1.403 . S
C864 C865 1.404 . S
C864 C867 1.539 . S
C865 C861 1.408 . S
C865 C864 1.404 . S
C865 H877 0.930 . S
C866 C862 1.524 . S
C866 H878 0.956 . S
C866 H879 0.961 . S
C866 H880 0.961 . S
C867 C864 1.539 . S
C867 H881 0.958 . S
C867 H882 0.961 . S
C867 H883 0.960 . S
H868 C852 0.931 . S
H869 C857 0.929 . S
H870 C858 0.960 . S
H871 C858 0.962 . S
H872 C858 0.960 . S
H873 C859 0.961 . S
H874 C859 0.961 . S
H875 C859 0.961 . S
H876 C860 0.931 . S
H877 C865 0.930 . S
H878 C866 0.956 . S
H879 C866 0.961 . S
H880 C866 0.961 . S
H881 C867 0.958 . S
H882 C867 0.961 . S
H883 C867 0.960 . S
C884 C885 1.391 . S
C884 C886 1.394 . S
C884 H900 0.931 . S
C885 C884 1.391 . S
C885 C889 1.376 . S
C886 C884 1.394 . S
C886 C887 1.369 . S
C886 C890 1.531 . S
C887 C886 1.369 . S
C887 C888 1.410 . S
C887 C895 1.503 . S
C888 C887 1.410 . S
C888 C889 1.392 . S
C888 C891 1.511 . S
C889 C885 1.376 . S
C889 C888 1.392 . S
C889 H901 0.929 . S
C890 C886 1.531 . S
C890 H902 0.960 . S
C890 H903 0.962 . S
C890 H904 0.960 . S
C891 C888 1.511 . S
C891 H905 0.961 . S
C891 H906 0.961 . S
C891 H907 0.961 . S
C892 C893 1.370 . S
C892 C894 1.363 . S
C892 H908 0.931 . S
C893 C892 1.370 . S
C893 C897 1.408 . S
C894 C892 1.363 . S
C894 C895 1.370 . S
C894 C898 1.524 . S
C895 C887 1.503 . S
C895 C894 1.370 . S
C895 C896 1.403 . S
C896 C895 1.403 . S
C896 C897 1.404 . S
C896 C899 1.539 . S
C897 C893 1.408 . S
C897 C896 1.404 . S
C897 H909 0.930 . S
C898 C894 1.524 . S
C898 H910 0.956 . S
C898 H911 0.961 . S
C898 H912 0.961 . S
C899 C896 1.539 . S
C899 H913 0.958 . S
C899 H914 0.961 . S
C899 H915 0.960 . S
H900 C884 0.931 . S
H901 C889 0.929 . S
H902 C890 0.960 . S
H903 C890 0.962 . S
H904 C890 0.960 . S
H905 C891 0.961 . S
H906 C891 0.961 . S
H907 C891 0.961 . S
H908 C892 0.931 . S
H909 C897 0.930 . S
H910 C898 0.956 . S
H911 C898 0.961 . S
H912 C898 0.961 . S
H913 C899 0.958 . S
H914 C899 0.961 . S
H915 C899 0.960 . S
C916 C917 1.391 . S
C916 C918 1.394 . S
C916 H932 0.931 . S
C917 C916 1.391 . S
C917 C921 1.376 . S
C918 C916 1.394 . S
C918 C919 1.369 . S
C918 C922 1.531 . S
C919 C918 1.369 . S
C919 C920 1.410 . S
C919 C927 1.503 . S
C920 C919 1.410 . S
C920 C921 1.392 . S
C920 C923 1.511 . S
C921 C917 1.376 . S
C921 C920 1.392 . S
C921 H933 0.929 . S
C922 C918 1.531 . S
C922 H934 0.960 . S
C922 H935 0.962 . S
C922 H936 0.960 . S
C923 C920 1.511 . S
C923 H937 0.961 . S
C923 H938 0.961 . S
C923 H939 0.961 . S
C924 C925 1.370 . S
C924 C926 1.363 . S
C924 H940 0.931 . S
C925 C924 1.370 . S
C925 C929 1.408 . S
C926 C924 1.363 . S
C926 C927 1.370 . S
C926 C930 1.524 . S
C927 C919 1.503 . S
C927 C926 1.370 . S
C927 C928 1.403 . S
C928 C927 1.403 . S
C928 C929 1.404 . S
C928 C931 1.539 . S
C929 C925 1.408 . S
C929 C928 1.404 . S
C929 H941 0.930 . S
C930 C926 1.524 . S
C930 H942 0.956 . S
C930 H943 0.961 . S
C930 H944 0.961 . S
C931 C928 1.539 . S
C931 H945 0.958 . S
C931 H946 0.961 . S
C931 H947 0.960 . S
H932 C916 0.931 . S
H933 C921 0.929 . S
H934 C922 0.960 . S
H935 C922 0.962 . S
H936 C922 0.960 . S
H937 C923 0.961 . S
H938 C923 0.961 . S
H939 C923 0.961 . S
H940 C924 0.931 . S
H941 C929 0.930 . S
H942 C930 0.956 . S
H943 C930 0.961 . S
H944 C930 0.961 . S
H945 C931 0.958 . S
H946 C931 0.961 . S
H947 C931 0.960 . S
C948 C949 1.391 . S
C948 C950 1.394 . S
C948 H964 0.931 . S
C949 C948 1.391 . S
C949 C953 1.376 . S
C950 C948 1.394 . S
C950 C951 1.369 . S
C950 C954 1.531 . S
C951 C950 1.369 . S
C951 C952 1.410 . S
C951 C959 1.503 . S
C952 C951 1.410 . S
C952 C953 1.392 . S
C952 C955 1.511 . S
C953 C949 1.376 . S
C953 C952 1.392 . S
C953 H965 0.929 . S
C954 C950 1.531 . S
C954 H966 0.960 . S
C954 H967 0.962 . S
C954 H968 0.960 . S
C955 C952 1.511 . S
C955 H969 0.961 . S
C955 H970 0.961 . S
C955 H971 0.961 . S
C956 C957 1.370 . S
C956 C958 1.363 . S
C956 H972 0.931 . S
C957 C956 1.370 . S
C957 C961 1.408 . S
C958 C956 1.363 . S
C958 C959 1.370 . S
C958 C962 1.524 . S
C959 C951 1.503 . S
C959 C958 1.370 . S
C959 C960 1.403 . S
C960 C959 1.403 . S
C960 C961 1.404 . S
C960 C963 1.539 . S
C961 C957 1.408 . S
C961 C960 1.404 . S
C961 H973 0.930 . S
C962 C958 1.524 . S
C962 H974 0.956 . S
C962 H975 0.961 . S
C962 H976 0.961 . S
C963 C960 1.539 . S
C963 H977 0.958 . S
C963 H978 0.961 . S
C963 H979 0.960 . S
H964 C948 0.931 . S
H965 C953 0.929 . S
H966 C954 0.960 . S
H967 C954 0.962 . S
H968 C954 0.960 . S
H969 C955 0.961 . S
H970 C955 0.961 . S
H971 C955 0.961 . S
H972 C956 0.931 . S
H973 C961 0.930 . S
H974 C962 0.956 . S
H975 C962 0.961 . S
H976 C962 0.961 . S
H977 C963 0.958 . S
H978 C963 0.961 . S
H979 C963 0.960 . S
C980 C981 1.391 . S
C980 C982 1.394 . S
C980 H996 0.931 . S
C981 C980 1.391 . S
C981 C985 1.376 . S
C982 C980 1.394 . S
C982 C983 1.369 . S
C982 C986 1.531 . S
C983 C982 1.369 . S
C983 C984 1.410 . S
C983 C991 1.503 . S
C984 C983 1.410 . S
C984 C985 1.392 . S
C984 C987 1.511 . S
C985 C981 1.376 . S
C985 C984 1.392 . S
C985 H997 0.929 . S
C986 C982 1.531 . S
C986 H998 0.960 . S
C986 H999 0.962 . S
C986 H1000 0.960 . S
C987 C984 1.511 . S
C987 H1001 0.961 . S
C987 H1002 0.961 . S
C987 H1003 0.961 . S
C988 C989 1.370 . S
C988 C990 1.363 . S
C988 H1004 0.931 . S
C989 C988 1.370 . S
C989 C993 1.408 . S
C990 C988 1.363 . S
C990 C991 1.370 . S
C990 C994 1.524 . S
C991 C983 1.503 . S
C991 C990 1.370 . S
C991 C992 1.403 . S
C992 C991 1.403 . S
C992 C993 1.404 . S
C992 C995 1.539 . S
C993 C989 1.408 . S
C993 C992 1.404 . S
C993 H1005 0.930 . S
C994 C990 1.524 . S
C994 H1006 0.956 . S
C994 H1007 0.961 . S
C994 H1008 0.961 . S
C995 C992 1.539 . S
C995 H1009 0.958 . S
C995 H1010 0.961 . S
C995 H1011 0.960 . S
H996 C980 0.931 . S
H997 C985 0.929 . S
H998 C986 0.960 . S
H999 C986 0.962 . S
H1000 C986 0.960 . S
H1001 C987 0.961 . S
H1002 C987 0.961 . S
H1003 C987 0.961 . S
H1004 C988 0.931 . S
H1005 C993 0.930 . S
H1006 C994 0.956 . S
H1007 C994 0.961 . S
H1008 C994 0.961 . S
H1009 C995 0.958 . S
H1010 C995 0.961 . S
H1011 C995 0.960 . S
C1012 C1013 1.391 . S
C1012 C1014 1.394 . S
C1012 H1028 0.931 . S
C1013 C1012 1.391 . S
C1013 C1017 1.376 . S
C1014 C1012 1.394 . S
C1014 C1015 1.369 . S
C1014 C1018 1.531 . S
C1015 C1014 1.369 . S
C1015 C1016 1.410 . S
C1015 C1023 1.503 . S
C1016 C1015 1.410 . S
C1016 C1017 1.392 . S
C1016 C1019 1.511 . S
C1017 C1013 1.376 . S
C1017 C1016 1.392 . S
C1017 H1029 0.929 . S
C1018 C1014 1.531 . S
C1018 H1030 0.960 . S
C1018 H1031 0.962 . S
C1018 H1032 0.960 . S
C1019 C1016 1.511 . S
C1019 H1033 0.961 . S
C1019 H1034 0.961 . S
C1019 H1035 0.961 . S
C1020 C1021 1.370 . S
C1020 C1022 1.363 . S
C1020 H1036 0.931 . S
C1021 C1020 1.370 . S
C1021 C1025 1.408 . S
C1022 C1020 1.363 . S
C1022 C1023 1.370 . S
C1022 C1026 1.524 . S
C1023 C1015 1.503 . S
C1023 C1022 1.370 . S
C1023 C1024 1.403 . S
C1024 C1023 1.403 . S
C1024 C1025 1.404 . S
C1024 C1027 1.539 . S
C1025 C1021 1.408 . S
C1025 C1024 1.404 . S
C1025 H1037 0.930 . S
C1026 C1022 1.524 . S
C1026 H1038 0.956 . S
C1026 H1039 0.961 . S
C1026 H1040 0.961 . S
C1027 C1024 1.539 . S
C1027 H1041 0.958 . S
C1027 H1042 0.961 . S
C1027 H1043 0.960 . S
H1028 C1012 0.931 . S
H1029 C1017 0.929 . S
H1030 C1018 0.960 . S
H1031 C1018 0.962 . S
H1032 C1018 0.960 . S
H1033 C1019 0.961 . S
H1034 C1019 0.961 . S
H1035 C1019 0.961 . S
H1036 C1020 0.931 . S
H1037 C1025 0.930 . S
H1038 C1026 0.956 . S
H1039 C1026 0.961 . S
H1040 C1026 0.961 . S
H1041 C1027 0.958 . S
H1042 C1027 0.961 . S
H1043 C1027 0.960 . S
C1044 C1045 1.391 . S
C1044 C1046 1.394 . S
C1044 H1060 0.931 . S
C1045 C1044 1.391 . S
C1045 C1049 1.376 . S
C1046 C1044 1.394 . S
C1046 C1047 1.369 . S
C1046 C1050 1.531 . S
C1047 C1046 1.369 . S
C1047 C1048 1.410 . S
C1047 C1055 1.503 . S
C1048 C1047 1.410 . S
C1048 C1049 1.392 . S
C1048 C1051 1.511 . S
C1049 C1045 1.376 . S
C1049 C1048 1.392 . S
C1049 H1061 0.929 . S
C1050 C1046 1.531 . S
C1050 H1062 0.960 . S
C1050 H1063 0.962 . S
C1050 H1064 0.960 . S
C1051 C1048 1.511 . S
C1051 H1065 0.961 . S
C1051 H1066 0.961 . S
C1051 H1067 0.961 . S
C1052 C1053 1.370 . S
C1052 C1054 1.363 . S
C1052 H1068 0.931 . S
C1053 C1052 1.370 . S
C1053 C1057 1.408 . S
C1054 C1052 1.363 . S
C1054 C1055 1.370 . S
C1054 C1058 1.524 . S
C1055 C1047 1.503 . S
C1055 C1054 1.370 . S
C1055 C1056 1.403 . S
C1056 C1055 1.403 . S
C1056 C1057 1.404 . S
C1056 C1059 1.539 . S
C1057 C1053 1.408 . S
C1057 C1056 1.404 . S
C1057 H1069 0.930 . S
C1058 C1054 1.524 . S
C1058 H1070 0.956 . S
C1058 H1071 0.961 . S
C1058 H1072 0.961 . S
C1059 C1056 1.539 . S
C1059 H1073 0.958 . S
C1059 H1074 0.961 . S
C1059 H1075 0.960 . S
H1060 C1044 0.931 . S
H1061 C1049 0.929 . S
H1062 C1050 0.960 . S
H1063 C1050 0.962 . S
H1064 C1050 0.960 . S
H1065 C1051 0.961 . S
H1066 C1051 0.961 . S
H1067 C1051 0.961 . S
H1068 C1052 0.931 . S
H1069 C1057 0.930 . S
H1070 C1058 0.956 . S
H1071 C1058 0.961 . S
H1072 C1058 0.961 . S
H1073 C1059 0.958 . S
H1074 C1059 0.961 . S
H1075 C1059 0.960 . S
C1076 C1077 1.391 . S
C1076 C1078 1.394 . S
C1076 H1092 0.931 . S
C1077 C1076 1.391 . S
C1077 C1081 1.376 . S
C1078 C1076 1.394 . S
C1078 C1079 1.369 . S
C1078 C1082 1.531 . S
C1079 C1078 1.369 . S
C1079 C1080 1.410 . S
C1079 C1087 1.503 . S
C1080 C1079 1.410 . S
C1080 C1081 1.392 . S
C1080 C1083 1.511 . S
C1081 C1077 1.376 . S
C1081 C1080 1.392 . S
C1081 H1093 0.929 . S
C1082 C1078 1.531 . S
C1082 H1094 0.960 . S
C1082 H1095 0.962 . S
C1082 H1096 0.960 . S
C1083 C1080 1.511 . S
C1083 H1097 0.961 . S
C1083 H1098 0.961 . S
C1083 H1099 0.961 . S
C1084 C1085 1.370 . S
C1084 C1086 1.363 . S
C1084 H1100 0.931 . S
C1085 C1084 1.370 . S
C1085 C1089 1.408 . S
C1086 C1084 1.363 . S
C1086 C1087 1.370 . S
C1086 C1090 1.524 . S
C1087 C1079 1.503 . S
C1087 C1086 1.370 . S
C1087 C1088 1.403 . S
C1088 C1087 1.403 . S
C1088 C1089 1.404 . S
C1088 C1091 1.539 . S
C1089 C1085 1.408 . S
C1089 C1088 1.404 . S
C1089 H1101 0.930 . S
C1090 C1086 1.524 . S
C1090 H1102 0.956 . S
C1090 H1103 0.961 . S
C1090 H1104 0.961 . S
C1091 C1088 1.539 . S
C1091 H1105 0.958 . S
C1091 H1106 0.961 . S
C1091 H1107 0.960 . S
H1092 C1076 0.931 . S
H1093 C1081 0.929 . S
H1094 C1082 0.960 . S
H1095 C1082 0.962 . S
H1096 C1082 0.960 . S
H1097 C1083 0.961 . S
H1098 C1083 0.961 . S
H1099 C1083 0.961 . S
H1100 C1084 0.931 . S
H1101 C1089 0.930 . S
H1102 C1090 0.956 . S
H1103 C1090 0.961 . S
H1104 C1090 0.961 . S
H1105 C1091 0.958 . S
H1106 C1091 0.961 . S
H1107 C1091 0.960 . S
C1108 C1109 1.391 . S
C1108 C1110 1.394 . S
C1108 H1124 0.931 . S
C1109 C1108 1.391 . S
C1109 C1113 1.376 . S
C1110 C1108 1.394 . S
C1110 C1111 1.369 . S
C1110 C1114 1.531 . S
C1111 C1110 1.369 . S
C1111 C1112 1.410 . S
C1111 C1119 1.503 . S
C1112 C1111 1.410 . S
C1112 C1113 1.392 . S
C1112 C1115 1.511 . S
C1113 C1109 1.376 . S
C1113 C1112 1.392 . S
C1113 H1125 0.929 . S
C1114 C1110 1.531 . S
C1114 H1126 0.960 . S
C1114 H1127 0.962 . S
C1114 H1128 0.960 . S
C1115 C1112 1.511 . S
C1115 H1129 0.961 . S
C1115 H1130 0.961 . S
C1115 H1131 0.961 . S
C1116 C1117 1.370 . S
C1116 C1118 1.363 . S
C1116 H1132 0.931 . S
C1117 C1116 1.370 . S
C1117 C1121 1.408 . S
C1118 C1116 1.363 . S
C1118 C1119 1.370 . S
C1118 C1122 1.524 . S
C1119 C1111 1.503 . S
C1119 C1118 1.370 . S
C1119 C1120 1.403 . S
C1120 C1119 1.403 . S
C1120 C1121 1.404 . S
C1120 C1123 1.539 . S
C1121 C1117 1.408 . S
C1121 C1120 1.404 . S
C1121 H1133 0.930 . S
C1122 C1118 1.524 . S
C1122 H1134 0.956 . S
C1122 H1135 0.961 . S
C1122 H1136 0.961 . S
C1123 C1120 1.539 . S
C1123 H1137 0.958 . S
C1123 H1138 0.961 . S
C1123 H1139 0.960 . S
H1124 C1108 0.931 . S
H1125 C1113 0.929 . S
H1126 C1114 0.960 . S
H1127 C1114 0.962 . S
H1128 C1114 0.960 . S
H1129 C1115 0.961 . S
H1130 C1115 0.961 . S
H1131 C1115 0.961 . S
H1132 C1116 0.931 . S
H1133 C1121 0.930 . S
H1134 C1122 0.956 . S
H1135 C1122 0.961 . S
H1136 C1122 0.961 . S
H1137 C1123 0.958 . S
H1138 C1123 0.961 . S
H1139 C1123 0.960 . S
C373 C13 1.743 . S
C381 C105 1.714 . S
C405 C27 1.742 . S
C413 C162 1.726 . S
C445 C216 1.707 . S
C437 C29 1.725 . S
C477 C273 1.672 . S
C469 C54 1.734 . S
C509 C297 1.720 . S
C501 C69 1.734 . S
C541 C354 1.729 . S
C533 C83 1.733 . S
C565 C15 1.749 . S
C573 C201 1.711 . S
C597 C41 1.737 . S
C605 C258 1.729 . S
C637 C312 1.705 . S
C629 C42 1.727 . S
C669 C369 1.681 . S
C661 C57 1.719 . S
C693 C71 1.749 . S
C701 C120 1.685 . S
C733 C177 1.678 . S
C725 C1 1.725 . S
C765 C264 1.718 . S
C757 C12 1.743 . S
C789 C26 1.726 . S
C797 C306 1.674 . S
C829 C345 1.685 . S
C821 C28 1.749 . S
C853 C55 1.730 . S
C861 C114 1.671 . S
C885 C68 1.730 . S
C893 C153 1.699 . S
C917 C82 1.719 . S
C925 C225 1.738 . S
C949 C14 1.746 . S
C957 C360 1.713 . S
C989 C129 1.731 . S
C981 C40 1.734 . S
C1013 C43 1.749 . S
C1021 C168 1.711 . S
C1045 C56 1.741 . S
C1053 C210 1.659 . S
C1077 C70 1.745 . S
C1085 C249 1.690 . S
C1109 C0 1.722 . S
C1117 C321 1.736 . S
