# Generated by pormake.
# Topology nom, (4,4)-cn, num edge types: 1
# Building blocks:
#     Node 0, Type 0, BuildingBlock: KUFVIS_clean_linker_0, # of connection points: 4
#     Node 1, Type 0, BuildingBlock: KUFVIS_clean_linker_0, # of connection points: 4
#     Node 2, Type 0, BuildingBlock: KUFVIS_clean_linker_0, # of connection points: 4
#     Node 3, Type 0, BuildingBlock: KUFVIS_clean_linker_0, # of connection points: 4
#     Node 4, Type 0, BuildingBlock: KUFVIS_clean_linker_0, # of connection points: 4
#     Node 5, Type 0, BuildingBlock: KUFVIS_clean_linker_0, # of connection points: 4
#     Node 6, Type 1, BuildingBlock: QUQFOY_clean_sbu_1, # of connection points: 4
#     Node 7, Type 1, BuildingBlock: QUQFOY_clean_sbu_1, # of connection points: 4
#     Node 8, Type 1, BuildingBlock: QUQFOY_clean_sbu_1, # of connection points: 4
#     Node 9, Type 1, BuildingBlock: QUQFOY_clean_sbu_1, # of connection points: 4
#     Node 10, Type 1, BuildingBlock: QUQFOY_clean_sbu_1, # of connection points: 4
#     Node 11, Type 1, BuildingBlock: QUQFOY_clean_sbu_1, # of connection points: 4
#     Edge 12, Type (0, 1), BuildingBlock: XIVTED_clean_linker_0, # of connection points: 2
#     Edge 13, Type (0, 1), BuildingBlock: XIVTED_clean_linker_0, # of connection points: 2
#     Edge 14, Type (0, 1), BuildingBlock: XIVTED_clean_linker_0, # of connection points: 2
#     Edge 15, Type (0, 1), BuildingBlock: XIVTED_clean_linker_0, # of connection points: 2
#     Edge 16, Type (0, 1), BuildingBlock: XIVTED_clean_linker_0, # of connection points: 2
#     Edge 17, Type (0, 1), BuildingBlock: XIVTED_clean_linker_0, # of connection points: 2
#     Edge 18, Type (0, 1), BuildingBlock: XIVTED_clean_linker_0, # of connection points: 2
#     Edge 19, Type (0, 1), BuildingBlock: XIVTED_clean_linker_0, # of connection points: 2
#     Edge 20, Type (0, 1), BuildingBlock: XIVTED_clean_linker_0, # of connection points: 2
#     Edge 21, Type (0, 1), BuildingBlock: XIVTED_clean_linker_0, # of connection points: 2
#     Edge 22, Type (0, 1), BuildingBlock: XIVTED_clean_linker_0, # of connection points: 2
#     Edge 23, Type (0, 1), BuildingBlock: XIVTED_clean_linker_0, # of connection points: 2
#     Edge 24, Type (0, 1), BuildingBlock: XIVTED_clean_linker_0, # of connection points: 2
#     Edge 25, Type (0, 1), BuildingBlock: XIVTED_clean_linker_0, # of connection points: 2
#     Edge 26, Type (0, 1), BuildingBlock: XIVTED_clean_linker_0, # of connection points: 2
#     Edge 27, Type (0, 1), BuildingBlock: XIVTED_clean_linker_0, # of connection points: 2
#     Edge 28, Type (0, 1), BuildingBlock: XIVTED_clean_linker_0, # of connection points: 2
#     Edge 29, Type (0, 1), BuildingBlock: XIVTED_clean_linker_0, # of connection points: 2
#     Edge 30, Type (0, 1), BuildingBlock: XIVTED_clean_linker_0, # of connection points: 2
#     Edge 31, Type (0, 1), BuildingBlock: XIVTED_clean_linker_0, # of connection points: 2
#     Edge 32, Type (0, 1), BuildingBlock: XIVTED_clean_linker_0, # of connection points: 2
#     Edge 33, Type (0, 1), BuildingBlock: XIVTED_clean_linker_0, # of connection points: 2
#     Edge 34, Type (0, 1), BuildingBlock: XIVTED_clean_linker_0, # of connection points: 2
#     Edge 35, Type (0, 1), BuildingBlock: XIVTED_clean_linker_0, # of connection points: 2
# Relax obj value: 0.005
# Max RMSD: 0.089
# Mean RMSD: 0.068
data_MOF--net-nom--node1-QUQFOY_clean_sbu_1--node2-KUFVIS_clean_linker_0--edge1-XIVTED_clean_linker_0
_symmetry_space_group_name_H-M    P1
_symmetry_Int_Tables_number       1
_symmetry_cell_setting            triclinic
loop_
_symmetry_equiv_pos_as_xyz
'x, y, z'
_cell_length_a     46.815086
_cell_length_b     46.81703
_cell_length_c     47.208548
_cell_angle_alpha  90.064893
_cell_angle_beta   89.928285
_cell_angle_gamma 119.78801
loop_
_atom_site_label
_atom_site_type_symbol
_atom_site_fract_x
_atom_site_fract_y
_atom_site_fract_z
_atom_type_partial_charge
H0 H 0.15903 0.59443 0.29578 0.0
H1 H 0.07725 0.5706 0.24119 0.0
H2 H 0.06154 0.54144 0.3296 0.0
H3 H 1.01456 0.54196 0.32294 0.0
H4 H 0.93291 0.4805 0.26957 0.0
H5 H 1.03038 0.52295 0.23597 0.0
C6 C 0.13261 0.58256 0.29261 0.0
C7 C 0.1115 0.56851 0.31564 0.0
C8 C 0.12032 0.58304 0.26581 0.0
C9 C 0.08625 0.56911 0.26193 0.0
C10 C 0.06419 0.55314 0.28469 0.0
C11 C 0.07743 0.5535 0.31167 0.0
C12 C 1.02768 0.53472 0.28021 0.0
C13 C 1.00559 0.53009 0.30264 0.0
C14 C 0.97154 0.50968 0.29901 0.0
C15 C 0.95932 0.49519 0.27268 0.0
C16 C 0.98043 0.50082 0.24988 0.0
C17 C 1.01448 0.52015 0.25367 0.0
H18 H 0.60562 0.14277 0.46359 0.0
H19 H 0.53439 0.0695 0.40839 0.0
H20 H 0.54799 0.04393 0.49353 0.0
H21 H 0.49523 1.00597 0.48871 0.0
H22 H 0.4443 0.92595 0.43088 0.0
H23 H 0.52322 1.01712 0.40008 0.0
C24 C 0.58778 0.11717 0.45944 0.0
C25 C 0.57829 0.09427 0.48142 0.0
C26 C 0.57228 0.10832 0.43305 0.0
C27 C 0.54722 0.07573 0.42848 0.0
C28 C 0.5384 0.05165 0.44994 0.0
C29 C 0.55425 0.06147 0.47647 0.0
C30 C 0.51225 1.01671 0.44489 0.0
C31 C 0.49229 0.99655 0.46733 0.0
C32 C 0.46789 0.96388 0.4622 0.0
C33 C 0.46272 0.95146 0.43466 0.0
C34 C 0.48241 0.97061 0.41229 0.0
C35 C 0.50744 1.00296 0.41747 0.0
H36 H 0.59545 0.47019 0.60126 0.0
H37 H 0.52896 0.4814 0.65645 0.0
H38 H 0.54424 0.51818 0.57032 0.0
H39 H 0.49244 0.50933 0.57677 0.0
H40 H 0.46107 0.56028 0.63298 0.0
H41 H 0.52698 0.52886 0.66367 0.0
C42 C 0.57888 0.47974 0.6051 0.0
C43 C 0.5711 0.49435 0.58293 0.0
C44 C 0.5639 0.47514 0.63157 0.0
C45 C 0.54107 0.48586 0.63606 0.0
C46 C 0.5341 0.5023 0.61428 0.0
C47 C 0.54906 0.50591 0.58754 0.0
C48 C 0.51238 0.51673 0.6196 0.0
C49 C 0.49326 0.51943 0.59759 0.0
C50 C 0.47494 0.53524 0.6025 0.0
C51 C 0.47526 0.54803 0.62925 0.0
C52 C 0.4936 0.54533 0.65125 0.0
C53 C 0.51203 0.52968 0.64655 0.0
H54 H 0.15675 0.59169 0.77167 0.0
H55 H 0.08008 0.52061 0.82459 0.0
H56 H 0.05846 0.53925 0.73963 0.0
H57 H 1.01829 0.48713 0.74294 0.0
H58 H 0.9358 0.43858 0.79871 0.0
H59 H 1.02853 0.51165 0.8324 0.0
C60 C 0.1308 0.57464 0.77523 0.0
C61 C 0.10865 0.56705 0.75289 0.0
C62 C 0.12061 0.55821 0.80116 0.0
C63 C 0.08742 0.53417 0.80486 0.0
C64 C 0.06415 0.5273 0.78303 0.0
C65 C 0.07534 0.54401 0.75698 0.0
C66 C 1.02856 0.50245 0.78722 0.0
C67 C 1.00838 0.48412 0.76414 0.0
C68 C 0.97494 0.46154 0.76838 0.0
C69 C 0.96176 0.45603 0.79562 0.0
C70 C 0.98111 0.47363 0.81871 0.0
C71 C 1.01422 0.4973 0.81444 0.0
H72 H 0.49519 0.91942 -0.03688 0.0
H73 H 0.55485 1.00187 0.9099 0.0
H74 H 0.53618 1.01654 -0.0027 0.0
H75 H 0.58319 0.06418 -0.00812 0.0
H76 H 0.60491 0.14564 0.93752 0.0
H77 H 0.55298 0.04812 0.90375 0.0
C78 C 0.5095 0.94589 -0.03982 0.0
C79 C 0.51489 0.96674 -0.01687 0.0
C80 C 0.52359 0.9585 0.93382 0.0
C81 C 0.54334 0.99263 0.93028 0.0
C82 C 0.54771 1.01442 0.95289 0.0
C83 C 0.53359 1.00087 -0.02052 0.0
C84 C 0.56529 0.05095 0.94852 0.0
C85 C 0.58119 0.07309 -0.02875 0.0
C86 C 0.59446 0.10711 -0.03254 0.0
C87 C 0.59337 0.11925 0.94072 0.0
C88 C 0.57939 0.09809 0.91772 0.0
C89 C 0.56498 0.06407 0.92166 0.0
H90 H 0.5015 0.60198 0.10438 0.0
H91 H 0.56217 0.58018 0.15763 0.0
H92 H 0.54479 0.54776 0.07004 0.0
H93 H 0.593 0.54876 0.07566 0.0
H94 H 0.61424 0.48784 0.1291 0.0
H95 H 0.56043 0.5317 0.1632 0.0
C96 C 0.51633 0.59029 0.10732 0.0
C97 C 0.52232 0.57529 0.08432 0.0
C98 C 0.53039 0.59185 0.13372 0.0
C99 C 0.55077 0.57802 0.13721 0.0
C100 C 0.55583 0.56115 0.1145 0.0
C101 C 0.54171 0.5605 0.0879 0.0
C102 C 0.57396 0.54264 0.11877 0.0
C103 C 0.5907 0.53734 0.09609 0.0
C104 C 0.60431 0.51677 0.09966 0.0
C105 C 0.60262 0.50272 0.1261 0.0
C106 C 0.5877 0.50889 0.14907 0.0
C107 C 0.57311 0.52846 0.14538 0.0
O108 O 0.63246 0.40313 0.40181 0.0
Cd109 Cd 0.64173 0.38357 0.36611 0.0
Cd110 Cd 0.69956 0.44263 0.36731 0.0
O111 O 0.6804 0.44901 0.40425 0.0
O112 O 0.60672 0.33638 0.36587 0.0
O113 O 0.65975 0.35249 0.36837 0.0
C114 C 0.6296 0.32877 0.36747 0.0
C115 C 0.75425 0.4545 0.36732 0.0
C116 C 0.6517 0.43029 0.41392 0.0
C117 C 0.65399 0.42995 0.31817 0.0
O118 O 0.68047 0.45027 0.33061 0.0
O119 O 0.63586 0.40131 0.3282 0.0
O120 O 0.74679 0.47755 0.36772 0.0
O121 O 0.73043 0.42437 0.36694 0.0
O122 O 0.25961 0.62115 0.57177 0.0
Cd123 Cd 0.28736 0.62759 0.53583 0.0
Cd124 Cd 0.28627 0.68749 0.5349 0.0
O125 O 0.26131 0.66916 0.57216 0.0
O126 O 0.29569 0.58976 0.53676 0.0
O127 O 0.33569 0.64154 0.53728 0.0
C128 C 0.32674 0.61062 0.53736 0.0
C129 C 0.32472 0.74385 0.53391 0.0
C130 C 0.2518 0.64104 0.58297 0.0
C131 C 0.25346 0.63934 0.48696 0.0
O132 O 0.2599 0.6665 0.49837 0.0
O133 O 0.26349 0.6212 0.498 0.0
O134 O 0.29354 0.73319 0.53404 0.0
O135 O 0.33436 0.72234 0.53431 0.0
O136 O 0.67834 0.24693 0.73558 0.0
Cd137 Cd 0.69923 0.273 0.69891 0.0
Cd138 Cd 0.63967 0.27334 0.69704 0.0
O139 O 0.63258 0.24966 0.73504 0.0
O140 O 0.7454 0.28163 0.70012 0.0
O141 O 0.73303 0.32141 0.69907 0.0
C142 C 0.75519 0.31264 0.69978 0.0
C143 C 0.62527 0.31453 0.69501 0.0
C144 C 0.65087 0.24012 0.74658 0.0
C145 C 0.65348 0.23747 0.65071 0.0
O146 O 0.63328 0.2452 0.66137 0.0
O147 O 0.6815 0.24737 0.66188 0.0
O148 O 0.60327 0.2838 0.69565 0.0
O149 O 0.65583 0.32205 0.69522 0.0
O150 O 0.46388 0.66809 0.90159 0.0
Cd151 Cd 0.45448 0.68636 0.8652 0.0
Cd152 Cd 0.39511 0.62835 0.86893 0.0
O153 O 0.41467 0.62428 0.90649 0.0
O154 O 0.49018 0.73324 0.86331 0.0
O155 O 0.43744 0.71824 0.86654 0.0
C156 C 0.46776 0.7415 0.8649 0.0
C157 C 0.33995 0.61515 0.86879 0.0
C158 C 0.44395 0.64238 0.91518 0.0
C159 C 0.43929 0.6367 0.81947 0.0
O160 O 0.41313 0.61769 0.83299 0.0
O161 O 0.45826 0.6659 0.82797 0.0
O162 O 0.3482 0.5928 0.87118 0.0
O163 O 0.36321 0.64539 0.86652 0.0
O164 O 0.82266 0.39381 -0.00103 0.0
Cd165 Cd 0.79582 0.3785 0.03602 0.0
Cd166 Cd 0.80253 0.44036 0.03184 0.0
O167 O 0.82711 0.44286 -0.00485 0.0
O168 O 0.78277 0.33102 0.03845 0.0
O169 O 0.74661 0.34816 0.03574 0.0
C170 C 0.7525 0.32402 0.03736 0.0
C171 C 0.76093 0.45403 0.03101 0.0
C172 C 0.83334 0.42103 -0.01401 0.0
C173 C 0.83422 0.42745 0.08163 0.0
O174 O 0.82928 0.44826 0.06845 0.0
O175 O 0.8218 0.39803 0.07276 0.0
O176 O 0.79156 0.47635 0.02977 0.0
O177 O 0.75383 0.42362 0.03253 0.0
O178 O 0.46271 0.81644 0.16548 0.0
Cd179 Cd 0.45445 0.78991 0.20228 0.0
Cd180 Cd 0.39225 0.78259 0.19704 0.0
O181 O 0.4122 0.80784 0.16008 0.0
O182 O 0.49037 0.77888 0.20492 0.0
O183 O 0.43766 0.74121 0.20171 0.0
C184 C 0.46803 0.74827 0.20352 0.0
C185 C 0.33728 0.74021 0.1957 0.0
C186 C 0.44183 0.82068 0.15168 0.0
C187 C 0.43425 0.82096 0.24716 0.0
O188 O 0.40732 0.81014 0.23371 0.0
O189 O 0.45626 0.81461 0.23872 0.0
O190 O 0.34511 0.77067 0.19396 0.0
O191 O 0.36086 0.73356 0.19796 0.0
H192 H 0.16192 0.56466 0.2431 0.0
H193 H 0.28301 0.74743 0.19097 0.0
H194 H 0.13485 0.64001 0.23846 0.0
H195 H 0.31162 0.67364 0.20258 0.0
H196 H 0.22561 0.70537 0.19815 0.0
H197 H 0.21262 0.60039 0.2172 0.0
C198 C 0.16624 0.58838 0.23568 0.0
C199 C 0.14437 0.59955 0.24282 0.0
C200 C 0.24437 0.69826 0.19878 0.0
C201 C 0.20275 0.64103 0.21418 0.0
C202 C 0.27721 0.72229 0.19472 0.0
C203 C 0.30226 0.71414 0.19664 0.0
C204 C 0.23644 0.66582 0.20491 0.0
C205 C 0.29318 0.68111 0.20124 0.0
C206 C 0.19529 0.6089 0.22118 0.0
C207 C 0.1511 0.63054 0.23313 0.0
N208 N 0.26105 0.65824 0.20555 0.0
N209 N 0.18005 0.65051 0.21973 0.0
H210 H 0.63291 0.15334 0.41326 0.0
H211 H 0.56855 0.27412 0.36427 0.0
H212 H 0.53024 0.12447 0.40672 0.0
H213 H 0.67119 0.30376 0.37453 0.0
H214 H 0.55426 0.21692 0.37139 0.0
H215 H 0.64735 0.20532 0.38981 0.0
C216 C 0.61338 0.15767 0.40616 0.0
C217 C 0.58037 0.1348 0.41211 0.0
C218 C 0.57994 0.23586 0.3718 0.0
C219 C 0.59666 0.1945 0.38593 0.0
C220 C 0.58815 0.26859 0.3678 0.0
C221 C 0.62112 0.29386 0.36922 0.0
C222 C 0.60486 0.22826 0.3774 0.0
C223 C 0.64544 0.28513 0.37355 0.0
C224 C 0.62162 0.18741 0.39295 0.0
C225 C 0.55598 0.14146 0.40246 0.0
N226 N 0.63679 0.25309 0.37778 0.0
N227 N 0.56464 0.171 0.39029 0.0
H228 H 0.49715 0.58394 0.56317 0.0
H229 H 0.39424 0.6476 0.53878 0.0
H230 H 0.40908 0.49955 0.5939 0.0
H231 H 0.31434 0.54717 0.53962 0.0
H232 H 0.43302 0.62767 0.54547 0.0
H233 H 0.46328 0.60278 0.53887 0.0
C234 C 0.47059 0.56885 0.56391 0.0
C235 C 0.45572 0.54011 0.58028 0.0
C236 C 0.40714 0.60985 0.5434 0.0
C237 C 0.41687 0.56239 0.5543 0.0
C238 C 0.38491 0.62132 0.53991 0.0
C239 C 0.35097 0.59907 0.5389 0.0
C240 C 0.39531 0.57582 0.54595 0.0
C241 C 0.34027 0.56527 0.54049 0.0
C242 C 0.45124 0.57997 0.55064 0.0
C243 C 0.42132 0.52168 0.58119 0.0
N244 N 0.3623 0.55475 0.54432 0.0
N245 N 0.40303 0.53333 0.56868 0.0
H246 H 0.95691 0.40087 0.74734 0.0
H247 H 0.78488 0.38015 0.70081 0.0
H248 H 0.93877 0.48204 0.7392 0.0
H249 H 0.80663 0.30071 0.70171 0.0
H250 H 0.8435 0.41932 0.70748 0.0
H251 H 0.90548 0.3656 0.72208 0.0
C252 C 0.9427 0.41152 0.73909 0.0
C253 C 0.95204 0.44432 0.74494 0.0
C254 C 0.83549 0.39334 0.70585 0.0
C255 C 0.89252 0.40403 0.71745 0.0
C256 C 0.802 0.37097 0.70214 0.0
C257 C 0.79075 0.33707 0.70116 0.0
C258 C 0.85785 0.3817 0.7088 0.0
C259 C 0.81409 0.32659 0.70273 0.0
C260 C 0.91313 0.39136 0.72503 0.0
C261 C 0.93243 0.4569 0.73466 0.0
N262 N 0.84642 0.34876 0.7068 0.0
N263 N 0.90325 0.43658 0.72185 0.0
H264 H 0.46561 0.91778 0.90815 0.0
H265 H 0.52952 0.79537 0.86297 0.0
H266 H 0.56761 0.94354 0.90986 0.0
H267 H 0.42702 0.76781 0.86956 0.0
H268 H 0.54468 0.85288 0.86998 0.0
H269 H 0.45229 0.86709 0.8828 0.0
C270 C 0.48535 0.9132 0.90221 0.0
C271 C 0.51771 0.9347 0.91096 0.0
C272 C 0.51886 0.83432 0.86956 0.0
C273 C 0.50262 0.87629 0.88302 0.0
C274 C 0.51015 0.80143 0.8656 0.0
C275 C 0.47693 0.77664 0.86613 0.0
C276 C 0.4942 0.84255 0.87413 0.0
C277 C 0.45294 0.78603 0.86934 0.0
C278 C 0.47773 0.88413 0.88805 0.0
C279 C 0.54241 0.9276 0.90322 0.0
N280 N 0.46207 0.8182 0.87352 0.0
N281 N 0.53427 0.89864 0.89011 0.0
H282 H 0.66166 0.56021 0.07337 0.0
H283 H 0.69401 0.41342 0.03363 0.0
H284 H 0.58757 0.45768 0.0761 0.0
H285 H 0.76877 0.51599 0.03067 0.0
H286 H 0.65232 0.42973 0.04037 0.0
H287 H 0.6983 0.54546 0.04798 0.0
C288 C 0.65272 0.53475 0.06761 0.0
C289 C 0.62174 0.51007 0.07679 0.0
C290 C 0.6778 0.44871 0.03791 0.0
C291 C 0.66359 0.49283 0.04877 0.0
C292 C 0.70163 0.43937 0.03411 0.0
C293 C 0.73499 0.46335 0.03204 0.0
C294 C 0.6874 0.48228 0.03987 0.0
C295 C 0.74338 0.49663 0.03253 0.0
C296 C 0.67371 0.52624 0.05345 0.0
C297 C 0.61139 0.47735 0.06933 0.0
N298 N 0.71981 0.5051 0.03675 0.0
N299 N 0.63245 0.46961 0.05617 0.0
H300 H 0.49151 0.9409 0.50369 0.0
H301 H 0.39234 0.77538 0.53277 0.0
H302 H 0.40181 0.93248 0.47097 0.0
H303 H 0.31076 0.79385 0.53099 0.0
H304 H 0.42999 0.83395 0.52488 0.0
H305 H 0.45899 0.88963 0.5302 0.0
C306 C 0.46489 0.92876 0.50291 0.0
C307 C 0.44918 0.94068 0.48516 0.0
C308 C 0.40399 0.82546 0.52703 0.0
C309 C 0.41196 0.88139 0.514 0.0
C310 C 0.38241 0.79185 0.53123 0.0
C311 C 0.34832 0.77961 0.53222 0.0
C312 C 0.39131 0.84694 0.52372 0.0
C313 C 0.33682 0.8021 0.5301 0.0
C314 C 0.44634 0.89912 0.5175 0.0
C315 C 0.41472 0.92395 0.48448 0.0
N316 N 0.3582 0.83453 0.52552 0.0
N317 N 0.39726 0.89493 0.49839 0.0
H318 H 0.62337 0.49191 0.65448 0.0
H319 H 0.56297 0.30564 0.6956 0.0
H320 H 0.52151 0.41584 0.65552 0.0
H321 H 0.66502 0.38154 0.69103 0.0
H322 H 0.5468 0.34742 0.68944 0.0
H323 H 0.6382 0.45437 0.67757 0.0
C324 C 0.60403 0.46755 0.66048 0.0
C325 C 0.57122 0.45681 0.65311 0.0
C326 C 0.57273 0.35502 0.69006 0.0
C327 C 0.58801 0.41334 0.67856 0.0
C328 C 0.58202 0.33115 0.69349 0.0
C329 C 0.61544 0.34005 0.69341 0.0
C330 C 0.597 0.38809 0.6864 0.0
C331 C 0.63898 0.37351 0.69091 0.0
C332 C 0.6125 0.44602 0.67338 0.0
C333 C 0.54705 0.42502 0.66104 0.0
N334 N 0.62931 0.39626 0.68722 0.0
N335 N 0.556 0.40414 0.67289 0.0
H336 H 0.13227 0.513 0.82739 0.0
H337 H 0.28632 0.55519 0.88006 0.0
H338 H 0.16801 0.61722 0.82203 0.0
H339 H 0.31346 0.65398 0.85473 0.0
H340 H 0.22875 0.53869 0.87346 0.0
H341 H 0.18263 0.52427 0.85154 0.0
C342 C 0.15033 0.53827 0.83227 0.0
C343 C 0.14616 0.56421 0.82252 0.0
C344 C 0.24701 0.56393 0.86907 0.0
C345 C 0.20455 0.57777 0.84995 0.0
C346 C 0.2801 0.57345 0.87306 0.0
C347 C 0.30482 0.60589 0.86741 0.0
C348 C 0.23851 0.58694 0.85888 0.0
C349 C 0.29527 0.62862 0.85901 0.0
C350 C 0.17944 0.54488 0.84599 0.0
C351 C 0.1705 0.59653 0.82899 0.0
N352 N 0.26293 0.61861 0.85469 0.0
N353 N 0.19882 0.60239 0.84186 0.0
H354 H 0.64968 0.11903 -0.00335 0.0
H355 H 0.68597 0.30016 0.03286 0.0
H356 H 0.57855 0.1514 -0.01157 0.0
H357 H 0.75808 0.26864 0.03975 0.0
H358 H 0.64322 0.24285 0.02583 0.0
H359 H 0.68598 0.1698 0.02259 0.0
C360 C 0.64126 0.13631 0.00126 0.0
C361 C 0.61131 0.1313 -0.00965 0.0
C362 C 0.66834 0.24841 0.02924 0.0
C363 C 0.65282 0.18965 0.01906 0.0
C364 C 0.69276 0.28117 0.03322 0.0
C365 C 0.72573 0.28929 0.03643 0.0
C366 C 0.67696 0.2236 0.02827 0.0
C367 C 0.73304 0.26359 0.03697 0.0
C368 C 0.66208 0.16545 0.01575 0.0
C369 C 0.60161 0.15458 -0.00354 0.0
N370 N 0.70894 0.23199 0.03257 0.0
N371 N 0.62253 0.18299 0.00999 0.0
H372 H 0.57394 0.64909 0.1601 0.0
H373 H 0.42736 0.68138 0.20075 0.0
H374 H 0.47137 0.5751 0.15744 0.0
H375 H 0.52997 0.75602 0.20394 0.0
H376 H 0.44361 0.63969 0.19371 0.0
H377 H 0.55931 0.68562 0.18585 0.0
C378 C 0.5485 0.64015 0.16594 0.0
C379 C 0.52377 0.60923 0.15669 0.0
C380 C 0.46261 0.66514 0.1963 0.0
C381 C 0.50667 0.65094 0.18513 0.0
C382 C 0.45331 0.68897 0.20027 0.0
C383 C 0.47732 0.7223 0.20249 0.0
C384 C 0.49617 0.67471 0.19429 0.0
C385 C 0.51059 0.73065 0.20199 0.0
C386 C 0.54006 0.66107 0.18031 0.0
C387 C 0.49108 0.59887 0.16426 0.0
N388 N 0.51903 0.70709 0.19757 0.0
N389 N 0.48341 0.61986 0.17763 0.0
H390 H 0.95911 0.55459 0.32488 0.0
H391 H 0.77885 0.41218 0.36546 0.0
H392 H 0.92784 0.45119 0.32252 0.0
H393 H 0.80914 0.51559 0.36654 0.0
H394 H 0.83625 0.42659 0.3587 0.0
H395 H 0.90821 0.54171 0.35008 0.0
C396 C 0.94205 0.52931 0.33065 0.0
C397 C 0.94742 0.50386 0.32162 0.0
C398 C 0.83041 0.44616 0.36074 0.0
C399 C 0.88891 0.48877 0.34946 0.0
C400 C 0.7976 0.43791 0.36454 0.0
C401 C 0.7891 0.46268 0.3661 0.0
C402 C 0.85491 0.47942 0.3583 0.0
C403 C 0.8145 0.49565 0.36507 0.0
C404 C 0.91283 0.52187 0.34471 0.0
C405 C 0.9244 0.47143 0.32914 0.0
N406 N 0.84617 0.50304 0.3609 0.0
N407 N 0.89591 0.46475 0.34221 0.0
H408 H 0.10192 0.59637 0.36269 0.0
H409 H 0.24353 0.58913 0.45136 0.0
H410 H 0.1551 0.54929 0.33208 0.0
H411 H 0.21341 0.66141 0.46603 0.0
H412 H 0.20473 0.56705 0.41193 0.0
H413 H 0.13499 0.6118 0.40617 0.0
C414 C 0.12 0.58859 0.36552 0.0
C415 C 0.12598 0.57165 0.34396 0.0
C416 C 0.20668 0.58777 0.42378 0.0
C417 C 0.16401 0.58951 0.39302 0.0
C418 C 0.22887 0.60045 0.44621 0.0
C419 C 0.23186 0.6273 0.46188 0.0
C420 C 0.18706 0.60175 0.41719 0.0
C421 C 0.21213 0.6409 0.45434 0.0
C422 C 0.13909 0.59771 0.39008 0.0
C423 C 0.14994 0.56247 0.34831 0.0
N424 N 0.19045 0.62788 0.43257 0.0
N425 N 0.16825 0.57167 0.37233 0.0
H426 H 0.54155 0.08529 0.52866 0.0
H427 H 0.69265 0.22377 0.61687 0.0
H428 H 0.64192 0.13251 0.49901 0.0
H429 H 0.59135 0.19811 0.63004 0.0
H430 H 0.675 0.18304 0.5788 0.0
H431 H 0.56036 0.11751 0.5724 0.0
C432 C 0.56767 0.10169 0.5318 0.0
C433 C 0.59027 0.10647 0.51027 0.0
C434 C 0.65669 0.18636 0.59007 0.0
C435 C 0.61178 0.14382 0.5597 0.0
C436 C 0.66671 0.20967 0.6117 0.0
C437 C 0.64344 0.21454 0.62648 0.0
C438 C 0.62313 0.16753 0.58342 0.0
C439 C 0.61016 0.19544 0.61899 0.0
C440 C 0.57832 0.12039 0.55653 0.0
C441 C 0.62378 0.12835 0.51513 0.0
N442 N 0.60099 0.1727 0.598 0.0
N443 N 0.63353 0.14652 0.53926 0.0
H444 H 0.46884 0.51274 0.70091 0.0
H445 H 0.4871 0.67196 0.78033 0.0
H446 H 0.51542 0.60942 0.66349 0.0
H447 H 0.41471 0.57255 0.80333 0.0
H448 H 0.5054 0.65022 0.74161 0.0
H449 H 0.45773 0.53543 0.74383 0.0
C450 C 0.47744 0.53888 0.70214 0.0
C451 C 0.49305 0.5594 0.67895 0.0
C452 C 0.4855 0.63321 0.75514 0.0
C453 C 0.48012 0.58526 0.72723 0.0
C454 C 0.47497 0.64558 0.77717 0.0
C455 C 0.44917 0.62404 0.79494 0.0
C456 C 0.47039 0.59906 0.75105 0.0
C457 C 0.43446 0.59006 0.78995 0.0
C458 C 0.47081 0.55173 0.72636 0.0
C459 C 0.50335 0.59298 0.68113 0.0
N460 N 0.44535 0.57859 0.76849 0.0
N461 N 0.49656 0.60489 0.70483 0.0
H462 H 0.97959 0.51853 0.85484 0.0
H463 H 0.84927 0.37935 -0.04153 0.0
H464 H 0.94612 0.415 0.84563 0.0
H465 H 0.86882 0.47975 -0.0418 0.0
H466 H 0.88922 0.39314 0.92035 0.0
H467 H 0.94492 0.50622 0.89719 0.0
C468 C 0.96546 0.49333 0.86215 0.0
C469 C 0.96545 0.46768 0.84684 0.0
C470 C 0.88472 0.41214 0.9286 0.0
C471 C 0.92555 0.45336 0.8946 0.0
C472 C 0.8618 0.40425 0.95029 0.0
C473 C 0.85555 0.42838 -0.03853 0.0
C474 C 0.90167 0.44444 0.91808 0.0
C475 C 0.87268 0.46029 0.95011 0.0
C476 C 0.94545 0.48625 0.88605 0.0
C477 C 0.94652 0.43538 0.85686 0.0
N478 N 0.89503 0.46742 0.92906 0.0
N479 N 0.92716 0.4291 0.88003 0.0
H480 H 0.45149 0.92379 -0.00236 0.0
H481 H 0.50487 0.86302 0.1343 0.0
H482 H 0.55013 0.97441 0.03107 0.0
H483 H 0.40335 0.83018 0.11359 0.0
H484 H 0.52207 0.90305 0.0958 0.0
H485 H 0.43296 0.88961 0.04025 0.0
C486 C 0.46902 0.92814 0.01437 0.0
C487 C 0.50228 0.95183 0.01108 0.0
C488 C 0.49604 0.88712 0.09975 0.0
C489 C 0.48168 0.91236 0.05927 0.0
C490 C 0.48619 0.86403 0.12153 0.0
C491 C 0.4526 0.84311 0.12709 0.0
C492 C 0.47214 0.88908 0.08325 0.0
C493 C 0.4295 0.84576 0.11002 0.0
C494 C 0.45855 0.90857 0.03856 0.0
C495 C 0.52422 0.95651 0.03308 0.0
N496 N 0.43971 0.86825 0.0888 0.0
N497 N 0.51362 0.93654 0.05614 0.0
H498 H 0.61369 0.54386 0.19748 0.0
H499 H 0.60502 0.39132 0.28105 0.0
H500 H 0.56764 0.4454 0.16351 0.0
H501 H 0.6761 0.49271 0.29932 0.0
H502 H 0.58362 0.40975 0.24222 0.0
H503 H 0.62774 0.52409 0.24047 0.0
C504 C 0.60581 0.51792 0.19947 0.0
C505 C 0.58963 0.49615 0.1771 0.0
C506 C 0.60393 0.42791 0.25473 0.0
C507 C 0.60598 0.47359 0.22559 0.0
C508 C 0.61624 0.41744 0.27681 0.0
C509 C 0.64254 0.44052 0.29331 0.0
C510 C 0.61775 0.4617 0.24935 0.0
C511 C 0.65602 0.47406 0.28695 0.0
C512 C 0.61416 0.50675 0.22376 0.0
C513 C 0.58027 0.46288 0.18039 0.0
N514 N 0.64338 0.48366 0.26552 0.0
N515 N 0.58878 0.4526 0.20414 0.0
H516 H 0.52831 0.96719 0.37886 0.0
H517 H 0.39227 0.838 0.27252 0.0
H518 H 0.42531 0.93787 0.38266 0.0
H519 H 0.49213 0.85617 0.27627 0.0
H520 H 0.40529 0.87865 0.30985 0.0
H521 H 0.51728 0.93217 0.33697 0.0
C522 C 0.50354 0.95395 0.37042 0.0
C523 C 0.47761 0.95518 0.38414 0.0
C524 C 0.42435 0.87371 0.30254 0.0
C525 C 0.46469 0.91477 0.33691 0.0
C526 C 0.41689 0.85037 0.28131 0.0
C527 C 0.4411 0.84353 0.27132 0.0
C528 C 0.45629 0.89047 0.31384 0.0
C529 C 0.47262 0.86049 0.28344 0.0
C530 C 0.49717 0.93371 0.34678 0.0
C531 C 0.44588 0.93732 0.3727 0.0
N532 N 0.47933 0.88323 0.30405 0.0
N533 N 0.44025 0.91765 0.34986 0.0
H534 H 0.63523 0.52095 0.56712 0.0
H535 H 0.58835 0.40482 0.43271 0.0
H536 H 0.53613 0.46548 0.53526 0.0
H537 H 0.6878 0.48199 0.4496 0.0
H538 H 0.56882 0.42608 0.47085 0.0
H539 H 0.65546 0.50823 0.52379 0.0
C540 C 0.6179 0.50682 0.55056 0.0
C541 C 0.58407 0.49423 0.55454 0.0
C542 C 0.59489 0.43843 0.46611 0.0
C543 C 0.6067 0.47866 0.50559 0.0
C544 C 0.60611 0.4261 0.44455 0.0
C545 C 0.63979 0.44154 0.43808 0.0
C546 C 0.61755 0.46616 0.48152 0.0
C547 C 0.66163 0.46926 0.45393 0.0
C548 C 0.62936 0.49938 0.52598 0.0
C549 C 0.56243 0.4758 0.53275 0.0
N550 N 0.65015 0.48057 0.47503 0.0
N551 N 0.57407 0.46805 0.50933 0.0
H552 H 0.14841 0.63107 0.73714 0.0
H553 H 0.21336 0.57855 0.60318 0.0
H554 H 0.10074 0.53177 0.70497 0.0
H555 H 0.238 0.6793 0.61794 0.0
H556 H 0.17327 0.56115 0.64166 0.0
H557 H 0.18132 0.64996 0.69372 0.0
C558 C 0.14432 0.61344 0.72053 0.0
C559 C 0.12195 0.57989 0.72448 0.0
C560 C 0.18737 0.58705 0.63639 0.0
C561 C 0.16003 0.60096 0.67543 0.0
C562 C 0.21053 0.59705 0.61465 0.0
C563 C 0.22919 0.63045 0.60744 0.0
C564 C 0.18313 0.61066 0.65129 0.0
C565 C 0.22418 0.65329 0.62283 0.0
C566 C 0.16318 0.62414 0.69589 0.0
C567 C 0.1176 0.55789 0.70256 0.0
N568 N 0.20176 0.64299 0.64416 0.0
N569 N 0.13694 0.56873 0.67912 0.0
H570 H 0.60711 0.08843 0.87066 0.0
H571 H 0.6001 0.22988 0.78163 0.0
H572 H 0.55999 0.14159 0.90124 0.0
H573 H 0.67311 0.20049 0.76806 0.0
H574 H 0.5777 0.19098 0.82101 0.0
H575 H 0.62258 0.12151 0.82721 0.0
C576 C 0.59932 0.10649 0.86782 0.0
C577 C 0.58238 0.11249 0.88938 0.0
C578 C 0.59865 0.19312 0.8094 0.0
C579 C 0.60031 0.15055 0.84035 0.0
C580 C 0.61151 0.21536 0.78701 0.0
C581 C 0.63866 0.21858 0.77168 0.0
C582 C 0.61274 0.17367 0.81625 0.0
C583 C 0.65238 0.19905 0.7795 0.0
C584 C 0.60847 0.12559 0.84328 0.0
C585 C 0.57318 0.13643 0.88501 0.0
N586 N 0.63917 0.17729 0.8012 0.0
N587 N 0.58243 0.15477 0.86101 0.0
H588 H 0.45848 0.55304 0.06998 0.0
H589 H 0.50745 0.66588 0.93285 0.0
H590 H 0.55709 0.60361 0.03632 0.0
H591 H 0.40698 0.59387 0.95323 0.0
H592 H 0.52623 0.64477 -0.02837 0.0
H593 H 0.43878 0.56736 0.02728 0.0
C594 C 0.47579 0.56652 0.05319 0.0
C595 C 0.50934 0.57716 0.05642 0.0
C596 C 0.50009 0.63356 -0.03246 0.0
C597 C 0.48737 0.59449 0.00813 0.0
C598 C 0.48933 0.64582 0.94561 0.0
C599 C 0.45558 0.63171 0.93987 0.0
C600 C 0.47693 0.60726 -0.01598 0.0
C601 C 0.43323 0.60554 0.95692 0.0
C602 C 0.46464 0.57485 0.02896 0.0
C603 C 0.53097 0.59479 0.03435 0.0
N604 N 0.4443 0.59425 -0.0217 0.0
N605 N 0.51968 0.60338 0.01123 0.0
H606 H 0.93808 0.43727 0.23521 0.0
H607 H 0.87605 0.4904 0.09943 0.0
H608 H 0.98814 0.53598 0.2019 0.0
H609 H 0.84487 0.38893 0.11885 0.0
H610 H 0.91633 0.50763 0.1377 0.0
H611 H 0.90408 0.41859 0.19249 0.0
C612 C 0.94238 0.45478 0.21848 0.0
C613 C 0.96583 0.48811 0.22185 0.0
C614 C 0.90073 0.48161 0.13351 0.0
C615 C 0.92654 0.46733 0.17355 0.0
C616 C 0.87748 0.47173 0.11187 0.0
C617 C 0.85693 0.43815 0.10602 0.0
C618 C 0.90321 0.45774 0.14961 0.0
C619 C 0.86015 0.41508 0.12265 0.0
C620 C 0.9229 0.44422 0.19423 0.0
C621 C 0.97042 0.51002 0.19984 0.0
N622 N 0.88276 0.42531 0.14379 0.0
N623 N 0.95053 0.49934 0.17674 0.0
loop_
_geom_bond_atom_site_label_1
_geom_bond_atom_site_label_2
_geom_bond_distance
_geom_bond_site_symmetry_2
_ccdc_geom_bond_type
H0 C6 0.930 . S
H1 C9 0.931 . S
H2 C11 0.931 . S
H3 C13 0.930 . S
H4 C15 0.930 . S
H5 C17 0.931 . S
C6 H0 0.930 . S
C6 C7 1.380 . S
C6 C8 1.394 . S
C7 C6 1.380 . S
C7 C11 1.382 . S
C8 C6 1.394 . S
C8 C9 1.400 . S
C9 H1 0.931 . S
C9 C8 1.400 . S
C9 C10 1.375 . S
C10 C9 1.375 . S
C10 C11 1.415 . S
C10 C12 1.501 1_455 S
C11 H2 0.931 . S
C11 C7 1.382 . S
C11 C10 1.415 . S
C12 C10 1.501 1_655 S
C12 C13 1.384 . S
C12 C17 1.408 . S
C13 H3 0.930 . S
C13 C12 1.384 . S
C13 C14 1.389 . S
C14 C13 1.389 . S
C14 C15 1.405 . S
C15 H4 0.930 . S
C15 C14 1.405 . S
C15 C16 1.364 . S
C16 C15 1.364 . S
C16 C17 1.400 . S
C17 H5 0.931 . S
C17 C12 1.408 . S
C17 C16 1.400 . S
H18 C24 0.930 . S
H19 C27 0.931 . S
H20 C29 0.931 . S
H21 C31 0.930 . S
H22 C33 0.930 . S
H23 C35 0.931 . S
C24 H18 0.930 . S
C24 C25 1.380 . S
C24 C26 1.394 . S
C25 C24 1.380 . S
C25 C29 1.382 . S
C26 C24 1.394 . S
C26 C27 1.400 . S
C27 H19 0.931 . S
C27 C26 1.400 . S
C27 C28 1.375 . S
C28 C27 1.375 . S
C28 C29 1.415 . S
C28 C30 1.501 1_545 S
C29 H20 0.931 . S
C29 C25 1.382 . S
C29 C28 1.415 . S
C30 C28 1.501 1_565 S
C30 C31 1.384 . S
C30 C35 1.408 . S
C31 H21 0.930 . S
C31 C30 1.384 . S
C31 C32 1.389 . S
C32 C31 1.389 . S
C32 C33 1.405 . S
C33 H22 0.930 . S
C33 C32 1.405 . S
C33 C34 1.364 . S
C34 C33 1.364 . S
C34 C35 1.400 . S
C35 H23 0.931 . S
C35 C30 1.408 . S
C35 C34 1.400 . S
H36 C42 0.930 . S
H37 C45 0.931 . S
H38 C47 0.931 . S
H39 C49 0.930 . S
H40 C51 0.930 . S
H41 C53 0.931 . S
C42 H36 0.930 . S
C42 C43 1.380 . S
C42 C44 1.394 . S
C43 C42 1.380 . S
C43 C47 1.382 . S
C44 C42 1.394 . S
C44 C45 1.400 . S
C45 H37 0.931 . S
C45 C44 1.400 . S
C45 C46 1.375 . S
C46 C45 1.375 . S
C46 C47 1.415 . S
C46 C48 1.501 . S
C47 H38 0.931 . S
C47 C43 1.382 . S
C47 C46 1.415 . S
C48 C46 1.501 . S
C48 C49 1.384 . S
C48 C53 1.408 . S
C49 H39 0.930 . S
C49 C48 1.384 . S
C49 C50 1.389 . S
C50 C49 1.389 . S
C50 C51 1.405 . S
C51 H40 0.930 . S
C51 C50 1.405 . S
C51 C52 1.364 . S
C52 C51 1.364 . S
C52 C53 1.400 . S
C53 H41 0.931 . S
C53 C48 1.408 . S
C53 C52 1.400 . S
H54 C60 0.930 . S
H55 C63 0.931 . S
H56 C65 0.931 . S
H57 C67 0.930 . S
H58 C69 0.930 . S
H59 C71 0.931 . S
C60 H54 0.930 . S
C60 C61 1.380 . S
C60 C62 1.394 . S
C61 C60 1.380 . S
C61 C65 1.382 . S
C62 C60 1.394 . S
C62 C63 1.400 . S
C63 H55 0.931 . S
C63 C62 1.400 . S
C63 C64 1.375 . S
C64 C63 1.375 . S
C64 C65 1.415 . S
C64 C66 1.501 1_455 S
C65 H56 0.931 . S
C65 C61 1.382 . S
C65 C64 1.415 . S
C66 C64 1.501 1_655 S
C66 C67 1.384 . S
C66 C71 1.408 . S
C67 H57 0.930 . S
C67 C66 1.384 . S
C67 C68 1.389 . S
C68 C67 1.389 . S
C68 C69 1.405 . S
C69 H58 0.930 . S
C69 C68 1.405 . S
C69 C70 1.364 . S
C70 C69 1.364 . S
C70 C71 1.400 . S
C71 H59 0.931 . S
C71 C66 1.408 . S
C71 C70 1.400 . S
H72 C78 0.930 . S
H73 C81 0.931 . S
H74 C83 0.931 . S
H75 C85 0.930 . S
H76 C87 0.930 . S
H77 C89 0.931 . S
C78 H72 0.930 . S
C78 C79 1.380 . S
C78 C80 1.394 1_554 S
C79 C78 1.380 . S
C79 C83 1.382 . S
C80 C78 1.394 1_556 S
C80 C81 1.400 . S
C81 H73 0.931 . S
C81 C80 1.400 . S
C81 C82 1.375 . S
C82 C81 1.375 . S
C82 C83 1.415 1_556 S
C82 C84 1.501 1_565 S
C83 H74 0.931 . S
C83 C79 1.382 . S
C83 C82 1.415 1_554 S
C84 C82 1.501 1_545 S
C84 C85 1.384 1_556 S
C84 C89 1.408 . S
C85 H75 0.930 . S
C85 C84 1.384 1_554 S
C85 C86 1.389 . S
C86 C85 1.389 . S
C86 C87 1.405 1_554 S
C87 H76 0.930 . S
C87 C86 1.405 1_556 S
C87 C88 1.364 . S
C88 C87 1.364 . S
C88 C89 1.400 . S
C89 H77 0.931 . S
C89 C84 1.408 . S
C89 C88 1.400 . S
H90 C96 0.930 . S
H91 C99 0.931 . S
H92 C101 0.931 . S
H93 C103 0.930 . S
H94 C105 0.930 . S
H95 C107 0.931 . S
C96 H90 0.930 . S
C96 C97 1.380 . S
C96 C98 1.394 . S
C97 C96 1.380 . S
C97 C101 1.382 . S
C98 C96 1.394 . S
C98 C99 1.400 . S
C99 H91 0.931 . S
C99 C98 1.400 . S
C99 C100 1.375 . S
C100 C99 1.375 . S
C100 C101 1.415 . S
C100 C102 1.501 . S
C101 H92 0.931 . S
C101 C97 1.382 . S
C101 C100 1.415 . S
C102 C100 1.501 . S
C102 C103 1.384 . S
C102 C107 1.408 . S
C103 H93 0.930 . S
C103 C102 1.384 . S
C103 C104 1.389 . S
C104 C103 1.389 . S
C104 C105 1.405 . S
C105 H94 0.930 . S
C105 C104 1.405 . S
C105 C106 1.364 . S
C106 C105 1.364 . S
C106 C107 1.400 . S
C107 H95 0.931 . S
C107 C102 1.408 . S
C107 C106 1.400 . S
O108 Cd109 2.223 . S
O108 C116 1.315 . S
Cd109 O108 2.223 . S
Cd109 O112 2.297 . S
Cd109 O113 2.439 . S
Cd109 O119 2.240 . S
Cd110 O111 2.240 . S
Cd110 O118 2.223 . S
Cd110 O120 2.297 . S
Cd110 O121 2.439 . S
O111 Cd110 2.240 . S
O111 C116 1.279 . S
O112 Cd109 2.297 . S
O112 C114 1.247 . S
O113 Cd109 2.439 . S
O113 C114 1.208 . S
C114 O112 1.247 . S
C114 O113 1.208 . S
C115 O120 1.247 . S
C115 O121 1.208 . S
C116 O108 1.315 . S
C116 O111 1.279 . S
C117 O118 1.315 . S
C117 O119 1.279 . S
O118 Cd110 2.223 . S
O118 C117 1.315 . S
O119 Cd109 2.240 . S
O119 C117 1.279 . S
O120 Cd110 2.297 . S
O120 C115 1.247 . S
O121 Cd110 2.439 . S
O121 C115 1.208 . S
O122 Cd123 2.223 . S
O122 C130 1.315 . S
Cd123 O122 2.223 . S
Cd123 O126 2.297 . S
Cd123 O127 2.439 . S
Cd123 O133 2.240 . S
Cd124 O125 2.240 . S
Cd124 O132 2.223 . S
Cd124 O134 2.297 . S
Cd124 O135 2.439 . S
O125 Cd124 2.240 . S
O125 C130 1.279 . S
O126 Cd123 2.297 . S
O126 C128 1.247 . S
O127 Cd123 2.439 . S
O127 C128 1.208 . S
C128 O126 1.247 . S
C128 O127 1.208 . S
C129 O134 1.247 . S
C129 O135 1.208 . S
C130 O122 1.315 . S
C130 O125 1.279 . S
C131 O132 1.315 . S
C131 O133 1.279 . S
O132 Cd124 2.223 . S
O132 C131 1.315 . S
O133 Cd123 2.240 . S
O133 C131 1.279 . S
O134 Cd124 2.297 . S
O134 C129 1.247 . S
O135 Cd124 2.439 . S
O135 C129 1.208 . S
O136 Cd137 2.223 . S
O136 C144 1.315 . S
Cd137 O136 2.223 . S
Cd137 O140 2.297 . S
Cd137 O141 2.439 . S
Cd137 O147 2.240 . S
Cd138 O139 2.240 . S
Cd138 O146 2.223 . S
Cd138 O148 2.297 . S
Cd138 O149 2.439 . S
O139 Cd138 2.240 . S
O139 C144 1.279 . S
O140 Cd137 2.297 . S
O140 C142 1.247 . S
O141 Cd137 2.439 . S
O141 C142 1.208 . S
C142 O140 1.247 . S
C142 O141 1.208 . S
C143 O148 1.247 . S
C143 O149 1.208 . S
C144 O136 1.315 . S
C144 O139 1.279 . S
C145 O146 1.315 . S
C145 O147 1.279 . S
O146 Cd138 2.223 . S
O146 C145 1.315 . S
O147 Cd137 2.240 . S
O147 C145 1.279 . S
O148 Cd138 2.297 . S
O148 C143 1.247 . S
O149 Cd138 2.439 . S
O149 C143 1.208 . S
O150 Cd151 2.223 . S
O150 C158 1.315 . S
Cd151 O150 2.223 . S
Cd151 O154 2.297 . S
Cd151 O155 2.439 . S
Cd151 O161 2.240 . S
Cd152 O153 2.240 . S
Cd152 O160 2.223 . S
Cd152 O162 2.297 . S
Cd152 O163 2.439 . S
O153 Cd152 2.240 . S
O153 C158 1.279 . S
O154 Cd151 2.297 . S
O154 C156 1.247 . S
O155 Cd151 2.439 . S
O155 C156 1.208 . S
C156 O154 1.247 . S
C156 O155 1.208 . S
C157 O162 1.247 . S
C157 O163 1.208 . S
C158 O150 1.315 . S
C158 O153 1.279 . S
C159 O160 1.315 . S
C159 O161 1.279 . S
O160 Cd152 2.223 . S
O160 C159 1.315 . S
O161 Cd151 2.240 . S
O161 C159 1.279 . S
O162 Cd152 2.297 . S
O162 C157 1.247 . S
O163 Cd152 2.439 . S
O163 C157 1.208 . S
O164 Cd165 2.223 . S
O164 C172 1.315 . S
Cd165 O164 2.223 . S
Cd165 O168 2.297 . S
Cd165 O169 2.439 . S
Cd165 O175 2.240 . S
Cd166 O167 2.240 . S
Cd166 O174 2.223 . S
Cd166 O176 2.297 . S
Cd166 O177 2.439 . S
O167 Cd166 2.240 . S
O167 C172 1.279 . S
O168 Cd165 2.297 . S
O168 C170 1.247 . S
O169 Cd165 2.439 . S
O169 C170 1.208 . S
C170 O168 1.247 . S
C170 O169 1.208 . S
C171 O176 1.247 . S
C171 O177 1.208 . S
C172 O164 1.315 . S
C172 O167 1.279 . S
C173 O174 1.315 . S
C173 O175 1.279 . S
O174 Cd166 2.223 . S
O174 C173 1.315 . S
O175 Cd165 2.240 . S
O175 C173 1.279 . S
O176 Cd166 2.297 . S
O176 C171 1.247 . S
O177 Cd166 2.439 . S
O177 C171 1.208 . S
O178 Cd179 2.223 . S
O178 C186 1.315 . S
Cd179 O178 2.223 . S
Cd179 O182 2.297 . S
Cd179 O183 2.439 . S
Cd179 O189 2.240 . S
Cd180 O181 2.240 . S
Cd180 O188 2.223 . S
Cd180 O190 2.297 . S
Cd180 O191 2.439 . S
O181 Cd180 2.240 . S
O181 C186 1.279 . S
O182 Cd179 2.297 . S
O182 C184 1.247 . S
O183 Cd179 2.439 . S
O183 C184 1.208 . S
C184 O182 1.247 . S
C184 O183 1.208 . S
C185 O190 1.247 . S
C185 O191 1.208 . S
C186 O178 1.315 . S
C186 O181 1.279 . S
C187 O188 1.315 . S
C187 O189 1.279 . S
O188 Cd180 2.223 . S
O188 C187 1.315 . S
O189 Cd179 2.240 . S
O189 C187 1.279 . S
O190 Cd180 2.297 . S
O190 C185 1.247 . S
O191 Cd180 2.439 . S
O191 C185 1.208 . S
H192 C198 0.930 . S
H193 C202 0.930 . S
H194 C207 0.929 . S
H195 C205 0.929 . S
H196 C200 0.929 . S
H197 C206 0.929 . S
C198 H192 0.930 . S
C198 C199 1.367 . S
C198 C206 1.378 . S
C199 C198 1.367 . S
C199 C207 1.433 . S
C200 H196 0.929 . S
C200 C202 1.378 . S
C200 C204 1.350 . S
C201 C204 1.463 . S
C201 C206 1.350 . S
C201 N209 1.427 . S
C202 H193 0.930 . S
C202 C200 1.378 . S
C202 C203 1.367 . S
C203 C202 1.367 . S
C203 C205 1.433 . S
C204 C200 1.350 . S
C204 C201 1.463 . S
C204 N208 1.427 . S
C205 H195 0.929 . S
C205 C203 1.433 . S
C205 N208 1.384 . S
C206 H197 0.929 . S
C206 C198 1.378 . S
C206 C201 1.350 . S
C207 H194 0.929 . S
C207 C199 1.433 . S
C207 N209 1.384 . S
N208 C204 1.427 . S
N208 C205 1.384 . S
N209 C201 1.427 . S
N209 C207 1.384 . S
H210 C216 0.930 . S
H211 C220 0.930 . S
H212 C225 0.929 . S
H213 C223 0.929 . S
H214 C218 0.929 . S
H215 C224 0.929 . S
C216 H210 0.930 . S
C216 C217 1.367 . S
C216 C224 1.378 . S
C217 C216 1.367 . S
C217 C225 1.433 . S
C218 H214 0.929 . S
C218 C220 1.378 . S
C218 C222 1.350 . S
C219 C222 1.463 . S
C219 C224 1.350 . S
C219 N227 1.427 . S
C220 H211 0.930 . S
C220 C218 1.378 . S
C220 C221 1.367 . S
C221 C220 1.367 . S
C221 C223 1.433 . S
C222 C218 1.350 . S
C222 C219 1.463 . S
C222 N226 1.427 . S
C223 H213 0.929 . S
C223 C221 1.433 . S
C223 N226 1.384 . S
C224 H215 0.929 . S
C224 C216 1.378 . S
C224 C219 1.350 . S
C225 H212 0.929 . S
C225 C217 1.433 . S
C225 N227 1.384 . S
N226 C222 1.427 . S
N226 C223 1.384 . S
N227 C219 1.427 . S
N227 C225 1.384 . S
H228 C234 0.930 . S
H229 C238 0.930 . S
H230 C243 0.929 . S
H231 C241 0.929 . S
H232 C236 0.929 . S
H233 C242 0.929 . S
C234 H228 0.930 . S
C234 C235 1.367 . S
C234 C242 1.378 . S
C235 C234 1.367 . S
C235 C243 1.433 . S
C236 H232 0.929 . S
C236 C238 1.378 . S
C236 C240 1.350 . S
C237 C240 1.463 . S
C237 C242 1.350 . S
C237 N245 1.427 . S
C238 H229 0.930 . S
C238 C236 1.378 . S
C238 C239 1.367 . S
C239 C238 1.367 . S
C239 C241 1.433 . S
C240 C236 1.350 . S
C240 C237 1.463 . S
C240 N244 1.427 . S
C241 H231 0.929 . S
C241 C239 1.433 . S
C241 N244 1.384 . S
C242 H233 0.929 . S
C242 C234 1.378 . S
C242 C237 1.350 . S
C243 H230 0.929 . S
C243 C235 1.433 . S
C243 N245 1.384 . S
N244 C240 1.427 . S
N244 C241 1.384 . S
N245 C237 1.427 . S
N245 C243 1.384 . S
H246 C252 0.930 . S
H247 C256 0.930 . S
H248 C261 0.929 . S
H249 C259 0.929 . S
H250 C254 0.929 . S
H251 C260 0.929 . S
C252 H246 0.930 . S
C252 C253 1.367 . S
C252 C260 1.378 . S
C253 C252 1.367 . S
C253 C261 1.433 . S
C254 H250 0.929 . S
C254 C256 1.378 . S
C254 C258 1.350 . S
C255 C258 1.463 . S
C255 C260 1.350 . S
C255 N263 1.427 . S
C256 H247 0.930 . S
C256 C254 1.378 . S
C256 C257 1.367 . S
C257 C256 1.367 . S
C257 C259 1.433 . S
C258 C254 1.350 . S
C258 C255 1.463 . S
C258 N262 1.427 . S
C259 H249 0.929 . S
C259 C257 1.433 . S
C259 N262 1.384 . S
C260 H251 0.929 . S
C260 C252 1.378 . S
C260 C255 1.350 . S
C261 H248 0.929 . S
C261 C253 1.433 . S
C261 N263 1.384 . S
N262 C258 1.427 . S
N262 C259 1.384 . S
N263 C255 1.427 . S
N263 C261 1.384 . S
H264 C270 0.930 1_554 S
H265 C274 0.930 . S
H266 C279 0.929 . S
H267 C277 0.929 . S
H268 C272 0.929 . S
H269 C278 0.926 1_554 S
C270 H264 0.930 1_556 S
C270 C271 1.367 . S
C270 C278 1.378 . S
C271 C270 1.367 . S
C271 C279 1.433 . S
C272 H268 0.929 . S
C272 C274 1.378 . S
C272 C276 1.350 . S
C273 C276 1.463 . S
C273 C278 1.350 . S
C273 N281 1.427 . S
C274 H265 0.930 . S
C274 C272 1.378 . S
C274 C275 1.367 . S
C275 C274 1.367 . S
C275 C277 1.433 . S
C276 C272 1.350 . S
C276 C273 1.463 . S
C276 N280 1.427 . S
C277 H267 0.929 . S
C277 C275 1.433 . S
C277 N280 1.384 . S
C278 H269 0.926 1_556 S
C278 C270 1.378 . S
C278 C273 1.350 . S
C279 H266 0.929 . S
C279 C271 1.433 . S
C279 N281 1.384 . S
N280 C276 1.427 . S
N280 C277 1.384 . S
N281 C273 1.427 . S
N281 C279 1.384 . S
H282 C288 0.930 . S
H283 C292 0.930 . S
H284 C297 0.929 . S
H285 C295 0.929 . S
H286 C290 0.929 . S
H287 C296 0.929 . S
C288 H282 0.930 . S
C288 C289 1.367 . S
C288 C296 1.378 . S
C289 C288 1.367 . S
C289 C297 1.433 . S
C290 H286 0.929 . S
C290 C292 1.378 . S
C290 C294 1.350 . S
C291 C294 1.463 . S
C291 C296 1.350 . S
C291 N299 1.427 . S
C292 H283 0.930 . S
C292 C290 1.378 . S
C292 C293 1.367 . S
C293 C292 1.367 . S
C293 C295 1.433 . S
C294 C290 1.350 . S
C294 C291 1.463 . S
C294 N298 1.427 . S
C295 H285 0.929 . S
C295 C293 1.433 . S
C295 N298 1.384 . S
C296 H287 0.929 . S
C296 C288 1.378 . S
C296 C291 1.350 . S
C297 H284 0.929 . S
C297 C289 1.433 . S
C297 N299 1.384 . S
N298 C294 1.427 . S
N298 C295 1.384 . S
N299 C291 1.427 . S
N299 C297 1.384 . S
H300 C306 0.930 . S
H301 C310 0.930 . S
H302 C315 0.929 . S
H303 C313 0.929 . S
H304 C308 0.929 . S
H305 C314 0.929 . S
C306 H300 0.930 . S
C306 C307 1.367 . S
C306 C314 1.378 . S
C307 C306 1.367 . S
C307 C315 1.433 . S
C308 H304 0.929 . S
C308 C310 1.378 . S
C308 C312 1.350 . S
C309 C312 1.463 . S
C309 C314 1.350 . S
C309 N317 1.427 . S
C310 H301 0.930 . S
C310 C308 1.378 . S
C310 C311 1.367 . S
C311 C310 1.367 . S
C311 C313 1.433 . S
C312 C308 1.350 . S
C312 C309 1.463 . S
C312 N316 1.427 . S
C313 H303 0.929 . S
C313 C311 1.433 . S
C313 N316 1.384 . S
C314 H305 0.929 . S
C314 C306 1.378 . S
C314 C309 1.350 . S
C315 H302 0.929 . S
C315 C307 1.433 . S
C315 N317 1.384 . S
N316 C312 1.427 . S
N316 C313 1.384 . S
N317 C309 1.427 . S
N317 C315 1.384 . S
H318 C324 0.930 . S
H319 C328 0.930 . S
H320 C333 0.929 . S
H321 C331 0.929 . S
H322 C326 0.929 . S
H323 C332 0.929 . S
C324 H318 0.930 . S
C324 C325 1.367 . S
C324 C332 1.378 . S
C325 C324 1.367 . S
C325 C333 1.433 . S
C326 H322 0.929 . S
C326 C328 1.378 . S
C326 C330 1.350 . S
C327 C330 1.463 . S
C327 C332 1.350 . S
C327 N335 1.427 . S
C328 H319 0.930 . S
C328 C326 1.378 . S
C328 C329 1.367 . S
C329 C328 1.367 . S
C329 C331 1.433 . S
C330 C326 1.350 . S
C330 C327 1.463 . S
C330 N334 1.427 . S
C331 H321 0.929 . S
C331 C329 1.433 . S
C331 N334 1.384 . S
C332 H323 0.929 . S
C332 C324 1.378 . S
C332 C327 1.350 . S
C333 H320 0.929 . S
C333 C325 1.433 . S
C333 N335 1.384 . S
N334 C330 1.427 . S
N334 C331 1.384 . S
N335 C327 1.427 . S
N335 C333 1.384 . S
H336 C342 0.930 . S
H337 C346 0.930 . S
H338 C351 0.929 . S
H339 C349 0.929 . S
H340 C344 0.929 . S
H341 C350 0.929 . S
C342 H336 0.930 . S
C342 C343 1.367 . S
C342 C350 1.378 . S
C343 C342 1.367 . S
C343 C351 1.433 . S
C344 H340 0.929 . S
C344 C346 1.378 . S
C344 C348 1.350 . S
C345 C348 1.463 . S
C345 C350 1.350 . S
C345 N353 1.427 . S
C346 H337 0.930 . S
C346 C344 1.378 . S
C346 C347 1.367 . S
C347 C346 1.367 . S
C347 C349 1.433 . S
C348 C344 1.350 . S
C348 C345 1.463 . S
C348 N352 1.427 . S
C349 H339 0.929 . S
C349 C347 1.433 . S
C349 N352 1.384 . S
C350 H341 0.929 . S
C350 C342 1.378 . S
C350 C345 1.350 . S
C351 H338 0.929 . S
C351 C343 1.433 . S
C351 N353 1.384 . S
N352 C348 1.427 . S
N352 C349 1.384 . S
N353 C345 1.427 . S
N353 C351 1.384 . S
H354 C360 0.930 . S
H355 C364 0.930 . S
H356 C369 0.929 1_556 S
H357 C367 0.929 . S
H358 C362 0.929 . S
H359 C368 0.929 . S
C360 H354 0.930 . S
C360 C361 1.367 . S
C360 C368 1.378 . S
C361 C360 1.367 . S
C361 C369 1.433 . S
C362 H358 0.929 . S
C362 C364 1.378 . S
C362 C366 1.350 . S
C363 C366 1.463 . S
C363 C368 1.350 . S
C363 N371 1.427 . S
C364 H355 0.930 . S
C364 C362 1.378 . S
C364 C365 1.367 . S
C365 C364 1.367 . S
C365 C367 1.433 . S
C366 C362 1.350 . S
C366 C363 1.463 . S
C366 N370 1.427 . S
C367 H357 0.929 . S
C367 C365 1.433 . S
C367 N370 1.384 . S
C368 H359 0.929 . S
C368 C360 1.378 . S
C368 C363 1.350 . S
C369 H356 0.929 1_554 S
C369 C361 1.433 . S
C369 N371 1.384 . S
N370 C366 1.427 . S
N370 C367 1.384 . S
N371 C363 1.427 . S
N371 C369 1.384 . S
H372 C378 0.930 . S
H373 C382 0.930 . S
H374 C387 0.929 . S
H375 C385 0.929 . S
H376 C380 0.929 . S
H377 C386 0.929 . S
C378 H372 0.930 . S
C378 C379 1.367 . S
C378 C386 1.378 . S
C379 C378 1.367 . S
C379 C387 1.433 . S
C380 H376 0.929 . S
C380 C382 1.378 . S
C380 C384 1.350 . S
C381 C384 1.463 . S
C381 C386 1.350 . S
C381 N389 1.427 . S
C382 H373 0.930 . S
C382 C380 1.378 . S
C382 C383 1.367 . S
C383 C382 1.367 . S
C383 C385 1.433 . S
C384 C380 1.350 . S
C384 C381 1.463 . S
C384 N388 1.427 . S
C385 H375 0.929 . S
C385 C383 1.433 . S
C385 N388 1.384 . S
C386 H377 0.929 . S
C386 C378 1.378 . S
C386 C381 1.350 . S
C387 H374 0.929 . S
C387 C379 1.433 . S
C387 N389 1.384 . S
N388 C384 1.427 . S
N388 C385 1.384 . S
N389 C381 1.427 . S
N389 C387 1.384 . S
H390 C396 0.930 . S
H391 C400 0.930 . S
H392 C405 0.929 . S
H393 C403 0.929 . S
H394 C398 0.929 . S
H395 C404 0.929 . S
C396 H390 0.930 . S
C396 C397 1.367 . S
C396 C404 1.378 . S
C397 C396 1.367 . S
C397 C405 1.433 . S
C398 H394 0.929 . S
C398 C400 1.378 . S
C398 C402 1.350 . S
C399 C402 1.463 . S
C399 C404 1.350 . S
C399 N407 1.427 . S
C400 H391 0.930 . S
C400 C398 1.378 . S
C400 C401 1.367 . S
C401 C400 1.367 . S
C401 C403 1.433 . S
C402 C398 1.350 . S
C402 C399 1.463 . S
C402 N406 1.427 . S
C403 H393 0.929 . S
C403 C401 1.433 . S
C403 N406 1.384 . S
C404 H395 0.929 . S
C404 C396 1.378 . S
C404 C399 1.350 . S
C405 H392 0.929 . S
C405 C397 1.433 . S
C405 N407 1.384 . S
N406 C402 1.427 . S
N406 C403 1.384 . S
N407 C399 1.427 . S
N407 C405 1.384 . S
H408 C414 0.930 . S
H409 C418 0.930 . S
H410 C423 0.929 . S
H411 C421 0.929 . S
H412 C416 0.929 . S
H413 C422 0.929 . S
C414 H408 0.930 . S
C414 C415 1.367 . S
C414 C422 1.378 . S
C415 C414 1.367 . S
C415 C423 1.433 . S
C416 H412 0.929 . S
C416 C418 1.378 . S
C416 C420 1.350 . S
C417 C420 1.463 . S
C417 C422 1.350 . S
C417 N425 1.427 . S
C418 H409 0.930 . S
C418 C416 1.378 . S
C418 C419 1.367 . S
C419 C418 1.367 . S
C419 C421 1.433 . S
C420 C416 1.350 . S
C420 C417 1.463 . S
C420 N424 1.427 . S
C421 H411 0.929 . S
C421 C419 1.433 . S
C421 N424 1.384 . S
C422 H413 0.929 . S
C422 C414 1.378 . S
C422 C417 1.350 . S
C423 H410 0.929 . S
C423 C415 1.433 . S
C423 N425 1.384 . S
N424 C420 1.427 . S
N424 C421 1.384 . S
N425 C417 1.427 . S
N425 C423 1.384 . S
H426 C432 0.930 . S
H427 C436 0.930 . S
H428 C441 0.929 . S
H429 C439 0.929 . S
H430 C434 0.929 . S
H431 C440 0.929 . S
C432 H426 0.930 . S
C432 C433 1.367 . S
C432 C440 1.378 . S
C433 C432 1.367 . S
C433 C441 1.433 . S
C434 H430 0.929 . S
C434 C436 1.378 . S
C434 C438 1.350 . S
C435 C438 1.463 . S
C435 C440 1.350 . S
C435 N443 1.427 . S
C436 H427 0.930 . S
C436 C434 1.378 . S
C436 C437 1.367 . S
C437 C436 1.367 . S
C437 C439 1.433 . S
C438 C434 1.350 . S
C438 C435 1.463 . S
C438 N442 1.427 . S
C439 H429 0.929 . S
C439 C437 1.433 . S
C439 N442 1.384 . S
C440 H431 0.929 . S
C440 C432 1.378 . S
C440 C435 1.350 . S
C441 H428 0.929 . S
C441 C433 1.433 . S
C441 N443 1.384 . S
N442 C438 1.427 . S
N442 C439 1.384 . S
N443 C435 1.427 . S
N443 C441 1.384 . S
H444 C450 0.930 . S
H445 C454 0.930 . S
H446 C459 0.929 . S
H447 C457 0.929 . S
H448 C452 0.929 . S
H449 C458 0.929 . S
C450 H444 0.930 . S
C450 C451 1.367 . S
C450 C458 1.378 . S
C451 C450 1.367 . S
C451 C459 1.433 . S
C452 H448 0.929 . S
C452 C454 1.378 . S
C452 C456 1.350 . S
C453 C456 1.463 . S
C453 C458 1.350 . S
C453 N461 1.427 . S
C454 H445 0.930 . S
C454 C452 1.378 . S
C454 C455 1.367 . S
C455 C454 1.367 . S
C455 C457 1.433 . S
C456 C452 1.350 . S
C456 C453 1.463 . S
C456 N460 1.427 . S
C457 H447 0.929 . S
C457 C455 1.433 . S
C457 N460 1.384 . S
C458 H449 0.929 . S
C458 C450 1.378 . S
C458 C453 1.350 . S
C459 H446 0.929 . S
C459 C451 1.433 . S
C459 N461 1.384 . S
N460 C456 1.427 . S
N460 C457 1.384 . S
N461 C453 1.427 . S
N461 C459 1.384 . S
H462 C468 0.930 . S
H463 C472 0.930 . S
H464 C477 0.929 . S
H465 C475 0.929 . S
H466 C470 0.929 . S
H467 C476 0.929 . S
C468 H462 0.930 . S
C468 C469 1.367 . S
C468 C476 1.378 . S
C469 C468 1.367 . S
C469 C477 1.433 . S
C470 H466 0.929 . S
C470 C472 1.378 1_556 S
C470 C474 1.350 . S
C471 C474 1.463 . S
C471 C476 1.350 . S
C471 N479 1.427 . S
C472 H463 0.930 . S
C472 C470 1.378 1_554 S
C472 C473 1.367 . S
C473 C472 1.367 . S
C473 C475 1.433 . S
C474 C470 1.350 . S
C474 C471 1.463 . S
C474 N478 1.427 . S
C475 H465 0.929 . S
C475 C473 1.433 . S
C475 N478 1.384 1_554 S
C476 H467 0.929 . S
C476 C468 1.378 . S
C476 C471 1.350 . S
C477 H464 0.929 . S
C477 C469 1.433 . S
C477 N479 1.384 . S
N478 C474 1.427 . S
N478 C475 1.384 1_556 S
N479 C471 1.427 . S
N479 C477 1.384 . S
H480 C486 0.930 . S
H481 C490 0.930 . S
H482 C495 0.929 . S
H483 C493 0.929 . S
H484 C488 0.929 . S
H485 C494 0.929 . S
C486 H480 0.930 . S
C486 C487 1.367 . S
C486 C494 1.378 . S
C487 C486 1.367 . S
C487 C495 1.433 . S
C488 H484 0.929 . S
C488 C490 1.378 . S
C488 C492 1.350 . S
C489 C492 1.463 . S
C489 C494 1.350 . S
C489 N497 1.427 . S
C490 H481 0.930 . S
C490 C488 1.378 . S
C490 C491 1.367 . S
C491 C490 1.367 . S
C491 C493 1.433 . S
C492 C488 1.350 . S
C492 C489 1.463 . S
C492 N496 1.427 . S
C493 H483 0.929 . S
C493 C491 1.433 . S
C493 N496 1.384 . S
C494 H485 0.929 . S
C494 C486 1.378 . S
C494 C489 1.350 . S
C495 H482 0.929 . S
C495 C487 1.433 . S
C495 N497 1.384 . S
N496 C492 1.427 . S
N496 C493 1.384 . S
N497 C489 1.427 . S
N497 C495 1.384 . S
H498 C504 0.930 . S
H499 C508 0.930 . S
H500 C513 0.929 . S
H501 C511 0.929 . S
H502 C506 0.929 . S
H503 C512 0.929 . S
C504 H498 0.930 . S
C504 C505 1.367 . S
C504 C512 1.378 . S
C505 C504 1.367 . S
C505 C513 1.433 . S
C506 H502 0.929 . S
C506 C508 1.378 . S
C506 C510 1.350 . S
C507 C510 1.463 . S
C507 C512 1.350 . S
C507 N515 1.427 . S
C508 H499 0.930 . S
C508 C506 1.378 . S
C508 C509 1.367 . S
C509 C508 1.367 . S
C509 C511 1.433 . S
C510 C506 1.350 . S
C510 C507 1.463 . S
C510 N514 1.427 . S
C511 H501 0.929 . S
C511 C509 1.433 . S
C511 N514 1.384 . S
C512 H503 0.929 . S
C512 C504 1.378 . S
C512 C507 1.350 . S
C513 H500 0.929 . S
C513 C505 1.433 . S
C513 N515 1.384 . S
N514 C510 1.427 . S
N514 C511 1.384 . S
N515 C507 1.427 . S
N515 C513 1.384 . S
H516 C522 0.930 . S
H517 C526 0.930 . S
H518 C531 0.929 . S
H519 C529 0.929 . S
H520 C524 0.929 . S
H521 C530 0.929 . S
C522 H516 0.930 . S
C522 C523 1.367 . S
C522 C530 1.378 . S
C523 C522 1.367 . S
C523 C531 1.433 . S
C524 H520 0.929 . S
C524 C526 1.378 . S
C524 C528 1.350 . S
C525 C528 1.463 . S
C525 C530 1.350 . S
C525 N533 1.427 . S
C526 H517 0.930 . S
C526 C524 1.378 . S
C526 C527 1.367 . S
C527 C526 1.367 . S
C527 C529 1.433 . S
C528 C524 1.350 . S
C528 C525 1.463 . S
C528 N532 1.427 . S
C529 H519 0.929 . S
C529 C527 1.433 . S
C529 N532 1.384 . S
C530 H521 0.929 . S
C530 C522 1.378 . S
C530 C525 1.350 . S
C531 H518 0.929 . S
C531 C523 1.433 . S
C531 N533 1.384 . S
N532 C528 1.427 . S
N532 C529 1.384 . S
N533 C525 1.427 . S
N533 C531 1.384 . S
H534 C540 0.930 . S
H535 C544 0.930 . S
H536 C549 0.929 . S
H537 C547 0.929 . S
H538 C542 0.929 . S
H539 C548 0.929 . S
C540 H534 0.930 . S
C540 C541 1.367 . S
C540 C548 1.378 . S
C541 C540 1.367 . S
C541 C549 1.433 . S
C542 H538 0.929 . S
C542 C544 1.378 . S
C542 C546 1.350 . S
C543 C546 1.463 . S
C543 C548 1.350 . S
C543 N551 1.427 . S
C544 H535 0.930 . S
C544 C542 1.378 . S
C544 C545 1.367 . S
C545 C544 1.367 . S
C545 C547 1.433 . S
C546 C542 1.350 . S
C546 C543 1.463 . S
C546 N550 1.427 . S
C547 H537 0.929 . S
C547 C545 1.433 . S
C547 N550 1.384 . S
C548 H539 0.929 . S
C548 C540 1.378 . S
C548 C543 1.350 . S
C549 H536 0.929 . S
C549 C541 1.433 . S
C549 N551 1.384 . S
N550 C546 1.427 . S
N550 C547 1.384 . S
N551 C543 1.427 . S
N551 C549 1.384 . S
H552 C558 0.930 . S
H553 C562 0.930 . S
H554 C567 0.929 . S
H555 C565 0.929 . S
H556 C560 0.929 . S
H557 C566 0.929 . S
C558 H552 0.930 . S
C558 C559 1.367 . S
C558 C566 1.378 . S
C559 C558 1.367 . S
C559 C567 1.433 . S
C560 H556 0.929 . S
C560 C562 1.378 . S
C560 C564 1.350 . S
C561 C564 1.463 . S
C561 C566 1.350 . S
C561 N569 1.427 . S
C562 H553 0.930 . S
C562 C560 1.378 . S
C562 C563 1.367 . S
C563 C562 1.367 . S
C563 C565 1.433 . S
C564 C560 1.350 . S
C564 C561 1.463 . S
C564 N568 1.427 . S
C565 H555 0.929 . S
C565 C563 1.433 . S
C565 N568 1.384 . S
C566 H557 0.929 . S
C566 C558 1.378 . S
C566 C561 1.350 . S
C567 H554 0.929 . S
C567 C559 1.433 . S
C567 N569 1.384 . S
N568 C564 1.427 . S
N568 C565 1.384 . S
N569 C561 1.427 . S
N569 C567 1.384 . S
H570 C576 0.930 . S
H571 C580 0.930 . S
H572 C585 0.929 . S
H573 C583 0.929 . S
H574 C578 0.929 . S
H575 C584 0.929 . S
C576 H570 0.930 . S
C576 C577 1.367 . S
C576 C584 1.378 . S
C577 C576 1.367 . S
C577 C585 1.433 . S
C578 H574 0.929 . S
C578 C580 1.378 . S
C578 C582 1.350 . S
C579 C582 1.463 . S
C579 C584 1.350 . S
C579 N587 1.427 . S
C580 H571 0.930 . S
C580 C578 1.378 . S
C580 C581 1.367 . S
C581 C580 1.367 . S
C581 C583 1.433 . S
C582 C578 1.350 . S
C582 C579 1.463 . S
C582 N586 1.427 . S
C583 H573 0.929 . S
C583 C581 1.433 . S
C583 N586 1.384 . S
C584 H575 0.929 . S
C584 C576 1.378 . S
C584 C579 1.350 . S
C585 H572 0.929 . S
C585 C577 1.433 . S
C585 N587 1.384 . S
N586 C582 1.427 . S
N586 C583 1.384 . S
N587 C579 1.427 . S
N587 C585 1.384 . S
H588 C594 0.930 . S
H589 C598 0.930 . S
H590 C603 0.929 . S
H591 C601 0.929 . S
H592 C596 0.929 . S
H593 C602 0.929 . S
C594 H588 0.930 . S
C594 C595 1.367 . S
C594 C602 1.378 . S
C595 C594 1.367 . S
C595 C603 1.433 . S
C596 H592 0.929 . S
C596 C598 1.378 . S
C596 C600 1.350 1_556 S
C597 C600 1.463 . S
C597 C602 1.350 . S
C597 N605 1.427 . S
C598 H589 0.930 . S
C598 C596 1.378 . S
C598 C599 1.367 . S
C599 C598 1.367 . S
C599 C601 1.433 . S
C600 C596 1.350 1_554 S
C600 C597 1.463 . S
C600 N604 1.427 . S
C601 H591 0.929 . S
C601 C599 1.433 . S
C601 N604 1.384 1_556 S
C602 H593 0.929 . S
C602 C594 1.378 . S
C602 C597 1.350 . S
C603 H590 0.929 . S
C603 C595 1.433 . S
C603 N605 1.384 . S
N604 C600 1.427 . S
N604 C601 1.384 1_554 S
N605 C597 1.427 . S
N605 C603 1.384 . S
H606 C612 0.930 . S
H607 C616 0.930 . S
H608 C621 0.929 . S
H609 C619 0.929 . S
H610 C614 0.929 . S
H611 C620 0.929 . S
C612 H606 0.930 . S
C612 C613 1.367 . S
C612 C620 1.378 . S
C613 C612 1.367 . S
C613 C621 1.433 . S
C614 H610 0.929 . S
C614 C616 1.378 . S
C614 C618 1.350 . S
C615 C618 1.463 . S
C615 C620 1.350 . S
C615 N623 1.427 . S
C616 H607 0.930 . S
C616 C614 1.378 . S
C616 C617 1.367 . S
C617 C616 1.367 . S
C617 C619 1.433 . S
C618 C614 1.350 . S
C618 C615 1.463 . S
C618 N622 1.427 . S
C619 H609 0.929 . S
C619 C617 1.433 . S
C619 N622 1.384 . S
C620 H611 0.929 . S
C620 C612 1.378 . S
C620 C615 1.350 . S
C621 H608 0.929 . S
C621 C613 1.433 . S
C621 N623 1.384 . S
N622 C618 1.427 . S
N622 C619 1.384 . S
N623 C615 1.427 . S
N623 C621 1.384 . S
C203 C185 1.476 . S
C199 C8 1.462 . S
C217 C26 1.456 . S
C221 C114 1.478 . S
C235 C50 1.476 . S
C239 C128 1.495 . S
C253 C68 1.460 . S
C257 C142 1.489 . S
C275 C156 1.477 . S
C271 C80 1.455 . S
C289 C104 1.471 . S
C293 C171 1.490 . S
C307 C32 1.476 . S
C311 C129 1.495 . S
C325 C44 1.456 . S
C329 C143 1.479 . S
C343 C62 1.453 . S
C347 C157 1.478 . S
C365 C170 1.492 . S
C361 C86 1.468 . S
C383 C184 1.480 . S
C379 C98 1.455 . S
C401 C115 1.489 . S
C397 C14 1.469 . S
C415 C7 1.485 . S
C419 C131 1.529 . S
C433 C25 1.495 . S
C437 C145 1.529 . S
C455 C159 1.528 . S
C451 C52 1.492 . S
C469 C70 1.497 . S
C473 C172 1.523 . S
C491 C186 1.520 . S
C487 C79 1.488 . S
C509 C117 1.526 . S
C505 C106 1.498 . S
C527 C187 1.521 . S
C523 C34 1.497 . S
C541 C43 1.482 . S
C545 C116 1.525 . S
C563 C130 1.525 . S
C559 C61 1.485 . S
C577 C88 1.486 . S
C581 C144 1.527 . S
C595 C97 1.483 . S
C599 C158 1.521 . S
C613 C16 1.500 . S
C617 C173 1.524 . S
