# Generated by pormake.
# Topology anh, (6,3)-cn, num edge types: 1
# Building blocks:
#     Node 0, Type 0, BuildingBlock: BETDAH_clean_sbu_0, # of connection points: 6
#     Node 1, Type 0, BuildingBlock: BETDAH_clean_sbu_0, # of connection points: 6
#     Node 2, Type 0, BuildingBlock: BETDAH_clean_sbu_0, # of connection points: 6
#     Node 3, Type 1, BuildingBlock: BETDAH_clean_linker_0, # of connection points: 3
#     Node 4, Type 1, BuildingBlock: BETDAH_clean_linker_0, # of connection points: 3
#     Node 5, Type 1, BuildingBlock: BETDAH_clean_linker_0, # of connection points: 3
#     Node 6, Type 1, BuildingBlock: BETDAH_clean_linker_0, # of connection points: 3
#     Node 7, Type 1, BuildingBlock: BETDAH_clean_linker_0, # of connection points: 3
#     Node 8, Type 1, BuildingBlock: BETDAH_clean_linker_0, # of connection points: 3
#     Edge 9, Type (0, 1), BuildingBlock: TEMPAE_clean_linker_10, # of connection points: 2
#     Edge 10, Type (0, 1), BuildingBlock: TEMPAE_clean_linker_10, # of connection points: 2
#     Edge 11, Type (0, 1), BuildingBlock: TEMPAE_clean_linker_10, # of connection points: 2
#     Edge 12, Type (0, 1), BuildingBlock: TEMPAE_clean_linker_10, # of connection points: 2
#     Edge 13, Type (0, 1), BuildingBlock: TEMPAE_clean_linker_10, # of connection points: 2
#     Edge 14, Type (0, 1), BuildingBlock: TEMPAE_clean_linker_10, # of connection points: 2
#     Edge 15, Type (0, 1), BuildingBlock: TEMPAE_clean_linker_10, # of connection points: 2
#     Edge 16, Type (0, 1), BuildingBlock: TEMPAE_clean_linker_10, # of connection points: 2
#     Edge 17, Type (0, 1), BuildingBlock: TEMPAE_clean_linker_10, # of connection points: 2
#     Edge 18, Type (0, 1), BuildingBlock: TEMPAE_clean_linker_10, # of connection points: 2
#     Edge 19, Type (0, 1), BuildingBlock: TEMPAE_clean_linker_10, # of connection points: 2
#     Edge 20, Type (0, 1), BuildingBlock: TEMPAE_clean_linker_10, # of connection points: 2
#     Edge 21, Type (0, 1), BuildingBlock: TEMPAE_clean_linker_10, # of connection points: 2
#     Edge 22, Type (0, 1), BuildingBlock: TEMPAE_clean_linker_10, # of connection points: 2
#     Edge 23, Type (0, 1), BuildingBlock: TEMPAE_clean_linker_10, # of connection points: 2
#     Edge 24, Type (0, 1), BuildingBlock: TEMPAE_clean_linker_10, # of connection points: 2
#     Edge 25, Type (0, 1), BuildingBlock: TEMPAE_clean_linker_10, # of connection points: 2
#     Edge 26, Type (0, 1), BuildingBlock: TEMPAE_clean_linker_10, # of connection points: 2
# Relax obj value: 0.148
# Max RMSD: 0.185
# Mean RMSD: 0.110
data_MOF--net-anh--node1-BETDAH_clean_sbu_0--node2-BETDAH_clean_linker_0--edge1-TEMPAE_clean_linker_10
_symmetry_space_group_name_H-M    P1
_symmetry_Int_Tables_number       1
_symmetry_cell_setting            triclinic
loop_
_symmetry_equiv_pos_as_xyz
'x, y, z'
_cell_length_a     32.294322
_cell_length_b     38.510738
_cell_length_c     49.612863
_cell_angle_alpha  94.688757
_cell_angle_beta   90.553107
_cell_angle_gamma 129.60183
loop_
_atom_site_label
_atom_site_type_symbol
_atom_site_fract_x
_atom_site_fract_y
_atom_site_fract_z
_atom_type_partial_charge
Ho0 Ho 0.12726 0.54065 0.15907 0.0
Ho1 Ho 0.07201 0.57671 0.15941 0.0
C2 C 0.19761 0.65011 0.15988 0.0
C3 C 0.19651 0.53103 0.15363 0.0
C4 C 0.25335 0.57091 0.15935 0.0
C5 C 0.2841 0.59531 0.13814 0.0
C6 C 0.33899 0.63139 0.14351 0.0
C7 C 0.36319 0.63772 0.16907 0.0
C8 C 0.33134 0.62482 0.1912 0.0
C9 C 0.27607 0.58905 0.18632 0.0
C10 C 0.09665 0.5464 0.20787 0.0
C11 C 0.99985 0.4679 0.15462 0.0
C12 C 1.03355 0.6117 0.18177 0.0
C13 C 0.9768 0.58737 0.18442 0.0
C14 C 0.9468 0.54619 0.19604 0.0
C15 C 0.8936 0.51121 0.1866 0.0
C16 C 0.8703 0.51779 0.16604 0.0
C17 C 0.89818 0.56094 0.15725 0.0
C18 C 0.95103 0.59581 0.16672 0.0
C19 C 0.07834 0.56029 0.10571 0.0
O20 O 0.19893 0.61721 0.16383 0.0
O21 O 0.15186 0.64153 0.1559 0.0
O22 O 0.16805 0.51806 0.17469 0.0
O23 O 0.17234 0.53112 0.13233 0.0
O24 O 0.08934 0.51094 0.19723 0.0
O25 O 0.11931 0.57683 0.19186 0.0
O26 O 1.00059 0.50236 0.16128 0.0
O27 O 1.04404 0.47472 0.14836 0.0
O28 O 1.04611 0.61565 0.15658 0.0
O29 O 1.05469 0.59845 0.1958 0.0
O30 O 1.05287 0.57391 0.11505 0.0
O31 O 0.0964 0.55304 0.12537 0.0
H32 H 0.26664 0.5851 0.11737 0.0
H33 H 0.36313 0.64539 0.12636 0.0
H34 H 0.34955 0.63291 0.21163 0.0
H35 H 0.25252 0.57368 0.20348 0.0
H36 H 0.96562 0.53925 0.21032 0.0
H37 H 0.87133 0.47879 0.19458 0.0
H38 H 0.87953 0.56749 0.14252 0.0
H39 H 0.97347 0.62741 0.1577 0.0
Ho40 Ho 0.59011 0.02799 0.48058 0.0
Ho41 Ho 0.52283 0.05292 0.47523 0.0
C42 C 0.45811 0.94917 0.47354 0.0
C43 C 0.62278 0.98477 0.49204 0.0
C44 C 0.59549 0.93577 0.48807 0.0
C45 C 0.57002 0.9088 0.50936 0.0
C46 C 0.55032 0.86408 0.50673 0.0
C47 C 0.55602 0.84574 0.48282 0.0
C48 C 0.5761 0.87103 0.46057 0.0
C49 C 0.59597 0.91571 0.46321 0.0
C50 C 0.58047 0.04188 0.42968 0.0
C51 C 0.65391 0.13204 0.4815 0.0
C52 C 0.48864 0.0956 0.46523 0.0
C53 C 0.51538 0.14438 0.46967 0.0
C54 C 0.54411 0.17297 0.44935 0.0
C55 C 0.56516 0.21811 0.45287 0.0
C56 C 0.55743 0.2349 0.47666 0.0
C57 C 0.53269 0.2076 0.49776 0.0
C58 C 0.51172 0.16271 0.49429 0.0
C59 C 0.54128 0.04403 0.52652 0.0
O60 O 0.50518 0.96218 0.48265 0.0
O61 O 0.45454 0.97872 0.46494 0.0
O62 O 0.63439 0.005 0.4701 0.0
O63 O 0.60446 0.99765 0.5101 0.0
O64 O 0.62393 0.05325 0.4416 0.0
O65 O 0.54163 0.02077 0.44482 0.0
O66 O 0.60683 0.11848 0.47195 0.0
O67 O 0.65774 0.10294 0.49092 0.0
O68 O 0.47814 0.0751 0.48696 0.0
O69 O 0.50699 0.08348 0.44672 0.0
O70 O 0.49465 0.02848 0.5162 0.0
O71 O 0.57569 0.06399 0.50951 0.0
H72 H 0.56775 0.9229 0.52853 0.0
H73 H 0.53477 0.8453 0.52419 0.0
H74 H 0.57988 0.85728 0.44171 0.0
H75 H 0.61396 0.93507 0.44612 0.0
H76 H 0.54853 0.16006 0.43034 0.0
H77 H 0.58422 0.23887 0.43641 0.0
H78 H 0.52678 0.22032 0.51634 0.0
H79 H 0.49082 0.14196 0.51056 0.0
Ho80 Ho 0.67692 0.59053 0.82726 0.0
Ho81 Ho 0.60167 0.49194 0.82402 0.0
C82 C 0.5437 0.53644 0.83018 0.0
C83 C 0.72047 0.67275 0.82128 0.0
C84 C 0.69722 0.69558 0.82203 0.0
C85 C 0.66507 0.68916 0.79964 0.0
C86 C 0.64515 0.71232 0.80008 0.0
C87 C 0.65672 0.74189 0.82291 0.0
C88 C 0.68622 0.74664 0.84584 0.0
C89 C 0.70639 0.7236 0.84542 0.0
C90 C 0.65862 0.5579 0.87493 0.0
C91 C 0.73539 0.54633 0.82674 0.0
C92 C 0.55735 0.4098 0.83095 0.0
C93 C 0.57512 0.38303 0.82553 0.0
C94 C 0.5975 0.3764 0.84688 0.0
C95 C 0.61242 0.34965 0.84203 0.0
C96 C 0.60497 0.32893 0.81578 0.0
C97 C 0.58537 0.33759 0.79421 0.0
C98 C 0.57034 0.36419 0.79904 0.0
C99 C 0.61216 0.52233 0.77585 0.0
O100 O 0.59313 0.57429 0.826 0.0
O101 O 0.53742 0.4992 0.83297 0.0
O102 O 0.72423 0.66044 0.84431 0.0
O103 O 0.7036 0.64187 0.80073 0.0
O104 O 0.70622 0.59217 0.86898 0.0
O105 O 0.62397 0.54396 0.85585 0.0
O106 O 0.68471 0.50775 0.82716 0.0
O107 O 0.7434 0.58451 0.8247 0.0
O108 O 0.54519 0.42064 0.80972 0.0
O109 O 0.58507 0.44326 0.85054 0.0
O110 O 0.56745 0.48708 0.7836 0.0
O111 O 0.65102 0.53863 0.79336 0.0
H112 H 0.65653 0.66731 0.78146 0.0
H113 H 0.62296 0.70892 0.78211 0.0
H114 H 0.69602 0.76996 0.86346 0.0
H115 H 0.73042 0.7287 0.86309 0.0
H116 H 0.60236 0.39105 0.86744 0.0
H117 H 0.62741 0.3435 0.85904 0.0
H118 H 0.58035 0.32282 0.77365 0.0
H119 H 0.55416 0.36926 0.78201 0.0
H120 H 0.48973 0.97817 0.22882 0.0
H121 H 0.64084 0.10766 0.21866 0.0
H122 H 0.54026 0.01087 0.14893 0.0
C123 C 0.51926 1.00153 0.21566 0.0
C124 C 0.50913 0.98822 0.18774 0.0
C125 C 0.56714 0.04299 0.22744 0.0
C126 C 0.604 0.075 0.21016 0.0
C127 C 0.59355 0.06383 0.18165 0.0
C128 C 0.5471 0.01985 0.17071 0.0
N129 N 0.62891 0.09504 0.1632 0.0
C130 C 0.67289 0.14127 0.16936 0.0
H131 H 0.56455 0.47942 0.57321 0.0
H132 H 0.64164 0.62056 0.57412 0.0
H133 H 0.62755 0.54594 0.50092 0.0
C134 C 0.58494 0.50937 0.5627 0.0
C135 C 0.59514 0.50729 0.53539 0.0
C136 C 0.60541 0.55074 0.57752 0.0
C137 C 0.6263 0.58832 0.56337 0.0
C138 C 0.6315 0.58525 0.53538 0.0
C139 C 0.61831 0.54576 0.52185 0.0
N140 N 0.6542 0.62291 0.5209 0.0
C141 C 0.62906 0.64117 0.51837 0.0
H142 H 1.05269 0.55528 0.90494 0.0
H143 H 0.17433 0.54342 0.89398 0.0
H144 H 0.08816 0.53735 0.82358 0.0
C145 C 0.07295 0.54914 0.89066 0.0
C146 C 0.06044 0.5439 0.86242 0.0
C147 C 0.11169 0.54737 0.90197 0.0
C148 C 0.14435 0.5443 0.88499 0.0
C149 C 0.13775 0.54141 0.85654 0.0
C150 C 0.09482 0.54073 0.84539 0.0
N151 N 0.17209 0.53827 0.83896 0.0
C152 C 0.21631 0.5382 0.84452 0.0
H153 H 0.13623 0.62962 0.40711 0.0
H154 H 1.00914 0.49083 0.41952 0.0
H155 H 0.11489 0.58986 0.48752 0.0
C156 C 0.11482 0.60376 0.4208 0.0
C157 C 0.13242 0.61551 0.44844 0.0
C158 C 0.07149 0.55924 0.40999 0.0
C159 C 1.04264 0.52539 0.42767 0.0
C160 C 1.05735 0.53673 0.45591 0.0
C161 C 0.10259 0.58169 0.46601 0.0
N162 N 1.02908 0.50418 0.47486 0.0
C163 C 0.98106 0.45936 0.46963 0.0
H164 H 0.56325 0.06789 0.73488 0.0
H165 H 0.63954 0.0081 0.72465 0.0
H166 H 0.65672 0.07739 0.8011 0.0
C167 C 0.58666 0.05915 0.74262 0.0
C168 C 0.60999 0.07624 0.76925 0.0
C169 C 0.60011 0.03751 0.72525 0.0
C170 C 0.62775 0.02453 0.737 0.0
C171 C 0.64488 0.03647 0.76479 0.0
C172 C 0.63764 0.06363 0.78063 0.0
N173 N 0.67745 0.02789 0.77583 0.0
C174 C 0.65501 0.98573 0.78344 0.0
H175 H 0.6331 0.54346 0.07801 0.0
H176 H 0.46588 0.43535 0.05217 0.0
H177 H 0.52201 0.4607 0.13567 0.0
C178 C 0.59187 0.51846 0.08323 0.0
C179 C 0.58242 0.50375 0.10888 0.0
C180 C 0.54997 0.49349 0.06262 0.0
C181 C 0.49822 0.4555 0.06819 0.0
C182 C 0.48821 0.44417 0.09467 0.0
C183 C 0.52958 0.47101 0.11537 0.0
N184 N 0.43516 0.41117 0.10159 0.0
C185 C 0.41713 0.43021 0.11639 0.0
C186 C 0.36763 0.57694 0.17076 0.0
C187 C 0.39503 0.62269 0.1675 0.0
C188 C 0.38501 0.55455 0.15969 0.0
C189 C 0.43369 0.57939 0.14681 0.0
C190 C 0.46405 0.62635 0.14513 0.0
C191 C 0.44346 0.64738 0.15501 0.0
C192 C 0.34933 0.50365 0.1607 0.0
C193 C 0.51616 0.65363 0.13159 0.0
C194 C 0.45577 0.49782 0.14816 0.0
C195 C 0.42504 0.47048 0.12415 0.0
C196 C 0.46941 0.54034 0.15382 0.0
C197 C 0.45041 0.55423 0.13524 0.0
C198 C 0.42695 0.52963 0.10924 0.0
C199 C 0.41459 0.48774 0.10405 0.0
C200 C 0.49673 0.56712 0.18123 0.0
C201 C 0.40724 0.5432 0.08816 0.0
H202 H 0.32925 0.55695 0.17962 0.0
H203 H 0.46342 0.68219 0.15172 0.0
H204 H 0.34116 0.48571 0.14019 0.0
H205 H 0.36966 0.49593 0.17402 0.0
H206 H 0.30979 0.48916 0.16863 0.0
H207 H 0.53956 0.69067 0.13683 0.0
H208 H 0.54135 0.64474 0.13749 0.0
H209 H 0.50742 0.64593 0.10925 0.0
H210 H 0.46818 0.48576 0.16262 0.0
H211 H 0.39536 0.46791 0.08442 0.0
H212 H 0.46554 0.55651 0.1957 0.0
H213 H 0.52082 0.60405 0.18015 0.0
H214 H 0.52329 0.56084 0.1894 0.0
H215 H 0.36251 0.52013 0.08706 0.0
H216 H 0.41876 0.53901 0.06787 0.0
H217 H 0.42306 0.57854 0.09251 0.0
C218 C 0.69939 0.20626 0.46324 0.0
C219 C 0.70203 0.1805 0.48057 0.0
C220 C 0.74346 0.25219 0.46178 0.0
C221 C 0.79197 0.27331 0.47794 0.0
C222 C 0.79461 0.24778 0.49593 0.0
C223 C 0.74976 0.2016 0.4969 0.0
C224 C 0.73807 0.27778 0.44255 0.0
C225 C 0.84453 0.26947 0.51451 0.0
C226 C 0.92256 0.37704 0.45339 0.0
C227 C 0.93173 0.41276 0.47013 0.0
C228 C 0.8772 0.33157 0.45574 0.0
C229 C 0.84029 0.32163 0.47537 0.0
C230 C 0.84935 0.35792 0.4921 0.0
C231 C 0.89491 0.40299 0.48922 0.0
C232 C 0.86897 0.29402 0.43744 0.0
C233 C 0.81058 0.34951 0.51272 0.0
H234 H 0.66278 0.19037 0.45043 0.0
H235 H 0.75184 0.18222 0.51067 0.0
H236 H 0.75436 0.31153 0.45259 0.0
H237 H 0.76172 0.28344 0.4249 0.0
H238 H 0.69546 0.25898 0.43493 0.0
H239 H 0.84197 0.24438 0.52568 0.0
H240 H 0.88069 0.28698 0.50277 0.0
H241 H 0.85025 0.29548 0.52953 0.0
H242 H 0.95125 0.3846 0.43874 0.0
H243 H 0.90212 0.43069 0.50223 0.0
H244 H 0.8303 0.27453 0.42477 0.0
H245 H 0.86633 0.27003 0.44983 0.0
H246 H 0.90205 0.30708 0.42384 0.0
H247 H 0.77521 0.34268 0.50214 0.0
H248 H 0.82941 0.37932 0.52819 0.0
H249 H 0.79555 0.31951 0.52322 0.0
C250 C 0.68546 0.81239 0.80721 0.0
C251 C 0.64812 0.77447 0.82045 0.0
C252 C 0.67847 0.84384 0.80328 0.0
C253 C 0.63271 0.83683 0.81278 0.0
C254 C 0.59501 0.79864 0.82653 0.0
C255 C 0.60326 0.76762 0.83026 0.0
C256 C 0.72008 0.88447 0.78887 0.0
C257 C 0.54542 0.78983 0.8365 0.0
C258 C 0.65694 0.94645 0.81879 0.0
C259 C 0.63826 0.9446 0.79281 0.0
C260 C 0.65089 0.90947 0.82667 0.0
C261 C 0.62539 0.87006 0.80799 0.0
C262 C 0.60218 0.86679 0.78253 0.0
C263 C 0.60936 0.90456 0.77509 0.0
C264 C 0.67644 0.91432 0.85389 0.0
C265 C 0.57451 0.82526 0.7621 0.0
H266 H 0.72012 0.81719 0.79978 0.0
H267 H 0.57453 0.73789 0.84043 0.0
H268 H 0.70082 0.88476 0.77035 0.0
H269 H 0.73773 0.91622 0.80224 0.0
H270 H 0.75329 0.88469 0.78285 0.0
H271 H 0.52542 0.76347 0.85071 0.0
H272 H 0.55553 0.82135 0.8468 0.0
H273 H 0.51628 0.77807 0.81887 0.0
H274 H 0.67922 0.97779 0.83234 0.0
H275 H 0.59501 0.90358 0.75496 0.0
H276 H 0.71367 0.919 0.85086 0.0
H277 H 0.6489 0.88323 0.86409 0.0
H278 H 0.68737 0.9439 0.86749 0.0
H279 H 0.60537 0.82749 0.75068 0.0
H280 H 0.54641 0.8227 0.7473 0.0
H281 H 0.55176 0.79377 0.77219 0.0
C282 C 0.80094 0.47938 0.12897 0.0
C283 C 0.8141 0.48286 0.15653 0.0
C284 C 0.76105 0.48149 0.12158 0.0
C285 C 0.73053 0.48079 0.14206 0.0
C286 C 0.73563 0.47287 0.16867 0.0
C287 C 0.77763 0.47322 0.17563 0.0
C288 C 0.75738 0.49134 0.09315 0.0
C289 C 0.70049 0.46876 0.19026 0.0
C290 C 0.67174 0.53756 0.13183 0.0
C291 C 0.62071 0.5 0.12028 0.0
C292 C 0.70867 0.53189 0.13962 0.0
C293 C 0.69284 0.48785 0.13552 0.0
C294 C 0.64139 0.45022 0.12398 0.0
C295 C 0.60639 0.45701 0.11594 0.0
C296 C 0.7646 0.57266 0.15142 0.0
C297 C 0.62391 0.4031 0.11894 0.0
H298 H 0.82909 0.4854 0.11434 0.0
H299 H 0.78726 0.47409 0.19681 0.0
H300 H 0.71493 0.46976 0.08462 0.0
H301 H 0.77433 0.52717 0.09383 0.0
H302 H 0.78019 0.48627 0.07915 0.0
H303 H 0.7109 0.46369 0.21015 0.0
H304 H 0.70461 0.49975 0.19297 0.0
H305 H 0.65757 0.43974 0.18379 0.0
H306 H 0.68276 0.57084 0.1342 0.0
H307 H 0.56774 0.42851 0.10553 0.0
H308 H 0.79512 0.57711 0.13841 0.0
H309 H 0.77266 0.5673 0.1718 0.0
H310 H 0.77015 0.60438 0.15326 0.0
H311 H 0.64336 0.40124 0.10121 0.0
H312 H 0.57956 0.37667 0.1146 0.0
H313 H 0.63639 0.39499 0.13665 0.0
C314 C 0.41414 0.87014 0.48393 0.0
C315 C 0.40921 0.90065 0.474 0.0
C316 C 0.36924 0.82403 0.48414 0.0
C317 C 0.31781 0.80745 0.47389 0.0
C318 C 0.3121 0.83827 0.4647 0.0
C319 C 0.35776 0.88447 0.46497 0.0
C320 C 0.3774 0.7928 0.49447 0.0
C321 C 0.25788 0.82222 0.454 0.0
C322 C 0.22437 0.68606 0.4401 0.0
C323 C 0.18274 0.66315 0.45764 0.0
C324 C 0.2673 0.73275 0.44498 0.0
C325 C 0.27195 0.75734 0.46925 0.0
C326 C 0.23294 0.73395 0.48841 0.0
C327 C 0.18829 0.68722 0.48223 0.0
C328 C 0.30672 0.75597 0.42351 0.0
C329 C 0.23847 0.75817 0.51541 0.0
H330 H 0.45343 0.88208 0.49129 0.0
H331 H 0.35321 0.90773 0.45768 0.0
H332 H 0.34529 0.76977 0.50774 0.0
H333 H 0.37496 0.77137 0.47709 0.0
H334 H 0.41727 0.81186 0.50598 0.0
H335 H 0.2607 0.8496 0.4458 0.0
H336 H 0.23939 0.79352 0.43775 0.0
H337 H 0.23036 0.80966 0.47058 0.0
H338 H 0.2226 0.66766 0.42178 0.0
H339 H 0.15721 0.67 0.49628 0.0
H340 H 0.34744 0.76999 0.43153 0.0
H341 H 0.30963 0.78475 0.41791 0.0
H342 H 0.29482 0.73259 0.40481 0.0
H343 H 0.27208 0.76558 0.52834 0.0
H344 H 0.20117 0.73749 0.52625 0.0
H345 H 0.24859 0.79111 0.51285 0.0
C346 C 0.57311 0.25389 0.79512 0.0
C347 C 0.61232 0.29483 0.81131 0.0
C348 C 0.57745 0.22005 0.79133 0.0
C349 C 0.62179 0.22713 0.80436 0.0
C350 C 0.66158 0.26827 0.82082 0.0
C351 C 0.65647 0.30188 0.82404 0.0
C352 C 0.53458 0.17676 0.77328 0.0
C353 C 0.71017 0.27728 0.83431 0.0
C354 C 0.59763 0.11751 0.80552 0.0
C355 C 0.6188 0.11677 0.78127 0.0
C356 C 0.60171 0.15518 0.81458 0.0
C357 C 0.62766 0.19227 0.79894 0.0
C358 C 0.65249 0.1927 0.77554 0.0
C359 C 0.64765 0.15484 0.76701 0.0
C360 C 0.57541 0.15416 0.83981 0.0
C361 C 0.68 0.23115 0.75803 0.0
H362 H 0.53835 0.24793 0.78569 0.0
H363 H 0.68718 0.33376 0.8363 0.0
H364 H 0.55317 0.17123 0.75664 0.0
H365 H 0.51443 0.14739 0.7852 0.0
H366 H 0.50346 0.17725 0.76411 0.0
H367 H 0.7328 0.30765 0.84965 0.0
H368 H 0.698 0.24759 0.84431 0.0
H369 H 0.73769 0.28293 0.8187 0.0
H370 H 0.57598 0.08806 0.81659 0.0
H371 H 0.66478 0.15422 0.74844 0.0
H372 H 0.53895 0.14982 0.83402 0.0
H373 H 0.60315 0.18674 0.85309 0.0
H374 H 0.56326 0.12598 0.85152 0.0
H375 H 0.649 0.22657 0.74442 0.0
H376 H 0.70836 0.23175 0.74515 0.0
H377 H 0.70248 0.2645 0.77044 0.0
C378 C 0.59597 0.80866 0.47481 0.0
C379 C 0.55247 0.80554 0.48321 0.0
C380 C 0.60019 0.77583 0.47977 0.0
C381 C 0.55937 0.73843 0.49307 0.0
C382 C 0.51351 0.73336 0.50005 0.0
C383 C 0.5108 0.76735 0.49526 0.0
C384 C 0.65002 0.78269 0.47218 0.0
C385 C 0.46912 0.6936 0.51405 0.0
C386 C 0.5727 0.64768 0.4897 0.0
C387 C 0.60397 0.66049 0.51392 0.0
C388 C 0.55419 0.67076 0.48338 0.0
C389 C 0.56791 0.7074 0.50175 0.0
C390 C 0.59676 0.71835 0.52704 0.0
C391 C 0.61456 0.6946 0.53281 0.0
C392 C 0.5228 0.65776 0.45646 0.0
C393 C 0.61295 0.75758 0.54707 0.0
H394 H 0.62877 0.83846 0.46593 0.0
H395 H 0.47708 0.76485 0.50173 0.0
H396 H 0.6714 0.78431 0.49051 0.0
H397 H 0.63844 0.75356 0.45791 0.0
H398 H 0.67858 0.81429 0.46251 0.0
H399 H 0.43236 0.69032 0.51378 0.0
H400 H 0.45835 0.6615 0.50434 0.0
H401 H 0.48339 0.69819 0.5355 0.0
H402 H 0.56454 0.62086 0.47527 0.0
H403 H 0.63879 0.70406 0.55156 0.0
H404 H 0.54818 0.68464 0.44301 0.0
H405 H 0.48668 0.65482 0.45935 0.0
H406 H 0.50977 0.62518 0.44606 0.0
H407 H 0.64828 0.78976 0.54011 0.0
H408 H 0.6243 0.75526 0.56766 0.0
H409 H 0.58 0.75924 0.54849 0.0
C410 C 0.77667 0.50583 0.82548 0.0
C411 C 0.78387 0.54633 0.82919 0.0
C412 C 0.82049 0.50493 0.82798 0.0
C413 C 0.87493 0.54536 0.83537 0.0
C414 C 0.88236 0.58638 0.83946 0.0
C415 C 0.83797 0.58644 0.83596 0.0
C416 C 0.80783 0.45982 0.82275 0.0
C417 C 0.93773 0.63092 0.84786 0.0
C418 C 0.97163 0.53082 0.87148 0.0
C419 C 1.01145 0.54186 0.85323 0.0
C420 C 0.93028 0.53376 0.86634 0.0
C421 C 0.92232 0.54417 0.84094 0.0
C422 C 0.9596 0.55255 0.82142 0.0
C423 C 1.00326 0.552 0.82775 0.0
C424 C 0.89527 0.52635 0.8889 0.0
C425 C 0.95258 0.56106 0.79332 0.0
H426 H 0.73613 0.47413 0.82036 0.0
H427 H 0.84579 0.61838 0.83921 0.0
H428 H 0.83887 0.46299 0.8109 0.0
H429 H 0.80783 0.44791 0.84235 0.0
H430 H 0.76761 0.43356 0.81162 0.0
H431 H 0.93613 0.65793 0.85554 0.0
H432 H 0.95862 0.62727 0.86385 0.0
H433 H 0.96229 0.64199 0.83011 0.0
H434 H 0.97176 0.5192 0.89052 0.0
H435 H 1.03106 0.55972 0.81254 0.0
H436 H 0.8535 0.49436 0.88362 0.0
H437 H 0.89373 0.55441 0.89166 0.0
H438 H 0.91016 0.52442 0.90854 0.0
H439 H 0.91667 0.52874 0.78221 0.0
H440 H 0.9882 0.57408 0.78167 0.0
H441 H 0.94514 0.58554 0.79416 0.0
C442 C 0.24223 0.72857 0.14946 0.0
C443 C 0.24677 0.69868 0.16081 0.0
C444 C 0.28487 0.77543 0.15204 0.0
C445 C 0.33407 0.79358 0.16629 0.0
C446 C 0.3394 0.76378 0.17773 0.0
C447 C 0.29574 0.71654 0.17468 0.0
C448 C 0.27682 0.80557 0.1397 0.0
C449 C 0.38994 0.78196 0.19457 0.0
C450 C 0.46179 0.91386 0.1572 0.0
C451 C 0.46037 0.93996 0.1781 0.0
C452 C 0.42006 0.8663 0.15257 0.0
C453 C 0.37823 0.84397 0.17044 0.0
C454 C 0.37624 0.8703 0.19109 0.0
C455 C 0.41463 0.91765 0.19315 0.0
C456 C 0.4208 0.83973 0.12879 0.0
C457 C 0.33429 0.84912 0.21157 0.0
H458 H 0.20461 0.71536 0.1387 0.0
H459 H 0.29925 0.69395 0.18403 0.0
H460 H 0.28281 0.83068 0.1556 0.0
H461 H 0.30718 0.82483 0.12485 0.0
H462 H 0.23591 0.78606 0.12931 0.0
H463 H 0.39102 0.7546 0.19868 0.0
H464 H 0.4264 0.80766 0.18437 0.0
H465 H 0.39172 0.79897 0.21426 0.0
H466 H 0.49599 0.9302 0.14497 0.0
H467 H 0.41016 0.93709 0.208 0.0
H468 H 0.38262 0.82053 0.11569 0.0
H469 H 0.42324 0.81455 0.13605 0.0
H470 H 0.45514 0.86193 0.11633 0.0
H471 H 0.2987 0.84475 0.20388 0.0
H472 H 0.35021 0.87136 0.23117 0.0
H473 H 0.32082 0.8155 0.21557 0.0
C474 C 0.61611 0.31946 0.47883 0.0
C475 C 0.56493 0.27681 0.47783 0.0
C476 C 0.62209 0.359 0.48342 0.0
C477 C 0.57587 0.35508 0.48728 0.0
C478 C 0.52398 0.31192 0.48433 0.0
C479 C 0.51923 0.2733 0.47953 0.0
C480 C 0.67784 0.40475 0.48568 0.0
C481 C 0.47367 0.30631 0.48797 0.0
C482 C 0.59527 0.44289 0.53862 0.0
C483 C 0.58818 0.46734 0.52249 0.0
C484 C 0.5905 0.40603 0.52732 0.0
C485 C 0.58186 0.3948 0.49887 0.0
C486 C 0.57608 0.41975 0.48218 0.0
C487 C 0.57819 0.45519 0.49424 0.0
C488 C 0.59444 0.37895 0.54602 0.0
C489 C 0.56954 0.41017 0.45164 0.0
H490 H 0.6513 0.32184 0.47721 0.0
H491 H 0.47967 0.23998 0.47814 0.0
H492 H 0.67776 0.4289 0.47495 0.0
H493 H 0.69086 0.4189 0.50732 0.0
H494 H 0.70788 0.4025 0.47721 0.0
H495 H 0.43653 0.27011 0.48559 0.0
H496 H 0.47631 0.32192 0.50843 0.0
H497 H 0.46989 0.324 0.47286 0.0
H498 H 0.6055 0.45275 0.56024 0.0
H499 H 0.57238 0.47344 0.48143 0.0
H500 H 0.63091 0.38273 0.5425 0.0
H501 H 0.55894 0.34235 0.54178 0.0
H502 H 0.59661 0.38992 0.56778 0.0
H503 H 0.60922 0.42417 0.44416 0.0
H504 H 0.55506 0.42609 0.44195 0.0
H505 H 0.54124 0.37323 0.44493 0.0
C506 C 0.44124 0.49584 0.83358 0.0
C507 C 0.49513 0.53622 0.8325 0.0
C508 C 0.3962 0.49517 0.83574 0.0
C509 C 0.40302 0.53589 0.83707 0.0
C510 C 0.45739 0.57671 0.83595 0.0
C511 C 0.50164 0.57638 0.83374 0.0
C512 C 0.34062 0.45009 0.83618 0.0
C513 C 0.46954 0.62167 0.83758 0.0
C514 C 0.28023 0.53207 0.81808 0.0
C515 C 0.26321 0.53723 0.84325 0.0
C516 C 0.32419 0.53135 0.81587 0.0
C517 C 0.35415 0.53588 0.83931 0.0
C518 C 0.33698 0.54092 0.86483 0.0
C519 C 0.29267 0.54144 0.86647 0.0
C520 C 0.33883 0.52581 0.78802 0.0
C521 C 0.36506 0.54503 0.8908 0.0
H522 H 0.43384 0.46406 0.83254 0.0
H523 H 0.54202 0.60827 0.83314 0.0
H524 H 0.31873 0.45203 0.85252 0.0
H525 H 0.3172 0.44106 0.81661 0.0
H526 H 0.34188 0.42249 0.83918 0.0
H527 H 0.51075 0.64907 0.83177 0.0
H528 H 0.43991 0.61938 0.82426 0.0
H529 H 0.46632 0.63118 0.85871 0.0
H530 H 0.25891 0.52859 0.7997 0.0
H531 H 0.28111 0.54519 0.88623 0.0
H532 H 0.33385 0.49441 0.7854 0.0
H533 H 0.38184 0.55467 0.78579 0.0
H534 H 0.3136 0.52393 0.77162 0.0
H535 H 0.35342 0.51155 0.89348 0.0
H536 H 0.3542 0.55609 0.90877 0.0
H537 H 0.40948 0.56945 0.88996 0.0
C538 C 0.95522 0.39098 0.1688 0.0
C539 C 0.95046 0.42067 0.15748 0.0
C540 C 0.90946 0.34657 0.17272 0.0
C541 C 0.85739 0.33053 0.16416 0.0
C542 C 0.85237 0.36048 0.15277 0.0
C543 C 0.89884 0.40544 0.1501 0.0
C544 C 0.91692 0.3167 0.18586 0.0
C545 C 0.79786 0.34519 0.1435 0.0
C546 C 0.74888 0.20245 0.14601 0.0
C547 C 0.71955 0.189 0.169 0.0
C548 C 0.79321 0.24827 0.14414 0.0
C549 C 0.80881 0.28179 0.16583 0.0
C550 C 0.77888 0.26825 0.18914 0.0
C551 C 0.73462 0.22192 0.19048 0.0
C552 C 0.8234 0.2608 0.11886 0.0
C553 C 0.79421 0.30239 0.21297 0.0
H554 H 0.99495 0.40285 0.17518 0.0
H555 H 0.89488 0.42839 0.14168 0.0
H556 H 0.88981 0.30104 0.20247 0.0
H557 H 0.90602 0.28872 0.17068 0.0
H558 H 0.9591 0.33576 0.19432 0.0
H559 H 0.80116 0.37017 0.13181 0.0
H560 H 0.77392 0.31203 0.13069 0.0
H561 H 0.7753 0.34054 0.16148 0.0
H562 H 0.73694 0.17696 0.12932 0.0
H563 H 0.71184 0.21151 0.20828 0.0
H564 H 0.86579 0.27605 0.12416 0.0
H565 H 0.82428 0.28663 0.10975 0.0
H566 H 0.80501 0.23105 0.1034 0.0
H567 H 0.82902 0.31081 0.22527 0.0
H568 H 0.76054 0.2889 0.22623 0.0
H569 H 0.80658 0.33435 0.20619 0.0
C570 C 0.07643 0.57709 0.05792 0.0
C571 C 0.08836 0.55805 0.07628 0.0
C572 C 0.08569 0.57636 0.03019 0.0
C573 C 0.10656 0.55522 0.01996 0.0
C574 C 0.11938 0.53637 0.03844 0.0
C575 C 0.11061 0.53835 0.06631 0.0
C576 C 0.07218 0.59769 0.01168 0.0
C577 C 0.14283 0.51442 0.0288 0.0
C578 C 0.06887 0.51182 0.9442 0.0
C579 C 0.11475 0.54668 0.9321 0.0
C580 C 0.06688 0.51318 0.97262 0.0
C581 C 0.11162 0.55073 0.98977 0.0
C582 C 0.15899 0.58526 0.97763 0.0
C583 C 0.15999 0.5828 0.949 0.0
C584 C 1.01588 0.47502 0.98425 0.0
C585 C 0.20777 0.62617 -0.00532 0.0
H586 H 0.05995 0.593 0.06529 0.0
H587 H 0.12066 0.52401 0.08024 0.0
H588 H 0.10649 0.6208 -0.00053 0.0
H589 H 1.03715 0.57078 -0.0027 0.0
H590 H 0.06216 0.6172 0.0231 0.0
H591 H 0.14445 0.49648 0.04466 0.0
H592 H 0.11889 0.48989 0.01047 0.0
H593 H 0.18439 0.54085 0.02305 0.0
H594 H 1.0337 0.48385 0.93124 0.0
H595 H 0.1953 0.61019 0.93982 0.0
H596 H 0.99717 0.48809 0.99456 0.0
H597 H 1.02538 0.46125 -0.00031 0.0
H598 H 0.986 0.44691 0.96842 0.0
H599 H 0.20056 0.65016 0.00085 0.0
H600 H 0.2445 0.64415 0.9833 0.0
H601 H 0.2153 0.61647 0.01341 0.0
C602 C 0.54039 0.04886 0.38858 0.0
C603 C 0.57716 0.04561 0.40049 0.0
C604 C 0.54194 0.05612 0.36104 0.0
C605 C 0.58007 0.05881 0.34518 0.0
C606 C 0.61725 0.05578 0.35736 0.0
C607 C 0.61544 0.04946 0.38475 0.0
C608 C 0.50188 0.05949 0.34875 0.0
C609 C 0.65845 0.05823 0.34129 0.0
C610 C 0.55195 0.01177 0.27199 0.0
C611 C 0.57605 0.05001 0.25783 0.0
C612 C 0.54762 0.0141 0.29983 0.0
C613 C 0.576 0.05685 0.31512 0.0
C614 C 0.60578 0.09661 0.30165 0.0
C615 C 0.60364 0.09262 0.273 0.0
C616 C 0.51321 0.97045 0.31288 0.0
C617 C 0.63929 0.14316 0.31735 0.0
H618 H 0.51105 0.04628 0.40073 0.0
H619 H 0.64399 0.04695 0.39384 0.0
H620 H 0.52179 0.08729 0.33559 0.0
H621 H 0.47014 0.02739 0.33584 0.0
H622 H 0.48231 0.06554 0.36453 0.0
H623 H 0.68497 0.05591 0.35397 0.0
H624 H 0.63802 0.03021 0.32447 0.0
H625 H 0.6839 0.0906 0.33209 0.0
H626 H 0.53454 0.979 0.26125 0.0
H627 H 0.62322 0.12268 0.26266 0.0
H628 H 0.48648 0.97054 0.32672 0.0
H629 H 0.5393 0.96724 0.32513 0.0
H630 H 0.48757 0.94008 0.29761 0.0
H631 H 0.61245 0.15022 0.32415 0.0
H632 H 0.66917 0.16996 0.30475 0.0
H633 H 0.6611 0.14528 0.33568 0.0
C634 C 0.56925 0.5098 0.73051 0.0
C635 C 0.61606 0.53569 0.7483 0.0
C636 C 0.57065 0.51905 0.70371 0.0
C637 C 0.62016 0.55536 0.69434 0.0
C638 C 0.66732 0.58302 0.71249 0.0
C639 C 0.66476 0.57277 0.73937 0.0
C640 C 0.51954 0.48808 0.68504 0.0
C641 C 0.72052 0.62267 0.7033 0.0
C642 C 0.6271 0.53257 0.6198 0.0
C643 C 0.61215 0.55526 0.6077 0.0
C644 C 0.63193 0.53397 0.64794 0.0
C645 C 0.62311 0.5598 0.66476 0.0
C646 C 0.61114 0.58507 0.6529 0.0
C647 C 0.60542 0.58228 0.62442 0.0
C648 C 0.64445 0.50624 0.6596 0.0
C649 C 0.60182 0.61327 0.67018 0.0
H650 H 0.53132 0.48121 0.7373 0.0
H651 H 0.70086 0.59318 0.75318 0.0
H652 H 0.51404 0.50803 0.67293 0.0
H653 H 0.52238 0.4662 0.67062 0.0
H654 H 0.48322 0.46583 0.69634 0.0
H655 H 0.75393 0.63958 0.71947 0.0
H656 H 0.73088 0.61132 0.68527 0.0
H657 H 0.71721 0.64793 0.69715 0.0
H658 H 0.63477 0.51315 0.60719 0.0
H659 H 0.59437 0.60028 0.61533 0.0
H660 H 0.60947 0.47895 0.66998 0.0
H661 H 0.67943 0.52785 0.67496 0.0
H662 H 0.6535 0.49026 0.64378 0.0
H663 H 0.5607 0.59065 0.67729 0.0
H664 H 0.60525 0.63845 0.65866 0.0
H665 H 0.63093 0.63144 0.68839 0.0
C666 C 0.60555 0.06813 0.56643 0.0
C667 C 0.55262 0.03974 0.55437 0.0
C668 C 0.61611 0.06594 0.59352 0.0
C669 C 0.57272 0.03407 0.60861 0.0
C670 C 0.51948 0.00419 0.59608 0.0
C671 C 0.5101 0.00757 0.56914 0.0
C672 C 0.67343 0.0983 0.60615 0.0
C673 C 0.47188 0.9706 0.61161 0.0
C674 C 0.59061 0.00444 0.67682 0.0
C675 C 0.59266 0.03553 0.69508 0.0
C676 C 0.58702 0.0051 0.64857 0.0
C677 C 0.58173 0.03545 0.63827 0.0
C678 C 0.58309 0.06641 0.65644 0.0
C679 C 0.59101 0.06742 0.6843 0.0
C680 C 0.58935 0.97366 0.62974 0.0
C681 C 0.57716 0.09943 0.64679 0.0
H682 H 0.63852 0.09294 0.55493 0.0
H683 H 0.46922 0.98535 0.55972 0.0
H684 H 0.67693 0.11949 0.62404 0.0
H685 H 0.68497 0.07881 0.61343 0.0
H686 H 0.70254 0.12115 0.59169 0.0
H687 H 0.43451 0.94566 0.59802 0.0
H688 H 0.47987 0.95181 0.62326 0.0
H689 H 0.46481 0.98925 0.6264 0.0
H690 H 0.59208 0.97965 0.68438 0.0
H691 H 0.59654 0.09415 0.69742 0.0
H692 H 0.62203 0.99359 0.61603 0.0
H693 H 0.55102 0.94955 0.61678 0.0
H694 H 0.59673 0.954 0.64093 0.0
H695 H 0.61703 0.13017 0.64185 0.0
H696 H 0.5625 0.11034 0.66276 0.0
H697 H 0.54884 0.08466 0.62838 0.0
C698 C 0.68264 0.55735 0.92239 0.0
C699 C 0.64409 0.54614 0.9023 0.0
C700 C 0.66869 0.54802 0.94899 0.0
C701 C 0.61552 0.5281 0.95521 0.0
C702 C 0.57647 0.51642 0.93483 0.0
C703 C 0.59113 0.52503 0.90844 0.0
C704 C 0.71041 0.55901 0.97026 0.0
C705 C 0.51987 0.49651 0.94106 0.0
C706 C 0.55632 0.46792 0.01705 0.0
C707 C 0.56359 0.50188 0.03471 0.0
C708 C 0.57495 0.47658 0.99126 0.0
C709 C 0.60027 0.51991 0.98309 0.0
C710 C 0.60758 0.55437 0.00089 0.0
C711 C 0.58965 0.54503 0.02684 0.0
C712 C 0.56768 0.43954 0.97281 0.0
C713 C 0.63463 0.601 0.99261 0.0
H714 H 0.7234 0.57324 0.91729 0.0
H715 H 0.56145 0.51663 0.89279 0.0
H716 H 0.71245 0.57866 0.98863 0.0
H717 H 0.69868 0.52698 0.97654 0.0
H718 H 0.7512 0.57863 0.9627 0.0
H719 H 0.49363 0.48687 0.92246 0.0
H720 H 0.50092 0.46604 0.95182 0.0
H721 H 0.52146 0.52174 0.95468 0.0
H722 H 0.53756 0.43504 0.02378 0.0
H723 H 0.59608 0.57132 0.04104 0.0
H724 H 0.60725 0.45179 0.96612 0.0
H725 H 0.54156 0.43048 0.95435 0.0
H726 H 0.54927 0.40841 0.98287 0.0
H727 H 0.678 0.6189 0.99057 0.0
H728 H 0.63134 0.62198 0.00767 0.0
H729 H 0.61667 0.5984 0.97259 0.0
C730 C 1.03829 0.52533 0.24604 0.0
C731 C 0.09009 0.55238 0.23689 0.0
C732 C 1.03065 0.52428 0.27393 0.0
C733 C 0.07598 0.54985 0.29319 0.0
C734 C 0.12859 0.57752 0.28397 0.0
C735 C 0.13499 0.57868 0.25589 0.0
C736 C 0.97402 0.4954 0.2828 0.0
C737 C 0.17812 0.60421 0.30368 0.0
C738 C 0.06171 0.58029 0.36546 0.0
C739 C 0.06075 0.54989 0.37987 0.0
C740 C 0.06637 0.58042 0.33738 0.0
C741 C 0.06834 0.54833 0.32294 0.0
C742 C 0.06411 0.51568 0.33707 0.0
C743 C 0.06033 0.51683 0.3654 0.0
C744 C 0.07216 0.61658 0.32344 0.0
C745 C 0.06526 0.48041 0.32245 0.0
H746 H 1.00364 0.5043 0.23128 0.0
H747 H 0.17507 0.59848 0.24877 0.0
H748 H 0.96759 0.47065 0.29597 0.0
H749 H 0.96805 0.51717 0.29499 0.0
H750 H 0.94304 0.47657 0.26532 0.0
H751 H 0.21567 0.62858 0.29368 0.0
H752 H 0.1753 0.62318 0.32057 0.0
H753 H 0.18115 0.58038 0.31269 0.0
H754 H 0.06181 0.60583 0.37652 0.0
H755 H 0.06013 0.49354 0.37641 0.0
H756 H 1.04099 0.60071 0.30623 0.0
H757 H 0.11209 0.63846 0.31499 0.0
H758 H 0.06861 0.63844 0.33745 0.0
H759 H 1.02741 0.45561 0.30923 0.0
H760 H 0.06916 0.46169 0.33672 0.0
H761 H 0.0992 0.49634 0.30922 0.0
loop_
_geom_bond_atom_site_label_1
_geom_bond_atom_site_label_2
_geom_bond_distance
_geom_bond_site_symmetry_2
_ccdc_geom_bond_type
Ho0 C3 2.811 . S
Ho0 O20 2.322 . S
Ho0 O22 2.378 . S
Ho0 O23 2.524 . S
Ho0 O24 2.381 . S
Ho0 O25 2.669 . S
Ho0 O27 2.346 1_455 S
Ho0 O31 2.305 . S
Ho1 C12 2.811 1_455 S
Ho1 O21 2.346 . S
Ho1 O25 2.305 . S
Ho1 O26 2.322 1_455 S
Ho1 O28 2.378 1_455 S
Ho1 O29 2.524 1_455 S
Ho1 O30 2.381 . S
Ho1 O31 2.669 . S
C2 O20 1.259 . S
C2 O21 1.268 . S
C3 Ho0 2.811 . S
C3 C4 1.488 . S
C3 O22 1.215 . S
C3 O23 1.289 . S
C4 C3 1.488 . S
C4 C5 1.348 . S
C4 C9 1.413 . S
C5 C4 1.348 . S
C5 C6 1.442 . S
C5 H32 0.930 . S
C6 C5 1.442 . S
C6 C7 1.381 . S
C6 H33 0.931 . S
C7 C6 1.381 . S
C7 C8 1.321 . S
C8 C7 1.321 . S
C8 C9 1.403 . S
C8 H34 0.934 . S
C9 C4 1.413 . S
C9 C8 1.403 . S
C9 H35 0.930 . S
C10 O24 1.275 . S
C10 O25 1.256 . S
C11 O26 1.259 . S
C11 O27 1.268 . S
C12 Ho1 2.811 1_655 S
C12 C13 1.488 . S
C12 O28 1.215 . S
C12 O29 1.289 . S
C13 C12 1.488 . S
C13 C14 1.348 . S
C13 C18 1.413 . S
C14 C13 1.348 . S
C14 C15 1.442 . S
C14 H36 0.930 . S
C15 C14 1.442 . S
C15 C16 1.381 . S
C15 H37 0.931 . S
C16 C15 1.381 . S
C16 C17 1.321 . S
C17 C16 1.321 . S
C17 C18 1.403 . S
C17 H38 0.934 . S
C18 C13 1.413 . S
C18 C17 1.403 . S
C18 H39 0.930 . S
C19 O30 1.275 . S
C19 O31 1.256 . S
O20 Ho0 2.322 . S
O20 C2 1.259 . S
O21 Ho1 2.346 . S
O21 C2 1.268 . S
O22 Ho0 2.378 . S
O22 C3 1.215 . S
O23 Ho0 2.524 . S
O23 C3 1.289 . S
O24 Ho0 2.381 . S
O24 C10 1.275 . S
O25 Ho0 2.669 . S
O25 Ho1 2.305 . S
O25 C10 1.256 . S
O26 Ho1 2.322 1_655 S
O26 C11 1.259 . S
O27 Ho0 2.346 1_655 S
O27 C11 1.268 . S
O28 Ho1 2.378 1_655 S
O28 C12 1.215 . S
O29 Ho1 2.524 1_655 S
O29 C12 1.289 . S
O30 Ho1 2.381 . S
O30 C19 1.275 . S
O31 Ho0 2.305 . S
O31 Ho1 2.669 . S
O31 C19 1.256 . S
H32 C5 0.930 . S
H33 C6 0.931 . S
H34 C8 0.934 . S
H35 C9 0.930 . S
H36 C14 0.930 . S
H37 C15 0.931 . S
H38 C17 0.934 . S
H39 C18 0.930 . S
Ho40 C43 2.811 1_545 S
Ho40 O60 2.322 1_545 S
Ho40 O62 2.378 1_545 S
Ho40 O63 2.524 1_545 S
Ho40 O64 2.381 . S
Ho40 O65 2.669 . S
Ho40 O67 2.346 . S
Ho40 O71 2.305 . S
Ho41 C52 2.811 . S
Ho41 O61 2.346 1_545 S
Ho41 O65 2.305 . S
Ho41 O66 2.322 . S
Ho41 O68 2.378 . S
Ho41 O69 2.524 . S
Ho41 O70 2.381 . S
Ho41 O71 2.669 . S
C42 O60 1.259 . S
C42 O61 1.268 . S
C43 Ho40 2.811 1_565 S
C43 C44 1.488 . S
C43 O62 1.215 . S
C43 O63 1.289 . S
C44 C43 1.488 . S
C44 C45 1.348 . S
C44 C49 1.413 . S
C45 C44 1.348 . S
C45 C46 1.442 . S
C45 H72 0.930 . S
C46 C45 1.442 . S
C46 C47 1.381 . S
C46 H73 0.931 . S
C47 C46 1.381 . S
C47 C48 1.321 . S
C48 C47 1.321 . S
C48 C49 1.403 . S
C48 H74 0.934 . S
C49 C44 1.413 . S
C49 C48 1.403 . S
C49 H75 0.930 . S
C50 O64 1.275 . S
C50 O65 1.256 . S
C51 O66 1.259 . S
C51 O67 1.268 . S
C52 Ho41 2.811 . S
C52 C53 1.488 . S
C52 O68 1.215 . S
C52 O69 1.289 . S
C53 C52 1.488 . S
C53 C54 1.348 . S
C53 C58 1.413 . S
C54 C53 1.348 . S
C54 C55 1.442 . S
C54 H76 0.930 . S
C55 C54 1.442 . S
C55 C56 1.381 . S
C55 H77 0.931 . S
C56 C55 1.381 . S
C56 C57 1.321 . S
C57 C56 1.321 . S
C57 C58 1.403 . S
C57 H78 0.934 . S
C58 C53 1.413 . S
C58 C57 1.403 . S
C58 H79 0.930 . S
C59 O70 1.275 . S
C59 O71 1.256 . S
O60 Ho40 2.322 1_565 S
O60 C42 1.259 . S
O61 Ho41 2.346 1_565 S
O61 C42 1.268 . S
O62 Ho40 2.378 1_565 S
O62 C43 1.215 . S
O63 Ho40 2.524 1_565 S
O63 C43 1.289 . S
O64 Ho40 2.381 . S
O64 C50 1.275 . S
O65 Ho40 2.669 . S
O65 Ho41 2.305 . S
O65 C50 1.256 . S
O66 Ho41 2.322 . S
O66 C51 1.259 . S
O67 Ho40 2.346 . S
O67 C51 1.268 . S
O68 Ho41 2.378 . S
O68 C52 1.215 . S
O69 Ho41 2.524 . S
O69 C52 1.289 . S
O70 Ho41 2.381 . S
O70 C59 1.275 . S
O71 Ho40 2.305 . S
O71 Ho41 2.669 . S
O71 C59 1.256 . S
H72 C45 0.930 . S
H73 C46 0.931 . S
H74 C48 0.934 . S
H75 C49 0.930 . S
H76 C54 0.930 . S
H77 C55 0.931 . S
H78 C57 0.934 . S
H79 C58 0.930 . S
Ho80 C83 2.811 . S
Ho80 O100 2.322 . S
Ho80 O102 2.378 . S
Ho80 O103 2.524 . S
Ho80 O104 2.381 . S
Ho80 O105 2.669 . S
Ho80 O107 2.346 . S
Ho80 O111 2.305 . S
Ho81 C92 2.811 . S
Ho81 O101 2.346 . S
Ho81 O105 2.305 . S
Ho81 O106 2.322 . S
Ho81 O108 2.378 . S
Ho81 O109 2.524 . S
Ho81 O110 2.381 . S
Ho81 O111 2.669 . S
C82 O100 1.259 . S
C82 O101 1.268 . S
C83 Ho80 2.811 . S
C83 C84 1.488 . S
C83 O102 1.215 . S
C83 O103 1.289 . S
C84 C83 1.488 . S
C84 C85 1.348 . S
C84 C89 1.413 . S
C85 C84 1.348 . S
C85 C86 1.442 . S
C85 H112 0.930 . S
C86 C85 1.442 . S
C86 C87 1.381 . S
C86 H113 0.931 . S
C87 C86 1.381 . S
C87 C88 1.321 . S
C88 C87 1.321 . S
C88 C89 1.403 . S
C88 H114 0.934 . S
C89 C84 1.413 . S
C89 C88 1.403 . S
C89 H115 0.930 . S
C90 O104 1.275 . S
C90 O105 1.256 . S
C91 O106 1.259 . S
C91 O107 1.268 . S
C92 Ho81 2.811 . S
C92 C93 1.488 . S
C92 O108 1.215 . S
C92 O109 1.289 . S
C93 C92 1.488 . S
C93 C94 1.348 . S
C93 C98 1.413 . S
C94 C93 1.348 . S
C94 C95 1.442 . S
C94 H116 0.930 . S
C95 C94 1.442 . S
C95 C96 1.381 . S
C95 H117 0.931 . S
C96 C95 1.381 . S
C96 C97 1.321 . S
C97 C96 1.321 . S
C97 C98 1.403 . S
C97 H118 0.934 . S
C98 C93 1.413 . S
C98 C97 1.403 . S
C98 H119 0.930 . S
C99 O110 1.275 . S
C99 O111 1.256 . S
O100 Ho80 2.322 . S
O100 C82 1.259 . S
O101 Ho81 2.346 . S
O101 C82 1.268 . S
O102 Ho80 2.378 . S
O102 C83 1.215 . S
O103 Ho80 2.524 . S
O103 C83 1.289 . S
O104 Ho80 2.381 . S
O104 C90 1.275 . S
O105 Ho80 2.669 . S
O105 Ho81 2.305 . S
O105 C90 1.256 . S
O106 Ho81 2.322 . S
O106 C91 1.259 . S
O107 Ho80 2.346 . S
O107 C91 1.268 . S
O108 Ho81 2.378 . S
O108 C92 1.215 . S
O109 Ho81 2.524 . S
O109 C92 1.289 . S
O110 Ho81 2.381 . S
O110 C99 1.275 . S
O111 Ho80 2.305 . S
O111 Ho81 2.669 . S
O111 C99 1.256 . S
H112 C85 0.930 . S
H113 C86 0.931 . S
H114 C88 0.934 . S
H115 C89 0.930 . S
H116 C94 0.930 . S
H117 C95 0.931 . S
H118 C97 0.934 . S
H119 C98 0.930 . S
H120 C123 0.929 . S
H121 C126 0.929 . S
H122 C128 0.930 . S
C123 H120 0.929 . S
C123 C124 1.398 . S
C123 C125 1.396 1_565 S
C124 C123 1.398 . S
C124 C128 1.407 1_565 S
C125 C123 1.396 1_545 S
C125 C126 1.394 . S
C126 H121 0.929 . S
C126 C125 1.394 . S
C126 C127 1.382 . S
C127 C126 1.382 . S
C127 C128 1.392 . S
C127 N129 1.420 . S
C128 H122 0.930 . S
C128 C124 1.407 1_545 S
C128 C127 1.392 . S
N129 C127 1.420 . S
N129 C130 1.244 . S
C130 N129 1.244 . S
H131 C134 0.929 . S
H132 C137 0.929 . S
H133 C139 0.930 . S
C134 H131 0.929 . S
C134 C135 1.398 . S
C134 C136 1.396 . S
C135 C134 1.398 . S
C135 C139 1.407 . S
C136 C134 1.396 . S
C136 C137 1.394 . S
C137 H132 0.929 . S
C137 C136 1.394 . S
C137 C138 1.382 . S
C138 C137 1.382 . S
C138 C139 1.392 . S
C138 N140 1.420 . S
C139 H133 0.930 . S
C139 C135 1.407 . S
C139 C138 1.392 . S
N140 C138 1.420 . S
N140 C141 1.244 . S
C141 N140 1.244 . S
H142 C145 0.929 . S
H143 C148 0.929 . S
H144 C150 0.930 . S
C145 H142 0.929 . S
C145 C146 1.398 . S
C145 C147 1.396 . S
C146 C145 1.398 . S
C146 C150 1.407 . S
C147 C145 1.396 . S
C147 C148 1.394 . S
C148 H143 0.929 . S
C148 C147 1.394 . S
C148 C149 1.382 . S
C149 C148 1.382 . S
C149 C150 1.392 . S
C149 N151 1.420 . S
C150 H144 0.930 . S
C150 C146 1.407 . S
C150 C149 1.392 . S
N151 C149 1.420 . S
N151 C152 1.244 . S
C152 N151 1.244 . S
H153 C156 0.929 . S
H154 C159 0.929 . S
H155 C161 0.930 . S
C156 H153 0.929 . S
C156 C157 1.398 . S
C156 C158 1.396 . S
C157 C156 1.398 . S
C157 C161 1.407 . S
C158 C156 1.396 . S
C158 C159 1.394 1_455 S
C159 H154 0.929 . S
C159 C158 1.394 1_655 S
C159 C160 1.382 . S
C160 C159 1.382 . S
C160 C161 1.392 1_655 S
C160 N162 1.420 . S
C161 H155 0.930 . S
C161 C157 1.407 . S
C161 C160 1.392 1_455 S
N162 C160 1.420 . S
N162 C163 1.244 . S
C163 N162 1.244 . S
H164 C167 0.929 . S
H165 C170 0.929 1_565 S
H166 C172 0.930 . S
C167 H164 0.929 . S
C167 C168 1.398 . S
C167 C169 1.396 . S
C168 C167 1.398 . S
C168 C172 1.407 . S
C169 C167 1.396 . S
C169 C170 1.394 . S
C170 H165 0.929 1_545 S
C170 C169 1.394 . S
C170 C171 1.382 . S
C171 C170 1.382 . S
C171 C172 1.392 . S
C171 N173 1.420 . S
C172 H166 0.930 . S
C172 C168 1.407 . S
C172 C171 1.392 . S
N173 C171 1.420 . S
N173 C174 1.244 1_545 S
C174 N173 1.244 1_565 S
H175 C178 0.929 . S
H176 C181 0.929 . S
H177 C183 0.930 . S
C178 H175 0.929 . S
C178 C179 1.398 . S
C178 C180 1.396 . S
C179 C178 1.398 . S
C179 C183 1.407 . S
C180 C178 1.396 . S
C180 C181 1.394 . S
C181 H176 0.929 . S
C181 C180 1.394 . S
C181 C182 1.382 . S
C182 C181 1.382 . S
C182 C183 1.392 . S
C182 N184 1.420 . S
C183 H177 0.930 . S
C183 C179 1.407 . S
C183 C182 1.392 . S
N184 C182 1.420 . S
N184 C185 1.244 . S
C185 N184 1.244 . S
C186 C187 1.391 . S
C186 C188 1.394 . S
C186 H202 0.931 . S
C187 C186 1.391 . S
C187 C191 1.376 . S
C188 C186 1.394 . S
C188 C189 1.369 . S
C188 C192 1.531 . S
C189 C188 1.369 . S
C189 C190 1.410 . S
C189 C197 1.503 . S
C190 C189 1.410 . S
C190 C191 1.392 . S
C190 C193 1.511 . S
C191 C187 1.376 . S
C191 C190 1.392 . S
C191 H203 0.929 . S
C192 C188 1.531 . S
C192 H204 0.960 . S
C192 H205 0.962 . S
C192 H206 0.960 . S
C193 C190 1.511 . S
C193 H207 0.961 . S
C193 H208 0.961 . S
C193 H209 0.961 . S
C194 C195 1.370 . S
C194 C196 1.363 . S
C194 H210 0.931 . S
C195 C194 1.370 . S
C195 C199 1.408 . S
C196 C194 1.363 . S
C196 C197 1.370 . S
C196 C200 1.524 . S
C197 C189 1.503 . S
C197 C196 1.370 . S
C197 C198 1.403 . S
C198 C197 1.403 . S
C198 C199 1.404 . S
C198 C201 1.539 . S
C199 C195 1.408 . S
C199 C198 1.404 . S
C199 H211 0.930 . S
C200 C196 1.524 . S
C200 H212 0.956 . S
C200 H213 0.961 . S
C200 H214 0.961 . S
C201 C198 1.539 . S
C201 H215 0.958 . S
C201 H216 0.961 . S
C201 H217 0.960 . S
H202 C186 0.931 . S
H203 C191 0.929 . S
H204 C192 0.960 . S
H205 C192 0.962 . S
H206 C192 0.960 . S
H207 C193 0.961 . S
H208 C193 0.961 . S
H209 C193 0.961 . S
H210 C194 0.931 . S
H211 C199 0.930 . S
H212 C200 0.956 . S
H213 C200 0.961 . S
H214 C200 0.961 . S
H215 C201 0.958 . S
H216 C201 0.961 . S
H217 C201 0.960 . S
C218 C219 1.391 . S
C218 C220 1.394 . S
C218 H234 0.931 . S
C219 C218 1.391 . S
C219 C223 1.376 . S
C220 C218 1.394 . S
C220 C221 1.369 . S
C220 C224 1.531 . S
C221 C220 1.369 . S
C221 C222 1.410 . S
C221 C229 1.503 . S
C222 C221 1.410 . S
C222 C223 1.392 . S
C222 C225 1.511 . S
C223 C219 1.376 . S
C223 C222 1.392 . S
C223 H235 0.929 . S
C224 C220 1.531 . S
C224 H236 0.960 . S
C224 H237 0.962 . S
C224 H238 0.960 . S
C225 C222 1.511 . S
C225 H239 0.961 . S
C225 H240 0.961 . S
C225 H241 0.961 . S
C226 C227 1.370 . S
C226 C228 1.363 . S
C226 H242 0.931 . S
C227 C226 1.370 . S
C227 C231 1.408 . S
C228 C226 1.363 . S
C228 C229 1.370 . S
C228 C232 1.524 . S
C229 C221 1.503 . S
C229 C228 1.370 . S
C229 C230 1.403 . S
C230 C229 1.403 . S
C230 C231 1.404 . S
C230 C233 1.539 . S
C231 C227 1.408 . S
C231 C230 1.404 . S
C231 H243 0.930 . S
C232 C228 1.524 . S
C232 H244 0.956 . S
C232 H245 0.961 . S
C232 H246 0.961 . S
C233 C230 1.539 . S
C233 H247 0.958 . S
C233 H248 0.961 . S
C233 H249 0.960 . S
H234 C218 0.931 . S
H235 C223 0.929 . S
H236 C224 0.960 . S
H237 C224 0.962 . S
H238 C224 0.960 . S
H239 C225 0.961 . S
H240 C225 0.961 . S
H241 C225 0.961 . S
H242 C226 0.931 . S
H243 C231 0.930 . S
H244 C232 0.956 . S
H245 C232 0.961 . S
H246 C232 0.961 . S
H247 C233 0.958 . S
H248 C233 0.961 . S
H249 C233 0.960 . S
C250 C251 1.391 . S
C250 C252 1.394 . S
C250 H266 0.931 . S
C251 C250 1.391 . S
C251 C255 1.376 . S
C252 C250 1.394 . S
C252 C253 1.369 . S
C252 C256 1.531 . S
C253 C252 1.369 . S
C253 C254 1.410 . S
C253 C261 1.503 . S
C254 C253 1.410 . S
C254 C255 1.392 . S
C254 C257 1.511 . S
C255 C251 1.376 . S
C255 C254 1.392 . S
C255 H267 0.929 . S
C256 C252 1.531 . S
C256 H268 0.960 . S
C256 H269 0.962 . S
C256 H270 0.960 . S
C257 C254 1.511 . S
C257 H271 0.961 . S
C257 H272 0.961 . S
C257 H273 0.961 . S
C258 C259 1.370 . S
C258 C260 1.363 . S
C258 H274 0.931 . S
C259 C258 1.370 . S
C259 C263 1.408 . S
C260 C258 1.363 . S
C260 C261 1.370 . S
C260 C264 1.524 . S
C261 C253 1.503 . S
C261 C260 1.370 . S
C261 C262 1.403 . S
C262 C261 1.403 . S
C262 C263 1.404 . S
C262 C265 1.539 . S
C263 C259 1.408 . S
C263 C262 1.404 . S
C263 H275 0.930 . S
C264 C260 1.524 . S
C264 H276 0.956 . S
C264 H277 0.961 . S
C264 H278 0.961 . S
C265 C262 1.539 . S
C265 H279 0.958 . S
C265 H280 0.961 . S
C265 H281 0.960 . S
H266 C250 0.931 . S
H267 C255 0.929 . S
H268 C256 0.960 . S
H269 C256 0.962 . S
H270 C256 0.960 . S
H271 C257 0.961 . S
H272 C257 0.961 . S
H273 C257 0.961 . S
H274 C258 0.931 . S
H275 C263 0.930 . S
H276 C264 0.956 . S
H277 C264 0.961 . S
H278 C264 0.961 . S
H279 C265 0.958 . S
H280 C265 0.961 . S
H281 C265 0.960 . S
C282 C283 1.391 . S
C282 C284 1.394 . S
C282 H298 0.931 . S
C283 C282 1.391 . S
C283 C287 1.376 . S
C284 C282 1.394 . S
C284 C285 1.369 . S
C284 C288 1.531 . S
C285 C284 1.369 . S
C285 C286 1.410 . S
C285 C293 1.503 . S
C286 C285 1.410 . S
C286 C287 1.392 . S
C286 C289 1.511 . S
C287 C283 1.376 . S
C287 C286 1.392 . S
C287 H299 0.929 . S
C288 C284 1.531 . S
C288 H300 0.960 . S
C288 H301 0.962 . S
C288 H302 0.960 . S
C289 C286 1.511 . S
C289 H303 0.961 . S
C289 H304 0.961 . S
C289 H305 0.961 . S
C290 C291 1.370 . S
C290 C292 1.363 . S
C290 H306 0.931 . S
C291 C290 1.370 . S
C291 C295 1.408 . S
C292 C290 1.363 . S
C292 C293 1.370 . S
C292 C296 1.524 . S
C293 C285 1.503 . S
C293 C292 1.370 . S
C293 C294 1.403 . S
C294 C293 1.403 . S
C294 C295 1.404 . S
C294 C297 1.539 . S
C295 C291 1.408 . S
C295 C294 1.404 . S
C295 H307 0.930 . S
C296 C292 1.524 . S
C296 H308 0.956 . S
C296 H309 0.961 . S
C296 H310 0.961 . S
C297 C294 1.539 . S
C297 H311 0.958 . S
C297 H312 0.961 . S
C297 H313 0.960 . S
H298 C282 0.931 . S
H299 C287 0.929 . S
H300 C288 0.960 . S
H301 C288 0.962 . S
H302 C288 0.960 . S
H303 C289 0.961 . S
H304 C289 0.961 . S
H305 C289 0.961 . S
H306 C290 0.931 . S
H307 C295 0.930 . S
H308 C296 0.956 . S
H309 C296 0.961 . S
H310 C296 0.961 . S
H311 C297 0.958 . S
H312 C297 0.961 . S
H313 C297 0.960 . S
C314 C315 1.391 . S
C314 C316 1.394 . S
C314 H330 0.931 . S
C315 C314 1.391 . S
C315 C319 1.376 . S
C316 C314 1.394 . S
C316 C317 1.369 . S
C316 C320 1.531 . S
C317 C316 1.369 . S
C317 C318 1.410 . S
C317 C325 1.503 . S
C318 C317 1.410 . S
C318 C319 1.392 . S
C318 C321 1.511 . S
C319 C315 1.376 . S
C319 C318 1.392 . S
C319 H331 0.929 . S
C320 C316 1.531 . S
C320 H332 0.960 . S
C320 H333 0.962 . S
C320 H334 0.960 . S
C321 C318 1.511 . S
C321 H335 0.961 . S
C321 H336 0.961 . S
C321 H337 0.961 . S
C322 C323 1.370 . S
C322 C324 1.363 . S
C322 H338 0.931 . S
C323 C322 1.370 . S
C323 C327 1.408 . S
C324 C322 1.363 . S
C324 C325 1.370 . S
C324 C328 1.524 . S
C325 C317 1.503 . S
C325 C324 1.370 . S
C325 C326 1.403 . S
C326 C325 1.403 . S
C326 C327 1.404 . S
C326 C329 1.539 . S
C327 C323 1.408 . S
C327 C326 1.404 . S
C327 H339 0.930 . S
C328 C324 1.524 . S
C328 H340 0.956 . S
C328 H341 0.961 . S
C328 H342 0.961 . S
C329 C326 1.539 . S
C329 H343 0.958 . S
C329 H344 0.961 . S
C329 H345 0.960 . S
H330 C314 0.931 . S
H331 C319 0.929 . S
H332 C320 0.960 . S
H333 C320 0.962 . S
H334 C320 0.960 . S
H335 C321 0.961 . S
H336 C321 0.961 . S
H337 C321 0.961 . S
H338 C322 0.931 . S
H339 C327 0.930 . S
H340 C328 0.956 . S
H341 C328 0.961 . S
H342 C328 0.961 . S
H343 C329 0.958 . S
H344 C329 0.961 . S
H345 C329 0.960 . S
C346 C347 1.391 . S
C346 C348 1.394 . S
C346 H362 0.931 . S
C347 C346 1.391 . S
C347 C351 1.376 . S
C348 C346 1.394 . S
C348 C349 1.369 . S
C348 C352 1.531 . S
C349 C348 1.369 . S
C349 C350 1.410 . S
C349 C357 1.503 . S
C350 C349 1.410 . S
C350 C351 1.392 . S
C350 C353 1.511 . S
C351 C347 1.376 . S
C351 C350 1.392 . S
C351 H363 0.929 . S
C352 C348 1.531 . S
C352 H364 0.960 . S
C352 H365 0.962 . S
C352 H366 0.960 . S
C353 C350 1.511 . S
C353 H367 0.961 . S
C353 H368 0.961 . S
C353 H369 0.961 . S
C354 C355 1.370 . S
C354 C356 1.363 . S
C354 H370 0.931 . S
C355 C354 1.370 . S
C355 C359 1.408 . S
C356 C354 1.363 . S
C356 C357 1.370 . S
C356 C360 1.524 . S
C357 C349 1.503 . S
C357 C356 1.370 . S
C357 C358 1.403 . S
C358 C357 1.403 . S
C358 C359 1.404 . S
C358 C361 1.539 . S
C359 C355 1.408 . S
C359 C358 1.404 . S
C359 H371 0.930 . S
C360 C356 1.524 . S
C360 H372 0.956 . S
C360 H373 0.961 . S
C360 H374 0.961 . S
C361 C358 1.539 . S
C361 H375 0.958 . S
C361 H376 0.961 . S
C361 H377 0.960 . S
H362 C346 0.931 . S
H363 C351 0.929 . S
H364 C352 0.960 . S
H365 C352 0.962 . S
H366 C352 0.960 . S
H367 C353 0.961 . S
H368 C353 0.961 . S
H369 C353 0.961 . S
H370 C354 0.931 . S
H371 C359 0.930 . S
H372 C360 0.956 . S
H373 C360 0.961 . S
H374 C360 0.961 . S
H375 C361 0.958 . S
H376 C361 0.961 . S
H377 C361 0.960 . S
C378 C379 1.391 . S
C378 C380 1.394 . S
C378 H394 0.931 . S
C379 C378 1.391 . S
C379 C383 1.376 . S
C380 C378 1.394 . S
C380 C381 1.369 . S
C380 C384 1.531 . S
C381 C380 1.369 . S
C381 C382 1.410 . S
C381 C389 1.503 . S
C382 C381 1.410 . S
C382 C383 1.392 . S
C382 C385 1.511 . S
C383 C379 1.376 . S
C383 C382 1.392 . S
C383 H395 0.929 . S
C384 C380 1.531 . S
C384 H396 0.960 . S
C384 H397 0.962 . S
C384 H398 0.960 . S
C385 C382 1.511 . S
C385 H399 0.961 . S
C385 H400 0.961 . S
C385 H401 0.961 . S
C386 C387 1.370 . S
C386 C388 1.363 . S
C386 H402 0.931 . S
C387 C386 1.370 . S
C387 C391 1.408 . S
C388 C386 1.363 . S
C388 C389 1.370 . S
C388 C392 1.524 . S
C389 C381 1.503 . S
C389 C388 1.370 . S
C389 C390 1.403 . S
C390 C389 1.403 . S
C390 C391 1.404 . S
C390 C393 1.539 . S
C391 C387 1.408 . S
C391 C390 1.404 . S
C391 H403 0.930 . S
C392 C388 1.524 . S
C392 H404 0.956 . S
C392 H405 0.961 . S
C392 H406 0.961 . S
C393 C390 1.539 . S
C393 H407 0.958 . S
C393 H408 0.961 . S
C393 H409 0.960 . S
H394 C378 0.931 . S
H395 C383 0.929 . S
H396 C384 0.960 . S
H397 C384 0.962 . S
H398 C384 0.960 . S
H399 C385 0.961 . S
H400 C385 0.961 . S
H401 C385 0.961 . S
H402 C386 0.931 . S
H403 C391 0.930 . S
H404 C392 0.956 . S
H405 C392 0.961 . S
H406 C392 0.961 . S
H407 C393 0.958 . S
H408 C393 0.961 . S
H409 C393 0.960 . S
C410 C411 1.391 . S
C410 C412 1.394 . S
C410 H426 0.931 . S
C411 C410 1.391 . S
C411 C415 1.376 . S
C412 C410 1.394 . S
C412 C413 1.369 . S
C412 C416 1.531 . S
C413 C412 1.369 . S
C413 C414 1.410 . S
C413 C421 1.503 . S
C414 C413 1.410 . S
C414 C415 1.392 . S
C414 C417 1.511 . S
C415 C411 1.376 . S
C415 C414 1.392 . S
C415 H427 0.929 . S
C416 C412 1.531 . S
C416 H428 0.960 . S
C416 H429 0.962 . S
C416 H430 0.960 . S
C417 C414 1.511 . S
C417 H431 0.961 . S
C417 H432 0.961 . S
C417 H433 0.961 . S
C418 C419 1.370 . S
C418 C420 1.363 . S
C418 H434 0.931 . S
C419 C418 1.370 . S
C419 C423 1.408 . S
C420 C418 1.363 . S
C420 C421 1.370 . S
C420 C424 1.524 . S
C421 C413 1.503 . S
C421 C420 1.370 . S
C421 C422 1.403 . S
C422 C421 1.403 . S
C422 C423 1.404 . S
C422 C425 1.539 . S
C423 C419 1.408 . S
C423 C422 1.404 . S
C423 H435 0.930 . S
C424 C420 1.524 . S
C424 H436 0.956 . S
C424 H437 0.961 . S
C424 H438 0.961 . S
C425 C422 1.539 . S
C425 H439 0.958 . S
C425 H440 0.961 . S
C425 H441 0.960 . S
H426 C410 0.931 . S
H427 C415 0.929 . S
H428 C416 0.960 . S
H429 C416 0.962 . S
H430 C416 0.960 . S
H431 C417 0.961 . S
H432 C417 0.961 . S
H433 C417 0.961 . S
H434 C418 0.931 . S
H435 C423 0.930 . S
H436 C424 0.956 . S
H437 C424 0.961 . S
H438 C424 0.961 . S
H439 C425 0.958 . S
H440 C425 0.961 . S
H441 C425 0.960 . S
C442 C443 1.391 . S
C442 C444 1.394 . S
C442 H458 0.931 . S
C443 C442 1.391 . S
C443 C447 1.376 . S
C444 C442 1.394 . S
C444 C445 1.369 . S
C444 C448 1.531 . S
C445 C444 1.369 . S
C445 C446 1.410 . S
C445 C453 1.503 . S
C446 C445 1.410 . S
C446 C447 1.392 . S
C446 C449 1.511 . S
C447 C443 1.376 . S
C447 C446 1.392 . S
C447 H459 0.929 . S
C448 C444 1.531 . S
C448 H460 0.960 . S
C448 H461 0.962 . S
C448 H462 0.960 . S
C449 C446 1.511 . S
C449 H463 0.961 . S
C449 H464 0.961 . S
C449 H465 0.961 . S
C450 C451 1.370 . S
C450 C452 1.363 . S
C450 H466 0.931 . S
C451 C450 1.370 . S
C451 C455 1.408 . S
C452 C450 1.363 . S
C452 C453 1.370 . S
C452 C456 1.524 . S
C453 C445 1.503 . S
C453 C452 1.370 . S
C453 C454 1.403 . S
C454 C453 1.403 . S
C454 C455 1.404 . S
C454 C457 1.539 . S
C455 C451 1.408 . S
C455 C454 1.404 . S
C455 H467 0.930 . S
C456 C452 1.524 . S
C456 H468 0.956 . S
C456 H469 0.961 . S
C456 H470 0.961 . S
C457 C454 1.539 . S
C457 H471 0.958 . S
C457 H472 0.961 . S
C457 H473 0.960 . S
H458 C442 0.931 . S
H459 C447 0.929 . S
H460 C448 0.960 . S
H461 C448 0.962 . S
H462 C448 0.960 . S
H463 C449 0.961 . S
H464 C449 0.961 . S
H465 C449 0.961 . S
H466 C450 0.931 . S
H467 C455 0.930 . S
H468 C456 0.956 . S
H469 C456 0.961 . S
H470 C456 0.961 . S
H471 C457 0.958 . S
H472 C457 0.961 . S
H473 C457 0.960 . S
C474 C475 1.391 . S
C474 C476 1.394 . S
C474 H490 0.931 . S
C475 C474 1.391 . S
C475 C479 1.376 . S
C476 C474 1.394 . S
C476 C477 1.369 . S
C476 C480 1.531 . S
C477 C476 1.369 . S
C477 C478 1.410 . S
C477 C485 1.503 . S
C478 C477 1.410 . S
C478 C479 1.392 . S
C478 C481 1.511 . S
C479 C475 1.376 . S
C479 C478 1.392 . S
C479 H491 0.929 . S
C480 C476 1.531 . S
C480 H492 0.960 . S
C480 H493 0.962 . S
C480 H494 0.960 . S
C481 C478 1.511 . S
C481 H495 0.961 . S
C481 H496 0.961 . S
C481 H497 0.961 . S
C482 C483 1.370 . S
C482 C484 1.363 . S
C482 H498 0.931 . S
C483 C482 1.370 . S
C483 C487 1.408 . S
C484 C482 1.363 . S
C484 C485 1.370 . S
C484 C488 1.524 . S
C485 C477 1.503 . S
C485 C484 1.370 . S
C485 C486 1.403 . S
C486 C485 1.403 . S
C486 C487 1.404 . S
C486 C489 1.539 . S
C487 C483 1.408 . S
C487 C486 1.404 . S
C487 H499 0.930 . S
C488 C484 1.524 . S
C488 H500 0.956 . S
C488 H501 0.961 . S
C488 H502 0.961 . S
C489 C486 1.539 . S
C489 H503 0.958 . S
C489 H504 0.961 . S
C489 H505 0.960 . S
H490 C474 0.931 . S
H491 C479 0.929 . S
H492 C480 0.960 . S
H493 C480 0.962 . S
H494 C480 0.960 . S
H495 C481 0.961 . S
H496 C481 0.961 . S
H497 C481 0.961 . S
H498 C482 0.931 . S
H499 C487 0.930 . S
H500 C488 0.956 . S
H501 C488 0.961 . S
H502 C488 0.961 . S
H503 C489 0.958 . S
H504 C489 0.961 . S
H505 C489 0.960 . S
C506 C507 1.391 . S
C506 C508 1.394 . S
C506 H522 0.931 . S
C507 C506 1.391 . S
C507 C511 1.376 . S
C508 C506 1.394 . S
C508 C509 1.369 . S
C508 C512 1.531 . S
C509 C508 1.369 . S
C509 C510 1.410 . S
C509 C517 1.503 . S
C510 C509 1.410 . S
C510 C511 1.392 . S
C510 C513 1.511 . S
C511 C507 1.376 . S
C511 C510 1.392 . S
C511 H523 0.929 . S
C512 C508 1.531 . S
C512 H524 0.960 . S
C512 H525 0.962 . S
C512 H526 0.960 . S
C513 C510 1.511 . S
C513 H527 0.961 . S
C513 H528 0.961 . S
C513 H529 0.961 . S
C514 C515 1.370 . S
C514 C516 1.363 . S
C514 H530 0.931 . S
C515 C514 1.370 . S
C515 C519 1.408 . S
C516 C514 1.363 . S
C516 C517 1.370 . S
C516 C520 1.524 . S
C517 C509 1.503 . S
C517 C516 1.370 . S
C517 C518 1.403 . S
C518 C517 1.403 . S
C518 C519 1.404 . S
C518 C521 1.539 . S
C519 C515 1.408 . S
C519 C518 1.404 . S
C519 H531 0.930 . S
C520 C516 1.524 . S
C520 H532 0.956 . S
C520 H533 0.961 . S
C520 H534 0.961 . S
C521 C518 1.539 . S
C521 H535 0.958 . S
C521 H536 0.961 . S
C521 H537 0.960 . S
H522 C506 0.931 . S
H523 C511 0.929 . S
H524 C512 0.960 . S
H525 C512 0.962 . S
H526 C512 0.960 . S
H527 C513 0.961 . S
H528 C513 0.961 . S
H529 C513 0.961 . S
H530 C514 0.931 . S
H531 C519 0.930 . S
H532 C520 0.956 . S
H533 C520 0.961 . S
H534 C520 0.961 . S
H535 C521 0.958 . S
H536 C521 0.961 . S
H537 C521 0.960 . S
C538 C539 1.391 . S
C538 C540 1.394 . S
C538 H554 0.931 . S
C539 C538 1.391 . S
C539 C543 1.376 . S
C540 C538 1.394 . S
C540 C541 1.369 . S
C540 C544 1.531 . S
C541 C540 1.369 . S
C541 C542 1.410 . S
C541 C549 1.503 . S
C542 C541 1.410 . S
C542 C543 1.392 . S
C542 C545 1.511 . S
C543 C539 1.376 . S
C543 C542 1.392 . S
C543 H555 0.929 . S
C544 C540 1.531 . S
C544 H556 0.960 . S
C544 H557 0.962 . S
C544 H558 0.960 . S
C545 C542 1.511 . S
C545 H559 0.961 . S
C545 H560 0.961 . S
C545 H561 0.961 . S
C546 C547 1.370 . S
C546 C548 1.363 . S
C546 H562 0.931 . S
C547 C546 1.370 . S
C547 C551 1.408 . S
C548 C546 1.363 . S
C548 C549 1.370 . S
C548 C552 1.524 . S
C549 C541 1.503 . S
C549 C548 1.370 . S
C549 C550 1.403 . S
C550 C549 1.403 . S
C550 C551 1.404 . S
C550 C553 1.539 . S
C551 C547 1.408 . S
C551 C550 1.404 . S
C551 H563 0.930 . S
C552 C548 1.524 . S
C552 H564 0.956 . S
C552 H565 0.961 . S
C552 H566 0.961 . S
C553 C550 1.539 . S
C553 H567 0.958 . S
C553 H568 0.961 . S
C553 H569 0.960 . S
H554 C538 0.931 . S
H555 C543 0.929 . S
H556 C544 0.960 . S
H557 C544 0.962 . S
H558 C544 0.960 . S
H559 C545 0.961 . S
H560 C545 0.961 . S
H561 C545 0.961 . S
H562 C546 0.931 . S
H563 C551 0.930 . S
H564 C552 0.956 . S
H565 C552 0.961 . S
H566 C552 0.961 . S
H567 C553 0.958 . S
H568 C553 0.961 . S
H569 C553 0.960 . S
C570 C571 1.391 . S
C570 C572 1.394 . S
C570 H586 0.931 . S
C571 C570 1.391 . S
C571 C575 1.376 . S
C572 C570 1.394 . S
C572 C573 1.369 . S
C572 C576 1.531 . S
C573 C572 1.369 . S
C573 C574 1.410 . S
C573 C581 1.503 1_554 S
C574 C573 1.410 . S
C574 C575 1.392 . S
C574 C577 1.511 . S
C575 C571 1.376 . S
C575 C574 1.392 . S
C575 H587 0.929 . S
C576 C572 1.531 . S
C576 H588 0.960 . S
C576 H589 0.962 1_455 S
C576 H590 0.960 . S
C577 C574 1.511 . S
C577 H591 0.961 . S
C577 H592 0.961 . S
C577 H593 0.961 . S
C578 C579 1.370 . S
C578 C580 1.363 . S
C578 H594 0.931 1_455 S
C579 C578 1.370 . S
C579 C583 1.408 . S
C580 C578 1.363 . S
C580 C581 1.370 . S
C580 C584 1.524 1_455 S
C581 C573 1.503 1_556 S
C581 C580 1.370 . S
C581 C582 1.403 . S
C582 C581 1.403 . S
C582 C583 1.404 . S
C582 C585 1.539 1_556 S
C583 C579 1.408 . S
C583 C582 1.404 . S
C583 H595 0.930 . S
C584 C580 1.524 1_655 S
C584 H596 0.943 1_556 S
C584 H597 0.961 1_556 S
C584 H598 0.961 . S
C585 C582 1.539 1_554 S
C585 H599 0.958 . S
C585 H600 0.961 1_554 S
C585 H601 0.960 . S
H586 C570 0.931 . S
H587 C575 0.929 . S
H588 C576 0.960 . S
H589 C576 0.962 1_655 S
H590 C576 0.960 . S
H591 C577 0.961 . S
H592 C577 0.961 . S
H593 C577 0.961 . S
H594 C578 0.931 1_655 S
H595 C583 0.930 . S
H596 C584 0.943 1_554 S
H597 C584 0.961 1_554 S
H598 C584 0.961 . S
H599 C585 0.958 . S
H600 C585 0.961 1_556 S
H601 C585 0.960 . S
C602 C603 1.391 . S
C602 C604 1.394 . S
C602 H618 0.931 . S
C603 C602 1.391 . S
C603 C607 1.376 . S
C604 C602 1.394 . S
C604 C605 1.369 . S
C604 C608 1.531 . S
C605 C604 1.369 . S
C605 C606 1.410 . S
C605 C613 1.503 . S
C606 C605 1.410 . S
C606 C607 1.392 . S
C606 C609 1.511 . S
C607 C603 1.376 . S
C607 C606 1.392 . S
C607 H619 0.929 . S
C608 C604 1.531 . S
C608 H620 0.960 . S
C608 H621 0.962 . S
C608 H622 0.960 . S
C609 C606 1.511 . S
C609 H623 0.961 . S
C609 H624 0.961 . S
C609 H625 0.961 . S
C610 C611 1.370 . S
C610 C612 1.363 . S
C610 H626 0.931 1_545 S
C611 C610 1.370 . S
C611 C615 1.408 . S
C612 C610 1.363 . S
C612 C613 1.370 . S
C612 C616 1.524 1_545 S
C613 C605 1.503 . S
C613 C612 1.370 . S
C613 C614 1.403 . S
C614 C613 1.403 . S
C614 C615 1.404 . S
C614 C617 1.539 . S
C615 C611 1.408 . S
C615 C614 1.404 . S
C615 H627 0.930 . S
C616 C612 1.524 1_565 S
C616 H628 0.956 . S
C616 H629 0.961 . S
C616 H630 0.961 . S
C617 C614 1.539 . S
C617 H631 0.958 . S
C617 H632 0.961 . S
C617 H633 0.960 . S
H618 C602 0.931 . S
H619 C607 0.929 . S
H620 C608 0.960 . S
H621 C608 0.962 . S
H622 C608 0.960 . S
H623 C609 0.961 . S
H624 C609 0.961 . S
H625 C609 0.961 . S
H626 C610 0.931 1_565 S
H627 C615 0.930 . S
H628 C616 0.956 . S
H629 C616 0.961 . S
H630 C616 0.961 . S
H631 C617 0.958 . S
H632 C617 0.961 . S
H633 C617 0.960 . S
C634 C635 1.391 . S
C634 C636 1.394 . S
C634 H650 0.931 . S
C635 C634 1.391 . S
C635 C639 1.376 . S
C636 C634 1.394 . S
C636 C637 1.369 . S
C636 C640 1.531 . S
C637 C636 1.369 . S
C637 C638 1.410 . S
C637 C645 1.503 . S
C638 C637 1.410 . S
C638 C639 1.392 . S
C638 C641 1.511 . S
C639 C635 1.376 . S
C639 C638 1.392 . S
C639 H651 0.929 . S
C640 C636 1.531 . S
C640 H652 0.960 . S
C640 H653 0.962 . S
C640 H654 0.960 . S
C641 C638 1.511 . S
C641 H655 0.961 . S
C641 H656 0.961 . S
C641 H657 0.961 . S
C642 C643 1.370 . S
C642 C644 1.363 . S
C642 H658 0.931 . S
C643 C642 1.370 . S
C643 C647 1.408 . S
C644 C642 1.363 . S
C644 C645 1.370 . S
C644 C648 1.524 . S
C645 C637 1.503 . S
C645 C644 1.370 . S
C645 C646 1.403 . S
C646 C645 1.403 . S
C646 C647 1.404 . S
C646 C649 1.539 . S
C647 C643 1.408 . S
C647 C646 1.404 . S
C647 H659 0.930 . S
C648 C644 1.524 . S
C648 H660 0.956 . S
C648 H661 0.961 . S
C648 H662 0.961 . S
C649 C646 1.539 . S
C649 H663 0.958 . S
C649 H664 0.961 . S
C649 H665 0.960 . S
H650 C634 0.931 . S
H651 C639 0.929 . S
H652 C640 0.960 . S
H653 C640 0.962 . S
H654 C640 0.960 . S
H655 C641 0.961 . S
H656 C641 0.961 . S
H657 C641 0.961 . S
H658 C642 0.931 . S
H659 C647 0.930 . S
H660 C648 0.956 . S
H661 C648 0.961 . S
H662 C648 0.961 . S
H663 C649 0.958 . S
H664 C649 0.961 . S
H665 C649 0.960 . S
C666 C667 1.391 . S
C666 C668 1.394 . S
C666 H682 0.931 . S
C667 C666 1.391 . S
C667 C671 1.376 . S
C668 C666 1.394 . S
C668 C669 1.369 . S
C668 C672 1.531 . S
C669 C668 1.369 . S
C669 C670 1.410 . S
C669 C677 1.503 . S
C670 C669 1.410 . S
C670 C671 1.392 . S
C670 C673 1.511 1_545 S
C671 C667 1.376 . S
C671 C670 1.392 . S
C671 H683 0.929 1_545 S
C672 C668 1.531 . S
C672 H684 0.960 . S
C672 H685 0.962 . S
C672 H686 0.960 . S
C673 C670 1.511 1_565 S
C673 H687 0.961 . S
C673 H688 0.961 . S
C673 H689 0.961 . S
C674 C675 1.370 . S
C674 C676 1.363 . S
C674 H690 0.931 1_545 S
C675 C674 1.370 . S
C675 C679 1.408 . S
C676 C674 1.363 . S
C676 C677 1.370 . S
C676 C680 1.524 1_545 S
C677 C669 1.503 . S
C677 C676 1.370 . S
C677 C678 1.403 . S
C678 C677 1.403 . S
C678 C679 1.404 . S
C678 C681 1.539 . S
C679 C675 1.408 . S
C679 C678 1.404 . S
C679 H691 0.930 . S
C680 C676 1.524 1_565 S
C680 H692 0.956 1_565 S
C680 H693 0.961 . S
C680 H694 0.961 . S
C681 C678 1.539 . S
C681 H695 0.958 . S
C681 H696 0.961 . S
C681 H697 0.960 . S
H682 C666 0.931 . S
H683 C671 0.929 1_565 S
H684 C672 0.960 . S
H685 C672 0.962 . S
H686 C672 0.960 . S
H687 C673 0.961 . S
H688 C673 0.961 . S
H689 C673 0.961 . S
H690 C674 0.931 1_565 S
H691 C679 0.930 . S
H692 C680 0.956 1_545 S
H693 C680 0.961 . S
H694 C680 0.961 . S
H695 C681 0.958 . S
H696 C681 0.961 . S
H697 C681 0.960 . S
C698 C699 1.391 . S
C698 C700 1.394 . S
C698 H714 0.931 . S
C699 C698 1.391 . S
C699 C703 1.376 . S
C700 C698 1.394 . S
C700 C701 1.369 . S
C700 C704 1.531 . S
C701 C700 1.369 . S
C701 C702 1.410 . S
C701 C709 1.503 . S
C702 C701 1.410 . S
C702 C703 1.392 . S
C702 C705 1.511 . S
C703 C699 1.376 . S
C703 C702 1.392 . S
C703 H715 0.929 . S
C704 C700 1.531 . S
C704 H716 0.960 . S
C704 H717 0.962 . S
C704 H718 0.960 . S
C705 C702 1.511 . S
C705 H719 0.961 . S
C705 H720 0.961 . S
C705 H721 0.961 . S
C706 C707 1.370 . S
C706 C708 1.363 1_554 S
C706 H722 0.931 . S
C707 C706 1.370 . S
C707 C711 1.408 . S
C708 C706 1.363 1_556 S
C708 C709 1.370 . S
C708 C712 1.524 . S
C709 C701 1.503 . S
C709 C708 1.370 . S
C709 C710 1.403 1_556 S
C710 C709 1.403 1_554 S
C710 C711 1.404 . S
C710 C713 1.539 . S
C711 C707 1.408 . S
C711 C710 1.404 . S
C711 H723 0.930 . S
C712 C708 1.524 . S
C712 H724 0.956 . S
C712 H725 0.961 . S
C712 H726 0.961 . S
C713 C710 1.539 . S
C713 H727 0.958 . S
C713 H728 0.961 . S
C713 H729 0.960 1_554 S
H714 C698 0.931 . S
H715 C703 0.929 . S
H716 C704 0.960 . S
H717 C704 0.962 . S
H718 C704 0.960 . S
H719 C705 0.961 . S
H720 C705 0.961 . S
H721 C705 0.961 . S
H722 C706 0.931 . S
H723 C711 0.930 . S
H724 C712 0.956 . S
H725 C712 0.961 . S
H726 C712 0.961 . S
H727 C713 0.958 . S
H728 C713 0.961 . S
H729 C713 0.960 1_556 S
C730 C731 1.391 1_655 S
C730 C732 1.394 . S
C730 H746 0.931 . S
C731 C730 1.391 1_455 S
C731 C735 1.376 . S
C732 C730 1.394 . S
C732 C733 1.369 1_655 S
C732 C736 1.531 . S
C733 C732 1.369 1_455 S
C733 C734 1.410 . S
C733 C741 1.503 . S
C734 C733 1.410 . S
C734 C735 1.392 . S
C734 C737 1.511 . S
C735 C731 1.376 . S
C735 C734 1.392 . S
C735 H747 0.929 . S
C736 C732 1.531 . S
C736 H748 0.960 . S
C736 H749 0.962 . S
C736 H750 0.960 . S
C737 C734 1.511 . S
C737 H751 0.961 . S
C737 H752 0.961 . S
C737 H753 0.961 . S
C738 C739 1.370 . S
C738 C740 1.363 . S
C738 H754 0.931 . S
C739 C738 1.370 . S
C739 C743 1.408 . S
C740 C738 1.363 . S
C740 C741 1.370 . S
C740 C744 1.524 . S
C741 C733 1.503 . S
C741 C740 1.370 . S
C741 C742 1.403 . S
C742 C741 1.403 . S
C742 C743 1.404 . S
C742 C745 1.539 . S
C743 C739 1.408 . S
C743 C742 1.404 . S
C743 H755 0.930 . S
C744 C740 1.524 . S
C744 H756 0.956 . S
C744 H757 0.961 . S
C744 H758 0.961 . S
C745 C742 1.539 . S
C745 H759 0.958 1_455 S
C745 H760 0.961 . S
C745 H761 0.960 . S
H746 C730 0.931 . S
H747 C735 0.929 . S
H748 C736 0.960 . S
H749 C736 0.962 . S
H750 C736 0.960 . S
H751 C737 0.961 . S
H752 C737 0.961 . S
H753 C737 0.961 . S
H754 C738 0.931 . S
H755 C743 0.930 . S
H756 C744 0.956 . S
H757 C744 0.961 . S
H758 C744 0.961 . S
H759 C745 0.958 1_655 S
H760 C745 0.961 . S
H761 C745 0.960 . S
C187 C7 0.706 . S
C195 C185 0.734 . S
C219 C51 1.944 . S
C227 C163 1.904 . S
C251 C87 1.260 . S
C259 C174 1.279 . S
C283 C16 0.403 . S
C291 C179 0.220 . S
C323 C157 1.856 . S
C315 C42 1.882 . S
C355 C168 1.161 . S
C347 C96 1.150 . S
C379 C47 1.280 . S
C387 C141 1.295 . S
C411 C91 3.029 . S
C419 C146 3.002 1_655 S
C443 C2 1.878 . S
C451 C124 1.871 . S
C483 C135 1.168 . S
C475 C56 1.176 . S
C515 C152 2.998 . S
C507 C82 3.030 . S
C539 C11 1.958 . S
C547 C130 1.906 . S
C579 C147 1.732 . S
C571 C19 1.695 . S
C603 C50 1.413 . S
C611 C125 1.474 . S
C635 C99 1.524 . S
C643 C136 1.546 . S
C675 C169 1.513 . S
C667 C59 1.488 . S
C707 C180 1.265 . S
C699 C90 1.214 . S
C731 C10 1.363 . S
C739 C158 1.436 . S
