# Generated by pormake.
# Topology anh, (6,3)-cn, num edge types: 1
# Building blocks:
#     Node 0, Type 0, BuildingBlock: NUHQIS_clean_sbu_0, # of connection points: 6
#     Node 1, Type 0, BuildingBlock: NUHQIS_clean_sbu_0, # of connection points: 6
#     Node 2, Type 0, BuildingBlock: NUHQIS_clean_sbu_0, # of connection points: 6
#     Node 3, Type 1, BuildingBlock: BELTOD_clean_linker_0, # of connection points: 3
#     Node 4, Type 1, BuildingBlock: BELTOD_clean_linker_0, # of connection points: 3
#     Node 5, Type 1, BuildingBlock: BELTOD_clean_linker_0, # of connection points: 3
#     Node 6, Type 1, BuildingBlock: BELTOD_clean_linker_0, # of connection points: 3
#     Node 7, Type 1, BuildingBlock: BELTOD_clean_linker_0, # of connection points: 3
#     Node 8, Type 1, BuildingBlock: BELTOD_clean_linker_0, # of connection points: 3
#     Edge 9, Type (0, 1), BuildingBlock: ZUJKAS_clean_linker_0, # of connection points: 2
#     Edge 10, Type (0, 1), BuildingBlock: ZUJKAS_clean_linker_0, # of connection points: 2
#     Edge 11, Type (0, 1), BuildingBlock: ZUJKAS_clean_linker_0, # of connection points: 2
#     Edge 12, Type (0, 1), BuildingBlock: ZUJKAS_clean_linker_0, # of connection points: 2
#     Edge 13, Type (0, 1), BuildingBlock: ZUJKAS_clean_linker_0, # of connection points: 2
#     Edge 14, Type (0, 1), BuildingBlock: ZUJKAS_clean_linker_0, # of connection points: 2
#     Edge 15, Type (0, 1), BuildingBlock: ZUJKAS_clean_linker_0, # of connection points: 2
#     Edge 16, Type (0, 1), BuildingBlock: ZUJKAS_clean_linker_0, # of connection points: 2
#     Edge 17, Type (0, 1), BuildingBlock: ZUJKAS_clean_linker_0, # of connection points: 2
#     Edge 18, Type (0, 1), BuildingBlock: ZUJKAS_clean_linker_0, # of connection points: 2
#     Edge 19, Type (0, 1), BuildingBlock: ZUJKAS_clean_linker_0, # of connection points: 2
#     Edge 20, Type (0, 1), BuildingBlock: ZUJKAS_clean_linker_0, # of connection points: 2
#     Edge 21, Type (0, 1), BuildingBlock: ZUJKAS_clean_linker_0, # of connection points: 2
#     Edge 22, Type (0, 1), BuildingBlock: ZUJKAS_clean_linker_0, # of connection points: 2
#     Edge 23, Type (0, 1), BuildingBlock: ZUJKAS_clean_linker_0, # of connection points: 2
#     Edge 24, Type (0, 1), BuildingBlock: ZUJKAS_clean_linker_0, # of connection points: 2
#     Edge 25, Type (0, 1), BuildingBlock: ZUJKAS_clean_linker_0, # of connection points: 2
#     Edge 26, Type (0, 1), BuildingBlock: ZUJKAS_clean_linker_0, # of connection points: 2
# Relax obj value: 0.200
# Max RMSD: 0.178
# Mean RMSD: 0.141
data_MOF--net-anh--node1-NUHQIS_clean_sbu_0--node2-BELTOD_clean_linker_0--edge1-ZUJKAS_clean_linker_0
_symmetry_space_group_name_H-M    P1
_symmetry_Int_Tables_number       1
_symmetry_cell_setting            triclinic
loop_
_symmetry_equiv_pos_as_xyz
'x, y, z'
_cell_length_a     43.07579
_cell_length_b     43.078447
_cell_length_c     76.521428
_cell_angle_alpha  89.622453
_cell_angle_beta   93.598758
_cell_angle_gamma 120.04213
loop_
_atom_site_label
_atom_site_type_symbol
_atom_site_fract_x
_atom_site_fract_y
_atom_site_fract_z
_atom_type_partial_charge
Tb0 Tb 0.11768 0.57791 0.15974 0.0
Eu1 Eu 0.07512 0.62236 0.16199 0.0
C2 C 0.1048 0.59968 0.19566 0.0
C3 C 1.03236 0.53547 0.16299 0.0
C4 C 0.18723 0.55059 0.16525 0.0
C5 C 0.223 0.53458 0.18509 0.0
C6 C 0.18997 0.5313 0.17956 0.0
C7 C 0.21844 0.57419 0.15695 0.0
C8 C 0.25144 0.57732 0.16242 0.0
C9 C 0.25394 0.55693 0.17629 0.0
C10 C 0.15158 0.54444 0.15866 0.0
O11 O 0.09017 0.57248 0.13414 0.0
O12 O 0.09139 0.62594 0.13426 0.0
O13 O 0.13364 0.66516 0.16605 0.0
O14 O 0.16084 0.63393 0.15742 0.0
C15 C 0.0898 0.59886 0.12567 0.0
O16 O 1.03527 0.63584 0.15141 0.0
O17 O 1.06552 0.66031 0.17603 0.0
O18 O 0.07642 0.59969 0.18846 0.0
O19 O 0.12943 0.60114 0.18597 0.0
O20 O 1.06342 0.53674 0.16622 0.0
O21 O 1.03091 0.56423 0.15841 0.0
C22 C 0.16249 0.66418 0.16218 0.0
O23 O 0.12913 0.53955 0.17047 0.0
O24 O 0.1506 0.56481 0.14617 0.0
C25 C 1.00367 0.64034 0.174 0.0
C26 C 0.93331 0.6032 0.185 0.0
C27 C 0.94338 0.63137 0.1732 0.0
C28 C 0.97836 0.64974 0.1677 0.0
C29 C 0.99433 0.61389 0.18665 0.0
C30 C 0.9595 0.5956 0.19216 0.0
C31 C 1.0376 0.65374 0.1656 0.0
H32 H 0.22411 0.5188 0.19593 0.0
H33 H 0.16635 0.51295 0.18622 0.0
H34 H 0.21728 0.58944 0.14587 0.0
H35 H 0.27461 0.59434 0.15516 0.0
H36 H 0.92365 0.63752 0.16729 0.0
H37 H 0.98503 0.6698 0.15779 0.0
H38 H 1.01342 0.60597 0.19158 0.0
H39 H 0.95257 0.57424 0.20136 0.0
Tb40 Tb 0.61295 0.11132 0.49547 0.0
Eu41 Eu 0.52529 0.06825 0.49293 0.0
C42 C 0.57152 0.09054 0.529 0.0
C43 C 0.56948 1.02517 0.49633 0.0
C44 C 0.70611 0.18138 0.50796 0.0
C45 C 0.75176 0.21528 0.5313 0.0
C46 C 0.72651 0.18247 0.52323 0.0
C47 C 0.71049 0.21366 0.50124 0.0
C48 C 0.73594 0.24644 0.5092 0.0
C49 C 0.75745 0.2477 0.5241 0.0
C50 C 0.68039 0.14652 0.4993 0.0
O51 O 0.59608 0.08927 0.46883 0.0
O52 O 0.5424 0.08807 0.46589 0.0
O53 O 0.54114 0.12626 0.4978 0.0
O54 O 0.60069 0.15481 0.49177 0.0
C55 C 0.56981 0.08876 0.45892 0.0
O56 O 0.47302 1.02958 0.48045 0.0
O57 O 0.47605 0.05907 0.50395 0.0
O58 O 0.54431 0.0636 0.52034 0.0
O59 O 0.59603 0.11735 0.52066 0.0
O60 O 0.59922 0.05575 0.5004 0.0
O61 O 0.53935 1.02422 0.49097 0.0
C62 C 0.57154 0.15575 0.49522 0.0
O63 O 0.66039 0.12116 0.50968 0.0
O64 O 0.66204 0.14705 0.48516 0.0
C65 C 0.43244 0.99848 0.50174 0.0
C66 C 0.38899 0.93337 0.51802 0.0
C67 C 0.42581 0.94596 0.51669 0.0
C68 C 0.44732 0.97827 0.50872 0.0
C69 C 0.39606 0.98677 0.5034 0.0
C70 C 0.37443 0.9544 0.51151 0.0
C71 C 0.45553 1.03211 0.4932 0.0
H72 H 0.7676 0.21529 0.54286 0.0
H73 H 0.72333 0.15792 0.52878 0.0
H74 H 0.69493 0.21376 0.48958 0.0
H75 H 0.73997 0.27081 0.50308 0.0
H76 H 0.43786 0.93025 0.5212 0.0
H77 H 0.47553 0.98721 0.50773 0.0
H78 H 0.38437 1.00243 0.4983 0.0
H79 H 0.34624 0.94559 0.51247 0.0
Tb80 Tb 0.58035 0.59358 0.83009 0.0
Eu81 Eu 0.5368 0.50735 0.82251 0.0
C82 C 0.56003 0.5403 0.86057 0.0
C83 C 0.62466 0.55223 0.82787 0.0
C84 C 0.59676 0.68129 0.84555 0.0
C85 C 0.6038 0.72402 0.86821 0.0
C86 C 0.61567 0.70289 0.86044 0.0
C87 C 0.56503 0.68012 0.83891 0.0
C88 C 0.55339 0.70148 0.84653 0.0
C89 C 0.57295 0.72422 0.86108 0.0
C90 C 0.60988 0.65958 0.83732 0.0
O91 O 0.58749 0.58494 0.80284 0.0
O92 O 0.53423 0.53307 0.79726 0.0
O93 O 0.49482 0.52083 0.83029 0.0
O94 O 0.52449 0.58089 0.82478 0.0
C95 C 0.56189 0.56186 0.79168 0.0
O96 O 0.52467 0.45972 0.80708 0.0
O97 O 0.49612 0.45436 0.83028 0.0
O98 O 0.56151 0.51768 0.84988 0.0
O99 O 0.55787 0.56769 0.85442 0.0
O100 O 0.62354 0.58068 0.83322 0.0
O101 O 0.59555 0.52309 0.82151 0.0
C102 C 0.4949 0.55121 0.82823 0.0
O103 O 0.61339 0.63697 0.84747 0.0
O104 O 0.59515 0.64538 0.82186 0.0
C105 C 0.51461 0.41281 0.82578 0.0
C106 C 0.53707 0.36596 0.83949 0.0
C107 C 0.50329 0.35235 0.83023 0.0
C108 C 0.49213 0.37569 0.82341 0.0
C109 C 0.54785 0.42642 0.83536 0.0
C110 C 0.55903 0.40327 0.84211 0.0
C111 C 0.50386 0.43785 0.81858 0.0
H112 H 0.61924 0.74079 0.87955 0.0
H113 H 0.63989 0.70373 0.86595 0.0
H114 H 0.54952 0.6633 0.82759 0.0
H115 H 0.5299 0.70127 0.84044 0.0
H116 H 0.48567 0.32373 0.82811 0.0
H117 H 0.46621 0.36483 0.81619 0.0
H118 H 0.56544 0.45509 0.83739 0.0
H119 H 0.58547 0.41475 0.84885 0.0
P120 P 0.6185 0.0851 0.21297 0.0
H121 H 0.59472 1.03746 0.18163 0.0
H122 H 0.53588 0.98752 0.17142 0.0
H123 H 0.48612 1.01894 0.2095 0.0
H124 H 0.54478 0.06931 0.21919 0.0
H125 H 0.68509 0.1398 0.23028 0.0
H126 H 0.73391 0.19728 0.2219 0.0
H127 H 0.67544 0.18779 0.17243 0.0
H128 H 0.62574 0.12939 0.18114 0.0
H129 H 0.60318 1.03328 0.24058 0.0
H130 H 0.61552 0.13855 0.2357 0.0
O131 O 0.63996 0.06203 0.2116 0.0
H132 H 0.59336 1.03402 0.27165 0.0
H133 H 0.6055 0.13947 0.26683 0.0
C134 C 0.57462 0.0574 0.20127 0.0
C135 C 0.57105 1.03437 0.18741 0.0
C136 C 0.53721 1.00523 0.18177 0.0
C137 C 0.50584 0.99823 0.18985 0.0
C138 C 0.50929 1.02309 0.20284 0.0
C139 C 0.54314 0.05225 0.20843 0.0
C140 C 0.65112 0.13033 0.20656 0.0
C141 C 0.68221 0.15019 0.21772 0.0
C142 C 0.71055 0.18309 0.2128 0.0
C143 C 0.7091 0.19738 0.19638 0.0
C144 C 0.67755 0.17785 0.18523 0.0
C145 C 0.64899 0.14443 0.19019 0.0
C146 C 0.61103 0.08623 0.23592 0.0
C147 C 0.60393 0.05666 0.24623 0.0
C148 C 0.598 0.05699 0.26398 0.0
C149 C 0.59885 0.08691 0.2718 0.0
C150 C 0.60528 0.11626 0.26131 0.0
C151 C 0.61098 0.11577 0.2435 0.0
P152 P 0.61073 0.60953 0.54509 0.0
H153 H 0.64294 0.58893 0.51804 0.0
H154 H 0.63412 0.53112 0.50826 0.0
H155 H 0.54074 0.47715 0.5385 0.0
H156 H 0.54905 0.53532 0.54761 0.0
H157 H 0.64881 0.67146 0.52287 0.0
H158 H 0.63845 0.71999 0.5139 0.0
H159 H 0.53437 0.66524 0.53539 0.0
H160 H 0.54469 0.6159 0.54393 0.0
H161 H 0.60929 0.55787 0.57056 0.0
H162 H 0.59338 0.64908 0.57071 0.0
O163 O 0.6556 0.6314 0.54636 0.0
H164 H 0.60081 0.5515 0.60183 0.0
H165 H 0.58518 0.64299 0.60201 0.0
C166 C 0.59706 0.56681 0.53383 0.0
C167 C 0.62001 0.56469 0.52225 0.0
C168 C 0.61521 0.53134 0.51686 0.0
C169 C 0.58729 0.49893 0.52293 0.0
C170 C 0.56266 0.50117 0.53349 0.0
C171 C 0.56735 0.53465 0.53874 0.0
C172 C 0.59789 0.64006 0.53445 0.0
C173 C 0.62341 0.66939 0.52543 0.0
C174 C 0.6176 0.69759 0.52046 0.0
C175 C 0.58596 0.69748 0.52432 0.0
C176 C 0.55917 0.66667 0.53219 0.0
C177 C 0.565 0.63823 0.53709 0.0
C178 C 0.59989 0.60264 0.56786 0.0
C179 C 0.60285 0.5759 0.57713 0.0
C180 C 0.5986 0.57264 0.59516 0.0
C181 C 0.59197 0.59654 0.60447 0.0
C182 C 0.58936 0.62356 0.5952 0.0
C183 C 0.59377 0.62687 0.57716 0.0
P184 P 0.08589 0.59292 0.8759 0.0
H185 H 0.11401 0.59356 0.84183 0.0
H186 H 0.16202 0.58312 0.83319 0.0
H187 H 0.16728 0.54323 0.88449 0.0
H188 H 0.12018 0.55406 0.89307 0.0
H189 H 1.05911 0.62476 0.84914 0.0
H190 H 0.99932 0.61467 0.84043 0.0
H191 H 0.95253 0.52044 0.87191 0.0
H192 H 1.01255 0.53029 0.8803 0.0
H193 H 0.10982 0.64841 0.90366 0.0
H194 H 1.05661 0.53287 0.90051 0.0
O195 O 0.11067 0.63643 0.87167 0.0
H196 H 0.1074 0.64663 0.93527 0.0
H197 H 1.05279 0.53081 0.93231 0.0
C198 C 0.1124 0.57401 0.86803 0.0
C199 C 0.12465 0.58148 0.85106 0.0
C200 C 0.15261 0.57599 0.8462 0.0
C201 C 0.16895 0.5625 0.85815 0.0
C202 C 0.1553 0.55327 0.87482 0.0
C203 C 0.12779 0.55929 0.87973 0.0
C204 C 1.04097 0.57872 0.8657 0.0
C205 C 1.03611 0.60148 0.85398 0.0
C206 C 1.00164 0.59589 0.84913 0.0
C207 C 0.97073 0.56719 0.85575 0.0
C208 C 0.97546 0.54294 0.86652 0.0
C209 C 1.01009 0.54863 0.87141 0.0
C210 C 0.08347 0.59075 0.89954 0.0
C211 C 0.09738 0.62252 0.9097 0.0
C212 C 0.09568 0.62147 0.92789 0.0
C213 C 0.07973 0.58857 0.93645 0.0
C214 C 1.06559 0.55668 0.92623 0.0
C215 C 1.06739 0.55779 0.90798 0.0
P216 P 0.16025 0.49198 0.43186 0.0
H217 H 0.23523 0.53293 0.44674 0.0
H218 H 0.26573 0.58435 0.4676 0.0
H219 H 0.16694 0.58669 0.46973 0.0
H220 H 0.137 0.53613 0.44913 0.0
H221 H 0.08657 0.47748 0.4224 0.0
H222 H 1.03615 0.45896 0.44066 0.0
H223 H 0.09134 0.43143 0.48148 0.0
H224 H 0.14196 0.45034 0.4632 0.0
H225 H 0.16623 0.46755 0.39725 0.0
H226 H 0.14145 0.54471 0.4182 0.0
O227 O 0.18243 0.46943 0.43187 0.0
H228 H 0.15813 0.48471 0.36757 0.0
H229 H 0.13164 0.56077 0.38876 0.0
C230 C 0.18391 0.53078 0.44632 0.0
C231 C 0.22029 0.54468 0.45167 0.0
C232 C 0.23757 0.57379 0.46365 0.0
C233 C 0.21865 0.58946 0.47022 0.0
C234 C 0.1823 0.57544 0.46473 0.0
C235 C 0.16515 0.54645 0.45291 0.0
C236 C 0.11808 0.46522 0.44143 0.0
C237 C 0.08751 0.46648 0.43503 0.0
C238 C 1.05881 0.45628 0.44556 0.0
C239 C 1.06021 0.44447 0.46259 0.0
C240 C 0.08954 0.44042 0.46839 0.0
C241 C 0.11833 0.45088 0.45789 0.0
C242 C 0.15494 0.50515 0.40998 0.0
C243 C 0.15905 0.48818 0.39548 0.0
C244 C 0.15403 0.4978 0.37849 0.0
C245 C 0.14426 0.52423 0.3757 0.0
C246 C 0.1399 0.54089 0.39034 0.0
C247 C 0.14538 0.53158 0.40728 0.0
P248 P 0.71357 0.1124 0.76843 0.0
H249 H 0.7577 0.15244 0.79951 0.0
H250 H 0.75505 0.19601 0.81895 0.0
H251 H 0.67524 0.19827 0.78274 0.0
H252 H 0.6771 0.15429 0.76381 0.0
H253 H 0.71687 0.0501 0.78174 0.0
H254 H 0.67876 1.00192 0.80068 0.0
H255 H 0.6077 1.0455 0.8024 0.0
H256 H 0.64491 0.09231 0.78269 0.0
H257 H 0.72288 0.164 0.74124 0.0
H258 H 0.6646 0.04909 0.74644 0.0
O259 O 0.75356 0.11512 0.76815 0.0
H260 H 0.69568 0.15686 0.71134 0.0
H261 H 0.63848 1.0419 0.71633 0.0
C262 C 0.71861 0.15111 0.77988 0.0
C263 C 0.74057 0.16331 0.7955 0.0
C264 C 0.73885 0.1879 0.80665 0.0
C265 C 0.71526 0.20075 0.80222 0.0
C266 C 0.69432 0.18948 0.78626 0.0
C267 C 0.69561 0.1645 0.77531 0.0
C268 C 0.68409 0.07513 0.78113 0.0
C269 C 0.69297 0.0491 0.78611 0.0
C270 C 0.67128 1.02177 0.79709 0.0
C271 C 0.6405 1.02023 0.80341 0.0
C272 C 0.63109 1.04575 0.79781 0.0
C273 C 0.65256 0.07276 0.78664 0.0
C274 C 0.69464 0.10717 0.74628 0.0
C275 C 0.70405 0.13729 0.73601 0.0
C276 C 0.68862 0.13323 0.71897 0.0
C277 C 0.6647 0.09887 0.71174 0.0
C278 C 0.65665 0.06864 0.72173 0.0
C279 C 0.67145 0.07278 0.73892 0.0
P280 P 0.48487 0.35958 0.08898 0.0
H281 H 0.49478 0.32337 0.11911 0.0
H282 H 0.54861 0.33668 0.13777 0.0
H283 H 0.61474 0.41342 0.10047 0.0
H284 H 0.56139 0.40059 0.08221 0.0
H285 H 0.4182 0.35026 0.10208 0.0
H286 H 0.40624 0.3875 0.12139 0.0
H287 H 0.5201 0.46441 0.12738 0.0
H288 H 0.53149 0.42798 0.10749 0.0
H289 H 0.51558 0.34831 0.05831 0.0
H290 H 0.46911 0.41235 0.07235 0.0
O291 O 0.45062 0.31747 0.0874 0.0
H292 H 0.52921 0.37706 0.02998 0.0
H293 H 0.48128 0.44009 0.04394 0.0
C294 C 0.52405 0.36029 0.09905 0.0
C295 C 0.521 0.34197 0.11464 0.0
C296 C 0.55168 0.34981 0.12536 0.0
C297 C 0.58582 0.37602 0.12055 0.0
C298 C 0.58886 0.39258 0.10436 0.0
C299 C 0.55823 0.38506 0.0938 0.0
C300 C 0.47574 0.38602 0.10363 0.0
C301 C 0.44052 0.37503 0.10764 0.0
C302 C 0.43382 0.39627 0.11879 0.0
C303 C 0.46229 0.42883 0.1261 0.0
C304 C 0.49753 0.43968 0.12192 0.0
C305 C 0.50411 0.41864 0.11066 0.0
C306 C 0.49224 0.37883 0.06762 0.0
C307 C 0.50813 0.3684 0.05524 0.0
C308 C 0.51568 0.38472 0.039 0.0
C309 C 0.50674 0.41127 0.03472 0.0
C310 C 0.48944 0.42051 0.04695 0.0
C311 C 0.48225 0.40443 0.06323 0.0
H312 H 0.32385 0.61263 0.17743 0.0
H313 H 0.37798 0.60746 0.17701 0.0
H314 H 0.31368 0.49311 0.18273 0.0
H315 H 0.25982 0.49784 0.18299 0.0
H316 H 0.38534 0.52628 0.20046 0.0
H317 H 0.38278 0.56221 0.13034 0.0
H318 H 0.38637 0.5935 0.14688 0.0
H319 H 0.34556 0.55116 0.14353 0.0
C320 C 0.32142 0.5865 0.17894 0.0
C321 C 0.28747 0.55558 0.17996 0.0
C322 C 0.35234 0.58365 0.17879 0.0
C323 C 0.34962 0.54984 0.17958 0.0
C324 C 0.3163 0.51946 0.18216 0.0
H325 H 0.41332 0.40791 0.15109 0.0
H326 H 0.39638 0.44529 0.16704 0.0
C327 C 0.28548 0.52225 0.18232 0.0
C328 C 0.37941 0.54457 0.17487 0.0
H329 H 0.41695 0.53598 0.13867 0.0
C330 C 0.39308 0.52921 0.18707 0.0
C331 C 0.38957 0.54867 0.15741 0.0
C332 C 0.37531 0.56461 0.14369 0.0
C333 C 0.41489 0.51571 0.18195 0.0
C334 C 0.42231 0.51688 0.16414 0.0
C335 C 0.41109 0.53493 0.15232 0.0
C336 C 0.43687 0.49541 0.15681 0.0
C337 C 0.42871 0.4993 0.19557 0.0
C338 C 0.46499 0.51099 0.14556 0.0
C339 C 0.474 0.48949 0.13598 0.0
C340 C 0.45508 0.45196 0.1375 0.0
C341 C 0.42804 0.43664 0.14939 0.0
C342 C 0.41884 0.45811 0.15883 0.0
H343 H 0.43359 0.5129 0.20856 0.0
H344 H 0.40815 0.47068 0.19691 0.0
H345 H 0.45402 0.50089 0.19194 0.0
H346 H 0.47896 0.53966 0.14363 0.0
H347 H 0.49468 0.5022 0.1268 0.0
H348 H 0.82457 0.26059 0.53447 0.0
H349 H 0.87931 0.31794 0.53561 0.0
H350 H 0.81796 0.37177 0.52806 0.0
H351 H 0.76227 0.3137 0.52709 0.0
H352 H 0.85719 0.38117 0.50165 0.0
H353 H 0.94705 0.41065 0.56065 0.0
H354 H 0.92821 0.36407 0.55514 0.0
H355 H 0.89906 0.38076 0.56088 0.0
C356 C 0.82237 0.28455 0.53398 0.0
C357 C 0.789 0.28245 0.53028 0.0
C358 C 0.85397 0.31764 0.53476 0.0
C359 C 0.85289 0.34933 0.53193 0.0
C360 C 0.81943 0.34766 0.5303 0.0
H361 H 1.03287 0.48817 0.46861 0.0
H362 H 0.98632 0.47825 0.4884 0.0
C363 C 0.78767 0.31443 0.52955 0.0
C364 C 0.8854 0.3809 0.52588 0.0
H365 H 0.97646 0.42019 0.53214 0.0
C366 C 0.88332 0.39106 0.50856 0.0
C367 C 0.91946 0.39419 0.53492 0.0
C368 C 0.92341 0.38705 0.55401 0.0
C369 C 0.91418 0.40947 0.49924 0.0
C370 C 0.94792 0.41846 0.50766 0.0
C371 C 0.95042 0.41256 0.52563 0.0
C372 C 0.9791 0.42747 0.49738 0.0
C373 C 0.90996 0.41557 0.47999 0.0
C374 C 0.99103 0.40265 0.49626 0.0
C375 C 1.01752 0.40823 0.48504 0.0
C376 C 1.03241 0.43866 0.47467 0.0
C377 C 1.02118 0.46404 0.47617 0.0
C378 C 0.99484 0.45858 0.48753 0.0
H379 H 0.88132 0.40346 0.4751 0.0
H380 H 0.92347 0.44479 0.47772 0.0
H381 H 0.9228 0.40404 0.47214 0.0
H382 H 0.97898 0.37833 0.50369 0.0
H383 H 1.02572 0.3883 0.48414 0.0
H384 H 0.61935 0.79367 0.87172 0.0
H385 H 0.60578 0.84156 0.87338 0.0
H386 H 0.49253 0.76532 0.86478 0.0
H387 H 0.50586 0.71646 0.86363 0.0
H388 H 0.5186 0.81114 0.83853 0.0
H389 H 0.56398 0.89124 0.89988 0.0
H390 H 0.59698 0.87969 0.89468 0.0
H391 H 0.55232 0.84463 0.89903 0.0
C392 C 0.59137 0.78658 0.8711 0.0
C393 C 0.56377 0.75119 0.86713 0.0
C394 C 0.58358 0.8142 0.87216 0.0
C395 C 0.54809 0.80709 0.86924 0.0
C396 C 0.52009 0.77138 0.86714 0.0
H397 H 0.56692 0.98357 0.80529 0.0
H398 H 0.53172 0.93461 0.82468 0.0
C399 C 0.52785 0.74358 0.86624 0.0
C400 C 0.5424 0.83694 0.86368 0.0
H401 H 0.57922 0.92635 0.8725 0.0
C402 C 0.53043 0.83611 0.84612 0.0
C403 C 0.55731 0.86926 0.87367 0.0
C404 C 0.56798 0.87107 0.89293 0.0
C405 C 0.53836 0.8678 0.83752 0.0
C406 C 0.5578 0.90096 0.84699 0.0
C407 C 0.56491 0.90101 0.86517 0.0
C408 C 0.57796 0.93505 0.83778 0.0
C409 C 0.52967 0.86573 0.81797 0.0
C410 C 0.61565 0.95297 0.83946 0.0
C411 C 0.63581 0.9814 0.82875 0.0
C412 C 0.61876 0.99232 0.81592 0.0
C413 C 0.58098 0.97576 0.81496 0.0
C414 C 0.56076 0.94755 0.82593 0.0
H415 H 0.51806 0.83807 0.8124 0.0
H416 H 0.50981 0.87461 0.8151 0.0
H417 H 0.55424 0.88361 0.81116 0.0
H418 H 0.62957 0.94392 0.84856 0.0
H419 H 0.66484 0.99429 0.83029 0.0
H420 H 0.88139 0.62019 0.19116 0.0
H421 H 0.81628 0.5789 0.18959 0.0
H422 H 0.83369 0.4897 0.18213 0.0
H423 H 0.89818 0.53039 0.18395 0.0
H424 H 0.78329 0.54337 0.16042 0.0
H425 H 0.75004 0.44381 0.21197 0.0
H426 H 0.79209 0.48583 0.21288 0.0
H427 H 0.78691 0.44771 0.20062 0.0
C428 C 0.87123 0.59164 0.1897 0.0
C429 C 0.89484 0.57853 0.18765 0.0
C430 C 0.83411 0.56809 0.18889 0.0
C431 C 0.82006 0.53112 0.18596 0.0
C432 C 0.84377 0.51788 0.18495 0.0
H433 H 0.65357 0.39092 0.11432 0.0
H434 H 0.70833 0.42674 0.13321 0.0
C435 C 0.88077 0.5413 0.1859 0.0
C436 C 0.78149 0.50742 0.1806 0.0
H437 H 0.71093 0.42262 0.18481 0.0
C438 C 0.7672 0.51737 0.16608 0.0
C439 C 0.76031 0.47351 0.188 0.0
C440 C 0.77308 0.46232 0.20435 0.0
C441 C 0.73341 0.49346 0.15803 0.0
C442 C 0.7137 0.4585 0.16446 0.0
C443 C 0.72663 0.44924 0.1797 0.0
C444 C 0.68051 0.43112 0.1548 0.0
C445 C 0.71955 0.50537 0.14228 0.0
C446 C 0.64689 0.42039 0.16113 0.0
C447 C 0.61558 0.39991 0.15037 0.0
C448 C 0.61765 0.39001 0.13317 0.0
C449 C 0.65128 0.39851 0.12744 0.0
C450 C 0.68248 0.41887 0.1382 0.0
H451 H 0.7335 0.53507 0.1416 0.0
H452 H 0.72424 0.49468 0.13018 0.0
H453 H 0.69021 0.49488 0.14252 0.0
H454 H 0.645 0.4297 0.17392 0.0
H455 H 0.59004 0.39403 0.15507 0.0
H456 H 0.32193 0.8836 0.50472 0.0
H457 H 0.2901 0.81987 0.51022 0.0
H458 H 0.37174 0.83521 0.55041 0.0
H459 H 0.40357 0.89971 0.54529 0.0
H460 H 0.36538 0.79113 0.52315 0.0
H461 H 0.23088 0.74664 0.54569 0.0
H462 H 0.24026 0.77771 0.52838 0.0
H463 H 0.26746 0.79238 0.54878 0.0
C464 C 0.33238 0.87387 0.5153 0.0
C465 C 0.3656 0.89672 0.52438 0.0
C466 C 0.31402 0.83727 0.51848 0.0
C467 C 0.32844 0.82282 0.53081 0.0
C468 C 0.36009 0.8459 0.5409 0.0
H469 H 0.26232 0.59938 0.49984 0.0
H470 H 0.2898 0.6514 0.52041 0.0
C471 C 0.37838 0.88265 0.53783 0.0
C472 C 0.31451 0.78374 0.53018 0.0
H473 H 0.23496 0.70513 0.52515 0.0
C474 C 0.33711 0.77192 0.52421 0.0
C475 C 0.27778 0.7588 0.53174 0.0
C476 C 0.25284 0.76955 0.53919 0.0
C477 C 0.32305 0.7368 0.51762 0.0
C478 C 0.28557 0.71298 0.51733 0.0
C479 C 0.26367 0.72365 0.5252 0.0
C480 C 0.26796 0.68031 0.50595 0.0
C481 C 0.34777 0.72662 0.50939 0.0
C482 C 0.24652 0.6794 0.49118 0.0
C483 C 0.23095 0.65004 0.47955 0.0
C484 C 0.23649 0.62091 0.48244 0.0
C485 C 0.25802 0.62174 0.49724 0.0
C486 C 0.27353 0.65124 0.509 0.0
H487 H 0.37576 0.74947 0.50934 0.0
H488 H 0.34831 0.70464 0.51679 0.0
H489 H 0.33778 0.71671 0.49568 0.0
H490 H 0.24227 0.70179 0.4885 0.0
H491 H 0.21483 0.65028 0.46816 0.0
H492 H 0.5307 0.3087 0.82126 0.0
H493 H 0.56327 0.27689 0.82748 0.0
H494 H 0.6095 0.33798 0.87595 0.0
H495 H 0.57634 0.36978 0.86993 0.0
H496 H 0.66015 0.34426 0.85463 0.0
H497 H 0.56065 0.20101 0.85981 0.0
H498 H 0.54829 0.21891 0.84118 0.0
H499 H 0.54961 0.23586 0.86287 0.0
C500 C 0.54663 0.31446 0.83358 0.0
C501 C 0.55114 0.34199 0.84502 0.0
C502 C 0.56523 0.29614 0.83715 0.0
C503 C 0.58854 0.3048 0.85227 0.0
C504 C 0.5915 0.33078 0.86426 0.0
H505 H 0.70184 0.18773 0.83664 0.0
H506 H 0.6789 0.21641 0.85552 0.0
C507 C 0.57274 0.34906 0.86073 0.0
C508 C 0.6138 0.29097 0.85376 0.0
H509 H 0.61604 0.21441 0.84603 0.0
C510 C 0.65068 0.31577 0.85335 0.0
C511 C 0.60168 0.25388 0.8525 0.0
C512 C 0.56289 0.22594 0.85432 0.0
C513 C 0.67506 0.30458 0.84962 0.0
C514 C 0.66203 0.26783 0.84599 0.0
C515 C 0.62596 0.24272 0.8485 0.0
C516 C 0.68309 0.25559 0.83657 0.0
C517 C 0.71414 0.33242 0.84856 0.0
C518 C 0.6938 0.2687 0.81986 0.0
C519 C 0.70676 0.2524 0.80909 0.0
C520 C 0.70915 0.22264 0.81484 0.0
C521 C 0.70063 0.21093 0.83199 0.0
C522 C 0.68741 0.22715 0.84275 0.0
H523 H 0.72212 0.35526 0.85787 0.0
H524 H 0.73186 0.32089 0.85142 0.0
H525 H 0.71846 0.34318 0.83516 0.0
H526 H 0.68991 0.29004 0.81465 0.0
H527 H 0.71316 0.26188 0.79593 0.0
H528 H 0.51283 0.95553 0.4918 0.0
H529 H 0.51354 0.89947 0.49642 0.0
H530 H 0.62746 0.95985 0.51018 0.0
H531 H 0.62693 1.01583 0.50586 0.0
H532 H 0.54885 0.86962 0.48107 0.0
H533 H 0.5932 0.89527 0.55154 0.0
H534 H 0.578 0.92185 0.53946 0.0
H535 H 0.62319 0.93047 0.53807 0.0
C536 C 0.53812 0.95699 0.49581 0.0
C537 C 0.56981 0.99058 0.49852 0.0
C538 C 0.53846 0.92474 0.49846 0.0
C539 C 0.57042 0.92506 0.50401 0.0
C540 C 0.60219 0.95854 0.50635 0.0
H541 H 0.63824 0.76887 0.52759 0.0
H542 H 0.63273 0.82179 0.52208 0.0
C543 C 0.60189 0.99075 0.50374 0.0
C544 C 0.5707 0.89059 0.50717 0.0
H545 H 0.59448 0.8465 0.53788 0.0
C546 C 0.55858 0.8645 0.49355 0.0
C547 C 0.58329 0.88348 0.52345 0.0
C548 C 0.59482 0.90906 0.53903 0.0
C549 C 0.55979 0.83242 0.49554 0.0
C550 C 0.57287 0.82558 0.51174 0.0
C551 C 0.58455 0.85148 0.52542 0.0
C552 C 0.57572 0.7924 0.51469 0.0
C553 C 0.54815 0.80671 0.48002 0.0
C554 C 0.54551 0.75765 0.51258 0.0
C555 C 0.54863 0.72695 0.51561 0.0
C556 C 0.58208 0.73004 0.52088 0.0
C557 C 0.61212 0.76496 0.52317 0.0
C558 C 0.60897 0.79552 0.52016 0.0
H559 H 0.54802 0.8199 0.46751 0.0
H560 H 0.56608 0.79524 0.47917 0.0
H561 H 0.52044 0.78431 0.48151 0.0
H562 H 0.5193 0.75418 0.50877 0.0
H563 H 0.5248 0.70077 0.51366 0.0
H564 H 0.63736 0.49576 0.82452 0.0
H565 H 0.69463 0.49657 0.82916 0.0
H566 H 0.74941 0.61064 0.83974 0.0
H567 H 0.69233 0.60988 0.83562 0.0
H568 H 0.75653 0.52842 0.81348 0.0
H569 H 0.78636 0.58093 0.88188 0.0
H570 H 0.7432 0.56588 0.87035 0.0
H571 H 0.78025 0.61023 0.86714 0.0
C572 C 0.66157 0.52107 0.82784 0.0
C573 C 0.65987 0.55272 0.8298 0.0
C574 C 0.69446 0.52149 0.83051 0.0
C575 C 0.72665 0.55352 0.83524 0.0
C576 C 0.7251 0.58528 0.83668 0.0
H577 H 0.95394 0.62104 0.85399 0.0
H578 H 0.89509 0.61611 0.84858 0.0
C579 C 0.69226 0.58485 0.83416 0.0
C580 C 0.76177 0.55387 0.83847 0.0
H581 H 0.83449 0.58103 0.86804 0.0
C582 C 0.77336 0.53968 0.82549 0.0
C583 C 0.78409 0.56837 0.85415 0.0
C584 C 0.7727 0.58186 0.86924 0.0
C585 C 0.80669 0.54058 0.82752 0.0
C586 C 0.82925 0.55575 0.84304 0.0
C587 C 0.81752 0.56957 0.85608 0.0
C588 C 0.86537 0.55824 0.84592 0.0
C589 C 0.81795 0.52619 0.81276 0.0
C590 C 0.86877 0.52738 0.8464 0.0
C591 C 0.90268 0.53011 0.84948 0.0
C592 C 0.93425 0.56382 0.85213 0.0
C593 C 0.93061 0.59461 0.85169 0.0
C594 C 0.89675 0.59184 0.84872 0.0
H595 H 0.80205 0.52339 0.80026 0.0
H596 H 0.84691 0.54394 0.81072 0.0
H597 H 0.81368 0.49929 0.81612 0.0
H598 H 0.8451 0.50104 0.84461 0.0
H599 H 0.90413 0.50574 0.84966 0.0
H600 H 0.17616 0.73244 0.16973 0.0
H601 H 0.2341 0.78799 0.17317 0.0
H602 H 0.28837 0.7298 0.16236 0.0
H603 H 0.23034 0.67409 0.15854 0.0
H604 H 0.29047 0.80759 0.1963 0.0
H605 H 0.33663 0.81187 0.12992 0.0
H606 H 0.29104 0.78135 0.13519 0.0
H607 H 0.32612 0.77126 0.14099 0.0
C608 C 0.20034 0.73132 0.16791 0.0
C609 C 0.1982 0.69844 0.16371 0.0
C610 C 0.23364 0.76331 0.16993 0.0
C611 C 0.266 0.76363 0.16778 0.0
C612 C 0.26402 0.73082 0.16367 0.0
H613 H 0.49362 0.93054 0.18137 0.0
H614 H 0.43628 0.87494 0.17588 0.0
C615 C 0.23064 0.69873 0.16158 0.0
C616 C 0.30155 0.79805 0.17047 0.0
H617 H 0.37934 0.85451 0.15102 0.0
C618 C 0.30973 0.81785 0.18632 0.0
C619 C 0.32713 0.8118 0.15756 0.0
C620 C 0.31974 0.79319 0.1399 0.0
C621 C 0.34254 0.85027 0.18971 0.0
C622 C 0.36805 0.86406 0.17679 0.0
C623 C 0.36 0.84422 0.16096 0.0
C624 C 0.40324 0.89877 0.17952 0.0
C625 C 0.34991 0.86901 0.20734 0.0
C626 C 0.40432 0.93135 0.18305 0.0
C627 C 0.43729 0.96351 0.18607 0.0
C628 C 0.47035 0.96423 0.18558 0.0
C629 C 0.46908 0.9316 0.18164 0.0
C630 C 0.4361 0.89949 0.1786 0.0
H631 H 0.33268 0.85056 0.21729 0.0
H632 H 0.37851 0.88045 0.21213 0.0
H633 H 0.34408 0.8913 0.20612 0.0
H634 H 0.37956 0.93198 0.18342 0.0
H635 H 0.43679 0.98791 0.18871 0.0
H636 H 0.63078 0.22404 0.49532 0.0
H637 H 0.6331 0.28156 0.49962 0.0
H638 H 0.51821 0.22593 0.50286 0.0
H639 H 0.51575 0.16849 0.49899 0.0
H640 H 0.60417 0.31593 0.48141 0.0
H641 H 0.54892 0.28733 0.5467 0.0
H642 H 0.56282 0.25926 0.53629 0.0
H643 H 0.51947 0.25441 0.53032 0.0
C644 C 0.60596 0.22396 0.49694 0.0
C645 C 0.5731 0.19128 0.49691 0.0
C646 C 0.60732 0.25703 0.49942 0.0
C647 C 0.57595 0.25845 0.502 0.0
C648 C 0.54304 0.22589 0.50146 0.0
H649 H 0.52693 0.43113 0.51777 0.0
H650 H 0.52439 0.37385 0.51245 0.0
C651 C 0.54166 0.19288 0.49908 0.0
C652 C 0.57751 0.29379 0.50502 0.0
H653 H 0.55374 0.33915 0.53299 0.0
C654 C 0.5933 0.32098 0.49276 0.0
C655 C 0.56341 0.30084 0.51981 0.0
C656 C 0.54803 0.27408 0.53412 0.0
C657 C 0.59469 0.35429 0.49467 0.0
C658 C 0.58033 0.36118 0.50938 0.0
C659 C 0.56458 0.33405 0.52164 0.0
C660 C 0.58194 0.39648 0.51245 0.0
C661 C 0.61086 0.38158 0.48065 0.0
C662 C 0.6151 0.42862 0.51449 0.0
C663 C 0.6167 0.46151 0.51771 0.0
C664 C 0.58515 0.46347 0.51901 0.0
C665 C 0.55192 0.43109 0.51704 0.0
C666 C 0.55038 0.39813 0.51389 0.0
H667 H 0.6117 0.36903 0.46818 0.0
H668 H 0.59547 0.39568 0.47806 0.0
H669 H 0.63886 0.40186 0.48511 0.0
H670 H 0.63997 0.42824 0.51392 0.0
H671 H 0.64293 0.48534 0.5196 0.0
H672 H 0.43004 0.49735 0.83866 0.0
H673 H 0.37523 0.49951 0.84283 0.0
H674 H 0.42741 0.60945 0.827 0.0
H675 H 0.4824 0.60758 0.82279 0.0
H676 H 0.36601 0.54639 0.86549 0.0
H677 H 0.33207 0.56221 0.79604 0.0
H678 H 0.36333 0.54707 0.8023 0.0
H679 H 0.3771 0.5938 0.80433 0.0
C680 C 0.42992 0.52199 0.83592 0.0
C681 C 0.4609 0.55222 0.83026 0.0
C682 C 0.39843 0.5232 0.83837 0.0
C683 C 0.39673 0.55448 0.83504 0.0
C684 C 0.42758 0.58473 0.82938 0.0
H685 H 0.22751 0.61079 0.84069 0.0
H686 H 0.28192 0.60871 0.83534 0.0
C687 C 0.45921 0.58364 0.82705 0.0
C688 C 0.36309 0.55566 0.83795 0.0
H689 H 0.29645 0.56651 0.81713 0.0
C690 C 0.35074 0.55066 0.85488 0.0
C691 C 0.34311 0.56153 0.82421 0.0
C692 C 0.35428 0.56619 0.80565 0.0
C693 C 0.31962 0.55195 0.85851 0.0
C694 C 0.29918 0.55721 0.84472 0.0
C695 C 0.31169 0.56233 0.82777 0.0
C696 C 0.2651 0.55778 0.8476 0.0
C697 C 0.30978 0.54884 0.87728 0.0
C698 C 0.23658 0.52953 0.85592 0.0
C699 C 0.2054 0.5308 0.85911 0.0
C700 C 0.20133 0.56002 0.85377 0.0
C701 C 0.22933 0.58767 0.84489 0.0
C702 C 0.26069 0.58657 0.84187 0.0
H703 H 0.33352 0.55659 0.8866 0.0
H704 H 0.29815 0.56599 0.88016 0.0
H705 H 0.28963 0.52055 0.87969 0.0
H706 H 0.23834 0.5063 0.85996 0.0
H707 H 0.18431 0.50868 0.86571 0.0
H708 H 1.02379 0.47084 0.1742 0.0
H709 H 0.96789 0.41494 0.17862 0.0
H710 H 0.90657 0.4651 0.16178 0.0
H711 H 0.96236 0.52116 0.15728 0.0
H712 H 0.91333 0.40252 0.20096 0.0
H713 H 0.85758 0.37158 0.13184 0.0
H714 H 0.90414 0.4038 0.13775 0.0
H715 H 0.87005 0.41563 0.13997 0.0
C716 C 0.99848 0.47007 0.17129 0.0
C717 C 0.99794 0.50081 0.16523 0.0
C718 C 0.96638 0.43793 0.17387 0.0
C719 C 0.93267 0.43529 0.17031 0.0
C720 C 0.93199 0.46592 0.16429 0.0
H721 H 0.7106 0.25513 0.1793 0.0
H722 H 0.76353 0.3128 0.17296 0.0
C723 C 0.96411 0.49817 0.16179 0.0
C724 C 0.89854 0.40092 0.17348 0.0
H725 H 0.82039 0.33354 0.15322 0.0
C726 C 0.89309 0.38746 0.19048 0.0
C727 C 0.87167 0.38116 0.15993 0.0
C728 C 0.87609 0.39349 0.1413 0.0
C729 C 0.86182 0.35529 0.19433 0.0
C730 C 0.83528 0.33496 0.18071 0.0
C731 C 0.84049 0.34872 0.16372 0.0
C732 C 0.80264 0.29911 0.18381 0.0
C733 C 0.85724 0.34395 0.21313 0.0
C734 C 0.80646 0.27137 0.19151 0.0
C735 C 0.77628 0.2385 0.1952 0.0
C736 C 0.74106 0.2319 0.19112 0.0
C737 C 0.73715 0.25906 0.18267 0.0
C738 C 0.76752 0.29221 0.17908 0.0
H739 H 0.87295 0.36725 0.22237 0.0
H740 H 0.82858 0.33049 0.21618 0.0
H741 H 0.86725 0.32493 0.21545 0.0
H742 H 0.83297 0.2751 0.19474 0.0
H743 H 0.78061 0.21809 0.20128 0.0
H744 H 0.09145 0.54958 0.10395 0.0
H745 H 0.08891 0.54801 0.07198 0.0
H746 H 0.07918 0.64289 0.07106 0.0
H747 H 0.08249 0.64514 0.10313 0.0
H748 H 1.03693 0.54124 0.04777 0.0
H749 H 0.16155 0.6712 0.04015 0.0
H750 H 0.15011 0.64984 0.06098 0.0
H751 H 0.12955 0.67489 0.0526 0.0
C752 C 0.08884 0.57022 0.09699 0.0
C753 C 0.08737 0.59763 0.10617 0.0
C754 C 0.08736 0.56924 0.07867 0.0
C755 C 0.08446 0.59565 0.06906 0.0
C756 C 0.08231 0.62269 0.07816 0.0
H757 H 1.06704 0.63149 0.9578 0.0
H758 H 1.06744 0.63218 0.98974 0.0
C759 C 0.08397 0.62381 0.09652 0.0
C760 C 0.0832 0.59444 0.04954 0.0
H761 H 0.12513 0.64269 0.01415 0.0
C762 C 1.05632 0.56339 0.04043 0.0
C763 C 0.10855 0.62326 0.03993 0.0
C764 C 0.13929 0.65655 0.04889 0.0
C765 C 1.05374 0.56063 0.02202 0.0
C766 C 0.07891 0.58955 0.01244 0.0
C767 C 0.10577 0.62059 0.02152 0.0
C768 C 0.07786 0.58825 0.99297 0.0
C769 C 1.02368 0.52706 0.01295 0.0
C770 C 0.08376 0.5634 0.98412 0.0
C771 C 0.0839 0.56312 0.9658 0.0
C772 C 0.07824 0.5878 0.95594 0.0
C773 C 1.07206 0.61245 0.96491 0.0
C774 C 1.07207 0.61278 0.9832 0.0
H775 H 1.00202 0.51101 0.0218 0.0
H776 H 1.01182 0.53377 0.00124 0.0
H777 H 1.03454 0.51013 0.0085 0.0
H778 H 0.08894 0.54463 0.9914 0.0
H779 H 0.08933 0.54415 0.95942 0.0
H780 H 0.51808 0.08153 0.43368 0.0
H781 H 0.52053 0.0801 0.4018 0.0
H782 H 0.62717 0.09459 0.40839 0.0
H783 H 0.62473 0.09534 0.44014 0.0
H784 H 0.56622 0.13021 0.37988 0.0
H785 H 0.577 1.00771 0.37546 0.0
H786 H 0.56496 1.02091 0.39511 0.0
H787 H 0.61132 1.04152 0.3901 0.0
C788 C 0.54201 0.08426 0.42836 0.0
C789 C 0.57108 0.08824 0.43954 0.0
C790 C 0.54338 0.08348 0.41011 0.0
C791 C 0.57376 0.08657 0.40265 0.0
C792 C 0.60305 0.09121 0.41378 0.0
H793 H 0.63596 0.14254 0.29581 0.0
H794 H 0.62843 0.14262 0.32723 0.0
C795 C 0.60167 0.09184 0.43199 0.0
C796 C 0.57519 0.0856 0.38326 0.0
H797 H 0.58889 1.04253 0.34982 0.0
C798 C 0.57097 0.11091 0.37329 0.0
C799 C 0.58087 0.06009 0.37459 0.0
C800 C 0.58343 1.03079 0.38433 0.0
C801 C 0.57309 0.11194 0.355 0.0
C802 C 0.58034 0.08742 0.34644 0.0
C803 C 0.58374 0.0616 0.35636 0.0
C804 C 0.58432 0.08786 0.3272 0.0
C805 C 0.56698 0.13893 0.345 0.0
C806 C 0.56261 0.05686 0.3167 0.0
C807 C 0.56704 0.05666 0.29874 0.0
C808 C 0.59337 0.08748 0.29084 0.0
C809 C 0.61502 0.11854 0.30138 0.0
C810 C 0.61069 0.11865 0.31937 0.0
H811 H 0.55159 0.14811 0.35246 0.0
H812 H 0.59335 0.16277 0.34269 0.0
H813 H 0.55224 0.12758 0.33211 0.0
H814 H 0.54213 1.03274 0.32241 0.0
H815 H 0.54966 1.03239 0.291 0.0
H816 H 0.51254 0.52138 0.76506 0.0
H817 H 0.51826 0.52878 0.73355 0.0
H818 H 0.6239 0.62131 0.74308 0.0
H819 H 0.61817 0.61451 0.77473 0.0
H820 H 0.58372 0.63226 0.71704 0.0
H821 H 0.57868 0.5031 0.70481 0.0
H822 H 0.54067 0.49812 0.71557 0.0
H823 H 0.58485 0.52211 0.72656 0.0
C824 C 0.53704 0.54335 0.76051 0.0
C825 C 0.56501 0.5672 0.77249 0.0
C826 C 0.54034 0.54741 0.74244 0.0
C827 C 0.5718 0.57516 0.7359 0.0
C828 C 0.59945 0.59953 0.7478 0.0
H829 H 0.6332 0.58367 0.62892 0.0
H830 H 0.62878 0.57977 0.66064 0.0
C831 C 0.59613 0.59558 0.76591 0.0
C832 C 0.57574 0.57878 0.71666 0.0
H833 H 0.57425 0.5338 0.67969 0.0
C834 C 0.58178 0.61078 0.70887 0.0
C835 C 0.57375 0.55098 0.70602 0.0
C836 C 0.56949 0.51678 0.71366 0.0
C837 C 0.58519 0.61548 0.69073 0.0
C838 C 0.58181 0.58713 0.68 0.0
C839 C 0.57643 0.55539 0.68785 0.0
C840 C 0.58446 0.58999 0.66065 0.0
C841 C 0.59309 0.65104 0.68331 0.0
C842 C 0.56077 0.59665 0.64999 0.0
C843 C 0.56323 0.5989 0.6318 0.0
C844 C 0.58916 0.59409 0.62384 0.0
C845 C 0.6126 0.58707 0.63455 0.0
C846 C 0.61023 0.585 0.65272 0.0
H847 H 0.60479 0.67276 0.69358 0.0
H848 H 0.612 0.65882 0.67276 0.0
H849 H 0.56769 0.64886 0.67767 0.0
H850 H 0.54004 0.59969 0.65571 0.0
H851 H 0.54441 0.60382 0.62394 0.0
H852 H 0.51977 0.05125 0.55166 0.0
H853 H 0.52749 0.05158 0.58371 0.0
H854 H 0.64051 0.12824 0.58157 0.0
H855 H 0.63268 0.12924 0.54983 0.0
H856 H 0.56507 1.03262 0.60453 0.0
H857 H 0.6159 0.17633 0.61779 0.0
H858 H 0.59659 0.15545 0.59652 0.0
H859 H 0.64329 0.17109 0.60276 0.0
C860 C 0.54615 0.06844 0.5581 0.0
C861 C 0.57552 0.09057 0.54829 0.0
C862 C 0.55054 0.0686 0.57638 0.0
C863 C 0.58441 0.09063 0.58511 0.0
C864 C 0.61386 0.11204 0.57523 0.0
H865 H 0.66859 0.06124 0.68442 0.0
H866 H 0.64462 0.05722 0.65414 0.0
C867 C 0.60938 0.11239 0.55705 0.0
C868 C 0.58965 0.09021 0.60444 0.0
H869 H 0.63032 0.14538 0.64045 0.0
C870 C 0.57883 0.05723 0.61244 0.0
C871 C 0.60675 0.12217 0.61489 0.0
C872 C 0.61588 0.15816 0.60755 0.0
C873 C 0.58628 0.05554 0.63044 0.0
C874 C 0.60633 0.08781 0.64056 0.0
C875 C 0.61553 0.12061 0.6327 0.0
C876 C 0.61921 0.08854 0.6591 0.0
C877 C 0.57235 1.01913 0.63835 0.0
C878 C 0.61405 0.10849 0.6719 0.0
C879 C 0.62876 0.11173 0.68905 0.0
C880 C 0.6484 0.09466 0.69374 0.0
C881 C 0.65312 0.07425 0.68109 0.0
C882 C 0.63911 0.07167 0.66385 0.0
H883 H 0.54739 0.99859 0.63098 0.0
H884 H 0.59275 1.01073 0.63762 0.0
H885 H 0.5666 1.01949 0.65226 0.0
H886 H 0.59898 0.12191 0.66858 0.0
H887 H 0.62475 0.12753 0.69866 0.0
H888 H 0.55596 0.48181 0.87647 0.0
H889 H 0.55139 0.46841 0.90744 0.0
H890 H 0.55731 0.56926 0.91883 0.0
H891 H 0.56106 0.58266 0.88755 0.0
H892 H 0.59776 0.50414 0.9357 0.0
H893 H 0.46659 0.49783 0.94168 0.0
H894 H 0.48409 0.4988 0.92075 0.0
H895 H 0.50183 0.53924 0.93392 0.0
C896 C 0.5563 0.50125 0.8855 0.0
C897 C 0.55861 0.53323 0.87952 0.0
C898 C 0.55375 0.49353 0.90324 0.0
C899 C 0.55353 0.51759 0.91541 0.0
C900 C 0.55668 0.54998 0.90959 0.0
H901 H 0.53028 0.48212 0.02818 0.0
H902 H 0.54384 0.51156 0.99997 0.0
C903 C 0.55901 0.55768 0.89175 0.0
C904 C 0.54973 0.50808 0.93409 0.0
H905 H 0.4926 0.48587 0.96693 0.0
C906 C 0.57493 0.50045 0.94257 0.0
C907 C 0.51991 0.50331 0.94304 0.0
C908 C 0.49135 0.50992 0.9344 0.0
C909 C 0.57058 0.48724 0.95957 0.0
C910 C 0.54023 0.48142 0.96825 0.0
C911 C 0.5158 0.49039 0.96013 0.0
C912 C 0.53221 0.46381 0.9853 0.0
C913 C 0.59806 0.47895 0.96806 0.0
C914 C 0.52081 0.42717 0.98626 0.0
C915 C 0.51248 0.41009 0.00226 0.0
C916 C 0.51555 0.42942 0.01765 0.0
C917 C 0.52707 0.46626 0.01658 0.0
C918 C 0.53509 0.48323 1.00051 0.0
H919 H 0.62336 0.49155 0.96119 0.0
H920 H 0.6044 0.48835 0.982 0.0
H921 H 0.5869 0.44947 0.96774 0.0
H922 H 0.51801 0.41171 0.97455 0.0
H923 H 0.50311 0.38162 0.00251 0.0
H924 H 1.06562 0.60623 0.2208 0.0
H925 H 1.0715 0.59907 0.25243 0.0
H926 H 0.15694 0.57666 0.24512 0.0
H927 H 0.15207 0.58484 0.21376 0.0
H928 H 1.0619 0.5419 0.27017 0.0
H929 H 0.20212 0.65074 0.28404 0.0
H930 H 0.17711 0.64667 0.26354 0.0
H931 H 0.19921 0.62079 0.26705 0.0
C932 C 0.08593 0.60018 0.22599 0.0
C933 C 0.10862 0.59645 0.21481 0.0
C934 C 0.08923 0.59607 0.24404 0.0
C935 C 0.11518 0.58808 0.25119 0.0
C936 C 0.13751 0.58394 0.24 0.0
H937 H 0.11397 0.48045 0.3463 0.0
H938 H 0.10579 0.49752 0.31666 0.0
C939 C 0.13452 0.58842 0.22203 0.0
C940 C 0.11792 0.58224 0.27021 0.0
H941 H 0.17835 0.60488 0.30551 0.0
C942 C 0.08725 0.55601 0.27798 0.0
C943 C 0.15081 0.60113 0.28049 0.0
C944 C 0.18404 0.63167 0.27338 0.0
C945 C 0.08894 0.54707 0.29555 0.0
C946 C 0.12246 0.56407 0.30543 0.0
C947 C 0.15276 0.59139 0.29787 0.0
C948 C 0.127 0.55359 0.3235 0.0
C949 C 1.05474 0.51967 0.30331 0.0
C950 C 0.14294 0.57963 0.33711 0.0
C951 C 0.1487 0.57016 0.35398 0.0
C952 C 0.13845 0.53434 0.35766 0.0
C953 C 0.12255 0.50833 0.34396 0.0
C954 C 0.11722 0.51793 0.32704 0.0
H955 H 1.03077 0.51862 0.29638 0.0
H956 H 1.05186 0.49271 0.30192 0.0
H957 H 1.05496 0.5256 0.31744 0.0
H958 H 0.15109 0.60739 0.33465 0.0
H959 H 0.16167 0.59107 0.36408 0.0
loop_
_geom_bond_atom_site_label_1
_geom_bond_atom_site_label_2
_geom_bond_distance
_geom_bond_site_symmetry_2
_ccdc_geom_bond_type
Tb0 C10 2.825 . S
Tb0 O11 2.347 . S
Tb0 O14 2.366 . S
Tb0 O19 2.418 . S
Tb0 O20 2.384 1_455 S
Tb0 O23 2.479 . S
Tb0 O24 2.471 . S
Eu1 O12 2.418 . S
Eu1 O13 2.384 . S
Eu1 O16 2.479 1_455 S
Eu1 O17 2.471 1_455 S
Eu1 O18 2.347 . S
Eu1 O21 2.366 1_455 S
Eu1 C31 2.825 1_455 S
C2 O18 1.259 . S
C2 O19 1.265 . S
C3 O20 1.255 . S
C3 O21 1.265 . S
C4 C6 1.380 . S
C4 C7 1.374 . S
C4 C10 1.507 . S
C5 C6 1.384 . S
C5 C9 1.387 . S
C5 H32 0.930 . S
C6 C4 1.380 . S
C6 C5 1.384 . S
C6 H33 0.931 . S
C7 C4 1.374 . S
C7 C8 1.390 . S
C7 H34 0.930 . S
C8 C7 1.390 . S
C8 C9 1.391 . S
C8 H35 0.930 . S
C9 C5 1.387 . S
C9 C8 1.391 . S
C10 Tb0 2.825 . S
C10 C4 1.507 . S
C10 O23 1.238 . S
C10 O24 1.247 . S
O11 Tb0 2.347 . S
O11 C15 1.259 . S
O12 Eu1 2.418 . S
O12 C15 1.265 . S
O13 Eu1 2.384 . S
O13 C22 1.255 . S
O14 Tb0 2.366 . S
O14 C22 1.265 . S
C15 O11 1.259 . S
C15 O12 1.265 . S
O16 Eu1 2.479 1_655 S
O16 C31 1.238 . S
O17 Eu1 2.471 1_655 S
O17 C31 1.247 . S
O18 Eu1 2.347 . S
O18 C2 1.259 . S
O19 Tb0 2.418 . S
O19 C2 1.265 . S
O20 Tb0 2.384 1_655 S
O20 C3 1.255 . S
O21 Eu1 2.366 1_655 S
O21 C3 1.265 . S
C22 O13 1.255 . S
C22 O14 1.265 . S
O23 Tb0 2.479 . S
O23 C10 1.238 . S
O24 Tb0 2.471 . S
O24 C10 1.247 . S
C25 C28 1.380 . S
C25 C29 1.374 . S
C25 C31 1.507 . S
C26 C27 1.387 . S
C26 C30 1.391 . S
C27 C26 1.387 . S
C27 C28 1.384 . S
C27 H36 0.930 . S
C28 C25 1.380 . S
C28 C27 1.384 . S
C28 H37 0.931 . S
C29 C25 1.374 . S
C29 C30 1.390 . S
C29 H38 0.930 . S
C30 C26 1.391 . S
C30 C29 1.390 . S
C30 H39 0.930 . S
C31 Eu1 2.825 1_655 S
C31 O16 1.238 . S
C31 O17 1.247 . S
C31 C25 1.507 . S
H32 C5 0.930 . S
H33 C6 0.931 . S
H34 C7 0.930 . S
H35 C8 0.930 . S
H36 C27 0.930 . S
H37 C28 0.931 . S
H38 C29 0.930 . S
H39 C30 0.930 . S
Tb40 C50 2.825 . S
Tb40 O51 2.347 . S
Tb40 O54 2.366 . S
Tb40 O59 2.418 . S
Tb40 O60 2.391 . S
Tb40 O63 2.479 . S
Tb40 O64 2.471 . S
Eu41 O52 2.418 . S
Eu41 O53 2.384 . S
Eu41 O56 2.479 1_545 S
Eu41 O57 2.471 1_545 S
Eu41 O58 2.347 . S
Eu41 O61 2.366 1_545 S
Eu41 C71 2.825 1_545 S
C42 O58 1.259 . S
C42 O59 1.265 . S
C43 O60 1.252 1_565 S
C43 O61 1.265 . S
C44 C46 1.380 . S
C44 C47 1.374 . S
C44 C50 1.507 . S
C45 C46 1.384 . S
C45 C49 1.387 . S
C45 H72 0.930 . S
C46 C44 1.380 . S
C46 C45 1.384 . S
C46 H73 0.931 . S
C47 C44 1.374 . S
C47 C48 1.390 . S
C47 H74 0.930 . S
C48 C47 1.390 . S
C48 C49 1.391 . S
C48 H75 0.930 . S
C49 C45 1.387 . S
C49 C48 1.391 . S
C50 Tb40 2.825 . S
C50 C44 1.507 . S
C50 O63 1.238 . S
C50 O64 1.247 . S
O51 Tb40 2.347 . S
O51 C55 1.259 . S
O52 Eu41 2.418 . S
O52 C55 1.265 . S
O53 Eu41 2.384 . S
O53 C62 1.255 . S
O54 Tb40 2.366 . S
O54 C62 1.265 . S
C55 O51 1.259 . S
C55 O52 1.265 . S
O56 Eu41 2.479 1_565 S
O56 C71 1.238 . S
O57 Eu41 2.471 1_565 S
O57 C71 1.247 . S
O58 Eu41 2.347 . S
O58 C42 1.259 . S
O59 Tb40 2.418 . S
O59 C42 1.265 . S
O60 Tb40 2.391 . S
O60 C43 1.252 1_545 S
O61 Eu41 2.366 1_565 S
O61 C43 1.265 . S
C62 O53 1.255 . S
C62 O54 1.265 . S
O63 Tb40 2.479 . S
O63 C50 1.238 . S
O64 Tb40 2.471 . S
O64 C50 1.247 . S
C65 C68 1.380 . S
C65 C69 1.374 . S
C65 C71 1.507 . S
C66 C67 1.387 . S
C66 C70 1.391 . S
C67 C66 1.387 . S
C67 C68 1.384 . S
C67 H76 0.930 . S
C68 C65 1.380 . S
C68 C67 1.384 . S
C68 H77 0.931 . S
C69 C65 1.374 . S
C69 C70 1.390 . S
C69 H78 0.930 . S
C70 C66 1.391 . S
C70 C69 1.390 . S
C70 H79 0.930 . S
C71 Eu41 2.825 1_565 S
C71 O56 1.238 . S
C71 O57 1.247 . S
C71 C65 1.507 . S
H72 C45 0.930 . S
H73 C46 0.931 . S
H74 C47 0.930 . S
H75 C48 0.930 . S
H76 C67 0.930 . S
H77 C68 0.931 . S
H78 C69 0.930 . S
H79 C70 0.930 . S
Tb80 C90 2.825 . S
Tb80 O91 2.347 . S
Tb80 O94 2.366 . S
Tb80 O99 2.418 . S
Tb80 O100 2.384 . S
Tb80 O103 2.479 . S
Tb80 O104 2.471 . S
Eu81 O92 2.418 . S
Eu81 O93 2.384 . S
Eu81 O96 2.479 . S
Eu81 O97 2.471 . S
Eu81 O98 2.347 . S
Eu81 O101 2.366 . S
Eu81 C111 2.825 . S
C82 O98 1.259 . S
C82 O99 1.265 . S
C83 O100 1.255 . S
C83 O101 1.265 . S
C84 C86 1.380 . S
C84 C87 1.374 . S
C84 C90 1.507 . S
C85 C86 1.384 . S
C85 C89 1.387 . S
C85 H112 0.930 . S
C86 C84 1.380 . S
C86 C85 1.384 . S
C86 H113 0.931 . S
C87 C84 1.374 . S
C87 C88 1.390 . S
C87 H114 0.930 . S
C88 C87 1.390 . S
C88 C89 1.391 . S
C88 H115 0.930 . S
C89 C85 1.387 . S
C89 C88 1.391 . S
C90 Tb80 2.825 . S
C90 C84 1.507 . S
C90 O103 1.238 . S
C90 O104 1.247 . S
O91 Tb80 2.347 . S
O91 C95 1.259 . S
O92 Eu81 2.418 . S
O92 C95 1.265 . S
O93 Eu81 2.384 . S
O93 C102 1.255 . S
O94 Tb80 2.366 . S
O94 C102 1.265 . S
C95 O91 1.259 . S
C95 O92 1.265 . S
O96 Eu81 2.479 . S
O96 C111 1.238 . S
O97 Eu81 2.471 . S
O97 C111 1.247 . S
O98 Eu81 2.347 . S
O98 C82 1.259 . S
O99 Tb80 2.418 . S
O99 C82 1.265 . S
O100 Tb80 2.384 . S
O100 C83 1.255 . S
O101 Eu81 2.366 . S
O101 C83 1.265 . S
C102 O93 1.255 . S
C102 O94 1.265 . S
O103 Tb80 2.479 . S
O103 C90 1.238 . S
O104 Tb80 2.471 . S
O104 C90 1.247 . S
C105 C108 1.380 . S
C105 C109 1.374 . S
C105 C111 1.507 . S
C106 C107 1.387 . S
C106 C110 1.391 . S
C107 C106 1.387 . S
C107 C108 1.384 . S
C107 H116 0.930 . S
C108 C105 1.380 . S
C108 C107 1.384 . S
C108 H117 0.931 . S
C109 C105 1.374 . S
C109 C110 1.390 . S
C109 H118 0.930 . S
C110 C106 1.391 . S
C110 C109 1.390 . S
C110 H119 0.930 . S
C111 Eu81 2.825 . S
C111 O96 1.238 . S
C111 O97 1.247 . S
C111 C105 1.507 . S
H112 C85 0.930 . S
H113 C86 0.931 . S
H114 C87 0.930 . S
H115 C88 0.930 . S
H116 C107 0.930 . S
H117 C108 0.931 . S
H118 C109 0.930 . S
H119 C110 0.930 . S
P120 O131 1.490 . S
P120 C134 1.812 . S
P120 C140 1.803 1_565 S
P120 C146 1.819 1_565 S
H121 C135 0.941 . S
H122 C136 0.939 . S
H123 C138 0.940 . S
H124 C139 0.940 . S
H125 C141 0.939 . S
H126 C142 0.942 . S
H127 C144 0.940 . S
H128 C145 0.939 . S
H129 C147 0.941 . S
H130 C151 0.939 . S
O131 P120 1.490 . S
H132 C148 0.939 . S
H133 C150 0.940 . S
C134 P120 1.812 . S
C134 C135 1.389 . S
C134 C139 1.391 . S
C135 H121 0.941 . S
C135 C134 1.389 . S
C135 C136 1.397 . S
C136 H122 0.939 . S
C136 C135 1.397 . S
C136 C137 1.378 . S
C137 C136 1.378 . S
C137 C138 1.378 . S
C138 H123 0.940 . S
C138 C137 1.378 . S
C138 C139 1.396 . S
C139 H124 0.940 . S
C139 C134 1.391 . S
C139 C138 1.396 . S
C140 P120 1.803 1_545 S
C140 C141 1.378 . S
C140 C145 1.400 . S
C141 H125 0.939 . S
C141 C140 1.378 . S
C141 C142 1.361 . S
C142 H126 0.942 . S
C142 C141 1.361 . S
C142 C143 1.369 . S
C143 C142 1.369 . S
C143 C144 1.404 . S
C144 H127 0.940 . S
C144 C143 1.404 . S
C144 C145 1.389 . S
C145 H128 0.939 . S
C145 C140 1.400 . S
C145 C144 1.389 . S
C146 P120 1.819 1_545 S
C146 C147 1.391 1_545 S
C146 C151 1.391 . S
C147 H129 0.941 . S
C147 C146 1.391 1_565 S
C147 C148 1.396 . S
C148 H132 0.939 . S
C148 C147 1.396 . S
C148 C149 1.397 1_565 S
C149 C148 1.397 1_545 S
C149 C150 1.385 . S
C150 H133 0.940 . S
C150 C149 1.385 . S
C150 C151 1.388 . S
C151 H130 0.939 . S
C151 C146 1.391 . S
C151 C150 1.388 . S
P152 O163 1.490 . S
P152 C166 1.812 . S
P152 C172 1.803 . S
P152 C178 1.819 . S
H153 C167 0.941 . S
H154 C168 0.939 . S
H155 C170 0.940 . S
H156 C171 0.940 . S
H157 C173 0.939 . S
H158 C174 0.942 . S
H159 C176 0.940 . S
H160 C177 0.939 . S
H161 C179 0.941 . S
H162 C183 0.939 . S
O163 P152 1.490 . S
H164 C180 0.939 . S
H165 C182 0.940 . S
C166 P152 1.812 . S
C166 C167 1.389 . S
C166 C171 1.391 . S
C167 H153 0.941 . S
C167 C166 1.389 . S
C167 C168 1.397 . S
C168 H154 0.939 . S
C168 C167 1.397 . S
C168 C169 1.378 . S
C169 C168 1.378 . S
C169 C170 1.378 . S
C170 H155 0.940 . S
C170 C169 1.378 . S
C170 C171 1.396 . S
C171 H156 0.940 . S
C171 C166 1.391 . S
C171 C170 1.396 . S
C172 P152 1.803 . S
C172 C173 1.378 . S
C172 C177 1.400 . S
C173 H157 0.939 . S
C173 C172 1.378 . S
C173 C174 1.361 . S
C174 H158 0.942 . S
C174 C173 1.361 . S
C174 C175 1.369 . S
C175 C174 1.369 . S
C175 C176 1.404 . S
C176 H159 0.940 . S
C176 C175 1.404 . S
C176 C177 1.389 . S
C177 H160 0.939 . S
C177 C172 1.400 . S
C177 C176 1.389 . S
C178 P152 1.819 . S
C178 C179 1.391 . S
C178 C183 1.391 . S
C179 H161 0.941 . S
C179 C178 1.391 . S
C179 C180 1.396 . S
C180 H164 0.939 . S
C180 C179 1.396 . S
C180 C181 1.397 . S
C181 C180 1.397 . S
C181 C182 1.385 . S
C182 H165 0.940 . S
C182 C181 1.385 . S
C182 C183 1.388 . S
C183 H162 0.939 . S
C183 C178 1.391 . S
C183 C182 1.388 . S
P184 O195 1.490 . S
P184 C198 1.812 . S
P184 C204 1.803 1_455 S
P184 C210 1.819 . S
H185 C199 0.941 . S
H186 C200 0.939 . S
H187 C202 0.940 . S
H188 C203 0.940 . S
H189 C205 0.939 . S
H190 C206 0.942 . S
H191 C208 0.940 . S
H192 C209 0.939 . S
H193 C211 0.941 . S
H194 C215 0.939 . S
O195 P184 1.490 . S
H196 C212 0.939 . S
H197 C214 0.940 . S
C198 P184 1.812 . S
C198 C199 1.389 . S
C198 C203 1.391 . S
C199 H185 0.941 . S
C199 C198 1.389 . S
C199 C200 1.397 . S
C200 H186 0.939 . S
C200 C199 1.397 . S
C200 C201 1.378 . S
C201 C200 1.378 . S
C201 C202 1.378 . S
C202 H187 0.940 . S
C202 C201 1.378 . S
C202 C203 1.396 . S
C203 H188 0.940 . S
C203 C198 1.391 . S
C203 C202 1.396 . S
C204 P184 1.803 1_655 S
C204 C205 1.378 . S
C204 C209 1.400 . S
C205 H189 0.939 . S
C205 C204 1.378 . S
C205 C206 1.361 . S
C206 H190 0.942 . S
C206 C205 1.361 . S
C206 C207 1.369 . S
C207 C206 1.369 . S
C207 C208 1.404 . S
C208 H191 0.940 . S
C208 C207 1.404 . S
C208 C209 1.389 . S
C209 H192 0.939 . S
C209 C204 1.400 . S
C209 C208 1.389 . S
C210 P184 1.819 . S
C210 C211 1.391 . S
C210 C215 1.391 1_455 S
C211 H193 0.941 . S
C211 C210 1.391 . S
C211 C212 1.396 . S
C212 H196 0.939 . S
C212 C211 1.396 . S
C212 C213 1.397 . S
C213 C212 1.397 . S
C213 C214 1.385 1_455 S
C214 H197 0.940 . S
C214 C213 1.385 1_655 S
C214 C215 1.388 . S
C215 H194 0.939 . S
C215 C210 1.391 1_655 S
C215 C214 1.388 . S
P216 O227 1.490 . S
P216 C230 1.812 . S
P216 C236 1.803 1_455 S
P216 C242 1.819 . S
H217 C231 0.941 . S
H218 C232 0.939 . S
H219 C234 0.940 . S
H220 C235 0.940 . S
H221 C237 0.939 . S
H222 C238 0.942 . S
H223 C240 0.940 . S
H224 C241 0.939 . S
H225 C243 0.941 . S
H226 C247 0.939 . S
O227 P216 1.490 . S
H228 C244 0.939 . S
H229 C246 0.940 . S
C230 P216 1.812 . S
C230 C231 1.389 . S
C230 C235 1.391 . S
C231 H217 0.941 . S
C231 C230 1.389 . S
C231 C232 1.397 . S
C232 H218 0.939 . S
C232 C231 1.397 . S
C232 C233 1.378 . S
C233 C232 1.378 . S
C233 C234 1.378 . S
C234 H219 0.940 . S
C234 C233 1.378 . S
C234 C235 1.396 . S
C235 H220 0.940 . S
C235 C230 1.391 . S
C235 C234 1.396 . S
C236 P216 1.803 1_655 S
C236 C237 1.378 . S
C236 C241 1.400 . S
C237 H221 0.939 . S
C237 C236 1.378 . S
C237 C238 1.361 . S
C238 H222 0.942 . S
C238 C237 1.361 . S
C238 C239 1.369 . S
C239 C238 1.369 . S
C239 C240 1.404 . S
C240 H223 0.940 . S
C240 C239 1.404 . S
C240 C241 1.389 . S
C241 H224 0.939 . S
C241 C236 1.400 . S
C241 C240 1.389 . S
C242 P216 1.819 . S
C242 C243 1.391 . S
C242 C247 1.391 1_455 S
C243 H225 0.941 . S
C243 C242 1.391 . S
C243 C244 1.396 . S
C244 H228 0.939 . S
C244 C243 1.396 . S
C244 C245 1.397 . S
C245 C244 1.397 . S
C245 C246 1.385 1_455 S
C246 H229 0.940 . S
C246 C245 1.385 1_655 S
C246 C247 1.388 . S
C247 H226 0.939 . S
C247 C242 1.391 1_655 S
C247 C246 1.388 . S
P248 O259 1.490 . S
P248 C262 1.812 . S
P248 C268 1.803 1_545 S
P248 C274 1.819 . S
H249 C263 0.941 . S
H250 C264 0.939 . S
H251 C266 0.940 . S
H252 C267 0.940 . S
H253 C269 0.939 . S
H254 C270 0.942 . S
H255 C272 0.940 . S
H256 C273 0.939 . S
H257 C275 0.941 . S
H258 C279 0.939 . S
O259 P248 1.490 . S
H260 C276 0.939 . S
H261 C278 0.940 . S
C262 P248 1.812 . S
C262 C263 1.389 . S
C262 C267 1.391 . S
C263 H249 0.941 . S
C263 C262 1.389 . S
C263 C264 1.397 . S
C264 H250 0.939 . S
C264 C263 1.397 . S
C264 C265 1.378 . S
C265 C264 1.378 . S
C265 C266 1.378 . S
C266 H251 0.940 . S
C266 C265 1.378 . S
C266 C267 1.396 . S
C267 H252 0.940 . S
C267 C262 1.391 . S
C267 C266 1.396 . S
C268 P248 1.803 1_565 S
C268 C269 1.378 . S
C268 C273 1.400 . S
C269 H253 0.939 . S
C269 C268 1.378 . S
C269 C270 1.361 . S
C270 H254 0.942 . S
C270 C269 1.361 . S
C270 C271 1.369 . S
C271 C270 1.369 . S
C271 C272 1.404 . S
C272 H255 0.940 . S
C272 C271 1.404 . S
C272 C273 1.389 . S
C273 H256 0.939 . S
C273 C268 1.400 . S
C273 C272 1.389 . S
C274 P248 1.819 . S
C274 C275 1.391 . S
C274 C279 1.391 1_545 S
C275 H257 0.941 . S
C275 C274 1.391 . S
C275 C276 1.396 . S
C276 H260 0.939 . S
C276 C275 1.396 . S
C276 C277 1.397 . S
C277 C276 1.397 . S
C277 C278 1.385 1_545 S
C278 H261 0.940 . S
C278 C277 1.385 1_565 S
C278 C279 1.388 . S
C279 H258 0.939 . S
C279 C274 1.391 1_565 S
C279 C278 1.388 . S
P280 O291 1.490 . S
P280 C294 1.812 . S
P280 C300 1.803 . S
P280 C306 1.819 . S
H281 C295 0.941 . S
H282 C296 0.939 . S
H283 C298 0.940 . S
H284 C299 0.940 . S
H285 C301 0.939 . S
H286 C302 0.942 . S
H287 C304 0.940 . S
H288 C305 0.939 . S
H289 C307 0.941 . S
H290 C311 0.939 . S
O291 P280 1.490 . S
H292 C308 0.939 . S
H293 C310 0.940 . S
C294 P280 1.812 . S
C294 C295 1.389 . S
C294 C299 1.391 . S
C295 H281 0.941 . S
C295 C294 1.389 . S
C295 C296 1.397 . S
C296 H282 0.939 . S
C296 C295 1.397 . S
C296 C297 1.378 . S
C297 C296 1.378 . S
C297 C298 1.378 . S
C298 H283 0.940 . S
C298 C297 1.378 . S
C298 C299 1.396 . S
C299 H284 0.940 . S
C299 C294 1.391 . S
C299 C298 1.396 . S
C300 P280 1.803 . S
C300 C301 1.378 . S
C300 C305 1.400 . S
C301 H285 0.939 . S
C301 C300 1.378 . S
C301 C302 1.361 . S
C302 H286 0.942 . S
C302 C301 1.361 . S
C302 C303 1.369 . S
C303 C302 1.369 . S
C303 C304 1.404 . S
C304 H287 0.940 . S
C304 C303 1.404 . S
C304 C305 1.389 . S
C305 H288 0.939 . S
C305 C300 1.400 . S
C305 C304 1.389 . S
C306 P280 1.819 . S
C306 C307 1.391 . S
C306 C311 1.391 . S
C307 H289 0.941 . S
C307 C306 1.391 . S
C307 C308 1.396 . S
C308 H292 0.939 . S
C308 C307 1.396 . S
C308 C309 1.397 . S
C309 C308 1.397 . S
C309 C310 1.385 . S
C310 H293 0.940 . S
C310 C309 1.385 . S
C310 C311 1.388 . S
C311 H290 0.939 . S
C311 C306 1.391 . S
C311 C310 1.388 . S
H312 C320 0.929 . S
H313 C322 0.930 . S
H314 C324 0.930 . S
H315 C327 0.929 . S
H316 C330 0.930 . S
H317 C332 0.960 . S
H318 C332 0.960 . S
H319 C332 0.960 . S
C320 H312 0.929 . S
C320 C321 1.377 . S
C320 C322 1.384 . S
C321 C320 1.377 . S
C321 C327 1.390 . S
C322 H313 0.930 . S
C322 C320 1.384 . S
C322 C323 1.372 . S
C323 C322 1.372 . S
C323 C324 1.400 . S
C323 C328 1.490 . S
C324 H314 0.930 . S
C324 C323 1.400 . S
C324 C327 1.386 . S
H325 C341 0.930 . S
H326 C342 0.931 . S
C327 H315 0.929 . S
C327 C321 1.390 . S
C327 C324 1.386 . S
C328 C323 1.490 . S
C328 C330 1.395 . S
C328 C331 1.403 . S
H329 C335 0.930 . S
C330 H316 0.930 . S
C330 C328 1.395 . S
C330 C333 1.403 . S
C331 C328 1.403 . S
C331 C332 1.524 . S
C331 C335 1.400 . S
C332 H317 0.960 . S
C332 H318 0.960 . S
C332 H319 0.960 . S
C332 C331 1.524 . S
C333 C330 1.403 . S
C333 C334 1.392 . S
C333 C337 1.495 . S
C334 C333 1.392 . S
C334 C335 1.385 . S
C334 C336 1.478 . S
C335 H329 0.930 . S
C335 C331 1.400 . S
C335 C334 1.385 . S
C336 C334 1.478 . S
C336 C338 1.381 . S
C336 C342 1.383 . S
C337 C333 1.495 . S
C337 H343 0.959 . S
C337 H344 0.961 . S
C337 H345 0.960 . S
C338 C336 1.381 . S
C338 C339 1.394 . S
C338 H346 0.930 . S
C339 C338 1.394 . S
C339 C340 1.383 . S
C339 H347 0.929 . S
C340 C339 1.383 . S
C340 C341 1.377 . S
C341 H325 0.930 . S
C341 C340 1.377 . S
C341 C342 1.379 . S
C342 H326 0.931 . S
C342 C336 1.383 . S
C342 C341 1.379 . S
H343 C337 0.959 . S
H344 C337 0.961 . S
H345 C337 0.960 . S
H346 C338 0.930 . S
H347 C339 0.929 . S
H348 C356 0.929 . S
H349 C358 0.930 . S
H350 C360 0.930 . S
H351 C363 0.929 . S
H352 C366 0.930 . S
H353 C368 0.960 . S
H354 C368 0.960 . S
H355 C368 0.960 . S
C356 H348 0.929 . S
C356 C357 1.377 . S
C356 C358 1.384 . S
C357 C356 1.377 . S
C357 C363 1.390 . S
C358 H349 0.930 . S
C358 C356 1.384 . S
C358 C359 1.372 . S
C359 C358 1.372 . S
C359 C360 1.400 . S
C359 C364 1.490 . S
C360 H350 0.930 . S
C360 C359 1.400 . S
C360 C363 1.386 . S
H361 C377 0.930 . S
H362 C378 0.931 . S
C363 H351 0.929 . S
C363 C357 1.390 . S
C363 C360 1.386 . S
C364 C359 1.490 . S
C364 C366 1.395 . S
C364 C367 1.403 . S
H365 C371 0.930 . S
C366 H352 0.930 . S
C366 C364 1.395 . S
C366 C369 1.403 . S
C367 C364 1.403 . S
C367 C368 1.524 . S
C367 C371 1.400 . S
C368 H353 0.960 . S
C368 H354 0.960 . S
C368 H355 0.960 . S
C368 C367 1.524 . S
C369 C366 1.403 . S
C369 C370 1.392 . S
C369 C373 1.495 . S
C370 C369 1.392 . S
C370 C371 1.385 . S
C370 C372 1.478 . S
C371 H365 0.930 . S
C371 C367 1.400 . S
C371 C370 1.385 . S
C372 C370 1.478 . S
C372 C374 1.381 . S
C372 C378 1.383 . S
C373 C369 1.495 . S
C373 H379 0.959 . S
C373 H380 0.961 . S
C373 H381 0.960 . S
C374 C372 1.381 . S
C374 C375 1.394 . S
C374 H382 0.930 . S
C375 C374 1.394 . S
C375 C376 1.383 . S
C375 H383 0.929 . S
C376 C375 1.383 . S
C376 C377 1.377 . S
C377 H361 0.930 . S
C377 C376 1.377 . S
C377 C378 1.379 . S
C378 H362 0.931 . S
C378 C372 1.383 . S
C378 C377 1.379 . S
H379 C373 0.959 . S
H380 C373 0.961 . S
H381 C373 0.960 . S
H382 C374 0.930 . S
H383 C375 0.929 . S
H384 C392 0.929 . S
H385 C394 0.930 . S
H386 C396 0.930 . S
H387 C399 0.929 . S
H388 C402 0.930 . S
H389 C404 0.960 . S
H390 C404 0.960 . S
H391 C404 0.960 . S
C392 H384 0.929 . S
C392 C393 1.377 . S
C392 C394 1.384 . S
C393 C392 1.377 . S
C393 C399 1.390 . S
C394 H385 0.930 . S
C394 C392 1.384 . S
C394 C395 1.372 . S
C395 C394 1.372 . S
C395 C396 1.400 . S
C395 C400 1.490 . S
C396 H386 0.930 . S
C396 C395 1.400 . S
C396 C399 1.386 . S
H397 C413 0.930 . S
H398 C414 0.931 . S
C399 H387 0.929 . S
C399 C393 1.390 . S
C399 C396 1.386 . S
C400 C395 1.490 . S
C400 C402 1.395 . S
C400 C403 1.403 . S
H401 C407 0.930 . S
C402 H388 0.930 . S
C402 C400 1.395 . S
C402 C405 1.403 . S
C403 C400 1.403 . S
C403 C404 1.524 . S
C403 C407 1.400 . S
C404 H389 0.960 . S
C404 H390 0.960 . S
C404 H391 0.960 . S
C404 C403 1.524 . S
C405 C402 1.403 . S
C405 C406 1.392 . S
C405 C409 1.495 . S
C406 C405 1.392 . S
C406 C407 1.385 . S
C406 C408 1.478 . S
C407 H401 0.930 . S
C407 C403 1.400 . S
C407 C406 1.385 . S
C408 C406 1.478 . S
C408 C410 1.381 . S
C408 C414 1.383 . S
C409 C405 1.495 . S
C409 H415 0.959 . S
C409 H416 0.961 . S
C409 H417 0.960 . S
C410 C408 1.381 . S
C410 C411 1.394 . S
C410 H418 0.930 . S
C411 C410 1.394 . S
C411 C412 1.383 . S
C411 H419 0.929 . S
C412 C411 1.383 . S
C412 C413 1.377 . S
C413 H397 0.930 . S
C413 C412 1.377 . S
C413 C414 1.379 . S
C414 H398 0.931 . S
C414 C408 1.383 . S
C414 C413 1.379 . S
H415 C409 0.959 . S
H416 C409 0.961 . S
H417 C409 0.960 . S
H418 C410 0.930 . S
H419 C411 0.929 . S
H420 C428 0.929 . S
H421 C430 0.930 . S
H422 C432 0.930 . S
H423 C435 0.929 . S
H424 C438 0.930 . S
H425 C440 0.960 . S
H426 C440 0.960 . S
H427 C440 0.960 . S
C428 H420 0.929 . S
C428 C429 1.377 . S
C428 C430 1.384 . S
C429 C428 1.377 . S
C429 C435 1.390 . S
C430 H421 0.930 . S
C430 C428 1.384 . S
C430 C431 1.372 . S
C431 C430 1.372 . S
C431 C432 1.400 . S
C431 C436 1.490 . S
C432 H422 0.930 . S
C432 C431 1.400 . S
C432 C435 1.386 . S
H433 C449 0.930 . S
H434 C450 0.931 . S
C435 H423 0.929 . S
C435 C429 1.390 . S
C435 C432 1.386 . S
C436 C431 1.490 . S
C436 C438 1.395 . S
C436 C439 1.403 . S
H437 C443 0.930 . S
C438 H424 0.930 . S
C438 C436 1.395 . S
C438 C441 1.403 . S
C439 C436 1.403 . S
C439 C440 1.524 . S
C439 C443 1.400 . S
C440 H425 0.960 . S
C440 H426 0.960 . S
C440 H427 0.960 . S
C440 C439 1.524 . S
C441 C438 1.403 . S
C441 C442 1.392 . S
C441 C445 1.495 . S
C442 C441 1.392 . S
C442 C443 1.385 . S
C442 C444 1.478 . S
C443 H437 0.930 . S
C443 C439 1.400 . S
C443 C442 1.385 . S
C444 C442 1.478 . S
C444 C446 1.381 . S
C444 C450 1.383 . S
C445 C441 1.495 . S
C445 H451 0.959 . S
C445 H452 0.961 . S
C445 H453 0.960 . S
C446 C444 1.381 . S
C446 C447 1.394 . S
C446 H454 0.930 . S
C447 C446 1.394 . S
C447 C448 1.383 . S
C447 H455 0.929 . S
C448 C447 1.383 . S
C448 C449 1.377 . S
C449 H433 0.930 . S
C449 C448 1.377 . S
C449 C450 1.379 . S
C450 H434 0.931 . S
C450 C444 1.383 . S
C450 C449 1.379 . S
H451 C445 0.959 . S
H452 C445 0.961 . S
H453 C445 0.960 . S
H454 C446 0.930 . S
H455 C447 0.929 . S
H456 C464 0.929 . S
H457 C466 0.930 . S
H458 C468 0.930 . S
H459 C471 0.929 . S
H460 C474 0.930 . S
H461 C476 0.960 . S
H462 C476 0.960 . S
H463 C476 0.960 . S
C464 H456 0.929 . S
C464 C465 1.377 . S
C464 C466 1.384 . S
C465 C464 1.377 . S
C465 C471 1.390 . S
C466 H457 0.930 . S
C466 C464 1.384 . S
C466 C467 1.372 . S
C467 C466 1.372 . S
C467 C468 1.400 . S
C467 C472 1.490 . S
C468 H458 0.930 . S
C468 C467 1.400 . S
C468 C471 1.386 . S
H469 C485 0.930 . S
H470 C486 0.931 . S
C471 H459 0.929 . S
C471 C465 1.390 . S
C471 C468 1.386 . S
C472 C467 1.490 . S
C472 C474 1.395 . S
C472 C475 1.403 . S
H473 C479 0.930 . S
C474 H460 0.930 . S
C474 C472 1.395 . S
C474 C477 1.403 . S
C475 C472 1.403 . S
C475 C476 1.524 . S
C475 C479 1.400 . S
C476 H461 0.960 . S
C476 H462 0.960 . S
C476 H463 0.960 . S
C476 C475 1.524 . S
C477 C474 1.403 . S
C477 C478 1.392 . S
C477 C481 1.495 . S
C478 C477 1.392 . S
C478 C479 1.385 . S
C478 C480 1.478 . S
C479 H473 0.930 . S
C479 C475 1.400 . S
C479 C478 1.385 . S
C480 C478 1.478 . S
C480 C482 1.381 . S
C480 C486 1.383 . S
C481 C477 1.495 . S
C481 H487 0.959 . S
C481 H488 0.961 . S
C481 H489 0.960 . S
C482 C480 1.381 . S
C482 C483 1.394 . S
C482 H490 0.930 . S
C483 C482 1.394 . S
C483 C484 1.383 . S
C483 H491 0.929 . S
C484 C483 1.383 . S
C484 C485 1.377 . S
C485 H469 0.930 . S
C485 C484 1.377 . S
C485 C486 1.379 . S
C486 H470 0.931 . S
C486 C480 1.383 . S
C486 C485 1.379 . S
H487 C481 0.959 . S
H488 C481 0.961 . S
H489 C481 0.960 . S
H490 C482 0.930 . S
H491 C483 0.929 . S
H492 C500 0.929 . S
H493 C502 0.930 . S
H494 C504 0.930 . S
H495 C507 0.929 . S
H496 C510 0.930 . S
H497 C512 0.960 . S
H498 C512 0.960 . S
H499 C512 0.960 . S
C500 H492 0.929 . S
C500 C501 1.377 . S
C500 C502 1.384 . S
C501 C500 1.377 . S
C501 C507 1.390 . S
C502 H493 0.930 . S
C502 C500 1.384 . S
C502 C503 1.372 . S
C503 C502 1.372 . S
C503 C504 1.400 . S
C503 C508 1.490 . S
C504 H494 0.930 . S
C504 C503 1.400 . S
C504 C507 1.386 . S
H505 C521 0.930 . S
H506 C522 0.931 . S
C507 H495 0.929 . S
C507 C501 1.390 . S
C507 C504 1.386 . S
C508 C503 1.490 . S
C508 C510 1.395 . S
C508 C511 1.403 . S
H509 C515 0.930 . S
C510 H496 0.930 . S
C510 C508 1.395 . S
C510 C513 1.403 . S
C511 C508 1.403 . S
C511 C512 1.524 . S
C511 C515 1.400 . S
C512 H497 0.960 . S
C512 H498 0.960 . S
C512 H499 0.960 . S
C512 C511 1.524 . S
C513 C510 1.403 . S
C513 C514 1.392 . S
C513 C517 1.495 . S
C514 C513 1.392 . S
C514 C515 1.385 . S
C514 C516 1.478 . S
C515 H509 0.930 . S
C515 C511 1.400 . S
C515 C514 1.385 . S
C516 C514 1.478 . S
C516 C518 1.381 . S
C516 C522 1.383 . S
C517 C513 1.495 . S
C517 H523 0.959 . S
C517 H524 0.961 . S
C517 H525 0.960 . S
C518 C516 1.381 . S
C518 C519 1.394 . S
C518 H526 0.930 . S
C519 C518 1.394 . S
C519 C520 1.383 . S
C519 H527 0.929 . S
C520 C519 1.383 . S
C520 C521 1.377 . S
C521 H505 0.930 . S
C521 C520 1.377 . S
C521 C522 1.379 . S
C522 H506 0.931 . S
C522 C516 1.383 . S
C522 C521 1.379 . S
H523 C517 0.959 . S
H524 C517 0.961 . S
H525 C517 0.960 . S
H526 C518 0.930 . S
H527 C519 0.929 . S
H528 C536 0.929 . S
H529 C538 0.930 . S
H530 C540 0.930 . S
H531 C543 0.929 . S
H532 C546 0.930 . S
H533 C548 0.960 . S
H534 C548 0.960 . S
H535 C548 0.960 . S
C536 H528 0.929 . S
C536 C537 1.377 . S
C536 C538 1.384 . S
C537 C536 1.377 . S
C537 C543 1.390 . S
C538 H529 0.930 . S
C538 C536 1.384 . S
C538 C539 1.372 . S
C539 C538 1.372 . S
C539 C540 1.400 . S
C539 C544 1.490 . S
C540 H530 0.930 . S
C540 C539 1.400 . S
C540 C543 1.386 . S
H541 C557 0.930 . S
H542 C558 0.931 . S
C543 H531 0.929 . S
C543 C537 1.390 . S
C543 C540 1.386 . S
C544 C539 1.490 . S
C544 C546 1.395 . S
C544 C547 1.403 . S
H545 C551 0.930 . S
C546 H532 0.930 . S
C546 C544 1.395 . S
C546 C549 1.403 . S
C547 C544 1.403 . S
C547 C548 1.524 . S
C547 C551 1.400 . S
C548 H533 0.960 . S
C548 H534 0.960 . S
C548 H535 0.960 . S
C548 C547 1.524 . S
C549 C546 1.403 . S
C549 C550 1.392 . S
C549 C553 1.495 . S
C550 C549 1.392 . S
C550 C551 1.385 . S
C550 C552 1.478 . S
C551 H545 0.930 . S
C551 C547 1.400 . S
C551 C550 1.385 . S
C552 C550 1.478 . S
C552 C554 1.381 . S
C552 C558 1.383 . S
C553 C549 1.495 . S
C553 H559 0.959 . S
C553 H560 0.961 . S
C553 H561 0.960 . S
C554 C552 1.381 . S
C554 C555 1.394 . S
C554 H562 0.930 . S
C555 C554 1.394 . S
C555 C556 1.383 . S
C555 H563 0.929 . S
C556 C555 1.383 . S
C556 C557 1.377 . S
C557 H541 0.930 . S
C557 C556 1.377 . S
C557 C558 1.379 . S
C558 H542 0.931 . S
C558 C552 1.383 . S
C558 C557 1.379 . S
H559 C553 0.959 . S
H560 C553 0.961 . S
H561 C553 0.960 . S
H562 C554 0.930 . S
H563 C555 0.929 . S
H564 C572 0.929 . S
H565 C574 0.930 . S
H566 C576 0.930 . S
H567 C579 0.929 . S
H568 C582 0.930 . S
H569 C584 0.960 . S
H570 C584 0.960 . S
H571 C584 0.960 . S
C572 H564 0.929 . S
C572 C573 1.377 . S
C572 C574 1.384 . S
C573 C572 1.377 . S
C573 C579 1.390 . S
C574 H565 0.930 . S
C574 C572 1.384 . S
C574 C575 1.372 . S
C575 C574 1.372 . S
C575 C576 1.400 . S
C575 C580 1.490 . S
C576 H566 0.930 . S
C576 C575 1.400 . S
C576 C579 1.386 . S
H577 C593 0.930 . S
H578 C594 0.931 . S
C579 H567 0.929 . S
C579 C573 1.390 . S
C579 C576 1.386 . S
C580 C575 1.490 . S
C580 C582 1.395 . S
C580 C583 1.403 . S
H581 C587 0.930 . S
C582 H568 0.930 . S
C582 C580 1.395 . S
C582 C585 1.403 . S
C583 C580 1.403 . S
C583 C584 1.524 . S
C583 C587 1.400 . S
C584 H569 0.960 . S
C584 H570 0.960 . S
C584 H571 0.960 . S
C584 C583 1.524 . S
C585 C582 1.403 . S
C585 C586 1.392 . S
C585 C589 1.495 . S
C586 C585 1.392 . S
C586 C587 1.385 . S
C586 C588 1.478 . S
C587 H581 0.930 . S
C587 C583 1.400 . S
C587 C586 1.385 . S
C588 C586 1.478 . S
C588 C590 1.381 . S
C588 C594 1.383 . S
C589 C585 1.495 . S
C589 H595 0.959 . S
C589 H596 0.961 . S
C589 H597 0.960 . S
C590 C588 1.381 . S
C590 C591 1.394 . S
C590 H598 0.930 . S
C591 C590 1.394 . S
C591 C592 1.383 . S
C591 H599 0.929 . S
C592 C591 1.383 . S
C592 C593 1.377 . S
C593 H577 0.930 . S
C593 C592 1.377 . S
C593 C594 1.379 . S
C594 H578 0.931 . S
C594 C588 1.383 . S
C594 C593 1.379 . S
H595 C589 0.959 . S
H596 C589 0.961 . S
H597 C589 0.960 . S
H598 C590 0.930 . S
H599 C591 0.929 . S
H600 C608 0.929 . S
H601 C610 0.930 . S
H602 C612 0.930 . S
H603 C615 0.929 . S
H604 C618 0.930 . S
H605 C620 0.960 . S
H606 C620 0.960 . S
H607 C620 0.960 . S
C608 H600 0.929 . S
C608 C609 1.377 . S
C608 C610 1.384 . S
C609 C608 1.377 . S
C609 C615 1.390 . S
C610 H601 0.930 . S
C610 C608 1.384 . S
C610 C611 1.372 . S
C611 C610 1.372 . S
C611 C612 1.400 . S
C611 C616 1.490 . S
C612 H602 0.930 . S
C612 C611 1.400 . S
C612 C615 1.386 . S
H613 C629 0.930 . S
H614 C630 0.931 . S
C615 H603 0.929 . S
C615 C609 1.390 . S
C615 C612 1.386 . S
C616 C611 1.490 . S
C616 C618 1.395 . S
C616 C619 1.403 . S
H617 C623 0.930 . S
C618 H604 0.930 . S
C618 C616 1.395 . S
C618 C621 1.403 . S
C619 C616 1.403 . S
C619 C620 1.524 . S
C619 C623 1.400 . S
C620 H605 0.960 . S
C620 H606 0.960 . S
C620 H607 0.960 . S
C620 C619 1.524 . S
C621 C618 1.403 . S
C621 C622 1.392 . S
C621 C625 1.495 . S
C622 C621 1.392 . S
C622 C623 1.385 . S
C622 C624 1.478 . S
C623 H617 0.930 . S
C623 C619 1.400 . S
C623 C622 1.385 . S
C624 C622 1.478 . S
C624 C626 1.381 . S
C624 C630 1.383 . S
C625 C621 1.495 . S
C625 H631 0.959 . S
C625 H632 0.961 . S
C625 H633 0.960 . S
C626 C624 1.381 . S
C626 C627 1.394 . S
C626 H634 0.930 . S
C627 C626 1.394 . S
C627 C628 1.383 . S
C627 H635 0.929 . S
C628 C627 1.383 . S
C628 C629 1.377 . S
C629 H613 0.930 . S
C629 C628 1.377 . S
C629 C630 1.379 . S
C630 H614 0.931 . S
C630 C624 1.383 . S
C630 C629 1.379 . S
H631 C625 0.959 . S
H632 C625 0.961 . S
H633 C625 0.960 . S
H634 C626 0.930 . S
H635 C627 0.929 . S
H636 C644 0.929 . S
H637 C646 0.930 . S
H638 C648 0.930 . S
H639 C651 0.929 . S
H640 C654 0.930 . S
H641 C656 0.960 . S
H642 C656 0.960 . S
H643 C656 0.960 . S
C644 H636 0.929 . S
C644 C645 1.377 . S
C644 C646 1.384 . S
C645 C644 1.377 . S
C645 C651 1.390 . S
C646 H637 0.930 . S
C646 C644 1.384 . S
C646 C647 1.372 . S
C647 C646 1.372 . S
C647 C648 1.400 . S
C647 C652 1.490 . S
C648 H638 0.930 . S
C648 C647 1.400 . S
C648 C651 1.386 . S
H649 C665 0.930 . S
H650 C666 0.931 . S
C651 H639 0.929 . S
C651 C645 1.390 . S
C651 C648 1.386 . S
C652 C647 1.490 . S
C652 C654 1.395 . S
C652 C655 1.403 . S
H653 C659 0.930 . S
C654 H640 0.930 . S
C654 C652 1.395 . S
C654 C657 1.403 . S
C655 C652 1.403 . S
C655 C656 1.524 . S
C655 C659 1.400 . S
C656 H641 0.960 . S
C656 H642 0.960 . S
C656 H643 0.960 . S
C656 C655 1.524 . S
C657 C654 1.403 . S
C657 C658 1.392 . S
C657 C661 1.495 . S
C658 C657 1.392 . S
C658 C659 1.385 . S
C658 C660 1.478 . S
C659 H653 0.930 . S
C659 C655 1.400 . S
C659 C658 1.385 . S
C660 C658 1.478 . S
C660 C662 1.381 . S
C660 C666 1.383 . S
C661 C657 1.495 . S
C661 H667 0.959 . S
C661 H668 0.961 . S
C661 H669 0.960 . S
C662 C660 1.381 . S
C662 C663 1.394 . S
C662 H670 0.930 . S
C663 C662 1.394 . S
C663 C664 1.383 . S
C663 H671 0.929 . S
C664 C663 1.383 . S
C664 C665 1.377 . S
C665 H649 0.930 . S
C665 C664 1.377 . S
C665 C666 1.379 . S
C666 H650 0.931 . S
C666 C660 1.383 . S
C666 C665 1.379 . S
H667 C661 0.959 . S
H668 C661 0.961 . S
H669 C661 0.960 . S
H670 C662 0.930 . S
H671 C663 0.929 . S
H672 C680 0.929 . S
H673 C682 0.930 . S
H674 C684 0.930 . S
H675 C687 0.929 . S
H676 C690 0.930 . S
H677 C692 0.960 . S
H678 C692 0.960 . S
H679 C692 0.960 . S
C680 H672 0.929 . S
C680 C681 1.377 . S
C680 C682 1.384 . S
C681 C680 1.377 . S
C681 C687 1.390 . S
C682 H673 0.930 . S
C682 C680 1.384 . S
C682 C683 1.372 . S
C683 C682 1.372 . S
C683 C684 1.400 . S
C683 C688 1.490 . S
C684 H674 0.930 . S
C684 C683 1.400 . S
C684 C687 1.386 . S
H685 C701 0.930 . S
H686 C702 0.931 . S
C687 H675 0.929 . S
C687 C681 1.390 . S
C687 C684 1.386 . S
C688 C683 1.490 . S
C688 C690 1.395 . S
C688 C691 1.403 . S
H689 C695 0.930 . S
C690 H676 0.930 . S
C690 C688 1.395 . S
C690 C693 1.403 . S
C691 C688 1.403 . S
C691 C692 1.524 . S
C691 C695 1.400 . S
C692 H677 0.960 . S
C692 H678 0.960 . S
C692 H679 0.960 . S
C692 C691 1.524 . S
C693 C690 1.403 . S
C693 C694 1.392 . S
C693 C697 1.495 . S
C694 C693 1.392 . S
C694 C695 1.385 . S
C694 C696 1.478 . S
C695 H689 0.930 . S
C695 C691 1.400 . S
C695 C694 1.385 . S
C696 C694 1.478 . S
C696 C698 1.381 . S
C696 C702 1.383 . S
C697 C693 1.495 . S
C697 H703 0.959 . S
C697 H704 0.961 . S
C697 H705 0.960 . S
C698 C696 1.381 . S
C698 C699 1.394 . S
C698 H706 0.930 . S
C699 C698 1.394 . S
C699 C700 1.383 . S
C699 H707 0.929 . S
C700 C699 1.383 . S
C700 C701 1.377 . S
C701 H685 0.930 . S
C701 C700 1.377 . S
C701 C702 1.379 . S
C702 H686 0.931 . S
C702 C696 1.383 . S
C702 C701 1.379 . S
H703 C697 0.959 . S
H704 C697 0.961 . S
H705 C697 0.960 . S
H706 C698 0.930 . S
H707 C699 0.929 . S
H708 C716 0.929 . S
H709 C718 0.930 . S
H710 C720 0.930 . S
H711 C723 0.929 . S
H712 C726 0.930 . S
H713 C728 0.960 . S
H714 C728 0.960 . S
H715 C728 0.960 . S
C716 H708 0.929 . S
C716 C717 1.377 . S
C716 C718 1.384 . S
C717 C716 1.377 . S
C717 C723 1.390 . S
C718 H709 0.930 . S
C718 C716 1.384 . S
C718 C719 1.372 . S
C719 C718 1.372 . S
C719 C720 1.400 . S
C719 C724 1.490 . S
C720 H710 0.930 . S
C720 C719 1.400 . S
C720 C723 1.386 . S
H721 C737 0.930 . S
H722 C738 0.931 . S
C723 H711 0.929 . S
C723 C717 1.390 . S
C723 C720 1.386 . S
C724 C719 1.490 . S
C724 C726 1.395 . S
C724 C727 1.403 . S
H725 C731 0.930 . S
C726 H712 0.930 . S
C726 C724 1.395 . S
C726 C729 1.403 . S
C727 C724 1.403 . S
C727 C728 1.524 . S
C727 C731 1.400 . S
C728 H713 0.960 . S
C728 H714 0.960 . S
C728 H715 0.960 . S
C728 C727 1.524 . S
C729 C726 1.403 . S
C729 C730 1.392 . S
C729 C733 1.495 . S
C730 C729 1.392 . S
C730 C731 1.385 . S
C730 C732 1.478 . S
C731 H725 0.930 . S
C731 C727 1.400 . S
C731 C730 1.385 . S
C732 C730 1.478 . S
C732 C734 1.381 . S
C732 C738 1.383 . S
C733 C729 1.495 . S
C733 H739 0.959 . S
C733 H740 0.961 . S
C733 H741 0.960 . S
C734 C732 1.381 . S
C734 C735 1.394 . S
C734 H742 0.930 . S
C735 C734 1.394 . S
C735 C736 1.383 . S
C735 H743 0.929 . S
C736 C735 1.383 . S
C736 C737 1.377 . S
C737 H721 0.930 . S
C737 C736 1.377 . S
C737 C738 1.379 . S
C738 H722 0.931 . S
C738 C732 1.383 . S
C738 C737 1.379 . S
H739 C733 0.959 . S
H740 C733 0.961 . S
H741 C733 0.960 . S
H742 C734 0.930 . S
H743 C735 0.929 . S
H744 C752 0.929 1_655 S
H745 C754 0.930 1_655 S
H746 C756 0.930 . S
H747 C759 0.929 . S
H748 C762 0.930 . S
H749 C764 0.960 . S
H750 C764 0.960 . S
H751 C764 0.960 . S
C752 H744 0.929 1_455 S
C752 C753 1.377 . S
C752 C754 1.384 . S
C753 C752 1.377 . S
C753 C759 1.390 . S
C754 H745 0.930 1_455 S
C754 C752 1.384 . S
C754 C755 1.372 . S
C755 C754 1.372 . S
C755 C756 1.400 . S
C755 C760 1.490 . S
C756 H746 0.930 . S
C756 C755 1.400 . S
C756 C759 1.386 . S
H757 C773 0.930 . S
H758 C774 0.931 1_554 S
C759 H747 0.929 . S
C759 C753 1.390 . S
C759 C756 1.386 . S
C760 C755 1.490 . S
C760 C762 1.395 1_455 S
C760 C763 1.403 . S
H761 C767 0.930 . S
C762 H748 0.930 . S
C762 C760 1.395 1_655 S
C762 C765 1.403 . S
C763 C760 1.403 . S
C763 C764 1.524 . S
C763 C767 1.400 . S
C764 H749 0.960 . S
C764 H750 0.960 . S
C764 H751 0.960 . S
C764 C763 1.524 . S
C765 C762 1.403 . S
C765 C766 1.392 1_655 S
C765 C769 1.495 . S
C766 C765 1.392 1_455 S
C766 C767 1.385 . S
C766 C768 1.478 . S
C767 H761 0.930 . S
C767 C763 1.400 . S
C767 C766 1.385 . S
C768 C766 1.478 . S
C768 C770 1.381 1_554 S
C768 C774 1.383 1_554 S
C769 C765 1.495 . S
C769 H775 0.959 . S
C769 H776 0.961 . S
C769 H777 0.960 . S
C770 C768 1.381 1_556 S
C770 C771 1.394 . S
C770 H778 0.930 1_455 S
C771 C770 1.394 . S
C771 C772 1.383 . S
C771 H779 0.929 1_455 S
C772 C771 1.383 . S
C772 C773 1.377 . S
C773 H757 0.930 . S
C773 C772 1.377 . S
C773 C774 1.379 . S
C774 H758 0.931 1_556 S
C774 C768 1.383 1_556 S
C774 C773 1.379 . S
H775 C769 0.959 . S
H776 C769 0.961 . S
H777 C769 0.960 . S
H778 C770 0.930 1_655 S
H779 C771 0.929 1_655 S
H780 C788 0.929 . S
H781 C790 0.930 . S
H782 C792 0.930 . S
H783 C795 0.929 . S
H784 C798 0.930 . S
H785 C800 0.960 . S
H786 C800 0.960 . S
H787 C800 0.961 . S
C788 H780 0.929 . S
C788 C789 1.377 . S
C788 C790 1.384 . S
C789 C788 1.377 . S
C789 C795 1.390 . S
C790 H781 0.930 . S
C790 C788 1.384 . S
C790 C791 1.372 . S
C791 C790 1.372 . S
C791 C792 1.400 . S
C791 C796 1.490 . S
C792 H782 0.930 . S
C792 C791 1.400 . S
C792 C795 1.386 . S
H793 C809 0.930 . S
H794 C810 0.931 . S
C795 H783 0.929 . S
C795 C789 1.390 . S
C795 C792 1.386 . S
C796 C791 1.490 . S
C796 C798 1.395 . S
C796 C799 1.403 . S
H797 C803 0.941 . S
C798 H784 0.930 . S
C798 C796 1.395 . S
C798 C801 1.403 . S
C799 C796 1.403 . S
C799 C800 1.524 1_545 S
C799 C803 1.400 . S
C800 H785 0.960 . S
C800 H786 0.960 . S
C800 H787 0.961 . S
C800 C799 1.524 1_565 S
C801 C798 1.403 . S
C801 C802 1.392 . S
C801 C805 1.495 . S
C802 C801 1.392 . S
C802 C803 1.385 . S
C802 C804 1.478 . S
C803 H797 0.941 . S
C803 C799 1.400 . S
C803 C802 1.385 . S
C804 C802 1.478 . S
C804 C806 1.381 . S
C804 C810 1.383 . S
C805 C801 1.495 . S
C805 H811 0.959 . S
C805 H812 0.961 . S
C805 H813 0.960 . S
C806 C804 1.381 . S
C806 C807 1.394 . S
C806 H814 0.930 . S
C807 C806 1.394 . S
C807 C808 1.383 . S
C807 H815 0.929 . S
C808 C807 1.383 . S
C808 C809 1.377 . S
C809 H793 0.930 . S
C809 C808 1.377 . S
C809 C810 1.379 . S
C810 H794 0.931 . S
C810 C804 1.383 . S
C810 C809 1.379 . S
H811 C805 0.959 . S
H812 C805 0.961 . S
H813 C805 0.960 . S
H814 C806 0.930 . S
H815 C807 0.929 . S
H816 C824 0.929 . S
H817 C826 0.930 . S
H818 C828 0.930 . S
H819 C831 0.929 . S
H820 C834 0.930 . S
H821 C836 0.960 . S
H822 C836 0.960 . S
H823 C836 0.960 . S
C824 H816 0.929 . S
C824 C825 1.377 . S
C824 C826 1.384 . S
C825 C824 1.377 . S
C825 C831 1.390 . S
C826 H817 0.930 . S
C826 C824 1.384 . S
C826 C827 1.372 . S
C827 C826 1.372 . S
C827 C828 1.400 . S
C827 C832 1.490 . S
C828 H818 0.930 . S
C828 C827 1.400 . S
C828 C831 1.386 . S
H829 C845 0.930 . S
H830 C846 0.931 . S
C831 H819 0.929 . S
C831 C825 1.390 . S
C831 C828 1.386 . S
C832 C827 1.490 . S
C832 C834 1.395 . S
C832 C835 1.403 . S
H833 C839 0.930 . S
C834 H820 0.930 . S
C834 C832 1.395 . S
C834 C837 1.403 . S
C835 C832 1.403 . S
C835 C836 1.524 . S
C835 C839 1.400 . S
C836 H821 0.960 . S
C836 H822 0.960 . S
C836 H823 0.960 . S
C836 C835 1.524 . S
C837 C834 1.403 . S
C837 C838 1.392 . S
C837 C841 1.495 . S
C838 C837 1.392 . S
C838 C839 1.385 . S
C838 C840 1.478 . S
C839 H833 0.930 . S
C839 C835 1.400 . S
C839 C838 1.385 . S
C840 C838 1.478 . S
C840 C842 1.381 . S
C840 C846 1.383 . S
C841 C837 1.495 . S
C841 H847 0.959 . S
C841 H848 0.961 . S
C841 H849 0.960 . S
C842 C840 1.381 . S
C842 C843 1.394 . S
C842 H850 0.930 . S
C843 C842 1.394 . S
C843 C844 1.383 . S
C843 H851 0.929 . S
C844 C843 1.383 . S
C844 C845 1.377 . S
C845 H829 0.930 . S
C845 C844 1.377 . S
C845 C846 1.379 . S
C846 H830 0.931 . S
C846 C840 1.383 . S
C846 C845 1.379 . S
H847 C841 0.959 . S
H848 C841 0.961 . S
H849 C841 0.960 . S
H850 C842 0.930 . S
H851 C843 0.929 . S
H852 C860 0.929 . S
H853 C862 0.930 . S
H854 C864 0.930 . S
H855 C867 0.929 . S
H856 C870 0.930 . S
H857 C872 0.960 . S
H858 C872 0.960 . S
H859 C872 0.960 . S
C860 H852 0.929 . S
C860 C861 1.377 . S
C860 C862 1.384 . S
C861 C860 1.377 . S
C861 C867 1.390 . S
C862 H853 0.930 . S
C862 C860 1.384 . S
C862 C863 1.372 . S
C863 C862 1.372 . S
C863 C864 1.400 . S
C863 C868 1.490 . S
C864 H854 0.930 . S
C864 C863 1.400 . S
C864 C867 1.386 . S
H865 C881 0.930 . S
H866 C882 0.931 . S
C867 H855 0.929 . S
C867 C861 1.390 . S
C867 C864 1.386 . S
C868 C863 1.490 . S
C868 C870 1.395 1_545 S
C868 C871 1.403 . S
H869 C875 0.930 . S
C870 H856 0.930 . S
C870 C868 1.395 1_565 S
C870 C873 1.403 . S
C871 C868 1.403 . S
C871 C872 1.524 . S
C871 C875 1.400 . S
C872 H857 0.960 . S
C872 H858 0.960 . S
C872 H859 0.960 . S
C872 C871 1.524 . S
C873 C870 1.403 . S
C873 C874 1.392 1_565 S
C873 C877 1.495 . S
C874 C873 1.392 1_545 S
C874 C875 1.385 . S
C874 C876 1.478 . S
C875 H869 0.930 . S
C875 C871 1.400 . S
C875 C874 1.385 . S
C876 C874 1.478 . S
C876 C878 1.381 1_545 S
C876 C882 1.383 . S
C877 C873 1.495 . S
C877 H883 0.959 . S
C877 H884 0.961 . S
C877 H885 0.960 . S
C878 C876 1.381 1_565 S
C878 C879 1.394 . S
C878 H886 0.930 . S
C879 C878 1.394 . S
C879 C880 1.383 1_565 S
C879 H887 0.929 . S
C880 C879 1.383 1_545 S
C880 C881 1.377 . S
C881 H865 0.930 . S
C881 C880 1.377 . S
C881 C882 1.379 . S
C882 H866 0.931 . S
C882 C876 1.383 . S
C882 C881 1.379 . S
H883 C877 0.959 . S
H884 C877 0.961 . S
H885 C877 0.960 . S
H886 C878 0.930 . S
H887 C879 0.929 . S
H888 C896 0.929 . S
H889 C898 0.930 . S
H890 C900 0.930 . S
H891 C903 0.929 . S
H892 C906 0.930 . S
H893 C908 0.960 . S
H894 C908 0.960 . S
H895 C908 0.960 . S
C896 H888 0.929 . S
C896 C897 1.377 . S
C896 C898 1.384 . S
C897 C896 1.377 . S
C897 C903 1.390 . S
C898 H889 0.930 . S
C898 C896 1.384 . S
C898 C899 1.372 . S
C899 C898 1.372 . S
C899 C900 1.400 . S
C899 C904 1.490 . S
C900 H890 0.930 . S
C900 C899 1.400 . S
C900 C903 1.386 . S
H901 C917 0.930 . S
H902 C918 0.931 . S
C903 H891 0.929 . S
C903 C897 1.390 . S
C903 C900 1.386 . S
C904 C899 1.490 . S
C904 C906 1.395 . S
C904 C907 1.403 . S
H905 C911 0.930 . S
C906 H892 0.930 . S
C906 C904 1.395 . S
C906 C909 1.403 . S
C907 C904 1.403 . S
C907 C908 1.524 . S
C907 C911 1.400 . S
C908 H893 0.960 . S
C908 H894 0.960 . S
C908 H895 0.960 . S
C908 C907 1.524 . S
C909 C906 1.403 . S
C909 C910 1.392 . S
C909 C913 1.495 . S
C910 C909 1.392 . S
C910 C911 1.385 . S
C910 C912 1.478 . S
C911 H905 0.930 . S
C911 C907 1.400 . S
C911 C910 1.385 . S
C912 C910 1.478 . S
C912 C914 1.381 1_556 S
C912 C918 1.383 1_556 S
C913 C909 1.495 . S
C913 H919 0.959 . S
C913 H920 0.961 . S
C913 H921 0.960 . S
C914 C912 1.381 1_554 S
C914 C915 1.394 . S
C914 H922 0.930 1_554 S
C915 C914 1.394 . S
C915 C916 1.383 . S
C915 H923 0.929 . S
C916 C915 1.383 . S
C916 C917 1.377 . S
C917 H901 0.930 . S
C917 C916 1.377 . S
C917 C918 1.379 . S
C918 H902 0.931 . S
C918 C912 1.383 1_554 S
C918 C917 1.379 . S
H919 C913 0.959 . S
H920 C913 0.961 . S
H921 C913 0.960 . S
H922 C914 0.930 1_556 S
H923 C915 0.929 . S
H924 C932 0.929 . S
H925 C934 0.930 . S
H926 C936 0.930 . S
H927 C939 0.929 . S
H928 C942 0.930 . S
H929 C944 0.960 . S
H930 C944 0.960 . S
H931 C944 0.960 . S
C932 H924 0.929 . S
C932 C933 1.377 . S
C932 C934 1.384 . S
C933 C932 1.377 . S
C933 C939 1.390 . S
C934 H925 0.930 . S
C934 C932 1.384 . S
C934 C935 1.372 . S
C935 C934 1.372 . S
C935 C936 1.400 . S
C935 C940 1.490 . S
C936 H926 0.930 . S
C936 C935 1.400 . S
C936 C939 1.386 . S
H937 C953 0.930 . S
H938 C954 0.931 . S
C939 H927 0.929 . S
C939 C933 1.390 . S
C939 C936 1.386 . S
C940 C935 1.490 . S
C940 C942 1.395 1_455 S
C940 C943 1.403 . S
H941 C947 0.930 . S
C942 H928 0.930 . S
C942 C940 1.395 1_655 S
C942 C945 1.403 . S
C943 C940 1.403 . S
C943 C944 1.524 . S
C943 C947 1.400 . S
C944 H929 0.960 . S
C944 H930 0.960 . S
C944 H931 0.960 . S
C944 C943 1.524 . S
C945 C942 1.403 . S
C945 C946 1.392 1_655 S
C945 C949 1.495 . S
C946 C945 1.392 1_455 S
C946 C947 1.385 . S
C946 C948 1.478 . S
C947 H941 0.930 . S
C947 C943 1.400 . S
C947 C946 1.385 . S
C948 C946 1.478 . S
C948 C950 1.381 . S
C948 C954 1.383 1_455 S
C949 C945 1.495 . S
C949 H955 0.959 . S
C949 H956 0.961 . S
C949 H957 0.960 . S
C950 C948 1.381 . S
C950 C951 1.394 . S
C950 H958 0.930 . S
C951 C950 1.394 . S
C951 C952 1.383 . S
C951 H959 0.929 . S
C952 C951 1.383 . S
C952 C953 1.377 1_455 S
C953 H937 0.930 . S
C953 C952 1.377 1_655 S
C953 C954 1.379 . S
C954 H938 0.931 . S
C954 C948 1.383 1_655 S
C954 C953 1.379 . S
H955 C949 0.959 . S
H956 C949 0.961 . S
H957 C949 0.960 . S
H958 C950 0.930 . S
H959 C951 0.929 . S
C321 C9 0.381 . S
C340 C303 0.390 . S
C357 C49 0.278 . S
C376 C239 0.258 . S
C393 C89 0.266 . S
C412 C271 0.276 . S
C429 C26 0.375 . S
C448 C297 0.292 . S
C484 C233 0.346 . S
C465 C66 0.390 . S
C520 C265 0.380 . S
C501 C106 0.419 . S
C537 C43 2.865 . S
C556 C175 2.819 . S
C573 C83 2.978 . S
C592 C207 2.916 . S
C609 C22 3.054 . S
C628 C137 2.980 . S
C664 C169 2.983 . S
C645 C62 3.044 . S
C700 C201 2.876 . S
C681 C102 2.928 . S
C717 C3 2.856 . S
C736 C143 2.802 . S
C772 C213 1.737 . S
C753 C15 1.725 . S
C789 C55 1.727 . S
C808 C149 1.750 . S
C825 C95 1.722 . S
C844 C181 1.726 . S
C880 C277 1.090 . S
C861 C42 1.095 . S
C916 C309 1.098 . S
C897 C82 1.099 . S
C933 C2 1.091 . S
C952 C245 1.106 . S
