# Generated by pormake.
# Topology zzz, (3,6)-cn, num edge types: 1
# Building blocks:
#     Node 0, Type 0, BuildingBlock: QEWDON_clean_linker_0, # of connection points: 3
#     Node 1, Type 0, BuildingBlock: QEWDON_clean_linker_0, # of connection points: 3
#     Node 2, Type 0, BuildingBlock: QEWDON_clean_linker_0, # of connection points: 3
#     Node 3, Type 0, BuildingBlock: QEWDON_clean_linker_0, # of connection points: 3
#     Node 4, Type 0, BuildingBlock: QEWDON_clean_linker_0, # of connection points: 3
#     Node 5, Type 0, BuildingBlock: QEWDON_clean_linker_0, # of connection points: 3
#     Node 6, Type 0, BuildingBlock: QEWDON_clean_linker_0, # of connection points: 3
#     Node 7, Type 0, BuildingBlock: QEWDON_clean_linker_0, # of connection points: 3
#     Node 8, Type 1, BuildingBlock: KUMBUR_clean_sbu_1, # of connection points: 6
#     Node 9, Type 1, BuildingBlock: KUMBUR_clean_sbu_1, # of connection points: 6
#     Node 10, Type 1, BuildingBlock: KUMBUR_clean_sbu_1, # of connection points: 6
#     Node 11, Type 1, BuildingBlock: KUMBUR_clean_sbu_1, # of connection points: 6
#     Edge 12, Type (0, 1), BuildingBlock: XIVTED_clean_linker_0, # of connection points: 2
#     Edge 13, Type (0, 1), BuildingBlock: XIVTED_clean_linker_0, # of connection points: 2
#     Edge 14, Type (0, 1), BuildingBlock: XIVTED_clean_linker_0, # of connection points: 2
#     Edge 15, Type (0, 1), BuildingBlock: XIVTED_clean_linker_0, # of connection points: 2
#     Edge 16, Type (0, 1), BuildingBlock: XIVTED_clean_linker_0, # of connection points: 2
#     Edge 17, Type (0, 1), BuildingBlock: XIVTED_clean_linker_0, # of connection points: 2
#     Edge 18, Type (0, 1), BuildingBlock: XIVTED_clean_linker_0, # of connection points: 2
#     Edge 19, Type (0, 1), BuildingBlock: XIVTED_clean_linker_0, # of connection points: 2
#     Edge 20, Type (0, 1), BuildingBlock: XIVTED_clean_linker_0, # of connection points: 2
#     Edge 21, Type (0, 1), BuildingBlock: XIVTED_clean_linker_0, # of connection points: 2
#     Edge 22, Type (0, 1), BuildingBlock: XIVTED_clean_linker_0, # of connection points: 2
#     Edge 23, Type (0, 1), BuildingBlock: XIVTED_clean_linker_0, # of connection points: 2
#     Edge 24, Type (0, 1), BuildingBlock: XIVTED_clean_linker_0, # of connection points: 2
#     Edge 25, Type (0, 1), BuildingBlock: XIVTED_clean_linker_0, # of connection points: 2
#     Edge 26, Type (0, 1), BuildingBlock: XIVTED_clean_linker_0, # of connection points: 2
#     Edge 27, Type (0, 1), BuildingBlock: XIVTED_clean_linker_0, # of connection points: 2
#     Edge 28, Type (0, 1), BuildingBlock: XIVTED_clean_linker_0, # of connection points: 2
#     Edge 29, Type (0, 1), BuildingBlock: XIVTED_clean_linker_0, # of connection points: 2
#     Edge 30, Type (0, 1), BuildingBlock: XIVTED_clean_linker_0, # of connection points: 2
#     Edge 31, Type (0, 1), BuildingBlock: XIVTED_clean_linker_0, # of connection points: 2
#     Edge 32, Type (0, 1), BuildingBlock: XIVTED_clean_linker_0, # of connection points: 2
#     Edge 33, Type (0, 1), BuildingBlock: XIVTED_clean_linker_0, # of connection points: 2
#     Edge 34, Type (0, 1), BuildingBlock: XIVTED_clean_linker_0, # of connection points: 2
#     Edge 35, Type (0, 1), BuildingBlock: XIVTED_clean_linker_0, # of connection points: 2
# Relax obj value: 0.115
# Max RMSD: 0.095
# Mean RMSD: 0.038
data_MOF--net-zzz--node1-KUMBUR_clean_sbu_1--node2-QEWDON_clean_linker_0--edge1-XIVTED_clean_linker_0
_symmetry_space_group_name_H-M    P1
_symmetry_Int_Tables_number       1
_symmetry_cell_setting            triclinic
loop_
_symmetry_equiv_pos_as_xyz
'x, y, z'
_cell_length_a     53.755173
_cell_length_b     53.787091
_cell_length_c     15.499078
_cell_angle_alpha  90.103799
_cell_angle_beta   90.144215
_cell_angle_gamma 90.261165
loop_
_atom_site_label
_atom_site_type_symbol
_atom_site_fract_x
_atom_site_fract_y
_atom_site_fract_z
_atom_type_partial_charge
H0 H 0.76813 0.567 0.11993 0.0
C1 C 0.78137 0.56234 0.16992 0.0
C2 C 0.80642 0.56088 0.14695 0.0
C3 C 0.77342 0.55816 0.25499 0.0
H4 H 0.84384 0.55517 0.19227 0.0
C5 C 0.82443 0.55654 0.21061 0.0
C6 C 0.81781 0.55324 0.2973 0.0
C7 C 0.79212 0.55393 0.31947 0.0
C8 C 0.74573 0.55908 0.27378 0.0
H9 H 0.78692 0.55055 0.3858 0.0
C10 C 0.72738 0.55439 0.20834 0.0
C11 C 0.70167 0.55846 0.22319 0.0
C12 C 0.73727 0.56636 0.35576 0.0
H13 H 0.75021 0.57054 0.40738 0.0
C14 C 0.7119 0.5693 0.37192 0.0
H15 H 0.73292 0.54812 0.14497 0.0
C16 C 0.69433 0.56567 0.30649 0.0
H17 H 0.67487 0.56845 0.32142 0.0
H18 H 0.70579 0.57496 0.43547 0.0
H19 H 0.99255 0.77545 0.12985 0.0
C20 C 0.99776 0.78805 0.18129 0.0
C21 C 0.99772 0.81358 0.1636 0.0
C22 C 1.004 0.77892 0.2637 0.0
H23 H 1.00359 0.85029 0.21534 0.0
C24 C 1.00323 0.83057 0.22967 0.0
C25 C 1.00917 0.82278 0.31326 0.0
C26 C 1.00959 0.79679 0.33025 0.0
C27 C 1.00379 0.75095 0.27895 0.0
H28 H 1.01495 0.79077 0.39413 0.0
C29 C 1.00657 0.73309 0.21053 0.0
C30 C 1.00394 0.70707 0.22545 0.0
C31 C 0.99933 0.74175 0.36244 0.0
H32 H 0.99639 0.75414 0.4164 0.0
C33 C 0.99776 0.71626 0.37799 0.0
H34 H 1.01039 0.73918 0.14547 0.0
C35 C 0.99992 0.69918 0.31074 0.0
H36 H 0.9985 0.67958 0.32598 0.0
H37 H 0.99441 0.70967 0.44291 0.0
H38 H 0.79332 0.98967 0.17372 0.0
C39 C 0.77962 0.99668 0.21842 0.0
C40 C 0.75559 0.98649 0.21499 0.0
C41 C 0.78573 1.01566 0.278 0.0
H42 H 0.71863 0.98741 0.26803 0.0
C43 C 0.73741 0.99481 0.27269 0.0
C44 C 0.74223 1.01379 0.33196 0.0
C45 C 0.7665 0.02424 0.33479 0.0
C46 C 0.812 0.0262 0.28028 0.0
H47 H 0.76992 0.03949 0.37887 0.0
C48 C 0.82844 0.02542 0.20755 0.0
C49 C 0.85306 0.03507 0.21275 0.0
C50 C 0.82125 0.03661 0.35747 0.0
H51 H 0.81015 0.03691 0.41554 0.0
C52 C 0.84531 0.04634 0.36228 0.0
H53 H 0.8222 1.01796 0.14636 0.0
C54 C 0.861 0.04568 0.29091 0.0
H55 H 0.87967 0.05316 0.29731 0.0
H56 H 0.85196 0.05425 0.42237 0.0
H57 H 0.56906 0.78558 0.12774 0.0
C58 C 0.56389 0.77249 0.17759 0.0
C59 C 0.56702 0.74714 0.16092 0.0
C60 C 0.55429 0.7809 0.25683 0.0
H61 H 0.56324 0.71006 0.21083 0.0
C62 C 0.56123 0.72971 0.22494 0.0
C63 C 0.55153 0.7369 0.30493 0.0
C64 C 0.5482 0.76269 0.32105 0.0
C65 C 0.55132 0.80861 0.27121 0.0
H66 H 0.54014 0.76832 0.38189 0.0
C67 C 0.54729 0.8257 0.20172 0.0
C68 C 0.5463 0.8518 0.21606 0.0
C69 C 0.55391 0.81843 0.35488 0.0
H70 H 0.55762 0.80647 0.40944 0.0
C71 C 0.55271 0.84398 0.36952 0.0
H72 H 0.54451 0.81886 0.13673 0.0
C73 C 0.54912 0.86046 0.30129 0.0
H74 H 0.54904 0.88017 0.31557 0.0
H75 H 0.55503 0.85115 0.43438 0.0
H76 H 0.28061 0.49586 0.22648 0.0
C77 C 0.26777 0.49945 0.17432 0.0
C78 C 0.24232 0.49776 0.19244 0.0
C79 C 0.27646 0.50541 0.0911 0.0
H80 H 0.20526 0.49949 0.1396 0.0
C81 C 0.22499 0.50047 0.12547 0.0
C82 C 0.23241 0.50572 0.04104 0.0
C83 C 0.25821 0.50891 0.02432 0.0
C84 C 0.3044 0.50685 0.07523 0.0
H85 H 0.26372 0.51385 0.95956 0.0
C86 C 0.32221 0.51037 0.14353 0.0
C87 C 0.34826 0.50904 0.12837 0.0
C88 C 0.31373 0.50317 0.99139 0.0
H89 H 0.3015 0.49971 0.93725 0.0
C90 C 0.33925 0.50309 0.97554 0.0
H91 H 0.31613 0.51369 0.20886 0.0
C92 C 0.35628 0.50586 0.04283 0.0
H93 H 0.37592 0.50551 0.02745 0.0
H94 H 0.34594 0.50035 0.91038 0.0
H95 H 0.05857 0.29207 0.22941 0.0
C96 C 0.05798 0.27875 0.17713 0.0
C97 C 0.06586 0.25453 0.19476 0.0
C98 C 0.0474 0.28514 0.09704 0.0
H99 H 0.06937 0.21736 0.1459 0.0
C100 C 0.06386 0.23622 0.13068 0.0
C101 C 0.05243 0.24092 0.05094 0.0
C102 C 0.0449 0.26576 0.03321 0.0
C103 C 0.03617 0.31097 0.08717 0.0
H104 H 0.03632 0.2695 0.97148 0.0
C105 C 0.04358 0.33179 0.13989 0.0
C106 C 0.03059 0.35484 0.13766 0.0
C107 C 1.01607 0.31446 0.03023 0.0
H108 H 1.00901 0.29947 0.99052 0.0
C109 C 1.00367 0.33711 0.02614 0.0
H110 H 0.05944 0.33032 0.18251 0.0
C111 C 1.01054 0.35686 0.07952 0.0
H112 H 0.99949 0.3736 0.0764 0.0
H113 H 0.98801 0.33917 0.9827 0.0
H114 H 0.27253 0.08441 0.20087 0.0
C115 C 0.28532 0.07712 0.15353 0.0
C116 C 0.31029 0.08456 0.15883 0.0
C117 C 0.27708 0.06074 0.08795 0.0
H118 H 0.34685 0.08119 0.10392 0.0
C119 C 0.3274 0.07593 0.0979 0.0
C120 C 0.32049 0.05932 0.03287 0.0
C121 C 0.29524 0.05168 0.0278 0.0
C122 C 0.24965 0.05391 0.08159 0.0
H123 H 0.29014 0.03824 0.9788 0.0
C124 C 0.23291 0.05524 0.15348 0.0
C125 C 0.20692 0.05089 0.14306 0.0
C126 C 0.23957 0.04733 1.00072 0.0
H127 H 0.25097 0.04677 0.94339 0.0
C128 C 0.21432 0.04207 0.99107 0.0
H129 H 0.23974 0.06001 0.21706 0.0
C130 C 0.1982 0.04388 0.06093 0.0
H131 H 0.17868 0.03976 0.05034 0.0
H132 H 0.20707 0.03695 0.92824 0.0
H133 H 0.48899 0.27427 0.21192 0.0
C134 C 0.49309 0.28645 0.15845 0.0
C135 C 0.47866 0.30798 0.14935 0.0
C136 C 0.51364 0.28174 0.10434 0.0
H137 H 0.47432 0.34226 0.07931 0.0
C138 C 0.48441 0.3249 0.08341 0.0
C139 C 0.50476 0.32158 0.0288 0.0
C140 C 0.51929 0.29982 0.03898 0.0
C141 C 0.53006 0.25926 0.12198 0.0
H142 H 0.53478 0.29728 0.99564 0.0
C143 C 0.52178 0.23811 0.17079 0.0
C144 C 0.53799 0.21801 0.18966 0.0
C145 C 0.55496 0.25929 0.09357 0.0
H146 H 0.56288 0.27496 0.05973 0.0
C147 C 0.57069 0.23934 0.11051 0.0
H148 H 0.50281 0.23676 0.19323 0.0
C149 C 0.56237 0.21897 0.15777 0.0
H150 H 0.57532 0.20407 0.17112 0.0
H151 H 0.58973 0.23988 0.08794 0.0
Tb152 Tb 1.00661 0.0418 0.58328 0.0
C153 C 0.06982 0.03815 0.94126 0.0
N154 N 0.07483 0.04032 0.85604 0.0
C155 C 0.10705 0.07004 0.88762 0.0
C156 C 0.08248 0.05261 1.00332 0.0
C157 C 0.09396 0.05516 0.82863 0.0
C158 C 0.10105 0.06903 0.9753 0.0
C159 C 0.04766 1.01639 0.05398 0.0
C160 C 0.05294 1.02026 0.9661 0.0
C161 C 0.0592 0.03161 0.11636 0.0
C162 C 0.07669 0.04963 0.09109 0.0
Tb163 Tb 0.05135 1.01631 0.76482 0.0
N164 N 0.04278 1.00568 0.90393 0.0
C165 C 0.03146 0.99697 0.07614 0.0
C166 C 0.02793 0.98599 0.92526 0.0
C167 C 0.0218 0.98152 0.01154 0.0
H168 H 0.09864 0.05604 0.76096 0.0
H169 H 1.00962 0.96618 0.02813 0.0
H170 H 0.95244 0.03297 0.68983 0.0
H171 H 0.03951 1.0008 0.28761 0.0
H172 H 0.02043 0.97398 0.87552 0.0
H173 H 0.0267 0.99339 0.14271 0.0
H174 H 0.03853 0.03201 0.40404 0.0
H175 H 0.12176 0.08225 0.86548 0.0
H176 H 0.05524 0.02924 0.18426 0.0
H177 H 0.086 0.06073 0.13994 0.0
H178 H 0.92035 1.00059 0.69897 0.0
H179 H 0.11128 0.08047 0.02091 0.0
H180 H 1.00814 0.96703 0.28292 0.0
N181 N 0.97385 1.01414 0.59439 0.0
C182 C 0.9727 0.99644 0.53158 0.0
C183 C 0.93536 0.99876 0.65302 0.0
C184 C 0.95391 0.97803 0.53127 0.0
C185 C 0.95427 1.01668 0.64992 0.0
C186 C 0.93552 0.97897 0.59478 0.0
N187 N 1.00771 1.01529 0.46793 0.0
C188 C 0.0248 1.01731 0.40311 0.0
C189 C 0.98954 0.97929 0.39915 0.0
C190 C 0.98993 0.99727 0.46542 0.0
C191 C 1.00761 0.98066 0.33444 0.0
C192 C 0.02528 0.99977 0.33651 0.0
H193 H 0.92073 0.96523 0.59676 0.0
H194 H 0.93954 0.94533 0.46566 0.0
H195 H 0.97102 0.94622 0.35064 0.0
O196 O 1.00544 0.06604 0.4773 0.0
O197 O 0.02846 1.00683 0.57739 0.0
O198 O 0.02368 0.99084 0.70956 0.0
O199 O 0.97282 0.05948 0.55259 0.0
O200 O 0.04464 0.05186 0.54866 0.0
O201 O 0.07016 0.03425 0.65423 0.0
O202 O 0.07566 0.98927 0.81376 0.0
O203 O 0.04571 0.05675 0.77773 0.0
O204 O 0.02239 0.0726 0.66254 0.0
O205 O 0.07494 0.99806 0.67768 0.0
O206 O 1.01086 1.01155 0.77919 0.0
O207 O 0.99446 0.04641 0.71856 0.0
C208 C 0.02389 0.98739 0.6262 0.0
C209 C 0.97924 0.10021 0.50428 0.0
C210 C 0.99632 0.14207 0.52366 0.0
C211 C 0.97188 0.15148 0.52301 0.0
C212 C 0.95513 0.10997 0.50355 0.0
C213 C 0.9515 0.13548 0.51382 0.0
C214 C 0.99963 0.11624 0.51653 0.0
C215 C 0.06667 0.04596 0.58007 0.0
C216 C 0.98297 0.07328 0.49399 0.0
C217 C 0.95366 0.95977 0.46632 0.0
C218 C 0.97148 0.96036 0.4005 0.0
C219 C 0.03577 0.07538 0.73415 0.0
C220 C 0.0822 0.95659 0.71419 0.0
C221 C 0.06165 0.91607 0.72474 0.0
C222 C 0.08024 0.90601 0.67117 0.0
C223 C 0.10042 0.94626 0.66085 0.0
C224 C 0.06258 0.94168 0.74359 0.0
C225 C 0.09927 0.9211 0.63884 0.0
C226 C 0.99502 0.03006 0.78166 0.0
C227 C 0.08335 0.98309 0.73678 0.0
H228 H 0.96841 0.17126 0.52625 0.0
H229 H 0.93914 0.09786 0.49507 0.0
H230 H 0.93283 0.14295 0.51272 0.0
H231 H 1.01818 0.10855 0.51918 0.0
H232 H 0.08066 0.88638 0.65604 0.0
H233 H 0.11548 0.95765 0.63629 0.0
H234 H 0.04804 0.95026 0.78113 0.0
H235 H 0.11347 0.91315 0.59796 0.0
Tb236 Tb 0.54346 0.05171 0.78216 0.0
C237 C 0.53288 0.95406 0.56964 0.0
N238 N 0.54081 0.97672 0.54207 0.0
C239 C 0.57242 0.95725 0.45638 0.0
C240 C 0.54469 0.93204 0.54241 0.0
C241 C 0.56016 0.97857 0.48526 0.0
C242 C 0.56471 0.93388 0.48524 0.0
C243 C 0.50435 0.92987 0.65722 0.0
C244 C 0.51295 0.95297 0.62618 0.0
C245 C 0.51608 0.90789 0.63043 0.0
C246 C 0.53616 0.90897 0.57306 0.0
Tb247 Tb 0.51892 1.01001 0.59305 0.0
N248 N 0.50245 0.97468 0.65242 0.0
C249 C 0.48425 0.92957 0.71437 0.0
C250 C 0.48212 0.97436 0.70499 0.0
C251 C 0.47297 0.95191 0.73776 0.0
H252 H 0.56574 0.99636 0.45978 0.0
H253 H 0.45706 0.95183 0.78041 0.0
H254 H 0.50211 0.05795 0.93989 0.0
H255 H 0.59889 0.1187 0.60783 0.0
H256 H 0.47262 0.99119 0.72113 0.0
H257 H 0.47711 0.91221 0.73985 0.0
H258 H 0.58511 0.07672 0.65008 0.0
H259 H 0.58767 0.95884 0.41123 0.0
H260 H 0.50974 0.88996 0.65364 0.0
H261 H 0.54499 0.89186 0.55283 0.0
H262 H 0.48111 0.09229 0.01575 0.0
H263 H 0.57422 0.9174 0.46257 0.0
H264 H 0.57963 0.1557 0.67481 0.0
N265 N 0.52337 0.08183 0.85893 0.0
C266 C 0.5296 0.10564 0.83951 0.0
C267 C 0.49459 0.09632 0.96585 0.0
C268 C 0.51845 0.12586 0.88228 0.0
C269 C 0.50626 0.07689 0.92184 0.0
C270 C 0.50063 0.12092 0.94581 0.0
N271 N 0.55751 0.08964 0.73697 0.0
C272 C 0.57633 0.09261 0.67884 0.0
C273 C 0.55495 0.13407 0.75581 0.0
C274 C 0.54752 0.1097 0.7772 0.0
C275 C 0.57342 0.13728 0.69329 0.0
C276 C 0.58429 0.11643 0.65517 0.0
H277 H 0.49165 0.13594 0.98031 0.0
H278 H 0.51718 0.16604 0.89277 0.0
H279 H 0.54916 0.17323 0.78192 0.0
O280 O 0.58023 0.04394 0.81726 0.0
O281 O 0.52636 0.07277 0.67393 0.0
O282 O 0.53043 0.04758 0.5541 0.0
O283 O 0.55391 0.05659 0.91219 0.0
O284 O 0.57132 0.03206 0.70132 0.0
O285 O 0.55479 0.02782 0.56522 0.0
O286 O 0.48286 1.01027 0.54135 0.0
O287 O 0.53889 0.99145 0.70179 0.0
O288 O 0.52791 1.01547 0.81655 0.0
O289 O 0.51432 1.00259 0.46051 0.0
O290 O 0.49074 0.03237 0.66406 0.0
O291 O 0.50635 0.03549 0.80152 0.0
C292 C 0.52625 0.06945 0.58946 0.0
C293 C 0.58201 0.02467 0.95313 0.0
C294 C 0.61092 0.99077 0.98494 0.0
C295 C 0.59522 0.98327 0.05293 0.0
C296 C 0.56678 1.01687 0.02149 0.0
C297 C 0.57327 0.99611 0.07033 0.0
C298 C 0.60366 1.01121 0.93426 0.0
C299 C 0.5741 0.02974 0.61721 0.0
C300 C 0.57547 0.04634 0.89925 0.0
C301 C 0.52555 0.15024 0.86071 0.0
C302 C 0.54377 0.15434 0.79761 0.0
C303 C 0.53543 0.99412 0.78547 0.0
C304 C 0.48331 0.02895 0.40352 0.0
C305 C 0.45582 0.06389 0.37051 0.0
C306 C 0.46956 0.06829 0.29471 0.0
C307 C 0.49648 0.03354 0.32698 0.0
C308 C 0.46322 0.04442 0.42517 0.0
C309 C 0.48977 0.05327 0.27357 0.0
C310 C 0.48747 0.03624 0.74734 0.0
C311 C 0.49099 1.00874 0.46241 0.0
H312 H 0.60017 0.96806 0.09507 0.0
H313 H 0.5498 0.02665 0.03704 0.0
H314 H 0.56145 0.99021 0.12298 0.0
H315 H 0.61491 1.01693 0.87993 0.0
H316 H 0.46421 0.08271 0.24982 0.0
H317 H 0.51209 0.02203 0.3087 0.0
H318 H 0.45323 0.04121 0.48473 0.0
H319 H 0.50003 0.0567 0.21473 0.0
Tb320 Tb 0.54711 0.51737 0.59198 0.0
C321 C 0.48138 0.50813 0.90456 0.0
N322 N 0.47659 0.51567 0.8228 0.0
C323 C 0.44025 0.4896 0.81817 0.0
C324 C 0.46647 0.49001 0.94515 0.0
C325 C 0.45561 0.50767 0.7808 0.0
C326 C 0.44596 0.48039 0.90013 0.0
C327 C 0.50493 0.51397 0.03624 0.0
C328 C 0.50025 0.51997 0.94917 0.0
C329 C 0.49109 0.49494 0.07586 0.0
C330 C 0.47188 0.48296 0.03037 0.0
Tb331 Tb 0.50241 0.54541 0.76715 0.0
N332 N 0.51236 0.53896 0.90958 0.0
C333 C 0.52244 0.52813 0.08201 0.0
C334 C 0.52775 0.55419 0.95642 0.0
C335 C 0.53357 0.54862 0.04229 0.0
H336 H 0.45105 0.51488 0.71775 0.0
H337 H 0.54621 0.56045 0.07833 0.0
H338 H 0.60363 0.50531 0.67123 0.0
H339 H 0.52386 0.5568 0.2825 0.0
H340 H 0.53519 0.57098 0.92834 0.0
H341 H 0.52661 0.52413 0.149 0.0
H342 H 0.5174 0.53011 0.41056 0.0
H343 H 0.42401 0.48283 0.78386 0.0
H344 H 0.49436 0.49009 0.14266 0.0
H345 H 0.46078 0.46894 0.06266 0.0
H346 H 0.64581 0.5234 0.65985 0.0
H347 H 0.43397 0.46649 0.92911 0.0
H348 H 0.5625 0.58171 0.26919 0.0
N349 N 0.58756 0.53061 0.58176 0.0
C350 C 0.59216 0.54781 0.51973 0.0
C351 C 0.6308 0.53073 0.62095 0.0
C352 C 0.61614 0.55797 0.50821 0.0
C353 C 0.60679 0.5208 0.62825 0.0
C354 C 0.6354 0.54979 0.56187 0.0
N355 N 0.55141 0.54094 0.47055 0.0
C356 C 0.53419 0.5411 0.40536 0.0
C357 C 0.57808 0.56827 0.38936 0.0
C358 C 0.57344 0.55298 0.46132 0.0
C359 C 0.55964 0.57023 0.32572 0.0
C360 C 0.53783 0.55613 0.33284 0.0
H361 H 0.65411 0.55711 0.55515 0.0
H362 H 0.63864 0.58302 0.43112 0.0
H363 H 0.60527 0.59197 0.32669 0.0
O364 O 0.53566 0.48079 0.57069 0.0
O365 O 0.52879 0.55375 0.57214 0.0
O366 O 0.52855 0.57142 0.70519 0.0
O367 O 0.56724 0.49542 0.50302 0.0
O368 O 0.50725 0.51212 0.56197 0.0
O369 O 0.4847 0.54114 0.63971 0.0
O370 O 0.48491 0.57054 0.85166 0.0
O371 O 0.50459 0.50484 0.74032 0.0
O372 O 0.54551 0.49798 0.71629 0.0
O373 O 0.4732 0.56726 0.71977 0.0
O374 O 0.54245 0.55509 0.78513 0.0
O375 O 0.56436 0.52313 0.72072 0.0
C376 C 0.53071 0.57361 0.62127 0.0
C377 C 0.53896 0.46894 0.42691 0.0
C378 C 0.50607 0.44404 0.35952 0.0
C379 C 0.51277 0.45395 0.27878 0.0
C380 C 0.54544 0.47858 0.34586 0.0
C381 C 0.53231 0.47111 0.27228 0.0
C382 C 0.51928 0.45181 0.43293 0.0
C383 C 0.48677 0.52492 0.57628 0.0
C384 C 0.55099 0.47748 0.50731 0.0
C385 C 0.62041 0.57479 0.44044 0.0
C386 C 0.6014 0.57989 0.38095 0.0
C387 C 0.52442 0.49088 0.75095 0.0
C388 C 0.47234 0.6069 0.77923 0.0
C389 C 0.49644 0.6455 0.77471 0.0
C390 C 0.47441 0.65837 0.75395 0.0
C391 C 0.45073 0.62 0.75837 0.0
C392 C 0.49515 0.61953 0.78498 0.0
C393 C 0.45184 0.64562 0.74509 0.0
C394 C 0.56252 0.54101 0.77898 0.0
C395 C 0.4712 0.57989 0.79067 0.0
H396 H 0.50345 0.44795 0.2203 0.0
H397 H 0.56039 0.49201 0.33935 0.0
H398 H 0.53743 0.47849 0.20984 0.0
H399 H 0.51401 0.44478 0.49581 0.0
H400 H 0.47427 0.67839 0.74756 0.0
H401 H 0.43305 0.6104 0.75215 0.0
H402 H 0.51179 0.609 0.79864 0.0
H403 H 0.43506 0.65574 0.72957 0.0
Tb404 Tb 0.03827 0.5581 0.58858 0.0
C405 C 0.04087 0.46393 0.82844 0.0
N406 N 0.02759 0.46899 0.7559 0.0
C407 C 0.03446 0.42733 0.70509 0.0
C408 C 0.05221 0.44061 0.84084 0.0
C409 C 0.02323 0.4506 0.69649 0.0
C410 C 0.04933 0.42242 0.77696 0.0
C411 C 0.05432 0.47693 0.97111 0.0
C412 C 0.0419 0.48175 0.89272 0.0
C413 C 0.06636 0.45405 0.9827 0.0
C414 C 0.06534 0.43594 0.91763 0.0
Tb415 Tb 1.01077 0.50809 0.74872 0.0
N416 N 0.03007 0.50364 0.87913 0.0
C417 C 0.05376 0.49504 0.03607 0.0
C418 C 0.02837 0.52083 0.94385 0.0
C419 C 0.04049 0.51697 0.02267 0.0
H420 H 1.0107 0.45349 0.64291 0.0
H421 H 0.03945 0.53083 0.07322 0.0
H422 H 1.00826 0.60771 0.65568 0.0
H423 H 0.04734 0.51949 0.26609 0.0
H424 H 1.01777 0.53758 0.9349 0.0
H425 H 0.06301 0.49203 0.09735 0.0
H426 H 0.06068 0.52759 0.4153 0.0
H427 H 0.03131 0.41306 0.65691 0.0
H428 H 0.07609 0.45001 0.04234 0.0
H429 H 0.07426 0.41817 0.92815 0.0
H430 H 0.975 0.63543 0.60141 0.0
H431 H 0.05775 0.40427 0.78395 0.0
H432 H 1.00974 0.53983 0.20784 0.0
N433 N 1.00746 0.58434 0.54493 0.0
C434 C 0.99873 0.58098 0.46345 0.0
C435 C 0.98133 0.62003 0.56235 0.0
C436 C 0.97982 0.59622 0.4298 0.0
C437 C 1.00008 0.60435 0.59293 0.0
C438 C 0.97085 0.61569 0.481 0.0
N439 N 0.02919 0.55002 0.44612 0.0
C440 C 0.04349 0.53567 0.39279 0.0
C441 C 1.00191 0.5595 0.32663 0.0
C442 C 1.00965 0.56285 0.41293 0.0
C443 C 1.01509 0.54293 0.27446 0.0
C444 C 0.0363 0.53141 0.30715 0.0
H445 H 0.95636 0.62787 0.45741 0.0
H446 H 0.95637 0.60336 0.31868 0.0
H447 H 0.97572 0.57117 0.22819 0.0
O448 O 0.06268 0.57644 0.50353 0.0
O449 O 0.99769 0.55521 0.61655 0.0
O450 O 0.99247 0.51373 0.62395 0.0
O451 O 0.0575 0.58981 0.6323 0.0
O452 O 0.04944 0.51908 0.55978 0.0
O453 O 1.01661 0.49625 0.61379 0.0
O454 O 0.97636 0.51869 0.80066 0.0
O455 O 0.04902 0.52153 0.77738 0.0
O456 O 0.06623 0.53332 0.64671 0.0
O457 O 0.98674 0.48013 0.79464 0.0
O458 O 1.00461 0.54765 0.78533 0.0
O459 O 0.03751 0.56895 0.72482 0.0
C460 C 0.98389 0.53547 0.60153 0.0
C461 C 0.0974 0.59361 0.5756 0.0
C462 C 0.1383 0.57404 0.57842 0.0
C463 C 0.1487 0.59686 0.60562 0.0
C464 C 0.10807 0.61609 0.60275 0.0
C465 C 0.13361 0.61763 0.61821 0.0
C466 C 0.11243 0.57261 0.56514 0.0
C467 C 0.03613 0.49834 0.56316 0.0
C468 C 0.07043 0.59189 0.56228 0.0
C469 C 0.97109 0.59203 0.34552 0.0
C470 C 0.98208 0.57366 0.29406 0.0
C471 C 0.06845 0.52588 0.72753 0.0
C472 C 0.94577 0.49061 0.7525 0.0
C473 C 0.90448 0.50411 0.70723 0.0
C474 C 0.90346 0.48457 0.64721 0.0
C475 C 0.94464 0.4713 0.69116 0.0
C476 C 0.92562 0.5068 0.76003 0.0
C477 C 0.92353 0.46831 0.63916 0.0
C478 C 1.01948 0.56731 0.78162 0.0
C479 C 0.96853 0.49574 0.80318 0.0
H480 H 0.16856 0.59899 0.61466 0.0
H481 H 0.09662 0.6324 0.61234 0.0
H482 H 0.14182 0.63508 0.63876 0.0
H483 H 0.10381 0.5551 0.54733 0.0
H484 H 0.88724 0.48196 0.60651 0.0
H485 H 0.96011 0.45873 0.6824 0.0
H486 H 0.92638 0.52146 0.80812 0.0
H487 H 0.92279 0.45343 0.59209 0.0
H488 H 0.1612 0.07328 0.13511 0.0
H489 H 0.11565 0.03214 0.6079 0.0
H490 H 0.20925 0.03558 0.31498 0.0
H491 H 0.06933 0.06988 0.42234 0.0
H492 H 0.15077 0.03552 0.50786 0.0
H493 H 0.12861 0.07431 0.24402 0.0
C494 C 0.16501 0.06524 0.19776 0.0
C495 C 0.18817 0.05404 0.21481 0.0
C496 C 0.13299 0.04325 0.48931 0.0
C497 C 0.15032 0.05532 0.34196 0.0
C498 C 0.11281 0.04144 0.54677 0.0
C499 C 0.08915 0.05069 0.52427 0.0
C500 C 0.12973 0.0544 0.40804 0.0
C501 C 0.08698 0.06238 0.44332 0.0
C502 C 0.14627 0.06591 0.26035 0.0
C503 C 0.19185 0.04445 0.2984 0.0
N504 N 0.10681 0.06374 0.38854 0.0
N505 N 0.17313 0.04512 0.35834 0.0
H506 H 0.54258 0.16861 0.14999 0.0
H507 H 0.51497 0.11855 0.62945 0.0
H508 H 0.51771 0.21686 0.35403 0.0
H509 H 0.53344 0.07139 0.41379 0.0
H510 H 0.5146 0.1545 0.53175 0.0
H511 H 0.53734 0.13285 0.24553 0.0
C512 C 0.53566 0.17166 0.21473 0.0
C513 C 0.53054 0.19592 0.24358 0.0
C514 C 0.51863 0.13627 0.50578 0.0
C515 C 0.52495 0.15466 0.35538 0.0
C516 C 0.519 0.11566 0.56182 0.0
C517 C 0.52461 0.0917 0.53077 0.0
C518 C 0.52382 0.13307 0.41742 0.0
C519 C 0.52915 0.08933 0.44163 0.0
C520 C 0.53276 0.15117 0.26963 0.0
C521 C 0.52166 0.19856 0.32851 0.0
N522 N 0.52878 0.1096 0.38879 0.0
N523 N 0.51942 0.1783 0.38153 0.0
H524 H 0.39125 0.48178 0.14453 0.0
H525 H 0.44142 0.54914 0.57565 0.0
H526 H 0.34962 0.53855 0.27693 0.0
H527 H 0.48279 0.4941 0.43366 0.0
H528 H 0.40722 0.54479 0.47163 0.0
H529 H 0.42393 0.4853 0.25311 0.0
C530 C 0.38891 0.49513 0.19622 0.0
C531 C 0.36748 0.51013 0.19996 0.0
C532 C 0.42375 0.53362 0.4633 0.0
C533 C 0.40537 0.51403 0.32724 0.0
C534 C 0.4434 0.53607 0.52293 0.0
C535 C 0.46532 0.522 0.51417 0.0
C536 C 0.42577 0.51692 0.39371 0.0
C537 C 0.46645 0.5054 0.44386 0.0
C538 C 0.40769 0.49702 0.25885 0.0
C539 C 0.36559 0.52651 0.27074 0.0
N540 N 0.44712 0.50339 0.38682 0.0
N541 N 0.38426 0.5281 0.33096 0.0
H542 H 0.02695 0.40529 0.10382 0.0
H543 H 0.06835 0.4586 0.56521 0.0
H544 H 0.04807 0.3551 0.30806 0.0
H545 H 1.01031 0.49171 0.41287 0.0
H546 H 0.06984 0.42349 0.46194 0.0
H547 H 0.03006 0.43997 0.20481 0.0
C548 C 0.03221 0.40134 0.16983 0.0
C549 C 0.03654 0.37667 0.19694 0.0
C550 C 0.05706 0.43864 0.4505 0.0
C551 C 0.04101 0.41727 0.31372 0.0
C552 C 0.05636 0.45878 0.50895 0.0
C553 C 0.03966 0.47851 0.49639 0.0
C554 C 0.04127 0.43841 0.37783 0.0
C555 C 0.02397 0.47733 0.4238 0.0
C556 C 0.0341 0.42138 0.22756 0.0
C557 C 0.04443 0.37352 0.28325 0.0
N558 N 0.02535 0.45789 0.36711 0.0
N559 N 0.04632 0.39347 0.33833 0.0
H560 H 0.878 0.07407 0.13936 0.0
H561 H 0.97461 0.99061 0.8722 0.0
H562 H 0.87061 0.99448 0.12141 0.0
H563 H 0.96732 0.0697 0.83723 0.0
H564 H 0.93886 0.99135 0.97096 0.0
H565 H 0.91205 0.07264 0.03466 0.0
C566 C 0.88332 0.05628 0.11234 0.0
C567 C 0.87115 0.03439 0.13885 0.0
C568 C 0.94512 1.00855 0.94187 0.0
C569 C 0.91097 0.03249 0.01978 0.0
C570 C 0.96576 1.0082 0.8861 0.0
C571 C 0.97428 0.03018 0.84658 0.0
C572 C 0.93292 0.03111 0.95951 0.0
C573 C 0.96155 0.05229 0.86604 0.0
C574 C 0.90289 0.05546 0.05269 0.0
C575 C 0.87915 1.01186 0.10208 0.0
N576 N 0.94173 0.05219 0.92104 0.0
N577 N 0.89865 1.01146 0.04531 0.0
H578 H 0.56596 0.85212 0.04959 0.0
H579 H 0.51729 0.9905 0.94979 0.0
H580 H 0.51863 0.89478 0.21779 0.0
H581 H 0.5559 0.9472 0.75826 0.0
H582 H 0.51891 0.95532 0.04808 0.0
H583 H 0.56303 0.88554 0.9413 0.0
C584 C 0.55473 0.86828 0.06367 0.0
C585 C 0.54277 0.87051 0.14418 0.0
C586 C 0.52699 0.95331 0.98455 0.0
C587 C 0.53964 0.90921 0.02023 0.0
C588 C 0.52616 0.97358 0.92804 0.0
C589 C 0.5365 0.97206 0.84495 0.0
C590 C 0.53835 0.93098 0.95901 0.0
C591 C 0.54761 0.94935 0.82137 0.0
C592 C 0.55322 0.88749 1.00185 0.0
C593 C 0.52868 0.89219 0.15807 0.0
N594 N 0.54831 0.92979 0.87799 0.0
N595 N 0.52767 0.91052 0.09757 0.0
H596 H 0.69681 0.52237 0.09552 0.0
H597 H 0.57512 0.58269 0.87547 0.0
H598 H 0.66202 0.58925 0.18898 0.0
H599 H 0.59865 0.50749 0.82616 0.0
H600 H 0.60902 0.58711 0.98095 0.0
H601 H 0.66379 0.51851 0.98598 0.0
C602 C 0.6824 0.53636 0.09284 0.0
C603 C 0.68233 0.5561 0.15259 0.0
C604 C 0.60681 0.56964 0.94692 0.0
C605 C 0.64421 0.55178 0.02639 0.0
C606 C 0.58729 0.56704 0.88683 0.0
C607 C 0.5837 0.5446 0.84162 0.0
C608 C 0.62329 0.54978 0.96165 0.0
C609 C 0.60067 0.52526 0.85823 0.0
C610 C 0.66341 0.53405 0.03046 0.0
C611 C 0.66285 0.57349 0.14559 0.0
N612 N 0.6196 0.52829 0.91638 0.0
N613 N 0.64477 0.57096 0.08407 0.0
H614 H 0.97466 0.66519 0.20598 0.0
H615 H 0.04763 0.61014 0.79589 0.0
H616 H 0.03493 0.70413 0.0814 0.0
H617 H 0.98481 0.57337 0.91322 0.0
H618 H 0.04319 0.64443 0.89822 0.0
H619 H 0.97803 0.63193 0.09938 0.0
C620 C 0.9887 0.66685 0.1563 0.0
C621 C 1.00473 0.68771 0.15421 0.0
C622 C 0.03033 0.62891 0.90176 0.0
C623 C 1.00851 0.64909 0.02949 0.0
C624 C 0.03284 0.60914 0.84304 0.0
C625 C 1.01662 0.58845 0.84516 0.0
C626 C 1.01146 0.62832 0.96433 0.0
C627 C 0.99787 0.58867 0.90855 0.0
C628 C 0.99051 0.64773 0.09486 0.0
C629 C 0.02207 0.68866 0.08622 0.0
N630 N 0.99588 0.60813 0.96528 0.0
N631 N 0.02358 0.66967 0.02734 0.0
H632 H 0.10252 0.22377 0.25769 0.0
H633 H 0.04105 0.13506 0.44132 0.0
H634 H 0.03896 0.26659 0.33777 0.0
H635 H 1.00211 0.18849 0.59923 0.0
H636 H 0.07142 0.16612 0.40677 0.0
H637 H 0.09796 0.19806 0.38669 0.0
C638 C 0.08805 0.22819 0.30369 0.0
C639 C 0.07035 0.24652 0.28495 0.0
C640 C 0.05689 0.1711 0.45162 0.0
C641 C 0.06419 0.21654 0.42932 0.0
C642 C 0.0392 0.15309 0.47159 0.0
C643 C 1.01818 0.15922 0.52092 0.0
C644 C 0.05328 0.19573 0.47897 0.0
C645 C 1.01722 0.18316 0.55721 0.0
C646 C 0.08525 0.21334 0.37681 0.0
C647 C 0.0526 0.25216 0.34819 0.0
N648 N 0.03404 0.20077 0.5332 0.0
N649 N 0.04945 0.23668 0.41624 0.0
H650 H 0.30648 0.07069 0.32669 0.0
H651 H 0.44463 0.11296 0.33404 0.0
H652 H 0.33825 0.12725 0.16392 0.0
H653 H 0.41295 0.04654 0.4465 0.0
H654 H 0.40297 0.13096 0.32789 0.0
H655 H 0.3403 0.07706 0.42962 0.0
C656 C 0.31984 0.08543 0.31483 0.0
C657 C 0.32033 0.09771 0.23522 0.0
C658 C 0.40536 0.11275 0.35638 0.0
C659 C 0.35949 0.10427 0.35011 0.0
C660 C 0.4291 0.10229 0.35887 0.0
C661 C 0.43233 0.07771 0.38735 0.0
C662 C 0.38475 0.09851 0.38248 0.0
C663 C 0.41162 0.06537 0.42264 0.0
C664 C 0.33938 0.08886 0.37314 0.0
C665 C 0.33784 0.11683 0.2236 0.0
N666 N 0.38871 0.07569 0.41745 0.0
N667 N 0.35739 0.11888 0.2788 0.0
H668 H 0.48472 0.30301 0.32478 0.0
H669 H 0.46222 0.43842 0.26788 0.0
H670 H 0.43371 0.33278 0.1369 0.0
H671 H 0.50575 0.40408 0.46939 0.0
H672 H 0.4369 0.40067 0.25881 0.0
H673 H 0.47392 0.33624 0.42241 0.0
C674 C 0.4704 0.31589 0.30486 0.0
C675 C 0.46175 0.31641 0.21936 0.0
C676 C 0.45151 0.40172 0.30693 0.0
C677 C 0.45081 0.35554 0.32873 0.0
C678 C 0.46624 0.42316 0.31117 0.0
C679 C 0.48691 0.4241 0.36668 0.0
C680 C 0.45782 0.38096 0.35747 0.0
C681 C 0.49039 0.40424 0.42421 0.0
C682 C 0.46443 0.33527 0.36074 0.0
C683 C 0.44232 0.33293 0.20012 0.0
N684 N 0.4764 0.38335 0.4167 0.0
N685 N 0.43851 0.35284 0.25233 0.0
H686 H 0.26045 0.52256 0.33349 0.0
H687 H 0.18314 0.55991 0.65199 0.0
H688 H 0.2035 0.47012 0.25714 0.0
H689 H 0.13052 0.53859 0.45329 0.0
H690 H 0.21295 0.53044 0.59096 0.0
H691 H 0.23751 0.5311 0.46492 0.0
C692 C 0.24363 0.51202 0.34602 0.0
C693 C 0.23338 0.49628 0.28277 0.0
C694 C 0.19467 0.53203 0.56209 0.0
C695 C 0.20684 0.5062 0.43288 0.0
C696 C 0.17768 0.54898 0.59631 0.0
C697 C 0.1545 0.55261 0.55595 0.0
C698 C 0.18825 0.51856 0.48761 0.0
C699 C 0.14807 0.53686 0.48684 0.0
C700 C 0.23049 0.51688 0.4216 0.0
C701 C 0.21154 0.48315 0.30277 0.0
N702 N 0.16498 0.52084 0.45434 0.0
N703 N 0.19853 0.48904 0.37478 0.0
H704 H 1.01804 0.79481 0.01534 0.0
H705 H 0.0412 0.87144 0.66647 0.0
H706 H 0.97108 0.85391 0.10824 0.0
H707 H 0.03818 0.92316 0.88067 0.0
H708 H 1.01567 0.84236 0.75014 0.0
H709 H 0.02392 0.81764 0.88095 0.0
C710 C 1.00813 0.81211 1.0062 0.0
C711 C 0.99469 0.82288 0.07414 0.0
C712 C 0.02036 0.86035 0.77732 0.0
C713 C 1.00161 0.84913 0.92128 0.0
C714 C 0.03516 0.8769 0.73026 0.0
C715 C 0.04266 0.89978 0.76675 0.0
C716 C 1.01259 0.86699 0.86048 0.0
C717 C 0.03307 0.90607 0.8483 0.0
C718 C 1.01148 0.82512 0.92921 0.0
C719 C 0.98233 0.84537 0.05861 0.0
N720 N 1.01873 0.88973 0.89224 0.0
N721 N 0.98679 0.85817 0.98493 0.0
H722 H 0.76069 0.99628 0.04401 0.0
H723 H 0.62601 0.94246 0.02039 0.0
H724 H 0.73028 0.94205 0.21909 0.0
H725 H 0.65379 1.01242 0.92138 0.0
H726 H 0.66897 0.92835 0.03585 0.0
H727 H 0.7287 0.98521 0.93886 0.0
C728 C 0.74812 0.98106 0.05858 0.0
C729 C 0.74727 0.97087 0.14166 0.0
C730 C 0.66542 0.94645 1.008 0.0
C731 C 0.71022 0.9589 0.02361 0.0
C732 C 0.6409 0.95476 1.00046 0.0
C733 C 0.63595 0.97921 0.97316 0.0
C734 C 0.68509 0.96256 0.98698 0.0
C735 C 0.65617 0.99358 0.94381 0.0
C736 C 0.72965 0.97492 0.99881 0.0
C737 C 0.73084 0.95098 0.15656 0.0
N738 N 0.67975 0.9852 0.953 0.0
N739 N 0.71222 0.94628 0.09939 0.0
H740 H 0.60024 0.7113 0.1106 0.0
H741 H 0.5333 0.63254 0.88988 0.0
H742 H 0.54557 0.76212 0.01034 0.0
H743 H 0.51363 0.69031 0.70862 0.0
H744 H 0.56488 0.65909 0.94903 0.0
H745 H 0.59658 0.68662 0.97836 0.0
C746 C 0.58798 0.71762 0.05965 0.0
C747 C 0.57239 0.73812 0.07265 0.0
C748 C 0.5544 0.66585 0.89426 0.0
C749 C 0.5673 0.70958 0.92391 0.0
C750 C 0.53601 0.65049 0.85995 0.0
C751 C 0.51981 0.65935 0.79572 0.0
C752 C 0.55627 0.69059 0.86627 0.0
C753 C 0.52467 0.68306 0.76123 0.0
C754 C 0.58574 0.70345 0.98459 0.0
C755 C 0.55746 0.74604 1.00375 0.0
N756 N 0.54184 0.6982 0.79907 0.0
N757 N 0.55469 0.7313 0.9332 0.0
H758 H 0.78387 0.53684 0.01263 0.0
H759 H 0.90405 0.55463 0.72893 0.0
H760 H 0.84514 0.58618 0.0717 0.0
H761 H 0.85577 0.49039 0.72347 0.0
H762 H 0.87232 0.57736 0.80927 0.0
H763 H 0.80031 0.5314 0.86716 0.0
C764 C 0.80043 0.54707 0.99424 0.0
C765 C 0.81355 0.56152 0.0548 0.0
C766 C 0.86836 0.55856 0.78799 0.0
C767 C 0.83244 0.5552 0.88898 0.0
C768 C 0.88642 0.5456 0.7422 0.0
C769 C 0.88285 0.52031 0.72308 0.0
C770 C 0.84675 0.54604 0.81444 0.0
C771 C 0.85946 0.5097 0.73888 0.0
C772 C 0.80978 0.54392 0.91125 0.0
C773 C 0.83487 0.57433 0.02754 0.0
N774 N 0.84248 0.52242 0.78595 0.0
N775 N 0.84391 0.57054 0.94691 0.0
H776 H 0.03102 0.19715 0.10079 0.0
H777 H 0.03681 0.12178 0.65435 0.0
H778 H 0.05977 0.23284 0.87291 0.0
H779 H 0.04004 0.08778 0.90543 0.0
H780 H 0.03927 0.16314 0.72375 0.0
H781 H 0.02716 0.15831 0.02108 0.0
C782 C 0.03644 0.19695 0.03352 0.0
C783 C 0.04625 0.21855 0.99465 0.0
C784 C 0.0394 0.14661 0.76345 0.0
C785 C 0.04144 0.17325 0.90104 0.0
C786 C 0.03782 0.12293 0.72387 0.0
C787 C 0.03799 0.101 0.77365 0.0
C788 C 0.04064 0.14855 0.85401 0.0
C789 C 0.0399 0.10391 0.86375 0.0
C790 C 0.03425 0.17456 0.98791 0.0
C791 C 0.05222 0.21684 0.90619 0.0
N792 N 0.04089 0.127 0.90051 0.0
N793 N 0.04984 0.19463 0.86257 0.0
H794 H 0.33008 0.06842 0.85992 0.0
H795 H 0.47213 0.02483 0.91112 0.0
H796 H 0.35928 0.03021 0.08158 0.0
H797 H 0.44318 0.04979 0.66672 0.0
H798 H 0.43047 0.02714 0.97204 0.0
H799 H 0.36987 0.06123 0.78434 0.0
C800 C 0.34451 0.05778 0.8916 0.0
C801 C 0.34107 0.04951 0.97685 0.0
C802 C 0.43306 0.03215 0.90502 0.0
C803 C 0.38715 0.04209 0.89207 0.0
C804 C 0.45706 0.03107 0.87016 0.0
C805 C 0.46152 0.03753 0.78365 0.0
C806 C 0.41289 0.03991 0.8538 0.0
C807 C 0.4408 0.04476 0.7338 0.0
C808 C 0.36738 0.05396 0.84886 0.0
C809 C 0.36086 0.03658 0.01557 0.0
N810 N 0.41751 0.04596 0.76962 0.0
N811 N 0.3829 0.03352 0.97356 0.0
H812 H 0.54919 0.34754 0.01018 0.0
H813 H 0.48278 0.46098 0.76249 0.0
H814 H 0.47387 0.34533 0.91498 0.0
H815 H 0.56127 0.461 0.81855 0.0
H816 H 0.47958 0.41878 0.82016 0.0
H817 H 0.55501 0.3881 0.93862 0.0
C818 C 0.53411 0.35517 0.97225 0.0
C819 C 0.51102 0.34275 0.96857 0.0
C820 C 0.49756 0.42792 0.82004 0.0
C821 C 0.51726 0.38981 0.88856 0.0
C822 C 0.49933 0.45227 0.78783 0.0
C823 C 0.52224 0.46494 0.78653 0.0
C824 C 0.51888 0.41579 0.85181 0.0
C825 C 0.54317 0.4521 0.81822 0.0
C826 C 0.53732 0.37856 0.93227 0.0
C827 C 0.49201 0.35407 0.91982 0.0
N828 N 0.54098 0.42842 0.84982 0.0
N829 N 0.49546 0.37684 0.88293 0.0
H830 H 0.19942 0.46966 0.99385 0.0
H831 H 0.10639 0.56028 0.73585 0.0
H832 H 0.21777 0.5461 0.94111 0.0
H833 H 0.08891 0.48494 0.80604 0.0
H834 H 0.14838 0.55509 0.79728 0.0
H835 H 0.16083 0.47424 0.91168 0.0
C836 C 0.1956 0.48731 0.96303 0.0
C837 C 0.21217 0.50741 0.97386 0.0
C838 C 0.13542 0.53964 0.79908 0.0
C839 C 0.1671 0.51314 0.88063 0.0
C840 C 0.1115 0.54252 0.76302 0.0
C841 C 0.09405 0.52296 0.76488 0.0
C842 C 0.14208 0.51695 0.83786 0.0
C843 C 0.10147 0.50065 0.804 0.0
C844 C 0.17335 0.49001 0.91666 0.0
C845 C 0.20587 0.52996 0.93344 0.0
N846 N 0.12475 0.49827 0.8386 0.0
N847 N 0.18382 0.53227 0.88937 0.0
H848 H 0.98673 0.83397 0.47038 0.0
H849 H 0.05009 0.97008 0.48726 0.0
H850 H 0.04499 0.85874 0.30047 0.0
H851 H 0.99785 0.94565 0.6797 0.0
H852 H 0.049 0.92856 0.42255 0.0
H853 H 0.99162 0.87286 0.55429 0.0
C854 C 1.001 0.8472 0.45205 0.0
C855 C 1.01555 0.84284 0.37817 0.0
C856 C 0.03778 0.93209 0.47912 0.0
C857 C 0.02071 0.88797 0.47238 0.0
C858 C 0.03834 0.95595 0.51599 0.0
C859 C 0.02395 0.96155 0.5889 0.0
C860 C 0.02249 0.91336 0.5144 0.0
C861 C 1.00928 0.94223 0.62355 0.0
C862 C 1.00358 0.86961 0.49937 0.0
C863 C 0.03337 0.86111 0.35682 0.0
N864 N 1.00875 0.91916 0.58575 0.0
N865 N 0.03523 0.88272 0.4027 0.0
H866 H 0.73372 1.01054 0.50816 0.0
H867 H 0.58756 0.03823 0.44884 0.0
H868 H 0.70007 0.03567 0.27183 0.0
H869 H 0.61973 0.02217 0.69755 0.0
H870 H 0.62912 0.03798 0.38569 0.0
H871 H 0.69344 1.01626 0.58203 0.0
C872 C 0.71811 1.01801 0.47246 0.0
C873 C 0.72048 0.02299 0.38378 0.0
C874 C 0.62723 0.03453 0.45417 0.0
C875 C 0.67394 0.02874 0.46714 0.0
C876 C 0.60333 0.03452 0.49041 0.0
C877 C 0.59983 0.02994 0.57887 0.0
C878 C 0.64821 0.02983 0.5061 0.0
C879 C 0.62133 0.02572 0.62907 0.0
C880 C 0.69499 0.02097 0.51437 0.0
C881 C 0.69928 0.03189 0.34037 0.0
N882 N 0.64447 0.02559 0.59206 0.0
N883 N 0.67708 0.03424 0.38196 0.0
H884 H 0.56627 0.72821 0.47495 0.0
H885 H 0.51389 0.58774 0.46183 0.0
H886 H 0.52042 0.69783 0.27199 0.0
H887 H 0.54968 0.6177 0.68839 0.0
H888 H 0.5166 0.62849 0.3936 0.0
H889 H 0.55985 0.68951 0.55833 0.0
C890 C 0.5544 0.71372 0.44877 0.0
C891 C 0.5439 0.71642 0.36601 0.0
C892 C 0.52387 0.62634 0.45835 0.0
C893 C 0.53704 0.67168 0.46 0.0
C894 C 0.52255 0.60284 0.49715 0.0
C895 C 0.53186 0.59897 0.58076 0.0
C896 C 0.53471 0.64654 0.50277 0.0
C897 C 0.54224 0.61971 0.62383 0.0
C898 C 0.55096 0.69148 0.49599 0.0
C899 C 0.529 0.69669 0.33513 0.0
N900 N 0.54353 0.64247 0.58434 0.0
N901 N 0.52628 0.67531 0.3813 0.0
H902 H 0.83449 0.58238 0.43344 0.0
H903 H 0.95828 0.50045 0.50798 0.0
H904 H 0.84983 0.51392 0.30007 0.0
H905 H 0.95066 0.57477 0.60787 0.0
H906 H 0.91658 0.5034 0.44486 0.0
H907 H 0.87408 0.57794 0.51317 0.0
C908 C 0.84581 0.56607 0.42267 0.0
C909 C 0.83854 0.54832 0.3606 0.0
C910 C 0.92394 0.51915 0.48042 0.0
C911 C 0.88438 0.5434 0.45012 0.0
C912 C 0.94784 0.51744 0.51675 0.0
C913 C 0.95828 0.53747 0.56287 0.0
C914 C 0.90985 0.54095 0.49084 0.0
C915 C 0.94364 0.55898 0.57185 0.0
C916 C 0.86861 0.56369 0.46736 0.0
C917 C 0.85444 0.52791 0.34787 0.0
N918 N 0.92027 0.56014 0.53651 0.0
N919 N 0.87643 0.52608 0.39165 0.0
loop_
_geom_bond_atom_site_label_1
_geom_bond_atom_site_label_2
_geom_bond_distance
_geom_bond_site_symmetry_2
_ccdc_geom_bond_type
H0 C1 0.949 . S
C1 H0 0.949 . S
C1 C2 1.395 . S
C1 C3 1.391 . S
C2 C1 1.395 . S
C2 C5 1.390 . S
C3 C1 1.391 . S
C3 C7 1.387 . S
C3 C8 1.491 . S
H4 C5 0.950 . S
C5 C2 1.390 . S
C5 H4 0.950 . S
C5 C6 1.378 . S
C6 C5 1.378 . S
C6 C7 1.409 . S
C7 C3 1.387 . S
C7 C6 1.409 . S
C7 H9 0.951 . S
C8 C3 1.491 . S
C8 C10 1.382 . S
C8 C12 1.404 . S
H9 C7 0.951 . S
C10 C8 1.382 . S
C10 C11 1.390 . S
C10 H15 0.949 . S
C11 C10 1.390 . S
C11 C16 1.399 . S
C12 C8 1.404 . S
C12 H13 0.950 . S
C12 C14 1.375 . S
H13 C12 0.950 . S
C14 C12 1.375 . S
C14 C16 1.382 . S
C14 H18 0.950 . S
H15 C10 0.949 . S
C16 C11 1.399 . S
C16 C14 1.382 . S
C16 H17 0.952 . S
H17 C16 0.952 . S
H18 C14 0.950 . S
H19 C20 0.949 . S
C20 H19 0.949 . S
C20 C21 1.395 . S
C20 C22 1.391 . S
C21 C20 1.395 . S
C21 C24 1.390 . S
C22 C20 1.391 . S
C22 C26 1.387 . S
C22 C27 1.491 . S
H23 C24 0.950 . S
C24 C21 1.390 . S
C24 H23 0.950 . S
C24 C25 1.378 . S
C25 C24 1.378 . S
C25 C26 1.409 . S
C26 C22 1.387 . S
C26 C25 1.409 . S
C26 H28 0.951 . S
C27 C22 1.491 . S
C27 C29 1.382 . S
C27 C31 1.404 . S
H28 C26 0.951 . S
C29 C27 1.382 . S
C29 C30 1.390 . S
C29 H34 0.949 . S
C30 C29 1.390 . S
C30 C35 1.399 . S
C31 C27 1.404 . S
C31 H32 0.950 . S
C31 C33 1.375 . S
H32 C31 0.950 . S
C33 C31 1.375 . S
C33 C35 1.382 . S
C33 H37 0.950 . S
H34 C29 0.949 . S
C35 C30 1.399 . S
C35 C33 1.382 . S
C35 H36 0.952 . S
H36 C35 0.952 . S
H37 C33 0.950 . S
H38 C39 0.949 . S
C39 H38 0.949 . S
C39 C40 1.395 . S
C39 C41 1.391 . S
C40 C39 1.395 . S
C40 C43 1.390 . S
C41 C39 1.391 . S
C41 C45 1.387 . S
C41 C46 1.491 . S
H42 C43 0.950 . S
C43 C40 1.390 . S
C43 H42 0.950 . S
C43 C44 1.378 . S
C44 C43 1.378 . S
C44 C45 1.409 . S
C45 C41 1.387 . S
C45 C44 1.409 . S
C45 H47 0.951 . S
C46 C41 1.491 . S
C46 C48 1.382 . S
C46 C50 1.404 . S
H47 C45 0.951 . S
C48 C46 1.382 . S
C48 C49 1.390 . S
C48 H53 0.949 . S
C49 C48 1.390 . S
C49 C54 1.399 . S
C50 C46 1.404 . S
C50 H51 0.950 . S
C50 C52 1.375 . S
H51 C50 0.950 . S
C52 C50 1.375 . S
C52 C54 1.382 . S
C52 H56 0.950 . S
H53 C48 0.949 . S
C54 C49 1.399 . S
C54 C52 1.382 . S
C54 H55 0.952 . S
H55 C54 0.952 . S
H56 C52 0.950 . S
H57 C58 0.949 . S
C58 H57 0.949 . S
C58 C59 1.395 . S
C58 C60 1.391 . S
C59 C58 1.395 . S
C59 C62 1.390 . S
C60 C58 1.391 . S
C60 C64 1.387 . S
C60 C65 1.491 . S
H61 C62 0.950 . S
C62 C59 1.390 . S
C62 H61 0.950 . S
C62 C63 1.378 . S
C63 C62 1.378 . S
C63 C64 1.409 . S
C64 C60 1.387 . S
C64 C63 1.409 . S
C64 H66 0.951 . S
C65 C60 1.491 . S
C65 C67 1.382 . S
C65 C69 1.404 . S
H66 C64 0.951 . S
C67 C65 1.382 . S
C67 C68 1.390 . S
C67 H72 0.949 . S
C68 C67 1.390 . S
C68 C73 1.399 . S
C69 C65 1.404 . S
C69 H70 0.950 . S
C69 C71 1.375 . S
H70 C69 0.950 . S
C71 C69 1.375 . S
C71 C73 1.382 . S
C71 H75 0.950 . S
H72 C67 0.949 . S
C73 C68 1.399 . S
C73 C71 1.382 . S
C73 H74 0.952 . S
H74 C73 0.952 . S
H75 C71 0.950 . S
H76 C77 0.949 . S
C77 H76 0.949 . S
C77 C78 1.395 . S
C77 C79 1.391 . S
C78 C77 1.395 . S
C78 C81 1.390 1_554 S
C79 C77 1.391 . S
C79 C83 1.387 1_554 S
C79 C84 1.491 . S
H80 C81 0.950 . S
C81 C78 1.390 1_556 S
C81 H80 0.950 . S
C81 C82 1.378 . S
C82 C81 1.378 . S
C82 C83 1.409 . S
C83 C79 1.387 1_556 S
C83 C82 1.409 . S
C83 H85 0.951 . S
C84 C79 1.491 . S
C84 C86 1.382 . S
C84 C88 1.404 1_554 S
H85 C83 0.951 . S
C86 C84 1.382 . S
C86 C87 1.390 . S
C86 H91 0.949 . S
C87 C86 1.390 . S
C87 C92 1.399 . S
C88 C84 1.404 1_556 S
C88 H89 0.950 . S
C88 C90 1.375 . S
H89 C88 0.950 . S
C90 C88 1.375 . S
C90 C92 1.382 1_556 S
C90 H94 0.950 . S
H91 C86 0.949 . S
C92 C87 1.399 . S
C92 C90 1.382 1_554 S
C92 H93 0.952 . S
H93 C92 0.952 . S
H94 C90 0.950 . S
H95 C96 0.949 . S
C96 H95 0.949 . S
C96 C97 1.395 . S
C96 C98 1.391 . S
C97 C96 1.395 . S
C97 C100 1.385 1_554 S
C98 C96 1.391 . S
C98 C102 1.387 1_554 S
C98 C103 1.491 . S
H99 C100 0.950 . S
C100 C97 1.385 1_556 S
C100 H99 0.950 . S
C100 C101 1.383 . S
C101 C100 1.383 . S
C101 C102 1.409 . S
C102 C98 1.387 1_556 S
C102 C101 1.409 . S
C102 H104 0.951 . S
C103 C98 1.491 . S
C103 C105 1.382 . S
C103 C107 1.404 1_554 S
H104 C102 0.951 . S
C105 C103 1.382 . S
C105 C106 1.390 . S
C105 H110 0.949 . S
C106 C105 1.390 . S
C106 C111 1.399 . S
C107 C103 1.404 1_556 S
C107 H108 0.950 1_455 S
C107 C109 1.375 . S
H108 C107 0.950 1_655 S
C109 C107 1.375 . S
C109 C111 1.382 1_556 S
C109 H113 0.950 1_455 S
H110 C105 0.949 . S
C111 C106 1.399 . S
C111 C109 1.382 1_554 S
C111 H112 0.952 . S
H112 C111 0.952 . S
H113 C109 0.950 1_655 S
H114 C115 0.949 . S
C115 H114 0.949 . S
C115 C116 1.395 . S
C115 C117 1.391 . S
C116 C115 1.395 . S
C116 C119 1.378 1_554 S
C117 C115 1.391 . S
C117 C121 1.387 1_554 S
C117 C122 1.491 . S
H118 C119 0.950 . S
C119 C116 1.378 1_556 S
C119 H118 0.950 . S
C119 C120 1.389 . S
C120 C119 1.389 . S
C120 C121 1.409 . S
C121 C117 1.387 1_556 S
C121 C120 1.409 . S
C121 H123 0.951 . S
C122 C117 1.491 . S
C122 C124 1.382 . S
C122 C126 1.404 1_554 S
H123 C121 0.951 . S
C124 C122 1.382 . S
C124 C125 1.390 . S
C124 H129 0.949 . S
C125 C124 1.390 . S
C125 C130 1.399 . S
C126 C122 1.404 1_556 S
C126 H127 0.950 . S
C126 C128 1.375 . S
H127 C126 0.950 . S
C128 C126 1.375 . S
C128 C130 1.382 1_556 S
C128 H132 0.950 1_545 S
H129 C124 0.949 . S
C130 C125 1.399 . S
C130 C128 1.382 1_554 S
C130 H131 0.952 . S
H131 C130 0.952 . S
H132 C128 0.950 1_565 S
H133 C134 0.949 . S
C134 H133 0.949 . S
C134 C135 1.395 . S
C134 C136 1.391 . S
C135 C134 1.395 . S
C135 C138 1.390 1_554 S
C136 C134 1.391 . S
C136 C140 1.387 1_554 S
C136 C141 1.491 . S
H137 C138 0.950 . S
C138 C135 1.390 1_556 S
C138 H137 0.950 . S
C138 C139 1.378 . S
C139 C138 1.378 . S
C139 C140 1.409 . S
C140 C136 1.387 1_556 S
C140 C139 1.409 . S
C140 H142 0.951 . S
C141 C136 1.491 . S
C141 C143 1.382 . S
C141 C145 1.404 1_554 S
H142 C140 0.951 . S
C143 C141 1.382 . S
C143 C144 1.390 . S
C143 H148 0.949 . S
C144 C143 1.390 . S
C144 C149 1.399 . S
C145 C141 1.404 1_556 S
C145 H146 0.950 . S
C145 C147 1.375 . S
H146 C145 0.950 . S
C147 C145 1.375 . S
C147 C149 1.382 1_556 S
C147 H151 0.950 . S
H148 C143 0.949 . S
C149 C144 1.399 . S
C149 C147 1.382 1_554 S
C149 H150 0.952 . S
H150 C149 0.952 . S
H151 C147 0.950 . S
Tb152 N181 2.617 . S
Tb152 N187 2.572 . S
Tb152 O196 2.465 1_655 S
Tb152 O197 2.387 1_545 S
Tb152 O199 2.428 . S
Tb152 O200 2.308 1_655 S
Tb152 O204 2.349 1_655 S
Tb152 O207 2.393 . S
Tb152 C216 2.802 . S
C153 N154 1.379 . S
C153 C156 1.416 . S
C153 C160 1.424 . S
N154 C153 1.379 . S
N154 C157 1.334 . S
N154 Tb163 2.617 1_545 S
C155 C157 1.390 . S
C155 C158 1.339 . S
C155 H175 0.930 . S
C156 C153 1.416 . S
C156 C158 1.416 . S
C156 C162 1.448 1_556 S
C157 N154 1.334 . S
C157 C155 1.390 . S
C157 H168 0.930 1_545 S
C158 C155 1.339 . S
C158 C156 1.416 . S
C158 H179 0.930 . S
C159 C160 1.413 1_554 S
C159 C161 1.427 . S
C159 C165 1.416 . S
C160 C153 1.424 . S
C160 C159 1.413 1_556 S
C160 N164 1.361 . S
C161 C159 1.427 . S
C161 C162 1.328 . S
C161 H176 0.929 . S
C162 C156 1.448 1_554 S
C162 C161 1.328 . S
C162 H177 0.930 . S
Tb163 N154 2.617 1_565 S
Tb163 N164 2.572 1_565 S
Tb163 O198 2.349 . S
Tb163 O201 2.398 . S
Tb163 O202 2.465 . S
Tb163 O203 2.387 1_565 S
Tb163 O205 2.428 . S
Tb163 O206 2.308 1_465 S
Tb163 C227 2.802 . S
N164 C160 1.361 . S
N164 Tb163 2.572 1_545 S
N164 C166 1.340 . S
C165 C159 1.416 . S
C165 C167 1.332 . S
C165 H173 0.931 . S
C166 N164 1.340 . S
C166 C167 1.407 1_556 S
C166 H172 0.930 1_455 S
C167 C165 1.332 . S
C167 C166 1.407 1_554 S
C167 H169 0.929 1_455 S
H168 C157 0.930 1_565 S
H169 C167 0.929 1_655 S
H170 C185 0.930 . S
H171 C192 0.929 . S
H172 C166 0.930 1_655 S
H173 C165 0.931 . S
H174 C188 0.930 . S
H175 C155 0.930 . S
H176 C161 0.929 . S
H177 C162 0.930 . S
H178 C183 0.930 . S
H179 C158 0.930 . S
H180 C191 0.931 . S
N181 Tb152 2.617 . S
N181 C182 1.379 . S
N181 C185 1.334 . S
C182 N181 1.379 . S
C182 C184 1.416 1_545 S
C182 C190 1.424 . S
C183 H178 0.930 . S
C183 C185 1.390 . S
C183 C186 1.339 1_545 S
C184 C182 1.416 1_565 S
C184 C186 1.416 . S
C184 C217 1.448 . S
C185 H170 0.930 . S
C185 N181 1.334 . S
C185 C183 1.390 . S
C186 C183 1.339 1_565 S
C186 C184 1.416 . S
C186 H193 0.930 . S
N187 Tb152 2.572 . S
N187 C188 1.340 1_655 S
N187 C190 1.361 . S
C188 H174 0.930 . S
C188 N187 1.340 1_455 S
C188 C192 1.407 1_545 S
C189 C190 1.413 1_565 S
C189 C191 1.416 . S
C189 C218 1.427 . S
C190 C182 1.424 . S
C190 N187 1.361 . S
C190 C189 1.413 1_545 S
C191 H180 0.931 . S
C191 C189 1.416 . S
C191 C192 1.332 1_655 S
C192 H171 0.929 . S
C192 C188 1.407 1_565 S
C192 C191 1.332 1_455 S
H193 C186 0.930 . S
H194 C217 0.930 . S
H195 C218 0.929 . S
O196 Tb152 2.465 1_455 S
O196 C216 1.264 1_455 S
O197 Tb152 2.387 1_565 S
O197 C208 1.264 . S
O198 Tb163 2.349 . S
O198 C208 1.243 1_455 S
O199 Tb152 2.428 . S
O199 C216 1.256 . S
O200 Tb152 2.308 1_455 S
O200 C215 1.266 . S
O201 Tb163 2.398 . S
O201 C215 1.224 1_565 S
O202 Tb163 2.465 . S
O202 C227 1.264 . S
O203 Tb163 2.387 1_545 S
O203 C219 1.264 . S
O204 Tb152 2.349 1_455 S
O204 C219 1.243 . S
O205 Tb163 2.428 . S
O205 C227 1.256 . S
O206 Tb163 2.308 1_645 S
O206 C226 1.266 . S
O207 Tb152 2.393 . S
O207 C226 1.248 . S
C208 O197 1.264 . S
C208 O198 1.243 1_655 S
C209 C212 1.399 . S
C209 C214 1.383 1_655 S
C209 C216 1.496 . S
C210 C211 1.399 . S
C210 C214 1.389 1_655 S
C211 C210 1.399 . S
C211 C213 1.380 . S
C211 H228 0.929 . S
C212 C209 1.399 . S
C212 C213 1.392 . S
C212 H229 0.929 . S
C213 C211 1.380 . S
C213 C212 1.392 . S
C213 H230 0.929 . S
C214 C209 1.383 1_455 S
C214 C210 1.389 1_455 S
C214 H231 0.931 . S
C215 O200 1.266 . S
C215 O201 1.224 1_545 S
C216 Tb152 2.802 . S
C216 O196 1.264 1_655 S
C216 O199 1.256 . S
C216 C209 1.496 . S
C217 C184 1.448 . S
C217 H194 0.930 . S
C217 C218 1.328 . S
C218 C189 1.427 . S
C218 H195 0.929 . S
C218 C217 1.328 . S
C219 O203 1.264 . S
C219 O204 1.243 . S
C220 C223 1.399 . S
C220 C224 1.383 . S
C220 C227 1.496 . S
C221 C222 1.399 . S
C221 C224 1.389 . S
C222 C221 1.399 . S
C222 C225 1.380 . S
C222 H232 0.929 1_556 S
C223 C220 1.399 . S
C223 C225 1.392 . S
C223 H233 0.929 . S
C224 C220 1.383 . S
C224 C221 1.389 . S
C224 H234 0.899 1_455 S
C225 C222 1.380 . S
C225 C223 1.392 . S
C225 H235 0.929 . S
C226 O206 1.266 . S
C226 O207 1.248 . S
C227 Tb163 2.802 . S
C227 O202 1.264 . S
C227 O205 1.256 . S
C227 C220 1.496 . S
H228 C211 0.929 . S
H229 C212 0.929 . S
H230 C213 0.929 . S
H231 C214 0.931 . S
H232 C222 0.929 1_554 S
H233 C223 0.929 . S
H234 C224 0.899 1_655 S
H235 C225 0.929 . S
Tb236 N265 2.617 . S
Tb236 N271 2.572 . S
Tb236 O280 2.465 . S
Tb236 O281 2.387 . S
Tb236 O283 2.428 . S
Tb236 O284 2.308 . S
Tb236 O288 2.349 1_545 S
Tb236 O291 2.393 . S
Tb236 C300 2.802 . S
C237 N238 1.379 . S
C237 C240 1.416 . S
C237 C244 1.424 . S
N238 C237 1.379 . S
N238 C241 1.334 . S
N238 Tb247 2.617 . S
C239 C241 1.390 . S
C239 C242 1.339 . S
C239 H259 0.930 . S
C240 C237 1.416 . S
C240 C242 1.416 . S
C240 C246 1.448 . S
C241 N238 1.334 . S
C241 C239 1.390 . S
C241 H252 0.930 . S
C242 C239 1.339 . S
C242 C240 1.416 . S
C242 H263 0.930 . S
C243 C244 1.413 . S
C243 C245 1.427 . S
C243 C249 1.416 . S
C244 C237 1.424 . S
C244 C243 1.413 . S
C244 N248 1.361 . S
C245 C243 1.427 . S
C245 C246 1.328 . S
C245 H260 0.929 . S
C246 C240 1.448 . S
C246 C245 1.328 . S
C246 H261 0.930 . S
Tb247 N238 2.617 . S
Tb247 N248 2.572 . S
Tb247 O282 2.349 1_565 S
Tb247 O285 2.393 . S
Tb247 O286 2.467 . S
Tb247 O287 2.387 . S
Tb247 O289 2.428 . S
Tb247 O290 2.308 1_565 S
Tb247 C311 2.802 . S
N248 C244 1.361 . S
N248 Tb247 2.572 . S
N248 C250 1.340 . S
C249 C243 1.416 . S
C249 C251 1.332 . S
C249 H257 0.931 . S
C250 N248 1.340 . S
C250 C251 1.407 . S
C250 H256 0.930 . S
C251 C249 1.332 . S
C251 C250 1.407 . S
C251 H253 0.929 . S
H252 C241 0.930 . S
H253 C251 0.929 . S
H254 C269 0.930 . S
H255 C276 0.929 . S
H256 C250 0.930 . S
H257 C249 0.931 . S
H258 C272 0.930 . S
H259 C239 0.930 . S
H260 C245 0.929 . S
H261 C246 0.930 . S
H262 C267 0.930 . S
H263 C242 0.930 . S
H264 C275 0.931 . S
N265 Tb236 2.617 . S
N265 C266 1.379 . S
N265 C269 1.334 . S
C266 N265 1.379 . S
C266 C268 1.416 . S
C266 C274 1.424 . S
C267 H262 0.930 . S
C267 C269 1.390 . S
C267 C270 1.339 . S
C268 C266 1.416 . S
C268 C270 1.416 . S
C268 C301 1.448 . S
C269 H254 0.930 . S
C269 N265 1.334 . S
C269 C267 1.390 . S
C270 C267 1.339 . S
C270 C268 1.416 . S
C270 H277 0.930 . S
N271 Tb236 2.572 . S
N271 C272 1.340 . S
N271 C274 1.361 . S
C272 H258 0.930 . S
C272 N271 1.340 . S
C272 C276 1.407 . S
C273 C274 1.413 . S
C273 C275 1.416 . S
C273 C302 1.427 . S
C274 C266 1.424 . S
C274 N271 1.361 . S
C274 C273 1.413 . S
C275 H264 0.931 . S
C275 C273 1.416 . S
C275 C276 1.332 . S
C276 H255 0.929 . S
C276 C272 1.407 . S
C276 C275 1.332 . S
H277 C270 0.930 . S
H278 C301 0.930 . S
H279 C302 0.929 . S
O280 Tb236 2.465 . S
O280 C300 1.264 . S
O281 Tb236 2.387 . S
O281 C292 1.264 . S
O282 Tb247 2.349 1_545 S
O282 C292 1.243 . S
O283 Tb236 2.428 . S
O283 C300 1.256 . S
O284 Tb236 2.308 . S
O284 C299 1.266 . S
O285 Tb247 2.393 . S
O285 C299 1.248 1_565 S
O286 Tb247 2.467 . S
O286 C311 1.265 . S
O287 Tb247 2.387 . S
O287 C303 1.264 . S
O288 Tb236 2.349 1_565 S
O288 C303 1.243 . S
O289 Tb247 2.428 . S
O289 C311 1.256 . S
O290 Tb247 2.308 1_545 S
O290 C310 1.266 . S
O291 Tb236 2.393 . S
O291 C310 1.248 . S
C292 O281 1.264 . S
C292 O282 1.243 . S
C293 C296 1.399 1_556 S
C293 C298 1.383 . S
C293 C300 1.496 . S
C294 C295 1.399 . S
C294 C298 1.389 1_554 S
C295 C294 1.399 . S
C295 C297 1.380 . S
C295 H312 0.929 . S
C296 C293 1.399 1_554 S
C296 C297 1.392 . S
C296 H313 0.929 . S
C297 C295 1.380 . S
C297 C296 1.392 . S
C297 H314 0.929 . S
C298 C293 1.383 . S
C298 C294 1.389 1_556 S
C298 H315 0.931 . S
C299 O284 1.266 . S
C299 O285 1.248 1_545 S
C300 Tb236 2.802 . S
C300 O280 1.264 . S
C300 O283 1.256 . S
C300 C293 1.496 . S
C301 C268 1.448 . S
C301 H278 0.930 . S
C301 C302 1.328 . S
C302 C273 1.427 . S
C302 H279 0.929 . S
C302 C301 1.328 . S
C303 O287 1.264 . S
C303 O288 1.243 . S
C304 C307 1.397 1_545 S
C304 C308 1.386 . S
C304 C311 1.495 1_545 S
C305 C306 1.399 . S
C305 C308 1.389 . S
C306 C305 1.399 . S
C306 C309 1.380 1_545 S
C306 H316 0.929 . S
C307 C304 1.397 1_565 S
C307 C309 1.392 . S
C307 H317 0.929 . S
C308 C304 1.386 . S
C308 C305 1.389 . S
C308 H318 0.931 . S
C309 C306 1.380 1_565 S
C309 C307 1.392 . S
C309 H319 0.929 . S
C310 O290 1.266 . S
C310 O291 1.248 . S
C311 Tb247 2.802 . S
C311 O286 1.265 . S
C311 O289 1.256 . S
C311 C304 1.495 1_565 S
H312 C295 0.929 . S
H313 C296 0.929 . S
H314 C297 0.929 . S
H315 C298 0.931 . S
H316 C306 0.929 . S
H317 C307 0.929 . S
H318 C308 0.931 . S
H319 C309 0.929 . S
Tb320 N349 2.617 . S
Tb320 N355 2.572 . S
Tb320 O364 2.465 . S
Tb320 O365 2.387 . S
Tb320 O367 2.428 . S
Tb320 O368 2.308 . S
Tb320 O372 2.349 . S
Tb320 O375 2.393 . S
Tb320 C384 2.802 . S
C321 N322 1.379 . S
C321 C324 1.416 . S
C321 C328 1.424 . S
N322 C321 1.379 . S
N322 C325 1.334 . S
N322 Tb331 2.617 . S
C323 C325 1.390 . S
C323 C326 1.339 . S
C323 H343 0.930 . S
C324 C321 1.416 . S
C324 C326 1.416 . S
C324 C330 1.448 1_556 S
C325 N322 1.334 . S
C325 C323 1.390 . S
C325 H336 0.930 . S
C326 C323 1.339 . S
C326 C324 1.416 . S
C326 H347 0.930 . S
C327 C328 1.413 1_554 S
C327 C329 1.427 . S
C327 C333 1.416 . S
C328 C321 1.424 . S
C328 C327 1.413 1_556 S
C328 N332 1.361 . S
C329 C327 1.427 . S
C329 C330 1.328 . S
C329 H344 0.929 . S
C330 C324 1.448 1_554 S
C330 C329 1.328 . S
C330 H345 0.930 . S
Tb331 N322 2.617 . S
Tb331 N332 2.572 . S
Tb331 O366 2.349 . S
Tb331 O369 2.393 . S
Tb331 O370 2.465 . S
Tb331 O371 2.387 . S
Tb331 O373 2.428 . S
Tb331 O374 2.308 . S
Tb331 C395 2.802 . S
N332 C328 1.361 . S
N332 Tb331 2.572 . S
N332 C334 1.340 . S
C333 C327 1.416 . S
C333 C335 1.332 . S
C333 H341 0.931 . S
C334 N332 1.340 . S
C334 C335 1.407 1_556 S
C334 H340 0.930 . S
C335 C333 1.332 . S
C335 C334 1.407 1_554 S
C335 H337 0.929 . S
H336 C325 0.930 . S
H337 C335 0.929 . S
H338 C353 0.930 . S
H339 C360 0.929 . S
H340 C334 0.930 . S
H341 C333 0.931 . S
H342 C356 0.930 . S
H343 C323 0.930 . S
H344 C329 0.929 . S
H345 C330 0.930 . S
H346 C351 0.930 . S
H347 C326 0.930 . S
H348 C359 0.931 . S
N349 Tb320 2.617 . S
N349 C350 1.379 . S
N349 C353 1.334 . S
C350 N349 1.379 . S
C350 C352 1.416 . S
C350 C358 1.424 . S
C351 H346 0.930 . S
C351 C353 1.390 . S
C351 C354 1.339 . S
C352 C350 1.416 . S
C352 C354 1.416 . S
C352 C385 1.448 . S
C353 H338 0.930 . S
C353 N349 1.334 . S
C353 C351 1.390 . S
C354 C351 1.339 . S
C354 C352 1.416 . S
C354 H361 0.930 . S
N355 Tb320 2.572 . S
N355 C356 1.340 . S
N355 C358 1.361 . S
C356 H342 0.930 . S
C356 N355 1.340 . S
C356 C360 1.407 . S
C357 C358 1.413 . S
C357 C359 1.416 . S
C357 C386 1.427 . S
C358 C350 1.424 . S
C358 N355 1.361 . S
C358 C357 1.413 . S
C359 H348 0.931 . S
C359 C357 1.416 . S
C359 C360 1.332 . S
C360 H339 0.929 . S
C360 C356 1.407 . S
C360 C359 1.332 . S
H361 C354 0.930 . S
H362 C385 0.930 . S
H363 C386 0.929 . S
O364 Tb320 2.465 . S
O364 C384 1.264 . S
O365 Tb320 2.387 . S
O365 C376 1.264 . S
O366 Tb331 2.349 . S
O366 C376 1.243 . S
O367 Tb320 2.428 . S
O367 C384 1.256 . S
O368 Tb320 2.308 . S
O368 C383 1.266 . S
O369 Tb331 2.393 . S
O369 C383 1.248 . S
O370 Tb331 2.465 . S
O370 C395 1.264 . S
O371 Tb331 2.387 . S
O371 C387 1.264 . S
O372 Tb320 2.349 . S
O372 C387 1.243 . S
O373 Tb331 2.428 . S
O373 C395 1.256 . S
O374 Tb331 2.308 . S
O374 C394 1.266 . S
O375 Tb320 2.393 . S
O375 C394 1.248 . S
C376 O365 1.264 . S
C376 O366 1.243 . S
C377 C380 1.399 . S
C377 C382 1.383 . S
C377 C384 1.496 . S
C378 C379 1.399 . S
C378 C382 1.389 . S
C379 C378 1.399 . S
C379 C381 1.380 . S
C379 H396 0.929 . S
C380 C377 1.399 . S
C380 C381 1.392 . S
C380 H397 0.929 . S
C381 C379 1.380 . S
C381 C380 1.392 . S
C381 H398 0.929 . S
C382 C377 1.383 . S
C382 C378 1.389 . S
C382 H399 0.931 . S
C383 O368 1.266 . S
C383 O369 1.248 . S
C384 Tb320 2.802 . S
C384 O364 1.264 . S
C384 O367 1.256 . S
C384 C377 1.496 . S
C385 C352 1.448 . S
C385 H362 0.930 . S
C385 C386 1.328 . S
C386 C357 1.427 . S
C386 H363 0.929 . S
C386 C385 1.328 . S
C387 O371 1.264 . S
C387 O372 1.243 . S
C388 C391 1.399 . S
C388 C392 1.383 . S
C388 C395 1.496 . S
C389 C390 1.399 . S
C389 C392 1.389 . S
C390 C389 1.399 . S
C390 C393 1.380 . S
C390 H400 0.929 1_556 S
C391 C388 1.399 . S
C391 C393 1.392 . S
C391 H401 0.929 . S
C392 C388 1.383 . S
C392 C389 1.389 . S
C392 H402 0.931 . S
C393 C390 1.380 . S
C393 C391 1.392 . S
C393 H403 0.929 . S
C394 O374 1.266 . S
C394 O375 1.248 . S
C395 Tb331 2.802 . S
C395 O370 1.264 . S
C395 O373 1.256 . S
C395 C388 1.496 . S
H396 C379 0.929 . S
H397 C380 0.929 . S
H398 C381 0.929 . S
H399 C382 0.931 . S
H400 C390 0.929 1_554 S
H401 C391 0.929 . S
H402 C392 0.931 . S
H403 C393 0.929 . S
Tb404 N433 2.617 . S
Tb404 N439 2.572 . S
Tb404 O448 2.465 . S
Tb404 O449 2.387 1_455 S
Tb404 O451 2.428 . S
Tb404 O452 2.308 . S
Tb404 O456 2.349 . S
Tb404 O459 2.393 . S
Tb404 C468 2.802 . S
C405 N406 1.379 . S
C405 C408 1.416 . S
C405 C412 1.424 . S
N406 C405 1.379 . S
N406 C409 1.334 1_455 S
N406 Tb415 2.617 1_455 S
C407 C409 1.390 1_455 S
C407 C410 1.339 . S
C407 H427 0.930 . S
C408 C405 1.416 . S
C408 C410 1.416 . S
C408 C414 1.448 1_556 S
C409 N406 1.334 1_655 S
C409 C407 1.390 1_655 S
C409 H420 0.930 . S
C410 C407 1.339 . S
C410 C408 1.416 . S
C410 H431 0.930 . S
C411 C412 1.413 1_554 S
C411 C413 1.427 . S
C411 C417 1.416 . S
C412 C405 1.424 . S
C412 C411 1.413 1_556 S
C412 N416 1.361 . S
C413 C411 1.427 . S
C413 C414 1.328 . S
C413 H428 0.929 . S
C414 C408 1.448 1_554 S
C414 C413 1.328 . S
C414 H429 0.930 . S
Tb415 N406 2.617 1_655 S
Tb415 N416 2.572 1_655 S
Tb415 O450 2.349 . S
Tb415 O453 2.393 . S
Tb415 O454 2.465 . S
Tb415 O455 2.387 1_655 S
Tb415 O457 2.428 . S
Tb415 O458 2.308 1_655 S
Tb415 C479 2.802 . S
N416 C412 1.361 . S
N416 Tb415 2.572 1_455 S
N416 C418 1.340 . S
C417 C411 1.416 . S
C417 C419 1.332 . S
C417 H425 0.931 . S
C418 N416 1.340 . S
C418 C419 1.407 1_556 S
C418 H424 0.930 . S
C419 C417 1.332 . S
C419 C418 1.407 1_554 S
C419 H421 0.929 . S
H420 C409 0.930 . S
H421 C419 0.929 . S
H422 C437 0.930 . S
H423 C444 0.929 . S
H424 C418 0.930 . S
H425 C417 0.931 . S
H426 C440 0.930 . S
H427 C407 0.930 . S
H428 C413 0.929 . S
H429 C414 0.930 . S
H430 C435 0.930 . S
H431 C410 0.930 . S
H432 C443 0.931 . S
N433 Tb404 2.617 . S
N433 C434 1.379 . S
N433 C437 1.334 . S
C434 N433 1.379 . S
C434 C436 1.416 1_455 S
C434 C442 1.424 1_455 S
C435 H430 0.930 . S
C435 C437 1.390 . S
C435 C438 1.339 1_455 S
C436 C434 1.416 1_655 S
C436 C438 1.416 . S
C436 C469 1.448 . S
C437 H422 0.930 . S
C437 N433 1.334 . S
C437 C435 1.390 . S
C438 C435 1.339 1_655 S
C438 C436 1.416 . S
C438 H445 0.930 . S
N439 Tb404 2.572 . S
N439 C440 1.340 . S
N439 C442 1.363 1_455 S
C440 H426 0.930 . S
C440 N439 1.340 . S
C440 C444 1.407 1_455 S
C441 C442 1.410 . S
C441 C443 1.416 . S
C441 C470 1.427 . S
C442 C434 1.424 1_655 S
C442 N439 1.363 1_655 S
C442 C441 1.410 . S
C443 H432 0.931 . S
C443 C441 1.416 . S
C443 C444 1.332 . S
C444 H423 0.929 . S
C444 C440 1.407 1_655 S
C444 C443 1.332 . S
H445 C438 0.930 . S
H446 C469 0.930 . S
H447 C470 0.929 . S
O448 Tb404 2.465 . S
O448 C468 1.264 . S
O449 Tb404 2.387 1_655 S
O449 C460 1.264 . S
O450 Tb415 2.349 . S
O450 C460 1.243 . S
O451 Tb404 2.428 . S
O451 C468 1.256 . S
O452 Tb404 2.308 . S
O452 C467 1.266 . S
O453 Tb415 2.393 . S
O453 C467 1.248 1_655 S
O454 Tb415 2.465 . S
O454 C479 1.264 . S
O455 Tb415 2.387 1_455 S
O455 C471 1.264 . S
O456 Tb404 2.349 . S
O456 C471 1.243 . S
O457 Tb415 2.428 . S
O457 C479 1.256 . S
O458 Tb415 2.308 1_455 S
O458 C478 1.266 . S
O459 Tb404 2.393 . S
O459 C478 1.248 . S
C460 O449 1.264 . S
C460 O450 1.243 . S
C461 C464 1.399 . S
C461 C466 1.383 . S
C461 C468 1.496 . S
C462 C463 1.399 . S
C462 C466 1.389 . S
C463 C462 1.399 . S
C463 C465 1.380 . S
C463 H480 0.929 . S
C464 C461 1.399 . S
C464 C465 1.392 . S
C464 H481 0.929 . S
C465 C463 1.380 . S
C465 C464 1.392 . S
C465 H482 0.929 . S
C466 C461 1.383 . S
C466 C462 1.389 . S
C466 H483 0.931 . S
C467 O452 1.266 . S
C467 O453 1.248 1_455 S
C468 Tb404 2.802 . S
C468 O448 1.264 . S
C468 O451 1.256 . S
C468 C461 1.496 . S
C469 C436 1.448 . S
C469 H446 0.930 . S
C469 C470 1.328 . S
C470 C441 1.427 . S
C470 H447 0.929 . S
C470 C469 1.328 . S
C471 O455 1.264 . S
C471 O456 1.243 . S
C472 C475 1.399 . S
C472 C476 1.383 . S
C472 C479 1.496 . S
C473 C474 1.399 . S
C473 C476 1.389 . S
C474 C473 1.399 . S
C474 C477 1.380 . S
C474 H484 0.929 1_556 S
C475 C472 1.399 . S
C475 C477 1.392 . S
C475 H485 0.929 . S
C476 C472 1.383 . S
C476 C473 1.389 . S
C476 H486 0.931 . S
C477 C474 1.380 . S
C477 C475 1.392 . S
C477 H487 0.929 . S
C478 O458 1.266 . S
C478 O459 1.248 . S
C479 Tb415 2.802 . S
C479 O454 1.264 . S
C479 O457 1.256 . S
C479 C472 1.496 . S
H480 C463 0.929 . S
H481 C464 0.929 . S
H482 C465 0.929 . S
H483 C466 0.931 . S
H484 C474 0.929 1_554 S
H485 C475 0.929 . S
H486 C476 0.931 . S
H487 C477 0.929 . S
H488 C494 0.930 . S
H489 C498 0.930 1_565 S
H490 C503 0.929 . S
H491 C501 0.929 . S
H492 C496 0.929 1_565 S
H493 C502 0.929 . S
C494 H488 0.930 . S
C494 C495 1.367 . S
C494 C502 1.378 . S
C495 C494 1.367 . S
C495 C503 1.433 . S
C496 H492 0.929 1_545 S
C496 C498 1.378 . S
C496 C500 1.350 . S
C497 C500 1.463 . S
C497 C502 1.350 . S
C497 N505 1.427 . S
C498 H489 0.930 1_545 S
C498 C496 1.378 . S
C498 C499 1.367 . S
C499 C498 1.367 . S
C499 C501 1.433 . S
C500 C496 1.350 . S
C500 C497 1.463 . S
C500 N504 1.427 . S
C501 H491 0.929 . S
C501 C499 1.433 . S
C501 N504 1.384 . S
C502 H493 0.929 . S
C502 C494 1.378 . S
C502 C497 1.350 . S
C503 H490 0.929 . S
C503 C495 1.433 . S
C503 N505 1.384 . S
N504 C500 1.427 . S
N504 C501 1.384 . S
N505 C497 1.427 . S
N505 C503 1.384 . S
H506 C512 0.930 . S
H507 C516 0.930 . S
H508 C521 0.929 . S
H509 C519 0.929 . S
H510 C514 0.929 . S
H511 C520 0.929 . S
C512 H506 0.930 . S
C512 C513 1.367 . S
C512 C520 1.378 . S
C513 C512 1.367 . S
C513 C521 1.433 . S
C514 H510 0.929 . S
C514 C516 1.378 . S
C514 C518 1.350 . S
C515 C518 1.463 . S
C515 C520 1.350 . S
C515 N523 1.427 . S
C516 H507 0.930 . S
C516 C514 1.378 . S
C516 C517 1.367 . S
C517 C516 1.367 . S
C517 C519 1.433 . S
C518 C514 1.350 . S
C518 C515 1.463 . S
C518 N522 1.427 . S
C519 H509 0.929 . S
C519 C517 1.433 . S
C519 N522 1.384 . S
C520 H511 0.929 . S
C520 C512 1.378 . S
C520 C515 1.350 . S
C521 H508 0.929 . S
C521 C513 1.433 . S
C521 N523 1.384 . S
N522 C518 1.427 . S
N522 C519 1.384 . S
N523 C515 1.427 . S
N523 C521 1.384 . S
H524 C530 0.930 . S
H525 C534 0.930 . S
H526 C539 0.929 . S
H527 C537 0.929 . S
H528 C532 0.929 . S
H529 C538 0.929 . S
C530 H524 0.930 . S
C530 C531 1.367 . S
C530 C538 1.378 . S
C531 C530 1.367 . S
C531 C539 1.433 . S
C532 H528 0.929 . S
C532 C534 1.378 . S
C532 C536 1.350 . S
C533 C536 1.463 . S
C533 C538 1.350 . S
C533 N541 1.427 . S
C534 H525 0.930 . S
C534 C532 1.378 . S
C534 C535 1.367 . S
C535 C534 1.367 . S
C535 C537 1.433 . S
C536 C532 1.350 . S
C536 C533 1.463 . S
C536 N540 1.427 . S
C537 H527 0.929 . S
C537 C535 1.433 . S
C537 N540 1.384 . S
C538 H529 0.929 . S
C538 C530 1.378 . S
C538 C533 1.350 . S
C539 H526 0.929 . S
C539 C531 1.433 . S
C539 N541 1.384 . S
N540 C536 1.427 . S
N540 C537 1.384 . S
N541 C533 1.427 . S
N541 C539 1.384 . S
H542 C548 0.930 . S
H543 C552 0.930 . S
H544 C557 0.929 . S
H545 C555 0.945 . S
H546 C550 0.929 . S
H547 C556 0.929 . S
C548 H542 0.930 . S
C548 C549 1.367 . S
C548 C556 1.378 . S
C549 C548 1.367 . S
C549 C557 1.433 . S
C550 H546 0.929 . S
C550 C552 1.378 . S
C550 C554 1.350 . S
C551 C554 1.463 . S
C551 C556 1.350 . S
C551 N559 1.427 . S
C552 H543 0.930 . S
C552 C550 1.378 . S
C552 C553 1.367 . S
C553 C552 1.367 . S
C553 C555 1.433 . S
C554 C550 1.350 . S
C554 C551 1.463 . S
C554 N558 1.427 . S
C555 H545 0.945 . S
C555 C553 1.433 . S
C555 N558 1.384 . S
C556 H547 0.929 . S
C556 C548 1.378 . S
C556 C551 1.350 . S
C557 H544 0.929 . S
C557 C549 1.433 . S
C557 N559 1.384 . S
N558 C554 1.427 . S
N558 C555 1.384 . S
N559 C551 1.427 . S
N559 C557 1.384 . S
H560 C566 0.930 . S
H561 C570 0.930 . S
H562 C575 0.929 . S
H563 C573 0.929 . S
H564 C568 0.929 . S
H565 C574 0.916 1_545 S
C566 H560 0.930 . S
C566 C567 1.367 . S
C566 C574 1.378 . S
C567 C566 1.367 . S
C567 C575 1.433 . S
C568 H564 0.929 . S
C568 C570 1.378 . S
C568 C572 1.350 . S
C569 C572 1.463 1_554 S
C569 C574 1.350 . S
C569 N577 1.427 . S
C570 H561 0.930 . S
C570 C568 1.378 . S
C570 C571 1.358 1_565 S
C571 C570 1.358 1_545 S
C571 C573 1.439 . S
C572 C568 1.350 . S
C572 C569 1.463 1_556 S
C572 N576 1.427 1_565 S
C573 H563 0.929 . S
C573 C571 1.439 . S
C573 N576 1.384 . S
C574 H565 0.916 1_565 S
C574 C566 1.378 . S
C574 C569 1.350 . S
C575 H562 0.929 . S
C575 C567 1.433 . S
C575 N577 1.384 . S
N576 C572 1.427 1_545 S
N576 C573 1.384 . S
N577 C569 1.427 . S
N577 C575 1.384 . S
H578 C584 0.930 . S
H579 C588 0.930 . S
H580 C593 0.929 . S
H581 C591 0.929 . S
H582 C586 0.929 1_554 S
H583 C592 0.929 1_556 S
C584 H578 0.930 . S
C584 C585 1.367 . S
C584 C592 1.378 . S
C585 C584 1.367 . S
C585 C593 1.433 . S
C586 H582 0.929 1_556 S
C586 C588 1.378 . S
C586 C590 1.350 . S
C587 C590 1.463 1_554 S
C587 C592 1.350 . S
C587 N595 1.427 . S
C588 H579 0.930 . S
C588 C586 1.378 . S
C588 C589 1.367 . S
C589 C588 1.367 . S
C589 C591 1.433 . S
C590 C586 1.350 . S
C590 C587 1.463 1_556 S
C590 N594 1.427 . S
C591 H581 0.929 . S
C591 C589 1.433 . S
C591 N594 1.384 . S
C592 H583 0.929 1_554 S
C592 C584 1.378 . S
C592 C587 1.350 . S
C593 H580 0.929 . S
C593 C585 1.433 . S
C593 N595 1.384 . S
N594 C590 1.427 . S
N594 C591 1.384 . S
N595 C587 1.427 . S
N595 C593 1.384 . S
H596 C602 0.930 . S
H597 C606 0.930 . S
H598 C611 0.929 . S
H599 C609 0.929 . S
H600 C604 0.929 . S
H601 C610 0.929 . S
C602 H596 0.930 . S
C602 C603 1.367 . S
C602 C610 1.378 . S
C603 C602 1.367 . S
C603 C611 1.433 . S
C604 H600 0.929 . S
C604 C606 1.378 . S
C604 C608 1.350 . S
C605 C608 1.463 1_554 S
C605 C610 1.350 . S
C605 N613 1.427 . S
C606 H597 0.930 . S
C606 C604 1.378 . S
C606 C607 1.367 . S
C607 C606 1.367 . S
C607 C609 1.433 . S
C608 C604 1.350 . S
C608 C605 1.463 1_556 S
C608 N612 1.427 . S
C609 H599 0.929 . S
C609 C607 1.433 . S
C609 N612 1.384 . S
C610 H601 0.929 . S
C610 C602 1.378 . S
C610 C605 1.350 . S
C611 H598 0.929 . S
C611 C603 1.433 . S
C611 N613 1.384 . S
N612 C608 1.427 . S
N612 C609 1.384 . S
N613 C605 1.427 . S
N613 C611 1.384 . S
H614 C620 0.930 . S
H615 C624 0.930 . S
H616 C629 0.929 . S
H617 C627 0.929 . S
H618 C622 0.925 1_455 S
H619 C628 0.929 . S
C620 H614 0.930 . S
C620 C621 1.367 . S
C620 C628 1.378 . S
C621 C620 1.367 . S
C621 C629 1.433 . S
C622 H618 0.925 1_655 S
C622 C624 1.375 1_655 S
C622 C626 1.357 . S
C623 C626 1.463 1_554 S
C623 C628 1.350 . S
C623 N631 1.427 . S
C624 H615 0.930 . S
C624 C622 1.375 1_455 S
C624 C625 1.367 1_455 S
C625 C624 1.367 1_655 S
C625 C627 1.433 . S
C626 C622 1.357 . S
C626 C623 1.463 1_556 S
C626 N630 1.427 . S
C627 H617 0.929 . S
C627 C625 1.433 . S
C627 N630 1.384 . S
C628 H619 0.929 . S
C628 C620 1.378 . S
C628 C623 1.350 . S
C629 H616 0.929 . S
C629 C621 1.433 . S
C629 N631 1.384 . S
N630 C626 1.427 . S
N630 C627 1.384 . S
N631 C623 1.427 . S
N631 C629 1.384 . S
H632 C638 0.930 . S
H633 C642 0.930 1_655 S
H634 C647 0.929 . S
H635 C645 0.929 . S
H636 C640 0.929 . S
H637 C646 0.929 . S
C638 H632 0.930 . S
C638 C639 1.367 . S
C638 C646 1.378 . S
C639 C638 1.367 . S
C639 C647 1.433 . S
C640 H636 0.929 . S
C640 C642 1.378 . S
C640 C644 1.350 . S
C641 C644 1.463 . S
C641 C646 1.350 . S
C641 N649 1.427 . S
C642 H633 0.930 1_455 S
C642 C640 1.378 . S
C642 C643 1.367 . S
C643 C642 1.367 . S
C643 C645 1.433 . S
C644 C640 1.350 . S
C644 C641 1.463 . S
C644 N648 1.427 . S
C645 H635 0.929 . S
C645 C643 1.433 . S
C645 N648 1.384 . S
C646 H637 0.929 . S
C646 C638 1.378 . S
C646 C641 1.350 . S
C647 H634 0.929 . S
C647 C639 1.433 . S
C647 N649 1.384 . S
N648 C644 1.427 . S
N648 C645 1.384 . S
N649 C641 1.427 . S
N649 C647 1.384 . S
H650 C656 0.930 . S
H651 C660 0.930 . S
H652 C665 0.929 . S
H653 C663 0.929 1_565 S
H654 C658 0.929 . S
H655 C664 0.929 . S
C656 H650 0.930 . S
C656 C657 1.367 . S
C656 C664 1.378 . S
C657 C656 1.367 . S
C657 C665 1.433 . S
C658 H654 0.929 . S
C658 C660 1.378 . S
C658 C662 1.350 . S
C659 C662 1.463 . S
C659 C664 1.350 . S
C659 N667 1.427 . S
C660 H651 0.930 . S
C660 C658 1.378 . S
C660 C661 1.367 . S
C661 C660 1.367 . S
C661 C663 1.433 . S
C662 C658 1.350 . S
C662 C659 1.463 . S
C662 N666 1.427 . S
C663 H653 0.929 1_545 S
C663 C661 1.433 . S
C663 N666 1.384 . S
C664 H655 0.929 . S
C664 C656 1.378 . S
C664 C659 1.350 . S
C665 H652 0.929 . S
C665 C657 1.433 . S
C665 N667 1.384 . S
N666 C662 1.427 . S
N666 C663 1.384 . S
N667 C659 1.427 . S
N667 C665 1.384 . S
H668 C674 0.930 . S
H669 C678 0.930 . S
H670 C683 0.929 . S
H671 C681 0.929 . S
H672 C676 0.929 . S
H673 C682 0.929 . S
C674 H668 0.930 . S
C674 C675 1.367 . S
C674 C682 1.378 . S
C675 C674 1.367 . S
C675 C683 1.433 . S
C676 H672 0.929 . S
C676 C678 1.378 . S
C676 C680 1.350 . S
C677 C680 1.463 . S
C677 C682 1.350 . S
C677 N685 1.427 . S
C678 H669 0.930 . S
C678 C676 1.378 . S
C678 C679 1.367 . S
C679 C678 1.367 . S
C679 C681 1.433 . S
C680 C676 1.350 . S
C680 C677 1.463 . S
C680 N684 1.427 . S
C681 H671 0.929 . S
C681 C679 1.433 . S
C681 N684 1.384 . S
C682 H673 0.929 . S
C682 C674 1.378 . S
C682 C677 1.350 . S
C683 H670 0.929 . S
C683 C675 1.433 . S
C683 N685 1.384 . S
N684 C680 1.427 . S
N684 C681 1.384 . S
N685 C677 1.427 . S
N685 C683 1.384 . S
H686 C692 0.930 . S
H687 C696 0.930 . S
H688 C701 0.929 . S
H689 C699 0.929 . S
H690 C694 0.929 . S
H691 C700 0.929 . S
C692 H686 0.930 . S
C692 C693 1.367 . S
C692 C700 1.378 . S
C693 C692 1.367 . S
C693 C701 1.433 . S
C694 H690 0.929 . S
C694 C696 1.378 . S
C694 C698 1.350 . S
C695 C698 1.463 . S
C695 C700 1.350 . S
C695 N703 1.427 . S
C696 H687 0.930 . S
C696 C694 1.378 . S
C696 C697 1.367 . S
C697 C696 1.367 . S
C697 C699 1.433 . S
C698 C694 1.350 . S
C698 C695 1.463 . S
C698 N702 1.427 . S
C699 H689 0.929 . S
C699 C697 1.433 . S
C699 N702 1.384 . S
C700 H691 0.929 . S
C700 C692 1.378 . S
C700 C695 1.350 . S
C701 H688 0.929 . S
C701 C693 1.433 . S
C701 N703 1.384 . S
N702 C698 1.427 . S
N702 C699 1.384 . S
N703 C695 1.427 . S
N703 C701 1.384 . S
H704 C710 0.930 . S
H705 C714 0.930 . S
H706 C719 0.929 . S
H707 C717 0.929 . S
H708 C712 0.929 . S
H709 C718 0.929 . S
C710 H704 0.930 . S
C710 C711 1.367 1_455 S
C710 C718 1.378 . S
C711 C710 1.367 1_655 S
C711 C719 1.433 . S
C712 H708 0.929 . S
C712 C714 1.378 1_554 S
C712 C716 1.350 . S
C713 C716 1.463 . S
C713 C718 1.350 1_655 S
C713 N721 1.427 . S
C714 H705 0.930 . S
C714 C712 1.378 1_556 S
C714 C715 1.367 1_655 S
C715 C714 1.367 1_455 S
C715 C717 1.433 1_556 S
C716 C712 1.350 . S
C716 C713 1.463 . S
C716 N720 1.427 1_655 S
C717 H707 0.929 . S
C717 C715 1.433 1_554 S
C717 N720 1.384 . S
C718 H709 0.929 . S
C718 C710 1.378 . S
C718 C713 1.350 1_455 S
C719 H706 0.929 . S
C719 C711 1.433 . S
C719 N721 1.384 . S
N720 C716 1.427 1_455 S
N720 C717 1.384 . S
N721 C713 1.427 . S
N721 C719 1.384 . S
H722 C728 0.930 . S
H723 C732 0.930 1_556 S
H724 C737 0.929 . S
H725 C735 0.929 . S
H726 C730 0.929 . S
H727 C736 0.929 . S
C728 H722 0.930 . S
C728 C729 1.367 1_545 S
C728 C736 1.378 . S
C729 C728 1.367 1_565 S
C729 C737 1.433 . S
C730 H726 0.929 . S
C730 C732 1.378 . S
C730 C734 1.350 . S
C731 C734 1.463 . S
C731 C736 1.350 1_565 S
C731 N739 1.427 . S
C732 H723 0.930 1_554 S
C732 C730 1.378 . S
C732 C733 1.367 1_565 S
C733 C732 1.367 1_545 S
C733 C735 1.433 . S
C734 C730 1.350 . S
C734 C731 1.463 . S
C734 N738 1.427 1_565 S
C735 H725 0.929 . S
C735 C733 1.433 . S
C735 N738 1.384 . S
C736 H727 0.929 . S
C736 C728 1.378 . S
C736 C731 1.350 1_545 S
C737 H724 0.929 . S
C737 C729 1.433 . S
C737 N739 1.384 . S
N738 C734 1.427 1_545 S
N738 C735 1.384 . S
N739 C731 1.427 . S
N739 C737 1.384 . S
H740 C746 0.930 . S
H741 C750 0.930 . S
H742 C755 0.929 . S
H743 C753 0.929 . S
H744 C748 0.929 . S
H745 C754 0.929 . S
C746 H740 0.930 . S
C746 C747 1.367 . S
C746 C754 1.378 . S
C747 C746 1.367 . S
C747 C755 1.433 . S
C748 H744 0.929 . S
C748 C750 1.378 . S
C748 C752 1.350 . S
C749 C752 1.463 . S
C749 C754 1.350 . S
C749 N757 1.427 . S
C750 H741 0.930 . S
C750 C748 1.378 . S
C750 C751 1.367 . S
C751 C750 1.367 . S
C751 C753 1.433 1_554 S
C752 C748 1.350 . S
C752 C749 1.463 . S
C752 N756 1.428 . S
C753 H743 0.929 . S
C753 C751 1.433 1_556 S
C753 N756 1.383 1_556 S
C754 H745 0.929 . S
C754 C746 1.378 . S
C754 C749 1.350 . S
C755 H742 0.929 . S
C755 C747 1.433 . S
C755 N757 1.384 . S
N756 C752 1.428 . S
N756 C753 1.383 1_554 S
N757 C749 1.427 . S
N757 C755 1.384 . S
H758 C764 0.930 . S
H759 C768 0.930 . S
H760 C773 0.929 . S
H761 C771 0.928 1_556 S
H762 C766 0.929 . S
H763 C772 0.929 . S
C764 H758 0.930 . S
C764 C765 1.367 . S
C764 C772 1.378 . S
C765 C764 1.367 . S
C765 C773 1.433 . S
C766 H762 0.929 . S
C766 C768 1.378 . S
C766 C770 1.350 . S
C767 C770 1.463 . S
C767 C772 1.350 . S
C767 N775 1.427 . S
C768 H759 0.930 . S
C768 C766 1.378 . S
C768 C769 1.365 1_554 S
C769 C768 1.365 1_556 S
C769 C771 1.432 1_556 S
C770 C766 1.350 . S
C770 C767 1.463 . S
C770 N774 1.427 . S
C771 H761 0.928 1_554 S
C771 C769 1.432 1_554 S
C771 N774 1.384 . S
C772 H763 0.929 . S
C772 C764 1.378 . S
C772 C767 1.350 . S
C773 H760 0.929 . S
C773 C765 1.433 . S
C773 N775 1.384 . S
N774 C770 1.427 . S
N774 C771 1.384 . S
N775 C767 1.427 . S
N775 C773 1.384 . S
H776 C782 0.930 . S
H777 C786 0.930 . S
H778 C791 0.929 . S
H779 C789 0.929 . S
H780 C784 0.929 . S
H781 C790 0.929 . S
C782 H776 0.930 . S
C782 C783 1.367 . S
C782 C790 1.378 . S
C783 C782 1.367 . S
C783 C791 1.433 . S
C784 H780 0.929 . S
C784 C786 1.378 . S
C784 C788 1.350 . S
C785 C788 1.463 . S
C785 C790 1.350 . S
C785 N793 1.427 . S
C786 H777 0.930 . S
C786 C784 1.378 . S
C786 C787 1.367 . S
C787 C786 1.367 . S
C787 C789 1.433 . S
C788 C784 1.350 . S
C788 C785 1.463 . S
C788 N792 1.427 . S
C789 H779 0.929 . S
C789 C787 1.433 . S
C789 N792 1.384 . S
C790 H781 0.929 . S
C790 C782 1.378 . S
C790 C785 1.350 . S
C791 H778 0.929 . S
C791 C783 1.433 . S
C791 N793 1.384 . S
N792 C788 1.427 . S
N792 C789 1.384 . S
N793 C785 1.427 . S
N793 C791 1.384 . S
H794 C800 0.930 . S
H795 C804 0.930 . S
H796 C809 0.929 . S
H797 C807 0.929 . S
H798 C802 0.929 . S
H799 C808 0.929 . S
C800 H794 0.930 . S
C800 C801 1.367 . S
C800 C808 1.378 . S
C801 C800 1.367 . S
C801 C809 1.433 . S
C802 H798 0.929 . S
C802 C804 1.378 . S
C802 C806 1.350 . S
C803 C806 1.463 . S
C803 C808 1.350 . S
C803 N811 1.427 . S
C804 H795 0.930 . S
C804 C802 1.378 . S
C804 C805 1.367 . S
C805 C804 1.367 . S
C805 C807 1.433 . S
C806 C802 1.350 . S
C806 C803 1.463 . S
C806 N810 1.427 . S
C807 H797 0.929 . S
C807 C805 1.433 . S
C807 N810 1.384 . S
C808 H799 0.929 . S
C808 C800 1.378 . S
C808 C803 1.350 . S
C809 H796 0.929 . S
C809 C801 1.433 . S
C809 N811 1.384 . S
N810 C806 1.427 . S
N810 C807 1.384 . S
N811 C803 1.427 . S
N811 C809 1.384 . S
H812 C818 0.930 . S
H813 C822 0.930 . S
H814 C827 0.929 . S
H815 C825 0.929 . S
H816 C820 0.929 . S
H817 C826 0.929 . S
C818 H812 0.930 . S
C818 C819 1.367 . S
C818 C826 1.378 . S
C819 C818 1.367 . S
C819 C827 1.433 . S
C820 H816 0.929 . S
C820 C822 1.378 . S
C820 C824 1.350 . S
C821 C824 1.463 . S
C821 C826 1.350 . S
C821 N829 1.427 . S
C822 H813 0.930 . S
C822 C820 1.378 . S
C822 C823 1.367 . S
C823 C822 1.367 . S
C823 C825 1.433 . S
C824 C820 1.350 . S
C824 C821 1.463 . S
C824 N828 1.427 . S
C825 H815 0.929 . S
C825 C823 1.433 . S
C825 N828 1.384 . S
C826 H817 0.929 . S
C826 C818 1.378 . S
C826 C821 1.350 . S
C827 H814 0.929 . S
C827 C819 1.433 . S
C827 N829 1.384 . S
N828 C824 1.427 . S
N828 C825 1.384 . S
N829 C821 1.427 . S
N829 C827 1.384 . S
H830 C836 0.930 . S
H831 C840 0.930 . S
H832 C845 0.929 . S
H833 C843 0.929 . S
H834 C838 0.929 . S
H835 C844 0.929 . S
C836 H830 0.930 . S
C836 C837 1.367 . S
C836 C844 1.378 . S
C837 C836 1.367 . S
C837 C845 1.433 . S
C838 H834 0.929 . S
C838 C840 1.378 . S
C838 C842 1.350 . S
C839 C842 1.463 . S
C839 C844 1.350 . S
C839 N847 1.427 . S
C840 H831 0.930 . S
C840 C838 1.378 . S
C840 C841 1.367 . S
C841 C840 1.367 . S
C841 C843 1.433 . S
C842 C838 1.350 . S
C842 C839 1.463 . S
C842 N846 1.427 . S
C843 H833 0.929 . S
C843 C841 1.433 . S
C843 N846 1.384 . S
C844 H835 0.929 . S
C844 C836 1.378 . S
C844 C839 1.350 . S
C845 H832 0.929 . S
C845 C837 1.433 . S
C845 N847 1.384 . S
N846 C842 1.427 . S
N846 C843 1.384 . S
N847 C839 1.427 . S
N847 C845 1.384 . S
H848 C854 0.930 . S
H849 C858 0.930 . S
H850 C863 0.929 1_455 S
H851 C861 0.929 . S
H852 C856 0.929 . S
H853 C862 0.929 . S
C854 H848 0.930 . S
C854 C855 1.367 . S
C854 C862 1.378 . S
C855 C854 1.367 . S
C855 C863 1.433 . S
C856 H852 0.929 . S
C856 C858 1.378 . S
C856 C860 1.350 1_455 S
C857 C860 1.463 . S
C857 C862 1.350 . S
C857 N865 1.427 . S
C858 H849 0.930 . S
C858 C856 1.378 . S
C858 C859 1.367 1_455 S
C859 C858 1.367 1_655 S
C859 C861 1.433 . S
C860 C856 1.350 1_655 S
C860 C857 1.463 . S
C860 N864 1.427 . S
C861 H851 0.929 . S
C861 C859 1.433 . S
C861 N864 1.384 . S
C862 H853 0.929 . S
C862 C854 1.378 . S
C862 C857 1.350 . S
C863 H850 0.929 1_655 S
C863 C855 1.433 . S
C863 N865 1.384 . S
N864 C860 1.427 . S
N864 C861 1.384 . S
N865 C857 1.427 . S
N865 C863 1.384 . S
H866 C872 0.930 . S
H867 C876 0.925 1_545 S
H868 C881 0.929 . S
H869 C879 0.929 . S
H870 C874 0.929 . S
H871 C880 0.929 . S
C872 H866 0.930 . S
C872 C873 1.367 . S
C872 C880 1.378 . S
C873 C872 1.367 . S
C873 C881 1.433 . S
C874 H870 0.929 . S
C874 C876 1.382 . S
C874 C878 1.350 . S
C875 C878 1.463 . S
C875 C880 1.350 . S
C875 N883 1.427 . S
C876 H867 0.925 1_565 S
C876 C874 1.382 . S
C876 C877 1.369 . S
C877 C876 1.369 . S
C877 C879 1.433 . S
C878 C874 1.350 . S
C878 C875 1.463 . S
C878 N882 1.427 . S
C879 H869 0.929 . S
C879 C877 1.433 . S
C879 N882 1.384 . S
C880 H871 0.929 . S
C880 C872 1.378 . S
C880 C875 1.350 . S
C881 H868 0.929 . S
C881 C873 1.433 . S
C881 N883 1.384 . S
N882 C878 1.427 . S
N882 C879 1.384 . S
N883 C875 1.427 . S
N883 C881 1.384 . S
H884 C890 0.930 . S
H885 C894 0.930 . S
H886 C899 0.929 . S
H887 C897 0.929 . S
H888 C892 0.929 . S
H889 C898 0.929 . S
C890 H884 0.930 . S
C890 C891 1.367 . S
C890 C898 1.378 . S
C891 C890 1.367 . S
C891 C899 1.433 . S
C892 H888 0.929 . S
C892 C894 1.378 . S
C892 C896 1.350 . S
C893 C896 1.463 . S
C893 C898 1.350 . S
C893 N901 1.427 . S
C894 H885 0.930 . S
C894 C892 1.378 . S
C894 C895 1.367 . S
C895 C894 1.367 . S
C895 C897 1.433 . S
C896 C892 1.350 . S
C896 C893 1.463 . S
C896 N900 1.427 . S
C897 H887 0.929 . S
C897 C895 1.433 . S
C897 N900 1.384 . S
C898 H889 0.929 . S
C898 C890 1.378 . S
C898 C893 1.350 . S
C899 H886 0.929 . S
C899 C891 1.433 . S
C899 N901 1.384 . S
N900 C896 1.427 . S
N900 C897 1.384 . S
N901 C893 1.427 . S
N901 C899 1.384 . S
H902 C908 0.930 . S
H903 C912 0.930 . S
H904 C917 0.929 . S
H905 C915 0.929 . S
H906 C910 0.929 . S
H907 C916 0.929 . S
C908 H902 0.930 . S
C908 C909 1.367 . S
C908 C916 1.378 . S
C909 C908 1.367 . S
C909 C917 1.433 . S
C910 H906 0.929 . S
C910 C912 1.378 . S
C910 C914 1.350 . S
C911 C914 1.463 . S
C911 C916 1.350 . S
C911 N919 1.427 . S
C912 H903 0.930 . S
C912 C910 1.378 . S
C912 C913 1.367 . S
C913 C912 1.367 . S
C913 C915 1.433 . S
C914 C910 1.350 . S
C914 C911 1.463 . S
C914 N918 1.427 . S
C915 H905 0.929 . S
C915 C913 1.433 . S
C915 N918 1.384 . S
C916 H907 0.929 . S
C916 C908 1.378 . S
C916 C911 1.350 . S
C917 H904 0.929 . S
C917 C909 1.433 . S
C917 N919 1.384 . S
N918 C914 1.427 . S
N918 C915 1.384 . S
N919 C911 1.427 . S
N919 C917 1.384 . S
C495 C125 1.963 . S
C499 C215 2.020 . S
C517 C292 2.038 . S
C513 C144 1.963 . S
C535 C383 2.015 . S
C531 C87 1.959 . S
C553 C467 2.009 . S
C549 C106 1.941 . S
C571 C226 2.032 . S
C567 C49 2.019 . S
C585 C68 2.026 . S
C589 C303 2.034 . S
C603 C11 2.014 . S
C607 C394 2.019 . S
C621 C30 1.999 . S
C625 C478 2.006 1_655 S
C643 C210 0.677 1_455 S
C639 C97 0.679 . S
C661 C305 0.674 . S
C657 C116 0.628 . S
C679 C378 0.697 . S
C675 C135 0.664 . S
C693 C78 0.636 . S
C697 C462 0.678 . S
C711 C21 0.653 . S
C715 C221 0.691 . S
C733 C294 0.660 . S
C729 C40 0.636 . S
C751 C389 0.680 1_554 S
C747 C59 0.680 . S
C765 C2 0.644 . S
C769 C473 0.687 . S
C783 C101 1.940 . S
C787 C219 2.109 . S
C801 C120 1.956 . S
C805 C310 2.134 . S
C823 C387 2.128 . S
C819 C139 1.955 . S
C841 C471 2.132 . S
C837 C82 1.962 . S
C855 C25 1.943 . S
C859 C208 2.110 . S
C877 C299 2.134 1_565 S
C873 C44 1.959 . S
C895 C376 2.134 . S
C891 C63 1.974 . S
C909 C6 1.978 . S
C913 C460 2.137 . S
