# Generated by pormake.
# Topology nom, (4,4)-cn, num edge types: 1
# Building blocks:
#     Node 0, Type 0, BuildingBlock: MIFKUJ_clean_linker_1, # of connection points: 4
#     Node 1, Type 0, BuildingBlock: MIFKUJ_clean_linker_1, # of connection points: 4
#     Node 2, Type 0, BuildingBlock: MIFKUJ_clean_linker_1, # of connection points: 4
#     Node 3, Type 0, BuildingBlock: MIFKUJ_clean_linker_1, # of connection points: 4
#     Node 4, Type 0, BuildingBlock: MIFKUJ_clean_linker_1, # of connection points: 4
#     Node 5, Type 0, BuildingBlock: MIFKUJ_clean_linker_1, # of connection points: 4
#     Node 6, Type 1, BuildingBlock: NAHDIM_clean_sbu_0, # of connection points: 4
#     Node 7, Type 1, BuildingBlock: NAHDIM_clean_sbu_0, # of connection points: 4
#     Node 8, Type 1, BuildingBlock: NAHDIM_clean_sbu_0, # of connection points: 4
#     Node 9, Type 1, BuildingBlock: NAHDIM_clean_sbu_0, # of connection points: 4
#     Node 10, Type 1, BuildingBlock: NAHDIM_clean_sbu_0, # of connection points: 4
#     Node 11, Type 1, BuildingBlock: NAHDIM_clean_sbu_0, # of connection points: 4
#     Edge 12, Type (0, 1), BuildingBlock: EZIPEK_clean_linker_0, # of connection points: 2
#     Edge 13, Type (0, 1), BuildingBlock: EZIPEK_clean_linker_0, # of connection points: 2
#     Edge 14, Type (0, 1), BuildingBlock: EZIPEK_clean_linker_0, # of connection points: 2
#     Edge 15, Type (0, 1), BuildingBlock: EZIPEK_clean_linker_0, # of connection points: 2
#     Edge 16, Type (0, 1), BuildingBlock: EZIPEK_clean_linker_0, # of connection points: 2
#     Edge 17, Type (0, 1), BuildingBlock: EZIPEK_clean_linker_0, # of connection points: 2
#     Edge 18, Type (0, 1), BuildingBlock: EZIPEK_clean_linker_0, # of connection points: 2
#     Edge 19, Type (0, 1), BuildingBlock: EZIPEK_clean_linker_0, # of connection points: 2
#     Edge 20, Type (0, 1), BuildingBlock: EZIPEK_clean_linker_0, # of connection points: 2
#     Edge 21, Type (0, 1), BuildingBlock: EZIPEK_clean_linker_0, # of connection points: 2
#     Edge 22, Type (0, 1), BuildingBlock: EZIPEK_clean_linker_0, # of connection points: 2
#     Edge 23, Type (0, 1), BuildingBlock: EZIPEK_clean_linker_0, # of connection points: 2
#     Edge 24, Type (0, 1), BuildingBlock: EZIPEK_clean_linker_0, # of connection points: 2
#     Edge 25, Type (0, 1), BuildingBlock: EZIPEK_clean_linker_0, # of connection points: 2
#     Edge 26, Type (0, 1), BuildingBlock: EZIPEK_clean_linker_0, # of connection points: 2
#     Edge 27, Type (0, 1), BuildingBlock: EZIPEK_clean_linker_0, # of connection points: 2
#     Edge 28, Type (0, 1), BuildingBlock: EZIPEK_clean_linker_0, # of connection points: 2
#     Edge 29, Type (0, 1), BuildingBlock: EZIPEK_clean_linker_0, # of connection points: 2
#     Edge 30, Type (0, 1), BuildingBlock: EZIPEK_clean_linker_0, # of connection points: 2
#     Edge 31, Type (0, 1), BuildingBlock: EZIPEK_clean_linker_0, # of connection points: 2
#     Edge 32, Type (0, 1), BuildingBlock: EZIPEK_clean_linker_0, # of connection points: 2
#     Edge 33, Type (0, 1), BuildingBlock: EZIPEK_clean_linker_0, # of connection points: 2
#     Edge 34, Type (0, 1), BuildingBlock: EZIPEK_clean_linker_0, # of connection points: 2
#     Edge 35, Type (0, 1), BuildingBlock: EZIPEK_clean_linker_0, # of connection points: 2
# Relax obj value: 0.020
# Max RMSD: 0.119
# Mean RMSD: 0.105
data_MOF--net-nom--node1-NAHDIM_clean_sbu_0--node2-MIFKUJ_clean_linker_1--edge1-EZIPEK_clean_linker_0
_symmetry_space_group_name_H-M    P1
_symmetry_Int_Tables_number       1
_symmetry_cell_setting            triclinic
loop_
_symmetry_equiv_pos_as_xyz
'x, y, z'
_cell_length_a     40.968113
_cell_length_b     42.24729
_cell_length_c     43.819552
_cell_angle_alpha  89.980269
_cell_angle_beta   90.688539
_cell_angle_gamma 121.07384
loop_
_atom_site_label
_atom_site_type_symbol
_atom_site_fract_x
_atom_site_fract_y
_atom_site_fract_z
_atom_type_partial_charge
H0 H 0.95966 0.43579 0.26179 0.0
H1 H 0.91725 0.40794 0.21718 0.0
H2 H 0.87412 0.48091 0.22996 0.0
H3 H 0.91671 0.50902 0.27458 0.0
H4 H 0.01644 0.513 0.2672 0.0
H5 H 0.89338 0.42338 0.31788 0.0
H6 H 0.82684 0.40397 0.32911 0.0
H7 H 0.86414 0.51218 0.36606 0.0
H8 H 0.93025 0.53184 0.35448 0.0
H9 H 0.02956 0.57197 0.39093 0.0
H10 H 0.0762 0.59532 0.43331 0.0
H11 H 0.12739 0.53616 0.39764 0.0
H12 H 0.08079 0.51259 0.35532 0.0
H13 H 0.97561 0.50684 0.37425 0.0
H14 H 0.07618 0.60239 0.32762 0.0
H15 H 0.14112 0.64778 0.31217 0.0
H16 H 0.14801 0.56266 0.26367 0.0
H17 H 0.08267 0.51681 0.27926 0.0
C18 C 0.94107 0.47423 0.27158 0.0
C19 C 0.94086 0.44559 0.25515 0.0
C20 C 0.91671 0.42968 0.22984 0.0
C21 C 0.89266 0.4424 0.2205 0.0
C22 C 0.89245 0.47074 0.23704 0.0
C23 C 0.9166 0.48663 0.26244 0.0
C24 C 0.9685 0.49217 0.29722 0.0
C25 C 0.00753 0.51091 0.2907 0.0
C26 C 0.95687 0.49242 0.32746 0.0
C27 C 0.91672 0.47915 0.33515 0.0
C28 C 0.88722 0.44292 0.32833 0.0
C29 C 0.84941 0.43181 0.33481 0.0
C30 C 0.84088 0.45677 0.34835 0.0
C31 C 0.87035 0.49265 0.35565 0.0
C32 C 0.90796 0.50374 0.34912 0.0
C33 C 0.05175 0.54061 0.36992 0.0
C34 C 0.05073 0.56393 0.39224 0.0
C35 C 0.07734 0.57737 0.41626 0.0
C36 C 0.10508 0.56743 0.41838 0.0
C37 C 0.10618 0.54413 0.39619 0.0
C38 C 0.07971 0.53083 0.3721 0.0
C39 C 0.02351 0.52609 0.34439 0.0
C40 C 0.98455 0.50824 0.35084 0.0
C41 C 0.03505 0.52943 0.31373 0.0
C42 C 0.07483 0.55611 0.30494 0.0
C43 C 0.09174 0.5933 0.31397 0.0
C44 C 0.1286 0.61922 0.30503 0.0
C45 C 0.14911 0.60843 0.28684 0.0
C46 C 0.1324 0.57133 0.27772 0.0
C47 C 0.09531 0.5453 0.28659 0.0
H48 H 0.4055 0.94366 0.53354 0.0
H49 H 0.36964 0.87925 0.55063 0.0
H50 H 0.45468 0.86047 0.51225 0.0
H51 H 0.49096 0.92512 0.49535 0.0
H52 H 0.47718 0.99854 0.54839 0.0
H53 H 0.4103 0.92763 0.45767 0.0
H54 H 0.39346 0.88312 0.4157 0.0
H55 H 0.5105 0.9412 0.38701 0.0
H56 H 0.5278 0.98483 0.42964 0.0
H57 H 0.57149 0.09279 0.44843 0.0
H58 H 0.59323 0.15398 0.42648 0.0
H59 H 0.5059 0.16007 0.47532 0.0
H60 H 0.48383 0.09886 0.49711 0.0
H61 H 0.50556 0.03226 0.43949 0.0
H62 H 0.57654 0.0962 0.52862 0.0
H63 H 0.60147 0.13636 0.57397 0.0
H64 H 0.48674 0.09324 0.60523 0.0
H65 H 0.4618 0.05255 0.56021 0.0
C66 C 0.45069 0.93903 0.51295 0.0
C67 C 0.41655 0.92576 0.52892 0.0
C68 C 0.3961 0.88914 0.53861 0.0
C69 C 0.40962 0.86537 0.5326 0.0
C70 C 0.44392 0.87859 0.51697 0.0
C71 C 0.46443 0.91528 0.50727 0.0
C72 C 0.47176 0.97787 0.50257 0.0
C73 C 0.483 0.00592 0.52451 0.0
C74 C 0.481 0.98748 0.47159 0.0
C75 C 0.47045 0.95942 0.44705 0.0
C76 C 0.43254 0.93038 0.44281 0.0
C77 C 0.42286 0.90511 0.41882 0.0
C78 C 0.45078 0.909 0.39833 0.0
C79 C 0.48864 0.93777 0.40265 0.0
C80 C 0.4984 0.9627 0.42685 0.0
C81 C 0.52627 0.09139 0.47464 0.0
C82 C 0.55725 0.10743 0.45467 0.0
C83 C 0.56961 0.14218 0.44214 0.0
C84 C 0.55097 0.1612 0.44928 0.0
C85 C 0.52052 0.14563 0.46964 0.0
C86 C 0.50822 0.11094 0.48223 0.0
C87 C 0.51043 0.05292 0.48528 0.0
C88 C 0.50003 0.02492 0.46339 0.0
C89 C 0.50277 0.04332 0.51635 0.0
C90 C 0.51732 0.07144 0.54107 0.0
C91 C 0.55671 0.09594 0.5449 0.0
C92 C 0.57093 0.11872 0.57076 0.0
C93 C 0.54591 0.11758 0.59293 0.0
C94 C 0.50644 0.09442 0.58836 0.0
C95 C 0.49227 0.07128 0.56274 0.0
H96 H 0.53561 0.57309 0.7133 0.0
H97 H 0.51405 0.59479 0.7562 0.0
H98 H 0.39708 0.51852 0.72997 0.0
H99 H 0.41858 0.49655 0.68707 0.0
H100 H 0.51742 0.49918 0.70212 0.0
H101 H 0.48821 0.58921 0.65461 0.0
H102 H 0.44099 0.60671 0.64159 0.0
H103 H 0.37356 0.50391 0.59256 0.0
H104 H 0.41995 0.48592 0.60606 0.0
H105 H 0.48653 0.45686 0.57278 0.0
H106 H 0.51593 0.4439 0.5299 0.0
H107 H 0.62534 0.50347 0.57566 0.0
H108 H 0.59611 0.51678 0.61861 0.0
H109 H 0.49474 0.5168 0.59375 0.0
H110 H 0.50557 0.42232 0.63218 0.0
H111 H 0.52619 0.38026 0.64932 0.0
H112 H 0.59905 0.45965 0.71768 0.0
H113 H 0.5801 0.50293 0.69948 0.0
C114 C 0.47869 0.53345 0.69692 0.0
C115 C 0.50533 0.56104 0.71677 0.0
C116 C 0.49311 0.57347 0.74111 0.0
C117 C 0.45407 0.55826 0.74607 0.0
C118 C 0.42733 0.53059 0.72633 0.0
C119 C 0.43957 0.51817 0.70192 0.0
C120 C 0.49229 0.52051 0.67136 0.0
C121 C 0.51331 0.50368 0.67837 0.0
C122 C 0.484 0.52368 0.64049 0.0
C123 C 0.45739 0.53609 0.63154 0.0
C124 C 0.46323 0.5704 0.64115 0.0
C125 C 0.43648 0.58043 0.63369 0.0
C126 C 0.40395 0.55645 0.61624 0.0
C127 C 0.39856 0.52265 0.60606 0.0
C128 C 0.42506 0.51253 0.61365 0.0
C129 C 0.53907 0.48771 0.59898 0.0
C130 C 0.51684 0.46718 0.57365 0.0
C131 C 0.53352 0.45969 0.54927 0.0
C132 C 0.57269 0.47272 0.54977 0.0
C133 C 0.59502 0.49311 0.57503 0.0
C134 C 0.57831 0.50054 0.5995 0.0
C135 C 0.52152 0.49675 0.62439 0.0
C136 C 0.49965 0.51274 0.61743 0.0
C137 C 0.52669 0.49032 0.6553 0.0
C138 C 0.54178 0.46623 0.66412 0.0
C139 C 0.52692 0.43136 0.6502 0.0
C140 C 0.53828 0.40711 0.66019 0.0
C141 C 0.56402 0.41688 0.68476 0.0
C142 C 0.57917 0.45172 0.69864 0.0
C143 C 0.5683 0.4763 0.68828 0.0
H144 H 0.04321 0.56665 0.75375 0.0
H145 H 0.09299 0.59457 0.71487 0.0
H146 H 0.13483 0.52381 0.74263 0.0
H147 H 0.08479 0.49544 0.78115 0.0
H148 H 0.98508 0.49082 0.76084 0.0
H149 H 0.10022 0.58565 0.81996 0.0
H150 H 0.16672 0.60991 0.83662 0.0
H151 H 0.13552 0.50261 0.87163 0.0
H152 H 0.06929 0.47839 0.85521 0.0
H153 H 0.96651 0.43678 0.88642 0.0
H154 H 0.91991 0.41573 0.92762 0.0
H155 H 0.86551 0.46855 0.88431 0.0
H156 H 0.91259 0.49051 0.84341 0.0
H157 H 0.01861 0.50138 0.87109 0.0
H158 H 0.92357 0.40241 0.81532 0.0
H159 H 0.85808 0.35786 0.79885 0.0
H160 H 0.84943 0.44586 0.75723 0.0
H161 H 0.91564 0.49058 0.77319 0.0
C162 C 0.06057 0.52925 0.77048 0.0
C163 C 0.06304 0.5571 0.75141 0.0
C164 C 0.09144 0.57312 0.72943 0.0
C165 C 0.11756 0.56134 0.72617 0.0
C166 C 0.11499 0.53334 0.74505 0.0
C167 C 0.08655 0.51726 0.76697 0.0
C168 C 0.03087 0.51294 0.79414 0.0
C169 C 0.99238 0.49383 0.78497 0.0
C170 C 0.04028 0.51451 0.82548 0.0
C171 C 0.08 0.53025 0.83635 0.0
C172 C 0.10774 0.56745 0.83132 0.0
C173 C 0.14546 0.58124 0.84078 0.0
C174 C 0.15567 0.55787 0.85521 0.0
C175 C 0.12793 0.52087 0.86049 0.0
C176 C 0.0903 0.5072 0.85126 0.0
C177 C 0.94301 0.46512 0.86172 0.0
C178 C 0.94455 0.44381 0.88569 0.0
C179 C 0.91798 0.43169 0.90909 0.0
C180 C 0.88945 0.44064 0.90881 0.0
C181 C 0.88731 0.46132 0.88469 0.0
C182 C 0.91402 0.47361 0.86135 0.0
C183 C 0.97274 0.48004 0.83792 0.0
C184 C 0.01117 0.4989 0.84701 0.0
C185 C 0.96336 0.47613 0.80646 0.0
C186 C 0.92417 0.44973 0.79563 0.0
C187 C 0.90764 0.41211 0.80253 0.0
C188 C 0.87045 0.38675 0.79311 0.0
C189 C 0.84908 0.39867 0.77689 0.0
C190 C 0.86565 0.43626 0.76967 0.0
C191 C 0.90322 0.46164 0.77873 0.0
H192 H 0.59036 0.07353 0.04844 0.0
H193 H 0.63014 0.13731 0.06648 0.0
H194 H 0.5583 0.16739 0.01747 0.0
H195 H 0.51706 0.10293 1.00053 0.0
H196 H 0.52056 0.02357 0.0578 0.0
H197 H 0.59105 0.09059 0.96724 0.0
H198 H 0.61054 0.1343 0.92463 0.0
H199 H 0.49316 0.08472 0.89564 0.0
H200 H 0.47344 0.04143 0.9385 0.0
H201 H 0.42538 0.92514 0.95948 0.0
H202 H 0.40325 0.86195 0.94139 0.0
H203 H 0.5005 0.86642 0.98503 0.0
H204 H 0.52235 0.9292 0.0034 0.0
H205 H 0.49416 0.99017 0.94806 0.0
H206 H 0.42402 0.92013 0.03352 0.0
H207 H 0.40227 0.87421 0.07454 0.0
H208 H 0.51642 0.92823 0.11206 0.0
H209 H 0.53843 0.974 0.07097 0.0
C210 C 0.5509 0.08343 0.02283 0.0
C211 C 0.58277 0.09364 0.04182 0.0
C212 C 0.60555 0.12999 0.05205 0.0
C213 C 0.59717 0.15692 0.04317 0.0
C214 C 0.56516 0.14688 0.02446 0.0
C215 C 0.5419 0.11025 0.01462 0.0
C216 C 0.5275 0.04459 0.012 0.0
C217 C 0.51511 0.01637 0.03375 0.0
C218 C 0.51864 0.035 0.98073 0.0
C219 C 0.53072 0.06299 0.95624 0.0
C220 C 0.56942 0.08955 0.95209 0.0
C221 C 0.58056 0.11437 0.92781 0.0
C222 C 0.5532 0.11267 0.90721 0.0
C223 C 0.51456 0.08646 0.91147 0.0
C224 C 0.50341 0.06178 0.93579 0.0
C225 C 0.47523 0.93156 0.983 0.0
C226 C 0.44183 0.91243 0.96518 0.0
C227 C 0.42926 0.87656 0.9549 0.0
C228 C 0.45031 0.85972 0.96196 0.0
C229 C 0.48391 0.87902 0.97948 0.0
C230 C 0.49622 0.91465 0.99 0.0
C231 C 0.48911 0.96966 0.99377 0.0
C232 C 0.49934 0.99756 0.97209 0.0
C233 C 0.49589 0.97905 0.02506 0.0
C234 C 0.4829 0.95044 0.04912 0.0
C235 C 0.4445 0.92186 0.05033 0.0
C236 C 0.43204 0.89578 0.07369 0.0
C237 C 0.45783 0.89802 0.09616 0.0
C238 C 0.49624 0.9262 0.09482 0.0
C239 C 0.50868 0.9523 0.07151 0.0
H240 H 0.46795 0.44497 0.20541 0.0
H241 H 0.48444 0.41574 0.24649 0.0
H242 H 0.60283 0.48055 0.22199 0.0
H243 H 0.58653 0.51 0.18106 0.0
H244 H 0.49452 0.52054 0.19765 0.0
H245 H 0.50263 0.42281 0.14196 0.0
H246 H 0.53719 0.39275 0.12479 0.0
H247 H 0.6248 0.49606 0.08727 0.0
H248 H 0.59059 0.52613 0.10444 0.0
H249 H 0.54075 0.57827 0.07517 0.0
H250 H 0.52089 0.60185 0.03208 0.0
H251 H 0.40623 0.54656 0.0661 0.0
H252 H 0.4259 0.5226 0.10927 0.0
H253 H 0.51893 0.51015 0.08863 0.0
H254 H 0.51795 0.6084 0.13518 0.0
H255 H 0.49573 0.64935 0.15159 0.0
H256 H 0.41391 0.56394 0.21034 0.0
H257 H 0.43422 0.52185 0.19238 0.0
C258 C 0.52598 0.47944 0.19007 0.0
C259 C 0.49744 0.45283 0.20884 0.0
C260 C 0.50675 0.43607 0.23209 0.0
C261 C 0.54475 0.44592 0.23699 0.0
C262 C 0.57333 0.4725 0.21831 0.0
C263 C 0.56402 0.4892 0.19501 0.0
C264 C 0.5159 0.49728 0.1656 0.0
C265 C 0.49911 0.51779 0.17371 0.0
C266 C 0.52408 0.49547 0.13464 0.0
C267 C 0.54424 0.47672 0.12461 0.0
C268 C 0.52935 0.43897 0.13017 0.0
C269 C 0.54888 0.42185 0.12033 0.0
C270 C 0.58342 0.44235 0.10485 0.0
C271 C 0.59815 0.47994 0.09917 0.0
C272 C 0.57865 0.49698 0.10891 0.0
C273 C 0.48483 0.54874 0.09547 0.0
C274 C 0.51135 0.57126 0.07346 0.0
C275 C 0.50012 0.58478 0.04898 0.0
C276 C 0.46218 0.5758 0.04605 0.0
C277 C 0.43564 0.5537 0.06815 0.0
C278 C 0.4469 0.54023 0.09273 0.0
C279 C 0.49656 0.53281 0.12044 0.0
C280 C 0.51378 0.51273 0.11248 0.0
C281 C 0.49029 0.53651 0.15162 0.0
C282 C 0.47713 0.56158 0.16191 0.0
C283 C 0.4946 0.59802 0.15103 0.0
C284 C 0.48232 0.62161 0.16067 0.0
C285 C 0.45319 0.60961 0.18212 0.0
C286 C 0.43639 0.57362 0.1937 0.0
C287 C 0.44805 0.5497 0.18351 0.0
C288 C 0.59674 0.30212 0.39431 0.0
O289 O 0.62449 0.31675 0.37454 0.0
O290 O 0.66548 0.39412 0.38833 0.0
Zn291 Zn 0.61029 0.37605 0.39746 0.0
O292 O 0.60533 0.39936 0.43579 0.0
C293 C 0.59214 0.38585 0.33511 0.0
O294 O 0.61434 0.37313 0.328 0.0
O295 O 0.5847 0.32168 0.40593 0.0
C296 C 0.62556 0.43331 0.44304 0.0
O297 O 0.65337 0.45632 0.42531 0.0
C298 C 0.68808 0.42319 0.37374 0.0
O299 O 0.67659 0.44531 0.36414 0.0
O300 O 0.5849 0.38754 0.36297 0.0
C301 C 0.32252 0.71303 0.57082 0.0
O302 O 0.34013 0.69848 0.58484 0.0
O303 O 0.29665 0.62192 0.57873 0.0
Zn304 Zn 0.25895 0.63791 0.57018 0.0
O305 O 0.22873 0.61379 0.53192 0.0
C306 C 0.2322 0.62363 0.6325 0.0
O307 O 0.26815 0.63602 0.63929 0.0
O308 O 0.28748 0.69285 0.56356 0.0
C309 C 0.20677 0.62484 0.52274 0.0
O310 O 0.20536 0.6508 0.53806 0.0
C311 C 0.28698 0.58883 0.58466 0.0
O312 O 0.25081 0.56278 0.58438 0.0
O313 O 0.22217 0.6231 0.60487 0.0
C314 C 0.60016 0.30701 0.72205 0.0
O315 O 0.62046 0.3007 0.70271 0.0
O316 O 0.66605 0.28842 0.7589 0.0
Zn317 Zn 0.6095 0.25447 0.75232 0.0
O318 O 0.59532 0.2237 0.71347 0.0
C319 C 0.60448 0.20721 0.80127 0.0
O320 O 0.63607 0.21283 0.78896 0.0
O321 O 0.59 0.28907 0.7469 0.0
C322 C 0.60176 0.19803 0.70734 0.0
O323 O 0.61986 0.18918 0.72726 0.0
C324 C 0.69316 0.28764 0.74592 0.0
O325 O 0.68574 0.2619 0.72558 0.0
O326 O 0.58701 0.22195 0.78946 0.0
C327 C 0.39749 0.71085 0.92012 0.0
O328 O 0.36485 0.68413 0.93049 0.0
O329 O 0.33722 0.63011 0.87962 0.0
Zn330 Zn 0.39178 0.64923 0.89136 0.0
O331 O 0.39597 0.62393 0.92879 0.0
C332 C 0.40314 0.60599 0.84924 0.0
O333 O 0.37595 0.58018 0.86585 0.0
O334 O 0.41609 0.70314 0.90161 0.0
C335 C 0.42912 0.63213 0.93748 0.0
O336 O 0.45885 0.65586 0.92172 0.0
C337 C 0.30924 0.6049 0.89413 0.0
O338 O 0.31524 0.58983 0.9181 0.0
O339 O 0.4164 0.63978 0.85594 0.0
C340 C 0.67782 0.387 0.06339 0.0
O341 O 0.66486 0.35636 0.04751 0.0
O342 O 0.71634 0.33164 0.05912 0.0
Zn343 Zn 0.74808 0.38649 0.0652 0.0
O344 O 0.78178 0.40025 0.10261 0.0
C345 C 0.79108 0.39032 0.01324 0.0
O346 O 0.78144 0.35718 0.02276 0.0
O347 O 0.71249 0.40505 0.07212 0.0
C348 C 0.79974 0.38461 0.11109 0.0
O349 O 0.79738 0.35736 0.09489 0.0
C350 C 0.69831 0.30896 0.08029 0.0
O351 O 0.70152 0.32096 0.10846 0.0
O352 O 0.78 0.40908 0.02777 0.0
C353 C 0.40168 0.7087 0.21726 0.0
O354 O 0.38022 0.71348 0.19753 0.0
O355 O 0.32831 0.71559 0.25754 0.0
Zn356 Zn 0.38308 0.75349 0.2506 0.0
O357 O 0.38814 0.78338 0.21287 0.0
C358 C 0.41793 0.81992 0.28917 0.0
O359 O 0.42485 0.83757 0.26322 0.0
O360 O 0.40886 0.72466 0.24317 0.0
C361 C 0.42092 0.80432 0.20169 0.0
O362 O 0.4509 0.80649 0.21504 0.0
C363 C 0.30119 0.72124 0.2525 0.0
O364 O 0.30828 0.75303 0.24141 0.0
O365 O 0.40209 0.78493 0.28914 0.0
C366 C 0.21815 0.65092 0.29964 0.0
C367 C 0.18827 0.63639 0.27754 0.0
C368 C 0.23306 0.67576 0.23833 0.0
C369 C 0.26207 0.69268 0.26107 0.0
N370 N 0.28077 0.70147 0.3143 0.0
N371 N 0.16535 0.63873 0.22709 0.0
C372 C 0.25426 0.68162 0.29201 0.0
C373 C 0.19516 0.64982 0.24717 0.0
N374 N 0.21224 0.63478 0.32771 0.0
N375 N 0.24197 0.68339 0.20821 0.0
H376 H 0.13718 0.61961 0.23265 0.0
H377 H 0.16808 0.65066 0.20576 0.0
H378 H 0.26945 0.70218 0.20082 0.0
H379 H 0.22291 0.66887 0.19042 0.0
H380 H 0.234 0.64168 0.34365 0.0
H381 H 0.18613 0.61215 0.33412 0.0
H382 H 0.27518 0.69713 0.33753 0.0
H383 H 0.30732 0.72468 0.30974 0.0
C384 C 0.59383 0.23001 0.44775 0.0
C385 C 0.5629 0.19727 0.43491 0.0
C386 C 0.55279 0.23349 0.39622 0.0
C387 C 0.58525 0.2659 0.40784 0.0
N388 N 0.63982 0.29538 0.4419 0.0
N389 N 0.5158 0.16643 0.39493 0.0
C390 C 0.60673 0.26426 0.43281 0.0
C391 C 0.54312 0.1986 0.40856 0.0
N392 N 0.61004 0.22843 0.47475 0.0
N393 N 0.53085 0.23625 0.37383 0.0
H394 H 0.50753 0.14039 0.40363 0.0
H395 H 0.50316 0.16526 0.37389 0.0
H396 H 0.53784 0.2613 0.3637 0.0
H397 H 0.50451 0.21429 0.36665 0.0
H398 H 0.62972 0.25167 0.48717 0.0
H399 H 0.60177 0.20372 0.48606 0.0
H400 H 0.65906 0.29526 0.45755 0.0
H401 H 0.64958 0.32128 0.43224 0.0
C402 C 0.34557 0.55803 0.62985 0.0
C403 C 0.37488 0.56621 0.60878 0.0
C404 C 0.34451 0.58592 0.571 0.0
C405 C 0.31663 0.58016 0.59279 0.0
N406 N 0.29365 0.56647 0.64442 0.0
N407 N 0.4061 0.59296 0.56133 0.0
C408 C 0.31789 0.56767 0.62263 0.0
C409 C 0.3755 0.58169 0.57993 0.0
N410 N 0.34372 0.54024 0.65645 0.0
N411 N 0.34043 0.59387 0.54144 0.0
H412 H 0.42904 0.58976 0.56697 0.0
H413 H 0.4103 0.60812 0.54151 0.0
H414 H 0.31785 0.59676 0.53394 0.0
H415 H 0.35745 0.59447 0.52373 0.0
H416 H 0.32063 0.52959 0.67109 0.0
H417 H 0.36417 0.53378 0.663 0.0
H418 H 0.29606 0.56179 0.66743 0.0
H419 H 0.27275 0.57302 0.64003 0.0
C420 C 0.79785 0.36181 0.73757 0.0
C421 C 0.80881 0.37161 0.76857 0.0
C422 C 0.7452 0.32374 0.7847 0.0
C423 C 0.73309 0.31634 0.75364 0.0
N424 N 0.74578 0.33488 0.70083 0.0
N425 N 0.79065 0.36788 0.82125 0.0
C426 C 0.75882 0.33718 0.73009 0.0
C427 C 0.78176 0.35439 0.79204 0.0
N428 N 0.82479 0.37502 0.71534 0.0
N429 N 0.72264 0.30056 0.80715 0.0
H430 H 0.81697 0.3908 0.82744 0.0
H431 H 0.77072 0.3587 0.83863 0.0
H432 H 0.69622 0.27695 0.8028 0.0
H433 H 0.73184 0.3026 0.82973 0.0
H434 H 0.8188 0.36559 0.69283 0.0
H435 H 0.85375 0.39293 0.71989 0.0
H436 H 0.76271 0.35227 0.68348 0.0
H437 H 0.71714 0.31837 0.69452 0.0
C438 C 0.43833 0.81482 0.91956 0.0
C439 C 0.43717 0.82169 0.9511 0.0
C440 C 0.41567 0.75713 0.96239 0.0
C441 C 0.41243 0.7493 0.93061 0.0
N442 N 0.41387 0.76945 0.87875 0.0
N443 N 0.41841 0.79824 0.00215 0.0
C444 C 0.42202 0.77782 0.90907 0.0
C445 C 0.42404 0.79251 0.97245 0.0
N446 N 0.45596 0.84368 0.89973 0.0
N447 N 0.41228 0.73131 0.98299 0.0
H448 H 0.42378 0.82369 0.01038 0.0
H449 H 0.4051 0.77699 0.01793 0.0
H450 H 0.40715 0.70535 0.97659 0.0
H451 H 0.41838 0.73695 0.00619 0.0
H452 H 0.46121 0.84047 0.87708 0.0
H453 H 0.46852 0.87124 0.90656 0.0
H454 H 0.41652 0.78866 0.86255 0.0
H455 H 0.40095 0.74259 0.87011 0.0
C456 C 0.6055 0.4179 0.06293 0.0
C457 C 0.6047 0.42481 0.09451 0.0
C458 C 0.64637 0.4006 0.10569 0.0
C459 C 0.65133 0.3985 0.0739 0.0
N460 N 0.63913 0.40886 0.02195 0.0
N461 N 0.62772 0.42712 0.14591 0.0
C462 C 0.63161 0.40787 0.05236 0.0
C463 C 0.62593 0.41721 0.11595 0.0
N464 N 0.5808 0.4203 0.04317 0.0
N465 N 0.66001 0.38548 0.12604 0.0
H466 H 0.61287 0.43907 0.15445 0.0
H467 H 0.64626 0.42617 0.16185 0.0
H468 H 0.67438 0.37226 0.11938 0.0
H469 H 0.65382 0.38277 0.14921 0.0
H470 H 0.57728 0.41195 0.02041 0.0
H471 H 0.56126 0.42755 0.05019 0.0
H472 H 0.62885 0.41945 0.0055 0.0
H473 H 0.65825 0.40191 0.01331 0.0
C474 C 0.38789 0.81745 0.57356 0.0
C475 C 0.38738 0.82633 0.54241 0.0
C476 C 0.34667 0.76069 0.52958 0.0
C477 C 0.3443 0.75206 0.56112 0.0
N478 N 0.35716 0.77237 0.61365 0.0
N479 N 0.36148 0.8076 0.49143 0.0
C480 C 0.36347 0.78048 0.5833 0.0
C481 C 0.36533 0.79828 0.52058 0.0
N482 N 0.41245 0.84417 0.59367 0.0
N483 N 0.33274 0.73308 0.50811 0.0
H484 H 0.37508 0.83486 0.48384 0.0
H485 H 0.34234 0.78862 0.47548 0.0
H486 H 0.31966 0.70515 0.5136 0.0
H487 H 0.33731 0.73793 0.48481 0.0
H488 H 0.41714 0.83859 0.61591 0.0
H489 H 0.4306 0.87162 0.58739 0.0
H490 H 0.36712 0.79243 0.63078 0.0
H491 H 0.33902 0.74567 0.62165 0.0
C492 C 0.5454 0.35668 0.71013 0.0
C493 C 0.57396 0.38988 0.6965 0.0
C494 C 0.62084 0.37153 0.70606 0.0
C495 C 0.59112 0.33604 0.71521 0.0
N496 N 0.52368 0.29276 0.72113 0.0
N497 N 0.63775 0.42651 0.67702 0.0
C498 C 0.55297 0.32804 0.71616 0.0
C499 C 0.61145 0.39675 0.69328 0.0
N500 N 0.51132 0.35282 0.71791 0.0
N501 N 0.65809 0.38172 0.71063 0.0
H502 H 0.63188 0.44541 0.66689 0.0
H503 H 0.6642 0.43051 0.67123 0.0
H504 H 0.66622 0.36467 0.72121 0.0
H505 H 0.68078 0.40849 0.70702 0.0
H506 H 0.49097 0.33071 0.73066 0.0
H507 H 0.50495 0.37347 0.71432 0.0
H508 H 0.4951 0.28481 0.71877 0.0
H509 H 0.52768 0.27059 0.72468 0.0
C510 C 0.22081 0.56999 0.84392 0.0
C511 C 0.19558 0.57177 0.86474 0.0
C512 C 0.24589 0.59821 0.90402 0.0
C513 C 0.27 0.59317 0.88417 0.0
N514 N 0.27911 0.56942 0.83698 0.0
N515 N 0.18179 0.58348 0.91541 0.0
C516 C 0.25721 0.57794 0.85449 0.0
C517 C 0.20746 0.58471 0.89506 0.0
N518 N 0.21005 0.56102 0.814 0.0
N519 N 0.2602 0.61738 0.9308 0.0
H520 H 0.15381 0.57534 0.90934 0.0
H521 H 0.18738 0.58819 0.93874 0.0
H522 H 0.28829 0.62799 0.93812 0.0
H523 H 0.2453 0.62556 0.94459 0.0
H524 H 0.22863 0.56332 0.79696 0.0
H525 H 0.18315 0.55391 0.80562 0.0
H526 H 0.26969 0.55468 0.81654 0.0
H527 H 0.30569 0.57424 0.8441 0.0
C528 C 0.60986 0.21267 0.07371 0.0
C529 C 0.6228 0.19588 0.05295 0.0
C530 C 0.68669 0.251 0.05482 0.0
C531 C 0.67263 0.26943 0.0725 0.0
N532 N 0.61854 0.27003 0.09337 0.0
N533 N 0.67142 0.20176 0.01878 0.0
C534 C 0.63358 0.25089 0.08061 0.0
C535 C 0.66065 0.21582 0.04205 0.0
N536 N 0.57538 0.19198 0.08745 0.0
N537 N 0.72505 0.26645 0.05113 0.0
H538 H 0.6529 0.1764 0.00828 0.0
H539 H 0.69752 0.21688 0.0079 0.0
H540 H 0.74519 0.29154 0.06119 0.0
H541 H 0.73697 0.25256 0.0409 0.0
H542 H 0.56638 0.20202 0.10515 0.0
H543 H 0.55728 0.1638 0.08318 0.0
H544 H 0.58943 0.25853 0.09669 0.0
H545 H 0.63442 0.29835 0.09783 0.0
C546 C 0.46517 0.6679 0.2081 0.0
C547 C 0.43992 0.63468 0.1921 0.0
C548 C 0.38844 0.64736 0.19786 0.0
C549 C 0.41493 0.68295 0.20984 0.0
N550 N 0.48045 0.72982 0.22093 0.0
N551 N 0.3795 0.59671 0.16605 0.0
C552 C 0.45388 0.69402 0.2136 0.0
C553 C 0.40207 0.62548 0.18534 0.0
N554 N 0.49947 0.6741 0.2188 0.0
N555 N 0.35014 0.63365 0.19961 0.0
H556 H 0.38871 0.58056 0.1556 0.0
H557 H 0.35305 0.59132 0.15802 0.0
H558 H 0.33874 0.64786 0.21018 0.0
H559 H 0.32971 0.60649 0.19375 0.0
H560 H 0.51727 0.69617 0.23319 0.0
H561 H 0.50842 0.65526 0.21581 0.0
H562 H 0.50966 0.74007 0.22085 0.0
H563 H 0.47369 0.75023 0.22408 0.0
C564 C 0.78732 0.43804 0.38471 0.0
C565 C 0.80096 0.446 0.35443 0.0
C566 C 0.7394 0.43568 0.33634 0.0
C567 C 0.72709 0.43148 0.36706 0.0
N568 N 0.74167 0.43506 0.42096 0.0
N569 N 0.79258 0.45774 0.30191 0.0
C570 C 0.75162 0.43423 0.39142 0.0
C571 C 0.77771 0.44628 0.33034 0.0
N572 N 0.80826 0.43352 0.40694 0.0
N573 N 0.71412 0.42805 0.31281 0.0
H574 H 0.8203 0.46501 0.2964 0.0
H575 H 0.7785 0.46277 0.28438 0.0
H576 H 0.68575 0.42003 0.31606 0.0
H577 H 0.72032 0.42648 0.29008 0.0
H578 H 0.79802 0.42381 0.42869 0.0
H579 H 0.83468 0.43637 0.40284 0.0
H580 H 0.7601 0.44091 0.4395 0.0
H581 H 0.71627 0.43343 0.42687 0.0
C582 C 0.16756 0.61496 0.44191 0.0
C583 C 0.13257 0.5809 0.44436 0.0
C584 C 0.14946 0.57296 0.49653 0.0
C585 C 0.18264 0.60868 0.49512 0.0
N586 N 0.22319 0.66488 0.46771 0.0
N587 N 0.08826 0.52818 0.47388 0.0
C588 C 0.19173 0.63001 0.46809 0.0
C589 C 0.12309 0.55993 0.47159 0.0
N590 N 0.1779 0.63247 0.41435 0.0
N591 N 0.14326 0.55152 0.52173 0.0
H592 H 0.06872 0.51715 0.45576 0.0
H593 H 0.07755 0.5138 0.49412 0.0
H594 H 0.16102 0.56072 0.54101 0.0
H595 H 0.12201 0.52377 0.52294 0.0
H596 H 0.20469 0.65528 0.41003 0.0
H597 H 0.16048 0.62262 0.39489 0.0
H598 H 0.22908 0.68363 0.45017 0.0
H599 H 0.24277 0.67597 0.4858 0.0
C600 C 0.55561 0.119 0.64968 0.0
C601 C 0.56101 0.13854 0.62205 0.0
C602 C 0.5976 0.19724 0.64993 0.0
C603 C 0.58804 0.17763 0.67793 0.0
N604 N 0.55048 0.11989 0.70449 0.0
N605 N 0.58169 0.19625 0.59634 0.0
C606 C 0.56505 0.13849 0.67785 0.0
C607 C 0.58048 0.17771 0.62228 0.0
N608 N 0.54252 0.08198 0.64905 0.0
N609 N 0.62422 0.23418 0.64952 0.0
H610 H 0.56927 0.18288 0.5757 0.0
H611 H 0.59198 0.22452 0.59599 0.0
H612 H 0.63843 0.24928 0.66911 0.0
H613 H 0.63502 0.24903 0.62945 0.0
H614 H 0.54182 0.06724 0.66836 0.0
H615 H 0.53599 0.06671 0.62884 0.0
H616 H 0.53047 0.09169 0.70527 0.0
H617 H 0.55504 0.13318 0.7255 0.0
C618 C 0.42666 0.59455 0.76767 0.0
C619 C 0.44129 0.57093 0.77246 0.0
C620 C 0.43572 0.5748 0.82777 0.0
C621 C 0.41767 0.59539 0.82283 0.0
N622 N 0.39027 0.62005 0.78811 0.0
N623 N 0.45431 0.53363 0.80636 0.0
C624 C 0.41169 0.60412 0.79277 0.0
C625 C 0.44434 0.55968 0.80235 0.0
N626 N 0.42794 0.60855 0.73927 0.0
N627 N 0.44585 0.57082 0.85674 0.0
H628 H 0.46082 0.52186 0.78828 0.0
H629 H 0.45296 0.52135 0.82728 0.0
H630 H 0.44055 0.58206 0.8759 0.0
H631 H 0.4626 0.55944 0.86156 0.0
H632 H 0.42157 0.62904 0.735 0.0
H633 H 0.43837 0.60189 0.72026 0.0
H634 H 0.38132 0.62325 0.76659 0.0
H635 H 0.37864 0.62733 0.80587 0.0
C636 C 0.87476 0.45097 0.96185 0.0
C637 C 0.86278 0.42951 0.93465 0.0
C638 C 0.80111 0.38656 0.95744 0.0
C639 C 0.81488 0.40543 0.98579 0.0
N640 N 0.86635 0.45298 0.01627 0.0
N641 N 0.81624 0.37542 0.90666 0.0
C642 C 0.85201 0.43718 0.98832 0.0
C643 C 0.82631 0.39694 0.9324 0.0
N644 N 0.90769 0.48477 0.96223 0.0
N645 N 0.76358 0.35949 0.95425 0.0
H646 H 0.83363 0.38267 0.88759 0.0
H647 H 0.7919 0.34924 0.9049 0.0
H648 H 0.74419 0.35158 0.972 0.0
H649 H 0.75082 0.34721 0.93343 0.0
H650 H 0.91584 0.5035 0.98028 0.0
H651 H 0.9254 0.49553 0.94339 0.0
H652 H 0.89473 0.47338 0.02014 0.0
H653 H 0.8507 0.4437 0.03625 0.0
C654 C 0.44874 0.84044 0.12066 0.0
C655 C 0.4445 0.87164 0.12191 0.0
C656 C 0.4168 0.85373 0.17286 0.0
C657 C 0.42562 0.8253 0.17326 0.0
N658 N 0.44982 0.79098 0.14789 0.0
N659 N 0.42749 0.91031 0.14945 0.0
C660 C 0.44148 0.81844 0.14719 0.0
C661 C 0.42901 0.87874 0.14797 0.0
N662 N 0.45887 0.83147 0.09383 0.0
N663 N 0.39672 0.85689 0.19615 0.0
H664 H 0.43524 0.92885 0.13141 0.0
H665 H 0.42114 0.91962 0.16921 0.0
H666 H 0.38821 0.84011 0.21533 0.0
H667 H 0.38566 0.87421 0.19544 0.0
H668 H 0.4587 0.80705 0.09025 0.0
H669 H 0.46472 0.84726 0.0741 0.0
H670 H 0.46589 0.7876 0.13143 0.0
H671 H 0.4419 0.77214 0.16571 0.0
C672 C 0.55095 0.3944 0.25928 0.0
C673 C 0.55498 0.42962 0.26265 0.0
C674 C 0.58422 0.43682 0.31322 0.0
C675 C 0.57775 0.40038 0.31086 0.0
N676 N 0.54725 0.34161 0.28448 0.0
N677 N 0.56811 0.48124 0.29483 0.0
C678 C 0.55896 0.37833 0.28463 0.0
C679 C 0.5693 0.44983 0.29029 0.0
N680 N 0.54031 0.37668 0.23163 0.0
N681 N 0.60643 0.45993 0.33636 0.0
H682 H 0.55799 0.49203 0.27836 0.0
H683 H 0.57396 0.49477 0.31584 0.0
H684 H 0.61858 0.45223 0.35358 0.0
H685 H 0.61577 0.48799 0.33703 0.0
H686 H 0.54107 0.35294 0.22678 0.0
H687 H 0.53354 0.38731 0.21271 0.0
H688 H 0.53013 0.32334 0.26727 0.0
H689 H 0.55133 0.32849 0.30303 0.0
C690 C 0.41857 0.88688 0.34711 0.0
C691 C 0.44026 0.88415 0.37134 0.0
C692 C 0.4483 0.83958 0.34146 0.0
C693 C 0.42434 0.84042 0.31821 0.0
N694 N 0.37864 0.85735 0.30264 0.0
N695 N 0.46924 0.85259 0.39439 0.0
C696 C 0.40709 0.86187 0.32213 0.0
C697 C 0.45315 0.85883 0.36937 0.0
N698 N 0.41022 0.91431 0.34727 0.0
N699 N 0.46778 0.82186 0.33639 0.0
H700 H 0.47295 0.86602 0.41526 0.0
H701 H 0.47568 0.83176 0.39531 0.0
H702 H 0.46529 0.80776 0.31615 0.0
H703 H 0.48883 0.82375 0.35117 0.0
H704 H 0.39815 0.92001 0.32859 0.0
H705 H 0.4185 0.93364 0.36491 0.0
H706 H 0.36244 0.86952 0.30629 0.0
H707 H 0.36841 0.83835 0.28463 0.0
C708 C 0.59495 0.48478 0.49569 0.0
C709 C 0.59022 0.46543 0.52331 0.0
C710 C 0.61665 0.43112 0.49957 0.0
C711 C 0.61633 0.44671 0.47096 0.0
N712 N 0.60027 0.48476 0.44074 0.0
N713 N 0.59267 0.41741 0.55116 0.0
C714 C 0.60452 0.47288 0.46872 0.0
C715 C 0.60023 0.43796 0.52524 0.0
N716 N 0.59082 0.51489 0.49538 0.0
N717 N 0.6336 0.41058 0.50235 0.0
H718 H 0.58095 0.42179 0.57055 0.0
H719 H 0.59528 0.39421 0.55268 0.0
H720 H 0.64647 0.40554 0.4841 0.0
H721 H 0.63814 0.40154 0.52321 0.0
H722 H 0.59779 0.53243 0.47674 0.0
H723 H 0.58377 0.52436 0.51474 0.0
H724 H 0.58757 0.50046 0.43755 0.0
H725 H 0.60633 0.47636 0.4203 0.0
C726 C 0.17992 0.613 0.70671 0.0
C727 C 0.14698 0.57753 0.70224 0.0
C728 C 0.17187 0.5709 0.6537 0.0
C729 C 0.20298 0.60785 0.65662 0.0
N730 N 0.23327 0.66638 0.68336 0.0
N731 N 0.10807 0.52519 0.66935 0.0
C732 C 0.2062 0.62956 0.6825 0.0
C733 C 0.14191 0.5572 0.67508 0.0
N734 N 0.18655 0.63045 0.73434 0.0
N735 N 0.17176 0.54822 0.6314 0.0
H736 H 0.08547 0.51405 0.68457 0.0
H737 H 0.10116 0.51142 0.6484 0.0
H738 H 0.19359 0.5567 0.61572 0.0
H739 H 0.15197 0.51996 0.6303 0.0
H740 H 0.21206 0.65447 0.74008 0.0
H741 H 0.16776 0.61928 0.75251 0.0
H742 H 0.23441 0.68442 0.70011 0.0
H743 H 0.25254 0.67972 0.66581 0.0
C744 C 0.56938 0.12295 0.85175 0.0
C745 C 0.5652 0.13682 0.87998 0.0
C746 C 0.58712 0.19731 0.85678 0.0
C747 C 0.58899 0.1827 0.82811 0.0
N748 N 0.57517 0.13012 0.79688 0.0
N749 N 0.56425 0.18486 0.90884 0.0
C750 C 0.57824 0.14507 0.8252 0.0
C751 C 0.57229 0.17335 0.88233 0.0
N752 N 0.56591 0.08899 0.8505 0.0
N753 N 0.6012 0.23438 0.85994 0.0
H754 H 0.55419 0.1683 0.92819 0.0
H755 H 0.56479 0.20967 0.91099 0.0
H756 H 0.6123 0.25281 0.8418 0.0
H757 H 0.60463 0.24741 0.8809 0.0
H758 H 0.57301 0.07915 0.83146 0.0
H759 H 0.55872 0.07161 0.86932 0.0
H760 H 0.56349 0.10198 0.7929 0.0
H761 H 0.58111 0.14541 0.7769 0.0
C762 C 0.45684 0.62539 0.01938 0.0
C763 C 0.45033 0.58902 0.01921 0.0
C764 C 0.4243 0.57912 0.96704 0.0
C765 C 0.4346 0.61674 0.96608 0.0
N766 N 0.46232 0.67669 0.99018 0.0
N767 N 0.43106 0.53187 0.99273 0.0
C768 C 0.4513 0.64018 0.99197 0.0
C769 C 0.43463 0.5659 0.99306 0.0
N770 N 0.46753 0.64541 0.04598 0.0
N771 N 0.40464 0.55606 0.94307 0.0
H772 H 0.43743 0.52087 0.01161 0.0
H773 H 0.42417 0.51539 0.97327 0.0
H774 H 0.39799 0.56505 0.92309 0.0
H775 H 0.39257 0.52753 0.94368 0.0
H776 H 0.46898 0.67057 0.04862 0.0
H777 H 0.47219 0.63548 0.06637 0.0
H778 H 0.47866 0.69626 0.00685 0.0
H779 H 0.45688 0.68812 0.9711 0.0
C780 C 0.83335 0.3936 0.19364 0.0
C781 C 0.86903 0.42715 0.19238 0.0
C782 C 0.85916 0.43289 0.13784 0.0
C783 C 0.82439 0.39834 0.13872 0.0
N784 N 0.78033 0.34318 0.16589 0.0
N785 N 0.91907 0.47606 0.16306 0.0
C786 C 0.81213 0.37782 0.16617 0.0
C787 C 0.88283 0.44608 0.16439 0.0
N788 N 0.81926 0.37755 0.22128 0.0
N789 N 0.8693 0.45329 0.11168 0.0
H790 H 0.93703 0.48697 0.18213 0.0
H791 H 0.93252 0.48859 0.14279 0.0
H792 H 0.85387 0.44365 0.09127 0.0
H793 H 0.8917 0.48058 0.11053 0.0
H794 H 0.7917 0.35536 0.22432 0.0
H795 H 0.8343 0.38813 0.24178 0.0
H796 H 0.77211 0.32514 0.18425 0.0
H797 H 0.76334 0.33127 0.14646 0.0
loop_
_geom_bond_atom_site_label_1
_geom_bond_atom_site_label_2
_geom_bond_distance
_geom_bond_site_symmetry_2
_ccdc_geom_bond_type
H0 C19 0.949 . S
H1 C20 0.950 . S
H2 C22 0.950 . S
H3 C23 0.950 . S
H4 C25 0.950 . S
H5 C28 0.950 . S
H6 C29 0.950 . S
H7 C31 0.951 . S
H8 C32 0.949 . S
H9 C34 0.949 . S
H10 C35 0.950 . S
H11 C37 0.950 . S
H12 C38 0.950 . S
H13 C40 0.950 . S
H14 C43 0.950 . S
H15 C44 0.950 . S
H16 C46 0.951 . S
H17 C47 0.949 . S
C18 C19 1.376 . S
C18 C23 1.386 . S
C18 C24 1.483 . S
C19 H0 0.949 . S
C19 C18 1.376 . S
C19 C20 1.397 . S
C20 H1 0.950 . S
C20 C19 1.397 . S
C20 C21 1.391 . S
C21 C20 1.391 . S
C21 C22 1.405 . S
C22 H2 0.950 . S
C22 C21 1.405 . S
C22 C23 1.367 . S
C23 H3 0.950 . S
C23 C18 1.386 . S
C23 C22 1.367 . S
C24 C18 1.483 . S
C24 C25 1.382 1_655 S
C24 C26 1.403 . S
C25 H4 0.950 . S
C25 C24 1.382 1_455 S
C25 C41 1.411 . S
C26 C24 1.403 . S
C26 C27 1.489 . S
C26 C40 1.411 . S
C27 C26 1.489 . S
C27 C28 1.383 . S
C27 C32 1.382 . S
C28 H5 0.950 . S
C28 C27 1.383 . S
C28 C29 1.395 . S
C29 H6 0.950 . S
C29 C28 1.395 . S
C29 C30 1.288 . S
C30 C29 1.288 . S
C30 C31 1.392 . S
C31 H7 0.951 . S
C31 C30 1.392 . S
C31 C32 1.392 . S
C32 H8 0.949 . S
C32 C27 1.382 . S
C32 C31 1.392 . S
C33 C34 1.376 . S
C33 C38 1.386 . S
C33 C39 1.483 . S
C34 H9 0.949 . S
C34 C33 1.376 . S
C34 C35 1.397 . S
C35 H10 0.950 . S
C35 C34 1.397 . S
C35 C36 1.391 . S
C36 C35 1.391 . S
C36 C37 1.405 . S
C37 H11 0.950 . S
C37 C36 1.405 . S
C37 C38 1.367 . S
C38 H12 0.950 . S
C38 C33 1.386 . S
C38 C37 1.367 . S
C39 C33 1.483 . S
C39 C40 1.382 1_455 S
C39 C41 1.403 . S
C40 H13 0.950 . S
C40 C26 1.411 . S
C40 C39 1.382 1_655 S
C41 C25 1.411 . S
C41 C39 1.403 . S
C41 C42 1.489 . S
C42 C41 1.489 . S
C42 C43 1.383 . S
C42 C47 1.382 . S
C43 H14 0.950 . S
C43 C42 1.383 . S
C43 C44 1.395 . S
C44 H15 0.950 . S
C44 C43 1.395 . S
C44 C45 1.288 . S
C45 C44 1.288 . S
C45 C46 1.392 . S
C46 H16 0.951 . S
C46 C45 1.392 . S
C46 C47 1.392 . S
C47 H17 0.949 . S
C47 C42 1.382 . S
C47 C46 1.392 . S
H48 C67 0.949 . S
H49 C68 0.950 . S
H50 C70 0.950 . S
H51 C71 0.950 . S
H52 C73 0.949 1_565 S
H53 C76 0.950 . S
H54 C77 0.950 . S
H55 C79 0.951 . S
H56 C80 0.949 . S
H57 C82 0.949 . S
H58 C83 0.950 . S
H59 C85 0.950 . S
H60 C86 0.950 . S
H61 C88 0.950 . S
H62 C91 0.950 . S
H63 C92 0.950 . S
H64 C94 0.951 . S
H65 C95 0.949 . S
C66 C67 1.376 . S
C66 C71 1.386 . S
C66 C72 1.483 . S
C67 H48 0.949 . S
C67 C66 1.376 . S
C67 C68 1.397 . S
C68 H49 0.950 . S
C68 C67 1.397 . S
C68 C69 1.391 . S
C69 C68 1.391 . S
C69 C70 1.405 . S
C70 H50 0.950 . S
C70 C69 1.405 . S
C70 C71 1.367 . S
C71 H51 0.950 . S
C71 C66 1.386 . S
C71 C70 1.367 . S
C72 C66 1.483 . S
C72 C73 1.379 1_565 S
C72 C74 1.403 . S
C73 H52 0.949 1_545 S
C73 C72 1.379 1_545 S
C73 C89 1.415 . S
C74 C72 1.403 . S
C74 C75 1.489 . S
C74 C88 1.411 1_565 S
C75 C74 1.489 . S
C75 C76 1.383 . S
C75 C80 1.382 . S
C76 H53 0.950 . S
C76 C75 1.383 . S
C76 C77 1.395 . S
C77 H54 0.950 . S
C77 C76 1.395 . S
C77 C78 1.288 . S
C78 C77 1.288 . S
C78 C79 1.392 . S
C79 H55 0.951 . S
C79 C78 1.392 . S
C79 C80 1.392 . S
C80 H56 0.949 . S
C80 C75 1.382 . S
C80 C79 1.392 . S
C81 C82 1.376 . S
C81 C86 1.386 . S
C81 C87 1.483 . S
C82 H57 0.949 . S
C82 C81 1.376 . S
C82 C83 1.397 . S
C83 H58 0.950 . S
C83 C82 1.397 . S
C83 C84 1.391 . S
C84 C83 1.391 . S
C84 C85 1.405 . S
C85 H59 0.950 . S
C85 C84 1.405 . S
C85 C86 1.367 . S
C86 H60 0.950 . S
C86 C81 1.386 . S
C86 C85 1.367 . S
C87 C81 1.483 . S
C87 C88 1.382 . S
C87 C89 1.403 . S
C88 H61 0.950 . S
C88 C74 1.411 1_545 S
C88 C87 1.382 . S
C89 C73 1.415 . S
C89 C87 1.403 . S
C89 C90 1.489 . S
C90 C89 1.489 . S
C90 C91 1.383 . S
C90 C95 1.382 . S
C91 H62 0.950 . S
C91 C90 1.383 . S
C91 C92 1.395 . S
C92 H63 0.950 . S
C92 C91 1.395 . S
C92 C93 1.288 . S
C93 C92 1.288 . S
C93 C94 1.392 . S
C94 H64 0.951 . S
C94 C93 1.392 . S
C94 C95 1.392 . S
C95 H65 0.949 . S
C95 C90 1.382 . S
C95 C94 1.392 . S
H96 C115 0.949 . S
H97 C116 0.950 . S
H98 C118 0.950 . S
H99 C119 0.950 . S
H100 C121 0.950 . S
H101 C124 0.950 . S
H102 C125 0.950 . S
H103 C127 0.951 . S
H104 C128 0.949 . S
H105 C130 0.949 . S
H106 C131 0.950 . S
H107 C133 0.950 . S
H108 C134 0.950 . S
H109 C136 0.950 . S
H110 C139 0.950 . S
H111 C140 0.950 . S
H112 C142 0.951 . S
H113 C143 0.949 . S
C114 C115 1.376 . S
C114 C119 1.386 . S
C114 C120 1.483 . S
C115 H96 0.949 . S
C115 C114 1.376 . S
C115 C116 1.397 . S
C116 H97 0.950 . S
C116 C115 1.397 . S
C116 C117 1.391 . S
C117 C116 1.391 . S
C117 C118 1.405 . S
C118 H98 0.950 . S
C118 C117 1.405 . S
C118 C119 1.367 . S
C119 H99 0.950 . S
C119 C114 1.386 . S
C119 C118 1.367 . S
C120 C114 1.483 . S
C120 C121 1.382 . S
C120 C122 1.403 . S
C121 H100 0.950 . S
C121 C120 1.382 . S
C121 C137 1.411 . S
C122 C120 1.403 . S
C122 C123 1.489 . S
C122 C136 1.411 . S
C123 C122 1.489 . S
C123 C124 1.383 . S
C123 C128 1.382 . S
C124 H101 0.950 . S
C124 C123 1.383 . S
C124 C125 1.395 . S
C125 H102 0.950 . S
C125 C124 1.395 . S
C125 C126 1.288 . S
C126 C125 1.288 . S
C126 C127 1.392 . S
C127 H103 0.951 . S
C127 C126 1.392 . S
C127 C128 1.392 . S
C128 H104 0.949 . S
C128 C123 1.382 . S
C128 C127 1.392 . S
C129 C130 1.376 . S
C129 C134 1.386 . S
C129 C135 1.483 . S
C130 H105 0.949 . S
C130 C129 1.376 . S
C130 C131 1.397 . S
C131 H106 0.950 . S
C131 C130 1.397 . S
C131 C132 1.391 . S
C132 C131 1.391 . S
C132 C133 1.405 . S
C133 H107 0.950 . S
C133 C132 1.405 . S
C133 C134 1.367 . S
C134 H108 0.950 . S
C134 C129 1.386 . S
C134 C133 1.367 . S
C135 C129 1.483 . S
C135 C136 1.382 . S
C135 C137 1.403 . S
C136 H109 0.950 . S
C136 C122 1.411 . S
C136 C135 1.382 . S
C137 C121 1.411 . S
C137 C135 1.403 . S
C137 C138 1.489 . S
C138 C137 1.489 . S
C138 C139 1.383 . S
C138 C143 1.382 . S
C139 H110 0.950 . S
C139 C138 1.383 . S
C139 C140 1.395 . S
C140 H111 0.950 . S
C140 C139 1.395 . S
C140 C141 1.288 . S
C141 C140 1.288 . S
C141 C142 1.392 . S
C142 H112 0.951 . S
C142 C141 1.392 . S
C142 C143 1.392 . S
C143 H113 0.949 . S
C143 C138 1.382 . S
C143 C142 1.392 . S
H144 C163 0.949 . S
H145 C164 0.950 . S
H146 C166 0.950 . S
H147 C167 0.950 . S
H148 C169 0.950 . S
H149 C172 0.950 . S
H150 C173 0.950 . S
H151 C175 0.951 . S
H152 C176 0.949 . S
H153 C178 0.949 . S
H154 C179 0.950 . S
H155 C181 0.950 . S
H156 C182 0.950 . S
H157 C184 0.950 . S
H158 C187 0.950 . S
H159 C188 0.950 . S
H160 C190 0.951 . S
H161 C191 0.949 . S
C162 C163 1.376 . S
C162 C167 1.386 . S
C162 C168 1.483 . S
C163 H144 0.949 . S
C163 C162 1.376 . S
C163 C164 1.397 . S
C164 H145 0.950 . S
C164 C163 1.397 . S
C164 C165 1.391 . S
C165 C164 1.391 . S
C165 C166 1.405 . S
C166 H146 0.950 . S
C166 C165 1.405 . S
C166 C167 1.367 . S
C167 H147 0.950 . S
C167 C162 1.386 . S
C167 C166 1.367 . S
C168 C162 1.483 . S
C168 C169 1.382 1_455 S
C168 C170 1.403 . S
C169 H148 0.950 . S
C169 C168 1.382 1_655 S
C169 C185 1.411 . S
C170 C168 1.403 . S
C170 C171 1.489 . S
C170 C184 1.411 . S
C171 C170 1.489 . S
C171 C172 1.383 . S
C171 C176 1.382 . S
C172 H149 0.950 . S
C172 C171 1.383 . S
C172 C173 1.395 . S
C173 H150 0.950 . S
C173 C172 1.395 . S
C173 C174 1.288 . S
C174 C173 1.288 . S
C174 C175 1.392 . S
C175 H151 0.951 . S
C175 C174 1.392 . S
C175 C176 1.392 . S
C176 H152 0.949 . S
C176 C171 1.382 . S
C176 C175 1.392 . S
C177 C178 1.376 . S
C177 C182 1.386 . S
C177 C183 1.483 . S
C178 H153 0.949 . S
C178 C177 1.376 . S
C178 C179 1.397 . S
C179 H154 0.950 . S
C179 C178 1.397 . S
C179 C180 1.391 . S
C180 C179 1.391 . S
C180 C181 1.405 . S
C181 H155 0.950 . S
C181 C180 1.405 . S
C181 C182 1.367 . S
C182 H156 0.950 . S
C182 C177 1.386 . S
C182 C181 1.367 . S
C183 C177 1.483 . S
C183 C184 1.382 1_655 S
C183 C185 1.403 . S
C184 H157 0.950 . S
C184 C170 1.411 . S
C184 C183 1.382 1_455 S
C185 C169 1.411 . S
C185 C183 1.403 . S
C185 C186 1.489 . S
C186 C185 1.489 . S
C186 C187 1.383 . S
C186 C191 1.382 . S
C187 H158 0.950 . S
C187 C186 1.383 . S
C187 C188 1.395 . S
C188 H159 0.950 . S
C188 C187 1.395 . S
C188 C189 1.288 . S
C189 C188 1.288 . S
C189 C190 1.392 . S
C190 H160 0.951 . S
C190 C189 1.392 . S
C190 C191 1.392 . S
C191 H161 0.949 . S
C191 C186 1.382 . S
C191 C190 1.392 . S
H192 C211 0.949 . S
H193 C212 0.950 . S
H194 C214 0.950 . S
H195 C215 0.960 . S
H196 C217 0.950 . S
H197 C220 0.950 . S
H198 C221 0.950 . S
H199 C223 0.951 . S
H200 C224 0.949 . S
H201 C226 0.949 . S
H202 C227 0.950 . S
H203 C229 0.950 . S
H204 C230 0.950 . S
H205 C232 0.950 . S
H206 C235 0.950 . S
H207 C236 0.950 . S
H208 C238 0.951 . S
H209 C239 0.949 . S
C210 C211 1.376 . S
C210 C215 1.382 1_554 S
C210 C216 1.483 1_554 S
C211 H192 0.949 . S
C211 C210 1.376 . S
C211 C212 1.397 . S
C212 H193 0.950 . S
C212 C211 1.397 . S
C212 C213 1.391 . S
C213 C212 1.391 . S
C213 C214 1.405 . S
C214 H194 0.950 . S
C214 C213 1.405 . S
C214 C215 1.362 1_554 S
C215 H195 0.960 . S
C215 C210 1.382 1_556 S
C215 C214 1.362 1_556 S
C216 C210 1.483 1_556 S
C216 C217 1.382 1_556 S
C216 C218 1.403 . S
C217 H196 0.950 . S
C217 C216 1.382 1_554 S
C217 C233 1.411 1_545 S
C218 C216 1.403 . S
C218 C219 1.489 . S
C218 C232 1.411 1_545 S
C219 C218 1.489 . S
C219 C220 1.383 . S
C219 C224 1.382 . S
C220 H197 0.950 . S
C220 C219 1.383 . S
C220 C221 1.395 . S
C221 H198 0.950 . S
C221 C220 1.395 . S
C221 C222 1.288 . S
C222 C221 1.288 . S
C222 C223 1.392 . S
C223 H199 0.951 . S
C223 C222 1.392 . S
C223 C224 1.392 . S
C224 H200 0.949 . S
C224 C219 1.382 . S
C224 C223 1.392 . S
C225 C226 1.376 . S
C225 C230 1.386 . S
C225 C231 1.483 . S
C226 H201 0.949 . S
C226 C225 1.376 . S
C226 C227 1.397 . S
C227 H202 0.950 . S
C227 C226 1.397 . S
C227 C228 1.391 . S
C228 C227 1.391 . S
C228 C229 1.405 . S
C229 H203 0.950 . S
C229 C228 1.405 . S
C229 C230 1.367 . S
C230 H204 0.950 . S
C230 C225 1.386 . S
C230 C229 1.367 . S
C231 C225 1.483 . S
C231 C232 1.382 . S
C231 C233 1.403 1_556 S
C232 H205 0.950 . S
C232 C218 1.411 1_565 S
C232 C231 1.382 . S
C233 C217 1.411 1_565 S
C233 C231 1.403 1_554 S
C233 C234 1.489 . S
C234 C233 1.489 . S
C234 C235 1.383 . S
C234 C239 1.382 . S
C235 H206 0.950 . S
C235 C234 1.383 . S
C235 C236 1.395 . S
C236 H207 0.950 . S
C236 C235 1.395 . S
C236 C237 1.288 . S
C237 C236 1.288 . S
C237 C238 1.392 . S
C238 H208 0.951 . S
C238 C237 1.392 . S
C238 C239 1.392 . S
C239 H209 0.949 . S
C239 C234 1.382 . S
C239 C238 1.392 . S
H240 C259 0.949 . S
H241 C260 0.950 . S
H242 C262 0.950 . S
H243 C263 0.950 . S
H244 C265 0.950 . S
H245 C268 0.950 . S
H246 C269 0.950 . S
H247 C271 0.951 . S
H248 C272 0.949 . S
H249 C274 0.949 . S
H250 C275 0.950 . S
H251 C277 0.950 . S
H252 C278 0.950 . S
H253 C280 0.950 . S
H254 C283 0.950 . S
H255 C284 0.950 . S
H256 C286 0.951 . S
H257 C287 0.949 . S
C258 C259 1.376 . S
C258 C263 1.386 . S
C258 C264 1.483 . S
C259 H240 0.949 . S
C259 C258 1.376 . S
C259 C260 1.397 . S
C260 H241 0.950 . S
C260 C259 1.397 . S
C260 C261 1.391 . S
C261 C260 1.391 . S
C261 C262 1.405 . S
C262 H242 0.950 . S
C262 C261 1.405 . S
C262 C263 1.367 . S
C263 H243 0.950 . S
C263 C258 1.386 . S
C263 C262 1.367 . S
C264 C258 1.483 . S
C264 C265 1.382 . S
C264 C266 1.403 . S
C265 H244 0.950 . S
C265 C264 1.382 . S
C265 C281 1.411 . S
C266 C264 1.403 . S
C266 C267 1.489 . S
C266 C280 1.411 . S
C267 C266 1.489 . S
C267 C268 1.383 . S
C267 C272 1.382 . S
C268 H245 0.950 . S
C268 C267 1.383 . S
C268 C269 1.395 . S
C269 H246 0.950 . S
C269 C268 1.395 . S
C269 C270 1.288 . S
C270 C269 1.288 . S
C270 C271 1.392 . S
C271 H247 0.951 . S
C271 C270 1.392 . S
C271 C272 1.392 . S
C272 H248 0.949 . S
C272 C267 1.382 . S
C272 C271 1.392 . S
C273 C274 1.376 . S
C273 C278 1.386 . S
C273 C279 1.483 . S
C274 H249 0.949 . S
C274 C273 1.376 . S
C274 C275 1.397 . S
C275 H250 0.950 . S
C275 C274 1.397 . S
C275 C276 1.391 . S
C276 C275 1.391 . S
C276 C277 1.405 . S
C277 H251 0.950 . S
C277 C276 1.405 . S
C277 C278 1.367 . S
C278 H252 0.950 . S
C278 C273 1.386 . S
C278 C277 1.367 . S
C279 C273 1.483 . S
C279 C280 1.382 . S
C279 C281 1.403 . S
C280 H253 0.950 . S
C280 C266 1.411 . S
C280 C279 1.382 . S
C281 C265 1.411 . S
C281 C279 1.403 . S
C281 C282 1.489 . S
C282 C281 1.489 . S
C282 C283 1.383 . S
C282 C287 1.382 . S
C283 H254 0.950 . S
C283 C282 1.383 . S
C283 C284 1.395 . S
C284 H255 0.950 . S
C284 C283 1.395 . S
C284 C285 1.288 . S
C285 C284 1.288 . S
C285 C286 1.392 . S
C286 H256 0.951 . S
C286 C285 1.392 . S
C286 C287 1.392 . S
C287 H257 0.949 . S
C287 C282 1.382 . S
C287 C286 1.392 . S
C288 O289 1.160 . S
C288 O295 1.185 . S
O289 C288 1.160 . S
O290 Zn291 1.899 . S
O290 C298 1.284 . S
Zn291 O290 1.899 . S
Zn291 O292 2.032 . S
Zn291 O295 2.086 . S
Zn291 O300 1.977 . S
O292 Zn291 2.032 . S
O292 C296 1.278 . S
C293 O294 1.203 . S
C293 O300 1.267 . S
O294 C293 1.203 . S
O295 C288 1.185 . S
O295 Zn291 2.086 . S
C296 O292 1.278 . S
C296 O297 1.211 . S
O297 C296 1.211 . S
C298 O290 1.284 . S
C298 O299 1.273 . S
O299 C298 1.273 . S
O300 Zn291 1.977 . S
O300 C293 1.267 . S
C301 O302 1.160 . S
C301 O308 1.185 . S
O302 C301 1.160 . S
O303 Zn304 1.899 . S
O303 C311 1.284 . S
Zn304 O303 1.899 . S
Zn304 O305 2.032 . S
Zn304 O308 2.086 . S
Zn304 O313 1.977 . S
O305 Zn304 2.032 . S
O305 C309 1.278 . S
C306 O307 1.203 . S
C306 O313 1.267 . S
O307 C306 1.203 . S
O308 C301 1.185 . S
O308 Zn304 2.086 . S
C309 O305 1.278 . S
C309 O310 1.211 . S
O310 C309 1.211 . S
C311 O303 1.284 . S
C311 O312 1.273 . S
O312 C311 1.273 . S
O313 Zn304 1.977 . S
O313 C306 1.267 . S
C314 O315 1.160 . S
C314 O321 1.185 . S
O315 C314 1.160 . S
O316 Zn317 1.899 . S
O316 C324 1.284 . S
Zn317 O316 1.899 . S
Zn317 O318 2.032 . S
Zn317 O321 2.086 . S
Zn317 O326 1.977 . S
O318 Zn317 2.032 . S
O318 C322 1.278 . S
C319 O320 1.203 . S
C319 O326 1.267 . S
O320 C319 1.203 . S
O321 C314 1.185 . S
O321 Zn317 2.086 . S
C322 O318 1.278 . S
C322 O323 1.211 . S
O323 C322 1.211 . S
C324 O316 1.284 . S
C324 O325 1.273 . S
O325 C324 1.273 . S
O326 Zn317 1.977 . S
O326 C319 1.267 . S
C327 O328 1.160 . S
C327 O334 1.185 . S
O328 C327 1.160 . S
O329 Zn330 1.899 . S
O329 C337 1.284 . S
Zn330 O329 1.899 . S
Zn330 O331 2.032 . S
Zn330 O334 2.086 . S
Zn330 O339 1.977 . S
O331 Zn330 2.032 . S
O331 C335 1.278 . S
C332 O333 1.203 . S
C332 O339 1.267 . S
O333 C332 1.203 . S
O334 C327 1.185 . S
O334 Zn330 2.086 . S
C335 O331 1.278 . S
C335 O336 1.211 . S
O336 C335 1.211 . S
C337 O329 1.284 . S
C337 O338 1.273 . S
O338 C337 1.273 . S
O339 Zn330 1.977 . S
O339 C332 1.267 . S
C340 O341 1.160 . S
C340 O347 1.185 . S
O341 C340 1.160 . S
O342 Zn343 1.899 . S
O342 C350 1.284 . S
Zn343 O342 1.899 . S
Zn343 O344 2.032 . S
Zn343 O347 2.086 . S
Zn343 O352 1.977 . S
O344 Zn343 2.032 . S
O344 C348 1.278 . S
C345 O346 1.203 . S
C345 O352 1.267 . S
O346 C345 1.203 . S
O347 C340 1.185 . S
O347 Zn343 2.086 . S
C348 O344 1.278 . S
C348 O349 1.211 . S
O349 C348 1.211 . S
C350 O342 1.284 . S
C350 O351 1.273 . S
O351 C350 1.273 . S
O352 Zn343 1.977 . S
O352 C345 1.267 . S
C353 O354 1.160 . S
C353 O360 1.185 . S
O354 C353 1.160 . S
O355 Zn356 1.899 . S
O355 C363 1.284 . S
Zn356 O355 1.899 . S
Zn356 O357 2.032 . S
Zn356 O360 2.086 . S
Zn356 O365 1.977 . S
O357 Zn356 2.032 . S
O357 C361 1.278 . S
C358 O359 1.203 . S
C358 O365 1.267 . S
O359 C358 1.203 . S
O360 C353 1.185 . S
O360 Zn356 2.086 . S
C361 O357 1.278 . S
C361 O362 1.211 . S
O362 C361 1.211 . S
C363 O355 1.284 . S
C363 O364 1.273 . S
O364 C363 1.273 . S
O365 Zn356 1.977 . S
O365 C358 1.267 . S
C366 C367 1.363 . S
C366 C372 1.379 . S
C366 N374 1.356 . S
C367 C366 1.363 . S
C367 C373 1.363 . S
C368 C369 1.363 . S
C368 C373 1.379 . S
C368 N375 1.356 . S
C369 C368 1.363 . S
C369 C372 1.363 . S
N370 C372 1.356 . S
N370 H382 0.984 . S
N370 H383 0.985 . S
N371 C373 1.356 . S
N371 H376 0.984 . S
N371 H377 0.985 . S
C372 C366 1.379 . S
C372 C369 1.363 . S
C372 N370 1.356 . S
C373 C367 1.363 . S
C373 C368 1.379 . S
C373 N371 1.356 . S
N374 C366 1.356 . S
N374 H380 0.984 . S
N374 H381 0.984 . S
N375 C368 1.356 . S
N375 H378 0.984 . S
N375 H379 0.985 . S
H376 N371 0.984 . S
H377 N371 0.985 . S
H378 N375 0.984 . S
H379 N375 0.985 . S
H380 N374 0.984 . S
H381 N374 0.984 . S
H382 N370 0.984 . S
H383 N370 0.985 . S
C384 C385 1.363 . S
C384 C390 1.379 . S
C384 N392 1.356 . S
C385 C384 1.363 . S
C385 C391 1.363 . S
C386 C387 1.363 . S
C386 C391 1.379 . S
C386 N393 1.356 . S
C387 C386 1.363 . S
C387 C390 1.363 . S
N388 C390 1.356 . S
N388 H400 0.984 . S
N388 H401 0.985 . S
N389 C391 1.356 . S
N389 H394 0.984 . S
N389 H395 0.985 . S
C390 C384 1.379 . S
C390 C387 1.363 . S
C390 N388 1.356 . S
C391 C385 1.363 . S
C391 C386 1.379 . S
C391 N389 1.356 . S
N392 C384 1.356 . S
N392 H398 0.984 . S
N392 H399 0.984 . S
N393 C386 1.356 . S
N393 H396 0.984 . S
N393 H397 0.985 . S
H394 N389 0.984 . S
H395 N389 0.985 . S
H396 N393 0.984 . S
H397 N393 0.985 . S
H398 N392 0.984 . S
H399 N392 0.984 . S
H400 N388 0.984 . S
H401 N388 0.985 . S
C402 C403 1.363 . S
C402 C408 1.379 . S
C402 N410 1.356 . S
C403 C402 1.363 . S
C403 C409 1.363 . S
C404 C405 1.363 . S
C404 C409 1.379 . S
C404 N411 1.356 . S
C405 C404 1.363 . S
C405 C408 1.363 . S
N406 C408 1.356 . S
N406 H418 0.984 . S
N406 H419 0.985 . S
N407 C409 1.356 . S
N407 H412 0.984 . S
N407 H413 0.985 . S
C408 C402 1.379 . S
C408 C405 1.363 . S
C408 N406 1.356 . S
C409 C403 1.363 . S
C409 C404 1.379 . S
C409 N407 1.356 . S
N410 C402 1.356 . S
N410 H416 0.984 . S
N410 H417 0.984 . S
N411 C404 1.356 . S
N411 H414 0.984 . S
N411 H415 0.985 . S
H412 N407 0.984 . S
H413 N407 0.985 . S
H414 N411 0.984 . S
H415 N411 0.985 . S
H416 N410 0.984 . S
H417 N410 0.984 . S
H418 N406 0.984 . S
H419 N406 0.985 . S
C420 C421 1.363 . S
C420 C426 1.379 . S
C420 N428 1.356 . S
C421 C420 1.363 . S
C421 C427 1.363 . S
C422 C423 1.363 . S
C422 C427 1.379 . S
C422 N429 1.356 . S
C423 C422 1.363 . S
C423 C426 1.363 . S
N424 C426 1.356 . S
N424 H436 0.984 . S
N424 H437 0.985 . S
N425 C427 1.356 . S
N425 H430 0.984 . S
N425 H431 0.985 . S
C426 C420 1.379 . S
C426 C423 1.363 . S
C426 N424 1.356 . S
C427 C421 1.363 . S
C427 C422 1.379 . S
C427 N425 1.356 . S
N428 C420 1.356 . S
N428 H434 0.984 . S
N428 H435 0.984 . S
N429 C422 1.356 . S
N429 H432 0.984 . S
N429 H433 0.985 . S
H430 N425 0.984 . S
H431 N425 0.985 . S
H432 N429 0.984 . S
H433 N429 0.985 . S
H434 N428 0.984 . S
H435 N428 0.984 . S
H436 N424 0.984 . S
H437 N424 0.985 . S
C438 C439 1.363 . S
C438 C444 1.379 . S
C438 N446 1.356 . S
C439 C438 1.363 . S
C439 C445 1.363 . S
C440 C441 1.363 . S
C440 C445 1.379 . S
C440 N447 1.356 . S
C441 C440 1.363 . S
C441 C444 1.363 . S
N442 C444 1.356 . S
N442 H454 0.984 . S
N442 H455 0.985 . S
N443 C445 1.356 . S
N443 H448 0.984 . S
N443 H449 0.985 . S
C444 C438 1.379 . S
C444 C441 1.363 . S
C444 N442 1.356 . S
C445 C439 1.363 . S
C445 C440 1.379 . S
C445 N443 1.356 . S
N446 C438 1.356 . S
N446 H452 0.984 . S
N446 H453 0.984 . S
N447 C440 1.356 . S
N447 H450 0.984 . S
N447 H451 0.985 . S
H448 N443 0.984 . S
H449 N443 0.985 . S
H450 N447 0.984 . S
H451 N447 0.985 . S
H452 N446 0.984 . S
H453 N446 0.984 . S
H454 N442 0.984 . S
H455 N442 0.985 . S
C456 C457 1.363 . S
C456 C462 1.379 . S
C456 N464 1.356 . S
C457 C456 1.363 . S
C457 C463 1.363 . S
C458 C459 1.363 . S
C458 C463 1.379 . S
C458 N465 1.356 . S
C459 C458 1.363 . S
C459 C462 1.363 . S
N460 C462 1.356 . S
N460 H472 0.984 . S
N460 H473 0.985 . S
N461 C463 1.356 . S
N461 H466 0.984 . S
N461 H467 0.985 . S
C462 C456 1.379 . S
C462 C459 1.363 . S
C462 N460 1.356 . S
C463 C457 1.363 . S
C463 C458 1.379 . S
C463 N461 1.356 . S
N464 C456 1.356 . S
N464 H470 0.984 . S
N464 H471 0.984 . S
N465 C458 1.356 . S
N465 H468 0.984 . S
N465 H469 0.985 . S
H466 N461 0.984 . S
H467 N461 0.985 . S
H468 N465 0.984 . S
H469 N465 0.985 . S
H470 N464 0.984 . S
H471 N464 0.984 . S
H472 N460 0.984 . S
H473 N460 0.985 . S
C474 C475 1.363 . S
C474 C480 1.379 . S
C474 N482 1.356 . S
C475 C474 1.363 . S
C475 C481 1.363 . S
C476 C477 1.363 . S
C476 C481 1.379 . S
C476 N483 1.356 . S
C477 C476 1.363 . S
C477 C480 1.363 . S
N478 C480 1.356 . S
N478 H490 0.984 . S
N478 H491 0.985 . S
N479 C481 1.356 . S
N479 H484 0.984 . S
N479 H485 0.985 . S
C480 C474 1.379 . S
C480 C477 1.363 . S
C480 N478 1.356 . S
C481 C475 1.363 . S
C481 C476 1.379 . S
C481 N479 1.356 . S
N482 C474 1.356 . S
N482 H488 0.984 . S
N482 H489 0.984 . S
N483 C476 1.356 . S
N483 H486 0.984 . S
N483 H487 0.985 . S
H484 N479 0.984 . S
H485 N479 0.985 . S
H486 N483 0.984 . S
H487 N483 0.985 . S
H488 N482 0.984 . S
H489 N482 0.984 . S
H490 N478 0.984 . S
H491 N478 0.985 . S
C492 C493 1.363 . S
C492 C498 1.379 . S
C492 N500 1.356 . S
C493 C492 1.363 . S
C493 C499 1.363 . S
C494 C495 1.363 . S
C494 C499 1.379 . S
C494 N501 1.356 . S
C495 C494 1.363 . S
C495 C498 1.363 . S
N496 C498 1.356 . S
N496 H508 0.984 . S
N496 H509 0.985 . S
N497 C499 1.356 . S
N497 H502 0.984 . S
N497 H503 0.985 . S
C498 C492 1.379 . S
C498 C495 1.363 . S
C498 N496 1.356 . S
C499 C493 1.363 . S
C499 C494 1.379 . S
C499 N497 1.356 . S
N500 C492 1.356 . S
N500 H506 0.984 . S
N500 H507 0.984 . S
N501 C494 1.356 . S
N501 H504 0.984 . S
N501 H505 0.985 . S
H502 N497 0.984 . S
H503 N497 0.985 . S
H504 N501 0.984 . S
H505 N501 0.985 . S
H506 N500 0.984 . S
H507 N500 0.984 . S
H508 N496 0.984 . S
H509 N496 0.985 . S
C510 C511 1.363 . S
C510 C516 1.379 . S
C510 N518 1.356 . S
C511 C510 1.363 . S
C511 C517 1.363 . S
C512 C513 1.363 . S
C512 C517 1.379 . S
C512 N519 1.356 . S
C513 C512 1.363 . S
C513 C516 1.363 . S
N514 C516 1.356 . S
N514 H526 0.984 . S
N514 H527 0.985 . S
N515 C517 1.356 . S
N515 H520 0.984 . S
N515 H521 0.985 . S
C516 C510 1.379 . S
C516 C513 1.363 . S
C516 N514 1.356 . S
C517 C511 1.363 . S
C517 C512 1.379 . S
C517 N515 1.356 . S
N518 C510 1.356 . S
N518 H524 0.984 . S
N518 H525 0.984 . S
N519 C512 1.356 . S
N519 H522 0.984 . S
N519 H523 0.985 . S
H520 N515 0.984 . S
H521 N515 0.985 . S
H522 N519 0.984 . S
H523 N519 0.985 . S
H524 N518 0.984 . S
H525 N518 0.984 . S
H526 N514 0.984 . S
H527 N514 0.985 . S
C528 C529 1.363 . S
C528 C534 1.379 . S
C528 N536 1.356 . S
C529 C528 1.363 . S
C529 C535 1.363 . S
C530 C531 1.363 . S
C530 C535 1.379 . S
C530 N537 1.356 . S
C531 C530 1.363 . S
C531 C534 1.363 . S
N532 C534 1.356 . S
N532 H544 0.984 . S
N532 H545 0.985 . S
N533 C535 1.356 1_556 S
N533 H538 0.984 . S
N533 H539 0.985 . S
C534 C528 1.379 . S
C534 C531 1.363 . S
C534 N532 1.356 . S
C535 C529 1.363 . S
C535 C530 1.379 . S
C535 N533 1.356 1_554 S
N536 C528 1.356 . S
N536 H542 0.984 . S
N536 H543 0.984 . S
N537 C530 1.356 . S
N537 H540 0.984 . S
N537 H541 0.985 1_554 S
H538 N533 0.984 . S
H539 N533 0.985 . S
H540 N537 0.984 . S
H541 N537 0.985 1_556 S
H542 N536 0.984 . S
H543 N536 0.984 . S
H544 N532 0.984 . S
H545 N532 0.985 . S
C546 C547 1.363 . S
C546 C552 1.379 . S
C546 N554 1.356 . S
C547 C546 1.363 . S
C547 C553 1.363 . S
C548 C549 1.363 . S
C548 C553 1.379 . S
C548 N555 1.356 . S
C549 C548 1.363 . S
C549 C552 1.363 . S
N550 C552 1.356 . S
N550 H562 0.984 . S
N550 H563 0.985 . S
N551 C553 1.356 . S
N551 H556 0.984 . S
N551 H557 0.985 . S
C552 C546 1.379 . S
C552 C549 1.363 . S
C552 N550 1.356 . S
C553 C547 1.363 . S
C553 C548 1.379 . S
C553 N551 1.356 . S
N554 C546 1.356 . S
N554 H560 0.984 . S
N554 H561 0.984 . S
N555 C548 1.356 . S
N555 H558 0.984 . S
N555 H559 0.985 . S
H556 N551 0.984 . S
H557 N551 0.985 . S
H558 N555 0.984 . S
H559 N555 0.985 . S
H560 N554 0.984 . S
H561 N554 0.984 . S
H562 N550 0.984 . S
H563 N550 0.985 . S
C564 C565 1.363 . S
C564 C570 1.379 . S
C564 N572 1.356 . S
C565 C564 1.363 . S
C565 C571 1.363 . S
C566 C567 1.363 . S
C566 C571 1.379 . S
C566 N573 1.356 . S
C567 C566 1.363 . S
C567 C570 1.363 . S
N568 C570 1.356 . S
N568 H580 0.984 . S
N568 H581 0.985 . S
N569 C571 1.356 . S
N569 H574 0.984 . S
N569 H575 0.985 . S
C570 C564 1.379 . S
C570 C567 1.363 . S
C570 N568 1.356 . S
C571 C565 1.363 . S
C571 C566 1.379 . S
C571 N569 1.356 . S
N572 C564 1.356 . S
N572 H578 0.984 . S
N572 H579 0.984 . S
N573 C566 1.356 . S
N573 H576 0.984 . S
N573 H577 0.985 . S
H574 N569 0.984 . S
H575 N569 0.985 . S
H576 N573 0.984 . S
H577 N573 0.985 . S
H578 N572 0.984 . S
H579 N572 0.984 . S
H580 N568 0.984 . S
H581 N568 0.985 . S
C582 C583 1.363 . S
C582 C588 1.379 . S
C582 N590 1.356 . S
C583 C582 1.363 . S
C583 C589 1.363 . S
C584 C585 1.363 . S
C584 C589 1.379 . S
C584 N591 1.356 . S
C585 C584 1.363 . S
C585 C588 1.363 . S
N586 C588 1.356 . S
N586 H598 0.984 . S
N586 H599 0.985 . S
N587 C589 1.356 . S
N587 H592 0.984 . S
N587 H593 0.985 . S
C588 C582 1.379 . S
C588 C585 1.363 . S
C588 N586 1.356 . S
C589 C583 1.363 . S
C589 C584 1.379 . S
C589 N587 1.356 . S
N590 C582 1.356 . S
N590 H596 0.984 . S
N590 H597 0.984 . S
N591 C584 1.356 . S
N591 H594 0.984 . S
N591 H595 0.985 . S
H592 N587 0.984 . S
H593 N587 0.985 . S
H594 N591 0.984 . S
H595 N591 0.985 . S
H596 N590 0.984 . S
H597 N590 0.984 . S
H598 N586 0.984 . S
H599 N586 0.985 . S
C600 C601 1.363 . S
C600 C606 1.379 . S
C600 N608 1.356 . S
C601 C600 1.363 . S
C601 C607 1.363 . S
C602 C603 1.363 . S
C602 C607 1.379 . S
C602 N609 1.356 . S
C603 C602 1.363 . S
C603 C606 1.363 . S
N604 C606 1.356 . S
N604 H616 0.984 . S
N604 H617 0.985 . S
N605 C607 1.356 . S
N605 H610 0.984 . S
N605 H611 0.985 . S
C606 C600 1.379 . S
C606 C603 1.363 . S
C606 N604 1.356 . S
C607 C601 1.363 . S
C607 C602 1.379 . S
C607 N605 1.356 . S
N608 C600 1.356 . S
N608 H614 0.984 . S
N608 H615 0.984 . S
N609 C602 1.356 . S
N609 H612 0.984 . S
N609 H613 0.985 . S
H610 N605 0.984 . S
H611 N605 0.985 . S
H612 N609 0.984 . S
H613 N609 0.985 . S
H614 N608 0.984 . S
H615 N608 0.984 . S
H616 N604 0.984 . S
H617 N604 0.985 . S
C618 C619 1.363 . S
C618 C624 1.379 . S
C618 N626 1.356 . S
C619 C618 1.363 . S
C619 C625 1.363 . S
C620 C621 1.363 . S
C620 C625 1.379 . S
C620 N627 1.356 . S
C621 C620 1.363 . S
C621 C624 1.363 . S
N622 C624 1.356 . S
N622 H634 0.984 . S
N622 H635 0.985 . S
N623 C625 1.356 . S
N623 H628 0.984 . S
N623 H629 0.985 . S
C624 C618 1.379 . S
C624 C621 1.363 . S
C624 N622 1.356 . S
C625 C619 1.363 . S
C625 C620 1.379 . S
C625 N623 1.356 . S
N626 C618 1.356 . S
N626 H632 0.984 . S
N626 H633 0.984 . S
N627 C620 1.356 . S
N627 H630 0.984 . S
N627 H631 0.985 . S
H628 N623 0.984 . S
H629 N623 0.985 . S
H630 N627 0.984 . S
H631 N627 0.985 . S
H632 N626 0.984 . S
H633 N626 0.984 . S
H634 N622 0.984 . S
H635 N622 0.985 . S
C636 C637 1.363 . S
C636 C642 1.379 . S
C636 N644 1.356 . S
C637 C636 1.363 . S
C637 C643 1.363 . S
C638 C639 1.363 . S
C638 C643 1.379 . S
C638 N645 1.356 . S
C639 C638 1.363 . S
C639 C642 1.363 . S
N640 C642 1.338 1_554 S
N640 H652 0.982 1_554 S
N640 H653 1.006 . S
N641 C643 1.356 . S
N641 H646 0.984 . S
N641 H647 0.985 . S
C642 C636 1.379 . S
C642 C639 1.363 . S
C642 N640 1.338 1_556 S
C643 C637 1.363 . S
C643 C638 1.379 . S
C643 N641 1.356 . S
N644 C636 1.356 . S
N644 H650 0.984 . S
N644 H651 0.984 . S
N645 C638 1.356 . S
N645 H648 0.984 1_556 S
N645 H649 0.985 . S
H646 N641 0.984 . S
H647 N641 0.985 . S
H648 N645 0.984 1_554 S
H649 N645 0.985 . S
H650 N644 0.984 . S
H651 N644 0.984 . S
H652 N640 0.982 1_556 S
H653 N640 1.006 . S
C654 C655 1.363 . S
C654 C660 1.379 . S
C654 N662 1.356 . S
C655 C654 1.363 . S
C655 C661 1.363 . S
C656 C657 1.363 . S
C656 C661 1.379 . S
C656 N663 1.356 . S
C657 C656 1.363 . S
C657 C660 1.363 . S
N658 C660 1.356 . S
N658 H670 0.984 . S
N658 H671 0.985 . S
N659 C661 1.356 . S
N659 H664 0.984 . S
N659 H665 0.985 . S
C660 C654 1.379 . S
C660 C657 1.363 . S
C660 N658 1.356 . S
C661 C655 1.363 . S
C661 C656 1.379 . S
C661 N659 1.356 . S
N662 C654 1.356 . S
N662 H668 0.984 . S
N662 H669 0.984 . S
N663 C656 1.356 . S
N663 H666 0.984 . S
N663 H667 0.985 . S
H664 N659 0.984 . S
H665 N659 0.985 . S
H666 N663 0.984 . S
H667 N663 0.985 . S
H668 N662 0.984 . S
H669 N662 0.984 . S
H670 N658 0.984 . S
H671 N658 0.985 . S
C672 C673 1.363 . S
C672 C678 1.379 . S
C672 N680 1.356 . S
C673 C672 1.363 . S
C673 C679 1.363 . S
C674 C675 1.363 . S
C674 C679 1.379 . S
C674 N681 1.356 . S
C675 C674 1.363 . S
C675 C678 1.363 . S
N676 C678 1.356 . S
N676 H688 0.984 . S
N676 H689 0.985 . S
N677 C679 1.356 . S
N677 H682 0.984 . S
N677 H683 0.985 . S
C678 C672 1.379 . S
C678 C675 1.363 . S
C678 N676 1.356 . S
C679 C673 1.363 . S
C679 C674 1.379 . S
C679 N677 1.356 . S
N680 C672 1.356 . S
N680 H686 0.984 . S
N680 H687 0.984 . S
N681 C674 1.356 . S
N681 H684 0.984 . S
N681 H685 0.985 . S
H682 N677 0.984 . S
H683 N677 0.985 . S
H684 N681 0.984 . S
H685 N681 0.985 . S
H686 N680 0.984 . S
H687 N680 0.984 . S
H688 N676 0.984 . S
H689 N676 0.985 . S
C690 C691 1.363 . S
C690 C696 1.379 . S
C690 N698 1.356 . S
C691 C690 1.363 . S
C691 C697 1.363 . S
C692 C693 1.363 . S
C692 C697 1.379 . S
C692 N699 1.356 . S
C693 C692 1.363 . S
C693 C696 1.363 . S
N694 C696 1.356 . S
N694 H706 0.984 . S
N694 H707 0.985 . S
N695 C697 1.356 . S
N695 H700 0.984 . S
N695 H701 0.985 . S
C696 C690 1.379 . S
C696 C693 1.363 . S
C696 N694 1.356 . S
C697 C691 1.363 . S
C697 C692 1.379 . S
C697 N695 1.356 . S
N698 C690 1.356 . S
N698 H704 0.984 . S
N698 H705 0.984 . S
N699 C692 1.356 . S
N699 H702 0.984 . S
N699 H703 0.985 . S
H700 N695 0.984 . S
H701 N695 0.985 . S
H702 N699 0.984 . S
H703 N699 0.985 . S
H704 N698 0.984 . S
H705 N698 0.984 . S
H706 N694 0.984 . S
H707 N694 0.985 . S
C708 C709 1.363 . S
C708 C714 1.379 . S
C708 N716 1.356 . S
C709 C708 1.363 . S
C709 C715 1.363 . S
C710 C711 1.363 . S
C710 C715 1.379 . S
C710 N717 1.356 . S
C711 C710 1.363 . S
C711 C714 1.363 . S
N712 C714 1.356 . S
N712 H724 0.984 . S
N712 H725 0.985 . S
N713 C715 1.356 . S
N713 H718 0.984 . S
N713 H719 0.985 . S
C714 C708 1.379 . S
C714 C711 1.363 . S
C714 N712 1.356 . S
C715 C709 1.363 . S
C715 C710 1.379 . S
C715 N713 1.356 . S
N716 C708 1.356 . S
N716 H722 0.984 . S
N716 H723 0.984 . S
N717 C710 1.356 . S
N717 H720 0.984 . S
N717 H721 0.985 . S
H718 N713 0.984 . S
H719 N713 0.985 . S
H720 N717 0.984 . S
H721 N717 0.985 . S
H722 N716 0.984 . S
H723 N716 0.984 . S
H724 N712 0.984 . S
H725 N712 0.985 . S
C726 C727 1.363 . S
C726 C732 1.379 . S
C726 N734 1.356 . S
C727 C726 1.363 . S
C727 C733 1.363 . S
C728 C729 1.363 . S
C728 C733 1.379 . S
C728 N735 1.356 . S
C729 C728 1.363 . S
C729 C732 1.363 . S
N730 C732 1.356 . S
N730 H742 0.984 . S
N730 H743 0.985 . S
N731 C733 1.356 . S
N731 H736 0.984 . S
N731 H737 0.985 . S
C732 C726 1.379 . S
C732 C729 1.363 . S
C732 N730 1.356 . S
C733 C727 1.363 . S
C733 C728 1.379 . S
C733 N731 1.356 . S
N734 C726 1.356 . S
N734 H740 0.984 . S
N734 H741 0.984 . S
N735 C728 1.356 . S
N735 H738 0.984 . S
N735 H739 0.985 . S
H736 N731 0.984 . S
H737 N731 0.985 . S
H738 N735 0.984 . S
H739 N735 0.985 . S
H740 N734 0.984 . S
H741 N734 0.984 . S
H742 N730 0.984 . S
H743 N730 0.985 . S
C744 C745 1.363 . S
C744 C750 1.379 . S
C744 N752 1.356 . S
C745 C744 1.363 . S
C745 C751 1.363 . S
C746 C747 1.363 . S
C746 C751 1.379 . S
C746 N753 1.356 . S
C747 C746 1.363 . S
C747 C750 1.363 . S
N748 C750 1.356 . S
N748 H760 0.984 . S
N748 H761 0.985 . S
N749 C751 1.356 . S
N749 H754 0.984 . S
N749 H755 0.985 . S
C750 C744 1.379 . S
C750 C747 1.363 . S
C750 N748 1.356 . S
C751 C745 1.363 . S
C751 C746 1.379 . S
C751 N749 1.356 . S
N752 C744 1.356 . S
N752 H758 0.984 . S
N752 H759 0.984 . S
N753 C746 1.356 . S
N753 H756 0.984 . S
N753 H757 0.985 . S
H754 N749 0.984 . S
H755 N749 0.985 . S
H756 N753 0.984 . S
H757 N753 0.985 . S
H758 N752 0.984 . S
H759 N752 0.984 . S
H760 N748 0.984 . S
H761 N748 0.985 . S
C762 C763 1.363 . S
C762 C768 1.379 1_554 S
C762 N770 1.356 . S
C763 C762 1.363 . S
C763 C769 1.363 1_554 S
C764 C765 1.363 . S
C764 C769 1.379 . S
C764 N771 1.356 . S
C765 C764 1.363 . S
C765 C768 1.363 . S
N766 C768 1.356 . S
N766 H778 0.984 1_556 S
N766 H779 0.985 . S
N767 C769 1.356 1_554 S
N767 H772 0.984 . S
N767 H773 0.985 1_554 S
C768 C762 1.379 1_556 S
C768 C765 1.363 . S
C768 N766 1.356 . S
C769 C763 1.363 1_556 S
C769 C764 1.379 . S
C769 N767 1.356 1_556 S
N770 C762 1.356 . S
N770 H776 0.984 . S
N770 H777 0.984 . S
N771 C764 1.356 . S
N771 H774 0.984 . S
N771 H775 0.985 . S
H772 N767 0.984 . S
H773 N767 0.985 1_556 S
H774 N771 0.984 . S
H775 N771 0.985 . S
H776 N770 0.984 . S
H777 N770 0.984 . S
H778 N766 0.984 1_554 S
H779 N766 0.985 . S
C780 C781 1.363 . S
C780 C786 1.379 . S
C780 N788 1.356 . S
C781 C780 1.363 . S
C781 C787 1.363 . S
C782 C783 1.363 . S
C782 C787 1.379 . S
C782 N789 1.356 . S
C783 C782 1.363 . S
C783 C786 1.363 . S
N784 C786 1.356 . S
N784 H796 0.984 . S
N784 H797 0.985 . S
N785 C787 1.356 . S
N785 H790 0.984 . S
N785 H791 0.985 . S
C786 C780 1.379 . S
C786 C783 1.363 . S
C786 N784 1.356 . S
C787 C781 1.363 . S
C787 C782 1.379 . S
C787 N785 1.356 . S
N788 C780 1.356 . S
N788 H794 0.984 . S
N788 H795 0.984 . S
N789 C782 1.356 . S
N789 H792 0.984 . S
N789 H793 0.985 . S
H790 N785 0.984 . S
H791 N785 0.985 . S
H792 N789 0.984 . S
H793 N789 0.985 . S
H794 N788 0.984 . S
H795 N788 0.984 . S
H796 N784 0.984 . S
H797 N784 0.985 . S
C369 C363 1.654 . S
C367 C45 1.646 . S
C385 C84 1.609 . S
C387 C288 1.520 . S
C403 C126 1.601 . S
C405 C311 1.685 . S
C421 C189 1.504 . S
C423 C324 1.505 . S
C441 C327 1.559 . S
C439 C228 1.644 . S
C457 C270 1.499 . S
C459 C340 1.471 . S
C475 C69 1.523 . S
C477 C301 1.471 . S
C493 C141 1.658 . S
C495 C314 1.557 . S
C511 C174 1.464 . S
C513 C337 1.507 . S
C531 C350 1.685 . S
C529 C213 1.628 . S
C549 C353 1.519 . S
C547 C285 1.622 . S
C567 C298 1.656 . S
C565 C30 1.583 . S
C583 C36 1.509 . S
C585 C309 1.466 . S
C601 C93 1.472 . S
C603 C322 1.433 . S
C621 C332 1.450 . S
C619 C117 1.498 . S
C637 C180 1.499 . S
C639 C345 1.437 1_556 S
C657 C361 1.465 . S
C655 C237 1.515 . S
C675 C293 1.421 . S
C673 C261 1.466 . S
C693 C358 1.419 . S
C691 C78 1.459 . S
C709 C132 1.515 . S
C711 C296 1.468 . S
C729 C306 1.436 . S
C727 C165 1.487 . S
C745 C222 1.491 . S
C747 C319 1.448 . S
C763 C276 1.474 . S
C765 C335 1.436 . S
C781 C21 1.501 . S
C783 C348 1.465 . S
