# Generated by pormake.
# Topology nom, (4,4)-cn, num edge types: 1
# Building blocks:
#     Node 0, Type 0, BuildingBlock: MUDLON_clean_linker_0, # of connection points: 4
#     Node 1, Type 0, BuildingBlock: MUDLON_clean_linker_0, # of connection points: 4
#     Node 2, Type 0, BuildingBlock: MUDLON_clean_linker_0, # of connection points: 4
#     Node 3, Type 0, BuildingBlock: MUDLON_clean_linker_0, # of connection points: 4
#     Node 4, Type 0, BuildingBlock: MUDLON_clean_linker_0, # of connection points: 4
#     Node 5, Type 0, BuildingBlock: MUDLON_clean_linker_0, # of connection points: 4
#     Node 6, Type 1, BuildingBlock: QUQFOY_clean_sbu_1, # of connection points: 4
#     Node 7, Type 1, BuildingBlock: QUQFOY_clean_sbu_1, # of connection points: 4
#     Node 8, Type 1, BuildingBlock: QUQFOY_clean_sbu_1, # of connection points: 4
#     Node 9, Type 1, BuildingBlock: QUQFOY_clean_sbu_1, # of connection points: 4
#     Node 10, Type 1, BuildingBlock: QUQFOY_clean_sbu_1, # of connection points: 4
#     Node 11, Type 1, BuildingBlock: QUQFOY_clean_sbu_1, # of connection points: 4
#     Edge 12, Type (0, 1), BuildingBlock: CIFDUS_clean_linker_0, # of connection points: 2
#     Edge 13, Type (0, 1), BuildingBlock: CIFDUS_clean_linker_0, # of connection points: 2
#     Edge 14, Type (0, 1), BuildingBlock: CIFDUS_clean_linker_0, # of connection points: 2
#     Edge 15, Type (0, 1), BuildingBlock: CIFDUS_clean_linker_0, # of connection points: 2
#     Edge 16, Type (0, 1), BuildingBlock: CIFDUS_clean_linker_0, # of connection points: 2
#     Edge 17, Type (0, 1), BuildingBlock: CIFDUS_clean_linker_0, # of connection points: 2
#     Edge 18, Type (0, 1), BuildingBlock: CIFDUS_clean_linker_0, # of connection points: 2
#     Edge 19, Type (0, 1), BuildingBlock: CIFDUS_clean_linker_0, # of connection points: 2
#     Edge 20, Type (0, 1), BuildingBlock: CIFDUS_clean_linker_0, # of connection points: 2
#     Edge 21, Type (0, 1), BuildingBlock: CIFDUS_clean_linker_0, # of connection points: 2
#     Edge 22, Type (0, 1), BuildingBlock: CIFDUS_clean_linker_0, # of connection points: 2
#     Edge 23, Type (0, 1), BuildingBlock: CIFDUS_clean_linker_0, # of connection points: 2
#     Edge 24, Type (0, 1), BuildingBlock: CIFDUS_clean_linker_0, # of connection points: 2
#     Edge 25, Type (0, 1), BuildingBlock: CIFDUS_clean_linker_0, # of connection points: 2
#     Edge 26, Type (0, 1), BuildingBlock: CIFDUS_clean_linker_0, # of connection points: 2
#     Edge 27, Type (0, 1), BuildingBlock: CIFDUS_clean_linker_0, # of connection points: 2
#     Edge 28, Type (0, 1), BuildingBlock: CIFDUS_clean_linker_0, # of connection points: 2
#     Edge 29, Type (0, 1), BuildingBlock: CIFDUS_clean_linker_0, # of connection points: 2
#     Edge 30, Type (0, 1), BuildingBlock: CIFDUS_clean_linker_0, # of connection points: 2
#     Edge 31, Type (0, 1), BuildingBlock: CIFDUS_clean_linker_0, # of connection points: 2
#     Edge 32, Type (0, 1), BuildingBlock: CIFDUS_clean_linker_0, # of connection points: 2
#     Edge 33, Type (0, 1), BuildingBlock: CIFDUS_clean_linker_0, # of connection points: 2
#     Edge 34, Type (0, 1), BuildingBlock: CIFDUS_clean_linker_0, # of connection points: 2
#     Edge 35, Type (0, 1), BuildingBlock: CIFDUS_clean_linker_0, # of connection points: 2
# Relax obj value: 0.010
# Max RMSD: 0.108
# Mean RMSD: 0.097
data_MOF--net-nom--node1-QUQFOY_clean_sbu_1--node2-MUDLON_clean_linker_0--edge1-CIFDUS_clean_linker_0
_symmetry_space_group_name_H-M    P1
_symmetry_Int_Tables_number       1
_symmetry_cell_setting            triclinic
loop_
_symmetry_equiv_pos_as_xyz
'x, y, z'
_cell_length_a     57.319746
_cell_length_b     58.088131
_cell_length_c     52.123195
_cell_angle_alpha  90.303528
_cell_angle_beta   89.878973
_cell_angle_gamma 120.49432
loop_
_atom_site_label
_atom_site_type_symbol
_atom_site_fract_x
_atom_site_fract_y
_atom_site_fract_z
_atom_type_partial_charge
H0 H 0.13836 0.57932 0.31398 0.0
N1 N 0.10483 0.59844 0.32659 0.0
H2 H 0.177 0.60109 0.28524 0.0
H3 H 0.11208 0.63353 0.29044 0.0
H4 H 0.14954 0.6542 0.25993 0.0
H5 H 0.13438 0.64233 0.35407 0.0
H6 H 0.16139 0.64748 0.39208 0.0
H7 H 0.10443 0.55766 0.35344 0.0
H8 H 0.13028 0.5623 0.39216 0.0
H9 H 0.08631 0.5479 0.30793 0.0
H10 H 0.06138 0.60146 0.33752 0.0
H11 H 0.03875 0.51271 0.30308 0.0
H12 H 0.01384 0.56644 0.33305 0.0
H13 H 0.91008 0.42266 0.26939 0.0
H14 H 0.88985 0.41585 0.22658 0.0
H15 H 0.86516 0.47311 0.24461 0.0
H16 H 0.88604 0.48043 0.28645 0.0
H17 H 0.90254 0.49242 0.33002 0.0
H18 H 0.86478 0.48356 0.35749 0.0
H19 H 0.83987 0.39971 0.35864 0.0
H20 H 0.87704 0.4087 0.32954 0.0
H21 H 0.95089 0.44916 0.32518 0.0
H22 H 0.99871 0.48378 0.3299 0.0
H23 H 0.98096 0.54209 0.299 0.0
N24 N 0.91079 0.45451 0.30666 0.0
H25 H 0.93355 0.50773 0.29463 0.0
C26 C 0.12282 0.60545 0.30492 0.0
C27 C 0.1404 0.59537 0.30197 0.0
C28 C 0.16248 0.60777 0.28526 0.0
C29 C 0.16699 0.63005 0.27074 0.0
C30 C 0.14736 0.63781 0.27151 0.0
C31 C 0.12569 0.6258 0.28866 0.0
C32 C 0.11718 0.59971 0.35104 0.0
C33 C 0.13309 0.62476 0.36261 0.0
C34 C 0.14845 0.6276 0.38438 0.0
C35 C 0.14805 0.60529 0.39528 0.0
C36 C 0.13139 0.57997 0.3841 0.0
C37 C 0.11623 0.57721 0.3621 0.0
C38 C 0.07725 0.57732 0.323 0.0
C39 C 0.07058 0.55206 0.31335 0.0
C40 C 0.04341 0.53195 0.31076 0.0
C41 C 0.02252 0.53682 0.31764 0.0
C42 C 0.0294 0.56215 0.32724 0.0
C43 C 0.05649 0.58213 0.32991 0.0
C44 C 0.89956 0.45186 0.28129 0.0
C45 C 0.90047 0.43384 0.26392 0.0
C46 C 0.88874 0.42986 0.23958 0.0
C47 C 0.87579 0.44388 0.23216 0.0
C48 C 0.87528 0.46224 0.24949 0.0
C49 C 0.8871 0.46629 0.27369 0.0
C50 C 0.89242 0.45106 0.32727 0.0
C51 C 0.88929 0.47218 0.33639 0.0
C52 C 0.86762 0.46706 0.35241 0.0
C53 C 0.84883 0.44079 0.36006 0.0
C54 C 0.85341 0.42008 0.35261 0.0
C55 C 0.87484 0.42518 0.33623 0.0
C56 C 0.93855 0.4757 0.3097 0.0
C57 C 0.95739 0.46947 0.31955 0.0
C58 C 0.98468 0.48919 0.32203 0.0
C59 C 0.99362 0.51568 0.3148 0.0
C60 C 0.97467 0.52195 0.30503 0.0
C61 C 0.94745 0.5022 0.30246 0.0
H62 H 0.48507 0.87946 0.47014 0.0
N63 N 0.47968 0.92186 0.4644 0.0
H64 H 0.45862 0.84097 0.49737 0.0
H65 H 0.4474 0.91981 0.50562 0.0
H66 H 0.42234 0.88229 0.53387 0.0
H67 H 0.42635 0.8922 0.45055 0.0
H68 H 0.40869 0.87082 0.40908 0.0
H69 H 0.50796 0.92618 0.42231 0.0
H70 H 0.49044 0.90519 0.38037 0.0
H71 H 0.5267 0.96647 0.47214 0.0
H72 H 0.44125 0.93678 0.46441 0.0
H73 H 0.53526 0.01213 0.47516 0.0
H74 H 0.44921 0.98186 0.46891 0.0
H75 H 0.56009 0.13496 0.4995 0.0
H76 H 0.57782 0.1592 0.53956 0.0
H77 H 0.49626 0.13462 0.56399 0.0
H78 H 0.47871 0.10885 0.52432 0.0
H79 H 0.4798 0.12844 0.46808 0.0
H80 H 0.49512 0.16462 0.43715 0.0
H81 H 0.56707 0.16015 0.42292 0.0
H82 H 0.55144 0.12389 0.4543 0.0
H83 H 0.5384 0.08683 0.50618 0.0
H84 H 0.53138 0.04251 0.50131 0.0
H85 H 0.46587 0.02259 0.44821 0.0
N86 N 0.50686 0.1059 0.48515 0.0
H87 H 0.47191 0.06694 0.45451 0.0
C88 C 0.46794 0.90245 0.48493 0.0
C89 C 0.47168 0.88037 0.48428 0.0
C90 C 0.45657 0.85835 0.50008 0.0
C91 C 0.43773 0.85808 0.5176 0.0
C92 C 0.43584 0.88125 0.51997 0.0
C93 C 0.4505 0.90306 0.5037 0.0
C94 C 0.46858 0.91078 0.43949 0.0
C95 C 0.44047 0.89546 0.43525 0.0
C96 C 0.4304 0.88327 0.41148 0.0
C97 C 0.44816 0.8862 0.39144 0.0
C98 C 0.47623 0.9022 0.39553 0.0
C99 C 0.48629 0.91435 0.41935 0.0
C100 C 0.48343 0.94816 0.46844 0.0
C101 C 0.50975 0.96981 0.47162 0.0
C102 C 0.51454 0.99589 0.47341 0.0
C103 C 0.49295 1.00089 0.47231 0.0
C104 C 0.46647 0.97902 0.46933 0.0
C105 C 0.46179 0.95304 0.46707 0.0
C106 C 0.51794 0.11964 0.50914 0.0
C107 C 0.54601 0.13452 0.5136 0.0
C108 C 0.55615 0.14869 0.5365 0.0
C109 C 0.53856 0.14908 0.55517 0.0
C110 C 0.51048 0.13442 0.55042 0.0
C111 C 0.50034 0.11975 0.52772 0.0
C112 C 0.51448 0.12366 0.46357 0.0
C113 C 0.49853 0.13486 0.45779 0.0
C114 C 0.50733 0.15548 0.44002 0.0
C115 C 0.53242 0.16541 0.42759 0.0
C116 C 0.5478 0.15317 0.43239 0.0
C117 C 0.53888 0.1324 0.45022 0.0
C118 C 0.50547 0.08057 0.48079 0.0
C119 C 0.52252 0.0733 0.49338 0.0
C120 C 0.5186 0.04764 0.49042 0.0
C121 C 0.4979 0.02867 0.4745 0.0
C122 C 0.4816 0.03632 0.46116 0.0
C123 C 0.48522 0.06183 0.46447 0.0
H124 H 0.45115 0.58384 0.6426 0.0
N125 N 0.4291 0.52967 0.64438 0.0
H126 H 0.43628 0.60704 0.61452 0.0
H127 H 0.40307 0.51092 0.59998 0.0
H128 H 0.39015 0.53457 0.56992 0.0
H129 H 0.38164 0.51034 0.66792 0.0
H130 H 0.37303 0.5227 0.71039 0.0
H131 H 0.4673 0.56348 0.6785 0.0
H132 H 0.4591 0.57536 0.72121 0.0
H133 H 0.48395 0.55288 0.64157 0.0
H134 H 0.40903 0.47764 0.63921 0.0
H135 H 0.5094 0.52938 0.641 0.0
H136 H 0.4339 0.45389 0.63673 0.0
H137 H 0.57586 0.46167 0.6154 0.0
H138 H 0.59699 0.45743 0.57644 0.0
H139 H 0.52297 0.38407 0.55776 0.0
H140 H 0.50162 0.38967 0.596 0.0
H141 H 0.50221 0.37768 0.65111 0.0
H142 H 0.5228 0.36027 0.68003 0.0
H143 H 0.59098 0.44018 0.6909 0.0
H144 H 0.5699 0.4573 0.66147 0.0
H145 H 0.5455 0.47807 0.61506 0.0
H146 H 0.52301 0.50393 0.61711 0.0
H147 H 0.45884 0.44165 0.66228 0.0
N148 N 0.525 0.42656 0.63242 0.0
H149 H 0.48061 0.41505 0.65852 0.0
C150 C 0.42742 0.54534 0.62391 0.0
C151 C 0.4381 0.57299 0.62662 0.0
C152 C 0.42971 0.58639 0.61022 0.0
C153 C 0.41113 0.57258 0.59026 0.0
C154 C 0.40345 0.54569 0.58569 0.0
C155 C 0.41116 0.53215 0.6026 0.0
C156 C 0.425 0.53578 0.6702 0.0
C157 C 0.39857 0.52433 0.67965 0.0
C158 C 0.39376 0.53137 0.70391 0.0
C159 C 0.4154 0.55004 0.71919 0.0
C160 C 0.44198 0.56116 0.7098 0.0
C161 C 0.44673 0.55414 0.6855 0.0
C162 C 0.44465 0.51682 0.64086 0.0
C163 C 0.47305 0.53127 0.64069 0.0
C164 C 0.48752 0.51776 0.64013 0.0
C165 C 0.47377 0.4896 0.63928 0.0
C166 C 0.44528 0.47547 0.63825 0.0
C167 C 0.43096 0.48896 0.63927 0.0
C168 C 0.53694 0.42623 0.60822 0.0
C169 C 0.56399 0.44511 0.60251 0.0
C170 C 0.57618 0.44238 0.58039 0.0
C171 C 0.56181 0.4203 0.56388 0.0
C172 C 0.53459 0.40163 0.56962 0.0
C173 C 0.5223 0.4047 0.59149 0.0
C174 C 0.53463 0.41859 0.65408 0.0
C175 C 0.52115 0.3915 0.66045 0.0
C176 C 0.533 0.38165 0.67706 0.0
C177 C 0.55872 0.3988 0.6877 0.0
C178 C 0.57133 0.4264 0.68276 0.0
C179 C 0.55931 0.43625 0.66609 0.0
C180 C 0.51452 0.44423 0.63636 0.0
C181 C 0.52666 0.46988 0.62547 0.0
C182 C 0.51378 0.48487 0.62681 0.0
C183 C 0.48876 0.47478 0.63946 0.0
C184 C 0.4776 0.4498 0.65163 0.0
C185 C 0.4902 0.43466 0.64985 0.0
H186 H 0.14003 0.57645 0.80744 0.0
N187 N 0.10741 0.52498 0.78985 0.0
H188 H 0.17762 0.59108 0.83672 0.0
H189 H 0.11561 0.49424 0.82173 0.0
H190 H 0.15175 0.50859 0.85342 0.0
H191 H 0.1286 0.50829 0.75419 0.0
H192 H 0.15271 0.53167 0.71534 0.0
H193 H 0.11249 0.57149 0.77157 0.0
H194 H 0.13822 0.59604 0.73412 0.0
H195 H 0.08827 0.55505 0.81198 0.0
H196 H 0.06441 0.47857 0.77772 0.0
H197 H 0.04055 0.54164 0.81758 0.0
H198 H 0.01669 0.46497 0.7831 0.0
H199 H 0.91225 0.50086 0.85095 0.0
H200 H 0.89173 0.48591 0.89341 0.0
H201 H 0.86696 0.40455 0.87242 0.0
H202 H 0.88822 0.41966 0.83086 0.0
H203 H 0.90516 0.42609 0.78683 0.0
H204 H 0.86771 0.39815 0.75852 0.0
H205 H 0.84143 0.45597 0.76157 0.0
H206 H 0.87846 0.48327 0.79125 0.0
H207 H 0.95268 0.51749 0.79545 0.0
H208 H 1.00065 0.53147 0.79057 0.0
H209 H 0.98355 0.45429 0.81771 0.0
N210 N 0.91283 0.47103 0.81238 0.0
H211 H 0.93595 0.4405 0.82234 0.0
C212 C 0.12556 0.53412 0.81154 0.0
C213 C 0.14232 0.56142 0.81732 0.0
C214 C 0.16379 0.56983 0.83457 0.0
C215 C 0.16848 0.55111 0.84708 0.0
C216 C 0.14965 0.52372 0.8434 0.0
C217 C 0.12868 0.51538 0.82556 0.0
C218 C 0.11904 0.53818 0.76591 0.0
C219 C 0.13029 0.52723 0.74955 0.0
C220 C 0.14438 0.54086 0.72756 0.0
C221 C 0.148 0.56613 0.72172 0.0
C222 C 0.13577 0.5766 0.73774 0.0
C223 C 0.12117 0.56264 0.75942 0.0
C224 C 0.07976 0.51768 0.79443 0.0
C225 C 0.07276 0.53538 0.80567 0.0
C226 C 0.04549 0.52773 0.80875 0.0
C227 C 0.02486 0.50224 0.80077 0.0
C228 C 0.03207 0.4846 0.78973 0.0
C229 C 0.05925 0.49232 0.78656 0.0
C230 C 0.90166 0.46154 0.83758 0.0
C231 C 0.90258 0.47986 0.8557 0.0
C232 C 0.89068 0.47123 0.87984 0.0
C233 C 0.87751 0.44397 0.88628 0.0
C234 C 0.87718 0.42571 0.86827 0.0
C235 C 0.88921 0.43437 0.84425 0.0
C236 C 0.89448 0.45677 0.79153 0.0
C237 C 0.89172 0.4331 0.78117 0.0
C238 C 0.87021 0.41709 0.76471 0.0
C239 C 0.85119 0.42454 0.75795 0.0
C240 C 0.85525 0.44924 0.76683 0.0
C241 C 0.87657 0.46504 0.78355 0.0
C242 C 0.94065 0.47801 0.80908 0.0
C243 C 0.95935 0.50362 0.80022 0.0
C244 C 0.98672 0.51161 0.79765 0.0
C245 C 0.99588 0.49399 0.80379 0.0
C246 C 0.97707 0.46823 0.81256 0.0
C247 C 0.94976 0.46032 0.81525 0.0
H248 H 0.59317 0.13741 0.95773 0.0
N249 N 0.60999 0.10201 0.94573 0.0
H250 H 0.61751 0.1765 0.98499 0.0
H251 H 0.64611 0.10907 0.98148 0.0
H252 H 0.66909 0.14689 0.01097 0.0
H253 H 0.65236 0.13169 0.91594 0.0
H254 H 0.65407 0.15754 0.87842 0.0
H255 H 0.56604 0.09876 0.9209 0.0
H256 H 0.56732 0.1233 0.88285 0.0
H257 H 0.56062 0.08576 0.9678 0.0
H258 H 0.61076 0.05788 0.93466 0.0
H259 H 0.52369 0.03959 0.97279 0.0
H260 H 0.57443 0.0116 0.9404 0.0
H261 H 0.41171 0.88332 0.99053 0.0
H262 H 0.40218 0.86062 0.03188 0.0
H263 H 0.48808 0.89481 0.04455 0.0
H264 H 0.49726 0.91648 0.00286 0.0
H265 H 0.49856 0.89812 0.96209 0.0
H266 H 0.49324 0.85867 0.94005 0.0
H267 H 0.41469 0.84087 0.91246 0.0
H268 H 0.41985 0.88001 0.93563 0.0
H269 H 0.47237 0.95337 -0.00022 0.0
H270 H 0.50896 0.99934 0.99586 0.0
H271 H 0.53117 0.98044 0.9229 0.0
N272 N 0.45956 0.91178 0.96763 0.0
H273 H 0.49538 0.93443 0.92705 0.0
C274 C 0.61854 0.12077 0.96684 0.0
C275 C 0.60954 0.13915 0.96947 0.0
C276 C 0.62343 0.16153 0.98541 0.0
C277 C 0.64604 0.16555 -0.00028 0.0
C278 C 0.65262 0.14522 -0.00056 0.0
C279 C 0.63924 0.1233 0.9829 0.0
C280 C 0.60921 0.11315 0.92124 0.0
C281 C 0.63369 0.12944 0.90846 0.0
C282 C 0.63458 0.14414 0.88698 0.0
C283 C 0.61084 0.14268 0.87768 0.0
C284 C 0.58607 0.12532 0.88977 0.0
C285 C 0.58526 0.11088 0.91144 0.0
C286 C 0.58843 0.07516 0.95078 0.0
C287 C 0.56378 0.06965 0.96192 0.0
C288 C 0.54271 0.0432 0.96484 0.0
C289 C 0.54597 0.02178 0.95686 0.0
C290 C 0.57095 0.02752 0.94628 0.0
C291 C 0.59184 0.05391 0.94321 0.0
C292 C 0.45507 0.90168 0.9936 0.0
C293 C 0.42843 0.88616 0.00245 0.0
C294 C 0.42307 0.87327 0.02612 0.0
C295 C 0.44437 0.87578 0.04155 0.0
C296 C 0.47117 0.89203 0.03299 0.0
C297 C 0.47647 0.90466 0.00921 0.0
C298 C 0.45945 0.89195 0.95061 0.0
C299 C 0.48036 0.88596 0.95103 0.0
C300 C 0.47734 0.86342 0.9382 0.0
C301 C 0.45339 0.84638 0.92463 0.0
C302 C 0.43318 0.85327 0.92309 0.0
C303 C 0.4362 0.87578 0.93603 0.0
C304 C 0.48185 0.93927 0.9648 0.0
C305 C 0.4855 0.95875 0.9832 0.0
C306 C 0.50626 0.98533 0.98075 0.0
C307 C 0.52348 0.99356 0.95934 0.0
C308 C 0.51897 0.97462 0.94015 0.0
C309 C 0.49832 0.94798 0.94267 0.0
H310 H 0.57672 0.45743 0.14543 0.0
N311 N 0.6009 0.51027 0.15922 0.0
H312 H 0.59683 0.43839 0.11778 0.0
H313 H 0.63928 0.53678 0.12448 0.0
H314 H 0.65858 0.51792 0.0951 0.0
H315 H 0.64432 0.52201 0.18692 0.0
H316 H 0.64692 0.49807 0.22413 0.0
H317 H 0.55759 0.47062 0.18526 0.0
H318 H 0.55975 0.44733 0.22316 0.0
H319 H 0.55124 0.48136 0.13573 0.0
H320 H 0.60382 0.55463 0.17621 0.0
H321 H 0.51717 0.49454 0.13178 0.0
H322 H 0.56944 0.56751 0.17347 0.0
H323 H 0.40912 0.54063 0.1243 0.0
H324 H 0.39393 0.54485 0.08167 0.0
H325 H 0.47701 0.5873 0.05575 0.0
H326 H 0.492 0.58371 0.09832 0.0
H327 H 0.49104 0.61599 0.13023 0.0
H328 H 0.48802 0.65202 0.15063 0.0
H329 H 0.42839 0.59587 0.20349 0.0
H330 H 0.43167 0.5595 0.18285 0.0
H331 H 0.45135 0.51412 0.1506 0.0
H332 H 0.48514 0.50054 0.15553 0.0
H333 H 0.54881 0.5824 0.14412 0.0
N334 N 0.45971 0.56252 0.14099 0.0
H335 H 0.51525 0.59579 0.14037 0.0
C336 C 0.60703 0.49866 0.13757 0.0
C337 C 0.59426 0.4708 0.13414 0.0
C338 C 0.60576 0.45988 0.11808 0.0
C339 C 0.6299 0.47659 0.10472 0.0
C340 C 0.64057 0.50441 0.10581 0.0
C341 C 0.62937 0.51529 0.12229 0.0
C342 C 0.60088 0.49836 0.18344 0.0
C343 C 0.62579 0.50603 0.19509 0.0
C344 C 0.62717 0.49232 0.21638 0.0
C345 C 0.60353 0.47067 0.22665 0.0
C346 C 0.5784 0.46362 0.21552 0.0
C347 C 0.57708 0.4772 0.19402 0.0
C348 C 0.58033 0.51732 0.15595 0.0
C349 C 0.5555 0.50033 0.14372 0.0
C350 C 0.53587 0.50778 0.14176 0.0
C351 C 0.54051 0.53218 0.15224 0.0
C352 C 0.5653 0.54887 0.1647 0.0
C353 C 0.58494 0.54152 0.16641 0.0
C354 C 0.45158 0.56169 0.11465 0.0
C355 C 0.42395 0.55036 0.10923 0.0
C356 C 0.41534 0.55278 0.08486 0.0
C357 C 0.4343 0.56663 0.06537 0.0
C358 C 0.46193 0.57691 0.07048 0.0
C359 C 0.47052 0.57459 0.09486 0.0
C360 C 0.46179 0.58488 0.15525 0.0
C361 C 0.47797 0.61136 0.14671 0.0
C362 C 0.47614 0.63207 0.15839 0.0
C363 C 0.45792 0.6268 0.17866 0.0
C364 C 0.44247 0.6005 0.18779 0.0
C365 C 0.44449 0.57979 0.17621 0.0
C366 C 0.48052 0.55589 0.14523 0.0
C367 C 0.47264 0.52911 0.14948 0.0
C368 C 0.49199 0.52137 0.152 0.0
C369 C 0.51978 0.54034 0.15012 0.0
C370 C 0.52765 0.56727 0.14609 0.0
C371 C 0.5083 0.57499 0.14381 0.0
O372 O 0.59719 0.37109 0.41504 0.0
Cd373 Cd 0.61054 0.35983 0.38331 0.0
Cd374 Cd 0.65775 0.40155 0.3978 0.0
O375 O 0.63741 0.39877 0.43146 0.0
O376 O 0.58358 0.32128 0.37675 0.0
O377 O 0.62574 0.33596 0.38914 0.0
C378 C 0.60203 0.31609 0.38368 0.0
C379 C 0.69822 0.40125 0.39625 0.0
C380 C 0.61172 0.3863 0.43317 0.0
C381 C 0.63303 0.40669 0.34898 0.0
O382 O 0.65012 0.41875 0.36684 0.0
O383 O 0.61643 0.38168 0.35041 0.0
O384 O 0.69774 0.42214 0.40404 0.0
O385 O 0.67548 0.38019 0.39044 0.0
O386 O 0.25612 0.62198 0.58999 0.0
Cd387 Cd 0.27494 0.63131 0.55455 0.0
Cd388 Cd 0.27413 0.67773 0.56592 0.0
O389 O 0.25678 0.65932 0.6 0.0
O390 O 0.27915 0.59978 0.54851 0.0
O391 O 0.31412 0.64058 0.55293 0.0
C392 C 0.30497 0.61532 0.55008 0.0
C393 C 0.31037 0.72152 0.56428 0.0
C394 C 0.25072 0.63564 0.60543 0.0
C395 C 0.24341 0.64641 0.51921 0.0
O396 O 0.24904 0.66555 0.5346 0.0
O397 O 0.2529 0.63109 0.52291 0.0
O398 O 0.28616 0.71626 0.56954 0.0
O399 O 0.31432 0.70166 0.56107 0.0
O400 O 0.65501 0.24447 0.73947 0.0
Cd401 Cd 0.66268 0.27244 0.71135 0.0
Cd402 Cd 0.6146 0.26409 0.72582 0.0
O403 O 0.6204 0.24553 0.75663 0.0
O404 O 0.70271 0.29347 0.70633 0.0
O405 O 0.67899 0.31048 0.72274 0.0
C406 C 0.70222 0.31355 0.71645 0.0
C407 C 0.60217 0.29632 0.73125 0.0
C408 C 0.63735 0.23756 0.75709 0.0
C409 C 0.61855 0.24541 0.67325 0.0
O410 O 0.60293 0.24315 0.69164 0.0
O411 O 0.64409 0.25893 0.67615 0.0
O412 O 0.58518 0.27134 0.7352 0.0
O413 O 0.62668 0.30315 0.7251 0.0
O414 O 0.41833 0.64095 0.92398 0.0
Cd415 Cd 0.40917 0.65439 0.89098 0.0
Cd416 Cd 0.36303 0.60465 0.89338 0.0
O417 O 0.37974 0.60274 0.92758 0.0
O418 O 0.43309 0.69397 0.89096 0.0
O419 O 0.38848 0.67367 0.89441 0.0
C420 C 0.41163 0.69564 0.89371 0.0
C421 C 0.31637 0.58733 0.89086 0.0
C422 C 0.40313 0.61946 0.9361 0.0
C423 C 0.39997 0.61716 0.84746 0.0
O424 O 0.37955 0.60006 0.86006 0.0
O425 O 0.41436 0.64089 0.85588 0.0
O426 O 0.32649 0.57206 0.89275 0.0
O427 O 0.3328 0.61286 0.89149 0.0
O428 O 0.78425 0.38249 0.02325 0.0
Cd429 Cd 0.76218 0.36204 0.05524 0.0
Cd430 Cd 0.76327 0.41203 0.06227 0.0
O431 O 0.78172 0.41907 0.02698 0.0
O432 O 0.75531 0.32525 0.04924 0.0
O433 O 0.72238 0.33435 0.0521 0.0
C434 C 0.72979 0.31694 0.04864 0.0
C435 C 0.73592 0.43082 0.06888 0.0
C436 C 0.78933 0.40505 0.01475 0.0
C437 C 0.78898 0.39408 0.10278 0.0
O438 O 0.78443 0.4119 0.09428 0.0
O439 O 0.78089 0.37235 0.09055 0.0
O440 O 0.76191 0.44517 0.0683 0.0
O441 O 0.72507 0.40539 0.0654 0.0
O442 O 0.41011 0.79021 0.18262 0.0
Cd443 Cd 0.40704 0.76949 0.21578 0.0
Cd444 Cd 0.36135 0.77372 0.22247 0.0
O445 O 0.37315 0.7926 0.18757 0.0
O446 O 0.43263 0.75615 0.21108 0.0
O447 O 0.38839 0.72931 0.21495 0.0
C448 C 0.4121 0.73219 0.21183 0.0
C449 C 0.31521 0.74372 0.22883 0.0
C450 C 0.39402 0.79764 0.17464 0.0
C451 C 0.40536 0.79897 0.26258 0.0
O452 O 0.38257 0.79469 0.25458 0.0
O453 O 0.41829 0.79015 0.25012 0.0
O454 O 0.32499 0.76916 0.22836 0.0
O455 O 0.3317 0.73501 0.22516 0.0
H456 H 0.1949 0.68418 0.26742 0.0
H457 H 0.19958 0.61479 0.24564 0.0
H458 H 0.24581 0.64377 0.23024 0.0
H459 H 0.28592 0.68908 0.22527 0.0
H460 H 0.27929 0.7577 0.24569 0.0
H461 H 0.23253 0.7286 0.25867 0.0
C462 C 0.20555 0.67518 0.25863 0.0
C463 C 0.19357 0.6472 0.25783 0.0
C464 C 0.23195 0.69189 0.24966 0.0
C465 C 0.20831 0.63623 0.24692 0.0
C466 C 0.23477 0.6528 0.23802 0.0
C467 C 0.27415 0.69761 0.23238 0.0
C468 C 0.28622 0.72554 0.23471 0.0
C469 C 0.247 0.6807 0.23975 0.0
C470 C 0.27061 0.73631 0.24375 0.0
C471 C 0.24382 0.71968 0.25124 0.0
H472 H 0.58401 0.20777 0.42719 0.0
H473 H 0.50534 0.17889 0.39312 0.0
H474 H 0.52095 0.22267 0.37415 0.0
H475 H 0.55519 0.27039 0.37163 0.0
H476 H 0.63387 0.29916 0.40567 0.0
H477 H 0.62019 0.25401 0.41965 0.0
C478 C 0.57047 0.21077 0.41502 0.0
C479 C 0.5434 0.19013 0.41194 0.0
C480 C 0.57952 0.23608 0.40431 0.0
C481 C 0.52612 0.19457 0.39626 0.0
C482 C 0.53504 0.2196 0.38536 0.0
C483 C 0.56951 0.26672 0.38173 0.0
C484 C 0.59537 0.28821 0.38791 0.0
C485 C 0.56141 0.24073 0.38999 0.0
C486 C 0.61376 0.28304 0.40078 0.0
C487 C 0.60592 0.25721 0.40889 0.0
H488 H 0.35896 0.54745 0.57315 0.0
H489 H 0.43091 0.62564 0.57775 0.0
H490 H 0.40479 0.64596 0.56393 0.0
H491 H 0.36031 0.64166 0.55479 0.0
H492 H 0.28964 0.56279 0.54838 0.0
H493 H 0.31692 0.54274 0.55771 0.0
C494 C 0.36942 0.56887 0.57036 0.0
C495 C 0.39698 0.58486 0.57698 0.0
C496 C 0.35442 0.58043 0.56213 0.0
C497 C 0.40961 0.61271 0.57354 0.0
C498 C 0.3947 0.62441 0.56548 0.0
C499 C 0.351 0.62009 0.55499 0.0
C500 C 0.32286 0.60382 0.55129 0.0
C501 C 0.36687 0.6085 0.56047 0.0
C502 C 0.31118 0.57588 0.55139 0.0
C503 C 0.32676 0.56432 0.55681 0.0
H504 H 0.80021 0.41565 0.7657 0.0
H505 H 0.84514 0.39001 0.71879 0.0
H506 H 0.80292 0.35433 0.70053 0.0
H507 H 0.75314 0.32821 0.70057 0.0
H508 H 0.70855 0.35488 0.74657 0.0
H509 H 0.75091 0.39291 0.76186 0.0
C510 C 0.80096 0.40279 0.75097 0.0
C511 C 0.82596 0.40544 0.74392 0.0
C512 C 0.77663 0.38241 0.74042 0.0
C513 C 0.82624 0.38816 0.72505 0.0
C514 C 0.80209 0.36779 0.71449 0.0
C515 C 0.75269 0.34254 0.71369 0.0
C516 C 0.72771 0.33853 0.72264 0.0
C517 C 0.77714 0.36433 0.7225 0.0
C518 C 0.72747 0.35742 0.73943 0.0
C519 C 0.7517 0.37913 0.74828 0.0
H520 H 0.40665 0.79796 0.92511 0.0
H521 H 0.48996 0.83659 0.90028 0.0
H522 H 0.48395 0.79343 0.88749 0.0
H523 H 0.45593 0.74454 0.88587 0.0
H524 H 0.37236 0.70594 0.90974 0.0
H525 H 0.37746 0.74942 0.91981 0.0
C526 C 0.42337 0.79709 0.91637 0.0
C527 C 0.44882 0.82057 0.91391 0.0
C528 C 0.41976 0.77219 0.90896 0.0
C529 C 0.4703 0.81884 0.90287 0.0
C530 C 0.46686 0.79416 0.89544 0.0
C531 C 0.43875 0.74563 0.89308 0.0
C532 C 0.41386 0.722 0.89728 0.0
C533 C 0.44183 0.77067 0.89887 0.0
C534 C 0.39175 0.7238 0.90638 0.0
C535 C 0.39468 0.74866 0.91222 0.0
H536 H 0.68453 0.49876 0.10467 0.0
H537 H 0.61117 0.4287 0.07888 0.0
H538 H 0.6374 0.40819 0.06534 0.0
H539 H 0.68121 0.40939 0.06289 0.0
H540 H 0.7541 0.48082 0.08723 0.0
H541 H 0.72793 0.50168 0.09871 0.0
C542 C 0.67417 0.47932 0.09542 0.0
C543 C 0.64579 0.46538 0.0929 0.0
C544 C 0.68932 0.46774 0.08755 0.0
C545 C 0.63293 0.43984 0.08144 0.0
C546 C 0.64793 0.42809 0.07362 0.0
C547 C 0.69132 0.42956 0.0706 0.0
C548 C 0.71955 0.44341 0.07439 0.0
C549 C 0.67612 0.44167 0.07702 0.0
C550 C 0.73241 0.46964 0.08415 0.0
C551 C 0.71746 0.48163 0.09076 0.0
H552 H 0.38497 0.84036 0.5298 0.0
H553 H 0.44646 0.81856 0.536 0.0
H554 H 0.41272 0.7746 0.55188 0.0
H555 H 0.3649 0.74109 0.56096 0.0
H556 H 0.30466 0.76467 0.5572 0.0
H557 H 0.33908 0.80946 0.54424 0.0
C558 C 0.39139 0.82645 0.53529 0.0
C559 C 0.41835 0.83291 0.53123 0.0
C560 C 0.37202 0.80135 0.54483 0.0
C561 C 0.42579 0.81409 0.53818 0.0
C562 C 0.40651 0.78891 0.54745 0.0
C563 C 0.35941 0.75615 0.5576 0.0
C564 C 0.33219 0.74942 0.55978 0.0
C565 C 0.37941 0.78209 0.55026 0.0
C566 C 0.32543 0.76923 0.55563 0.0
C567 C 0.3451 0.79488 0.5481 0.0
H568 H 0.5384 0.35729 0.72145 0.0
H569 H 0.61208 0.41368 0.68276 0.0
H570 H 0.63361 0.3888 0.6964 0.0
H571 H 0.62915 0.34733 0.71335 0.0
H572 H 0.55418 0.28918 0.74899 0.0
H573 H 0.53556 0.31827 0.74239 0.0
C574 C 0.55927 0.3643 0.71623 0.0
C575 C 0.57341 0.38714 0.70079 0.0
C576 C 0.5712 0.3493 0.72325 0.0
C577 C 0.60067 0.39629 0.69474 0.0
C578 C 0.61295 0.38187 0.70228 0.0
C579 C 0.60894 0.34125 0.72013 0.0
C580 C 0.59296 0.31596 0.73133 0.0
C581 C 0.59806 0.35779 0.71566 0.0
C582 C 0.56682 0.30842 0.74005 0.0
C583 C 0.55612 0.32503 0.73625 0.0
H584 H 0.19702 0.52533 0.85051 0.0
H585 H 0.19904 0.59742 0.87538 0.0
H586 H 0.24486 0.61494 0.89176 0.0
H587 H 0.28577 0.61106 0.89607 0.0
H588 H 0.28135 0.53721 0.87394 0.0
H589 H 0.23465 0.51887 0.86027 0.0
C590 C 0.20688 0.54452 0.86021 0.0
C591 C 0.1944 0.56006 0.86122 0.0
C592 C 0.23299 0.55429 0.87006 0.0
C593 C 0.20821 0.58517 0.87356 0.0
C594 C 0.23445 0.5952 0.88312 0.0
C595 C 0.27443 0.59085 0.88853 0.0
C596 C 0.28714 0.57566 0.88576 0.0
C597 C 0.24731 0.5802 0.88089 0.0
C598 C 0.27212 0.54939 0.87625 0.0
C599 C 0.2454 0.53887 0.86832 0.0
H600 H 0.63329 0.20098 0.02213 0.0
H601 H 0.70118 0.1906 0.00444 0.0
H602 H 0.73225 0.23518 0.02015 0.0
H603 H 0.74093 0.27851 0.03532 0.0
H604 H 0.67421 0.29136 0.04959 0.0
H605 H 0.6421 0.24473 0.03818 0.0
C606 C 0.65485 0.20841 0.02159 0.0
C607 C 0.66456 0.192 0.01209 0.0
C608 C 0.67299 0.23477 0.0297 0.0
C609 C 0.69271 0.20213 0.01214 0.0
C610 C 0.71071 0.22794 0.02082 0.0
C611 C 0.71936 0.27114 0.03613 0.0
C612 C 0.71001 0.28845 0.0432 0.0
C613 C 0.70113 0.24457 0.02914 0.0
C614 C 0.68197 0.27849 0.0441 0.0
C615 C 0.6636 0.25182 0.03759 0.0
H616 H 0.41008 0.62436 0.18869 0.0
H617 H 0.49657 0.67803 0.19073 0.0
H618 H 0.48989 0.71509 0.20227 0.0
H619 H 0.45961 0.73273 0.20914 0.0
H620 H 0.37305 0.6794 0.20692 0.0
H621 H 0.37964 0.64162 0.19842 0.0
C622 C 0.42746 0.64405 0.19216 0.0
C623 C 0.45379 0.64845 0.18874 0.0
C624 C 0.42346 0.66534 0.19856 0.0
C625 C 0.4761 0.67419 0.19295 0.0
C626 C 0.4723 0.69537 0.19957 0.0
C627 C 0.44215 0.71283 0.20694 0.0
C628 C 0.41587 0.70894 0.20845 0.0
C629 C 0.44608 0.69128 0.20194 0.0
C630 C 0.3935 0.68297 0.20576 0.0
C631 C 0.39725 0.66136 0.20087 0.0
H632 H 0.79843 0.39723 0.35346 0.0
H633 H 0.84134 0.47103 0.39644 0.0
H634 H 0.79846 0.46448 0.41276 0.0
H635 H 0.74858 0.43969 0.41185 0.0
H636 H 0.70623 0.36507 0.3702 0.0
H637 H 0.74927 0.36971 0.35709 0.0
C638 C 0.79865 0.41159 0.36698 0.0
C639 C 0.82326 0.43481 0.37335 0.0
C640 C 0.77395 0.40759 0.37651 0.0
C641 C 0.82277 0.45328 0.39063 0.0
C642 C 0.79823 0.44949 0.40011 0.0
C643 C 0.74878 0.42426 0.4002 0.0
C644 C 0.72422 0.40223 0.39176 0.0
C645 C 0.77365 0.42706 0.39265 0.0
C646 C 0.72482 0.38228 0.3769 0.0
C647 C 0.74944 0.38497 0.36928 0.0
H648 H 0.16004 0.63891 0.43612 0.0
H649 H 0.17619 0.57951 0.40455 0.0
H650 H 0.2066 0.58649 0.44025 0.0
H651 H 0.22973 0.61046 0.47988 0.0
H652 H 0.21506 0.6715 0.50976 0.0
H653 H 0.18359 0.6633 0.4749 0.0
C654 C 0.17039 0.62764 0.43684 0.0
C655 C 0.16574 0.60872 0.41759 0.0
C656 C 0.18837 0.63221 0.45704 0.0
C657 C 0.17896 0.59392 0.41926 0.0
C658 C 0.1966 0.59808 0.43957 0.0
C659 C 0.21968 0.62199 0.47875 0.0
C660 C 0.22485 0.64159 0.49745 0.0
C661 C 0.20161 0.6173 0.45849 0.0
C662 C 0.21162 0.65635 0.49563 0.0
C663 C 0.19351 0.65165 0.47571 0.0
H664 H 0.58567 0.1968 0.56185 0.0
H665 H 0.51614 0.13665 0.60337 0.0
H666 H 0.53387 0.16216 0.6429 0.0
H667 H 0.56982 0.20063 0.66615 0.0
H668 H 0.64137 0.25837 0.62563 0.0
H669 H 0.62237 0.23431 0.58532 0.0
C670 C 0.57449 0.18895 0.57955 0.0
C671 C 0.54948 0.16473 0.57939 0.0
C672 C 0.58523 0.20325 0.60247 0.0
C673 C 0.53515 0.15541 0.6026 0.0
C674 C 0.54539 0.16989 0.62536 0.0
C675 C 0.58117 0.20804 0.64845 0.0
C676 C 0.60687 0.2313 0.6488 0.0
C677 C 0.57045 0.19375 0.62553 0.0
C678 C 0.62154 0.24047 0.62582 0.0
C679 C 0.61069 0.22674 0.6028 0.0
H680 H 0.43974 0.60025 0.73962 0.0
H681 H 0.37912 0.51841 0.7557 0.0
H682 H 0.36902 0.53209 0.79658 0.0
H683 H 0.37704 0.56713 0.82748 0.0
H684 H 0.43834 0.64895 0.81221 0.0
H685 H 0.44882 0.6353 0.77138 0.0
C686 C 0.42458 0.58535 0.75222 0.0
C687 C 0.41016 0.55834 0.74454 0.0
C688 C 0.41898 0.59333 0.7758 0.0
C689 C 0.39025 0.53937 0.76094 0.0
C690 C 0.38456 0.54715 0.78439 0.0
C691 C 0.39272 0.58205 0.81527 0.0
C692 C 0.4068 0.60906 0.82288 0.0
C693 C 0.39868 0.57407 0.79192 0.0
C694 C 0.42716 0.62803 0.80683 0.0
C695 C 0.43315 0.62024 0.78347 0.0
H696 H 0.84733 0.46106 0.91141 0.0
H697 H 0.87559 0.40509 0.91731 0.0
H698 H 0.85018 0.38761 0.95706 0.0
H699 H 0.81979 0.38806 0.99009 0.0
H700 H 0.79329 0.44546 0.98511 0.0
H701 H 0.81851 0.46275 0.94524 0.0
C702 C 0.84832 0.44533 0.92157 0.0
C703 C 0.86332 0.43439 0.91127 0.0
C704 C 0.83392 0.43556 0.94458 0.0
C705 C 0.8639 0.41365 0.92454 0.0
C706 C 0.84947 0.4037 0.94736 0.0
C707 C 0.81947 0.4043 0.98024 0.0
C708 C 0.80457 0.41535 0.99052 0.0
C709 C 0.83428 0.4144 0.95747 0.0
C710 C 0.80461 0.43659 0.97765 0.0
C711 C 0.81901 0.4465 0.95483 0.0
H712 H 0.40557 0.86658 0.07708 0.0
H713 H 0.47013 0.85084 0.06095 0.0
H714 H 0.46058 0.82578 0.10074 0.0
H715 H 0.43351 0.80769 0.1398 0.0
H716 H 0.36769 0.82181 0.15501 0.0
H717 H 0.37781 0.84761 0.1156 0.0
C718 C 0.4174 0.85746 0.0821 0.0
C719 C 0.43863 0.86076 0.06601 0.0
C720 C 0.41149 0.84262 0.1048 0.0
C721 C 0.454 0.84911 0.07314 0.0
C722 C 0.44841 0.83455 0.09581 0.0
C723 C 0.42135 0.81639 0.13452 0.0
C724 C 0.39989 0.8128 0.1504 0.0
C725 C 0.42718 0.83113 0.11176 0.0
C726 C 0.3843 0.82416 0.14316 0.0
C727 C 0.3901 0.83899 0.12063 0.0
H728 H 0.63719 0.48908 0.26812 0.0
H729 H 0.57403 0.41643 0.23332 0.0
H730 H 0.57766 0.39029 0.26787 0.0
H731 H 0.59908 0.38793 0.30773 0.0
H732 H 0.66349 0.46054 0.34148 0.0
H733 H 0.65951 0.48664 0.30713 0.0
C734 C 0.62438 0.46751 0.26791 0.0
C735 C 0.6053 0.45484 0.24813 0.0
C736 C 0.62695 0.4525 0.28753 0.0
C737 C 0.58856 0.42685 0.24851 0.0
C738 C 0.5908 0.41181 0.26814 0.0
C739 C 0.61236 0.40945 0.30753 0.0
C740 C 0.63154 0.42219 0.32721 0.0
C741 C 0.60996 0.42442 0.28772 0.0
C742 C 0.64855 0.45013 0.32659 0.0
C743 C 0.64625 0.46513 0.30699 0.0
H744 H 0.46761 0.86007 0.3632 0.0
H745 H 0.40434 0.87965 0.36436 0.0
H746 H 0.38537 0.85409 0.32487 0.0
H747 H 0.38656 0.82601 0.29025 0.0
H748 H 0.45044 0.80725 0.28852 0.0
H749 H 0.46954 0.833 0.32788 0.0
C750 C 0.4499 0.85908 0.35463 0.0
C751 C 0.43742 0.87176 0.36676 0.0
C752 C 0.43917 0.84447 0.33186 0.0
C753 C 0.41417 0.86983 0.35561 0.0
C754 C 0.40336 0.85531 0.33297 0.0
C755 C 0.40465 0.82749 0.29846 0.0
C756 C 0.41697 0.81461 0.28645 0.0
C757 C 0.41561 0.84243 0.32102 0.0
C758 C 0.44051 0.81694 0.29733 0.0
C759 C 0.45146 0.83166 0.31985 0.0
H760 H 0.53987 0.39939 0.517 0.0
H761 H 0.6144 0.43169 0.56004 0.0
H762 H 0.63651 0.42464 0.52339 0.0
H763 H 0.63458 0.40857 0.47928 0.0
H764 H 0.55907 0.37333 0.43759 0.0
H765 H 0.53734 0.38154 0.47388 0.0
C766 C 0.56085 0.40459 0.51858 0.0
C767 C 0.57537 0.41622 0.54134 0.0
C768 C 0.57328 0.39975 0.49771 0.0
C769 C 0.60275 0.42326 0.54267 0.0
C770 C 0.6154 0.41898 0.52177 0.0
C771 C 0.61336 0.40265 0.47816 0.0
C772 C 0.59852 0.3904 0.45573 0.0
C773 C 0.60085 0.40719 0.49921 0.0
C774 C 0.57098 0.38269 0.45466 0.0
C775 C 0.55853 0.38747 0.47536 0.0
H776 H 0.19369 0.56797 0.70371 0.0
H777 H 0.14133 0.59999 0.68983 0.0
H778 H 0.17025 0.62651 0.65451 0.0
H779 H 0.20941 0.63924 0.62622 0.0
H780 H 0.25825 0.60301 0.63699 0.0
H781 H 0.23145 0.57917 0.67467 0.0
C782 C 0.1882 0.58034 0.69277 0.0
C783 C 0.16521 0.58183 0.69962 0.0
C784 C 0.20438 0.59486 0.67189 0.0
C785 C 0.15907 0.59866 0.68543 0.0
C786 C 0.17552 0.61375 0.66505 0.0
C787 C 0.21431 0.62636 0.63707 0.0
C788 C 0.23586 0.62303 0.62917 0.0
C789 C 0.19817 0.61193 0.65805 0.0
C790 C 0.24176 0.60588 0.64291 0.0
C791 C 0.22643 0.59224 0.66435 0.0
H792 H 0.6426 0.15718 0.83473 0.0
H793 H 0.58228 0.16849 0.87317 0.0
H794 H 0.58494 0.19836 0.83924 0.0
H795 H 0.60488 0.222 0.79916 0.0
H796 H 0.66664 0.21244 0.76151 0.0
H797 H 0.66334 0.1817 0.795 0.0
C798 C 0.63018 0.16633 0.83583 0.0
C799 C 0.61213 0.16035 0.85647 0.0
C800 C 0.6322 0.18401 0.8165 0.0
C801 C 0.59594 0.17218 0.85729 0.0
C802 C 0.59763 0.18952 0.83801 0.0
C803 C 0.61767 0.21324 0.79825 0.0
C804 C 0.63596 0.21955 0.77781 0.0
C805 C 0.61573 0.19564 0.81758 0.0
C806 C 0.65241 0.20802 0.77703 0.0
C807 C 0.65049 0.19037 0.79615 0.0
H808 H 0.4583 0.61278 0.03817 0.0
H809 H 0.3901 0.53218 0.03665 0.0
H810 H 0.37429 0.54159 -0.00326 0.0
H811 H 0.37965 0.57278 0.96257 0.0
H812 H 0.44854 0.65307 0.96363 0.0
H813 H 0.46446 0.64352 0.00333 0.0
C814 C 0.44021 0.59711 0.02891 0.0
C815 C 0.42544 0.57179 0.04038 0.0
C816 C 0.43132 0.60261 0.00595 0.0
C817 C 0.40171 0.55192 0.02838 0.0
C818 C 0.39271 0.55725 0.00551 0.0
C819 C 0.39814 0.58823 0.97148 0.0
C820 C 0.41281 0.61364 0.96016 0.0
C821 C 0.40727 0.58258 0.99422 0.0
C822 C 0.43683 0.63334 0.9719 0.0
C823 C 0.44596 0.6279 0.99462 0.0
H824 H 0.84576 0.39626 0.2072 0.0
H825 H 0.87525 0.48067 0.19998 0.0
H826 H 0.85057 0.47258 0.15977 0.0
H827 H 0.82019 0.4416 0.12694 0.0
H828 H 0.79223 0.35743 0.13295 0.0
H829 H 0.81709 0.36547 0.17318 0.0
C830 C 0.84716 0.41295 0.19665 0.0
C831 C 0.86222 0.43902 0.20677 0.0
C832 C 0.83313 0.40821 0.17335 0.0
C833 C 0.86344 0.46034 0.19294 0.0
C834 C 0.84943 0.45576 0.16986 0.0
C835 C 0.81947 0.42498 0.13707 0.0
C836 C 0.80422 0.39894 0.12704 0.0
C837 C 0.83404 0.42977 0.16 0.0
C838 C 0.8038 0.37769 0.14025 0.0
C839 C 0.818 0.38226 0.16327 0.0
loop_
_geom_bond_atom_site_label_1
_geom_bond_atom_site_label_2
_geom_bond_distance
_geom_bond_site_symmetry_2
_ccdc_geom_bond_type
H0 C27 0.929 . S
N1 C26 1.433 . S
N1 C32 1.435 . S
N1 C38 1.423 . S
H2 C28 0.930 . S
H3 C31 0.931 . S
H4 C30 0.929 . S
H5 C33 0.930 . S
H6 C34 0.932 . S
H7 C37 0.929 . S
H8 C36 0.931 . S
H9 C39 0.929 . S
H10 C43 0.932 . S
H11 C40 0.931 . S
H12 C42 0.929 . S
H13 C45 0.929 . S
H14 C46 0.930 . S
H15 C48 0.929 . S
H16 C49 0.931 . S
H17 C51 0.930 . S
H18 C52 0.932 . S
H19 C54 0.931 . S
H20 C55 0.929 . S
H21 C57 0.929 . S
H22 C58 0.931 . S
H23 C60 0.929 . S
N24 C44 1.433 . S
N24 C50 1.435 . S
N24 C56 1.423 . S
H25 C61 0.932 . S
C26 N1 1.433 . S
C26 C27 1.363 . S
C26 C31 1.370 . S
C27 H0 0.929 . S
C27 C26 1.363 . S
C27 C28 1.385 . S
C28 H2 0.930 . S
C28 C27 1.385 . S
C28 C29 1.357 . S
C29 C28 1.357 . S
C29 C30 1.406 . S
C30 H4 0.929 . S
C30 C29 1.406 . S
C30 C31 1.391 . S
C31 H3 0.931 . S
C31 C26 1.370 . S
C31 C30 1.391 . S
C32 N1 1.435 . S
C32 C33 1.358 . S
C32 C37 1.371 . S
C33 H5 0.930 . S
C33 C32 1.358 . S
C33 C34 1.405 . S
C34 H6 0.932 . S
C34 C33 1.405 . S
C34 C35 1.383 . S
C35 C34 1.383 . S
C35 C36 1.393 . S
C36 H8 0.931 . S
C36 C35 1.393 . S
C36 C37 1.382 . S
C37 H7 0.929 . S
C37 C32 1.371 . S
C37 C36 1.382 . S
C38 N1 1.423 . S
C38 C39 1.362 . S
C38 C43 1.388 . S
C39 H9 0.929 . S
C39 C38 1.362 . S
C39 C40 1.376 . S
C40 H11 0.931 . S
C40 C39 1.376 . S
C40 C41 1.396 . S
C41 C40 1.396 . S
C41 C42 1.348 . S
C41 C59 1.472 1_455 S
C42 H12 0.929 . S
C42 C41 1.348 . S
C42 C43 1.443 . S
C43 H10 0.932 . S
C43 C38 1.388 . S
C43 C42 1.443 . S
C44 N24 1.433 . S
C44 C45 1.363 . S
C44 C49 1.370 . S
C45 H13 0.929 . S
C45 C44 1.363 . S
C45 C46 1.385 . S
C46 H14 0.930 . S
C46 C45 1.385 . S
C46 C47 1.357 . S
C47 C46 1.357 . S
C47 C48 1.406 . S
C48 H15 0.929 . S
C48 C47 1.406 . S
C48 C49 1.391 . S
C49 H16 0.931 . S
C49 C44 1.370 . S
C49 C48 1.391 . S
C50 N24 1.435 . S
C50 C51 1.358 . S
C50 C55 1.371 . S
C51 H17 0.930 . S
C51 C50 1.358 . S
C51 C52 1.405 . S
C52 H18 0.932 . S
C52 C51 1.405 . S
C52 C53 1.383 . S
C53 C52 1.383 . S
C53 C54 1.393 . S
C54 H19 0.931 . S
C54 C53 1.393 . S
C54 C55 1.382 . S
C55 H20 0.929 . S
C55 C50 1.371 . S
C55 C54 1.382 . S
C56 N24 1.423 . S
C56 C57 1.362 . S
C56 C61 1.388 . S
C57 H21 0.929 . S
C57 C56 1.362 . S
C57 C58 1.376 . S
C58 H22 0.931 . S
C58 C57 1.376 . S
C58 C59 1.396 . S
C59 C41 1.472 1_655 S
C59 C58 1.396 . S
C59 C60 1.348 . S
C60 H23 0.929 . S
C60 C59 1.348 . S
C60 C61 1.443 . S
C61 H25 0.932 . S
C61 C56 1.388 . S
C61 C60 1.443 . S
H62 C89 0.929 . S
N63 C88 1.433 . S
N63 C94 1.435 . S
N63 C100 1.423 . S
H64 C90 0.930 . S
H65 C93 0.931 . S
H66 C92 0.929 . S
H67 C95 0.930 . S
H68 C96 0.932 . S
H69 C99 0.929 . S
H70 C98 0.931 . S
H71 C101 0.929 . S
H72 C105 0.932 . S
H73 C102 0.931 . S
H74 C104 0.929 1_545 S
H75 C107 0.929 . S
H76 C108 0.930 . S
H77 C110 0.929 . S
H78 C111 0.931 . S
H79 C113 0.930 . S
H80 C114 0.932 . S
H81 C116 0.931 . S
H82 C117 0.929 . S
H83 C119 0.929 . S
H84 C120 0.931 . S
H85 C122 0.929 . S
N86 C106 1.433 . S
N86 C112 1.435 . S
N86 C118 1.423 . S
H87 C123 0.932 . S
C88 N63 1.433 . S
C88 C89 1.363 . S
C88 C93 1.370 . S
C89 H62 0.929 . S
C89 C88 1.363 . S
C89 C90 1.385 . S
C90 H64 0.930 . S
C90 C89 1.385 . S
C90 C91 1.357 . S
C91 C90 1.357 . S
C91 C92 1.406 . S
C92 H66 0.929 . S
C92 C91 1.406 . S
C92 C93 1.391 . S
C93 H65 0.931 . S
C93 C88 1.370 . S
C93 C92 1.391 . S
C94 N63 1.435 . S
C94 C95 1.358 . S
C94 C99 1.371 . S
C95 H67 0.930 . S
C95 C94 1.358 . S
C95 C96 1.405 . S
C96 H68 0.932 . S
C96 C95 1.405 . S
C96 C97 1.383 . S
C97 C96 1.383 . S
C97 C98 1.393 . S
C98 H70 0.931 . S
C98 C97 1.393 . S
C98 C99 1.382 . S
C99 H69 0.929 . S
C99 C94 1.371 . S
C99 C98 1.382 . S
C100 N63 1.423 . S
C100 C101 1.362 . S
C100 C105 1.388 . S
C101 H71 0.929 . S
C101 C100 1.362 . S
C101 C102 1.376 . S
C102 H73 0.931 . S
C102 C101 1.376 . S
C102 C103 1.413 . S
C103 C102 1.413 . S
C103 C104 1.348 . S
C103 C121 1.456 1_565 S
C104 H74 0.929 1_565 S
C104 C103 1.348 . S
C104 C105 1.443 . S
C105 H72 0.932 . S
C105 C100 1.388 . S
C105 C104 1.443 . S
C106 N86 1.433 . S
C106 C107 1.363 . S
C106 C111 1.370 . S
C107 H75 0.929 . S
C107 C106 1.363 . S
C107 C108 1.385 . S
C108 H76 0.930 . S
C108 C107 1.385 . S
C108 C109 1.357 . S
C109 C108 1.357 . S
C109 C110 1.406 . S
C110 H77 0.929 . S
C110 C109 1.406 . S
C110 C111 1.391 . S
C111 H78 0.931 . S
C111 C106 1.370 . S
C111 C110 1.391 . S
C112 N86 1.435 . S
C112 C113 1.358 . S
C112 C117 1.371 . S
C113 H79 0.930 . S
C113 C112 1.358 . S
C113 C114 1.405 . S
C114 H80 0.932 . S
C114 C113 1.405 . S
C114 C115 1.383 . S
C115 C114 1.383 . S
C115 C116 1.393 . S
C116 H81 0.931 . S
C116 C115 1.393 . S
C116 C117 1.382 . S
C117 H82 0.929 . S
C117 C112 1.371 . S
C117 C116 1.382 . S
C118 N86 1.423 . S
C118 C119 1.362 . S
C118 C123 1.388 . S
C119 H83 0.929 . S
C119 C118 1.362 . S
C119 C120 1.376 . S
C120 H84 0.931 . S
C120 C119 1.376 . S
C120 C121 1.396 . S
C121 C103 1.456 1_545 S
C121 C120 1.396 . S
C121 C122 1.348 . S
C122 H85 0.929 . S
C122 C121 1.348 . S
C122 C123 1.443 . S
C123 H87 0.932 . S
C123 C118 1.388 . S
C123 C122 1.443 . S
H124 C151 0.929 . S
N125 C150 1.433 . S
N125 C156 1.435 . S
N125 C162 1.423 . S
H126 C152 0.930 . S
H127 C155 0.931 . S
H128 C154 0.929 . S
H129 C157 0.930 . S
H130 C158 0.932 . S
H131 C161 0.929 . S
H132 C160 0.931 . S
H133 C163 0.929 . S
H134 C167 0.932 . S
H135 C164 0.931 . S
H136 C166 0.929 . S
H137 C169 0.929 . S
H138 C170 0.930 . S
H139 C172 0.929 . S
H140 C173 0.931 . S
H141 C175 0.930 . S
H142 C176 0.932 . S
H143 C178 0.931 . S
H144 C179 0.929 . S
H145 C181 0.929 . S
H146 C182 0.931 . S
H147 C184 0.929 . S
N148 C168 1.433 . S
N148 C174 1.435 . S
N148 C180 1.423 . S
H149 C185 0.932 . S
C150 N125 1.433 . S
C150 C151 1.363 . S
C150 C155 1.370 . S
C151 H124 0.929 . S
C151 C150 1.363 . S
C151 C152 1.385 . S
C152 H126 0.930 . S
C152 C151 1.385 . S
C152 C153 1.357 . S
C153 C152 1.357 . S
C153 C154 1.406 . S
C154 H128 0.929 . S
C154 C153 1.406 . S
C154 C155 1.391 . S
C155 H127 0.931 . S
C155 C150 1.370 . S
C155 C154 1.391 . S
C156 N125 1.435 . S
C156 C157 1.358 . S
C156 C161 1.371 . S
C157 H129 0.930 . S
C157 C156 1.358 . S
C157 C158 1.405 . S
C158 H130 0.932 . S
C158 C157 1.405 . S
C158 C159 1.383 . S
C159 C158 1.383 . S
C159 C160 1.393 . S
C160 H132 0.931 . S
C160 C159 1.393 . S
C160 C161 1.382 . S
C161 H131 0.929 . S
C161 C156 1.371 . S
C161 C160 1.382 . S
C162 N125 1.423 . S
C162 C163 1.362 . S
C162 C167 1.388 . S
C163 H133 0.929 . S
C163 C162 1.362 . S
C163 C164 1.376 . S
C164 H135 0.931 . S
C164 C163 1.376 . S
C164 C165 1.396 . S
C165 C164 1.396 . S
C165 C166 1.348 . S
C165 C183 1.472 . S
C166 H136 0.929 . S
C166 C165 1.348 . S
C166 C167 1.443 . S
C167 H134 0.932 . S
C167 C162 1.388 . S
C167 C166 1.443 . S
C168 N148 1.433 . S
C168 C169 1.363 . S
C168 C173 1.370 . S
C169 H137 0.929 . S
C169 C168 1.363 . S
C169 C170 1.385 . S
C170 H138 0.930 . S
C170 C169 1.385 . S
C170 C171 1.357 . S
C171 C170 1.357 . S
C171 C172 1.406 . S
C172 H139 0.929 . S
C172 C171 1.406 . S
C172 C173 1.391 . S
C173 H140 0.931 . S
C173 C168 1.370 . S
C173 C172 1.391 . S
C174 N148 1.435 . S
C174 C175 1.358 . S
C174 C179 1.371 . S
C175 H141 0.930 . S
C175 C174 1.358 . S
C175 C176 1.405 . S
C176 H142 0.932 . S
C176 C175 1.405 . S
C176 C177 1.383 . S
C177 C176 1.383 . S
C177 C178 1.393 . S
C178 H143 0.931 . S
C178 C177 1.393 . S
C178 C179 1.382 . S
C179 H144 0.929 . S
C179 C174 1.371 . S
C179 C178 1.382 . S
C180 N148 1.423 . S
C180 C181 1.362 . S
C180 C185 1.388 . S
C181 H145 0.929 . S
C181 C180 1.362 . S
C181 C182 1.376 . S
C182 H146 0.931 . S
C182 C181 1.376 . S
C182 C183 1.396 . S
C183 C165 1.472 . S
C183 C182 1.396 . S
C183 C184 1.348 . S
C184 H147 0.929 . S
C184 C183 1.348 . S
C184 C185 1.443 . S
C185 H149 0.932 . S
C185 C180 1.388 . S
C185 C184 1.443 . S
H186 C213 0.929 . S
N187 C212 1.433 . S
N187 C218 1.435 . S
N187 C224 1.423 . S
H188 C214 0.930 . S
H189 C217 0.931 . S
H190 C216 0.929 . S
H191 C219 0.930 . S
H192 C220 0.932 . S
H193 C223 0.929 . S
H194 C222 0.931 . S
H195 C225 0.929 . S
H196 C229 0.932 . S
H197 C226 0.931 . S
H198 C228 0.929 . S
H199 C231 0.929 . S
H200 C232 0.930 . S
H201 C234 0.929 . S
H202 C235 0.931 . S
H203 C237 0.930 . S
H204 C238 0.932 . S
H205 C240 0.931 . S
H206 C241 0.929 . S
H207 C243 0.929 . S
H208 C244 0.931 . S
H209 C246 0.929 . S
N210 C230 1.433 . S
N210 C236 1.435 . S
N210 C242 1.423 . S
H211 C247 0.932 . S
C212 N187 1.433 . S
C212 C213 1.363 . S
C212 C217 1.370 . S
C213 H186 0.929 . S
C213 C212 1.363 . S
C213 C214 1.385 . S
C214 H188 0.930 . S
C214 C213 1.385 . S
C214 C215 1.357 . S
C215 C214 1.357 . S
C215 C216 1.406 . S
C216 H190 0.929 . S
C216 C215 1.406 . S
C216 C217 1.391 . S
C217 H189 0.931 . S
C217 C212 1.370 . S
C217 C216 1.391 . S
C218 N187 1.435 . S
C218 C219 1.358 . S
C218 C223 1.371 . S
C219 H191 0.930 . S
C219 C218 1.358 . S
C219 C220 1.405 . S
C220 H192 0.932 . S
C220 C219 1.405 . S
C220 C221 1.383 . S
C221 C220 1.383 . S
C221 C222 1.393 . S
C222 H194 0.931 . S
C222 C221 1.393 . S
C222 C223 1.382 . S
C223 H193 0.929 . S
C223 C218 1.371 . S
C223 C222 1.382 . S
C224 N187 1.423 . S
C224 C225 1.362 . S
C224 C229 1.388 . S
C225 H195 0.929 . S
C225 C224 1.362 . S
C225 C226 1.376 . S
C226 H197 0.931 . S
C226 C225 1.376 . S
C226 C227 1.396 . S
C227 C226 1.396 . S
C227 C228 1.348 . S
C227 C245 1.472 1_455 S
C228 H198 0.929 . S
C228 C227 1.348 . S
C228 C229 1.443 . S
C229 H196 0.932 . S
C229 C224 1.388 . S
C229 C228 1.443 . S
C230 N210 1.433 . S
C230 C231 1.363 . S
C230 C235 1.370 . S
C231 H199 0.929 . S
C231 C230 1.363 . S
C231 C232 1.385 . S
C232 H200 0.930 . S
C232 C231 1.385 . S
C232 C233 1.357 . S
C233 C232 1.357 . S
C233 C234 1.406 . S
C234 H201 0.929 . S
C234 C233 1.406 . S
C234 C235 1.391 . S
C235 H202 0.931 . S
C235 C230 1.370 . S
C235 C234 1.391 . S
C236 N210 1.435 . S
C236 C237 1.358 . S
C236 C241 1.371 . S
C237 H203 0.930 . S
C237 C236 1.358 . S
C237 C238 1.405 . S
C238 H204 0.932 . S
C238 C237 1.405 . S
C238 C239 1.383 . S
C239 C238 1.383 . S
C239 C240 1.393 . S
C240 H205 0.931 . S
C240 C239 1.393 . S
C240 C241 1.382 . S
C241 H206 0.929 . S
C241 C236 1.371 . S
C241 C240 1.382 . S
C242 N210 1.423 . S
C242 C243 1.362 . S
C242 C247 1.388 . S
C243 H207 0.929 . S
C243 C242 1.362 . S
C243 C244 1.376 . S
C244 H208 0.931 . S
C244 C243 1.376 . S
C244 C245 1.396 . S
C245 C227 1.472 1_655 S
C245 C244 1.396 . S
C245 C246 1.348 . S
C246 H209 0.929 . S
C246 C245 1.348 . S
C246 C247 1.443 . S
C247 H211 0.932 . S
C247 C242 1.388 . S
C247 C246 1.443 . S
H248 C275 0.929 . S
N249 C274 1.433 . S
N249 C280 1.435 . S
N249 C286 1.423 . S
H250 C276 0.930 . S
H251 C279 0.931 . S
H252 C278 0.929 . S
H253 C281 0.930 . S
H254 C282 0.932 . S
H255 C285 0.929 . S
H256 C284 0.931 . S
H257 C287 0.929 . S
H258 C291 0.932 . S
H259 C288 0.931 . S
H260 C290 0.929 . S
H261 C293 0.929 . S
H262 C294 0.930 . S
H263 C296 0.929 . S
H264 C297 0.931 . S
H265 C299 0.930 1_554 S
H266 C300 0.932 . S
H267 C302 0.931 . S
H268 C303 0.929 . S
H269 C305 0.929 . S
H270 C306 0.931 1_554 S
H271 C308 0.929 . S
N272 C292 1.433 . S
N272 C298 1.435 1_554 S
N272 C304 1.423 1_554 S
H273 C309 0.932 . S
C274 N249 1.433 . S
C274 C275 1.363 . S
C274 C279 1.370 . S
C275 H248 0.929 . S
C275 C274 1.363 . S
C275 C276 1.385 . S
C276 H250 0.930 . S
C276 C275 1.385 . S
C276 C277 1.357 1_556 S
C277 C276 1.357 1_554 S
C277 C278 1.406 . S
C278 H252 0.929 . S
C278 C277 1.406 . S
C278 C279 1.391 1_554 S
C279 H251 0.931 . S
C279 C274 1.370 . S
C279 C278 1.391 1_556 S
C280 N249 1.435 . S
C280 C281 1.358 . S
C280 C285 1.371 . S
C281 H253 0.930 . S
C281 C280 1.358 . S
C281 C282 1.405 . S
C282 H254 0.932 . S
C282 C281 1.405 . S
C282 C283 1.383 . S
C283 C282 1.383 . S
C283 C284 1.393 . S
C284 H256 0.931 . S
C284 C283 1.393 . S
C284 C285 1.382 . S
C285 H255 0.929 . S
C285 C280 1.371 . S
C285 C284 1.382 . S
C286 N249 1.423 . S
C286 C287 1.362 . S
C286 C291 1.388 . S
C287 H257 0.929 . S
C287 C286 1.362 . S
C287 C288 1.376 . S
C288 H259 0.931 . S
C288 C287 1.376 . S
C288 C289 1.396 . S
C289 C288 1.396 . S
C289 C290 1.348 . S
C289 C307 1.472 1_545 S
C290 H260 0.929 . S
C290 C289 1.348 . S
C290 C291 1.443 . S
C291 H258 0.932 . S
C291 C286 1.388 . S
C291 C290 1.443 . S
C292 N272 1.433 . S
C292 C293 1.363 . S
C292 C297 1.370 . S
C293 H261 0.929 . S
C293 C292 1.363 . S
C293 C294 1.385 . S
C294 H262 0.930 . S
C294 C293 1.385 . S
C294 C295 1.357 . S
C295 C294 1.357 . S
C295 C296 1.406 . S
C296 H263 0.929 . S
C296 C295 1.406 . S
C296 C297 1.391 . S
C297 H264 0.931 . S
C297 C292 1.370 . S
C297 C296 1.391 . S
C298 N272 1.435 1_556 S
C298 C299 1.358 . S
C298 C303 1.371 . S
C299 H265 0.930 1_556 S
C299 C298 1.358 . S
C299 C300 1.405 . S
C300 H266 0.932 . S
C300 C299 1.405 . S
C300 C301 1.383 . S
C301 C300 1.383 . S
C301 C302 1.393 . S
C302 H267 0.931 . S
C302 C301 1.393 . S
C302 C303 1.382 . S
C303 H268 0.929 . S
C303 C298 1.371 . S
C303 C302 1.382 . S
C304 N272 1.423 1_556 S
C304 C305 1.362 1_556 S
C304 C309 1.388 . S
C305 H269 0.929 . S
C305 C304 1.362 1_554 S
C305 C306 1.376 1_554 S
C306 H270 0.931 1_556 S
C306 C305 1.376 1_556 S
C306 C307 1.396 . S
C307 C289 1.472 1_565 S
C307 C306 1.396 . S
C307 C308 1.348 . S
C308 H271 0.929 . S
C308 C307 1.348 . S
C308 C309 1.443 . S
C309 H273 0.932 . S
C309 C304 1.388 . S
C309 C308 1.443 . S
H310 C337 0.929 . S
N311 C336 1.433 . S
N311 C342 1.435 . S
N311 C348 1.423 . S
H312 C338 0.930 . S
H313 C341 0.931 . S
H314 C340 0.929 . S
H315 C343 0.930 . S
H316 C344 0.932 . S
H317 C347 0.929 . S
H318 C346 0.931 . S
H319 C349 0.929 . S
H320 C353 0.932 . S
H321 C350 0.931 . S
H322 C352 0.929 . S
H323 C355 0.929 . S
H324 C356 0.930 . S
H325 C358 0.929 . S
H326 C359 0.931 . S
H327 C361 0.930 . S
H328 C362 0.932 . S
H329 C364 0.931 . S
H330 C365 0.929 . S
H331 C367 0.929 . S
H332 C368 0.931 . S
H333 C370 0.929 . S
N334 C354 1.433 . S
N334 C360 1.435 . S
N334 C366 1.423 . S
H335 C371 0.932 . S
C336 N311 1.433 . S
C336 C337 1.363 . S
C336 C341 1.370 . S
C337 H310 0.929 . S
C337 C336 1.363 . S
C337 C338 1.385 . S
C338 H312 0.930 . S
C338 C337 1.385 . S
C338 C339 1.357 . S
C339 C338 1.357 . S
C339 C340 1.406 . S
C340 H314 0.929 . S
C340 C339 1.406 . S
C340 C341 1.391 . S
C341 H313 0.931 . S
C341 C336 1.370 . S
C341 C340 1.391 . S
C342 N311 1.435 . S
C342 C343 1.358 . S
C342 C347 1.371 . S
C343 H315 0.930 . S
C343 C342 1.358 . S
C343 C344 1.405 . S
C344 H316 0.932 . S
C344 C343 1.405 . S
C344 C345 1.383 . S
C345 C344 1.383 . S
C345 C346 1.393 . S
C346 H318 0.931 . S
C346 C345 1.393 . S
C346 C347 1.382 . S
C347 H317 0.929 . S
C347 C342 1.371 . S
C347 C346 1.382 . S
C348 N311 1.423 . S
C348 C349 1.362 . S
C348 C353 1.388 . S
C349 H319 0.929 . S
C349 C348 1.362 . S
C349 C350 1.376 . S
C350 H321 0.931 . S
C350 C349 1.376 . S
C350 C351 1.396 . S
C351 C350 1.396 . S
C351 C352 1.348 . S
C351 C369 1.472 . S
C352 H322 0.929 . S
C352 C351 1.348 . S
C352 C353 1.443 . S
C353 H320 0.932 . S
C353 C348 1.388 . S
C353 C352 1.443 . S
C354 N334 1.433 . S
C354 C355 1.363 . S
C354 C359 1.370 . S
C355 H323 0.929 . S
C355 C354 1.363 . S
C355 C356 1.385 . S
C356 H324 0.930 . S
C356 C355 1.385 . S
C356 C357 1.357 . S
C357 C356 1.357 . S
C357 C358 1.406 . S
C358 H325 0.929 . S
C358 C357 1.406 . S
C358 C359 1.391 . S
C359 H326 0.931 . S
C359 C354 1.370 . S
C359 C358 1.391 . S
C360 N334 1.435 . S
C360 C361 1.358 . S
C360 C365 1.371 . S
C361 H327 0.930 . S
C361 C360 1.358 . S
C361 C362 1.405 . S
C362 H328 0.932 . S
C362 C361 1.405 . S
C362 C363 1.383 . S
C363 C362 1.383 . S
C363 C364 1.393 . S
C364 H329 0.931 . S
C364 C363 1.393 . S
C364 C365 1.382 . S
C365 H330 0.929 . S
C365 C360 1.371 . S
C365 C364 1.382 . S
C366 N334 1.423 . S
C366 C367 1.362 . S
C366 C371 1.388 . S
C367 H331 0.929 . S
C367 C366 1.362 . S
C367 C368 1.376 . S
C368 H332 0.931 . S
C368 C367 1.376 . S
C368 C369 1.396 . S
C369 C351 1.472 . S
C369 C368 1.396 . S
C369 C370 1.348 . S
C370 H333 0.929 . S
C370 C369 1.348 . S
C370 C371 1.443 . S
C371 H335 0.932 . S
C371 C366 1.388 . S
C371 C370 1.443 . S
O372 Cd373 2.223 . S
O372 C380 1.315 . S
Cd373 O372 2.223 . S
Cd373 O376 2.297 . S
Cd373 O377 2.439 . S
Cd373 O383 2.240 . S
Cd374 O375 2.240 . S
Cd374 O382 2.223 . S
Cd374 O384 2.297 . S
Cd374 O385 2.439 . S
O375 Cd374 2.240 . S
O375 C380 1.279 . S
O376 Cd373 2.297 . S
O376 C378 1.247 . S
O377 Cd373 2.439 . S
O377 C378 1.208 . S
C378 O376 1.247 . S
C378 O377 1.208 . S
C379 O384 1.247 . S
C379 O385 1.208 . S
C380 O372 1.315 . S
C380 O375 1.279 . S
C381 O382 1.315 . S
C381 O383 1.279 . S
O382 Cd374 2.223 . S
O382 C381 1.315 . S
O383 Cd373 2.240 . S
O383 C381 1.279 . S
O384 Cd374 2.297 . S
O384 C379 1.247 . S
O385 Cd374 2.439 . S
O385 C379 1.208 . S
O386 Cd387 2.223 . S
O386 C394 1.315 . S
Cd387 O386 2.223 . S
Cd387 O390 2.297 . S
Cd387 O391 2.439 . S
Cd387 O397 2.240 . S
Cd388 O389 2.240 . S
Cd388 O396 2.223 . S
Cd388 O398 2.297 . S
Cd388 O399 2.439 . S
O389 Cd388 2.240 . S
O389 C394 1.279 . S
O390 Cd387 2.297 . S
O390 C392 1.247 . S
O391 Cd387 2.439 . S
O391 C392 1.208 . S
C392 O390 1.247 . S
C392 O391 1.208 . S
C393 O398 1.247 . S
C393 O399 1.208 . S
C394 O386 1.315 . S
C394 O389 1.279 . S
C395 O396 1.315 . S
C395 O397 1.279 . S
O396 Cd388 2.223 . S
O396 C395 1.315 . S
O397 Cd387 2.240 . S
O397 C395 1.279 . S
O398 Cd388 2.297 . S
O398 C393 1.247 . S
O399 Cd388 2.439 . S
O399 C393 1.208 . S
O400 Cd401 2.223 . S
O400 C408 1.315 . S
Cd401 O400 2.223 . S
Cd401 O404 2.297 . S
Cd401 O405 2.439 . S
Cd401 O411 2.240 . S
Cd402 O403 2.240 . S
Cd402 O410 2.223 . S
Cd402 O412 2.297 . S
Cd402 O413 2.439 . S
O403 Cd402 2.240 . S
O403 C408 1.279 . S
O404 Cd401 2.297 . S
O404 C406 1.247 . S
O405 Cd401 2.439 . S
O405 C406 1.208 . S
C406 O404 1.247 . S
C406 O405 1.208 . S
C407 O412 1.247 . S
C407 O413 1.208 . S
C408 O400 1.315 . S
C408 O403 1.279 . S
C409 O410 1.315 . S
C409 O411 1.279 . S
O410 Cd402 2.223 . S
O410 C409 1.315 . S
O411 Cd401 2.240 . S
O411 C409 1.279 . S
O412 Cd402 2.297 . S
O412 C407 1.247 . S
O413 Cd402 2.439 . S
O413 C407 1.208 . S
O414 Cd415 2.223 . S
O414 C422 1.315 . S
Cd415 O414 2.223 . S
Cd415 O418 2.297 . S
Cd415 O419 2.439 . S
Cd415 O425 2.240 . S
Cd416 O417 2.240 . S
Cd416 O424 2.223 . S
Cd416 O426 2.297 . S
Cd416 O427 2.439 . S
O417 Cd416 2.240 . S
O417 C422 1.279 . S
O418 Cd415 2.297 . S
O418 C420 1.247 . S
O419 Cd415 2.439 . S
O419 C420 1.208 . S
C420 O418 1.247 . S
C420 O419 1.208 . S
C421 O426 1.247 . S
C421 O427 1.208 . S
C422 O414 1.315 . S
C422 O417 1.279 . S
C423 O424 1.315 . S
C423 O425 1.279 . S
O424 Cd416 2.223 . S
O424 C423 1.315 . S
O425 Cd415 2.240 . S
O425 C423 1.279 . S
O426 Cd416 2.297 . S
O426 C421 1.247 . S
O427 Cd416 2.439 . S
O427 C421 1.208 . S
O428 Cd429 2.223 . S
O428 C436 1.315 . S
Cd429 O428 2.223 . S
Cd429 O432 2.297 . S
Cd429 O433 2.439 . S
Cd429 O439 2.240 . S
Cd430 O431 2.240 . S
Cd430 O438 2.223 . S
Cd430 O440 2.297 . S
Cd430 O441 2.439 . S
O431 Cd430 2.240 . S
O431 C436 1.279 . S
O432 Cd429 2.297 . S
O432 C434 1.247 . S
O433 Cd429 2.439 . S
O433 C434 1.208 . S
C434 O432 1.247 . S
C434 O433 1.208 . S
C435 O440 1.247 . S
C435 O441 1.208 . S
C436 O428 1.315 . S
C436 O431 1.279 . S
C437 O438 1.315 . S
C437 O439 1.279 . S
O438 Cd430 2.223 . S
O438 C437 1.315 . S
O439 Cd429 2.240 . S
O439 C437 1.279 . S
O440 Cd430 2.297 . S
O440 C435 1.247 . S
O441 Cd430 2.439 . S
O441 C435 1.208 . S
O442 Cd443 2.223 . S
O442 C450 1.315 . S
Cd443 O442 2.223 . S
Cd443 O446 2.297 . S
Cd443 O447 2.439 . S
Cd443 O453 2.240 . S
Cd444 O445 2.240 . S
Cd444 O452 2.223 . S
Cd444 O454 2.297 . S
Cd444 O455 2.439 . S
O445 Cd444 2.240 . S
O445 C450 1.279 . S
O446 Cd443 2.297 . S
O446 C448 1.247 . S
O447 Cd443 2.439 . S
O447 C448 1.208 . S
C448 O446 1.247 . S
C448 O447 1.208 . S
C449 O454 1.247 . S
C449 O455 1.208 . S
C450 O442 1.315 . S
C450 O445 1.279 . S
C451 O452 1.315 . S
C451 O453 1.279 . S
O452 Cd444 2.223 . S
O452 C451 1.315 . S
O453 Cd443 2.240 . S
O453 C451 1.279 . S
O454 Cd444 2.297 . S
O454 C449 1.247 . S
O455 Cd444 2.439 . S
O455 C449 1.208 . S
H456 C462 0.930 . S
H457 C465 0.930 . S
H458 C466 0.930 . S
H459 C467 0.930 . S
H460 C470 0.930 . S
H461 C471 0.930 . S
C462 H456 0.930 . S
C462 C463 1.355 . S
C462 C464 1.415 . S
C463 C462 1.355 . S
C463 C465 1.419 . S
C464 C462 1.415 . S
C464 C469 1.425 . S
C464 C471 1.409 . S
C465 H457 0.930 . S
C465 C463 1.419 . S
C465 C466 1.362 . S
C466 H458 0.930 . S
C466 C465 1.362 . S
C466 C469 1.409 . S
C467 H459 0.930 . S
C467 C468 1.355 . S
C467 C469 1.415 . S
C468 C467 1.355 . S
C468 C470 1.419 . S
C469 C464 1.425 . S
C469 C466 1.409 . S
C469 C467 1.415 . S
C470 H460 0.930 . S
C470 C468 1.419 . S
C470 C471 1.362 . S
C471 H461 0.930 . S
C471 C464 1.409 . S
C471 C470 1.362 . S
H472 C478 0.930 . S
H473 C481 0.930 . S
H474 C482 0.930 . S
H475 C483 0.930 . S
H476 C486 0.930 . S
H477 C487 0.930 . S
C478 H472 0.930 . S
C478 C479 1.355 . S
C478 C480 1.415 . S
C479 C478 1.355 . S
C479 C481 1.419 . S
C480 C478 1.415 . S
C480 C485 1.425 . S
C480 C487 1.409 . S
C481 H473 0.930 . S
C481 C479 1.419 . S
C481 C482 1.362 . S
C482 H474 0.930 . S
C482 C481 1.362 . S
C482 C485 1.409 . S
C483 H475 0.930 . S
C483 C484 1.355 . S
C483 C485 1.415 . S
C484 C483 1.355 . S
C484 C486 1.419 . S
C485 C480 1.425 . S
C485 C482 1.409 . S
C485 C483 1.415 . S
C486 H476 0.930 . S
C486 C484 1.419 . S
C486 C487 1.362 . S
C487 H477 0.930 . S
C487 C480 1.409 . S
C487 C486 1.362 . S
H488 C494 0.930 . S
H489 C497 0.930 . S
H490 C498 0.930 . S
H491 C499 0.930 . S
H492 C502 0.930 . S
H493 C503 0.930 . S
C494 H488 0.930 . S
C494 C495 1.355 . S
C494 C496 1.415 . S
C495 C494 1.355 . S
C495 C497 1.419 . S
C496 C494 1.415 . S
C496 C501 1.425 . S
C496 C503 1.409 . S
C497 H489 0.930 . S
C497 C495 1.419 . S
C497 C498 1.362 . S
C498 H490 0.930 . S
C498 C497 1.362 . S
C498 C501 1.409 . S
C499 H491 0.930 . S
C499 C500 1.355 . S
C499 C501 1.415 . S
C500 C499 1.355 . S
C500 C502 1.419 . S
C501 C496 1.425 . S
C501 C498 1.409 . S
C501 C499 1.415 . S
C502 H492 0.930 . S
C502 C500 1.419 . S
C502 C503 1.362 . S
C503 H493 0.930 . S
C503 C496 1.409 . S
C503 C502 1.362 . S
H504 C510 0.930 . S
H505 C513 0.930 . S
H506 C514 0.930 . S
H507 C515 0.930 . S
H508 C518 0.930 . S
H509 C519 0.930 . S
C510 H504 0.930 . S
C510 C511 1.355 . S
C510 C512 1.415 . S
C511 C510 1.355 . S
C511 C513 1.419 . S
C512 C510 1.415 . S
C512 C517 1.425 . S
C512 C519 1.409 . S
C513 H505 0.930 . S
C513 C511 1.419 . S
C513 C514 1.362 . S
C514 H506 0.930 . S
C514 C513 1.362 . S
C514 C517 1.409 . S
C515 H507 0.930 . S
C515 C516 1.355 . S
C515 C517 1.415 . S
C516 C515 1.355 . S
C516 C518 1.419 . S
C517 C512 1.425 . S
C517 C514 1.409 . S
C517 C515 1.415 . S
C518 H508 0.930 . S
C518 C516 1.419 . S
C518 C519 1.362 . S
C519 H509 0.930 . S
C519 C512 1.409 . S
C519 C518 1.362 . S
H520 C526 0.930 . S
H521 C529 0.930 . S
H522 C530 0.930 . S
H523 C531 0.930 . S
H524 C534 0.930 . S
H525 C535 0.930 . S
C526 H520 0.930 . S
C526 C527 1.355 . S
C526 C528 1.415 . S
C527 C526 1.355 . S
C527 C529 1.419 . S
C528 C526 1.415 . S
C528 C533 1.425 . S
C528 C535 1.409 . S
C529 H521 0.930 . S
C529 C527 1.419 . S
C529 C530 1.362 . S
C530 H522 0.930 . S
C530 C529 1.362 . S
C530 C533 1.409 . S
C531 H523 0.930 . S
C531 C532 1.355 . S
C531 C533 1.415 . S
C532 C531 1.355 . S
C532 C534 1.419 . S
C533 C528 1.425 . S
C533 C530 1.409 . S
C533 C531 1.415 . S
C534 H524 0.930 . S
C534 C532 1.419 . S
C534 C535 1.362 . S
C535 H525 0.930 . S
C535 C528 1.409 . S
C535 C534 1.362 . S
H536 C542 0.930 . S
H537 C545 0.930 . S
H538 C546 0.930 . S
H539 C547 0.930 . S
H540 C550 0.930 . S
H541 C551 0.930 . S
C542 H536 0.930 . S
C542 C543 1.355 . S
C542 C544 1.415 . S
C543 C542 1.355 . S
C543 C545 1.419 . S
C544 C542 1.415 . S
C544 C549 1.425 . S
C544 C551 1.409 . S
C545 H537 0.930 . S
C545 C543 1.419 . S
C545 C546 1.362 . S
C546 H538 0.930 . S
C546 C545 1.362 . S
C546 C549 1.409 . S
C547 H539 0.930 . S
C547 C548 1.355 . S
C547 C549 1.415 . S
C548 C547 1.355 . S
C548 C550 1.419 . S
C549 C544 1.425 . S
C549 C546 1.409 . S
C549 C547 1.415 . S
C550 H540 0.930 . S
C550 C548 1.419 . S
C550 C551 1.362 . S
C551 H541 0.930 . S
C551 C544 1.409 . S
C551 C550 1.362 . S
H552 C558 0.930 . S
H553 C561 0.930 . S
H554 C562 0.930 . S
H555 C563 0.930 . S
H556 C566 0.930 . S
H557 C567 0.930 . S
C558 H552 0.930 . S
C558 C559 1.355 . S
C558 C560 1.415 . S
C559 C558 1.355 . S
C559 C561 1.419 . S
C560 C558 1.415 . S
C560 C565 1.425 . S
C560 C567 1.409 . S
C561 H553 0.930 . S
C561 C559 1.419 . S
C561 C562 1.362 . S
C562 H554 0.930 . S
C562 C561 1.362 . S
C562 C565 1.409 . S
C563 H555 0.930 . S
C563 C564 1.355 . S
C563 C565 1.415 . S
C564 C563 1.355 . S
C564 C566 1.419 . S
C565 C560 1.425 . S
C565 C562 1.409 . S
C565 C563 1.415 . S
C566 H556 0.930 . S
C566 C564 1.419 . S
C566 C567 1.362 . S
C567 H557 0.930 . S
C567 C560 1.409 . S
C567 C566 1.362 . S
H568 C574 0.930 . S
H569 C577 0.930 . S
H570 C578 0.930 . S
H571 C579 0.930 . S
H572 C582 0.930 . S
H573 C583 0.930 . S
C574 H568 0.930 . S
C574 C575 1.355 . S
C574 C576 1.415 . S
C575 C574 1.355 . S
C575 C577 1.419 . S
C576 C574 1.415 . S
C576 C581 1.425 . S
C576 C583 1.409 . S
C577 H569 0.930 . S
C577 C575 1.419 . S
C577 C578 1.362 . S
C578 H570 0.930 . S
C578 C577 1.362 . S
C578 C581 1.409 . S
C579 H571 0.930 . S
C579 C580 1.355 . S
C579 C581 1.415 . S
C580 C579 1.355 . S
C580 C582 1.419 . S
C581 C576 1.425 . S
C581 C578 1.409 . S
C581 C579 1.415 . S
C582 H572 0.930 . S
C582 C580 1.419 . S
C582 C583 1.362 . S
C583 H573 0.930 . S
C583 C576 1.409 . S
C583 C582 1.362 . S
H584 C590 0.930 . S
H585 C593 0.930 . S
H586 C594 0.930 . S
H587 C595 0.930 . S
H588 C598 0.930 . S
H589 C599 0.930 . S
C590 H584 0.930 . S
C590 C591 1.355 . S
C590 C592 1.415 . S
C591 C590 1.355 . S
C591 C593 1.419 . S
C592 C590 1.415 . S
C592 C597 1.425 . S
C592 C599 1.409 . S
C593 H585 0.930 . S
C593 C591 1.419 . S
C593 C594 1.362 . S
C594 H586 0.930 . S
C594 C593 1.362 . S
C594 C597 1.409 . S
C595 H587 0.930 . S
C595 C596 1.355 . S
C595 C597 1.415 . S
C596 C595 1.355 . S
C596 C598 1.419 . S
C597 C592 1.425 . S
C597 C594 1.409 . S
C597 C595 1.415 . S
C598 H588 0.930 . S
C598 C596 1.419 . S
C598 C599 1.362 . S
C599 H589 0.930 . S
C599 C592 1.409 . S
C599 C598 1.362 . S
H600 C606 0.930 . S
H601 C609 0.930 . S
H602 C610 0.930 . S
H603 C611 0.930 . S
H604 C614 0.930 . S
H605 C615 0.930 . S
C606 H600 0.930 . S
C606 C607 1.355 . S
C606 C608 1.415 . S
C607 C606 1.355 . S
C607 C609 1.419 . S
C608 C606 1.415 . S
C608 C613 1.425 . S
C608 C615 1.409 . S
C609 H601 0.930 . S
C609 C607 1.419 . S
C609 C610 1.362 . S
C610 H602 0.930 . S
C610 C609 1.362 . S
C610 C613 1.409 . S
C611 H603 0.930 . S
C611 C612 1.355 . S
C611 C613 1.415 . S
C612 C611 1.355 . S
C612 C614 1.419 . S
C613 C608 1.425 . S
C613 C610 1.409 . S
C613 C611 1.415 . S
C614 H604 0.930 . S
C614 C612 1.419 . S
C614 C615 1.362 . S
C615 H605 0.930 . S
C615 C608 1.409 . S
C615 C614 1.362 . S
H616 C622 0.930 . S
H617 C625 0.930 . S
H618 C626 0.930 . S
H619 C627 0.930 . S
H620 C630 0.930 . S
H621 C631 0.930 . S
C622 H616 0.930 . S
C622 C623 1.355 . S
C622 C624 1.415 . S
C623 C622 1.355 . S
C623 C625 1.419 . S
C624 C622 1.415 . S
C624 C629 1.425 . S
C624 C631 1.409 . S
C625 H617 0.930 . S
C625 C623 1.419 . S
C625 C626 1.362 . S
C626 H618 0.930 . S
C626 C625 1.362 . S
C626 C629 1.409 . S
C627 H619 0.930 . S
C627 C628 1.355 . S
C627 C629 1.415 . S
C628 C627 1.355 . S
C628 C630 1.419 . S
C629 C624 1.425 . S
C629 C626 1.409 . S
C629 C627 1.415 . S
C630 H620 0.930 . S
C630 C628 1.419 . S
C630 C631 1.362 . S
C631 H621 0.930 . S
C631 C624 1.409 . S
C631 C630 1.362 . S
H632 C638 0.930 . S
H633 C641 0.930 . S
H634 C642 0.930 . S
H635 C643 0.930 . S
H636 C646 0.930 . S
H637 C647 0.930 . S
C638 H632 0.930 . S
C638 C639 1.355 . S
C638 C640 1.415 . S
C639 C638 1.355 . S
C639 C641 1.419 . S
C640 C638 1.415 . S
C640 C645 1.425 . S
C640 C647 1.409 . S
C641 H633 0.930 . S
C641 C639 1.419 . S
C641 C642 1.362 . S
C642 H634 0.930 . S
C642 C641 1.362 . S
C642 C645 1.409 . S
C643 H635 0.930 . S
C643 C644 1.355 . S
C643 C645 1.415 . S
C644 C643 1.355 . S
C644 C646 1.419 . S
C645 C640 1.425 . S
C645 C642 1.409 . S
C645 C643 1.415 . S
C646 H636 0.930 . S
C646 C644 1.419 . S
C646 C647 1.362 . S
C647 H637 0.930 . S
C647 C640 1.409 . S
C647 C646 1.362 . S
H648 C654 0.930 . S
H649 C657 0.930 . S
H650 C658 0.930 . S
H651 C659 0.930 . S
H652 C662 0.930 . S
H653 C663 0.930 . S
C654 H648 0.930 . S
C654 C655 1.355 . S
C654 C656 1.415 . S
C655 C654 1.355 . S
C655 C657 1.419 . S
C656 C654 1.415 . S
C656 C661 1.425 . S
C656 C663 1.409 . S
C657 H649 0.930 . S
C657 C655 1.419 . S
C657 C658 1.362 . S
C658 H650 0.930 . S
C658 C657 1.362 . S
C658 C661 1.409 . S
C659 H651 0.930 . S
C659 C660 1.355 . S
C659 C661 1.415 . S
C660 C659 1.355 . S
C660 C662 1.419 . S
C661 C656 1.425 . S
C661 C658 1.409 . S
C661 C659 1.415 . S
C662 H652 0.930 . S
C662 C660 1.419 . S
C662 C663 1.362 . S
C663 H653 0.930 . S
C663 C656 1.409 . S
C663 C662 1.362 . S
H664 C670 0.930 . S
H665 C673 0.930 . S
H666 C674 0.930 . S
H667 C675 0.930 . S
H668 C678 0.930 . S
H669 C679 0.930 . S
C670 H664 0.930 . S
C670 C671 1.355 . S
C670 C672 1.415 . S
C671 C670 1.355 . S
C671 C673 1.419 . S
C672 C670 1.415 . S
C672 C677 1.425 . S
C672 C679 1.409 . S
C673 H665 0.930 . S
C673 C671 1.419 . S
C673 C674 1.362 . S
C674 H666 0.930 . S
C674 C673 1.362 . S
C674 C677 1.409 . S
C675 H667 0.930 . S
C675 C676 1.355 . S
C675 C677 1.415 . S
C676 C675 1.355 . S
C676 C678 1.419 . S
C677 C672 1.425 . S
C677 C674 1.409 . S
C677 C675 1.415 . S
C678 H668 0.930 . S
C678 C676 1.419 . S
C678 C679 1.362 . S
C679 H669 0.930 . S
C679 C672 1.409 . S
C679 C678 1.362 . S
H680 C686 0.930 . S
H681 C689 0.930 . S
H682 C690 0.930 . S
H683 C691 0.930 . S
H684 C694 0.930 . S
H685 C695 0.930 . S
C686 H680 0.930 . S
C686 C687 1.355 . S
C686 C688 1.415 . S
C687 C686 1.355 . S
C687 C689 1.419 . S
C688 C686 1.415 . S
C688 C693 1.425 . S
C688 C695 1.409 . S
C689 H681 0.930 . S
C689 C687 1.419 . S
C689 C690 1.362 . S
C690 H682 0.930 . S
C690 C689 1.362 . S
C690 C693 1.409 . S
C691 H683 0.930 . S
C691 C692 1.355 . S
C691 C693 1.415 . S
C692 C691 1.355 . S
C692 C694 1.419 . S
C693 C688 1.425 . S
C693 C690 1.409 . S
C693 C691 1.415 . S
C694 H684 0.930 . S
C694 C692 1.419 . S
C694 C695 1.362 . S
C695 H685 0.930 . S
C695 C688 1.409 . S
C695 C694 1.362 . S
H696 C702 0.930 . S
H697 C705 0.930 . S
H698 C706 0.930 1_554 S
H699 C707 0.930 . S
H700 C710 0.930 . S
H701 C711 0.930 . S
C702 H696 0.930 . S
C702 C703 1.355 . S
C702 C704 1.415 . S
C703 C702 1.355 . S
C703 C705 1.419 . S
C704 C702 1.415 . S
C704 C709 1.425 . S
C704 C711 1.409 . S
C705 H697 0.930 . S
C705 C703 1.419 . S
C705 C706 1.362 . S
C706 H698 0.930 1_556 S
C706 C705 1.362 . S
C706 C709 1.409 . S
C707 H699 0.930 . S
C707 C708 1.355 . S
C707 C709 1.415 1_554 S
C708 C707 1.355 . S
C708 C710 1.419 1_554 S
C709 C704 1.425 . S
C709 C706 1.409 . S
C709 C707 1.415 1_556 S
C710 H700 0.930 . S
C710 C708 1.419 1_556 S
C710 C711 1.362 . S
C711 H701 0.930 . S
C711 C704 1.409 . S
C711 C710 1.362 . S
H712 C718 0.930 . S
H713 C721 0.930 . S
H714 C722 0.930 . S
H715 C723 0.930 . S
H716 C726 0.930 . S
H717 C727 0.930 . S
C718 H712 0.930 . S
C718 C719 1.355 . S
C718 C720 1.415 . S
C719 C718 1.355 . S
C719 C721 1.419 . S
C720 C718 1.415 . S
C720 C725 1.425 . S
C720 C727 1.409 . S
C721 H713 0.930 . S
C721 C719 1.419 . S
C721 C722 1.362 . S
C722 H714 0.930 . S
C722 C721 1.362 . S
C722 C725 1.409 . S
C723 H715 0.930 . S
C723 C724 1.355 . S
C723 C725 1.415 . S
C724 C723 1.355 . S
C724 C726 1.419 . S
C725 C720 1.425 . S
C725 C722 1.409 . S
C725 C723 1.415 . S
C726 H716 0.930 . S
C726 C724 1.419 . S
C726 C727 1.362 . S
C727 H717 0.930 . S
C727 C720 1.409 . S
C727 C726 1.362 . S
H728 C734 0.930 . S
H729 C737 0.930 . S
H730 C738 0.930 . S
H731 C739 0.930 . S
H732 C742 0.930 . S
H733 C743 0.930 . S
C734 H728 0.930 . S
C734 C735 1.355 . S
C734 C736 1.415 . S
C735 C734 1.355 . S
C735 C737 1.419 . S
C736 C734 1.415 . S
C736 C741 1.425 . S
C736 C743 1.409 . S
C737 H729 0.930 . S
C737 C735 1.419 . S
C737 C738 1.362 . S
C738 H730 0.930 . S
C738 C737 1.362 . S
C738 C741 1.409 . S
C739 H731 0.930 . S
C739 C740 1.355 . S
C739 C741 1.415 . S
C740 C739 1.355 . S
C740 C742 1.419 . S
C741 C736 1.425 . S
C741 C738 1.409 . S
C741 C739 1.415 . S
C742 H732 0.930 . S
C742 C740 1.419 . S
C742 C743 1.362 . S
C743 H733 0.930 . S
C743 C736 1.409 . S
C743 C742 1.362 . S
H744 C750 0.930 . S
H745 C753 0.930 . S
H746 C754 0.930 . S
H747 C755 0.930 . S
H748 C758 0.930 . S
H749 C759 0.930 . S
C750 H744 0.930 . S
C750 C751 1.355 . S
C750 C752 1.415 . S
C751 C750 1.355 . S
C751 C753 1.419 . S
C752 C750 1.415 . S
C752 C757 1.425 . S
C752 C759 1.409 . S
C753 H745 0.930 . S
C753 C751 1.419 . S
C753 C754 1.362 . S
C754 H746 0.930 . S
C754 C753 1.362 . S
C754 C757 1.409 . S
C755 H747 0.930 . S
C755 C756 1.355 . S
C755 C757 1.415 . S
C756 C755 1.355 . S
C756 C758 1.419 . S
C757 C752 1.425 . S
C757 C754 1.409 . S
C757 C755 1.415 . S
C758 H748 0.930 . S
C758 C756 1.419 . S
C758 C759 1.362 . S
C759 H749 0.930 . S
C759 C752 1.409 . S
C759 C758 1.362 . S
H760 C766 0.930 . S
H761 C769 0.930 . S
H762 C770 0.930 . S
H763 C771 0.930 . S
H764 C774 0.930 . S
H765 C775 0.930 . S
C766 H760 0.930 . S
C766 C767 1.355 . S
C766 C768 1.415 . S
C767 C766 1.355 . S
C767 C769 1.419 . S
C768 C766 1.415 . S
C768 C773 1.425 . S
C768 C775 1.409 . S
C769 H761 0.930 . S
C769 C767 1.419 . S
C769 C770 1.362 . S
C770 H762 0.930 . S
C770 C769 1.362 . S
C770 C773 1.409 . S
C771 H763 0.930 . S
C771 C772 1.355 . S
C771 C773 1.415 . S
C772 C771 1.355 . S
C772 C774 1.419 . S
C773 C768 1.425 . S
C773 C770 1.409 . S
C773 C771 1.415 . S
C774 H764 0.930 . S
C774 C772 1.419 . S
C774 C775 1.362 . S
C775 H765 0.930 . S
C775 C768 1.409 . S
C775 C774 1.362 . S
H776 C782 0.930 . S
H777 C785 0.930 . S
H778 C786 0.930 . S
H779 C787 0.930 . S
H780 C790 0.930 . S
H781 C791 0.930 . S
C782 H776 0.930 . S
C782 C783 1.355 . S
C782 C784 1.415 . S
C783 C782 1.355 . S
C783 C785 1.419 . S
C784 C782 1.415 . S
C784 C789 1.425 . S
C784 C791 1.409 . S
C785 H777 0.930 . S
C785 C783 1.419 . S
C785 C786 1.362 . S
C786 H778 0.930 . S
C786 C785 1.362 . S
C786 C789 1.409 . S
C787 H779 0.930 . S
C787 C788 1.355 . S
C787 C789 1.415 . S
C788 C787 1.355 . S
C788 C790 1.419 . S
C789 C784 1.425 . S
C789 C786 1.409 . S
C789 C787 1.415 . S
C790 H780 0.930 . S
C790 C788 1.419 . S
C790 C791 1.362 . S
C791 H781 0.930 . S
C791 C784 1.409 . S
C791 C790 1.362 . S
H792 C798 0.930 . S
H793 C801 0.930 . S
H794 C802 0.930 . S
H795 C803 0.930 . S
H796 C806 0.930 . S
H797 C807 0.930 . S
C798 H792 0.930 . S
C798 C799 1.355 . S
C798 C800 1.415 . S
C799 C798 1.355 . S
C799 C801 1.419 . S
C800 C798 1.415 . S
C800 C805 1.425 . S
C800 C807 1.409 . S
C801 H793 0.930 . S
C801 C799 1.419 . S
C801 C802 1.362 . S
C802 H794 0.930 . S
C802 C801 1.362 . S
C802 C805 1.409 . S
C803 H795 0.930 . S
C803 C804 1.355 . S
C803 C805 1.415 . S
C804 C803 1.355 . S
C804 C806 1.419 . S
C805 C800 1.425 . S
C805 C802 1.409 . S
C805 C803 1.415 . S
C806 H796 0.930 . S
C806 C804 1.419 . S
C806 C807 1.362 . S
C807 H797 0.930 . S
C807 C800 1.409 . S
C807 C806 1.362 . S
H808 C814 0.930 . S
H809 C817 0.930 . S
H810 C818 0.930 . S
H811 C819 0.930 . S
H812 C822 0.930 . S
H813 C823 0.930 . S
C814 H808 0.930 . S
C814 C815 1.355 1_556 S
C814 C816 1.415 . S
C815 C814 1.355 1_554 S
C815 C817 1.419 . S
C816 C814 1.415 . S
C816 C821 1.425 . S
C816 C823 1.409 . S
C817 H809 0.930 . S
C817 C815 1.419 . S
C817 C818 1.362 . S
C818 H810 0.930 . S
C818 C817 1.362 . S
C818 C821 1.409 1_554 S
C819 H811 0.930 . S
C819 C820 1.355 . S
C819 C821 1.415 . S
C820 C819 1.355 . S
C820 C822 1.419 . S
C821 C816 1.425 . S
C821 C818 1.409 1_556 S
C821 C819 1.415 . S
C822 H812 0.930 . S
C822 C820 1.419 . S
C822 C823 1.362 . S
C823 H813 0.930 . S
C823 C816 1.409 . S
C823 C822 1.362 . S
H824 C830 0.930 . S
H825 C833 0.930 . S
H826 C834 0.930 . S
H827 C835 0.930 . S
H828 C838 0.930 . S
H829 C839 0.930 . S
C830 H824 0.930 . S
C830 C831 1.355 . S
C830 C832 1.415 . S
C831 C830 1.355 . S
C831 C833 1.419 . S
C832 C830 1.415 . S
C832 C837 1.425 . S
C832 C839 1.409 . S
C833 H825 0.930 . S
C833 C831 1.419 . S
C833 C834 1.362 . S
C834 H826 0.930 . S
C834 C833 1.362 . S
C834 C837 1.409 . S
C835 H827 0.930 . S
C835 C836 1.355 . S
C835 C837 1.415 . S
C836 C835 1.355 . S
C836 C838 1.419 . S
C837 C832 1.425 . S
C837 C834 1.409 . S
C837 C835 1.415 . S
C838 H828 0.930 . S
C838 C836 1.419 . S
C838 C839 1.362 . S
C839 H829 0.930 . S
C839 C832 1.409 . S
C839 C838 1.362 . S
C468 C449 1.528 . S
C463 C29 1.470 . S
C479 C115 1.407 . S
C484 C378 1.431 . S
C495 C153 1.434 . S
C500 C392 1.495 . S
C511 C239 1.353 . S
C516 C406 1.390 . S
C532 C420 1.466 . S
C527 C301 1.435 . S
C543 C339 1.694 . S
C548 C435 1.780 . S
C559 C91 1.452 . S
C564 C393 1.505 . S
C575 C177 1.412 . S
C580 C407 1.393 . S
C591 C215 1.443 . S
C596 C421 1.509 . S
C612 C434 1.784 . S
C607 C277 1.648 . S
C628 C448 1.453 . S
C623 C363 1.425 . S
C644 C379 1.381 . S
C639 C53 1.346 . S
C655 C35 1.580 . S
C660 C395 1.595 . S
C671 C109 1.474 . S
C676 C409 1.552 . S
C692 C423 1.523 . S
C687 C159 1.513 . S
C703 C233 1.670 . S
C708 C436 1.762 . S
C724 C450 1.637 . S
C719 C295 1.483 . S
C740 C381 1.452 . S
C735 C345 1.445 . S
C756 C451 1.524 . S
C751 C97 1.511 . S
C767 C171 1.365 . S
C772 C380 1.540 . S
C788 C394 1.595 . S
C783 C221 1.596 . S
C799 C283 1.455 . S
C804 C408 1.441 . S
C815 C357 1.392 . S
C820 C422 1.589 . S
C831 C47 1.682 . S
C836 C437 1.771 . S
