# Generated by pormake.
# Topology pyr, (3,6)-cn, num edge types: 1
# Building blocks:
#     Node 0, Type 0, BuildingBlock: BETDAH_clean_linker_0, # of connection points: 3
#     Node 1, Type 0, BuildingBlock: BETDAH_clean_linker_0, # of connection points: 3
#     Node 2, Type 0, BuildingBlock: BETDAH_clean_linker_0, # of connection points: 3
#     Node 3, Type 0, BuildingBlock: BETDAH_clean_linker_0, # of connection points: 3
#     Node 4, Type 0, BuildingBlock: BETDAH_clean_linker_0, # of connection points: 3
#     Node 5, Type 0, BuildingBlock: BETDAH_clean_linker_0, # of connection points: 3
#     Node 6, Type 0, BuildingBlock: BETDAH_clean_linker_0, # of connection points: 3
#     Node 7, Type 0, BuildingBlock: BETDAH_clean_linker_0, # of connection points: 3
#     Node 8, Type 1, BuildingBlock: JUFBIX_clean_sbu_0, # of connection points: 6
#     Node 9, Type 1, BuildingBlock: JUFBIX_clean_sbu_0, # of connection points: 6
#     Node 10, Type 1, BuildingBlock: JUFBIX_clean_sbu_0, # of connection points: 6
#     Node 11, Type 1, BuildingBlock: JUFBIX_clean_sbu_0, # of connection points: 6
#     Edge 12, Type (0, 1), BuildingBlock: AJUNOK_clean_linker_0, # of connection points: 2
#     Edge 13, Type (0, 1), BuildingBlock: AJUNOK_clean_linker_0, # of connection points: 2
#     Edge 14, Type (0, 1), BuildingBlock: AJUNOK_clean_linker_0, # of connection points: 2
#     Edge 15, Type (0, 1), BuildingBlock: AJUNOK_clean_linker_0, # of connection points: 2
#     Edge 16, Type (0, 1), BuildingBlock: AJUNOK_clean_linker_0, # of connection points: 2
#     Edge 17, Type (0, 1), BuildingBlock: AJUNOK_clean_linker_0, # of connection points: 2
#     Edge 18, Type (0, 1), BuildingBlock: AJUNOK_clean_linker_0, # of connection points: 2
#     Edge 19, Type (0, 1), BuildingBlock: AJUNOK_clean_linker_0, # of connection points: 2
#     Edge 20, Type (0, 1), BuildingBlock: AJUNOK_clean_linker_0, # of connection points: 2
#     Edge 21, Type (0, 1), BuildingBlock: AJUNOK_clean_linker_0, # of connection points: 2
#     Edge 22, Type (0, 1), BuildingBlock: AJUNOK_clean_linker_0, # of connection points: 2
#     Edge 23, Type (0, 1), BuildingBlock: AJUNOK_clean_linker_0, # of connection points: 2
#     Edge 24, Type (0, 1), BuildingBlock: AJUNOK_clean_linker_0, # of connection points: 2
#     Edge 25, Type (0, 1), BuildingBlock: AJUNOK_clean_linker_0, # of connection points: 2
#     Edge 26, Type (0, 1), BuildingBlock: AJUNOK_clean_linker_0, # of connection points: 2
#     Edge 27, Type (0, 1), BuildingBlock: AJUNOK_clean_linker_0, # of connection points: 2
#     Edge 28, Type (0, 1), BuildingBlock: AJUNOK_clean_linker_0, # of connection points: 2
#     Edge 29, Type (0, 1), BuildingBlock: AJUNOK_clean_linker_0, # of connection points: 2
#     Edge 30, Type (0, 1), BuildingBlock: AJUNOK_clean_linker_0, # of connection points: 2
#     Edge 31, Type (0, 1), BuildingBlock: AJUNOK_clean_linker_0, # of connection points: 2
#     Edge 32, Type (0, 1), BuildingBlock: AJUNOK_clean_linker_0, # of connection points: 2
#     Edge 33, Type (0, 1), BuildingBlock: AJUNOK_clean_linker_0, # of connection points: 2
#     Edge 34, Type (0, 1), BuildingBlock: AJUNOK_clean_linker_0, # of connection points: 2
#     Edge 35, Type (0, 1), BuildingBlock: AJUNOK_clean_linker_0, # of connection points: 2
# Relax obj value: 0.167
# Max RMSD: 0.213
# Mean RMSD: 0.128
data_MOF--net-pyr--node1-JUFBIX_clean_sbu_0--node2-BETDAH_clean_linker_0--edge1-AJUNOK_clean_linker_0
_symmetry_space_group_name_H-M    P1
_symmetry_Int_Tables_number       1
_symmetry_cell_setting            triclinic
loop_
_symmetry_equiv_pos_as_xyz
'x, y, z'
_cell_length_a     26.791061
_cell_length_b     24.85729
_cell_length_c     27.884651
_cell_angle_alpha  81.712763
_cell_angle_beta   88.478515
_cell_angle_gamma 96.086798
loop_
_atom_site_label
_atom_site_type_symbol
_atom_site_fract_x
_atom_site_fract_y
_atom_site_fract_z
_atom_type_partial_charge
H0 H 0.2752 0.10503 0.28018 0.0
H1 H 0.29615 0.23679 0.16067 0.0
H2 H 0.18385 0.23939 0.27244 0.0
C3 C 0.26489 0.1434 0.26175 0.0
C4 C 0.22608 0.16887 0.28253 0.0
C5 C 0.29009 0.167 0.21704 0.0
C6 C 0.27586 0.21664 0.19367 0.0
C7 C 0.2373 0.24239 0.21269 0.0
C8 C 0.21206 0.21816 0.25679 0.0
N9 N 0.23146 0.29657 0.19029 0.0
C10 C 0.18712 0.32063 0.18123 0.0
H11 H 0.53606 0.87234 0.75449 0.0
H12 H 0.51918 0.03972 0.69692 0.0
H13 H 0.54258 0.92532 0.60004 0.0
C14 C 0.5357 0.90459 0.72392 0.0
C15 C 0.54215 0.8928 0.67626 0.0
C16 C 0.52924 0.95834 0.73185 0.0
C17 C 0.52721 0.99908 0.69164 0.0
C18 C 0.53162 0.98696 0.64434 0.0
C19 C 0.54044 0.93452 0.63685 0.0
N20 N 0.51906 0.02453 0.60469 0.0
C21 C 0.46964 0.03615 0.6023 0.0
H22 H 0.7619 0.34392 1.01236 0.0
H23 H 0.76573 0.50215 0.92559 0.0
H24 H 0.63495 0.38647 0.92823 0.0
C25 C 0.74406 0.37265 0.98726 0.0
C26 C 0.69503 0.35824 0.97248 0.0
C27 C 0.77003 0.42438 0.97017 0.0
C28 C 0.74704 0.46134 0.9375 0.0
C29 C 0.69907 0.44742 0.92171 0.0
C30 C 0.67312 0.39589 0.93892 0.0
N31 N 0.67446 0.48885 0.89503 0.0
C32 C 0.66487 0.49036 0.84623 0.0
H33 H 0.94977 0.75015 0.55319 0.0
H34 H 0.08911 0.69759 0.50829 0.0
H35 H 0.94931 0.60293 0.48873 0.0
C36 C 0.96989 0.71998 0.53876 0.0
C37 C 0.94307 0.6751 0.52224 0.0
C38 C 1.02241 0.72858 0.53332 0.0
C39 C 0.04862 0.69026 0.51396 0.0
C40 C 1.0224 0.6447 0.49829 0.0
C41 C 0.96963 0.63715 0.50252 0.0
N42 N 0.04928 0.6099 0.47396 0.0
C43 C 0.03323 0.59532 0.43026 0.0
H44 H 0.97845 0.86256 0.8539 0.0
H45 H 0.86078 0.87553 0.95978 0.0
H46 H 0.88339 0.99146 0.82901 0.0
C47 C 0.94772 0.88308 0.86582 0.0
C48 C 0.93392 0.92912 0.83532 0.0
C49 C 0.92226 0.863 0.9113 0.0
C50 C 0.8817 0.89042 0.9259 0.0
C51 C 0.86787 0.93702 0.89613 0.0
C52 C 0.89407 0.95545 0.85139 0.0
N53 N 0.82896 0.96824 0.90902 0.0
C54 C 0.79316 0.95767 0.94774 0.0
H55 H 0.71772 0.14384 0.40491 0.0
H56 H 0.70328 0.18971 0.54697 0.0
H57 H 0.59005 0.22261 0.44316 0.0
C58 C 0.69768 0.1632 0.43086 0.0
C59 C 0.65219 0.18339 0.41842 0.0
C60 C 0.7165 0.16517 0.47697 0.0
C61 C 0.68971 0.18896 0.51077 0.0
C62 C 0.64489 0.21117 0.49837 0.0
C63 C 0.62586 0.20804 0.4521 0.0
N64 N 0.61769 0.23212 0.53449 0.0
C65 C 0.59698 0.28146 0.52642 0.0
H66 H 0.3227 0.77293 0.13689 0.0
H67 H 0.27739 0.62853 0.23939 0.0
H68 H 0.41465 0.72801 0.25776 0.0
C69 C 0.32993 0.74513 0.16898 0.0
C70 C 0.37297 0.75642 0.19542 0.0
C71 C 0.29526 0.69912 0.18446 0.0
C72 C 0.30386 0.66426 0.22702 0.0
C73 C 0.34627 0.67479 0.25398 0.0
C74 C 0.38102 0.72072 0.23789 0.0
N75 N 0.35284 0.63767 0.29654 0.0
C76 C 0.38646 0.64719 0.33245 0.0
H77 H 0.18067 0.37497 0.6 0.0
H78 H 0.13272 0.51555 0.65269 0.0
H79 H 1.02297 0.38502 0.62578 0.0
C80 C 0.15043 0.3976 0.60984 0.0
C81 C 0.10039 0.3745 0.60962 0.0
C82 C 0.1621 0.44825 0.6253 0.0
C83 C 0.12347 0.4768 0.63977 0.0
C84 C 0.07309 0.45396 0.64011 0.0
C85 C 0.06161 0.40351 0.62372 0.0
N86 N 0.03435 0.47812 0.6618 0.0
C87 C 0.04256 0.5013 0.70375 0.0
Co88 Co 0.0436 0.05349 0.5432 0.0
C89 C 0.08241 0.95294 0.54742 0.0
Co90 Co 0.11687 0.0493 0.57648 0.0
C91 C 0.94221 0.07804 0.52765 0.0
C92 C 0.96886 0.03274 0.4743 0.0
N93 N 0.98239 0.05424 0.51434 0.0
N94 N 0.90424 0.07262 0.49726 0.0
C95 C 0.92078 0.04381 0.46382 0.0
H96 H 0.94091 0.09876 0.55916 0.0
H97 H 0.99273 1.01116 0.45366 0.0
C98 C 0.07797 0.14965 0.57361 0.0
N99 N 0.17747 0.05049 0.60645 0.0
C100 C 0.22279 0.03987 0.59026 0.0
C101 C 0.18561 0.06673 0.65 0.0
N102 N 0.25859 0.04846 0.62229 0.0
C103 C 0.23538 0.0655 0.65982 0.0
C104 C 0.12626 0.08526 0.47565 0.0
O105 O 0.04137 0.12717 0.55313 0.0
O106 O 0.11417 0.12249 0.58611 0.0
O107 O 0.15103 0.07443 0.51364 0.0
O108 O 0.07836 0.07902 0.4803 0.0
O109 O 0.11925 0.9757 0.56752 0.0
H110 H 0.15738 0.08017 0.67261 0.0
H111 H 0.2295 0.02655 0.5556 0.0
O112 O 0.04624 0.97976 0.5336 0.0
O113 O 1.00929 0.02757 0.60641 0.0
O114 O 0.08245 0.02383 0.63848 0.0
C115 C 0.03483 0.01636 0.64383 0.0
H116 H 0.90005 0.03278 0.43322 0.0
H117 H 0.25344 0.07796 0.69134 0.0
Co118 Co 0.52253 0.05006 0.05303 0.0
C119 C 0.50157 0.95623 0.12103 0.0
Co120 Co 0.56166 0.05359 0.12132 0.0
C121 C 0.5156 0.03898 0.95146 0.0
C122 C 0.44314 0.02845 0.98771 0.0
N123 N 0.49218 0.04278 0.99428 0.0
N124 N 0.48344 0.02187 0.91883 0.0
C125 C 0.4377 0.01544 0.94154 0.0
H126 H 0.55597 0.04466 0.94548 0.0
H127 H 0.41364 0.02415 1.01569 0.0
C128 C 0.58256 0.14821 0.05341 0.0
N129 N 0.5914 0.05916 0.17963 0.0
C130 C 0.59061 0.10066 0.20599 0.0
C131 C 0.61265 0.01993 0.208 0.0
N132 N 0.60979 0.08835 0.24978 0.0
C133 C 0.62378 0.03776 0.2514 0.0
C134 C 0.61961 1.01249 0.05384 0.0
O135 O 0.55291 0.12231 1.02745 0.0
O136 O 0.59073 0.12555 0.09593 0.0
O137 O 0.62011 0.02466 0.09668 0.0
O138 O 0.58063 0.01984 1.02972 0.0
O139 O 0.53198 0.98174 0.1463 0.0
H140 H 0.61783 0.98016 0.19848 0.0
H141 H 0.57419 0.13807 0.19423 0.0
O142 O 0.4929 0.97851 0.07862 0.0
O143 O 0.46402 0.08012 0.07857 0.0
O144 O 0.50362 0.08176 0.14594 0.0
C145 C 0.46433 0.08952 0.12251 0.0
H146 H 0.40302 1.00028 0.92654 0.0
H147 H 0.63985 0.01504 0.28218 0.0
Co148 Co 0.58375 0.60376 0.56176 0.0
C149 C 0.49952 0.62221 0.50601 0.0
Co150 Co 0.5107 0.57418 0.60014 0.0
C151 C 0.69221 0.62729 0.5435 0.0
C152 C 0.6514 0.65907 0.48296 0.0
N153 N 0.64495 0.63014 0.52805 0.0
N154 N 0.72727 0.65373 0.51027 0.0
C155 C 0.70172 0.67334 0.47196 0.0
H156 H 0.70111 0.60738 0.5788 0.0
H157 H 0.62174 0.67005 0.45922 0.0
C158 C 0.59235 0.55359 0.65649 0.0
N159 N 0.45027 0.54949 0.63369 0.0
C160 C 0.40621 0.53151 0.61597 0.0
C161 C 0.44032 0.54817 0.6816 0.0
N162 N 0.36948 0.51884 0.65094 0.0
C163 C 0.39065 0.5291 0.69234 0.0
C164 C 0.55071 0.4966 0.55198 0.0
O165 O 0.61816 0.57887 0.61951 0.0
O166 O 0.54498 0.54719 0.65466 0.0
O167 O 0.51249 0.50522 0.57688 0.0
O168 O 0.58625 0.53499 0.54117 0.0
O169 O 0.47586 0.60082 0.54522 0.0
H170 H 0.46721 0.56131 0.70698 0.0
H171 H 0.401 0.52796 0.57813 0.0
O172 O 0.54727 0.62727 0.50497 0.0
O173 O 0.58144 0.67243 0.58301 0.0
O174 O 0.51037 0.64309 0.62355 0.0
C175 C 0.54625 0.6809 0.61147 0.0
H176 H 0.71819 0.69609 0.43822 0.0
H177 H 0.37122 0.52465 0.72747 0.0
Co178 Co 0.05417 0.57935 1.02587 0.0
C179 C 0.95619 0.52501 0.03689 0.0
Co180 Co 1.01461 0.58373 0.09532 0.0
C181 C 0.06651 0.55006 0.92985 0.0
C182 C 0.12385 0.61212 0.94297 0.0
N183 N 0.0846 0.57804 0.96498 0.0
N184 N 0.09189 0.56625 0.88695 0.0
C185 C 0.1286 0.60467 0.89514 0.0
H186 H 0.03419 0.51957 0.93485 0.0
H187 H 0.14579 0.64301 0.95946 0.0
C188 C 0.1128 0.6357 0.0872 0.0
N189 N 0.98439 0.58561 0.15533 0.0
C190 C 1.00755 0.58107 0.19782 0.0
C191 C 0.93596 0.5896 0.16718 0.0
N192 N 0.97569 0.58165 0.23597 0.0
C193 C 0.93054 0.58739 0.21677 0.0
C194 C 0.07119 0.49317 0.09636 0.0
O195 O 0.11342 0.6201 0.0457 0.0
O196 O 0.07236 0.62587 0.11313 0.0
O197 O 0.04292 0.51732 0.12181 0.0
O198 O 0.08048 0.5132 0.05193 0.0
O199 O 0.95691 0.54099 0.07806 0.0
H200 H 0.90655 0.59364 0.14149 0.0
H201 H 0.04746 0.57858 0.20037 0.0
O202 O 0.99461 0.53806 1.00825 0.0
O203 O 1.02766 0.64537 0.99964 0.0
O204 O 0.98677 0.65052 0.06759 0.0
C205 C 0.99807 0.66983 1.02318 0.0
H206 H 0.15491 0.62804 0.8678 0.0
H207 H 0.89601 0.58958 0.23709 0.0
C208 C 0.14882 0.1422 0.33971 0.0
C209 C 0.20144 0.14568 0.33184 0.0
C210 C 0.12508 0.12228 0.38572 0.0
C211 C 0.15267 0.10532 0.42663 0.0
H212 H 0.12556 0.15475 0.30985 0.0
H213 H 0.08457 0.12063 0.38923 0.0
S214 S 0.2918 0.1078 0.4265 0.0
N215 N 0.28048 0.13136 0.36987 0.0
N216 N 0.23639 0.09423 0.45559 0.0
C217 C 0.20541 0.10876 0.41929 0.0
C218 C 0.22953 0.1287 0.37232 0.0
C219 C 0.4821 0.94292 0.8127 0.0
C220 C 0.52086 0.97227 0.78145 0.0
C221 C 0.46988 0.9595 0.85731 0.0
C222 C 0.49624 1.00581 0.87258 0.0
H223 H 0.46009 0.90782 0.80198 0.0
H224 H 0.43972 0.93569 0.88014 0.0
S225 S 0.60169 0.09593 0.80433 0.0
N226 N 0.58633 0.04904 0.76934 0.0
N227 N 0.56304 0.08047 0.85263 0.0
C228 C 0.53559 0.03492 0.84192 0.0
C229 C 0.54791 0.01815 0.79654 0.0
C230 C 0.60357 0.47942 0.78373 0.0
C231 C 0.65132 0.49999 0.79624 0.0
C232 C 0.58595 0.4954 0.7376 0.0
C233 C 0.61545 0.53273 0.70232 0.0
H234 H 0.57887 0.4524 0.81034 0.0
H235 H 0.54819 0.47946 0.73013 0.0
S236 S 0.74496 0.59557 0.71732 0.0
N237 N 0.7291 0.55717 0.77008 0.0
N238 N 0.69624 0.58738 0.68293 0.0
C239 C 0.66438 0.55165 0.71396 0.0
C240 C 0.68221 0.53532 0.76116 0.0
C241 C 0.9765 0.61398 0.36366 0.0
C242 C 1.01652 0.58711 0.38297 0.0
C243 C 0.96244 0.61073 0.316 0.0
C244 C 0.98817 0.5807 0.28611 0.0
H245 H 0.95672 0.63874 0.3851 0.0
H246 H 0.93237 0.63347 0.30197 0.0
S247 S 0.09374 0.49994 0.32229 0.0
N248 N 0.08044 0.52796 0.37063 0.0
N249 N 0.05372 0.52048 0.28132 0.0
C250 C 1.02741 0.55222 0.30604 0.0
C251 C 0.04166 0.55577 0.35451 0.0
C252 C 0.33523 0.13929 0.14448 0.0
C253 C 0.33301 0.14265 0.19471 0.0
C254 C 0.37711 0.12179 0.12155 0.0
C255 C 0.41936 0.10737 0.14751 0.0
H256 H 0.30427 0.15073 0.12245 0.0
H257 H 0.37654 0.12028 0.08294 0.0
S258 S 0.43291 0.10866 0.28006 0.0
N259 N 0.37722 0.12958 0.26958 0.0
N260 N 0.45534 0.09689 0.22731 0.0
C261 C 0.41733 0.10992 0.198 0.0
C262 C 0.37448 0.12733 0.22131 0.0
C263 C 0.38988 0.0615 0.56769 0.0
C264 C 0.41654 0.03973 0.60719 0.0
C265 C 0.33778 0.06328 0.57245 0.0
C266 C 0.3113 0.04363 0.61689 0.0
H267 H 0.4093 0.07716 0.53311 0.0
H268 H 0.31823 0.08109 0.54164 0.0
S269 S 0.36422 0.9791 0.72971 0.0
N270 N 0.41295 0.99574 0.69096 0.0
N271 N 0.31533 0.99914 0.69998 0.0
C272 C 0.33776 0.02097 0.6562 0.0
C273 C 0.39045 0.01898 0.65128 0.0
C274 C 0.85948 0.46572 0.9559 0.0
C275 C 0.81951 0.44262 0.9887 0.0
C276 C 0.90421 0.49043 0.97201 0.0
C277 C 0.91043 0.49383 1.02152 0.0
H278 H 0.85564 0.46586 0.91729 0.0
H279 H 0.93337 0.50873 0.9452 0.0
S280 S 0.81768 0.43708 0.12231 0.0
N281 N 0.78959 0.42258 0.07301 0.0
N282 N 0.87344 0.46916 0.10352 0.0
C283 C 0.87126 0.46923 0.05487 0.0
C284 C 0.82592 0.44355 0.03842 0.0
C285 C 0.8581 0.62149 0.53913 0.0
C286 C 0.88749 0.67089 0.52091 0.0
C287 C 0.8056 0.61644 0.53652 0.0
C288 C 0.78085 0.66036 0.51495 0.0
H289 H 0.87585 0.58653 0.55546 0.0
H290 H 0.78427 0.57759 0.5504 0.0
S291 S 0.84041 0.79869 0.46284 0.0
N292 N 0.88786 0.76461 0.48081 0.0
N293 N 0.78933 0.75536 0.47697 0.0
C294 C 0.80973 0.71012 0.49724 0.0
C295 C 0.86301 0.71533 0.49997 0.0
C296 C 0.16047 0.3822 0.11157 0.0
C297 C 0.15236 0.35818 0.16031 0.0
C298 C 0.13291 0.42426 0.09106 0.0
C299 C 0.09606 0.44459 0.11849 0.0
H300 H 0.18958 0.36953 0.08932 0.0
H301 H 0.1418 0.44205 0.05363 0.0
S302 S 0.05779 0.39172 0.2473 0.0
N303 N 0.10325 0.35511 0.23506 0.0
N304 N 0.051 0.43393 0.19698 0.0
C305 C 0.0864 0.41928 0.16711 0.0
C306 C 0.11466 0.37625 0.18791 0.0
C307 C 0.63909 0.27215 0.96406 0.0
C308 C 0.66569 0.30531 0.99392 0.0
C309 C 0.61155 0.22204 0.98357 0.0
C310 C 0.60942 0.20298 1.03378 0.0
H311 H 0.64023 0.2846 0.92515 0.0
H312 H 0.59255 0.19763 0.95891 0.0
S313 S 0.66849 0.27696 0.12822 0.0
N314 N 0.68502 0.3173 0.07667 0.0
N315 N 0.63419 0.22325 0.11322 0.0
C316 C 0.63494 0.23645 0.06414 0.0
C317 C 0.66281 0.28745 0.04428 0.0
C318 C 0.06456 0.81972 0.49774 0.0
C319 C 0.04798 0.78247 0.53939 0.0
C320 C 0.07861 0.875 0.50077 0.0
C321 C 0.07767 0.8941 0.54567 0.0
H322 H 0.06351 0.80673 0.46228 0.0
H323 H 0.08824 0.90333 0.4677 0.0
S324 S 0.03994 0.81261 0.6654 0.0
N325 N 0.03295 0.76804 0.62677 0.0
N326 N 0.06119 0.87185 0.6327 0.0
C327 C 0.06382 0.85682 0.58781 0.0
C328 C 0.04848 0.80085 0.58462 0.0
C329 C 0.50804 0.79439 0.679 0.0
C330 C 0.54725 0.83667 0.6659 0.0
C331 C 0.50824 0.74391 0.66178 0.0
C332 C 0.54771 0.73387 0.63089 0.0
H333 H 0.47599 0.80121 0.70095 0.0
H334 H 0.47664 0.71302 0.67196 0.0
S335 S 0.66157 0.83041 0.59003 0.0
N336 N 0.62795 0.86443 0.62318 0.0
N337 N 0.62893 0.77005 0.59103 0.0
C338 C 0.58816 0.77537 0.61934 0.0
C339 C 0.58776 0.82659 0.63677 0.0
C340 C 0.93312 0.96508 0.74516 0.0
C341 C 0.96066 0.95026 0.78665 0.0
C342 C 0.95708 0.98614 0.6995 0.0
C343 C 1.0099 0.99386 0.69293 0.0
H344 H 0.89245 0.95997 0.74784 0.0
H345 H 0.93381 0.99654 0.6691 0.0
S346 S 0.09988 0.96326 0.79002 0.0
N347 N 0.04413 0.94635 0.81793 0.0
N348 N 0.08896 0.98498 0.73291 0.0
C349 C 0.03791 0.97923 0.7342 0.0
C350 C 1.01346 0.9577 0.78062 0.0
C351 C 0.65845 0.18999 0.32838 0.0
C352 C 0.63084 0.17105 0.37237 0.0
C353 C 0.64885 0.16529 0.28686 0.0
C354 C 0.61202 0.12048 0.28851 0.0
H355 H 0.68991 0.22145 0.3271 0.0
H356 H 0.67256 0.17863 0.25436 0.0
S357 S 0.52641 0.05895 0.39279 0.0
N358 N 0.56229 0.10806 0.41351 0.0
N359 N 0.5451 0.06113 0.33552 0.0
C360 C 0.58207 0.10359 0.33104 0.0
C361 C 0.5912 0.12916 0.37303 0.0
C362 C 0.46799 0.64715 0.37263 0.0
C363 C 0.41582 0.64909 0.37515 0.0
C364 C 0.49545 0.64127 0.41509 0.0
C365 C 0.47142 0.63645 0.4614 0.0
H366 H 0.48741 0.64834 0.33785 0.0
H367 H 0.53535 0.63806 0.41163 0.0
S368 S 0.33547 0.64379 0.48615 0.0
N369 N 0.3415 0.64932 0.4265 0.0
N370 N 0.3924 0.63815 0.50623 0.0
C371 C 0.41936 0.64072 0.46381 0.0
C372 C 0.39173 0.647 0.42066 0.0
C373 C 0.10441 0.52626 0.76275 0.0
C374 C 0.0543 0.52022 0.74906 0.0
C375 C 0.1165 0.54181 0.80779 0.0
C376 C 0.07876 0.55091 0.84071 0.0
H377 H 0.13444 0.51834 0.73887 0.0
H378 H 0.15547 0.54573 0.81741 0.0
S379 S 0.94196 0.54285 0.82031 0.0
N380 N 0.96693 0.52589 0.77054 0.0
N381 N 0.9894 0.55544 0.85521 0.0
C382 C 1.0285 0.54562 0.82692 0.0
C383 C 1.01632 0.53012 0.78099 0.0
C384 C 0.70154 0.95986 0.95976 0.0
C385 C 0.74952 0.96239 0.97907 0.0
C386 C 0.65982 0.97434 0.98492 0.0
C387 C 0.6641 0.99226 1.03064 0.0
H388 H 0.69648 0.94861 0.92393 0.0
H389 H 0.62411 0.97279 0.96757 0.0
S390 S 0.78192 1.00421 0.09772 0.0
N391 N 0.79908 0.98275 0.047 0.0
N392 N 0.72105 1.00941 0.09473 0.0
C393 C 0.71186 0.99313 0.05105 0.0
C394 C 0.75441 0.9785 1.02515 0.0
C395 C 0.76772 0.08669 0.47956 0.0
C396 C 0.7632 0.14001 0.48925 0.0
C397 C 0.81348 0.06439 0.48394 0.0
C398 C 0.85651 0.0944 0.49831 0.0
H399 H 0.73586 0.06251 0.46723 0.0
H400 H 0.81547 0.02362 0.47514 0.0
S401 S 0.86411 0.23528 0.52926 0.0
N402 N 0.80504 0.22173 0.51526 0.0
N403 N 0.89138 0.17987 0.52345 0.0
C404 C 0.85208 0.14701 0.50999 0.0
C405 C 0.8053 0.16976 0.50551 0.0
C406 C 0.20193 0.67936 0.18177 0.0
C407 C 0.24919 0.68782 0.15721 0.0
C408 C 0.15806 0.66534 0.158 0.0
C409 C 0.15947 0.65839 0.10864 0.0
H410 H 0.19888 0.68305 0.21997 0.0
H411 H 0.12289 0.65821 0.17919 0.0
S412 S 0.27414 0.67792 1.02747 0.0
N413 N 0.29503 0.69033 0.08044 0.0
N414 N 0.21264 0.6633 1.03565 0.0
C415 C 0.20651 0.66829 0.08325 0.0
C416 C 0.25127 0.68316 0.10752 0.0
C417 C 0.24029 0.5118 0.60179 0.0
C418 C 0.21486 0.46715 0.63265 0.0
C419 C 0.29124 0.52819 0.60759 0.0
C420 C 0.31769 0.50098 0.64488 0.0
H421 H 0.22087 0.53358 0.57278 0.0
H422 H 0.31 0.56273 0.5833 0.0
S423 S 0.26763 0.38159 0.73465 0.0
N424 N 0.21942 0.39576 0.70118 0.0
N425 N 0.315 0.42721 0.71249 0.0
C426 C 0.29241 0.45661 0.67605 0.0
C427 C 0.24095 0.4395 0.66978 0.0
C428 C 0.95305 0.76926 0.91983 0.0
C429 C 0.93834 0.81292 0.94217 0.0
C430 C 0.97172 0.72371 0.94645 0.0
C431 C 0.97594 0.71849 0.99717 0.0
H432 H 0.9503 0.77011 0.88106 0.0
H433 H 0.98282 0.69199 0.92685 0.0
S434 S 0.94252 0.82011 0.07441 0.0
N435 N 0.92996 0.84745 1.01908 0.0
N436 N 0.96302 0.76079 0.06904 0.0
C437 C 0.96015 0.7608 1.02049 0.0
C438 C 0.94184 0.808 0.99315 0.0
C439 C 0.42324 0.81885 0.12852 0.0
C440 C 0.40916 0.80561 0.1782 0.0
C441 C 0.45434 0.86684 0.11058 0.0
C442 C 0.47328 0.90318 0.14167 0.0
H443 H 0.40964 0.79215 0.1031 0.0
H444 H 0.46319 0.87583 0.07192 0.0
S445 S 0.44739 0.88836 0.27458 0.0
N446 N 0.41604 0.83363 0.2581 0.0
N447 N 0.47587 0.92289 0.22454 0.0
C448 C 0.46068 0.88992 0.19158 0.0
C449 C 0.42834 0.84138 0.20981 0.0
C450 C 0.11679 0.27748 0.62767 0.0
C451 C 0.09025 0.31699 0.60143 0.0
C452 C 0.11158 0.22344 0.61885 0.0
C453 C 0.07931 0.20649 0.58364 0.0
H454 H 0.14236 0.28862 0.655 0.0
H455 H 0.13345 0.19481 0.63968 0.0
S456 S 1.00019 0.29394 0.50599 0.0
N457 N 0.0297 0.33575 0.53961 0.0
N458 N 1.0192 0.23327 0.52315 0.0
C459 C 0.05116 0.24513 0.55814 0.0
C460 C 0.05674 0.30061 0.56706 0.0
C461 C 0.61149 0.38152 0.50566 0.0
C462 C 0.57986 0.33478 0.52579 0.0
C463 C 0.60015 0.43387 0.51214 0.0
C464 C 0.55688 0.44136 0.53936 0.0
H465 H 0.64633 0.37753 0.48649 0.0
H466 H 0.62674 0.46855 0.49726 0.0
S467 S 0.46005 0.33082 0.59618 0.0
N468 N 0.50228 0.29832 0.57123 0.0
N469 N 0.48045 0.3966 0.5836 0.0
C470 C 0.52363 0.3946 0.55755 0.0
C471 C 0.53535 0.34128 0.55083 0.0
loop_
_geom_bond_atom_site_label_1
_geom_bond_atom_site_label_2
_geom_bond_distance
_geom_bond_site_symmetry_2
_ccdc_geom_bond_type
H0 C3 0.929 . S
H1 C6 0.929 . S
H2 C8 0.930 . S
C3 H0 0.929 . S
C3 C4 1.398 . S
C3 C5 1.396 . S
C4 C3 1.398 . S
C4 C8 1.407 . S
C5 C3 1.396 . S
C5 C6 1.394 . S
C6 H1 0.929 . S
C6 C5 1.394 . S
C6 C7 1.382 . S
C7 C6 1.382 . S
C7 C8 1.392 . S
C7 N9 1.420 . S
C8 H2 0.930 . S
C8 C4 1.407 . S
C8 C7 1.392 . S
N9 C7 1.420 . S
N9 C10 1.244 . S
C10 N9 1.244 . S
H11 C14 0.929 . S
H12 C17 0.929 . S
H13 C19 0.930 . S
C14 H11 0.929 . S
C14 C15 1.398 . S
C14 C16 1.396 . S
C15 C14 1.398 . S
C15 C19 1.407 . S
C16 C14 1.396 . S
C16 C17 1.394 . S
C17 H12 0.929 . S
C17 C16 1.394 . S
C17 C18 1.382 . S
C18 C17 1.382 . S
C18 C19 1.392 . S
C18 N20 1.420 . S
C19 H13 0.930 . S
C19 C15 1.407 . S
C19 C18 1.392 . S
N20 C18 1.420 . S
N20 C21 1.244 . S
C21 N20 1.244 . S
H22 C25 0.929 1_554 S
H23 C28 0.929 . S
H24 C30 0.930 . S
C25 H22 0.929 1_556 S
C25 C26 1.398 . S
C25 C27 1.396 . S
C26 C25 1.398 . S
C26 C30 1.407 . S
C27 C25 1.396 . S
C27 C28 1.394 . S
C28 H23 0.929 . S
C28 C27 1.394 . S
C28 C29 1.382 . S
C29 C28 1.382 . S
C29 C30 1.392 . S
C29 N31 1.420 . S
C30 H24 0.930 . S
C30 C26 1.407 . S
C30 C29 1.392 . S
N31 C29 1.420 . S
N31 C32 1.244 . S
C32 N31 1.244 . S
H33 C36 0.929 . S
H34 C39 0.929 . S
H35 C41 0.930 . S
C36 H33 0.929 . S
C36 C37 1.398 . S
C36 C38 1.396 . S
C37 C36 1.398 . S
C37 C41 1.407 . S
C38 C36 1.396 . S
C38 C39 1.394 . S
C39 H34 0.929 . S
C39 C38 1.394 . S
C39 C40 1.382 . S
C40 C39 1.382 . S
C40 C41 1.392 . S
C40 N42 1.420 . S
C41 H35 0.930 . S
C41 C37 1.407 . S
C41 C40 1.392 . S
N42 C40 1.420 . S
N42 C43 1.244 . S
C43 N42 1.244 . S
H44 C47 0.929 . S
H45 C50 0.929 . S
H46 C52 0.930 1_545 S
C47 H44 0.929 . S
C47 C48 1.398 . S
C47 C49 1.396 . S
C48 C47 1.398 . S
C48 C52 1.407 . S
C49 C47 1.396 . S
C49 C50 1.394 . S
C50 H45 0.929 . S
C50 C49 1.394 . S
C50 C51 1.382 . S
C51 C50 1.382 . S
C51 C52 1.392 . S
C51 N53 1.420 . S
C52 H46 0.930 1_565 S
C52 C48 1.407 . S
C52 C51 1.392 . S
N53 C51 1.420 . S
N53 C54 1.244 . S
C54 N53 1.244 . S
H55 C58 0.929 . S
H56 C61 0.929 . S
H57 C63 0.930 . S
C58 H55 0.929 . S
C58 C59 1.398 . S
C58 C60 1.396 . S
C59 C58 1.398 . S
C59 C63 1.407 . S
C60 C58 1.396 . S
C60 C61 1.394 . S
C61 H56 0.929 . S
C61 C60 1.394 . S
C61 C62 1.382 . S
C62 C61 1.382 . S
C62 C63 1.392 . S
C62 N64 1.420 . S
C63 H57 0.930 . S
C63 C59 1.407 . S
C63 C62 1.392 . S
N64 C62 1.420 . S
N64 C65 1.244 . S
C65 N64 1.244 . S
H66 C69 0.929 . S
H67 C72 0.929 . S
H68 C74 0.930 . S
C69 H66 0.929 . S
C69 C70 1.398 . S
C69 C71 1.396 . S
C70 C69 1.398 . S
C70 C74 1.407 . S
C71 C69 1.396 . S
C71 C72 1.394 . S
C72 H67 0.929 . S
C72 C71 1.394 . S
C72 C73 1.382 . S
C73 C72 1.382 . S
C73 C74 1.392 . S
C73 N75 1.420 . S
C74 H68 0.930 . S
C74 C70 1.407 . S
C74 C73 1.392 . S
N75 C73 1.420 . S
N75 C76 1.244 . S
C76 N75 1.244 . S
H77 C80 0.929 . S
H78 C83 0.929 . S
H79 C85 0.930 . S
C80 H77 0.929 . S
C80 C81 1.398 . S
C80 C82 1.396 . S
C81 C80 1.398 . S
C81 C85 1.407 . S
C82 C80 1.396 . S
C82 C83 1.394 . S
C83 H78 0.929 . S
C83 C82 1.394 . S
C83 C84 1.382 . S
C84 C83 1.382 . S
C84 C85 1.392 . S
C84 N86 1.420 . S
C85 H79 0.930 . S
C85 C81 1.407 . S
C85 C84 1.392 . S
N86 C84 1.420 . S
N86 C87 1.244 . S
C87 N86 1.244 . S
Co88 N93 2.057 . S
Co88 O105 2.021 . S
Co88 O108 2.062 . S
Co88 O112 2.117 1_545 S
Co88 O113 2.020 . S
C89 O109 1.259 1_655 S
C89 O112 1.258 . S
Co90 N99 2.057 . S
Co90 O106 2.117 . S
Co90 O107 2.020 . S
Co90 O109 2.021 1_545 S
Co90 O114 2.064 . S
C91 N93 1.316 . S
C91 N94 1.347 . S
C91 H96 0.931 . S
C92 N93 1.375 . S
C92 C95 1.350 . S
C92 H97 0.930 1_545 S
N93 Co88 2.057 . S
N93 C91 1.316 . S
N93 C92 1.375 . S
N94 C91 1.347 . S
N94 C95 1.373 . S
C95 C92 1.350 . S
C95 N94 1.373 . S
C95 H116 0.931 . S
H96 C91 0.931 . S
H97 C92 0.930 1_565 S
C98 O105 1.259 1_455 S
C98 O106 1.258 . S
N99 Co90 2.057 . S
N99 C100 1.316 1_545 S
N99 C101 1.375 . S
C100 N99 1.316 1_565 S
C100 N102 1.347 . S
C100 H111 0.931 . S
C101 N99 1.375 . S
C101 C103 1.350 . S
C101 H110 0.930 . S
N102 C100 1.347 . S
N102 C103 1.373 1_565 S
C103 C101 1.350 . S
C103 N102 1.373 1_545 S
C103 H117 0.931 . S
C104 O107 1.256 . S
C104 O108 1.255 1_455 S
O105 Co88 2.021 . S
O105 C98 1.259 1_655 S
O106 Co90 2.117 . S
O106 C98 1.258 . S
O107 Co90 2.020 . S
O107 C104 1.256 . S
O108 Co88 2.062 . S
O108 C104 1.255 1_655 S
O109 C89 1.259 1_455 S
O109 Co90 2.021 1_565 S
H110 C101 0.930 . S
H111 C100 0.931 . S
O112 Co88 2.117 1_565 S
O112 C89 1.258 . S
O113 Co88 2.020 . S
O113 C115 1.256 . S
O114 Co90 2.064 . S
O114 C115 1.259 1_455 S
C115 O113 1.256 . S
C115 O114 1.259 1_655 S
H116 C95 0.931 . S
H117 C103 0.931 . S
Co118 N123 2.057 1_544 S
Co118 O135 2.021 1_554 S
Co118 O138 2.059 1_554 S
Co118 O142 2.117 1_545 S
Co118 O143 2.020 . S
C119 O139 1.259 . S
C119 O142 1.258 . S
Co120 N129 2.057 . S
Co120 O136 2.117 . S
Co120 O137 2.020 . S
Co120 O139 2.021 1_545 S
Co120 O144 2.062 . S
C121 N123 1.316 1_545 S
C121 N124 1.347 1_545 S
C121 H126 0.931 . S
C122 N123 1.375 . S
C122 C125 1.350 . S
C122 H127 0.930 . S
N123 Co118 2.057 1_566 S
N123 C121 1.316 1_565 S
N123 C122 1.375 . S
N124 C121 1.347 1_565 S
N124 C125 1.373 . S
C125 C122 1.350 . S
C125 N124 1.373 . S
C125 H146 0.931 . S
H126 C121 0.931 . S
H127 C122 0.930 . S
C128 O135 1.259 1_554 S
C128 O136 1.258 . S
N129 Co120 2.057 . S
N129 C130 1.316 . S
N129 C131 1.375 . S
C130 N129 1.316 . S
C130 N132 1.347 . S
C130 H141 0.931 . S
C131 N129 1.375 . S
C131 C133 1.350 . S
C131 H140 0.930 . S
N132 C130 1.347 . S
N132 C133 1.373 . S
C133 C131 1.350 . S
C133 N132 1.373 . S
C133 H147 0.931 . S
C134 O137 1.256 . S
C134 O138 1.240 1_554 S
O135 Co118 2.021 1_556 S
O135 C128 1.259 1_556 S
O136 Co120 2.117 . S
O136 C128 1.258 . S
O137 Co120 2.020 . S
O137 C134 1.256 . S
O138 Co118 2.059 1_556 S
O138 C134 1.240 1_556 S
O139 C119 1.259 . S
O139 Co120 2.021 1_565 S
H140 C131 0.930 . S
H141 C130 0.931 . S
O142 Co118 2.117 1_565 S
O142 C119 1.258 . S
O143 Co118 2.020 . S
O143 C145 1.256 . S
O144 Co120 2.062 . S
O144 C145 1.255 . S
C145 O143 1.256 . S
C145 O144 1.255 . S
H146 C125 0.931 . S
H147 C133 0.931 . S
Co148 N153 2.057 . S
Co148 O165 2.021 . S
Co148 O168 2.062 . S
Co148 O172 2.117 . S
Co148 O173 2.020 . S
C149 O169 1.259 . S
C149 O172 1.258 . S
Co150 N159 2.057 . S
Co150 O166 2.117 . S
Co150 O167 2.020 . S
Co150 O169 2.021 . S
Co150 O174 2.062 . S
C151 N153 1.316 . S
C151 N154 1.347 . S
C151 H156 0.931 . S
C152 N153 1.375 . S
C152 C155 1.350 . S
C152 H157 0.930 . S
N153 Co148 2.057 . S
N153 C151 1.316 . S
N153 C152 1.375 . S
N154 C151 1.347 . S
N154 C155 1.373 . S
C155 C152 1.350 . S
C155 N154 1.373 . S
C155 H176 0.931 . S
H156 C151 0.931 . S
H157 C152 0.930 . S
C158 O165 1.259 . S
C158 O166 1.258 . S
N159 Co150 2.057 . S
N159 C160 1.316 . S
N159 C161 1.375 . S
C160 N159 1.316 . S
C160 N162 1.347 . S
C160 H171 0.931 . S
C161 N159 1.375 . S
C161 C163 1.350 . S
C161 H170 0.930 . S
N162 C160 1.347 . S
N162 C163 1.373 . S
C163 C161 1.350 . S
C163 N162 1.373 . S
C163 H177 0.931 . S
C164 O167 1.256 . S
C164 O168 1.255 . S
O165 Co148 2.021 . S
O165 C158 1.259 . S
O166 Co150 2.117 . S
O166 C158 1.258 . S
O167 Co150 2.020 . S
O167 C164 1.256 . S
O168 Co148 2.062 . S
O168 C164 1.255 . S
O169 C149 1.259 . S
O169 Co150 2.021 . S
H170 C161 0.930 . S
H171 C160 0.931 . S
O172 Co148 2.117 . S
O172 C149 1.258 . S
O173 Co148 2.020 . S
O173 C175 1.256 . S
O174 Co150 2.062 . S
O174 C175 1.255 . S
C175 O173 1.256 . S
C175 O174 1.255 . S
H176 C155 0.931 . S
H177 C163 0.931 . S
Co178 N183 2.057 . S
Co178 O195 2.021 . S
Co178 O198 2.062 1_556 S
Co178 O202 2.117 1_455 S
Co178 O203 2.020 . S
C179 O199 1.259 . S
C179 O202 1.258 1_554 S
Co180 N189 2.057 . S
Co180 O196 2.117 . S
Co180 O197 2.020 . S
Co180 O199 2.021 1_455 S
Co180 O204 2.062 . S
C181 N183 1.316 . S
C181 N184 1.347 . S
C181 H186 0.931 . S
C182 N183 1.375 . S
C182 C185 1.350 . S
C182 H187 0.930 1_455 S
N183 Co178 2.057 . S
N183 C181 1.316 . S
N183 C182 1.375 . S
N184 C181 1.347 . S
N184 C185 1.373 . S
C185 C182 1.350 . S
C185 N184 1.373 . S
C185 H206 0.931 . S
H186 C181 0.931 . S
H187 C182 0.930 1_655 S
C188 O195 1.259 1_554 S
C188 O196 1.258 . S
N189 Co180 2.057 . S
N189 C190 1.316 1_455 S
N189 C191 1.375 . S
C190 N189 1.316 1_655 S
C190 N192 1.347 . S
C190 H201 0.931 . S
C191 N189 1.375 . S
C191 C193 1.350 . S
C191 H200 0.930 . S
N192 C190 1.347 . S
N192 C193 1.373 1_655 S
C193 C191 1.350 . S
C193 N192 1.373 1_455 S
C193 H207 0.931 . S
C194 O197 1.256 . S
C194 O198 1.255 . S
O195 Co178 2.021 . S
O195 C188 1.259 1_556 S
O196 Co180 2.117 . S
O196 C188 1.258 . S
O197 Co180 2.020 . S
O197 C194 1.256 . S
O198 Co178 2.062 1_554 S
O198 C194 1.255 . S
O199 C179 1.259 . S
O199 Co180 2.021 1_655 S
H200 C191 0.930 . S
H201 C190 0.931 . S
O202 Co178 2.117 1_655 S
O202 C179 1.258 1_556 S
O203 Co178 2.020 . S
O203 C205 1.256 . S
O204 Co180 2.062 . S
O204 C205 1.255 1_554 S
C205 O203 1.256 . S
C205 O204 1.255 1_556 S
H206 C185 0.931 . S
H207 C193 0.931 . S
C208 C209 1.369 . S
C208 C210 1.419 . S
C208 H212 0.930 . S
C209 C208 1.369 . S
C209 C218 1.429 . S
C210 C208 1.419 . S
C210 C211 1.363 . S
C210 H213 0.929 . S
C211 C210 1.363 . S
C211 C217 1.428 . S
H212 C208 0.930 . S
H213 C210 0.929 . S
S214 N215 1.613 . S
S214 N216 1.610 . S
N215 S214 1.613 . S
N215 C218 1.350 . S
N216 S214 1.610 . S
N216 C217 1.351 . S
C217 C211 1.428 . S
C217 N216 1.351 . S
C217 C218 1.434 . S
C218 C209 1.429 . S
C218 N215 1.350 . S
C218 C217 1.434 . S
C219 C220 1.369 . S
C219 C221 1.419 . S
C219 H223 0.930 . S
C220 C219 1.369 . S
C220 C229 1.429 . S
C221 C219 1.419 . S
C221 C222 1.363 . S
C221 H224 0.929 . S
C222 C221 1.363 . S
C222 C228 1.428 1_565 S
H223 C219 0.930 . S
H224 C221 0.929 . S
S225 N226 1.613 . S
S225 N227 1.610 . S
N226 S225 1.613 . S
N226 C229 1.350 1_545 S
N227 S225 1.610 . S
N227 C228 1.351 . S
C228 C222 1.428 1_545 S
C228 N227 1.351 . S
C228 C229 1.434 1_545 S
C229 C220 1.429 . S
C229 N226 1.350 1_565 S
C229 C228 1.434 1_565 S
C230 C231 1.369 . S
C230 C232 1.419 . S
C230 H234 0.930 . S
C231 C230 1.369 . S
C231 C240 1.429 . S
C232 C230 1.419 . S
C232 C233 1.363 . S
C232 H235 0.929 . S
C233 C232 1.363 . S
C233 C239 1.428 . S
H234 C230 0.930 . S
H235 C232 0.929 . S
S236 N237 1.613 . S
S236 N238 1.610 . S
N237 S236 1.613 . S
N237 C240 1.350 . S
N238 S236 1.610 . S
N238 C239 1.351 . S
C239 C233 1.428 . S
C239 N238 1.351 . S
C239 C240 1.434 . S
C240 C231 1.429 . S
C240 N237 1.350 . S
C240 C239 1.434 . S
C241 C242 1.369 . S
C241 C243 1.419 . S
C241 H245 0.930 . S
C242 C241 1.369 . S
C242 C251 1.429 1_655 S
C243 C241 1.419 . S
C243 C244 1.363 . S
C243 H246 0.929 . S
C244 C243 1.363 . S
C244 C250 1.428 1_655 S
H245 C241 0.930 . S
H246 C243 0.929 . S
S247 N248 1.613 . S
S247 N249 1.610 . S
N248 S247 1.613 . S
N248 C251 1.350 . S
N249 S247 1.610 . S
N249 C250 1.351 . S
C250 C244 1.428 1_455 S
C250 N249 1.351 . S
C250 C251 1.434 . S
C251 C242 1.429 1_455 S
C251 N248 1.350 . S
C251 C250 1.434 . S
C252 C253 1.369 . S
C252 C254 1.419 . S
C252 H256 0.930 . S
C253 C252 1.369 . S
C253 C262 1.429 . S
C254 C252 1.419 . S
C254 C255 1.363 . S
C254 H257 0.929 . S
C255 C254 1.363 . S
C255 C261 1.428 . S
H256 C252 0.930 . S
H257 C254 0.929 . S
S258 N259 1.613 . S
S258 N260 1.610 . S
N259 S258 1.613 . S
N259 C262 1.350 . S
N260 S258 1.610 . S
N260 C261 1.351 . S
C261 C255 1.428 . S
C261 N260 1.351 . S
C261 C262 1.434 . S
C262 C253 1.429 . S
C262 N259 1.350 . S
C262 C261 1.434 . S
C263 C264 1.369 . S
C263 C265 1.419 . S
C263 H267 0.930 1_565 S
C264 C263 1.369 . S
C264 C273 1.429 . S
C265 C263 1.419 . S
C265 C266 1.363 . S
C265 H268 0.929 1_565 S
C266 C265 1.363 . S
C266 C272 1.428 . S
H267 C263 0.930 1_545 S
H268 C265 0.929 1_545 S
S269 N270 1.613 . S
S269 N271 1.610 . S
N270 S269 1.613 . S
N270 C273 1.350 . S
N271 S269 1.610 . S
N271 C272 1.351 . S
C272 C266 1.428 . S
C272 N271 1.351 . S
C272 C273 1.434 . S
C273 C264 1.429 . S
C273 N270 1.350 . S
C273 C272 1.434 . S
C274 C275 1.369 . S
C274 C276 1.419 . S
C274 H278 0.930 . S
C275 C274 1.369 . S
C275 C284 1.429 . S
C276 C274 1.419 . S
C276 C277 1.363 . S
C276 H279 0.929 . S
C277 C276 1.363 . S
C277 C283 1.428 . S
H278 C274 0.930 . S
H279 C276 0.929 . S
S280 N281 1.618 . S
S280 N282 1.610 1_556 S
N281 S280 1.618 . S
N281 C284 1.350 . S
N282 S280 1.610 1_554 S
N282 C283 1.351 1_554 S
C283 C277 1.428 . S
C283 N282 1.351 1_556 S
C283 C284 1.434 . S
C284 C275 1.429 . S
C284 N281 1.350 . S
C284 C283 1.434 . S
C285 C286 1.369 . S
C285 C287 1.419 . S
C285 H289 0.930 . S
C286 C285 1.369 . S
C286 C295 1.429 . S
C287 C285 1.419 . S
C287 C288 1.363 . S
C287 H290 0.929 . S
C288 C287 1.363 . S
C288 C294 1.428 . S
H289 C285 0.930 . S
H290 C287 0.929 . S
S291 N292 1.613 . S
S291 N293 1.610 . S
N292 S291 1.613 . S
N292 C295 1.350 . S
N293 S291 1.610 . S
N293 C294 1.351 . S
C294 C288 1.428 . S
C294 N293 1.351 . S
C294 C295 1.434 . S
C295 C286 1.429 . S
C295 N292 1.350 . S
C295 C294 1.434 . S
C296 C297 1.369 . S
C296 C298 1.419 . S
C296 H300 0.930 . S
C297 C296 1.369 . S
C297 C306 1.429 . S
C298 C296 1.419 . S
C298 C299 1.363 . S
C298 H301 0.929 . S
C299 C298 1.363 . S
C299 C305 1.428 . S
H300 C296 0.930 . S
H301 C298 0.929 . S
S302 N303 1.613 . S
S302 N304 1.610 . S
N303 S302 1.613 . S
N303 C306 1.350 . S
N304 S302 1.610 . S
N304 C305 1.351 . S
C305 C299 1.428 . S
C305 N304 1.351 . S
C305 C306 1.434 . S
C306 C297 1.429 . S
C306 N303 1.350 . S
C306 C305 1.434 . S
C307 C308 1.369 . S
C307 C309 1.419 . S
C307 H311 0.930 . S
C308 C307 1.369 . S
C308 C317 1.429 1_556 S
C309 C307 1.419 . S
C309 C310 1.375 . S
C309 H312 0.929 . S
C310 C309 1.375 . S
C310 C316 1.418 1_556 S
H311 C307 0.930 . S
H312 C309 0.929 . S
S313 N314 1.613 . S
S313 N315 1.610 . S
N314 S313 1.613 . S
N314 C317 1.350 . S
N315 S313 1.610 . S
N315 C316 1.351 . S
C316 C310 1.418 1_554 S
C316 N315 1.351 . S
C316 C317 1.434 . S
C317 C308 1.429 1_554 S
C317 N314 1.350 . S
C317 C316 1.434 . S
C318 C319 1.369 . S
C318 C320 1.419 . S
C318 H322 0.930 . S
C319 C318 1.369 . S
C319 C328 1.429 1_655 S
C320 C318 1.419 . S
C320 C321 1.363 . S
C320 H323 0.929 . S
C321 C320 1.363 . S
C321 C327 1.428 1_655 S
H322 C318 0.930 . S
H323 C320 0.929 . S
S324 N325 1.613 . S
S324 N326 1.610 . S
N325 S324 1.613 . S
N325 C328 1.350 . S
N326 S324 1.610 . S
N326 C327 1.351 . S
C327 C321 1.428 1_455 S
C327 N326 1.351 . S
C327 C328 1.434 . S
C328 C319 1.429 1_455 S
C328 N325 1.350 . S
C328 C327 1.434 . S
C329 C330 1.369 . S
C329 C331 1.419 . S
C329 H333 0.930 . S
C330 C329 1.369 . S
C330 C339 1.429 . S
C331 C329 1.419 . S
C331 C332 1.363 . S
C331 H334 0.929 . S
C332 C331 1.363 . S
C332 C338 1.428 . S
H333 C329 0.930 . S
H334 C331 0.929 . S
S335 N336 1.613 . S
S335 N337 1.610 . S
N336 S335 1.613 . S
N336 C339 1.350 . S
N337 S335 1.610 . S
N337 C338 1.351 . S
C338 C332 1.428 . S
C338 N337 1.351 . S
C338 C339 1.434 . S
C339 C330 1.429 . S
C339 N336 1.350 . S
C339 C338 1.434 . S
C340 C341 1.369 1_545 S
C340 C342 1.419 . S
C340 H344 0.930 . S
C341 C340 1.369 1_565 S
C341 C350 1.429 . S
C342 C340 1.419 . S
C342 C343 1.363 1_545 S
C342 H345 0.929 . S
C343 C342 1.363 1_565 S
C343 C349 1.428 . S
H344 C340 0.930 . S
H345 C342 0.929 . S
S346 N347 1.613 . S
S346 N348 1.610 . S
N347 S346 1.613 . S
N347 C350 1.350 . S
N348 S346 1.610 . S
N348 C349 1.351 . S
C349 C343 1.428 . S
C349 N348 1.351 . S
C349 C350 1.434 . S
C350 C341 1.429 . S
C350 N347 1.350 . S
C350 C349 1.434 . S
C351 C352 1.369 . S
C351 C353 1.419 . S
C351 H355 0.930 . S
C352 C351 1.369 . S
C352 C361 1.429 . S
C353 C351 1.419 . S
C353 C354 1.363 . S
C353 H356 0.929 . S
C354 C353 1.363 . S
C354 C360 1.428 . S
H355 C351 0.930 . S
H356 C353 0.929 . S
S357 N358 1.613 . S
S357 N359 1.610 . S
N358 S357 1.613 . S
N358 C361 1.350 . S
N359 S357 1.610 . S
N359 C360 1.351 . S
C360 C354 1.428 . S
C360 N359 1.351 . S
C360 C361 1.434 . S
C361 C352 1.429 . S
C361 N358 1.350 . S
C361 C360 1.434 . S
C362 C363 1.369 . S
C362 C364 1.419 . S
C362 H366 0.930 . S
C363 C362 1.369 . S
C363 C372 1.429 . S
C364 C362 1.419 . S
C364 C365 1.363 . S
C364 H367 0.929 . S
C365 C364 1.363 . S
C365 C371 1.428 . S
H366 C362 0.930 . S
H367 C364 0.929 . S
S368 N369 1.613 . S
S368 N370 1.610 . S
N369 S368 1.613 . S
N369 C372 1.350 . S
N370 S368 1.610 . S
N370 C371 1.351 . S
C371 C365 1.428 . S
C371 N370 1.351 . S
C371 C372 1.434 . S
C372 C363 1.429 . S
C372 N369 1.350 . S
C372 C371 1.434 . S
C373 C374 1.369 . S
C373 C375 1.419 . S
C373 H377 0.930 . S
C374 C373 1.369 . S
C374 C383 1.429 . S
C375 C373 1.419 . S
C375 C376 1.363 . S
C375 H378 0.929 . S
C376 C375 1.363 . S
C376 C382 1.428 . S
H377 C373 0.930 . S
H378 C375 0.929 . S
S379 N380 1.613 . S
S379 N381 1.610 1_655 S
N380 S379 1.613 . S
N380 C383 1.350 1_655 S
N381 S379 1.610 1_455 S
N381 C382 1.351 . S
C382 C376 1.428 . S
C382 N381 1.351 . S
C382 C383 1.434 . S
C383 C374 1.429 . S
C383 N380 1.350 1_455 S
C383 C382 1.434 . S
C384 C385 1.369 . S
C384 C386 1.419 . S
C384 H388 0.930 . S
C385 C384 1.369 . S
C385 C394 1.429 1_566 S
C386 C384 1.419 . S
C386 C387 1.370 1_556 S
C386 H389 0.929 . S
C387 C386 1.370 1_554 S
C387 C393 1.425 1_565 S
H388 C384 0.930 . S
H389 C386 0.929 . S
S390 N391 1.613 . S
S390 N392 1.610 . S
N391 S390 1.613 . S
N391 C394 1.350 . S
N392 S390 1.610 . S
N392 C393 1.351 . S
C393 C387 1.425 1_545 S
C393 N392 1.351 . S
C393 C394 1.434 . S
C394 C385 1.429 1_544 S
C394 N391 1.350 . S
C394 C393 1.434 . S
C395 C396 1.369 . S
C395 C397 1.419 . S
C395 H399 0.930 . S
C396 C395 1.369 . S
C396 C405 1.429 . S
C397 C395 1.419 . S
C397 C398 1.363 . S
C397 H400 0.929 . S
C398 C397 1.363 . S
C398 C404 1.428 . S
H399 C395 0.930 . S
H400 C397 0.929 . S
S401 N402 1.613 . S
S401 N403 1.610 . S
N402 S401 1.613 . S
N402 C405 1.350 . S
N403 S401 1.610 . S
N403 C404 1.351 . S
C404 C398 1.428 . S
C404 N403 1.351 . S
C404 C405 1.434 . S
C405 C396 1.429 . S
C405 N402 1.350 . S
C405 C404 1.434 . S
C406 C407 1.369 . S
C406 C408 1.419 . S
C406 H410 0.930 . S
C407 C406 1.369 . S
C407 C416 1.429 . S
C408 C406 1.419 . S
C408 C409 1.363 . S
C408 H411 0.929 . S
C409 C408 1.363 . S
C409 C415 1.428 . S
H410 C406 0.930 . S
H411 C408 0.929 . S
S412 N413 1.613 1_556 S
S412 N414 1.610 . S
N413 S412 1.613 1_554 S
N413 C416 1.350 . S
N414 S412 1.610 . S
N414 C415 1.352 1_556 S
C415 C409 1.428 . S
C415 N414 1.352 1_554 S
C415 C416 1.434 . S
C416 C407 1.429 . S
C416 N413 1.350 . S
C416 C415 1.434 . S
C417 C418 1.369 . S
C417 C419 1.419 . S
C417 H421 0.930 . S
C418 C417 1.369 . S
C418 C427 1.429 . S
C419 C417 1.419 . S
C419 C420 1.363 . S
C419 H422 0.929 . S
C420 C419 1.363 . S
C420 C426 1.428 . S
H421 C417 0.930 . S
H422 C419 0.929 . S
S423 N424 1.613 . S
S423 N425 1.610 . S
N424 S423 1.613 . S
N424 C427 1.350 . S
N425 S423 1.610 . S
N425 C426 1.351 . S
C426 C420 1.428 . S
C426 N425 1.351 . S
C426 C427 1.434 . S
C427 C418 1.429 . S
C427 N424 1.350 . S
C427 C426 1.434 . S
C428 C429 1.369 1_455 S
C428 C430 1.419 . S
C428 H432 0.930 . S
C429 C428 1.369 1_655 S
C429 C438 1.429 . S
C430 C428 1.419 . S
C430 C431 1.363 1_455 S
C430 H433 0.929 . S
C431 C430 1.363 1_655 S
C431 C437 1.428 . S
H432 C428 0.930 . S
H433 C430 0.929 . S
S434 N435 1.613 1_554 S
S434 N436 1.610 . S
N435 S434 1.613 1_556 S
N435 C438 1.350 . S
N436 S434 1.610 . S
N436 C437 1.351 1_554 S
C437 C431 1.428 . S
C437 N436 1.351 1_556 S
C437 C438 1.434 . S
C438 C429 1.429 . S
C438 N435 1.350 . S
C438 C437 1.434 . S
C439 C440 1.369 . S
C439 C441 1.419 . S
C439 H443 0.930 . S
C440 C439 1.369 . S
C440 C449 1.429 . S
C441 C439 1.419 . S
C441 C442 1.363 . S
C441 H444 0.929 . S
C442 C441 1.363 . S
C442 C448 1.428 . S
H443 C439 0.930 . S
H444 C441 0.929 . S
S445 N446 1.613 . S
S445 N447 1.610 . S
N446 S445 1.613 . S
N446 C449 1.350 . S
N447 S445 1.610 . S
N447 C448 1.351 . S
C448 C442 1.428 . S
C448 N447 1.351 . S
C448 C449 1.434 . S
C449 C440 1.429 . S
C449 N446 1.350 . S
C449 C448 1.434 . S
C450 C451 1.369 . S
C450 C452 1.419 . S
C450 H454 0.930 . S
C451 C450 1.369 . S
C451 C460 1.429 . S
C452 C450 1.419 . S
C452 C453 1.363 . S
C452 H455 0.929 1_455 S
C453 C452 1.363 . S
C453 C459 1.428 . S
H454 C450 0.930 . S
H455 C452 0.929 1_655 S
S456 N457 1.613 . S
S456 N458 1.610 . S
N457 S456 1.613 . S
N457 C460 1.350 . S
N458 S456 1.610 . S
N458 C459 1.351 . S
C459 C453 1.428 . S
C459 N458 1.351 . S
C459 C460 1.434 . S
C460 C451 1.429 . S
C460 N457 1.350 . S
C460 C459 1.434 . S
C461 C462 1.369 . S
C461 C463 1.419 . S
C461 H465 0.930 . S
C462 C461 1.369 . S
C462 C471 1.429 . S
C463 C461 1.419 . S
C463 C464 1.363 . S
C463 H466 0.929 . S
C464 C463 1.363 . S
C464 C470 1.428 . S
H465 C461 0.930 . S
H466 C463 0.929 . S
S467 N468 1.613 . S
S467 N469 1.610 . S
N468 S467 1.613 . S
N468 C471 1.350 . S
N469 S467 1.610 . S
N469 C470 1.351 . S
C470 C464 1.428 . S
C470 N469 1.351 . S
C470 C471 1.434 . S
C471 C462 1.429 . S
C471 N468 1.350 . S
C471 C470 1.434 . S
C209 C4 2.296 . S
C211 C104 2.307 . S
C220 C16 1.387 . S
C222 N124 1.386 . S
C233 C158 1.676 . S
C231 C32 1.667 . S
C242 C43 1.222 . S
C244 N192 1.149 . S
C255 C145 2.650 . S
C253 C5 2.636 . S
C266 N102 0.982 . S
C264 C21 0.989 . S
C277 C179 1.908 1_556 S
C275 C27 1.894 . S
C288 N154 1.002 . S
C286 C37 1.003 . S
C297 C10 1.796 . S
C299 C194 1.815 . S
C310 C128 1.783 1_556 S
C308 C26 1.756 . S
C319 C38 1.166 . S
C321 C89 1.181 . S
C330 C15 1.563 . S
C332 C175 1.579 . S
C343 C115 2.379 1_565 S
C341 C48 2.370 . S
C352 C59 1.199 . S
C354 N132 1.197 . S
C363 C76 1.911 . S
C365 C149 1.921 . S
C374 C87 1.140 . S
C376 N184 1.076 . S
C385 C54 2.095 . S
C387 C134 2.110 1_565 S
C398 N94 1.432 . S
C396 C60 1.427 . S
C409 C188 1.948 . S
C407 C71 1.918 . S
C420 N162 1.079 . S
C418 C82 1.061 . S
C429 C49 2.012 . S
C431 C205 2.018 1_655 S
C442 C119 1.501 . S
C440 C70 1.481 . S
C453 C98 1.473 . S
C451 C81 1.460 . S
C462 C65 1.398 . S
C464 C164 1.415 . S
