# Generated by pormake.
# Topology rtl, (3,6)-cn, num edge types: 1
# Building blocks:
#     Node 0, Type 0, BuildingBlock: KAKCAD_clean_linker_0, # of connection points: 3
#     Node 1, Type 0, BuildingBlock: KAKCAD_clean_linker_0, # of connection points: 3
#     Node 2, Type 0, BuildingBlock: KAKCAD_clean_linker_0, # of connection points: 3
#     Node 3, Type 0, BuildingBlock: KAKCAD_clean_linker_0, # of connection points: 3
#     Node 4, Type 1, BuildingBlock: VOLQOD_clean_sbu_1, # of connection points: 6
#     Node 5, Type 1, BuildingBlock: VOLQOD_clean_sbu_1, # of connection points: 6
#     Edge 6, Type (0, 1), BuildingBlock: AJUNOK_clean_linker_0, # of connection points: 2
#     Edge 7, Type (0, 1), BuildingBlock: AJUNOK_clean_linker_0, # of connection points: 2
#     Edge 8, Type (0, 1), BuildingBlock: AJUNOK_clean_linker_0, # of connection points: 2
#     Edge 9, Type (0, 1), BuildingBlock: AJUNOK_clean_linker_0, # of connection points: 2
#     Edge 10, Type (0, 1), BuildingBlock: AJUNOK_clean_linker_0, # of connection points: 2
#     Edge 11, Type (0, 1), BuildingBlock: AJUNOK_clean_linker_0, # of connection points: 2
#     Edge 12, Type (0, 1), BuildingBlock: AJUNOK_clean_linker_0, # of connection points: 2
#     Edge 13, Type (0, 1), BuildingBlock: AJUNOK_clean_linker_0, # of connection points: 2
#     Edge 14, Type (0, 1), BuildingBlock: AJUNOK_clean_linker_0, # of connection points: 2
#     Edge 15, Type (0, 1), BuildingBlock: AJUNOK_clean_linker_0, # of connection points: 2
#     Edge 16, Type (0, 1), BuildingBlock: AJUNOK_clean_linker_0, # of connection points: 2
#     Edge 17, Type (0, 1), BuildingBlock: AJUNOK_clean_linker_0, # of connection points: 2
# Relax obj value: 0.078
# Max RMSD: 0.156
# Mean RMSD: 0.088
data_MOF--net-rtl--node1-VOLQOD_clean_sbu_1--node2-KAKCAD_clean_linker_0--edge1-AJUNOK_clean_linker_0
_symmetry_space_group_name_H-M    P1
_symmetry_Int_Tables_number       1
_symmetry_cell_setting            triclinic
loop_
_symmetry_equiv_pos_as_xyz
'x, y, z'
_cell_length_a     35.81763
_cell_length_b     30.702167
_cell_length_c     23.366428
_cell_angle_alpha  89.895261
_cell_angle_beta   90.139421
_cell_angle_gamma 89.789971
loop_
_atom_site_label
_atom_site_type_symbol
_atom_site_fract_x
_atom_site_fract_y
_atom_site_fract_z
_atom_type_partial_charge
C0 C 0.07637 0.76565 0.81696 0.0
C1 C 0.07038 0.81091 0.81917 0.0
C2 C 0.08537 0.74246 0.86689 0.0
C3 C 0.08826 0.76426 0.91958 0.0
C4 C 0.08224 0.80951 0.92126 0.0
C5 C 0.07325 0.83245 0.87181 0.0
C6 C 0.09919 0.74124 0.97293 0.0
C7 C 0.12994 0.71281 0.97389 0.0
C8 C 0.14524 0.69856 0.02628 0.0
C9 C 0.12928 0.71321 0.07789 0.0
C10 C 0.09871 0.74192 0.07726 0.0
C11 C 0.08265 0.75357 0.02471 0.0
C12 C 0.08763 0.76599 0.12959 0.0
C13 C 0.08429 0.74523 0.18303 0.0
C14 C 0.0822 0.81131 0.12621 0.0
C15 C 0.0738 0.83538 0.17481 0.0
C16 C 0.07108 0.81495 0.22828 0.0
C17 C 0.18065 0.67321 0.02679 0.0
C18 C 0.1869 0.63968 0.98694 0.0
C19 C 0.20941 0.68423 0.06514 0.0
C20 C 0.24361 0.66244 0.06353 0.0
C21 C 0.2499 0.62918 0.02354 0.0
C22 C 0.22129 0.61797 0.9852 0.0
C23 C 0.07578 0.76957 0.23207 0.0
H24 H 0.07471 0.74843 0.77664 0.0
H25 H 0.09006 0.70765 0.86435 0.0
H26 H 0.08519 0.82758 0.96079 0.0
H27 H 0.06862 0.86727 0.87475 0.0
H28 H 0.14375 0.70458 0.93411 0.0
H29 H 0.05866 0.77522 0.02409 0.0
H30 H 0.14195 0.70431 0.11842 0.0
H31 H 0.0883 0.71036 0.18685 0.0
H32 H 0.08533 0.82857 0.08604 0.0
H33 H 0.06967 0.87023 0.17061 0.0
H34 H 0.16526 0.63035 0.95697 0.0
H35 H 0.206 0.71067 0.0953 0.0
H36 H 0.07362 0.75317 0.27301 0.0
H37 H 0.22553 0.59239 0.95399 0.0
H38 H 0.26555 0.6724 0.09267 0.0
C39 C 0.58207 0.74287 0.71019 0.0
C40 C 0.57467 0.69803 0.70775 0.0
C41 C 0.59532 0.76481 0.6617 0.0
C42 C 0.60158 0.74203 0.6104 0.0
C43 C 0.59559 0.69678 0.60924 0.0
C44 C 0.58211 0.67512 0.65724 0.0
C45 C 0.61365 0.7648 0.5575 0.0
C46 C 0.64213 0.79618 0.55865 0.0
C47 C 0.65611 0.81388 0.50732 0.0
C48 C 0.64044 0.80076 0.45483 0.0
C49 C 0.61248 0.76911 0.45337 0.0
C50 C 0.59867 0.7521 0.50459 0.0
C51 C 0.60143 0.74884 0.39882 0.0
C52 C 0.585 0.77329 0.35457 0.0
C53 C 0.60729 0.70399 0.39143 0.0
C54 C 0.5965 0.68365 0.34091 0.0
C55 C 0.57917 0.70767 0.29719 0.0
C56 C 0.69007 0.84148 0.50795 0.0
C57 C 0.69522 0.87386 0.54973 0.0
C58 C 0.71877 0.83359 0.46831 0.0
C59 C 0.75205 0.85682 0.47099 0.0
C60 C 0.75755 0.88843 0.51341 0.0
C61 C 0.7287 0.89719 0.5524 0.0
C62 C 0.57352 0.75266 0.30412 0.0
H63 H 0.57672 0.76102 0.74905 0.0
H64 H 0.59976 0.79964 0.66391 0.0
H65 H 0.60127 0.67796 0.57106 0.0
H66 H 0.57745 0.64031 0.65492 0.0
H67 H 0.65509 0.80455 0.59909 0.0
H68 H 0.57689 0.7277 0.50288 0.0
H69 H 0.65137 0.8133 0.41486 0.0
H70 H 0.58037 0.80796 0.35958 0.0
H71 H 0.62025 0.68466 0.42493 0.0
H72 H 0.60091 0.64889 0.33643 0.0
H73 H 0.67357 0.88074 0.58074 0.0
H74 H 0.71612 0.80833 0.43627 0.0
H75 H 0.56021 0.77166 0.27065 0.0
H76 H 0.73246 0.92106 0.58598 0.0
H77 H 0.77386 0.8495 0.44037 0.0
C78 C 0.88977 0.21193 0.22098 0.0
C79 C 0.92818 0.20678 0.23141 0.0
C80 C 0.87722 0.23401 0.17231 0.0
C81 C 0.90278 0.25104 0.13269 0.0
C82 C 0.94121 0.24672 0.14368 0.0
C83 C 0.95378 0.22485 0.19263 0.0
C84 C 0.88917 0.26992 0.078 0.0
C85 C 0.85798 0.29772 0.07711 0.0
C86 C 0.84183 0.311 0.02503 0.0
C87 C 0.85775 0.29676 0.97338 0.0
C88 C 0.88914 0.26922 0.97357 0.0
C89 C 0.90495 0.25643 0.02603 0.0
C90 C 0.90305 0.24964 0.91972 0.0
C91 C 0.87795 0.23039 0.88111 0.0
C92 C 0.94155 0.24672 0.90896 0.0
C93 C 0.95473 0.2236 0.86163 0.0
C94 C 0.92968 0.20244 0.82466 0.0
C95 C 0.80643 0.33629 0.02463 0.0
C96 C 0.77749 0.32512 0.06239 0.0
C97 C 0.80054 0.37025 0.98509 0.0
C98 C 0.76612 0.39189 0.9826 0.0
C99 C 0.73695 0.37966 0.01924 0.0
C100 C 0.74319 0.34665 0.05981 0.0
C101 C 0.89114 0.20697 0.83409 0.0
H102 H 0.86936 0.19738 0.24921 0.0
H103 H 0.84744 0.23603 0.16442 0.0
H104 H 0.96152 0.25971 0.11398 0.0
H105 H 0.98355 0.22147 0.19975 0.0
H106 H 0.84584 0.30837 0.11719 0.0
H107 H 0.92803 0.23347 0.02641 0.0
H108 H 0.84487 0.3057 0.93299 0.0
H109 H 0.84814 0.23168 0.88869 0.0
H110 H 0.96146 0.2617 0.93774 0.0
H111 H 0.98456 0.22166 0.85451 0.0
H112 H 0.78093 0.29882 0.09293 0.0
H113 H 0.82244 0.37985 0.95584 0.0
H114 H 0.87119 0.1909 0.80642 0.0
H115 H 0.7213 0.33711 0.08914 0.0
H116 H 0.76195 0.41738 0.95108 0.0
C117 C 0.38689 0.31409 0.32243 0.0
C118 C 0.42462 0.3241 0.31347 0.0
C119 C 0.37622 0.28912 0.36953 0.0
C120 C 0.40312 0.27366 0.40855 0.0
C121 C 0.44105 0.28217 0.39816 0.0
C122 C 0.45172 0.30704 0.35085 0.0
C123 C 0.39125 0.25188 0.46215 0.0
C124 C 0.36221 0.22139 0.46165 0.0
C125 C 0.34774 0.20481 0.51303 0.0
C126 C 0.36364 0.21783 0.56528 0.0
C127 C 0.39265 0.24856 0.56667 0.0
C128 C 0.40637 0.26512 0.51471 0.0
C129 C 0.40591 0.26719 0.62183 0.0
C130 C 0.38051 0.27603 0.66629 0.0
C131 C 0.44338 0.27998 0.62856 0.0
C132 C 0.45459 0.30331 0.67683 0.0
C133 C 0.4288 0.31335 0.71985 0.0
C134 C 0.31352 0.17774 0.51242 0.0
C135 C 0.28343 0.18939 0.47672 0.0
C136 C 0.30965 0.14197 0.54955 0.0
C137 C 0.27608 0.11892 0.55173 0.0
C138 C 0.24577 0.1314 0.51703 0.0
C139 C 0.24997 0.16641 0.47894 0.0
C140 C 0.39195 0.29866 0.71502 0.0
H141 H 0.36556 0.32638 0.29361 0.0
H142 H 0.34676 0.28346 0.37663 0.0
H143 H 0.46238 0.27032 0.42728 0.0
H144 H 0.48102 0.31427 0.3446 0.0
H145 H 0.35026 0.21128 0.42116 0.0
H146 H 0.42722 0.2906 0.51514 0.0
H147 H 0.35226 0.20549 0.60501 0.0
H148 H 0.35132 0.26747 0.66237 0.0
H149 H 0.46386 0.27303 0.59577 0.0
H150 H 0.48322 0.31434 0.68007 0.0
H151 H 0.28524 0.21726 0.44839 0.0
H152 H 0.3325 0.13198 0.5771 0.0
H153 H 0.37159 0.30656 0.74767 0.0
H154 H 0.22694 0.1769 0.45205 0.0
H155 H 0.27374 0.09149 0.5807 0.0
O156 O 0.91006 0.00776 0.52654 0.0
Zn157 Zn 0.9564 0.04525 0.52733 0.0
O158 O 0.00176 0.0094 0.52549 0.0
Zn159 Zn 0.0318 0.02081 0.59349 0.0
Zn160 Zn 0.98836 0.94767 0.52339 0.0
Zn161 Zn 0.03092 0.02366 0.45773 0.0
O162 O 0.0822 0.04481 0.57335 0.0
O163 O 0.0813 0.0474 0.47865 0.0
O164 O 0.95477 0.08249 0.59827 0.0
O165 O 0.00649 0.06413 0.64497 0.0
O166 O 0.04031 0.96599 0.63841 0.0
O167 O 0.00847 0.91538 0.59173 0.0
O168 O 0.00926 0.91759 0.45393 0.0
O169 O 0.95396 0.08518 0.45889 0.0
O170 O 0.04008 0.9705 0.41012 0.0
O171 O 0.00469 0.06847 0.40906 0.0
C172 C 0.90519 0.96671 0.52457 0.0
C173 C 0.09799 0.05366 0.52605 0.0
C174 C 0.0292 0.92685 0.63327 0.0
C175 C 0.97638 0.08614 0.64135 0.0
C176 C 0.03001 0.93087 0.41343 0.0
C177 C 0.97481 0.09054 0.41538 0.0
O178 O 0.93285 0.94058 0.52288 0.0
O179 O 0.58819 0.50349 0.00652 0.0
Zn180 Zn 0.5441 0.54492 0.0067 0.0
O181 O 0.49665 0.51339 0.01038 0.0
Zn182 Zn 0.46626 0.52674 0.94296 0.0
Zn183 Zn 0.50619 0.4508 0.0142 0.0
Zn184 Zn 0.46954 0.53099 0.0785 0.0
O185 O 0.41473 0.54861 0.96449 0.0
O186 O 0.41833 0.55204 0.05903 0.0
O187 O 0.54635 0.58221 0.93572 0.0
O188 O 0.49129 0.57199 0.8943 0.0
O189 O 0.45981 0.4733 0.89423 0.0
O190 O 0.48398 0.41974 0.94672 0.0
O191 O 0.48561 0.42393 0.08605 0.0
O192 O 0.54973 0.58542 0.07389 0.0
O193 O 0.46248 0.48085 0.13234 0.0
O194 O 0.49606 0.57869 0.12036 0.0
C195 C 0.59039 0.4621 0.00941 0.0
C196 C 0.39995 0.55684 0.01285 0.0
C197 C 0.4673 0.43312 0.90185 0.0
C198 C 0.52309 0.59035 0.89573 0.0
C199 C 0.4693 0.44023 0.12937 0.0
C200 C 0.52786 0.59641 0.1143 0.0
O201 O 0.56116 0.43884 0.01298 0.0
C202 C 0.19089 0.09555 0.47111 0.0
C203 C 0.20928 0.10907 0.52116 0.0
C204 C 0.15521 0.07721 0.47332 0.0
C205 C 0.13639 0.07176 0.52572 0.0
H206 H 0.20413 0.09942 0.42977 0.0
H207 H 0.14226 0.06757 0.4334 0.0
S208 S 0.17265 0.10253 0.66922 0.0
N209 N 0.20628 0.11623 0.62456 0.0
N210 N 0.13931 0.08139 0.62919 0.0
C211 C 0.1548 0.08467 0.57631 0.0
C212 C 0.19121 0.10336 0.57392 0.0
C213 C 0.30647 0.60574 0.96882 0.0
C214 C 0.28686 0.60751 0.02082 0.0
C215 C 0.34279 0.58862 0.96634 0.0
C216 C 0.36079 0.57266 0.01581 0.0
H217 H 0.29407 0.61885 0.93009 0.0
H218 H 0.35711 0.58887 0.92557 0.0
S219 S 0.31929 0.56544 0.16124 0.0
N220 N 0.28654 0.58874 0.12177 0.0
N221 N 0.35468 0.55661 0.11762 0.0
C222 C 0.34077 0.57284 0.06772 0.0
C223 C 0.30386 0.59026 0.07009 0.0
C224 C 0.82685 0.88401 0.51938 0.0
C225 C 0.7944 0.90982 0.51856 0.0
C226 C 0.86227 0.90281 0.52196 0.0
C227 C 0.86685 0.94835 0.52366 0.0
H228 H 0.82485 0.84881 0.51804 0.0
H229 H 0.88624 0.8812 0.52223 0.0
S230 S 0.79027 0.03042 0.52259 0.0
N231 N 0.76862 0.98307 0.51981 0.0
N232 N 0.83532 0.01888 0.52492 0.0
C233 C 0.83445 0.97464 0.52355 0.0
C234 C 0.79824 0.95529 0.52105 0.0
C235 C 0.69577 0.44578 0.01629 0.0
C236 C 0.69963 0.40026 0.0143 0.0
C237 C 0.66041 0.46556 0.0141 0.0
C238 C 0.62762 0.4405 0.00956 0.0
H239 H 0.7202 0.46621 0.02077 0.0
H240 H 0.65883 0.50072 0.01678 0.0
S241 S 0.62347 0.31983 -0.00277 0.0
N242 N 0.66836 0.33072 0.00364 0.0
N243 N 0.60195 0.36741 -0.00041 0.0
C244 C 0.63139 0.39484 0.00591 0.0
C245 C 0.66736 0.37485 0.00827 0.0
C246 C 0.03277 0.83269 0.31468 0.0
C247 C 0.0635 0.84181 0.27945 0.0
C248 C 0.02254 0.86117 0.35889 0.0
C249 C 0.04265 0.89976 0.36911 0.0
H250 H 0.01572 0.80426 0.30664 0.0
H251 H -0.00197 0.85356 0.38401 0.0
S252 S 0.1286 0.93482 0.29358 0.0
N253 N 0.11624 0.88933 0.26125 0.0
N254 N 0.09702 0.94307 0.34376 0.0
C255 C 0.07452 0.90802 0.33575 0.0
C256 C 0.08496 0.87896 0.2911 0.0
C257 C 0.57877 0.67256 0.8092 0.0
C258 C 0.55903 0.67447 0.75731 0.0
C259 C 0.56652 0.64594 0.85419 0.0
C260 C 0.53389 0.62063 0.84901 0.0
H261 H 0.60456 0.6905 0.81426 0.0
H262 H 0.58316 0.6447 0.89292 0.0
S263 S 0.47069 0.61781 0.7226 0.0
N264 N 0.50437 0.65149 0.70397 0.0
N265 N 0.48096 0.60164 0.78821 0.0
C266 C 0.51311 0.62389 0.79784 0.0
C267 C 0.5258 0.65073 0.75207 0.0
C268 C 0.96826 0.14705 0.27106 0.0
C269 C 0.94138 0.17979 0.28025 0.0
C270 C 0.97929 0.11891 0.31524 0.0
C271 C 0.96373 0.1222 0.37035 0.0
H272 H 0.98014 0.1423 0.22893 0.0
H273 H -0.00045 0.0937 0.3056 0.0
S274 S 0.895 0.20537 0.41799 0.0
N275 N 0.90157 0.21617 0.34951 0.0
N276 N 0.92178 0.16287 0.43253 0.0
C277 C 0.93754 0.15561 0.38053 0.0
C278 C 0.92649 0.18446 0.33553 0.0
C279 C 0.44853 0.38602 0.75498 0.0
C280 C 0.4394 0.34255 0.76708 0.0
C281 C 0.45708 0.4152 0.79902 0.0
C282 C 0.4575 0.40163 0.85656 0.0
H283 H 0.44849 0.39769 0.71118 0.0
H284 H 0.46386 0.4485 0.78779 0.0
S285 S 0.43567 0.29074 0.91011 0.0
N286 N 0.43089 0.2871 0.83994 0.0
N287 N 0.44796 0.3416 0.92311 0.0
C288 C 0.44876 0.35798 0.86907 0.0
C289 C 0.43938 0.32851 0.82419 0.0
C290 C 0.59125 0.66077 0.21238 0.0
C291 C 0.56587 0.68464 0.24578 0.0
C292 C 0.57877 0.63369 0.1682 0.0
C293 C 0.54041 0.62885 0.15681 0.0
H294 H 0.6209 0.66224 0.22149 0.0
H295 H 0.59926 0.61504 0.14448 0.0
S296 S 0.46295 0.68649 0.23045 0.0
N297 N 0.50108 0.70371 0.2631 0.0
N298 N 0.4773 0.65233 0.18052 0.0
C299 C 0.51484 0.65375 0.18884 0.0
C300 C 0.52767 0.68181 0.23322 0.0
C301 C 0.92764 0.17693 0.72288 0.0
C302 C 0.94345 0.17395 0.7779 0.0
C303 C 0.93867 0.14868 0.67897 0.0
C304 C 0.96605 0.11637 0.68829 0.0
H305 H 0.90647 0.20127 0.7137 0.0
H306 H 0.92558 0.15227 0.63738 0.0
S307 S 0.01496 0.09391 0.82567 0.0
N308 N 0.98696 0.13526 0.83996 0.0
N309 N 0.00826 0.08268 0.75738 0.0
C310 C 0.98227 0.11324 0.74313 0.0
C311 C 0.97086 0.14189 0.7879 0.0
C312 C 0.46296 0.3415 0.22712 0.0
C313 C 0.43554 0.35399 0.26677 0.0
C314 C 0.4736 0.36951 0.18266 0.0
C315 C 0.45758 0.41128 0.17682 0.0
H316 H 0.47599 0.30968 0.23017 0.0
H317 H 0.49475 0.35842 0.15296 0.0
S318 S 0.38505 0.45959 0.27108 0.0
N319 N 0.39303 0.41082 0.29842 0.0
N320 N 0.41284 0.46359 0.21508 0.0
C321 C 0.43028 0.42419 0.2167 0.0
C322 C 0.41928 0.39551 0.26157 0.0
C323 C 0.08166 0.87531 0.75687 0.0
C324 C 0.06174 0.83675 0.76727 0.0
C325 C 0.07133 0.90362 0.71271 0.0
C326 C 0.04075 0.89443 0.67689 0.0
H327 H 0.10502 0.88415 0.78396 0.0
H328 H 0.08725 0.93326 0.70718 0.0
S329 S 0.98021 0.79664 0.68514 0.0
N330 N 0.01068 0.79003 0.73763 0.0
N331 N 0.99137 0.84298 0.65361 0.0
C332 C 0.02139 0.85506 0.68543 0.0
C333 C 0.0319 0.82626 0.73081 0.0
loop_
_geom_bond_atom_site_label_1
_geom_bond_atom_site_label_2
_geom_bond_distance
_geom_bond_site_symmetry_2
_ccdc_geom_bond_type
C0 C1 1.386 . S
C0 C2 1.397 . S
C0 H24 0.931 . S
C1 C0 1.386 . S
C1 C5 1.397 . S
C2 C0 1.397 . S
C2 C3 1.384 . S
C2 H25 0.930 . S
C3 C2 1.384 . S
C3 C4 1.377 . S
C3 C6 1.481 . S
C4 C3 1.377 . S
C4 C5 1.389 . S
C4 H26 0.929 . S
C5 C1 1.397 . S
C5 C4 1.389 . S
C5 H27 0.931 . S
C6 C3 1.481 . S
C6 C7 1.387 . S
C6 C11 1.390 1_556 S
C7 C6 1.387 . S
C7 C8 1.401 1_556 S
C7 H28 0.930 . S
C8 C7 1.401 1_554 S
C8 C9 1.376 . S
C8 C17 1.511 . S
C9 C8 1.376 . S
C9 C10 1.392 . S
C9 H30 0.931 . S
C10 C9 1.392 . S
C10 C11 1.361 . S
C10 C12 1.500 . S
C11 C6 1.390 1_554 S
C11 C10 1.361 . S
C11 H29 0.931 . S
C12 C10 1.500 . S
C12 C13 1.371 . S
C12 C14 1.365 . S
C13 C12 1.371 . S
C13 C23 1.386 . S
C13 H31 0.931 . S
C14 C12 1.365 . S
C14 C15 1.409 . S
C14 H32 0.929 . S
C15 C14 1.409 . S
C15 C16 1.380 . S
C15 H33 0.930 . S
C16 C15 1.380 . S
C16 C23 1.357 . S
C17 C8 1.511 . S
C17 C18 1.341 1_554 S
C17 C19 1.371 . S
C18 C17 1.341 1_556 S
C18 C22 1.394 . S
C18 H34 0.930 . S
C19 C17 1.371 . S
C19 C20 1.392 . S
C19 H35 0.931 . S
C20 C19 1.392 . S
C20 C21 1.331 . S
C20 H38 0.932 . S
C21 C20 1.331 . S
C21 C22 1.336 1_554 S
C22 C18 1.394 . S
C22 C21 1.336 1_556 S
C22 H37 0.929 . S
C23 C13 1.386 . S
C23 C16 1.357 . S
C23 H36 0.928 . S
H24 C0 0.931 . S
H25 C2 0.930 . S
H26 C4 0.929 . S
H27 C5 0.931 . S
H28 C7 0.930 . S
H29 C11 0.931 . S
H30 C9 0.931 . S
H31 C13 0.931 . S
H32 C14 0.929 . S
H33 C15 0.930 . S
H34 C18 0.930 . S
H35 C19 0.931 . S
H36 C23 0.928 . S
H37 C22 0.929 . S
H38 C20 0.932 . S
C39 C40 1.386 . S
C39 C41 1.397 . S
C39 H63 0.931 . S
C40 C39 1.386 . S
C40 C44 1.397 . S
C41 C39 1.397 . S
C41 C42 1.384 . S
C41 H64 0.930 . S
C42 C41 1.384 . S
C42 C43 1.377 . S
C42 C45 1.481 . S
C43 C42 1.377 . S
C43 C44 1.389 . S
C43 H65 0.929 . S
C44 C40 1.397 . S
C44 C43 1.389 . S
C44 H66 0.931 . S
C45 C42 1.481 . S
C45 C46 1.387 . S
C45 C50 1.390 . S
C46 C45 1.387 . S
C46 C47 1.401 . S
C46 H67 0.930 . S
C47 C46 1.401 . S
C47 C48 1.376 . S
C47 C56 1.511 . S
C48 C47 1.376 . S
C48 C49 1.392 . S
C48 H69 0.931 . S
C49 C48 1.392 . S
C49 C50 1.361 . S
C49 C51 1.500 . S
C50 C45 1.390 . S
C50 C49 1.361 . S
C50 H68 0.931 . S
C51 C49 1.500 . S
C51 C52 1.371 . S
C51 C53 1.365 . S
C52 C51 1.371 . S
C52 C62 1.386 . S
C52 H70 0.931 . S
C53 C51 1.365 . S
C53 C54 1.409 . S
C53 H71 0.929 . S
C54 C53 1.409 . S
C54 C55 1.380 . S
C54 H72 0.930 . S
C55 C54 1.380 . S
C55 C62 1.357 . S
C56 C47 1.511 . S
C56 C57 1.341 . S
C56 C58 1.371 . S
C57 C56 1.341 . S
C57 C61 1.394 . S
C57 H73 0.930 . S
C58 C56 1.371 . S
C58 C59 1.392 . S
C58 H74 0.931 . S
C59 C58 1.392 . S
C59 C60 1.331 . S
C59 H77 0.932 . S
C60 C59 1.331 . S
C60 C61 1.336 . S
C61 C57 1.394 . S
C61 C60 1.336 . S
C61 H76 0.929 . S
C62 C52 1.386 . S
C62 C55 1.357 . S
C62 H75 0.928 . S
H63 C39 0.931 . S
H64 C41 0.930 . S
H65 C43 0.929 . S
H66 C44 0.931 . S
H67 C46 0.930 . S
H68 C50 0.931 . S
H69 C48 0.931 . S
H70 C52 0.931 . S
H71 C53 0.929 . S
H72 C54 0.930 . S
H73 C57 0.930 . S
H74 C58 0.931 . S
H75 C62 0.928 . S
H76 C61 0.929 . S
H77 C59 0.932 . S
C78 C79 1.386 . S
C78 C80 1.397 . S
C78 H102 0.931 . S
C79 C78 1.386 . S
C79 C83 1.397 . S
C80 C78 1.397 . S
C80 C81 1.384 . S
C80 H103 0.930 . S
C81 C80 1.384 . S
C81 C82 1.377 . S
C81 C84 1.481 . S
C82 C81 1.377 . S
C82 C83 1.389 . S
C82 H104 0.929 . S
C83 C79 1.397 . S
C83 C82 1.389 . S
C83 H105 0.931 . S
C84 C81 1.481 . S
C84 C85 1.387 . S
C84 C89 1.390 . S
C85 C84 1.387 . S
C85 C86 1.401 . S
C85 H106 0.930 . S
C86 C85 1.401 . S
C86 C87 1.376 1_554 S
C86 C95 1.511 . S
C87 C86 1.376 1_556 S
C87 C88 1.392 . S
C87 H108 0.931 . S
C88 C87 1.392 . S
C88 C89 1.361 1_556 S
C88 C90 1.500 . S
C89 C84 1.390 . S
C89 C88 1.361 1_554 S
C89 H107 0.931 . S
C90 C88 1.500 . S
C90 C91 1.371 . S
C90 C92 1.365 . S
C91 C90 1.371 . S
C91 C101 1.386 . S
C91 H109 0.931 . S
C92 C90 1.365 . S
C92 C93 1.409 . S
C92 H110 0.929 . S
C93 C92 1.409 . S
C93 C94 1.380 . S
C93 H111 0.930 . S
C94 C93 1.380 . S
C94 C101 1.357 . S
C95 C86 1.511 . S
C95 C96 1.341 . S
C95 C97 1.371 1_554 S
C96 C95 1.341 . S
C96 C100 1.394 . S
C96 H112 0.930 . S
C97 C95 1.371 1_556 S
C97 C98 1.392 . S
C97 H113 0.931 . S
C98 C97 1.392 . S
C98 C99 1.331 1_556 S
C98 H116 0.932 . S
C99 C98 1.331 1_554 S
C99 C100 1.336 . S
C100 C96 1.394 . S
C100 C99 1.336 . S
C100 H115 0.929 . S
C101 C91 1.386 . S
C101 C94 1.357 . S
C101 H114 0.928 . S
H102 C78 0.931 . S
H103 C80 0.930 . S
H104 C82 0.929 . S
H105 C83 0.931 . S
H106 C85 0.930 . S
H107 C89 0.931 . S
H108 C87 0.931 . S
H109 C91 0.931 . S
H110 C92 0.929 . S
H111 C93 0.930 . S
H112 C96 0.930 . S
H113 C97 0.931 . S
H114 C101 0.928 . S
H115 C100 0.929 . S
H116 C98 0.932 . S
C117 C118 1.386 . S
C117 C119 1.397 . S
C117 H141 0.931 . S
C118 C117 1.386 . S
C118 C122 1.397 . S
C119 C117 1.397 . S
C119 C120 1.384 . S
C119 H142 0.930 . S
C120 C119 1.384 . S
C120 C121 1.377 . S
C120 C123 1.481 . S
C121 C120 1.377 . S
C121 C122 1.389 . S
C121 H143 0.929 . S
C122 C118 1.397 . S
C122 C121 1.389 . S
C122 H144 0.931 . S
C123 C120 1.481 . S
C123 C124 1.387 . S
C123 C128 1.390 . S
C124 C123 1.387 . S
C124 C125 1.401 . S
C124 H145 0.930 . S
C125 C124 1.401 . S
C125 C126 1.376 . S
C125 C134 1.511 . S
C126 C125 1.376 . S
C126 C127 1.392 . S
C126 H147 0.931 . S
C127 C126 1.392 . S
C127 C128 1.361 . S
C127 C129 1.500 . S
C128 C123 1.390 . S
C128 C127 1.361 . S
C128 H146 0.931 . S
C129 C127 1.500 . S
C129 C130 1.371 . S
C129 C131 1.365 . S
C130 C129 1.371 . S
C130 C140 1.386 . S
C130 H148 0.931 . S
C131 C129 1.365 . S
C131 C132 1.409 . S
C131 H149 0.929 . S
C132 C131 1.409 . S
C132 C133 1.380 . S
C132 H150 0.930 . S
C133 C132 1.380 . S
C133 C140 1.357 . S
C134 C125 1.511 . S
C134 C135 1.341 . S
C134 C136 1.371 . S
C135 C134 1.341 . S
C135 C139 1.394 . S
C135 H151 0.930 . S
C136 C134 1.371 . S
C136 C137 1.392 . S
C136 H152 0.931 . S
C137 C136 1.392 . S
C137 C138 1.331 . S
C137 H155 0.932 . S
C138 C137 1.331 . S
C138 C139 1.336 . S
C139 C135 1.394 . S
C139 C138 1.336 . S
C139 H154 0.929 . S
C140 C130 1.386 . S
C140 C133 1.357 . S
C140 H153 0.928 . S
H141 C117 0.931 . S
H142 C119 0.930 . S
H143 C121 0.929 . S
H144 C122 0.931 . S
H145 C124 0.930 . S
H146 C128 0.931 . S
H147 C126 0.931 . S
H148 C130 0.931 . S
H149 C131 0.929 . S
H150 C132 0.930 . S
H151 C135 0.930 . S
H152 C136 0.931 . S
H153 C140 0.928 . S
H154 C139 0.929 . S
H155 C137 0.932 . S
O156 Zn157 1.953 1_565 S
O156 C172 1.225 . S
Zn157 O156 1.953 1_545 S
Zn157 O158 1.949 1_655 S
Zn157 O164 1.919 . S
Zn157 O169 1.924 . S
O158 Zn157 1.949 1_455 S
O158 Zn159 1.923 . S
O158 Zn160 1.950 1_445 S
O158 Zn161 1.945 . S
Zn159 O158 1.923 . S
Zn159 O162 1.933 . S
Zn159 O165 1.941 . S
Zn159 O166 1.965 1_545 S
Zn160 O158 1.950 1_665 S
Zn160 O167 1.938 1_655 S
Zn160 O168 1.906 1_655 S
Zn160 O178 1.953 . S
Zn161 O158 1.945 . S
Zn161 O163 1.932 . S
Zn161 O170 1.977 1_545 S
Zn161 O171 1.910 1_455 S
O162 Zn159 1.933 . S
O162 C173 1.226 . S
O163 Zn161 1.932 . S
O163 C173 1.307 . S
O164 Zn157 1.919 . S
O164 C175 1.253 . S
O165 Zn159 1.941 . S
O165 C175 1.283 1_455 S
O166 Zn159 1.965 1_565 S
O166 C174 1.303 . S
O167 Zn160 1.938 1_455 S
O167 C174 1.247 . S
O168 Zn160 1.906 1_455 S
O168 C176 1.304 . S
O169 Zn157 1.924 . S
O169 C177 1.311 . S
O170 Zn161 1.977 1_565 S
O170 C176 1.272 . S
O171 Zn161 1.910 1_655 S
O171 C177 1.231 . S
C172 O156 1.225 . S
C172 O178 1.298 . S
C173 O162 1.226 . S
C173 O163 1.307 . S
C174 O166 1.303 . S
C174 O167 1.247 . S
C175 O164 1.253 . S
C175 O165 1.283 1_655 S
C176 O168 1.304 . S
C176 O170 1.272 . S
C177 O169 1.311 . S
C177 O171 1.231 . S
O178 Zn160 1.953 . S
O178 C172 1.298 . S
O179 Zn180 1.953 . S
O179 C195 1.225 . S
Zn180 O179 1.953 . S
Zn180 O181 1.949 . S
Zn180 O187 1.919 1_554 S
Zn180 O192 1.924 . S
O181 Zn180 1.949 . S
O181 Zn182 1.923 1_554 S
O181 Zn183 1.950 . S
O181 Zn184 1.945 . S
Zn182 O181 1.923 1_556 S
Zn182 O185 1.933 . S
Zn182 O188 1.941 . S
Zn182 O189 1.965 . S
Zn183 O181 1.950 . S
Zn183 O190 1.938 1_554 S
Zn183 O191 1.906 . S
Zn183 O201 1.953 . S
Zn184 O181 1.945 . S
Zn184 O186 1.932 . S
Zn184 O193 1.977 . S
Zn184 O194 1.910 . S
O185 Zn182 1.933 . S
O185 C196 1.226 1_556 S
O186 Zn184 1.932 . S
O186 C196 1.307 . S
O187 Zn180 1.919 1_556 S
O187 C198 1.253 . S
O188 Zn182 1.941 . S
O188 C198 1.283 . S
O189 Zn182 1.965 . S
O189 C197 1.303 . S
O190 Zn183 1.938 1_556 S
O190 C197 1.247 . S
O191 Zn183 1.906 . S
O191 C199 1.304 . S
O192 Zn180 1.924 . S
O192 C200 1.311 . S
O193 Zn184 1.977 . S
O193 C199 1.272 . S
O194 Zn184 1.910 . S
O194 C200 1.231 . S
C195 O179 1.225 . S
C195 O201 1.298 . S
C196 O185 1.226 1_554 S
C196 O186 1.307 . S
C197 O189 1.303 . S
C197 O190 1.247 . S
C198 O187 1.253 . S
C198 O188 1.283 . S
C199 O191 1.304 . S
C199 O193 1.272 . S
C200 O192 1.311 . S
C200 O194 1.231 . S
O201 Zn183 1.953 . S
O201 C195 1.298 . S
C202 C203 1.369 . S
C202 C204 1.419 . S
C202 H206 0.930 . S
C203 C202 1.369 . S
C203 C212 1.429 . S
C204 C202 1.419 . S
C204 C205 1.363 . S
C204 H207 0.929 . S
C205 C204 1.363 . S
C205 C211 1.428 . S
H206 C202 0.930 . S
H207 C204 0.929 . S
S208 N209 1.613 . S
S208 N210 1.610 . S
N209 S208 1.613 . S
N209 C212 1.350 . S
N210 S208 1.610 . S
N210 C211 1.351 . S
C211 C205 1.428 . S
C211 N210 1.351 . S
C211 C212 1.434 . S
C212 C203 1.429 . S
C212 N209 1.350 . S
C212 C211 1.434 . S
C213 C214 1.369 . S
C213 C215 1.419 . S
C213 H217 0.930 1_554 S
C214 C213 1.369 . S
C214 C223 1.429 . S
C215 C213 1.419 . S
C215 C216 1.363 . S
C215 H218 0.929 1_554 S
C216 C215 1.363 . S
C216 C222 1.428 . S
H217 C213 0.930 1_556 S
H218 C215 0.929 1_556 S
S219 N220 1.613 . S
S219 N221 1.610 . S
N220 S219 1.613 . S
N220 C223 1.350 . S
N221 S219 1.610 . S
N221 C222 1.351 . S
C222 C216 1.428 . S
C222 N221 1.351 . S
C222 C223 1.434 . S
C223 C214 1.429 . S
C223 N220 1.350 . S
C223 C222 1.434 . S
C224 C225 1.369 . S
C224 C226 1.419 . S
C224 H228 0.930 . S
C225 C224 1.369 . S
C225 C234 1.429 . S
C226 C224 1.419 . S
C226 C227 1.363 . S
C226 H229 0.929 . S
C227 C226 1.363 . S
C227 C233 1.428 . S
H228 C224 0.930 . S
H229 C226 0.929 . S
S230 N231 1.613 1_545 S
S230 N232 1.610 . S
N231 S230 1.613 1_565 S
N231 C234 1.350 . S
N232 S230 1.610 . S
N232 C233 1.351 1_545 S
C233 C227 1.428 . S
C233 N232 1.351 1_565 S
C233 C234 1.434 . S
C234 C225 1.429 . S
C234 N231 1.350 . S
C234 C233 1.434 . S
C235 C236 1.369 . S
C235 C237 1.419 . S
C235 H239 0.930 . S
C236 C235 1.369 . S
C236 C245 1.429 . S
C237 C235 1.419 . S
C237 C238 1.363 . S
C237 H240 0.929 . S
C238 C237 1.363 . S
C238 C244 1.428 . S
H239 C235 0.930 . S
H240 C237 0.929 . S
S241 N242 1.613 . S
S241 N243 1.610 . S
N242 S241 1.613 . S
N242 C245 1.350 1_556 S
N243 S241 1.610 . S
N243 C244 1.351 1_556 S
C244 C238 1.428 . S
C244 N243 1.351 1_554 S
C244 C245 1.434 . S
C245 C236 1.429 . S
C245 N242 1.350 1_554 S
C245 C244 1.434 . S
C246 C247 1.369 . S
C246 C248 1.419 . S
C246 H250 0.930 . S
C247 C246 1.369 . S
C247 C256 1.429 . S
C248 C246 1.419 . S
C248 C249 1.363 . S
C248 H251 0.929 . S
C249 C248 1.363 . S
C249 C255 1.428 . S
H250 C246 0.930 . S
H251 C248 0.929 . S
S252 N253 1.613 . S
S252 N254 1.610 . S
N253 S252 1.613 . S
N253 C256 1.350 . S
N254 S252 1.610 . S
N254 C255 1.351 . S
C255 C249 1.428 . S
C255 N254 1.351 . S
C255 C256 1.434 . S
C256 C247 1.429 . S
C256 N253 1.350 . S
C256 C255 1.434 . S
C257 C258 1.369 . S
C257 C259 1.419 . S
C257 H261 0.930 . S
C258 C257 1.369 . S
C258 C267 1.429 . S
C259 C257 1.419 . S
C259 C260 1.363 . S
C259 H262 0.929 . S
C260 C259 1.363 . S
C260 C266 1.428 . S
H261 C257 0.930 . S
H262 C259 0.929 . S
S263 N264 1.613 . S
S263 N265 1.610 . S
N264 S263 1.613 . S
N264 C267 1.350 . S
N265 S263 1.610 . S
N265 C266 1.351 . S
C266 C260 1.428 . S
C266 N265 1.351 . S
C266 C267 1.434 . S
C267 C258 1.429 . S
C267 N264 1.350 . S
C267 C266 1.434 . S
C268 C269 1.369 . S
C268 C270 1.419 . S
C268 H272 0.930 . S
C269 C268 1.369 . S
C269 C278 1.429 . S
C270 C268 1.419 . S
C270 C271 1.363 . S
C270 H273 0.929 . S
C271 C270 1.363 . S
C271 C277 1.428 . S
H272 C268 0.930 . S
H273 C270 0.929 . S
S274 N275 1.613 . S
S274 N276 1.610 . S
N275 S274 1.613 . S
N275 C278 1.350 . S
N276 S274 1.610 . S
N276 C277 1.351 . S
C277 C271 1.428 . S
C277 N276 1.351 . S
C277 C278 1.434 . S
C278 C269 1.429 . S
C278 N275 1.350 . S
C278 C277 1.434 . S
C279 C280 1.369 . S
C279 C281 1.419 . S
C279 H283 0.930 . S
C280 C279 1.369 . S
C280 C289 1.429 . S
C281 C279 1.419 . S
C281 C282 1.363 . S
C281 H284 0.929 . S
C282 C281 1.363 . S
C282 C288 1.428 . S
H283 C279 0.930 . S
H284 C281 0.929 . S
S285 N286 1.613 . S
S285 N287 1.610 . S
N286 S285 1.613 . S
N286 C289 1.350 . S
N287 S285 1.610 . S
N287 C288 1.351 . S
C288 C282 1.428 . S
C288 N287 1.351 . S
C288 C289 1.434 . S
C289 C280 1.429 . S
C289 N286 1.350 . S
C289 C288 1.434 . S
C290 C291 1.369 . S
C290 C292 1.419 . S
C290 H294 0.930 . S
C291 C290 1.369 . S
C291 C300 1.429 . S
C292 C290 1.419 . S
C292 C293 1.363 . S
C292 H295 0.929 . S
C293 C292 1.363 . S
C293 C299 1.428 . S
H294 C290 0.930 . S
H295 C292 0.929 . S
S296 N297 1.613 . S
S296 N298 1.610 . S
N297 S296 1.613 . S
N297 C300 1.350 . S
N298 S296 1.610 . S
N298 C299 1.351 . S
C299 C293 1.428 . S
C299 N298 1.351 . S
C299 C300 1.434 . S
C300 C291 1.429 . S
C300 N297 1.350 . S
C300 C299 1.434 . S
C301 C302 1.369 . S
C301 C303 1.419 . S
C301 H305 0.930 . S
C302 C301 1.369 . S
C302 C311 1.429 . S
C303 C301 1.419 . S
C303 C304 1.363 . S
C303 H306 0.929 . S
C304 C303 1.363 . S
C304 C310 1.428 . S
H305 C301 0.930 . S
H306 C303 0.929 . S
S307 N308 1.613 . S
S307 N309 1.610 . S
N308 S307 1.613 . S
N308 C311 1.350 . S
N309 S307 1.610 . S
N309 C310 1.351 . S
C310 C304 1.428 . S
C310 N309 1.351 . S
C310 C311 1.434 . S
C311 C302 1.429 . S
C311 N308 1.350 . S
C311 C310 1.434 . S
C312 C313 1.369 . S
C312 C314 1.419 . S
C312 H316 0.930 . S
C313 C312 1.369 . S
C313 C322 1.429 . S
C314 C312 1.419 . S
C314 C315 1.363 . S
C314 H317 0.929 . S
C315 C314 1.363 . S
C315 C321 1.428 . S
H316 C312 0.930 . S
H317 C314 0.929 . S
S318 N319 1.613 . S
S318 N320 1.610 . S
N319 S318 1.613 . S
N319 C322 1.350 . S
N320 S318 1.610 . S
N320 C321 1.351 . S
C321 C315 1.428 . S
C321 N320 1.351 . S
C321 C322 1.434 . S
C322 C313 1.429 . S
C322 N319 1.350 . S
C322 C321 1.434 . S
C323 C324 1.369 . S
C323 C325 1.419 . S
C323 H327 0.930 . S
C324 C323 1.369 . S
C324 C333 1.429 . S
C325 C323 1.419 . S
C325 C326 1.363 . S
C325 H328 0.929 . S
C326 C325 1.363 . S
C326 C332 1.428 1_455 S
H327 C323 0.930 . S
H328 C325 0.929 . S
S329 N330 1.613 . S
S329 N331 1.610 . S
N330 S329 1.613 . S
N330 C333 1.350 1_655 S
N331 S329 1.610 . S
N331 C332 1.351 . S
C332 C326 1.428 1_655 S
C332 N331 1.351 . S
C332 C333 1.434 1_655 S
C333 C324 1.429 . S
C333 N330 1.350 1_455 S
C333 C332 1.434 1_455 S
C205 C173 1.696 . S
C203 C138 1.644 . S
C214 C21 1.669 . S
C216 C196 1.692 . S
C225 C60 1.672 . S
C227 C172 1.700 . S
C236 C99 1.649 . S
C238 C195 1.704 . S
C249 C176 1.704 . S
C247 C16 1.722 . S
C260 C198 1.685 . S
C258 C40 1.661 . S
C269 C79 1.737 . S
C271 C177 1.680 . S
C280 C133 1.636 . S
C282 C197 1.630 . S
C293 C200 1.679 . S
C291 C55 1.739 . S
C304 C175 1.682 . S
C302 C94 1.653 . S
C315 C199 1.705 . S
C313 C118 1.714 . S
C324 C1 1.643 . S
C326 C174 1.634 . S
