# Generated by pormake.
# Topology tbo, (3,4)-cn, num edge types: 1
# Building blocks:
#     Node 0, Type 0, BuildingBlock: MIDCAF_clean_linker_0, # of connection points: 3
#     Node 1, Type 0, BuildingBlock: MIDCAF_clean_linker_0, # of connection points: 3
#     Node 2, Type 0, BuildingBlock: MIDCAF_clean_linker_0, # of connection points: 3
#     Node 3, Type 0, BuildingBlock: MIDCAF_clean_linker_0, # of connection points: 3
#     Node 4, Type 0, BuildingBlock: MIDCAF_clean_linker_0, # of connection points: 3
#     Node 5, Type 0, BuildingBlock: MIDCAF_clean_linker_0, # of connection points: 3
#     Node 6, Type 0, BuildingBlock: MIDCAF_clean_linker_0, # of connection points: 3
#     Node 7, Type 0, BuildingBlock: MIDCAF_clean_linker_0, # of connection points: 3
#     Node 8, Type 0, BuildingBlock: MIDCAF_clean_linker_0, # of connection points: 3
#     Node 9, Type 0, BuildingBlock: MIDCAF_clean_linker_0, # of connection points: 3
#     Node 10, Type 0, BuildingBlock: MIDCAF_clean_linker_0, # of connection points: 3
#     Node 11, Type 0, BuildingBlock: MIDCAF_clean_linker_0, # of connection points: 3
#     Node 12, Type 0, BuildingBlock: MIDCAF_clean_linker_0, # of connection points: 3
#     Node 13, Type 0, BuildingBlock: MIDCAF_clean_linker_0, # of connection points: 3
#     Node 14, Type 0, BuildingBlock: MIDCAF_clean_linker_0, # of connection points: 3
#     Node 15, Type 0, BuildingBlock: MIDCAF_clean_linker_0, # of connection points: 3
#     Node 16, Type 0, BuildingBlock: MIDCAF_clean_linker_0, # of connection points: 3
#     Node 17, Type 0, BuildingBlock: MIDCAF_clean_linker_0, # of connection points: 3
#     Node 18, Type 0, BuildingBlock: MIDCAF_clean_linker_0, # of connection points: 3
#     Node 19, Type 0, BuildingBlock: MIDCAF_clean_linker_0, # of connection points: 3
#     Node 20, Type 0, BuildingBlock: MIDCAF_clean_linker_0, # of connection points: 3
#     Node 21, Type 0, BuildingBlock: MIDCAF_clean_linker_0, # of connection points: 3
#     Node 22, Type 0, BuildingBlock: MIDCAF_clean_linker_0, # of connection points: 3
#     Node 23, Type 0, BuildingBlock: MIDCAF_clean_linker_0, # of connection points: 3
#     Node 24, Type 0, BuildingBlock: MIDCAF_clean_linker_0, # of connection points: 3
#     Node 25, Type 0, BuildingBlock: MIDCAF_clean_linker_0, # of connection points: 3
#     Node 26, Type 0, BuildingBlock: MIDCAF_clean_linker_0, # of connection points: 3
#     Node 27, Type 0, BuildingBlock: MIDCAF_clean_linker_0, # of connection points: 3
#     Node 28, Type 0, BuildingBlock: MIDCAF_clean_linker_0, # of connection points: 3
#     Node 29, Type 0, BuildingBlock: MIDCAF_clean_linker_0, # of connection points: 3
#     Node 30, Type 0, BuildingBlock: MIDCAF_clean_linker_0, # of connection points: 3
#     Node 31, Type 0, BuildingBlock: MIDCAF_clean_linker_0, # of connection points: 3
#     Node 32, Type 1, BuildingBlock: ESEHIV_clean_sbu_0, # of connection points: 4
#     Node 33, Type 1, BuildingBlock: ESEHIV_clean_sbu_0, # of connection points: 4
#     Node 34, Type 1, BuildingBlock: ESEHIV_clean_sbu_0, # of connection points: 4
#     Node 35, Type 1, BuildingBlock: ESEHIV_clean_sbu_0, # of connection points: 4
#     Node 36, Type 1, BuildingBlock: ESEHIV_clean_sbu_0, # of connection points: 4
#     Node 37, Type 1, BuildingBlock: ESEHIV_clean_sbu_0, # of connection points: 4
#     Node 38, Type 1, BuildingBlock: ESEHIV_clean_sbu_0, # of connection points: 4
#     Node 39, Type 1, BuildingBlock: ESEHIV_clean_sbu_0, # of connection points: 4
#     Node 40, Type 1, BuildingBlock: ESEHIV_clean_sbu_0, # of connection points: 4
#     Node 41, Type 1, BuildingBlock: ESEHIV_clean_sbu_0, # of connection points: 4
#     Node 42, Type 1, BuildingBlock: ESEHIV_clean_sbu_0, # of connection points: 4
#     Node 43, Type 1, BuildingBlock: ESEHIV_clean_sbu_0, # of connection points: 4
#     Node 44, Type 1, BuildingBlock: ESEHIV_clean_sbu_0, # of connection points: 4
#     Node 45, Type 1, BuildingBlock: ESEHIV_clean_sbu_0, # of connection points: 4
#     Node 46, Type 1, BuildingBlock: ESEHIV_clean_sbu_0, # of connection points: 4
#     Node 47, Type 1, BuildingBlock: ESEHIV_clean_sbu_0, # of connection points: 4
#     Node 48, Type 1, BuildingBlock: ESEHIV_clean_sbu_0, # of connection points: 4
#     Node 49, Type 1, BuildingBlock: ESEHIV_clean_sbu_0, # of connection points: 4
#     Node 50, Type 1, BuildingBlock: ESEHIV_clean_sbu_0, # of connection points: 4
#     Node 51, Type 1, BuildingBlock: ESEHIV_clean_sbu_0, # of connection points: 4
#     Node 52, Type 1, BuildingBlock: ESEHIV_clean_sbu_0, # of connection points: 4
#     Node 53, Type 1, BuildingBlock: ESEHIV_clean_sbu_0, # of connection points: 4
#     Node 54, Type 1, BuildingBlock: ESEHIV_clean_sbu_0, # of connection points: 4
#     Node 55, Type 1, BuildingBlock: ESEHIV_clean_sbu_0, # of connection points: 4
#     Edge 56, Type (0, 1), BuildingBlock: CIFDUS_clean_linker_0, # of connection points: 2
#     Edge 57, Type (0, 1), BuildingBlock: CIFDUS_clean_linker_0, # of connection points: 2
#     Edge 58, Type (0, 1), BuildingBlock: CIFDUS_clean_linker_0, # of connection points: 2
#     Edge 59, Type (0, 1), BuildingBlock: CIFDUS_clean_linker_0, # of connection points: 2
#     Edge 60, Type (0, 1), BuildingBlock: CIFDUS_clean_linker_0, # of connection points: 2
#     Edge 61, Type (0, 1), BuildingBlock: CIFDUS_clean_linker_0, # of connection points: 2
#     Edge 62, Type (0, 1), BuildingBlock: CIFDUS_clean_linker_0, # of connection points: 2
#     Edge 63, Type (0, 1), BuildingBlock: CIFDUS_clean_linker_0, # of connection points: 2
#     Edge 64, Type (0, 1), BuildingBlock: CIFDUS_clean_linker_0, # of connection points: 2
#     Edge 65, Type (0, 1), BuildingBlock: CIFDUS_clean_linker_0, # of connection points: 2
#     Edge 66, Type (0, 1), BuildingBlock: CIFDUS_clean_linker_0, # of connection points: 2
#     Edge 67, Type (0, 1), BuildingBlock: CIFDUS_clean_linker_0, # of connection points: 2
#     Edge 68, Type (0, 1), BuildingBlock: CIFDUS_clean_linker_0, # of connection points: 2
#     Edge 69, Type (0, 1), BuildingBlock: CIFDUS_clean_linker_0, # of connection points: 2
#     Edge 70, Type (0, 1), BuildingBlock: CIFDUS_clean_linker_0, # of connection points: 2
#     Edge 71, Type (0, 1), BuildingBlock: CIFDUS_clean_linker_0, # of connection points: 2
#     Edge 72, Type (0, 1), BuildingBlock: CIFDUS_clean_linker_0, # of connection points: 2
#     Edge 73, Type (0, 1), BuildingBlock: CIFDUS_clean_linker_0, # of connection points: 2
#     Edge 74, Type (0, 1), BuildingBlock: CIFDUS_clean_linker_0, # of connection points: 2
#     Edge 75, Type (0, 1), BuildingBlock: CIFDUS_clean_linker_0, # of connection points: 2
#     Edge 76, Type (0, 1), BuildingBlock: CIFDUS_clean_linker_0, # of connection points: 2
#     Edge 77, Type (0, 1), BuildingBlock: CIFDUS_clean_linker_0, # of connection points: 2
#     Edge 78, Type (0, 1), BuildingBlock: CIFDUS_clean_linker_0, # of connection points: 2
#     Edge 79, Type (0, 1), BuildingBlock: CIFDUS_clean_linker_0, # of connection points: 2
#     Edge 80, Type (0, 1), BuildingBlock: CIFDUS_clean_linker_0, # of connection points: 2
#     Edge 81, Type (0, 1), BuildingBlock: CIFDUS_clean_linker_0, # of connection points: 2
#     Edge 82, Type (0, 1), BuildingBlock: CIFDUS_clean_linker_0, # of connection points: 2
#     Edge 83, Type (0, 1), BuildingBlock: CIFDUS_clean_linker_0, # of connection points: 2
#     Edge 84, Type (0, 1), BuildingBlock: CIFDUS_clean_linker_0, # of connection points: 2
#     Edge 85, Type (0, 1), BuildingBlock: CIFDUS_clean_linker_0, # of connection points: 2
#     Edge 86, Type (0, 1), BuildingBlock: CIFDUS_clean_linker_0, # of connection points: 2
#     Edge 87, Type (0, 1), BuildingBlock: CIFDUS_clean_linker_0, # of connection points: 2
#     Edge 88, Type (0, 1), BuildingBlock: CIFDUS_clean_linker_0, # of connection points: 2
#     Edge 89, Type (0, 1), BuildingBlock: CIFDUS_clean_linker_0, # of connection points: 2
#     Edge 90, Type (0, 1), BuildingBlock: CIFDUS_clean_linker_0, # of connection points: 2
#     Edge 91, Type (0, 1), BuildingBlock: CIFDUS_clean_linker_0, # of connection points: 2
#     Edge 92, Type (0, 1), BuildingBlock: CIFDUS_clean_linker_0, # of connection points: 2
#     Edge 93, Type (0, 1), BuildingBlock: CIFDUS_clean_linker_0, # of connection points: 2
#     Edge 94, Type (0, 1), BuildingBlock: CIFDUS_clean_linker_0, # of connection points: 2
#     Edge 95, Type (0, 1), BuildingBlock: CIFDUS_clean_linker_0, # of connection points: 2
#     Edge 96, Type (0, 1), BuildingBlock: CIFDUS_clean_linker_0, # of connection points: 2
#     Edge 97, Type (0, 1), BuildingBlock: CIFDUS_clean_linker_0, # of connection points: 2
#     Edge 98, Type (0, 1), BuildingBlock: CIFDUS_clean_linker_0, # of connection points: 2
#     Edge 99, Type (0, 1), BuildingBlock: CIFDUS_clean_linker_0, # of connection points: 2
#     Edge 100, Type (0, 1), BuildingBlock: CIFDUS_clean_linker_0, # of connection points: 2
#     Edge 101, Type (0, 1), BuildingBlock: CIFDUS_clean_linker_0, # of connection points: 2
#     Edge 102, Type (0, 1), BuildingBlock: CIFDUS_clean_linker_0, # of connection points: 2
#     Edge 103, Type (0, 1), BuildingBlock: CIFDUS_clean_linker_0, # of connection points: 2
#     Edge 104, Type (0, 1), BuildingBlock: CIFDUS_clean_linker_0, # of connection points: 2
#     Edge 105, Type (0, 1), BuildingBlock: CIFDUS_clean_linker_0, # of connection points: 2
#     Edge 106, Type (0, 1), BuildingBlock: CIFDUS_clean_linker_0, # of connection points: 2
#     Edge 107, Type (0, 1), BuildingBlock: CIFDUS_clean_linker_0, # of connection points: 2
#     Edge 108, Type (0, 1), BuildingBlock: CIFDUS_clean_linker_0, # of connection points: 2
#     Edge 109, Type (0, 1), BuildingBlock: CIFDUS_clean_linker_0, # of connection points: 2
#     Edge 110, Type (0, 1), BuildingBlock: CIFDUS_clean_linker_0, # of connection points: 2
#     Edge 111, Type (0, 1), BuildingBlock: CIFDUS_clean_linker_0, # of connection points: 2
#     Edge 112, Type (0, 1), BuildingBlock: CIFDUS_clean_linker_0, # of connection points: 2
#     Edge 113, Type (0, 1), BuildingBlock: CIFDUS_clean_linker_0, # of connection points: 2
#     Edge 114, Type (0, 1), BuildingBlock: CIFDUS_clean_linker_0, # of connection points: 2
#     Edge 115, Type (0, 1), BuildingBlock: CIFDUS_clean_linker_0, # of connection points: 2
#     Edge 116, Type (0, 1), BuildingBlock: CIFDUS_clean_linker_0, # of connection points: 2
#     Edge 117, Type (0, 1), BuildingBlock: CIFDUS_clean_linker_0, # of connection points: 2
#     Edge 118, Type (0, 1), BuildingBlock: CIFDUS_clean_linker_0, # of connection points: 2
#     Edge 119, Type (0, 1), BuildingBlock: CIFDUS_clean_linker_0, # of connection points: 2
#     Edge 120, Type (0, 1), BuildingBlock: CIFDUS_clean_linker_0, # of connection points: 2
#     Edge 121, Type (0, 1), BuildingBlock: CIFDUS_clean_linker_0, # of connection points: 2
#     Edge 122, Type (0, 1), BuildingBlock: CIFDUS_clean_linker_0, # of connection points: 2
#     Edge 123, Type (0, 1), BuildingBlock: CIFDUS_clean_linker_0, # of connection points: 2
#     Edge 124, Type (0, 1), BuildingBlock: CIFDUS_clean_linker_0, # of connection points: 2
#     Edge 125, Type (0, 1), BuildingBlock: CIFDUS_clean_linker_0, # of connection points: 2
#     Edge 126, Type (0, 1), BuildingBlock: CIFDUS_clean_linker_0, # of connection points: 2
#     Edge 127, Type (0, 1), BuildingBlock: CIFDUS_clean_linker_0, # of connection points: 2
#     Edge 128, Type (0, 1), BuildingBlock: CIFDUS_clean_linker_0, # of connection points: 2
#     Edge 129, Type (0, 1), BuildingBlock: CIFDUS_clean_linker_0, # of connection points: 2
#     Edge 130, Type (0, 1), BuildingBlock: CIFDUS_clean_linker_0, # of connection points: 2
#     Edge 131, Type (0, 1), BuildingBlock: CIFDUS_clean_linker_0, # of connection points: 2
#     Edge 132, Type (0, 1), BuildingBlock: CIFDUS_clean_linker_0, # of connection points: 2
#     Edge 133, Type (0, 1), BuildingBlock: CIFDUS_clean_linker_0, # of connection points: 2
#     Edge 134, Type (0, 1), BuildingBlock: CIFDUS_clean_linker_0, # of connection points: 2
#     Edge 135, Type (0, 1), BuildingBlock: CIFDUS_clean_linker_0, # of connection points: 2
#     Edge 136, Type (0, 1), BuildingBlock: CIFDUS_clean_linker_0, # of connection points: 2
#     Edge 137, Type (0, 1), BuildingBlock: CIFDUS_clean_linker_0, # of connection points: 2
#     Edge 138, Type (0, 1), BuildingBlock: CIFDUS_clean_linker_0, # of connection points: 2
#     Edge 139, Type (0, 1), BuildingBlock: CIFDUS_clean_linker_0, # of connection points: 2
#     Edge 140, Type (0, 1), BuildingBlock: CIFDUS_clean_linker_0, # of connection points: 2
#     Edge 141, Type (0, 1), BuildingBlock: CIFDUS_clean_linker_0, # of connection points: 2
#     Edge 142, Type (0, 1), BuildingBlock: CIFDUS_clean_linker_0, # of connection points: 2
#     Edge 143, Type (0, 1), BuildingBlock: CIFDUS_clean_linker_0, # of connection points: 2
#     Edge 144, Type (0, 1), BuildingBlock: CIFDUS_clean_linker_0, # of connection points: 2
#     Edge 145, Type (0, 1), BuildingBlock: CIFDUS_clean_linker_0, # of connection points: 2
#     Edge 146, Type (0, 1), BuildingBlock: CIFDUS_clean_linker_0, # of connection points: 2
#     Edge 147, Type (0, 1), BuildingBlock: CIFDUS_clean_linker_0, # of connection points: 2
#     Edge 148, Type (0, 1), BuildingBlock: CIFDUS_clean_linker_0, # of connection points: 2
#     Edge 149, Type (0, 1), BuildingBlock: CIFDUS_clean_linker_0, # of connection points: 2
#     Edge 150, Type (0, 1), BuildingBlock: CIFDUS_clean_linker_0, # of connection points: 2
#     Edge 151, Type (0, 1), BuildingBlock: CIFDUS_clean_linker_0, # of connection points: 2
# Relax obj value: 0.002
# Max RMSD: 0.121
# Mean RMSD: 0.048
data_MOF--net-tbo--node1-ESEHIV_clean_sbu_0--node2-MIDCAF_clean_linker_0--edge1-CIFDUS_clean_linker_0
_symmetry_space_group_name_H-M    P1
_symmetry_Int_Tables_number       1
_symmetry_cell_setting            triclinic
loop_
_symmetry_equiv_pos_as_xyz
'x, y, z'
_cell_length_a     81.342785
_cell_length_b     81.239149
_cell_length_c     81.244814
_cell_angle_alpha  90.077595
_cell_angle_beta   92.338089
_cell_angle_gamma 90.762482
loop_
_atom_site_label
_atom_site_type_symbol
_atom_site_fract_x
_atom_site_fract_y
_atom_site_fract_z
_atom_type_partial_charge
C0 C 0.14143 0.19534 0.20416 0.0
C1 C 0.1319 0.18472 0.21371 0.0
C2 C 0.13676 0.16829 0.21562 0.0
C3 C 0.15075 0.16256 0.20817 0.0
H4 H 0.17751 0.12118 0.204 0.0
H5 H 0.18683 0.09375 0.21159 0.0
H6 H 0.23428 0.10456 0.19197 0.0
H7 H 0.22498 0.13212 0.18422 0.0
H8 H 0.22824 0.16467 0.16251 0.0
H9 H 0.24209 0.1783 0.14032 0.0
H10 H 0.1994 0.20847 0.13075 0.0
H11 H 0.18568 0.19513 0.15345 0.0
H12 H 0.16249 0.19802 0.18925 0.0
H13 H 0.13793 0.20805 0.20238 0.0
H14 H 0.12983 0.15984 0.22306 0.0
H15 H 0.15403 0.1498 0.21001 0.0
N16 N 0.18099 0.15166 0.19532 0.0
N17 N 0.20268 0.15452 0.17747 0.0
N18 N 0.18336 0.17562 0.17942 0.0
C19 C 0.19467 0.14548 0.18873 0.0
C20 C 0.19712 0.16954 0.17268 0.0
C21 C 0.17527 0.16672 0.19087 0.0
C22 C 0.20049 0.12887 0.19349 0.0
C23 C 0.18994 0.11777 0.20129 0.0
C24 C 0.19523 0.10201 0.20554 0.0
C25 C 0.21123 0.09702 0.20227 0.0
C26 C 0.22189 0.10812 0.19465 0.0
C27 C 0.21652 0.12386 0.19017 0.0
C28 C 0.20578 0.17873 0.15974 0.0
C29 C 0.22178 0.17425 0.15574 0.0
C30 C 0.22971 0.18201 0.14289 0.0
C31 C 0.22182 0.19436 0.13353 0.0
C32 C 0.20593 0.19911 0.13775 0.0
C33 C 0.19803 0.19143 0.15076 0.0
C34 C 0.16029 0.17308 0.19851 0.0
C35 C 0.15544 0.18956 0.19655 0.0
C36 C 0.8578 0.14233 0.21769 0.0
C37 C 0.84251 0.13528 0.21273 0.0
C38 C 0.83306 0.14305 0.20018 0.0
C39 C 0.83875 0.15751 0.19281 0.0
H40 H 0.82917 0.19059 0.15316 0.0
H41 H 0.81427 0.20465 0.13056 0.0
H42 H 0.84685 0.24678 0.13696 0.0
H43 H 0.86148 0.23306 0.15944 0.0
H44 H 0.88814 0.23437 0.18767 0.0
H45 H 0.91384 0.24773 0.19714 0.0
H46 H 0.93225 0.20106 0.21457 0.0
H47 H 0.90636 0.18758 0.20529 0.0
H48 H 0.87527 0.16186 0.21464 0.0
H49 H 0.86532 0.13682 0.22746 0.0
H50 H 0.82132 0.13785 0.1959 0.0
H51 H 0.83111 0.16313 0.1832 0.0
N52 N 0.85089 0.18775 0.1781 0.0
N53 N 0.87041 0.20919 0.17754 0.0
N54 N 0.87437 0.18736 0.19598 0.0
C55 C 0.85611 0.20226 0.17161 0.0
C56 C 0.87964 0.20188 0.18963 0.0
C57 C 0.85995 0.18024 0.19036 0.0
C58 C 0.84655 0.21065 0.15817 0.0
C59 C 0.83308 0.20289 0.1498 0.0
C60 C 0.8246 0.21089 0.13679 0.0
C61 C 0.82935 0.22685 0.13201 0.0
C62 C 0.84271 0.2346 0.14048 0.0
C63 C 0.85119 0.22662 0.15334 0.0
C64 C 0.8952 0.20988 0.19573 0.0
C65 C 0.89764 0.22691 0.19352 0.0
C66 C 0.91232 0.2346 0.19898 0.0
C67 C 0.92501 0.22542 0.20651 0.0
C68 C 0.92267 0.20839 0.20866 0.0
C69 C 0.90783 0.20071 0.20347 0.0
C70 C 0.85402 0.16462 0.19784 0.0
C71 C 0.86347 0.15679 0.21036 0.0
C72 C 0.81778 0.82826 0.12119 0.0
C73 C 0.80433 0.83551 0.11268 0.0
C74 C 0.79935 0.85121 0.11773 0.0
C75 C 0.80726 0.85924 0.13114 0.0
H76 H 0.79832 0.89448 0.16931 0.0
H77 H 0.78598 0.91681 0.18489 0.0
H78 H 0.83212 0.9245 0.21209 0.0
H79 H 0.84434 0.90245 0.19689 0.0
H80 H 0.87157 0.87738 0.19695 0.0
H81 H 0.89683 0.86692 0.20982 0.0
H82 H 0.89133 0.82233 0.18105 0.0
H83 H 0.86585 0.83272 0.16814 0.0
H84 H 0.83597 0.83029 0.14094 0.0
H85 H 0.82189 0.81614 0.11778 0.0
H86 H 0.7893 0.8574 0.11127 0.0
H87 H 0.80296 0.87126 0.13464 0.0
N88 N 0.82203 0.87404 0.16095 0.0
N89 N 0.84405 0.87584 0.18041 0.0
N90 N 0.84319 0.85455 0.16093 0.0
C91 C 0.82964 0.88184 0.17407 0.0
C92 C 0.85093 0.86225 0.174 0.0
C93 C 0.82879 0.8604 0.15424 0.0
C94 C 0.82227 0.89641 0.182 0.0
C95 C 0.80586 0.90107 0.17849 0.0
C96 C 0.7988 0.91389 0.18737 0.0
C97 C 0.808 0.92222 0.19991 0.0
C98 C 0.82458 0.91809 0.20276 0.0
C99 C 0.8316 0.9054 0.19398 0.0
C100 C 0.86659 0.8559 0.18147 0.0
C101 C 0.87569 0.86534 0.19329 0.0
C102 C 0.89026 0.85939 0.20063 0.0
C103 C 0.89611 0.8438 0.19646 0.0
C104 C 0.88707 0.83433 0.18464 0.0
C105 C 0.87252 0.84034 0.17716 0.0
C106 C 0.82052 0.8519 0.13983 0.0
C107 C 0.82579 0.83636 0.13457 0.0
C108 C 0.1068 0.8139 0.20218 0.0
C109 C 0.09748 0.80738 0.1887 0.0
C110 C 0.10338 0.80926 0.17279 0.0
C111 C 0.11838 0.81741 0.17042 0.0
H112 H 0.15606 0.82624 0.13532 0.0
H113 H 0.1725 0.82174 0.11111 0.0
H114 H 0.2165 0.83581 0.13941 0.0
H115 H 0.20017 0.8406 0.16346 0.0
H116 H 0.19469 0.8661 0.19239 0.0
H117 H 0.20498 0.88797 0.21051 0.0
H118 H 0.15828 0.88923 0.23387 0.0
H119 H 0.14775 0.86726 0.21548 0.0
H120 H 0.12845 0.82731 0.21042 0.0
H121 H 0.10245 0.81275 0.21455 0.0
H122 H 0.09642 0.80435 0.1622 0.0
H123 H 0.12261 0.81864 0.15801 0.0
N124 N 0.15222 0.82974 0.16787 0.0
N125 N 0.1727 0.84848 0.17719 0.0
N126 N 0.14935 0.84422 0.19267 0.0
C127 C 0.16696 0.83738 0.16579 0.0
C128 C 0.16397 0.85211 0.19058 0.0
C129 C 0.14342 0.83297 0.18138 0.0
C130 C 0.17681 0.83383 0.15128 0.0
C131 C 0.16925 0.82829 0.13638 0.0
C132 C 0.17862 0.8258 0.12253 0.0
C133 C 0.19574 0.82845 0.12343 0.0
C134 C 0.20333 0.83361 0.13841 0.0
C135 C 0.19395 0.83642 0.15214 0.0
C136 C 0.17034 0.86487 0.20241 0.0
C137 C 0.18655 0.87092 0.2014 0.0
C138 C 0.19253 0.88344 0.21189 0.0
C139 C 0.18247 0.89032 0.22368 0.0
C140 C 0.16629 0.88425 0.22483 0.0
C141 C 0.1603 0.87158 0.21437 0.0
C142 C 0.1276 0.82417 0.18388 0.0
C143 C 0.12162 0.82234 0.19978 0.0
C144 C 0.13 0.82612 0.83768 0.0
C145 C 0.12575 0.83008 0.82123 0.0
C146 C 0.13417 0.84315 0.81377 0.0
C147 C 0.14704 0.85157 0.82241 0.0
H148 H 0.18397 0.8898 0.81961 0.0
H149 H 0.19833 0.91425 0.80986 0.0
H150 H 0.22088 0.92149 0.85848 0.0
H151 H 0.20712 0.8968 0.86796 0.0
H152 H 0.21196 0.86463 0.88961 0.0
H153 H 0.22563 0.84997 0.91218 0.0
H154 H 0.19013 0.81019 0.90666 0.0
H155 H 0.17617 0.82496 0.88398 0.0
H156 H 0.1458 0.83074 0.8588 0.0
H157 H 0.12351 0.81641 0.84396 0.0
H158 H 0.13119 0.84649 0.80111 0.0
H159 H 0.15359 0.86128 0.8162 0.0
N160 N 0.17323 0.86896 0.84206 0.0
N161 N 0.19248 0.8685 0.86439 0.0
N162 N 0.17242 0.84769 0.86162 0.0
C163 C 0.18641 0.8759 0.85047 0.0
C164 C 0.18563 0.85437 0.87004 0.0
C165 C 0.16607 0.85489 0.84767 0.0
C166 C 0.19443 0.89123 0.84455 0.0
C167 C 0.19197 0.89664 0.82821 0.0
C168 C 0.20018 0.91074 0.82264 0.0
C169 C 0.21092 0.9199 0.83332 0.0
C170 C 0.21307 0.91461 0.84974 0.0
C171 C 0.20504 0.90045 0.85524 0.0
C172 C 0.19305 0.84593 0.88476 0.0
C173 C 0.20692 0.85282 0.89319 0.0
C174 C 0.21482 0.84438 0.90614 0.0
C175 C 0.20911 0.8288 0.91105 0.0
C176 C 0.19481 0.82217 0.90316 0.0
C177 C 0.18688 0.83063 0.89012 0.0
C178 C 0.15172 0.84705 0.83865 0.0
C179 C 0.14281 0.83441 0.84623 0.0
C180 C 0.14153 0.22366 0.84522 0.0
C181 C 0.13313 0.21925 0.83038 0.0
C182 C 0.13835 0.20529 0.82183 0.0
C183 C 0.1517 0.19606 0.82793 0.0
H184 H 0.17823 0.15152 0.82217 0.0
H185 H 0.1889 0.12795 0.80734 0.0
H186 H 0.23502 0.13264 0.83522 0.0
H187 H 0.22443 0.15604 0.85012 0.0
H188 H 0.22503 0.17756 0.884 0.0
H189 H 0.23778 0.18605 0.91034 0.0
H190 H 0.19681 0.21792 0.91863 0.0
H191 H 0.18431 0.20985 0.89208 0.0
H192 H 0.16098 0.21842 0.86274 0.0
H193 H 0.13806 0.23447 0.85201 0.0
H194 H 0.13205 0.20142 0.81044 0.0
H195 H 0.15539 0.18543 0.821 0.0
N196 N 0.18048 0.17816 0.84078 0.0
N197 N 0.20151 0.17483 0.86118 0.0
N198 N 0.18223 0.19574 0.86372 0.0
C199 C 0.19397 0.16992 0.84667 0.0
C200 C 0.19564 0.1877 0.86983 0.0
C201 C 0.17458 0.19116 0.84923 0.0
C202 C 0.20045 0.15572 0.83739 0.0
C203 C 0.19067 0.14757 0.82511 0.0
C204 C 0.19674 0.13401 0.81665 0.0
C205 C 0.21283 0.12847 0.82004 0.0
C206 C 0.22264 0.13672 0.83218 0.0
C207 C 0.2165 0.15008 0.84081 0.0
C208 C 0.20359 0.19294 0.88586 0.0
C209 C 0.21873 0.1864 0.89141 0.0
C210 C 0.22601 0.19122 0.90659 0.0
C211 C 0.21829 0.20262 0.91674 0.0
C212 C 0.20323 0.20929 0.91111 0.0
C213 C 0.196 0.20455 0.89588 0.0
C214 C 0.16014 0.20057 0.84274 0.0
C215 C 0.1548 0.21446 0.85132 0.0
C216 C 0.85155 0.14287 0.81507 0.0
C217 C 0.84132 0.13485 0.82616 0.0
C218 C 0.83838 0.14247 0.84125 0.0
C219 C 0.8455 0.15775 0.8452 0.0
H220 H 0.84784 0.19085 0.88146 0.0
H221 H 0.83821 0.20398 0.90598 0.0
H222 H 0.86127 0.24977 0.89183 0.0
H223 H 0.87146 0.23639 0.86736 0.0
H224 H 0.9072 0.22443 0.84486 0.0
H225 H 0.9299 0.23541 0.82926 0.0
H226 H 0.91105 0.20974 0.78582 0.0
H227 H 0.88841 0.19838 0.8015 0.0
H228 H 0.86669 0.16398 0.81031 0.0
H229 H 0.85411 0.13722 0.80338 0.0
H230 H 0.83038 0.13669 0.84995 0.0
H231 H 0.84291 0.16319 0.85698 0.0
N232 N 0.85891 0.18978 0.8525 0.0
N233 N 0.87779 0.21114 0.84801 0.0
N234 N 0.87532 0.18886 0.82951 0.0
C235 C 0.86587 0.20438 0.85722 0.0
C236 C 0.88258 0.20343 0.83412 0.0
C237 C 0.86349 0.18193 0.83872 0.0
C238 C 0.8604 0.21257 0.87235 0.0
C239 C 0.85089 0.20374 0.8835 0.0
C240 C 0.84524 0.21131 0.89756 0.0
C241 C 0.84877 0.228 0.90084 0.0
C242 C 0.85842 0.23685 0.88978 0.0
C243 C 0.86423 0.2292 0.87571 0.0
C244 C 0.896 0.21052 0.82443 0.0
C245 C 0.90784 0.22113 0.83198 0.0
C246 C 0.9209 0.22732 0.8231 0.0
C247 C 0.92224 0.22331 0.80639 0.0
C248 C 0.91027 0.21298 0.7987 0.0
C249 C 0.89737 0.20648 0.80769 0.0
C250 C 0.85585 0.16578 0.8342 0.0
C251 C 0.85881 0.15816 0.81907 0.0
C252 C 0.8128 0.85962 0.88672 0.0
C253 C 0.81613 0.84555 0.89627 0.0
C254 C 0.82918 0.83541 0.89195 0.0
C255 C 0.83866 0.83926 0.87843 0.0
H256 H 0.87878 0.82408 0.85239 0.0
H257 H 0.90165 0.80704 0.84464 0.0
H258 H 0.90752 0.83673 0.80115 0.0
H259 H 0.88499 0.85401 0.80907 0.0
H260 H 0.85933 0.88458 0.80152 0.0
H261 H 0.85461 0.91109 0.78777 0.0
H262 H 0.83263 0.92963 0.83141 0.0
H263 H 0.83701 0.90327 0.84505 0.0
H264 H 0.81926 0.87442 0.8662 0.0
H265 H 0.80271 0.86758 0.88951 0.0
H266 H 0.83223 0.82459 0.89916 0.0
H267 H 0.84863 0.83119 0.87553 0.0
N268 N 0.85744 0.84748 0.84965 0.0
N269 N 0.86341 0.86564 0.82816 0.0
N270 N 0.84258 0.87184 0.84618 0.0
C271 C 0.86652 0.8514 0.83646 0.0
C272 C 0.8515 0.87595 0.83299 0.0
C273 C 0.84537 0.85761 0.85454 0.0
C274 C 0.88002 0.84052 0.83142 0.0
C275 C 0.8849 0.82698 0.84115 0.0
C276 C 0.898 0.81713 0.83666 0.0
C277 C 0.90653 0.82053 0.8223 0.0
C278 C 0.90147 0.83391 0.81246 0.0
C279 C 0.88844 0.84379 0.81697 0.0
C280 C 0.84856 0.8918 0.8244 0.0
C281 C 0.85347 0.89431 0.80816 0.0
C282 C 0.85072 0.90942 0.80026 0.0
C283 C 0.84336 0.92238 0.80858 0.0
C284 C 0.83847 0.91987 0.82477 0.0
C285 C 0.8409 0.90473 0.83254 0.0
C286 C 0.83534 0.85337 0.8689 0.0
C287 C 0.82228 0.86349 0.87325 0.0
C288 C 0.13167 0.70107 0.68283 0.0
C289 C 0.13081 0.70078 0.70006 0.0
C290 C 0.14454 0.69565 0.70964 0.0
C291 C 0.15875 0.69046 0.70211 0.0
H292 H 0.19655 0.65553 0.70868 0.0
H293 H 0.21209 0.63302 0.72112 0.0
H294 H 0.23465 0.62412 0.67474 0.0
H295 H 0.2196 0.64699 0.66249 0.0
H296 H 0.21678 0.67395 0.6355 0.0
H297 H 0.22466 0.68398 0.60886 0.0
H298 H 0.18555 0.7194 0.60877 0.0
H299 H 0.17764 0.70945 0.63582 0.0
H300 H 0.14629 0.6965 0.66199 0.0
H301 H 0.12122 0.70502 0.67521 0.0
H302 H 0.14412 0.69529 0.72295 0.0
H303 H 0.16906 0.68629 0.7098 0.0
N304 N 0.1838 0.67279 0.6843 0.0
N305 N 0.20092 0.67252 0.66181 0.0
N306 N 0.17849 0.69037 0.6618 0.0
C307 C 0.19702 0.6666 0.6768 0.0
C308 C 0.19183 0.68447 0.65425 0.0
C309 C 0.17444 0.68461 0.67685 0.0
C310 C 0.20677 0.65312 0.68456 0.0
C311 C 0.20487 0.64882 0.70114 0.0
C312 C 0.21373 0.63581 0.70826 0.0
C313 C 0.22462 0.62663 0.69896 0.0
C314 C 0.22661 0.63103 0.6824 0.0
C315 C 0.21787 0.64413 0.67533 0.0
C316 C 0.19649 0.6908 0.63787 0.0
C317 C 0.20977 0.68386 0.6299 0.0
C318 C 0.21426 0.68957 0.61452 0.0
C319 C 0.20563 0.70238 0.60659 0.0
C320 C 0.19247 0.70954 0.61458 0.0
C321 C 0.1879 0.70376 0.63004 0.0
C322 C 0.15963 0.69069 0.68486 0.0
C323 C 0.14602 0.69626 0.67531 0.0
C324 C 0.86004 0.6452 0.69501 0.0
C325 C 0.84407 0.63872 0.69226 0.0
C326 C 0.83338 0.64657 0.6808 0.0
C327 C 0.83851 0.66065 0.67239 0.0
H328 H 0.82592 0.69209 0.63339 0.0
H329 H 0.80809 0.70553 0.61265 0.0
H330 H 0.84255 0.7463 0.61107 0.0
H331 H 0.86026 0.73312 0.63178 0.0
H332 H 0.89279 0.73422 0.65607 0.0
H333 H 0.9196 0.74598 0.66525 0.0
H334 H 0.92948 0.70229 0.69397 0.0
H335 H 0.90316 0.69058 0.6849 0.0
H336 H 0.8775 0.66398 0.68931 0.0
H337 H 0.86852 0.63958 0.70389 0.0
H338 H 0.82104 0.64178 0.67827 0.0
H339 H 0.82991 0.66642 0.66373 0.0
N340 N 0.85022 0.68966 0.65493 0.0
N341 N 0.86988 0.71088 0.65232 0.0
N342 N 0.87446 0.68977 0.67149 0.0
C343 C 0.85516 0.7038 0.6475 0.0
C344 C 0.87962 0.7039 0.66432 0.0
C345 C 0.85982 0.68256 0.66696 0.0
C346 C 0.84452 0.71156 0.63443 0.0
C347 C 0.82973 0.70392 0.62861 0.0
C348 C 0.81954 0.71154 0.61664 0.0
C349 C 0.82382 0.72704 0.61033 0.0
C350 C 0.83875 0.73448 0.61589 0.0
C351 C 0.84896 0.72686 0.62774 0.0
C352 C 0.89578 0.71139 0.66966 0.0
C353 C 0.90073 0.72712 0.6643 0.0
C354 C 0.91603 0.7339 0.6696 0.0
C355 C 0.92674 0.72498 0.68017 0.0
C356 C 0.92168 0.70936 0.68557 0.0
C357 C 0.90646 0.70268 0.68042 0.0
C358 C 0.85442 0.66728 0.67534 0.0
C359 C 0.86514 0.6593 0.6867 0.0
C360 C 0.84737 0.32591 0.62359 0.0
C361 C 0.8312 0.32743 0.61692 0.0
C362 C 0.82053 0.33825 0.62467 0.0
C363 C 0.82595 0.34751 0.63842 0.0
H364 H 0.82702 0.39858 0.6558 0.0
H365 H 0.81451 0.42503 0.66177 0.0
H366 H 0.83138 0.42112 0.71263 0.0
H367 H 0.84421 0.39481 0.70668 0.0
H368 H 0.87988 0.37436 0.71069 0.0
H369 H 0.90343 0.36511 0.7276 0.0
H370 H 0.90882 0.32371 0.69494 0.0
H371 H 0.88517 0.3327 0.67823 0.0
H372 H 0.86524 0.33357 0.64225 0.0
H373 H 0.85607 0.31797 0.61788 0.0
H374 H 0.80789 0.33953 0.62023 0.0
H375 H 0.81738 0.35572 0.644 0.0
N376 N 0.83994 0.36991 0.66353 0.0
N377 N 0.85805 0.37381 0.68649 0.0
N378 N 0.86089 0.35094 0.66921 0.0
C379 C 0.84501 0.37898 0.67692 0.0
C380 C 0.8661 0.3598 0.6827 0.0
C381 C 0.84778 0.35585 0.65962 0.0
C382 C 0.83668 0.3946 0.68076 0.0
C383 C 0.82797 0.40328 0.66829 0.0
C384 C 0.82084 0.41844 0.67167 0.0
C385 C 0.82195 0.42507 0.68766 0.0
C386 C 0.83024 0.41621 0.70023 0.0
C387 C 0.83767 0.40121 0.69678 0.0
C388 C 0.88052 0.35428 0.69306 0.0
C389 C 0.88605 0.36327 0.7071 0.0
C390 C 0.89964 0.35802 0.71677 0.0
C391 C 0.90802 0.34364 0.71267 0.0
C392 C 0.90252 0.3347 0.69862 0.0
C393 C 0.88897 0.33994 0.68896 0.0
C394 C 0.84208 0.34598 0.64503 0.0
C395 C 0.85269 0.33497 0.63754 0.0
C396 C 0.13896 0.35887 0.72338 0.0
C397 C 0.13262 0.3433 0.71866 0.0
C398 C 0.13936 0.3353 0.70519 0.0
C399 C 0.15248 0.34252 0.69699 0.0
H400 H 0.18883 0.33397 0.6613 0.0
H401 H 0.20105 0.32186 0.63729 0.0
H402 H 0.22189 0.36934 0.62509 0.0
H403 H 0.21041 0.38113 0.64952 0.0
H404 H 0.21959 0.40391 0.68115 0.0
H405 H 0.23652 0.425 0.69486 0.0
H406 H 0.20777 0.42068 0.73818 0.0
H407 H 0.19049 0.3995 0.72435 0.0
H408 H 0.15664 0.37795 0.71946 0.0
H409 H 0.13382 0.36558 0.73345 0.0
H410 H 0.13482 0.32327 0.70127 0.0
H411 H 0.15759 0.33589 0.68686 0.0
N412 N 0.17915 0.35878 0.67994 0.0
N413 N 0.19986 0.37913 0.67955 0.0
N414 N 0.18137 0.37877 0.70089 0.0
C415 C 0.19228 0.3657 0.67258 0.0
C416 C 0.19457 0.38572 0.69373 0.0
C417 C 0.17351 0.36536 0.69403 0.0
C418 C 0.19872 0.35849 0.65739 0.0
C419 C 0.19598 0.34181 0.65344 0.0
C420 C 0.20295 0.33489 0.63959 0.0
C421 C 0.21261 0.34455 0.62919 0.0
C422 C 0.21493 0.36135 0.63297 0.0
C423 C 0.20821 0.36818 0.64694 0.0
C424 C 0.20377 0.39976 0.70169 0.0
C425 C 0.21672 0.40745 0.69355 0.0
C426 C 0.22649 0.41955 0.70144 0.0
C427 C 0.22366 0.42431 0.71771 0.0
C428 C 0.21025 0.41727 0.72564 0.0
C429 C 0.2004 0.40508 0.71771 0.0
C430 C 0.15914 0.35787 0.7021 0.0
C431 C 0.15205 0.36602 0.71528 0.0
C432 C 0.12751 0.32083 0.3511 0.0
C433 C 0.12253 0.32762 0.33583 0.0
C434 C 0.13316 0.33875 0.32819 0.0
C435 C 0.14831 0.34326 0.33589 0.0
H436 H 0.18833 0.37557 0.33325 0.0
H437 H 0.20462 0.39866 0.32349 0.0
H438 H 0.23723 0.39502 0.36661 0.0
H439 H 0.22122 0.37169 0.3762 0.0
H440 H 0.21904 0.33535 0.39679 0.0
H441 H 0.22664 0.32205 0.42298 0.0
H442 H 0.17578 0.30877 0.42942 0.0
H443 H 0.16813 0.32177 0.40316 0.0
H444 H 0.14586 0.31973 0.37052 0.0
H445 H 0.11975 0.31198 0.35717 0.0
H446 H 0.12963 0.34418 0.31642 0.0
H447 H 0.15617 0.352 0.32978 0.0
N448 N 0.17877 0.35348 0.35377 0.0
N449 N 0.19781 0.35005 0.376 0.0
N450 N 0.17385 0.33374 0.37406 0.0
C451 C 0.19317 0.35795 0.36182 0.0
C452 C 0.1882 0.33794 0.38219 0.0
C453 C 0.16906 0.34134 0.35981 0.0
C454 C 0.2034 0.37171 0.35555 0.0
C455 C 0.199 0.37962 0.34065 0.0
C456 C 0.2083 0.39296 0.33509 0.0
C457 C 0.22221 0.39878 0.34429 0.0
C458 C 0.22671 0.39076 0.35909 0.0
C459 C 0.21745 0.3774 0.36464 0.0
C460 C 0.19298 0.32965 0.39789 0.0
C461 C 0.20948 0.32954 0.40375 0.0
C462 C 0.21386 0.32183 0.41866 0.0
C463 C 0.20179 0.31437 0.42817 0.0
C464 C 0.18531 0.31446 0.42233 0.0
C465 C 0.18097 0.32187 0.40727 0.0
C466 C 0.15318 0.33658 0.3513 0.0
C467 C 0.1426 0.32523 0.35871 0.0
C468 C 0.12366 0.70615 0.33935 0.0
C469 C 0.11395 0.70216 0.32516 0.0
C470 C 0.11879 0.68906 0.31519 0.0
C471 C 0.13305 0.68022 0.31926 0.0
H472 H 0.1561 0.63048 0.31844 0.0
H473 H 0.1637 0.60428 0.30593 0.0
H474 H 0.21505 0.61756 0.31262 0.0
H475 H 0.20756 0.64346 0.32555 0.0
H476 H 0.21394 0.66219 0.36274 0.0
H477 H 0.23179 0.67159 0.38577 0.0
H478 H 0.19519 0.70664 0.39917 0.0
H479 H 0.1772 0.69718 0.37628 0.0
H480 H 0.14516 0.70095 0.35433 0.0
H481 H 0.12037 0.71627 0.34721 0.0
H482 H 0.11148 0.68555 0.30428 0.0
H483 H 0.13641 0.67026 0.31125 0.0
N484 N 0.16246 0.66181 0.32873 0.0
N485 N 0.18708 0.65968 0.34467 0.0
N486 N 0.16868 0.6808 0.34995 0.0
C487 C 0.17685 0.65396 0.33225 0.0
C488 C 0.18305 0.67304 0.35367 0.0
C489 C 0.15835 0.67537 0.33746 0.0
C490 C 0.18124 0.63897 0.32306 0.0
C491 C 0.169 0.6279 0.31702 0.0
C492 C 0.17332 0.61292 0.3099 0.0
C493 C 0.18994 0.60899 0.30825 0.0
C494 C 0.20215 0.62039 0.31359 0.0
C495 C 0.19785 0.63514 0.32109 0.0
C496 C 0.19408 0.67891 0.36758 0.0
C497 C 0.20964 0.6719 0.37057 0.0
C498 C 0.21994 0.67733 0.38375 0.0
C499 C 0.21491 0.68984 0.39433 0.0
C500 C 0.19935 0.69683 0.39138 0.0
C501 C 0.18908 0.69147 0.37815 0.0
C502 C 0.14288 0.68434 0.33336 0.0
C503 C 0.13795 0.69739 0.34337 0.0
C504 C 0.82332 0.62555 0.31507 0.0
C505 C 0.81628 0.61547 0.32701 0.0
C506 C 0.81645 0.621 0.34341 0.0
C507 C 0.82341 0.63635 0.34776 0.0
H508 H 0.82715 0.67314 0.38642 0.0
H509 H 0.81973 0.68846 0.41103 0.0
H510 H 0.83382 0.73397 0.38785 0.0
H511 H 0.84149 0.71878 0.36345 0.0
H512 H 0.87295 0.71361 0.34084 0.0
H513 H 0.89391 0.72661 0.3249 0.0
H514 H 0.89114 0.68629 0.29018 0.0
H515 H 0.87005 0.67287 0.30647 0.0
H516 H 0.83598 0.64815 0.30996 0.0
H517 H 0.8235 0.62153 0.30236 0.0
H518 H 0.81109 0.61349 0.35286 0.0
H519 H 0.82331 0.64026 0.36051 0.0
N520 N 0.83362 0.67057 0.35425 0.0
N521 N 0.85166 0.69238 0.3486 0.0
N522 N 0.84981 0.66958 0.3309 0.0
C523 C 0.84019 0.6856 0.35829 0.0
C524 C 0.85668 0.68447 0.33499 0.0
C525 C 0.83827 0.66254 0.34048 0.0
C526 C 0.83497 0.69472 0.373 0.0
C527 C 0.82859 0.68642 0.38656 0.0
C528 C 0.82442 0.69516 0.40066 0.0
C529 C 0.8262 0.7124 0.40132 0.0
C530 C 0.83223 0.72071 0.38763 0.0
C531 C 0.8367 0.71197 0.37371 0.0
C532 C 0.86961 0.69218 0.32493 0.0
C533 C 0.87668 0.7074 0.32982 0.0
C534 C 0.88872 0.71496 0.3206 0.0
C535 C 0.89406 0.70762 0.30611 0.0
C536 C 0.8873 0.69225 0.30129 0.0
C537 C 0.87515 0.68461 0.31059 0.0
C538 C 0.83069 0.64635 0.33586 0.0
C539 C 0.83058 0.64074 0.31946 0.0
C540 C 0.81922 0.34218 0.40511 0.0
C541 C 0.82769 0.33228 0.41671 0.0
C542 C 0.84334 0.32651 0.41313 0.0
C543 C 0.85042 0.33051 0.39826 0.0
H544 H 0.88354 0.31253 0.3665 0.0
H545 H 0.90632 0.29613 0.35759 0.0
H546 H 0.90916 0.3258 0.3137 0.0
H547 H 0.88655 0.34251 0.32276 0.0
H548 H 0.85558 0.36897 0.3152 0.0
H549 H 0.84867 0.39444 0.30051 0.0
H550 H 0.83182 0.41549 0.34548 0.0
H551 H 0.83835 0.38999 0.36014 0.0
H552 H 0.8197 0.35419 0.38161 0.0
H553 H 0.80714 0.3468 0.4076 0.0
H554 H 0.85007 0.31873 0.4218 0.0
H555 H 0.86252 0.32582 0.39593 0.0
N556 N 0.86214 0.33546 0.36539 0.0
N557 N 0.86447 0.35267 0.34245 0.0
N558 N 0.84505 0.35836 0.36225 0.0
C559 C 0.86949 0.33921 0.35112 0.0
C560 C 0.8523 0.36233 0.34796 0.0
C561 C 0.84987 0.34488 0.371 0.0
C562 C 0.88315 0.32892 0.34538 0.0
C563 C 0.88896 0.31559 0.35492 0.0
C564 C 0.90201 0.30609 0.34976 0.0
C565 C 0.90961 0.30962 0.33492 0.0
C566 C 0.90375 0.32287 0.32531 0.0
C567 C 0.8907 0.3324 0.33048 0.0
C568 C 0.84752 0.37746 0.33885 0.0
C569 C 0.85031 0.379 0.32194 0.0
C570 C 0.8463 0.39352 0.31351 0.0
C571 C 0.83978 0.4069 0.3219 0.0
C572 C 0.83692 0.40536 0.33876 0.0
C573 C 0.84058 0.39073 0.34711 0.0
C574 C 0.84212 0.34061 0.38669 0.0
C575 C 0.82645 0.34645 0.3903 0.0
C576 C 0.64042 0.20239 0.67994 0.0
C577 C 0.63247 0.19162 0.69069 0.0
C578 C 0.6384 0.17558 0.69272 0.0
C579 C 0.65224 0.17054 0.68458 0.0
H580 H 0.69138 0.14287 0.69577 0.0
H581 H 0.70742 0.12269 0.71101 0.0
H582 H 0.74419 0.12411 0.67421 0.0
H583 H 0.72801 0.14459 0.65862 0.0
H584 H 0.72265 0.16992 0.62927 0.0
H585 H 0.73195 0.18117 0.60361 0.0
H586 H 0.6917 0.21529 0.60206 0.0
H587 H 0.68227 0.20408 0.62808 0.0
H588 H 0.66023 0.20587 0.66355 0.0
H589 H 0.63603 0.2148 0.67807 0.0
H590 H 0.63262 0.16706 0.70103 0.0
H591 H 0.65662 0.15816 0.6867 0.0
N592 N 0.68459 0.16378 0.67365 0.0
N593 N 0.70428 0.16601 0.65359 0.0
N594 N 0.68139 0.18345 0.65273 0.0
C595 C 0.69885 0.15867 0.66739 0.0
C596 C 0.69563 0.17839 0.64613 0.0
C597 C 0.67579 0.17608 0.66649 0.0
C598 C 0.70844 0.14556 0.67599 0.0
C599 C 0.70283 0.13895 0.69077 0.0
C600 C 0.71207 0.12737 0.69959 0.0
C601 C 0.72716 0.12201 0.69391 0.0
C602 C 0.73259 0.12808 0.67886 0.0
C603 C 0.72335 0.13983 0.67 0.0
C604 C 0.70159 0.18595 0.63077 0.0
C605 C 0.71572 0.17985 0.62359 0.0
C606 C 0.72104 0.18625 0.60878 0.0
C607 C 0.71243 0.19898 0.60068 0.0
C608 C 0.69858 0.20549 0.60802 0.0
C609 C 0.69317 0.199 0.62289 0.0
C610 C 0.66041 0.18134 0.67403 0.0
C611 C 0.65419 0.19725 0.67156 0.0
C612 C 0.36247 0.14704 0.72667 0.0
C613 C 0.34695 0.14026 0.72205 0.0
C614 C 0.33838 0.14684 0.70824 0.0
C615 C 0.34509 0.15983 0.69931 0.0
H616 H 0.33341 0.1926 0.66107 0.0
H617 H 0.31783 0.20654 0.63877 0.0
H618 H 0.36143 0.23431 0.62715 0.0
H619 H 0.37687 0.22071 0.64919 0.0
H620 H 0.41043 0.21402 0.66833 0.0
H621 H 0.43722 0.2267 0.67488 0.0
H622 H 0.43301 0.21353 0.72597 0.0
H623 H 0.40611 0.20048 0.7194 0.0
H624 H 0.38117 0.16497 0.7217 0.0
H625 H 0.36935 0.14242 0.73735 0.0
H626 H 0.32652 0.14178 0.70413 0.0
H627 H 0.33808 0.16444 0.68872 0.0
N628 N 0.35923 0.18637 0.68075 0.0
N629 N 0.3809 0.2047 0.67579 0.0
N630 N 0.38294 0.18679 0.69836 0.0
C631 C 0.36573 0.19858 0.6715 0.0
C632 C 0.38959 0.19898 0.68915 0.0
C633 C 0.36777 0.18032 0.69416 0.0
C634 C 0.35636 0.20569 0.65715 0.0
C635 C 0.3397 0.20157 0.65366 0.0
C636 C 0.33077 0.20949 0.64086 0.0
C637 C 0.33835 0.22169 0.6314 0.0
C638 C 0.35515 0.22521 0.63445 0.0
C639 C 0.36402 0.21735 0.64712 0.0
C640 C 0.40611 0.20619 0.69335 0.0
C641 C 0.41517 0.21377 0.68098 0.0
C642 C 0.43055 0.22102 0.6847 0.0
C643 C 0.43715 0.22115 0.70092 0.0
C644 C 0.42812 0.2137 0.71337 0.0
C645 C 0.41281 0.20612 0.70959 0.0
C646 C 0.36061 0.16664 0.70391 0.0
C647 C 0.36921 0.16007 0.71773 0.0
C648 C 0.30774 0.82266 0.64276 0.0
C649 C 0.30596 0.83058 0.62746 0.0
C650 C 0.31009 0.84741 0.62637 0.0
C651 C 0.31652 0.85599 0.64024 0.0
H652 H 0.30677 0.89358 0.68482 0.0
H653 H 0.29897 0.91795 0.70019 0.0
H654 H 0.34756 0.92015 0.72366 0.0
H655 H 0.35517 0.89565 0.70876 0.0
H656 H 0.37836 0.86223 0.70861 0.0
H657 H 0.40213 0.84565 0.71748 0.0
H658 H 0.38377 0.80563 0.6866 0.0
H659 H 0.36024 0.82177 0.67801 0.0
H660 H 0.31664 0.82445 0.66788 0.0
H661 H 0.3048 0.80968 0.64392 0.0
H662 H 0.30881 0.85377 0.61469 0.0
H663 H 0.32032 0.86874 0.63897 0.0
N664 N 0.32604 0.87016 0.67521 0.0
N665 N 0.34931 0.86804 0.69334 0.0
N666 N 0.3427 0.84686 0.6746 0.0
C667 C 0.33587 0.87661 0.6877 0.0
C668 C 0.35279 0.85312 0.68677 0.0
C669 C 0.32946 0.85522 0.6687 0.0
C670 C 0.33156 0.89243 0.6957 0.0
C671 C 0.31585 0.89934 0.69316 0.0
C672 C 0.31137 0.91339 0.70192 0.0
C673 C 0.32252 0.92092 0.71339 0.0
C674 C 0.33848 0.91447 0.71526 0.0
C675 C 0.34289 0.9004 0.70663 0.0
C676 C 0.36729 0.84339 0.69261 0.0
C677 C 0.37939 0.84987 0.70379 0.0
C678 C 0.39305 0.84041 0.70879 0.0
C679 C 0.39479 0.82427 0.70283 0.0
C680 C 0.3827 0.81789 0.69167 0.0
C681 C 0.3692 0.82728 0.68665 0.0
C682 C 0.31924 0.84772 0.65524 0.0
C683 C 0.3145 0.8311 0.65645 0.0
C684 C 0.62181 0.84673 0.70861 0.0
C685 C 0.61356 0.83277 0.70206 0.0
C686 C 0.61944 0.82549 0.68773 0.0
C687 C 0.6334 0.83194 0.68026 0.0
H688 H 0.66727 0.82587 0.64087 0.0
H689 H 0.67963 0.81555 0.61595 0.0
H690 H 0.7139 0.85663 0.61735 0.0
H691 H 0.70155 0.86704 0.64183 0.0
H692 H 0.70622 0.88919 0.67224 0.0
H693 H 0.72062 0.9115 0.68704 0.0
H694 H 0.68519 0.90886 0.72516 0.0
H695 H 0.67056 0.88678 0.71028 0.0
H696 H 0.64159 0.86393 0.70674 0.0
H697 H 0.61746 0.85286 0.71942 0.0
H698 H 0.61343 0.81463 0.68243 0.0
H699 H 0.6377 0.82597 0.66935 0.0
N700 N 0.66269 0.84677 0.66533 0.0
N701 N 0.68425 0.86634 0.667 0.0
N702 N 0.66479 0.86557 0.68732 0.0
C703 C 0.67649 0.85358 0.65894 0.0
C704 C 0.67852 0.87239 0.68119 0.0
C705 C 0.65675 0.85283 0.67957 0.0
C706 C 0.68339 0.84728 0.64346 0.0
C707 C 0.67736 0.83275 0.63579 0.0
C708 C 0.68451 0.82679 0.62155 0.0
C709 C 0.69775 0.83529 0.6146 0.0
C710 C 0.70358 0.8499 0.62217 0.0
C711 C 0.69653 0.85579 0.63637 0.0
C712 C 0.68722 0.88613 0.69004 0.0
C713 C 0.70145 0.89336 0.68375 0.0
C714 C 0.70977 0.90611 0.69228 0.0
C715 C 0.70407 0.91192 0.7073 0.0
C716 C 0.68979 0.90479 0.71353 0.0
C717 C 0.68146 0.89205 0.70501 0.0
C718 C 0.64173 0.84583 0.68697 0.0
C719 C 0.63567 0.85315 0.7012 0.0
C720 C 0.61759 0.82908 0.32497 0.0
C721 C 0.60802 0.84094 0.31664 0.0
C722 C 0.6136 0.85736 0.31649 0.0
C723 C 0.62858 0.86182 0.32446 0.0
H724 H 0.67565 0.88561 0.31405 0.0
H725 H 0.68941 0.91014 0.30427 0.0
H726 H 0.71232 0.91781 0.35267 0.0
H727 H 0.69897 0.89265 0.36231 0.0
H728 H 0.70417 0.84933 0.37861 0.0
H729 H 0.71254 0.83431 0.40369 0.0
H730 H 0.66258 0.81705 0.40844 0.0
H731 H 0.65422 0.83172 0.38337 0.0
H732 H 0.63941 0.82422 0.33976 0.0
H733 H 0.61346 0.81635 0.32532 0.0
H734 H 0.6064 0.8667 0.31014 0.0
H735 H 0.63259 0.87458 0.32415 0.0
N736 N 0.66253 0.86797 0.33682 0.0
N737 N 0.68202 0.86415 0.35858 0.0
N738 N 0.65903 0.8464 0.3555 0.0
C739 C 0.67676 0.87268 0.34496 0.0
C740 C 0.67317 0.85095 0.36391 0.0
C741 C 0.65363 0.85485 0.34197 0.0
C742 C 0.68608 0.88721 0.33902 0.0
C743 C 0.68367 0.89246 0.32263 0.0
C744 C 0.6915 0.90666 0.31704 0.0
C745 C 0.7018 0.91623 0.32771 0.0
C746 C 0.70458 0.91074 0.34403 0.0
C747 C 0.69687 0.89633 0.34959 0.0
C748 C 0.67851 0.84177 0.37897 0.0
C749 C 0.69499 0.84228 0.38497 0.0
C750 C 0.69981 0.83361 0.39925 0.0
C751 C 0.6882 0.82452 0.40798 0.0
C752 C 0.67177 0.82399 0.40198 0.0
C753 C 0.66701 0.83238 0.38758 0.0
C754 C 0.63804 0.85002 0.33308 0.0
C755 C 0.63237 0.8336 0.33328 0.0
C756 C 0.62342 0.22425 0.32864 0.0
C757 C 0.61137 0.21804 0.31733 0.0
C758 C 0.61313 0.20201 0.31111 0.0
C759 C 0.62689 0.19258 0.31579 0.0
H760 H 0.65183 0.1452 0.31058 0.0
H761 H 0.65964 0.11948 0.29727 0.0
H762 H 0.71065 0.12967 0.31062 0.0
H763 H 0.70292 0.15511 0.3241 0.0
H764 H 0.70813 0.17459 0.35978 0.0
H765 H 0.72593 0.18485 0.38251 0.0
H766 H 0.69102 0.22303 0.39179 0.0
H767 H 0.67343 0.21308 0.36892 0.0
H768 H 0.64608 0.22017 0.34209 0.0
H769 H 0.62235 0.23648 0.33377 0.0
H770 H 0.60409 0.19693 0.30228 0.0
H771 H 0.62801 0.18039 0.31058 0.0
N772 N 0.65799 0.17541 0.32345 0.0
N773 N 0.68223 0.1731 0.34004 0.0
N774 N 0.66433 0.19488 0.34421 0.0
C775 C 0.67214 0.16727 0.32752 0.0
C776 C 0.67837 0.18683 0.34853 0.0
C777 C 0.65407 0.18936 0.33171 0.0
C778 C 0.67673 0.15218 0.31849 0.0
C779 C 0.66472 0.14201 0.31055 0.0
C780 C 0.66917 0.12727 0.30298 0.0
C781 C 0.68576 0.1226 0.30287 0.0
C782 C 0.69779 0.13302 0.31037 0.0
C783 C 0.69333 0.14754 0.3182 0.0
C784 C 0.6893 0.193 0.36241 0.0
C785 C 0.70424 0.18519 0.36663 0.0
C786 C 0.71442 0.19102 0.37976 0.0
C787 C 0.70995 0.20479 0.389 0.0
C788 C 0.69501 0.21255 0.3848 0.0
C789 C 0.68485 0.20676 0.37169 0.0
C790 C 0.63909 0.19892 0.32696 0.0
C791 C 0.63702 0.21481 0.33345 0.0
C792 C 0.32608 0.11919 0.33787 0.0
C793 C 0.30985 0.11609 0.34238 0.0
C794 C 0.30119 0.12862 0.35001 0.0
C795 C 0.30873 0.14393 0.35333 0.0
H796 H 0.31078 0.18141 0.38915 0.0
H797 H 0.30302 0.19774 0.41266 0.0
H798 H 0.34149 0.23311 0.40293 0.0
H799 H 0.34948 0.21669 0.37951 0.0
H800 H 0.36963 0.21303 0.34757 0.0
H801 H 0.39102 0.22304 0.32988 0.0
H802 H 0.38716 0.17805 0.30154 0.0
H803 H 0.36594 0.16785 0.31937 0.0
H804 H 0.34602 0.13662 0.33719 0.0
H805 H 0.33298 0.10972 0.33191 0.0
H806 H 0.28867 0.12648 0.35364 0.0
H807 H 0.3018 0.15334 0.35935 0.0
N808 N 0.32821 0.17279 0.36482 0.0
N809 N 0.34796 0.19284 0.35847 0.0
N810 N 0.34531 0.16874 0.34263 0.0
C811 C 0.33572 0.18755 0.36815 0.0
C812 C 0.3528 0.18356 0.34564 0.0
C813 C 0.33298 0.1633 0.35212 0.0
C814 C 0.33078 0.19768 0.38235 0.0
C815 C 0.31762 0.19266 0.39196 0.0
C816 C 0.31309 0.20208 0.40543 0.0
C817 C 0.32162 0.21675 0.40967 0.0
C818 C 0.33478 0.22178 0.4001 0.0
C819 C 0.33929 0.21239 0.38659 0.0
C820 C 0.36599 0.1896 0.33494 0.0
C821 C 0.37332 0.20522 0.3376 0.0
C822 C 0.38553 0.21103 0.32738 0.0
C823 C 0.39077 0.20137 0.31425 0.0
C824 C 0.38353 0.18573 0.31164 0.0
C825 C 0.37128 0.17992 0.32184 0.0
C826 C 0.32495 0.1471 0.34872 0.0
C827 C 0.3335 0.13459 0.34084 0.0
C828 C 0.29738 0.83029 0.39184 0.0
C829 C 0.30396 0.82107 0.40506 0.0
C830 C 0.32095 0.81804 0.40598 0.0
C831 C 0.33114 0.82395 0.39374 0.0
H832 H 0.37703 0.81685 0.37122 0.0
H833 H 0.40254 0.80327 0.36447 0.0
H834 H 0.40274 0.82942 0.31827 0.0
H835 H 0.37734 0.843 0.32491 0.0
H836 H 0.35534 0.87766 0.32347 0.0
H837 H 0.34451 0.90105 0.30755 0.0
H838 H 0.29767 0.89476 0.33006 0.0
H839 H 0.3082 0.87159 0.34566 0.0
H840 H 0.30204 0.8435 0.36977 0.0
H841 H 0.28434 0.83286 0.39087 0.0
H842 H 0.32629 0.81085 0.41601 0.0
H843 H 0.34417 0.82135 0.39471 0.0
N844 N 0.34997 0.83306 0.36467 0.0
N845 N 0.35368 0.8518 0.34304 0.0
N846 N 0.32979 0.85256 0.35811 0.0
C847 C 0.35928 0.83894 0.35234 0.0
C848 C 0.33896 0.85871 0.34591 0.0
C849 C 0.33515 0.83982 0.36757 0.0
C850 C 0.37507 0.83102 0.34861 0.0
C851 C 0.38251 0.81974 0.35964 0.0
C852 C 0.39717 0.812 0.35581 0.0
C853 C 0.40458 0.81521 0.34081 0.0
C854 C 0.39721 0.82655 0.32984 0.0
C855 C 0.38269 0.83442 0.33373 0.0
C856 C 0.33266 0.87269 0.33586 0.0
C857 C 0.3427 0.88122 0.32492 0.0
C858 C 0.33654 0.89465 0.31585 0.0
C859 C 0.32019 0.89963 0.31742 0.0
C860 C 0.31022 0.89104 0.32831 0.0
C861 C 0.31634 0.87779 0.33739 0.0
C862 C 0.32456 0.83327 0.38054 0.0
C863 C 0.30757 0.83643 0.37979 0.0
C864 C 0.62893 0.70792 0.19619 0.0
C865 C 0.62502 0.69849 0.21004 0.0
C866 C 0.63402 0.68417 0.21349 0.0
C867 C 0.64666 0.67944 0.20342 0.0
H868 H 0.68062 0.64424 0.1989 0.0
H869 H 0.69826 0.62241 0.20916 0.0
H870 H 0.73313 0.63378 0.17198 0.0
H871 H 0.71518 0.65558 0.16135 0.0
H872 H 0.69316 0.67518 0.12733 0.0
H873 H 0.6976 0.68978 0.10151 0.0
H874 H 0.67728 0.73377 0.12188 0.0
H875 H 0.67245 0.71914 0.1476 0.0
H876 H 0.64428 0.71078 0.17556 0.0
H877 H 0.6224 0.71915 0.19328 0.0
H878 H 0.63119 0.67647 0.2239 0.0
H879 H 0.65327 0.6683 0.2065 0.0
N880 N 0.67361 0.67073 0.18334 0.0
N881 N 0.68881 0.67399 0.15964 0.0
N882 N 0.66717 0.69195 0.16481 0.0
C883 C 0.68599 0.66577 0.17385 0.0
C884 C 0.67942 0.6871 0.15504 0.0
C885 C 0.66412 0.68375 0.17896 0.0
C886 C 0.6965 0.65183 0.17936 0.0
C887 C 0.69201 0.64213 0.19282 0.0
C888 C 0.7022 0.62962 0.19879 0.0
C889 C 0.71726 0.62648 0.19156 0.0
C890 C 0.72159 0.63583 0.1778 0.0
C891 C 0.71131 0.64837 0.17174 0.0
C892 C 0.68244 0.696 0.13951 0.0
C893 C 0.68965 0.68797 0.12632 0.0
C894 C 0.6921 0.69627 0.11152 0.0
C895 C 0.68775 0.71287 0.10975 0.0
C896 C 0.68077 0.72098 0.12298 0.0
C897 C 0.67796 0.71258 0.13765 0.0
C898 C 0.65063 0.68887 0.18958 0.0
C899 C 0.64157 0.70316 0.18607 0.0
C900 C 0.33092 0.64963 0.22593 0.0
C901 C 0.31952 0.63802 0.21934 0.0
C902 C 0.31413 0.63947 0.20273 0.0
C903 C 0.32013 0.65225 0.19291 0.0
H904 H 0.31018 0.68259 0.15 0.0
H905 H 0.29872 0.6906 0.12284 0.0
H906 H 0.34073 0.72261 0.11635 0.0
H907 H 0.3522 0.71465 0.14309 0.0
H908 H 0.38021 0.71966 0.17121 0.0
H909 H 0.40769 0.7295 0.18068 0.0
H910 H 0.40639 0.6964 0.2221 0.0
H911 H 0.37931 0.68662 0.2129 0.0
H912 H 0.34593 0.67078 0.22169 0.0
H913 H 0.33547 0.64876 0.23861 0.0
H914 H 0.30526 0.63076 0.19734 0.0
H915 H 0.3159 0.65296 0.18012 0.0
N916 N 0.33231 0.6811 0.17433 0.0
N917 N 0.3542 0.6998 0.17059 0.0
N918 N 0.35375 0.6837 0.19438 0.0
C919 C 0.33966 0.69283 0.16502 0.0
C920 C 0.36133 0.69527 0.18527 0.0
C921 C 0.33931 0.67655 0.18912 0.0
C922 C 0.33222 0.69785 0.14877 0.0
C923 C 0.31697 0.69134 0.14277 0.0
C924 C 0.31034 0.69597 0.12725 0.0
C925 C 0.31891 0.70708 0.11735 0.0
C926 C 0.33396 0.71377 0.1235 0.0
C927 C 0.34051 0.70924 0.13895 0.0
C928 C 0.37754 0.70221 0.19118 0.0
C929 C 0.38577 0.71455 0.18238 0.0
C930 C 0.40145 0.72024 0.18781 0.0
C931 C 0.40923 0.71355 0.20199 0.0
C932 C 0.40082 0.70158 0.21096 0.0
C933 C 0.38521 0.69602 0.20568 0.0
C934 C 0.33181 0.66364 0.19948 0.0
C935 C 0.33701 0.66221 0.21614 0.0
C936 C 0.32062 0.32096 0.13442 0.0
C937 C 0.30383 0.3242 0.1314 0.0
C938 C 0.29584 0.33456 0.14229 0.0
C939 C 0.30447 0.34164 0.15582 0.0
H940 H 0.30257 0.38109 0.18558 0.0
H941 H 0.29114 0.40599 0.19666 0.0
H942 H 0.33397 0.412 0.2294 0.0
H943 H 0.34569 0.38707 0.21808 0.0
H944 H 0.37282 0.35703 0.21919 0.0
H945 H 0.39937 0.34576 0.22863 0.0
H946 H 0.39594 0.30999 0.18929 0.0
H947 H 0.36976 0.32116 0.17978 0.0
H948 H 0.34214 0.32508 0.15011 0.0
H949 H 0.32706 0.3129 0.1263 0.0
H950 H 0.28293 0.33734 0.14023 0.0
H951 H 0.29791 0.34962 0.16389 0.0
N952 N 0.32412 0.35952 0.18056 0.0
N953 N 0.34675 0.36069 0.19941 0.0
N954 N 0.34489 0.33997 0.17916 0.0
C955 C 0.3322 0.36698 0.19356 0.0
C956 C 0.35317 0.34711 0.1923 0.0
C957 C 0.33033 0.34607 0.17326 0.0
C958 C 0.32513 0.38199 0.20089 0.0
C959 C 0.30963 0.38764 0.19515 0.0
C960 C 0.30298 0.40192 0.20158 0.0
C961 C 0.31161 0.41102 0.21392 0.0
C962 C 0.32708 0.40538 0.21975 0.0
C963 C 0.33375 0.39102 0.21334 0.0
C964 C 0.36911 0.34015 0.19859 0.0
C965 C 0.37772 0.34675 0.21256 0.0
C966 C 0.3929 0.34024 0.21806 0.0
C967 C 0.39987 0.32709 0.20962 0.0
C968 C 0.39109 0.32031 0.19591 0.0
C969 C 0.37597 0.32672 0.19048 0.0
C970 C 0.32126 0.33834 0.15894 0.0
C971 C 0.32922 0.32784 0.14812 0.0
C972 C 0.62088 0.34051 0.2103 0.0
C973 C 0.61314 0.32856 0.19999 0.0
C974 C 0.61827 0.32674 0.18386 0.0
C975 C 0.63144 0.336 0.17834 0.0
H976 H 0.66305 0.32992 0.14522 0.0
H977 H 0.67532 0.31425 0.12372 0.0
H978 H 0.72024 0.34281 0.13009 0.0
H979 H 0.70789 0.35882 0.15199 0.0
H980 H 0.70737 0.3881 0.17909 0.0
H981 H 0.72096 0.41166 0.19226 0.0
H982 H 0.68099 0.41602 0.22531 0.0
H983 H 0.66735 0.39206 0.21226 0.0
H984 H 0.64058 0.35837 0.21316 0.0
H985 H 0.61707 0.34211 0.22281 0.0
H986 H 0.61233 0.31778 0.17562 0.0
H987 H 0.63521 0.33387 0.16589 0.0
N988 N 0.66264 0.34821 0.17011 0.0
N989 N 0.68469 0.36682 0.17273 0.0
N990 N 0.66318 0.36774 0.19133 0.0
C991 C 0.67712 0.35396 0.1647 0.0
C992 C 0.67777 0.37387 0.18602 0.0
C993 C 0.65553 0.35487 0.18329 0.0
C994 C 0.68454 0.34556 0.15058 0.0
C995 C 0.67554 0.33302 0.14214 0.0
C996 C 0.68258 0.32394 0.12978 0.0
C997 C 0.69881 0.32712 0.12541 0.0
C998 C 0.70769 0.34009 0.13326 0.0
C999 C 0.70063 0.34922 0.1458 0.0
C1000 C 0.68615 0.38814 0.19449 0.0
C1001 C 0.70139 0.394 0.18916 0.0
C1002 C 0.70918 0.40764 0.19667 0.0
C1003 C 0.70199 0.4159 0.20973 0.0
C1004 C 0.6869 0.40991 0.21532 0.0
C1005 C 0.67906 0.39621 0.20777 0.0
C1006 C 0.64002 0.34724 0.18885 0.0
C1007 C 0.6343 0.34979 0.20477 0.0
C1008 C 0.64772 0.32925 0.83078 0.0
C1009 C 0.64052 0.33761 0.81722 0.0
C1010 C 0.64711 0.353 0.81285 0.0
C1011 C 0.66079 0.35972 0.82169 0.0
H1012 H 0.69957 0.39536 0.81844 0.0
H1013 H 0.71722 0.41733 0.80793 0.0
H1014 H 0.74887 0.41406 0.85173 0.0
H1015 H 0.73158 0.39234 0.86218 0.0
H1016 H 0.71848 0.37318 0.89272 0.0
H1017 H 0.73164 0.36109 0.91703 0.0
H1018 H 0.71137 0.31342 0.90306 0.0
H1019 H 0.69766 0.32575 0.87872 0.0
H1020 H 0.66643 0.32914 0.85001 0.0
H1021 H 0.64279 0.31748 0.83462 0.0
H1022 H 0.64188 0.3597 0.80243 0.0
H1023 H 0.66562 0.37155 0.81791 0.0
N1024 N 0.69092 0.37163 0.83883 0.0
N1025 N 0.709 0.37099 0.86197 0.0
N1026 N 0.6878 0.35132 0.85921 0.0
C1027 C 0.70424 0.37799 0.84746 0.0
C1028 C 0.70096 0.35776 0.86797 0.0
C1029 C 0.68258 0.35831 0.84467 0.0
C1030 C 0.71414 0.39194 0.84111 0.0
C1031 C 0.71025 0.39938 0.82585 0.0
C1032 C 0.72033 0.41199 0.81985 0.0
C1033 C 0.73453 0.41728 0.82894 0.0
C1034 C 0.7382 0.41005 0.8443 0.0
C1035 C 0.72815 0.39761 0.85031 0.0
C1036 C 0.70718 0.35038 0.88366 0.0
C1037 C 0.71669 0.36013 0.89485 0.0
C1038 C 0.72434 0.35317 0.90877 0.0
C1039 C 0.72289 0.33621 0.91185 0.0
C1040 C 0.71274 0.32654 0.90108 0.0
C1041 C 0.70489 0.33358 0.88713 0.0
C1042 C 0.66805 0.35129 0.83522 0.0
C1043 C 0.66125 0.33601 0.83968 0.0
C1044 C 0.63458 0.69993 0.82418 0.0
C1045 C 0.63013 0.69372 0.80839 0.0
C1046 C 0.64035 0.68205 0.80136 0.0
C1047 C 0.6545 0.6766 0.80987 0.0
H1048 H 0.68605 0.6402 0.80866 0.0
H1049 H 0.70008 0.61799 0.79544 0.0
H1050 H 0.7396 0.62137 0.83249 0.0
H1051 H 0.72566 0.64404 0.84569 0.0
H1052 H 0.72271 0.67213 0.87487 0.0
H1053 H 0.73498 0.68835 0.89784 0.0
H1054 H 0.69462 0.72221 0.89354 0.0
H1055 H 0.68242 0.70629 0.87079 0.0
H1056 H 0.65189 0.69952 0.84483 0.0
H1057 H 0.62693 0.70881 0.83007 0.0
H1058 H 0.63757 0.67724 0.78911 0.0
H1059 H 0.66201 0.66763 0.80392 0.0
N1060 N 0.68216 0.66377 0.82835 0.0
N1061 N 0.70246 0.66588 0.8496 0.0
N1062 N 0.68041 0.68437 0.8483 0.0
C1063 C 0.69624 0.65816 0.83576 0.0
C1064 C 0.69458 0.67901 0.85599 0.0
C1065 C 0.67414 0.67679 0.83445 0.0
C1066 C 0.70473 0.64405 0.82827 0.0
C1067 C 0.69771 0.63626 0.81411 0.0
C1068 C 0.70572 0.62338 0.80652 0.0
C1069 C 0.72097 0.61786 0.81286 0.0
C1070 C 0.72794 0.62546 0.82715 0.0
C1071 C 0.71991 0.6384 0.83479 0.0
C1072 C 0.70163 0.68796 0.87076 0.0
C1073 C 0.71638 0.68297 0.8789 0.0
C1074 C 0.7234 0.6922 0.89212 0.0
C1075 C 0.71588 0.70666 0.89737 0.0
C1076 C 0.70087 0.71127 0.88962 0.0
C1077 C 0.69384 0.70207 0.87655 0.0
C1078 C 0.65897 0.68276 0.82565 0.0
C1079 C 0.64887 0.69455 0.83269 0.0
C1080 C 0.35315 0.64256 0.81974 0.0
C1081 C 0.33811 0.63649 0.82533 0.0
C1082 C 0.33173 0.64354 0.8395 0.0
C1083 C 0.33997 0.6568 0.84752 0.0
H1084 H 0.33866 0.68987 0.88767 0.0
H1085 H 0.32902 0.70333 0.91231 0.0
H1086 H 0.36872 0.73901 0.91021 0.0
H1087 H 0.37853 0.72552 0.88591 0.0
H1088 H 0.40384 0.72447 0.85877 0.0
H1089 H 0.42922 0.73458 0.84698 0.0
H1090 H 0.4262 0.69527 0.81113 0.0
H1091 H 0.40109 0.68502 0.82291 0.0
H1092 H 0.3728 0.66002 0.8228 0.0
H1093 H 0.35859 0.63719 0.80907 0.0
H1094 H 0.32016 0.63913 0.84409 0.0
H1095 H 0.33458 0.66219 0.8582 0.0
N1096 N 0.3576 0.68503 0.86299 0.0
N1097 N 0.37931 0.70441 0.86288 0.0
N1098 N 0.37723 0.6839 0.84265 0.0
C1099 C 0.36553 0.69843 0.86983 0.0
C1100 C 0.38526 0.69725 0.8493 0.0
C1101 C 0.36342 0.67768 0.84936 0.0
C1102 C 0.3594 0.70654 0.88475 0.0
C1103 C 0.34535 0.70057 0.89246 0.0
C1104 C 0.33977 0.70833 0.90655 0.0
C1105 C 0.34813 0.72222 0.91327 0.0
C1106 C 0.36214 0.72819 0.90554 0.0
C1107 C 0.3677 0.72047 0.89149 0.0
C1108 C 0.40042 0.70382 0.8419 0.0
C1109 C 0.40857 0.71797 0.84837 0.0
C1110 C 0.42308 0.72385 0.84157 0.0
C1111 C 0.42981 0.71565 0.82823 0.0
C1112 C 0.42151 0.7017 0.8216 0.0
C1113 C 0.40702 0.69587 0.82833 0.0
C1114 C 0.3548 0.66317 0.84157 0.0
C1115 C 0.36135 0.65568 0.82771 0.0
C1116 C 0.34125 0.32956 0.90562 0.0
C1117 C 0.35191 0.32235 0.9176 0.0
C1118 C 0.36887 0.32566 0.91702 0.0
C1119 C 0.37515 0.33491 0.90424 0.0
H1120 H 0.41269 0.32644 0.87544 0.0
H1121 H 0.43697 0.31261 0.86648 0.0
H1122 H 0.43407 0.33943 0.82061 0.0
H1123 H 0.40937 0.35325 0.82949 0.0
H1124 H 0.38382 0.38371 0.82818 0.0
H1125 H 0.37242 0.40746 0.81384 0.0
H1126 H 0.3322 0.40804 0.8469 0.0
H1127 H 0.34345 0.38404 0.86118 0.0
H1128 H 0.33921 0.34386 0.88335 0.0
H1129 H 0.32811 0.32727 0.90569 0.0
H1130 H 0.37741 0.32078 0.9263 0.0
H1131 H 0.38836 0.33669 0.90391 0.0
N1132 N 0.38628 0.34256 0.872 0.0
N1133 N 0.38631 0.36109 0.85003 0.0
N1134 N 0.36471 0.36124 0.86849 0.0
C1135 C 0.39352 0.34851 0.8585 0.0
C1136 C 0.37196 0.36763 0.85498 0.0
C1137 C 0.37196 0.34872 0.87708 0.0
C1138 C 0.40896 0.34095 0.85316 0.0
C1139 C 0.41717 0.3295 0.86344 0.0
C1140 C 0.43122 0.32162 0.85836 0.0
C1141 C 0.43747 0.32491 0.84284 0.0
C1142 C 0.42944 0.33651 0.83259 0.0
C1143 C 0.41536 0.34451 0.83772 0.0
C1144 C 0.36461 0.38188 0.84593 0.0
C1145 C 0.37252 0.38881 0.83242 0.0
C1146 C 0.36603 0.40255 0.82423 0.0
C1147 C 0.35144 0.40976 0.82925 0.0
C1148 C 0.34339 0.40273 0.8426 0.0
C1149 C 0.3499 0.38898 0.85085 0.0
C1150 C 0.36465 0.34137 0.89179 0.0
C1151 C 0.34757 0.33907 0.89284 0.0
Cu1152 Cu 0.27825 0.258 0.02257 0.0
N1153 N 0.29663 0.26078 0.00981 0.0
N1154 N 0.3116 0.27192 0.9901 0.0
C1155 C 0.29636 0.26921 0.99555 0.0
C1156 C 0.32189 0.26484 1.00138 0.0
C1157 C 0.31263 0.25814 0.01363 0.0
O1158 O 0.25987 0.25419 1.00674 0.0
C1159 C 0.26969 0.28076 0.04843 0.0
O1160 O 0.25681 0.27141 0.05112 0.0
H1161 H 0.28518 0.27389 0.98969 0.0
H1162 H 0.31735 0.25277 0.02499 0.0
N1163 N 0.27992 0.23983 0.0368 0.0
N1164 N 0.27329 0.22206 0.05657 0.0
C1165 C 0.26856 0.23523 0.04756 0.0
C1166 C 0.29215 0.22891 0.03883 0.0
C1167 C 0.2881 0.21794 0.05103 0.0
C1168 C 0.26061 0.2404 0.99927 0.0
O1169 O 0.27254 0.23036 1.00361 0.0
H1170 H 0.25686 0.24119 0.04855 0.0
H1171 H 0.30322 0.22882 0.03195 0.0
O1172 O 0.27834 0.27786 0.03607 0.0
H1173 H 0.3352 0.26542 1.00135 0.0
H1174 H 0.29561 0.20793 0.05567 0.0
Cu1175 Cu 0.77075 0.26632 0.0167 0.0
N1176 N 0.75206 0.26983 0.03052 0.0
N1177 N 0.73658 0.28071 0.04967 0.0
C1178 C 0.74972 0.28295 0.04025 0.0
C1179 C 0.73039 0.26568 0.04552 0.0
C1180 C 0.74 0.25898 0.03369 0.0
O1181 O 0.78272 0.2547 0.03578 0.0
C1182 C 0.76302 0.29013 0.9905 0.0
O1183 O 0.77684 0.29726 0.99577 0.0
H1184 H 0.75792 0.29354 0.04094 0.0
H1185 H 0.73861 0.2469 0.02816 0.0
N1186 N 0.78973 0.26309 1.00308 0.0
N1187 N 0.80539 0.25684 0.98203 0.0
C1188 C 0.78995 0.25693 0.98769 0.0
C1189 C 0.80542 0.26704 1.00736 0.0
C1190 C 0.8151 0.26316 0.99445 0.0
C1191 C 0.78852 0.26244 0.04838 0.0
O1192 O 0.78744 0.27855 0.04887 0.0
H1193 H 0.779 0.25289 0.98078 0.0
H1194 H 0.8095 0.27235 0.01905 0.0
O1195 O 0.75813 0.27707 0.9975 0.0
H1196 H 0.71981 0.25982 0.0508 0.0
H1197 H 0.82834 0.26466 0.9944 0.0
Cu1198 Cu 0.75299 0.7764 1.00414 0.0
N1199 N 0.75465 0.79471 0.99031 0.0
N1200 N 0.76393 0.80939 0.96928 0.0
C1201 C 0.76533 0.79542 0.97812 0.0
C1202 C 0.75197 0.81798 0.97633 0.0
C1203 C 0.74617 0.80882 0.98929 0.0
O1204 O 0.75452 0.75712 0.98958 0.0
C1205 C 0.76652 0.79221 0.03088 0.0
O1206 O 0.75355 0.80099 0.02675 0.0
H1207 H 0.77389 0.78571 0.97571 0.0
H1208 H 0.73633 0.81207 0.99719 0.0
N1209 N 0.73291 0.77443 0.01457 0.0
N1210 N 0.71605 0.76653 0.03418 0.0
C1211 C 0.73176 0.7691 0.03017 0.0
C1212 C 0.71727 0.7753 0.0085 0.0
C1213 C 0.70681 0.77028 0.02059 0.0
C1214 C 0.74498 0.7581 0.97672 0.0
O1215 O 0.73544 0.77094 0.97508 0.0
H1216 H 0.74231 0.76633 0.03819 0.0
H1217 H 0.7137 0.77877 0.99604 0.0
O1218 O 0.76972 0.77977 0.02197 0.0
H1219 H 0.74742 0.82978 0.97213 0.0
H1220 H 0.69354 0.76919 0.01943 0.0
Cu1221 Cu 0.26715 0.77462 0.01763 0.0
N1222 N 0.2661 0.79263 0.03184 0.0
N1223 N 0.25706 0.80666 0.05323 0.0
C1224 C 0.25971 0.79168 0.04684 0.0
C1225 C 0.26202 0.81755 0.04189 0.0
C1226 C 0.26773 0.80884 0.02872 0.0
O1227 O 0.2669 0.75515 0.03181 0.0
C1228 C 0.25233 0.78765 0.98994 0.0
O1229 O 0.26612 0.79619 0.99151 0.0
H1230 H 0.25586 0.78023 0.05241 0.0
H1231 H 0.27186 0.81401 0.01733 0.0
N1232 N 0.28655 0.77402 1.00601 0.0
N1233 N 0.30318 0.76637 0.98626 0.0
C1234 C 0.28857 0.7639 0.99317 0.0
C1235 C 0.30038 0.78329 1.00736 0.0
C1236 C 0.31075 0.7785 0.99521 0.0
C1237 C 0.2805 0.75293 0.03985 0.0
O1238 O 0.29278 0.76322 0.03761 0.0
H1239 H 0.27935 0.75497 0.98893 0.0
H1240 H 0.30263 0.79299 0.01635 0.0
O1241 O 0.2493 0.77676 1.00078 0.0
H1242 H 0.26097 0.83079 0.0428 0.0
H1243 H 0.32268 0.78386 0.99285 0.0
Cu1244 Cu 0.02724 0.2612 0.27104 0.0
N1245 N 0.03972 0.24209 0.27045 0.0
N1246 N 0.05989 0.22562 0.26279 0.0
C1247 C 0.05498 0.24131 0.26466 0.0
C1248 C 0.04725 0.21618 0.26782 0.0
C1249 C 0.03482 0.22637 0.27249 0.0
O1250 O 0.04263 0.27961 0.27474 0.0
C1251 C 0.01483 0.25315 0.2386 0.0
O1252 O 0.02833 0.24467 0.23724 0.0
H1253 H 0.06178 0.25203 0.26071 0.0
H1254 H 0.02271 0.22258 0.27616 0.0
N1255 N 0.01208 0.26075 0.28774 0.0
N1256 N 0.99085 0.26885 0.30227 0.0
C1257 C 1.00063 0.27232 0.28966 0.0
C1258 C 0.00953 0.24951 0.29955 0.0
C1259 C 0.99639 0.25446 0.30852 0.0
C1260 C 0.04679 0.28314 0.28964 0.0
O1261 O 0.03994 0.27495 0.30153 0.0
H1262 H 0.99932 0.28293 0.2817 0.0
H1263 H 0.01668 0.23851 0.30152 0.0
O1264 O 0.01345 0.26256 0.25099 0.0
H1265 H 0.04676 0.20287 0.2676 0.0
H1266 H 0.99143 0.24807 0.31894 0.0
Cu1267 Cu 0.76107 0.02645 0.26334 0.0
N1268 N 0.78033 0.03923 0.26276 0.0
N1269 N 0.79715 0.0598 0.2555 0.0
C1270 C 0.78171 0.05343 0.25436 0.0
C1271 C 0.80583 0.04911 0.26504 0.0
C1272 C 0.79542 0.03645 0.2695 0.0
O1273 O 0.74331 0.04239 0.26076 0.0
C1274 C 0.77275 0.99848 0.24907 0.0
O1275 O 0.78158 0.9993 0.26296 0.0
H1276 H 0.77161 0.05877 0.24721 0.0
H1277 H 0.79866 0.02593 0.27703 0.0
N1278 N 0.75962 0.01543 0.28353 0.0
N1279 N 0.753 0.99589 0.30157 0.0
C1280 C 0.75075 1.0016 0.28605 0.0
C1281 C 0.76774 0.01864 0.29796 0.0
C1282 C 0.76373 1.00655 0.30911 0.0
C1283 C 0.73109 0.04328 0.27005 0.0
O1284 O 0.72816 0.03116 0.28025 0.0
H1285 H 0.74316 0.99559 0.27651 0.0
H1286 H 0.77617 0.02888 0.30015 0.0
O1287 O 0.76219 0.00968 0.24604 0.0
H1288 H 0.81874 0.05038 0.26863 0.0
H1289 H 0.76832 1.00569 0.32177 0.0
Cu1290 Cu 1.00091 0.75951 0.25303 0.0
N1291 N 0.99023 0.77967 0.25043 0.0
N1292 N 0.97076 0.79733 0.24203 0.0
C1293 C 0.97554 0.78149 0.24245 0.0
C1294 C 0.98303 0.80584 0.25007 0.0
C1295 C 0.99502 0.79489 0.25527 0.0
O1296 O 0.98388 0.74269 0.25608 0.0
C1297 C 0.01653 0.7662 0.2228 0.0
O1298 O 1.00468 0.77672 0.21979 0.0
H1299 H 0.96869 0.77133 0.23676 0.0
H1300 H 1.00644 0.79781 0.26201 0.0
N1301 N 0.01532 0.75913 0.27149 0.0
N1302 N 0.03739 0.75142 0.28677 0.0
C1303 C 0.02914 0.75022 0.27206 0.0
C1304 C 0.01468 0.7663 0.28639 0.0
C1305 C 0.0283 0.76151 0.29589 0.0
C1306 C 0.97357 0.74652 0.26683 0.0
O1307 O 0.97566 0.7605 0.27483 0.0
H1308 H 0.03285 0.74266 0.26192 0.0
H1309 H 1.005 0.77433 0.2901 0.0
O1310 O 0.0154 0.75621 0.23479 0.0
H1311 H 0.98328 0.819 0.25219 0.0
H1312 H 0.03132 0.76525 0.30845 0.0
Cu1313 Cu 0.24988 1.00156 0.27861 0.0
N1314 N 0.25284 0.0138 0.29801 0.0
N1315 N 0.26063 0.0351 0.31407 0.0
C1316 C 0.25585 0.03014 0.29873 0.0
C1317 C 0.26054 0.02138 0.3234 0.0
C1318 C 0.25567 1.00826 0.31347 0.0
O1319 O 0.25276 0.01702 0.26068 0.0
C1320 C 0.26219 0.9713 0.28784 0.0
O1321 O 0.24876 0.9714 0.29627 0.0
H1322 H 0.25571 0.03804 0.28801 0.0
H1323 H 0.25517 0.99549 0.31711 0.0
N1324 N 0.22875 0.9921 0.27657 0.0
N1325 N 0.20901 0.97382 0.26914 0.0
C1326 C 0.22511 0.97788 0.26863 0.0
C1327 C 0.21442 0.99737 0.28224 0.0
C1328 C 0.20217 0.98611 0.2776 0.0
C1329 C 0.24409 0.01663 0.24728 0.0
O1330 O 0.23432 1.00393 0.24412 0.0
H1331 H 0.23414 0.97076 0.26241 0.0
H1332 H 0.21301 1.00855 0.28925 0.0
O1333 O 0.26572 0.98374 0.27906 0.0
H1334 H 0.26433 0.0208 0.33631 0.0
H1335 H 0.18931 0.98681 0.28044 0.0
Cu1336 Cu 0.023 0.7713 0.75813 0.0
N1337 N 0.03553 0.75214 0.7563 0.0
N1338 N 0.05621 0.73641 0.74861 0.0
C1339 C 0.05039 0.75182 0.74956 0.0
C1340 C 0.04465 0.72658 0.75503 0.0
C1341 C 0.03195 0.73634 0.75992 0.0
O1342 O 0.03883 0.78909 0.76302 0.0
C1343 C 1.00026 0.76087 0.73476 0.0
O1344 O 1.00103 0.74833 0.7449 0.0
H1345 H 0.05659 0.76265 0.74496 0.0
H1346 H 0.02075 0.7321 0.76536 0.0
N1347 N 0.00839 0.77065 0.7753 0.0
N1348 N 0.98765 0.77886 0.79046 0.0
C1349 C 0.99709 0.78228 0.77759 0.0
C1350 C 1.00612 0.75942 0.78719 0.0
C1351 C 0.99325 0.76442 0.79654 0.0
C1352 C 0.04817 0.78606 0.77562 0.0
O1353 O 0.04557 0.77242 0.78384 0.0
H1354 H 0.99563 0.79292 0.76968 0.0
H1355 H 0.01327 0.7484 0.78897 0.0
O1356 O 0.0093 0.77352 0.73792 0.0
H1357 H 0.04533 0.71332 0.75605 0.0
H1358 H 0.98852 0.75805 0.80708 0.0
Cu1359 Cu 0.28179 0.02824 0.77684 0.0
N1360 N 0.30198 0.03973 0.77691 0.0
N1361 N 0.32049 0.05894 0.77003 0.0
C1362 C 0.30485 0.05329 0.76786 0.0
C1363 C 0.32774 0.04845 0.78089 0.0
C1364 C 0.3163 0.03665 0.78512 0.0
O1365 O 0.26486 0.04523 0.77597 0.0
C1366 C 0.29284 1.00084 0.76167 0.0
O1367 O 0.30192 1.00175 0.77539 0.0
H1368 H 0.29565 0.0587 0.75961 0.0
H1369 H 0.31835 0.02649 0.79352 0.0
N1370 N 0.2789 0.01607 0.79613 0.0
N1371 N 0.26964 0.99606 0.8124 0.0
C1372 C 0.26852 1.00309 0.79735 0.0
C1373 C 0.28679 0.01741 0.81096 0.0
C1374 C 0.28114 1.00505 0.82101 0.0
C1375 C 0.26698 0.05591 0.78745 0.0
O1376 O 0.27932 0.05416 0.7982 0.0
H1377 H 0.2607 0.99858 0.78718 0.0
H1378 H 0.29611 0.0266 0.8142 0.0
O1379 O 0.28217 0.01203 0.75888 0.0
H1380 H 0.34038 0.04929 0.78555 0.0
H1381 H 0.28519 1.00286 0.83366 0.0
Cu1382 Cu 0.02577 0.29159 0.7723 0.0
N1383 N 0.01223 0.31004 0.77238 0.0
N1384 N 0.99117 0.32625 0.76494 0.0
C1385 C 0.99821 0.31143 0.76313 0.0
C1386 C 1.00125 0.33453 0.7758 0.0
C1387 C 0.01422 0.32449 0.78037 0.0
O1388 O 0.0112 0.27246 0.77 0.0
C1389 C 0.05264 0.30583 0.75927 0.0
O1390 O 0.05132 0.31381 0.77322 0.0
H1391 H 0.99354 0.30184 0.75486 0.0
H1392 H 0.02447 0.32762 0.78872 0.0
N1393 N 0.03797 0.28852 0.79208 0.0
N1394 N 0.0568 0.27742 0.80942 0.0
C1395 C 0.05002 0.27741 0.79397 0.0
C1396 C 0.03698 0.29586 0.80685 0.0
C1397 C 0.04858 0.28902 0.81759 0.0
C1398 C 1.0017 0.27117 0.78204 0.0
O1399 O 1.00263 0.28232 0.79376 0.0
H1400 H 0.05351 0.26929 0.78418 0.0
H1401 H 0.02837 0.30539 0.80967 0.0
O1402 O 0.04185 0.29481 0.75537 0.0
H1403 H 0.99941 0.34694 0.78013 0.0
H1404 H 0.05085 0.29245 0.83036 0.0
Cu1405 Cu 0.77946 0.02017 0.75835 0.0
N1406 N 0.78496 0.03305 0.77684 0.0
N1407 N 0.79491 0.05444 0.79155 0.0
C1408 C 0.79269 0.04775 0.77642 0.0
C1409 C 0.78841 0.04339 0.80195 0.0
C1410 C 0.78225 0.03018 0.79281 0.0
O1411 O 0.77637 0.03503 0.7397 0.0
C1412 C 0.80922 1.00278 0.76448 0.0
O1413 O 0.81397 0.01598 0.77281 0.0
H1414 H 0.79675 0.05332 0.76516 0.0
H1415 H 0.77618 0.01931 0.79745 0.0
N1416 N 0.75959 0.00911 0.76095 0.0
N1417 N 0.73966 0.99039 0.75607 0.0
C1418 C 0.75473 0.99582 0.75211 0.0
C1419 C 0.7472 0.01231 0.7709 0.0
C1420 C 0.73482 1.00077 0.76788 0.0
C1421 C 0.76646 0.04665 0.74242 0.0
O1422 O 0.75934 0.04705 0.75664 0.0
H1423 H 0.76201 0.99051 0.74264 0.0
H1424 H 0.74711 0.02239 0.77961 0.0
O1425 O 0.79573 1.00301 0.75596 0.0
H1426 H 0.78789 0.04484 0.81516 0.0
H1427 H 0.72324 1.00004 0.77395 0.0
Cu1428 Cu 0.26651 0.76166 0.50983 0.0
N1429 N 0.28458 0.7647 0.52449 0.0
N1430 N 0.29868 0.77711 0.54535 0.0
C1431 C 0.28368 0.7728 0.5389 0.0
C1432 C 0.30947 0.77133 0.53462 0.0
C1433 C 0.30074 0.76381 0.52172 0.0
O1434 O 0.24767 0.75791 0.5235 0.0
C1435 C 0.26 0.78237 0.48199 0.0
O1436 O 0.24959 0.77084 0.47677 0.0
H1437 H 0.27218 0.77676 0.54375 0.0
H1438 H 0.30585 0.75932 0.51055 0.0
N1439 N 0.26846 0.74373 0.49542 0.0
N1440 N 0.26075 0.7259 0.47539 0.0
C1441 C 0.25574 0.73665 0.4868 0.0
C1442 C 0.28204 0.73697 0.48947 0.0
C1443 C 0.27732 0.72599 0.47714 0.0
C1444 C 0.24695 0.74359 0.52984 0.0
O1445 O 0.25803 0.73277 0.52598 0.0
H1446 H 0.24309 0.7402 0.48815 0.0
H1447 H 0.29452 0.74026 0.49321 0.0
O1448 O 0.26632 0.78152 0.49655 0.0
H1449 H 0.32268 0.77316 0.53555 0.0
H1450 H 0.28552 0.71902 0.46972 0.0
Cu1451 Cu 0.76115 0.77834 0.5049 0.0
N1452 N 0.78026 0.77885 0.49281 0.0
N1453 N 0.79634 0.77066 0.47274 0.0
C1454 C 0.78081 0.77328 0.4772 0.0
C1455 C 0.80603 0.77482 0.48599 0.0
C1456 C 0.79608 0.77995 0.49834 0.0
O1457 O 0.74358 0.77412 0.48821 0.0
C1458 C 0.77398 0.76679 0.53441 0.0
O1459 O 0.77961 0.78201 0.53436 0.0
H1460 H 0.76999 0.76973 0.46978 0.0
H1461 H 0.8001 0.78302 0.51082 0.0
N1462 N 0.75699 0.79837 0.51533 0.0
N1463 N 0.74672 0.81562 0.53375 0.0
C1464 C 0.74741 0.79991 0.52838 0.0
C1465 C 0.76267 0.81362 0.51226 0.0
C1466 C 0.75634 0.8243 0.52359 0.0
C1467 C 0.73017 0.78207 0.48723 0.0
O1468 O 0.72555 0.79029 0.50012 0.0
H1469 H 0.74094 0.78959 0.53364 0.0
H1470 H 0.77091 0.81672 0.50259 0.0
O1471 O 0.76481 0.76181 0.52222 0.0
H1472 H 0.81926 0.77345 0.48694 0.0
H1473 H 0.7589 0.83738 0.52438 0.0
Cu1474 Cu 0.7751 0.25851 0.50492 0.0
N1475 N 0.77541 0.24079 0.49013 0.0
N1476 N 0.76732 0.22475 0.46879 0.0
C1477 C 0.76496 0.23898 0.47694 0.0
C1478 C 0.7798 0.21733 0.47722 0.0
C1479 C 0.78478 0.22725 0.49035 0.0
O1480 O 0.77433 0.27807 0.49091 0.0
C1481 C 0.75567 0.24109 0.52552 0.0
O1482 O 0.76675 0.23022 0.52184 0.0
H1483 H 0.75547 0.24775 0.47372 0.0
H1484 H 0.79426 0.22454 0.49962 0.0
N1485 N 0.79373 0.2594 0.51926 0.0
N1486 N 0.80953 0.26728 0.54109 0.0
C1487 C 0.7944 0.26763 0.53368 0.0
C1488 C 0.80897 0.25357 0.51749 0.0
C1489 C 0.81874 0.25832 0.53104 0.0
C1490 C 0.78498 0.28971 0.4921 0.0
O1491 O 0.79509 0.29042 0.5051 0.0
H1492 H 0.78406 0.27412 0.53842 0.0
H1493 H 0.81289 0.24687 0.50687 0.0
O1494 O 0.75643 0.25533 0.51899 0.0
H1495 H 0.78494 0.20554 0.47419 0.0
H1496 H 0.83175 0.25602 0.53298 0.0
Cu1497 Cu 0.27625 0.27537 0.52644 0.0
N1498 N 0.27341 0.29592 0.53631 0.0
N1499 N 0.26545 0.31461 0.55443 0.0
C1500 C 0.26494 0.29861 0.54994 0.0
C1501 C 0.27467 0.32228 0.54324 0.0
C1502 C 0.2795 0.31071 0.53201 0.0
O1503 O 0.28057 0.25936 0.54392 0.0
C1504 C 0.24477 0.27905 0.50998 0.0
O1505 O 0.24154 0.28935 0.52184 0.0
H1506 H 0.25873 0.28896 0.55656 0.0
H1507 H 0.28697 0.31291 0.5215 0.0
N1508 N 0.29426 0.27551 0.51293 0.0
N1509 N 0.30935 0.26839 0.4917 0.0
C1510 C 0.29503 0.26619 0.4993 0.0
C1511 C 0.3086 0.28394 0.51413 0.0
C1512 C 0.31797 0.27954 0.50104 0.0
C1513 C 0.29182 0.26386 0.55442 0.0
O1514 O 0.29913 0.27818 0.55241 0.0
H1515 H 0.28532 0.25771 0.49526 0.0
H1516 H 0.31203 0.29262 0.52381 0.0
O1517 O 0.2577 0.2704 0.51127 0.0
H1518 H 0.27755 0.33532 0.54309 0.0
H1519 H 0.3301 0.28431 0.49855 0.0
Cu1520 Cu 0.79056 0.52636 0.75617 0.0
N1521 N 0.8106 0.53637 0.75127 0.0
N1522 N 0.82755 0.55504 0.74052 0.0
C1523 C 0.81178 0.5507 0.74309 0.0
C1524 C 0.83665 0.54284 0.74739 0.0
C1525 C 0.82615 0.53132 0.75398 0.0
O1526 O 0.77542 0.54382 0.76138 0.0
C1527 C 0.79154 0.50902 0.72561 0.0
O1528 O 0.80218 0.52036 0.72131 0.0
H1529 H 0.80113 0.55748 0.7387 0.0
H1530 H 0.8296 0.51997 0.76004 0.0
N1531 N 0.79172 0.51298 0.77471 0.0
N1532 N 0.78243 0.49395 0.79195 0.0
C1533 C 0.77892 0.50338 0.77869 0.0
C1534 C 0.80387 0.50964 0.78589 0.0
C1535 C 0.79816 0.49778 0.79656 0.0
C1536 C 0.78125 0.55375 0.77238 0.0
O1537 O 0.79616 0.55132 0.77865 0.0
H1538 H 0.76739 0.50296 0.77155 0.0
H1539 H 0.81601 0.51523 0.78619 0.0
O1540 O 0.78361 0.51108 0.73864 0.0
H1541 H 0.84993 0.5422 0.74764 0.0
H1542 H 0.80504 0.4924 0.80684 0.0
Cu1543 Cu 0.29341 0.52497 0.76958 0.0
N1544 N 0.31291 0.51307 0.77272 0.0
N1545 N 0.33008 0.49352 0.78204 0.0
C1546 C 0.31467 0.49954 0.78218 0.0
C1547 C 0.33832 0.50378 0.7721 0.0
C1548 C 0.32772 0.51581 0.7664 0.0
O1549 O 0.27523 0.50899 0.76891 0.0
C1550 C 0.304 0.55366 0.78391 0.0
O1551 O 0.31337 0.5524 0.7712 0.0
H1552 H 0.30481 0.49435 0.78915 0.0
H1553 H 0.33062 0.52581 0.7582 0.0
N1554 N 0.29203 0.53588 0.74926 0.0
N1555 N 0.28354 0.55441 0.73054 0.0
C1556 C 0.28167 0.54831 0.7458 0.0
C1557 C 0.30071 0.5339 0.73567 0.0
C1558 C 0.29555 0.54538 0.72411 0.0
C1559 C 0.27725 0.49763 0.75834 0.0
O1560 O 0.29064 0.49805 0.74983 0.0
H1561 H 0.27323 0.55306 0.75455 0.0
H1562 H 0.31017 0.52483 0.73427 0.0
O1563 O 0.29355 0.54218 0.78648 0.0
H1564 H 0.35105 0.50261 0.76896 0.0
H1565 H 0.3002 0.54689 0.7119 0.0
Cu1566 Cu 0.26795 0.51522 0.27317 0.0
N1567 N 0.26803 0.5021 0.29205 0.0
N1568 N 0.26057 0.4815 0.3085 0.0
C1569 C 0.25645 0.49066 0.29516 0.0
C1570 C 0.27545 0.4873 0.31393 0.0
C1571 C 0.28005 0.5 0.30371 0.0
O1572 O 0.27383 0.50036 0.25555 0.0
C1573 C 0.23888 0.53055 0.2823 0.0
O1574 O 0.24329 0.52478 0.29688 0.0
H1575 H 0.24551 0.48868 0.28733 0.0
H1576 H 0.29159 0.50676 0.30438 0.0
N1577 N 0.2832 0.53258 0.2746 0.0
N1578 N 0.29589 0.55549 0.26627 0.0
C1579 C 0.2874 0.54176 0.26162 0.0
C1580 C 0.28919 0.54075 0.288 0.0
C1581 C 0.2971 0.55488 0.28289 0.0
C1582 C 0.289 0.49667 0.25517 0.0
O1583 O 0.29956 0.50399 0.26552 0.0
H1584 H 0.28325 0.539 0.24908 0.0
H1585 H 0.28709 0.53723 0.30058 0.0
O1586 O 0.24699 0.52644 0.26986 0.0
H1587 H 0.28259 0.48258 0.32437 0.0
H1588 H 0.30277 0.56424 0.29082 0.0
Cu1589 Cu 0.77633 0.51623 0.25315 0.0
N1590 N 0.79523 0.50409 0.25809 0.0
N1591 N 0.81074 0.48357 0.26792 0.0
C1592 C 0.79546 0.4883 0.26311 0.0
C1593 C 0.82054 0.49686 0.26579 0.0
C1594 C 0.81093 0.5095 0.2596 0.0
O1595 O 0.7583 0.50073 0.24772 0.0
C1596 C 0.78121 0.53323 0.28407 0.0
O1597 O 0.791 0.52117 0.28851 0.0
H1598 H 0.7845 0.48071 0.26407 0.0
H1599 H 0.81495 0.52196 0.25711 0.0
N1600 N 0.77894 0.5298 0.2349 0.0
N1601 N 0.77324 0.5504 0.21748 0.0
C1602 C 0.76902 0.54251 0.23131 0.0
C1603 C 0.78996 0.52962 0.22298 0.0
C1604 C 0.78638 0.54229 0.2121 0.0
C1605 C 0.75969 0.4931 0.23414 0.0
O1606 O 0.77272 0.49606 0.22553 0.0
H1607 H 0.75869 0.54569 0.23861 0.0
H1608 H 0.79979 0.52085 0.2222 0.0
O1609 O 0.77245 0.53193 0.27074 0.0
H1610 H 0.83361 0.49749 0.26883 0.0
H1611 H 0.793 0.54538 0.20122 0.0
Cu1612 Cu 0.53972 0.26832 0.76526 0.0
N1613 N 0.52753 0.26727 0.78414 0.0
N1614 N 0.50737 0.2741 0.80059 0.0
C1615 C 0.51345 0.27554 0.78549 0.0
C1616 C 0.51807 0.2645 0.80918 0.0
C1617 C 0.53051 0.2602 0.79892 0.0
O1618 O 0.523 0.27268 0.74793 0.0
C1619 C 0.56862 0.27985 0.77934 0.0
O1620 O 0.56695 0.26532 0.78618 0.0
H1621 H 0.50812 0.28306 0.77572 0.0
H1622 H 0.54109 0.25277 0.80214 0.0
N1623 N 0.54981 0.24843 0.7606 0.0
N1624 N 0.56759 0.23164 0.74906 0.0
C1625 C 0.5635 0.24737 0.75195 0.0
C1626 C 0.545 0.23282 0.7634 0.0
C1627 C 0.55596 0.22238 0.75624 0.0
C1628 C 0.52078 0.26357 0.73522 0.0
O1629 O 0.53285 0.25428 0.73061 0.0
H1630 H 0.5699 0.25803 0.74727 0.0
H1631 H 0.53409 0.2293 0.7698 0.0
O1632 O 0.55736 0.28472 0.76915 0.0
H1633 H 0.51703 0.26094 0.82193 0.0
H1634 H 0.55534 0.20907 0.75621 0.0
Cu1635 Cu 0.51877 0.77112 0.75436 0.0
N1636 N 0.53364 0.75377 0.75354 0.0
N1637 N 0.55485 0.73812 0.76168 0.0
C1638 C 0.54476 0.75036 0.76574 0.0
C1639 C 0.54977 0.73344 0.74633 0.0
C1640 C 0.5367 0.74321 0.74129 0.0
O1641 O 0.53163 0.79089 0.75034 0.0
C1642 C 0.502 0.75512 0.77802 0.0
O1643 O 0.50564 0.74308 0.76806 0.0
H1644 H 0.54548 0.75684 0.77739 0.0
H1645 H 0.53022 0.74293 0.7294 0.0
N1646 N 0.50213 0.7703 0.73791 0.0
N1647 N 0.47926 0.77888 0.72452 0.0
C1648 C 0.4926 0.78326 0.73401 0.0
C1649 C 0.49463 0.7572 0.7306 0.0
C1650 C 0.4805 0.76247 0.72228 0.0
C1651 C 0.54438 0.79527 0.75889 0.0
O1652 O 0.54731 0.78848 0.77335 0.0
H1653 H 0.49474 0.79544 0.73915 0.0
H1654 H 0.49855 0.7446 0.73207 0.0
O1655 O 0.5073 0.7696 0.77494 0.0
H1656 H 0.55548 0.7241 0.73906 0.0
H1657 H 0.47152 0.75472 0.71568 0.0
Cu1658 Cu 0.51375 0.76565 0.26615 0.0
N1659 N 0.50209 0.76637 0.28546 0.0
N1660 N 0.48147 0.77236 0.30179 0.0
C1661 C 0.48656 0.77173 0.28618 0.0
C1662 C 0.49441 0.76714 0.31127 0.0
C1663 C 0.50713 0.76349 0.30116 0.0
O1664 O 0.49743 0.76381 0.24796 0.0
C1665 C 0.52914 0.79649 0.27514 0.0
O1666 O 0.51684 0.79855 0.28488 0.0
H1667 H 0.47945 0.7758 0.27544 0.0
H1668 H 0.51932 0.75953 0.30502 0.0
N1669 N 0.52756 0.74751 0.26539 0.0
N1670 N 0.54703 0.73139 0.25574 0.0
C1671 C 0.53735 0.7445 0.25282 0.0
C1672 C 0.53108 0.73587 0.27672 0.0
C1673 C 0.54316 0.7259 0.2708 0.0
C1674 C 0.49058 0.74966 0.24636 0.0
O1675 O 0.49538 0.73784 0.25639 0.0
H1676 H 0.53775 0.75219 0.24197 0.0
H1677 H 0.52548 0.73482 0.28851 0.0
O1678 O 0.52874 0.78443 0.2651 0.0
H1679 H 0.4948 0.76622 0.32456 0.0
H1680 H 0.54868 0.71549 0.27709 0.0
Cu1681 Cu 0.50209 0.25962 0.2587 0.0
N1682 N 0.48911 0.2406 0.2559 0.0
N1683 N 0.46891 0.22286 0.26192 0.0
C1684 C 0.47442 0.23862 0.26273 0.0
C1685 C 0.48066 0.21463 0.25414 0.0
C1686 C 0.49315 0.22555 0.2506 0.0
O1687 O 0.48647 0.27779 0.25887 0.0
C1688 C 0.52985 0.26188 0.2818 0.0
O1689 O 0.53408 0.27526 0.2739 0.0
H1690 H 0.46859 0.24835 0.26938 0.0
H1691 H 0.50482 0.22237 0.24569 0.0
N1692 N 0.51633 0.26327 0.24142 0.0
N1693 N 0.53573 0.27597 0.22713 0.0
C1694 C 0.52458 0.27748 0.23888 0.0
C1695 C 0.52212 0.25251 0.23053 0.0
C1696 C 0.53409 0.26028 0.22174 0.0
C1697 C 0.47942 0.2803 0.24477 0.0
O1698 O 0.48379 0.27129 0.23228 0.0
H1699 H 0.5231 0.28844 0.24622 0.0
H1700 H 0.5184 0.23976 0.22937 0.0
O1701 O 0.5158 0.25525 0.27852 0.0
H1702 H 0.48068 0.2015 0.25186 0.0
H1703 H 0.54131 0.25467 0.2124 0.0
H1704 H 0.24099 0.17941 0.11126 0.0
H1705 H 0.22135 0.22671 0.12379 0.0
H1706 H 0.2351 0.23931 0.10071 0.0
H1707 H 0.25336 0.23707 0.07744 0.0
H1708 H 0.27382 0.19003 0.06559 0.0
H1709 H 0.25944 0.17723 0.08823 0.0
C1710 C 0.23984 0.19251 0.1091 0.0
C1711 C 0.23012 0.20206 0.11935 0.0
C1712 C 0.24802 0.19975 0.09597 0.0
C1713 C 0.22854 0.21898 0.11604 0.0
C1714 C 0.2365 0.22623 0.10289 0.0
C1715 C 0.25453 0.22398 0.0797 0.0
C1716 C 0.26461 0.2145 0.06979 0.0
C1717 C 0.24631 0.21675 0.09281 0.0
C1718 C 0.26625 0.19762 0.07311 0.0
C1719 C 0.25798 0.19029 0.08601 0.0
H1720 H 0.81935 0.21426 0.10203 0.0
H1721 H 0.81999 0.25897 0.13081 0.0
H1722 H 0.80769 0.27391 0.10748 0.0
H1723 H 0.79725 0.27448 0.07876 0.0
H1724 H 0.79614 0.22977 0.04996 0.0
H1725 H 0.80802 0.21465 0.07344 0.0
C1726 C 0.81659 0.22722 0.10326 0.0
C1727 C 0.82068 0.23549 0.11813 0.0
C1728 C 0.80952 0.23578 0.08975 0.0
C1729 C 0.81719 0.25234 0.11944 0.0
C1730 C 0.81011 0.2609 0.10611 0.0
C1731 C 0.79964 0.26144 0.07759 0.0
C1732 C 0.79588 0.25331 0.06258 0.0
C1733 C 0.80638 0.25279 0.09116 0.0
C1734 C 0.79893 0.23636 0.06135 0.0
C1735 C 0.80572 0.22769 0.07479 0.0
H1736 H 0.81648 0.81596 0.08821 0.0
H1737 H 0.77118 0.83481 0.10635 0.0
H1738 H 0.75579 0.82236 0.0832 0.0
H1739 H 0.75507 0.80742 0.05725 0.0
H1740 H 0.79954 0.78748 0.03872 0.0
H1741 H 0.81532 0.79864 0.06283 0.0
C1742 C 0.80322 0.81717 0.08722 0.0
C1743 C 0.79511 0.8267 0.09893 0.0
C1744 C 0.79428 0.80975 0.07383 0.0
C1745 C 0.77789 0.82805 0.09735 0.0
C1746 C 0.76901 0.8208 0.08416 0.0
C1747 C 0.76823 0.80542 0.05849 0.0
C1748 C 0.77618 0.79681 0.04612 0.0
C1749 C 0.77709 0.81188 0.07222 0.0
C1750 C 0.79315 0.79406 0.04808 0.0
C1751 C 0.80216 0.80054 0.06181 0.0
H1752 H 0.22316 0.81007 0.12108 0.0
H1753 H 0.19059 0.84176 0.09296 0.0
H1754 H 0.20744 0.83874 0.06886 0.0
H1755 H 0.23134 0.82668 0.05567 0.0
H1756 H 0.26262 0.79337 0.08314 0.0
H1757 H 0.24658 0.79746 0.10771 0.0
C1758 C 0.21982 0.81632 0.10967 0.0
C1759 C 0.20571 0.82615 0.10875 0.0
C1760 C 0.2294 0.81429 0.09582 0.0
C1761 C 0.20135 0.83405 0.09387 0.0
C1762 C 0.21102 0.83239 0.08014 0.0
C1763 C 0.23469 0.82054 0.06714 0.0
C1764 C 0.24821 0.80995 0.0678 0.0
C1765 C 0.22507 0.82254 0.08097 0.0
C1766 C 0.25229 0.80165 0.08251 0.0
C1767 C 0.24311 0.80397 0.09648 0.0
H1768 H 0.19804 0.81156 0.93773 0.0
H1769 H 0.24203 0.82444 0.91239 0.0
H1770 H 0.2589 0.81125 0.93382 0.0
H1771 H 0.26151 0.79819 0.96058 0.0
H1772 H 0.21835 0.78523 0.98701 0.0
H1773 H 0.20074 0.79589 0.96416 0.0
C1774 C 0.2113 0.81127 0.93685 0.0
C1775 C 0.21879 0.8193 0.92364 0.0
C1776 C 0.22105 0.80366 0.94938 0.0
C1777 C 0.23598 0.81875 0.92262 0.0
C1778 C 0.24565 0.81112 0.93482 0.0
C1779 C 0.24822 0.79754 0.96131 0.0
C1780 C 0.24122 0.79114 0.97552 0.0
C1781 C 0.23835 0.8039 0.94839 0.0
C1782 C 0.22401 0.79009 0.97617 0.0
C1783 C 0.21398 0.79632 0.96317 0.0
H1784 H 0.21912 0.23291 0.93204 0.0
H1785 H 0.23412 0.18248 0.93891 0.0
H1786 H 0.24752 0.18968 0.9653 0.0
H1787 H 0.25598 0.21025 0.98589 0.0
H1788 H 0.24099 0.26068 0.97991 0.0
H1789 H 0.22611 0.2534 0.95396 0.0
C1790 C 0.22513 0.22344 0.93939 0.0
C1791 C 0.22578 0.20718 0.93326 0.0
C1792 C 0.23273 0.22763 0.95477 0.0
C1793 C 0.23375 0.19515 0.94301 0.0
C1794 C 0.24131 0.19923 0.95821 0.0
C1795 C 0.24936 0.21967 0.97901 0.0
C1796 C 0.24969 0.23602 0.98479 0.0
C1797 C 0.24105 0.21543 0.96411 0.0
C1798 C 0.24089 0.248 0.97578 0.0
C1799 C 0.23249 0.24385 0.96088 0.0
H1800 H 0.81883 0.22341 0.91421 0.0
H1801 H 0.86458 0.25055 0.9213 0.0
H1802 H 0.85476 0.26257 0.94658 0.0
H1803 H 0.83369 0.26452 0.96717 0.0
H1804 H 0.78875 0.23585 0.961 0.0
H1805 H 0.79781 0.22532 0.93486 0.0
C1806 C 0.82675 0.23184 0.92133 0.0
C1807 C 0.84249 0.23596 0.91584 0.0
C1808 C 0.82118 0.23844 0.93606 0.0
C1809 C 0.85235 0.24726 0.92508 0.0
C1810 C 0.84679 0.25405 0.93963 0.0
C1811 C 0.82589 0.25586 0.96025 0.0
C1812 C 0.81055 0.25098 0.96626 0.0
C1813 C 0.83131 0.24957 0.94533 0.0
C1814 C 0.80053 0.24001 0.95676 0.0
C1815 C 0.80575 0.23387 0.9418 0.0
H1816 H 0.80501 0.81533 0.90577 0.0
H1817 H 0.80434 0.86673 0.91917 0.0
H1818 H 0.78748 0.86022 0.94254 0.0
H1819 H 0.77339 0.83976 0.95968 0.0
H1820 H 0.77474 0.78839 0.94648 0.0
H1821 H 0.79103 0.79501 0.92276 0.0
C1822 C 0.80134 0.82511 0.91388 0.0
C1823 C 0.80598 0.8415 0.91065 0.0
C1824 C 0.79177 0.82127 0.92742 0.0
C1825 C 0.8008 0.85402 0.92118 0.0
C1826 C 0.79122 0.8503 0.93463 0.0
C1827 C 0.77715 0.83007 0.95151 0.0
C1828 C 0.77295 0.8136 0.95492 0.0
C1829 C 0.78663 0.83396 0.93789 0.0
C1830 C 0.77804 0.80113 0.94431 0.0
C1831 C 0.78729 0.80492 0.93068 0.0
H1832 H 0.12795 0.21321 0.23097 0.0
H1833 H 0.10205 0.16915 0.2144 0.0
H1834 H 0.07764 0.1777 0.22848 0.0
H1835 H 0.06357 0.19764 0.24541 0.0
H1836 H 0.08926 0.24169 0.26224 0.0
H1837 H 0.11371 0.2333 0.24802 0.0
C1838 C 0.11691 0.20557 0.23032 0.0
C1839 C 0.11687 0.19053 0.22168 0.0
C1840 C 0.10287 0.21054 0.23853 0.0
C1841 C 0.1025 0.18069 0.22112 0.0
C1842 C 0.0885 0.18558 0.22914 0.0
C1843 C 0.07456 0.20532 0.24617 0.0
C1844 C 0.07454 0.22027 0.25496 0.0
C1845 C 0.08857 0.20042 0.23796 0.0
C1846 C 0.08886 0.2302 0.25547 0.0
C1847 C 0.10288 0.22538 0.24737 0.0
H1848 H 0.81135 0.12805 0.22208 0.0
H1849 H 0.86013 0.10791 0.22134 0.0
H1850 H 0.85052 0.08294 0.23483 0.0
H1851 H 0.82817 0.06661 0.24654 0.0
H1852 H 0.77939 0.08674 0.24719 0.0
H1853 H 0.78901 0.11171 0.23377 0.0
C1854 C 0.81985 0.11814 0.22471 0.0
C1855 C 0.83646 0.11993 0.22069 0.0
C1856 C 0.81422 0.10375 0.23243 0.0
C1857 C 0.84734 0.10701 0.22447 0.0
C1858 C 0.84183 0.09267 0.23212 0.0
C1859 C 0.81967 0.0765 0.2439 0.0
C1860 C 0.80304 0.0747 0.24787 0.0
C1861 C 0.8253 0.0909 0.23619 0.0
C1862 C 0.79218 0.08763 0.2441 0.0
C1863 C 0.7977 0.10198 0.23648 0.0
H1864 H 0.90157 0.81312 0.20886 0.0
H1865 H 0.92523 0.86036 0.20236 0.0
H1866 H 0.95036 0.85031 0.21621 0.0
H1867 H 0.96576 0.82795 0.22992 0.0
H1868 H 0.94183 0.78088 0.23678 0.0
H1869 H 0.91684 0.79092 0.22287 0.0
C1870 C 0.91228 0.82117 0.21034 0.0
C1871 C 0.91151 0.83746 0.20455 0.0
C1872 C 0.92669 0.81532 0.21838 0.0
C1873 C 0.92543 0.84781 0.20682 0.0
C1874 C 0.93983 0.84205 0.2147 0.0
C1875 C 0.95504 0.81994 0.22852 0.0
C1876 C 0.9558 0.80363 0.23433 0.0
C1877 C 0.9406 0.82583 0.22057 0.0
C1878 C 0.94177 0.79338 0.23221 0.0
C1879 C 0.9274 0.79915 0.22432 0.0
H1880 H 0.16713 0.9188 0.23173 0.0
H1881 H 0.21253 0.89255 0.23968 0.0
H1882 H 0.2245 0.9159 0.25504 0.0
H1883 H 0.22259 0.94417 0.26509 0.0
H1884 H 0.1775 0.97083 0.25713 0.0
H1885 H 0.16474 0.94681 0.24327 0.0
C1886 C 0.17955 0.91811 0.23705 0.0
C1887 C 0.18897 0.90399 0.23441 0.0
C1888 C 0.18642 0.93166 0.24584 0.0
C1889 C 0.2051 0.90335 0.24128 0.0
C1890 C 0.21194 0.91668 0.25011 0.0
C1891 C 0.20999 0.94477 0.26026 0.0
C1892 C 0.20108 0.95936 0.26197 0.0
C1893 C 0.20282 0.931 0.25221 0.0
C1894 C 0.18462 0.95975 0.25603 0.0
C1895 C 0.17735 0.94604 0.24802 0.0
H1896 H 0.10063 0.84021 0.79988 0.0
H1897 H 0.12273 0.79681 0.82144 0.0
H1898 H 0.1011 0.77963 0.80868 0.0
H1899 H 0.07529 0.77686 0.79282 0.0
H1900 H 0.05271 0.81939 0.77029 0.0
H1901 H 0.07527 0.83695 0.78174 0.0
C1902 C 0.10079 0.82698 0.8016 0.0
C1903 C 0.11313 0.81988 0.81194 0.0
C1904 C 0.08822 0.81702 0.7941 0.0
C1905 C 0.11317 0.80268 0.81396 0.0
C1906 C 0.10084 0.79281 0.80658 0.0
C1907 C 0.07528 0.78998 0.79035 0.0
C1908 C 0.06223 0.79686 0.78093 0.0
C1909 C 0.08817 0.79986 0.79692 0.0
C1910 C 0.0626 0.81382 0.77757 0.0
C1911 C 0.07546 0.82384 0.78416 0.0
H1912 H 0.24251 0.12579 0.80615 0.0
H1913 H 0.19781 0.09848 0.81431 0.0
H1914 H 0.20969 0.07377 0.8025 0.0
H1915 H 0.23413 0.05913 0.79265 0.0
H1916 H 0.27886 0.08671 0.78545 0.0
H1917 H 0.26565 0.11205 0.79377 0.0
C1918 C 0.23533 0.11445 0.80524 0.0
C1919 C 0.21937 0.11394 0.81129 0.0
C1920 C 0.24227 0.10031 0.79852 0.0
C1921 C 0.21012 0.09923 0.80974 0.0
C1922 C 0.21694 0.08506 0.80304 0.0
C1923 C 0.24073 0.07081 0.7924 0.0
C1924 C 0.25736 0.07115 0.78827 0.0
C1925 C 0.23315 0.08534 0.7977 0.0
C1926 C 0.26598 0.08625 0.78841 0.0
C1927 C 0.25849 0.1007 0.79331 0.0
H1928 H 0.95472 0.2212 0.81437 0.0
H1929 H 0.92062 0.24087 0.77776 0.0
H1930 H 0.94319 0.25556 0.76475 0.0
H1931 H 0.97209 0.26579 0.76636 0.0
H1932 H 1.00572 0.24643 0.80355 0.0
H1933 H 0.98408 0.22833 0.81358 0.0
C1934 C 0.95232 0.22852 0.8034 0.0
C1935 C 0.93608 0.23018 0.79713 0.0
C1936 C 0.96531 0.23691 0.79608 0.0
C1937 C 0.93306 0.23948 0.78279 0.0
C1938 C 0.94595 0.24791 0.77541 0.0
C1939 C 0.97475 0.25709 0.7762 0.0
C1940 C 0.99045 0.25713 0.78407 0.0
C1941 C 0.96206 0.24709 0.78222 0.0
C1942 C 0.99375 0.24628 0.79716 0.0
C1943 C 0.98134 0.2361 0.80301 0.0
H1944 H 0.82764 0.92888 0.77909 0.0
H1945 H 0.85319 0.95224 0.82056 0.0
H1946 H 0.84673 0.97936 0.80926 0.0
H1947 H 0.83168 0.9963 0.78911 0.0
H1948 H 0.80423 0.9732 0.74857 0.0
H1949 H 0.8138 0.94617 0.75777 0.0
C1950 C 0.83198 0.93994 0.78546 0.0
C1951 C 0.8408 0.93862 0.80066 0.0
C1952 C 0.82784 0.95553 0.77908 0.0
C1953 C 0.84626 0.95301 0.80892 0.0
C1954 C 0.84259 0.96849 0.80246 0.0
C1955 C 0.82801 0.98541 0.78207 0.0
C1956 C 0.81721 0.98681 0.76818 0.0
C1957 C 0.83308 0.9699 0.78775 0.0
C1958 C 0.81253 0.9725 0.75932 0.0
C1959 C 0.81793 0.95702 0.76462 0.0
H1960 H 0.23939 0.08874 0.2193 0.0
H1961 H 0.19521 0.06791 0.19616 0.0
H1962 H 0.20266 0.04063 0.20638 0.0
H1963 H 0.22034 0.02328 0.22393 0.0
H1964 H 0.26373 0.04427 0.24857 0.0
H1965 H 0.2582 0.0708 0.23545 0.0
C1966 C 0.23157 0.07815 0.21629 0.0
C1967 C 0.21673 0.08031 0.2071 0.0
C1968 C 0.23577 0.06255 0.2225 0.0
C1969 C 0.20659 0.06655 0.20339 0.0
C1970 C 0.21087 0.05096 0.20919 0.0
C1971 C 0.22878 0.03355 0.22621 0.0
C1972 C 0.24239 0.03179 0.23727 0.0
C1973 C 0.22523 0.04889 0.21906 0.0
C1974 C 0.25313 0.0453 0.24014 0.0
C1975 C 0.24993 0.0605 0.2327 0.0
H1976 H 0.24219 0.93036 0.84212 0.0
H1977 H 0.19988 0.94329 0.81121 0.0
H1978 H 0.21446 0.9677 0.8017 0.0
H1979 H 0.23905 0.98584 0.8026 0.0
H1980 H 0.28075 0.97345 0.83443 0.0
H1981 H 0.26639 0.9487 0.84349 0.0
C1982 C 0.23601 0.93859 0.83347 0.0
C1983 C 0.21988 0.93485 0.82744 0.0
C1984 C 0.24434 0.95284 0.82829 0.0
C1985 C 0.21234 0.9456 0.81592 0.0
C1986 C 0.22064 0.95968 0.81055 0.0
C1987 C 0.24502 0.97766 0.81144 0.0
C1988 C 0.26097 0.98153 0.81782 0.0
C1989 C 0.23663 0.96345 0.81667 0.0
C1990 C 0.26843 0.97091 0.82947 0.0
C1991 C 0.26025 0.95668 0.83458 0.0
H1992 H 0.10878 0.23346 0.84747 0.0
H1993 H 0.12629 0.22808 0.79833 0.0
H1994 H 0.10413 0.24547 0.78752 0.0
H1995 H 0.08031 0.26287 0.79209 0.0
H1996 H 0.06286 0.26839 0.84122 0.0
H1997 H 0.0848 0.25072 0.85199 0.0
C1998 C 0.10784 0.23617 0.8344 0.0
C1999 C 0.11925 0.22943 0.82375 0.0
C2000 C 0.09517 0.24636 0.82827 0.0
C2001 C 0.1176 0.23288 0.80681 0.0
C2002 C 0.10499 0.24295 0.80062 0.0
C2003 C 0.08115 0.2601 0.80513 0.0
C2004 C 0.06986 0.26701 0.81579 0.0
C2005 C 0.09375 0.24981 0.81124 0.0
C2006 C 0.07144 0.26346 0.83272 0.0
C2007 C 0.08394 0.25325 0.83889 0.0
H2008 H 0.82578 0.12556 0.79735 0.0
H2009 H 0.83946 0.10784 0.84595 0.0
H2010 H 0.82603 0.08136 0.83964 0.0
H2011 H 0.81056 0.06319 0.82022 0.0
H2012 H 0.79645 0.08119 0.7718 0.0
H2013 H 0.81008 0.10748 0.77804 0.0
C2014 C 0.82594 0.11584 0.80648 0.0
C2015 C 0.8336 0.11864 0.82207 0.0
C2016 C 0.81815 0.10068 0.8028 0.0
C2017 C 0.83351 0.10602 0.8339 0.0
C2018 C 0.82588 0.09087 0.83029 0.0
C2019 C 0.81033 0.07291 0.81109 0.0
C2020 C 0.80257 0.07013 0.79554 0.0
C2021 C 0.81811 0.08808 0.8148 0.0
C2022 C 0.80257 0.08284 0.78378 0.0
C2023 C 0.81029 0.09794 0.78736 0.0
H2024 H 0.93533 0.83093 0.80947 0.0
H2025 H 0.90974 0.787 0.82472 0.0
H2026 H 0.93291 0.77025 0.81692 0.0
H2027 H 0.96019 0.76797 0.80488 0.0
H2028 H 0.9852 0.81194 0.78901 0.0
H2029 H 0.96241 0.82869 0.79762 0.0
C2030 C 0.93471 0.81767 0.81095 0.0
C2031 C 0.92073 0.81029 0.81765 0.0
C2032 C 0.94798 0.80808 0.80624 0.0
C2033 C 0.92038 0.79309 0.81978 0.0
C2034 C 0.9336 0.78347 0.81522 0.0
C2035 C 0.9607 0.78122 0.80346 0.0
C2036 C 0.97437 0.78866 0.79623 0.0
C2037 C 0.94746 0.79082 0.80838 0.0
C2038 C 0.97475 0.80586 0.79431 0.0
C2039 C 0.96174 0.81547 0.7993 0.0
H2040 H 0.78804 0.94846 0.19166 0.0
H2041 H 0.81076 0.92313 0.23317 0.0
H2042 H 0.801 0.94392 0.25183 0.0
H2043 H 0.78767 0.96995 0.25641 0.0
H2044 H 0.76465 0.99615 0.21572 0.0
H2045 H 0.7726 0.97429 0.19674 0.0
C2046 C 0.79065 0.94744 0.2048 0.0
C2047 C 0.8004 0.93439 0.21096 0.0
C2048 C 0.78501 0.95961 0.21561 0.0
C2049 C 0.80363 0.93321 0.22805 0.0
C2050 C 0.798 0.94507 0.23876 0.0
C2051 C 0.78429 0.97091 0.24339 0.0
C2052 C 0.77574 0.98478 0.23747 0.0
C2053 C 0.78898 0.95845 0.23266 0.0
C2054 C 0.77125 0.98562 0.2206 0.0
C2055 C 0.77587 0.97315 0.20975 0.0
H2056 H 0.09075 0.78243 0.2098 0.0
H2057 H 0.06802 0.81421 0.1733 0.0
H2058 H 0.0409 0.80285 0.17927 0.0
H2059 H 0.02349 0.78575 0.19668 0.0
H2060 H 0.04631 0.75361 0.23294 0.0
H2061 H 0.07348 0.76296 0.22501 0.0
C2062 C 0.07984 0.78674 0.20308 0.0
C2063 C 0.08132 0.79925 0.19126 0.0
C2064 C 0.0643 0.78007 0.20651 0.0
C2065 C 0.06716 0.80458 0.18245 0.0
C2066 C 0.05166 0.79812 0.1859 0.0
C2067 C 0.0344 0.78055 0.20264 0.0
C2068 C 0.03278 0.76911 0.21551 0.0
C2069 C 0.05004 0.7861 0.19814 0.0
C2070 C 0.04711 0.76242 0.223 0.0
C2071 C 0.0627 0.76787 0.21857 0.0
H2072 H 0.95625 0.21685 0.19999 0.0
H2073 H 0.92841 0.25261 0.22598 0.0
H2074 H 0.9539 0.26566 0.23678 0.0
H2075 H 0.98399 0.2656 0.24042 0.0
H2076 H 0.01193 0.22988 0.21427 0.0
H2077 H 0.98657 0.21839 0.20167 0.0
C2078 C 0.95583 0.22752 0.208 0.0
C2079 C 0.94053 0.23367 0.21235 0.0
C2080 C 0.97053 0.23503 0.21404 0.0
C2081 C 0.94007 0.24767 0.22249 0.0
C2082 C 0.95463 0.25511 0.22867 0.0
C2083 C 0.98459 0.25549 0.23174 0.0
C2084 C 0.99988 0.24853 0.22846 0.0
C2085 C 0.96993 0.24876 0.22471 0.0
C2086 C 1.00036 0.23548 0.2171 0.0
C2087 C 0.98584 0.22879 0.20996 0.0
H2088 H 0.20892 0.73403 0.59524 0.0
H2089 H 0.21323 0.68322 0.58061 0.0
H2090 H 0.22479 0.69174 0.55474 0.0
H2091 H 0.23618 0.71329 0.53756 0.0
H2092 H 0.23228 0.76424 0.55154 0.0
H2093 H 0.21765 0.75607 0.57615 0.0
C2094 C 0.21211 0.72486 0.58625 0.0
C2095 C 0.21052 0.70799 0.59003 0.0
C2096 C 0.21885 0.72987 0.57131 0.0
C2097 C 0.2147 0.69626 0.57821 0.0
C2098 C 0.22125 0.70112 0.56337 0.0
C2099 C 0.23191 0.72264 0.54587 0.0
C2100 C 0.23543 0.73931 0.54285 0.0
C2101 C 0.22379 0.71784 0.56 0.0
C2102 C 0.22966 0.75131 0.55359 0.0
C2103 C 0.22143 0.74662 0.56772 0.0
H2104 H 0.80712 0.71483 0.58271 0.0
H2105 H 0.81525 0.75913 0.61147 0.0
H2106 H 0.79906 0.77476 0.59124 0.0
H2107 H 0.78453 0.77644 0.56461 0.0
H2108 H 0.77637 0.73287 0.53489 0.0
H2109 H 0.79021 0.71623 0.55646 0.0
C2110 C 0.80514 0.72785 0.58462 0.0
C2111 C 0.81266 0.73586 0.59846 0.0
C2112 C 0.79581 0.73687 0.57279 0.0
C2113 C 0.80996 0.75275 0.60076 0.0
C2114 C 0.80061 0.76168 0.58925 0.0
C2115 C 0.78562 0.76326 0.56287 0.0
C2116 C 0.7796 0.75592 0.5481 0.0
C2117 C 0.79381 0.75396 0.57508 0.0
C2118 C 0.78088 0.73881 0.54617 0.0
C2119 C 0.78891 0.72934 0.55845 0.0
H2120 H 0.83971 0.29623 0.60758 0.0
H2121 H 0.80995 0.33748 0.59193 0.0
H2122 H 0.80012 0.3222 0.56765 0.0
H2123 H 0.80025 0.29738 0.5504 0.0
H2124 H 0.83139 0.25693 0.56465 0.0
H2125 H 0.84073 0.27181 0.58968 0.0
C2126 C 0.83124 0.30202 0.5988 0.0
C2127 C 0.82551 0.31802 0.60184 0.0
C2128 C 0.82592 0.29331 0.58451 0.0
C2129 C 0.81432 0.32509 0.59028 0.0
C2130 C 0.80877 0.3164 0.57624 0.0
C2131 C 0.80898 0.29179 0.55907 0.0
C2132 C 0.81503 0.27603 0.5558 0.0
C2133 C 0.81446 0.30052 0.57324 0.0
C2134 C 0.82661 0.26906 0.56693 0.0
C2135 C 0.8319 0.27755 0.58124 0.0
H2136 H 0.24254 0.35222 0.61675 0.0
H2137 H 0.20022 0.32011 0.60856 0.0
H2138 H 0.2131 0.30768 0.58509 0.0
H2139 H 0.23624 0.30615 0.56652 0.0
H2140 H 0.2776 0.33945 0.57359 0.0
H2141 H 0.26501 0.35153 0.59756 0.0
C2142 C 0.23595 0.34269 0.60973 0.0
C2143 C 0.22038 0.33714 0.61459 0.0
C2144 C 0.24324 0.33585 0.59594 0.0
C2145 C 0.21231 0.32448 0.60542 0.0
C2146 C 0.21962 0.31743 0.59186 0.0
C2147 C 0.2425 0.31599 0.57339 0.0
C2148 C 0.25785 0.32186 0.56836 0.0
C2149 C 0.23508 0.323 0.58702 0.0
C2150 C 0.26573 0.33482 0.57717 0.0
C2151 C 0.25856 0.34167 0.5909 0.0
H2152 H 0.22537 0.29179 0.43538 0.0
H2153 H 0.1882 0.32092 0.45744 0.0
H2154 H 0.19697 0.31101 0.48479 0.0
H2155 H 0.2168 0.29601 0.50255 0.0
H2156 H 0.2538 0.26652 0.48043 0.0
H2157 H 0.24328 0.2743 0.45305 0.0
C2158 C 0.21915 0.29584 0.4462 0.0
C2159 C 0.20629 0.30718 0.44447 0.0
C2160 C 0.22419 0.29 0.46187 0.0
C2161 C 0.19814 0.31219 0.45851 0.0
C2162 C 0.20317 0.30656 0.47413 0.0
C2163 C 0.22238 0.29104 0.49175 0.0
C2164 C 0.23619 0.28084 0.49362 0.0
C2165 C 0.21639 0.2957 0.47599 0.0
C2166 C 0.24317 0.27441 0.47944 0.0
C2167 C 0.23725 0.27896 0.46372 0.0
H2168 H 0.20667 0.69656 0.42581 0.0
H2169 H 0.24795 0.69638 0.39411 0.0
H2170 H 0.266 0.70672 0.41667 0.0
H2171 H 0.26981 0.71698 0.44501 0.0
H2172 H 0.22859 0.71715 0.47679 0.0
H2173 H 0.21075 0.70588 0.45454 0.0
C2174 C 0.21961 0.69886 0.42383 0.0
C2175 C 0.22592 0.69574 0.40826 0.0
C2176 C 0.22992 0.70487 0.43685 0.0
C2177 C 0.24278 0.69852 0.40599 0.0
C2178 C 0.2531 0.70452 0.41887 0.0
C2179 C 0.25701 0.71432 0.4472 0.0
C2180 C 0.25058 0.71801 0.4626 0.0
C2181 C 0.24679 0.70783 0.43433 0.0
C2182 C 0.23384 0.71467 0.46503 0.0
C2183 C 0.22363 0.70816 0.45231 0.0
H2184 H 0.80668 0.73918 0.40332 0.0
H2185 H 0.83681 0.70648 0.43297 0.0
H2186 H 0.83104 0.72229 0.45772 0.0
H2187 H 0.81713 0.74534 0.471 0.0
H2188 H 0.78546 0.7768 0.4417 0.0
H2189 H 0.79215 0.76173 0.41671 0.0
C2190 C 0.81198 0.73557 0.41522 0.0
C2191 C 0.82218 0.72172 0.41634 0.0
C2192 C 0.80839 0.74456 0.42941 0.0
C2193 C 0.82883 0.71703 0.43184 0.0
C2194 C 0.8256 0.72611 0.44596 0.0
C2195 C 0.8119 0.74897 0.45908 0.0
C2196 C 0.80102 0.76228 0.45806 0.0
C2197 C 0.81541 0.73991 0.4449 0.0
C2198 C 0.79393 0.76664 0.44267 0.0
C2199 C 0.79773 0.75802 0.42844 0.0
H2200 H 0.79737 0.31884 0.42163 0.0
H2201 H 0.84188 0.33569 0.44736 0.0
H2202 H 0.83148 0.32589 0.47342 0.0
H2203 H 0.81107 0.31032 0.48839 0.0
H2204 H 0.76721 0.29163 0.46268 0.0
H2205 H 0.77583 0.30465 0.43723 0.0
C2206 C 0.80463 0.32058 0.43301 0.0
C2207 C 0.82041 0.32787 0.4326 0.0
C2208 C 0.79871 0.31455 0.44794 0.0
C2209 C 0.82978 0.32995 0.44738 0.0
C2210 C 0.82383 0.32438 0.46227 0.0
C2211 C 0.80321 0.30929 0.47732 0.0
C2212 C 0.78854 0.29991 0.47747 0.0
C2213 C 0.80849 0.31633 0.46264 0.0
C2214 C 0.77858 0.29874 0.46294 0.0
C2215 C 0.78355 0.30612 0.44834 0.0
H2216 H 0.12681 0.72505 0.72247 0.0
H2217 H 0.10052 0.68677 0.69522 0.0
H2218 H 0.07506 0.69388 0.70852 0.0
H2219 H 0.0602 0.71128 0.72776 0.0
H2220 H 0.08593 0.75094 0.75331 0.0
H2221 H 0.1117 0.74312 0.74092 0.0
C2222 C 0.11547 0.71829 0.71951 0.0
C2223 C 0.11546 0.70538 0.70798 0.0
C2224 C 0.10083 0.72272 0.72692 0.0
C2225 C 0.10073 0.69679 0.70405 0.0
C2226 C 0.08622 0.70082 0.71167 0.0
C2227 C 0.07151 0.71807 0.73065 0.0
C2228 C 0.07131 0.73154 0.7415 0.0
C2229 C 0.08611 0.71377 0.72312 0.0
C2230 C 0.0859 0.74053 0.74497 0.0
C2231 C 0.10058 0.73605 0.73791 0.0
H2232 H 0.86101 0.61058 0.69896 0.0
H2233 H 0.81466 0.63403 0.70671 0.0
H2234 H 0.8056 0.61032 0.7226 0.0
H2235 H 0.81098 0.58325 0.7346 0.0
H2236 H 0.85702 0.55934 0.7263 0.0
H2237 H 0.86625 0.58317 0.7108 0.0
C2238 C 0.84896 0.61054 0.70421 0.0
C2239 C 0.83852 0.62407 0.70161 0.0
C2240 C 0.84383 0.59687 0.71337 0.0
C2241 C 0.82286 0.62371 0.70832 0.0
C2242 C 0.81771 0.6102 0.71751 0.0
C2243 C 0.82296 0.58307 0.72928 0.0
C2244 C 0.83321 0.56935 0.73165 0.0
C2245 C 0.8281 0.59671 0.72011 0.0
C2246 C 0.84888 0.5697 0.7249 0.0
C2247 C 0.85414 0.58332 0.7159 0.0
H2248 H 0.93317 0.36218 0.72677 0.0
H2249 H 0.91528 0.31208 0.7218 0.0
H2250 H 0.93929 0.30234 0.73772 0.0
H2251 H 0.96549 0.30793 0.75283 0.0
H2252 H 0.98353 0.35794 0.7578 0.0
H2253 H 0.95915 0.36783 0.74254 0.0
C2254 C 0.93441 0.34915 0.72932 0.0
C2255 C 0.92243 0.33789 0.72297 0.0
C2256 C 0.94827 0.34359 0.73857 0.0
C2257 C 0.92441 0.32102 0.72627 0.0
C2258 C 0.9381 0.31543 0.73547 0.0
C2259 C 0.96418 0.32098 0.75049 0.0
C2260 C 0.97644 0.33214 0.75643 0.0
C2261 C 0.95017 0.32658 0.74157 0.0
C2262 C 0.97428 0.34906 0.75354 0.0
C2263 C 0.96036 0.35473 0.74471 0.0
H2264 H 0.21703 0.45098 0.73725 0.0
H2265 H 0.25691 0.42319 0.71809 0.0
H2266 H 0.27681 0.44273 0.73021 0.0
H2267 H 0.28296 0.46844 0.74447 0.0
H2268 H 0.24391 0.49713 0.7638 0.0
H2269 H 0.22362 0.47633 0.75377 0.0
C2270 C 0.23008 0.44915 0.73592 0.0
C2271 C 0.23545 0.4358 0.72648 0.0
C2272 C 0.24159 0.46057 0.74294 0.0
C2273 C 0.25242 0.43355 0.72492 0.0
C2274 C 0.26383 0.44467 0.73193 0.0
C2275 C 0.27001 0.47015 0.74662 0.0
C2276 C 0.26492 0.4844 0.75469 0.0
C2277 C 0.25855 0.45836 0.74066 0.0
C2278 C 0.24814 0.48625 0.75762 0.0
C2279 C 0.23655 0.47441 0.75178 0.0
H2280 H 0.11503 0.31893 0.30375 0.0
H2281 H 0.09336 0.32577 0.35085 0.0
H2282 H 0.06734 0.31426 0.33995 0.0
H2283 H 0.05173 0.29958 0.31817 0.0
H2284 H 0.07283 0.29219 0.27094 0.0
H2285 H 0.09793 0.30696 0.28059 0.0
C2286 C 0.1045 0.31819 0.3115 0.0
C2287 C 0.10623 0.3229 0.32819 0.0
C2288 C 0.08951 0.31141 0.30515 0.0
C2289 C 0.09247 0.32188 0.33808 0.0
C2290 C 0.07756 0.31535 0.33185 0.0
C2291 C 0.06173 0.30141 0.30988 0.0
C2292 C 0.06053 0.29466 0.29395 0.0
C2293 C 0.07611 0.30964 0.31558 0.0
C2294 C 0.07346 0.29731 0.28327 0.0
C2295 C 0.08786 0.30563 0.28884 0.0
H2296 H 0.2094 0.60143 0.28285 0.0
H2297 H 0.18142 0.57958 0.32129 0.0
H2298 H 0.1926 0.55254 0.3152 0.0
H2299 H 0.21292 0.53591 0.30125 0.0
H2300 H 0.24033 0.55737 0.26216 0.0
H2301 H 0.22656 0.58364 0.26588 0.0
C2302 C 0.20557 0.59065 0.28965 0.0
C2303 C 0.19473 0.59244 0.30258 0.0
C2304 C 0.21196 0.57511 0.28597 0.0
C2305 C 0.18972 0.57844 0.31126 0.0
C2306 C 0.19617 0.56302 0.30783 0.0
C2307 C 0.21554 0.54623 0.29326 0.0
C2308 C 0.22767 0.54474 0.28152 0.0
C2309 C 0.20764 0.5613 0.29553 0.0
C2310 C 0.23094 0.55816 0.2712 0.0
C2311 C 0.2232 0.57325 0.27346 0.0
H2312 H 0.92117 0.69503 0.29147 0.0
H2313 H 0.8947 0.74009 0.2983 0.0
H2314 H 0.91647 0.75573 0.28558 0.0
H2315 H 0.94396 0.75711 0.27485 0.0
H2316 H 0.97087 0.71265 0.26707 0.0
H2317 H 0.94788 0.69621 0.27746 0.0
C2318 C 0.92006 0.70822 0.28989 0.0
C2319 C 0.90647 0.71641 0.29621 0.0
C2320 C 0.93272 0.71725 0.28246 0.0
C2321 C 0.90521 0.73352 0.29399 0.0
C2322 C 0.91762 0.74249 0.28664 0.0
C2323 C 0.94473 0.74379 0.27527 0.0
C2324 C 0.95912 0.73609 0.27043 0.0
C2325 C 0.9316 0.73456 0.28125 0.0
C2326 C 0.95988 0.71883 0.27074 0.0
C2327 C 0.94678 0.70947 0.27678 0.0
H2328 H 0.82084 0.41146 0.29397 0.0
H2329 H 0.85098 0.43749 0.33057 0.0
H2330 H 0.84536 0.46359 0.31654 0.0
H2331 H 0.83135 0.4791 0.29415 0.0
H2332 H 0.7997 0.45343 0.25864 0.0
H2333 H 0.80638 0.42709 0.27184 0.0
C2334 C 0.82621 0.42287 0.29878 0.0
C2335 C 0.83633 0.42261 0.31323 0.0
C2336 C 0.82264 0.43785 0.29084 0.0
C2337 C 0.84308 0.43745 0.3195 0.0
C2338 C 0.83992 0.45234 0.31147 0.0
C2339 C 0.82609 0.46769 0.28925 0.0
C2340 C 0.81518 0.46811 0.27539 0.0
C2341 C 0.82967 0.45271 0.29716 0.0
C2342 C 0.80812 0.45333 0.26932 0.0
C2343 C 0.81195 0.43831 0.27684 0.0
H2344 H 0.25611 0.61687 0.69366 0.0
H2345 H 0.21333 0.60397 0.72093 0.0
H2346 H 0.22785 0.58069 0.73321 0.0
H2347 H 0.25254 0.56369 0.736 0.0
H2348 H 0.29498 0.5759 0.70811 0.0
H2349 H 0.28056 0.59941 0.69591 0.0
C2350 C 0.24986 0.60889 0.70214 0.0
C2351 C 0.23362 0.61234 0.70638 0.0
C2352 C 0.25819 0.59528 0.70897 0.0
C2353 C 0.2259 0.60191 0.71763 0.0
C2354 C 0.23416 0.58847 0.72458 0.0
C2355 C 0.25868 0.57155 0.72734 0.0
C2356 C 0.27485 0.56804 0.72303 0.0
C2357 C 0.2503 0.58504 0.72036 0.0
C2358 C 0.2825 0.57821 0.71153 0.0
C2359 C 0.27429 0.59172 0.70462 0.0
H2360 H 0.21054 0.42701 0.33026 0.0
H2361 H 0.25572 0.40315 0.34553 0.0
H2362 H 0.27158 0.42695 0.33644 0.0
H2363 H 0.27268 0.45433 0.3235 0.0
H2364 H 0.22751 0.47779 0.30766 0.0
H2365 H 0.21163 0.45426 0.31734 0.0
C2366 C 0.22386 0.42692 0.33145 0.0
C2367 C 0.23188 0.41326 0.33858 0.0
C2368 C 0.23293 0.44058 0.32604 0.0
C2369 C 0.24917 0.41355 0.34029 0.0
C2370 C 0.25827 0.42713 0.335 0.0
C2371 C 0.25936 0.45436 0.32233 0.0
C2372 C 0.2513 0.4678 0.31484 0.0
C2373 C 0.25029 0.44071 0.32785 0.0
C2374 C 0.23403 0.46752 0.3132 0.0
C2375 C 0.22493 0.4541 0.31879 0.0
H2376 H 0.10394 0.71334 0.29485 0.0
H2377 H 0.09022 0.71266 0.34557 0.0
H2378 H 0.0656 0.72845 0.33835 0.0
H2379 H 0.0475 0.74185 0.31739 0.0
H2380 H 0.06149 0.74248 0.26675 0.0
H2381 H 0.08627 0.72719 0.27413 0.0
C2382 C 0.09549 0.71653 0.30431 0.0
C2383 C 0.09892 0.71175 0.32072 0.0
C2384 C 0.08134 0.72559 0.30007 0.0
C2385 C 0.08798 0.71628 0.33286 0.0
C2386 C 0.07384 0.72526 0.32873 0.0
C2387 C 0.05606 0.7388 0.30802 0.0
C2388 C 0.05251 0.74322 0.29151 0.0
C2389 C 0.07037 0.72997 0.31235 0.0
C2390 C 0.06371 0.73901 0.27949 0.0
C2391 C 0.07795 0.73031 0.28371 0.0
H2392 H 0.79402 0.60797 0.30211 0.0
H2393 H 0.82302 0.58604 0.34166 0.0
H2394 H 0.81345 0.55859 0.33288 0.0
H2395 H 0.79857 0.54074 0.31262 0.0
H2396 H 0.76914 0.56279 0.27331 0.0
H2397 H 0.77689 0.59017 0.28349 0.0
C2398 C 0.79814 0.59716 0.30883 0.0
C2399 C 0.80933 0.599 0.32241 0.0
C2400 C 0.79249 0.58142 0.30378 0.0
C2401 C 0.8144 0.58493 0.33119 0.0
C2402 C 0.80897 0.56924 0.32614 0.0
C2403 C 0.79362 0.55152 0.30643 0.0
C2404 C 0.78338 0.54962 0.29212 0.0
C2405 C 0.79823 0.56731 0.31228 0.0
C2406 C 0.77703 0.56379 0.28434 0.0
C2407 C 0.78156 0.57951 0.29009 0.0
H2408 H 0.9377 0.32035 0.32086 0.0
H2409 H 0.91313 0.27618 0.33699 0.0
H2410 H 0.93631 0.2597 0.32877 0.0
H2411 H 0.96346 0.25774 0.3166 0.0
H2412 H 0.98773 0.30189 0.30012 0.0
H2413 H 0.96467 0.31838 0.30856 0.0
C2414 C 0.93731 0.3071 0.32242 0.0
C2415 C 0.92365 0.29956 0.32957 0.0
C2416 C 0.95064 0.29766 0.31755 0.0
C2417 C 0.92355 0.28238 0.33173 0.0
C2418 C 0.93678 0.27291 0.32695 0.0
C2419 C 0.96376 0.27097 0.31499 0.0
C2420 C 0.97732 0.27853 0.30769 0.0
C2421 C 0.95041 0.28041 0.31987 0.0
C2422 C 0.97738 0.29571 0.30549 0.0
C2423 C 0.96422 0.30517 0.3104 0.0
H2424 H 0.80119 0.43362 0.71161 0.0
H2425 H 0.8279 0.45357 0.6713 0.0
H2426 H 0.81926 0.48135 0.6783 0.0
H2427 H 0.80622 0.50016 0.69744 0.0
H2428 H 0.77903 0.48015 0.73751 0.0
H2429 H 0.78541 0.45228 0.72884 0.0
C2430 C 0.80497 0.44407 0.70431 0.0
C2431 C 0.81529 0.44161 0.69107 0.0
C2432 C 0.79984 0.46 0.70834 0.0
C2433 C 0.81995 0.45518 0.68153 0.0
C2434 C 0.81505 0.47106 0.68557 0.0
C2435 C 0.80142 0.4897 0.7041 0.0
C2436 C 0.7923 0.49232 0.71821 0.0
C2437 C 0.80526 0.47366 0.69914 0.0
C2438 C 0.78608 0.47858 0.7266 0.0
C2439 C 0.78984 0.46259 0.72174 0.0
H2440 H 0.10529 0.32568 0.70723 0.0
H2441 H 0.13058 0.34283 0.75193 0.0
H2442 H 0.10842 0.33211 0.76816 0.0
H2443 H 0.08146 0.31924 0.76977 0.0
H2444 H 0.05568 0.30117 0.72584 0.0
H2445 H 0.07861 0.31054 0.70921 0.0
C2446 C 0.10602 0.32688 0.72053 0.0
C2447 C 0.11947 0.33539 0.72829 0.0
C2448 C 0.09318 0.32054 0.72992 0.0
C2449 C 0.12021 0.33679 0.74556 0.0
C2450 C 0.10758 0.33055 0.75489 0.0
C2451 C 0.08082 0.31728 0.75654 0.0
C2452 C 0.0668 0.30973 0.74901 0.0
C2453 C 0.09392 0.32268 0.74719 0.0
C2454 C 0.06634 0.30699 0.73192 0.0
C2455 C 0.07941 0.31242 0.72242 0.0
H2456 H 0.93472 0.75585 0.69213 0.0
H2457 H 0.95574 0.70885 0.68087 0.0
H2458 H 0.98164 0.71717 0.69472 0.0
H2459 H 0.99676 0.73594 0.7135 0.0
H2460 H 0.97645 0.78292 0.72538 0.0
H2461 H 0.95201 0.77675 0.70749 0.0
C2462 C 0.94512 0.74762 0.69237 0.0
C2463 C 0.94317 0.73159 0.68582 0.0
C2464 C 0.96006 0.75247 0.70052 0.0
C2465 C 0.95678 0.72108 0.68618 0.0
C2466 C 0.97162 0.72584 0.69405 0.0
C2467 C 0.98719 0.74503 0.71174 0.0
C2468 C 0.98831 0.75982 0.72066 0.0
C2469 C 0.97318 0.74123 0.70179 0.0
C2470 C 0.97589 0.77153 0.71842 0.0
C2471 C 0.96185 0.76789 0.70837 0.0
H2472 H 0.71606 0.23084 0.58993 0.0
H2473 H 0.72083 0.18023 0.5748 0.0
H2474 H 0.73296 0.18909 0.54933 0.0
H2475 H 0.74465 0.21081 0.53268 0.0
H2476 H 0.74058 0.2616 0.54715 0.0
H2477 H 0.72536 0.25315 0.57133 0.0
C2478 C 0.71952 0.2218 0.58091 0.0
C2479 C 0.71786 0.20487 0.58442 0.0
C2480 C 0.72662 0.22701 0.56621 0.0
C2481 C 0.72235 0.1933 0.57259 0.0
C2482 C 0.72921 0.19835 0.55798 0.0
C2483 C 0.74023 0.22008 0.541 0.0
C2484 C 0.74386 0.23678 0.53826 0.0
C2485 C 0.73181 0.21512 0.55489 0.0
C2486 C 0.73789 0.24866 0.549 0.0
C2487 C 0.72932 0.24381 0.56289 0.0
H2488 H 0.31634 0.21096 0.60694 0.0
H2489 H 0.33897 0.25482 0.62827 0.0
H2490 H 0.32579 0.27159 0.60689 0.0
H2491 H 0.30937 0.27379 0.58143 0.0
H2492 H 0.28638 0.2306 0.55924 0.0
H2493 H 0.29793 0.21359 0.58177 0.0
C2494 C 0.31819 0.2242 0.60696 0.0
C2495 C 0.32886 0.2316 0.61903 0.0
C2496 C 0.31057 0.23387 0.59448 0.0
C2497 C 0.33112 0.24878 0.61894 0.0
C2498 C 0.32353 0.2584 0.60675 0.0
C2499 C 0.30679 0.26065 0.58149 0.0
C2500 C 0.29719 0.25344 0.56857 0.0
C2501 C 0.31352 0.25106 0.59432 0.0
C2502 C 0.29378 0.23645 0.56903 0.0
C2503 C 0.30043 0.22673 0.58188 0.0
H2504 H 0.3224 0.82875 0.59924 0.0
H2505 H 0.27948 0.8099 0.62268 0.0
H2506 H 0.27333 0.7916 0.59917 0.0
H2507 H 0.2808 0.78027 0.57238 0.0
H2508 H 0.32426 0.79866 0.54944 0.0
H2509 H 0.3297 0.81761 0.57238 0.0
C2510 C 0.31156 0.82081 0.59904 0.0
C2511 C 0.3013 0.82077 0.61255 0.0
C2512 C 0.30836 0.81005 0.58569 0.0
C2513 C 0.2875 0.81017 0.61236 0.0
C2514 C 0.28402 0.79968 0.59896 0.0
C2515 C 0.29141 0.78848 0.57237 0.0
C2516 C 0.30213 0.78795 0.55921 0.0
C2517 C 0.29447 0.79939 0.58564 0.0
C2518 C 0.31594 0.79857 0.55949 0.0
C2519 C 0.31899 0.80954 0.57256 0.0
H2520 H 0.70827 0.85258 0.58813 0.0
H2521 H 0.70573 0.8034 0.60794 0.0
H2522 H 0.72057 0.79297 0.58463 0.0
H2523 H 0.7352 0.79797 0.5593 0.0
H2524 H 0.73745 0.84713 0.53926 0.0
H2525 H 0.72226 0.85743 0.56228 0.0
C2526 C 0.71101 0.83958 0.58739 0.0
C2527 C 0.70589 0.82881 0.59984 0.0
C2528 C 0.71968 0.83367 0.57401 0.0
C2529 C 0.70932 0.81195 0.59848 0.0
C2530 C 0.71794 0.80599 0.58521 0.0
C2531 C 0.73224 0.81091 0.55976 0.0
C2532 C 0.7376 0.8217 0.54741 0.0
C2533 C 0.72328 0.81676 0.57296 0.0
C2534 C 0.73378 0.8385 0.54859 0.0
C2535 C 0.72495 0.84442 0.56173 0.0
H2536 H 0.71325 0.80302 0.41377 0.0
H2537 H 0.67376 0.82736 0.4374 0.0
H2538 H 0.68218 0.81497 0.46377 0.0
H2539 H 0.7019 0.79879 0.48047 0.0
H2540 H 0.74117 0.77392 0.45684 0.0
H2541 H 0.73151 0.78461 0.43016 0.0
C2542 C 0.70649 0.80553 0.42471 0.0
C2543 C 0.693 0.8162 0.4237 0.0
C2544 C 0.71131 0.7982 0.43983 0.0
C2545 C 0.68417 0.81918 0.43789 0.0
C2546 C 0.689 0.81212 0.45297 0.0
C2547 C 0.70821 0.79547 0.46946 0.0
C2548 C 0.72237 0.78568 0.47077 0.0
C2549 C 0.70268 0.80178 0.45413 0.0
C2550 C 0.73027 0.78143 0.45629 0.0
C2551 C 0.72483 0.78766 0.441 0.0
H2552 H 0.7273 0.18702 0.41225 0.0
H2553 H 0.717 0.23688 0.39717 0.0
H2554 H 0.73385 0.24743 0.42047 0.0
H2555 H 0.75144 0.24257 0.44522 0.0
H2556 H 0.76194 0.19278 0.46026 0.0
H2557 H 0.74549 0.18218 0.43667 0.0
C2558 C 0.72888 0.20019 0.41393 0.0
C2559 C 0.72076 0.21111 0.40296 0.0
C2560 C 0.73871 0.20621 0.42733 0.0
C2561 C 0.72283 0.22816 0.40553 0.0
C2562 C 0.73257 0.23422 0.41881 0.0
C2563 C 0.75005 0.2294 0.44342 0.0
C2564 C 0.75792 0.21852 0.45458 0.0
C2565 C 0.74048 0.22337 0.42985 0.0
C2566 C 0.7562 0.20147 0.45182 0.0
C2567 C 0.74669 0.19538 0.43836 0.0
H2568 H 0.34166 0.23175 0.43314 0.0
H2569 H 0.29053 0.22424 0.41842 0.0
H2570 H 0.28226 0.23988 0.44231 0.0
H2571 H 0.28948 0.25546 0.46744 0.0
H2572 H 0.34053 0.26271 0.48258 0.0
H2573 H 0.34889 0.24784 0.45821 0.0
C2574 C 0.32871 0.23368 0.43507 0.0
C2575 C 0.31674 0.22674 0.42402 0.0
C2576 C 0.32402 0.24272 0.44886 0.0
C2577 C 0.3 0.22921 0.42684 0.0
C2578 C 0.29526 0.23824 0.44045 0.0
C2579 C 0.30244 0.25369 0.46553 0.0
C2580 C 0.31433 0.26014 0.47697 0.0
C2581 C 0.30716 0.24494 0.45161 0.0
C2582 C 0.33108 0.25803 0.47398 0.0
C2583 C 0.33588 0.24942 0.46008 0.0
H2584 H 0.30769 0.82365 0.43838 0.0
H2585 H 0.27554 0.80349 0.39973 0.0
H2586 H 0.25791 0.79123 0.42022 0.0
H2587 H 0.25279 0.7846 0.44903 0.0
H2588 H 0.28489 0.80489 0.48778 0.0
H2589 H 0.30113 0.819 0.46738 0.0
C2590 C 0.2968 0.81658 0.4345 0.0
C2591 C 0.29299 0.81431 0.41761 0.0
C2592 C 0.28665 0.80968 0.44635 0.0
C2593 C 0.2787 0.80539 0.41268 0.0
C2594 C 0.26864 0.79837 0.42438 0.0
C2595 C 0.26315 0.79234 0.45307 0.0
C2596 C 0.26766 0.79351 0.46994 0.0
C2597 C 0.27261 0.80025 0.44125 0.0
C2598 C 0.28113 0.80368 0.47489 0.0
C2599 C 0.29052 0.81168 0.46321 0.0
H2600 H 0.63042 0.21981 0.70841 0.0
H2601 H 0.60324 0.17556 0.69493 0.0
H2602 H 0.58081 0.18381 0.71219 0.0
H2603 H 0.56893 0.20366 0.73116 0.0
H2604 H 0.59655 0.24755 0.74509 0.0
H2605 H 0.6187 0.23946 0.72756 0.0
C2606 C 0.61949 0.21209 0.70911 0.0
C2607 C 0.61845 0.19715 0.70036 0.0
C2608 C 0.60674 0.21681 0.7192 0.0
C2609 C 0.60435 0.1871 0.70161 0.0
C2610 C 0.59153 0.19181 0.71147 0.0
C2611 C 0.57986 0.21135 0.7305 0.0
C2612 C 0.581 0.22623 0.73938 0.0
C2613 C 0.59263 0.20659 0.72041 0.0
C2614 C 0.59521 0.23616 0.73821 0.0
C2615 C 0.60793 0.23152 0.72822 0.0
H2616 H 0.36249 0.11326 0.73508 0.0
H2617 H 0.31489 0.13603 0.73034 0.0
H2618 H 0.30255 0.11295 0.74478 0.0
H2619 H 0.30514 0.0862 0.75863 0.0
H2620 H 0.35268 0.06341 0.7635 0.0
H2621 H 0.36518 0.08674 0.74955 0.0
C2622 C 0.34945 0.11329 0.73737 0.0
C2623 C 0.33966 0.12639 0.73149 0.0
C2624 C 0.34239 0.09996 0.74577 0.0
C2625 C 0.32272 0.12603 0.73444 0.0
C2626 C 0.31564 0.11286 0.74279 0.0
C2627 C 0.31821 0.08626 0.75654 0.0
C2628 C 0.3279 0.07296 0.76209 0.0
C2629 C 0.32533 0.0997 0.74842 0.0
C2630 C 0.34491 0.07348 0.75954 0.0
C2631 C 0.35207 0.08681 0.75146 0.0
H2632 H 0.42733 0.83324 0.70593 0.0
H2633 H 0.39424 0.79182 0.71137 0.0
H2634 H 0.41747 0.77399 0.71791 0.0
H2635 H 0.4472 0.77 0.722 0.0
H2636 H 0.48045 0.81128 0.71715 0.0
H2637 H 0.45722 0.82931 0.71062 0.0
C2638 C 0.42521 0.82036 0.70874 0.0
C2639 C 0.40905 0.81388 0.70804 0.0
C2640 C 0.43867 0.8101 0.71252 0.0
C2641 C 0.40655 0.7971 0.71157 0.0
C2642 C 0.41983 0.78687 0.71536 0.0
C2643 C 0.44938 0.78289 0.71931 0.0
C2644 C 0.46555 0.78926 0.71995 0.0
C2645 C 0.43595 0.79319 0.71573 0.0
C2646 C 0.46811 0.8061 0.7168 0.0
C2647 C 0.45483 0.8164 0.71305 0.0
H2648 H 0.69119 0.93821 0.72295 0.0
H2649 H 0.73729 0.91552 0.71239 0.0
H2650 H 0.75233 0.93764 0.72699 0.0
H2651 H 0.75242 0.96344 0.74251 0.0
H2652 H 0.7065 0.98643 0.75299 0.0
H2653 H 0.69132 0.96386 0.73913 0.0
C2654 C 0.70452 0.93802 0.72399 0.0
C2655 C 0.7131 0.92527 0.7165 0.0
C2656 C 0.71311 0.95075 0.73248 0.0
C2657 C 0.73039 0.92532 0.7178 0.0
C2658 C 0.739 0.9379 0.72624 0.0
C2659 C 0.7391 0.9636 0.74167 0.0
C2660 C 0.73063 0.97669 0.74867 0.0
C2661 C 0.73049 0.95072 0.73352 0.0
C2662 C 0.71333 0.97646 0.74782 0.0
C2663 C 0.70465 0.96361 0.73979 0.0
H2664 H 0.60237 0.8183 0.29248 0.0
H2665 H 0.57791 0.85303 0.32288 0.0
H2666 H 0.55108 0.84343 0.31155 0.0
H2667 H 0.53463 0.82353 0.29467 0.0
H2668 H 0.55933 0.78939 0.2636 0.0
H2669 H 0.58594 0.8006 0.27322 0.0
C2670 C 0.59113 0.82382 0.29647 0.0
C2671 C 0.592 0.83619 0.30858 0.0
C2672 C 0.57581 0.81838 0.28976 0.0
C2673 C 0.57745 0.84347 0.31357 0.0
C2674 C 0.56214 0.83796 0.30712 0.0
C2675 C 0.54581 0.81873 0.28979 0.0
C2676 C 0.54492 0.8055 0.27856 0.0
C2677 C 0.56116 0.8252 0.29543 0.0
C2678 C 0.55958 0.79954 0.27227 0.0
C2679 C 0.57486 0.80587 0.27785 0.0
H2680 H 0.70988 0.11676 0.28134 0.0
H2681 H 0.67251 0.09231 0.30883 0.0
H2682 H 0.68228 0.0655 0.29992 0.0
H2683 H 0.70297 0.04898 0.28626 0.0
H2684 H 0.74004 0.0735 0.25829 0.0
H2685 H 0.72875 0.10019 0.26524 0.0
C2686 C 0.7038 0.10554 0.28524 0.0
C2687 C 0.69057 0.10651 0.29583 0.0
C2688 C 0.70946 0.09016 0.28 0.0
C2689 C 0.68267 0.0919 0.30063 0.0
C2690 C 0.68831 0.07656 0.2956 0.0
C2691 C 0.70843 0.06015 0.28146 0.0
C2692 C 0.72244 0.05917 0.27187 0.0
C2693 C 0.7019 0.07553 0.28555 0.0
C2694 C 0.72926 0.07381 0.26568 0.0
C2695 C 0.72287 0.08913 0.26974 0.0
H2696 H 0.4166 0.18453 0.30249 0.0
H2697 H 0.3941 0.23234 0.30155 0.0
H2698 H 0.41591 0.243 0.28458 0.0
H2699 H 0.44167 0.23893 0.27053 0.0
H2700 H 0.46451 0.19125 0.27208 0.0
H2701 H 0.44198 0.18027 0.28773 0.0
C2702 C 0.41635 0.19723 0.29841 0.0
C2703 C 0.40376 0.20762 0.30339 0.0
C2704 C 0.42895 0.2033 0.28865 0.0
C2705 C 0.40377 0.22412 0.29814 0.0
C2706 C 0.41619 0.23021 0.28834 0.0
C2707 C 0.4418 0.22616 0.27433 0.0
C2708 C 0.45493 0.21603 0.27013 0.0
C2709 C 0.42893 0.21995 0.28365 0.0
C2710 C 0.45459 0.19938 0.27491 0.0
C2711 C 0.44174 0.19308 0.28403 0.0
H2712 H 0.29055 0.90148 0.30132 0.0
H2713 H 0.33449 0.93004 0.31317 0.0
H2714 H 0.3211 0.95487 0.30237 0.0
H2715 H 0.2954 0.96906 0.29331 0.0
H2716 H 0.2511 0.94024 0.28403 0.0
H2717 H 0.26604 0.91495 0.28998 0.0
C2718 C 0.29725 0.91312 0.30141 0.0
C2719 C 0.31336 0.91399 0.30828 0.0
C2720 C 0.28931 0.92734 0.29573 0.0
C2721 C 0.32205 0.92906 0.30795 0.0
C2722 C 0.31435 0.94328 0.3019 0.0
C2723 C 0.28922 0.95717 0.2922 0.0
C2724 C 0.27224 0.95639 0.28829 0.0
C2725 C 0.29778 0.94268 0.29628 0.0
C2726 C 0.26419 0.94103 0.28709 0.0
C2727 C 0.27269 0.9266 0.29054 0.0
H2728 H 0.74188 0.09338 0.68472 0.0
H2729 H 0.73498 0.12515 0.72642 0.0
H2730 H 0.748 0.1051 0.74479 0.0
H2731 H 0.75877 0.07768 0.74946 0.0
H2732 H 0.76594 0.04518 0.7085 0.0
H2733 H 0.75569 0.06644 0.6893 0.0
C2734 C 0.74352 0.09597 0.69778 0.0
C2735 C 0.73721 0.11059 0.70427 0.0
C2736 C 0.75094 0.08424 0.70839 0.0
C2737 C 0.73943 0.11385 0.72121 0.0
C2738 C 0.7469 0.10241 0.73171 0.0
C2739 C 0.75823 0.07529 0.7363 0.0
C2740 C 0.76284 0.05985 0.73038 0.0
C2741 C 0.75225 0.08742 0.72551 0.0
C2742 C 0.76241 0.057 0.71332 0.0
C2743 C 0.75646 0.06911 0.70238 0.0
H2744 H 0.73237 0.92964 0.33554 0.0
H2745 H 0.68762 0.93874 0.3067 0.0
H2746 H 0.69962 0.96387 0.29591 0.0
H2747 H 0.72279 0.98339 0.29444 0.0
H2748 H 0.76704 0.97536 0.32413 0.0
H2749 H 0.75514 0.95 0.33509 0.0
C2750 C 0.72514 0.93719 0.32706 0.0
C2751 C 0.70915 0.93202 0.32181 0.0
C2752 C 0.73201 0.95192 0.32106 0.0
C2753 C 0.7001 0.94204 0.31067 0.0
C2754 C 0.7069 0.95655 0.30456 0.0
C2755 C 0.72984 0.97604 0.30325 0.0
C2756 C 0.7458 0.9812 0.30838 0.0
C2757 C 0.72287 0.96156 0.30957 0.0
C2758 C 0.75468 0.97171 0.32006 0.0
C2759 C 0.74791 0.95717 0.32627 0.0
H2760 H 0.57856 0.21005 0.31439 0.0
H2761 H 0.61305 0.24995 0.30728 0.0
H2762 H 0.59072 0.2675 0.29716 0.0
H2763 H 0.56167 0.27113 0.28894 0.0
H2764 H 0.52694 0.23136 0.29591 0.0
H2765 H 0.54897 0.21433 0.30767 0.0
C2766 C 0.58115 0.22259 0.31061 0.0
C2767 C 0.59747 0.22864 0.31154 0.0
C2768 C 0.56819 0.2327 0.30485 0.0
C2769 C 0.6006 0.245 0.3068 0.0
C2770 C 0.58784 0.25504 0.30097 0.0
C2771 C 0.55883 0.25883 0.29324 0.0
C2772 C 0.54262 0.25258 0.29144 0.0
C2773 C 0.5716 0.249 0.29981 0.0
C2774 C 0.53926 0.23657 0.29713 0.0
C2775 C 0.5519 0.22674 0.30377 0.0
H2776 H 0.28125 0.10923 0.32517 0.0
H2777 H 0.32132 0.08637 0.35245 0.0
H2778 H 0.30904 0.05914 0.34693 0.0
H2779 H 0.28732 0.04179 0.33358 0.0
H2780 H 0.24831 0.06437 0.3046 0.0
H2781 H 0.25964 0.09176 0.31148 0.0
C2782 C 0.28718 0.09825 0.32997 0.0
C2783 C 0.3021 0.09972 0.33924 0.0
C2784 C 0.28024 0.08263 0.3264 0.0
C2785 C 0.30985 0.08546 0.34524 0.0
C2786 C 0.30282 0.06993 0.34211 0.0
C2787 C 0.28122 0.05274 0.32898 0.0
C2788 C 0.26693 0.05115 0.31875 0.0
C2789 C 0.28807 0.06836 0.33263 0.0
C2790 C 0.25932 0.06538 0.3125 0.0
C2791 C 0.2658 0.08099 0.31644 0.0
H2792 H 0.41099 0.80045 0.31182 0.0
H2793 H 0.43252 0.81095 0.36013 0.0
H2794 H 0.45816 0.79801 0.35257 0.0
H2795 H 0.47482 0.78486 0.33175 0.0
H2796 H 0.45278 0.77376 0.28369 0.0
H2797 H 0.42711 0.78598 0.29158 0.0
C2798 C 0.42132 0.79994 0.32067 0.0
C2799 C 0.41991 0.80676 0.33646 0.0
C2800 C 0.43598 0.79247 0.31625 0.0
C2801 C 0.43328 0.80573 0.34792 0.0
C2802 C 0.44796 0.7984 0.34357 0.0
C2803 C 0.46438 0.78488 0.32305 0.0
C2804 C 0.46593 0.77853 0.30704 0.0
C2805 C 0.4495 0.79184 0.32772 0.0
C2806 C 0.45217 0.77885 0.29596 0.0
C2807 C 0.4374 0.78577 0.30049 0.0
H2808 H 0.3029 0.94763 0.70552 0.0
H2809 H 0.33023 0.925 0.74601 0.0
H2810 H 0.32312 0.94737 0.76409 0.0
H2811 H 0.30983 0.97338 0.76859 0.0
H2812 H 0.28181 0.99669 0.72913 0.0
H2813 H 0.28821 0.97387 0.71058 0.0
C2814 C 0.3072 0.94755 0.71832 0.0
C2815 C 0.3174 0.93469 0.72423 0.0
C2816 C 0.3029 0.96054 0.72888 0.0
C2817 C 0.3228 0.93486 0.74091 0.0
C2818 C 0.31861 0.94761 0.75135 0.0
C2819 C 0.30506 0.97357 0.75593 0.0
C2820 C 0.29545 0.98685 0.75025 0.0
C2821 C 0.30883 0.96055 0.74545 0.0
C2822 C 0.28924 0.98665 0.73384 0.0
C2823 C 0.29296 0.97362 0.72324 0.0
H2824 H 0.60942 0.82912 0.73501 0.0
H2825 H 0.58467 0.82113 0.68762 0.0
H2826 H 0.56058 0.81013 0.70111 0.0
H2827 H 0.54686 0.80208 0.72628 0.0
H2828 H 0.57185 0.80948 0.77366 0.0
H2829 H 0.59533 0.82191 0.76025 0.0
C2830 C 0.59869 0.82515 0.72762 0.0
C2831 C 0.5989 0.82595 0.71029 0.0
C2832 C 0.58486 0.81888 0.73546 0.0
C2833 C 0.58497 0.82046 0.70094 0.0
C2834 C 0.57112 0.81429 0.70866 0.0
C2835 C 0.55732 0.80665 0.73373 0.0
C2836 C 0.55754 0.8049 0.751 0.0
C2837 C 0.57096 0.81339 0.72591 0.0
C2838 C 0.57132 0.81071 0.76038 0.0
C2839 C 0.58479 0.81774 0.7527 0.0
H2840 H 0.44566 0.24423 0.72429 0.0
H2841 H 0.46553 0.2151 0.68561 0.0
H2842 H 0.4929 0.22694 0.69166 0.0
H2843 H 0.51146 0.24437 0.70891 0.0
H2844 H 0.49169 0.27392 0.74743 0.0
H2845 H 0.46405 0.26345 0.74024 0.0
C2846 C 0.45602 0.2405 0.71723 0.0
C2847 C 0.45364 0.2287 0.70463 0.0
C2848 C 0.47172 0.24755 0.72064 0.0
C2849 C 0.46708 0.22416 0.69537 0.0
C2850 C 0.48272 0.23093 0.69882 0.0
C2851 C 0.50109 0.24875 0.71558 0.0
C2852 C 0.50376 0.25986 0.72876 0.0
C2853 C 0.48522 0.24252 0.71152 0.0
C2854 C 0.49009 0.26541 0.7372 0.0
C2855 C 0.47425 0.25931 0.73319 0.0
H2856 H 0.70487 0.74134 0.10582 0.0
H2857 H 0.67706 0.70396 0.07877 0.0
H2858 H 0.68215 0.71816 0.05283 0.0
H2859 H 0.69558 0.74072 0.03773 0.0
H2860 H 0.72536 0.77662 0.06463 0.0
H2861 H 0.7184 0.76372 0.09076 0.0
C2862 C 0.69985 0.73642 0.09423 0.0
C2863 C 0.69058 0.7217 0.09414 0.0
C2864 C 0.70318 0.74443 0.07938 0.0
C2865 C 0.68429 0.71526 0.07907 0.0
C2866 C 0.68717 0.72339 0.06428 0.0
C2867 C 0.70028 0.74578 0.04938 0.0
C2868 C 0.71077 0.75966 0.04941 0.0
C2869 C 0.6967 0.73792 0.06426 0.0
C2870 C 0.71719 0.76597 0.06445 0.0
C2871 C 0.71325 0.75858 0.07933 0.0
H2872 H 0.28747 0.71568 0.10731 0.0
H2873 H 0.3362 0.70878 0.08954 0.0
H2874 H 0.32764 0.72025 0.06295 0.0
H2875 H 0.30757 0.73539 0.04604 0.0
H2876 H 0.25881 0.74298 0.06307 0.0
H2877 H 0.26588 0.72768 0.08844 0.0
C2878 C 0.29608 0.71639 0.09749 0.0
C2879 C 0.31258 0.71173 0.10056 0.0
C2880 C 0.29107 0.72314 0.08211 0.0
C2881 C 0.32358 0.71267 0.08767 0.0
C2882 C 0.31867 0.71916 0.07242 0.0
C2883 C 0.29836 0.73333 0.05514 0.0
C2884 C 0.28274 0.7403 0.05278 0.0
C2885 C 0.30264 0.72491 0.0697 0.0
C2886 C 0.27087 0.73755 0.06458 0.0
C2887 C 0.275 0.72899 0.07915 0.0
H2888 H 0.31267 0.32329 0.09947 0.0
H2889 H 0.27412 0.30821 0.13129 0.0
H2890 H 0.25926 0.29477 0.10808 0.0
H2891 H 0.2581 0.28581 0.07911 0.0
H2892 H 0.2967 0.30105 0.04727 0.0
H2893 H 0.31047 0.31607 0.07001 0.0
C2894 C 0.30102 0.31706 0.10129 0.0
C2895 C 0.29458 0.31662 0.11709 0.0
C2896 C 0.29249 0.30943 0.08786 0.0
C2897 C 0.27932 0.30875 0.11923 0.0
C2898 C 0.27083 0.30103 0.10597 0.0
C2899 C 0.26938 0.29264 0.07704 0.0
C2900 C 0.27637 0.29216 0.06147 0.0
C2901 C 0.27739 0.30113 0.09026 0.0
C2902 C 0.29102 0.30111 0.0591 0.0
C2903 C 0.29898 0.30966 0.07214 0.0
H2904 H 0.71624 0.33625 0.09873 0.0
H2905 H 0.69817 0.29375 0.12453 0.0
H2906 H 0.70831 0.27563 0.10337 0.0
H2907 H 0.72162 0.27181 0.07727 0.0
H2908 H 0.73958 0.31398 0.05096 0.0
H2909 H 0.7304 0.33224 0.07263 0.0
C2910 C 0.71471 0.32301 0.09977 0.0
C2911 C 0.70634 0.31636 0.11309 0.0
C2912 C 0.72049 0.31261 0.08744 0.0
C2913 C 0.70436 0.29918 0.11426 0.0
C2914 C 0.71018 0.2888 0.10219 0.0
C2915 C 0.72339 0.285 0.07617 0.0
C2916 C 0.73115 0.2915 0.06243 0.0
C2917 C 0.71805 0.29539 0.08862 0.0
C2918 C 0.73371 0.30863 0.06144 0.0
C2919 C 0.72841 0.31909 0.07381 0.0
H2920 H 0.71319 0.31208 0.93307 0.0
H2921 H 0.75454 0.34346 0.92203 0.0
H2922 H 0.77032 0.33235 0.94546 0.0
H2923 H 0.77252 0.31384 0.96918 0.0
H2924 H 0.73174 0.2816 0.97982 0.0
H2925 H 0.71575 0.29278 0.95641 0.0
C2926 C 0.7257 0.31637 0.93569 0.0
C2927 C 0.73253 0.32876 0.92587 0.0
C2928 C 0.73486 0.30978 0.94915 0.0
C2929 C 0.74877 0.33423 0.92956 0.0
C2930 C 0.75789 0.3278 0.94292 0.0
C2931 C 0.76012 0.30927 0.96641 0.0
C2932 C 0.75334 0.29695 0.9763 0.0
C2933 C 0.75104 0.31565 0.95285 0.0
C2934 C 0.73729 0.29108 0.97242 0.0
C2935 C 0.72812 0.29748 0.95903 0.0
H2936 H 0.72943 0.69863 0.928 0.0
H2937 H 0.72048 0.73957 0.89516 0.0
H2938 H 0.73065 0.75872 0.91637 0.0
H2939 H 0.73951 0.76422 0.94474 0.0
H2940 H 0.74818 0.72424 0.97862 0.0
H2941 H 0.74115 0.7043 0.95647 0.0
C2942 C 0.72994 0.71172 0.92547 0.0
C2943 C 0.72388 0.71769 0.91009 0.0
C2944 C 0.73574 0.72282 0.9379 0.0
C2945 C 0.72469 0.73468 0.90698 0.0
C2946 C 0.73058 0.74566 0.91908 0.0
C2947 C 0.74007 0.75111 0.94726 0.0
C2948 C 0.74418 0.74569 0.96331 0.0
C2949 C 0.73572 0.73991 0.93466 0.0
C2950 C 0.74511 0.72871 0.96634 0.0
C2951 C 0.74093 0.71734 0.95371 0.0
H2952 H 0.31654 0.72905 0.92054 0.0
H2953 H 0.36664 0.73431 0.93957 0.0
H2954 H 0.35722 0.74887 0.96367 0.0
H2955 H 0.33465 0.75995 0.97954 0.0
H2956 H 0.28462 0.75437 0.96052 0.0
H2957 H 0.29406 0.73989 0.93643 0.0
C2958 C 0.32539 0.73321 0.93004 0.0
C2959 C 0.34227 0.7306 0.9282 0.0
C2960 C 0.31989 0.74151 0.94393 0.0
C2961 C 0.35358 0.73633 0.94054 0.0
C2962 C 0.3482 0.7446 0.95439 0.0
C2963 C 0.32586 0.75566 0.97005 0.0
C2964 C 0.30896 0.75817 0.97189 0.0
C2965 C 0.33138 0.74731 0.95619 0.0
C2966 C 0.29767 0.75238 0.95956 0.0
C2967 C 0.30307 0.74416 0.94572 0.0
H2968 H 0.32387 0.32457 0.93511 0.0
H2969 H 0.36595 0.2938 0.92836 0.0
H2970 H 0.35716 0.27548 0.95007 0.0
H2971 H 0.33789 0.26838 0.97149 0.0
H2972 H 0.29543 0.29853 0.97795 0.0
H2973 H 0.30374 0.31658 0.95567 0.0
C2974 C 0.33101 0.31376 0.93826 0.0
C2975 C 0.34572 0.3108 0.93026 0.0
C2976 C 0.32579 0.30308 0.9507 0.0
C2977 C 0.35482 0.2967 0.93457 0.0
C2978 C 0.34975 0.28611 0.94693 0.0
C2979 C 0.33049 0.27892 0.96802 0.0
C2980 C 0.3161 0.28209 0.97641 0.0
C2981 C 0.33536 0.28927 0.95521 0.0
C2982 C 0.30648 0.29567 0.9716 0.0
C2983 C 0.31128 0.30608 0.95892 0.0
H2984 H 0.5951 0.71115 0.20092 0.0
H2985 H 0.62488 0.69725 0.24373 0.0
H2986 H 0.60302 0.70541 0.26163 0.0
H2987 H 0.57571 0.7173 0.26523 0.0
H2988 H 0.54633 0.73189 0.22249 0.0
H2989 H 0.56784 0.72292 0.20451 0.0
C2990 C 0.59689 0.71004 0.21417 0.0
C2991 C 0.61165 0.70357 0.22092 0.0
C2992 C 0.58434 0.71493 0.22444 0.0
C2993 C 0.61359 0.70197 0.23814 0.0
C2994 C 0.60112 0.70673 0.24842 0.0
C2995 C 0.57396 0.71833 0.25198 0.0
C2996 C 0.55945 0.72528 0.24522 0.0
C2997 C 0.58645 0.71325 0.24171 0.0
C2998 C 0.55746 0.72676 0.22802 0.0
C2999 C 0.56973 0.72158 0.21772 0.0
H3000 H 0.31664 0.60541 0.21151 0.0
H3001 H 0.30957 0.63989 0.25094 0.0
H3002 H 0.30203 0.61735 0.26911 0.0
H3003 H 0.29766 0.58782 0.27392 0.0
H3004 H 0.3047 0.55323 0.23463 0.0
H3005 H 0.31187 0.57579 0.21626 0.0
C3006 C 0.31324 0.60799 0.22401 0.0
C3007 C 0.31371 0.62431 0.22986 0.0
C3008 C 0.30898 0.59494 0.23445 0.0
C3009 C 0.30947 0.62743 0.24617 0.0
C3010 C 0.30514 0.61455 0.25658 0.0
C3011 C 0.30094 0.58519 0.26141 0.0
C3012 C 0.3007 0.56883 0.2557 0.0
C3013 C 0.305 0.59824 0.2509 0.0
C3014 C 0.30467 0.56571 0.23931 0.0
C3015 C 0.30881 0.57861 0.2288 0.0
H3016 H 0.4127 0.31975 0.24069 0.0
H3017 H 0.42455 0.3201 0.18937 0.0
H3018 H 0.45071 0.30706 0.19611 0.0
H3019 H 0.46927 0.2937 0.21596 0.0
H3020 H 0.45823 0.2926 0.26739 0.0
H3021 H 0.43295 0.30812 0.26132 0.0
C3022 C 0.42113 0.31716 0.23105 0.0
C3023 C 0.41648 0.32064 0.21448 0.0
C3024 C 0.43629 0.30952 0.23502 0.0
C3025 C 0.42759 0.31722 0.20215 0.0
C3026 C 0.44262 0.30983 0.20599 0.0
C3027 C 0.46144 0.29698 0.22592 0.0
C3028 C 0.46557 0.29187 0.24209 0.0
C3029 C 0.44693 0.30561 0.2223 0.0
C3030 C 0.45538 0.29642 0.25484 0.0
C3031 C 0.44085 0.30519 0.25134 0.0
H3032 H 0.71697 0.44089 0.1938 0.0
H3033 H 0.70556 0.42446 0.24252 0.0
H3034 H 0.72103 0.44792 0.25459 0.0
H3035 H 0.73981 0.47207 0.25124 0.0
H3036 H 0.75197 0.48694 0.2022 0.0
H3037 H 0.73431 0.4652 0.19039 0.0
C3038 C 0.7179 0.44237 0.20708 0.0
C3039 C 0.71028 0.43078 0.21721 0.0
C3040 C 0.72703 0.45566 0.21391 0.0
C3041 C 0.71127 0.4332 0.23439 0.0
C3042 C 0.7202 0.44658 0.24131 0.0
C3043 C 0.73834 0.47066 0.23799 0.0
C3044 C 0.74724 0.48106 0.22761 0.0
C3045 C 0.72838 0.45777 0.2312 0.0
C3046 C 0.74536 0.47902 0.21045 0.0
C3047 C 0.73527 0.46657 0.20367 0.0
H3048 H 0.63728 0.30607 0.80669 0.0
H3049 H 0.6118 0.35224 0.80629 0.0
H3050 H 0.58758 0.33898 0.79272 0.0
H3051 H 0.57277 0.3134 0.78313 0.0
H3052 H 0.59874 0.26743 0.78479 0.0
H3053 H 0.62353 0.28141 0.79555 0.0
C3054 C 0.62643 0.31325 0.80364 0.0
C3055 C 0.62628 0.33005 0.80771 0.0
C3056 C 0.61257 0.30553 0.79603 0.0
C3057 C 0.61225 0.33926 0.80329 0.0
C3058 C 0.59836 0.33166 0.7956 0.0
C3059 C 0.58398 0.30658 0.78556 0.0
C3060 C 0.5839 0.2894 0.78327 0.0
C3061 C 0.59825 0.3147 0.79216 0.0
C3062 C 0.59844 0.28065 0.7866 0.0
C3063 C 0.61265 0.28862 0.79279 0.0
H3064 H 0.75364 0.6162 0.80726 0.0
H3065 H 0.70782 0.58955 0.799 0.0
H3066 H 0.72204 0.56799 0.78439 0.0
H3067 H 0.74787 0.55612 0.77478 0.0
H3068 H 0.79364 0.58249 0.78443 0.0
H3069 H 0.77911 0.60465 0.7976 0.0
C3070 C 0.74677 0.6056 0.80243 0.0
C3071 C 0.72969 0.60451 0.80431 0.0
C3072 C 0.75503 0.59318 0.79418 0.0
C3073 C 0.72096 0.59081 0.79763 0.0
C3074 C 0.72909 0.57843 0.7893 0.0
C3075 C 0.75457 0.56684 0.77958 0.0
C3076 C 0.77178 0.56768 0.77863 0.0
C3077 C 0.74616 0.57945 0.78753 0.0
C3078 C 0.78038 0.58153 0.78507 0.0
C3079 C 0.7721 0.5942 0.79264 0.0
H3080 H 0.43984 0.74721 0.82126 0.0
H3081 H 0.45537 0.69663 0.81981 0.0
H3082 H 0.4801 0.70489 0.8059 0.0
H3083 H 0.49599 0.72585 0.79197 0.0
H3084 H 0.48088 0.77651 0.79253 0.0
H3085 H 0.4576 0.76895 0.80944 0.0
C3086 C 0.44878 0.73805 0.81813 0.0
C3087 C 0.44559 0.72126 0.8213 0.0
C3088 C 0.46305 0.7429 0.81001 0.0
C3089 C 0.4573 0.70956 0.81715 0.0
C3090 C 0.47151 0.71428 0.80928 0.0
C3091 C 0.48774 0.73531 0.79598 0.0
C3092 C 0.49005 0.75168 0.79089 0.0
C3093 C 0.47429 0.73082 0.8053 0.0
C3094 C 0.4794 0.76382 0.79635 0.0
C3095 C 0.466 0.75946 0.80587 0.0
H3096 H 0.36845 0.43662 0.81861 0.0
H3097 H 0.31928 0.41629 0.82048 0.0
H3098 H 0.3083 0.44047 0.8062 0.0
H3099 H 0.3127 0.46716 0.79267 0.0
H3100 H 0.36192 0.48748 0.79106 0.0
H3101 H 0.3728 0.46338 0.80534 0.0
C3102 C 0.35534 0.4374 0.81577 0.0
C3103 C 0.34474 0.42459 0.82062 0.0
C3104 C 0.34909 0.45132 0.80749 0.0
C3105 C 0.32774 0.426 0.81708 0.0
C3106 C 0.32144 0.4398 0.80882 0.0
C3107 C 0.32579 0.46644 0.79557 0.0
C3108 C 0.33643 0.47923 0.79069 0.0
C3109 C 0.33201 0.45254 0.80395 0.0
C3110 C 0.35341 0.47782 0.79439 0.0
C3111 C 0.35967 0.46404 0.80267 0.0
H3112 H 0.73557 0.60393 0.17537 0.0
H3113 H 0.72426 0.62052 0.22409 0.0
H3114 H 0.74097 0.59875 0.23632 0.0
H3115 H 0.75807 0.5745 0.23334 0.0
H3116 H 0.76991 0.55772 0.18496 0.0
H3117 H 0.75414 0.58031 0.17245 0.0
C3118 C 0.73693 0.6029 0.18866 0.0
C3119 C 0.72842 0.61373 0.19876 0.0
C3120 C 0.7467 0.59034 0.19569 0.0
C3121 C 0.7303 0.61215 0.21598 0.0
C3122 C 0.73996 0.59975 0.22302 0.0
C3123 C 0.75715 0.57575 0.22006 0.0
C3124 C 0.765 0.56434 0.21009 0.0
C3125 C 0.74802 0.58866 0.21301 0.0
C3126 C 0.76404 0.56637 0.1929 0.0
C3127 C 0.75494 0.57923 0.18576 0.0
H3128 H 0.72619 0.44651 0.81472 0.0
H3129 H 0.76805 0.41695 0.82898 0.0
H3130 H 0.7867 0.43841 0.8195 0.0
H3131 H 0.79115 0.46548 0.80674 0.0
H3132 H 0.74929 0.495 0.79253 0.0
H3133 H 0.73067 0.4737 0.80228 0.0
C3134 C 0.73939 0.44472 0.81561 0.0
C3135 C 0.74571 0.43017 0.82255 0.0
C3136 C 0.75007 0.45714 0.81017 0.0
C3137 C 0.76287 0.42812 0.82383 0.0
C3138 C 0.77355 0.44037 0.81838 0.0
C3139 C 0.77797 0.46732 0.80598 0.0
C3140 C 0.77164 0.48178 0.79885 0.0
C3141 C 0.7673 0.45496 0.81157 0.0
C3142 C 0.75449 0.48389 0.79776 0.0
C3143 C 0.74382 0.47172 0.80337 0.0
H3144 H 0.61768 0.72482 0.80691 0.0
H3145 H 0.60848 0.67538 0.78892 0.0
H3146 H 0.58469 0.68481 0.7725 0.0
H3147 H 0.56638 0.70718 0.76307 0.0
H3148 H 0.575 0.75627 0.78196 0.0
H3149 H 0.59884 0.74686 0.79838 0.0
C3150 C 0.61036 0.71603 0.7996 0.0
C3151 C 0.61504 0.69942 0.79911 0.0
C3152 C 0.59651 0.72148 0.79031 0.0
C3153 C 0.60544 0.68831 0.78933 0.0
C3154 C 0.59173 0.69366 0.77998 0.0
C3155 C 0.57354 0.71578 0.77074 0.0
C3156 C 0.56891 0.73237 0.77131 0.0
C3157 C 0.5872 0.71024 0.78028 0.0
C3158 C 0.57818 0.74339 0.78146 0.0
C3159 C 0.59188 0.73803 0.7908 0.0
H3160 H 0.3231 0.60838 0.83685 0.0
H3161 H 0.33274 0.63502 0.79224 0.0
H3162 H 0.32145 0.61226 0.77571 0.0
H3163 H 0.31144 0.58398 0.77371 0.0
H3164 H 0.30135 0.55655 0.81758 0.0
H3165 H 0.30982 0.58051 0.83464 0.0
C3166 C 0.32245 0.60927 0.82353 0.0
C3167 C 0.32912 0.62326 0.81579 0.0
C3168 C 0.31592 0.59599 0.81398 0.0
C3169 C 0.32811 0.62425 0.79851 0.0
C3170 C 0.32159 0.61127 0.78902 0.0
C3171 C 0.31089 0.5833 0.78702 0.0
C3172 C 0.30598 0.56851 0.79442 0.0
C3173 C 0.3159 0.59694 0.79661 0.0
C3174 C 0.30507 0.56785 0.81163 0.0
C3175 C 0.31004 0.5815 0.82136 0.0
H3176 H 0.44188 0.31131 0.81274 0.0
H3177 H 0.46576 0.31802 0.86071 0.0
H3178 H 0.48918 0.30203 0.8522 0.0
H3179 H 0.50313 0.28644 0.8309 0.0
H3180 H 0.47942 0.28025 0.78284 0.0
H3181 H 0.45576 0.29578 0.79153 0.0
C3182 C 0.45229 0.30944 0.82126 0.0
C3183 C 0.45205 0.31587 0.83733 0.0
C3184 C 0.46574 0.30025 0.81628 0.0
C3185 C 0.46554 0.31308 0.84832 0.0
C3186 C 0.47897 0.30396 0.84345 0.0
C3187 C 0.49268 0.28833 0.82244 0.0
C3188 C 0.49302 0.28222 0.80626 0.0
C3189 C 0.47918 0.29744 0.82748 0.0
C3190 C 0.4795 0.28497 0.79531 0.0
C3191 C 0.46597 0.29383 0.80028 0.0
H3192 H 0.32739 0.44013 0.22097 0.0
H3193 H 0.27967 0.41639 0.22177 0.0
H3194 H 0.26795 0.4414 0.23287 0.0
H3195 H 0.27159 0.46962 0.24393 0.0
H3196 H 0.31968 0.49268 0.24418 0.0
H3197 H 0.33083 0.46847 0.23106 0.0
C3198 C 0.31445 0.44038 0.22366 0.0
C3199 C 0.30448 0.42634 0.2206 0.0
C3200 C 0.3078 0.45476 0.23019 0.0
C3201 C 0.28764 0.42704 0.22388 0.0
C3202 C 0.28092 0.44134 0.23029 0.0
C3203 C 0.28443 0.46944 0.24081 0.0
C3204 C 0.29478 0.48294 0.24499 0.0
C3205 C 0.2909 0.45525 0.23362 0.0
C3206 C 0.31145 0.48243 0.24111 0.0
C3207 C 0.31787 0.46856 0.23366 0.0
H3208 H 0.58346 0.33557 0.21281 0.0
H3209 H 0.61482 0.29545 0.20034 0.0
H3210 H 0.59359 0.27555 0.20761 0.0
H3211 H 0.56598 0.26952 0.21676 0.0
H3212 H 0.53388 0.30926 0.2286 0.0
H3213 H 0.55547 0.32933 0.22244 0.0
C3214 C 0.58563 0.32246 0.21191 0.0
C3215 C 0.60062 0.31693 0.20606 0.0
C3216 C 0.57321 0.31105 0.21585 0.0
C3217 C 0.60332 0.29994 0.20477 0.0
C3218 C 0.59119 0.28857 0.20888 0.0
C3219 C 0.56359 0.28256 0.2178 0.0
C3220 C 0.54826 0.28784 0.22301 0.0
C3221 C 0.57602 0.29398 0.21421 0.0
C3222 C 0.54559 0.30483 0.22468 0.0
C3223 C 0.55793 0.31632 0.22113 0.0
H3224 H 0.42241 0.7446 0.20646 0.0
H3225 H 0.43433 0.69308 0.20968 0.0
H3226 H 0.46128 0.69999 0.22215 0.0
H3227 H 0.48027 0.72024 0.23457 0.0
H3228 H 0.46896 0.77189 0.23227 0.0
H3229 H 0.44313 0.76545 0.21673 0.0
C3230 C 0.43106 0.73496 0.20965 0.0
C3231 C 0.4263 0.71834 0.2074 0.0
C3232 C 0.44658 0.73903 0.21705 0.0
C3233 C 0.4376 0.70594 0.21157 0.0
C3234 C 0.45302 0.70987 0.21867 0.0
C3235 C 0.47225 0.73013 0.23052 0.0
C3236 C 0.47641 0.74649 0.23472 0.0
C3237 C 0.45744 0.72631 0.22188 0.0
C3238 C 0.46602 0.75918 0.22917 0.0
C3239 C 0.45121 0.75548 0.22039 0.0
loop_
_geom_bond_atom_site_label_1
_geom_bond_atom_site_label_2
_geom_bond_distance
_geom_bond_site_symmetry_2
_ccdc_geom_bond_type
C0 C1 1.384 . S
C0 H13 0.947 . S
C0 C35 1.382 . S
C1 C0 1.384 . S
C1 C2 1.378 . S
C2 C1 1.378 . S
C2 C3 1.378 . S
C2 H14 0.952 . S
C3 C2 1.378 . S
C3 H15 0.950 . S
C3 C34 1.383 . S
H4 C23 0.947 . S
H5 C24 0.946 . S
H6 C26 0.953 . S
H7 C27 0.945 . S
H8 C29 0.952 . S
H9 C30 0.949 . S
H10 C32 0.950 . S
H11 C33 0.948 . S
H12 C35 0.951 . S
H13 C0 0.947 . S
H14 C2 0.952 . S
H15 C3 0.950 . S
N16 C19 1.382 . S
N16 C21 1.363 . S
N17 C19 1.371 . S
N17 C20 1.372 . S
N18 C20 1.361 . S
N18 C21 1.377 . S
C19 N16 1.382 . S
C19 N17 1.371 . S
C19 C22 1.480 . S
C20 N17 1.372 . S
C20 N18 1.361 . S
C20 C28 1.457 . S
C21 N16 1.363 . S
C21 N18 1.377 . S
C21 C34 1.479 . S
C22 C19 1.480 . S
C22 C23 1.383 . S
C22 C27 1.385 . S
C23 H4 0.947 . S
C23 C22 1.383 . S
C23 C24 1.388 . S
C24 H5 0.946 . S
C24 C23 1.388 . S
C24 C25 1.384 . S
C25 C24 1.384 . S
C25 C26 1.377 . S
C26 H6 0.953 . S
C26 C25 1.377 . S
C26 C27 1.369 . S
C27 H7 0.945 . S
C27 C22 1.385 . S
C27 C26 1.369 . S
C28 C20 1.457 . S
C28 C29 1.372 . S
C28 C33 1.364 . S
C29 H8 0.952 . S
C29 C28 1.372 . S
C29 C30 1.389 . S
C30 H9 0.949 . S
C30 C29 1.389 . S
C30 C31 1.387 . S
C31 C30 1.387 . S
C31 C32 1.372 . S
C32 H10 0.950 . S
C32 C31 1.372 . S
C32 C33 1.379 . S
C33 H11 0.948 . S
C33 C28 1.364 . S
C33 C32 1.379 . S
C34 C3 1.383 . S
C34 C21 1.479 . S
C34 C35 1.398 . S
C35 C0 1.382 . S
C35 H12 0.951 . S
C35 C34 1.398 . S
C36 C37 1.384 . S
C36 H49 0.947 . S
C36 C71 1.382 . S
C37 C36 1.384 . S
C37 C38 1.378 . S
C38 C37 1.378 . S
C38 C39 1.378 . S
C38 H50 0.952 . S
C39 C38 1.378 . S
C39 H51 0.950 . S
C39 C70 1.383 . S
H40 C59 0.947 . S
H41 C60 0.946 . S
H42 C62 0.953 . S
H43 C63 0.945 . S
H44 C65 0.952 . S
H45 C66 0.949 . S
H46 C68 0.950 . S
H47 C69 0.948 . S
H48 C71 0.951 . S
H49 C36 0.947 . S
H50 C38 0.952 . S
H51 C39 0.950 . S
N52 C55 1.382 . S
N52 C57 1.363 . S
N53 C55 1.371 . S
N53 C56 1.372 . S
N54 C56 1.361 . S
N54 C57 1.377 . S
C55 N52 1.382 . S
C55 N53 1.371 . S
C55 C58 1.480 . S
C56 N53 1.372 . S
C56 N54 1.361 . S
C56 C64 1.457 . S
C57 N52 1.363 . S
C57 N54 1.377 . S
C57 C70 1.479 . S
C58 C55 1.480 . S
C58 C59 1.383 . S
C58 C63 1.385 . S
C59 H40 0.947 . S
C59 C58 1.383 . S
C59 C60 1.388 . S
C60 H41 0.946 . S
C60 C59 1.388 . S
C60 C61 1.384 . S
C61 C60 1.384 . S
C61 C62 1.377 . S
C62 H42 0.953 . S
C62 C61 1.377 . S
C62 C63 1.369 . S
C63 H43 0.945 . S
C63 C58 1.385 . S
C63 C62 1.369 . S
C64 C56 1.457 . S
C64 C65 1.372 . S
C64 C69 1.364 . S
C65 H44 0.952 . S
C65 C64 1.372 . S
C65 C66 1.389 . S
C66 H45 0.949 . S
C66 C65 1.389 . S
C66 C67 1.387 . S
C67 C66 1.387 . S
C67 C68 1.372 . S
C68 H46 0.950 . S
C68 C67 1.372 . S
C68 C69 1.379 . S
C69 H47 0.948 . S
C69 C64 1.364 . S
C69 C68 1.379 . S
C70 C39 1.383 . S
C70 C57 1.479 . S
C70 C71 1.398 . S
C71 C36 1.382 . S
C71 H48 0.951 . S
C71 C70 1.398 . S
C72 C73 1.384 . S
C72 H85 0.947 . S
C72 C107 1.382 . S
C73 C72 1.384 . S
C73 C74 1.378 . S
C74 C73 1.378 . S
C74 C75 1.378 . S
C74 H86 0.952 . S
C75 C74 1.378 . S
C75 H87 0.950 . S
C75 C106 1.383 . S
H76 C95 0.947 . S
H77 C96 0.946 . S
H78 C98 0.953 . S
H79 C99 0.945 . S
H80 C101 0.952 . S
H81 C102 0.949 . S
H82 C104 0.950 . S
H83 C105 0.948 . S
H84 C107 0.951 . S
H85 C72 0.947 . S
H86 C74 0.952 . S
H87 C75 0.950 . S
N88 C91 1.382 . S
N88 C93 1.363 . S
N89 C91 1.371 . S
N89 C92 1.372 . S
N90 C92 1.361 . S
N90 C93 1.377 . S
C91 N88 1.382 . S
C91 N89 1.371 . S
C91 C94 1.480 . S
C92 N89 1.372 . S
C92 N90 1.361 . S
C92 C100 1.457 . S
C93 N88 1.363 . S
C93 N90 1.377 . S
C93 C106 1.479 . S
C94 C91 1.480 . S
C94 C95 1.383 . S
C94 C99 1.385 . S
C95 H76 0.947 . S
C95 C94 1.383 . S
C95 C96 1.388 . S
C96 H77 0.946 . S
C96 C95 1.388 . S
C96 C97 1.384 . S
C97 C96 1.384 . S
C97 C98 1.377 . S
C98 H78 0.953 . S
C98 C97 1.377 . S
C98 C99 1.369 . S
C99 H79 0.945 . S
C99 C94 1.385 . S
C99 C98 1.369 . S
C100 C92 1.457 . S
C100 C101 1.372 . S
C100 C105 1.364 . S
C101 H80 0.952 . S
C101 C100 1.372 . S
C101 C102 1.389 . S
C102 H81 0.949 . S
C102 C101 1.389 . S
C102 C103 1.387 . S
C103 C102 1.387 . S
C103 C104 1.372 . S
C104 H82 0.950 . S
C104 C103 1.372 . S
C104 C105 1.379 . S
C105 H83 0.948 . S
C105 C100 1.364 . S
C105 C104 1.379 . S
C106 C75 1.383 . S
C106 C93 1.479 . S
C106 C107 1.398 . S
C107 C72 1.382 . S
C107 H84 0.951 . S
C107 C106 1.398 . S
C108 C109 1.384 . S
C108 H121 0.947 . S
C108 C143 1.382 . S
C109 C108 1.384 . S
C109 C110 1.378 . S
C110 C109 1.378 . S
C110 C111 1.378 . S
C110 H122 0.952 . S
C111 C110 1.378 . S
C111 H123 0.950 . S
C111 C142 1.383 . S
H112 C131 0.947 . S
H113 C132 0.946 . S
H114 C134 0.953 . S
H115 C135 0.945 . S
H116 C137 0.952 . S
H117 C138 0.949 . S
H118 C140 0.950 . S
H119 C141 0.948 . S
H120 C143 0.951 . S
H121 C108 0.947 . S
H122 C110 0.952 . S
H123 C111 0.950 . S
N124 C127 1.382 . S
N124 C129 1.363 . S
N125 C127 1.371 . S
N125 C128 1.372 . S
N126 C128 1.361 . S
N126 C129 1.377 . S
C127 N124 1.382 . S
C127 N125 1.371 . S
C127 C130 1.480 . S
C128 N125 1.372 . S
C128 N126 1.361 . S
C128 C136 1.457 . S
C129 N124 1.363 . S
C129 N126 1.377 . S
C129 C142 1.479 . S
C130 C127 1.480 . S
C130 C131 1.383 . S
C130 C135 1.385 . S
C131 H112 0.947 . S
C131 C130 1.383 . S
C131 C132 1.388 . S
C132 H113 0.946 . S
C132 C131 1.388 . S
C132 C133 1.384 . S
C133 C132 1.384 . S
C133 C134 1.377 . S
C134 H114 0.953 . S
C134 C133 1.377 . S
C134 C135 1.369 . S
C135 H115 0.945 . S
C135 C130 1.385 . S
C135 C134 1.369 . S
C136 C128 1.457 . S
C136 C137 1.372 . S
C136 C141 1.364 . S
C137 H116 0.952 . S
C137 C136 1.372 . S
C137 C138 1.389 . S
C138 H117 0.949 . S
C138 C137 1.389 . S
C138 C139 1.387 . S
C139 C138 1.387 . S
C139 C140 1.372 . S
C140 H118 0.950 . S
C140 C139 1.372 . S
C140 C141 1.379 . S
C141 H119 0.948 . S
C141 C136 1.364 . S
C141 C140 1.379 . S
C142 C111 1.383 . S
C142 C129 1.479 . S
C142 C143 1.398 . S
C143 C108 1.382 . S
C143 H120 0.951 . S
C143 C142 1.398 . S
C144 C145 1.384 . S
C144 H157 0.947 . S
C144 C179 1.382 . S
C145 C144 1.384 . S
C145 C146 1.378 . S
C146 C145 1.378 . S
C146 C147 1.378 . S
C146 H158 0.952 . S
C147 C146 1.378 . S
C147 H159 0.950 . S
C147 C178 1.383 . S
H148 C167 0.947 . S
H149 C168 0.946 . S
H150 C170 0.953 . S
H151 C171 0.945 . S
H152 C173 0.952 . S
H153 C174 0.949 . S
H154 C176 0.950 . S
H155 C177 0.948 . S
H156 C179 0.951 . S
H157 C144 0.947 . S
H158 C146 0.952 . S
H159 C147 0.950 . S
N160 C163 1.382 . S
N160 C165 1.363 . S
N161 C163 1.371 . S
N161 C164 1.372 . S
N162 C164 1.361 . S
N162 C165 1.377 . S
C163 N160 1.382 . S
C163 N161 1.371 . S
C163 C166 1.480 . S
C164 N161 1.372 . S
C164 N162 1.361 . S
C164 C172 1.457 . S
C165 N160 1.363 . S
C165 N162 1.377 . S
C165 C178 1.479 . S
C166 C163 1.480 . S
C166 C167 1.383 . S
C166 C171 1.385 . S
C167 H148 0.947 . S
C167 C166 1.383 . S
C167 C168 1.388 . S
C168 H149 0.946 . S
C168 C167 1.388 . S
C168 C169 1.384 . S
C169 C168 1.384 . S
C169 C170 1.377 . S
C170 H150 0.953 . S
C170 C169 1.377 . S
C170 C171 1.369 . S
C171 H151 0.945 . S
C171 C166 1.385 . S
C171 C170 1.369 . S
C172 C164 1.457 . S
C172 C173 1.372 . S
C172 C177 1.364 . S
C173 H152 0.952 . S
C173 C172 1.372 . S
C173 C174 1.389 . S
C174 H153 0.949 . S
C174 C173 1.389 . S
C174 C175 1.387 . S
C175 C174 1.387 . S
C175 C176 1.372 . S
C176 H154 0.950 . S
C176 C175 1.372 . S
C176 C177 1.379 . S
C177 H155 0.948 . S
C177 C172 1.364 . S
C177 C176 1.379 . S
C178 C147 1.383 . S
C178 C165 1.479 . S
C178 C179 1.398 . S
C179 C144 1.382 . S
C179 H156 0.951 . S
C179 C178 1.398 . S
C180 C181 1.384 . S
C180 H193 0.947 . S
C180 C215 1.382 . S
C181 C180 1.384 . S
C181 C182 1.378 . S
C182 C181 1.378 . S
C182 C183 1.378 . S
C182 H194 0.952 . S
C183 C182 1.378 . S
C183 H195 0.950 . S
C183 C214 1.383 . S
H184 C203 0.947 . S
H185 C204 0.946 . S
H186 C206 0.953 . S
H187 C207 0.945 . S
H188 C209 0.952 . S
H189 C210 0.949 . S
H190 C212 0.950 . S
H191 C213 0.948 . S
H192 C215 0.951 . S
H193 C180 0.947 . S
H194 C182 0.952 . S
H195 C183 0.950 . S
N196 C199 1.382 . S
N196 C201 1.363 . S
N197 C199 1.371 . S
N197 C200 1.372 . S
N198 C200 1.361 . S
N198 C201 1.377 . S
C199 N196 1.382 . S
C199 N197 1.371 . S
C199 C202 1.480 . S
C200 N197 1.372 . S
C200 N198 1.361 . S
C200 C208 1.457 . S
C201 N196 1.363 . S
C201 N198 1.377 . S
C201 C214 1.479 . S
C202 C199 1.480 . S
C202 C203 1.383 . S
C202 C207 1.385 . S
C203 H184 0.947 . S
C203 C202 1.383 . S
C203 C204 1.388 . S
C204 H185 0.946 . S
C204 C203 1.388 . S
C204 C205 1.384 . S
C205 C204 1.384 . S
C205 C206 1.377 . S
C206 H186 0.953 . S
C206 C205 1.377 . S
C206 C207 1.369 . S
C207 H187 0.945 . S
C207 C202 1.385 . S
C207 C206 1.369 . S
C208 C200 1.457 . S
C208 C209 1.372 . S
C208 C213 1.364 . S
C209 H188 0.952 . S
C209 C208 1.372 . S
C209 C210 1.389 . S
C210 H189 0.949 . S
C210 C209 1.389 . S
C210 C211 1.387 . S
C211 C210 1.387 . S
C211 C212 1.372 . S
C212 H190 0.950 . S
C212 C211 1.372 . S
C212 C213 1.379 . S
C213 H191 0.948 . S
C213 C208 1.364 . S
C213 C212 1.379 . S
C214 C183 1.383 . S
C214 C201 1.479 . S
C214 C215 1.398 . S
C215 C180 1.382 . S
C215 H192 0.951 . S
C215 C214 1.398 . S
C216 C217 1.384 . S
C216 H229 0.947 . S
C216 C251 1.382 . S
C217 C216 1.384 . S
C217 C218 1.378 . S
C218 C217 1.378 . S
C218 C219 1.378 . S
C218 H230 0.952 . S
C219 C218 1.378 . S
C219 H231 0.950 . S
C219 C250 1.383 . S
H220 C239 0.947 . S
H221 C240 0.946 . S
H222 C242 0.953 . S
H223 C243 0.945 . S
H224 C245 0.952 . S
H225 C246 0.949 . S
H226 C248 0.950 . S
H227 C249 0.948 . S
H228 C251 0.951 . S
H229 C216 0.947 . S
H230 C218 0.952 . S
H231 C219 0.950 . S
N232 C235 1.382 . S
N232 C237 1.363 . S
N233 C235 1.371 . S
N233 C236 1.372 . S
N234 C236 1.361 . S
N234 C237 1.377 . S
C235 N232 1.382 . S
C235 N233 1.371 . S
C235 C238 1.480 . S
C236 N233 1.372 . S
C236 N234 1.361 . S
C236 C244 1.457 . S
C237 N232 1.363 . S
C237 N234 1.377 . S
C237 C250 1.479 . S
C238 C235 1.480 . S
C238 C239 1.383 . S
C238 C243 1.385 . S
C239 H220 0.947 . S
C239 C238 1.383 . S
C239 C240 1.388 . S
C240 H221 0.946 . S
C240 C239 1.388 . S
C240 C241 1.384 . S
C241 C240 1.384 . S
C241 C242 1.377 . S
C242 H222 0.953 . S
C242 C241 1.377 . S
C242 C243 1.369 . S
C243 H223 0.945 . S
C243 C238 1.385 . S
C243 C242 1.369 . S
C244 C236 1.457 . S
C244 C245 1.372 . S
C244 C249 1.364 . S
C245 H224 0.952 . S
C245 C244 1.372 . S
C245 C246 1.389 . S
C246 H225 0.949 . S
C246 C245 1.389 . S
C246 C247 1.387 . S
C247 C246 1.387 . S
C247 C248 1.372 . S
C248 H226 0.950 . S
C248 C247 1.372 . S
C248 C249 1.379 . S
C249 H227 0.948 . S
C249 C244 1.364 . S
C249 C248 1.379 . S
C250 C219 1.383 . S
C250 C237 1.479 . S
C250 C251 1.398 . S
C251 C216 1.382 . S
C251 H228 0.951 . S
C251 C250 1.398 . S
C252 C253 1.384 . S
C252 H265 0.947 . S
C252 C287 1.382 . S
C253 C252 1.384 . S
C253 C254 1.378 . S
C254 C253 1.378 . S
C254 C255 1.378 . S
C254 H266 0.952 . S
C255 C254 1.378 . S
C255 H267 0.950 . S
C255 C286 1.383 . S
H256 C275 0.947 . S
H257 C276 0.946 . S
H258 C278 0.953 . S
H259 C279 0.945 . S
H260 C281 0.952 . S
H261 C282 0.949 . S
H262 C284 0.950 . S
H263 C285 0.948 . S
H264 C287 0.951 . S
H265 C252 0.947 . S
H266 C254 0.952 . S
H267 C255 0.950 . S
N268 C271 1.382 . S
N268 C273 1.363 . S
N269 C271 1.371 . S
N269 C272 1.372 . S
N270 C272 1.361 . S
N270 C273 1.377 . S
C271 N268 1.382 . S
C271 N269 1.371 . S
C271 C274 1.480 . S
C272 N269 1.372 . S
C272 N270 1.361 . S
C272 C280 1.457 . S
C273 N268 1.363 . S
C273 N270 1.377 . S
C273 C286 1.479 . S
C274 C271 1.480 . S
C274 C275 1.383 . S
C274 C279 1.385 . S
C275 H256 0.947 . S
C275 C274 1.383 . S
C275 C276 1.388 . S
C276 H257 0.946 . S
C276 C275 1.388 . S
C276 C277 1.384 . S
C277 C276 1.384 . S
C277 C278 1.377 . S
C278 H258 0.953 . S
C278 C277 1.377 . S
C278 C279 1.369 . S
C279 H259 0.945 . S
C279 C274 1.385 . S
C279 C278 1.369 . S
C280 C272 1.457 . S
C280 C281 1.372 . S
C280 C285 1.364 . S
C281 H260 0.952 . S
C281 C280 1.372 . S
C281 C282 1.389 . S
C282 H261 0.949 . S
C282 C281 1.389 . S
C282 C283 1.387 . S
C283 C282 1.387 . S
C283 C284 1.372 . S
C284 H262 0.950 . S
C284 C283 1.372 . S
C284 C285 1.379 . S
C285 H263 0.948 . S
C285 C280 1.364 . S
C285 C284 1.379 . S
C286 C255 1.383 . S
C286 C273 1.479 . S
C286 C287 1.398 . S
C287 C252 1.382 . S
C287 H264 0.951 . S
C287 C286 1.398 . S
C288 C289 1.384 . S
C288 H301 0.947 . S
C288 C323 1.382 . S
C289 C288 1.384 . S
C289 C290 1.378 . S
C290 C289 1.378 . S
C290 C291 1.378 . S
C290 H302 0.952 . S
C291 C290 1.378 . S
C291 H303 0.950 . S
C291 C322 1.383 . S
H292 C311 0.947 . S
H293 C312 0.946 . S
H294 C314 0.953 . S
H295 C315 0.945 . S
H296 C317 0.952 . S
H297 C318 0.949 . S
H298 C320 0.950 . S
H299 C321 0.948 . S
H300 C323 0.951 . S
H301 C288 0.947 . S
H302 C290 0.952 . S
H303 C291 0.950 . S
N304 C307 1.382 . S
N304 C309 1.363 . S
N305 C307 1.371 . S
N305 C308 1.372 . S
N306 C308 1.361 . S
N306 C309 1.377 . S
C307 N304 1.382 . S
C307 N305 1.371 . S
C307 C310 1.480 . S
C308 N305 1.372 . S
C308 N306 1.361 . S
C308 C316 1.457 . S
C309 N304 1.363 . S
C309 N306 1.377 . S
C309 C322 1.479 . S
C310 C307 1.480 . S
C310 C311 1.383 . S
C310 C315 1.385 . S
C311 H292 0.947 . S
C311 C310 1.383 . S
C311 C312 1.388 . S
C312 H293 0.946 . S
C312 C311 1.388 . S
C312 C313 1.384 . S
C313 C312 1.384 . S
C313 C314 1.377 . S
C314 H294 0.953 . S
C314 C313 1.377 . S
C314 C315 1.369 . S
C315 H295 0.945 . S
C315 C310 1.385 . S
C315 C314 1.369 . S
C316 C308 1.457 . S
C316 C317 1.372 . S
C316 C321 1.364 . S
C317 H296 0.952 . S
C317 C316 1.372 . S
C317 C318 1.389 . S
C318 H297 0.949 . S
C318 C317 1.389 . S
C318 C319 1.387 . S
C319 C318 1.387 . S
C319 C320 1.372 . S
C320 H298 0.950 . S
C320 C319 1.372 . S
C320 C321 1.379 . S
C321 H299 0.948 . S
C321 C316 1.364 . S
C321 C320 1.379 . S
C322 C291 1.383 . S
C322 C309 1.479 . S
C322 C323 1.398 . S
C323 C288 1.382 . S
C323 H300 0.951 . S
C323 C322 1.398 . S
C324 C325 1.384 . S
C324 H337 0.947 . S
C324 C359 1.382 . S
C325 C324 1.384 . S
C325 C326 1.378 . S
C326 C325 1.378 . S
C326 C327 1.378 . S
C326 H338 0.952 . S
C327 C326 1.378 . S
C327 H339 0.950 . S
C327 C358 1.383 . S
H328 C347 0.947 . S
H329 C348 0.946 . S
H330 C350 0.953 . S
H331 C351 0.945 . S
H332 C353 0.952 . S
H333 C354 0.949 . S
H334 C356 0.950 . S
H335 C357 0.948 . S
H336 C359 0.951 . S
H337 C324 0.947 . S
H338 C326 0.952 . S
H339 C327 0.950 . S
N340 C343 1.382 . S
N340 C345 1.363 . S
N341 C343 1.371 . S
N341 C344 1.372 . S
N342 C344 1.361 . S
N342 C345 1.377 . S
C343 N340 1.382 . S
C343 N341 1.371 . S
C343 C346 1.480 . S
C344 N341 1.372 . S
C344 N342 1.361 . S
C344 C352 1.457 . S
C345 N340 1.363 . S
C345 N342 1.377 . S
C345 C358 1.479 . S
C346 C343 1.480 . S
C346 C347 1.383 . S
C346 C351 1.385 . S
C347 H328 0.947 . S
C347 C346 1.383 . S
C347 C348 1.388 . S
C348 H329 0.946 . S
C348 C347 1.388 . S
C348 C349 1.384 . S
C349 C348 1.384 . S
C349 C350 1.377 . S
C350 H330 0.953 . S
C350 C349 1.377 . S
C350 C351 1.369 . S
C351 H331 0.945 . S
C351 C346 1.385 . S
C351 C350 1.369 . S
C352 C344 1.457 . S
C352 C353 1.372 . S
C352 C357 1.364 . S
C353 H332 0.952 . S
C353 C352 1.372 . S
C353 C354 1.389 . S
C354 H333 0.949 . S
C354 C353 1.389 . S
C354 C355 1.387 . S
C355 C354 1.387 . S
C355 C356 1.372 . S
C356 H334 0.950 . S
C356 C355 1.372 . S
C356 C357 1.379 . S
C357 H335 0.948 . S
C357 C352 1.364 . S
C357 C356 1.379 . S
C358 C327 1.383 . S
C358 C345 1.479 . S
C358 C359 1.398 . S
C359 C324 1.382 . S
C359 H336 0.951 . S
C359 C358 1.398 . S
C360 C361 1.384 . S
C360 H373 0.947 . S
C360 C395 1.382 . S
C361 C360 1.384 . S
C361 C362 1.378 . S
C362 C361 1.378 . S
C362 C363 1.378 . S
C362 H374 0.952 . S
C363 C362 1.378 . S
C363 H375 0.950 . S
C363 C394 1.383 . S
H364 C383 0.947 . S
H365 C384 0.946 . S
H366 C386 0.953 . S
H367 C387 0.945 . S
H368 C389 0.952 . S
H369 C390 0.949 . S
H370 C392 0.950 . S
H371 C393 0.948 . S
H372 C395 0.951 . S
H373 C360 0.947 . S
H374 C362 0.952 . S
H375 C363 0.950 . S
N376 C379 1.382 . S
N376 C381 1.363 . S
N377 C379 1.371 . S
N377 C380 1.372 . S
N378 C380 1.361 . S
N378 C381 1.377 . S
C379 N376 1.382 . S
C379 N377 1.371 . S
C379 C382 1.480 . S
C380 N377 1.372 . S
C380 N378 1.361 . S
C380 C388 1.457 . S
C381 N376 1.363 . S
C381 N378 1.377 . S
C381 C394 1.479 . S
C382 C379 1.480 . S
C382 C383 1.383 . S
C382 C387 1.385 . S
C383 H364 0.947 . S
C383 C382 1.383 . S
C383 C384 1.388 . S
C384 H365 0.946 . S
C384 C383 1.388 . S
C384 C385 1.384 . S
C385 C384 1.384 . S
C385 C386 1.377 . S
C386 H366 0.953 . S
C386 C385 1.377 . S
C386 C387 1.369 . S
C387 H367 0.945 . S
C387 C382 1.385 . S
C387 C386 1.369 . S
C388 C380 1.457 . S
C388 C389 1.372 . S
C388 C393 1.364 . S
C389 H368 0.952 . S
C389 C388 1.372 . S
C389 C390 1.389 . S
C390 H369 0.949 . S
C390 C389 1.389 . S
C390 C391 1.387 . S
C391 C390 1.387 . S
C391 C392 1.372 . S
C392 H370 0.950 . S
C392 C391 1.372 . S
C392 C393 1.379 . S
C393 H371 0.948 . S
C393 C388 1.364 . S
C393 C392 1.379 . S
C394 C363 1.383 . S
C394 C381 1.479 . S
C394 C395 1.398 . S
C395 C360 1.382 . S
C395 H372 0.951 . S
C395 C394 1.398 . S
C396 C397 1.384 . S
C396 H409 0.947 . S
C396 C431 1.382 . S
C397 C396 1.384 . S
C397 C398 1.378 . S
C398 C397 1.378 . S
C398 C399 1.378 . S
C398 H410 0.952 . S
C399 C398 1.378 . S
C399 H411 0.950 . S
C399 C430 1.383 . S
H400 C419 0.947 . S
H401 C420 0.946 . S
H402 C422 0.953 . S
H403 C423 0.945 . S
H404 C425 0.952 . S
H405 C426 0.949 . S
H406 C428 0.950 . S
H407 C429 0.948 . S
H408 C431 0.951 . S
H409 C396 0.947 . S
H410 C398 0.952 . S
H411 C399 0.950 . S
N412 C415 1.382 . S
N412 C417 1.363 . S
N413 C415 1.371 . S
N413 C416 1.372 . S
N414 C416 1.361 . S
N414 C417 1.377 . S
C415 N412 1.382 . S
C415 N413 1.371 . S
C415 C418 1.480 . S
C416 N413 1.372 . S
C416 N414 1.361 . S
C416 C424 1.457 . S
C417 N412 1.363 . S
C417 N414 1.377 . S
C417 C430 1.479 . S
C418 C415 1.480 . S
C418 C419 1.383 . S
C418 C423 1.385 . S
C419 H400 0.947 . S
C419 C418 1.383 . S
C419 C420 1.388 . S
C420 H401 0.946 . S
C420 C419 1.388 . S
C420 C421 1.384 . S
C421 C420 1.384 . S
C421 C422 1.377 . S
C422 H402 0.953 . S
C422 C421 1.377 . S
C422 C423 1.369 . S
C423 H403 0.945 . S
C423 C418 1.385 . S
C423 C422 1.369 . S
C424 C416 1.457 . S
C424 C425 1.372 . S
C424 C429 1.364 . S
C425 H404 0.952 . S
C425 C424 1.372 . S
C425 C426 1.389 . S
C426 H405 0.949 . S
C426 C425 1.389 . S
C426 C427 1.387 . S
C427 C426 1.387 . S
C427 C428 1.372 . S
C428 H406 0.950 . S
C428 C427 1.372 . S
C428 C429 1.379 . S
C429 H407 0.948 . S
C429 C424 1.364 . S
C429 C428 1.379 . S
C430 C399 1.383 . S
C430 C417 1.479 . S
C430 C431 1.398 . S
C431 C396 1.382 . S
C431 H408 0.951 . S
C431 C430 1.398 . S
C432 C433 1.384 . S
C432 H445 0.947 . S
C432 C467 1.382 . S
C433 C432 1.384 . S
C433 C434 1.378 . S
C434 C433 1.378 . S
C434 C435 1.378 . S
C434 H446 0.952 . S
C435 C434 1.378 . S
C435 H447 0.950 . S
C435 C466 1.383 . S
H436 C455 0.947 . S
H437 C456 0.946 . S
H438 C458 0.953 . S
H439 C459 0.945 . S
H440 C461 0.952 . S
H441 C462 0.949 . S
H442 C464 0.950 . S
H443 C465 0.948 . S
H444 C467 0.951 . S
H445 C432 0.947 . S
H446 C434 0.952 . S
H447 C435 0.950 . S
N448 C451 1.382 . S
N448 C453 1.363 . S
N449 C451 1.371 . S
N449 C452 1.372 . S
N450 C452 1.361 . S
N450 C453 1.377 . S
C451 N448 1.382 . S
C451 N449 1.371 . S
C451 C454 1.480 . S
C452 N449 1.372 . S
C452 N450 1.361 . S
C452 C460 1.457 . S
C453 N448 1.363 . S
C453 N450 1.377 . S
C453 C466 1.479 . S
C454 C451 1.480 . S
C454 C455 1.383 . S
C454 C459 1.385 . S
C455 H436 0.947 . S
C455 C454 1.383 . S
C455 C456 1.388 . S
C456 H437 0.946 . S
C456 C455 1.388 . S
C456 C457 1.384 . S
C457 C456 1.384 . S
C457 C458 1.377 . S
C458 H438 0.953 . S
C458 C457 1.377 . S
C458 C459 1.369 . S
C459 H439 0.945 . S
C459 C454 1.385 . S
C459 C458 1.369 . S
C460 C452 1.457 . S
C460 C461 1.372 . S
C460 C465 1.364 . S
C461 H440 0.952 . S
C461 C460 1.372 . S
C461 C462 1.389 . S
C462 H441 0.949 . S
C462 C461 1.389 . S
C462 C463 1.387 . S
C463 C462 1.387 . S
C463 C464 1.372 . S
C464 H442 0.950 . S
C464 C463 1.372 . S
C464 C465 1.379 . S
C465 H443 0.948 . S
C465 C460 1.364 . S
C465 C464 1.379 . S
C466 C435 1.383 . S
C466 C453 1.479 . S
C466 C467 1.398 . S
C467 C432 1.382 . S
C467 H444 0.951 . S
C467 C466 1.398 . S
C468 C469 1.384 . S
C468 H481 0.947 . S
C468 C503 1.382 . S
C469 C468 1.384 . S
C469 C470 1.378 . S
C470 C469 1.378 . S
C470 C471 1.378 . S
C470 H482 0.952 . S
C471 C470 1.378 . S
C471 H483 0.950 . S
C471 C502 1.383 . S
H472 C491 0.947 . S
H473 C492 0.946 . S
H474 C494 0.953 . S
H475 C495 0.945 . S
H476 C497 0.952 . S
H477 C498 0.949 . S
H478 C500 0.950 . S
H479 C501 0.948 . S
H480 C503 0.951 . S
H481 C468 0.947 . S
H482 C470 0.952 . S
H483 C471 0.950 . S
N484 C487 1.382 . S
N484 C489 1.363 . S
N485 C487 1.371 . S
N485 C488 1.372 . S
N486 C488 1.361 . S
N486 C489 1.377 . S
C487 N484 1.382 . S
C487 N485 1.371 . S
C487 C490 1.480 . S
C488 N485 1.372 . S
C488 N486 1.361 . S
C488 C496 1.457 . S
C489 N484 1.363 . S
C489 N486 1.377 . S
C489 C502 1.479 . S
C490 C487 1.480 . S
C490 C491 1.383 . S
C490 C495 1.385 . S
C491 H472 0.947 . S
C491 C490 1.383 . S
C491 C492 1.388 . S
C492 H473 0.946 . S
C492 C491 1.388 . S
C492 C493 1.384 . S
C493 C492 1.384 . S
C493 C494 1.377 . S
C494 H474 0.953 . S
C494 C493 1.377 . S
C494 C495 1.369 . S
C495 H475 0.945 . S
C495 C490 1.385 . S
C495 C494 1.369 . S
C496 C488 1.457 . S
C496 C497 1.372 . S
C496 C501 1.364 . S
C497 H476 0.952 . S
C497 C496 1.372 . S
C497 C498 1.389 . S
C498 H477 0.949 . S
C498 C497 1.389 . S
C498 C499 1.387 . S
C499 C498 1.387 . S
C499 C500 1.372 . S
C500 H478 0.950 . S
C500 C499 1.372 . S
C500 C501 1.379 . S
C501 H479 0.948 . S
C501 C496 1.364 . S
C501 C500 1.379 . S
C502 C471 1.383 . S
C502 C489 1.479 . S
C502 C503 1.398 . S
C503 C468 1.382 . S
C503 H480 0.951 . S
C503 C502 1.398 . S
C504 C505 1.384 . S
C504 H517 0.947 . S
C504 C539 1.382 . S
C505 C504 1.384 . S
C505 C506 1.378 . S
C506 C505 1.378 . S
C506 C507 1.378 . S
C506 H518 0.952 . S
C507 C506 1.378 . S
C507 H519 0.950 . S
C507 C538 1.383 . S
H508 C527 0.947 . S
H509 C528 0.946 . S
H510 C530 0.953 . S
H511 C531 0.945 . S
H512 C533 0.952 . S
H513 C534 0.949 . S
H514 C536 0.950 . S
H515 C537 0.948 . S
H516 C539 0.951 . S
H517 C504 0.947 . S
H518 C506 0.952 . S
H519 C507 0.950 . S
N520 C523 1.382 . S
N520 C525 1.363 . S
N521 C523 1.371 . S
N521 C524 1.372 . S
N522 C524 1.361 . S
N522 C525 1.377 . S
C523 N520 1.382 . S
C523 N521 1.371 . S
C523 C526 1.480 . S
C524 N521 1.372 . S
C524 N522 1.361 . S
C524 C532 1.457 . S
C525 N520 1.363 . S
C525 N522 1.377 . S
C525 C538 1.479 . S
C526 C523 1.480 . S
C526 C527 1.383 . S
C526 C531 1.385 . S
C527 H508 0.947 . S
C527 C526 1.383 . S
C527 C528 1.388 . S
C528 H509 0.946 . S
C528 C527 1.388 . S
C528 C529 1.384 . S
C529 C528 1.384 . S
C529 C530 1.377 . S
C530 H510 0.953 . S
C530 C529 1.377 . S
C530 C531 1.369 . S
C531 H511 0.945 . S
C531 C526 1.385 . S
C531 C530 1.369 . S
C532 C524 1.457 . S
C532 C533 1.372 . S
C532 C537 1.364 . S
C533 H512 0.952 . S
C533 C532 1.372 . S
C533 C534 1.389 . S
C534 H513 0.949 . S
C534 C533 1.389 . S
C534 C535 1.387 . S
C535 C534 1.387 . S
C535 C536 1.372 . S
C536 H514 0.950 . S
C536 C535 1.372 . S
C536 C537 1.379 . S
C537 H515 0.948 . S
C537 C532 1.364 . S
C537 C536 1.379 . S
C538 C507 1.383 . S
C538 C525 1.479 . S
C538 C539 1.398 . S
C539 C504 1.382 . S
C539 H516 0.951 . S
C539 C538 1.398 . S
C540 C541 1.384 . S
C540 H553 0.947 . S
C540 C575 1.382 . S
C541 C540 1.384 . S
C541 C542 1.378 . S
C542 C541 1.378 . S
C542 C543 1.378 . S
C542 H554 0.952 . S
C543 C542 1.378 . S
C543 H555 0.950 . S
C543 C574 1.383 . S
H544 C563 0.947 . S
H545 C564 0.946 . S
H546 C566 0.953 . S
H547 C567 0.945 . S
H548 C569 0.952 . S
H549 C570 0.949 . S
H550 C572 0.950 . S
H551 C573 0.948 . S
H552 C575 0.951 . S
H553 C540 0.947 . S
H554 C542 0.952 . S
H555 C543 0.950 . S
N556 C559 1.382 . S
N556 C561 1.363 . S
N557 C559 1.371 . S
N557 C560 1.372 . S
N558 C560 1.361 . S
N558 C561 1.377 . S
C559 N556 1.382 . S
C559 N557 1.371 . S
C559 C562 1.480 . S
C560 N557 1.372 . S
C560 N558 1.361 . S
C560 C568 1.457 . S
C561 N556 1.363 . S
C561 N558 1.377 . S
C561 C574 1.479 . S
C562 C559 1.480 . S
C562 C563 1.383 . S
C562 C567 1.385 . S
C563 H544 0.947 . S
C563 C562 1.383 . S
C563 C564 1.388 . S
C564 H545 0.946 . S
C564 C563 1.388 . S
C564 C565 1.384 . S
C565 C564 1.384 . S
C565 C566 1.377 . S
C566 H546 0.953 . S
C566 C565 1.377 . S
C566 C567 1.369 . S
C567 H547 0.945 . S
C567 C562 1.385 . S
C567 C566 1.369 . S
C568 C560 1.457 . S
C568 C569 1.372 . S
C568 C573 1.364 . S
C569 H548 0.952 . S
C569 C568 1.372 . S
C569 C570 1.389 . S
C570 H549 0.949 . S
C570 C569 1.389 . S
C570 C571 1.387 . S
C571 C570 1.387 . S
C571 C572 1.372 . S
C572 H550 0.950 . S
C572 C571 1.372 . S
C572 C573 1.379 . S
C573 H551 0.948 . S
C573 C568 1.364 . S
C573 C572 1.379 . S
C574 C543 1.383 . S
C574 C561 1.479 . S
C574 C575 1.398 . S
C575 C540 1.382 . S
C575 H552 0.951 . S
C575 C574 1.398 . S
C576 C577 1.384 . S
C576 H589 0.947 . S
C576 C611 1.382 . S
C577 C576 1.384 . S
C577 C578 1.378 . S
C578 C577 1.378 . S
C578 C579 1.378 . S
C578 H590 0.952 . S
C579 C578 1.378 . S
C579 H591 0.950 . S
C579 C610 1.383 . S
H580 C599 0.947 . S
H581 C600 0.946 . S
H582 C602 0.953 . S
H583 C603 0.945 . S
H584 C605 0.952 . S
H585 C606 0.949 . S
H586 C608 0.950 . S
H587 C609 0.948 . S
H588 C611 0.951 . S
H589 C576 0.947 . S
H590 C578 0.952 . S
H591 C579 0.950 . S
N592 C595 1.382 . S
N592 C597 1.363 . S
N593 C595 1.371 . S
N593 C596 1.372 . S
N594 C596 1.361 . S
N594 C597 1.377 . S
C595 N592 1.382 . S
C595 N593 1.371 . S
C595 C598 1.480 . S
C596 N593 1.372 . S
C596 N594 1.361 . S
C596 C604 1.457 . S
C597 N592 1.363 . S
C597 N594 1.377 . S
C597 C610 1.479 . S
C598 C595 1.480 . S
C598 C599 1.383 . S
C598 C603 1.385 . S
C599 H580 0.947 . S
C599 C598 1.383 . S
C599 C600 1.388 . S
C600 H581 0.946 . S
C600 C599 1.388 . S
C600 C601 1.384 . S
C601 C600 1.384 . S
C601 C602 1.377 . S
C602 H582 0.953 . S
C602 C601 1.377 . S
C602 C603 1.369 . S
C603 H583 0.945 . S
C603 C598 1.385 . S
C603 C602 1.369 . S
C604 C596 1.457 . S
C604 C605 1.372 . S
C604 C609 1.364 . S
C605 H584 0.952 . S
C605 C604 1.372 . S
C605 C606 1.389 . S
C606 H585 0.949 . S
C606 C605 1.389 . S
C606 C607 1.387 . S
C607 C606 1.387 . S
C607 C608 1.372 . S
C608 H586 0.950 . S
C608 C607 1.372 . S
C608 C609 1.379 . S
C609 H587 0.948 . S
C609 C604 1.364 . S
C609 C608 1.379 . S
C610 C579 1.383 . S
C610 C597 1.479 . S
C610 C611 1.398 . S
C611 C576 1.382 . S
C611 H588 0.951 . S
C611 C610 1.398 . S
C612 C613 1.384 . S
C612 H625 0.947 . S
C612 C647 1.382 . S
C613 C612 1.384 . S
C613 C614 1.378 . S
C614 C613 1.378 . S
C614 C615 1.378 . S
C614 H626 0.952 . S
C615 C614 1.378 . S
C615 H627 0.950 . S
C615 C646 1.383 . S
H616 C635 0.947 . S
H617 C636 0.946 . S
H618 C638 0.953 . S
H619 C639 0.945 . S
H620 C641 0.952 . S
H621 C642 0.949 . S
H622 C644 0.950 . S
H623 C645 0.948 . S
H624 C647 0.951 . S
H625 C612 0.947 . S
H626 C614 0.952 . S
H627 C615 0.950 . S
N628 C631 1.382 . S
N628 C633 1.363 . S
N629 C631 1.371 . S
N629 C632 1.372 . S
N630 C632 1.361 . S
N630 C633 1.377 . S
C631 N628 1.382 . S
C631 N629 1.371 . S
C631 C634 1.480 . S
C632 N629 1.372 . S
C632 N630 1.361 . S
C632 C640 1.457 . S
C633 N628 1.363 . S
C633 N630 1.377 . S
C633 C646 1.479 . S
C634 C631 1.480 . S
C634 C635 1.383 . S
C634 C639 1.385 . S
C635 H616 0.947 . S
C635 C634 1.383 . S
C635 C636 1.388 . S
C636 H617 0.946 . S
C636 C635 1.388 . S
C636 C637 1.384 . S
C637 C636 1.384 . S
C637 C638 1.377 . S
C638 H618 0.953 . S
C638 C637 1.377 . S
C638 C639 1.369 . S
C639 H619 0.945 . S
C639 C634 1.385 . S
C639 C638 1.369 . S
C640 C632 1.457 . S
C640 C641 1.372 . S
C640 C645 1.364 . S
C641 H620 0.952 . S
C641 C640 1.372 . S
C641 C642 1.389 . S
C642 H621 0.949 . S
C642 C641 1.389 . S
C642 C643 1.387 . S
C643 C642 1.387 . S
C643 C644 1.372 . S
C644 H622 0.950 . S
C644 C643 1.372 . S
C644 C645 1.379 . S
C645 H623 0.948 . S
C645 C640 1.364 . S
C645 C644 1.379 . S
C646 C615 1.383 . S
C646 C633 1.479 . S
C646 C647 1.398 . S
C647 C612 1.382 . S
C647 H624 0.951 . S
C647 C646 1.398 . S
C648 C649 1.384 . S
C648 H661 0.947 . S
C648 C683 1.382 . S
C649 C648 1.384 . S
C649 C650 1.378 . S
C650 C649 1.378 . S
C650 C651 1.378 . S
C650 H662 0.952 . S
C651 C650 1.378 . S
C651 H663 0.950 . S
C651 C682 1.383 . S
H652 C671 0.947 . S
H653 C672 0.946 . S
H654 C674 0.953 . S
H655 C675 0.945 . S
H656 C677 0.952 . S
H657 C678 0.949 . S
H658 C680 0.950 . S
H659 C681 0.948 . S
H660 C683 0.951 . S
H661 C648 0.947 . S
H662 C650 0.952 . S
H663 C651 0.950 . S
N664 C667 1.382 . S
N664 C669 1.363 . S
N665 C667 1.371 . S
N665 C668 1.372 . S
N666 C668 1.361 . S
N666 C669 1.377 . S
C667 N664 1.382 . S
C667 N665 1.371 . S
C667 C670 1.480 . S
C668 N665 1.372 . S
C668 N666 1.361 . S
C668 C676 1.457 . S
C669 N664 1.363 . S
C669 N666 1.377 . S
C669 C682 1.479 . S
C670 C667 1.480 . S
C670 C671 1.383 . S
C670 C675 1.385 . S
C671 H652 0.947 . S
C671 C670 1.383 . S
C671 C672 1.388 . S
C672 H653 0.946 . S
C672 C671 1.388 . S
C672 C673 1.384 . S
C673 C672 1.384 . S
C673 C674 1.377 . S
C674 H654 0.953 . S
C674 C673 1.377 . S
C674 C675 1.369 . S
C675 H655 0.945 . S
C675 C670 1.385 . S
C675 C674 1.369 . S
C676 C668 1.457 . S
C676 C677 1.372 . S
C676 C681 1.364 . S
C677 H656 0.952 . S
C677 C676 1.372 . S
C677 C678 1.389 . S
C678 H657 0.949 . S
C678 C677 1.389 . S
C678 C679 1.387 . S
C679 C678 1.387 . S
C679 C680 1.372 . S
C680 H658 0.950 . S
C680 C679 1.372 . S
C680 C681 1.379 . S
C681 H659 0.948 . S
C681 C676 1.364 . S
C681 C680 1.379 . S
C682 C651 1.383 . S
C682 C669 1.479 . S
C682 C683 1.398 . S
C683 C648 1.382 . S
C683 H660 0.951 . S
C683 C682 1.398 . S
C684 C685 1.384 . S
C684 H697 0.947 . S
C684 C719 1.382 . S
C685 C684 1.384 . S
C685 C686 1.378 . S
C686 C685 1.378 . S
C686 C687 1.378 . S
C686 H698 0.952 . S
C687 C686 1.378 . S
C687 H699 0.950 . S
C687 C718 1.383 . S
H688 C707 0.947 . S
H689 C708 0.946 . S
H690 C710 0.953 . S
H691 C711 0.945 . S
H692 C713 0.952 . S
H693 C714 0.949 . S
H694 C716 0.950 . S
H695 C717 0.948 . S
H696 C719 0.951 . S
H697 C684 0.947 . S
H698 C686 0.952 . S
H699 C687 0.950 . S
N700 C703 1.382 . S
N700 C705 1.363 . S
N701 C703 1.371 . S
N701 C704 1.372 . S
N702 C704 1.361 . S
N702 C705 1.377 . S
C703 N700 1.382 . S
C703 N701 1.371 . S
C703 C706 1.480 . S
C704 N701 1.372 . S
C704 N702 1.361 . S
C704 C712 1.457 . S
C705 N700 1.363 . S
C705 N702 1.377 . S
C705 C718 1.479 . S
C706 C703 1.480 . S
C706 C707 1.383 . S
C706 C711 1.385 . S
C707 H688 0.947 . S
C707 C706 1.383 . S
C707 C708 1.388 . S
C708 H689 0.946 . S
C708 C707 1.388 . S
C708 C709 1.384 . S
C709 C708 1.384 . S
C709 C710 1.377 . S
C710 H690 0.953 . S
C710 C709 1.377 . S
C710 C711 1.369 . S
C711 H691 0.945 . S
C711 C706 1.385 . S
C711 C710 1.369 . S
C712 C704 1.457 . S
C712 C713 1.372 . S
C712 C717 1.364 . S
C713 H692 0.952 . S
C713 C712 1.372 . S
C713 C714 1.389 . S
C714 H693 0.949 . S
C714 C713 1.389 . S
C714 C715 1.387 . S
C715 C714 1.387 . S
C715 C716 1.372 . S
C716 H694 0.950 . S
C716 C715 1.372 . S
C716 C717 1.379 . S
C717 H695 0.948 . S
C717 C712 1.364 . S
C717 C716 1.379 . S
C718 C687 1.383 . S
C718 C705 1.479 . S
C718 C719 1.398 . S
C719 C684 1.382 . S
C719 H696 0.951 . S
C719 C718 1.398 . S
C720 C721 1.384 . S
C720 H733 0.947 . S
C720 C755 1.382 . S
C721 C720 1.384 . S
C721 C722 1.378 . S
C722 C721 1.378 . S
C722 C723 1.378 . S
C722 H734 0.952 . S
C723 C722 1.378 . S
C723 H735 0.950 . S
C723 C754 1.383 . S
H724 C743 0.947 . S
H725 C744 0.946 . S
H726 C746 0.953 . S
H727 C747 0.945 . S
H728 C749 0.952 . S
H729 C750 0.949 . S
H730 C752 0.950 . S
H731 C753 0.948 . S
H732 C755 0.951 . S
H733 C720 0.947 . S
H734 C722 0.952 . S
H735 C723 0.950 . S
N736 C739 1.382 . S
N736 C741 1.363 . S
N737 C739 1.371 . S
N737 C740 1.372 . S
N738 C740 1.361 . S
N738 C741 1.377 . S
C739 N736 1.382 . S
C739 N737 1.371 . S
C739 C742 1.480 . S
C740 N737 1.372 . S
C740 N738 1.361 . S
C740 C748 1.457 . S
C741 N736 1.363 . S
C741 N738 1.377 . S
C741 C754 1.479 . S
C742 C739 1.480 . S
C742 C743 1.383 . S
C742 C747 1.385 . S
C743 H724 0.947 . S
C743 C742 1.383 . S
C743 C744 1.388 . S
C744 H725 0.946 . S
C744 C743 1.388 . S
C744 C745 1.384 . S
C745 C744 1.384 . S
C745 C746 1.377 . S
C746 H726 0.953 . S
C746 C745 1.377 . S
C746 C747 1.369 . S
C747 H727 0.945 . S
C747 C742 1.385 . S
C747 C746 1.369 . S
C748 C740 1.457 . S
C748 C749 1.372 . S
C748 C753 1.364 . S
C749 H728 0.952 . S
C749 C748 1.372 . S
C749 C750 1.389 . S
C750 H729 0.949 . S
C750 C749 1.389 . S
C750 C751 1.387 . S
C751 C750 1.387 . S
C751 C752 1.372 . S
C752 H730 0.950 . S
C752 C751 1.372 . S
C752 C753 1.379 . S
C753 H731 0.948 . S
C753 C748 1.364 . S
C753 C752 1.379 . S
C754 C723 1.383 . S
C754 C741 1.479 . S
C754 C755 1.398 . S
C755 C720 1.382 . S
C755 H732 0.951 . S
C755 C754 1.398 . S
C756 C757 1.384 . S
C756 H769 0.947 . S
C756 C791 1.382 . S
C757 C756 1.384 . S
C757 C758 1.378 . S
C758 C757 1.378 . S
C758 C759 1.378 . S
C758 H770 0.952 . S
C759 C758 1.378 . S
C759 H771 0.950 . S
C759 C790 1.383 . S
H760 C779 0.947 . S
H761 C780 0.946 . S
H762 C782 0.953 . S
H763 C783 0.945 . S
H764 C785 0.952 . S
H765 C786 0.949 . S
H766 C788 0.950 . S
H767 C789 0.948 . S
H768 C791 0.951 . S
H769 C756 0.947 . S
H770 C758 0.952 . S
H771 C759 0.950 . S
N772 C775 1.382 . S
N772 C777 1.363 . S
N773 C775 1.371 . S
N773 C776 1.372 . S
N774 C776 1.361 . S
N774 C777 1.377 . S
C775 N772 1.382 . S
C775 N773 1.371 . S
C775 C778 1.480 . S
C776 N773 1.372 . S
C776 N774 1.361 . S
C776 C784 1.457 . S
C777 N772 1.363 . S
C777 N774 1.377 . S
C777 C790 1.479 . S
C778 C775 1.480 . S
C778 C779 1.383 . S
C778 C783 1.385 . S
C779 H760 0.947 . S
C779 C778 1.383 . S
C779 C780 1.388 . S
C780 H761 0.946 . S
C780 C779 1.388 . S
C780 C781 1.384 . S
C781 C780 1.384 . S
C781 C782 1.377 . S
C782 H762 0.953 . S
C782 C781 1.377 . S
C782 C783 1.369 . S
C783 H763 0.945 . S
C783 C778 1.385 . S
C783 C782 1.369 . S
C784 C776 1.457 . S
C784 C785 1.372 . S
C784 C789 1.364 . S
C785 H764 0.952 . S
C785 C784 1.372 . S
C785 C786 1.389 . S
C786 H765 0.949 . S
C786 C785 1.389 . S
C786 C787 1.387 . S
C787 C786 1.387 . S
C787 C788 1.372 . S
C788 H766 0.950 . S
C788 C787 1.372 . S
C788 C789 1.379 . S
C789 H767 0.948 . S
C789 C784 1.364 . S
C789 C788 1.379 . S
C790 C759 1.383 . S
C790 C777 1.479 . S
C790 C791 1.398 . S
C791 C756 1.382 . S
C791 H768 0.951 . S
C791 C790 1.398 . S
C792 C793 1.384 . S
C792 H805 0.947 . S
C792 C827 1.382 . S
C793 C792 1.384 . S
C793 C794 1.378 . S
C794 C793 1.378 . S
C794 C795 1.378 . S
C794 H806 0.952 . S
C795 C794 1.378 . S
C795 H807 0.950 . S
C795 C826 1.383 . S
H796 C815 0.947 . S
H797 C816 0.946 . S
H798 C818 0.953 . S
H799 C819 0.945 . S
H800 C821 0.952 . S
H801 C822 0.949 . S
H802 C824 0.950 . S
H803 C825 0.948 . S
H804 C827 0.951 . S
H805 C792 0.947 . S
H806 C794 0.952 . S
H807 C795 0.950 . S
N808 C811 1.382 . S
N808 C813 1.363 . S
N809 C811 1.371 . S
N809 C812 1.372 . S
N810 C812 1.361 . S
N810 C813 1.377 . S
C811 N808 1.382 . S
C811 N809 1.371 . S
C811 C814 1.480 . S
C812 N809 1.372 . S
C812 N810 1.361 . S
C812 C820 1.457 . S
C813 N808 1.363 . S
C813 N810 1.377 . S
C813 C826 1.479 . S
C814 C811 1.480 . S
C814 C815 1.383 . S
C814 C819 1.385 . S
C815 H796 0.947 . S
C815 C814 1.383 . S
C815 C816 1.388 . S
C816 H797 0.946 . S
C816 C815 1.388 . S
C816 C817 1.384 . S
C817 C816 1.384 . S
C817 C818 1.377 . S
C818 H798 0.953 . S
C818 C817 1.377 . S
C818 C819 1.369 . S
C819 H799 0.945 . S
C819 C814 1.385 . S
C819 C818 1.369 . S
C820 C812 1.457 . S
C820 C821 1.372 . S
C820 C825 1.364 . S
C821 H800 0.952 . S
C821 C820 1.372 . S
C821 C822 1.389 . S
C822 H801 0.949 . S
C822 C821 1.389 . S
C822 C823 1.387 . S
C823 C822 1.387 . S
C823 C824 1.372 . S
C824 H802 0.950 . S
C824 C823 1.372 . S
C824 C825 1.379 . S
C825 H803 0.948 . S
C825 C820 1.364 . S
C825 C824 1.379 . S
C826 C795 1.383 . S
C826 C813 1.479 . S
C826 C827 1.398 . S
C827 C792 1.382 . S
C827 H804 0.951 . S
C827 C826 1.398 . S
C828 C829 1.384 . S
C828 H841 0.947 . S
C828 C863 1.382 . S
C829 C828 1.384 . S
C829 C830 1.378 . S
C830 C829 1.378 . S
C830 C831 1.378 . S
C830 H842 0.952 . S
C831 C830 1.378 . S
C831 H843 0.950 . S
C831 C862 1.383 . S
H832 C851 0.947 . S
H833 C852 0.946 . S
H834 C854 0.953 . S
H835 C855 0.945 . S
H836 C857 0.952 . S
H837 C858 0.949 . S
H838 C860 0.950 . S
H839 C861 0.948 . S
H840 C863 0.951 . S
H841 C828 0.947 . S
H842 C830 0.952 . S
H843 C831 0.950 . S
N844 C847 1.382 . S
N844 C849 1.363 . S
N845 C847 1.371 . S
N845 C848 1.372 . S
N846 C848 1.361 . S
N846 C849 1.377 . S
C847 N844 1.382 . S
C847 N845 1.371 . S
C847 C850 1.480 . S
C848 N845 1.372 . S
C848 N846 1.361 . S
C848 C856 1.457 . S
C849 N844 1.363 . S
C849 N846 1.377 . S
C849 C862 1.479 . S
C850 C847 1.480 . S
C850 C851 1.383 . S
C850 C855 1.385 . S
C851 H832 0.947 . S
C851 C850 1.383 . S
C851 C852 1.388 . S
C852 H833 0.946 . S
C852 C851 1.388 . S
C852 C853 1.384 . S
C853 C852 1.384 . S
C853 C854 1.377 . S
C854 H834 0.953 . S
C854 C853 1.377 . S
C854 C855 1.369 . S
C855 H835 0.945 . S
C855 C850 1.385 . S
C855 C854 1.369 . S
C856 C848 1.457 . S
C856 C857 1.372 . S
C856 C861 1.364 . S
C857 H836 0.952 . S
C857 C856 1.372 . S
C857 C858 1.389 . S
C858 H837 0.949 . S
C858 C857 1.389 . S
C858 C859 1.387 . S
C859 C858 1.387 . S
C859 C860 1.372 . S
C860 H838 0.950 . S
C860 C859 1.372 . S
C860 C861 1.379 . S
C861 H839 0.948 . S
C861 C856 1.364 . S
C861 C860 1.379 . S
C862 C831 1.383 . S
C862 C849 1.479 . S
C862 C863 1.398 . S
C863 C828 1.382 . S
C863 H840 0.951 . S
C863 C862 1.398 . S
C864 C865 1.384 . S
C864 H877 0.947 . S
C864 C899 1.382 . S
C865 C864 1.384 . S
C865 C866 1.378 . S
C866 C865 1.378 . S
C866 C867 1.378 . S
C866 H878 0.952 . S
C867 C866 1.378 . S
C867 H879 0.950 . S
C867 C898 1.383 . S
H868 C887 0.947 . S
H869 C888 0.946 . S
H870 C890 0.953 . S
H871 C891 0.945 . S
H872 C893 0.952 . S
H873 C894 0.949 . S
H874 C896 0.950 . S
H875 C897 0.948 . S
H876 C899 0.951 . S
H877 C864 0.947 . S
H878 C866 0.952 . S
H879 C867 0.950 . S
N880 C883 1.382 . S
N880 C885 1.363 . S
N881 C883 1.371 . S
N881 C884 1.372 . S
N882 C884 1.361 . S
N882 C885 1.377 . S
C883 N880 1.382 . S
C883 N881 1.371 . S
C883 C886 1.480 . S
C884 N881 1.372 . S
C884 N882 1.361 . S
C884 C892 1.457 . S
C885 N880 1.363 . S
C885 N882 1.377 . S
C885 C898 1.479 . S
C886 C883 1.480 . S
C886 C887 1.383 . S
C886 C891 1.385 . S
C887 H868 0.947 . S
C887 C886 1.383 . S
C887 C888 1.388 . S
C888 H869 0.946 . S
C888 C887 1.388 . S
C888 C889 1.384 . S
C889 C888 1.384 . S
C889 C890 1.377 . S
C890 H870 0.953 . S
C890 C889 1.377 . S
C890 C891 1.369 . S
C891 H871 0.945 . S
C891 C886 1.385 . S
C891 C890 1.369 . S
C892 C884 1.457 . S
C892 C893 1.372 . S
C892 C897 1.364 . S
C893 H872 0.952 . S
C893 C892 1.372 . S
C893 C894 1.389 . S
C894 H873 0.949 . S
C894 C893 1.389 . S
C894 C895 1.387 . S
C895 C894 1.387 . S
C895 C896 1.372 . S
C896 H874 0.950 . S
C896 C895 1.372 . S
C896 C897 1.379 . S
C897 H875 0.948 . S
C897 C892 1.364 . S
C897 C896 1.379 . S
C898 C867 1.383 . S
C898 C885 1.479 . S
C898 C899 1.398 . S
C899 C864 1.382 . S
C899 H876 0.951 . S
C899 C898 1.398 . S
C900 C901 1.384 . S
C900 H913 0.947 . S
C900 C935 1.382 . S
C901 C900 1.384 . S
C901 C902 1.378 . S
C902 C901 1.378 . S
C902 C903 1.378 . S
C902 H914 0.952 . S
C903 C902 1.378 . S
C903 H915 0.950 . S
C903 C934 1.383 . S
H904 C923 0.947 . S
H905 C924 0.946 . S
H906 C926 0.953 . S
H907 C927 0.945 . S
H908 C929 0.952 . S
H909 C930 0.949 . S
H910 C932 0.950 . S
H911 C933 0.948 . S
H912 C935 0.951 . S
H913 C900 0.947 . S
H914 C902 0.952 . S
H915 C903 0.950 . S
N916 C919 1.382 . S
N916 C921 1.363 . S
N917 C919 1.371 . S
N917 C920 1.372 . S
N918 C920 1.361 . S
N918 C921 1.377 . S
C919 N916 1.382 . S
C919 N917 1.371 . S
C919 C922 1.480 . S
C920 N917 1.372 . S
C920 N918 1.361 . S
C920 C928 1.457 . S
C921 N916 1.363 . S
C921 N918 1.377 . S
C921 C934 1.479 . S
C922 C919 1.480 . S
C922 C923 1.383 . S
C922 C927 1.385 . S
C923 H904 0.947 . S
C923 C922 1.383 . S
C923 C924 1.388 . S
C924 H905 0.946 . S
C924 C923 1.388 . S
C924 C925 1.384 . S
C925 C924 1.384 . S
C925 C926 1.377 . S
C926 H906 0.953 . S
C926 C925 1.377 . S
C926 C927 1.369 . S
C927 H907 0.945 . S
C927 C922 1.385 . S
C927 C926 1.369 . S
C928 C920 1.457 . S
C928 C929 1.372 . S
C928 C933 1.364 . S
C929 H908 0.952 . S
C929 C928 1.372 . S
C929 C930 1.389 . S
C930 H909 0.949 . S
C930 C929 1.389 . S
C930 C931 1.387 . S
C931 C930 1.387 . S
C931 C932 1.372 . S
C932 H910 0.950 . S
C932 C931 1.372 . S
C932 C933 1.379 . S
C933 H911 0.948 . S
C933 C928 1.364 . S
C933 C932 1.379 . S
C934 C903 1.383 . S
C934 C921 1.479 . S
C934 C935 1.398 . S
C935 C900 1.382 . S
C935 H912 0.951 . S
C935 C934 1.398 . S
C936 C937 1.384 . S
C936 H949 0.947 . S
C936 C971 1.382 . S
C937 C936 1.384 . S
C937 C938 1.378 . S
C938 C937 1.378 . S
C938 C939 1.378 . S
C938 H950 0.952 . S
C939 C938 1.378 . S
C939 H951 0.950 . S
C939 C970 1.383 . S
H940 C959 0.947 . S
H941 C960 0.946 . S
H942 C962 0.953 . S
H943 C963 0.945 . S
H944 C965 0.952 . S
H945 C966 0.949 . S
H946 C968 0.950 . S
H947 C969 0.948 . S
H948 C971 0.951 . S
H949 C936 0.947 . S
H950 C938 0.952 . S
H951 C939 0.950 . S
N952 C955 1.382 . S
N952 C957 1.363 . S
N953 C955 1.371 . S
N953 C956 1.372 . S
N954 C956 1.361 . S
N954 C957 1.377 . S
C955 N952 1.382 . S
C955 N953 1.371 . S
C955 C958 1.480 . S
C956 N953 1.372 . S
C956 N954 1.361 . S
C956 C964 1.457 . S
C957 N952 1.363 . S
C957 N954 1.377 . S
C957 C970 1.479 . S
C958 C955 1.480 . S
C958 C959 1.383 . S
C958 C963 1.385 . S
C959 H940 0.947 . S
C959 C958 1.383 . S
C959 C960 1.388 . S
C960 H941 0.946 . S
C960 C959 1.388 . S
C960 C961 1.384 . S
C961 C960 1.384 . S
C961 C962 1.377 . S
C962 H942 0.953 . S
C962 C961 1.377 . S
C962 C963 1.369 . S
C963 H943 0.945 . S
C963 C958 1.385 . S
C963 C962 1.369 . S
C964 C956 1.457 . S
C964 C965 1.372 . S
C964 C969 1.364 . S
C965 H944 0.952 . S
C965 C964 1.372 . S
C965 C966 1.389 . S
C966 H945 0.949 . S
C966 C965 1.389 . S
C966 C967 1.387 . S
C967 C966 1.387 . S
C967 C968 1.372 . S
C968 H946 0.950 . S
C968 C967 1.372 . S
C968 C969 1.379 . S
C969 H947 0.948 . S
C969 C964 1.364 . S
C969 C968 1.379 . S
C970 C939 1.383 . S
C970 C957 1.479 . S
C970 C971 1.398 . S
C971 C936 1.382 . S
C971 H948 0.951 . S
C971 C970 1.398 . S
C972 C973 1.384 . S
C972 H985 0.947 . S
C972 C1007 1.382 . S
C973 C972 1.384 . S
C973 C974 1.378 . S
C974 C973 1.378 . S
C974 C975 1.378 . S
C974 H986 0.952 . S
C975 C974 1.378 . S
C975 H987 0.950 . S
C975 C1006 1.383 . S
H976 C995 0.947 . S
H977 C996 0.946 . S
H978 C998 0.953 . S
H979 C999 0.945 . S
H980 C1001 0.952 . S
H981 C1002 0.949 . S
H982 C1004 0.950 . S
H983 C1005 0.948 . S
H984 C1007 0.951 . S
H985 C972 0.947 . S
H986 C974 0.952 . S
H987 C975 0.950 . S
N988 C991 1.382 . S
N988 C993 1.363 . S
N989 C991 1.371 . S
N989 C992 1.372 . S
N990 C992 1.361 . S
N990 C993 1.377 . S
C991 N988 1.382 . S
C991 N989 1.371 . S
C991 C994 1.480 . S
C992 N989 1.372 . S
C992 N990 1.361 . S
C992 C1000 1.457 . S
C993 N988 1.363 . S
C993 N990 1.377 . S
C993 C1006 1.479 . S
C994 C991 1.480 . S
C994 C995 1.383 . S
C994 C999 1.385 . S
C995 H976 0.947 . S
C995 C994 1.383 . S
C995 C996 1.388 . S
C996 H977 0.946 . S
C996 C995 1.388 . S
C996 C997 1.384 . S
C997 C996 1.384 . S
C997 C998 1.377 . S
C998 H978 0.953 . S
C998 C997 1.377 . S
C998 C999 1.369 . S
C999 H979 0.945 . S
C999 C994 1.385 . S
C999 C998 1.369 . S
C1000 C992 1.457 . S
C1000 C1001 1.372 . S
C1000 C1005 1.364 . S
C1001 H980 0.952 . S
C1001 C1000 1.372 . S
C1001 C1002 1.389 . S
C1002 H981 0.949 . S
C1002 C1001 1.389 . S
C1002 C1003 1.387 . S
C1003 C1002 1.387 . S
C1003 C1004 1.372 . S
C1004 H982 0.950 . S
C1004 C1003 1.372 . S
C1004 C1005 1.379 . S
C1005 H983 0.948 . S
C1005 C1000 1.364 . S
C1005 C1004 1.379 . S
C1006 C975 1.383 . S
C1006 C993 1.479 . S
C1006 C1007 1.398 . S
C1007 C972 1.382 . S
C1007 H984 0.951 . S
C1007 C1006 1.398 . S
C1008 C1009 1.384 . S
C1008 H1021 0.947 . S
C1008 C1043 1.382 . S
C1009 C1008 1.384 . S
C1009 C1010 1.378 . S
C1010 C1009 1.378 . S
C1010 C1011 1.378 . S
C1010 H1022 0.952 . S
C1011 C1010 1.378 . S
C1011 H1023 0.950 . S
C1011 C1042 1.383 . S
H1012 C1031 0.947 . S
H1013 C1032 0.946 . S
H1014 C1034 0.953 . S
H1015 C1035 0.945 . S
H1016 C1037 0.952 . S
H1017 C1038 0.949 . S
H1018 C1040 0.950 . S
H1019 C1041 0.948 . S
H1020 C1043 0.951 . S
H1021 C1008 0.947 . S
H1022 C1010 0.952 . S
H1023 C1011 0.950 . S
N1024 C1027 1.382 . S
N1024 C1029 1.363 . S
N1025 C1027 1.371 . S
N1025 C1028 1.372 . S
N1026 C1028 1.361 . S
N1026 C1029 1.377 . S
C1027 N1024 1.382 . S
C1027 N1025 1.371 . S
C1027 C1030 1.480 . S
C1028 N1025 1.372 . S
C1028 N1026 1.361 . S
C1028 C1036 1.457 . S
C1029 N1024 1.363 . S
C1029 N1026 1.377 . S
C1029 C1042 1.479 . S
C1030 C1027 1.480 . S
C1030 C1031 1.383 . S
C1030 C1035 1.385 . S
C1031 H1012 0.947 . S
C1031 C1030 1.383 . S
C1031 C1032 1.388 . S
C1032 H1013 0.946 . S
C1032 C1031 1.388 . S
C1032 C1033 1.384 . S
C1033 C1032 1.384 . S
C1033 C1034 1.377 . S
C1034 H1014 0.953 . S
C1034 C1033 1.377 . S
C1034 C1035 1.369 . S
C1035 H1015 0.945 . S
C1035 C1030 1.385 . S
C1035 C1034 1.369 . S
C1036 C1028 1.457 . S
C1036 C1037 1.372 . S
C1036 C1041 1.364 . S
C1037 H1016 0.952 . S
C1037 C1036 1.372 . S
C1037 C1038 1.389 . S
C1038 H1017 0.949 . S
C1038 C1037 1.389 . S
C1038 C1039 1.387 . S
C1039 C1038 1.387 . S
C1039 C1040 1.372 . S
C1040 H1018 0.950 . S
C1040 C1039 1.372 . S
C1040 C1041 1.379 . S
C1041 H1019 0.948 . S
C1041 C1036 1.364 . S
C1041 C1040 1.379 . S
C1042 C1011 1.383 . S
C1042 C1029 1.479 . S
C1042 C1043 1.398 . S
C1043 C1008 1.382 . S
C1043 H1020 0.951 . S
C1043 C1042 1.398 . S
C1044 C1045 1.384 . S
C1044 H1057 0.947 . S
C1044 C1079 1.382 . S
C1045 C1044 1.384 . S
C1045 C1046 1.378 . S
C1046 C1045 1.378 . S
C1046 C1047 1.378 . S
C1046 H1058 0.952 . S
C1047 C1046 1.378 . S
C1047 H1059 0.950 . S
C1047 C1078 1.383 . S
H1048 C1067 0.947 . S
H1049 C1068 0.946 . S
H1050 C1070 0.953 . S
H1051 C1071 0.945 . S
H1052 C1073 0.952 . S
H1053 C1074 0.949 . S
H1054 C1076 0.950 . S
H1055 C1077 0.948 . S
H1056 C1079 0.951 . S
H1057 C1044 0.947 . S
H1058 C1046 0.952 . S
H1059 C1047 0.950 . S
N1060 C1063 1.382 . S
N1060 C1065 1.363 . S
N1061 C1063 1.371 . S
N1061 C1064 1.372 . S
N1062 C1064 1.361 . S
N1062 C1065 1.377 . S
C1063 N1060 1.382 . S
C1063 N1061 1.371 . S
C1063 C1066 1.480 . S
C1064 N1061 1.372 . S
C1064 N1062 1.361 . S
C1064 C1072 1.457 . S
C1065 N1060 1.363 . S
C1065 N1062 1.377 . S
C1065 C1078 1.479 . S
C1066 C1063 1.480 . S
C1066 C1067 1.383 . S
C1066 C1071 1.385 . S
C1067 H1048 0.947 . S
C1067 C1066 1.383 . S
C1067 C1068 1.388 . S
C1068 H1049 0.946 . S
C1068 C1067 1.388 . S
C1068 C1069 1.384 . S
C1069 C1068 1.384 . S
C1069 C1070 1.377 . S
C1070 H1050 0.953 . S
C1070 C1069 1.377 . S
C1070 C1071 1.369 . S
C1071 H1051 0.945 . S
C1071 C1066 1.385 . S
C1071 C1070 1.369 . S
C1072 C1064 1.457 . S
C1072 C1073 1.372 . S
C1072 C1077 1.364 . S
C1073 H1052 0.952 . S
C1073 C1072 1.372 . S
C1073 C1074 1.389 . S
C1074 H1053 0.949 . S
C1074 C1073 1.389 . S
C1074 C1075 1.387 . S
C1075 C1074 1.387 . S
C1075 C1076 1.372 . S
C1076 H1054 0.950 . S
C1076 C1075 1.372 . S
C1076 C1077 1.379 . S
C1077 H1055 0.948 . S
C1077 C1072 1.364 . S
C1077 C1076 1.379 . S
C1078 C1047 1.383 . S
C1078 C1065 1.479 . S
C1078 C1079 1.398 . S
C1079 C1044 1.382 . S
C1079 H1056 0.951 . S
C1079 C1078 1.398 . S
C1080 C1081 1.384 . S
C1080 H1093 0.947 . S
C1080 C1115 1.382 . S
C1081 C1080 1.384 . S
C1081 C1082 1.378 . S
C1082 C1081 1.378 . S
C1082 C1083 1.378 . S
C1082 H1094 0.952 . S
C1083 C1082 1.378 . S
C1083 H1095 0.950 . S
C1083 C1114 1.383 . S
H1084 C1103 0.947 . S
H1085 C1104 0.946 . S
H1086 C1106 0.953 . S
H1087 C1107 0.945 . S
H1088 C1109 0.952 . S
H1089 C1110 0.949 . S
H1090 C1112 0.950 . S
H1091 C1113 0.948 . S
H1092 C1115 0.951 . S
H1093 C1080 0.947 . S
H1094 C1082 0.952 . S
H1095 C1083 0.950 . S
N1096 C1099 1.382 . S
N1096 C1101 1.363 . S
N1097 C1099 1.371 . S
N1097 C1100 1.372 . S
N1098 C1100 1.361 . S
N1098 C1101 1.377 . S
C1099 N1096 1.382 . S
C1099 N1097 1.371 . S
C1099 C1102 1.480 . S
C1100 N1097 1.372 . S
C1100 N1098 1.361 . S
C1100 C1108 1.457 . S
C1101 N1096 1.363 . S
C1101 N1098 1.377 . S
C1101 C1114 1.479 . S
C1102 C1099 1.480 . S
C1102 C1103 1.383 . S
C1102 C1107 1.385 . S
C1103 H1084 0.947 . S
C1103 C1102 1.383 . S
C1103 C1104 1.388 . S
C1104 H1085 0.946 . S
C1104 C1103 1.388 . S
C1104 C1105 1.384 . S
C1105 C1104 1.384 . S
C1105 C1106 1.377 . S
C1106 H1086 0.953 . S
C1106 C1105 1.377 . S
C1106 C1107 1.369 . S
C1107 H1087 0.945 . S
C1107 C1102 1.385 . S
C1107 C1106 1.369 . S
C1108 C1100 1.457 . S
C1108 C1109 1.372 . S
C1108 C1113 1.364 . S
C1109 H1088 0.952 . S
C1109 C1108 1.372 . S
C1109 C1110 1.389 . S
C1110 H1089 0.949 . S
C1110 C1109 1.389 . S
C1110 C1111 1.387 . S
C1111 C1110 1.387 . S
C1111 C1112 1.372 . S
C1112 H1090 0.950 . S
C1112 C1111 1.372 . S
C1112 C1113 1.379 . S
C1113 H1091 0.948 . S
C1113 C1108 1.364 . S
C1113 C1112 1.379 . S
C1114 C1083 1.383 . S
C1114 C1101 1.479 . S
C1114 C1115 1.398 . S
C1115 C1080 1.382 . S
C1115 H1092 0.951 . S
C1115 C1114 1.398 . S
C1116 C1117 1.384 . S
C1116 H1129 0.947 . S
C1116 C1151 1.382 . S
C1117 C1116 1.384 . S
C1117 C1118 1.378 . S
C1118 C1117 1.378 . S
C1118 C1119 1.378 . S
C1118 H1130 0.952 . S
C1119 C1118 1.378 . S
C1119 H1131 0.950 . S
C1119 C1150 1.383 . S
H1120 C1139 0.947 . S
H1121 C1140 0.946 . S
H1122 C1142 0.953 . S
H1123 C1143 0.945 . S
H1124 C1145 0.952 . S
H1125 C1146 0.949 . S
H1126 C1148 0.950 . S
H1127 C1149 0.948 . S
H1128 C1151 0.951 . S
H1129 C1116 0.947 . S
H1130 C1118 0.952 . S
H1131 C1119 0.950 . S
N1132 C1135 1.382 . S
N1132 C1137 1.363 . S
N1133 C1135 1.371 . S
N1133 C1136 1.372 . S
N1134 C1136 1.361 . S
N1134 C1137 1.377 . S
C1135 N1132 1.382 . S
C1135 N1133 1.371 . S
C1135 C1138 1.480 . S
C1136 N1133 1.372 . S
C1136 N1134 1.361 . S
C1136 C1144 1.457 . S
C1137 N1132 1.363 . S
C1137 N1134 1.377 . S
C1137 C1150 1.479 . S
C1138 C1135 1.480 . S
C1138 C1139 1.383 . S
C1138 C1143 1.385 . S
C1139 H1120 0.947 . S
C1139 C1138 1.383 . S
C1139 C1140 1.388 . S
C1140 H1121 0.946 . S
C1140 C1139 1.388 . S
C1140 C1141 1.384 . S
C1141 C1140 1.384 . S
C1141 C1142 1.377 . S
C1142 H1122 0.953 . S
C1142 C1141 1.377 . S
C1142 C1143 1.369 . S
C1143 H1123 0.945 . S
C1143 C1138 1.385 . S
C1143 C1142 1.369 . S
C1144 C1136 1.457 . S
C1144 C1145 1.372 . S
C1144 C1149 1.364 . S
C1145 H1124 0.952 . S
C1145 C1144 1.372 . S
C1145 C1146 1.389 . S
C1146 H1125 0.949 . S
C1146 C1145 1.389 . S
C1146 C1147 1.387 . S
C1147 C1146 1.387 . S
C1147 C1148 1.372 . S
C1148 H1126 0.950 . S
C1148 C1147 1.372 . S
C1148 C1149 1.379 . S
C1149 H1127 0.948 . S
C1149 C1144 1.364 . S
C1149 C1148 1.379 . S
C1150 C1119 1.383 . S
C1150 C1137 1.479 . S
C1150 C1151 1.398 . S
C1151 C1116 1.382 . S
C1151 H1128 0.951 . S
C1151 C1150 1.398 . S
Cu1152 N1153 1.999 . S
Cu1152 O1158 1.974 1_554 S
Cu1152 N1163 1.985 . S
Cu1152 O1172 1.959 . S
N1153 Cu1152 1.999 . S
N1153 C1155 1.263 1_554 S
N1153 C1157 1.389 . S
N1154 C1155 1.358 . S
N1154 C1156 1.400 . S
C1155 N1153 1.263 1_556 S
C1155 N1154 1.358 . S
C1155 H1161 0.930 . S
C1156 N1154 1.400 . S
C1156 C1157 1.351 1_556 S
C1156 H1173 0.930 . S
C1157 N1153 1.389 . S
C1157 C1156 1.351 1_554 S
C1157 H1162 0.930 . S
O1158 Cu1152 1.974 1_556 S
O1158 C1168 1.282 . S
C1159 O1160 1.261 . S
C1159 O1172 1.251 . S
O1160 C1159 1.261 . S
H1161 C1155 0.930 . S
H1162 C1157 0.930 . S
N1163 Cu1152 1.985 . S
N1163 C1165 1.335 . S
N1163 C1166 1.390 . S
N1164 C1165 1.345 . S
N1164 C1167 1.336 . S
C1165 N1163 1.335 . S
C1165 N1164 1.345 . S
C1165 H1170 0.930 . S
C1166 N1163 1.390 . S
C1166 C1167 1.346 . S
C1166 H1171 0.930 . S
C1167 N1164 1.336 . S
C1167 C1166 1.346 . S
C1167 H1174 0.929 . S
C1168 O1158 1.282 . S
C1168 O1169 1.216 . S
O1169 C1168 1.216 . S
H1170 C1165 0.930 . S
H1171 C1166 0.930 . S
O1172 Cu1152 1.959 . S
O1172 C1159 1.251 . S
H1173 C1156 0.930 . S
H1174 C1167 0.929 . S
Cu1175 N1176 1.999 . S
Cu1175 O1181 1.974 . S
Cu1175 N1186 1.985 1_554 S
Cu1175 O1195 1.959 1_554 S
N1176 Cu1175 1.999 . S
N1176 C1178 1.263 . S
N1176 C1180 1.389 . S
N1177 C1178 1.358 . S
N1177 C1179 1.400 . S
C1178 N1176 1.263 . S
C1178 N1177 1.358 . S
C1178 H1184 0.930 . S
C1179 N1177 1.400 . S
C1179 C1180 1.351 . S
C1179 H1196 0.930 . S
C1180 N1176 1.389 . S
C1180 C1179 1.351 . S
C1180 H1185 0.930 . S
O1181 Cu1175 1.974 . S
O1181 C1191 1.282 . S
C1182 O1183 1.261 . S
C1182 O1195 1.251 . S
O1183 C1182 1.261 . S
H1184 C1178 0.930 . S
H1185 C1180 0.930 . S
N1186 Cu1175 1.985 1_556 S
N1186 C1188 1.335 . S
N1186 C1189 1.390 . S
N1187 C1188 1.345 . S
N1187 C1190 1.336 . S
C1188 N1186 1.335 . S
C1188 N1187 1.345 . S
C1188 H1193 0.930 . S
C1189 N1186 1.390 . S
C1189 C1190 1.346 . S
C1189 H1194 0.930 1_556 S
C1190 N1187 1.336 . S
C1190 C1189 1.346 . S
C1190 H1197 0.929 . S
C1191 O1181 1.282 . S
C1191 O1192 1.216 . S
O1192 C1191 1.216 . S
H1193 C1188 0.930 . S
H1194 C1189 0.930 1_554 S
O1195 Cu1175 1.959 1_556 S
O1195 C1182 1.251 . S
H1196 C1179 0.930 . S
H1197 C1190 0.929 . S
Cu1198 N1199 1.957 1_554 S
Cu1198 O1204 1.921 1_554 S
Cu1198 N1209 2.027 . S
Cu1198 O1218 2.012 . S
N1199 Cu1198 1.957 1_556 S
N1199 C1201 1.263 . S
N1199 C1203 1.389 . S
N1200 C1201 1.358 . S
N1200 C1202 1.400 . S
C1201 N1199 1.263 . S
C1201 N1200 1.358 . S
C1201 H1207 0.930 . S
C1202 N1200 1.400 . S
C1202 C1203 1.351 . S
C1202 H1219 0.930 . S
C1203 N1199 1.389 . S
C1203 C1202 1.351 . S
C1203 H1208 0.987 . S
O1204 Cu1198 1.921 1_556 S
O1204 C1214 1.282 . S
C1205 O1206 1.261 . S
C1205 O1218 1.251 . S
O1206 C1205 1.261 . S
H1207 C1201 0.930 . S
H1208 C1203 0.987 . S
N1209 Cu1198 2.027 . S
N1209 C1211 1.335 . S
N1209 C1212 1.390 . S
N1210 C1211 1.345 . S
N1210 C1213 1.336 . S
C1211 N1209 1.335 . S
C1211 N1210 1.345 . S
C1211 H1216 0.930 . S
C1212 N1209 1.390 . S
C1212 C1213 1.346 . S
C1212 H1217 0.955 . S
C1213 N1210 1.336 . S
C1213 C1212 1.346 . S
C1213 H1220 0.929 . S
C1214 O1204 1.282 . S
C1214 O1215 1.216 . S
O1215 C1214 1.216 . S
H1216 C1211 0.930 . S
H1217 C1212 0.955 . S
O1218 Cu1198 2.012 . S
O1218 C1205 1.251 . S
H1219 C1202 0.930 . S
H1220 C1213 0.929 . S
Cu1221 N1222 2.005 . S
Cu1221 O1227 1.981 . S
Cu1221 N1232 1.979 1_554 S
Cu1221 O1241 1.952 1_554 S
N1222 Cu1221 2.005 . S
N1222 C1224 1.263 . S
N1222 C1226 1.389 . S
N1223 C1224 1.358 . S
N1223 C1225 1.400 . S
C1224 N1222 1.263 . S
C1224 N1223 1.358 . S
C1224 H1230 0.930 . S
C1225 N1223 1.400 . S
C1225 C1226 1.351 . S
C1225 H1242 0.930 . S
C1226 N1222 1.389 . S
C1226 C1225 1.351 . S
C1226 H1231 0.930 . S
O1227 Cu1221 1.981 . S
O1227 C1237 1.282 . S
C1228 O1229 1.261 . S
C1228 O1241 1.251 . S
O1229 C1228 1.261 . S
H1230 C1224 0.930 . S
H1231 C1226 0.930 . S
N1232 Cu1221 1.979 1_556 S
N1232 C1234 1.335 . S
N1232 C1235 1.390 . S
N1233 C1234 1.345 . S
N1233 C1236 1.336 . S
C1234 N1232 1.335 . S
C1234 N1233 1.345 . S
C1234 H1239 0.930 . S
C1235 N1232 1.390 . S
C1235 C1236 1.346 . S
C1235 H1240 0.896 1_556 S
C1236 N1233 1.336 . S
C1236 C1235 1.346 . S
C1236 H1243 0.929 . S
C1237 O1227 1.282 . S
C1237 O1238 1.216 . S
O1238 C1237 1.216 . S
H1239 C1234 0.930 . S
H1240 C1235 0.896 1_554 S
O1241 Cu1221 1.952 1_556 S
O1241 C1228 1.251 . S
H1242 C1225 0.930 . S
H1243 C1236 0.929 . S
Cu1244 N1245 1.999 . S
Cu1244 O1250 1.974 . S
Cu1244 N1255 1.985 1_455 S
Cu1244 O1264 1.959 1_455 S
N1245 Cu1244 1.999 . S
N1245 C1247 1.263 . S
N1245 C1249 1.389 . S
N1246 C1247 1.358 . S
N1246 C1248 1.400 . S
C1247 N1245 1.263 . S
C1247 N1246 1.358 . S
C1247 H1253 0.930 . S
C1248 N1246 1.400 . S
C1248 C1249 1.351 . S
C1248 H1265 0.930 . S
C1249 N1245 1.389 . S
C1249 C1248 1.351 . S
C1249 H1254 0.930 . S
O1250 Cu1244 1.974 . S
O1250 C1260 1.282 . S
C1251 O1252 1.261 . S
C1251 O1264 1.251 . S
O1252 C1251 1.261 . S
H1253 C1247 0.930 . S
H1254 C1249 0.930 . S
N1255 Cu1244 1.985 1_655 S
N1255 C1257 1.335 . S
N1255 C1258 1.379 1_655 S
N1256 C1257 1.345 . S
N1256 C1259 1.336 . S
C1257 N1255 1.335 . S
C1257 N1256 1.345 . S
C1257 H1262 0.930 . S
C1258 N1255 1.379 1_455 S
C1258 C1259 1.285 1_455 S
C1258 H1263 0.994 . S
C1259 N1256 1.336 . S
C1259 C1258 1.285 1_655 S
C1259 H1266 0.929 . S
C1260 O1250 1.282 . S
C1260 O1261 1.216 . S
O1261 C1260 1.216 . S
H1262 C1257 0.930 . S
H1263 C1258 0.994 . S
O1264 Cu1244 1.959 1_655 S
O1264 C1251 1.251 . S
H1265 C1248 0.930 . S
H1266 C1259 0.929 . S
Cu1267 N1268 1.999 . S
Cu1267 O1273 1.974 . S
Cu1267 N1278 1.985 1_545 S
Cu1267 O1287 1.959 1_545 S
N1268 Cu1267 1.999 . S
N1268 C1270 1.263 . S
N1268 C1272 1.389 . S
N1269 C1270 1.358 . S
N1269 C1271 1.400 . S
C1270 N1268 1.263 . S
C1270 N1269 1.358 . S
C1270 H1276 0.930 . S
C1271 N1269 1.400 . S
C1271 C1272 1.351 . S
C1271 H1288 0.930 . S
C1272 N1268 1.389 . S
C1272 C1271 1.351 . S
C1272 H1277 0.930 . S
O1273 Cu1267 1.974 . S
O1273 C1283 1.282 . S
C1274 O1275 1.261 . S
C1274 O1287 1.251 . S
O1275 C1274 1.261 . S
H1276 C1270 0.930 . S
H1277 C1272 0.930 . S
N1278 Cu1267 1.985 1_565 S
N1278 C1280 1.335 . S
N1278 C1281 1.390 . S
N1279 C1280 1.345 . S
N1279 C1282 1.336 . S
C1280 N1278 1.335 . S
C1280 N1279 1.345 . S
C1280 H1285 0.930 . S
C1281 N1278 1.390 . S
C1281 C1282 1.346 . S
C1281 H1286 0.930 1_565 S
C1282 N1279 1.336 . S
C1282 C1281 1.346 . S
C1282 H1289 0.929 . S
C1283 O1273 1.282 . S
C1283 O1284 1.216 . S
O1284 C1283 1.216 . S
H1285 C1280 0.930 . S
H1286 C1281 0.930 1_545 S
O1287 Cu1267 1.959 1_565 S
O1287 C1274 1.251 . S
H1288 C1271 0.930 . S
H1289 C1282 0.929 . S
Cu1290 N1291 1.995 . S
Cu1290 O1296 1.969 . S
Cu1290 N1301 1.989 1_655 S
Cu1290 O1310 1.964 1_655 S
N1291 Cu1290 1.995 . S
N1291 C1293 1.263 . S
N1291 C1295 1.389 . S
N1292 C1293 1.358 . S
N1292 C1294 1.400 . S
C1293 N1291 1.263 . S
C1293 N1292 1.358 . S
C1293 H1299 0.930 . S
C1294 N1292 1.400 . S
C1294 C1295 1.351 . S
C1294 H1311 0.930 . S
C1295 N1291 1.389 . S
C1295 C1294 1.351 . S
C1295 H1300 0.930 . S
O1296 Cu1290 1.969 . S
O1296 C1306 1.282 . S
C1297 O1298 1.261 . S
C1297 O1310 1.251 . S
O1298 C1297 1.261 . S
H1299 C1293 0.930 . S
H1300 C1295 0.930 . S
N1301 Cu1290 1.989 1_455 S
N1301 C1303 1.335 . S
N1301 C1304 1.390 . S
N1302 C1303 1.345 . S
N1302 C1305 1.336 . S
C1303 N1301 1.335 . S
C1303 N1302 1.345 . S
C1303 H1308 0.930 . S
C1304 N1301 1.390 . S
C1304 C1305 1.346 . S
C1304 H1309 0.930 . S
C1305 N1302 1.336 . S
C1305 C1304 1.346 . S
C1305 H1312 0.929 . S
C1306 O1296 1.282 . S
C1306 O1307 1.216 . S
O1307 C1306 1.216 . S
H1308 C1303 0.930 . S
H1309 C1304 0.930 . S
O1310 Cu1290 1.964 1_455 S
O1310 C1297 1.251 . S
H1311 C1294 0.930 . S
H1312 C1305 0.929 . S
Cu1313 N1314 1.986 1_565 S
Cu1313 O1319 1.957 1_565 S
Cu1313 N1324 1.998 . S
Cu1313 O1333 1.975 . S
N1314 Cu1313 1.986 1_545 S
N1314 C1316 1.263 . S
N1314 C1318 1.389 . S
N1315 C1316 1.358 . S
N1315 C1317 1.400 . S
C1316 N1314 1.263 . S
C1316 N1315 1.358 . S
C1316 H1322 0.930 . S
C1317 N1315 1.400 . S
C1317 C1318 1.351 . S
C1317 H1334 0.930 . S
C1318 N1314 1.389 . S
C1318 C1317 1.351 . S
C1318 H1323 0.930 . S
O1319 Cu1313 1.957 1_545 S
O1319 C1329 1.282 . S
C1320 O1321 1.261 . S
C1320 O1333 1.251 . S
O1321 C1320 1.261 . S
H1322 C1316 0.930 . S
H1323 C1318 0.930 . S
N1324 Cu1313 1.998 . S
N1324 C1326 1.335 . S
N1324 C1327 1.390 . S
N1325 C1326 1.345 . S
N1325 C1328 1.336 . S
C1326 N1324 1.335 . S
C1326 N1325 1.345 . S
C1326 H1331 0.930 . S
C1327 N1324 1.390 . S
C1327 C1328 1.346 . S
C1327 H1332 0.930 . S
C1328 N1325 1.336 . S
C1328 C1327 1.346 . S
C1328 H1335 0.929 . S
C1329 O1319 1.282 . S
C1329 O1330 1.216 . S
O1330 C1329 1.216 . S
H1331 C1326 0.930 . S
H1332 C1327 0.930 . S
O1333 Cu1313 1.975 . S
O1333 C1320 1.251 . S
H1334 C1317 0.930 . S
H1335 C1328 0.929 . S
Cu1336 N1337 1.999 . S
Cu1336 O1342 1.974 . S
Cu1336 N1347 1.985 1_455 S
Cu1336 O1356 1.959 1_455 S
N1337 Cu1336 1.999 . S
N1337 C1339 1.263 . S
N1337 C1341 1.389 . S
N1338 C1339 1.358 . S
N1338 C1340 1.400 . S
C1339 N1337 1.263 . S
C1339 N1338 1.358 . S
C1339 H1345 0.930 . S
C1340 N1338 1.400 . S
C1340 C1341 1.351 . S
C1340 H1357 0.930 . S
C1341 N1337 1.389 . S
C1341 C1340 1.351 . S
C1341 H1346 0.930 . S
O1342 Cu1336 1.974 . S
O1342 C1352 1.282 . S
C1343 O1344 1.261 . S
C1343 O1356 1.251 . S
O1344 C1343 1.261 . S
H1345 C1339 0.930 . S
H1346 C1341 0.930 . S
N1347 Cu1336 1.985 1_655 S
N1347 C1349 1.335 . S
N1347 C1350 1.389 1_655 S
N1348 C1349 1.345 . S
N1348 C1351 1.336 . S
C1349 N1347 1.335 . S
C1349 N1348 1.345 . S
C1349 H1354 0.930 . S
C1350 N1347 1.389 1_455 S
C1350 C1351 1.340 1_455 S
C1350 H1355 0.936 . S
C1351 N1348 1.336 . S
C1351 C1350 1.340 1_655 S
C1351 H1358 0.929 . S
C1352 O1342 1.282 . S
C1352 O1353 1.216 . S
O1353 C1352 1.216 . S
H1354 C1349 0.930 . S
H1355 C1350 0.936 . S
O1356 Cu1336 1.959 1_655 S
O1356 C1343 1.251 . S
H1357 C1340 0.930 . S
H1358 C1351 0.929 . S
Cu1359 N1360 1.999 . S
Cu1359 O1365 1.974 . S
Cu1359 N1370 1.941 1_545 S
Cu1359 O1379 1.959 1_545 S
N1360 Cu1359 1.999 . S
N1360 C1362 1.263 . S
N1360 C1364 1.389 . S
N1361 C1362 1.358 . S
N1361 C1363 1.400 . S
C1362 N1360 1.263 . S
C1362 N1361 1.358 . S
C1362 H1368 0.930 . S
C1363 N1361 1.400 . S
C1363 C1364 1.351 . S
C1363 H1380 0.930 . S
C1364 N1360 1.389 . S
C1364 C1363 1.351 . S
C1364 H1369 0.930 . S
O1365 Cu1359 1.974 . S
O1365 C1375 1.282 . S
C1366 O1367 1.261 . S
C1366 O1379 1.251 . S
O1367 C1366 1.261 . S
H1368 C1362 0.930 . S
H1369 C1364 0.930 . S
N1370 Cu1359 1.941 1_565 S
N1370 C1372 1.401 . S
N1370 C1373 1.379 1_565 S
N1371 C1372 1.345 . S
N1371 C1374 1.336 . S
C1372 N1370 1.401 . S
C1372 N1371 1.345 . S
C1372 H1377 0.930 . S
C1373 N1370 1.379 1_545 S
C1373 C1374 1.346 1_545 S
C1373 H1378 0.930 . S
C1374 N1371 1.336 . S
C1374 C1373 1.346 1_565 S
C1374 H1381 0.929 . S
C1375 O1365 1.282 . S
C1375 O1376 1.216 . S
O1376 C1375 1.216 . S
H1377 C1372 0.930 . S
H1378 C1373 0.930 . S
O1379 Cu1359 1.959 1_565 S
O1379 C1366 1.251 . S
H1380 C1363 0.930 . S
H1381 C1374 0.929 . S
Cu1382 N1383 1.999 . S
Cu1382 O1388 1.974 . S
Cu1382 N1393 1.985 . S
Cu1382 O1402 1.959 . S
N1383 Cu1382 1.999 . S
N1383 C1385 1.263 1_455 S
N1383 C1387 1.389 . S
N1384 C1385 1.358 . S
N1384 C1386 1.400 . S
C1385 N1383 1.263 1_655 S
C1385 N1384 1.358 . S
C1385 H1391 0.930 . S
C1386 N1384 1.400 . S
C1386 C1387 1.351 1_655 S
C1386 H1403 0.930 . S
C1387 N1383 1.389 . S
C1387 C1386 1.351 1_455 S
C1387 H1392 0.930 . S
O1388 Cu1382 1.974 . S
O1388 C1398 1.282 1_455 S
C1389 O1390 1.261 . S
C1389 O1402 1.251 . S
O1390 C1389 1.261 . S
H1391 C1385 0.930 . S
H1392 C1387 0.930 . S
N1393 Cu1382 1.985 . S
N1393 C1395 1.335 . S
N1393 C1396 1.390 . S
N1394 C1395 1.345 . S
N1394 C1397 1.336 . S
C1395 N1393 1.335 . S
C1395 N1394 1.345 . S
C1395 H1400 0.930 . S
C1396 N1393 1.390 . S
C1396 C1397 1.346 . S
C1396 H1401 0.930 . S
C1397 N1394 1.336 . S
C1397 C1396 1.346 . S
C1397 H1404 0.929 . S
C1398 O1388 1.282 1_655 S
C1398 O1399 1.216 1_655 S
O1399 C1398 1.216 1_455 S
H1400 C1395 0.930 . S
H1401 C1396 0.930 . S
O1402 Cu1382 1.959 . S
O1402 C1389 1.251 . S
H1403 C1386 0.930 . S
H1404 C1397 0.929 . S
Cu1405 N1406 1.999 . S
Cu1405 O1411 1.974 . S
Cu1405 N1416 2.028 . S
Cu1405 O1425 1.959 1_545 S
N1406 Cu1405 1.999 . S
N1406 C1408 1.263 . S
N1406 C1410 1.389 . S
N1407 C1408 1.358 . S
N1407 C1409 1.400 . S
C1408 N1406 1.263 . S
C1408 N1407 1.358 . S
C1408 H1414 0.930 . S
C1409 N1407 1.400 . S
C1409 C1410 1.351 . S
C1409 H1426 0.930 . S
C1410 N1406 1.389 . S
C1410 C1409 1.351 . S
C1410 H1415 0.930 . S
O1411 Cu1405 1.974 . S
O1411 C1421 1.282 . S
C1412 O1413 1.253 1_565 S
C1412 O1425 1.251 . S
O1413 C1412 1.253 1_545 S
H1414 C1408 0.930 . S
H1415 C1410 0.930 . S
N1416 Cu1405 2.028 . S
N1416 C1418 1.268 1_545 S
N1416 C1419 1.407 . S
N1417 C1418 1.345 . S
N1417 C1420 1.336 . S
C1418 N1416 1.268 1_565 S
C1418 N1417 1.345 . S
C1418 H1423 0.930 . S
C1419 N1416 1.407 . S
C1419 C1420 1.346 1_545 S
C1419 H1424 0.930 . S
C1420 N1417 1.336 . S
C1420 C1419 1.346 1_565 S
C1420 H1427 0.929 . S
C1421 O1411 1.282 . S
C1421 O1422 1.216 . S
O1422 C1421 1.216 . S
H1423 C1418 0.930 . S
H1424 C1419 0.930 . S
O1425 Cu1405 1.959 1_565 S
O1425 C1412 1.251 . S
H1426 C1409 0.930 . S
H1427 C1420 0.929 . S
Cu1428 N1429 1.999 . S
Cu1428 O1434 1.974 . S
Cu1428 N1439 1.985 . S
Cu1428 O1448 1.959 . S
N1429 Cu1428 1.999 . S
N1429 C1431 1.263 . S
N1429 C1433 1.389 . S
N1430 C1431 1.358 . S
N1430 C1432 1.400 . S
C1431 N1429 1.263 . S
C1431 N1430 1.358 . S
C1431 H1437 0.930 . S
C1432 N1430 1.400 . S
C1432 C1433 1.351 . S
C1432 H1449 0.930 . S
C1433 N1429 1.389 . S
C1433 C1432 1.351 . S
C1433 H1438 0.930 . S
O1434 Cu1428 1.974 . S
O1434 C1444 1.282 . S
C1435 O1436 1.261 . S
C1435 O1448 1.251 . S
O1436 C1435 1.261 . S
H1437 C1431 0.930 . S
H1438 C1433 0.930 . S
N1439 Cu1428 1.985 . S
N1439 C1441 1.335 . S
N1439 C1442 1.390 . S
N1440 C1441 1.345 . S
N1440 C1443 1.336 . S
C1441 N1439 1.335 . S
C1441 N1440 1.345 . S
C1441 H1446 0.930 . S
C1442 N1439 1.390 . S
C1442 C1443 1.346 . S
C1442 H1447 0.930 . S
C1443 N1440 1.336 . S
C1443 C1442 1.346 . S
C1443 H1450 0.929 . S
C1444 O1434 1.282 . S
C1444 O1445 1.216 . S
O1445 C1444 1.216 . S
H1446 C1441 0.930 . S
H1447 C1442 0.930 . S
O1448 Cu1428 1.959 . S
O1448 C1435 1.251 . S
H1449 C1432 0.930 . S
H1450 C1443 0.929 . S
Cu1451 N1452 1.999 . S
Cu1451 O1457 1.974 . S
Cu1451 N1462 1.985 . S
Cu1451 O1471 1.959 . S
N1452 Cu1451 1.999 . S
N1452 C1454 1.263 . S
N1452 C1456 1.389 . S
N1453 C1454 1.358 . S
N1453 C1455 1.400 . S
C1454 N1452 1.263 . S
C1454 N1453 1.358 . S
C1454 H1460 0.930 . S
C1455 N1453 1.400 . S
C1455 C1456 1.351 . S
C1455 H1472 0.930 . S
C1456 N1452 1.389 . S
C1456 C1455 1.351 . S
C1456 H1461 0.930 . S
O1457 Cu1451 1.974 . S
O1457 C1467 1.282 . S
C1458 O1459 1.261 . S
C1458 O1471 1.251 . S
O1459 C1458 1.261 . S
H1460 C1454 0.930 . S
H1461 C1456 0.930 . S
N1462 Cu1451 1.985 . S
N1462 C1464 1.335 . S
N1462 C1465 1.390 . S
N1463 C1464 1.345 . S
N1463 C1466 1.336 . S
C1464 N1462 1.335 . S
C1464 N1463 1.345 . S
C1464 H1469 0.930 . S
C1465 N1462 1.390 . S
C1465 C1466 1.346 . S
C1465 H1470 0.930 . S
C1466 N1463 1.336 . S
C1466 C1465 1.346 . S
C1466 H1473 0.929 . S
C1467 O1457 1.282 . S
C1467 O1468 1.216 . S
O1468 C1467 1.216 . S
H1469 C1464 0.930 . S
H1470 C1465 0.930 . S
O1471 Cu1451 1.959 . S
O1471 C1458 1.251 . S
H1472 C1455 0.930 . S
H1473 C1466 0.929 . S
Cu1474 N1475 1.999 . S
Cu1474 O1480 1.974 . S
Cu1474 N1485 1.985 . S
Cu1474 O1494 1.959 . S
N1475 Cu1474 1.999 . S
N1475 C1477 1.263 . S
N1475 C1479 1.389 . S
N1476 C1477 1.358 . S
N1476 C1478 1.400 . S
C1477 N1475 1.263 . S
C1477 N1476 1.358 . S
C1477 H1483 0.930 . S
C1478 N1476 1.400 . S
C1478 C1479 1.351 . S
C1478 H1495 0.930 . S
C1479 N1475 1.389 . S
C1479 C1478 1.351 . S
C1479 H1484 0.930 . S
O1480 Cu1474 1.974 . S
O1480 C1490 1.282 . S
C1481 O1482 1.261 . S
C1481 O1494 1.251 . S
O1482 C1481 1.261 . S
H1483 C1477 0.930 . S
H1484 C1479 0.930 . S
N1485 Cu1474 1.985 . S
N1485 C1487 1.335 . S
N1485 C1488 1.390 . S
N1486 C1487 1.345 . S
N1486 C1489 1.336 . S
C1487 N1485 1.335 . S
C1487 N1486 1.345 . S
C1487 H1492 0.930 . S
C1488 N1485 1.390 . S
C1488 C1489 1.346 . S
C1488 H1493 0.930 . S
C1489 N1486 1.336 . S
C1489 C1488 1.346 . S
C1489 H1496 0.929 . S
C1490 O1480 1.282 . S
C1490 O1491 1.216 . S
O1491 C1490 1.216 . S
H1492 C1487 0.930 . S
H1493 C1488 0.930 . S
O1494 Cu1474 1.959 . S
O1494 C1481 1.251 . S
H1495 C1478 0.930 . S
H1496 C1489 0.929 . S
Cu1497 N1498 1.999 . S
Cu1497 O1503 1.974 . S
Cu1497 N1508 1.985 . S
Cu1497 O1517 1.959 . S
N1498 Cu1497 1.999 . S
N1498 C1500 1.263 . S
N1498 C1502 1.389 . S
N1499 C1500 1.358 . S
N1499 C1501 1.400 . S
C1500 N1498 1.263 . S
C1500 N1499 1.358 . S
C1500 H1506 0.930 . S
C1501 N1499 1.400 . S
C1501 C1502 1.351 . S
C1501 H1518 0.930 . S
C1502 N1498 1.389 . S
C1502 C1501 1.351 . S
C1502 H1507 0.930 . S
O1503 Cu1497 1.974 . S
O1503 C1513 1.282 . S
C1504 O1505 1.261 . S
C1504 O1517 1.251 . S
O1505 C1504 1.261 . S
H1506 C1500 0.930 . S
H1507 C1502 0.930 . S
N1508 Cu1497 1.985 . S
N1508 C1510 1.335 . S
N1508 C1511 1.390 . S
N1509 C1510 1.345 . S
N1509 C1512 1.336 . S
C1510 N1508 1.335 . S
C1510 N1509 1.345 . S
C1510 H1515 0.930 . S
C1511 N1508 1.390 . S
C1511 C1512 1.346 . S
C1511 H1516 0.930 . S
C1512 N1509 1.336 . S
C1512 C1511 1.346 . S
C1512 H1519 0.929 . S
C1513 O1503 1.282 . S
C1513 O1514 1.216 . S
O1514 C1513 1.216 . S
H1515 C1510 0.930 . S
H1516 C1511 0.930 . S
O1517 Cu1497 1.959 . S
O1517 C1504 1.251 . S
H1518 C1501 0.930 . S
H1519 C1512 0.929 . S
Cu1520 N1521 1.999 . S
Cu1520 O1526 1.974 . S
Cu1520 N1531 1.985 . S
Cu1520 O1540 1.959 . S
N1521 Cu1520 1.999 . S
N1521 C1523 1.263 . S
N1521 C1525 1.389 . S
N1522 C1523 1.358 . S
N1522 C1524 1.400 . S
C1523 N1521 1.263 . S
C1523 N1522 1.358 . S
C1523 H1529 0.930 . S
C1524 N1522 1.400 . S
C1524 C1525 1.351 . S
C1524 H1541 0.930 . S
C1525 N1521 1.389 . S
C1525 C1524 1.351 . S
C1525 H1530 0.930 . S
O1526 Cu1520 1.974 . S
O1526 C1536 1.282 . S
C1527 O1528 1.261 . S
C1527 O1540 1.251 . S
O1528 C1527 1.261 . S
H1529 C1523 0.930 . S
H1530 C1525 0.930 . S
N1531 Cu1520 1.985 . S
N1531 C1533 1.335 . S
N1531 C1534 1.390 . S
N1532 C1533 1.345 . S
N1532 C1535 1.336 . S
C1533 N1531 1.335 . S
C1533 N1532 1.345 . S
C1533 H1538 0.930 . S
C1534 N1531 1.390 . S
C1534 C1535 1.346 . S
C1534 H1539 0.930 . S
C1535 N1532 1.336 . S
C1535 C1534 1.346 . S
C1535 H1542 0.929 . S
C1536 O1526 1.282 . S
C1536 O1537 1.216 . S
O1537 C1536 1.216 . S
H1538 C1533 0.930 . S
H1539 C1534 0.930 . S
O1540 Cu1520 1.959 . S
O1540 C1527 1.251 . S
H1541 C1524 0.930 . S
H1542 C1535 0.929 . S
Cu1543 N1544 1.999 . S
Cu1543 O1549 1.974 . S
Cu1543 N1554 1.985 . S
Cu1543 O1563 1.959 . S
N1544 Cu1543 1.999 . S
N1544 C1546 1.263 . S
N1544 C1548 1.389 . S
N1545 C1546 1.358 . S
N1545 C1547 1.400 . S
C1546 N1544 1.263 . S
C1546 N1545 1.358 . S
C1546 H1552 0.930 . S
C1547 N1545 1.400 . S
C1547 C1548 1.351 . S
C1547 H1564 0.930 . S
C1548 N1544 1.389 . S
C1548 C1547 1.351 . S
C1548 H1553 0.930 . S
O1549 Cu1543 1.974 . S
O1549 C1559 1.282 . S
C1550 O1551 1.261 . S
C1550 O1563 1.251 . S
O1551 C1550 1.261 . S
H1552 C1546 0.930 . S
H1553 C1548 0.930 . S
N1554 Cu1543 1.985 . S
N1554 C1556 1.335 . S
N1554 C1557 1.390 . S
N1555 C1556 1.345 . S
N1555 C1558 1.336 . S
C1556 N1554 1.335 . S
C1556 N1555 1.345 . S
C1556 H1561 0.930 . S
C1557 N1554 1.390 . S
C1557 C1558 1.346 . S
C1557 H1562 0.930 . S
C1558 N1555 1.336 . S
C1558 C1557 1.346 . S
C1558 H1565 0.929 . S
C1559 O1549 1.282 . S
C1559 O1560 1.216 . S
O1560 C1559 1.216 . S
H1561 C1556 0.930 . S
H1562 C1557 0.930 . S
O1563 Cu1543 1.959 . S
O1563 C1550 1.251 . S
H1564 C1547 0.930 . S
H1565 C1558 0.929 . S
Cu1566 N1567 1.999 . S
Cu1566 O1572 1.974 . S
Cu1566 N1577 1.985 . S
Cu1566 O1586 1.959 . S
N1567 Cu1566 1.999 . S
N1567 C1569 1.263 . S
N1567 C1571 1.389 . S
N1568 C1569 1.358 . S
N1568 C1570 1.400 . S
C1569 N1567 1.263 . S
C1569 N1568 1.358 . S
C1569 H1575 0.930 . S
C1570 N1568 1.400 . S
C1570 C1571 1.351 . S
C1570 H1587 0.930 . S
C1571 N1567 1.389 . S
C1571 C1570 1.351 . S
C1571 H1576 0.930 . S
O1572 Cu1566 1.974 . S
O1572 C1582 1.282 . S
C1573 O1574 1.261 . S
C1573 O1586 1.251 . S
O1574 C1573 1.261 . S
H1575 C1569 0.930 . S
H1576 C1571 0.930 . S
N1577 Cu1566 1.985 . S
N1577 C1579 1.335 . S
N1577 C1580 1.390 . S
N1578 C1579 1.345 . S
N1578 C1581 1.336 . S
C1579 N1577 1.335 . S
C1579 N1578 1.345 . S
C1579 H1584 0.930 . S
C1580 N1577 1.390 . S
C1580 C1581 1.346 . S
C1580 H1585 0.930 . S
C1581 N1578 1.336 . S
C1581 C1580 1.346 . S
C1581 H1588 0.929 . S
C1582 O1572 1.282 . S
C1582 O1583 1.216 . S
O1583 C1582 1.216 . S
H1584 C1579 0.930 . S
H1585 C1580 0.930 . S
O1586 Cu1566 1.959 . S
O1586 C1573 1.251 . S
H1587 C1570 0.930 . S
H1588 C1581 0.929 . S
Cu1589 N1590 1.999 . S
Cu1589 O1595 1.974 . S
Cu1589 N1600 1.985 . S
Cu1589 O1609 1.959 . S
N1590 Cu1589 1.999 . S
N1590 C1592 1.263 . S
N1590 C1594 1.389 . S
N1591 C1592 1.358 . S
N1591 C1593 1.400 . S
C1592 N1590 1.263 . S
C1592 N1591 1.358 . S
C1592 H1598 0.930 . S
C1593 N1591 1.400 . S
C1593 C1594 1.351 . S
C1593 H1610 0.930 . S
C1594 N1590 1.389 . S
C1594 C1593 1.351 . S
C1594 H1599 0.930 . S
O1595 Cu1589 1.974 . S
O1595 C1605 1.282 . S
C1596 O1597 1.261 . S
C1596 O1609 1.251 . S
O1597 C1596 1.261 . S
H1598 C1592 0.930 . S
H1599 C1594 0.930 . S
N1600 Cu1589 1.985 . S
N1600 C1602 1.335 . S
N1600 C1603 1.390 . S
N1601 C1602 1.345 . S
N1601 C1604 1.336 . S
C1602 N1600 1.335 . S
C1602 N1601 1.345 . S
C1602 H1607 0.930 . S
C1603 N1600 1.390 . S
C1603 C1604 1.346 . S
C1603 H1608 0.930 . S
C1604 N1601 1.336 . S
C1604 C1603 1.346 . S
C1604 H1611 0.929 . S
C1605 O1595 1.282 . S
C1605 O1606 1.216 . S
O1606 C1605 1.216 . S
H1607 C1602 0.930 . S
H1608 C1603 0.930 . S
O1609 Cu1589 1.959 . S
O1609 C1596 1.251 . S
H1610 C1593 0.930 . S
H1611 C1604 0.929 . S
Cu1612 N1613 1.999 . S
Cu1612 O1618 1.974 . S
Cu1612 N1623 1.985 . S
Cu1612 O1632 1.959 . S
N1613 Cu1612 1.999 . S
N1613 C1615 1.263 . S
N1613 C1617 1.389 . S
N1614 C1615 1.358 . S
N1614 C1616 1.400 . S
C1615 N1613 1.263 . S
C1615 N1614 1.358 . S
C1615 H1621 0.930 . S
C1616 N1614 1.400 . S
C1616 C1617 1.351 . S
C1616 H1633 0.930 . S
C1617 N1613 1.389 . S
C1617 C1616 1.351 . S
C1617 H1622 0.930 . S
O1618 Cu1612 1.974 . S
O1618 C1628 1.282 . S
C1619 O1620 1.261 . S
C1619 O1632 1.251 . S
O1620 C1619 1.261 . S
H1621 C1615 0.930 . S
H1622 C1617 0.930 . S
N1623 Cu1612 1.985 . S
N1623 C1625 1.335 . S
N1623 C1626 1.390 . S
N1624 C1625 1.345 . S
N1624 C1627 1.336 . S
C1625 N1623 1.335 . S
C1625 N1624 1.345 . S
C1625 H1630 0.930 . S
C1626 N1623 1.390 . S
C1626 C1627 1.346 . S
C1626 H1631 0.930 . S
C1627 N1624 1.336 . S
C1627 C1626 1.346 . S
C1627 H1634 0.929 . S
C1628 O1618 1.282 . S
C1628 O1629 1.216 . S
O1629 C1628 1.216 . S
H1630 C1625 0.930 . S
H1631 C1626 0.930 . S
O1632 Cu1612 1.959 . S
O1632 C1619 1.251 . S
H1633 C1616 0.930 . S
H1634 C1627 0.929 . S
Cu1635 N1636 1.999 . S
Cu1635 O1641 1.974 . S
Cu1635 N1646 1.985 . S
Cu1635 O1655 1.959 . S
N1636 Cu1635 1.999 . S
N1636 C1638 1.263 . S
N1636 C1640 1.389 . S
N1637 C1638 1.358 . S
N1637 C1639 1.400 . S
C1638 N1636 1.263 . S
C1638 N1637 1.358 . S
C1638 H1644 0.930 . S
C1639 N1637 1.400 . S
C1639 C1640 1.351 . S
C1639 H1656 0.930 . S
C1640 N1636 1.389 . S
C1640 C1639 1.351 . S
C1640 H1645 0.930 . S
O1641 Cu1635 1.974 . S
O1641 C1651 1.282 . S
C1642 O1643 1.261 . S
C1642 O1655 1.251 . S
O1643 C1642 1.261 . S
H1644 C1638 0.930 . S
H1645 C1640 0.930 . S
N1646 Cu1635 1.985 . S
N1646 C1648 1.335 . S
N1646 C1649 1.390 . S
N1647 C1648 1.345 . S
N1647 C1650 1.336 . S
C1648 N1646 1.335 . S
C1648 N1647 1.345 . S
C1648 H1653 0.930 . S
C1649 N1646 1.390 . S
C1649 C1650 1.346 . S
C1649 H1654 0.930 . S
C1650 N1647 1.336 . S
C1650 C1649 1.346 . S
C1650 H1657 0.929 . S
C1651 O1641 1.282 . S
C1651 O1652 1.216 . S
O1652 C1651 1.216 . S
H1653 C1648 0.930 . S
H1654 C1649 0.930 . S
O1655 Cu1635 1.959 . S
O1655 C1642 1.251 . S
H1656 C1639 0.930 . S
H1657 C1650 0.929 . S
Cu1658 N1659 1.999 . S
Cu1658 O1664 1.974 . S
Cu1658 N1669 1.985 . S
Cu1658 O1678 1.959 . S
N1659 Cu1658 1.999 . S
N1659 C1661 1.263 . S
N1659 C1663 1.389 . S
N1660 C1661 1.358 . S
N1660 C1662 1.400 . S
C1661 N1659 1.263 . S
C1661 N1660 1.358 . S
C1661 H1667 0.930 . S
C1662 N1660 1.400 . S
C1662 C1663 1.351 . S
C1662 H1679 0.930 . S
C1663 N1659 1.389 . S
C1663 C1662 1.351 . S
C1663 H1668 0.930 . S
O1664 Cu1658 1.974 . S
O1664 C1674 1.282 . S
C1665 O1666 1.261 . S
C1665 O1678 1.251 . S
O1666 C1665 1.261 . S
H1667 C1661 0.930 . S
H1668 C1663 0.930 . S
N1669 Cu1658 1.985 . S
N1669 C1671 1.335 . S
N1669 C1672 1.390 . S
N1670 C1671 1.345 . S
N1670 C1673 1.336 . S
C1671 N1669 1.335 . S
C1671 N1670 1.345 . S
C1671 H1676 0.930 . S
C1672 N1669 1.390 . S
C1672 C1673 1.346 . S
C1672 H1677 0.930 . S
C1673 N1670 1.336 . S
C1673 C1672 1.346 . S
C1673 H1680 0.929 . S
C1674 O1664 1.282 . S
C1674 O1675 1.216 . S
O1675 C1674 1.216 . S
H1676 C1671 0.930 . S
H1677 C1672 0.930 . S
O1678 Cu1658 1.959 . S
O1678 C1665 1.251 . S
H1679 C1662 0.930 . S
H1680 C1673 0.929 . S
Cu1681 N1682 1.999 . S
Cu1681 O1687 1.974 . S
Cu1681 N1692 1.985 . S
Cu1681 O1701 1.959 . S
N1682 Cu1681 1.999 . S
N1682 C1684 1.263 . S
N1682 C1686 1.389 . S
N1683 C1684 1.358 . S
N1683 C1685 1.400 . S
C1684 N1682 1.263 . S
C1684 N1683 1.358 . S
C1684 H1690 0.930 . S
C1685 N1683 1.400 . S
C1685 C1686 1.351 . S
C1685 H1702 0.930 . S
C1686 N1682 1.389 . S
C1686 C1685 1.351 . S
C1686 H1691 0.930 . S
O1687 Cu1681 1.974 . S
O1687 C1697 1.282 . S
C1688 O1689 1.261 . S
C1688 O1701 1.251 . S
O1689 C1688 1.261 . S
H1690 C1684 0.930 . S
H1691 C1686 0.930 . S
N1692 Cu1681 1.985 . S
N1692 C1694 1.335 . S
N1692 C1695 1.390 . S
N1693 C1694 1.345 . S
N1693 C1696 1.336 . S
C1694 N1692 1.335 . S
C1694 N1693 1.345 . S
C1694 H1699 0.930 . S
C1695 N1692 1.390 . S
C1695 C1696 1.346 . S
C1695 H1700 0.930 . S
C1696 N1693 1.336 . S
C1696 C1695 1.346 . S
C1696 H1703 0.929 . S
C1697 O1687 1.282 . S
C1697 O1698 1.216 . S
O1698 C1697 1.216 . S
H1699 C1694 0.930 . S
H1700 C1695 0.930 . S
O1701 Cu1681 1.959 . S
O1701 C1688 1.251 . S
H1702 C1685 0.930 . S
H1703 C1696 0.929 . S
H1704 C1710 0.930 . S
H1705 C1713 0.930 . S
H1706 C1714 0.930 . S
H1707 C1715 0.930 . S
H1708 C1718 0.930 . S
H1709 C1719 0.930 . S
C1710 H1704 0.930 . S
C1710 C1711 1.355 . S
C1710 C1712 1.415 . S
C1711 C1710 1.355 . S
C1711 C1713 1.419 . S
C1712 C1710 1.415 . S
C1712 C1717 1.425 . S
C1712 C1719 1.409 . S
C1713 H1705 0.930 . S
C1713 C1711 1.419 . S
C1713 C1714 1.362 . S
C1714 H1706 0.930 . S
C1714 C1713 1.362 . S
C1714 C1717 1.409 . S
C1715 H1707 0.930 . S
C1715 C1716 1.355 . S
C1715 C1717 1.415 . S
C1716 C1715 1.355 . S
C1716 C1718 1.419 . S
C1717 C1712 1.425 . S
C1717 C1714 1.409 . S
C1717 C1715 1.415 . S
C1718 H1708 0.930 . S
C1718 C1716 1.419 . S
C1718 C1719 1.362 . S
C1719 H1709 0.930 . S
C1719 C1712 1.409 . S
C1719 C1718 1.362 . S
H1720 C1726 0.930 . S
H1721 C1729 0.930 . S
H1722 C1730 0.930 . S
H1723 C1731 0.930 . S
H1724 C1734 0.930 . S
H1725 C1735 0.930 . S
C1726 H1720 0.930 . S
C1726 C1727 1.355 . S
C1726 C1728 1.415 . S
C1727 C1726 1.355 . S
C1727 C1729 1.419 . S
C1728 C1726 1.415 . S
C1728 C1733 1.425 . S
C1728 C1735 1.409 . S
C1729 H1721 0.930 . S
C1729 C1727 1.419 . S
C1729 C1730 1.362 . S
C1730 H1722 0.930 . S
C1730 C1729 1.362 . S
C1730 C1733 1.409 . S
C1731 H1723 0.930 . S
C1731 C1732 1.355 . S
C1731 C1733 1.415 . S
C1732 C1731 1.355 . S
C1732 C1734 1.419 . S
C1733 C1728 1.425 . S
C1733 C1730 1.409 . S
C1733 C1731 1.415 . S
C1734 H1724 0.930 . S
C1734 C1732 1.419 . S
C1734 C1735 1.362 . S
C1735 H1725 0.930 . S
C1735 C1728 1.409 . S
C1735 C1734 1.362 . S
H1736 C1742 0.930 . S
H1737 C1745 0.930 . S
H1738 C1746 0.930 . S
H1739 C1747 0.930 . S
H1740 C1750 0.930 . S
H1741 C1751 0.930 . S
C1742 H1736 0.930 . S
C1742 C1743 1.355 . S
C1742 C1744 1.415 . S
C1743 C1742 1.355 . S
C1743 C1745 1.419 . S
C1744 C1742 1.415 . S
C1744 C1749 1.425 . S
C1744 C1751 1.409 . S
C1745 H1737 0.930 . S
C1745 C1743 1.419 . S
C1745 C1746 1.362 . S
C1746 H1738 0.930 . S
C1746 C1745 1.362 . S
C1746 C1749 1.409 . S
C1747 H1739 0.930 . S
C1747 C1748 1.355 . S
C1747 C1749 1.415 . S
C1748 C1747 1.355 . S
C1748 C1750 1.419 . S
C1749 C1744 1.425 . S
C1749 C1746 1.409 . S
C1749 C1747 1.415 . S
C1750 H1740 0.930 . S
C1750 C1748 1.419 . S
C1750 C1751 1.362 . S
C1751 H1741 0.930 . S
C1751 C1744 1.409 . S
C1751 C1750 1.362 . S
H1752 C1758 0.930 . S
H1753 C1761 0.930 . S
H1754 C1762 0.930 . S
H1755 C1763 0.930 . S
H1756 C1766 0.930 . S
H1757 C1767 0.930 . S
C1758 H1752 0.930 . S
C1758 C1759 1.355 . S
C1758 C1760 1.415 . S
C1759 C1758 1.355 . S
C1759 C1761 1.419 . S
C1760 C1758 1.415 . S
C1760 C1765 1.425 . S
C1760 C1767 1.409 . S
C1761 H1753 0.930 . S
C1761 C1759 1.419 . S
C1761 C1762 1.362 . S
C1762 H1754 0.930 . S
C1762 C1761 1.362 . S
C1762 C1765 1.409 . S
C1763 H1755 0.930 . S
C1763 C1764 1.355 . S
C1763 C1765 1.415 . S
C1764 C1763 1.355 . S
C1764 C1766 1.419 . S
C1765 C1760 1.425 . S
C1765 C1762 1.409 . S
C1765 C1763 1.415 . S
C1766 H1756 0.930 . S
C1766 C1764 1.419 . S
C1766 C1767 1.362 . S
C1767 H1757 0.930 . S
C1767 C1760 1.409 . S
C1767 C1766 1.362 . S
H1768 C1774 0.930 . S
H1769 C1777 0.930 . S
H1770 C1778 0.930 . S
H1771 C1779 0.930 . S
H1772 C1782 0.930 . S
H1773 C1783 0.930 . S
C1774 H1768 0.930 . S
C1774 C1775 1.355 . S
C1774 C1776 1.415 . S
C1775 C1774 1.355 . S
C1775 C1777 1.419 . S
C1776 C1774 1.415 . S
C1776 C1781 1.425 . S
C1776 C1783 1.409 . S
C1777 H1769 0.930 . S
C1777 C1775 1.419 . S
C1777 C1778 1.362 . S
C1778 H1770 0.930 . S
C1778 C1777 1.362 . S
C1778 C1781 1.409 . S
C1779 H1771 0.930 . S
C1779 C1780 1.355 . S
C1779 C1781 1.415 . S
C1780 C1779 1.355 . S
C1780 C1782 1.419 . S
C1781 C1776 1.425 . S
C1781 C1778 1.409 . S
C1781 C1779 1.415 . S
C1782 H1772 0.930 . S
C1782 C1780 1.419 . S
C1782 C1783 1.362 . S
C1783 H1773 0.930 . S
C1783 C1776 1.409 . S
C1783 C1782 1.362 . S
H1784 C1790 0.930 . S
H1785 C1793 0.930 . S
H1786 C1794 0.930 . S
H1787 C1795 0.930 . S
H1788 C1798 0.930 . S
H1789 C1799 0.930 . S
C1790 H1784 0.930 . S
C1790 C1791 1.355 . S
C1790 C1792 1.415 . S
C1791 C1790 1.355 . S
C1791 C1793 1.419 . S
C1792 C1790 1.415 . S
C1792 C1797 1.425 . S
C1792 C1799 1.409 . S
C1793 H1785 0.930 . S
C1793 C1791 1.419 . S
C1793 C1794 1.362 . S
C1794 H1786 0.930 . S
C1794 C1793 1.362 . S
C1794 C1797 1.409 . S
C1795 H1787 0.930 . S
C1795 C1796 1.355 . S
C1795 C1797 1.415 . S
C1796 C1795 1.355 . S
C1796 C1798 1.419 . S
C1797 C1792 1.425 . S
C1797 C1794 1.409 . S
C1797 C1795 1.415 . S
C1798 H1788 0.930 . S
C1798 C1796 1.419 . S
C1798 C1799 1.362 . S
C1799 H1789 0.930 . S
C1799 C1792 1.409 . S
C1799 C1798 1.362 . S
H1800 C1806 0.930 . S
H1801 C1809 0.930 . S
H1802 C1810 0.930 . S
H1803 C1811 0.930 . S
H1804 C1814 0.930 . S
H1805 C1815 0.930 . S
C1806 H1800 0.930 . S
C1806 C1807 1.355 . S
C1806 C1808 1.415 . S
C1807 C1806 1.355 . S
C1807 C1809 1.419 . S
C1808 C1806 1.415 . S
C1808 C1813 1.425 . S
C1808 C1815 1.409 . S
C1809 H1801 0.930 . S
C1809 C1807 1.419 . S
C1809 C1810 1.362 . S
C1810 H1802 0.930 . S
C1810 C1809 1.362 . S
C1810 C1813 1.409 . S
C1811 H1803 0.930 . S
C1811 C1812 1.355 . S
C1811 C1813 1.415 . S
C1812 C1811 1.355 . S
C1812 C1814 1.419 . S
C1813 C1808 1.425 . S
C1813 C1810 1.409 . S
C1813 C1811 1.415 . S
C1814 H1804 0.930 . S
C1814 C1812 1.419 . S
C1814 C1815 1.362 . S
C1815 H1805 0.930 . S
C1815 C1808 1.409 . S
C1815 C1814 1.362 . S
H1816 C1822 0.930 . S
H1817 C1825 0.930 . S
H1818 C1826 0.930 . S
H1819 C1827 0.930 . S
H1820 C1830 0.930 . S
H1821 C1831 0.930 . S
C1822 H1816 0.930 . S
C1822 C1823 1.355 . S
C1822 C1824 1.415 . S
C1823 C1822 1.355 . S
C1823 C1825 1.419 . S
C1824 C1822 1.415 . S
C1824 C1829 1.425 . S
C1824 C1831 1.409 . S
C1825 H1817 0.930 . S
C1825 C1823 1.419 . S
C1825 C1826 1.362 . S
C1826 H1818 0.930 . S
C1826 C1825 1.362 . S
C1826 C1829 1.409 . S
C1827 H1819 0.930 . S
C1827 C1828 1.355 . S
C1827 C1829 1.415 . S
C1828 C1827 1.355 . S
C1828 C1830 1.419 . S
C1829 C1824 1.425 . S
C1829 C1826 1.409 . S
C1829 C1827 1.415 . S
C1830 H1820 0.930 . S
C1830 C1828 1.419 . S
C1830 C1831 1.362 . S
C1831 H1821 0.930 . S
C1831 C1824 1.409 . S
C1831 C1830 1.362 . S
H1832 C1838 0.930 . S
H1833 C1841 0.930 . S
H1834 C1842 0.930 . S
H1835 C1843 0.930 . S
H1836 C1846 0.930 . S
H1837 C1847 0.930 . S
C1838 H1832 0.930 . S
C1838 C1839 1.355 . S
C1838 C1840 1.415 . S
C1839 C1838 1.355 . S
C1839 C1841 1.419 . S
C1840 C1838 1.415 . S
C1840 C1845 1.425 . S
C1840 C1847 1.409 . S
C1841 H1833 0.930 . S
C1841 C1839 1.419 . S
C1841 C1842 1.362 . S
C1842 H1834 0.930 . S
C1842 C1841 1.362 . S
C1842 C1845 1.409 . S
C1843 H1835 0.930 . S
C1843 C1844 1.355 . S
C1843 C1845 1.415 . S
C1844 C1843 1.355 . S
C1844 C1846 1.419 . S
C1845 C1840 1.425 . S
C1845 C1842 1.409 . S
C1845 C1843 1.415 . S
C1846 H1836 0.930 . S
C1846 C1844 1.419 . S
C1846 C1847 1.362 . S
C1847 H1837 0.930 . S
C1847 C1840 1.409 . S
C1847 C1846 1.362 . S
H1848 C1854 0.930 . S
H1849 C1857 0.930 . S
H1850 C1858 0.930 . S
H1851 C1859 0.930 . S
H1852 C1862 0.930 . S
H1853 C1863 0.930 . S
C1854 H1848 0.930 . S
C1854 C1855 1.355 . S
C1854 C1856 1.415 . S
C1855 C1854 1.355 . S
C1855 C1857 1.419 . S
C1856 C1854 1.415 . S
C1856 C1861 1.425 . S
C1856 C1863 1.409 . S
C1857 H1849 0.930 . S
C1857 C1855 1.419 . S
C1857 C1858 1.362 . S
C1858 H1850 0.930 . S
C1858 C1857 1.362 . S
C1858 C1861 1.409 . S
C1859 H1851 0.930 . S
C1859 C1860 1.355 . S
C1859 C1861 1.415 . S
C1860 C1859 1.355 . S
C1860 C1862 1.419 . S
C1861 C1856 1.425 . S
C1861 C1858 1.409 . S
C1861 C1859 1.415 . S
C1862 H1852 0.930 . S
C1862 C1860 1.419 . S
C1862 C1863 1.362 . S
C1863 H1853 0.930 . S
C1863 C1856 1.409 . S
C1863 C1862 1.362 . S
H1864 C1870 0.930 . S
H1865 C1873 0.930 . S
H1866 C1874 0.930 . S
H1867 C1875 0.930 . S
H1868 C1878 0.930 . S
H1869 C1879 0.930 . S
C1870 H1864 0.930 . S
C1870 C1871 1.355 . S
C1870 C1872 1.415 . S
C1871 C1870 1.355 . S
C1871 C1873 1.419 . S
C1872 C1870 1.415 . S
C1872 C1877 1.425 . S
C1872 C1879 1.409 . S
C1873 H1865 0.930 . S
C1873 C1871 1.419 . S
C1873 C1874 1.362 . S
C1874 H1866 0.930 . S
C1874 C1873 1.362 . S
C1874 C1877 1.409 . S
C1875 H1867 0.930 . S
C1875 C1876 1.355 . S
C1875 C1877 1.415 . S
C1876 C1875 1.355 . S
C1876 C1878 1.419 . S
C1877 C1872 1.425 . S
C1877 C1874 1.409 . S
C1877 C1875 1.415 . S
C1878 H1868 0.930 . S
C1878 C1876 1.419 . S
C1878 C1879 1.362 . S
C1879 H1869 0.930 . S
C1879 C1872 1.409 . S
C1879 C1878 1.362 . S
H1880 C1886 0.930 . S
H1881 C1889 0.930 . S
H1882 C1890 0.930 . S
H1883 C1891 0.930 . S
H1884 C1894 0.930 . S
H1885 C1895 0.930 . S
C1886 H1880 0.930 . S
C1886 C1887 1.355 . S
C1886 C1888 1.415 . S
C1887 C1886 1.355 . S
C1887 C1889 1.419 . S
C1888 C1886 1.415 . S
C1888 C1893 1.425 . S
C1888 C1895 1.409 . S
C1889 H1881 0.930 . S
C1889 C1887 1.419 . S
C1889 C1890 1.362 . S
C1890 H1882 0.930 . S
C1890 C1889 1.362 . S
C1890 C1893 1.409 . S
C1891 H1883 0.930 . S
C1891 C1892 1.355 . S
C1891 C1893 1.415 . S
C1892 C1891 1.355 . S
C1892 C1894 1.419 . S
C1893 C1888 1.425 . S
C1893 C1890 1.409 . S
C1893 C1891 1.415 . S
C1894 H1884 0.930 . S
C1894 C1892 1.419 . S
C1894 C1895 1.362 . S
C1895 H1885 0.930 . S
C1895 C1888 1.409 . S
C1895 C1894 1.362 . S
H1896 C1902 0.930 . S
H1897 C1905 0.930 . S
H1898 C1906 0.930 . S
H1899 C1907 0.930 . S
H1900 C1910 0.930 . S
H1901 C1911 0.930 . S
C1902 H1896 0.930 . S
C1902 C1903 1.355 . S
C1902 C1904 1.415 . S
C1903 C1902 1.355 . S
C1903 C1905 1.419 . S
C1904 C1902 1.415 . S
C1904 C1909 1.425 . S
C1904 C1911 1.409 . S
C1905 H1897 0.930 . S
C1905 C1903 1.419 . S
C1905 C1906 1.362 . S
C1906 H1898 0.930 . S
C1906 C1905 1.362 . S
C1906 C1909 1.409 . S
C1907 H1899 0.930 . S
C1907 C1908 1.355 . S
C1907 C1909 1.415 . S
C1908 C1907 1.355 . S
C1908 C1910 1.419 . S
C1909 C1904 1.425 . S
C1909 C1906 1.409 . S
C1909 C1907 1.415 . S
C1910 H1900 0.930 . S
C1910 C1908 1.419 . S
C1910 C1911 1.362 . S
C1911 H1901 0.930 . S
C1911 C1904 1.409 . S
C1911 C1910 1.362 . S
H1912 C1918 0.930 . S
H1913 C1921 0.930 . S
H1914 C1922 0.930 . S
H1915 C1923 0.930 . S
H1916 C1926 0.930 . S
H1917 C1927 0.930 . S
C1918 H1912 0.930 . S
C1918 C1919 1.355 . S
C1918 C1920 1.415 . S
C1919 C1918 1.355 . S
C1919 C1921 1.419 . S
C1920 C1918 1.415 . S
C1920 C1925 1.425 . S
C1920 C1927 1.409 . S
C1921 H1913 0.930 . S
C1921 C1919 1.419 . S
C1921 C1922 1.362 . S
C1922 H1914 0.930 . S
C1922 C1921 1.362 . S
C1922 C1925 1.409 . S
C1923 H1915 0.930 . S
C1923 C1924 1.355 . S
C1923 C1925 1.415 . S
C1924 C1923 1.355 . S
C1924 C1926 1.419 . S
C1925 C1920 1.425 . S
C1925 C1922 1.409 . S
C1925 C1923 1.415 . S
C1926 H1916 0.930 . S
C1926 C1924 1.419 . S
C1926 C1927 1.362 . S
C1927 H1917 0.930 . S
C1927 C1920 1.409 . S
C1927 C1926 1.362 . S
H1928 C1934 0.930 . S
H1929 C1937 0.930 . S
H1930 C1938 0.930 . S
H1931 C1939 0.930 . S
H1932 C1942 0.930 . S
H1933 C1943 0.930 . S
C1934 H1928 0.930 . S
C1934 C1935 1.355 . S
C1934 C1936 1.415 . S
C1935 C1934 1.355 . S
C1935 C1937 1.419 . S
C1936 C1934 1.415 . S
C1936 C1941 1.425 . S
C1936 C1943 1.409 . S
C1937 H1929 0.930 . S
C1937 C1935 1.419 . S
C1937 C1938 1.362 . S
C1938 H1930 0.930 . S
C1938 C1937 1.362 . S
C1938 C1941 1.409 . S
C1939 H1931 0.930 . S
C1939 C1940 1.355 . S
C1939 C1941 1.415 . S
C1940 C1939 1.355 . S
C1940 C1942 1.419 . S
C1941 C1936 1.425 . S
C1941 C1938 1.409 . S
C1941 C1939 1.415 . S
C1942 H1932 0.930 . S
C1942 C1940 1.419 . S
C1942 C1943 1.362 . S
C1943 H1933 0.930 . S
C1943 C1936 1.409 . S
C1943 C1942 1.362 . S
H1944 C1950 0.930 . S
H1945 C1953 0.930 . S
H1946 C1954 0.930 . S
H1947 C1955 0.930 . S
H1948 C1958 0.930 . S
H1949 C1959 0.930 . S
C1950 H1944 0.930 . S
C1950 C1951 1.355 . S
C1950 C1952 1.415 . S
C1951 C1950 1.355 . S
C1951 C1953 1.419 . S
C1952 C1950 1.415 . S
C1952 C1957 1.425 . S
C1952 C1959 1.409 . S
C1953 H1945 0.930 . S
C1953 C1951 1.419 . S
C1953 C1954 1.362 . S
C1954 H1946 0.930 . S
C1954 C1953 1.362 . S
C1954 C1957 1.409 . S
C1955 H1947 0.930 . S
C1955 C1956 1.355 . S
C1955 C1957 1.415 . S
C1956 C1955 1.355 . S
C1956 C1958 1.419 . S
C1957 C1952 1.425 . S
C1957 C1954 1.409 . S
C1957 C1955 1.415 . S
C1958 H1948 0.930 . S
C1958 C1956 1.419 . S
C1958 C1959 1.362 . S
C1959 H1949 0.930 . S
C1959 C1952 1.409 . S
C1959 C1958 1.362 . S
H1960 C1966 0.930 . S
H1961 C1969 0.930 . S
H1962 C1970 0.930 . S
H1963 C1971 0.930 . S
H1964 C1974 0.930 . S
H1965 C1975 0.930 . S
C1966 H1960 0.930 . S
C1966 C1967 1.355 . S
C1966 C1968 1.415 . S
C1967 C1966 1.355 . S
C1967 C1969 1.419 . S
C1968 C1966 1.415 . S
C1968 C1973 1.425 . S
C1968 C1975 1.409 . S
C1969 H1961 0.930 . S
C1969 C1967 1.419 . S
C1969 C1970 1.362 . S
C1970 H1962 0.930 . S
C1970 C1969 1.362 . S
C1970 C1973 1.409 . S
C1971 H1963 0.930 . S
C1971 C1972 1.355 . S
C1971 C1973 1.415 . S
C1972 C1971 1.355 . S
C1972 C1974 1.419 . S
C1973 C1968 1.425 . S
C1973 C1970 1.409 . S
C1973 C1971 1.415 . S
C1974 H1964 0.930 . S
C1974 C1972 1.419 . S
C1974 C1975 1.362 . S
C1975 H1965 0.930 . S
C1975 C1968 1.409 . S
C1975 C1974 1.362 . S
H1976 C1982 0.930 . S
H1977 C1985 0.930 . S
H1978 C1986 0.930 . S
H1979 C1987 0.930 . S
H1980 C1990 0.930 . S
H1981 C1991 0.930 . S
C1982 H1976 0.930 . S
C1982 C1983 1.355 . S
C1982 C1984 1.415 . S
C1983 C1982 1.355 . S
C1983 C1985 1.419 . S
C1984 C1982 1.415 . S
C1984 C1989 1.425 . S
C1984 C1991 1.409 . S
C1985 H1977 0.930 . S
C1985 C1983 1.419 . S
C1985 C1986 1.362 . S
C1986 H1978 0.930 . S
C1986 C1985 1.362 . S
C1986 C1989 1.409 . S
C1987 H1979 0.930 . S
C1987 C1988 1.355 . S
C1987 C1989 1.415 . S
C1988 C1987 1.355 . S
C1988 C1990 1.419 . S
C1989 C1984 1.425 . S
C1989 C1986 1.409 . S
C1989 C1987 1.415 . S
C1990 H1980 0.930 . S
C1990 C1988 1.419 . S
C1990 C1991 1.362 . S
C1991 H1981 0.930 . S
C1991 C1984 1.409 . S
C1991 C1990 1.362 . S
H1992 C1998 0.930 . S
H1993 C2001 0.930 . S
H1994 C2002 0.930 . S
H1995 C2003 0.930 . S
H1996 C2006 0.930 . S
H1997 C2007 0.930 . S
C1998 H1992 0.930 . S
C1998 C1999 1.355 . S
C1998 C2000 1.415 . S
C1999 C1998 1.355 . S
C1999 C2001 1.419 . S
C2000 C1998 1.415 . S
C2000 C2005 1.425 . S
C2000 C2007 1.409 . S
C2001 H1993 0.930 . S
C2001 C1999 1.419 . S
C2001 C2002 1.362 . S
C2002 H1994 0.930 . S
C2002 C2001 1.362 . S
C2002 C2005 1.409 . S
C2003 H1995 0.930 . S
C2003 C2004 1.355 . S
C2003 C2005 1.415 . S
C2004 C2003 1.355 . S
C2004 C2006 1.419 . S
C2005 C2000 1.425 . S
C2005 C2002 1.409 . S
C2005 C2003 1.415 . S
C2006 H1996 0.930 . S
C2006 C2004 1.419 . S
C2006 C2007 1.362 . S
C2007 H1997 0.930 . S
C2007 C2000 1.409 . S
C2007 C2006 1.362 . S
H2008 C2014 0.930 . S
H2009 C2017 0.930 . S
H2010 C2018 0.930 . S
H2011 C2019 0.930 . S
H2012 C2022 0.930 . S
H2013 C2023 0.930 . S
C2014 H2008 0.930 . S
C2014 C2015 1.355 . S
C2014 C2016 1.415 . S
C2015 C2014 1.355 . S
C2015 C2017 1.419 . S
C2016 C2014 1.415 . S
C2016 C2021 1.425 . S
C2016 C2023 1.409 . S
C2017 H2009 0.930 . S
C2017 C2015 1.419 . S
C2017 C2018 1.362 . S
C2018 H2010 0.930 . S
C2018 C2017 1.362 . S
C2018 C2021 1.409 . S
C2019 H2011 0.930 . S
C2019 C2020 1.355 . S
C2019 C2021 1.415 . S
C2020 C2019 1.355 . S
C2020 C2022 1.419 . S
C2021 C2016 1.425 . S
C2021 C2018 1.409 . S
C2021 C2019 1.415 . S
C2022 H2012 0.930 . S
C2022 C2020 1.419 . S
C2022 C2023 1.362 . S
C2023 H2013 0.930 . S
C2023 C2016 1.409 . S
C2023 C2022 1.362 . S
H2024 C2030 0.930 . S
H2025 C2033 0.930 . S
H2026 C2034 0.930 . S
H2027 C2035 0.930 . S
H2028 C2038 0.930 . S
H2029 C2039 0.930 . S
C2030 H2024 0.930 . S
C2030 C2031 1.355 . S
C2030 C2032 1.415 . S
C2031 C2030 1.355 . S
C2031 C2033 1.419 . S
C2032 C2030 1.415 . S
C2032 C2037 1.425 . S
C2032 C2039 1.409 . S
C2033 H2025 0.930 . S
C2033 C2031 1.419 . S
C2033 C2034 1.362 . S
C2034 H2026 0.930 . S
C2034 C2033 1.362 . S
C2034 C2037 1.409 . S
C2035 H2027 0.930 . S
C2035 C2036 1.355 . S
C2035 C2037 1.415 . S
C2036 C2035 1.355 . S
C2036 C2038 1.419 . S
C2037 C2032 1.425 . S
C2037 C2034 1.409 . S
C2037 C2035 1.415 . S
C2038 H2028 0.930 . S
C2038 C2036 1.419 . S
C2038 C2039 1.362 . S
C2039 H2029 0.930 . S
C2039 C2032 1.409 . S
C2039 C2038 1.362 . S
H2040 C2046 0.930 . S
H2041 C2049 0.930 . S
H2042 C2050 0.930 . S
H2043 C2051 0.930 . S
H2044 C2054 0.930 . S
H2045 C2055 0.930 . S
C2046 H2040 0.930 . S
C2046 C2047 1.355 . S
C2046 C2048 1.415 . S
C2047 C2046 1.355 . S
C2047 C2049 1.419 . S
C2048 C2046 1.415 . S
C2048 C2053 1.425 . S
C2048 C2055 1.409 . S
C2049 H2041 0.930 . S
C2049 C2047 1.419 . S
C2049 C2050 1.362 . S
C2050 H2042 0.930 . S
C2050 C2049 1.362 . S
C2050 C2053 1.409 . S
C2051 H2043 0.930 . S
C2051 C2052 1.355 . S
C2051 C2053 1.415 . S
C2052 C2051 1.355 . S
C2052 C2054 1.419 . S
C2053 C2048 1.425 . S
C2053 C2050 1.409 . S
C2053 C2051 1.415 . S
C2054 H2044 0.930 . S
C2054 C2052 1.419 . S
C2054 C2055 1.362 . S
C2055 H2045 0.930 . S
C2055 C2048 1.409 . S
C2055 C2054 1.362 . S
H2056 C2062 0.930 . S
H2057 C2065 0.930 . S
H2058 C2066 0.930 . S
H2059 C2067 0.930 . S
H2060 C2070 0.930 . S
H2061 C2071 0.930 . S
C2062 H2056 0.930 . S
C2062 C2063 1.355 . S
C2062 C2064 1.415 . S
C2063 C2062 1.355 . S
C2063 C2065 1.419 . S
C2064 C2062 1.415 . S
C2064 C2069 1.425 . S
C2064 C2071 1.409 . S
C2065 H2057 0.930 . S
C2065 C2063 1.419 . S
C2065 C2066 1.362 . S
C2066 H2058 0.930 . S
C2066 C2065 1.362 . S
C2066 C2069 1.409 . S
C2067 H2059 0.930 . S
C2067 C2068 1.355 . S
C2067 C2069 1.415 . S
C2068 C2067 1.355 . S
C2068 C2070 1.419 . S
C2069 C2064 1.425 . S
C2069 C2066 1.409 . S
C2069 C2067 1.415 . S
C2070 H2060 0.930 . S
C2070 C2068 1.419 . S
C2070 C2071 1.362 . S
C2071 H2061 0.930 . S
C2071 C2064 1.409 . S
C2071 C2070 1.362 . S
H2072 C2078 0.930 . S
H2073 C2081 0.930 . S
H2074 C2082 0.930 . S
H2075 C2083 0.930 . S
H2076 C2086 0.930 . S
H2077 C2087 0.930 . S
C2078 H2072 0.930 . S
C2078 C2079 1.355 . S
C2078 C2080 1.415 . S
C2079 C2078 1.355 . S
C2079 C2081 1.419 . S
C2080 C2078 1.415 . S
C2080 C2085 1.425 . S
C2080 C2087 1.409 . S
C2081 H2073 0.930 . S
C2081 C2079 1.419 . S
C2081 C2082 1.362 . S
C2082 H2074 0.930 . S
C2082 C2081 1.362 . S
C2082 C2085 1.409 . S
C2083 H2075 0.930 . S
C2083 C2084 1.355 . S
C2083 C2085 1.415 . S
C2084 C2083 1.355 . S
C2084 C2086 1.419 . S
C2085 C2080 1.425 . S
C2085 C2082 1.409 . S
C2085 C2083 1.415 . S
C2086 H2076 0.930 . S
C2086 C2084 1.419 . S
C2086 C2087 1.362 . S
C2087 H2077 0.930 . S
C2087 C2080 1.409 . S
C2087 C2086 1.362 . S
H2088 C2094 0.930 . S
H2089 C2097 0.930 . S
H2090 C2098 0.930 . S
H2091 C2099 0.930 . S
H2092 C2102 0.930 . S
H2093 C2103 0.930 . S
C2094 H2088 0.930 . S
C2094 C2095 1.355 . S
C2094 C2096 1.415 . S
C2095 C2094 1.355 . S
C2095 C2097 1.419 . S
C2096 C2094 1.415 . S
C2096 C2101 1.425 . S
C2096 C2103 1.409 . S
C2097 H2089 0.930 . S
C2097 C2095 1.419 . S
C2097 C2098 1.362 . S
C2098 H2090 0.930 . S
C2098 C2097 1.362 . S
C2098 C2101 1.409 . S
C2099 H2091 0.930 . S
C2099 C2100 1.355 . S
C2099 C2101 1.415 . S
C2100 C2099 1.355 . S
C2100 C2102 1.419 . S
C2101 C2096 1.425 . S
C2101 C2098 1.409 . S
C2101 C2099 1.415 . S
C2102 H2092 0.930 . S
C2102 C2100 1.419 . S
C2102 C2103 1.362 . S
C2103 H2093 0.930 . S
C2103 C2096 1.409 . S
C2103 C2102 1.362 . S
H2104 C2110 0.930 . S
H2105 C2113 0.930 . S
H2106 C2114 0.930 . S
H2107 C2115 0.930 . S
H2108 C2118 0.930 . S
H2109 C2119 0.930 . S
C2110 H2104 0.930 . S
C2110 C2111 1.355 . S
C2110 C2112 1.415 . S
C2111 C2110 1.355 . S
C2111 C2113 1.419 . S
C2112 C2110 1.415 . S
C2112 C2117 1.425 . S
C2112 C2119 1.409 . S
C2113 H2105 0.930 . S
C2113 C2111 1.419 . S
C2113 C2114 1.362 . S
C2114 H2106 0.930 . S
C2114 C2113 1.362 . S
C2114 C2117 1.409 . S
C2115 H2107 0.930 . S
C2115 C2116 1.355 . S
C2115 C2117 1.415 . S
C2116 C2115 1.355 . S
C2116 C2118 1.419 . S
C2117 C2112 1.425 . S
C2117 C2114 1.409 . S
C2117 C2115 1.415 . S
C2118 H2108 0.930 . S
C2118 C2116 1.419 . S
C2118 C2119 1.362 . S
C2119 H2109 0.930 . S
C2119 C2112 1.409 . S
C2119 C2118 1.362 . S
H2120 C2126 0.930 . S
H2121 C2129 0.930 . S
H2122 C2130 0.930 . S
H2123 C2131 0.930 . S
H2124 C2134 0.930 . S
H2125 C2135 0.930 . S
C2126 H2120 0.930 . S
C2126 C2127 1.355 . S
C2126 C2128 1.415 . S
C2127 C2126 1.355 . S
C2127 C2129 1.419 . S
C2128 C2126 1.415 . S
C2128 C2133 1.425 . S
C2128 C2135 1.409 . S
C2129 H2121 0.930 . S
C2129 C2127 1.419 . S
C2129 C2130 1.362 . S
C2130 H2122 0.930 . S
C2130 C2129 1.362 . S
C2130 C2133 1.409 . S
C2131 H2123 0.930 . S
C2131 C2132 1.355 . S
C2131 C2133 1.415 . S
C2132 C2131 1.355 . S
C2132 C2134 1.419 . S
C2133 C2128 1.425 . S
C2133 C2130 1.409 . S
C2133 C2131 1.415 . S
C2134 H2124 0.930 . S
C2134 C2132 1.419 . S
C2134 C2135 1.362 . S
C2135 H2125 0.930 . S
C2135 C2128 1.409 . S
C2135 C2134 1.362 . S
H2136 C2142 0.930 . S
H2137 C2145 0.930 . S
H2138 C2146 0.930 . S
H2139 C2147 0.930 . S
H2140 C2150 0.930 . S
H2141 C2151 0.930 . S
C2142 H2136 0.930 . S
C2142 C2143 1.355 . S
C2142 C2144 1.415 . S
C2143 C2142 1.355 . S
C2143 C2145 1.419 . S
C2144 C2142 1.415 . S
C2144 C2149 1.425 . S
C2144 C2151 1.409 . S
C2145 H2137 0.930 . S
C2145 C2143 1.419 . S
C2145 C2146 1.362 . S
C2146 H2138 0.930 . S
C2146 C2145 1.362 . S
C2146 C2149 1.409 . S
C2147 H2139 0.930 . S
C2147 C2148 1.355 . S
C2147 C2149 1.415 . S
C2148 C2147 1.355 . S
C2148 C2150 1.419 . S
C2149 C2144 1.425 . S
C2149 C2146 1.409 . S
C2149 C2147 1.415 . S
C2150 H2140 0.930 . S
C2150 C2148 1.419 . S
C2150 C2151 1.362 . S
C2151 H2141 0.930 . S
C2151 C2144 1.409 . S
C2151 C2150 1.362 . S
H2152 C2158 0.930 . S
H2153 C2161 0.930 . S
H2154 C2162 0.930 . S
H2155 C2163 0.930 . S
H2156 C2166 0.930 . S
H2157 C2167 0.930 . S
C2158 H2152 0.930 . S
C2158 C2159 1.355 . S
C2158 C2160 1.415 . S
C2159 C2158 1.355 . S
C2159 C2161 1.419 . S
C2160 C2158 1.415 . S
C2160 C2165 1.425 . S
C2160 C2167 1.409 . S
C2161 H2153 0.930 . S
C2161 C2159 1.419 . S
C2161 C2162 1.362 . S
C2162 H2154 0.930 . S
C2162 C2161 1.362 . S
C2162 C2165 1.409 . S
C2163 H2155 0.930 . S
C2163 C2164 1.355 . S
C2163 C2165 1.415 . S
C2164 C2163 1.355 . S
C2164 C2166 1.419 . S
C2165 C2160 1.425 . S
C2165 C2162 1.409 . S
C2165 C2163 1.415 . S
C2166 H2156 0.930 . S
C2166 C2164 1.419 . S
C2166 C2167 1.362 . S
C2167 H2157 0.930 . S
C2167 C2160 1.409 . S
C2167 C2166 1.362 . S
H2168 C2174 0.930 . S
H2169 C2177 0.930 . S
H2170 C2178 0.930 . S
H2171 C2179 0.930 . S
H2172 C2182 0.930 . S
H2173 C2183 0.930 . S
C2174 H2168 0.930 . S
C2174 C2175 1.355 . S
C2174 C2176 1.415 . S
C2175 C2174 1.355 . S
C2175 C2177 1.419 . S
C2176 C2174 1.415 . S
C2176 C2181 1.425 . S
C2176 C2183 1.409 . S
C2177 H2169 0.930 . S
C2177 C2175 1.419 . S
C2177 C2178 1.362 . S
C2178 H2170 0.930 . S
C2178 C2177 1.362 . S
C2178 C2181 1.409 . S
C2179 H2171 0.930 . S
C2179 C2180 1.355 . S
C2179 C2181 1.415 . S
C2180 C2179 1.355 . S
C2180 C2182 1.419 . S
C2181 C2176 1.425 . S
C2181 C2178 1.409 . S
C2181 C2179 1.415 . S
C2182 H2172 0.930 . S
C2182 C2180 1.419 . S
C2182 C2183 1.362 . S
C2183 H2173 0.930 . S
C2183 C2176 1.409 . S
C2183 C2182 1.362 . S
H2184 C2190 0.930 . S
H2185 C2193 0.930 . S
H2186 C2194 0.930 . S
H2187 C2195 0.930 . S
H2188 C2198 0.930 . S
H2189 C2199 0.930 . S
C2190 H2184 0.930 . S
C2190 C2191 1.355 . S
C2190 C2192 1.415 . S
C2191 C2190 1.355 . S
C2191 C2193 1.419 . S
C2192 C2190 1.415 . S
C2192 C2197 1.425 . S
C2192 C2199 1.409 . S
C2193 H2185 0.930 . S
C2193 C2191 1.419 . S
C2193 C2194 1.362 . S
C2194 H2186 0.930 . S
C2194 C2193 1.362 . S
C2194 C2197 1.409 . S
C2195 H2187 0.930 . S
C2195 C2196 1.355 . S
C2195 C2197 1.415 . S
C2196 C2195 1.355 . S
C2196 C2198 1.419 . S
C2197 C2192 1.425 . S
C2197 C2194 1.409 . S
C2197 C2195 1.415 . S
C2198 H2188 0.930 . S
C2198 C2196 1.419 . S
C2198 C2199 1.362 . S
C2199 H2189 0.930 . S
C2199 C2192 1.409 . S
C2199 C2198 1.362 . S
H2200 C2206 0.930 . S
H2201 C2209 0.930 . S
H2202 C2210 0.930 . S
H2203 C2211 0.930 . S
H2204 C2214 0.930 . S
H2205 C2215 0.930 . S
C2206 H2200 0.930 . S
C2206 C2207 1.355 . S
C2206 C2208 1.415 . S
C2207 C2206 1.355 . S
C2207 C2209 1.419 . S
C2208 C2206 1.415 . S
C2208 C2213 1.425 . S
C2208 C2215 1.409 . S
C2209 H2201 0.930 . S
C2209 C2207 1.419 . S
C2209 C2210 1.362 . S
C2210 H2202 0.930 . S
C2210 C2209 1.362 . S
C2210 C2213 1.409 . S
C2211 H2203 0.930 . S
C2211 C2212 1.355 . S
C2211 C2213 1.415 . S
C2212 C2211 1.355 . S
C2212 C2214 1.419 . S
C2213 C2208 1.425 . S
C2213 C2210 1.409 . S
C2213 C2211 1.415 . S
C2214 H2204 0.930 . S
C2214 C2212 1.419 . S
C2214 C2215 1.362 . S
C2215 H2205 0.930 . S
C2215 C2208 1.409 . S
C2215 C2214 1.362 . S
H2216 C2222 0.930 . S
H2217 C2225 0.930 . S
H2218 C2226 0.930 . S
H2219 C2227 0.930 . S
H2220 C2230 0.930 . S
H2221 C2231 0.930 . S
C2222 H2216 0.930 . S
C2222 C2223 1.355 . S
C2222 C2224 1.415 . S
C2223 C2222 1.355 . S
C2223 C2225 1.419 . S
C2224 C2222 1.415 . S
C2224 C2229 1.425 . S
C2224 C2231 1.409 . S
C2225 H2217 0.930 . S
C2225 C2223 1.419 . S
C2225 C2226 1.362 . S
C2226 H2218 0.930 . S
C2226 C2225 1.362 . S
C2226 C2229 1.409 . S
C2227 H2219 0.930 . S
C2227 C2228 1.355 . S
C2227 C2229 1.415 . S
C2228 C2227 1.355 . S
C2228 C2230 1.419 . S
C2229 C2224 1.425 . S
C2229 C2226 1.409 . S
C2229 C2227 1.415 . S
C2230 H2220 0.930 . S
C2230 C2228 1.419 . S
C2230 C2231 1.362 . S
C2231 H2221 0.930 . S
C2231 C2224 1.409 . S
C2231 C2230 1.362 . S
H2232 C2238 0.930 . S
H2233 C2241 0.930 . S
H2234 C2242 0.930 . S
H2235 C2243 0.930 . S
H2236 C2246 0.930 . S
H2237 C2247 0.930 . S
C2238 H2232 0.930 . S
C2238 C2239 1.355 . S
C2238 C2240 1.415 . S
C2239 C2238 1.355 . S
C2239 C2241 1.419 . S
C2240 C2238 1.415 . S
C2240 C2245 1.425 . S
C2240 C2247 1.409 . S
C2241 H2233 0.930 . S
C2241 C2239 1.419 . S
C2241 C2242 1.362 . S
C2242 H2234 0.930 . S
C2242 C2241 1.362 . S
C2242 C2245 1.409 . S
C2243 H2235 0.930 . S
C2243 C2244 1.355 . S
C2243 C2245 1.415 . S
C2244 C2243 1.355 . S
C2244 C2246 1.419 . S
C2245 C2240 1.425 . S
C2245 C2242 1.409 . S
C2245 C2243 1.415 . S
C2246 H2236 0.930 . S
C2246 C2244 1.419 . S
C2246 C2247 1.362 . S
C2247 H2237 0.930 . S
C2247 C2240 1.409 . S
C2247 C2246 1.362 . S
H2248 C2254 0.930 . S
H2249 C2257 0.930 . S
H2250 C2258 0.930 . S
H2251 C2259 0.930 . S
H2252 C2262 0.930 . S
H2253 C2263 0.930 . S
C2254 H2248 0.930 . S
C2254 C2255 1.355 . S
C2254 C2256 1.415 . S
C2255 C2254 1.355 . S
C2255 C2257 1.419 . S
C2256 C2254 1.415 . S
C2256 C2261 1.425 . S
C2256 C2263 1.409 . S
C2257 H2249 0.930 . S
C2257 C2255 1.419 . S
C2257 C2258 1.362 . S
C2258 H2250 0.930 . S
C2258 C2257 1.362 . S
C2258 C2261 1.409 . S
C2259 H2251 0.930 . S
C2259 C2260 1.355 . S
C2259 C2261 1.415 . S
C2260 C2259 1.355 . S
C2260 C2262 1.419 . S
C2261 C2256 1.425 . S
C2261 C2258 1.409 . S
C2261 C2259 1.415 . S
C2262 H2252 0.930 . S
C2262 C2260 1.419 . S
C2262 C2263 1.362 . S
C2263 H2253 0.930 . S
C2263 C2256 1.409 . S
C2263 C2262 1.362 . S
H2264 C2270 0.930 . S
H2265 C2273 0.930 . S
H2266 C2274 0.930 . S
H2267 C2275 0.930 . S
H2268 C2278 0.930 . S
H2269 C2279 0.930 . S
C2270 H2264 0.930 . S
C2270 C2271 1.355 . S
C2270 C2272 1.415 . S
C2271 C2270 1.355 . S
C2271 C2273 1.419 . S
C2272 C2270 1.415 . S
C2272 C2277 1.425 . S
C2272 C2279 1.409 . S
C2273 H2265 0.930 . S
C2273 C2271 1.419 . S
C2273 C2274 1.362 . S
C2274 H2266 0.930 . S
C2274 C2273 1.362 . S
C2274 C2277 1.409 . S
C2275 H2267 0.930 . S
C2275 C2276 1.355 . S
C2275 C2277 1.415 . S
C2276 C2275 1.355 . S
C2276 C2278 1.419 . S
C2277 C2272 1.425 . S
C2277 C2274 1.409 . S
C2277 C2275 1.415 . S
C2278 H2268 0.930 . S
C2278 C2276 1.419 . S
C2278 C2279 1.362 . S
C2279 H2269 0.930 . S
C2279 C2272 1.409 . S
C2279 C2278 1.362 . S
H2280 C2286 0.930 . S
H2281 C2289 0.930 . S
H2282 C2290 0.930 . S
H2283 C2291 0.930 . S
H2284 C2294 0.930 . S
H2285 C2295 0.930 . S
C2286 H2280 0.930 . S
C2286 C2287 1.355 . S
C2286 C2288 1.415 . S
C2287 C2286 1.355 . S
C2287 C2289 1.419 . S
C2288 C2286 1.415 . S
C2288 C2293 1.425 . S
C2288 C2295 1.409 . S
C2289 H2281 0.930 . S
C2289 C2287 1.419 . S
C2289 C2290 1.362 . S
C2290 H2282 0.930 . S
C2290 C2289 1.362 . S
C2290 C2293 1.409 . S
C2291 H2283 0.930 . S
C2291 C2292 1.355 . S
C2291 C2293 1.415 . S
C2292 C2291 1.355 . S
C2292 C2294 1.419 . S
C2293 C2288 1.425 . S
C2293 C2290 1.409 . S
C2293 C2291 1.415 . S
C2294 H2284 0.930 . S
C2294 C2292 1.419 . S
C2294 C2295 1.362 . S
C2295 H2285 0.930 . S
C2295 C2288 1.409 . S
C2295 C2294 1.362 . S
H2296 C2302 0.930 . S
H2297 C2305 0.930 . S
H2298 C2306 0.930 . S
H2299 C2307 0.930 . S
H2300 C2310 0.930 . S
H2301 C2311 0.930 . S
C2302 H2296 0.930 . S
C2302 C2303 1.355 . S
C2302 C2304 1.415 . S
C2303 C2302 1.355 . S
C2303 C2305 1.419 . S
C2304 C2302 1.415 . S
C2304 C2309 1.425 . S
C2304 C2311 1.409 . S
C2305 H2297 0.930 . S
C2305 C2303 1.419 . S
C2305 C2306 1.362 . S
C2306 H2298 0.930 . S
C2306 C2305 1.362 . S
C2306 C2309 1.409 . S
C2307 H2299 0.930 . S
C2307 C2308 1.355 . S
C2307 C2309 1.415 . S
C2308 C2307 1.355 . S
C2308 C2310 1.419 . S
C2309 C2304 1.425 . S
C2309 C2306 1.409 . S
C2309 C2307 1.415 . S
C2310 H2300 0.930 . S
C2310 C2308 1.419 . S
C2310 C2311 1.362 . S
C2311 H2301 0.930 . S
C2311 C2304 1.409 . S
C2311 C2310 1.362 . S
H2312 C2318 0.930 . S
H2313 C2321 0.930 . S
H2314 C2322 0.930 . S
H2315 C2323 0.930 . S
H2316 C2326 0.930 . S
H2317 C2327 0.930 . S
C2318 H2312 0.930 . S
C2318 C2319 1.355 . S
C2318 C2320 1.415 . S
C2319 C2318 1.355 . S
C2319 C2321 1.419 . S
C2320 C2318 1.415 . S
C2320 C2325 1.425 . S
C2320 C2327 1.409 . S
C2321 H2313 0.930 . S
C2321 C2319 1.419 . S
C2321 C2322 1.362 . S
C2322 H2314 0.930 . S
C2322 C2321 1.362 . S
C2322 C2325 1.409 . S
C2323 H2315 0.930 . S
C2323 C2324 1.355 . S
C2323 C2325 1.415 . S
C2324 C2323 1.355 . S
C2324 C2326 1.419 . S
C2325 C2320 1.425 . S
C2325 C2322 1.409 . S
C2325 C2323 1.415 . S
C2326 H2316 0.930 . S
C2326 C2324 1.419 . S
C2326 C2327 1.362 . S
C2327 H2317 0.930 . S
C2327 C2320 1.409 . S
C2327 C2326 1.362 . S
H2328 C2334 0.930 . S
H2329 C2337 0.930 . S
H2330 C2338 0.930 . S
H2331 C2339 0.930 . S
H2332 C2342 0.930 . S
H2333 C2343 0.930 . S
C2334 H2328 0.930 . S
C2334 C2335 1.355 . S
C2334 C2336 1.415 . S
C2335 C2334 1.355 . S
C2335 C2337 1.419 . S
C2336 C2334 1.415 . S
C2336 C2341 1.425 . S
C2336 C2343 1.409 . S
C2337 H2329 0.930 . S
C2337 C2335 1.419 . S
C2337 C2338 1.362 . S
C2338 H2330 0.930 . S
C2338 C2337 1.362 . S
C2338 C2341 1.409 . S
C2339 H2331 0.930 . S
C2339 C2340 1.355 . S
C2339 C2341 1.415 . S
C2340 C2339 1.355 . S
C2340 C2342 1.419 . S
C2341 C2336 1.425 . S
C2341 C2338 1.409 . S
C2341 C2339 1.415 . S
C2342 H2332 0.930 . S
C2342 C2340 1.419 . S
C2342 C2343 1.362 . S
C2343 H2333 0.930 . S
C2343 C2336 1.409 . S
C2343 C2342 1.362 . S
H2344 C2350 0.930 . S
H2345 C2353 0.930 . S
H2346 C2354 0.930 . S
H2347 C2355 0.930 . S
H2348 C2358 0.930 . S
H2349 C2359 0.930 . S
C2350 H2344 0.930 . S
C2350 C2351 1.355 . S
C2350 C2352 1.415 . S
C2351 C2350 1.355 . S
C2351 C2353 1.419 . S
C2352 C2350 1.415 . S
C2352 C2357 1.425 . S
C2352 C2359 1.409 . S
C2353 H2345 0.930 . S
C2353 C2351 1.419 . S
C2353 C2354 1.362 . S
C2354 H2346 0.930 . S
C2354 C2353 1.362 . S
C2354 C2357 1.409 . S
C2355 H2347 0.930 . S
C2355 C2356 1.355 . S
C2355 C2357 1.415 . S
C2356 C2355 1.355 . S
C2356 C2358 1.419 . S
C2357 C2352 1.425 . S
C2357 C2354 1.409 . S
C2357 C2355 1.415 . S
C2358 H2348 0.930 . S
C2358 C2356 1.419 . S
C2358 C2359 1.362 . S
C2359 H2349 0.930 . S
C2359 C2352 1.409 . S
C2359 C2358 1.362 . S
H2360 C2366 0.930 . S
H2361 C2369 0.930 . S
H2362 C2370 0.930 . S
H2363 C2371 0.930 . S
H2364 C2374 0.930 . S
H2365 C2375 0.930 . S
C2366 H2360 0.930 . S
C2366 C2367 1.355 . S
C2366 C2368 1.415 . S
C2367 C2366 1.355 . S
C2367 C2369 1.419 . S
C2368 C2366 1.415 . S
C2368 C2373 1.425 . S
C2368 C2375 1.409 . S
C2369 H2361 0.930 . S
C2369 C2367 1.419 . S
C2369 C2370 1.362 . S
C2370 H2362 0.930 . S
C2370 C2369 1.362 . S
C2370 C2373 1.409 . S
C2371 H2363 0.930 . S
C2371 C2372 1.355 . S
C2371 C2373 1.415 . S
C2372 C2371 1.355 . S
C2372 C2374 1.419 . S
C2373 C2368 1.425 . S
C2373 C2370 1.409 . S
C2373 C2371 1.415 . S
C2374 H2364 0.930 . S
C2374 C2372 1.419 . S
C2374 C2375 1.362 . S
C2375 H2365 0.930 . S
C2375 C2368 1.409 . S
C2375 C2374 1.362 . S
H2376 C2382 0.930 . S
H2377 C2385 0.930 . S
H2378 C2386 0.930 . S
H2379 C2387 0.930 . S
H2380 C2390 0.930 . S
H2381 C2391 0.930 . S
C2382 H2376 0.930 . S
C2382 C2383 1.355 . S
C2382 C2384 1.415 . S
C2383 C2382 1.355 . S
C2383 C2385 1.419 . S
C2384 C2382 1.415 . S
C2384 C2389 1.425 . S
C2384 C2391 1.409 . S
C2385 H2377 0.930 . S
C2385 C2383 1.419 . S
C2385 C2386 1.362 . S
C2386 H2378 0.930 . S
C2386 C2385 1.362 . S
C2386 C2389 1.409 . S
C2387 H2379 0.930 . S
C2387 C2388 1.355 . S
C2387 C2389 1.415 . S
C2388 C2387 1.355 . S
C2388 C2390 1.419 . S
C2389 C2384 1.425 . S
C2389 C2386 1.409 . S
C2389 C2387 1.415 . S
C2390 H2380 0.930 . S
C2390 C2388 1.419 . S
C2390 C2391 1.362 . S
C2391 H2381 0.930 . S
C2391 C2384 1.409 . S
C2391 C2390 1.362 . S
H2392 C2398 0.930 . S
H2393 C2401 0.930 . S
H2394 C2402 0.930 . S
H2395 C2403 0.930 . S
H2396 C2406 0.930 . S
H2397 C2407 0.930 . S
C2398 H2392 0.930 . S
C2398 C2399 1.355 . S
C2398 C2400 1.415 . S
C2399 C2398 1.355 . S
C2399 C2401 1.419 . S
C2400 C2398 1.415 . S
C2400 C2405 1.425 . S
C2400 C2407 1.409 . S
C2401 H2393 0.930 . S
C2401 C2399 1.419 . S
C2401 C2402 1.362 . S
C2402 H2394 0.930 . S
C2402 C2401 1.362 . S
C2402 C2405 1.409 . S
C2403 H2395 0.930 . S
C2403 C2404 1.355 . S
C2403 C2405 1.415 . S
C2404 C2403 1.355 . S
C2404 C2406 1.419 . S
C2405 C2400 1.425 . S
C2405 C2402 1.409 . S
C2405 C2403 1.415 . S
C2406 H2396 0.930 . S
C2406 C2404 1.419 . S
C2406 C2407 1.362 . S
C2407 H2397 0.930 . S
C2407 C2400 1.409 . S
C2407 C2406 1.362 . S
H2408 C2414 0.930 . S
H2409 C2417 0.930 . S
H2410 C2418 0.930 . S
H2411 C2419 0.930 . S
H2412 C2422 0.930 . S
H2413 C2423 0.930 . S
C2414 H2408 0.930 . S
C2414 C2415 1.355 . S
C2414 C2416 1.415 . S
C2415 C2414 1.355 . S
C2415 C2417 1.419 . S
C2416 C2414 1.415 . S
C2416 C2421 1.425 . S
C2416 C2423 1.409 . S
C2417 H2409 0.930 . S
C2417 C2415 1.419 . S
C2417 C2418 1.362 . S
C2418 H2410 0.930 . S
C2418 C2417 1.362 . S
C2418 C2421 1.409 . S
C2419 H2411 0.930 . S
C2419 C2420 1.355 . S
C2419 C2421 1.415 . S
C2420 C2419 1.355 . S
C2420 C2422 1.419 . S
C2421 C2416 1.425 . S
C2421 C2418 1.409 . S
C2421 C2419 1.415 . S
C2422 H2412 0.930 . S
C2422 C2420 1.419 . S
C2422 C2423 1.362 . S
C2423 H2413 0.930 . S
C2423 C2416 1.409 . S
C2423 C2422 1.362 . S
H2424 C2430 0.930 . S
H2425 C2433 0.930 . S
H2426 C2434 0.930 . S
H2427 C2435 0.930 . S
H2428 C2438 0.930 . S
H2429 C2439 0.930 . S
C2430 H2424 0.930 . S
C2430 C2431 1.355 . S
C2430 C2432 1.415 . S
C2431 C2430 1.355 . S
C2431 C2433 1.419 . S
C2432 C2430 1.415 . S
C2432 C2437 1.425 . S
C2432 C2439 1.409 . S
C2433 H2425 0.930 . S
C2433 C2431 1.419 . S
C2433 C2434 1.362 . S
C2434 H2426 0.930 . S
C2434 C2433 1.362 . S
C2434 C2437 1.409 . S
C2435 H2427 0.930 . S
C2435 C2436 1.355 . S
C2435 C2437 1.415 . S
C2436 C2435 1.355 . S
C2436 C2438 1.419 . S
C2437 C2432 1.425 . S
C2437 C2434 1.409 . S
C2437 C2435 1.415 . S
C2438 H2428 0.930 . S
C2438 C2436 1.419 . S
C2438 C2439 1.362 . S
C2439 H2429 0.930 . S
C2439 C2432 1.409 . S
C2439 C2438 1.362 . S
H2440 C2446 0.930 . S
H2441 C2449 0.930 . S
H2442 C2450 0.930 . S
H2443 C2451 0.930 . S
H2444 C2454 0.930 . S
H2445 C2455 0.930 . S
C2446 H2440 0.930 . S
C2446 C2447 1.355 . S
C2446 C2448 1.415 . S
C2447 C2446 1.355 . S
C2447 C2449 1.419 . S
C2448 C2446 1.415 . S
C2448 C2453 1.425 . S
C2448 C2455 1.409 . S
C2449 H2441 0.930 . S
C2449 C2447 1.419 . S
C2449 C2450 1.362 . S
C2450 H2442 0.930 . S
C2450 C2449 1.362 . S
C2450 C2453 1.409 . S
C2451 H2443 0.930 . S
C2451 C2452 1.355 . S
C2451 C2453 1.415 . S
C2452 C2451 1.355 . S
C2452 C2454 1.419 . S
C2453 C2448 1.425 . S
C2453 C2450 1.409 . S
C2453 C2451 1.415 . S
C2454 H2444 0.930 . S
C2454 C2452 1.419 . S
C2454 C2455 1.362 . S
C2455 H2445 0.930 . S
C2455 C2448 1.409 . S
C2455 C2454 1.362 . S
H2456 C2462 0.930 . S
H2457 C2465 0.930 . S
H2458 C2466 0.930 . S
H2459 C2467 0.930 . S
H2460 C2470 0.930 . S
H2461 C2471 0.930 . S
C2462 H2456 0.930 . S
C2462 C2463 1.355 . S
C2462 C2464 1.415 . S
C2463 C2462 1.355 . S
C2463 C2465 1.419 . S
C2464 C2462 1.415 . S
C2464 C2469 1.425 . S
C2464 C2471 1.409 . S
C2465 H2457 0.930 . S
C2465 C2463 1.419 . S
C2465 C2466 1.362 . S
C2466 H2458 0.930 . S
C2466 C2465 1.362 . S
C2466 C2469 1.409 . S
C2467 H2459 0.930 . S
C2467 C2468 1.355 . S
C2467 C2469 1.415 . S
C2468 C2467 1.355 . S
C2468 C2470 1.419 . S
C2469 C2464 1.425 . S
C2469 C2466 1.409 . S
C2469 C2467 1.415 . S
C2470 H2460 0.930 . S
C2470 C2468 1.419 . S
C2470 C2471 1.362 . S
C2471 H2461 0.930 . S
C2471 C2464 1.409 . S
C2471 C2470 1.362 . S
H2472 C2478 0.930 . S
H2473 C2481 0.930 . S
H2474 C2482 0.930 . S
H2475 C2483 0.930 . S
H2476 C2486 0.930 . S
H2477 C2487 0.930 . S
C2478 H2472 0.930 . S
C2478 C2479 1.355 . S
C2478 C2480 1.415 . S
C2479 C2478 1.355 . S
C2479 C2481 1.419 . S
C2480 C2478 1.415 . S
C2480 C2485 1.425 . S
C2480 C2487 1.409 . S
C2481 H2473 0.930 . S
C2481 C2479 1.419 . S
C2481 C2482 1.362 . S
C2482 H2474 0.930 . S
C2482 C2481 1.362 . S
C2482 C2485 1.409 . S
C2483 H2475 0.930 . S
C2483 C2484 1.355 . S
C2483 C2485 1.415 . S
C2484 C2483 1.355 . S
C2484 C2486 1.419 . S
C2485 C2480 1.425 . S
C2485 C2482 1.409 . S
C2485 C2483 1.415 . S
C2486 H2476 0.930 . S
C2486 C2484 1.419 . S
C2486 C2487 1.362 . S
C2487 H2477 0.930 . S
C2487 C2480 1.409 . S
C2487 C2486 1.362 . S
H2488 C2494 0.930 . S
H2489 C2497 0.930 . S
H2490 C2498 0.930 . S
H2491 C2499 0.930 . S
H2492 C2502 0.930 . S
H2493 C2503 0.930 . S
C2494 H2488 0.930 . S
C2494 C2495 1.355 . S
C2494 C2496 1.415 . S
C2495 C2494 1.355 . S
C2495 C2497 1.419 . S
C2496 C2494 1.415 . S
C2496 C2501 1.425 . S
C2496 C2503 1.409 . S
C2497 H2489 0.930 . S
C2497 C2495 1.419 . S
C2497 C2498 1.362 . S
C2498 H2490 0.930 . S
C2498 C2497 1.362 . S
C2498 C2501 1.409 . S
C2499 H2491 0.930 . S
C2499 C2500 1.355 . S
C2499 C2501 1.415 . S
C2500 C2499 1.355 . S
C2500 C2502 1.419 . S
C2501 C2496 1.425 . S
C2501 C2498 1.409 . S
C2501 C2499 1.415 . S
C2502 H2492 0.930 . S
C2502 C2500 1.419 . S
C2502 C2503 1.362 . S
C2503 H2493 0.930 . S
C2503 C2496 1.409 . S
C2503 C2502 1.362 . S
H2504 C2510 0.930 . S
H2505 C2513 0.930 . S
H2506 C2514 0.930 . S
H2507 C2515 0.930 . S
H2508 C2518 0.930 . S
H2509 C2519 0.930 . S
C2510 H2504 0.930 . S
C2510 C2511 1.355 . S
C2510 C2512 1.415 . S
C2511 C2510 1.355 . S
C2511 C2513 1.419 . S
C2512 C2510 1.415 . S
C2512 C2517 1.425 . S
C2512 C2519 1.409 . S
C2513 H2505 0.930 . S
C2513 C2511 1.419 . S
C2513 C2514 1.362 . S
C2514 H2506 0.930 . S
C2514 C2513 1.362 . S
C2514 C2517 1.409 . S
C2515 H2507 0.930 . S
C2515 C2516 1.355 . S
C2515 C2517 1.415 . S
C2516 C2515 1.355 . S
C2516 C2518 1.419 . S
C2517 C2512 1.425 . S
C2517 C2514 1.409 . S
C2517 C2515 1.415 . S
C2518 H2508 0.930 . S
C2518 C2516 1.419 . S
C2518 C2519 1.362 . S
C2519 H2509 0.930 . S
C2519 C2512 1.409 . S
C2519 C2518 1.362 . S
H2520 C2526 0.930 . S
H2521 C2529 0.930 . S
H2522 C2530 0.930 . S
H2523 C2531 0.930 . S
H2524 C2534 0.930 . S
H2525 C2535 0.930 . S
C2526 H2520 0.930 . S
C2526 C2527 1.355 . S
C2526 C2528 1.415 . S
C2527 C2526 1.355 . S
C2527 C2529 1.419 . S
C2528 C2526 1.415 . S
C2528 C2533 1.425 . S
C2528 C2535 1.409 . S
C2529 H2521 0.930 . S
C2529 C2527 1.419 . S
C2529 C2530 1.362 . S
C2530 H2522 0.930 . S
C2530 C2529 1.362 . S
C2530 C2533 1.409 . S
C2531 H2523 0.930 . S
C2531 C2532 1.355 . S
C2531 C2533 1.415 . S
C2532 C2531 1.355 . S
C2532 C2534 1.419 . S
C2533 C2528 1.425 . S
C2533 C2530 1.409 . S
C2533 C2531 1.415 . S
C2534 H2524 0.930 . S
C2534 C2532 1.419 . S
C2534 C2535 1.362 . S
C2535 H2525 0.930 . S
C2535 C2528 1.409 . S
C2535 C2534 1.362 . S
H2536 C2542 0.930 . S
H2537 C2545 0.930 . S
H2538 C2546 0.930 . S
H2539 C2547 0.930 . S
H2540 C2550 0.930 . S
H2541 C2551 0.930 . S
C2542 H2536 0.930 . S
C2542 C2543 1.355 . S
C2542 C2544 1.415 . S
C2543 C2542 1.355 . S
C2543 C2545 1.419 . S
C2544 C2542 1.415 . S
C2544 C2549 1.425 . S
C2544 C2551 1.409 . S
C2545 H2537 0.930 . S
C2545 C2543 1.419 . S
C2545 C2546 1.362 . S
C2546 H2538 0.930 . S
C2546 C2545 1.362 . S
C2546 C2549 1.409 . S
C2547 H2539 0.930 . S
C2547 C2548 1.355 . S
C2547 C2549 1.415 . S
C2548 C2547 1.355 . S
C2548 C2550 1.419 . S
C2549 C2544 1.425 . S
C2549 C2546 1.409 . S
C2549 C2547 1.415 . S
C2550 H2540 0.930 . S
C2550 C2548 1.419 . S
C2550 C2551 1.362 . S
C2551 H2541 0.930 . S
C2551 C2544 1.409 . S
C2551 C2550 1.362 . S
H2552 C2558 0.930 . S
H2553 C2561 0.930 . S
H2554 C2562 0.930 . S
H2555 C2563 0.930 . S
H2556 C2566 0.930 . S
H2557 C2567 0.930 . S
C2558 H2552 0.930 . S
C2558 C2559 1.355 . S
C2558 C2560 1.415 . S
C2559 C2558 1.355 . S
C2559 C2561 1.419 . S
C2560 C2558 1.415 . S
C2560 C2565 1.425 . S
C2560 C2567 1.409 . S
C2561 H2553 0.930 . S
C2561 C2559 1.419 . S
C2561 C2562 1.362 . S
C2562 H2554 0.930 . S
C2562 C2561 1.362 . S
C2562 C2565 1.409 . S
C2563 H2555 0.930 . S
C2563 C2564 1.355 . S
C2563 C2565 1.415 . S
C2564 C2563 1.355 . S
C2564 C2566 1.419 . S
C2565 C2560 1.425 . S
C2565 C2562 1.409 . S
C2565 C2563 1.415 . S
C2566 H2556 0.930 . S
C2566 C2564 1.419 . S
C2566 C2567 1.362 . S
C2567 H2557 0.930 . S
C2567 C2560 1.409 . S
C2567 C2566 1.362 . S
H2568 C2574 0.930 . S
H2569 C2577 0.930 . S
H2570 C2578 0.930 . S
H2571 C2579 0.930 . S
H2572 C2582 0.930 . S
H2573 C2583 0.930 . S
C2574 H2568 0.930 . S
C2574 C2575 1.355 . S
C2574 C2576 1.415 . S
C2575 C2574 1.355 . S
C2575 C2577 1.419 . S
C2576 C2574 1.415 . S
C2576 C2581 1.425 . S
C2576 C2583 1.409 . S
C2577 H2569 0.930 . S
C2577 C2575 1.419 . S
C2577 C2578 1.362 . S
C2578 H2570 0.930 . S
C2578 C2577 1.362 . S
C2578 C2581 1.409 . S
C2579 H2571 0.930 . S
C2579 C2580 1.355 . S
C2579 C2581 1.415 . S
C2580 C2579 1.355 . S
C2580 C2582 1.419 . S
C2581 C2576 1.425 . S
C2581 C2578 1.409 . S
C2581 C2579 1.415 . S
C2582 H2572 0.930 . S
C2582 C2580 1.419 . S
C2582 C2583 1.362 . S
C2583 H2573 0.930 . S
C2583 C2576 1.409 . S
C2583 C2582 1.362 . S
H2584 C2590 0.930 . S
H2585 C2593 0.930 . S
H2586 C2594 0.930 . S
H2587 C2595 0.930 . S
H2588 C2598 0.930 . S
H2589 C2599 0.930 . S
C2590 H2584 0.930 . S
C2590 C2591 1.355 . S
C2590 C2592 1.415 . S
C2591 C2590 1.355 . S
C2591 C2593 1.419 . S
C2592 C2590 1.415 . S
C2592 C2597 1.425 . S
C2592 C2599 1.409 . S
C2593 H2585 0.930 . S
C2593 C2591 1.419 . S
C2593 C2594 1.362 . S
C2594 H2586 0.930 . S
C2594 C2593 1.362 . S
C2594 C2597 1.409 . S
C2595 H2587 0.930 . S
C2595 C2596 1.355 . S
C2595 C2597 1.415 . S
C2596 C2595 1.355 . S
C2596 C2598 1.419 . S
C2597 C2592 1.425 . S
C2597 C2594 1.409 . S
C2597 C2595 1.415 . S
C2598 H2588 0.930 . S
C2598 C2596 1.419 . S
C2598 C2599 1.362 . S
C2599 H2589 0.930 . S
C2599 C2592 1.409 . S
C2599 C2598 1.362 . S
H2600 C2606 0.930 . S
H2601 C2609 0.930 . S
H2602 C2610 0.930 . S
H2603 C2611 0.930 . S
H2604 C2614 0.930 . S
H2605 C2615 0.930 . S
C2606 H2600 0.930 . S
C2606 C2607 1.355 . S
C2606 C2608 1.415 . S
C2607 C2606 1.355 . S
C2607 C2609 1.419 . S
C2608 C2606 1.415 . S
C2608 C2613 1.425 . S
C2608 C2615 1.409 . S
C2609 H2601 0.930 . S
C2609 C2607 1.419 . S
C2609 C2610 1.362 . S
C2610 H2602 0.930 . S
C2610 C2609 1.362 . S
C2610 C2613 1.409 . S
C2611 H2603 0.930 . S
C2611 C2612 1.355 . S
C2611 C2613 1.415 . S
C2612 C2611 1.355 . S
C2612 C2614 1.419 . S
C2613 C2608 1.425 . S
C2613 C2610 1.409 . S
C2613 C2611 1.415 . S
C2614 H2604 0.930 . S
C2614 C2612 1.419 . S
C2614 C2615 1.362 . S
C2615 H2605 0.930 . S
C2615 C2608 1.409 . S
C2615 C2614 1.362 . S
H2616 C2622 0.930 . S
H2617 C2625 0.930 . S
H2618 C2626 0.930 . S
H2619 C2627 0.930 . S
H2620 C2630 0.930 . S
H2621 C2631 0.930 . S
C2622 H2616 0.930 . S
C2622 C2623 1.355 . S
C2622 C2624 1.415 . S
C2623 C2622 1.355 . S
C2623 C2625 1.419 . S
C2624 C2622 1.415 . S
C2624 C2629 1.425 . S
C2624 C2631 1.409 . S
C2625 H2617 0.930 . S
C2625 C2623 1.419 . S
C2625 C2626 1.362 . S
C2626 H2618 0.930 . S
C2626 C2625 1.362 . S
C2626 C2629 1.409 . S
C2627 H2619 0.930 . S
C2627 C2628 1.355 . S
C2627 C2629 1.415 . S
C2628 C2627 1.355 . S
C2628 C2630 1.419 . S
C2629 C2624 1.425 . S
C2629 C2626 1.409 . S
C2629 C2627 1.415 . S
C2630 H2620 0.930 . S
C2630 C2628 1.419 . S
C2630 C2631 1.362 . S
C2631 H2621 0.930 . S
C2631 C2624 1.409 . S
C2631 C2630 1.362 . S
H2632 C2638 0.930 . S
H2633 C2641 0.930 . S
H2634 C2642 0.930 . S
H2635 C2643 0.930 . S
H2636 C2646 0.930 . S
H2637 C2647 0.930 . S
C2638 H2632 0.930 . S
C2638 C2639 1.355 . S
C2638 C2640 1.415 . S
C2639 C2638 1.355 . S
C2639 C2641 1.419 . S
C2640 C2638 1.415 . S
C2640 C2645 1.425 . S
C2640 C2647 1.409 . S
C2641 H2633 0.930 . S
C2641 C2639 1.419 . S
C2641 C2642 1.362 . S
C2642 H2634 0.930 . S
C2642 C2641 1.362 . S
C2642 C2645 1.409 . S
C2643 H2635 0.930 . S
C2643 C2644 1.355 . S
C2643 C2645 1.415 . S
C2644 C2643 1.355 . S
C2644 C2646 1.419 . S
C2645 C2640 1.425 . S
C2645 C2642 1.409 . S
C2645 C2643 1.415 . S
C2646 H2636 0.930 . S
C2646 C2644 1.419 . S
C2646 C2647 1.362 . S
C2647 H2637 0.930 . S
C2647 C2640 1.409 . S
C2647 C2646 1.362 . S
H2648 C2654 0.930 . S
H2649 C2657 0.930 . S
H2650 C2658 0.930 . S
H2651 C2659 0.930 . S
H2652 C2662 0.930 . S
H2653 C2663 0.930 . S
C2654 H2648 0.930 . S
C2654 C2655 1.355 . S
C2654 C2656 1.415 . S
C2655 C2654 1.355 . S
C2655 C2657 1.419 . S
C2656 C2654 1.415 . S
C2656 C2661 1.425 . S
C2656 C2663 1.409 . S
C2657 H2649 0.930 . S
C2657 C2655 1.419 . S
C2657 C2658 1.362 . S
C2658 H2650 0.930 . S
C2658 C2657 1.362 . S
C2658 C2661 1.409 . S
C2659 H2651 0.930 . S
C2659 C2660 1.355 . S
C2659 C2661 1.415 . S
C2660 C2659 1.355 . S
C2660 C2662 1.419 . S
C2661 C2656 1.425 . S
C2661 C2658 1.409 . S
C2661 C2659 1.415 . S
C2662 H2652 0.930 . S
C2662 C2660 1.419 . S
C2662 C2663 1.362 . S
C2663 H2653 0.930 . S
C2663 C2656 1.409 . S
C2663 C2662 1.362 . S
H2664 C2670 0.930 . S
H2665 C2673 0.930 . S
H2666 C2674 0.930 . S
H2667 C2675 0.930 . S
H2668 C2678 0.930 . S
H2669 C2679 0.930 . S
C2670 H2664 0.930 . S
C2670 C2671 1.355 . S
C2670 C2672 1.415 . S
C2671 C2670 1.355 . S
C2671 C2673 1.419 . S
C2672 C2670 1.415 . S
C2672 C2677 1.425 . S
C2672 C2679 1.409 . S
C2673 H2665 0.930 . S
C2673 C2671 1.419 . S
C2673 C2674 1.362 . S
C2674 H2666 0.930 . S
C2674 C2673 1.362 . S
C2674 C2677 1.409 . S
C2675 H2667 0.930 . S
C2675 C2676 1.355 . S
C2675 C2677 1.415 . S
C2676 C2675 1.355 . S
C2676 C2678 1.419 . S
C2677 C2672 1.425 . S
C2677 C2674 1.409 . S
C2677 C2675 1.415 . S
C2678 H2668 0.930 . S
C2678 C2676 1.419 . S
C2678 C2679 1.362 . S
C2679 H2669 0.930 . S
C2679 C2672 1.409 . S
C2679 C2678 1.362 . S
H2680 C2686 0.930 . S
H2681 C2689 0.930 . S
H2682 C2690 0.930 . S
H2683 C2691 0.930 . S
H2684 C2694 0.930 . S
H2685 C2695 0.930 . S
C2686 H2680 0.930 . S
C2686 C2687 1.355 . S
C2686 C2688 1.415 . S
C2687 C2686 1.355 . S
C2687 C2689 1.419 . S
C2688 C2686 1.415 . S
C2688 C2693 1.425 . S
C2688 C2695 1.409 . S
C2689 H2681 0.930 . S
C2689 C2687 1.419 . S
C2689 C2690 1.362 . S
C2690 H2682 0.930 . S
C2690 C2689 1.362 . S
C2690 C2693 1.409 . S
C2691 H2683 0.930 . S
C2691 C2692 1.355 . S
C2691 C2693 1.415 . S
C2692 C2691 1.355 . S
C2692 C2694 1.419 . S
C2693 C2688 1.425 . S
C2693 C2690 1.409 . S
C2693 C2691 1.415 . S
C2694 H2684 0.930 . S
C2694 C2692 1.419 . S
C2694 C2695 1.362 . S
C2695 H2685 0.930 . S
C2695 C2688 1.409 . S
C2695 C2694 1.362 . S
H2696 C2702 0.930 . S
H2697 C2705 0.930 . S
H2698 C2706 0.930 . S
H2699 C2707 0.930 . S
H2700 C2710 0.930 . S
H2701 C2711 0.930 . S
C2702 H2696 0.930 . S
C2702 C2703 1.355 . S
C2702 C2704 1.415 . S
C2703 C2702 1.355 . S
C2703 C2705 1.419 . S
C2704 C2702 1.415 . S
C2704 C2709 1.425 . S
C2704 C2711 1.409 . S
C2705 H2697 0.930 . S
C2705 C2703 1.419 . S
C2705 C2706 1.362 . S
C2706 H2698 0.930 . S
C2706 C2705 1.362 . S
C2706 C2709 1.409 . S
C2707 H2699 0.930 . S
C2707 C2708 1.355 . S
C2707 C2709 1.415 . S
C2708 C2707 1.355 . S
C2708 C2710 1.419 . S
C2709 C2704 1.425 . S
C2709 C2706 1.409 . S
C2709 C2707 1.415 . S
C2710 H2700 0.930 . S
C2710 C2708 1.419 . S
C2710 C2711 1.362 . S
C2711 H2701 0.930 . S
C2711 C2704 1.409 . S
C2711 C2710 1.362 . S
H2712 C2718 0.930 . S
H2713 C2721 0.930 . S
H2714 C2722 0.930 . S
H2715 C2723 0.930 . S
H2716 C2726 0.930 . S
H2717 C2727 0.930 . S
C2718 H2712 0.930 . S
C2718 C2719 1.355 . S
C2718 C2720 1.415 . S
C2719 C2718 1.355 . S
C2719 C2721 1.419 . S
C2720 C2718 1.415 . S
C2720 C2725 1.425 . S
C2720 C2727 1.409 . S
C2721 H2713 0.930 . S
C2721 C2719 1.419 . S
C2721 C2722 1.362 . S
C2722 H2714 0.930 . S
C2722 C2721 1.362 . S
C2722 C2725 1.409 . S
C2723 H2715 0.930 . S
C2723 C2724 1.355 . S
C2723 C2725 1.415 . S
C2724 C2723 1.355 . S
C2724 C2726 1.419 . S
C2725 C2720 1.425 . S
C2725 C2722 1.409 . S
C2725 C2723 1.415 . S
C2726 H2716 0.930 . S
C2726 C2724 1.419 . S
C2726 C2727 1.362 . S
C2727 H2717 0.930 . S
C2727 C2720 1.409 . S
C2727 C2726 1.362 . S
H2728 C2734 0.930 . S
H2729 C2737 0.930 . S
H2730 C2738 0.930 . S
H2731 C2739 0.930 . S
H2732 C2742 0.930 . S
H2733 C2743 0.930 . S
C2734 H2728 0.930 . S
C2734 C2735 1.355 . S
C2734 C2736 1.415 . S
C2735 C2734 1.355 . S
C2735 C2737 1.419 . S
C2736 C2734 1.415 . S
C2736 C2741 1.425 . S
C2736 C2743 1.409 . S
C2737 H2729 0.930 . S
C2737 C2735 1.419 . S
C2737 C2738 1.362 . S
C2738 H2730 0.930 . S
C2738 C2737 1.362 . S
C2738 C2741 1.409 . S
C2739 H2731 0.930 . S
C2739 C2740 1.355 . S
C2739 C2741 1.415 . S
C2740 C2739 1.355 . S
C2740 C2742 1.419 . S
C2741 C2736 1.425 . S
C2741 C2738 1.409 . S
C2741 C2739 1.415 . S
C2742 H2732 0.930 . S
C2742 C2740 1.419 . S
C2742 C2743 1.362 . S
C2743 H2733 0.930 . S
C2743 C2736 1.409 . S
C2743 C2742 1.362 . S
H2744 C2750 0.930 . S
H2745 C2753 0.930 . S
H2746 C2754 0.930 . S
H2747 C2755 0.930 . S
H2748 C2758 0.930 . S
H2749 C2759 0.930 . S
C2750 H2744 0.930 . S
C2750 C2751 1.355 . S
C2750 C2752 1.415 . S
C2751 C2750 1.355 . S
C2751 C2753 1.419 . S
C2752 C2750 1.415 . S
C2752 C2757 1.425 . S
C2752 C2759 1.409 . S
C2753 H2745 0.930 . S
C2753 C2751 1.419 . S
C2753 C2754 1.362 . S
C2754 H2746 0.930 . S
C2754 C2753 1.362 . S
C2754 C2757 1.409 . S
C2755 H2747 0.930 . S
C2755 C2756 1.355 . S
C2755 C2757 1.415 . S
C2756 C2755 1.355 . S
C2756 C2758 1.419 . S
C2757 C2752 1.425 . S
C2757 C2754 1.409 . S
C2757 C2755 1.415 . S
C2758 H2748 0.930 . S
C2758 C2756 1.419 . S
C2758 C2759 1.362 . S
C2759 H2749 0.930 . S
C2759 C2752 1.409 . S
C2759 C2758 1.362 . S
H2760 C2766 0.930 . S
H2761 C2769 0.930 . S
H2762 C2770 0.930 . S
H2763 C2771 0.930 . S
H2764 C2774 0.930 . S
H2765 C2775 0.930 . S
C2766 H2760 0.930 . S
C2766 C2767 1.355 . S
C2766 C2768 1.415 . S
C2767 C2766 1.355 . S
C2767 C2769 1.419 . S
C2768 C2766 1.415 . S
C2768 C2773 1.425 . S
C2768 C2775 1.409 . S
C2769 H2761 0.930 . S
C2769 C2767 1.419 . S
C2769 C2770 1.362 . S
C2770 H2762 0.930 . S
C2770 C2769 1.362 . S
C2770 C2773 1.409 . S
C2771 H2763 0.930 . S
C2771 C2772 1.355 . S
C2771 C2773 1.415 . S
C2772 C2771 1.355 . S
C2772 C2774 1.419 . S
C2773 C2768 1.425 . S
C2773 C2770 1.409 . S
C2773 C2771 1.415 . S
C2774 H2764 0.930 . S
C2774 C2772 1.419 . S
C2774 C2775 1.362 . S
C2775 H2765 0.930 . S
C2775 C2768 1.409 . S
C2775 C2774 1.362 . S
H2776 C2782 0.930 . S
H2777 C2785 0.930 . S
H2778 C2786 0.930 . S
H2779 C2787 0.930 . S
H2780 C2790 0.930 . S
H2781 C2791 0.930 . S
C2782 H2776 0.930 . S
C2782 C2783 1.355 . S
C2782 C2784 1.415 . S
C2783 C2782 1.355 . S
C2783 C2785 1.419 . S
C2784 C2782 1.415 . S
C2784 C2789 1.425 . S
C2784 C2791 1.409 . S
C2785 H2777 0.930 . S
C2785 C2783 1.419 . S
C2785 C2786 1.362 . S
C2786 H2778 0.930 . S
C2786 C2785 1.362 . S
C2786 C2789 1.409 . S
C2787 H2779 0.930 . S
C2787 C2788 1.355 . S
C2787 C2789 1.415 . S
C2788 C2787 1.355 . S
C2788 C2790 1.419 . S
C2789 C2784 1.425 . S
C2789 C2786 1.409 . S
C2789 C2787 1.415 . S
C2790 H2780 0.930 . S
C2790 C2788 1.419 . S
C2790 C2791 1.362 . S
C2791 H2781 0.930 . S
C2791 C2784 1.409 . S
C2791 C2790 1.362 . S
H2792 C2798 0.930 . S
H2793 C2801 0.930 . S
H2794 C2802 0.930 . S
H2795 C2803 0.930 . S
H2796 C2806 0.930 . S
H2797 C2807 0.930 . S
C2798 H2792 0.930 . S
C2798 C2799 1.355 . S
C2798 C2800 1.415 . S
C2799 C2798 1.355 . S
C2799 C2801 1.419 . S
C2800 C2798 1.415 . S
C2800 C2805 1.425 . S
C2800 C2807 1.409 . S
C2801 H2793 0.930 . S
C2801 C2799 1.419 . S
C2801 C2802 1.362 . S
C2802 H2794 0.930 . S
C2802 C2801 1.362 . S
C2802 C2805 1.409 . S
C2803 H2795 0.930 . S
C2803 C2804 1.355 . S
C2803 C2805 1.415 . S
C2804 C2803 1.355 . S
C2804 C2806 1.419 . S
C2805 C2800 1.425 . S
C2805 C2802 1.409 . S
C2805 C2803 1.415 . S
C2806 H2796 0.930 . S
C2806 C2804 1.419 . S
C2806 C2807 1.362 . S
C2807 H2797 0.930 . S
C2807 C2800 1.409 . S
C2807 C2806 1.362 . S
H2808 C2814 0.930 . S
H2809 C2817 0.930 . S
H2810 C2818 0.930 . S
H2811 C2819 0.930 . S
H2812 C2822 0.930 . S
H2813 C2823 0.930 . S
C2814 H2808 0.930 . S
C2814 C2815 1.355 . S
C2814 C2816 1.415 . S
C2815 C2814 1.355 . S
C2815 C2817 1.419 . S
C2816 C2814 1.415 . S
C2816 C2821 1.425 . S
C2816 C2823 1.409 . S
C2817 H2809 0.930 . S
C2817 C2815 1.419 . S
C2817 C2818 1.362 . S
C2818 H2810 0.930 . S
C2818 C2817 1.362 . S
C2818 C2821 1.409 . S
C2819 H2811 0.930 . S
C2819 C2820 1.355 . S
C2819 C2821 1.415 . S
C2820 C2819 1.355 . S
C2820 C2822 1.419 . S
C2821 C2816 1.425 . S
C2821 C2818 1.409 . S
C2821 C2819 1.415 . S
C2822 H2812 0.930 . S
C2822 C2820 1.419 . S
C2822 C2823 1.362 . S
C2823 H2813 0.930 . S
C2823 C2816 1.409 . S
C2823 C2822 1.362 . S
H2824 C2830 0.930 . S
H2825 C2833 0.930 . S
H2826 C2834 0.930 . S
H2827 C2835 0.930 . S
H2828 C2838 0.930 . S
H2829 C2839 0.930 . S
C2830 H2824 0.930 . S
C2830 C2831 1.355 . S
C2830 C2832 1.415 . S
C2831 C2830 1.355 . S
C2831 C2833 1.419 . S
C2832 C2830 1.415 . S
C2832 C2837 1.425 . S
C2832 C2839 1.409 . S
C2833 H2825 0.930 . S
C2833 C2831 1.419 . S
C2833 C2834 1.362 . S
C2834 H2826 0.930 . S
C2834 C2833 1.362 . S
C2834 C2837 1.409 . S
C2835 H2827 0.930 . S
C2835 C2836 1.355 . S
C2835 C2837 1.415 . S
C2836 C2835 1.355 . S
C2836 C2838 1.419 . S
C2837 C2832 1.425 . S
C2837 C2834 1.409 . S
C2837 C2835 1.415 . S
C2838 H2828 0.930 . S
C2838 C2836 1.419 . S
C2838 C2839 1.362 . S
C2839 H2829 0.930 . S
C2839 C2832 1.409 . S
C2839 C2838 1.362 . S
H2840 C2846 0.930 . S
H2841 C2849 0.930 . S
H2842 C2850 0.930 . S
H2843 C2851 0.930 . S
H2844 C2854 0.930 . S
H2845 C2855 0.930 . S
C2846 H2840 0.930 . S
C2846 C2847 1.355 . S
C2846 C2848 1.415 . S
C2847 C2846 1.355 . S
C2847 C2849 1.419 . S
C2848 C2846 1.415 . S
C2848 C2853 1.425 . S
C2848 C2855 1.409 . S
C2849 H2841 0.930 . S
C2849 C2847 1.419 . S
C2849 C2850 1.362 . S
C2850 H2842 0.930 . S
C2850 C2849 1.362 . S
C2850 C2853 1.409 . S
C2851 H2843 0.930 . S
C2851 C2852 1.355 . S
C2851 C2853 1.415 . S
C2852 C2851 1.355 . S
C2852 C2854 1.419 . S
C2853 C2848 1.425 . S
C2853 C2850 1.409 . S
C2853 C2851 1.415 . S
C2854 H2844 0.930 . S
C2854 C2852 1.419 . S
C2854 C2855 1.362 . S
C2855 H2845 0.930 . S
C2855 C2848 1.409 . S
C2855 C2854 1.362 . S
H2856 C2862 0.930 . S
H2857 C2865 0.930 . S
H2858 C2866 0.930 . S
H2859 C2867 0.930 . S
H2860 C2870 0.930 . S
H2861 C2871 0.930 . S
C2862 H2856 0.930 . S
C2862 C2863 1.355 . S
C2862 C2864 1.415 . S
C2863 C2862 1.355 . S
C2863 C2865 1.419 . S
C2864 C2862 1.415 . S
C2864 C2869 1.425 . S
C2864 C2871 1.409 . S
C2865 H2857 0.930 . S
C2865 C2863 1.419 . S
C2865 C2866 1.362 . S
C2866 H2858 0.930 . S
C2866 C2865 1.362 . S
C2866 C2869 1.409 . S
C2867 H2859 0.930 . S
C2867 C2868 1.355 . S
C2867 C2869 1.415 . S
C2868 C2867 1.355 . S
C2868 C2870 1.419 . S
C2869 C2864 1.425 . S
C2869 C2866 1.409 . S
C2869 C2867 1.415 . S
C2870 H2860 0.930 . S
C2870 C2868 1.419 . S
C2870 C2871 1.362 . S
C2871 H2861 0.930 . S
C2871 C2864 1.409 . S
C2871 C2870 1.362 . S
H2872 C2878 0.930 . S
H2873 C2881 0.930 . S
H2874 C2882 0.930 . S
H2875 C2883 0.930 . S
H2876 C2886 0.930 . S
H2877 C2887 0.930 . S
C2878 H2872 0.930 . S
C2878 C2879 1.355 . S
C2878 C2880 1.415 . S
C2879 C2878 1.355 . S
C2879 C2881 1.419 . S
C2880 C2878 1.415 . S
C2880 C2885 1.425 . S
C2880 C2887 1.409 . S
C2881 H2873 0.930 . S
C2881 C2879 1.419 . S
C2881 C2882 1.362 . S
C2882 H2874 0.930 . S
C2882 C2881 1.362 . S
C2882 C2885 1.409 . S
C2883 H2875 0.930 . S
C2883 C2884 1.355 . S
C2883 C2885 1.415 . S
C2884 C2883 1.355 . S
C2884 C2886 1.419 . S
C2885 C2880 1.425 . S
C2885 C2882 1.409 . S
C2885 C2883 1.415 . S
C2886 H2876 0.930 . S
C2886 C2884 1.419 . S
C2886 C2887 1.362 . S
C2887 H2877 0.930 . S
C2887 C2880 1.409 . S
C2887 C2886 1.362 . S
H2888 C2894 0.930 . S
H2889 C2897 0.930 . S
H2890 C2898 0.930 . S
H2891 C2899 0.930 . S
H2892 C2902 0.930 . S
H2893 C2903 0.930 . S
C2894 H2888 0.930 . S
C2894 C2895 1.355 . S
C2894 C2896 1.415 . S
C2895 C2894 1.355 . S
C2895 C2897 1.419 . S
C2896 C2894 1.415 . S
C2896 C2901 1.425 . S
C2896 C2903 1.409 . S
C2897 H2889 0.930 . S
C2897 C2895 1.419 . S
C2897 C2898 1.362 . S
C2898 H2890 0.930 . S
C2898 C2897 1.362 . S
C2898 C2901 1.409 . S
C2899 H2891 0.930 . S
C2899 C2900 1.355 . S
C2899 C2901 1.415 . S
C2900 C2899 1.355 . S
C2900 C2902 1.419 . S
C2901 C2896 1.425 . S
C2901 C2898 1.409 . S
C2901 C2899 1.415 . S
C2902 H2892 0.930 . S
C2902 C2900 1.419 . S
C2902 C2903 1.362 . S
C2903 H2893 0.930 . S
C2903 C2896 1.409 . S
C2903 C2902 1.362 . S
H2904 C2910 0.930 . S
H2905 C2913 0.930 . S
H2906 C2914 0.930 . S
H2907 C2915 0.930 . S
H2908 C2918 0.930 . S
H2909 C2919 0.930 . S
C2910 H2904 0.930 . S
C2910 C2911 1.355 . S
C2910 C2912 1.415 . S
C2911 C2910 1.355 . S
C2911 C2913 1.419 . S
C2912 C2910 1.415 . S
C2912 C2917 1.425 . S
C2912 C2919 1.409 . S
C2913 H2905 0.930 . S
C2913 C2911 1.419 . S
C2913 C2914 1.362 . S
C2914 H2906 0.930 . S
C2914 C2913 1.362 . S
C2914 C2917 1.409 . S
C2915 H2907 0.930 . S
C2915 C2916 1.355 . S
C2915 C2917 1.415 . S
C2916 C2915 1.355 . S
C2916 C2918 1.419 . S
C2917 C2912 1.425 . S
C2917 C2914 1.409 . S
C2917 C2915 1.415 . S
C2918 H2908 0.930 . S
C2918 C2916 1.419 . S
C2918 C2919 1.362 . S
C2919 H2909 0.930 . S
C2919 C2912 1.409 . S
C2919 C2918 1.362 . S
H2920 C2926 0.930 . S
H2921 C2929 0.930 . S
H2922 C2930 0.930 . S
H2923 C2931 0.930 . S
H2924 C2934 0.930 . S
H2925 C2935 0.930 . S
C2926 H2920 0.930 . S
C2926 C2927 1.355 . S
C2926 C2928 1.415 . S
C2927 C2926 1.355 . S
C2927 C2929 1.419 . S
C2928 C2926 1.415 . S
C2928 C2933 1.425 . S
C2928 C2935 1.409 . S
C2929 H2921 0.930 . S
C2929 C2927 1.419 . S
C2929 C2930 1.362 . S
C2930 H2922 0.930 . S
C2930 C2929 1.362 . S
C2930 C2933 1.409 . S
C2931 H2923 0.930 . S
C2931 C2932 1.355 . S
C2931 C2933 1.415 . S
C2932 C2931 1.355 . S
C2932 C2934 1.419 . S
C2933 C2928 1.425 . S
C2933 C2930 1.409 . S
C2933 C2931 1.415 . S
C2934 H2924 0.930 . S
C2934 C2932 1.419 . S
C2934 C2935 1.362 . S
C2935 H2925 0.930 . S
C2935 C2928 1.409 . S
C2935 C2934 1.362 . S
H2936 C2942 0.930 . S
H2937 C2945 0.930 . S
H2938 C2946 0.930 . S
H2939 C2947 0.930 . S
H2940 C2950 0.930 . S
H2941 C2951 0.930 . S
C2942 H2936 0.930 . S
C2942 C2943 1.355 . S
C2942 C2944 1.415 . S
C2943 C2942 1.355 . S
C2943 C2945 1.419 . S
C2944 C2942 1.415 . S
C2944 C2949 1.425 . S
C2944 C2951 1.409 . S
C2945 H2937 0.930 . S
C2945 C2943 1.419 . S
C2945 C2946 1.362 . S
C2946 H2938 0.930 . S
C2946 C2945 1.362 . S
C2946 C2949 1.409 . S
C2947 H2939 0.930 . S
C2947 C2948 1.355 . S
C2947 C2949 1.415 . S
C2948 C2947 1.355 . S
C2948 C2950 1.419 . S
C2949 C2944 1.425 . S
C2949 C2946 1.409 . S
C2949 C2947 1.415 . S
C2950 H2940 0.930 . S
C2950 C2948 1.419 . S
C2950 C2951 1.362 . S
C2951 H2941 0.930 . S
C2951 C2944 1.409 . S
C2951 C2950 1.362 . S
H2952 C2958 0.930 . S
H2953 C2961 0.930 . S
H2954 C2962 0.930 . S
H2955 C2963 0.930 . S
H2956 C2966 0.930 . S
H2957 C2967 0.930 . S
C2958 H2952 0.930 . S
C2958 C2959 1.355 . S
C2958 C2960 1.415 . S
C2959 C2958 1.355 . S
C2959 C2961 1.419 . S
C2960 C2958 1.415 . S
C2960 C2965 1.425 . S
C2960 C2967 1.409 . S
C2961 H2953 0.930 . S
C2961 C2959 1.419 . S
C2961 C2962 1.362 . S
C2962 H2954 0.930 . S
C2962 C2961 1.362 . S
C2962 C2965 1.409 . S
C2963 H2955 0.930 . S
C2963 C2964 1.355 . S
C2963 C2965 1.415 . S
C2964 C2963 1.355 . S
C2964 C2966 1.419 . S
C2965 C2960 1.425 . S
C2965 C2962 1.409 . S
C2965 C2963 1.415 . S
C2966 H2956 0.930 . S
C2966 C2964 1.419 . S
C2966 C2967 1.362 . S
C2967 H2957 0.930 . S
C2967 C2960 1.409 . S
C2967 C2966 1.362 . S
H2968 C2974 0.930 . S
H2969 C2977 0.930 . S
H2970 C2978 0.930 . S
H2971 C2979 0.930 . S
H2972 C2982 0.930 . S
H2973 C2983 0.930 . S
C2974 H2968 0.930 . S
C2974 C2975 1.355 . S
C2974 C2976 1.415 . S
C2975 C2974 1.355 . S
C2975 C2977 1.419 . S
C2976 C2974 1.415 . S
C2976 C2981 1.425 . S
C2976 C2983 1.409 . S
C2977 H2969 0.930 . S
C2977 C2975 1.419 . S
C2977 C2978 1.362 . S
C2978 H2970 0.930 . S
C2978 C2977 1.362 . S
C2978 C2981 1.409 . S
C2979 H2971 0.930 . S
C2979 C2980 1.355 . S
C2979 C2981 1.415 . S
C2980 C2979 1.355 . S
C2980 C2982 1.419 . S
C2981 C2976 1.425 . S
C2981 C2978 1.409 . S
C2981 C2979 1.415 . S
C2982 H2972 0.930 . S
C2982 C2980 1.419 . S
C2982 C2983 1.362 . S
C2983 H2973 0.930 . S
C2983 C2976 1.409 . S
C2983 C2982 1.362 . S
H2984 C2990 0.930 . S
H2985 C2993 0.930 . S
H2986 C2994 0.930 . S
H2987 C2995 0.930 . S
H2988 C2998 0.930 . S
H2989 C2999 0.930 . S
C2990 H2984 0.930 . S
C2990 C2991 1.355 . S
C2990 C2992 1.415 . S
C2991 C2990 1.355 . S
C2991 C2993 1.419 . S
C2992 C2990 1.415 . S
C2992 C2997 1.425 . S
C2992 C2999 1.409 . S
C2993 H2985 0.930 . S
C2993 C2991 1.419 . S
C2993 C2994 1.362 . S
C2994 H2986 0.930 . S
C2994 C2993 1.362 . S
C2994 C2997 1.409 . S
C2995 H2987 0.930 . S
C2995 C2996 1.355 . S
C2995 C2997 1.415 . S
C2996 C2995 1.355 . S
C2996 C2998 1.419 . S
C2997 C2992 1.425 . S
C2997 C2994 1.409 . S
C2997 C2995 1.415 . S
C2998 H2988 0.930 . S
C2998 C2996 1.419 . S
C2998 C2999 1.362 . S
C2999 H2989 0.930 . S
C2999 C2992 1.409 . S
C2999 C2998 1.362 . S
H3000 C3006 0.930 . S
H3001 C3009 0.930 . S
H3002 C3010 0.930 . S
H3003 C3011 0.930 . S
H3004 C3014 0.930 . S
H3005 C3015 0.930 . S
C3006 H3000 0.930 . S
C3006 C3007 1.355 . S
C3006 C3008 1.415 . S
C3007 C3006 1.355 . S
C3007 C3009 1.419 . S
C3008 C3006 1.415 . S
C3008 C3013 1.425 . S
C3008 C3015 1.409 . S
C3009 H3001 0.930 . S
C3009 C3007 1.419 . S
C3009 C3010 1.362 . S
C3010 H3002 0.930 . S
C3010 C3009 1.362 . S
C3010 C3013 1.409 . S
C3011 H3003 0.930 . S
C3011 C3012 1.355 . S
C3011 C3013 1.415 . S
C3012 C3011 1.355 . S
C3012 C3014 1.419 . S
C3013 C3008 1.425 . S
C3013 C3010 1.409 . S
C3013 C3011 1.415 . S
C3014 H3004 0.930 . S
C3014 C3012 1.419 . S
C3014 C3015 1.362 . S
C3015 H3005 0.930 . S
C3015 C3008 1.409 . S
C3015 C3014 1.362 . S
H3016 C3022 0.930 . S
H3017 C3025 0.930 . S
H3018 C3026 0.930 . S
H3019 C3027 0.930 . S
H3020 C3030 0.930 . S
H3021 C3031 0.930 . S
C3022 H3016 0.930 . S
C3022 C3023 1.355 . S
C3022 C3024 1.415 . S
C3023 C3022 1.355 . S
C3023 C3025 1.419 . S
C3024 C3022 1.415 . S
C3024 C3029 1.425 . S
C3024 C3031 1.409 . S
C3025 H3017 0.930 . S
C3025 C3023 1.419 . S
C3025 C3026 1.362 . S
C3026 H3018 0.930 . S
C3026 C3025 1.362 . S
C3026 C3029 1.409 . S
C3027 H3019 0.930 . S
C3027 C3028 1.355 . S
C3027 C3029 1.415 . S
C3028 C3027 1.355 . S
C3028 C3030 1.419 . S
C3029 C3024 1.425 . S
C3029 C3026 1.409 . S
C3029 C3027 1.415 . S
C3030 H3020 0.930 . S
C3030 C3028 1.419 . S
C3030 C3031 1.362 . S
C3031 H3021 0.930 . S
C3031 C3024 1.409 . S
C3031 C3030 1.362 . S
H3032 C3038 0.930 . S
H3033 C3041 0.930 . S
H3034 C3042 0.930 . S
H3035 C3043 0.930 . S
H3036 C3046 0.930 . S
H3037 C3047 0.930 . S
C3038 H3032 0.930 . S
C3038 C3039 1.355 . S
C3038 C3040 1.415 . S
C3039 C3038 1.355 . S
C3039 C3041 1.419 . S
C3040 C3038 1.415 . S
C3040 C3045 1.425 . S
C3040 C3047 1.409 . S
C3041 H3033 0.930 . S
C3041 C3039 1.419 . S
C3041 C3042 1.362 . S
C3042 H3034 0.930 . S
C3042 C3041 1.362 . S
C3042 C3045 1.409 . S
C3043 H3035 0.930 . S
C3043 C3044 1.355 . S
C3043 C3045 1.415 . S
C3044 C3043 1.355 . S
C3044 C3046 1.419 . S
C3045 C3040 1.425 . S
C3045 C3042 1.409 . S
C3045 C3043 1.415 . S
C3046 H3036 0.930 . S
C3046 C3044 1.419 . S
C3046 C3047 1.362 . S
C3047 H3037 0.930 . S
C3047 C3040 1.409 . S
C3047 C3046 1.362 . S
H3048 C3054 0.930 . S
H3049 C3057 0.930 . S
H3050 C3058 0.930 . S
H3051 C3059 0.930 . S
H3052 C3062 0.930 . S
H3053 C3063 0.930 . S
C3054 H3048 0.930 . S
C3054 C3055 1.355 . S
C3054 C3056 1.415 . S
C3055 C3054 1.355 . S
C3055 C3057 1.419 . S
C3056 C3054 1.415 . S
C3056 C3061 1.425 . S
C3056 C3063 1.409 . S
C3057 H3049 0.930 . S
C3057 C3055 1.419 . S
C3057 C3058 1.362 . S
C3058 H3050 0.930 . S
C3058 C3057 1.362 . S
C3058 C3061 1.409 . S
C3059 H3051 0.930 . S
C3059 C3060 1.355 . S
C3059 C3061 1.415 . S
C3060 C3059 1.355 . S
C3060 C3062 1.419 . S
C3061 C3056 1.425 . S
C3061 C3058 1.409 . S
C3061 C3059 1.415 . S
C3062 H3052 0.930 . S
C3062 C3060 1.419 . S
C3062 C3063 1.362 . S
C3063 H3053 0.930 . S
C3063 C3056 1.409 . S
C3063 C3062 1.362 . S
H3064 C3070 0.930 . S
H3065 C3073 0.930 . S
H3066 C3074 0.930 . S
H3067 C3075 0.930 . S
H3068 C3078 0.930 . S
H3069 C3079 0.930 . S
C3070 H3064 0.930 . S
C3070 C3071 1.355 . S
C3070 C3072 1.415 . S
C3071 C3070 1.355 . S
C3071 C3073 1.419 . S
C3072 C3070 1.415 . S
C3072 C3077 1.425 . S
C3072 C3079 1.409 . S
C3073 H3065 0.930 . S
C3073 C3071 1.419 . S
C3073 C3074 1.362 . S
C3074 H3066 0.930 . S
C3074 C3073 1.362 . S
C3074 C3077 1.409 . S
C3075 H3067 0.930 . S
C3075 C3076 1.355 . S
C3075 C3077 1.415 . S
C3076 C3075 1.355 . S
C3076 C3078 1.419 . S
C3077 C3072 1.425 . S
C3077 C3074 1.409 . S
C3077 C3075 1.415 . S
C3078 H3068 0.930 . S
C3078 C3076 1.419 . S
C3078 C3079 1.362 . S
C3079 H3069 0.930 . S
C3079 C3072 1.409 . S
C3079 C3078 1.362 . S
H3080 C3086 0.930 . S
H3081 C3089 0.930 . S
H3082 C3090 0.930 . S
H3083 C3091 0.930 . S
H3084 C3094 0.930 . S
H3085 C3095 0.930 . S
C3086 H3080 0.930 . S
C3086 C3087 1.355 . S
C3086 C3088 1.415 . S
C3087 C3086 1.355 . S
C3087 C3089 1.419 . S
C3088 C3086 1.415 . S
C3088 C3093 1.425 . S
C3088 C3095 1.409 . S
C3089 H3081 0.930 . S
C3089 C3087 1.419 . S
C3089 C3090 1.362 . S
C3090 H3082 0.930 . S
C3090 C3089 1.362 . S
C3090 C3093 1.409 . S
C3091 H3083 0.930 . S
C3091 C3092 1.355 . S
C3091 C3093 1.415 . S
C3092 C3091 1.355 . S
C3092 C3094 1.419 . S
C3093 C3088 1.425 . S
C3093 C3090 1.409 . S
C3093 C3091 1.415 . S
C3094 H3084 0.930 . S
C3094 C3092 1.419 . S
C3094 C3095 1.362 . S
C3095 H3085 0.930 . S
C3095 C3088 1.409 . S
C3095 C3094 1.362 . S
H3096 C3102 0.930 . S
H3097 C3105 0.930 . S
H3098 C3106 0.930 . S
H3099 C3107 0.930 . S
H3100 C3110 0.930 . S
H3101 C3111 0.930 . S
C3102 H3096 0.930 . S
C3102 C3103 1.355 . S
C3102 C3104 1.415 . S
C3103 C3102 1.355 . S
C3103 C3105 1.419 . S
C3104 C3102 1.415 . S
C3104 C3109 1.425 . S
C3104 C3111 1.409 . S
C3105 H3097 0.930 . S
C3105 C3103 1.419 . S
C3105 C3106 1.362 . S
C3106 H3098 0.930 . S
C3106 C3105 1.362 . S
C3106 C3109 1.409 . S
C3107 H3099 0.930 . S
C3107 C3108 1.355 . S
C3107 C3109 1.415 . S
C3108 C3107 1.355 . S
C3108 C3110 1.419 . S
C3109 C3104 1.425 . S
C3109 C3106 1.409 . S
C3109 C3107 1.415 . S
C3110 H3100 0.930 . S
C3110 C3108 1.419 . S
C3110 C3111 1.362 . S
C3111 H3101 0.930 . S
C3111 C3104 1.409 . S
C3111 C3110 1.362 . S
H3112 C3118 0.930 . S
H3113 C3121 0.930 . S
H3114 C3122 0.930 . S
H3115 C3123 0.930 . S
H3116 C3126 0.930 . S
H3117 C3127 0.930 . S
C3118 H3112 0.930 . S
C3118 C3119 1.355 . S
C3118 C3120 1.415 . S
C3119 C3118 1.355 . S
C3119 C3121 1.419 . S
C3120 C3118 1.415 . S
C3120 C3125 1.425 . S
C3120 C3127 1.409 . S
C3121 H3113 0.930 . S
C3121 C3119 1.419 . S
C3121 C3122 1.362 . S
C3122 H3114 0.930 . S
C3122 C3121 1.362 . S
C3122 C3125 1.409 . S
C3123 H3115 0.930 . S
C3123 C3124 1.355 . S
C3123 C3125 1.415 . S
C3124 C3123 1.355 . S
C3124 C3126 1.419 . S
C3125 C3120 1.425 . S
C3125 C3122 1.409 . S
C3125 C3123 1.415 . S
C3126 H3116 0.930 . S
C3126 C3124 1.419 . S
C3126 C3127 1.362 . S
C3127 H3117 0.930 . S
C3127 C3120 1.409 . S
C3127 C3126 1.362 . S
H3128 C3134 0.930 . S
H3129 C3137 0.930 . S
H3130 C3138 0.930 . S
H3131 C3139 0.930 . S
H3132 C3142 0.930 . S
H3133 C3143 0.930 . S
C3134 H3128 0.930 . S
C3134 C3135 1.355 . S
C3134 C3136 1.415 . S
C3135 C3134 1.355 . S
C3135 C3137 1.419 . S
C3136 C3134 1.415 . S
C3136 C3141 1.425 . S
C3136 C3143 1.409 . S
C3137 H3129 0.930 . S
C3137 C3135 1.419 . S
C3137 C3138 1.362 . S
C3138 H3130 0.930 . S
C3138 C3137 1.362 . S
C3138 C3141 1.409 . S
C3139 H3131 0.930 . S
C3139 C3140 1.355 . S
C3139 C3141 1.415 . S
C3140 C3139 1.355 . S
C3140 C3142 1.419 . S
C3141 C3136 1.425 . S
C3141 C3138 1.409 . S
C3141 C3139 1.415 . S
C3142 H3132 0.930 . S
C3142 C3140 1.419 . S
C3142 C3143 1.362 . S
C3143 H3133 0.930 . S
C3143 C3136 1.409 . S
C3143 C3142 1.362 . S
H3144 C3150 0.930 . S
H3145 C3153 0.930 . S
H3146 C3154 0.930 . S
H3147 C3155 0.930 . S
H3148 C3158 0.930 . S
H3149 C3159 0.930 . S
C3150 H3144 0.930 . S
C3150 C3151 1.355 . S
C3150 C3152 1.415 . S
C3151 C3150 1.355 . S
C3151 C3153 1.419 . S
C3152 C3150 1.415 . S
C3152 C3157 1.425 . S
C3152 C3159 1.409 . S
C3153 H3145 0.930 . S
C3153 C3151 1.419 . S
C3153 C3154 1.362 . S
C3154 H3146 0.930 . S
C3154 C3153 1.362 . S
C3154 C3157 1.409 . S
C3155 H3147 0.930 . S
C3155 C3156 1.355 . S
C3155 C3157 1.415 . S
C3156 C3155 1.355 . S
C3156 C3158 1.419 . S
C3157 C3152 1.425 . S
C3157 C3154 1.409 . S
C3157 C3155 1.415 . S
C3158 H3148 0.930 . S
C3158 C3156 1.419 . S
C3158 C3159 1.362 . S
C3159 H3149 0.930 . S
C3159 C3152 1.409 . S
C3159 C3158 1.362 . S
H3160 C3166 0.930 . S
H3161 C3169 0.930 . S
H3162 C3170 0.930 . S
H3163 C3171 0.930 . S
H3164 C3174 0.930 . S
H3165 C3175 0.930 . S
C3166 H3160 0.930 . S
C3166 C3167 1.355 . S
C3166 C3168 1.415 . S
C3167 C3166 1.355 . S
C3167 C3169 1.419 . S
C3168 C3166 1.415 . S
C3168 C3173 1.425 . S
C3168 C3175 1.409 . S
C3169 H3161 0.930 . S
C3169 C3167 1.419 . S
C3169 C3170 1.362 . S
C3170 H3162 0.930 . S
C3170 C3169 1.362 . S
C3170 C3173 1.409 . S
C3171 H3163 0.930 . S
C3171 C3172 1.355 . S
C3171 C3173 1.415 . S
C3172 C3171 1.355 . S
C3172 C3174 1.419 . S
C3173 C3168 1.425 . S
C3173 C3170 1.409 . S
C3173 C3171 1.415 . S
C3174 H3164 0.930 . S
C3174 C3172 1.419 . S
C3174 C3175 1.362 . S
C3175 H3165 0.930 . S
C3175 C3168 1.409 . S
C3175 C3174 1.362 . S
H3176 C3182 0.930 . S
H3177 C3185 0.930 . S
H3178 C3186 0.930 . S
H3179 C3187 0.930 . S
H3180 C3190 0.930 . S
H3181 C3191 0.930 . S
C3182 H3176 0.930 . S
C3182 C3183 1.355 . S
C3182 C3184 1.415 . S
C3183 C3182 1.355 . S
C3183 C3185 1.419 . S
C3184 C3182 1.415 . S
C3184 C3189 1.425 . S
C3184 C3191 1.409 . S
C3185 H3177 0.930 . S
C3185 C3183 1.419 . S
C3185 C3186 1.362 . S
C3186 H3178 0.930 . S
C3186 C3185 1.362 . S
C3186 C3189 1.409 . S
C3187 H3179 0.930 . S
C3187 C3188 1.355 . S
C3187 C3189 1.415 . S
C3188 C3187 1.355 . S
C3188 C3190 1.419 . S
C3189 C3184 1.425 . S
C3189 C3186 1.409 . S
C3189 C3187 1.415 . S
C3190 H3180 0.930 . S
C3190 C3188 1.419 . S
C3190 C3191 1.362 . S
C3191 H3181 0.930 . S
C3191 C3184 1.409 . S
C3191 C3190 1.362 . S
H3192 C3198 0.930 . S
H3193 C3201 0.930 . S
H3194 C3202 0.930 . S
H3195 C3203 0.930 . S
H3196 C3206 0.930 . S
H3197 C3207 0.930 . S
C3198 H3192 0.930 . S
C3198 C3199 1.355 . S
C3198 C3200 1.415 . S
C3199 C3198 1.355 . S
C3199 C3201 1.419 . S
C3200 C3198 1.415 . S
C3200 C3205 1.425 . S
C3200 C3207 1.409 . S
C3201 H3193 0.930 . S
C3201 C3199 1.419 . S
C3201 C3202 1.362 . S
C3202 H3194 0.930 . S
C3202 C3201 1.362 . S
C3202 C3205 1.409 . S
C3203 H3195 0.930 . S
C3203 C3204 1.355 . S
C3203 C3205 1.415 . S
C3204 C3203 1.355 . S
C3204 C3206 1.419 . S
C3205 C3200 1.425 . S
C3205 C3202 1.409 . S
C3205 C3203 1.415 . S
C3206 H3196 0.930 . S
C3206 C3204 1.419 . S
C3206 C3207 1.362 . S
C3207 H3197 0.930 . S
C3207 C3200 1.409 . S
C3207 C3206 1.362 . S
H3208 C3214 0.930 . S
H3209 C3217 0.930 . S
H3210 C3218 0.930 . S
H3211 C3219 0.930 . S
H3212 C3222 0.930 . S
H3213 C3223 0.930 . S
C3214 H3208 0.930 . S
C3214 C3215 1.355 . S
C3214 C3216 1.415 . S
C3215 C3214 1.355 . S
C3215 C3217 1.419 . S
C3216 C3214 1.415 . S
C3216 C3221 1.425 . S
C3216 C3223 1.409 . S
C3217 H3209 0.930 . S
C3217 C3215 1.419 . S
C3217 C3218 1.362 . S
C3218 H3210 0.930 . S
C3218 C3217 1.362 . S
C3218 C3221 1.409 . S
C3219 H3211 0.930 . S
C3219 C3220 1.355 . S
C3219 C3221 1.415 . S
C3220 C3219 1.355 . S
C3220 C3222 1.419 . S
C3221 C3216 1.425 . S
C3221 C3218 1.409 . S
C3221 C3219 1.415 . S
C3222 H3212 0.930 . S
C3222 C3220 1.419 . S
C3222 C3223 1.362 . S
C3223 H3213 0.930 . S
C3223 C3216 1.409 . S
C3223 C3222 1.362 . S
H3224 C3230 0.930 . S
H3225 C3233 0.930 . S
H3226 C3234 0.930 . S
H3227 C3235 0.930 . S
H3228 C3238 0.930 . S
H3229 C3239 0.930 . S
C3230 H3224 0.930 . S
C3230 C3231 1.355 . S
C3230 C3232 1.415 . S
C3231 C3230 1.355 . S
C3231 C3233 1.419 . S
C3232 C3230 1.415 . S
C3232 C3237 1.425 . S
C3232 C3239 1.409 . S
C3233 H3225 0.930 . S
C3233 C3231 1.419 . S
C3233 C3234 1.362 . S
C3234 H3226 0.930 . S
C3234 C3233 1.362 . S
C3234 C3237 1.409 . S
C3235 H3227 0.930 . S
C3235 C3236 1.355 . S
C3235 C3237 1.415 . S
C3236 C3235 1.355 . S
C3236 C3238 1.419 . S
C3237 C3232 1.425 . S
C3237 C3234 1.409 . S
C3237 C3235 1.415 . S
C3238 H3228 0.930 . S
C3238 C3236 1.419 . S
C3238 C3239 1.362 . S
C3239 H3229 0.930 . S
C3239 C3232 1.409 . S
C3239 C3238 1.362 . S
C1716 N1164 1.423 . S
C1711 C31 1.480 . S
C1732 C1191 1.573 . S
C1727 C61 1.581 . S
C1743 C73 1.510 . S
C1748 C1205 1.499 . S
C1764 N1223 1.458 . S
C1759 C133 1.485 . S
C1775 C175 1.552 . S
C1780 C1228 1.559 . S
C1791 C211 1.489 . S
C1796 C1168 1.512 . S
C1807 C241 1.424 . S
C1812 N1187 1.404 . S
C1828 N1200 1.425 . S
C1823 C253 1.499 . S
C1844 N1246 1.413 . S
C1839 C1 1.446 . S
C1855 C37 1.529 . S
C1860 N1269 1.474 . S
C1871 C103 1.577 . S
C1876 N1292 1.548 . S
C1892 N1325 1.417 . S
C1887 C139 1.465 . S
C1903 C145 1.534 . S
C1908 C1352 1.536 . S
C1924 C1375 1.559 . S
C1919 C205 1.569 . S
C1935 C247 1.492 . S
C1940 C1398 1.497 . S
C1956 C1412 1.448 . S
C1951 C283 1.440 . S
C1967 C25 1.447 . S
C1972 C1329 1.442 . S
C1983 C169 1.482 . S
C1988 N1371 1.469 . S
C2004 N1394 1.402 . S
C1999 C181 1.477 . S
C2015 C217 1.486 . S
C2020 N1407 1.471 . S
C2036 N1348 1.374 . S
C2031 C277 1.454 . S
C2052 C1274 1.645 . S
C2047 C97 1.653 . S
C2063 C109 1.523 . S
C2068 C1297 1.519 . S
C2084 C1251 1.580 . S
C2079 C67 1.592 . S
C2100 C1444 1.449 . S
C2095 C319 1.458 . S
C2111 C349 1.595 . S
C2116 C1458 1.586 . S
C2127 C361 1.506 . S
C2132 N1486 1.491 . S
C2148 N1499 1.460 . S
C2143 C421 1.470 . S
C2159 C463 1.586 . S
C2164 C1504 1.587 . S
C2175 C499 1.496 . S
C2180 N1440 1.417 . S
C2191 C529 1.523 . S
C2196 N1453 1.516 . S
C2207 C541 1.445 . S
C2212 C1490 1.458 . S
C2228 N1338 1.429 . S
C2223 C289 1.451 . S
C2239 C325 1.503 . S
C2244 N1522 1.467 . S
C2260 N1384 1.430 . S
C2255 C391 1.479 . S
C2271 C427 1.502 . S
C2276 C1559 1.519 . S
C2287 C433 1.577 . S
C2292 C1260 1.575 . S
C2308 C1573 1.593 . S
C2303 C493 1.600 . S
C2319 C535 1.527 . S
C2324 C1306 1.536 . S
C2340 N1591 1.419 . S
C2335 C571 1.432 . S
C2351 C313 1.464 . S
C2356 N1555 1.430 . S
C2372 N1568 1.438 . S
C2367 C457 1.488 . S
C2383 C469 1.476 . S
C2388 N1302 1.460 . S
C2404 C1596 1.444 . S
C2399 C505 1.438 . S
C2415 C565 1.441 . S
C2420 N1256 1.391 . S
C2431 C385 1.569 . S
C2436 C1527 1.565 . S
C2447 C397 1.544 . S
C2452 C1389 1.548 . S
C2463 C355 1.580 . S
C2468 C1343 1.593 . S
C2479 C607 1.529 . S
C2484 C1481 1.528 . S
C2500 C1513 1.534 . S
C2495 C637 1.536 . S
C2511 C649 1.476 . S
C2516 N1430 1.410 . S
C2527 C709 1.435 . S
C2532 N1463 1.381 . S
C2543 C751 1.583 . S
C2548 C1467 1.571 . S
C2559 C787 1.541 . S
C2564 N1476 1.519 . S
C2580 N1509 1.330 . S
C2575 C817 1.384 . S
C2591 C829 1.497 . S
C2596 C1435 1.486 . S
C2612 N1624 1.461 . S
C2607 C577 1.475 . S
C2623 C613 1.455 . S
C2628 N1361 1.437 . S
C2644 N1647 1.356 . S
C2639 C679 1.420 . S
C2655 C715 1.485 . S
C2660 N1417 1.438 . S
C2671 C721 1.537 . S
C2676 C1665 1.546 . S
C2687 C781 1.662 . S
C2692 C1283 1.645 . S
C2708 N1683 1.377 . S
C2703 C823 1.407 . S
C2719 C859 1.488 . S
C2724 C1320 1.495 . S
C2740 C1421 1.491 . S
C2735 C601 1.475 . S
C2756 N1279 1.501 . S
C2751 C745 1.528 . S
C2767 C757 1.573 . S
C2772 C1688 1.560 . S
C2783 C793 1.408 . S
C2788 N1315 1.391 . S
C2804 N1660 1.456 . S
C2799 C853 1.500 . S
C2820 C1366 1.551 . S
C2815 C673 1.556 . S
C2836 C1651 1.552 . S
C2831 C685 1.554 . S
C2852 C1628 1.549 . S
C2847 C643 1.559 . S
C2863 C895 1.423 . S
C2868 N1210 1.401 . S
C2879 C925 1.545 . S
C2884 C1237 1.561 . S
C2900 C1159 1.533 . S
C2895 C937 1.542 . S
C2916 N1177 1.399 . S
C2911 C997 1.410 . S
C2932 C1182 1.572 . S
C2927 C1039 1.575 . S
C2948 C1214 1.506 . S
C2943 C1075 1.523 . S
C2964 N1233 1.518 . S
C2959 C1105 1.540 . S
C2975 C1117 1.499 . S
C2980 N1154 1.474 . S
C2991 C865 1.365 . S
C2996 N1670 1.317 . S
C3012 N1578 1.426 . S
C3007 C901 1.488 . S
C3028 C1697 1.587 . S
C3023 C967 1.589 . S
C3044 C1605 1.378 . S
C3039 C1003 1.381 . S
C3055 C1009 1.559 . S
C3060 C1619 1.569 . S
C3076 C1536 1.573 . S
C3071 C1069 1.586 . S
C3092 C1642 1.649 . S
C3087 C1111 1.648 . S
C3103 C1147 1.485 . S
C3108 N1545 1.457 . S
C3124 N1601 1.315 . S
C3119 C889 1.363 . S
C3140 N1532 1.419 . S
C3135 C1033 1.459 . S
C3156 N1637 1.425 . S
C3151 C1045 1.420 . S
C3167 C1081 1.504 . S
C3172 C1550 1.502 . S
C3183 C1141 1.451 . S
C3188 N1614 1.376 . S
C3199 C961 1.662 . S
C3204 C1582 1.642 . S
C3215 C973 1.421 . S
C3220 N1693 1.376 . S
C3236 C1674 1.544 . S
C3231 C931 1.523 . S
