# Generated by pormake.
# Topology ctn, (3,4)-cn, num edge types: 1
# Building blocks:
#     Node 0, Type 0, BuildingBlock: VETTIZ_charged_linker_0, # of connection points: 3
#     Node 1, Type 0, BuildingBlock: VETTIZ_charged_linker_0, # of connection points: 3
#     Node 2, Type 0, BuildingBlock: VETTIZ_charged_linker_0, # of connection points: 3
#     Node 3, Type 0, BuildingBlock: VETTIZ_charged_linker_0, # of connection points: 3
#     Node 4, Type 0, BuildingBlock: VETTIZ_charged_linker_0, # of connection points: 3
#     Node 5, Type 0, BuildingBlock: VETTIZ_charged_linker_0, # of connection points: 3
#     Node 6, Type 0, BuildingBlock: VETTIZ_charged_linker_0, # of connection points: 3
#     Node 7, Type 0, BuildingBlock: VETTIZ_charged_linker_0, # of connection points: 3
#     Node 8, Type 0, BuildingBlock: VETTIZ_charged_linker_0, # of connection points: 3
#     Node 9, Type 0, BuildingBlock: VETTIZ_charged_linker_0, # of connection points: 3
#     Node 10, Type 0, BuildingBlock: VETTIZ_charged_linker_0, # of connection points: 3
#     Node 11, Type 0, BuildingBlock: VETTIZ_charged_linker_0, # of connection points: 3
#     Node 12, Type 0, BuildingBlock: VETTIZ_charged_linker_0, # of connection points: 3
#     Node 13, Type 0, BuildingBlock: VETTIZ_charged_linker_0, # of connection points: 3
#     Node 14, Type 0, BuildingBlock: VETTIZ_charged_linker_0, # of connection points: 3
#     Node 15, Type 0, BuildingBlock: VETTIZ_charged_linker_0, # of connection points: 3
#     Node 16, Type 1, BuildingBlock: AZAVOO_clean_sbu_0, # of connection points: 4
#     Node 17, Type 1, BuildingBlock: AZAVOO_clean_sbu_0, # of connection points: 4
#     Node 18, Type 1, BuildingBlock: AZAVOO_clean_sbu_0, # of connection points: 4
#     Node 19, Type 1, BuildingBlock: AZAVOO_clean_sbu_0, # of connection points: 4
#     Node 20, Type 1, BuildingBlock: AZAVOO_clean_sbu_0, # of connection points: 4
#     Node 21, Type 1, BuildingBlock: AZAVOO_clean_sbu_0, # of connection points: 4
#     Node 22, Type 1, BuildingBlock: AZAVOO_clean_sbu_0, # of connection points: 4
#     Node 23, Type 1, BuildingBlock: AZAVOO_clean_sbu_0, # of connection points: 4
#     Node 24, Type 1, BuildingBlock: AZAVOO_clean_sbu_0, # of connection points: 4
#     Node 25, Type 1, BuildingBlock: AZAVOO_clean_sbu_0, # of connection points: 4
#     Node 26, Type 1, BuildingBlock: AZAVOO_clean_sbu_0, # of connection points: 4
#     Node 27, Type 1, BuildingBlock: AZAVOO_clean_sbu_0, # of connection points: 4
#     Edge 28, Type (0, 1), BuildingBlock: AJUNOK_clean_linker_0, # of connection points: 2
#     Edge 29, Type (0, 1), BuildingBlock: AJUNOK_clean_linker_0, # of connection points: 2
#     Edge 30, Type (0, 1), BuildingBlock: AJUNOK_clean_linker_0, # of connection points: 2
#     Edge 31, Type (0, 1), BuildingBlock: AJUNOK_clean_linker_0, # of connection points: 2
#     Edge 32, Type (0, 1), BuildingBlock: AJUNOK_clean_linker_0, # of connection points: 2
#     Edge 33, Type (0, 1), BuildingBlock: AJUNOK_clean_linker_0, # of connection points: 2
#     Edge 34, Type (0, 1), BuildingBlock: AJUNOK_clean_linker_0, # of connection points: 2
#     Edge 35, Type (0, 1), BuildingBlock: AJUNOK_clean_linker_0, # of connection points: 2
#     Edge 36, Type (0, 1), BuildingBlock: AJUNOK_clean_linker_0, # of connection points: 2
#     Edge 37, Type (0, 1), BuildingBlock: AJUNOK_clean_linker_0, # of connection points: 2
#     Edge 38, Type (0, 1), BuildingBlock: AJUNOK_clean_linker_0, # of connection points: 2
#     Edge 39, Type (0, 1), BuildingBlock: AJUNOK_clean_linker_0, # of connection points: 2
#     Edge 40, Type (0, 1), BuildingBlock: AJUNOK_clean_linker_0, # of connection points: 2
#     Edge 41, Type (0, 1), BuildingBlock: AJUNOK_clean_linker_0, # of connection points: 2
#     Edge 42, Type (0, 1), BuildingBlock: AJUNOK_clean_linker_0, # of connection points: 2
#     Edge 43, Type (0, 1), BuildingBlock: AJUNOK_clean_linker_0, # of connection points: 2
#     Edge 44, Type (0, 1), BuildingBlock: AJUNOK_clean_linker_0, # of connection points: 2
#     Edge 45, Type (0, 1), BuildingBlock: AJUNOK_clean_linker_0, # of connection points: 2
#     Edge 46, Type (0, 1), BuildingBlock: AJUNOK_clean_linker_0, # of connection points: 2
#     Edge 47, Type (0, 1), BuildingBlock: AJUNOK_clean_linker_0, # of connection points: 2
#     Edge 48, Type (0, 1), BuildingBlock: AJUNOK_clean_linker_0, # of connection points: 2
#     Edge 49, Type (0, 1), BuildingBlock: AJUNOK_clean_linker_0, # of connection points: 2
#     Edge 50, Type (0, 1), BuildingBlock: AJUNOK_clean_linker_0, # of connection points: 2
#     Edge 51, Type (0, 1), BuildingBlock: AJUNOK_clean_linker_0, # of connection points: 2
#     Edge 52, Type (0, 1), BuildingBlock: AJUNOK_clean_linker_0, # of connection points: 2
#     Edge 53, Type (0, 1), BuildingBlock: AJUNOK_clean_linker_0, # of connection points: 2
#     Edge 54, Type (0, 1), BuildingBlock: AJUNOK_clean_linker_0, # of connection points: 2
#     Edge 55, Type (0, 1), BuildingBlock: AJUNOK_clean_linker_0, # of connection points: 2
#     Edge 56, Type (0, 1), BuildingBlock: AJUNOK_clean_linker_0, # of connection points: 2
#     Edge 57, Type (0, 1), BuildingBlock: AJUNOK_clean_linker_0, # of connection points: 2
#     Edge 58, Type (0, 1), BuildingBlock: AJUNOK_clean_linker_0, # of connection points: 2
#     Edge 59, Type (0, 1), BuildingBlock: AJUNOK_clean_linker_0, # of connection points: 2
#     Edge 60, Type (0, 1), BuildingBlock: AJUNOK_clean_linker_0, # of connection points: 2
#     Edge 61, Type (0, 1), BuildingBlock: AJUNOK_clean_linker_0, # of connection points: 2
#     Edge 62, Type (0, 1), BuildingBlock: AJUNOK_clean_linker_0, # of connection points: 2
#     Edge 63, Type (0, 1), BuildingBlock: AJUNOK_clean_linker_0, # of connection points: 2
#     Edge 64, Type (0, 1), BuildingBlock: AJUNOK_clean_linker_0, # of connection points: 2
#     Edge 65, Type (0, 1), BuildingBlock: AJUNOK_clean_linker_0, # of connection points: 2
#     Edge 66, Type (0, 1), BuildingBlock: AJUNOK_clean_linker_0, # of connection points: 2
#     Edge 67, Type (0, 1), BuildingBlock: AJUNOK_clean_linker_0, # of connection points: 2
#     Edge 68, Type (0, 1), BuildingBlock: AJUNOK_clean_linker_0, # of connection points: 2
#     Edge 69, Type (0, 1), BuildingBlock: AJUNOK_clean_linker_0, # of connection points: 2
#     Edge 70, Type (0, 1), BuildingBlock: AJUNOK_clean_linker_0, # of connection points: 2
#     Edge 71, Type (0, 1), BuildingBlock: AJUNOK_clean_linker_0, # of connection points: 2
#     Edge 72, Type (0, 1), BuildingBlock: AJUNOK_clean_linker_0, # of connection points: 2
#     Edge 73, Type (0, 1), BuildingBlock: AJUNOK_clean_linker_0, # of connection points: 2
#     Edge 74, Type (0, 1), BuildingBlock: AJUNOK_clean_linker_0, # of connection points: 2
#     Edge 75, Type (0, 1), BuildingBlock: AJUNOK_clean_linker_0, # of connection points: 2
# Relax obj value: 0.002
# Max RMSD: 0.042
# Mean RMSD: 0.024
data_MOF--net-ctn--node1-AZAVOO_clean_sbu_0--node2-VETTIZ_charged_linker_0--edge1-AJUNOK_clean_linker_0
_symmetry_space_group_name_H-M    P1
_symmetry_Int_Tables_number       1
_symmetry_cell_setting            triclinic
loop_
_symmetry_equiv_pos_as_xyz
'x, y, z'
_cell_length_a     51.68996
_cell_length_b     52.569107
_cell_length_c     52.531988
_cell_angle_alpha  90.052896
_cell_angle_beta   92.900947
_cell_angle_gamma 93.172468
loop_
_atom_site_label
_atom_site_type_symbol
_atom_site_fract_x
_atom_site_fract_y
_atom_site_fract_z
_atom_type_partial_charge
C0 C 0.03976 0.09521 0.95755 0.0
C1 C 0.02398 0.11562 0.96206 0.0
C2 C 0.00699 0.11356 0.98225 0.0
C3 C 0.02332 0.07274 0.99424 0.0
C4 C 0.03958 0.07436 0.97418 0.0
C5 C 0.05746 0.05268 0.97409 0.0
H6 H 0.1036 0.94838 0.03278 0.0
C7 C 0.02922 0.04976 0.00911 0.0
C8 C 0.04946 0.03806 0.99765 0.0
H9 H 0.12787 0.98304 0.96269 0.0
H10 H 0.09575 0.01447 0.96581 0.0
H11 H 0.09841 0.99902 0.0631 0.0
H12 H 0.04051 0.95276 0.01962 0.0
H13 H 0.028 0.96064 0.04903 0.0
H14 H 0.05632 0.94225 0.04866 0.0
H15 H 0.08473 0.96967 0.07532 0.0
H16 H 0.06956 0.99945 0.07929 0.0
C17 C 0.08578 0.06404 0.97705 0.0
C18 C 0.05119 0.03696 0.9494 0.0
C19 C 0.979 0.0286 0.08754 0.0
C20 C 0.98217 0.01102 0.10749 0.0
C21 C 0.00186 0.99354 0.10614 0.0
C22 C 0.01791 0.99357 0.08534 0.0
C23 C 0.01473 0.01164 0.06587 0.0
C24 C 0.99567 0.0289 0.06737 0.0
C25 C 0.9967 0.04842 0.04653 0.0
C26 C 0.01887 0.03942 0.03161 0.0
C27 C 0.02926 0.01777 0.04286 0.0
C28 C 0.00321 0.07502 0.05894 0.0
C29 C 0.97062 0.04621 0.03064 0.0
C30 C 0.10189 0.9627 0.01806 0.0
C31 C 0.11847 0.96344 0.99761 0.0
C32 C 0.11569 0.9824 0.97889 0.0
C33 C 0.09692 0.00053 0.98067 0.0
C34 C 0.08075 0.99977 0.00143 0.0
C35 C 0.08326 0.98092 0.01958 0.0
C36 C 0.06431 0.98292 0.04023 0.0
C37 C 0.04995 0.00602 0.03147 0.0
C38 C 0.05978 0.01592 0.00881 0.0
C39 C 0.07987 0.98784 0.06594 0.0
C40 C 0.04633 0.95836 0.03962 0.0
H41 H 0.99317 0.09198 0.01319 0.0
H42 H 0.05249 0.09562 0.94181 0.0
H43 H 0.02998 0.03595 0.94439 0.0
H44 H 0.05635 0.01692 0.95132 0.0
H45 H 0.06117 0.0457 0.93305 0.0
H46 H 0.08719 0.08078 0.99012 0.0
H47 H 0.0929 0.07051 0.9584 0.0
H48 H 0.09938 0.05068 0.98569 0.0
H49 H 0.96427 0.04244 0.08787 0.0
H50 H 0.00554 0.98037 0.12155 0.0
H51 H 0.03261 0.97993 0.08554 0.0
H52 H 0.01266 0.07349 0.07835 0.0
H53 H 0.98545 0.0857 0.06083 0.0
H54 H 0.01738 0.08675 0.04823 0.0
H55 H 0.96458 0.02587 0.02679 0.0
H56 H 0.9717 0.05528 0.01175 0.0
H57 H 0.955 0.05477 0.04099 0.0
H58 H 0.99471 0.12891 0.98643 0.0
C59 C 0.00638 0.09219 0.99811 0.0
C60 C 0.24471 0.65017 0.24333 0.0
C61 C 0.22321 0.64438 0.2265 0.0
C62 C 0.21911 0.65978 0.2049 0.0
C63 C 0.25786 0.68609 0.21707 0.0
C64 C 0.26171 0.67095 0.23825 0.0
C65 C 0.28563 0.67941 0.25414 0.0
H66 H 0.3889 0.76263 0.27602 0.0
C67 C 0.27912 0.70614 0.21751 0.0
C68 C 0.29542 0.70234 0.23916 0.0
H69 H 0.3654 0.69656 0.31988 0.0
H70 H 0.32936 0.68709 0.29004 0.0
H71 H 0.33179 0.78212 0.26461 0.0
H72 H 0.37708 0.73452 0.21916 0.0
H73 H 0.36325 0.75782 0.1995 0.0
H74 H 0.38596 0.76756 0.22526 0.0
H75 H 0.35949 0.79473 0.2485 0.0
H76 H 0.32773 0.79137 0.23258 0.0
C77 C 0.2771 0.68706 0.28084 0.0
C78 C 0.3047 0.65762 0.25425 0.0
C79 C 0.28202 0.77122 0.1466 0.0
C80 C 0.2985 0.7926 0.14189 0.0
C81 C 0.31921 0.79929 0.1595 0.0
C82 C 0.32369 0.78445 0.18139 0.0
C83 C 0.30713 0.76286 0.18571 0.0
C84 C 0.28654 0.75682 0.16853 0.0
C85 C 0.27032 0.73387 0.17638 0.0
C86 C 0.28476 0.72673 0.2009 0.0
C87 C 0.30643 0.74362 0.20628 0.0
C88 C 0.24268 0.74235 0.18109 0.0
C89 C 0.27133 0.7131 0.15556 0.0
C90 C 0.37599 0.74608 0.27896 0.0
C91 C 0.37966 0.73051 0.30048 0.0
C92 C 0.36259 0.70908 0.30371 0.0
C93 C 0.34171 0.70357 0.2863 0.0
C94 C 0.33776 0.7196 0.26527 0.0
C95 C 0.35484 0.74031 0.26165 0.0
C96 C 0.34735 0.75504 0.23802 0.0
C97 C 0.323 0.73974 0.22824 0.0
C98 C 0.31754 0.71909 0.24441 0.0
C99 C 0.34141 0.78235 0.24613 0.0
C100 C 0.36953 0.75393 0.21942 0.0
H101 H 0.23219 0.6916 0.18333 0.0
H102 H 0.24846 0.6385 0.25996 0.0
H103 H 0.30245 0.64641 0.23622 0.0
H104 H 0.32527 0.6647 0.25531 0.0
H105 H 0.30129 0.64421 0.27021 0.0
H106 H 0.25836 0.69653 0.27931 0.0
H107 H 0.27438 0.67008 0.2932 0.0
H108 H 0.2908 0.70109 0.29072 0.0
H109 H 0.26575 0.76591 0.1335 0.0
H110 H 0.33211 0.81575 0.15611 0.0
H111 H 0.33987 0.7903 0.19406 0.0
H112 H 0.24333 0.76228 0.18838 0.0
H113 H 0.23021 0.74154 0.16323 0.0
H114 H 0.233 0.73096 0.19589 0.0
H115 H 0.29103 0.71306 0.14794 0.0
H116 H 0.26752 0.69361 0.16279 0.0
H117 H 0.25735 0.71648 0.13931 0.0
H118 H 0.20248 0.6558 0.19183 0.0
C119 C 0.23632 0.68061 0.20009 0.0
C120 C 0.99636 0.40223 0.99569 0.0
C121 C 0.98091 0.39643 0.97348 0.0
C122 C 0.9611 0.41261 0.96593 0.0
C123 C 0.97205 0.4396 0.00286 0.0
C124 C 0.99153 0.4237 0.0101 0.0
C125 C 0.00551 0.43188 0.03479 0.0
H126 H 0.0268 0.51896 0.12945 0.0
C127 C 0.97203 0.4601 0.0222 0.0
C128 C 0.99159 0.45563 0.04095 0.0
H129 H 0.06392 0.44817 0.12031 0.0
H130 H 0.03629 0.43809 0.08275 0.0
H131 H 0.96855 0.49405 0.1173 0.0
H132 H 0.02303 0.5348 0.07081 0.0
H133 H 0.99221 0.54599 0.06301 0.0
H134 H 0.0061 0.55011 0.09504 0.0
H135 H 0.97511 0.52784 0.12003 0.0
H136 H 0.9507 0.51424 0.09745 0.0
C137 C 1.00105 0.41054 0.05474 0.0
C138 C 0.03436 0.43814 0.02943 0.0
C139 C 0.90779 0.52995 0.01218 0.0
C140 C 0.90454 0.55221 0.02622 0.0
C141 C 0.92092 0.55777 0.04799 0.0
C142 C 0.94034 0.54148 0.05571 0.0
C143 C 0.94355 0.51935 0.04146 0.0
C144 C 0.92755 0.51395 0.02 0.0
C145 C 0.93452 0.49003 0.00677 0.0
C146 C 0.95691 0.48173 0.02415 0.0
C147 C 0.96201 0.49894 0.0445 0.0
C148 C 0.91085 0.47066 0.00681 0.0
C149 C 0.94335 0.49736 0.97986 0.0
C150 C 0.02877 0.50127 0.11931 0.0
C151 C 0.04753 0.48433 0.12757 0.0
C152 C 0.04949 0.46137 0.11421 0.0
C153 C 0.03354 0.45567 0.09236 0.0
C154 C 0.01527 0.47303 0.08387 0.0
C155 C 0.01269 0.4951 0.09762 0.0
C156 C 0.99137 0.51066 0.08638 0.0
C157 C 0.98197 0.49453 0.06335 0.0
C158 C 0.99632 0.47274 0.06181 0.0
C159 C 0.97031 0.51205 0.10624 0.0
C160 C 0.00358 0.53688 0.07849 0.0
H161 H 0.94117 0.44571 0.97384 0.0
H162 H 0.01144 0.38985 0.00212 0.0
H163 H 0.03599 0.44915 0.01144 0.0
H164 H 0.04475 0.45013 0.0443 0.0
H165 H 0.04482 0.42042 0.02733 0.0
H166 H 0.98255 0.39917 0.05038 0.0
H167 H 0.01697 0.39716 0.05524 0.0
H168 H 0.99905 0.41816 0.07414 0.0
H169 H 0.89555 0.52537 0.99527 0.0
H170 H 0.91856 0.57476 0.05915 0.0
H171 H 0.95216 0.54682 0.07243 0.0
H172 H 0.90122 0.47137 0.02525 0.0
H173 H 0.89624 0.47489 0.99139 0.0
H174 H 0.91617 0.45073 0.00487 0.0
H175 H 0.95367 0.51652 0.98008 0.0
H176 H 0.95745 0.48443 0.97264 0.0
H177 H 0.9265 0.49794 0.96593 0.0
H178 H 0.94903 0.40847 0.94881 0.0
C179 C 0.95662 0.43419 0.98048 0.0
C180 C 0.65602 0.81875 0.27615 0.0
C181 C 0.63666 0.79891 0.27692 0.0
C182 C 0.6369 0.77855 0.25945 0.0
C183 C 0.676 0.79728 0.24183 0.0
C184 C 0.6754 0.81756 0.25853 0.0
C185 C 0.69799 0.83654 0.25591 0.0
H186 H 0.81088 0.86942 0.20104 0.0
C187 C 0.69955 0.80102 0.22711 0.0
C188 C 0.71248 0.82408 0.23523 0.0
H189 H 0.77375 0.91109 0.25857 0.0
H190 H 0.73793 0.87927 0.25756 0.0
H191 H 0.75877 0.85436 0.16641 0.0
H192 H 0.80232 0.81647 0.22536 0.0
H193 H 0.7908 0.79246 0.20385 0.0
H194 H 0.81236 0.81803 0.1932 0.0
H195 H 0.78979 0.84181 0.16182 0.0
H196 H 0.76003 0.82251 0.15667 0.0
C197 C 0.68727 0.86216 0.24702 0.0
C198 C 0.714 0.83802 0.28166 0.0
C199 C 0.72204 0.73395 0.16275 0.0
C200 C 0.74327 0.73214 0.14722 0.0
C201 C 0.7632 0.75154 0.14837 0.0
C202 C 0.76197 0.77259 0.16443 0.0
C203 C 0.74063 0.77434 0.1797 0.0
C204 C 0.72118 0.75518 0.17889 0.0
C205 C 0.70033 0.76024 0.19699 0.0
C206 C 0.71039 0.78572 0.20846 0.0
C207 C 0.73395 0.79381 0.19815 0.0
C208 C 0.67444 0.76249 0.18121 0.0
C209 C 0.69986 0.73871 0.21711 0.0
C210 C 0.79511 0.87161 0.21354 0.0
C211 C 0.79528 0.89253 0.23019 0.0
C212 C 0.77404 0.89506 0.24564 0.0
C213 C 0.75337 0.87651 0.24509 0.0
C214 C 0.75394 0.85521 0.2289 0.0
C215 C 0.77451 0.85324 0.21334 0.0
C216 C 0.77222 0.82936 0.19752 0.0
C217 C 0.74685 0.81721 0.20609 0.0
C218 C 0.73617 0.83235 0.22446 0.0
C219 C 0.77027 0.83719 0.16907 0.0
C220 C 0.79563 0.81318 0.20509 0.0
H221 H 0.65566 0.76151 0.22935 0.0
H222 H 0.65636 0.83463 0.28934 0.0
H223 H 0.71489 0.81882 0.29047 0.0
H224 H 0.73442 0.84464 0.27969 0.0
H225 H 0.70516 0.85065 0.29536 0.0
H226 H 0.67007 0.85892 0.23356 0.0
H227 H 0.68116 0.87331 0.26343 0.0
H228 H 0.70129 0.874 0.23634 0.0
H229 H 0.70655 0.71918 0.1624 0.0
H230 H 0.77958 0.75066 0.13638 0.0
H231 H 0.7777 0.78674 0.16418 0.0
H232 H 0.67776 0.77247 0.16289 0.0
H233 H 0.66512 0.74338 0.17659 0.0
H234 H 0.66054 0.77394 0.19083 0.0
H235 H 0.71979 0.73259 0.2219 0.0
H236 H 0.69267 0.74471 0.23548 0.0
H237 H 0.68795 0.72172 0.20993 0.0
H238 H 0.62255 0.76277 0.25999 0.0
C239 C 0.65637 0.77769 0.24187 0.0
C240 C 0.04396 0.90499 0.53651 0.0
C241 C 0.02253 0.88728 0.53405 0.0
C242 C 0.00246 0.89153 0.51566 0.0
C243 C 0.0255 0.93013 0.50201 0.0
C244 C 0.0449 0.92637 0.52051 0.0
C245 C 0.06597 0.9474 0.52071 0.0
H246 H 0.11397 0.05776 0.46962 0.0
C247 C 0.03259 0.95366 0.48801 0.0
C248 C 0.05616 0.9641 0.49907 0.0
H249 H 0.1466 0.01667 0.53363 0.0
H250 H 0.11137 0.98434 0.52898 0.0
H251 H 0.05642 0.05289 0.48531 0.0
H252 H 0.09842 0.00795 0.43477 0.0
H253 H 0.06772 0.01172 0.4199 0.0
H254 H 0.08893 0.03945 0.42703 0.0
H255 H 0.06409 0.06365 0.45403 0.0
H256 H 0.03481 0.04449 0.45944 0.0
C257 C 0.06659 0.96122 0.54679 0.0
C258 C 0.09174 0.93555 0.51471 0.0
C259 C 0.97814 0.97808 0.40923 0.0
C260 C 0.98042 0.99845 0.392 0.0
C261 C 0.99992 0.01789 0.39681 0.0
C262 C 0.0174 0.0167 0.41798 0.0
C263 C 0.0155 0.99578 0.43455 0.0
C264 C 0.99574 0.97722 0.4304 0.0
C265 C 0.99647 0.9567 0.45037 0.0
C266 C 0.02051 0.96555 0.46659 0.0
C267 C 0.03166 0.98831 0.45706 0.0
C268 C 0.97143 0.9573 0.46538 0.0
C269 C 1.00005 0.93102 0.43686 0.0
C270 C 0.11352 0.0418 0.48265 0.0
C271 C 0.13311 0.0397 0.50194 0.0
C272 C 0.13193 0.01852 0.51839 0.0
C273 C 0.11133 0.99992 0.51578 0.0
C274 C 0.09168 0.00252 0.49655 0.0
C275 C 0.09315 0.02317 0.48032 0.0
C276 C 0.07079 0.023 0.46092 0.0
C277 C 0.0553 0.99907 0.46837 0.0
C278 C 0.06759 0.98703 0.4892 0.0
C279 C 0.05572 0.04729 0.46484 0.0
C280 C 0.08182 0.02058 0.43417 0.0
H281 H 0.98807 0.91475 0.48585 0.0
H282 H 0.05963 0.90219 0.55053 0.0
H283 H 0.08839 0.92067 0.49964 0.0
H284 H 0.10611 0.94949 0.50715 0.0
H285 H 0.10053 0.92643 0.53189 0.0
H286 H 0.04665 0.96232 0.55363 0.0
H287 H 0.07819 0.95098 0.56147 0.0
H288 H 0.07425 0.9812 0.54591 0.0
H289 H 0.96327 0.96292 0.406 0.0
H290 H 0.00232 0.03355 0.38359 0.0
H291 H 0.0321 0.03186 0.42027 0.0
H292 H 0.96357 0.97659 0.46506 0.0
H293 H 0.95598 0.94375 0.45717 0.0
H294 H 0.9749 0.9531 0.48587 0.0
H295 H 0.01479 0.93344 0.4222 0.0
H296 H 0.00719 0.91623 0.44987 0.0
H297 H 0.98158 0.9236 0.42712 0.0
H298 H 0.98599 0.87793 0.51316 0.0
C299 C 0.00381 0.91281 0.49968 0.0
C300 C 0.27977 0.64655 0.77358 0.0
C301 C 0.27911 0.63066 0.75201 0.0
C302 C 0.25781 0.63107 0.7342 0.0
C303 C 0.23941 0.66434 0.75839 0.0
C304 C 0.25986 0.66328 0.7763 0.0
C305 C 0.25828 0.68243 0.79737 0.0
H306 H 0.20167 0.7837 0.84557 0.0
C307 C 0.22286 0.68483 0.76606 0.0
C308 C 0.23378 0.69546 0.78892 0.0
H309 H 0.26668 0.74381 0.87758 0.0
H310 H 0.2626 0.71407 0.84275 0.0
H311 H 0.16665 0.73218 0.83203 0.0
H312 H 0.21584 0.77999 0.78585 0.0
H313 H 0.18633 0.77261 0.76849 0.0
H314 H 0.18619 0.79025 0.79786 0.0
H315 H 0.15709 0.76259 0.82059 0.0
H316 H 0.15113 0.734 0.80163 0.0
C317 C 0.25516 0.66776 0.82274 0.0
C318 C 0.28272 0.70089 0.79706 0.0
C319 C 0.14537 0.70698 0.70873 0.0
C320 C 0.12724 0.72586 0.70977 0.0
C321 C 0.12841 0.74241 0.73097 0.0
C322 C 0.14784 0.74063 0.75048 0.0
C323 C 0.16625 0.72203 0.74882 0.0
C324 C 0.16463 0.70547 0.72828 0.0
C325 C 0.1858 0.68696 0.72949 0.0
C326 C 0.20037 0.69499 0.75424 0.0
C327 C 0.18896 0.71563 0.76545 0.0
C328 C 0.17306 0.65966 0.7311 0.0
C329 C 0.20251 0.69169 0.70608 0.0
C330 C 0.21487 0.76843 0.84517 0.0
C331 C 0.23474 0.76636 0.86431 0.0
C332 C 0.25157 0.74623 0.86287 0.0
C333 C 0.24907 0.72881 0.84267 0.0
C334 C 0.22947 0.73131 0.82354 0.0
C335 C 0.21248 0.75058 0.82514 0.0
C336 C 0.19215 0.74939 0.80349 0.0
C337 C 0.2001 0.72652 0.78855 0.0
C338 C 0.22217 0.71624 0.80031 0.0
C339 C 0.16525 0.74447 0.81484 0.0
C340 C 0.195 0.77437 0.78807 0.0
H341 H 0.22247 0.64738 0.72289 0.0
H342 H 0.29593 0.64663 0.78755 0.0
H343 H 0.28747 0.70566 0.77714 0.0
H344 H 0.28021 0.71938 0.80628 0.0
H345 H 0.29983 0.69216 0.80638 0.0
H346 H 0.24532 0.64859 0.8194 0.0
H347 H 0.27428 0.66495 0.83263 0.0
H348 H 0.24266 0.67732 0.83585 0.0
H349 H 0.14465 0.69366 0.69292 0.0
H350 H 0.1146 0.75708 0.73217 0.0
H351 H 0.14795 0.75397 0.76595 0.0
H352 H 0.15555 0.65946 0.74259 0.0
H353 H 0.16691 0.65211 0.71185 0.0
H354 H 0.18586 0.64617 0.74082 0.0
H355 H 0.20404 0.7123 0.7012 0.0
H356 H 0.22278 0.68646 0.70947 0.0
H357 H 0.19387 0.68124 0.68904 0.0
H358 H 0.2567 0.61865 0.71767 0.0
C359 C 0.23796 0.64776 0.73729 0.0
C360 C 0.89443 0.46753 0.48425 0.0
C361 C 0.88873 0.4454 0.46954 0.0
C362 C 0.90411 0.44059 0.44883 0.0
C363 C 0.93156 0.47851 0.459 0.0
C364 C 0.91589 0.4837 0.47872 0.0
C365 C 0.9252 0.50751 0.49307 0.0
H366 H 0.01473 0.60561 0.51178 0.0
C367 C 0.95306 0.49833 0.45921 0.0
C368 C 0.94937 0.51541 0.47912 0.0
H369 H 0.94406 0.5902 0.55105 0.0
H370 H 0.93411 0.55262 0.52542 0.0
H371 H 0.98889 0.59344 0.45577 0.0
H372 H 0.03144 0.548 0.5096 0.0
H373 H 0.04144 0.54022 0.47928 0.0
H374 H 0.04708 0.57242 0.49105 0.0
H375 H 0.02315 0.59859 0.46262 0.0
H376 H 0.01037 0.57617 0.43855 0.0
C377 C 0.90403 0.52719 0.48967 0.0
C378 C 0.93179 0.50015 0.52112 0.0
C379 C 0.02494 0.49301 0.39678 0.0
C380 C 0.04824 0.50759 0.39398 0.0
C381 C 0.05409 0.52898 0.40985 0.0
C382 C 0.03722 0.5356 0.42849 0.0
C383 C 0.0142 0.52065 0.43144 0.0
C384 C 0.00835 0.49975 0.41575 0.0
C385 C 0.98339 0.48569 0.42229 0.0
C386 C 0.9752 0.50171 0.4443 0.0
C387 C 0.99331 0.52219 0.4495 0.0
C388 C 0.96404 0.48664 0.39887 0.0
C389 C 0.98977 0.45844 0.43083 0.0
C390 C 0.99716 0.59406 0.51487 0.0
C391 C 0.98045 0.60063 0.53385 0.0
C392 C 0.95767 0.58519 0.53711 0.0
C393 C 0.95175 0.56349 0.52197 0.0
C394 C 0.96866 0.55712 0.50315 0.0
C395 C 0.99088 0.57234 0.49978 0.0
C396 C 0.00626 0.56288 0.47847 0.0
C397 C 0.98949 0.5396 0.46951 0.0
C398 C 0.96758 0.53627 0.48413 0.0
C399 C 0.00751 0.58379 0.45773 0.0
C400 C 0.03306 0.55561 0.48995 0.0
H401 H 0.93656 0.45211 0.42766 0.0
H402 H 0.88293 0.47175 0.50025 0.0
H403 H 0.94137 0.48171 0.52205 0.0
H404 H 0.94564 0.51394 0.5311 0.0
H405 H 0.91397 0.49799 0.53206 0.0
H406 H 0.8931 0.52472 0.47095 0.0
H407 H 0.88978 0.52512 0.50476 0.0
H408 H 0.91219 0.54707 0.48951 0.0
H409 H 0.02006 0.47643 0.38487 0.0
H410 H 0.07179 0.54065 0.40775 0.0
H411 H 0.04286 0.55205 0.43996 0.0
H412 H 0.96612 0.50534 0.38905 0.0
H413 H 0.96748 0.47156 0.38481 0.0
H414 H 0.94357 0.48486 0.40402 0.0
H415 H 0.00879 0.45863 0.44177 0.0
H416 H 0.97572 0.44985 0.4439 0.0
H417 H 0.99089 0.44562 0.41414 0.0
H418 H 0.89972 0.42395 0.43688 0.0
C419 C 0.92545 0.457 0.44349 0.0
C420 C 0.78981 0.72946 0.8568 0.0
C421 C 0.76968 0.73172 0.87365 0.0
C422 C 0.74978 0.74824 0.86724 0.0
C423 C 0.77111 0.76151 0.82921 0.0
C424 C 0.78999 0.7444 0.83458 0.0
C425 C 0.80969 0.74463 0.81432 0.0
H426 H 0.85192 0.7944 0.70332 0.0
C427 C 0.77722 0.775 0.80549 0.0
C428 C 0.79959 0.76492 0.79629 0.0
H429 H 0.88548 0.73461 0.74818 0.0
H430 H 0.85257 0.73806 0.77914 0.0
H431 H 0.84105 0.83023 0.75231 0.0
H432 H 0.79481 0.77561 0.70615 0.0
H433 H 0.77385 0.79924 0.71403 0.0
H434 H 0.80158 0.80759 0.69552 0.0
H435 H 0.8311 0.8357 0.71963 0.0
H436 H 0.81099 0.84324 0.74526 0.0
C437 C 0.83659 0.75277 0.82689 0.0
C438 C 0.80829 0.71799 0.80161 0.0
C439 C 0.72718 0.85211 0.77839 0.0
C440 C 0.72917 0.86879 0.75755 0.0
C441 C 0.74548 0.86288 0.7379 0.0
C442 C 0.76086 0.84184 0.73971 0.0
C443 C 0.75999 0.82634 0.76141 0.0
C444 C 0.74262 0.83092 0.7798 0.0
C445 C 0.74348 0.81142 0.80077 0.0
C446 C 0.7654 0.79547 0.79264 0.0
C447 C 0.77518 0.80459 0.76978 0.0
C448 C 0.75053 0.82552 0.82629 0.0
C449 C 0.717 0.7959 0.80005 0.0
C450 C 0.85219 0.78208 0.71985 0.0
C451 C 0.87132 0.7643 0.7234 0.0
C452 C 0.87113 0.7487 0.74523 0.0
C453 C 0.85186 0.75058 0.76302 0.0
C454 C 0.83261 0.76827 0.75896 0.0
C455 C 0.83321 0.78376 0.73772 0.0
C456 C 0.81163 0.80174 0.73644 0.0
C457 C 0.79751 0.7942 0.76012 0.0
C458 C 0.80983 0.7746 0.77335 0.0
C459 C 0.82411 0.82924 0.73833 0.0
C460 C 0.79458 0.79603 0.71172 0.0
H461 H 0.73496 0.77561 0.84183 0.0
H462 H 0.80543 0.717 0.86114 0.0
H463 H 0.78785 0.71013 0.79946 0.0
H464 H 0.8153 0.71835 0.78211 0.0
H465 H 0.81946 0.70435 0.81328 0.0
H466 H 0.83489 0.76828 0.84104 0.0
H467 H 0.84532 0.73655 0.83704 0.0
H468 H 0.85034 0.76063 0.81315 0.0
H469 H 0.71483 0.85604 0.79379 0.0
H470 H 0.74693 0.87508 0.72136 0.0
H471 H 0.77331 0.83886 0.7244 0.0
H472 H 0.76707 0.83968 0.82409 0.0
H473 H 0.73384 0.8359 0.83264 0.0
H474 H 0.75671 0.81275 0.84179 0.0
H475 H 0.70618 0.79747 0.78131 0.0
H476 H 0.71933 0.77521 0.80253 0.0
H477 H 0.70434 0.80262 0.81485 0.0
H478 H 0.73377 0.74997 0.87956 0.0
C479 C 0.75042 0.76311 0.84525 0.0
C480 C 0.29055 0.21855 0.34853 0.0
C481 C 0.27078 0.22041 0.36583 0.0
C482 C 0.25365 0.24031 0.36278 0.0
C483 C 0.27637 0.25637 0.32645 0.0
C484 C 0.29311 0.23684 0.32922 0.0
C485 C 0.31372 0.23848 0.30993 0.0
H486 H 0.36537 0.29801 0.20821 0.0
C487 C 0.28469 0.27261 0.3051 0.0
C488 C 0.30674 0.26238 0.29544 0.0
H489 H 0.3896 0.22959 0.24572 0.0
H490 H 0.35701 0.2334 0.27667 0.0
H491 H 0.35739 0.32986 0.25988 0.0
H492 H 0.30455 0.28447 0.21013 0.0
H493 H 0.28954 0.3126 0.21744 0.0
H494 H 0.31926 0.3146 0.20094 0.0
H495 H 0.34548 0.34151 0.22967 0.0
H496 H 0.32798 0.34507 0.25825 0.0
C497 C 0.34052 0.24194 0.32448 0.0
C498 C 0.31027 0.21436 0.29286 0.0
C499 C 0.23344 0.34923 0.27943 0.0
C500 C 0.23738 0.36884 0.26159 0.0
C501 C 0.25893 0.36827 0.24616 0.0
C502 C 0.27622 0.3487 0.24847 0.0
C503 C 0.27214 0.3294 0.26652 0.0
C504 C 0.25117 0.33001 0.28178 0.0
C505 C 0.25072 0.30867 0.30085 0.0
C506 C 0.27459 0.29493 0.29417 0.0
C507 C 0.28692 0.30703 0.2739 0.0
C508 C 0.25363 0.32052 0.32799 0.0
C509 C 0.22544 0.2919 0.2955 0.0
C510 C 0.36384 0.28414 0.22338 0.0
C511 C 0.37986 0.2634 0.22454 0.0
C512 C 0.37724 0.24557 0.24438 0.0
C513 C 0.35827 0.2478 0.26227 0.0
C514 C 0.34164 0.26805 0.26029 0.0
C515 C 0.34479 0.28599 0.24129 0.0
C516 C 0.32502 0.30592 0.24187 0.0
C517 C 0.30925 0.29674 0.26405 0.0
C518 C 0.3191 0.27456 0.27478 0.0
C519 C 0.33954 0.33206 0.24752 0.0
C520 C 0.30873 0.30461 0.21627 0.0
H521 H 0.24268 0.27284 0.34213 0.0
H522 H 0.30381 0.20333 0.35002 0.0
H523 H 0.28936 0.20848 0.28947 0.0
H524 H 0.31756 0.2174 0.27365 0.0
H525 H 0.31996 0.19809 0.30195 0.0
H526 H 0.33935 0.25412 0.34168 0.0
H527 H 0.34759 0.22332 0.33092 0.0
H528 H 0.35541 0.25182 0.31314 0.0
H529 H 0.21697 0.34878 0.29138 0.0
H530 H 0.26271 0.38328 0.23251 0.0
H531 H 0.29222 0.34948 0.23622 0.0
H532 H 0.26442 0.33943 0.32797 0.0
H533 H 0.2344 0.32331 0.33578 0.0
H534 H 0.26513 0.309 0.34153 0.0
H535 H 0.22145 0.28919 0.27463 0.0
H536 H 0.22645 0.2725 0.30336 0.0
H537 H 0.20854 0.30092 0.30321 0.0
H538 H 0.23848 0.24248 0.37598 0.0
C539 C 0.25627 0.25815 0.34321 0.0
C540 C 0.50242 0.90512 0.49333 0.0
C541 C 0.48675 0.89911 0.47135 0.0
C542 C 0.46747 0.91567 0.46331 0.0
C543 C 0.47862 0.94286 0.50015 0.0
C544 C 0.49812 0.92696 0.5073 0.0
C545 C 0.51287 0.93555 0.53139 0.0
H546 H 0.53329 0.02019 0.62815 0.0
C547 C 0.47856 0.96316 0.51976 0.0
C548 C 0.49873 0.95898 0.53796 0.0
H549 H 0.57663 0.95465 0.61183 0.0
H550 H 0.54747 0.94397 0.57577 0.0
H551 H 0.47574 0.99118 0.61629 0.0
H552 H 0.52581 0.03888 0.57111 0.0
H553 H 0.49394 0.04795 0.56473 0.0
H554 H 0.50834 0.05125 0.59663 0.0
H555 H 0.4803 0.02492 0.62139 0.0
H556 H 0.45601 0.01157 0.59856 0.0
C557 C 0.50946 0.91428 0.5516 0.0
C558 C 0.54139 0.94229 0.5249 0.0
C559 C 0.4102 0.02939 0.51432 0.0
C560 C 0.40552 0.0503 0.52983 0.0
C561 C 0.42182 0.05547 0.55176 0.0
C562 C 0.44241 0.04011 0.55823 0.0
C563 C 0.44695 0.01933 0.54256 0.0
C564 C 0.43101 0.01424 0.521 0.0
C565 C 0.43908 0.99152 0.50649 0.0
C566 C 0.46231 0.98375 0.523 0.0
C567 C 0.46679 1.00012 0.54414 0.0
C568 C 0.41648 0.97092 0.50607 0.0
C569 C 0.44695 0.00052 0.47975 0.0
C570 C 0.5362 0.00342 0.61687 0.0
C571 C 0.5574 0.98838 0.62253 0.0
C572 C 0.56065 0.9667 0.60751 0.0
C573 C 0.54369 0.96056 0.58657 0.0
C574 C 0.52313 0.97623 0.58048 0.0
C575 C 0.5194 0.99706 0.59568 0.0
C576 C 0.4965 0.01149 0.58602 0.0
C577 C 0.48754 0.99615 0.56229 0.0
C578 C 0.50326 0.97557 0.55923 0.0
C579 C 0.47601 0.00999 0.60657 0.0
C580 C 0.50642 0.03892 0.57938 0.0
H581 H 0.448 0.94922 0.4709 0.0
H582 H 0.51741 0.89268 0.49984 0.0
H583 H 0.54253 0.94965 0.50511 0.0
H584 H 0.55075 0.95774 0.53699 0.0
H585 H 0.55323 0.92531 0.52642 0.0
H586 H 0.48971 0.90472 0.54959 0.0
H587 H 0.52371 0.89946 0.5495 0.0
H588 H 0.51113 0.92158 0.57137 0.0
H589 H 0.39824 0.02521 0.49714 0.0
H590 H 0.4185 0.07143 0.56402 0.0
H591 H 0.45407 0.04509 0.57516 0.0
H592 H 0.40767 0.96972 0.52496 0.0
H593 H 0.40097 0.97546 0.49164 0.0
H594 H 0.42269 0.95161 0.50229 0.0
H595 H 0.45628 0.02011 0.48064 0.0
H596 H 0.46155 0.98869 0.47168 0.0
H597 H 0.42976 0.00083 0.4662 0.0
H598 H 0.45507 0.91117 0.44648 0.0
C599 C 0.46329 0.93755 0.47763 0.0
C600 C 0.15946 0.31259 0.77801 0.0
C601 C 0.14177 0.2914 0.77888 0.0
C602 C 0.14144 0.27258 0.75979 0.0
C603 C 0.17728 0.29523 0.74016 0.0
C604 C 0.17713 0.31405 0.75857 0.0
C605 C 0.19861 0.33424 0.75576 0.0
H606 H 0.3052 0.37659 0.69485 0.0
C607 C 0.199 0.30156 0.72363 0.0
C608 C 0.21154 0.32449 0.7326 0.0
H609 H 0.27273 0.41017 0.76032 0.0
H610 H 0.23748 0.37782 0.7585 0.0
H611 H 0.25271 0.36577 0.66313 0.0
H612 H 0.29728 0.31871 0.7135 0.0
H613 H 0.28737 0.30031 0.68643 0.0
H614 H 0.30751 0.32899 0.68283 0.0
H615 H 0.28046 0.35037 0.65279 0.0
H616 H 0.24834 0.33485 0.65047 0.0
C617 C 0.18618 0.35994 0.7504 0.0
C618 C 0.21682 0.33415 0.78012 0.0
C619 C 0.2182 0.24121 0.65184 0.0
C620 C 0.23659 0.24275 0.63302 0.0
C621 C 0.25413 0.26415 0.63235 0.0
C622 C 0.25365 0.28372 0.65032 0.0
C623 C 0.23533 0.28198 0.66918 0.0
C624 C 0.21777 0.26118 0.66955 0.0
C625 C 0.19901 0.26332 0.69036 0.0
C626 C 0.20844 0.28867 0.7025 0.0
C627 C 0.22993 0.29926 0.69019 0.0
C628 C 0.17129 0.26431 0.67778 0.0
C629 C 0.20269 0.24075 0.70889 0.0
C630 C 0.29049 0.37695 0.7088 0.0
C631 C 0.29169 0.39594 0.72769 0.0
C632 C 0.27203 0.39592 0.74536 0.0
C633 C 0.25172 0.37699 0.7444 0.0
C634 C 0.25114 0.35777 0.72568 0.0
C635 C 0.27022 0.35817 0.70817 0.0
C636 C 0.26678 0.33628 0.68971 0.0
C637 C 0.24268 0.32236 0.69923 0.0
C638 C 0.23356 0.33496 0.7203 0.0
C639 C 0.26199 0.34719 0.66254 0.0
C640 C 0.29097 0.32018 0.693 0.0
H641 H 0.15803 0.2593 0.72659 0.0
H642 H 0.16028 0.32707 0.79276 0.0
H643 H 0.21841 0.31446 0.78759 0.0
H644 H 0.23695 0.34086 0.7767 0.0
H645 H 0.20941 0.3459 0.79546 0.0
H646 H 0.16859 0.35717 0.73737 0.0
H647 H 0.18022 0.36866 0.7683 0.0
H648 H 0.19911 0.37375 0.74064 0.0
H649 H 0.20427 0.22508 0.65246 0.0
H650 H 0.26841 0.26561 0.61793 0.0
H651 H 0.26763 0.29941 0.64884 0.0
H652 H 0.17169 0.27393 0.65893 0.0
H653 H 0.16218 0.24485 0.67464 0.0
H654 H 0.15843 0.2756 0.68894 0.0
H655 H 0.22359 0.23689 0.71172 0.0
H656 H 0.19624 0.24448 0.72817 0.0
H657 H 0.19232 0.22306 0.70128 0.0
H658 H 0.12795 0.25608 0.76032 0.0
C659 C 0.159 0.27444 0.74036 0.0
C660 C 0.7502 0.15661 0.74671 0.0
C661 C 0.72662 0.15275 0.73241 0.0
C662 C 0.71964 0.17077 0.71385 0.0
C663 C 0.76018 0.19539 0.72332 0.0
C664 C 0.76654 0.17793 0.74192 0.0
C665 C 0.79232 0.18456 0.75544 0.0
H666 H 0.89783 0.26542 0.774 0.0
C667 C 0.78198 0.21485 0.7227 0.0
C668 C 0.80077 0.20863 0.74151 0.0
H669 H 0.87655 0.19735 0.81582 0.0
H670 H 0.83911 0.18909 0.78737 0.0
H671 H 0.84018 0.28596 0.76642 0.0
H672 H 0.88295 0.2399 0.71711 0.0
H673 H 0.86554 0.26102 0.69788 0.0
H674 H 0.89024 0.27352 0.72079 0.0
H675 H 0.86888 0.29784 0.75142 0.0
H676 H 0.83745 0.29785 0.73508 0.0
C677 C 0.78756 0.18977 0.78387 0.0
C678 C 0.81044 0.16262 0.75086 0.0
C679 C 0.77925 0.28507 0.65677 0.0
C680 C 0.79713 0.30467 0.65007 0.0
C681 C 0.8209 0.30813 0.66432 0.0
C682 C 0.82681 0.29206 0.68493 0.0
C683 C 0.80883 0.27224 0.69117 0.0
C684 C 0.78553 0.26904 0.6771 0.0
C685 C 0.76919 0.2464 0.68555 0.0
C686 C 0.78645 0.23645 0.70702 0.0
C687 C 0.80961 0.25172 0.71043 0.0
C688 C 0.74366 0.25602 0.6953 0.0
C689 C 0.76537 0.2273 0.66298 0.0
C690 C 0.88517 0.24862 0.77665 0.0
C691 C 0.88981 0.2321 0.79723 0.0
C692 C 0.87307 0.21041 0.80022 0.0
C693 C 0.85129 0.20572 0.78373 0.0
C694 C 0.84607 0.22293 0.76397 0.0
C695 C 0.86306 0.24371 0.76029 0.0
C696 C 0.85405 0.25976 0.73809 0.0
C697 C 0.82845 0.24567 0.72986 0.0
C698 C 0.82402 0.22415 0.74514 0.0
C699 C 0.85001 0.28689 0.74806 0.0
C700 C 0.87421 0.25877 0.71734 0.0
H701 H 0.73013 0.20501 0.69461 0.0
H702 H 0.75591 0.14315 0.76127 0.0
H703 H 0.80675 0.15449 0.73137 0.0
H704 H 0.8312 0.16894 0.75181 0.0
H705 H 0.80728 0.14691 0.76468 0.0
H706 H 0.76817 0.19749 0.78606 0.0
H707 H 0.78832 0.17204 0.7953 0.0
H708 H 0.80138 0.20444 0.79259 0.0
H709 H 0.76101 0.28177 0.64587 0.0
H710 H 0.83489 0.32323 0.65945 0.0
H711 H 0.8452 0.29556 0.69508 0.0
H712 H 0.74724 0.27471 0.70519 0.0
H713 H 0.72918 0.25861 0.67929 0.0
H714 H 0.73493 0.24328 0.70961 0.0
H715 H 0.78315 0.22721 0.65188 0.0
H716 H 0.76196 0.20739 0.66914 0.0
H717 H 0.74908 0.23243 0.64971 0.0
H718 H 0.70162 0.168 0.7025 0.0
C719 C 0.73631 0.1921 0.70921 0.0
C720 C 0.53719 0.59728 0.45764 0.0
C721 C 0.51803 0.615 0.46026 0.0
C722 C 0.49878 0.61003 0.47797 0.0
C723 C 0.51887 0.57135 0.49124 0.0
C724 C 0.53707 0.57554 0.47311 0.0
C725 C 0.55597 0.55477 0.47289 0.0
H726 H 0.60019 0.44645 0.52477 0.0
C727 C 0.5249 0.54782 0.50513 0.0
C728 C 0.54636 0.53774 0.4942 0.0
H729 H 0.62934 0.4884 0.46057 0.0
H730 H 0.59621 0.51875 0.46424 0.0
H731 H 0.59075 0.49644 0.55889 0.0
H732 H 0.54024 0.44896 0.50874 0.0
H733 H 0.52226 0.45688 0.53483 0.0
H734 H 0.55066 0.43865 0.53998 0.0
H735 H 0.58099 0.4641 0.56632 0.0
H736 H 0.5615 0.49012 0.57393 0.0
C737 C 0.58352 0.56687 0.47939 0.0
C738 C 0.5528 0.54123 0.4466 0.0
C739 C 0.47701 0.5241 0.58458 0.0
C740 C 0.47918 0.50421 0.60231 0.0
C741 C 0.49574 0.48452 0.59741 0.0
C742 C 0.51098 0.48542 0.57604 0.0
C743 C 0.5096 0.50616 0.55924 0.0
C744 C 0.49227 0.52467 0.56327 0.0
C745 C 0.49279 0.54487 0.54302 0.0
C746 C 0.51399 0.53594 0.52669 0.0
C747 C 0.52395 0.51341 0.53641 0.0
C748 C 0.50057 0.57079 0.5561 0.0
C749 C 0.46594 0.54385 0.52831 0.0
C750 C 0.5993 0.46211 0.51142 0.0
C751 C 0.61745 0.46517 0.49245 0.0
C752 C 0.6158 0.48588 0.47556 0.0
C753 C 0.59645 0.50337 0.47764 0.0
C754 C 0.57856 0.50017 0.49686 0.0
C755 C 0.58017 0.47976 0.51331 0.0
C756 C 0.55977 0.47948 0.53277 0.0
C757 C 0.54539 0.5029 0.52509 0.0
C758 C 0.55654 0.51501 0.50412 0.0
C759 C 0.57377 0.48252 0.55947 0.0
C760 C 0.54232 0.45468 0.52917 0.0
H761 H 0.48417 0.58594 0.50679 0.0
H762 H 0.55246 0.60062 0.44448 0.0
H763 H 0.5323 0.5409 0.43898 0.0
H764 H 0.55747 0.52099 0.44755 0.0
H765 H 0.56497 0.55116 0.43243 0.0
H766 H 0.58298 0.58167 0.49449 0.0
H767 H 0.59179 0.57616 0.4624 0.0
H768 H 0.59715 0.55308 0.48715 0.0
H769 H 0.46434 0.53943 0.58766 0.0
H770 H 0.49714 0.46853 0.61029 0.0
H771 H 0.52352 0.4701 0.57362 0.0
H772 H 0.51693 0.56875 0.57042 0.0
H773 H 0.48408 0.57807 0.56616 0.0
H774 H 0.50744 0.58556 0.54278 0.0
H775 H 0.45586 0.52465 0.52944 0.0
H776 H 0.46755 0.54727 0.50764 0.0
H777 H 0.45303 0.55779 0.53614 0.0
H778 H 0.4836 0.62316 0.48013 0.0
C779 C 0.4991 0.58836 0.49343 0.0
C780 C 0.5494 0.4095 0.03447 0.0
C781 C 0.5291 0.39057 0.03158 0.0
C782 C 0.50881 0.39397 0.01316 0.0
C783 C 0.52986 0.43378 0.99988 0.0
C784 C 0.54936 0.4309 0.01849 0.0
C785 C 0.56958 0.45268 0.01869 0.0
H786 H 0.6137 0.56434 0.96738 0.0
C787 C 0.53595 0.45761 0.98591 0.0
C788 C 0.55913 0.46892 0.99698 0.0
H789 H 0.64773 0.52447 0.03149 0.0
H790 H 0.61363 0.49098 0.02683 0.0
H791 H 0.55609 0.55746 0.98327 0.0
H792 H 0.59976 0.51434 0.9326 0.0
H793 H 0.56881 0.51687 0.91782 0.0
H794 H 0.58894 0.54537 0.92483 0.0
H795 H 0.56347 0.56861 0.95205 0.0
H796 H 0.53479 0.54851 0.95733 0.0
C797 C 0.56954 0.46652 0.04472 0.0
C798 C 0.5959 0.44187 0.01281 0.0
C799 C 0.47975 0.48073 0.90779 0.0
C800 C 0.48128 0.50113 0.8905 0.0
C801 C 0.50038 0.521 0.8951 0.0
C802 C 0.51813 0.52025 0.91609 0.0
C803 C 0.51697 0.49932 0.9327 0.0
C804 C 0.49767 0.48027 0.92874 0.0
C805 C 0.49936 0.45965 0.94856 0.0
C806 C 0.52331 0.46914 0.96457 0.0
C807 C 0.5336 0.49227 0.95504 0.0
C808 C 0.47449 0.45933 0.96388 0.0
C809 C 0.50363 0.43426 0.93479 0.0
C810 C 0.61371 0.54847 0.98052 0.0
C811 C 0.63319 0.54716 1.00003 0.0
C812 C 0.63289 0.52587 0.01633 0.0
C813 C 0.61299 0.50656 0.01367 0.0
C814 C 0.59323 0.50851 0.99443 0.0
C815 C 0.59399 0.52917 0.97818 0.0
C816 C 0.57156 0.52825 0.95881 0.0
C817 C 0.55692 0.50382 0.96628 0.0
C818 C 0.56969 0.49222 0.98709 0.0
C819 C 0.55562 0.55195 0.96278 0.0
C820 C 0.58262 0.52628 0.93203 0.0
H821 H 0.49328 0.41665 0.98344 0.0
H822 H 0.56505 0.40761 0.04873 0.0
H823 H 0.59316 0.42658 0.9981 0.0
H824 H 0.60958 0.45621 0.0048 0.0
H825 H 0.60524 0.43353 0.03014 0.0
H826 H 0.54947 0.46699 0.05138 0.0
H827 H 0.58136 0.45667 0.05952 0.0
H828 H 0.57659 0.48669 0.04385 0.0
H829 H 0.46526 0.46519 0.90473 0.0
H830 H 0.50231 0.53667 0.88182 0.0
H831 H 0.53248 0.53574 0.91819 0.0
H832 H 0.46668 0.4786 0.96469 0.0
H833 H 0.45897 0.44621 0.95508 0.0
H834 H 0.47809 0.45403 0.98407 0.0
H835 H 0.51764 0.43738 0.91955 0.0
H836 H 0.51209 0.41987 0.94748 0.0
H837 H 0.48516 0.42601 0.92574 0.0
H838 H 0.49304 0.37961 0.01052 0.0
C839 C 0.50908 0.41542 0.99734 0.0
C840 C 0.78471 0.15485 0.27857 0.0
C841 C 0.78362 0.13683 0.25879 0.0
C842 C 0.76241 0.13609 0.24079 0.0
C843 C 0.74422 0.17149 0.26221 0.0
C844 C 0.76489 0.17177 0.27999 0.0
C845 C 0.76314 0.19168 0.30019 0.0
H846 H 0.69663 0.28214 0.35502 0.0
C847 C 0.72717 0.19191 0.26922 0.0
C848 C 0.73814 0.20362 0.29155 0.0
H849 H 0.77009 0.25245 0.37979 0.0
H850 H 0.76935 0.22628 0.3424 0.0
H851 H 0.66837 0.22913 0.33377 0.0
H852 H 0.71218 0.28847 0.29552 0.0
H853 H 0.68681 0.27729 0.27425 0.0
H854 H 0.67935 0.29215 0.30381 0.0
H855 H 0.65732 0.26069 0.32915 0.0
H856 H 0.65155 0.23655 0.30491 0.0
C857 C 0.76085 0.17785 0.32615 0.0
C858 C 0.78701 0.21079 0.29874 0.0
C859 C 0.64761 0.21024 0.21275 0.0
C860 C 0.62869 0.22839 0.2139 0.0
C861 C 0.62977 0.24527 0.23487 0.0
C862 C 0.64939 0.24415 0.25426 0.0
C863 C 0.66829 0.22605 0.25268 0.0
C864 C 0.66714 0.20944 0.23218 0.0
C865 C 0.68904 0.19169 0.23344 0.0
C866 C 0.70383 0.20072 0.25776 0.0
C867 C 0.69152 0.2208 0.26907 0.0
C868 C 0.67733 0.16408 0.23584 0.0
C869 C 0.7052 0.19634 0.20969 0.0
C870 C 0.71262 0.27017 0.35213 0.0
C871 C 0.73327 0.26903 0.3706 0.0
C872 C 0.75375 0.25327 0.36612 0.0
C873 C 0.7533 0.23806 0.34433 0.0
C874 C 0.73214 0.23848 0.32657 0.0
C875 C 0.71252 0.25474 0.3302 0.0
C876 C 0.69216 0.25297 0.30853 0.0
C877 C 0.70237 0.23223 0.29207 0.0
C878 C 0.72571 0.22382 0.30294 0.0
C879 C 0.66583 0.24454 0.3195 0.0
C880 C 0.69234 0.27904 0.29479 0.0
H881 H 0.72717 0.15204 0.22801 0.0
H882 H 0.80071 0.15572 0.29276 0.0
H883 H 0.79332 0.21267 0.27886 0.0
H884 H 0.78283 0.23037 0.30432 0.0
H885 H 0.80376 0.20448 0.31073 0.0
H886 H 0.74974 0.15918 0.32375 0.0
H887 H 0.78028 0.1741 0.33487 0.0
H888 H 0.75 0.18835 0.33994 0.0
H889 H 0.64727 0.19694 0.19695 0.0
H890 H 0.61576 0.25976 0.23599 0.0
H891 H 0.64921 0.25757 0.26964 0.0
H892 H 0.65973 0.16356 0.24723 0.0
H893 H 0.67157 0.15576 0.21681 0.0
H894 H 0.69063 0.15141 0.24607 0.0
H895 H 0.70747 0.21706 0.20546 0.0
H896 H 0.72514 0.18998 0.21226 0.0
H897 H 0.69559 0.18671 0.19261 0.0
H898 H 0.76135 0.1225 0.22522 0.0
C899 C 0.74271 0.15335 0.24237 0.0
C900 C 0.39235 0.97364 0.98307 0.0
C901 C 0.38589 0.95172 0.96823 0.0
C902 C 0.40093 0.9466 0.94735 0.0
C903 C 0.42904 0.98414 0.95708 0.0
C904 C 0.41393 0.98951 0.97718 0.0
C905 C 0.42403 0.01311 0.9915 0.0
H906 H 0.51629 0.10914 0.00888 0.0
C907 C 0.45084 0.00358 0.95691 0.0
C908 C 0.44799 0.02065 0.97705 0.0
H909 H 0.44633 0.09542 0.04971 0.0
H910 H 0.43479 0.05814 0.02404 0.0
H911 H 0.48878 0.0985 0.95376 0.0
H912 H 0.53128 0.05089 0.00551 0.0
H913 H 0.54045 0.04366 0.97473 0.0
H914 H 0.54696 0.0755 0.98721 0.0
H915 H 0.52334 0.10222 0.95915 0.0
H916 H 0.50856 0.08051 0.93534 0.0
C917 C 0.40324 0.03322 0.98873 0.0
C918 C 0.43109 0.00549 0.01937 0.0
C919 C 0.5206 0.99747 0.8923 0.0
C920 C 0.54387 0.01188 0.88876 0.0
C921 C 0.55056 0.03301 0.90475 0.0
C922 C 0.53447 0.03971 0.92403 0.0
C923 C 0.5114 0.02505 0.92756 0.0
C924 C 0.50476 0.00433 0.91186 0.0
C925 C 0.47984 0.9906 0.91903 0.0
C926 C 0.47258 0.00664 0.94142 0.0
C927 C 0.49115 0.02679 0.94628 0.0
C928 C 0.45988 0.992 0.89614 0.0
C929 C 0.486 0.96317 0.9272 0.0
C930 C 0.49853 0.09804 0.01232 0.0
C931 C 0.48252 0.10497 0.03176 0.0
C932 C 0.45945 0.09009 0.03544 0.0
C933 C 0.4526 0.06858 0.02027 0.0
C934 C 0.46882 0.06186 0.00098 0.0
C935 C 0.49129 0.07657 0.9972 0.0
C936 C 0.50578 0.06695 0.97534 0.0
C937 C 0.48825 0.04413 0.96658 0.0
C938 C 0.46671 0.04115 0.98177 0.0
C939 C 0.50695 0.08807 0.95478 0.0
C940 C 0.53262 0.05894 0.98601 0.0
H941 H 0.43312 0.95759 0.92566 0.0
H942 H 0.38141 0.97789 0.99945 0.0
H943 H 0.44044 0.98692 0.01996 0.0
H944 H 0.44527 0.01907 0.02919 0.0
H945 H 0.4135 0.00346 0.03067 0.0
H946 H 0.39206 0.03121 0.97011 0.0
H947 H 0.38917 0.03114 0.00399 0.0
H948 H 0.41176 0.05297 0.98881 0.0
H949 H 0.51516 0.98093 0.88051 0.0
H950 H 0.56834 0.04445 0.90225 0.0
H951 H 0.54074 0.05598 0.93552 0.0
H952 H 0.46186 0.01081 0.88652 0.0
H953 H 0.4628 0.97706 0.88175 0.0
H954 H 0.43959 0.99031 0.90182 0.0
H955 H 0.50552 0.96291 0.93714 0.0
H956 H 0.47256 0.95494 0.94105 0.0
H957 H 0.48588 0.95029 0.91042 0.0
H958 H 0.39622 0.92989 0.93556 0.0
C959 C 0.42236 0.96269 0.94166 0.0
Mg960 Mg 0.24413 0.85801 0.00747 0.0
O961 O 0.28212 0.88088 0.99837 0.0
O962 O 0.31332 0.8531 0.99986 0.0
Mg963 Mg 0.29632 0.81352 0.00929 0.0
C964 C 0.30583 0.87564 0.99643 0.0
C965 C 0.19503 0.88606 0.99806 0.0
O966 O 0.18733 0.86292 0.00487 0.0
O967 O 0.24131 0.84055 0.96731 0.0
O968 O 0.27315 0.81334 0.97081 0.0
O969 O 0.25243 0.86393 0.04946 0.0
O970 O 0.26493 0.8313 0.02779 0.0
C971 C 0.25467 0.82336 0.95801 0.0
C972 C 0.26474 0.84316 0.04919 0.0
O973 O 0.21917 0.89097 0.99576 0.0
Mg974 Mg 0.14927 0.50858 0.26826 0.0
O975 O 0.12351 0.50306 0.23107 0.0
O976 O 0.15038 0.50813 0.19903 0.0
Mg977 Mg 0.19211 0.51489 0.21476 0.0
C978 C 0.1277 0.50416 0.20727 0.0
C979 C 0.1233 0.49542 0.31703 0.0
O980 O 0.14791 0.50063 0.3235 0.0
O981 O 0.16438 0.46872 0.26432 0.0
O982 O 0.19118 0.47491 0.23248 0.0
O983 O 0.14563 0.55074 0.26731 0.0
O984 O 0.17624 0.53097 0.24869 0.0
C985 C 0.18096 0.4607 0.2494 0.0
C986 C 0.16541 0.55188 0.25315 0.0
O987 O 0.11643 0.49511 0.29343 0.0
Mg988 Mg 0.7752 0.6491 0.0219 0.0
O989 O 0.73653 0.62504 0.01557 0.0
O990 O 0.70568 0.65317 0.01584 0.0
Mg991 Mg 0.72311 0.69351 0.02381 0.0
C992 C 0.71261 0.63033 0.01379 0.0
C993 C 0.82394 0.6239 0.01021 0.0
O994 O 0.83023 0.64831 0.01323 0.0
O995 O 0.77212 0.66462 0.98086 0.0
O996 O 0.7432 0.69403 0.98601 0.0
O997 O 0.77403 0.64534 0.06452 0.0
O998 O 0.75625 0.67592 0.04231 0.0
C999 C 0.75932 0.68327 0.97249 0.0
C1000 C 0.76044 0.66528 0.06403 0.0
O1001 O 0.80011 0.6166 0.01092 0.0
Mg1002 Mg 0.90451 0.02767 0.2409 0.0
O1003 O 0.87953 0.99019 0.23611 0.0
O1004 O 0.90665 0.95905 0.23181 0.0
Mg1005 Mg 0.94827 0.97616 0.23198 0.0
C1006 C 0.88376 0.96663 0.23345 0.0
C1007 C 0.87066 0.07222 0.24947 0.0
O1008 O 0.89218 0.08295 0.24114 0.0
O1009 O 0.91703 0.01641 0.28163 0.0
O1010 O 0.94531 0.98689 0.27418 0.0
O1011 O 0.90383 0.03432 0.19892 0.0
O1012 O 0.93344 0.01273 0.22003 0.0
C1013 C 0.93369 0.00072 0.28953 0.0
C1014 C 0.92409 0.02096 0.19862 0.0
O1015 O 0.86942 0.04829 0.25311 0.0
Mg1016 Mg 0.27326 0.14701 0.517 0.0
O1017 O 0.23587 0.12065 0.51361 0.0
O1018 O 0.20295 0.14629 0.50912 0.0
Mg1019 Mg 0.21817 0.18786 0.50965 0.0
C1020 C 0.21157 0.12402 0.51081 0.0
C1021 C 0.3232 0.12054 0.51267 0.0
O1022 O 0.32978 0.14504 0.51386 0.0
O1023 O 0.27075 0.15563 0.47418 0.0
O1024 O 0.23793 0.18177 0.47211 0.0
O1025 O 0.27013 0.15072 0.55936 0.0
O1026 O 0.25304 0.1766 0.53106 0.0
C1027 C 0.25577 0.17022 0.46166 0.0
C1028 C 0.25666 0.17035 0.55455 0.0
O1029 O 0.2992 0.11368 0.5123 0.0
Mg1030 Mg 0.40661 0.52791 0.73818 0.0
O1031 O 0.37974 0.49173 0.73497 0.0
O1032 O 0.40423 0.45849 0.73116 0.0
Mg1033 Mg 0.44676 0.47321 0.73169 0.0
C1034 C 0.38205 0.46782 0.73259 0.0
C1035 C 0.36718 0.56912 0.735 0.0
O1036 O 0.3821 0.57399 0.7159 0.0
O1037 O 0.41862 0.51808 0.77952 0.0
O1038 O 0.44425 0.48596 0.77334 0.0
O1039 O 0.40607 0.53123 0.69559 0.0
O1040 O 0.43513 0.51069 0.7183 0.0
C1041 C 0.4339 0.5014 0.78811 0.0
C1042 C 0.42622 0.51767 0.69625 0.0
O1043 O 0.3724 0.55063 0.74965 0.0
Mg1044 Mg 0.74335 0.36278 0.51272 0.0
O1045 O 0.78275 0.38165 0.50178 0.0
O1046 O 0.81077 0.35078 0.50537 0.0
Mg1047 Mg 0.79103 0.31397 0.51995 0.0
C1048 C 0.80557 0.37369 0.49993 0.0
C1049 C 0.69575 0.38975 0.49521 0.0
O1050 O 0.6877 0.36611 0.49975 0.0
O1051 O 0.73958 0.34155 0.47438 0.0
O1052 O 0.76645 0.31033 0.48243 0.0
O1053 O 0.75109 0.37301 0.55405 0.0
O1054 O 0.76289 0.33769 0.5364 0.0
C1055 C 0.74968 0.32101 0.46796 0.0
C1056 C 0.76297 0.35206 0.55623 0.0
O1057 O 0.72001 0.39543 0.49717 0.0
Mg1058 Mg 0.64985 0.01484 0.76748 0.0
O1059 O 0.6282 0.01051 0.72795 0.0
O1060 O 0.65888 0.01541 0.69966 0.0
Mg1061 Mg 0.69873 0.02365 0.71955 0.0
C1062 C 0.63519 0.01119 0.70492 0.0
C1063 C 0.61953 0.99886 0.81251 0.0
O1064 O 0.644 0.0014 0.82066 0.0
O1065 O 0.66532 0.9747 0.76377 0.0
O1066 O 0.69663 0.98373 0.73677 0.0
O1067 O 0.64689 0.0575 0.76662 0.0
O1068 O 0.67937 0.03741 0.75218 0.0
C1069 C 0.68458 0.96819 0.75133 0.0
C1070 C 0.66872 0.05855 0.75557 0.0
O1071 O 0.61426 0.00104 0.78873 0.0
Mg1072 Mg 0.03283 0.2596 0.89676 0.0
O1073 O 0.99464 0.25192 0.87222 0.0
O1074 O 0.96518 0.2385 0.8997 0.0
Mg1075 Mg 0.98328 0.23622 0.93995 0.0
C1076 C 0.9714 0.24462 0.87721 0.0
C1077 C 0.07664 0.27285 0.86471 0.0
O1078 O 0.08494 0.25943 0.88426 0.0
O1079 O 0.0169 0.29617 0.91203 0.0
O1080 O 0.98829 0.27993 0.93914 0.0
O1081 O 0.04415 0.21944 0.89238 0.0
O1082 O 0.0206 0.23262 0.92318 0.0
C1083 C 0.99994 0.29892 0.92858 0.0
C1084 C 0.03107 0.21418 0.91221 0.0
O1085 O 0.05323 0.27924 0.86394 0.0
Mg1086 Mg 0.52678 0.75849 0.39221 0.0
O1087 O 0.48685 0.75122 0.37117 0.0
O1088 O 0.45933 0.73919 0.40088 0.0
Mg1089 Mg 0.4809 0.73734 0.43983 0.0
C1090 C 0.46401 0.74454 0.3778 0.0
C1091 C 0.56759 0.7846 0.36035 0.0
O1092 O 0.57873 0.78298 0.38329 0.0
O1093 O 0.51338 0.79605 0.40831 0.0
O1094 O 0.48811 0.78067 0.4387 0.0
O1095 O 0.53573 0.71733 0.38793 0.0
O1096 O 0.51683 0.7329 0.4207 0.0
C1097 C 0.49902 0.79936 0.42705 0.0
C1098 C 0.52498 0.71343 0.4094 0.0
O1099 O 0.54378 0.7773 0.35719 0.0
Mg1100 Mg 0.98607 0.73983 0.60949 0.0
O1101 O 0.025 0.73608 0.63227 0.0
O1102 O 0.05447 0.72906 0.60384 0.0
Mg1103 Mg 0.03501 0.72771 0.56376 0.0
C1104 C 0.04831 0.73229 0.6268 0.0
C1105 C 0.94226 0.75062 0.64225 0.0
O1106 O 0.93198 0.74125 0.6206 0.0
O1107 O 0.99931 0.77979 0.59621 0.0
O1108 O 0.0275 0.77039 0.56714 0.0
O1109 O 0.97737 0.69791 0.61129 0.0
O1110 O 0.99774 0.71693 0.58006 0.0
C1111 C 0.01503 0.78659 0.57911 0.0
C1112 C 0.98901 0.69607 0.59019 0.0
O1113 O 0.9668 0.75425 0.64456 0.0
Mg1114 Mg 0.49141 0.24437 0.10673 0.0
O1115 O 0.52859 0.23988 0.13206 0.0
O1116 O 0.56017 0.23178 0.10632 0.0
Mg1117 Mg 0.5435 0.23087 0.06506 0.0
C1118 C 0.55217 0.23525 0.1286 0.0
C1119 C 0.44795 0.2477 0.14159 0.0
O1120 O 0.4403 0.23157 0.12327 0.0
O1121 O 0.50619 0.28407 0.09399 0.0
O1122 O 0.53638 0.27375 0.06735 0.0
O1123 O 0.48203 0.20256 0.10839 0.0
O1124 O 0.50453 0.22092 0.07824 0.0
C1125 C 0.52337 0.29036 0.07811 0.0
C1126 C 0.49474 0.20031 0.08802 0.0
O1127 O 0.4702 0.25919 0.14054 0.0
C1128 C 0.26375 0.79357 0.894 0.0
C1129 C 0.23843 0.7847 0.886 0.0
C1130 C 0.2686 0.80738 0.91667 0.0
C1131 C 0.2483 0.81338 0.93202 0.0
H1132 H 0.28014 0.789 0.88311 0.0
H1133 H 0.28854 0.8127 0.92267 0.0
S1134 S 0.17833 0.79652 0.91893 0.0
N1135 N 0.19261 0.78406 0.89478 0.0
N1136 N 0.20179 0.81093 0.93704 0.0
C1137 C 0.22273 0.8062 0.92351 0.0
C1138 C 0.21777 0.79168 0.90055 0.0
C1139 C 0.05901 0.49958 0.34873 0.0
C1140 C 0.06676 0.50078 0.37476 0.0
C1141 C 0.0772 0.49649 0.3301 0.0
C1142 C 0.10374 0.49438 0.3369 0.0
H1143 H 0.03899 0.5022 0.34267 0.0
H1144 H 0.07054 0.49686 0.31023 0.0
S1145 S 0.13287 0.49233 0.40298 0.0
N1146 N 0.10192 0.49681 0.40663 0.0
N1147 N 0.13608 0.49077 0.37191 0.0
C1148 C 0.1113 0.49388 0.36305 0.0
C1149 C 0.09282 0.49717 0.3819 0.0
C1150 C 0.76415 0.73261 0.92044 0.0
C1151 C 0.76964 0.71858 0.89875 0.0
C1152 C 0.76134 0.72089 0.94403 0.0
C1153 C 0.76423 0.69462 0.94723 0.0
H1154 H 0.76164 0.7529 0.91913 0.0
H1155 H 0.75672 0.73265 0.95996 0.0
S1156 S 0.78 0.64932 0.8969 0.0
N1157 N 0.77869 0.67698 0.88208 0.0
N1158 N 0.77407 0.65496 0.92695 0.0
C1159 C 0.77085 0.68042 0.92604 0.0
C1160 C 0.77343 0.69239 0.90171 0.0
C1161 C 0.96447 0.97693 0.35142 0.0
C1162 C 0.96456 0.9982 0.36764 0.0
C1163 C 0.95328 0.97756 0.3266 0.0
C1164 C 0.94148 0.99938 0.31708 0.0
H1165 H 0.9743 0.96013 0.35748 0.0
H1166 H 0.95465 0.96103 0.3145 0.0
S1167 S 0.93399 0.05904 0.3532 0.0
N1168 N 0.95002 0.04088 0.37342 0.0
N1169 N 0.92875 0.04209 0.32677 0.0
C1170 C 0.94003 0.02023 0.3337 0.0
C1171 C 0.95169 0.01965 0.35895 0.0
C1172 C 0.23498 0.2288 0.58772 0.0
C1173 C 0.23771 0.22251 0.61363 0.0
C1174 C 0.23965 0.21117 0.56878 0.0
C1175 C 0.24766 0.18665 0.57502 0.0
H1176 H 0.22999 0.24781 0.58209 0.0
H1177 H 0.23818 0.21734 0.54912 0.0
S1178 S 0.25561 0.16033 0.64032 0.0
N1179 N 0.24709 0.18978 0.64477 0.0
N1180 N 0.2563 0.1565 0.60915 0.0
C1181 C 0.24928 0.17974 0.60092 0.0
C1182 C 0.24418 0.19771 0.62024 0.0
C1183 C 0.43912 0.51136 0.62598 0.0
C1184 C 0.46521 0.50489 0.6264 0.0
C1185 C 0.42637 0.51461 0.64863 0.0
C1186 C 0.43916 0.51138 0.67261 0.0
H1187 H 0.42857 0.51435 0.60799 0.0
H1188 H 0.40647 0.52013 0.6473 0.0
S1189 S 0.50765 0.49471 0.68423 0.0
N1190 N 0.50346 0.49562 0.6529 0.0
N1191 N 0.47945 0.50119 0.69535 0.0
C1192 C 0.46505 0.50426 0.6733 0.0
C1193 C 0.47808 0.50114 0.65025 0.0
C1194 C 0.76744 0.33257 0.62534 0.0
C1195 C 0.79104 0.32043 0.62742 0.0
C1196 C 0.75933 0.34431 0.60258 0.0
C1197 C 0.77429 0.34384 0.58101 0.0
H1198 H 0.75479 0.33224 0.64118 0.0
H1199 H 0.74055 0.35255 0.60145 0.0
S1200 S 0.83881 0.31701 0.57739 0.0
N1201 N 0.83022 0.31048 0.60665 0.0
N1202 N 0.81487 0.33254 0.56384 0.0
C1203 C 0.7985 0.33297 0.58323 0.0
C1204 C 0.80694 0.32129 0.60649 0.0
C1205 C 0.56992 0.99853 0.66841 0.0
C1206 C 0.57705 0.99567 0.64316 0.0
C1207 C 0.58876 0.00372 0.68827 0.0
C1208 C 0.6154 0.0065 0.68352 0.0
H1209 H 0.54971 0.99613 0.67293 0.0
H1210 H 0.58235 0.00537 0.70748 0.0
S1211 S 0.64356 0.0026 0.61987 0.0
N1212 N 0.61206 0.9973 0.61406 0.0
N1213 N 0.64749 0.00704 0.65096 0.0
C1214 C 0.62255 0.00436 0.65804 0.0
C1215 C 0.60339 0.99895 0.63799 0.0
C1216 C 0.93692 0.23884 0.81128 0.0
C1217 C 0.91063 0.23803 0.81705 0.0
C1218 C 0.95663 0.24155 0.83074 0.0
C1219 C 0.95061 0.24349 0.85654 0.0
H1220 H 0.94224 0.2365 0.79177 0.0
H1221 H 0.97665 0.24137 0.8256 0.0
S1222 S 0.8844 0.24588 0.88074 0.0
N1223 N 0.87952 0.24177 0.84969 0.0
N1224 N 0.91616 0.24699 0.8862 0.0
C1225 C 0.92426 0.24392 0.86221 0.0
C1226 C 0.90438 0.24116 0.84248 0.0
C1227 C 0.48565 0.85196 0.47308 0.0
C1228 C 0.48905 0.87425 0.4587 0.0
C1229 C 0.48869 0.82803 0.46244 0.0
C1230 C 0.4956 0.82534 0.437 0.0
H1231 H 0.48063 0.85305 0.49282 0.0
H1232 H 0.48599 0.81151 0.47452 0.0
S1233 S 0.50651 0.87813 0.39123 0.0
N1234 N 0.49929 0.89251 0.41774 0.0
N1235 N 0.50543 0.84731 0.39758 0.0
C1236 C 0.49898 0.84757 0.42232 0.0
C1237 C 0.49552 0.87207 0.43318 0.0
C1238 C 0.10499 0.30279 0.80541 0.0
C1239 C 0.12563 0.28727 0.80107 0.0
C1240 C 0.08908 0.29809 0.82604 0.0
C1241 C 0.09369 0.27806 0.84321 0.0
H1242 H 0.10091 0.31833 0.79256 0.0
H1243 H 0.07317 0.31025 0.82862 0.0
S1244 S 0.14591 0.23244 0.83994 0.0
N1245 N 0.15007 0.25146 0.81534 0.0
N1246 N 0.12073 0.24272 0.85421 0.0
C1247 C 0.11463 0.26272 0.83909 0.0
C1248 C 0.13045 0.26731 0.81798 0.0
C1249 C 0.51564 0.66231 0.45935 0.0
C1250 C 0.51899 0.63954 0.44614 0.0
C1251 C 0.51714 0.68589 0.44709 0.0
C1252 C 0.52227 0.68782 0.42109 0.0
H1253 H 0.51236 0.66202 0.47956 0.0
H1254 H 0.51483 0.70282 0.45834 0.0
S1255 S 0.53097 0.63382 0.37736 0.0
N1256 N 0.5263 0.62023 0.40521 0.0
N1257 N 0.52975 0.66477 0.38221 0.0
C1258 C 0.52538 0.66521 0.40748 0.0
C1259 C 0.52362 0.64105 0.41999 0.0
C1260 C 0.88111 0.75812 0.67787 0.0
C1261 C 0.89024 0.7612 0.7034 0.0
C1262 C 0.89818 0.75515 0.65839 0.0
C1263 C 0.9252 0.75533 0.66351 0.0
H1264 H 0.86048 0.75763 0.67292 0.0
H1265 H 0.89 0.75257 0.6391 0.0
S1266 S 0.95909 0.76376 0.72724 0.0
N1267 N 0.92802 0.76494 0.73287 0.0
N1268 N 0.96032 0.75939 0.69619 0.0
C1269 C 0.93468 0.75878 0.68898 0.0
C1270 C 0.91716 0.76162 0.70892 0.0
C1271 C 0.04209 0.84684 0.5479 0.0
C1272 C 0.02176 0.86339 0.54909 0.0
C1273 C 0.04015 0.82245 0.55866 0.0
C1274 C 0.01796 0.81375 0.57133 0.0
H1275 H 0.05909 0.8523 0.5375 0.0
H1276 H 0.05594 0.81004 0.55637 0.0
S1277 S 0.96054 0.85111 0.58199 0.0
N1278 N 0.97965 0.87038 0.56553 0.0
N1279 N 0.97603 0.82464 0.58604 0.0
C1280 C 0.99813 0.83076 0.57393 0.0
C1281 C 1.0 0.85551 0.56268 0.0
C1282 C 0.08108 0.72942 0.69341 0.0
C1283 C 0.1075 0.72848 0.68851 0.0
C1284 C 0.06212 0.73084 0.67341 0.0
C1285 C 0.06885 0.73146 0.64772 0.0
H1286 H 0.07496 0.72854 0.71282 0.0
H1287 H 0.042 0.73112 0.67819 0.0
S1288 S 0.13594 0.7319 0.62511 0.0
N1289 N 0.13972 0.73001 0.65641 0.0
N1290 N 0.10437 0.73255 0.61883 0.0
C1291 C 0.09541 0.73118 0.6427 0.0
C1292 C 0.11462 0.72972 0.66307 0.0
C1293 C 0.99241 0.64744 0.53724 0.0
C1294 C 0.98583 0.62425 0.54929 0.0
C1295 C 0.99473 0.67045 0.55092 0.0
C1296 C 0.99041 0.67118 0.57715 0.0
H1297 H 0.99472 0.64799 0.51686 0.0
H1298 H 0.99879 0.68791 0.54056 0.0
S1299 S 0.97668 0.61523 0.61837 0.0
N1300 N 0.97811 0.60304 0.58952 0.0
N1301 N 0.98195 0.6463 0.61516 0.0
C1302 C 0.98523 0.64795 0.58969 0.0
C1303 C 0.98304 0.62451 0.57579 0.0
C1304 C 0.81444 0.93748 0.22995 0.0
C1305 C 0.81794 0.91121 0.23176 0.0
C1306 C 0.83577 0.95525 0.23047 0.0
C1307 C 0.86145 0.94742 0.23285 0.0
H1308 H 0.79508 0.94434 0.22769 0.0
H1309 H 0.83205 0.97527 0.22877 0.0
S1310 S 0.88074 0.88061 0.24046 0.0
N1311 N 0.84876 0.87822 0.23765 0.0
N1312 N 0.88884 0.91132 0.23837 0.0
C1313 C 0.86509 0.92111 0.23516 0.0
C1314 C 0.84337 0.9031 0.23469 0.0
C1315 C 0.83085 0.13011 0.25639 0.0
C1316 C 0.80524 0.11967 0.25659 0.0
C1317 C 0.85178 0.11454 0.25441 0.0
C1318 C 0.84801 0.08784 0.25291 0.0
H1319 H 0.83472 0.15057 0.25743 0.0
H1320 H 0.87111 0.12359 0.25404 0.0
S1321 S 0.78461 0.05103 0.25359 0.0
N1322 N 0.77713 0.08108 0.25569 0.0
N1323 N 0.8165 0.05162 0.25218 0.0
C1324 C 0.82246 0.0771 0.2535 0.0
C1325 C 0.80108 0.09306 0.25522 0.0
C1326 C 0.36995 0.90722 0.97755 0.0
C1327 C 0.36483 0.93311 0.9754 0.0
C1328 C 0.35081 0.88906 0.98447 0.0
C1329 C 0.32554 0.89589 0.98946 0.0
H1330 H 0.38908 0.90094 0.97411 0.0
H1331 H 0.356 0.8694 0.98579 0.0
S1332 S 0.30209 0.96143 0.98599 0.0
N1333 N 0.33272 0.96487 0.97845 0.0
N1334 N 0.29652 0.93074 0.99154 0.0
C1335 C 0.32012 0.92183 0.98733 0.0
C1336 C 0.33979 0.94041 0.98035 0.0
C1337 C 0.21239 0.39946 0.23481 0.0
C1338 C 0.21969 0.39028 0.25915 0.0
C1339 C 0.19855 0.42152 0.23183 0.0
C1340 C 0.19099 0.43506 0.25305 0.0
H1341 H 0.21805 0.38991 0.21784 0.0
H1342 H 0.19437 0.42845 0.21272 0.0
S1343 S 0.20417 0.41873 0.32095 0.0
N1344 N 0.21771 0.39636 0.30496 0.0
N1345 N 0.1908 0.43727 0.29923 0.0
C1346 C 0.19686 0.42542 0.27749 0.0
C1347 C 0.2114 0.40316 0.28058 0.0
C1348 C 0.14685 0.08584 0.50586 0.0
C1349 C 0.1538 0.0604 0.50537 0.0
C1350 C 0.16565 0.10602 0.50787 0.0
C1351 C 0.19238 0.10173 0.50944 0.0
H1352 H 0.12659 0.09025 0.50467 0.0
H1353 H 0.159 0.12519 0.50805 0.0
S1354 S 0.22081 0.03832 0.5089 0.0
N1355 N 0.18915 0.03177 0.5066 0.0
N1356 N 0.22473 0.06969 0.51053 0.0
C1357 C 0.19964 0.07625 0.50928 0.0
C1358 C 0.18033 0.05562 0.50726 0.0
C1359 C 0.72175 0.10557 0.73525 0.0
C1360 C 0.71034 0.12914 0.73623 0.0
C1361 C 0.70776 0.08292 0.74076 0.0
C1362 C 0.68178 0.08287 0.74763 0.0
H1363 H 0.74185 0.10466 0.73054 0.0
H1364 H 0.71781 0.0654 0.74035 0.0
S1365 S 0.64269 0.13972 0.75203 0.0
N1366 N 0.67142 0.15129 0.74376 0.0
N1367 N 0.6449 0.10855 0.75422 0.0
C1368 C 0.66988 0.10632 0.74806 0.0
C1369 C 0.68419 0.12948 0.74226 0.0
C1370 C 0.38966 0.09378 0.52244 0.0
C1371 C 0.38424 0.06732 0.52316 0.0
C1372 C 0.36986 0.11061 0.51812 0.0
C1373 C 0.34369 0.10173 0.51456 0.0
H1374 H 0.40941 0.10159 0.52554 0.0
H1375 H 0.37517 0.13083 0.51822 0.0
S1376 S 0.31938 0.03389 0.51375 0.0
N1377 N 0.35106 0.03278 0.51915 0.0
N1378 N 0.31364 0.06439 0.51107 0.0
C1379 C 0.33807 0.07519 0.5145 0.0
C1380 C 0.35837 0.058 0.51877 0.0
C1381 C 0.63094 0.42035 0.4904 0.0
C1382 C 0.63787 0.44657 0.49047 0.0
C1383 C 0.64982 0.40224 0.49076 0.0
C1384 C 0.67649 0.40957 0.4914 0.0
H1385 H 0.6107 0.41375 0.49044 0.0
H1386 H 0.64334 0.38231 0.49124 0.0
S1387 S 0.70475 0.47608 0.49078 0.0
N1388 N 0.6731 0.47913 0.49036 0.0
N1389 N 0.70873 0.44512 0.49096 0.0
C1390 C 0.68367 0.4358 0.49057 0.0
C1391 C 0.66434 0.45428 0.49012 0.0
C1392 C 0.73925 0.26937 0.41787 0.0
C1393 C 0.73355 0.28279 0.39533 0.0
C1394 C 0.74351 0.28193 0.44125 0.0
C1395 C 0.74199 0.30848 0.44323 0.0
H1396 H 0.74117 0.24895 0.41733 0.0
H1397 H 0.74853 0.27071 0.45789 0.0
S1398 S 0.72577 0.35233 0.39022 0.0
N1399 N 0.72527 0.32397 0.37653 0.0
N1400 N 0.73279 0.34771 0.42085 0.0
C1401 C 0.73487 0.32206 0.42112 0.0
C1402 C 0.73074 0.30919 0.39708 0.0
C1403 C 0.58808 0.00226 0.87594 0.0
C1404 C 0.56179 0.00496 0.86899 0.0
C1405 C 0.60622 0.99878 0.85754 0.0
C1406 C 0.59891 0.99814 0.83132 0.0
H1407 H 0.59482 0.00348 0.8958 0.0
H1408 H 0.62634 0.99758 0.864 0.0
S1409 S 0.53182 0.00235 0.80336 0.0
N1410 N 0.52883 0.00514 0.83438 0.0
N1411 N 0.56294 0.99872 0.79956 0.0
C1412 C 0.57236 0.99954 0.82418 0.0
C1413 C 0.55381 0.00293 0.84306 0.0
C1414 C 0.24337 0.19369 0.39465 0.0
C1415 C 0.26823 0.20269 0.3878 0.0
C1416 C 0.23969 0.18131 0.41788 0.0
C1417 C 0.26077 0.17694 0.43497 0.0
H1418 H 0.22643 0.19733 0.38249 0.0
H1419 H 0.22006 0.17619 0.42305 0.0
S1420 S 0.33002 0.19442 0.42532 0.0
N1421 N 0.31448 0.20486 0.39949 0.0
N1422 N 0.30754 0.18069 0.44275 0.0
C1423 C 0.28591 0.18394 0.42756 0.0
C1424 C 0.28966 0.19701 0.40405 0.0
C1425 C 0.46479 0.47882 0.85049 0.0
C1426 C 0.46516 0.50045 0.86626 0.0
C1427 C 0.45342 0.47895 0.82573 0.0
C1428 C 0.44177 0.50067 0.81572 0.0
H1429 H 0.47457 0.46207 0.85683 0.0
H1430 H 0.45459 0.46211 0.81405 0.0
S1431 S 0.43468 0.56112 0.85069 0.0
N1432 N 0.45074 0.5433 0.87122 0.0
N1433 N 0.42928 0.54366 0.82461 0.0
C1434 C 0.44053 0.52189 0.83192 0.0
C1435 C 0.45231 0.52178 0.85715 0.0
C1436 C 0.76775 0.69786 0.12801 0.0
C1437 C 0.74474 0.71089 0.12886 0.0
C1438 C 0.77175 0.68127 0.10787 0.0
C1439 C 0.75302 0.67745 0.0877 0.0
H1440 H 0.78327 0.70145 0.14243 0.0
H1441 H 0.79034 0.6728 0.10719 0.0
S1442 S 0.68789 0.70374 0.08299 0.0
N1443 N 0.70182 0.71655 0.10932 0.0
N1444 N 0.7093 0.68512 0.07157 0.0
C1445 C 0.72917 0.68877 0.08932 0.0
C1446 C 0.725 0.70553 0.10993 0.0
C1447 C 0.96076 0.03662 0.13995 0.0
C1448 C 0.96632 0.01253 0.1304 0.0
C1449 C 0.94632 0.03897 0.16157 0.0
C1450 C 0.93744 0.01742 0.17492 0.0
H1451 H 0.96806 0.05394 0.13101 0.0
H1452 H 0.94278 0.05788 0.16836 0.0
S1453 S 0.94479 0.95007 0.15752 0.0
N1454 N 0.95985 0.96655 0.13537 0.0
N1455 N 0.93399 0.97131 0.17699 0.0
C1456 C 0.94257 0.99325 0.16579 0.0
C1457 C 0.95674 0.99073 0.14331 0.0
C1458 C 0.29267 0.79477 0.09468 0.0
C1459 C 0.29376 0.80737 0.11832 0.0
C1460 C 0.28455 0.80704 0.07229 0.0
C1461 C 0.27686 0.83232 0.07269 0.0
H1462 H 0.2974 0.77498 0.09361 0.0
H1463 H 0.28323 0.79614 0.05473 0.0
S1464 S 0.27791 0.87413 0.1298 0.0
N1465 N 0.28799 0.84679 0.14087 0.0
N1466 N 0.27246 0.87002 0.09876 0.0
C1467 C 0.27893 0.8455 0.09614 0.0
C1468 C 0.28748 0.83298 0.11896 0.0
C1469 C 0.06743 0.47595 0.17104 0.0
C1470 C 0.06628 0.49113 0.14901 0.0
C1471 C 0.08667 0.48097 0.19055 0.0
C1472 C 0.10573 0.50087 0.18824 0.0
H1473 H 0.0536 0.45991 0.173 0.0
H1474 H 0.08728 0.46858 0.20702 0.0
S1475 S 0.11048 0.54657 0.13469 0.0
N1476 N 0.08502 0.5274 0.12648 0.0
N1477 N 0.12158 0.53642 0.1627 0.0
C1478 C 0.1044 0.51644 0.16651 0.0
C1479 C 0.08455 0.51167 0.14699 0.0
C1480 C 0.4268 0.73904 0.31327 0.0
C1481 C 0.40083 0.73644 0.32003 0.0
C1482 C 0.44714 0.74211 0.332 0.0
C1483 C 0.44219 0.74272 0.35816 0.0
H1484 H 0.43146 0.73787 0.29344 0.0
H1485 H 0.46688 0.74339 0.32593 0.0
S1486 S 0.37701 0.73998 0.38526 0.0
N1487 N 0.371 0.73698 0.35422 0.0
N1488 N 0.40891 0.7427 0.38944 0.0
C1489 C 0.41611 0.74121 0.36496 0.0
C1490 C 0.39553 0.7381 0.34591 0.0
C1491 C 0.00936 0.3676 0.95094 0.0
C1492 C 0.98468 0.37271 0.95919 0.0
C1493 C 0.0139 0.34412 0.9397 0.0
C1494 C 0.99404 0.32478 0.93689 0.0
H1495 H 0.02537 0.38169 0.95365 0.0
H1496 H 0.03335 0.34068 0.93428 0.0
S1497 S 0.92568 0.32925 0.95417 0.0
N1498 N 0.93991 0.35707 0.96267 0.0
N1499 N 0.94843 0.31287 0.94189 0.0
C1500 C 0.96909 0.33001 0.94433 0.0
C1501 C 0.96441 0.354 0.95539 0.0
C1502 C 0.62685 0.80192 0.32287 0.0
C1503 C 0.6178 0.79817 0.29739 0.0
C1504 C 0.61016 0.79857 0.34293 0.0
C1505 C 0.58367 0.79134 0.33839 0.0
H1506 H 0.64725 0.80648 0.32747 0.0
H1507 H 0.61839 0.8009 0.36222 0.0
S1508 S 0.54971 0.78214 0.27474 0.0
N1509 N 0.58026 0.78912 0.26843 0.0
N1510 N 0.54878 0.78262 0.30612 0.0
C1511 C 0.57408 0.78879 0.31287 0.0
C1512 C 0.59117 0.79217 0.2924 0.0
C1513 C 0.00359 0.15301 0.94076 0.0
C1514 C 0.026 0.13967 0.94699 0.0
C1515 C 0.00522 0.17701 0.92911 0.0
C1516 C 0.02923 0.18818 0.92255 0.0
H1517 H 0.9846 0.14506 0.94527 0.0
H1518 H 0.98761 0.18689 0.92525 0.0
S1519 S 0.09373 0.16202 0.93467 0.0
N1520 N 0.07317 0.14038 0.94621 0.0
N1521 N 0.07579 0.18459 0.92275 0.0
C1522 C 0.05166 0.1749 0.92778 0.0
C1523 C 0.05017 0.15084 0.94034 0.0
C1524 C 0.41681 0.27785 0.19768 0.0
C1525 C 0.3977 0.2591 0.20392 0.0
C1526 C 0.43344 0.27394 0.17782 0.0
C1527 C 0.43109 0.25138 0.1632 0.0
H1528 H 0.41897 0.29558 0.20831 0.0
H1529 H 0.44788 0.28885 0.17359 0.0
S1530 S 0.38385 0.19657 0.172 0.0
N1531 N 0.37732 0.21733 0.19404 0.0
N1532 N 0.40818 0.20994 0.15675 0.0
C1533 C 0.41198 0.23254 0.16936 0.0
C1534 C 0.39539 0.23641 0.18971 0.0
C1535 C 0.50714 0.35752 0.05882 0.0
C1536 C 0.52942 0.36659 0.04657 0.0
C1537 C 0.5059 0.33343 0.07039 0.0
C1538 C 0.52674 0.31732 0.06978 0.0
H1539 H 0.49029 0.36888 0.05889 0.0
H1540 H 0.48798 0.32693 0.07874 0.0
S1541 S 0.59021 0.33298 0.04174 0.0
N1542 N 0.57332 0.35824 0.03581 0.0
N1543 N 0.57108 0.31307 0.05748 0.0
C1544 C 0.54956 0.32669 0.05858 0.0
C1545 C 0.55088 0.35129 0.04701 0.0
C1546 C 0.61601 0.23038 0.16733 0.0
C1547 C 0.60862 0.23028 0.19273 0.0
C1548 C 0.59767 0.2321 0.14691 0.0
C1549 C 0.57105 0.23378 0.15094 0.0
H1550 H 0.63624 0.22938 0.16316 0.0
H1551 H 0.60456 0.23218 0.12778 0.0
S1552 S 0.54149 0.23322 0.21401 0.0
N1553 N 0.57283 0.23123 0.2209 0.0
N1554 N 0.53827 0.2347 0.18263 0.0
C1555 C 0.56337 0.23365 0.17634 0.0
C1556 C 0.58214 0.23187 0.19716 0.0
C1557 C 0.49632 0.15143 0.0351 0.0
C1558 C 0.48895 0.12845 0.04719 0.0
C1559 C 0.49967 0.17441 0.04878 0.0
C1560 C 0.49559 0.17533 0.07504 0.0
H1561 H 0.4984 0.15189 0.01469 0.0
H1562 H 0.50422 0.19175 0.0384 0.0
S1563 S 0.48024 0.11989 0.11641 0.0
N1564 N 0.48093 0.10757 0.08754 0.0
N1565 N 0.48661 0.15081 0.11314 0.0
C1566 C 0.48969 0.15228 0.08763 0.0
C1567 C 0.48649 0.12886 0.07374 0.0
C1568 C 0.33945 0.40645 0.7288 0.0
C1569 C 0.31415 0.41486 0.72947 0.0
C1570 C 0.36111 0.42369 0.72988 0.0
C1571 C 0.35845 0.45016 0.73162 0.0
H1572 H 0.34258 0.38628 0.72758 0.0
H1573 H 0.38011 0.41606 0.72934 0.0
S1574 S 0.29604 0.48197 0.73337 0.0
N1575 N 0.28741 0.45128 0.73152 0.0
N1576 N 0.32805 0.48388 0.73374 0.0
C1577 C 0.33312 0.45884 0.73234 0.0
C1578 C 0.31103 0.44117 0.73127 0.0
C1579 C 0.31041 0.59793 0.76607 0.0
C1580 C 0.30125 0.61477 0.74733 0.0
C1581 C 0.33157 0.58303 0.7619 0.0
C1582 C 0.34459 0.58475 0.73898 0.0
H1583 H 0.30102 0.59612 0.78401 0.0
H1584 H 0.33789 0.57027 0.77685 0.0
S1585 S 0.32842 0.62676 0.6842 0.0
N1586 N 0.30698 0.63277 0.70532 0.0
N1587 N 0.3466 0.605 0.69734 0.0
C1588 C 0.33561 0.60172 0.72016 0.0
C1589 C 0.31398 0.61665 0.72437 0.0
C1590 C 0.84268 0.43493 0.48078 0.0
C1591 C 0.86758 0.42681 0.47652 0.0
C1592 C 0.82269 0.41765 0.48802 0.0
C1593 C 0.82688 0.39157 0.49154 0.0
H1594 H 0.83859 0.45481 0.4784 0.0
H1595 H 0.80389 0.4249 0.49109 0.0
S1596 S 0.88923 0.36099 0.48352 0.0
N1597 N 0.89564 0.39128 0.47691 0.0
N1598 N 0.85836 0.35872 0.49027 0.0
C1599 C 0.85186 0.3833 0.48733 0.0
C1600 C 0.8721 0.40091 0.47988 0.0
C1601 C 0.73169 0.91568 0.75086 0.0
C1602 C 0.71673 0.89366 0.75713 0.0
C1603 C 0.721 0.93944 0.74939 0.0
C1604 C 0.69483 0.94247 0.75434 0.0
H1605 H 0.75202 0.9146 0.74709 0.0
H1606 H 0.73355 0.95566 0.74437 0.0
S1607 S 0.64722 0.89094 0.77207 0.0
N1608 N 0.6743 0.87629 0.7686 0.0
N1609 N 0.65418 0.92139 0.7663 0.0
C1610 C 0.67966 0.92076 0.76129 0.0
C1611 C 0.6906 0.89629 0.7626 0.0
C1612 C 0.67973 0.5637 0.00572 0.0
C1613 C 0.6532 0.56844 0.00379 0.0
C1614 C 0.6988 0.58375 0.00868 0.0
C1615 C 0.69207 0.60935 0.01002 0.0
H1616 H 0.68582 0.54435 0.00459 0.0
H1617 H 0.71897 0.57908 0.00998 0.0
S1618 S 0.62481 0.63153 0.00734 0.0
N1619 N 0.62099 0.60029 0.00448 0.0
N1620 N 0.65645 0.63797 0.00982 0.0
C1621 C 0.66543 0.6142 0.00838 0.0
C1622 C 0.64612 0.59379 0.00533 0.0
C1623 C 0.19563 0.61882 0.25591 0.0
C1624 C 0.20552 0.62203 0.23158 0.0
C1625 C 0.18126 0.59653 0.26219 0.0
C1626 C 0.17668 0.57654 0.2445 0.0
H1627 H 0.19956 0.63341 0.27038 0.0
H1628 H 0.17481 0.59443 0.28142 0.0
S1629 S 0.19576 0.57659 0.17745 0.0
N1630 N 0.20796 0.60414 0.18911 0.0
N1631 N 0.18074 0.56232 0.20097 0.0
C1632 C 0.18529 0.57998 0.21976 0.0
C1633 C 0.19974 0.60277 0.21326 0.0
C1634 C 0.8579 0.56164 0.01745 0.0
C1635 C 0.88427 0.56991 0.01846 0.0
C1636 C 0.83838 0.57901 0.01349 0.0
C1637 C 0.84459 0.60524 0.01027 0.0
H1638 H 0.85233 0.54181 0.02088 0.0
H1639 H 0.81833 0.57196 0.014 0.0
S1640 S 0.91112 0.63555 0.00753 0.0
N1641 N 0.91572 0.60524 0.01333 0.0
N1642 N 0.87936 0.63791 0.00555 0.0
C1643 C 0.87102 0.61333 0.00962 0.0
C1644 C 0.89078 0.59568 0.01384 0.0
C1645 C 0.13108 0.91821 0.99888 0.0
C1646 C 0.13828 0.94415 0.99583 0.0
C1647 C 0.14948 0.89964 0.99873 0.0
C1648 C 0.17595 0.9062 0.99566 0.0
H1649 H 0.11102 0.9122 0.00158 0.0
H1650 H 0.14285 0.87999 0.00152 0.0
S1651 S 0.2048 0.97166 0.98659 0.0
N1652 N 0.17358 0.97558 0.98932 0.0
N1653 N 0.20826 0.94069 0.9889 0.0
C1654 C 0.18335 0.93209 0.992 0.0
C1655 C 0.16451 0.95104 0.99211 0.0
loop_
_geom_bond_atom_site_label_1
_geom_bond_atom_site_label_2
_geom_bond_distance
_geom_bond_site_symmetry_2
_ccdc_geom_bond_type
C0 C1 1.391 . S
C0 C4 1.391 . S
C0 H42 0.948 . S
C1 C0 1.391 . S
C1 C2 1.373 1_455 S
C2 C1 1.373 1_655 S
C2 H58 0.966 . S
C2 C59 1.418 1_655 S
C3 C4 1.391 . S
C3 C7 1.397 1_556 S
C3 C59 1.425 . S
C4 C0 1.391 . S
C4 C3 1.391 . S
C4 C5 1.399 . S
C5 C4 1.399 . S
C5 C8 1.396 1_556 S
C5 C17 1.453 . S
C5 C18 1.684 . S
H6 C30 0.948 . S
C7 C3 1.397 1_554 S
C7 C8 1.394 . S
C7 C26 1.723 . S
C8 C5 1.396 1_554 S
C8 C7 1.394 . S
C8 C38 1.723 . S
H9 C32 0.947 . S
H10 C33 0.948 . S
H11 C39 0.982 1_545 S
H12 C40 0.979 . S
H13 C40 0.980 . S
H14 C40 0.983 . S
H15 C39 0.979 . S
H16 C39 0.977 . S
C17 C5 1.453 . S
C17 H46 0.982 . S
C17 H47 0.979 . S
C17 H48 0.977 . S
C18 C5 1.684 . S
C18 H43 0.979 . S
C18 H44 0.980 . S
C18 H45 0.983 . S
C19 C20 1.391 . S
C19 C24 1.391 . S
C19 H49 0.948 . S
C20 C19 1.391 . S
C20 C21 1.404 . S
C21 C20 1.404 . S
C21 C22 1.392 1_655 S
C21 H50 0.934 1_545 S
C22 C21 1.392 1_455 S
C22 C23 1.419 . S
C22 H51 0.948 1_545 S
C23 C22 1.419 . S
C23 C24 1.391 1_455 S
C23 C27 1.397 . S
C24 C19 1.391 . S
C24 C23 1.391 1_655 S
C24 C25 1.399 . S
C25 C24 1.399 . S
C25 C26 1.396 1_655 S
C25 C28 1.453 . S
C25 C29 1.684 . S
C26 C7 1.723 . S
C26 C25 1.396 1_455 S
C26 C27 1.394 . S
C27 C23 1.397 . S
C27 C26 1.394 . S
C27 C37 1.723 . S
C28 C25 1.453 . S
C28 H52 0.982 1_655 S
C28 H53 0.979 . S
C28 H54 0.977 . S
C29 C25 1.684 . S
C29 H55 0.979 . S
C29 H56 0.980 . S
C29 H57 0.983 . S
C30 H6 0.948 . S
C30 C31 1.391 . S
C30 C35 1.391 . S
C31 C30 1.391 . S
C31 C32 1.391 1_554 S
C32 H9 0.947 . S
C32 C31 1.391 1_556 S
C32 C33 1.392 1_565 S
C33 H10 0.948 . S
C33 C32 1.392 1_545 S
C33 C34 1.419 1_556 S
C34 C33 1.419 1_554 S
C34 C35 1.391 1_545 S
C34 C38 1.397 . S
C35 C30 1.391 . S
C35 C34 1.391 1_565 S
C35 C36 1.399 . S
C36 C35 1.399 . S
C36 C37 1.396 1_565 S
C36 C39 1.453 . S
C36 C40 1.684 . S
C37 C27 1.723 . S
C37 C36 1.396 1_545 S
C37 C38 1.394 . S
C38 C8 1.723 . S
C38 C34 1.397 . S
C38 C37 1.394 . S
C39 H11 0.982 1_565 S
C39 H15 0.979 . S
C39 H16 0.977 . S
C39 C36 1.453 . S
C40 H12 0.979 . S
C40 H13 0.980 . S
C40 H14 0.983 . S
C40 C36 1.684 . S
H41 C59 0.916 1_654 S
H42 C0 0.948 . S
H43 C18 0.979 . S
H44 C18 0.980 . S
H45 C18 0.983 . S
H46 C17 0.982 . S
H47 C17 0.979 . S
H48 C17 0.977 . S
H49 C19 0.948 . S
H50 C21 0.934 1_565 S
H51 C22 0.948 1_565 S
H52 C28 0.982 1_455 S
H53 C28 0.979 . S
H54 C28 0.977 . S
H55 C29 0.979 . S
H56 C29 0.980 . S
H57 C29 0.983 . S
H58 C2 0.966 . S
C59 C2 1.418 1_455 S
C59 C3 1.425 . S
C59 H41 0.916 1_456 S
C60 C61 1.391 . S
C60 C64 1.391 . S
C60 H102 0.948 . S
C61 C60 1.391 . S
C61 C62 1.391 . S
C62 C61 1.391 . S
C62 H118 0.947 . S
C62 C119 1.392 . S
C63 C64 1.391 . S
C63 C67 1.397 . S
C63 C119 1.419 . S
C64 C60 1.391 . S
C64 C63 1.391 . S
C64 C65 1.399 . S
C65 C64 1.399 . S
C65 C68 1.396 . S
C65 C77 1.453 . S
C65 C78 1.684 . S
H66 C90 0.948 . S
C67 C63 1.397 . S
C67 C68 1.394 . S
C67 C86 1.723 . S
C68 C65 1.396 . S
C68 C67 1.394 . S
C68 C98 1.723 . S
H69 C92 0.947 . S
H70 C93 0.948 . S
H71 C99 0.982 . S
H72 C100 0.979 . S
H73 C100 0.980 . S
H74 C100 0.983 . S
H75 C99 0.979 . S
H76 C99 0.977 . S
C77 C65 1.453 . S
C77 H106 0.982 . S
C77 H107 0.979 . S
C77 H108 0.977 . S
C78 C65 1.684 . S
C78 H103 0.979 . S
C78 H104 0.980 . S
C78 H105 0.983 . S
C79 C80 1.391 . S
C79 C84 1.391 . S
C79 H109 0.948 . S
C80 C79 1.391 . S
C80 C81 1.391 . S
C81 C80 1.391 . S
C81 C82 1.392 . S
C81 H110 0.947 . S
C82 C81 1.392 . S
C82 C83 1.419 . S
C82 H111 0.948 . S
C83 C82 1.419 . S
C83 C84 1.391 . S
C83 C87 1.397 . S
C84 C79 1.391 . S
C84 C83 1.391 . S
C84 C85 1.399 . S
C85 C84 1.399 . S
C85 C86 1.396 . S
C85 C88 1.453 . S
C85 C89 1.684 . S
C86 C67 1.723 . S
C86 C85 1.396 . S
C86 C87 1.394 . S
C87 C83 1.397 . S
C87 C86 1.394 . S
C87 C97 1.723 . S
C88 C85 1.453 . S
C88 H112 0.982 . S
C88 H113 0.979 . S
C88 H114 0.977 . S
C89 C85 1.684 . S
C89 H115 0.979 . S
C89 H116 0.980 . S
C89 H117 0.983 . S
C90 H66 0.948 . S
C90 C91 1.391 . S
C90 C95 1.391 . S
C91 C90 1.391 . S
C91 C92 1.391 . S
C92 H69 0.947 . S
C92 C91 1.391 . S
C92 C93 1.392 . S
C93 H70 0.948 . S
C93 C92 1.392 . S
C93 C94 1.419 . S
C94 C93 1.419 . S
C94 C95 1.391 . S
C94 C98 1.397 . S
C95 C90 1.391 . S
C95 C94 1.391 . S
C95 C96 1.399 . S
C96 C95 1.399 . S
C96 C97 1.396 . S
C96 C99 1.453 . S
C96 C100 1.684 . S
C97 C87 1.723 . S
C97 C96 1.396 . S
C97 C98 1.394 . S
C98 C68 1.723 . S
C98 C94 1.397 . S
C98 C97 1.394 . S
C99 H71 0.982 . S
C99 H75 0.979 . S
C99 H76 0.977 . S
C99 C96 1.453 . S
C100 H72 0.979 . S
C100 H73 0.980 . S
C100 H74 0.983 . S
C100 C96 1.684 . S
H101 C119 0.948 . S
H102 C60 0.948 . S
H103 C78 0.979 . S
H104 C78 0.980 . S
H105 C78 0.983 . S
H106 C77 0.982 . S
H107 C77 0.979 . S
H108 C77 0.977 . S
H109 C79 0.948 . S
H110 C81 0.947 . S
H111 C82 0.948 . S
H112 C88 0.982 . S
H113 C88 0.979 . S
H114 C88 0.977 . S
H115 C89 0.979 . S
H116 C89 0.980 . S
H117 C89 0.983 . S
H118 C62 0.947 . S
C119 C62 1.392 . S
C119 C63 1.419 . S
C119 H101 0.948 . S
C120 C121 1.391 1_455 S
C120 C124 1.391 1_556 S
C120 H162 0.948 1_556 S
C121 C120 1.391 1_655 S
C121 C122 1.391 . S
C122 C121 1.391 . S
C122 H178 0.947 . S
C122 C179 1.392 . S
C123 C124 1.391 1_655 S
C123 C127 1.397 . S
C123 C179 1.419 1_554 S
C124 C120 1.391 1_554 S
C124 C123 1.391 1_455 S
C124 C125 1.399 . S
C125 C124 1.399 . S
C125 C128 1.396 1_455 S
C125 C137 1.453 . S
C125 C138 1.684 . S
H126 C150 0.948 . S
C127 C123 1.397 . S
C127 C128 1.394 . S
C127 C146 1.723 . S
C128 C125 1.396 1_655 S
C128 C127 1.394 . S
C128 C158 1.723 . S
H129 C152 0.947 . S
H130 C153 0.948 . S
H131 C159 0.982 . S
H132 C160 0.979 1_455 S
H133 C160 0.980 . S
H134 C160 0.983 . S
H135 C159 0.979 . S
H136 C159 0.977 . S
C137 C125 1.453 . S
C137 H166 0.969 1_455 S
C137 H167 0.979 . S
C137 H168 0.977 . S
C138 C125 1.684 . S
C138 H163 0.979 . S
C138 H164 0.980 . S
C138 H165 0.983 . S
C139 C140 1.391 . S
C139 C144 1.391 . S
C139 H169 0.925 1_554 S
C140 C139 1.391 . S
C140 C141 1.391 . S
C141 C140 1.391 . S
C141 C142 1.392 . S
C141 H170 0.947 . S
C142 C141 1.392 . S
C142 C143 1.419 . S
C142 H171 0.948 . S
C143 C142 1.419 . S
C143 C144 1.391 . S
C143 C147 1.397 . S
C144 C139 1.391 . S
C144 C143 1.391 . S
C144 C145 1.399 . S
C145 C144 1.399 . S
C145 C146 1.396 . S
C145 C148 1.453 . S
C145 C149 1.684 1_554 S
C146 C127 1.723 . S
C146 C145 1.396 . S
C146 C147 1.394 . S
C147 C143 1.397 . S
C147 C146 1.394 . S
C147 C157 1.723 . S
C148 C145 1.453 . S
C148 H172 0.982 . S
C148 H173 0.979 1_554 S
C148 H174 0.977 1_554 S
C149 C145 1.684 1_556 S
C149 H175 0.979 . S
C149 H176 0.980 . S
C149 H177 0.983 . S
C150 H126 0.948 . S
C150 C151 1.391 . S
C150 C155 1.391 . S
C151 C150 1.391 . S
C151 C152 1.391 . S
C152 H129 0.947 . S
C152 C151 1.391 . S
C152 C153 1.392 . S
C153 H130 0.948 . S
C153 C152 1.392 . S
C153 C154 1.419 . S
C154 C153 1.419 . S
C154 C155 1.391 . S
C154 C158 1.397 1_455 S
C155 C150 1.391 . S
C155 C154 1.391 . S
C155 C156 1.399 1_455 S
C156 C155 1.399 1_655 S
C156 C157 1.396 . S
C156 C159 1.453 . S
C156 C160 1.684 . S
C157 C147 1.723 . S
C157 C156 1.396 . S
C157 C158 1.394 . S
C158 C128 1.723 . S
C158 C154 1.397 1_655 S
C158 C157 1.394 . S
C159 H131 0.982 . S
C159 H135 0.979 . S
C159 H136 0.977 . S
C159 C156 1.453 . S
C160 H132 0.979 1_655 S
C160 H133 0.980 . S
C160 H134 0.983 . S
C160 C156 1.684 . S
H161 C179 0.948 . S
H162 C120 0.948 1_554 S
H163 C138 0.979 . S
H164 C138 0.980 . S
H165 C138 0.983 . S
H166 C137 0.969 1_655 S
H167 C137 0.979 . S
H168 C137 0.977 . S
H169 C139 0.925 1_556 S
H170 C141 0.947 . S
H171 C142 0.948 . S
H172 C148 0.982 . S
H173 C148 0.979 1_556 S
H174 C148 0.977 1_556 S
H175 C149 0.979 . S
H176 C149 0.980 . S
H177 C149 0.983 . S
H178 C122 0.947 . S
C179 C122 1.392 . S
C179 C123 1.419 1_556 S
C179 H161 0.948 . S
C180 C181 1.391 . S
C180 C184 1.391 . S
C180 H222 0.948 . S
C181 C180 1.391 . S
C181 C182 1.391 . S
C182 C181 1.391 . S
C182 H238 0.947 . S
C182 C239 1.392 . S
C183 C184 1.391 . S
C183 C187 1.397 . S
C183 C239 1.419 . S
C184 C180 1.391 . S
C184 C183 1.391 . S
C184 C185 1.399 . S
C185 C184 1.399 . S
C185 C188 1.396 . S
C185 C197 1.453 . S
C185 C198 1.684 . S
H186 C210 0.948 . S
C187 C183 1.397 . S
C187 C188 1.394 . S
C187 C206 1.723 . S
C188 C185 1.396 . S
C188 C187 1.394 . S
C188 C218 1.723 . S
H189 C212 0.947 . S
H190 C213 0.948 . S
H191 C219 0.982 . S
H192 C220 0.979 . S
H193 C220 0.980 . S
H194 C220 0.983 . S
H195 C219 0.979 . S
H196 C219 0.977 . S
C197 C185 1.453 . S
C197 H226 0.982 . S
C197 H227 0.979 . S
C197 H228 0.977 . S
C198 C185 1.684 . S
C198 H223 0.979 . S
C198 H224 0.980 . S
C198 H225 0.983 . S
C199 C200 1.391 . S
C199 C204 1.391 . S
C199 H229 0.948 . S
C200 C199 1.391 . S
C200 C201 1.391 . S
C201 C200 1.391 . S
C201 C202 1.392 . S
C201 H230 0.947 . S
C202 C201 1.392 . S
C202 C203 1.419 . S
C202 H231 0.948 . S
C203 C202 1.419 . S
C203 C204 1.391 . S
C203 C207 1.397 . S
C204 C199 1.391 . S
C204 C203 1.391 . S
C204 C205 1.399 . S
C205 C204 1.399 . S
C205 C206 1.396 . S
C205 C208 1.453 . S
C205 C209 1.684 . S
C206 C187 1.723 . S
C206 C205 1.396 . S
C206 C207 1.394 . S
C207 C203 1.397 . S
C207 C206 1.394 . S
C207 C217 1.723 . S
C208 C205 1.453 . S
C208 H232 0.982 . S
C208 H233 0.979 . S
C208 H234 0.977 . S
C209 C205 1.684 . S
C209 H235 0.979 . S
C209 H236 0.980 . S
C209 H237 0.983 . S
C210 H186 0.948 . S
C210 C211 1.391 . S
C210 C215 1.391 . S
C211 C210 1.391 . S
C211 C212 1.391 . S
C212 H189 0.947 . S
C212 C211 1.391 . S
C212 C213 1.392 . S
C213 H190 0.948 . S
C213 C212 1.392 . S
C213 C214 1.419 . S
C214 C213 1.419 . S
C214 C215 1.391 . S
C214 C218 1.397 . S
C215 C210 1.391 . S
C215 C214 1.391 . S
C215 C216 1.399 . S
C216 C215 1.399 . S
C216 C217 1.396 . S
C216 C219 1.453 . S
C216 C220 1.684 . S
C217 C207 1.723 . S
C217 C216 1.396 . S
C217 C218 1.394 . S
C218 C188 1.723 . S
C218 C214 1.397 . S
C218 C217 1.394 . S
C219 H191 0.982 . S
C219 H195 0.979 . S
C219 H196 0.977 . S
C219 C216 1.453 . S
C220 H192 0.979 . S
C220 H193 0.980 . S
C220 H194 0.983 . S
C220 C216 1.684 . S
H221 C239 0.948 . S
H222 C180 0.948 . S
H223 C198 0.979 . S
H224 C198 0.980 . S
H225 C198 0.983 . S
H226 C197 0.982 . S
H227 C197 0.979 . S
H228 C197 0.977 . S
H229 C199 0.948 . S
H230 C201 0.947 . S
H231 C202 0.948 . S
H232 C208 0.982 . S
H233 C208 0.979 . S
H234 C208 0.977 . S
H235 C209 0.979 . S
H236 C209 0.980 . S
H237 C209 0.983 . S
H238 C182 0.947 . S
C239 C182 1.392 . S
C239 C183 1.419 . S
C239 H221 0.948 . S
C240 C241 1.391 . S
C240 C244 1.391 . S
C240 H282 0.948 . S
C241 C240 1.391 . S
C241 C242 1.391 . S
C242 C241 1.391 . S
C242 H298 0.947 1_455 S
C242 C299 1.392 . S
C243 C244 1.391 . S
C243 C247 1.397 . S
C243 C299 1.419 . S
C244 C240 1.391 . S
C244 C243 1.391 . S
C244 C245 1.399 . S
C245 C244 1.399 . S
C245 C248 1.396 . S
C245 C257 1.453 . S
C245 C258 1.684 . S
H246 C270 0.948 . S
C247 C243 1.397 . S
C247 C248 1.394 . S
C247 C266 1.723 . S
C248 C245 1.396 . S
C248 C247 1.394 . S
C248 C278 1.723 . S
H249 C272 0.947 . S
H250 C273 0.948 . S
H251 C279 0.982 . S
H252 C280 0.979 . S
H253 C280 0.980 . S
H254 C280 0.983 . S
H255 C279 0.979 . S
H256 C279 0.977 . S
C257 C245 1.453 . S
C257 H286 0.982 . S
C257 H287 0.979 . S
C257 H288 0.977 . S
C258 C245 1.684 . S
C258 H283 0.979 . S
C258 H284 0.980 . S
C258 H285 0.983 . S
C259 C260 1.391 . S
C259 C264 1.391 1_655 S
C259 H289 0.948 . S
C260 C259 1.391 . S
C260 C261 1.391 1_665 S
C261 C260 1.391 1_445 S
C261 C262 1.392 . S
C261 H290 0.947 . S
C262 C261 1.392 . S
C262 C263 1.419 1_545 S
C262 H291 0.948 . S
C263 C262 1.419 1_565 S
C263 C264 1.391 . S
C263 C267 1.397 . S
C264 C259 1.391 1_455 S
C264 C263 1.391 . S
C264 C265 1.399 . S
C265 C264 1.399 . S
C265 C266 1.396 . S
C265 C268 1.453 1_455 S
C265 C269 1.684 1_455 S
C266 C247 1.723 . S
C266 C265 1.396 . S
C266 C267 1.394 . S
C267 C263 1.397 . S
C267 C266 1.394 . S
C267 C277 1.723 . S
C268 C265 1.453 1_655 S
C268 H292 0.982 . S
C268 H293 0.979 . S
C268 H294 0.977 . S
C269 C265 1.684 1_655 S
C269 H295 0.979 1_655 S
C269 H296 0.980 . S
C269 H297 0.983 . S
C270 H246 0.948 . S
C270 C271 1.391 . S
C270 C275 1.391 . S
C271 C270 1.391 . S
C271 C272 1.391 . S
C272 H249 0.947 . S
C272 C271 1.391 . S
C272 C273 1.392 1_545 S
C273 H250 0.948 . S
C273 C272 1.392 1_565 S
C273 C274 1.418 1_565 S
C274 C273 1.418 1_545 S
C274 C275 1.393 . S
C274 C278 1.396 1_545 S
C275 C270 1.391 . S
C275 C274 1.393 . S
C275 C276 1.399 . S
C276 C275 1.399 . S
C276 C277 1.396 1_545 S
C276 C279 1.453 . S
C276 C280 1.684 . S
C277 C267 1.723 . S
C277 C276 1.396 1_565 S
C277 C278 1.394 . S
C278 C248 1.723 . S
C278 C274 1.396 1_565 S
C278 C277 1.394 . S
C279 H251 0.982 . S
C279 H255 0.979 . S
C279 H256 0.977 . S
C279 C276 1.453 . S
C280 H252 0.979 . S
C280 H253 0.980 . S
C280 H254 0.983 . S
C280 C276 1.684 . S
H281 C299 0.948 . S
H282 C240 0.948 . S
H283 C258 0.979 . S
H284 C258 0.980 . S
H285 C258 0.983 . S
H286 C257 0.982 . S
H287 C257 0.979 . S
H288 C257 0.977 . S
H289 C259 0.948 . S
H290 C261 0.947 . S
H291 C262 0.948 . S
H292 C268 0.982 . S
H293 C268 0.979 . S
H294 C268 0.977 . S
H295 C269 0.979 1_455 S
H296 C269 0.980 . S
H297 C269 0.983 . S
H298 C242 0.947 1_655 S
C299 C242 1.392 . S
C299 C243 1.419 . S
C299 H281 0.948 . S
C300 C301 1.391 . S
C300 C304 1.391 . S
C300 H342 0.948 . S
C301 C300 1.391 . S
C301 C302 1.391 . S
C302 C301 1.391 . S
C302 H358 0.947 . S
C302 C359 1.392 . S
C303 C304 1.391 . S
C303 C307 1.397 . S
C303 C359 1.419 . S
C304 C300 1.391 . S
C304 C303 1.391 . S
C304 C305 1.399 . S
C305 C304 1.399 . S
C305 C308 1.396 . S
C305 C317 1.453 . S
C305 C318 1.684 . S
H306 C330 0.948 . S
C307 C303 1.397 . S
C307 C308 1.394 . S
C307 C326 1.723 . S
C308 C305 1.396 . S
C308 C307 1.394 . S
C308 C338 1.723 . S
H309 C332 0.947 . S
H310 C333 0.948 . S
H311 C339 0.982 . S
H312 C340 0.979 . S
H313 C340 0.980 . S
H314 C340 0.983 . S
H315 C339 0.979 . S
H316 C339 0.977 . S
C317 C305 1.453 . S
C317 H346 0.982 . S
C317 H347 0.979 . S
C317 H348 0.977 . S
C318 C305 1.684 . S
C318 H343 0.979 . S
C318 H344 0.980 . S
C318 H345 0.983 . S
C319 C320 1.391 . S
C319 C324 1.391 . S
C319 H349 0.948 . S
C320 C319 1.391 . S
C320 C321 1.391 . S
C321 C320 1.391 . S
C321 C322 1.392 . S
C321 H350 0.947 . S
C322 C321 1.392 . S
C322 C323 1.419 . S
C322 H351 0.948 . S
C323 C322 1.419 . S
C323 C324 1.391 . S
C323 C327 1.397 . S
C324 C319 1.391 . S
C324 C323 1.391 . S
C324 C325 1.399 . S
C325 C324 1.399 . S
C325 C326 1.396 . S
C325 C328 1.453 . S
C325 C329 1.684 . S
C326 C307 1.723 . S
C326 C325 1.396 . S
C326 C327 1.394 . S
C327 C323 1.397 . S
C327 C326 1.394 . S
C327 C337 1.723 . S
C328 C325 1.453 . S
C328 H352 0.982 . S
C328 H353 0.979 . S
C328 H354 0.977 . S
C329 C325 1.684 . S
C329 H355 0.979 . S
C329 H356 0.980 . S
C329 H357 0.983 . S
C330 H306 0.948 . S
C330 C331 1.391 . S
C330 C335 1.391 . S
C331 C330 1.391 . S
C331 C332 1.391 . S
C332 H309 0.947 . S
C332 C331 1.391 . S
C332 C333 1.392 . S
C333 H310 0.948 . S
C333 C332 1.392 . S
C333 C334 1.419 . S
C334 C333 1.419 . S
C334 C335 1.391 . S
C334 C338 1.397 . S
C335 C330 1.391 . S
C335 C334 1.391 . S
C335 C336 1.399 . S
C336 C335 1.399 . S
C336 C337 1.396 . S
C336 C339 1.453 . S
C336 C340 1.684 . S
C337 C327 1.723 . S
C337 C336 1.396 . S
C337 C338 1.394 . S
C338 C308 1.723 . S
C338 C334 1.397 . S
C338 C337 1.394 . S
C339 H311 0.982 . S
C339 H315 0.979 . S
C339 H316 0.977 . S
C339 C336 1.453 . S
C340 H312 0.979 . S
C340 H313 0.980 . S
C340 H314 0.983 . S
C340 C336 1.684 . S
H341 C359 0.948 . S
H342 C300 0.948 . S
H343 C318 0.979 . S
H344 C318 0.980 . S
H345 C318 0.983 . S
H346 C317 0.982 . S
H347 C317 0.979 . S
H348 C317 0.977 . S
H349 C319 0.948 . S
H350 C321 0.947 . S
H351 C322 0.948 . S
H352 C328 0.982 . S
H353 C328 0.979 . S
H354 C328 0.977 . S
H355 C329 0.979 . S
H356 C329 0.980 . S
H357 C329 0.983 . S
H358 C302 0.947 . S
C359 C302 1.392 . S
C359 C303 1.419 . S
C359 H341 0.948 . S
C360 C361 1.391 . S
C360 C364 1.391 . S
C360 H402 0.948 . S
C361 C360 1.391 . S
C361 C362 1.391 . S
C362 C361 1.391 . S
C362 H418 0.947 . S
C362 C419 1.392 . S
C363 C364 1.391 . S
C363 C367 1.397 . S
C363 C419 1.419 . S
C364 C360 1.391 . S
C364 C363 1.391 . S
C364 C365 1.399 . S
C365 C364 1.399 . S
C365 C368 1.396 . S
C365 C377 1.453 . S
C365 C378 1.684 . S
H366 C390 0.948 1_455 S
C367 C363 1.397 . S
C367 C368 1.394 . S
C367 C386 1.723 . S
C368 C365 1.396 . S
C368 C367 1.394 . S
C368 C398 1.723 . S
H369 C392 0.947 . S
H370 C393 0.948 . S
H371 C399 0.982 1_655 S
H372 C400 0.979 . S
H373 C400 0.980 . S
H374 C400 0.983 . S
H375 C399 0.979 . S
H376 C399 0.977 . S
C377 C365 1.453 . S
C377 H406 0.982 . S
C377 H407 0.979 . S
C377 H408 0.977 . S
C378 C365 1.684 . S
C378 H403 0.979 . S
C378 H404 0.980 . S
C378 H405 0.983 . S
C379 C380 1.391 . S
C379 C384 1.398 . S
C379 H409 0.948 . S
C380 C379 1.391 . S
C380 C381 1.391 . S
C381 C380 1.391 . S
C381 C382 1.392 . S
C381 H410 0.947 . S
C382 C381 1.392 . S
C382 C383 1.419 . S
C382 H411 0.948 . S
C383 C382 1.419 . S
C383 C384 1.392 . S
C383 C387 1.397 1_455 S
C384 C379 1.398 . S
C384 C383 1.392 . S
C384 C385 1.390 1_455 S
C385 C384 1.390 1_655 S
C385 C386 1.396 . S
C385 C388 1.453 . S
C385 C389 1.684 . S
C386 C367 1.723 . S
C386 C385 1.396 . S
C386 C387 1.394 . S
C387 C383 1.397 1_655 S
C387 C386 1.394 . S
C387 C397 1.723 . S
C388 C385 1.453 . S
C388 H412 0.982 . S
C388 H413 0.979 . S
C388 H414 0.977 . S
C389 C385 1.684 . S
C389 H415 0.979 . S
C389 H416 0.980 . S
C389 H417 0.983 . S
C390 H366 0.948 1_655 S
C390 C391 1.391 . S
C390 C395 1.391 . S
C391 C390 1.391 . S
C391 C392 1.391 . S
C392 H369 0.947 . S
C392 C391 1.391 . S
C392 C393 1.392 . S
C393 H370 0.948 . S
C393 C392 1.392 . S
C393 C394 1.419 . S
C394 C393 1.419 . S
C394 C395 1.391 . S
C394 C398 1.397 . S
C395 C390 1.391 . S
C395 C394 1.391 . S
C395 C396 1.399 1_655 S
C396 C395 1.399 1_455 S
C396 C397 1.396 1_455 S
C396 C399 1.453 . S
C396 C400 1.684 . S
C397 C387 1.723 . S
C397 C396 1.396 1_655 S
C397 C398 1.394 . S
C398 C368 1.723 . S
C398 C394 1.397 . S
C398 C397 1.394 . S
C399 H371 0.982 1_455 S
C399 H375 0.979 . S
C399 H376 0.977 . S
C399 C396 1.453 . S
C400 H372 0.979 . S
C400 H373 0.980 . S
C400 H374 0.983 . S
C400 C396 1.684 . S
H401 C419 0.948 . S
H402 C360 0.948 . S
H403 C378 0.979 . S
H404 C378 0.980 . S
H405 C378 0.983 . S
H406 C377 0.982 . S
H407 C377 0.979 . S
H408 C377 0.977 . S
H409 C379 0.948 . S
H410 C381 0.947 . S
H411 C382 0.948 . S
H412 C388 0.982 . S
H413 C388 0.979 . S
H414 C388 0.977 . S
H415 C389 0.979 . S
H416 C389 0.980 . S
H417 C389 0.983 . S
H418 C362 0.947 . S
C419 C362 1.392 . S
C419 C363 1.419 . S
C419 H401 0.948 . S
C420 C421 1.391 . S
C420 C424 1.391 . S
C420 H462 0.948 . S
C421 C420 1.391 . S
C421 C422 1.391 . S
C422 C421 1.391 . S
C422 H478 0.947 . S
C422 C479 1.392 . S
C423 C424 1.391 . S
C423 C427 1.397 . S
C423 C479 1.419 . S
C424 C420 1.391 . S
C424 C423 1.391 . S
C424 C425 1.399 . S
C425 C424 1.399 . S
C425 C428 1.396 . S
C425 C437 1.453 . S
C425 C438 1.684 . S
H426 C450 0.948 . S
C427 C423 1.397 . S
C427 C428 1.394 . S
C427 C446 1.723 . S
C428 C425 1.396 . S
C428 C427 1.394 . S
C428 C458 1.723 . S
H429 C452 0.947 . S
H430 C453 0.948 . S
H431 C459 0.982 . S
H432 C460 0.979 . S
H433 C460 0.980 . S
H434 C460 0.983 . S
H435 C459 0.979 . S
H436 C459 0.977 . S
C437 C425 1.453 . S
C437 H466 0.982 . S
C437 H467 0.979 . S
C437 H468 0.977 . S
C438 C425 1.684 . S
C438 H463 0.979 . S
C438 H464 0.980 . S
C438 H465 0.983 . S
C439 C440 1.391 . S
C439 C444 1.391 . S
C439 H469 0.948 . S
C440 C439 1.391 . S
C440 C441 1.391 . S
C441 C440 1.391 . S
C441 C442 1.392 . S
C441 H470 0.947 . S
C442 C441 1.392 . S
C442 C443 1.419 . S
C442 H471 0.948 . S
C443 C442 1.419 . S
C443 C444 1.391 . S
C443 C447 1.397 . S
C444 C439 1.391 . S
C444 C443 1.391 . S
C444 C445 1.399 . S
C445 C444 1.399 . S
C445 C446 1.396 . S
C445 C448 1.453 . S
C445 C449 1.684 . S
C446 C427 1.723 . S
C446 C445 1.396 . S
C446 C447 1.394 . S
C447 C443 1.397 . S
C447 C446 1.394 . S
C447 C457 1.723 . S
C448 C445 1.453 . S
C448 H472 0.982 . S
C448 H473 0.979 . S
C448 H474 0.977 . S
C449 C445 1.684 . S
C449 H475 0.979 . S
C449 H476 0.980 . S
C449 H477 0.983 . S
C450 H426 0.948 . S
C450 C451 1.391 . S
C450 C455 1.391 . S
C451 C450 1.391 . S
C451 C452 1.391 . S
C452 H429 0.947 . S
C452 C451 1.391 . S
C452 C453 1.392 . S
C453 H430 0.948 . S
C453 C452 1.392 . S
C453 C454 1.419 . S
C454 C453 1.419 . S
C454 C455 1.391 . S
C454 C458 1.397 . S
C455 C450 1.391 . S
C455 C454 1.391 . S
C455 C456 1.399 . S
C456 C455 1.399 . S
C456 C457 1.396 . S
C456 C459 1.453 . S
C456 C460 1.684 . S
C457 C447 1.723 . S
C457 C456 1.396 . S
C457 C458 1.394 . S
C458 C428 1.723 . S
C458 C454 1.397 . S
C458 C457 1.394 . S
C459 H431 0.982 . S
C459 H435 0.979 . S
C459 H436 0.977 . S
C459 C456 1.453 . S
C460 H432 0.979 . S
C460 H433 0.980 . S
C460 H434 0.983 . S
C460 C456 1.684 . S
H461 C479 0.948 . S
H462 C420 0.948 . S
H463 C438 0.979 . S
H464 C438 0.980 . S
H465 C438 0.983 . S
H466 C437 0.982 . S
H467 C437 0.979 . S
H468 C437 0.977 . S
H469 C439 0.948 . S
H470 C441 0.947 . S
H471 C442 0.948 . S
H472 C448 0.982 . S
H473 C448 0.979 . S
H474 C448 0.977 . S
H475 C449 0.979 . S
H476 C449 0.980 . S
H477 C449 0.983 . S
H478 C422 0.947 . S
C479 C422 1.392 . S
C479 C423 1.419 . S
C479 H461 0.948 . S
C480 C481 1.391 . S
C480 C484 1.391 . S
C480 H522 0.948 . S
C481 C480 1.391 . S
C481 C482 1.391 . S
C482 C481 1.391 . S
C482 H538 0.947 . S
C482 C539 1.392 . S
C483 C484 1.391 . S
C483 C487 1.397 . S
C483 C539 1.419 . S
C484 C480 1.391 . S
C484 C483 1.391 . S
C484 C485 1.399 . S
C485 C484 1.399 . S
C485 C488 1.396 . S
C485 C497 1.453 . S
C485 C498 1.684 . S
H486 C510 0.948 . S
C487 C483 1.397 . S
C487 C488 1.394 . S
C487 C506 1.723 . S
C488 C485 1.396 . S
C488 C487 1.394 . S
C488 C518 1.723 . S
H489 C512 0.947 . S
H490 C513 0.948 . S
H491 C519 0.982 . S
H492 C520 0.979 . S
H493 C520 0.980 . S
H494 C520 0.983 . S
H495 C519 0.979 . S
H496 C519 0.977 . S
C497 C485 1.453 . S
C497 H526 0.982 . S
C497 H527 0.979 . S
C497 H528 0.977 . S
C498 C485 1.684 . S
C498 H523 0.979 . S
C498 H524 0.980 . S
C498 H525 0.983 . S
C499 C500 1.391 . S
C499 C504 1.391 . S
C499 H529 0.948 . S
C500 C499 1.391 . S
C500 C501 1.391 . S
C501 C500 1.391 . S
C501 C502 1.392 . S
C501 H530 0.947 . S
C502 C501 1.392 . S
C502 C503 1.419 . S
C502 H531 0.948 . S
C503 C502 1.419 . S
C503 C504 1.391 . S
C503 C507 1.397 . S
C504 C499 1.391 . S
C504 C503 1.391 . S
C504 C505 1.399 . S
C505 C504 1.399 . S
C505 C506 1.396 . S
C505 C508 1.453 . S
C505 C509 1.684 . S
C506 C487 1.723 . S
C506 C505 1.396 . S
C506 C507 1.394 . S
C507 C503 1.397 . S
C507 C506 1.394 . S
C507 C517 1.723 . S
C508 C505 1.453 . S
C508 H532 0.982 . S
C508 H533 0.979 . S
C508 H534 0.977 . S
C509 C505 1.684 . S
C509 H535 0.979 . S
C509 H536 0.980 . S
C509 H537 0.983 . S
C510 H486 0.948 . S
C510 C511 1.391 . S
C510 C515 1.391 . S
C511 C510 1.391 . S
C511 C512 1.391 . S
C512 H489 0.947 . S
C512 C511 1.391 . S
C512 C513 1.392 . S
C513 H490 0.948 . S
C513 C512 1.392 . S
C513 C514 1.419 . S
C514 C513 1.419 . S
C514 C515 1.391 . S
C514 C518 1.397 . S
C515 C510 1.391 . S
C515 C514 1.391 . S
C515 C516 1.399 . S
C516 C515 1.399 . S
C516 C517 1.396 . S
C516 C519 1.453 . S
C516 C520 1.684 . S
C517 C507 1.723 . S
C517 C516 1.396 . S
C517 C518 1.394 . S
C518 C488 1.723 . S
C518 C514 1.397 . S
C518 C517 1.394 . S
C519 H491 0.982 . S
C519 H495 0.979 . S
C519 H496 0.977 . S
C519 C516 1.453 . S
C520 H492 0.979 . S
C520 H493 0.980 . S
C520 H494 0.983 . S
C520 C516 1.684 . S
H521 C539 0.948 . S
H522 C480 0.948 . S
H523 C498 0.979 . S
H524 C498 0.980 . S
H525 C498 0.983 . S
H526 C497 0.982 . S
H527 C497 0.979 . S
H528 C497 0.977 . S
H529 C499 0.948 . S
H530 C501 0.947 . S
H531 C502 0.948 . S
H532 C508 0.982 . S
H533 C508 0.979 . S
H534 C508 0.977 . S
H535 C509 0.979 . S
H536 C509 0.980 . S
H537 C509 0.983 . S
H538 C482 0.947 . S
C539 C482 1.392 . S
C539 C483 1.419 . S
C539 H521 0.948 . S
C540 C541 1.391 . S
C540 C544 1.391 . S
C540 H582 0.948 . S
C541 C540 1.391 . S
C541 C542 1.391 . S
C542 C541 1.391 . S
C542 H598 0.947 . S
C542 C599 1.392 . S
C543 C544 1.391 . S
C543 C547 1.397 . S
C543 C599 1.419 . S
C544 C540 1.391 . S
C544 C543 1.391 . S
C544 C545 1.399 . S
C545 C544 1.399 . S
C545 C548 1.396 . S
C545 C557 1.453 . S
C545 C558 1.684 . S
H546 C570 0.948 1_545 S
C547 C543 1.397 . S
C547 C548 1.394 . S
C547 C566 1.723 . S
C548 C545 1.396 . S
C548 C547 1.394 . S
C548 C578 1.723 . S
H549 C572 0.947 . S
H550 C573 0.948 . S
H551 C579 0.982 1_565 S
H552 C580 0.979 . S
H553 C580 0.980 . S
H554 C580 0.983 . S
H555 C579 0.979 . S
H556 C579 0.977 . S
C557 C545 1.453 . S
C557 H586 0.982 . S
C557 H587 0.979 . S
C557 H588 0.977 . S
C558 C545 1.684 . S
C558 H583 0.979 . S
C558 H584 0.980 . S
C558 H585 0.983 . S
C559 C560 1.391 . S
C559 C564 1.404 . S
C559 H589 0.948 . S
C560 C559 1.391 . S
C560 C561 1.391 . S
C561 C560 1.391 . S
C561 C562 1.392 . S
C561 H590 0.947 . S
C562 C561 1.392 . S
C562 C563 1.419 . S
C562 H591 0.948 . S
C563 C562 1.419 . S
C563 C564 1.394 . S
C563 C567 1.397 1_545 S
C564 C559 1.404 . S
C564 C563 1.394 . S
C564 C565 1.382 1_545 S
C565 C564 1.382 1_565 S
C565 C566 1.396 . S
C565 C568 1.453 . S
C565 C569 1.684 . S
C566 C547 1.723 . S
C566 C565 1.396 . S
C566 C567 1.394 . S
C567 C563 1.397 1_565 S
C567 C566 1.394 . S
C567 C577 1.723 . S
C568 C565 1.453 . S
C568 H592 0.982 . S
C568 H593 0.979 . S
C568 H594 0.977 . S
C569 C565 1.684 . S
C569 H595 0.979 . S
C569 H596 0.980 . S
C569 H597 0.983 . S
C570 H546 0.948 1_565 S
C570 C571 1.391 . S
C570 C575 1.391 . S
C571 C570 1.391 . S
C571 C572 1.391 . S
C572 H549 0.947 . S
C572 C571 1.391 . S
C572 C573 1.392 . S
C573 H550 0.948 . S
C573 C572 1.392 . S
C573 C574 1.419 . S
C574 C573 1.419 . S
C574 C575 1.391 . S
C574 C578 1.397 . S
C575 C570 1.391 . S
C575 C574 1.391 . S
C575 C576 1.384 1_565 S
C576 C575 1.384 1_545 S
C576 C577 1.378 1_545 S
C576 C579 1.457 . S
C576 C580 1.717 . S
C577 C567 1.723 . S
C577 C576 1.378 1_565 S
C577 C578 1.394 . S
C578 C548 1.723 . S
C578 C574 1.397 . S
C578 C577 1.394 . S
C579 H551 0.982 1_545 S
C579 H555 0.979 . S
C579 H556 0.977 . S
C579 C576 1.457 . S
C580 H552 0.979 . S
C580 H553 0.980 . S
C580 H554 0.983 . S
C580 C576 1.717 . S
H581 C599 0.948 . S
H582 C540 0.948 . S
H583 C558 0.979 . S
H584 C558 0.980 . S
H585 C558 0.983 . S
H586 C557 0.982 . S
H587 C557 0.979 . S
H588 C557 0.977 . S
H589 C559 0.948 . S
H590 C561 0.947 . S
H591 C562 0.948 . S
H592 C568 0.982 . S
H593 C568 0.979 . S
H594 C568 0.977 . S
H595 C569 0.979 . S
H596 C569 0.980 . S
H597 C569 0.983 . S
H598 C542 0.947 . S
C599 C542 1.392 . S
C599 C543 1.419 . S
C599 H581 0.948 . S
C600 C601 1.391 . S
C600 C604 1.391 . S
C600 H642 0.948 . S
C601 C600 1.391 . S
C601 C602 1.391 . S
C602 C601 1.391 . S
C602 H658 0.947 . S
C602 C659 1.392 . S
C603 C604 1.391 . S
C603 C607 1.397 . S
C603 C659 1.419 . S
C604 C600 1.391 . S
C604 C603 1.391 . S
C604 C605 1.399 . S
C605 C604 1.399 . S
C605 C608 1.396 . S
C605 C617 1.453 . S
C605 C618 1.684 . S
H606 C630 0.948 . S
C607 C603 1.397 . S
C607 C608 1.394 . S
C607 C626 1.723 . S
C608 C605 1.396 . S
C608 C607 1.394 . S
C608 C638 1.723 . S
H609 C632 0.947 . S
H610 C633 0.948 . S
H611 C639 0.982 . S
H612 C640 0.979 . S
H613 C640 0.980 . S
H614 C640 0.983 . S
H615 C639 0.979 . S
H616 C639 0.977 . S
C617 C605 1.453 . S
C617 H646 0.982 . S
C617 H647 0.979 . S
C617 H648 0.977 . S
C618 C605 1.684 . S
C618 H643 0.979 . S
C618 H644 0.980 . S
C618 H645 0.983 . S
C619 C620 1.391 . S
C619 C624 1.391 . S
C619 H649 0.948 . S
C620 C619 1.391 . S
C620 C621 1.391 . S
C621 C620 1.391 . S
C621 C622 1.392 . S
C621 H650 0.947 . S
C622 C621 1.392 . S
C622 C623 1.419 . S
C622 H651 0.948 . S
C623 C622 1.419 . S
C623 C624 1.391 . S
C623 C627 1.397 . S
C624 C619 1.391 . S
C624 C623 1.391 . S
C624 C625 1.399 . S
C625 C624 1.399 . S
C625 C626 1.396 . S
C625 C628 1.453 . S
C625 C629 1.684 . S
C626 C607 1.723 . S
C626 C625 1.396 . S
C626 C627 1.394 . S
C627 C623 1.397 . S
C627 C626 1.394 . S
C627 C637 1.723 . S
C628 C625 1.453 . S
C628 H652 0.982 . S
C628 H653 0.979 . S
C628 H654 0.977 . S
C629 C625 1.684 . S
C629 H655 0.979 . S
C629 H656 0.980 . S
C629 H657 0.983 . S
C630 H606 0.948 . S
C630 C631 1.391 . S
C630 C635 1.391 . S
C631 C630 1.391 . S
C631 C632 1.391 . S
C632 H609 0.947 . S
C632 C631 1.391 . S
C632 C633 1.392 . S
C633 H610 0.948 . S
C633 C632 1.392 . S
C633 C634 1.419 . S
C634 C633 1.419 . S
C634 C635 1.391 . S
C634 C638 1.397 . S
C635 C630 1.391 . S
C635 C634 1.391 . S
C635 C636 1.399 . S
C636 C635 1.399 . S
C636 C637 1.396 . S
C636 C639 1.453 . S
C636 C640 1.684 . S
C637 C627 1.723 . S
C637 C636 1.396 . S
C637 C638 1.394 . S
C638 C608 1.723 . S
C638 C634 1.397 . S
C638 C637 1.394 . S
C639 H611 0.982 . S
C639 H615 0.979 . S
C639 H616 0.977 . S
C639 C636 1.453 . S
C640 H612 0.979 . S
C640 H613 0.980 . S
C640 H614 0.983 . S
C640 C636 1.684 . S
H641 C659 0.948 . S
H642 C600 0.948 . S
H643 C618 0.979 . S
H644 C618 0.980 . S
H645 C618 0.983 . S
H646 C617 0.982 . S
H647 C617 0.979 . S
H648 C617 0.977 . S
H649 C619 0.948 . S
H650 C621 0.947 . S
H651 C622 0.948 . S
H652 C628 0.982 . S
H653 C628 0.979 . S
H654 C628 0.977 . S
H655 C629 0.979 . S
H656 C629 0.980 . S
H657 C629 0.983 . S
H658 C602 0.947 . S
C659 C602 1.392 . S
C659 C603 1.419 . S
C659 H641 0.948 . S
C660 C661 1.391 . S
C660 C664 1.391 . S
C660 H702 0.948 . S
C661 C660 1.391 . S
C661 C662 1.391 . S
C662 C661 1.391 . S
C662 H718 0.947 . S
C662 C719 1.392 . S
C663 C664 1.391 . S
C663 C667 1.397 . S
C663 C719 1.419 . S
C664 C660 1.391 . S
C664 C663 1.391 . S
C664 C665 1.399 . S
C665 C664 1.399 . S
C665 C668 1.396 . S
C665 C677 1.453 . S
C665 C678 1.684 . S
H666 C690 0.948 . S
C667 C663 1.397 . S
C667 C668 1.394 . S
C667 C686 1.723 . S
C668 C665 1.396 . S
C668 C667 1.394 . S
C668 C698 1.723 . S
H669 C692 0.947 . S
H670 C693 0.948 . S
H671 C699 0.982 . S
H672 C700 0.979 . S
H673 C700 0.980 . S
H674 C700 0.983 . S
H675 C699 0.979 . S
H676 C699 0.977 . S
C677 C665 1.453 . S
C677 H706 0.982 . S
C677 H707 0.979 . S
C677 H708 0.977 . S
C678 C665 1.684 . S
C678 H703 0.979 . S
C678 H704 0.980 . S
C678 H705 0.983 . S
C679 C680 1.391 . S
C679 C684 1.391 . S
C679 H709 0.948 . S
C680 C679 1.391 . S
C680 C681 1.391 . S
C681 C680 1.391 . S
C681 C682 1.392 . S
C681 H710 0.947 . S
C682 C681 1.392 . S
C682 C683 1.419 . S
C682 H711 0.948 . S
C683 C682 1.419 . S
C683 C684 1.391 . S
C683 C687 1.397 . S
C684 C679 1.391 . S
C684 C683 1.391 . S
C684 C685 1.399 . S
C685 C684 1.399 . S
C685 C686 1.396 . S
C685 C688 1.453 . S
C685 C689 1.684 . S
C686 C667 1.723 . S
C686 C685 1.396 . S
C686 C687 1.394 . S
C687 C683 1.397 . S
C687 C686 1.394 . S
C687 C697 1.723 . S
C688 C685 1.453 . S
C688 H712 0.982 . S
C688 H713 0.979 . S
C688 H714 0.977 . S
C689 C685 1.684 . S
C689 H715 0.979 . S
C689 H716 0.980 . S
C689 H717 0.983 . S
C690 H666 0.948 . S
C690 C691 1.391 . S
C690 C695 1.391 . S
C691 C690 1.391 . S
C691 C692 1.391 . S
C692 H669 0.947 . S
C692 C691 1.391 . S
C692 C693 1.392 . S
C693 H670 0.948 . S
C693 C692 1.392 . S
C693 C694 1.419 . S
C694 C693 1.419 . S
C694 C695 1.391 . S
C694 C698 1.397 . S
C695 C690 1.391 . S
C695 C694 1.391 . S
C695 C696 1.399 . S
C696 C695 1.399 . S
C696 C697 1.396 . S
C696 C699 1.453 . S
C696 C700 1.684 . S
C697 C687 1.723 . S
C697 C696 1.396 . S
C697 C698 1.394 . S
C698 C668 1.723 . S
C698 C694 1.397 . S
C698 C697 1.394 . S
C699 H671 0.982 . S
C699 H675 0.979 . S
C699 H676 0.977 . S
C699 C696 1.453 . S
C700 H672 0.979 . S
C700 H673 0.980 . S
C700 H674 0.983 . S
C700 C696 1.684 . S
H701 C719 0.948 . S
H702 C660 0.948 . S
H703 C678 0.979 . S
H704 C678 0.980 . S
H705 C678 0.983 . S
H706 C677 0.982 . S
H707 C677 0.979 . S
H708 C677 0.977 . S
H709 C679 0.948 . S
H710 C681 0.947 . S
H711 C682 0.948 . S
H712 C688 0.982 . S
H713 C688 0.979 . S
H714 C688 0.977 . S
H715 C689 0.979 . S
H716 C689 0.980 . S
H717 C689 0.983 . S
H718 C662 0.947 . S
C719 C662 1.392 . S
C719 C663 1.419 . S
C719 H701 0.948 . S
C720 C721 1.391 . S
C720 C724 1.391 . S
C720 H762 0.948 . S
C721 C720 1.391 . S
C721 C722 1.391 . S
C722 C721 1.391 . S
C722 H778 0.947 . S
C722 C779 1.392 . S
C723 C724 1.391 . S
C723 C727 1.397 . S
C723 C779 1.419 . S
C724 C720 1.391 . S
C724 C723 1.391 . S
C724 C725 1.399 . S
C725 C724 1.399 . S
C725 C728 1.396 . S
C725 C737 1.453 . S
C725 C738 1.684 . S
H726 C750 0.948 . S
C727 C723 1.397 . S
C727 C728 1.394 . S
C727 C746 1.723 . S
C728 C725 1.396 . S
C728 C727 1.394 . S
C728 C758 1.723 . S
H729 C752 0.947 . S
H730 C753 0.948 . S
H731 C759 0.982 . S
H732 C760 0.979 . S
H733 C760 0.980 . S
H734 C760 0.983 . S
H735 C759 0.979 . S
H736 C759 0.977 . S
C737 C725 1.453 . S
C737 H766 0.982 . S
C737 H767 0.979 . S
C737 H768 0.977 . S
C738 C725 1.684 . S
C738 H763 0.979 . S
C738 H764 0.980 . S
C738 H765 0.983 . S
C739 C740 1.391 . S
C739 C744 1.391 . S
C739 H769 0.948 . S
C740 C739 1.391 . S
C740 C741 1.391 . S
C741 C740 1.391 . S
C741 C742 1.392 . S
C741 H770 0.947 . S
C742 C741 1.392 . S
C742 C743 1.419 . S
C742 H771 0.948 . S
C743 C742 1.419 . S
C743 C744 1.391 . S
C743 C747 1.397 . S
C744 C739 1.391 . S
C744 C743 1.391 . S
C744 C745 1.399 . S
C745 C744 1.399 . S
C745 C746 1.396 . S
C745 C748 1.453 . S
C745 C749 1.684 . S
C746 C727 1.723 . S
C746 C745 1.396 . S
C746 C747 1.394 . S
C747 C743 1.397 . S
C747 C746 1.394 . S
C747 C757 1.723 . S
C748 C745 1.453 . S
C748 H772 0.982 . S
C748 H773 0.979 . S
C748 H774 0.977 . S
C749 C745 1.684 . S
C749 H775 0.979 . S
C749 H776 0.980 . S
C749 H777 0.983 . S
C750 H726 0.948 . S
C750 C751 1.391 . S
C750 C755 1.391 . S
C751 C750 1.391 . S
C751 C752 1.391 . S
C752 H729 0.947 . S
C752 C751 1.391 . S
C752 C753 1.392 . S
C753 H730 0.948 . S
C753 C752 1.392 . S
C753 C754 1.419 . S
C754 C753 1.419 . S
C754 C755 1.391 . S
C754 C758 1.397 . S
C755 C750 1.391 . S
C755 C754 1.391 . S
C755 C756 1.399 . S
C756 C755 1.399 . S
C756 C757 1.396 . S
C756 C759 1.453 . S
C756 C760 1.684 . S
C757 C747 1.723 . S
C757 C756 1.396 . S
C757 C758 1.394 . S
C758 C728 1.723 . S
C758 C754 1.397 . S
C758 C757 1.394 . S
C759 H731 0.982 . S
C759 H735 0.979 . S
C759 H736 0.977 . S
C759 C756 1.453 . S
C760 H732 0.979 . S
C760 H733 0.980 . S
C760 H734 0.983 . S
C760 C756 1.684 . S
H761 C779 0.948 . S
H762 C720 0.948 . S
H763 C738 0.979 . S
H764 C738 0.980 . S
H765 C738 0.983 . S
H766 C737 0.982 . S
H767 C737 0.979 . S
H768 C737 0.977 . S
H769 C739 0.948 . S
H770 C741 0.947 . S
H771 C742 0.948 . S
H772 C748 0.982 . S
H773 C748 0.979 . S
H774 C748 0.977 . S
H775 C749 0.979 . S
H776 C749 0.980 . S
H777 C749 0.983 . S
H778 C722 0.947 . S
C779 C722 1.392 . S
C779 C723 1.419 . S
C779 H761 0.948 . S
C780 C781 1.391 . S
C780 C784 1.391 . S
C780 H822 0.948 . S
C781 C780 1.391 . S
C781 C782 1.391 . S
C782 C781 1.391 . S
C782 H838 0.947 . S
C782 C839 1.392 1_554 S
C783 C784 1.391 1_556 S
C783 C787 1.397 . S
C783 C839 1.419 . S
C784 C780 1.391 . S
C784 C783 1.391 1_554 S
C784 C785 1.399 . S
C785 C784 1.399 . S
C785 C788 1.396 1_554 S
C785 C797 1.453 . S
C785 C798 1.684 . S
H786 C810 0.948 . S
C787 C783 1.397 . S
C787 C788 1.394 . S
C787 C806 1.723 . S
C788 C785 1.396 1_556 S
C788 C787 1.394 . S
C788 C818 1.723 . S
H789 C812 0.947 . S
H790 C813 0.930 1_554 S
H791 C819 0.982 . S
H792 C820 0.979 . S
H793 C820 0.980 . S
H794 C820 0.983 . S
H795 C819 0.979 . S
H796 C819 0.977 . S
C797 C785 1.453 . S
C797 H826 0.982 . S
C797 H827 0.979 . S
C797 H828 0.977 . S
C798 C785 1.684 . S
C798 H823 0.993 . S
C798 H824 0.980 . S
C798 H825 0.983 . S
C799 C800 1.391 . S
C799 C804 1.391 . S
C799 H829 0.948 . S
C800 C799 1.391 . S
C800 C801 1.391 . S
C801 C800 1.391 . S
C801 C802 1.392 . S
C801 H830 0.947 . S
C802 C801 1.392 . S
C802 C803 1.419 . S
C802 H831 0.948 . S
C803 C802 1.419 . S
C803 C804 1.391 . S
C803 C807 1.397 . S
C804 C799 1.391 . S
C804 C803 1.391 . S
C804 C805 1.399 . S
C805 C804 1.399 . S
C805 C806 1.396 . S
C805 C808 1.453 . S
C805 C809 1.684 . S
C806 C787 1.723 . S
C806 C805 1.396 . S
C806 C807 1.394 . S
C807 C803 1.397 . S
C807 C806 1.394 . S
C807 C817 1.723 . S
C808 C805 1.453 . S
C808 H832 0.982 . S
C808 H833 0.979 . S
C808 H834 0.977 . S
C809 C805 1.684 . S
C809 H835 0.979 . S
C809 H836 0.980 . S
C809 H837 0.983 . S
C810 H786 0.948 . S
C810 C811 1.391 . S
C810 C815 1.391 . S
C811 C810 1.391 . S
C811 C812 1.391 1_556 S
C812 H789 0.947 . S
C812 C811 1.391 1_554 S
C812 C813 1.389 1_554 S
C813 H790 0.930 1_556 S
C813 C812 1.389 1_556 S
C813 C814 1.441 . S
C814 C813 1.441 . S
C814 C815 1.391 . S
C814 C818 1.397 . S
C815 C810 1.391 . S
C815 C814 1.391 . S
C815 C816 1.399 . S
C816 C815 1.399 . S
C816 C817 1.396 . S
C816 C819 1.453 . S
C816 C820 1.684 . S
C817 C807 1.723 . S
C817 C816 1.396 . S
C817 C818 1.394 . S
C818 C788 1.723 . S
C818 C814 1.397 . S
C818 C817 1.394 . S
C819 H791 0.982 . S
C819 H795 0.979 . S
C819 H796 0.977 . S
C819 C816 1.453 . S
C820 H792 0.979 . S
C820 H793 0.980 . S
C820 H794 0.983 . S
C820 C816 1.684 . S
H821 C839 0.948 . S
H822 C780 0.948 . S
H823 C798 0.993 . S
H824 C798 0.980 . S
H825 C798 0.983 . S
H826 C797 0.982 . S
H827 C797 0.979 . S
H828 C797 0.977 . S
H829 C799 0.948 . S
H830 C801 0.947 . S
H831 C802 0.948 . S
H832 C808 0.982 . S
H833 C808 0.979 . S
H834 C808 0.977 . S
H835 C809 0.979 . S
H836 C809 0.980 . S
H837 C809 0.983 . S
H838 C782 0.947 . S
C839 C782 1.392 1_556 S
C839 C783 1.419 . S
C839 H821 0.948 . S
C840 C841 1.391 . S
C840 C844 1.391 . S
C840 H882 0.948 . S
C841 C840 1.391 . S
C841 C842 1.391 . S
C842 C841 1.391 . S
C842 H898 0.947 . S
C842 C899 1.392 . S
C843 C844 1.391 . S
C843 C847 1.397 . S
C843 C899 1.419 . S
C844 C840 1.391 . S
C844 C843 1.391 . S
C844 C845 1.399 . S
C845 C844 1.399 . S
C845 C848 1.396 . S
C845 C857 1.453 . S
C845 C858 1.684 . S
H846 C870 0.948 . S
C847 C843 1.397 . S
C847 C848 1.394 . S
C847 C866 1.723 . S
C848 C845 1.396 . S
C848 C847 1.394 . S
C848 C878 1.723 . S
H849 C872 0.947 . S
H850 C873 0.948 . S
H851 C879 0.982 . S
H852 C880 0.979 . S
H853 C880 0.980 . S
H854 C880 0.983 . S
H855 C879 0.979 . S
H856 C879 0.977 . S
C857 C845 1.453 . S
C857 H886 0.982 . S
C857 H887 0.979 . S
C857 H888 0.977 . S
C858 C845 1.684 . S
C858 H883 0.979 . S
C858 H884 0.980 . S
C858 H885 0.983 . S
C859 C860 1.391 . S
C859 C864 1.391 . S
C859 H889 0.948 . S
C860 C859 1.391 . S
C860 C861 1.391 . S
C861 C860 1.391 . S
C861 C862 1.392 . S
C861 H890 0.947 . S
C862 C861 1.392 . S
C862 C863 1.419 . S
C862 H891 0.948 . S
C863 C862 1.419 . S
C863 C864 1.391 . S
C863 C867 1.397 . S
C864 C859 1.391 . S
C864 C863 1.391 . S
C864 C865 1.399 . S
C865 C864 1.399 . S
C865 C866 1.396 . S
C865 C868 1.453 . S
C865 C869 1.684 . S
C866 C847 1.723 . S
C866 C865 1.396 . S
C866 C867 1.394 . S
C867 C863 1.397 . S
C867 C866 1.394 . S
C867 C877 1.723 . S
C868 C865 1.453 . S
C868 H892 0.982 . S
C868 H893 0.979 . S
C868 H894 0.977 . S
C869 C865 1.684 . S
C869 H895 0.979 . S
C869 H896 0.980 . S
C869 H897 0.983 . S
C870 H846 0.948 . S
C870 C871 1.391 . S
C870 C875 1.391 . S
C871 C870 1.391 . S
C871 C872 1.391 . S
C872 H849 0.947 . S
C872 C871 1.391 . S
C872 C873 1.392 . S
C873 H850 0.948 . S
C873 C872 1.392 . S
C873 C874 1.419 . S
C874 C873 1.419 . S
C874 C875 1.391 . S
C874 C878 1.397 . S
C875 C870 1.391 . S
C875 C874 1.391 . S
C875 C876 1.399 . S
C876 C875 1.399 . S
C876 C877 1.396 . S
C876 C879 1.453 . S
C876 C880 1.684 . S
C877 C867 1.723 . S
C877 C876 1.396 . S
C877 C878 1.394 . S
C878 C848 1.723 . S
C878 C874 1.397 . S
C878 C877 1.394 . S
C879 H851 0.982 . S
C879 H855 0.979 . S
C879 H856 0.977 . S
C879 C876 1.453 . S
C880 H852 0.979 . S
C880 H853 0.980 . S
C880 H854 0.983 . S
C880 C876 1.684 . S
H881 C899 0.948 . S
H882 C840 0.948 . S
H883 C858 0.979 . S
H884 C858 0.980 . S
H885 C858 0.983 . S
H886 C857 0.982 . S
H887 C857 0.979 . S
H888 C857 0.977 . S
H889 C859 0.948 . S
H890 C861 0.947 . S
H891 C862 0.948 . S
H892 C868 0.982 . S
H893 C868 0.979 . S
H894 C868 0.977 . S
H895 C869 0.979 . S
H896 C869 0.980 . S
H897 C869 0.983 . S
H898 C842 0.947 . S
C899 C842 1.392 . S
C899 C843 1.419 . S
C899 H881 0.948 . S
C900 C901 1.391 . S
C900 C904 1.391 . S
C900 H942 0.948 1_556 S
C901 C900 1.391 . S
C901 C902 1.391 . S
C902 C901 1.391 . S
C902 H958 0.947 . S
C902 C959 1.392 . S
C903 C904 1.391 . S
C903 C907 1.397 1_565 S
C903 C959 1.419 . S
C904 C900 1.391 . S
C904 C903 1.391 . S
C904 C905 1.399 1_566 S
C905 C904 1.399 1_544 S
C905 C908 1.396 1_554 S
C905 C917 1.453 . S
C905 C918 1.684 . S
H906 C930 0.948 . S
C907 C903 1.397 1_545 S
C907 C908 1.394 . S
C907 C926 1.723 . S
C908 C905 1.396 1_556 S
C908 C907 1.394 . S
C908 C938 1.723 . S
H909 C932 0.947 . S
H910 C933 0.948 . S
H911 C939 0.982 . S
H912 C940 0.996 . S
H913 C940 0.980 . S
H914 C940 0.983 . S
H915 C939 0.979 . S
H916 C939 0.977 . S
C917 C905 1.453 . S
C917 H946 0.982 1_554 S
C917 H947 0.979 . S
C917 H948 0.977 . S
C918 C905 1.684 . S
C918 H943 0.979 . S
C918 H944 0.980 . S
C918 H945 0.983 . S
C919 C920 1.391 . S
C919 C924 1.391 . S
C919 H949 0.948 1_545 S
C920 C919 1.391 . S
C920 C921 1.391 . S
C921 C920 1.391 . S
C921 C922 1.392 . S
C921 H950 0.947 . S
C922 C921 1.392 . S
C922 C923 1.419 . S
C922 H951 0.948 . S
C923 C922 1.419 . S
C923 C924 1.391 . S
C923 C927 1.397 . S
C924 C919 1.391 . S
C924 C923 1.391 . S
C924 C925 1.399 1_545 S
C925 C924 1.399 1_565 S
C925 C926 1.396 1_565 S
C925 C928 1.453 . S
C925 C929 1.684 . S
C926 C907 1.723 . S
C926 C925 1.396 1_545 S
C926 C927 1.394 . S
C927 C923 1.397 . S
C927 C926 1.394 . S
C927 C937 1.723 . S
C928 C925 1.453 . S
C928 H952 0.982 1_565 S
C928 H953 0.979 . S
C928 H954 0.977 . S
C929 C925 1.684 . S
C929 H955 0.979 . S
C929 H956 0.980 . S
C929 H957 0.983 . S
C930 H906 0.948 . S
C930 C931 1.391 . S
C930 C935 1.391 . S
C931 C930 1.391 . S
C931 C932 1.391 . S
C932 H909 0.947 . S
C932 C931 1.391 . S
C932 C933 1.392 . S
C933 H910 0.948 . S
C933 C932 1.392 . S
C933 C934 1.419 . S
C934 C933 1.419 . S
C934 C935 1.391 . S
C934 C938 1.397 1_554 S
C935 C930 1.391 . S
C935 C934 1.391 . S
C935 C936 1.399 1_554 S
C936 C935 1.399 1_556 S
C936 C937 1.396 . S
C936 C939 1.453 . S
C936 C940 1.684 . S
C937 C927 1.723 . S
C937 C936 1.396 . S
C937 C938 1.394 . S
C938 C908 1.723 . S
C938 C934 1.397 1_556 S
C938 C937 1.394 . S
C939 H911 0.982 . S
C939 H915 0.979 . S
C939 H916 0.977 . S
C939 C936 1.453 . S
C940 H912 0.996 . S
C940 H913 0.980 . S
C940 H914 0.983 . S
C940 C936 1.684 . S
H941 C959 0.948 . S
H942 C900 0.948 1_554 S
H943 C918 0.979 . S
H944 C918 0.980 . S
H945 C918 0.983 . S
H946 C917 0.982 1_556 S
H947 C917 0.979 . S
H948 C917 0.977 . S
H949 C919 0.948 1_565 S
H950 C921 0.947 . S
H951 C922 0.948 . S
H952 C928 0.982 1_545 S
H953 C928 0.979 . S
H954 C928 0.977 . S
H955 C929 0.979 . S
H956 C929 0.980 . S
H957 C929 0.983 . S
H958 C902 0.947 . S
C959 C902 1.392 . S
C959 C903 1.419 . S
C959 H941 0.948 . S
Mg960 O961 2.029 . S
Mg960 O967 1.986 1_554 S
Mg960 O969 2.114 . S
Mg960 O970 2.251 . S
Mg960 O973 2.010 . S
O961 Mg960 2.029 . S
O961 C964 1.250 1_554 S
O962 Mg963 2.028 . S
O962 C964 1.248 . S
Mg963 O962 2.028 . S
Mg963 O968 2.032 . S
Mg963 O970 2.079 1_556 S
C964 O961 1.250 1_556 S
C964 O962 1.248 . S
C965 O966 1.264 . S
C965 O973 1.249 . S
O966 C965 1.264 . S
O967 Mg960 1.986 1_556 S
O967 C971 1.246 . S
O968 Mg963 2.032 . S
O968 C971 1.259 . S
O969 Mg960 2.114 . S
O969 C972 1.252 . S
O970 Mg960 2.251 . S
O970 Mg963 2.079 1_554 S
O970 C972 1.273 . S
C971 O967 1.246 . S
C971 O968 1.259 . S
C972 O969 1.252 . S
C972 O970 1.273 . S
O973 Mg960 2.010 . S
O973 C965 1.249 . S
Mg974 O975 2.028 . S
Mg974 O981 1.986 . S
Mg974 O983 2.114 . S
Mg974 O984 2.251 . S
Mg974 O987 2.010 . S
O975 Mg974 2.028 . S
O975 C978 1.250 . S
O976 Mg977 2.028 . S
O976 C978 1.248 . S
Mg977 O976 2.028 . S
Mg977 O982 2.032 . S
Mg977 O984 2.079 . S
C978 O975 1.250 . S
C978 O976 1.248 . S
C979 O980 1.264 . S
C979 O987 1.249 . S
O980 C979 1.264 . S
O981 Mg974 1.986 . S
O981 C985 1.246 . S
O982 Mg977 2.032 . S
O982 C985 1.259 . S
O983 Mg974 2.114 . S
O983 C986 1.252 . S
O984 Mg974 2.251 . S
O984 Mg977 2.079 . S
O984 C986 1.273 . S
C985 O981 1.246 . S
C985 O982 1.259 . S
C986 O983 1.252 . S
C986 O984 1.273 . S
O987 Mg974 2.010 . S
O987 C979 1.249 . S
Mg988 O989 2.028 . S
Mg988 O995 1.986 1_554 S
Mg988 O997 2.114 . S
Mg988 O998 2.251 . S
Mg988 O1001 2.010 . S
O989 Mg988 2.028 . S
O989 C992 1.247 1_554 S
O990 Mg991 2.028 . S
O990 C992 1.250 . S
Mg991 O990 2.028 . S
Mg991 O996 2.032 . S
Mg991 O998 2.079 1_556 S
C992 O989 1.247 1_556 S
C992 O990 1.250 . S
C993 O994 1.264 . S
C993 O1001 1.249 . S
O994 C993 1.264 . S
O995 Mg988 1.986 1_556 S
O995 C999 1.246 . S
O996 Mg991 2.032 . S
O996 C999 1.259 . S
O997 Mg988 2.114 . S
O997 C1000 1.252 . S
O998 Mg988 2.251 . S
O998 Mg991 2.079 1_554 S
O998 C1000 1.273 . S
C999 O995 1.246 . S
C999 O996 1.259 . S
C1000 O997 1.252 . S
C1000 O998 1.273 . S
O1001 Mg988 2.010 . S
O1001 C993 1.249 . S
Mg1002 O1003 2.012 1_545 S
Mg1002 O1009 1.986 . S
Mg1002 O1011 2.114 . S
Mg1002 O1012 2.251 . S
Mg1002 O1015 2.010 . S
O1003 Mg1002 2.012 1_565 S
O1003 C1006 1.274 . S
O1004 Mg1005 2.028 . S
O1004 C1006 1.248 . S
Mg1005 O1004 2.028 . S
Mg1005 O1010 2.032 . S
Mg1005 O1012 2.079 1_565 S
C1006 O1003 1.274 . S
C1006 O1004 1.248 . S
C1007 O1008 1.264 . S
C1007 O1015 1.249 . S
O1008 C1007 1.264 . S
O1009 Mg1002 1.986 . S
O1009 C1013 1.246 . S
O1010 Mg1005 2.032 . S
O1010 C1013 1.259 1_565 S
O1011 Mg1002 2.114 . S
O1011 C1014 1.252 . S
O1012 Mg1002 2.251 . S
O1012 Mg1005 2.079 1_545 S
O1012 C1014 1.273 . S
C1013 O1009 1.246 . S
C1013 O1010 1.259 1_545 S
C1014 O1011 1.252 . S
C1014 O1012 1.273 . S
O1015 Mg1002 2.010 . S
O1015 C1007 1.249 . S
Mg1016 O1017 2.028 . S
Mg1016 O1023 1.986 . S
Mg1016 O1025 2.114 . S
Mg1016 O1026 2.251 . S
Mg1016 O1029 2.010 . S
O1017 Mg1016 2.028 . S
O1017 C1020 1.250 . S
O1018 Mg1019 2.028 . S
O1018 C1020 1.248 . S
Mg1019 O1018 2.028 . S
Mg1019 O1024 2.032 . S
Mg1019 O1026 2.079 . S
C1020 O1017 1.250 . S
C1020 O1018 1.248 . S
C1021 O1022 1.264 . S
C1021 O1029 1.249 . S
O1022 C1021 1.264 . S
O1023 Mg1016 1.986 . S
O1023 C1027 1.246 . S
O1024 Mg1019 2.032 . S
O1024 C1027 1.259 . S
O1025 Mg1016 2.114 . S
O1025 C1028 1.252 . S
O1026 Mg1016 2.251 . S
O1026 Mg1019 2.079 . S
O1026 C1028 1.273 . S
C1027 O1023 1.246 . S
C1027 O1024 1.259 . S
C1028 O1025 1.252 . S
C1028 O1026 1.273 . S
O1029 Mg1016 2.010 . S
O1029 C1021 1.249 . S
Mg1030 O1031 2.028 . S
Mg1030 O1037 1.986 . S
Mg1030 O1039 2.114 . S
Mg1030 O1040 2.251 . S
Mg1030 O1043 2.010 . S
O1031 Mg1030 2.028 . S
O1031 C1034 1.250 . S
O1032 Mg1033 2.028 . S
O1032 C1034 1.248 . S
Mg1033 O1032 2.028 . S
Mg1033 O1038 2.032 . S
Mg1033 O1040 2.079 . S
C1034 O1031 1.250 . S
C1034 O1032 1.248 . S
C1035 O1036 1.264 . S
C1035 O1043 1.249 . S
O1036 C1035 1.264 . S
O1037 Mg1030 1.986 . S
O1037 C1041 1.246 . S
O1038 Mg1033 2.032 . S
O1038 C1041 1.259 . S
O1039 Mg1030 2.114 . S
O1039 C1042 1.252 . S
O1040 Mg1030 2.251 . S
O1040 Mg1033 2.079 . S
O1040 C1042 1.273 . S
C1041 O1037 1.246 . S
C1041 O1038 1.259 . S
C1042 O1039 1.252 . S
C1042 O1040 1.273 . S
O1043 Mg1030 2.010 . S
O1043 C1035 1.249 . S
Mg1044 O1045 2.028 . S
Mg1044 O1051 1.986 . S
Mg1044 O1053 2.114 . S
Mg1044 O1054 2.251 . S
Mg1044 O1057 2.010 . S
O1045 Mg1044 2.028 . S
O1045 C1048 1.250 . S
O1046 Mg1047 2.028 . S
O1046 C1048 1.248 . S
Mg1047 O1046 2.028 . S
Mg1047 O1052 2.032 . S
Mg1047 O1054 2.079 . S
C1048 O1045 1.250 . S
C1048 O1046 1.248 . S
C1049 O1050 1.264 . S
C1049 O1057 1.249 . S
O1050 C1049 1.264 . S
O1051 Mg1044 1.986 . S
O1051 C1055 1.246 . S
O1052 Mg1047 2.032 . S
O1052 C1055 1.259 . S
O1053 Mg1044 2.114 . S
O1053 C1056 1.252 . S
O1054 Mg1044 2.251 . S
O1054 Mg1047 2.079 . S
O1054 C1056 1.273 . S
C1055 O1051 1.246 . S
C1055 O1052 1.259 . S
C1056 O1053 1.252 . S
C1056 O1054 1.273 . S
O1057 Mg1044 2.010 . S
O1057 C1049 1.249 . S
Mg1058 O1059 2.028 1_545 S
Mg1058 O1065 1.986 1_545 S
Mg1058 O1067 2.114 . S
Mg1058 O1068 2.251 . S
Mg1058 O1071 2.010 . S
O1059 Mg1058 2.028 1_565 S
O1059 C1062 1.250 . S
O1060 Mg1061 2.028 . S
O1060 C1062 1.248 . S
Mg1061 O1060 2.028 . S
Mg1061 O1066 2.032 . S
Mg1061 O1068 2.079 1_565 S
C1062 O1059 1.250 . S
C1062 O1060 1.248 . S
C1063 O1064 1.264 . S
C1063 O1071 1.249 . S
O1064 C1063 1.264 . S
O1065 Mg1058 1.986 1_565 S
O1065 C1069 1.246 . S
O1066 Mg1061 2.032 . S
O1066 C1069 1.259 . S
O1067 Mg1058 2.114 . S
O1067 C1070 1.252 . S
O1068 Mg1058 2.251 . S
O1068 Mg1061 2.079 1_545 S
O1068 C1070 1.273 . S
C1069 O1065 1.246 . S
C1069 O1066 1.259 . S
C1070 O1067 1.252 . S
C1070 O1068 1.273 . S
O1071 Mg1058 2.010 . S
O1071 C1063 1.249 . S
Mg1072 O1073 2.053 . S
Mg1072 O1079 1.986 . S
Mg1072 O1081 2.114 . S
Mg1072 O1082 2.251 . S
Mg1072 O1085 2.010 . S
O1073 Mg1072 2.053 . S
O1073 C1076 1.215 1_455 S
O1074 Mg1075 2.028 . S
O1074 C1076 1.248 . S
Mg1075 O1074 2.028 . S
Mg1075 O1080 2.032 . S
Mg1075 O1082 2.079 1_655 S
C1076 O1073 1.215 1_655 S
C1076 O1074 1.248 . S
C1077 O1078 1.264 . S
C1077 O1085 1.249 . S
O1078 C1077 1.264 . S
O1079 Mg1072 1.986 . S
O1079 C1083 1.246 . S
O1080 Mg1075 2.032 . S
O1080 C1083 1.259 1_655 S
O1081 Mg1072 2.114 . S
O1081 C1084 1.252 . S
O1082 Mg1072 2.251 . S
O1082 Mg1075 2.079 1_455 S
O1082 C1084 1.273 . S
C1083 O1079 1.246 . S
C1083 O1080 1.259 1_455 S
C1084 O1081 1.252 . S
C1084 O1082 1.273 . S
O1085 Mg1072 2.010 . S
O1085 C1077 1.249 . S
Mg1086 O1087 2.028 . S
Mg1086 O1093 1.986 . S
Mg1086 O1095 2.114 . S
Mg1086 O1096 2.251 . S
Mg1086 O1099 2.010 . S
O1087 Mg1086 2.028 . S
O1087 C1090 1.250 . S
O1088 Mg1089 2.028 . S
O1088 C1090 1.248 . S
Mg1089 O1088 2.028 . S
Mg1089 O1094 2.032 . S
Mg1089 O1096 2.079 . S
C1090 O1087 1.250 . S
C1090 O1088 1.248 . S
C1091 O1092 1.264 . S
C1091 O1099 1.249 . S
O1092 C1091 1.264 . S
O1093 Mg1086 1.986 . S
O1093 C1097 1.246 . S
O1094 Mg1089 2.032 . S
O1094 C1097 1.259 . S
O1095 Mg1086 2.114 . S
O1095 C1098 1.252 . S
O1096 Mg1086 2.251 . S
O1096 Mg1089 2.079 . S
O1096 C1098 1.273 . S
C1097 O1093 1.246 . S
C1097 O1094 1.259 . S
C1098 O1095 1.252 . S
C1098 O1096 1.273 . S
O1099 Mg1086 2.010 . S
O1099 C1091 1.249 . S
Mg1100 O1101 2.028 1_655 S
Mg1100 O1107 1.986 . S
Mg1100 O1109 2.114 . S
Mg1100 O1110 2.251 1_655 S
Mg1100 O1113 2.010 . S
O1101 Mg1100 2.028 1_455 S
O1101 C1104 1.250 . S
O1102 Mg1103 2.028 . S
O1102 C1104 1.248 . S
Mg1103 O1102 2.028 . S
Mg1103 O1108 2.032 . S
Mg1103 O1110 2.079 . S
C1104 O1101 1.250 . S
C1104 O1102 1.248 . S
C1105 O1106 1.264 . S
C1105 O1113 1.249 . S
O1106 C1105 1.264 . S
O1107 Mg1100 1.986 . S
O1107 C1111 1.246 1_655 S
O1108 Mg1103 2.032 . S
O1108 C1111 1.259 . S
O1109 Mg1100 2.114 . S
O1109 C1112 1.252 . S
O1110 Mg1100 2.251 1_455 S
O1110 Mg1103 2.079 . S
O1110 C1112 1.273 1_455 S
C1111 O1107 1.246 1_455 S
C1111 O1108 1.259 . S
C1112 O1109 1.252 . S
C1112 O1110 1.273 1_655 S
O1113 Mg1100 2.010 . S
O1113 C1105 1.249 . S
Mg1114 O1115 2.028 . S
Mg1114 O1121 1.986 . S
Mg1114 O1123 2.114 . S
Mg1114 O1124 2.251 . S
Mg1114 O1127 2.010 . S
O1115 Mg1114 2.028 . S
O1115 C1118 1.250 . S
O1116 Mg1117 2.028 . S
O1116 C1118 1.248 . S
Mg1117 O1116 2.028 . S
Mg1117 O1122 2.032 . S
Mg1117 O1124 2.079 . S
C1118 O1115 1.250 . S
C1118 O1116 1.248 . S
C1119 O1120 1.264 . S
C1119 O1127 1.249 . S
O1120 C1119 1.264 . S
O1121 Mg1114 1.986 . S
O1121 C1125 1.246 . S
O1122 Mg1117 2.032 . S
O1122 C1125 1.259 . S
O1123 Mg1114 2.114 . S
O1123 C1126 1.252 . S
O1124 Mg1114 2.251 . S
O1124 Mg1117 2.079 . S
O1124 C1126 1.273 . S
C1125 O1121 1.246 . S
C1125 O1122 1.259 . S
C1126 O1123 1.252 . S
C1126 O1124 1.273 . S
O1127 Mg1114 2.010 . S
O1127 C1119 1.249 . S
C1128 C1129 1.369 . S
C1128 C1130 1.419 . S
C1128 H1132 0.930 . S
C1129 C1128 1.369 . S
C1129 C1138 1.429 . S
C1130 C1128 1.419 . S
C1130 C1131 1.363 . S
C1130 H1133 0.929 . S
C1131 C1130 1.363 . S
C1131 C1137 1.428 . S
H1132 C1128 0.930 . S
H1133 C1130 0.929 . S
S1134 N1135 1.613 . S
S1134 N1136 1.610 . S
N1135 S1134 1.613 . S
N1135 C1138 1.350 . S
N1136 S1134 1.610 . S
N1136 C1137 1.351 . S
C1137 C1131 1.428 . S
C1137 N1136 1.351 . S
C1137 C1138 1.434 . S
C1138 C1129 1.429 . S
C1138 N1135 1.350 . S
C1138 C1137 1.434 . S
C1139 C1140 1.369 . S
C1139 C1141 1.419 . S
C1139 H1143 0.930 . S
C1140 C1139 1.369 . S
C1140 C1149 1.429 . S
C1141 C1139 1.419 . S
C1141 C1142 1.363 . S
C1141 H1144 0.929 . S
C1142 C1141 1.363 . S
C1142 C1148 1.428 . S
H1143 C1139 0.930 . S
H1144 C1141 0.929 . S
S1145 N1146 1.613 . S
S1145 N1147 1.610 . S
N1146 S1145 1.613 . S
N1146 C1149 1.350 . S
N1147 S1145 1.610 . S
N1147 C1148 1.351 . S
C1148 C1142 1.428 . S
C1148 N1147 1.351 . S
C1148 C1149 1.434 . S
C1149 C1140 1.429 . S
C1149 N1146 1.350 . S
C1149 C1148 1.434 . S
C1150 C1151 1.369 . S
C1150 C1152 1.419 . S
C1150 H1154 0.930 . S
C1151 C1150 1.369 . S
C1151 C1160 1.429 . S
C1152 C1150 1.419 . S
C1152 C1153 1.363 . S
C1152 H1155 0.929 . S
C1153 C1152 1.363 . S
C1153 C1159 1.428 . S
H1154 C1150 0.930 . S
H1155 C1152 0.929 . S
S1156 N1157 1.613 . S
S1156 N1158 1.610 . S
N1157 S1156 1.613 . S
N1157 C1160 1.350 . S
N1158 S1156 1.610 . S
N1158 C1159 1.351 . S
C1159 C1153 1.428 . S
C1159 N1158 1.351 . S
C1159 C1160 1.434 . S
C1160 C1151 1.429 . S
C1160 N1157 1.350 . S
C1160 C1159 1.434 . S
C1161 C1162 1.369 . S
C1161 C1163 1.419 . S
C1161 H1165 0.930 . S
C1162 C1161 1.369 . S
C1162 C1171 1.429 1_565 S
C1163 C1161 1.419 . S
C1163 C1164 1.363 1_565 S
C1163 H1166 0.929 . S
C1164 C1163 1.363 1_545 S
C1164 C1170 1.428 . S
H1165 C1161 0.930 . S
H1166 C1163 0.929 . S
S1167 N1168 1.613 . S
S1167 N1169 1.610 . S
N1168 S1167 1.613 . S
N1168 C1171 1.350 . S
N1169 S1167 1.610 . S
N1169 C1170 1.351 . S
C1170 C1164 1.428 . S
C1170 N1169 1.351 . S
C1170 C1171 1.434 . S
C1171 C1162 1.429 1_545 S
C1171 N1168 1.350 . S
C1171 C1170 1.434 . S
C1172 C1173 1.369 . S
C1172 C1174 1.419 . S
C1172 H1176 0.930 . S
C1173 C1172 1.369 . S
C1173 C1182 1.429 . S
C1174 C1172 1.419 . S
C1174 C1175 1.363 . S
C1174 H1177 0.929 . S
C1175 C1174 1.363 . S
C1175 C1181 1.428 . S
H1176 C1172 0.930 . S
H1177 C1174 0.929 . S
S1178 N1179 1.613 . S
S1178 N1180 1.610 . S
N1179 S1178 1.613 . S
N1179 C1182 1.350 . S
N1180 S1178 1.610 . S
N1180 C1181 1.351 . S
C1181 C1175 1.428 . S
C1181 N1180 1.351 . S
C1181 C1182 1.434 . S
C1182 C1173 1.429 . S
C1182 N1179 1.350 . S
C1182 C1181 1.434 . S
C1183 C1184 1.369 . S
C1183 C1185 1.419 . S
C1183 H1187 0.930 . S
C1184 C1183 1.369 . S
C1184 C1193 1.429 . S
C1185 C1183 1.419 . S
C1185 C1186 1.363 . S
C1185 H1188 0.929 . S
C1186 C1185 1.363 . S
C1186 C1192 1.428 . S
H1187 C1183 0.930 . S
H1188 C1185 0.929 . S
S1189 N1190 1.613 . S
S1189 N1191 1.610 . S
N1190 S1189 1.613 . S
N1190 C1193 1.350 . S
N1191 S1189 1.610 . S
N1191 C1192 1.351 . S
C1192 C1186 1.428 . S
C1192 N1191 1.351 . S
C1192 C1193 1.434 . S
C1193 C1184 1.429 . S
C1193 N1190 1.350 . S
C1193 C1192 1.434 . S
C1194 C1195 1.369 . S
C1194 C1196 1.419 . S
C1194 H1198 0.930 . S
C1195 C1194 1.369 . S
C1195 C1204 1.429 . S
C1196 C1194 1.419 . S
C1196 C1197 1.363 . S
C1196 H1199 0.929 . S
C1197 C1196 1.363 . S
C1197 C1203 1.428 . S
H1198 C1194 0.930 . S
H1199 C1196 0.929 . S
S1200 N1201 1.613 . S
S1200 N1202 1.610 . S
N1201 S1200 1.613 . S
N1201 C1204 1.350 . S
N1202 S1200 1.610 . S
N1202 C1203 1.351 . S
C1203 C1197 1.428 . S
C1203 N1202 1.351 . S
C1203 C1204 1.434 . S
C1204 C1195 1.429 . S
C1204 N1201 1.350 . S
C1204 C1203 1.434 . S
C1205 C1206 1.369 . S
C1205 C1207 1.419 . S
C1205 H1209 0.930 . S
C1206 C1205 1.369 . S
C1206 C1215 1.429 . S
C1207 C1205 1.419 . S
C1207 C1208 1.363 . S
C1207 H1210 0.929 . S
C1208 C1207 1.363 . S
C1208 C1214 1.428 . S
H1209 C1205 0.930 . S
H1210 C1207 0.929 . S
S1211 N1212 1.613 . S
S1211 N1213 1.610 . S
N1212 S1211 1.613 . S
N1212 C1215 1.350 . S
N1213 S1211 1.610 . S
N1213 C1214 1.351 . S
C1214 C1208 1.428 . S
C1214 N1213 1.351 . S
C1214 C1215 1.434 . S
C1215 C1206 1.429 . S
C1215 N1212 1.350 . S
C1215 C1214 1.434 . S
C1216 C1217 1.369 . S
C1216 C1218 1.419 . S
C1216 H1220 0.930 . S
C1217 C1216 1.369 . S
C1217 C1226 1.429 . S
C1218 C1216 1.419 . S
C1218 C1219 1.363 . S
C1218 H1221 0.929 . S
C1219 C1218 1.363 . S
C1219 C1225 1.428 . S
H1220 C1216 0.930 . S
H1221 C1218 0.929 . S
S1222 N1223 1.613 . S
S1222 N1224 1.610 . S
N1223 S1222 1.613 . S
N1223 C1226 1.350 . S
N1224 S1222 1.610 . S
N1224 C1225 1.351 . S
C1225 C1219 1.428 . S
C1225 N1224 1.351 . S
C1225 C1226 1.434 . S
C1226 C1217 1.429 . S
C1226 N1223 1.350 . S
C1226 C1225 1.434 . S
C1227 C1228 1.369 . S
C1227 C1229 1.419 . S
C1227 H1231 0.930 . S
C1228 C1227 1.369 . S
C1228 C1237 1.429 . S
C1229 C1227 1.419 . S
C1229 C1230 1.363 . S
C1229 H1232 0.929 . S
C1230 C1229 1.363 . S
C1230 C1236 1.428 . S
H1231 C1227 0.930 . S
H1232 C1229 0.929 . S
S1233 N1234 1.613 . S
S1233 N1235 1.610 . S
N1234 S1233 1.613 . S
N1234 C1237 1.350 . S
N1235 S1233 1.610 . S
N1235 C1236 1.351 . S
C1236 C1230 1.428 . S
C1236 N1235 1.351 . S
C1236 C1237 1.434 . S
C1237 C1228 1.429 . S
C1237 N1234 1.350 . S
C1237 C1236 1.434 . S
C1238 C1239 1.369 . S
C1238 C1240 1.419 . S
C1238 H1242 0.930 . S
C1239 C1238 1.369 . S
C1239 C1248 1.429 . S
C1240 C1238 1.419 . S
C1240 C1241 1.363 . S
C1240 H1243 0.929 . S
C1241 C1240 1.363 . S
C1241 C1247 1.428 . S
H1242 C1238 0.930 . S
H1243 C1240 0.929 . S
S1244 N1245 1.613 . S
S1244 N1246 1.610 . S
N1245 S1244 1.613 . S
N1245 C1248 1.350 . S
N1246 S1244 1.610 . S
N1246 C1247 1.351 . S
C1247 C1241 1.428 . S
C1247 N1246 1.351 . S
C1247 C1248 1.434 . S
C1248 C1239 1.429 . S
C1248 N1245 1.350 . S
C1248 C1247 1.434 . S
C1249 C1250 1.369 . S
C1249 C1251 1.419 . S
C1249 H1253 0.930 . S
C1250 C1249 1.369 . S
C1250 C1259 1.429 . S
C1251 C1249 1.419 . S
C1251 C1252 1.363 . S
C1251 H1254 0.929 . S
C1252 C1251 1.363 . S
C1252 C1258 1.428 . S
H1253 C1249 0.930 . S
H1254 C1251 0.929 . S
S1255 N1256 1.613 . S
S1255 N1257 1.610 . S
N1256 S1255 1.613 . S
N1256 C1259 1.350 . S
N1257 S1255 1.610 . S
N1257 C1258 1.351 . S
C1258 C1252 1.428 . S
C1258 N1257 1.351 . S
C1258 C1259 1.434 . S
C1259 C1250 1.429 . S
C1259 N1256 1.350 . S
C1259 C1258 1.434 . S
C1260 C1261 1.369 . S
C1260 C1262 1.419 . S
C1260 H1264 0.930 . S
C1261 C1260 1.369 . S
C1261 C1270 1.429 . S
C1262 C1260 1.419 . S
C1262 C1263 1.363 . S
C1262 H1265 0.929 . S
C1263 C1262 1.363 . S
C1263 C1269 1.428 . S
H1264 C1260 0.930 . S
H1265 C1262 0.929 . S
S1266 N1267 1.613 . S
S1266 N1268 1.610 . S
N1267 S1266 1.613 . S
N1267 C1270 1.350 . S
N1268 S1266 1.610 . S
N1268 C1269 1.351 . S
C1269 C1263 1.428 . S
C1269 N1268 1.351 . S
C1269 C1270 1.434 . S
C1270 C1261 1.429 . S
C1270 N1267 1.350 . S
C1270 C1269 1.434 . S
C1271 C1272 1.369 . S
C1271 C1273 1.419 . S
C1271 H1275 0.930 . S
C1272 C1271 1.369 . S
C1272 C1281 1.429 . S
C1273 C1271 1.419 . S
C1273 C1274 1.363 . S
C1273 H1276 0.929 . S
C1274 C1273 1.363 . S
C1274 C1280 1.428 . S
H1275 C1271 0.930 . S
H1276 C1273 0.929 . S
S1277 N1278 1.613 1_655 S
S1277 N1279 1.610 . S
N1278 S1277 1.613 1_455 S
N1278 C1281 1.350 . S
N1279 S1277 1.610 . S
N1279 C1280 1.351 1_655 S
C1280 C1274 1.428 . S
C1280 N1279 1.351 1_455 S
C1280 C1281 1.434 . S
C1281 C1272 1.429 . S
C1281 N1278 1.350 . S
C1281 C1280 1.434 . S
C1282 C1283 1.369 . S
C1282 C1284 1.419 . S
C1282 H1286 0.930 . S
C1283 C1282 1.369 . S
C1283 C1292 1.429 . S
C1284 C1282 1.419 . S
C1284 C1285 1.363 . S
C1284 H1287 0.929 . S
C1285 C1284 1.363 . S
C1285 C1291 1.428 . S
H1286 C1282 0.930 . S
H1287 C1284 0.929 . S
S1288 N1289 1.613 . S
S1288 N1290 1.610 . S
N1289 S1288 1.613 . S
N1289 C1292 1.350 . S
N1290 S1288 1.610 . S
N1290 C1291 1.351 . S
C1291 C1285 1.428 . S
C1291 N1290 1.351 . S
C1291 C1292 1.434 . S
C1292 C1283 1.429 . S
C1292 N1289 1.350 . S
C1292 C1291 1.434 . S
C1293 C1294 1.369 . S
C1293 C1295 1.419 . S
C1293 H1297 0.930 . S
C1294 C1293 1.369 . S
C1294 C1303 1.429 . S
C1295 C1293 1.419 . S
C1295 C1296 1.363 . S
C1295 H1298 0.929 . S
C1296 C1295 1.363 . S
C1296 C1302 1.433 . S
H1297 C1293 0.930 . S
H1298 C1295 0.929 . S
S1299 N1300 1.613 . S
S1299 N1301 1.610 . S
N1300 S1299 1.613 . S
N1300 C1303 1.350 1_455 S
N1301 S1299 1.610 . S
N1301 C1302 1.346 1_455 S
C1302 C1296 1.433 . S
C1302 N1301 1.346 1_655 S
C1302 C1303 1.435 . S
C1303 C1294 1.429 . S
C1303 N1300 1.350 1_655 S
C1303 C1302 1.435 . S
C1304 C1305 1.369 . S
C1304 C1306 1.419 . S
C1304 H1308 0.930 . S
C1305 C1304 1.369 . S
C1305 C1314 1.429 . S
C1306 C1304 1.419 . S
C1306 C1307 1.363 . S
C1306 H1309 0.929 . S
C1307 C1306 1.363 . S
C1307 C1313 1.428 . S
H1308 C1304 0.930 . S
H1309 C1306 0.929 . S
S1310 N1311 1.613 . S
S1310 N1312 1.610 . S
N1311 S1310 1.613 . S
N1311 C1314 1.350 . S
N1312 S1310 1.610 . S
N1312 C1313 1.351 . S
C1313 C1307 1.428 . S
C1313 N1312 1.351 . S
C1313 C1314 1.434 . S
C1314 C1305 1.429 . S
C1314 N1311 1.350 . S
C1314 C1313 1.434 . S
C1315 C1316 1.369 . S
C1315 C1317 1.419 . S
C1315 H1319 0.930 . S
C1316 C1315 1.369 . S
C1316 C1325 1.429 . S
C1317 C1315 1.419 . S
C1317 C1318 1.363 . S
C1317 H1320 0.929 . S
C1318 C1317 1.363 . S
C1318 C1324 1.428 . S
H1319 C1315 0.930 . S
H1320 C1317 0.929 . S
S1321 N1322 1.613 . S
S1321 N1323 1.610 . S
N1322 S1321 1.613 . S
N1322 C1325 1.350 . S
N1323 S1321 1.610 . S
N1323 C1324 1.351 . S
C1324 C1318 1.428 . S
C1324 N1323 1.351 . S
C1324 C1325 1.434 . S
C1325 C1316 1.429 . S
C1325 N1322 1.350 . S
C1325 C1324 1.434 . S
C1326 C1327 1.369 . S
C1326 C1328 1.419 . S
C1326 H1330 0.930 . S
C1327 C1326 1.369 . S
C1327 C1336 1.429 . S
C1328 C1326 1.419 . S
C1328 C1329 1.363 . S
C1328 H1331 0.927 1_556 S
C1329 C1328 1.363 . S
C1329 C1335 1.428 . S
H1330 C1326 0.930 . S
H1331 C1328 0.927 1_554 S
S1332 N1333 1.613 . S
S1332 N1334 1.610 . S
N1333 S1332 1.613 . S
N1333 C1336 1.350 . S
N1334 S1332 1.610 . S
N1334 C1335 1.351 . S
C1335 C1329 1.428 . S
C1335 N1334 1.351 . S
C1335 C1336 1.434 . S
C1336 C1327 1.429 . S
C1336 N1333 1.350 . S
C1336 C1335 1.434 . S
C1337 C1338 1.369 . S
C1337 C1339 1.419 . S
C1337 H1341 0.930 . S
C1338 C1337 1.369 . S
C1338 C1347 1.429 . S
C1339 C1337 1.419 . S
C1339 C1340 1.363 . S
C1339 H1342 0.929 . S
C1340 C1339 1.363 . S
C1340 C1346 1.428 . S
H1341 C1337 0.930 . S
H1342 C1339 0.929 . S
S1343 N1344 1.613 . S
S1343 N1345 1.610 . S
N1344 S1343 1.613 . S
N1344 C1347 1.350 . S
N1345 S1343 1.610 . S
N1345 C1346 1.351 . S
C1346 C1340 1.428 . S
C1346 N1345 1.351 . S
C1346 C1347 1.434 . S
C1347 C1338 1.429 . S
C1347 N1344 1.350 . S
C1347 C1346 1.434 . S
C1348 C1349 1.369 . S
C1348 C1350 1.419 . S
C1348 H1352 0.930 . S
C1349 C1348 1.369 . S
C1349 C1358 1.429 . S
C1350 C1348 1.419 . S
C1350 C1351 1.363 . S
C1350 H1353 0.929 . S
C1351 C1350 1.363 . S
C1351 C1357 1.428 . S
H1352 C1348 0.930 . S
H1353 C1350 0.929 . S
S1354 N1355 1.613 . S
S1354 N1356 1.610 . S
N1355 S1354 1.613 . S
N1355 C1358 1.350 . S
N1356 S1354 1.610 . S
N1356 C1357 1.351 . S
C1357 C1351 1.428 . S
C1357 N1356 1.351 . S
C1357 C1358 1.434 . S
C1358 C1349 1.429 . S
C1358 N1355 1.350 . S
C1358 C1357 1.434 . S
C1359 C1360 1.369 . S
C1359 C1361 1.419 . S
C1359 H1363 0.930 . S
C1360 C1359 1.369 . S
C1360 C1369 1.429 . S
C1361 C1359 1.419 . S
C1361 C1362 1.363 . S
C1361 H1364 0.929 . S
C1362 C1361 1.363 . S
C1362 C1368 1.428 . S
H1363 C1359 0.930 . S
H1364 C1361 0.929 . S
S1365 N1366 1.613 . S
S1365 N1367 1.610 . S
N1366 S1365 1.613 . S
N1366 C1369 1.350 . S
N1367 S1365 1.610 . S
N1367 C1368 1.351 . S
C1368 C1362 1.428 . S
C1368 N1367 1.351 . S
C1368 C1369 1.434 . S
C1369 C1360 1.429 . S
C1369 N1366 1.350 . S
C1369 C1368 1.434 . S
C1370 C1371 1.369 . S
C1370 C1372 1.419 . S
C1370 H1374 0.930 . S
C1371 C1370 1.369 . S
C1371 C1380 1.429 . S
C1372 C1370 1.419 . S
C1372 C1373 1.363 . S
C1372 H1375 0.929 . S
C1373 C1372 1.363 . S
C1373 C1379 1.428 . S
H1374 C1370 0.930 . S
H1375 C1372 0.929 . S
S1376 N1377 1.613 . S
S1376 N1378 1.610 . S
N1377 S1376 1.613 . S
N1377 C1380 1.350 . S
N1378 S1376 1.610 . S
N1378 C1379 1.351 . S
C1379 C1373 1.428 . S
C1379 N1378 1.351 . S
C1379 C1380 1.434 . S
C1380 C1371 1.429 . S
C1380 N1377 1.350 . S
C1380 C1379 1.434 . S
C1381 C1382 1.369 . S
C1381 C1383 1.419 . S
C1381 H1385 0.930 . S
C1382 C1381 1.369 . S
C1382 C1391 1.429 . S
C1383 C1381 1.419 . S
C1383 C1384 1.363 . S
C1383 H1386 0.929 . S
C1384 C1383 1.363 . S
C1384 C1390 1.428 . S
H1385 C1381 0.930 . S
H1386 C1383 0.929 . S
S1387 N1388 1.613 . S
S1387 N1389 1.610 . S
N1388 S1387 1.613 . S
N1388 C1391 1.350 . S
N1389 S1387 1.610 . S
N1389 C1390 1.351 . S
C1390 C1384 1.428 . S
C1390 N1389 1.351 . S
C1390 C1391 1.434 . S
C1391 C1382 1.429 . S
C1391 N1388 1.350 . S
C1391 C1390 1.434 . S
C1392 C1393 1.369 . S
C1392 C1394 1.419 . S
C1392 H1396 0.930 . S
C1393 C1392 1.369 . S
C1393 C1402 1.429 . S
C1394 C1392 1.419 . S
C1394 C1395 1.363 . S
C1394 H1397 0.929 . S
C1395 C1394 1.363 . S
C1395 C1401 1.428 . S
H1396 C1392 0.930 . S
H1397 C1394 0.929 . S
S1398 N1399 1.613 . S
S1398 N1400 1.610 . S
N1399 S1398 1.613 . S
N1399 C1402 1.350 . S
N1400 S1398 1.610 . S
N1400 C1401 1.351 . S
C1401 C1395 1.428 . S
C1401 N1400 1.351 . S
C1401 C1402 1.434 . S
C1402 C1393 1.429 . S
C1402 N1399 1.350 . S
C1402 C1401 1.434 . S
C1403 C1404 1.369 . S
C1403 C1405 1.419 . S
C1403 H1407 0.930 . S
C1404 C1403 1.369 . S
C1404 C1413 1.429 1_545 S
C1405 C1403 1.419 . S
C1405 C1406 1.363 . S
C1405 H1408 0.929 . S
C1406 C1405 1.363 . S
C1406 C1412 1.428 1_545 S
H1407 C1403 0.930 . S
H1408 C1405 0.929 . S
S1409 N1410 1.613 . S
S1409 N1411 1.610 . S
N1410 S1409 1.613 . S
N1410 C1413 1.350 . S
N1411 S1409 1.610 . S
N1411 C1412 1.351 . S
C1412 C1406 1.428 1_565 S
C1412 N1411 1.351 . S
C1412 C1413 1.434 . S
C1413 C1404 1.429 1_565 S
C1413 N1410 1.350 . S
C1413 C1412 1.434 . S
C1414 C1415 1.369 . S
C1414 C1416 1.419 . S
C1414 H1418 0.930 . S
C1415 C1414 1.369 . S
C1415 C1424 1.429 . S
C1416 C1414 1.419 . S
C1416 C1417 1.363 . S
C1416 H1419 0.929 . S
C1417 C1416 1.363 . S
C1417 C1423 1.428 . S
H1418 C1414 0.930 . S
H1419 C1416 0.929 . S
S1420 N1421 1.613 . S
S1420 N1422 1.610 . S
N1421 S1420 1.613 . S
N1421 C1424 1.350 . S
N1422 S1420 1.610 . S
N1422 C1423 1.351 . S
C1423 C1417 1.428 . S
C1423 N1422 1.351 . S
C1423 C1424 1.434 . S
C1424 C1415 1.429 . S
C1424 N1421 1.350 . S
C1424 C1423 1.434 . S
C1425 C1426 1.369 . S
C1425 C1427 1.419 . S
C1425 H1429 0.930 . S
C1426 C1425 1.369 . S
C1426 C1435 1.429 . S
C1427 C1425 1.419 . S
C1427 C1428 1.363 . S
C1427 H1430 0.929 . S
C1428 C1427 1.363 . S
C1428 C1434 1.428 . S
H1429 C1425 0.930 . S
H1430 C1427 0.929 . S
S1431 N1432 1.613 . S
S1431 N1433 1.610 . S
N1432 S1431 1.613 . S
N1432 C1435 1.350 . S
N1433 S1431 1.610 . S
N1433 C1434 1.351 . S
C1434 C1428 1.428 . S
C1434 N1433 1.351 . S
C1434 C1435 1.434 . S
C1435 C1426 1.429 . S
C1435 N1432 1.350 . S
C1435 C1434 1.434 . S
C1436 C1437 1.369 . S
C1436 C1438 1.419 . S
C1436 H1440 0.930 . S
C1437 C1436 1.369 . S
C1437 C1446 1.429 . S
C1438 C1436 1.419 . S
C1438 C1439 1.363 . S
C1438 H1441 0.929 . S
C1439 C1438 1.363 . S
C1439 C1445 1.428 . S
H1440 C1436 0.930 . S
H1441 C1438 0.929 . S
S1442 N1443 1.613 . S
S1442 N1444 1.610 . S
N1443 S1442 1.613 . S
N1443 C1446 1.350 . S
N1444 S1442 1.610 . S
N1444 C1445 1.351 . S
C1445 C1439 1.428 . S
C1445 N1444 1.351 . S
C1445 C1446 1.434 . S
C1446 C1437 1.429 . S
C1446 N1443 1.350 . S
C1446 C1445 1.434 . S
C1447 C1448 1.369 . S
C1447 C1449 1.419 . S
C1447 H1451 0.930 . S
C1448 C1447 1.369 . S
C1448 C1457 1.429 1_545 S
C1449 C1447 1.419 . S
C1449 C1450 1.363 . S
C1449 H1452 0.929 . S
C1450 C1449 1.363 . S
C1450 C1456 1.428 1_545 S
H1451 C1447 0.930 . S
H1452 C1449 0.929 . S
S1453 N1454 1.613 . S
S1453 N1455 1.610 . S
N1454 S1453 1.613 . S
N1454 C1457 1.350 . S
N1455 S1453 1.610 . S
N1455 C1456 1.351 . S
C1456 C1450 1.428 1_565 S
C1456 N1455 1.351 . S
C1456 C1457 1.434 . S
C1457 C1448 1.429 1_565 S
C1457 N1454 1.350 . S
C1457 C1456 1.434 . S
C1458 C1459 1.369 . S
C1458 C1460 1.419 . S
C1458 H1462 0.930 . S
C1459 C1458 1.369 . S
C1459 C1468 1.429 . S
C1460 C1458 1.419 . S
C1460 C1461 1.363 . S
C1460 H1463 0.929 . S
C1461 C1460 1.363 . S
C1461 C1467 1.428 . S
H1462 C1458 0.930 . S
H1463 C1460 0.929 . S
S1464 N1465 1.613 . S
S1464 N1466 1.610 . S
N1465 S1464 1.613 . S
N1465 C1468 1.350 . S
N1466 S1464 1.610 . S
N1466 C1467 1.351 . S
C1467 C1461 1.428 . S
C1467 N1466 1.351 . S
C1467 C1468 1.434 . S
C1468 C1459 1.429 . S
C1468 N1465 1.350 . S
C1468 C1467 1.434 . S
C1469 C1470 1.369 . S
C1469 C1471 1.419 . S
C1469 H1473 0.930 . S
C1470 C1469 1.369 . S
C1470 C1479 1.429 . S
C1471 C1469 1.419 . S
C1471 C1472 1.363 . S
C1471 H1474 0.929 . S
C1472 C1471 1.363 . S
C1472 C1478 1.428 . S
H1473 C1469 0.930 . S
H1474 C1471 0.929 . S
S1475 N1476 1.613 . S
S1475 N1477 1.610 . S
N1476 S1475 1.613 . S
N1476 C1479 1.350 . S
N1477 S1475 1.610 . S
N1477 C1478 1.351 . S
C1478 C1472 1.428 . S
C1478 N1477 1.351 . S
C1478 C1479 1.434 . S
C1479 C1470 1.429 . S
C1479 N1476 1.350 . S
C1479 C1478 1.434 . S
C1480 C1481 1.369 . S
C1480 C1482 1.419 . S
C1480 H1484 0.930 . S
C1481 C1480 1.369 . S
C1481 C1490 1.429 . S
C1482 C1480 1.419 . S
C1482 C1483 1.363 . S
C1482 H1485 0.929 . S
C1483 C1482 1.363 . S
C1483 C1489 1.428 . S
H1484 C1480 0.930 . S
H1485 C1482 0.929 . S
S1486 N1487 1.613 . S
S1486 N1488 1.610 . S
N1487 S1486 1.613 . S
N1487 C1490 1.350 . S
N1488 S1486 1.610 . S
N1488 C1489 1.351 . S
C1489 C1483 1.428 . S
C1489 N1488 1.351 . S
C1489 C1490 1.434 . S
C1490 C1481 1.429 . S
C1490 N1487 1.350 . S
C1490 C1489 1.434 . S
C1491 C1492 1.369 1_455 S
C1491 C1493 1.419 . S
C1491 H1495 0.930 . S
C1492 C1491 1.369 1_655 S
C1492 C1501 1.429 . S
C1493 C1491 1.419 . S
C1493 C1494 1.363 . S
C1493 H1496 0.929 . S
C1494 C1493 1.363 . S
C1494 C1500 1.428 1_455 S
H1495 C1491 0.930 . S
H1496 C1493 0.929 . S
S1497 N1498 1.613 . S
S1497 N1499 1.610 . S
N1498 S1497 1.613 . S
N1498 C1501 1.350 . S
N1499 S1497 1.610 . S
N1499 C1500 1.351 . S
C1500 C1494 1.428 1_655 S
C1500 N1499 1.351 . S
C1500 C1501 1.434 . S
C1501 C1492 1.429 . S
C1501 N1498 1.350 . S
C1501 C1500 1.434 . S
C1502 C1503 1.369 . S
C1502 C1504 1.419 . S
C1502 H1506 0.930 . S
C1503 C1502 1.369 . S
C1503 C1512 1.429 . S
C1504 C1502 1.419 . S
C1504 C1505 1.363 . S
C1504 H1507 0.929 . S
C1505 C1504 1.363 . S
C1505 C1511 1.428 . S
H1506 C1502 0.930 . S
H1507 C1504 0.929 . S
S1508 N1509 1.613 . S
S1508 N1510 1.610 . S
N1509 S1508 1.613 . S
N1509 C1512 1.350 . S
N1510 S1508 1.610 . S
N1510 C1511 1.351 . S
C1511 C1505 1.428 . S
C1511 N1510 1.351 . S
C1511 C1512 1.434 . S
C1512 C1503 1.429 . S
C1512 N1509 1.350 . S
C1512 C1511 1.434 . S
C1513 C1514 1.369 . S
C1513 C1515 1.419 . S
C1513 H1517 0.930 1_455 S
C1514 C1513 1.369 . S
C1514 C1523 1.429 . S
C1515 C1513 1.419 . S
C1515 C1516 1.363 . S
C1515 H1518 0.929 1_455 S
C1516 C1515 1.363 . S
C1516 C1522 1.428 . S
H1517 C1513 0.930 1_655 S
H1518 C1515 0.929 1_655 S
S1519 N1520 1.613 . S
S1519 N1521 1.610 . S
N1520 S1519 1.613 . S
N1520 C1523 1.350 . S
N1521 S1519 1.610 . S
N1521 C1522 1.351 . S
C1522 C1516 1.428 . S
C1522 N1521 1.351 . S
C1522 C1523 1.434 . S
C1523 C1514 1.429 . S
C1523 N1520 1.350 . S
C1523 C1522 1.434 . S
C1524 C1525 1.369 . S
C1524 C1526 1.419 . S
C1524 H1528 0.930 . S
C1525 C1524 1.369 . S
C1525 C1534 1.429 . S
C1526 C1524 1.419 . S
C1526 C1527 1.363 . S
C1526 H1529 0.929 . S
C1527 C1526 1.363 . S
C1527 C1533 1.428 . S
H1528 C1524 0.930 . S
H1529 C1526 0.929 . S
S1530 N1531 1.613 . S
S1530 N1532 1.610 . S
N1531 S1530 1.613 . S
N1531 C1534 1.350 . S
N1532 S1530 1.610 . S
N1532 C1533 1.351 . S
C1533 C1527 1.428 . S
C1533 N1532 1.351 . S
C1533 C1534 1.434 . S
C1534 C1525 1.429 . S
C1534 N1531 1.350 . S
C1534 C1533 1.434 . S
C1535 C1536 1.369 . S
C1535 C1537 1.419 . S
C1535 H1539 0.930 . S
C1536 C1535 1.369 . S
C1536 C1545 1.429 . S
C1537 C1535 1.419 . S
C1537 C1538 1.363 . S
C1537 H1540 0.929 . S
C1538 C1537 1.363 . S
C1538 C1544 1.428 . S
H1539 C1535 0.930 . S
H1540 C1537 0.929 . S
S1541 N1542 1.613 . S
S1541 N1543 1.610 . S
N1542 S1541 1.613 . S
N1542 C1545 1.350 . S
N1543 S1541 1.610 . S
N1543 C1544 1.351 . S
C1544 C1538 1.428 . S
C1544 N1543 1.351 . S
C1544 C1545 1.434 . S
C1545 C1536 1.429 . S
C1545 N1542 1.350 . S
C1545 C1544 1.434 . S
C1546 C1547 1.369 . S
C1546 C1548 1.419 . S
C1546 H1550 0.930 . S
C1547 C1546 1.369 . S
C1547 C1556 1.429 . S
C1548 C1546 1.419 . S
C1548 C1549 1.363 . S
C1548 H1551 0.929 . S
C1549 C1548 1.363 . S
C1549 C1555 1.428 . S
H1550 C1546 0.930 . S
H1551 C1548 0.929 . S
S1552 N1553 1.613 . S
S1552 N1554 1.610 . S
N1553 S1552 1.613 . S
N1553 C1556 1.350 . S
N1554 S1552 1.610 . S
N1554 C1555 1.351 . S
C1555 C1549 1.428 . S
C1555 N1554 1.351 . S
C1555 C1556 1.434 . S
C1556 C1547 1.429 . S
C1556 N1553 1.350 . S
C1556 C1555 1.434 . S
C1557 C1558 1.369 . S
C1557 C1559 1.419 . S
C1557 H1561 0.930 . S
C1558 C1557 1.369 . S
C1558 C1567 1.429 . S
C1559 C1557 1.419 . S
C1559 C1560 1.363 . S
C1559 H1562 0.929 . S
C1560 C1559 1.363 . S
C1560 C1566 1.428 . S
H1561 C1557 0.930 . S
H1562 C1559 0.929 . S
S1563 N1564 1.613 . S
S1563 N1565 1.610 . S
N1564 S1563 1.613 . S
N1564 C1567 1.350 . S
N1565 S1563 1.610 . S
N1565 C1566 1.351 . S
C1566 C1560 1.428 . S
C1566 N1565 1.351 . S
C1566 C1567 1.434 . S
C1567 C1558 1.429 . S
C1567 N1564 1.350 . S
C1567 C1566 1.434 . S
C1568 C1569 1.369 . S
C1568 C1570 1.419 . S
C1568 H1572 0.930 . S
C1569 C1568 1.369 . S
C1569 C1578 1.429 . S
C1570 C1568 1.419 . S
C1570 C1571 1.363 . S
C1570 H1573 0.929 . S
C1571 C1570 1.363 . S
C1571 C1577 1.428 . S
H1572 C1568 0.930 . S
H1573 C1570 0.929 . S
S1574 N1575 1.613 . S
S1574 N1576 1.610 . S
N1575 S1574 1.613 . S
N1575 C1578 1.350 . S
N1576 S1574 1.610 . S
N1576 C1577 1.351 . S
C1577 C1571 1.428 . S
C1577 N1576 1.351 . S
C1577 C1578 1.434 . S
C1578 C1569 1.429 . S
C1578 N1575 1.350 . S
C1578 C1577 1.434 . S
C1579 C1580 1.369 . S
C1579 C1581 1.419 . S
C1579 H1583 0.930 . S
C1580 C1579 1.369 . S
C1580 C1589 1.429 . S
C1581 C1579 1.419 . S
C1581 C1582 1.363 . S
C1581 H1584 0.929 . S
C1582 C1581 1.363 . S
C1582 C1588 1.428 . S
H1583 C1579 0.930 . S
H1584 C1581 0.929 . S
S1585 N1586 1.613 . S
S1585 N1587 1.610 . S
N1586 S1585 1.613 . S
N1586 C1589 1.350 . S
N1587 S1585 1.610 . S
N1587 C1588 1.351 . S
C1588 C1582 1.428 . S
C1588 N1587 1.351 . S
C1588 C1589 1.434 . S
C1589 C1580 1.429 . S
C1589 N1586 1.350 . S
C1589 C1588 1.434 . S
C1590 C1591 1.369 . S
C1590 C1592 1.419 . S
C1590 H1594 0.930 . S
C1591 C1590 1.369 . S
C1591 C1600 1.429 . S
C1592 C1590 1.419 . S
C1592 C1593 1.363 . S
C1592 H1595 0.929 . S
C1593 C1592 1.363 . S
C1593 C1599 1.428 . S
H1594 C1590 0.930 . S
H1595 C1592 0.929 . S
S1596 N1597 1.613 . S
S1596 N1598 1.610 . S
N1597 S1596 1.613 . S
N1597 C1600 1.350 . S
N1598 S1596 1.610 . S
N1598 C1599 1.351 . S
C1599 C1593 1.428 . S
C1599 N1598 1.351 . S
C1599 C1600 1.434 . S
C1600 C1591 1.429 . S
C1600 N1597 1.350 . S
C1600 C1599 1.434 . S
C1601 C1602 1.369 . S
C1601 C1603 1.419 . S
C1601 H1605 0.930 . S
C1602 C1601 1.369 . S
C1602 C1611 1.429 . S
C1603 C1601 1.419 . S
C1603 C1604 1.363 . S
C1603 H1606 0.929 . S
C1604 C1603 1.363 . S
C1604 C1610 1.428 . S
H1605 C1601 0.930 . S
H1606 C1603 0.929 . S
S1607 N1608 1.613 . S
S1607 N1609 1.610 . S
N1608 S1607 1.613 . S
N1608 C1611 1.350 . S
N1609 S1607 1.610 . S
N1609 C1610 1.351 . S
C1610 C1604 1.428 . S
C1610 N1609 1.351 . S
C1610 C1611 1.434 . S
C1611 C1602 1.429 . S
C1611 N1608 1.350 . S
C1611 C1610 1.434 . S
C1612 C1613 1.369 1_554 S
C1612 C1614 1.419 . S
C1612 H1616 0.930 . S
C1613 C1612 1.369 1_556 S
C1613 C1622 1.429 . S
C1614 C1612 1.419 . S
C1614 C1615 1.363 1_554 S
C1614 H1617 0.929 . S
C1615 C1614 1.363 1_556 S
C1615 C1621 1.428 . S
H1616 C1612 0.930 . S
H1617 C1614 0.929 . S
S1618 N1619 1.613 . S
S1618 N1620 1.610 . S
N1619 S1618 1.613 . S
N1619 C1622 1.350 . S
N1620 S1618 1.610 . S
N1620 C1621 1.351 . S
C1621 C1615 1.428 . S
C1621 N1620 1.351 . S
C1621 C1622 1.434 . S
C1622 C1613 1.429 . S
C1622 N1619 1.350 . S
C1622 C1621 1.434 . S
C1623 C1624 1.369 . S
C1623 C1625 1.419 . S
C1623 H1627 0.930 . S
C1624 C1623 1.369 . S
C1624 C1633 1.429 . S
C1625 C1623 1.419 . S
C1625 C1626 1.363 . S
C1625 H1628 0.929 . S
C1626 C1625 1.363 . S
C1626 C1632 1.428 . S
H1627 C1623 0.930 . S
H1628 C1625 0.929 . S
S1629 N1630 1.613 . S
S1629 N1631 1.610 . S
N1630 S1629 1.613 . S
N1630 C1633 1.350 . S
N1631 S1629 1.610 . S
N1631 C1632 1.351 . S
C1632 C1626 1.428 . S
C1632 N1631 1.351 . S
C1632 C1633 1.434 . S
C1633 C1624 1.429 . S
C1633 N1630 1.350 . S
C1633 C1632 1.434 . S
C1634 C1635 1.369 . S
C1634 C1636 1.419 . S
C1634 H1638 0.930 . S
C1635 C1634 1.369 . S
C1635 C1644 1.429 . S
C1636 C1634 1.419 . S
C1636 C1637 1.363 . S
C1636 H1639 0.929 . S
C1637 C1636 1.363 . S
C1637 C1643 1.428 . S
H1638 C1634 0.930 . S
H1639 C1636 0.929 . S
S1640 N1641 1.613 . S
S1640 N1642 1.610 . S
N1641 S1640 1.613 . S
N1641 C1644 1.350 . S
N1642 S1640 1.610 . S
N1642 C1643 1.351 . S
C1643 C1637 1.428 . S
C1643 N1642 1.351 . S
C1643 C1644 1.434 . S
C1644 C1635 1.429 . S
C1644 N1641 1.350 . S
C1644 C1643 1.434 . S
C1645 C1646 1.369 . S
C1645 C1647 1.419 . S
C1645 H1649 0.930 . S
C1646 C1645 1.369 . S
C1646 C1655 1.429 . S
C1647 C1645 1.419 . S
C1647 C1648 1.363 . S
C1647 H1650 0.929 . S
C1648 C1647 1.363 . S
C1648 C1654 1.428 . S
H1649 C1645 0.930 . S
H1650 C1647 0.929 . S
S1651 N1652 1.613 . S
S1651 N1653 1.610 . S
N1652 S1651 1.613 . S
N1652 C1655 1.350 1_556 S
N1653 S1651 1.610 . S
N1653 C1654 1.351 1_556 S
C1654 C1648 1.428 . S
C1654 N1653 1.351 1_554 S
C1654 C1655 1.434 . S
C1655 C1646 1.429 . S
C1655 N1652 1.350 1_554 S
C1655 C1654 1.434 . S
C1131 C971 1.456 . S
C1129 C331 1.460 . S
C1142 C979 1.266 . S
C1140 C380 1.519 . S
C1151 C421 1.437 . S
C1153 C999 1.429 . S
C1164 C1013 1.502 . S
C1162 C260 1.489 . S
C1175 C1028 1.523 . S
C1173 C620 1.500 . S
C1186 C1042 1.523 . S
C1184 C740 1.505 . S
C1195 C680 1.529 . S
C1197 C1056 1.559 . S
C1208 C1062 1.435 . S
C1206 C571 1.466 . S
C1217 C691 1.486 . S
C1219 C1076 1.486 . S
C1230 C1097 1.522 . S
C1228 C541 1.519 . S
C1239 C601 1.461 . S
C1241 C1077 1.238 . S
C1252 C1098 1.540 . S
C1250 C721 1.523 . S
C1261 C451 1.474 . S
C1263 C1105 1.223 . S
C1272 C241 1.482 . S
C1274 C1111 1.497 . S
C1283 C320 1.484 . S
C1285 C1104 1.460 . S
C1294 C391 1.474 . S
C1296 C1112 1.489 . S
C1305 C211 1.476 . S
C1307 C1006 1.454 . S
C1316 C841 1.486 . S
C1318 C1007 1.258 . S
C1329 C964 1.505 . S
C1327 C901 1.547 . S
C1340 C985 1.450 . S
C1338 C500 1.467 . S
C1349 C271 1.467 . S
C1351 C1020 1.457 . S
C1362 C1070 1.526 . S
C1360 C661 1.502 . S
C1373 C1021 1.226 . S
C1371 C560 1.441 . S
C1384 C1049 1.268 . S
C1382 C751 1.545 . S
C1395 C1055 1.455 . S
C1393 C871 1.458 . S
C1404 C920 1.525 . S
C1406 C1063 1.276 . S
C1415 C481 1.437 . S
C1417 C1027 1.430 . S
C1428 C1041 1.502 . S
C1426 C800 1.488 . S
C1437 C200 1.503 . S
C1439 C1000 1.523 . S
C1450 C1014 1.522 . S
C1448 C20 1.507 . S
C1461 C972 1.558 . S
C1459 C80 1.534 . S
C1472 C978 1.436 . S
C1470 C151 1.468 . S
C1481 C91 1.491 . S
C1483 C1090 1.487 . S
C1492 C121 1.523 . S
C1494 C1083 1.519 . S
C1503 C181 1.465 . S
C1505 C1091 1.246 . S
C1514 C1 1.521 . S
C1516 C1084 1.540 . S
C1527 C1119 1.215 . S
C1525 C511 1.473 . S
C1538 C1125 1.494 . S
C1536 C781 1.476 . S
C1549 C1118 1.466 . S
C1547 C860 1.481 . S
C1558 C931 1.473 . S
C1560 C1126 1.489 . S
C1569 C631 1.480 . S
C1571 C1034 1.455 . S
C1582 C1035 1.255 . S
C1580 C301 1.484 . S
C1593 C1048 1.500 . S
C1591 C361 1.543 . S
C1604 C1069 1.448 . S
C1602 C440 1.465 . S
C1613 C811 1.471 . S
C1615 C992 1.455 . S
C1626 C986 1.526 . S
C1624 C61 1.497 . S
C1635 C140 1.434 . S
C1637 C993 1.212 . S
C1648 C965 1.267 . S
C1646 C31 1.544 . S
