# Generated by pormake.
# Topology pyr, (3,6)-cn, num edge types: 1
# Building blocks:
#     Node 0, Type 0, BuildingBlock: VETTIZ_charged_linker_0, # of connection points: 3
#     Node 1, Type 0, BuildingBlock: VETTIZ_charged_linker_0, # of connection points: 3
#     Node 2, Type 0, BuildingBlock: VETTIZ_charged_linker_0, # of connection points: 3
#     Node 3, Type 0, BuildingBlock: VETTIZ_charged_linker_0, # of connection points: 3
#     Node 4, Type 0, BuildingBlock: VETTIZ_charged_linker_0, # of connection points: 3
#     Node 5, Type 0, BuildingBlock: VETTIZ_charged_linker_0, # of connection points: 3
#     Node 6, Type 0, BuildingBlock: VETTIZ_charged_linker_0, # of connection points: 3
#     Node 7, Type 0, BuildingBlock: VETTIZ_charged_linker_0, # of connection points: 3
#     Node 8, Type 1, BuildingBlock: INOVEN_clean_sbu_0, # of connection points: 6
#     Node 9, Type 1, BuildingBlock: INOVEN_clean_sbu_0, # of connection points: 6
#     Node 10, Type 1, BuildingBlock: INOVEN_clean_sbu_0, # of connection points: 6
#     Node 11, Type 1, BuildingBlock: INOVEN_clean_sbu_0, # of connection points: 6
#     Edge 12, Type (0, 1), BuildingBlock: XIVTED_clean_linker_0, # of connection points: 2
#     Edge 13, Type (0, 1), BuildingBlock: XIVTED_clean_linker_0, # of connection points: 2
#     Edge 14, Type (0, 1), BuildingBlock: XIVTED_clean_linker_0, # of connection points: 2
#     Edge 15, Type (0, 1), BuildingBlock: XIVTED_clean_linker_0, # of connection points: 2
#     Edge 16, Type (0, 1), BuildingBlock: XIVTED_clean_linker_0, # of connection points: 2
#     Edge 17, Type (0, 1), BuildingBlock: XIVTED_clean_linker_0, # of connection points: 2
#     Edge 18, Type (0, 1), BuildingBlock: XIVTED_clean_linker_0, # of connection points: 2
#     Edge 19, Type (0, 1), BuildingBlock: XIVTED_clean_linker_0, # of connection points: 2
#     Edge 20, Type (0, 1), BuildingBlock: XIVTED_clean_linker_0, # of connection points: 2
#     Edge 21, Type (0, 1), BuildingBlock: XIVTED_clean_linker_0, # of connection points: 2
#     Edge 22, Type (0, 1), BuildingBlock: XIVTED_clean_linker_0, # of connection points: 2
#     Edge 23, Type (0, 1), BuildingBlock: XIVTED_clean_linker_0, # of connection points: 2
#     Edge 24, Type (0, 1), BuildingBlock: XIVTED_clean_linker_0, # of connection points: 2
#     Edge 25, Type (0, 1), BuildingBlock: XIVTED_clean_linker_0, # of connection points: 2
#     Edge 26, Type (0, 1), BuildingBlock: XIVTED_clean_linker_0, # of connection points: 2
#     Edge 27, Type (0, 1), BuildingBlock: XIVTED_clean_linker_0, # of connection points: 2
#     Edge 28, Type (0, 1), BuildingBlock: XIVTED_clean_linker_0, # of connection points: 2
#     Edge 29, Type (0, 1), BuildingBlock: XIVTED_clean_linker_0, # of connection points: 2
#     Edge 30, Type (0, 1), BuildingBlock: XIVTED_clean_linker_0, # of connection points: 2
#     Edge 31, Type (0, 1), BuildingBlock: XIVTED_clean_linker_0, # of connection points: 2
#     Edge 32, Type (0, 1), BuildingBlock: XIVTED_clean_linker_0, # of connection points: 2
#     Edge 33, Type (0, 1), BuildingBlock: XIVTED_clean_linker_0, # of connection points: 2
#     Edge 34, Type (0, 1), BuildingBlock: XIVTED_clean_linker_0, # of connection points: 2
#     Edge 35, Type (0, 1), BuildingBlock: XIVTED_clean_linker_0, # of connection points: 2
# Relax obj value: 0.094
# Max RMSD: 0.127
# Mean RMSD: 0.060
data_MOF--net-pyr--node1-INOVEN_clean_sbu_0--node2-VETTIZ_charged_linker_0--edge1-XIVTED_clean_linker_0
_symmetry_space_group_name_H-M    P1
_symmetry_Int_Tables_number       1
_symmetry_cell_setting            triclinic
loop_
_symmetry_equiv_pos_as_xyz
'x, y, z'
_cell_length_a     46.692046
_cell_length_b     49.14808
_cell_length_c     44.627178
_cell_angle_alpha  91.427211
_cell_angle_beta   88.50743
_cell_angle_gamma 99.133651
loop_
_atom_site_label
_atom_site_type_symbol
_atom_site_fract_x
_atom_site_fract_y
_atom_site_fract_z
_atom_type_partial_charge
C0 C 0.28242 0.24496 0.32827 0.0
C1 C 0.26207 0.25975 0.34233 0.0
C2 C 0.25945 0.2859 0.33134 0.0
C3 C 0.29118 0.27877 0.28915 0.0
C4 C 0.29687 0.25496 0.30189 0.0
C5 C 0.31805 0.24128 0.2831 0.0
H6 H 0.3731 0.21875 0.14614 0.0
C7 C 0.30498 0.28075 0.25899 0.0
C8 C 0.32133 0.25923 0.25549 0.0
H9 H 0.3939 0.18483 0.23027 0.0
H10 H 0.36567 0.21468 0.25701 0.0
H11 H 0.38723 0.28145 0.17221 0.0
H12 H 0.30678 0.22582 0.16121 0.0
H13 H 0.30249 0.25841 0.14818 0.0
H14 H 0.32882 0.24011 0.13009 0.0
H15 H 0.37146 0.27389 0.1361 0.0
H16 H 0.36127 0.30088 0.16038 0.0
C17 C 0.34682 0.24343 0.30033 0.0
C18 C 0.30396 0.21127 0.27564 0.0
C19 C 0.27011 0.3438 0.18456 0.0
C20 C 0.27322 0.34621 0.1533 0.0
C21 C 0.29193 0.33068 0.13759 0.0
C22 C 0.3067 0.31258 0.15277 0.0
C23 C 0.3024 0.30966 0.18393 0.0
C24 C 0.28461 0.32542 0.19928 0.0
C25 C 0.28104 0.31864 0.23192 0.0
C26 C 0.30025 0.29661 0.23394 0.0
C27 C 0.3125 0.2912 0.20573 0.0
C28 C 0.29267 0.34481 0.25075 0.0
C29 C 0.24852 0.30717 0.23782 0.0
C30 C 0.37204 0.21768 0.17032 0.0
C31 C 0.38524 0.1983 0.18568 0.0
C32 C 0.38304 0.19832 0.21736 0.0
C33 C 0.36686 0.21592 0.23308 0.0
C34 C 0.35287 0.23404 0.21724 0.0
C35 C 0.35661 0.23564 0.18655 0.0
C36 C 0.34264 0.2584 0.17403 0.0
C37 C 0.32961 0.2698 0.20233 0.0
C38 C 0.33484 0.25468 0.22735 0.0
C39 C 0.36671 0.2798 0.15968 0.0
C40 C 0.31901 0.24523 0.15204 0.0
H41 H 0.27005 0.31495 0.29691 0.0
H42 H 0.28564 0.22513 0.33636 0.0
H43 H 0.2821 0.21086 0.26616 0.0
H44 H 0.3167 0.20096 0.25904 0.0
H45 H 0.30148 0.19858 0.29607 0.0
H46 H 0.3476 0.25804 0.31985 0.0
H47 H 0.34984 0.22315 0.30912 0.0
H48 H 0.36594 0.25148 0.28603 0.0
H49 H 0.25544 0.35494 0.19725 0.0
H50 H 0.29482 0.33228 0.11351 0.0
H51 H 0.32032 0.30106 0.13956 0.0
H52 H 0.30969 0.35871 0.23815 0.0
H53 H 0.27504 0.35678 0.25698 0.0
H54 H 0.30343 0.33994 0.27132 0.0
H55 H 0.24003 0.29249 0.21955 0.0
H56 H 0.24421 0.29546 0.25854 0.0
H57 H 0.23528 0.32407 0.23876 0.0
H58 H 0.24511 0.29846 0.34242 0.0
C59 C 0.27394 0.29549 0.30489 0.0
C60 C 0.16958 0.84639 0.58855 0.0
C61 C 0.15148 0.85759 0.60965 0.0
C62 C 0.15593 0.85466 0.64045 0.0
C63 C 0.19934 0.83516 0.62865 0.0
C64 C 0.19325 0.83516 0.59856 0.0
C65 C 0.21571 0.8238 0.57926 0.0
H66 H 0.34853 0.78598 0.56823 0.0
C67 C 0.22785 0.82641 0.63147 0.0
C68 C 0.23739 0.81924 0.60269 0.0
H69 H 0.28412 0.77912 0.49953 0.0
H70 H 0.2511 0.79807 0.53421 0.0
H71 H 0.33552 0.84608 0.5986 0.0
H72 H 0.30796 0.76016 0.61661 0.0
H73 H 0.31134 0.7773 0.65162 0.0
H74 H 0.34295 0.77782 0.62731 0.0
H75 H 0.35929 0.82407 0.61223 0.0
H76 H 0.33738 0.84177 0.63742 0.0
C77 C 0.22885 0.84599 0.55661 0.0
C78 C 0.20126 0.79631 0.56447 0.0
C79 C 0.28065 0.84574 0.72932 0.0
C80 C 0.30929 0.84462 0.73742 0.0
C81 C 0.3274 0.83201 0.71758 0.0
C82 C 0.31767 0.82232 0.68923 0.0
C83 C 0.28963 0.82546 0.68062 0.0
C84 C 0.27136 0.83624 0.70089 0.0
C85 C 0.24253 0.83852 0.68782 0.0
C86 C 0.24669 0.82776 0.65608 0.0
C87 C 0.27443 0.82053 0.65192 0.0
C88 C 0.23921 0.86944 0.6887 0.0
C89 C 0.21847 0.8196 0.70547 0.0
C90 C 0.32768 0.78944 0.56031 0.0
C91 C 0.3191 0.78181 0.53096 0.0
C92 C 0.29127 0.78532 0.52194 0.0
C93 C 0.27212 0.79601 0.54215 0.0
C94 C 0.28083 0.80283 0.57171 0.0
C95 C 0.30819 0.79939 0.58031 0.0
C96 C 0.31307 0.80549 0.61308 0.0
C97 C 0.28386 0.81267 0.62298 0.0
C98 C 0.26531 0.81169 0.59858 0.0
C99 C 0.33769 0.83053 0.61576 0.0
C100 C 0.31938 0.779 0.62811 0.0
H101 H 0.18264 0.84271 0.67374 0.0
H102 H 0.16663 0.84794 0.56472 0.0
H103 H 0.18173 0.78675 0.57746 0.0
H104 H 0.21575 0.78051 0.56373 0.0
H105 H 0.19426 0.79951 0.54139 0.0
H106 H 0.23441 0.86639 0.56817 0.0
H107 H 0.21321 0.84808 0.5388 0.0
H108 H 0.2491 0.8416 0.54567 0.0
H109 H 0.26612 0.85492 0.74438 0.0
H110 H 0.34958 0.83094 0.72335 0.0
H111 H 0.33273 0.81367 0.67474 0.0
H112 H 0.25965 0.88237 0.68086 0.0
H113 H 0.23429 0.87639 0.71187 0.0
H114 H 0.22225 0.87438 0.67405 0.0
H115 H 0.22721 0.80272 0.71657 0.0
H116 H 0.20138 0.80889 0.69066 0.0
H117 H 0.2083 0.83138 0.72323 0.0
H118 H 0.14171 0.86215 0.65719 0.0
C119 C 0.17972 0.84341 0.65004 0.0
C120 C 0.62767 0.26641 0.90284 0.0
C121 C 0.60225 0.24912 0.89323 0.0
C122 C 0.58786 0.25832 0.86865 0.0
C123 C 0.62354 0.30068 0.86457 0.0
C124 C 0.6378 0.29161 0.88834 0.0
C125 C 0.66485 0.31142 0.89585 0.0
H126 H 0.7554 0.43284 0.87848 0.0
C127 C 0.64003 0.3282 0.85479 0.0
C128 C 0.66433 0.33427 0.87344 0.0
H129 H 0.76355 0.36546 0.93686 0.0
H130 H 0.71991 0.33985 0.91801 0.0
H131 H 0.68468 0.42925 0.8848 0.0
H132 H 0.73676 0.39118 0.81979 0.0
H133 H 0.7095 0.40452 0.80107 0.0
H134 H 0.73653 0.4277 0.8212 0.0
H135 H 0.70756 0.44892 0.85745 0.0
H136 H 0.67132 0.43249 0.84874 0.0
C137 C 0.66139 0.32188 0.92858 0.0
C138 C 0.69133 0.29631 0.89017 0.0
C139 C 0.60551 0.38308 0.76812 0.0
C140 C 0.61573 0.40948 0.75589 0.0
C141 C 0.64086 0.42479 0.76876 0.0
C142 C 0.65523 0.41464 0.79255 0.0
C143 C 0.64478 0.38858 0.8045 0.0
C144 C 0.62012 0.37323 0.79244 0.0
C145 C 0.61177 0.34625 0.80895 0.0
C146 C 0.6356 0.3477 0.83229 0.0
C147 C 0.65514 0.37277 0.82944 0.0
C148 C 0.58161 0.3462 0.82395 0.0
C149 C 0.61276 0.32215 0.78631 0.0
C150 C 0.74799 0.41254 0.88722 0.0
C151 C 0.76338 0.40207 0.91038 0.0
C152 C 0.7523 0.3752 0.92029 0.0
C153 C 0.72676 0.35986 0.90887 0.0
C154 C 0.71148 0.37075 0.88651 0.0
C155 C 0.72236 0.3965 0.87559 0.0
C156 C 0.70358 0.40391 0.85064 0.0
C157 C 0.67968 0.37859 0.84877 0.0
C158 C 0.68437 0.35933 0.87023 0.0
C159 C 0.69117 0.43013 0.86063 0.0
C160 C 0.72244 0.40724 0.82156 0.0
H161 H 0.58605 0.28921 0.83609 0.0
H162 H 0.63996 0.26027 0.92104 0.0
H163 H 0.68683 0.27983 0.87259 0.0
H164 H 0.71063 0.31011 0.88145 0.0
H165 H 0.69711 0.28647 0.91083 0.0
H166 H 0.63894 0.32614 0.93302 0.0
H167 H 0.66559 0.30627 0.9448 0.0
H168 H 0.67563 0.3415 0.93364 0.0
H169 H 0.58624 0.37057 0.75937 0.0
H170 H 0.64986 0.4448 0.7601 0.0
H171 H 0.67413 0.42766 0.80085 0.0
H172 H 0.58046 0.36641 0.83534 0.0
H173 H 0.56428 0.34256 0.80705 0.0
H174 H 0.57669 0.33059 0.84143 0.0
H175 H 0.633 0.32582 0.77231 0.0
H176 H 0.61282 0.30234 0.79737 0.0
H177 H 0.59403 0.31992 0.7711 0.0
H178 H 0.56819 0.24602 0.8605 0.0
C179 C 0.5982 0.28371 0.85449 0.0
C180 C 0.90042 0.77596 0.37839 0.0
C181 C 0.8901 0.79044 0.40332 0.0
C182 C 0.86363 0.7787 0.41719 0.0
C183 C 0.85887 0.73896 0.38293 0.0
C184 C 0.88456 0.75025 0.36874 0.0
C185 C 0.89242 0.73145 0.34332 0.0
H186 H 0.85873 0.61159 0.26044 0.0
C187 C 0.84774 0.71191 0.36814 0.0
C188 C 0.86734 0.70723 0.34475 0.0
H189 H 0.93419 0.67457 0.24999 0.0
H190 H 0.917 0.70081 0.29108 0.0
H191 H 0.86111 0.61127 0.33319 0.0
H192 H 0.8113 0.65321 0.27439 0.0
H193 H 0.7884 0.63758 0.30323 0.0
H194 H 0.80573 0.61634 0.27732 0.0
H195 H 0.83163 0.59307 0.31199 0.0
H196 H 0.82557 0.60893 0.348 0.0
C197 C 0.92173 0.72246 0.35042 0.0
C198 C 0.89285 0.74712 0.31369 0.0
C199 C 0.75328 0.6558 0.40796 0.0
C200 C 0.73728 0.62964 0.40066 0.0
C201 C 0.7481 0.61456 0.37659 0.0
C202 C 0.77378 0.62509 0.3605 0.0
C203 C 0.78946 0.6511 0.36837 0.0
C204 C 0.77906 0.66588 0.39187 0.0
C205 C 0.79867 0.69284 0.39779 0.0
C206 C 0.82255 0.69198 0.37401 0.0
C207 C 0.81711 0.66752 0.35657 0.0
C208 C 0.81034 0.69227 0.42996 0.0
C209 C 0.78118 0.71651 0.39248 0.0
C210 C 0.87188 0.63087 0.26695 0.0
C211 C 0.89804 0.64068 0.25106 0.0
C212 C 0.91375 0.66632 0.26079 0.0
C213 C 0.90382 0.68163 0.28508 0.0
C214 C 0.87777 0.67148 0.30051 0.0
C215 C 0.86235 0.64636 0.29136 0.0
C216 C 0.8354 0.63835 0.31069 0.0
C217 C 0.8369 0.66279 0.33265 0.0
C218 C 0.86188 0.6824 0.32668 0.0
C219 C 0.83826 0.61139 0.32676 0.0
C220 C 0.80866 0.63602 0.2905 0.0
H221 H 0.82827 0.74597 0.41909 0.0
H222 H 0.92064 0.78412 0.36709 0.0
H223 H 0.87395 0.75829 0.31299 0.0
H224 H 0.89112 0.73332 0.29374 0.0
H225 H 0.9129 0.76255 0.31144 0.0
H226 H 0.92257 0.71775 0.37461 0.0
H227 H 0.94014 0.73906 0.34522 0.0
H228 H 0.92522 0.70342 0.33825 0.0
H229 H 0.74592 0.66853 0.42577 0.0
H230 H 0.73702 0.59426 0.37036 0.0
H231 H 0.7806 0.61242 0.34259 0.0
H232 H 0.81318 0.67102 0.43592 0.0
H233 H 0.79517 0.69947 0.44685 0.0
H234 H 0.8321 0.70463 0.43251 0.0
H235 H 0.76621 0.71126 0.37346 0.0
H236 H 0.79504 0.73592 0.38605 0.0
H237 H 0.76784 0.72046 0.41262 0.0
H238 H 0.85459 0.78928 0.43586 0.0
C239 C 0.84814 0.75339 0.40725 0.0
C240 C 0.74196 0.72018 0.87585 0.0
C241 C 0.75968 0.7035 0.8603 0.0
C242 C 0.7575 0.70051 0.82886 0.0
C243 C 0.72571 0.73467 0.82852 0.0
C244 C 0.72478 0.73526 0.85944 0.0
C245 C 0.70445 0.75407 0.87165 0.0
H246 H 0.62422 0.85427 0.845 0.0
C247 C 0.70865 0.75502 0.81784 0.0
C248 C 0.69504 0.76579 0.84283 0.0
H249 H 0.63642 0.81761 0.92983 0.0
H250 H 0.66435 0.78588 0.90487 0.0
H251 H 0.61485 0.79487 0.80359 0.0
H252 H 0.68247 0.86134 0.82387 0.0
H253 H 0.69518 0.84727 0.79057 0.0
H254 H 0.66187 0.8615 0.79069 0.0
H255 H 0.61722 0.82987 0.79184 0.0
H256 H 0.63398 0.8051 0.76997 0.0
C257 C 0.67876 0.73629 0.88816 0.0
C258 C 0.72199 0.77661 0.89165 0.0
C259 C 0.73399 0.79562 0.71594 0.0
C260 C 0.72654 0.81886 0.70204 0.0
C261 C 0.70212 0.82985 0.71326 0.0
C262 C 0.68764 0.81991 0.73967 0.0
C263 C 0.69765 0.7988 0.75506 0.0
C264 C 0.71944 0.78605 0.74235 0.0
C265 C 0.72716 0.76379 0.76171 0.0
C266 C 0.70803 0.767 0.78933 0.0
C267 C 0.6911 0.78775 0.78538 0.0
C268 C 0.71854 0.73554 0.74532 0.0
C269 C 0.75991 0.77069 0.76868 0.0
C270 C 0.63235 0.83901 0.85813 0.0
C271 C 0.62803 0.83838 0.88939 0.0
C272 C 0.63965 0.81864 0.90574 0.0
C273 C 0.65578 0.8002 0.89121 0.0
C274 C 0.66068 0.80171 0.86004 0.0
C275 C 0.64878 0.82073 0.84403 0.0
C276 C 0.65729 0.82039 0.81133 0.0
C277 C 0.67571 0.79753 0.8102 0.0
C278 C 0.67769 0.78668 0.8388 0.0
C279 C 0.62943 0.81229 0.793 0.0
C280 C 0.67497 0.84901 0.8035 0.0
H281 H 0.74026 0.71332 0.78912 0.0
H282 H 0.74233 0.7224 0.90003 0.0
H283 H 0.74304 0.78488 0.88047 0.0
H284 H 0.7109 0.79454 0.89606 0.0
H285 H 0.72675 0.76813 0.91349 0.0
H286 H 0.67411 0.7152 0.87799 0.0
H287 H 0.68353 0.73412 0.91216 0.0
H288 H 0.65823 0.74462 0.8865 0.0
H289 H 0.75236 0.78638 0.70798 0.0
H290 H 0.69505 0.84705 0.70248 0.0
H291 H 0.67008 0.82989 0.74788 0.0
H292 H 0.7052 0.73707 0.72531 0.0
H293 H 0.73798 0.72678 0.73739 0.0
H294 H 0.70498 0.72039 0.75992 0.0
H295 H 0.76533 0.79224 0.77742 0.0
H296 H 0.76684 0.75733 0.78557 0.0
H297 H 0.77347 0.76853 0.74821 0.0
H298 H 0.76953 0.68671 0.81635 0.0
C299 C 0.74052 0.71589 0.81299 0.0
C300 C 0.86295 0.20953 0.45762 0.0
C301 C 0.87453 0.18865 0.44156 0.0
C302 C 0.86602 0.18251 0.41175 0.0
C303 C 0.83067 0.21348 0.41694 0.0
C304 C 0.84062 0.22113 0.44526 0.0
C305 C 0.82212 0.23933 0.46167 0.0
H306 H 0.69458 0.28697 0.47231 0.0
C307 C 0.80397 0.22528 0.41278 0.0
C308 C 0.79875 0.24036 0.43893 0.0
H309 H 0.76496 0.30155 0.53454 0.0
H310 H 0.79442 0.2773 0.50085 0.0
H311 H 0.70105 0.22345 0.45199 0.0
H312 H 0.73336 0.3033 0.41626 0.0
H313 H 0.72696 0.28064 0.38528 0.0
H314 H 0.69701 0.28646 0.40979 0.0
H315 H 0.67831 0.24555 0.43653 0.0
H316 H 0.69532 0.22217 0.4131 0.0
C317 C 0.80982 0.22465 0.49072 0.0
C318 C 0.84068 0.26799 0.46703 0.0
C319 C 0.74389 0.197 0.32098 0.0
C320 C 0.71608 0.20104 0.31269 0.0
C321 C 0.70105 0.21835 0.33069 0.0
C322 C 0.7131 0.23047 0.35722 0.0
C323 C 0.74037 0.22511 0.3659 0.0
C324 C 0.75549 0.20905 0.34756 0.0
C325 C 0.78375 0.20485 0.36062 0.0
C326 C 0.78331 0.2214 0.38971 0.0
C327 C 0.75776 0.23294 0.39283 0.0
C328 C 0.78252 0.17353 0.36592 0.0
C329 C 0.80866 0.21761 0.33923 0.0
C330 C 0.71611 0.28433 0.47897 0.0
C331 C 0.72728 0.29521 0.50641 0.0
C332 C 0.75586 0.29274 0.51372 0.0
C333 C 0.77284 0.27878 0.49413 0.0
C334 C 0.76106 0.26741 0.46702 0.0
C335 C 0.73338 0.27087 0.45956 0.0
C336 C 0.72515 0.25943 0.42891 0.0
C337 C 0.75224 0.24782 0.41942 0.0
C338 C 0.77293 0.25205 0.44205 0.0
C339 C 0.69846 0.23652 0.43254 0.0
C340 C 0.72012 0.28352 0.40891 0.0
H341 H 0.83796 0.18868 0.37695 0.0
H342 H 0.86954 0.21523 0.48031 0.0
H343 H 0.85738 0.27283 0.44888 0.0
H344 H 0.82769 0.28493 0.46668 0.0
H345 H 0.85217 0.26889 0.4886 0.0
H346 H 0.80286 0.20223 0.48621 0.0
H347 H 0.82647 0.22685 0.50833 0.0
H348 H 0.79041 0.23213 0.50012 0.0
H349 H 0.75618 0.18412 0.30743 0.0
H350 H 0.67953 0.22169 0.32485 0.0
H351 H 0.70037 0.24292 0.37034 0.0
H352 H 0.75979 0.16261 0.36785 0.0
H353 H 0.79331 0.16346 0.3472 0.0
H354 H 0.79232 0.16933 0.38727 0.0
H355 H 0.80435 0.23762 0.33069 0.0
H356 H 0.82977 0.22239 0.35038 0.0
H357 H 0.8109 0.20374 0.31956 0.0
H358 H 0.8745 0.16655 0.39874 0.0
C359 C 0.84437 0.19506 0.39926 0.0
C360 C 0.40765 0.66547 0.2891 0.0
C361 C 0.39748 0.63895 0.30102 0.0
C362 C 0.37268 0.6235 0.28773 0.0
C363 C 0.36891 0.65982 0.25211 0.0
C364 C 0.3933 0.67528 0.26457 0.0
C365 C 0.40177 0.70228 0.24813 0.0
H366 H 0.37469 0.78839 0.13574 0.0
C367 C 0.35881 0.67559 0.22701 0.0
C368 C 0.37825 0.70072 0.22442 0.0
H369 H 0.44572 0.80239 0.19724 0.0
H370 H 0.42765 0.75913 0.22125 0.0
H371 H 0.32716 0.76825 0.18358 0.0
H372 H 0.37602 0.72232 0.12365 0.0
H373 H 0.33932 0.70703 0.12247 0.0
H374 H 0.34959 0.74229 0.1115 0.0
H375 H 0.31758 0.76196 0.14509 0.0
H376 H 0.3036 0.73801 0.17402 0.0
C377 C 0.40036 0.72635 0.2707 0.0
C378 C 0.43215 0.70243 0.23358 0.0
C379 C 0.2667 0.6355 0.16841 0.0
C380 C 0.25142 0.64585 0.14509 0.0
C381 C 0.26252 0.6727 0.1351 0.0
C382 C 0.28794 0.68816 0.14669 0.0
C383 C 0.30307 0.67739 0.16927 0.0
C384 C 0.29218 0.65163 0.18018 0.0
C385 C 0.31076 0.64429 0.20531 0.0
C386 C 0.33452 0.66969 0.20738 0.0
C387 C 0.32998 0.68892 0.18583 0.0
C388 C 0.29165 0.64087 0.23421 0.0
C389 C 0.32339 0.61815 0.19544 0.0
C390 C 0.38677 0.78217 0.15407 0.0
C391 C 0.41202 0.79947 0.16411 0.0
C392 C 0.42616 0.79014 0.18878 0.0
C393 C 0.41571 0.76469 0.20272 0.0
C394 C 0.39052 0.74775 0.19229 0.0
C395 C 0.37653 0.75686 0.16834 0.0
C396 C 0.34963 0.73697 0.16044 0.0
C397 C 0.34996 0.71407 0.18285 0.0
C398 C 0.37402 0.72019 0.20182 0.0
C399 C 0.32302 0.75193 0.16577 0.0
C400 C 0.35353 0.72661 0.12775 0.0
H401 H 0.33985 0.62051 0.25516 0.0
H402 H 0.42673 0.67804 0.29819 0.0
H403 H 0.43362 0.68216 0.22249 0.0
H404 H 0.43715 0.71784 0.2159 0.0
H405 H 0.44926 0.70639 0.25069 0.0
H406 H 0.37995 0.72257 0.28444 0.0
H407 H 0.41888 0.72867 0.28618 0.0
H408 H 0.40031 0.74614 0.25961 0.0
H409 H 0.25931 0.61521 0.17717 0.0
H410 H 0.25136 0.68233 0.11837 0.0
H411 H 0.29481 0.70816 0.13753 0.0
H412 H 0.27726 0.65688 0.23585 0.0
H413 H 0.27761 0.62038 0.23443 0.0
H414 H 0.30439 0.64359 0.25484 0.0
H415 H 0.32981 0.61892 0.17126 0.0
H416 H 0.34336 0.61604 0.20728 0.0
H417 H 0.30718 0.59927 0.19878 0.0
H418 H 0.36383 0.60334 0.29613 0.0
C419 C 0.35851 0.63364 0.2638 0.0
C420 C 0.11112 0.27108 0.67939 0.0
C421 C 0.1215 0.25758 0.65375 0.0
C422 C 0.14719 0.27057 0.63939 0.0
C423 C 0.15113 0.30956 0.6746 0.0
C424 C 0.12616 0.29711 0.68924 0.0
C425 C 0.11809 0.31512 0.71533 0.0
H426 H 0.14714 0.4363 0.79736 0.0
C427 C 0.16157 0.33658 0.68975 0.0
C428 C 0.14225 0.34019 0.71379 0.0
H429 H 0.076 0.36965 0.81116 0.0
H430 H 0.09378 0.34395 0.76964 0.0
H431 H 0.14532 0.435 0.72379 0.0
H432 H 0.1961 0.39705 0.78532 0.0
H433 H 0.21889 0.41039 0.75542 0.0
H434 H 0.20209 0.43357 0.77958 0.0
H435 H 0.17253 0.45471 0.74672 0.0
H436 H 0.18178 0.43995 0.71111 0.0
C437 C 0.08804 0.32299 0.70935 0.0
C438 C 0.11909 0.29914 0.74455 0.0
C439 C 0.25375 0.39591 0.64909 0.0
C440 C 0.26964 0.42176 0.65754 0.0
C441 C 0.25909 0.43582 0.68251 0.0
C442 C 0.23358 0.4246 0.69845 0.0
C443 C 0.21804 0.3988 0.68966 0.0
C444 C 0.22835 0.38495 0.66533 0.0
C445 C 0.20938 0.3577 0.65914 0.0
C446 C 0.18599 0.35732 0.68368 0.0
C447 C 0.19098 0.38151 0.70158 0.0
C448 C 0.19676 0.35868 0.62745 0.0
C449 C 0.22791 0.33454 0.66307 0.0
C450 C 0.13512 0.4163 0.79141 0.0
C451 C 0.10986 0.40533 0.80805 0.0
C452 C 0.09559 0.3788 0.79936 0.0
C453 C 0.10587 0.36385 0.77495 0.0
C454 C 0.13098 0.3752 0.75858 0.0
C455 C 0.14523 0.40102 0.76713 0.0
C456 C 0.17194 0.40979 0.74772 0.0
C457 C 0.17128 0.38534 0.72589 0.0
C458 C 0.14709 0.36489 0.73216 0.0
C459 C 0.16798 0.43637 0.73152 0.0
C460 C 0.19879 0.41312 0.7679 0.0
H461 H 0.18118 0.3045 0.63728 0.0
H462 H 0.09146 0.26192 0.69105 0.0
H463 H 0.13852 0.28863 0.74438 0.0
H464 H 0.12091 0.31268 0.76471 0.0
H465 H 0.09956 0.28313 0.74711 0.0
H466 H 0.0867 0.3288 0.68555 0.0
H467 H 0.07046 0.30542 0.7138 0.0
H468 H 0.08362 0.34103 0.72282 0.0
H469 H 0.26109 0.38412 0.63041 0.0
H470 H 0.27032 0.45584 0.68956 0.0
H471 H 0.22685 0.43655 0.71704 0.0
H472 H 0.19281 0.37983 0.62247 0.0
H473 H 0.21192 0.35261 0.60984 0.0
H474 H 0.17536 0.34561 0.62509 0.0
H475 H 0.24369 0.33999 0.68135 0.0
H476 H 0.21488 0.31481 0.66986 0.0
H477 H 0.24046 0.33109 0.64222 0.0
H478 H 0.15621 0.26078 0.62012 0.0
C479 C 0.16188 0.29613 0.64955 0.0
Gd480 Gd 0.0197 0.03416 0.4986 0.0
Gd481 Gd 1.00024 1.01085 0.55943 0.0
C482 C 0.03739 0.0711 0.56052 0.0
C483 C 0.03374 0.06537 0.45315 0.0
C484 C 0.05699 0.08883 0.447 0.0
C485 C 0.07987 0.08504 0.42709 0.0
C486 C 0.05734 0.11465 0.46147 0.0
C487 C 0.10352 0.13203 0.4369 0.0
C488 C 0.08036 0.13609 0.45636 0.0
C489 C 0.10296 0.10634 0.42223 0.0
C490 C 0.05485 1.00256 0.52276 0.0
C491 C 0.98181 0.9742 0.49741 0.0
C492 C 0.98576 0.9784 0.60356 0.0
C493 C 0.95896 0.95861 0.6073 0.0
C494 C 0.93573 0.95994 0.58833 0.0
C495 C 0.95601 0.93881 0.62967 0.0
C496 C 0.906 0.92309 0.61533 0.0
C497 C 0.92967 0.92103 0.6336 0.0
C498 C 0.90943 0.94245 0.59241 0.0
C499 C 0.96458 0.04218 0.53603 0.0
O500 O 0.03308 0.07053 0.53116 0.0
O501 O 0.03055 0.04839 0.57636 0.0
O502 O 0.04228 0.04149 0.45594 0.0
O503 O 0.01345 0.06946 0.4728 0.0
O504 O 0.05019 1.00303 0.49433 0.0
O505 O 0.04239 1.02007 0.53665 0.0
O506 O 0.98601 0.97486 0.52676 0.0
O507 O 0.98945 0.99667 0.48137 0.0
O508 O 0.98206 1.00424 0.60418 0.0
O509 O 1.00311 0.97262 0.58164 0.0
O510 O 0.96843 0.04046 0.56447 0.0
O511 O 0.97744 1.02522 0.52159 0.0
H512 H 0.08006 0.06545 0.41547 0.0
H513 H 0.04003 0.11828 0.47696 0.0
H514 H 0.08027 0.15571 0.46796 0.0
H515 H 0.12025 0.1028 0.40666 0.0
H516 H 0.93777 0.97494 0.57069 0.0
H517 H 0.97382 0.93745 0.64435 0.0
H518 H 0.92747 0.90636 0.65155 0.0
H519 H 0.89165 0.94424 0.57785 0.0
Gd520 Gd 0.53084 0.02817 0.04674 0.0
Gd521 Gd 0.48361 1.02018 1.00961 0.0
C522 C 0.48138 0.06027 0.06772 0.0
C523 C 0.58165 0.03905 0.07025 0.0
C524 C 0.59625 0.05936 0.09158 0.0
C525 C 0.62552 0.05943 0.0975 0.0
C526 C 0.58087 0.07777 0.10716 0.0
C527 C 0.62366 0.09504 0.136 0.0
C528 C 0.59451 0.09554 0.12923 0.0
C529 C 0.63917 0.07717 0.11952 0.0
C530 C 0.49049 0.98513 0.06679 0.0
C531 C 0.53276 0.98721 0.98909 0.0
C532 C 0.43377 1.00925 0.98414 0.0
C533 C 0.42138 0.99113 0.95925 0.0
C534 C 0.42701 0.99895 0.92931 0.0
C535 C 0.40341 0.96601 0.96522 0.0
C536 C 0.3969 0.95697 0.91184 0.0
C537 C 0.39141 0.94898 0.94171 0.0
C538 C 0.41491 0.98203 0.90589 0.0
C539 C 0.52434 0.0628 0.98951 0.0
O540 O 0.50937 0.06055 0.0697 0.0
O541 O 0.46616 0.04374 0.04828 0.0
O542 O 0.56033 1.02161 0.08141 0.0
O543 O 0.57563 0.04841 0.04443 0.0
O544 O 0.50378 1.0049 0.08346 0.0
O545 O 0.49837 0.98958 0.03959 0.0
O546 O 0.50486 0.98749 0.98677 0.0
O547 O 0.54793 1.00378 1.00853 0.0
O548 O 0.45365 0.02996 0.97696 0.0
O549 O 0.43985 0.99726 1.00845 0.0
O550 O 0.51157 0.04259 0.97302 0.0
O551 O 0.5161 0.05873 1.0167 0.0
H552 H 0.63766 0.04537 0.08552 0.0
H553 H 0.55819 0.0779 0.10282 0.0
H554 H 0.58194 0.1089 0.14172 0.0
H555 H 0.66178 0.07664 0.12392 0.0
H556 H 0.44068 1.01819 0.92387 0.0
H557 H 0.39848 0.95959 0.98808 0.0
H558 H 0.37731 0.9299 0.94689 0.0
H559 H 0.41973 0.98854 0.88304 0.0
Gd560 Gd 0.50551 0.49911 0.51021 0.0
Gd561 Gd 0.49988 0.54867 0.55036 0.0
C562 C 0.52893 0.50068 0.58068 0.0
C563 C 0.52531 0.45882 0.48338 0.0
C564 C 0.5442 0.44007 0.49427 0.0
C565 C 0.5375 0.42578 0.52113 0.0
C566 C 0.57078 0.43877 0.47946 0.0
C567 C 0.58438 0.41035 0.51888 0.0
C568 C 0.59073 0.4241 0.49167 0.0
C569 C 0.55738 0.41092 0.53323 0.0
C570 C 0.45306 0.49694 0.53841 0.0
C571 C 0.48101 0.54902 0.47886 0.0
C572 C 0.47292 0.58262 0.57985 0.0
C573 C 0.46301 0.60757 0.56953 0.0
C574 C 0.47834 0.62314 0.54653 0.0
C575 C 0.43534 0.61264 0.5784 0.0
C576 C 0.43742 0.64709 0.53993 0.0
C577 C 0.4226 0.63221 0.56367 0.0
C578 C 0.46572 0.643 0.53203 0.0
C579 C 0.55055 0.56119 0.5179 0.0
O580 O 0.52679 0.48822 0.55372 0.0
O581 O 0.51927 0.52449 0.58542 0.0
O582 O 0.49913 0.4564 0.49522 0.0
O583 O 0.53771 0.48449 0.48086 0.0
O584 O 0.45663 0.4894 0.5106 0.0
O585 O 0.4776 0.50538 0.54977 0.0
O586 O 0.47984 0.55976 0.50647 0.0
O587 O 0.49212 0.52603 0.47397 0.0
O588 O 0.50105 0.58328 0.58168 0.0
O589 O 0.45961 0.56001 0.56706 0.0
O590 O 0.54165 0.57716 0.53852 0.0
O591 O 0.53251 0.53907 0.51672 0.0
H592 H 0.51728 0.42668 0.53328 0.0
H593 H 0.57643 0.44972 0.45882 0.0
H594 H 0.61115 0.42348 0.47979 0.0
H595 H 0.55196 0.4005 0.55422 0.0
H596 H 0.49946 0.61904 0.5388 0.0
H597 H 0.42301 0.60049 0.59569 0.0
H598 H 0.4009 0.63536 0.57046 0.0
H599 H 0.47751 0.65422 0.51377 0.0
Gd600 Gd 0.00783 0.49709 0.04604 0.0
Gd601 Gd 1.00345 0.55177 1.01625 0.0
C602 C 0.06199 0.54924 0.05286 0.0
C603 C 0.02513 0.45288 0.06377 0.0
C604 C 0.05349 0.44435 0.06921 0.0
C605 C 0.06043 0.43825 0.09844 0.0
C606 C 0.07386 0.44235 0.04577 0.0
C607 C 0.10764 0.42853 0.08088 0.0
C608 C 0.10062 0.4344 0.05155 0.0
C609 C 0.08725 0.43055 0.10425 0.0
C610 C 0.9771 0.53075 0.07856 0.0
C611 C 0.9521 0.49826 1.00454 0.0
C612 C 0.98494 0.59803 1.01009 0.0
C613 C 0.96389 0.6091 0.99197 0.0
C614 C 0.95346 0.59579 0.96533 0.0
C615 C 0.95188 0.63176 1.00319 0.0
C616 C 0.91856 0.62746 0.96174 0.0
C617 C 0.92938 0.64086 0.98825 0.0
C618 C 0.93107 0.60504 0.95019 0.0
C619 C 0.02736 0.51922 0.97476 0.0
O620 O 0.05223 0.52253 0.05632 0.0
O621 O 0.04651 0.56526 0.03887 0.0
O622 O 0.01734 0.47158 0.08228 0.0
O623 O 0.01889 0.4567 0.03589 0.0
O624 O 0.97017 0.50408 0.07672 0.0
O625 O 1.00029 0.53804 0.06336 0.0
O626 O 0.96082 0.52525 1.00238 0.0
O627 O 0.96746 0.48254 1.01913 0.0
O628 O 0.00855 0.5922 0.99646 0.0
O629 O 0.9734 0.57925 0.02901 0.0
O630 O 0.02276 0.54415 0.97001 0.0
O631 O 0.01932 0.51338 1.00151 0.0
H632 H 0.04508 0.43946 0.11687 0.0
H633 H 0.06923 0.44698 1.02296 0.0
H634 H 0.11597 0.43318 0.03313 0.0
H635 H 0.09186 0.42575 0.12701 0.0
H636 H 0.96215 0.57791 0.95667 0.0
H637 H 0.95948 0.64206 1.02392 0.0
H638 H 0.92041 0.65838 0.99746 0.0
H639 H 0.92299 0.59419 0.92995 0.0
H640 H 0.27055 0.2231 0.38621 0.0
H641 H 0.10078 0.18583 0.42474 0.0
H642 H 0.2048 0.26515 0.35036 0.0
H643 H 0.16166 0.12952 0.43561 0.0
H644 H 0.141 0.22136 0.40939 0.0
H645 H 0.23282 0.19492 0.416 0.0
C646 C 0.24835 0.22672 0.38479 0.0
C647 C 0.24097 0.24636 0.36522 0.0
C648 C 0.14557 0.20132 0.41549 0.0
C649 C 0.19782 0.21445 0.39971 0.0
C650 C 0.12268 0.18111 0.42437 0.0
C651 C 0.12791 0.15462 0.43103 0.0
C652 C 0.17389 0.19503 0.41346 0.0
C653 C 0.15668 0.14955 0.43008 0.0
C654 C 0.22686 0.21067 0.40193 0.0
C655 C 0.21184 0.25053 0.36514 0.0
N656 N 0.17859 0.16951 0.42122 0.0
N657 N 0.19136 0.23454 0.38184 0.0
H658 H 0.34372 0.82721 0.77985 0.0
H659 H 0.37 0.97392 0.86393 0.0
H660 H 0.30221 0.89601 0.75663 0.0
H661 H 0.39266 0.90101 0.90306 0.0
H662 H 0.34817 0.94574 0.82226 0.0
H663 H 0.36477 0.85393 0.82348 0.0
C664 C 0.33896 0.84784 0.78404 0.0
C665 C 0.32105 0.85937 0.76481 0.0
C666 C 0.35781 0.93583 0.83999 0.0
C667 C 0.34508 0.88994 0.81415 0.0
C668 C 0.37044 0.95194 0.86366 0.0
C669 C 0.38322 0.93976 0.88686 0.0
C670 C 0.3581 0.9073 0.83935 0.0
C671 C 0.38284 0.91113 0.88564 0.0
C672 C 0.35084 0.863 0.80891 0.0
C673 C 0.31549 0.88616 0.77117 0.0
N674 N 0.37059 0.89582 0.86213 0.0
N675 N 0.32758 0.90056 0.79518 0.0
H676 H 0.59007 0.38376 0.7042 0.0
H677 H 0.54453 0.52235 0.63713 0.0
H678 H 0.60729 0.46356 0.74808 0.0
H679 H 0.5424 0.44749 0.58443 0.0
H680 H 0.56427 0.50009 0.67888 0.0
H681 H 0.56926 0.40507 0.66205 0.0
C682 C 0.58935 0.40567 0.70527 0.0
C683 C 0.6009 0.42163 0.7302 0.0
C684 C 0.55955 0.48843 0.6582 0.0
C685 C 0.57669 0.44655 0.68123 0.0
C686 C 0.54816 0.50123 0.63413 0.0
C687 C 0.54167 0.48709 0.60662 0.0
C688 C 0.56443 0.46086 0.65546 0.0
C689 C 0.54709 0.45956 0.60479 0.0
C690 C 0.57756 0.41793 0.68092 0.0
C691 C 0.59926 0.45013 0.72954 0.0
N692 N 0.55791 0.44747 0.62863 0.0
N693 N 0.58751 0.46144 0.70585 0.0
H694 H 0.89009 0.58383 0.24053 0.0
H695 H 0.99155 0.58682 0.09124 0.0
H696 H 0.93168 0.65964 0.20085 0.0
H697 H 0.9348 0.51431 0.12117 0.0
H698 H 0.97212 0.6137 0.13218 0.0
H699 H 0.9081 0.55817 0.19842 0.0
C700 C 0.90276 0.59531 0.22304 0.0
C701 C 0.90907 0.62435 0.22487 0.0
C702 C 0.96383 0.59192 0.12974 0.0
C703 C 0.93068 0.59437 0.17604 0.0
C704 C 0.97493 0.57653 0.10627 0.0
C705 C 0.96484 0.54813 0.10249 0.0
C706 C 0.94263 0.57889 0.15002 0.0
C707 C 0.94331 0.53608 0.12297 0.0
C708 C 0.91329 0.58044 0.19889 0.0
C709 C 0.9264 0.63743 0.20125 0.0
N710 N 0.93315 0.55136 0.14573 0.0
N711 N 0.93655 0.62246 0.17813 0.0
H712 H 0.39285 0.14614 0.20272 0.0
H713 H 0.43899 0.08791 0.05 0.0
H714 H 0.41325 0.20318 0.12996 0.0
H715 H 0.49195 0.07807 0.12553 0.0
H716 H 0.41686 0.12262 0.07909 0.0
H717 H 0.41803 0.11333 0.17502 0.0
C718 C 0.40276 0.15214 0.18122 0.0
C719 C 0.40078 0.17795 0.169 0.0
C720 C 0.43327 0.11272 0.08919 0.0
C721 C 0.42831 0.13945 0.13668 0.0
C722 C 0.4457 0.09288 0.07281 0.0
C723 C 0.4672 0.08017 0.08554 0.0
C724 C 0.44175 0.11915 0.11873 0.0
C725 C 0.47543 0.0875 0.11502 0.0
C726 C 0.4169 0.13314 0.16538 0.0
C727 C 0.41338 0.18356 0.14031 0.0
N728 N 0.46236 0.10631 0.13088 0.0
N729 N 0.42624 0.16433 0.12498 0.0
H730 H 0.11701 0.85106 0.55993 0.0
H731 H 0.06792 0.99917 0.58157 0.0
H732 H 0.13967 0.90543 0.63617 0.0
H733 H 0.06782 0.95532 0.4966 0.0
H734 H 0.08646 0.96118 0.60518 0.0
H735 H 0.09029 0.88525 0.53984 0.0
C736 C 0.11614 0.87 0.57261 0.0
C737 C 0.13089 0.87543 0.59965 0.0
C738 C 0.08235 0.95989 0.58137 0.0
C739 C 0.10027 0.91446 0.5769 0.0
C740 C 0.0719 0.98155 0.56793 0.0
C741 C 0.06669 0.98037 0.53713 0.0
C742 C 0.08741 0.93691 0.56384 0.0
C743 C 0.07189 0.95707 0.5204 0.0
C744 C 0.10087 0.88947 0.56114 0.0
C745 C 0.12845 0.90011 0.61541 0.0
N746 N 0.082 0.93621 0.53399 0.0
N747 N 0.11366 0.91879 0.60368 0.0
H748 H 0.78425 0.3985 0.96784 0.0
H749 H 0.92208 0.51817 0.95914 0.0
H750 H 0.80562 0.44373 0.88641 0.0
H751 H 0.9177 0.44835 1.01657 0.0
H752 H 0.87671 0.49615 0.93574 0.0
H753 H 0.8294 0.42123 0.98911 0.0
C754 C 0.79836 0.4129 0.954 0.0
C755 C 0.79068 0.41823 0.9245 0.0
C756 C 0.88569 0.48565 0.95344 0.0
C757 C 0.84312 0.44583 0.95018 0.0
C758 C 0.91163 0.49828 0.96698 0.0
C759 C 0.9241 0.48522 0.99004 0.0
C760 C 0.87142 0.45993 0.96336 0.0
C761 C 0.90927 0.45933 0.99891 0.0
C762 C 0.82432 0.42617 0.96654 0.0
C763 C 0.81003 0.43855 0.90905 0.0
N764 N 0.88384 0.44779 0.98586 0.0
N765 N 0.83511 0.45151 0.922 0.0
H766 H 0.72292 0.63879 0.46044 0.0
H767 H 0.56952 0.53736 0.46512 0.0
H768 H 0.68837 0.59354 0.38172 0.0
H769 H 0.59507 0.60232 0.5302 0.0
H770 H 0.61492 0.55279 0.43628 0.0
H771 H 0.67843 0.6212 0.48802 0.0
C772 C 0.70606 0.62537 0.44866 0.0
C773 C 0.70989 0.61813 0.41821 0.0
C774 C 0.61058 0.56357 0.45695 0.0
C775 C 0.65831 0.59693 0.45066 0.0
C776 C 0.58473 0.55464 0.4735 0.0
C777 C 0.57838 0.56848 0.50024 0.0
C778 C 0.63048 0.58625 0.46741 0.0
C779 C 0.59888 0.59097 0.50978 0.0
C780 C 0.68054 0.61508 0.46469 0.0
C781 C 0.68702 0.59972 0.40507 0.0
N782 N 0.62382 0.59899 0.49358 0.0
N783 N 0.66241 0.58982 0.42127 0.0
H784 H 0.2608 0.39734 0.16922 0.0
H785 H 0.1353 0.39129 0.04936 0.0
H786 H 0.24328 0.33305 0.1015 0.0
H787 H 0.14422 0.44606 0.12679 0.0
H788 H 0.18012 0.37486 0.06253 0.0
H789 H 0.22379 0.42066 0.14802 0.0
C790 C 0.24938 0.38829 0.14967 0.0
C791 C 0.25486 0.363 0.13738 0.0
C792 C 0.17238 0.39063 0.07649 0.0
C793 C 0.2124 0.38958 0.113 0.0
C794 C 0.14688 0.4001 0.06892 0.0
C795 C 0.13587 0.41987 0.0872 0.0
C796 C 0.18704 0.40112 0.10242 0.0
C797 C 0.15167 0.43044 0.11238 0.0
C798 C 0.22825 0.40161 0.13757 0.0
C799 C 0.23982 0.35252 0.11167 0.0
N800 N 0.17635 0.42086 0.11931 0.0
N801 N 0.21902 0.36569 0.10054 0.0
H802 H 0.60359 0.23553 0.95354 0.0
H803 H 0.53169 0.07589 0.9301 0.0
H804 H 0.57508 0.19936 0.86828 0.0
H805 H 0.5464 0.11314 1.01787 0.0
H806 H 0.55023 0.12029 0.90758 0.0
H807 H 0.58581 0.19127 0.97733 0.0
C808 C 0.59377 0.21839 0.93962 0.0
C809 C 0.59106 0.22178 0.9085 0.0
C810 C 0.54952 0.11893 0.93177 0.0
C811 C 0.57028 0.17018 0.9362 0.0
C812 C 0.53893 0.09336 0.94479 0.0
C813 C 0.53727 0.09034 0.97617 0.0
C814 C 0.55902 0.14227 0.94997 0.0
C815 C 0.54715 0.11416 0.99366 0.0
C816 C 0.58341 0.19298 0.95342 0.0
C817 C 0.57757 0.19838 0.89225 0.0
N818 N 0.55755 0.1389 0.98041 0.0
N819 N 0.56795 0.17391 0.90613 0.0
H820 H 0.91913 0.83606 0.37296 0.0
H821 H 0.95839 0.92588 0.52456 0.0
H822 H 0.89811 0.80677 0.46235 0.0
H823 H 0.97453 0.96059 0.43676 0.0
H824 H 0.93798 0.88188 0.50128 0.0
H825 H 0.94166 0.88078 0.39471 0.0
C826 C 0.91942 0.83883 0.3971 0.0
C827 C 0.90629 0.81738 0.41569 0.0
C828 C 0.94592 0.89904 0.48697 0.0
C829 C 0.93208 0.8689 0.44089 0.0
C830 C 0.95766 0.92438 0.50033 0.0
C831 C 0.96833 0.94736 0.48277 0.0
C832 C 0.94472 0.89611 0.45554 0.0
C833 C 0.96655 0.94367 0.45137 0.0
C834 C 0.93214 0.86452 0.40953 0.0
C835 C 0.90735 0.82259 0.44689 0.0
N836 N 0.9551 0.91866 0.43883 0.0
N837 N 0.91983 0.84755 0.45833 0.0
H838 H 0.37707 0.79529 0.51787 0.0
H839 H 0.38374 0.63746 0.51577 0.0
H840 H 0.30341 0.73189 0.50331 0.0
H841 H 0.45831 0.70068 0.52641 0.0
H842 H 0.35679 0.67167 0.49639 0.0
H843 H 0.40937 0.76207 0.50493 0.0
C844 C 0.36775 0.77458 0.51087 0.0
C845 C 0.33763 0.76604 0.51238 0.0
C846 C 0.37921 0.67806 0.5024 0.0
C847 C 0.37426 0.7278 0.49849 0.0
C848 C 0.3945 0.65856 0.51364 0.0
C849 C 0.42293 0.66654 0.52345 0.0
C850 C 0.39228 0.70583 0.50158 0.0
C851 C 0.43624 0.69387 0.51949 0.0
C852 C 0.38616 0.75556 0.50364 0.0
C853 C 0.32655 0.73918 0.50276 0.0
N854 N 0.42056 0.71272 0.50948 0.0
N855 N 0.34489 0.72075 0.49704 0.0
H856 H 0.73945 0.87479 0.69446 0.0
H857 H 0.89293 0.86743 0.62412 0.0
H858 H 0.76138 0.79787 0.65894 0.0
H859 H 0.85383 0.94108 0.62041 0.0
H860 H 0.84527 0.8412 0.63745 0.0
H861 H 0.78036 0.89945 0.66658 0.0
C862 C 0.75226 0.86297 0.68022 0.0
C863 C 0.74701 0.83398 0.67966 0.0
C864 C 0.84709 0.86302 0.63326 0.0
C865 C 0.7949 0.86242 0.64854 0.0
C866 C 0.87426 0.87798 0.62593 0.0
C867 C 0.87724 0.90642 0.62133 0.0
C868 C 0.82297 0.87676 0.63662 0.0
C869 C 0.85239 0.91914 0.62367 0.0
C870 C 0.77591 0.87719 0.66449 0.0
C871 C 0.76502 0.82013 0.66099 0.0
N872 N 0.82636 0.9043 0.63158 0.0
N873 N 0.78855 0.83443 0.64672 0.0
H874 H 0.71685 0.14735 0.29656 0.0
H875 H 0.61989 0.14887 0.15162 0.0
H876 H 0.6834 0.21974 0.26947 0.0
H877 H 0.65825 0.07916 0.17838 0.0
H878 H 0.64195 0.17533 0.19476 0.0
H879 H 0.69469 0.12221 0.2533 0.0
C880 C 0.70503 0.15805 0.28131 0.0
C881 C 0.70226 0.18579 0.28644 0.0
C882 C 0.64559 0.15427 0.19108 0.0
C883 C 0.67632 0.1569 0.23694 0.0
C884 C 0.63294 0.13915 0.16656 0.0
C885 C 0.6374 0.11183 0.16133 0.0
C886 C 0.66264 0.14188 0.2105 0.0
C887 C 0.65465 0.1003 0.18123 0.0
C888 C 0.69221 0.14361 0.25668 0.0
C889 C 0.68599 0.19835 0.26638 0.0
N890 N 0.66658 0.11537 0.20492 0.0
N891 N 0.67366 0.18381 0.24241 0.0
H892 H 0.40841 0.58559 0.30674 0.0
H893 H 0.46387 0.60078 0.47727 0.0
H894 H 0.42004 0.66358 0.35467 0.0
H895 H 0.4714 0.53024 0.42006 0.0
H896 H 0.44539 0.62328 0.43471 0.0
H897 H 0.42873 0.56474 0.34897 0.0
C898 C 0.41518 0.59849 0.32612 0.0
C899 C 0.41215 0.62665 0.32666 0.0
C900 C 0.45112 0.6029 0.43139 0.0
C901 C 0.43575 0.60225 0.37625 0.0
C902 C 0.46167 0.58988 0.45586 0.0
C903 C 0.46944 0.56328 0.45274 0.0
C904 C 0.44772 0.58933 0.40317 0.0
C905 C 0.46592 0.55062 0.424 0.0
C906 C 0.42697 0.58644 0.35038 0.0
C907 C 0.42192 0.64194 0.35273 0.0
N908 N 0.4553 0.56356 0.40073 0.0
N909 N 0.43291 0.6296 0.37633 0.0
H910 H 0.08349 0.38626 0.86192 0.0
H911 H 0.05008 0.53484 0.91993 0.0
H912 H 0.10934 0.4616 0.81392 0.0
H913 H 0.03436 0.46357 0.97582 0.0
H914 H 0.07034 0.50747 0.88079 0.0
H915 H 0.0641 0.41286 0.90287 0.0
C916 C 0.08507 0.40834 0.85977 0.0
C917 C 0.09826 0.42145 0.83395 0.0
C918 C 0.06258 0.49766 0.90156 0.0
C919 C 0.07587 0.45235 0.88149 0.0
C920 C 0.05091 0.51336 0.92409 0.0
C921 C 0.0404 0.50169 0.95151 0.0
C922 C 0.06378 0.46963 0.90591 0.0
C923 C 0.0422 0.47362 0.95523 0.0
C924 C 0.07407 0.42358 0.88342 0.0
C925 C 0.09982 0.45033 0.8332 0.0
N926 N 0.05349 0.45859 0.93274 0.0
N927 N 0.08874 0.46458 0.85631 0.0
H928 H 0.64429 0.86846 0.9402 0.0
H929 H 0.5098 0.95111 0.94469 0.0
H930 H 0.57794 0.85645 0.87352 0.0
H931 H 0.58747 0.97539 0.99555 0.0
H932 H 0.53238 0.91434 0.92033 0.0
H933 H 0.62112 0.90506 0.96368 0.0
C934 C 0.62465 0.87332 0.9307 0.0
C935 C 0.613 0.85936 0.9049 0.0
C936 C 0.54449 0.92785 0.93671 0.0
C937 C 0.58653 0.9015 0.93144 0.0
C938 C 0.53165 0.94886 0.95059 0.0
C939 C 0.54675 0.96638 0.97221 0.0
C940 C 0.57249 0.92415 0.94477 0.0
C941 C 0.57499 0.96245 0.97898 0.0
C942 C 0.61158 0.89441 0.94393 0.0
C943 C 0.58775 0.86685 0.89327 0.0
N944 N 0.58684 0.94167 0.96548 0.0
N945 N 0.57531 0.88738 0.90665 0.0
H946 H 0.8661 0.1709 0.49896 0.0
H947 H 0.94819 0.08597 0.56567 0.0
H948 H 0.91983 0.1632 0.41982 0.0
H949 H 0.95391 0.05003 0.47693 0.0
H950 H 0.92955 0.1246 0.54443 0.0
H951 H 0.88914 0.13692 0.52319 0.0
C952 C 0.88342 0.16275 0.48692 0.0
C953 C 0.89132 0.17039 0.45736 0.0
C954 C 0.93442 0.10809 0.5296 0.0
C955 C 0.91767 0.13084 0.48516 0.0
C956 C 0.94516 0.08608 0.54169 0.0
C957 C 0.95227 0.06474 0.52298 0.0
C958 C 0.93048 0.10862 0.49858 0.0
C959 C 0.94849 0.06612 0.49204 0.0
C960 C 0.89653 0.14316 0.50084 0.0
C961 C 0.913 0.15792 0.44258 0.0
N962 N 0.93782 0.08782 0.4807 0.0
N963 N 0.92526 0.13851 0.45657 0.0
H964 H 0.23056 0.64917 0.08755 0.0
H965 H 0.09275 0.52933 0.09763 0.0
H966 H 0.20934 0.60415 0.16915 0.0
H967 H 0.09707 0.5984 0.03914 0.0
H968 H 0.13845 0.55137 0.12032 0.0
H969 H 0.18554 0.62607 0.06626 0.0
C970 C 0.21652 0.63473 0.10142 0.0
C971 C 0.22421 0.62956 0.13096 0.0
C972 C 0.12941 0.56167 0.1025 0.0
C973 C 0.17195 0.60154 0.10529 0.0
C974 C 0.1033 0.54901 0.08934 0.0
C975 C 0.09068 0.56187 0.06624 0.0
C976 C 0.14369 0.58725 0.09219 0.0
C977 C 0.10564 0.58755 0.05682 0.0
C978 C 0.19065 0.62125 0.08886 0.0
C979 C 0.20495 0.6092 0.14645 0.0
N980 N 0.1312 0.59915 0.06956 0.0
N981 N 0.17996 0.59605 0.13351 0.0
H982 H 0.32023 0.45249 0.67917 0.0
H983 H 0.40066 0.47182 0.51739 0.0
H984 H 0.28182 0.41922 0.59652 0.0
H985 H 0.44233 0.5013 0.59963 0.0
H986 H 0.35645 0.45441 0.54607 0.0
H987 H 0.36404 0.47211 0.65085 0.0
C988 C 0.32079 0.44938 0.65508 0.0
C989 C 0.2969 0.43398 0.64045 0.0
C990 C 0.37516 0.46474 0.55796 0.0
C991 C 0.34768 0.45651 0.60761 0.0
C992 C 0.4005 0.4748 0.54151 0.0
C993 C 0.42545 0.48808 0.55601 0.0
C994 C 0.3744 0.46788 0.58938 0.0
C995 C 0.42371 0.49124 0.58742 0.0
C996 C 0.34603 0.46053 0.63889 0.0
C997 C 0.29955 0.43049 0.6091 0.0
N998 N 0.39876 0.4812 0.60298 0.0
N999 N 0.32426 0.44162 0.59389 0.0
H1000 H 0.75626 0.68083 0.91674 0.0
H1001 H 0.91336 0.6354 0.90181 0.0
H1002 H 0.81409 0.69743 0.83991 0.0
H1003 H 0.86826 0.64071 0.98685 0.0
H1004 H 0.87361 0.65227 0.87719 0.0
H1005 H 0.79414 0.66102 0.94168 0.0
C1006 C 0.7768 0.68033 0.90508 0.0
C1007 C 0.78176 0.69064 0.87599 0.0
C1008 C 0.87239 0.64973 0.90124 0.0
C1009 C 0.82495 0.66768 0.90425 0.0
C1010 C 0.89498 0.63994 0.91525 0.0
C1011 C 0.89416 0.63682 0.94641 0.0
C1012 C 0.84865 0.6562 0.91846 0.0
C1013 C 0.86991 0.64321 0.96281 0.0
C1014 C 0.79836 0.66893 0.9193 0.0
C1015 C 0.80882 0.68915 0.86197 0.0
N1016 N 0.84807 0.65259 0.94863 0.0
N1017 N 0.82927 0.67787 0.87617 0.0
H1018 H 0.43887 0.84872 0.19012 0.0
H1019 H 0.46755 0.93574 0.03742 0.0
H1020 H 0.41118 0.81413 0.10395 0.0
H1021 H 0.48349 0.97081 0.12598 0.0
H1022 H 0.44822 0.89099 0.06017 0.0
H1023 H 0.45691 0.89263 0.16627 0.0
C1024 C 0.43667 0.85009 0.16615 0.0
C1025 C 0.4233 0.82704 0.14935 0.0
C1026 C 0.45589 0.90849 0.07465 0.0
C1027 C 0.4442 0.87845 0.12136 0.0
C1028 C 0.46694 0.93417 0.0616 0.0
C1029 C 0.47731 0.95746 0.07962 0.0
C1030 C 0.45526 0.9057 0.10611 0.0
C1031 C 0.47586 0.95373 0.11093 0.0
C1032 C 0.4469 0.87549 0.15247 0.0
C1033 C 0.42091 0.831 0.11823 0.0
N1034 N 0.4653 0.92866 0.12297 0.0
N1035 N 0.43126 0.85589 0.1054 0.0
H1036 H 0.11149 0.24307 0.59468 0.0
H1037 H 0.04586 0.08338 0.62115 0.0
H1038 H 0.09664 0.20975 0.68316 0.0
H1039 H 0.05683 0.12112 0.53454 0.0
H1040 H 0.0644 0.12837 0.64469 0.0
H1041 H 0.09128 0.19829 0.5731 0.0
C1042 C 0.10396 0.22634 0.6097 0.0
C1043 C 0.10617 0.23047 0.64096 0.0
C1044 C 0.06276 0.12679 0.62054 0.0
C1045 C 0.08259 0.17824 0.61595 0.0
C1046 C 0.05225 0.10099 0.607 0.0
C1047 C 0.04972 0.0981 0.57562 0.0
C1048 C 0.07099 0.15011 0.6027 0.0
C1049 C 0.05828 0.12199 0.55871 0.0
C1050 C 0.09229 0.20061 0.59725 0.0
C1051 C 0.09539 0.20779 0.65901 0.0
N1052 N 0.06845 0.14669 0.57237 0.0
N1053 N 0.08433 0.18272 0.64629 0.0
H1054 H 0.7416 0.34799 0.52755 0.0
H1055 H 0.57455 0.35871 0.54236 0.0
H1056 H 0.67229 0.27869 0.52764 0.0
H1057 H 0.64269 0.42695 0.52458 0.0
H1058 H 0.6112 0.3308 0.5552 0.0
H1059 H 0.70709 0.37783 0.54528 0.0
C1060 C 0.71931 0.33893 0.53236 0.0
C1061 C 0.70947 0.3111 0.52558 0.0
C1062 C 0.6181 0.35205 0.54905 0.0
C1063 C 0.66999 0.34491 0.54513 0.0
C1064 C 0.5972 0.36799 0.54178 0.0
C1065 C 0.60573 0.39489 0.5316 0.0
C1066 C 0.64765 0.36311 0.54597 0.0
C1067 C 0.63532 0.40597 0.53142 0.0
C1068 C 0.69959 0.35595 0.54224 0.0
C1069 C 0.68045 0.30025 0.5321 0.0
N1070 N 0.65528 0.38988 0.53798 0.0
N1071 N 0.66155 0.31729 0.54096 0.0
loop_
_geom_bond_atom_site_label_1
_geom_bond_atom_site_label_2
_geom_bond_distance
_geom_bond_site_symmetry_2
_ccdc_geom_bond_type
C0 C1 1.391 . S
C0 C4 1.391 . S
C0 H42 0.948 . S
C1 C0 1.391 . S
C1 C2 1.391 . S
C2 C1 1.391 . S
C2 H58 0.947 . S
C2 C59 1.392 . S
C3 C4 1.391 . S
C3 C7 1.397 . S
C3 C59 1.419 . S
C4 C0 1.391 . S
C4 C3 1.391 . S
C4 C5 1.399 . S
C5 C4 1.399 . S
C5 C8 1.396 . S
C5 C17 1.453 . S
C5 C18 1.684 . S
H6 C30 0.948 . S
C7 C3 1.397 . S
C7 C8 1.394 . S
C7 C26 1.723 . S
C8 C5 1.396 . S
C8 C7 1.394 . S
C8 C38 1.723 . S
H9 C32 0.947 . S
H10 C33 0.948 . S
H11 C39 0.982 . S
H12 C40 0.979 . S
H13 C40 0.980 . S
H14 C40 0.983 . S
H15 C39 0.979 . S
H16 C39 0.977 . S
C17 C5 1.453 . S
C17 H46 0.982 . S
C17 H47 0.979 . S
C17 H48 0.977 . S
C18 C5 1.684 . S
C18 H43 0.979 . S
C18 H44 0.980 . S
C18 H45 0.983 . S
C19 C20 1.391 . S
C19 C24 1.391 . S
C19 H49 0.948 . S
C20 C19 1.391 . S
C20 C21 1.391 . S
C21 C20 1.391 . S
C21 C22 1.392 . S
C21 H50 0.947 . S
C22 C21 1.392 . S
C22 C23 1.419 . S
C22 H51 0.948 . S
C23 C22 1.419 . S
C23 C24 1.391 . S
C23 C27 1.397 . S
C24 C19 1.391 . S
C24 C23 1.391 . S
C24 C25 1.399 . S
C25 C24 1.399 . S
C25 C26 1.396 . S
C25 C28 1.453 . S
C25 C29 1.684 . S
C26 C7 1.723 . S
C26 C25 1.396 . S
C26 C27 1.394 . S
C27 C23 1.397 . S
C27 C26 1.394 . S
C27 C37 1.723 . S
C28 C25 1.453 . S
C28 H52 0.982 . S
C28 H53 0.979 . S
C28 H54 0.977 . S
C29 C25 1.684 . S
C29 H55 0.979 . S
C29 H56 0.980 . S
C29 H57 0.983 . S
C30 H6 0.948 . S
C30 C31 1.391 . S
C30 C35 1.391 . S
C31 C30 1.391 . S
C31 C32 1.391 . S
C32 H9 0.947 . S
C32 C31 1.391 . S
C32 C33 1.392 . S
C33 H10 0.948 . S
C33 C32 1.392 . S
C33 C34 1.419 . S
C34 C33 1.419 . S
C34 C35 1.391 . S
C34 C38 1.397 . S
C35 C30 1.391 . S
C35 C34 1.391 . S
C35 C36 1.399 . S
C36 C35 1.399 . S
C36 C37 1.396 . S
C36 C39 1.453 . S
C36 C40 1.684 . S
C37 C27 1.723 . S
C37 C36 1.396 . S
C37 C38 1.394 . S
C38 C8 1.723 . S
C38 C34 1.397 . S
C38 C37 1.394 . S
C39 H11 0.982 . S
C39 H15 0.979 . S
C39 H16 0.977 . S
C39 C36 1.453 . S
C40 H12 0.979 . S
C40 H13 0.980 . S
C40 H14 0.983 . S
C40 C36 1.684 . S
H41 C59 0.948 . S
H42 C0 0.948 . S
H43 C18 0.979 . S
H44 C18 0.980 . S
H45 C18 0.983 . S
H46 C17 0.982 . S
H47 C17 0.979 . S
H48 C17 0.977 . S
H49 C19 0.948 . S
H50 C21 0.947 . S
H51 C22 0.948 . S
H52 C28 0.982 . S
H53 C28 0.979 . S
H54 C28 0.977 . S
H55 C29 0.979 . S
H56 C29 0.980 . S
H57 C29 0.983 . S
H58 C2 0.947 . S
C59 C2 1.392 . S
C59 C3 1.419 . S
C59 H41 0.948 . S
C60 C61 1.391 . S
C60 C64 1.391 . S
C60 H102 0.948 . S
C61 C60 1.391 . S
C61 C62 1.391 . S
C62 C61 1.391 . S
C62 H118 0.947 . S
C62 C119 1.392 . S
C63 C64 1.391 . S
C63 C67 1.397 . S
C63 C119 1.419 . S
C64 C60 1.391 . S
C64 C63 1.391 . S
C64 C65 1.399 . S
C65 C64 1.399 . S
C65 C68 1.396 . S
C65 C77 1.453 . S
C65 C78 1.684 . S
H66 C90 0.948 . S
C67 C63 1.397 . S
C67 C68 1.394 . S
C67 C86 1.723 . S
C68 C65 1.396 . S
C68 C67 1.394 . S
C68 C98 1.723 . S
H69 C92 0.947 . S
H70 C93 0.948 . S
H71 C99 0.982 . S
H72 C100 0.979 . S
H73 C100 0.980 . S
H74 C100 0.983 . S
H75 C99 0.979 . S
H76 C99 0.977 . S
C77 C65 1.453 . S
C77 H106 0.982 . S
C77 H107 0.979 . S
C77 H108 0.977 . S
C78 C65 1.684 . S
C78 H103 0.979 . S
C78 H104 0.980 . S
C78 H105 0.983 . S
C79 C80 1.391 . S
C79 C84 1.391 . S
C79 H109 0.948 . S
C80 C79 1.391 . S
C80 C81 1.391 . S
C81 C80 1.391 . S
C81 C82 1.392 . S
C81 H110 0.947 . S
C82 C81 1.392 . S
C82 C83 1.419 . S
C82 H111 0.948 . S
C83 C82 1.419 . S
C83 C84 1.391 . S
C83 C87 1.397 . S
C84 C79 1.391 . S
C84 C83 1.391 . S
C84 C85 1.399 . S
C85 C84 1.399 . S
C85 C86 1.396 . S
C85 C88 1.453 . S
C85 C89 1.684 . S
C86 C67 1.723 . S
C86 C85 1.396 . S
C86 C87 1.394 . S
C87 C83 1.397 . S
C87 C86 1.394 . S
C87 C97 1.723 . S
C88 C85 1.453 . S
C88 H112 0.982 . S
C88 H113 0.979 . S
C88 H114 0.977 . S
C89 C85 1.684 . S
C89 H115 0.979 . S
C89 H116 0.980 . S
C89 H117 0.983 . S
C90 H66 0.948 . S
C90 C91 1.391 . S
C90 C95 1.391 . S
C91 C90 1.391 . S
C91 C92 1.391 . S
C92 H69 0.947 . S
C92 C91 1.391 . S
C92 C93 1.392 . S
C93 H70 0.948 . S
C93 C92 1.392 . S
C93 C94 1.419 . S
C94 C93 1.419 . S
C94 C95 1.391 . S
C94 C98 1.397 . S
C95 C90 1.391 . S
C95 C94 1.391 . S
C95 C96 1.399 . S
C96 C95 1.399 . S
C96 C97 1.396 . S
C96 C99 1.453 . S
C96 C100 1.684 . S
C97 C87 1.723 . S
C97 C96 1.396 . S
C97 C98 1.394 . S
C98 C68 1.723 . S
C98 C94 1.397 . S
C98 C97 1.394 . S
C99 H71 0.982 . S
C99 H75 0.979 . S
C99 H76 0.977 . S
C99 C96 1.453 . S
C100 H72 0.979 . S
C100 H73 0.980 . S
C100 H74 0.983 . S
C100 C96 1.684 . S
H101 C119 0.948 . S
H102 C60 0.948 . S
H103 C78 0.979 . S
H104 C78 0.980 . S
H105 C78 0.983 . S
H106 C77 0.982 . S
H107 C77 0.979 . S
H108 C77 0.977 . S
H109 C79 0.948 . S
H110 C81 0.947 . S
H111 C82 0.948 . S
H112 C88 0.982 . S
H113 C88 0.979 . S
H114 C88 0.977 . S
H115 C89 0.979 . S
H116 C89 0.980 . S
H117 C89 0.983 . S
H118 C62 0.947 . S
C119 C62 1.392 . S
C119 C63 1.419 . S
C119 H101 0.948 . S
C120 C121 1.391 . S
C120 C124 1.391 . S
C120 H162 0.948 . S
C121 C120 1.391 . S
C121 C122 1.391 . S
C122 C121 1.391 . S
C122 H178 0.947 . S
C122 C179 1.392 . S
C123 C124 1.391 . S
C123 C127 1.397 . S
C123 C179 1.419 . S
C124 C120 1.391 . S
C124 C123 1.391 . S
C124 C125 1.399 . S
C125 C124 1.399 . S
C125 C128 1.396 . S
C125 C137 1.453 . S
C125 C138 1.684 . S
H126 C150 0.948 . S
C127 C123 1.397 . S
C127 C128 1.394 . S
C127 C146 1.723 . S
C128 C125 1.396 . S
C128 C127 1.394 . S
C128 C158 1.723 . S
H129 C152 0.947 . S
H130 C153 0.948 . S
H131 C159 0.982 . S
H132 C160 0.979 . S
H133 C160 0.980 . S
H134 C160 0.983 . S
H135 C159 0.979 . S
H136 C159 0.977 . S
C137 C125 1.453 . S
C137 H166 0.982 . S
C137 H167 0.979 . S
C137 H168 0.977 . S
C138 C125 1.684 . S
C138 H163 0.979 . S
C138 H164 0.980 . S
C138 H165 0.983 . S
C139 C140 1.391 . S
C139 C144 1.391 . S
C139 H169 0.948 . S
C140 C139 1.391 . S
C140 C141 1.391 . S
C141 C140 1.391 . S
C141 C142 1.392 . S
C141 H170 0.947 . S
C142 C141 1.392 . S
C142 C143 1.419 . S
C142 H171 0.948 . S
C143 C142 1.419 . S
C143 C144 1.391 . S
C143 C147 1.397 . S
C144 C139 1.391 . S
C144 C143 1.391 . S
C144 C145 1.399 . S
C145 C144 1.399 . S
C145 C146 1.396 . S
C145 C148 1.453 . S
C145 C149 1.684 . S
C146 C127 1.723 . S
C146 C145 1.396 . S
C146 C147 1.394 . S
C147 C143 1.397 . S
C147 C146 1.394 . S
C147 C157 1.723 . S
C148 C145 1.453 . S
C148 H172 0.982 . S
C148 H173 0.979 . S
C148 H174 0.977 . S
C149 C145 1.684 . S
C149 H175 0.979 . S
C149 H176 0.980 . S
C149 H177 0.983 . S
C150 H126 0.948 . S
C150 C151 1.391 . S
C150 C155 1.391 . S
C151 C150 1.391 . S
C151 C152 1.391 . S
C152 H129 0.947 . S
C152 C151 1.391 . S
C152 C153 1.392 . S
C153 H130 0.948 . S
C153 C152 1.392 . S
C153 C154 1.419 . S
C154 C153 1.419 . S
C154 C155 1.391 . S
C154 C158 1.397 . S
C155 C150 1.391 . S
C155 C154 1.391 . S
C155 C156 1.399 . S
C156 C155 1.399 . S
C156 C157 1.396 . S
C156 C159 1.453 . S
C156 C160 1.684 . S
C157 C147 1.723 . S
C157 C156 1.396 . S
C157 C158 1.394 . S
C158 C128 1.723 . S
C158 C154 1.397 . S
C158 C157 1.394 . S
C159 H131 0.982 . S
C159 H135 0.979 . S
C159 H136 0.977 . S
C159 C156 1.453 . S
C160 H132 0.979 . S
C160 H133 0.980 . S
C160 H134 0.983 . S
C160 C156 1.684 . S
H161 C179 0.948 . S
H162 C120 0.948 . S
H163 C138 0.979 . S
H164 C138 0.980 . S
H165 C138 0.983 . S
H166 C137 0.982 . S
H167 C137 0.979 . S
H168 C137 0.977 . S
H169 C139 0.948 . S
H170 C141 0.947 . S
H171 C142 0.948 . S
H172 C148 0.982 . S
H173 C148 0.979 . S
H174 C148 0.977 . S
H175 C149 0.979 . S
H176 C149 0.980 . S
H177 C149 0.983 . S
H178 C122 0.947 . S
C179 C122 1.392 . S
C179 C123 1.419 . S
C179 H161 0.948 . S
C180 C181 1.391 . S
C180 C184 1.391 . S
C180 H222 0.948 . S
C181 C180 1.391 . S
C181 C182 1.391 . S
C182 C181 1.391 . S
C182 H238 0.947 . S
C182 C239 1.392 . S
C183 C184 1.391 . S
C183 C187 1.397 . S
C183 C239 1.419 . S
C184 C180 1.391 . S
C184 C183 1.391 . S
C184 C185 1.399 . S
C185 C184 1.399 . S
C185 C188 1.396 . S
C185 C197 1.453 . S
C185 C198 1.684 . S
H186 C210 0.948 . S
C187 C183 1.397 . S
C187 C188 1.394 . S
C187 C206 1.723 . S
C188 C185 1.396 . S
C188 C187 1.394 . S
C188 C218 1.723 . S
H189 C212 0.947 . S
H190 C213 0.948 . S
H191 C219 0.982 . S
H192 C220 0.979 . S
H193 C220 0.980 . S
H194 C220 0.983 . S
H195 C219 0.979 . S
H196 C219 0.977 . S
C197 C185 1.453 . S
C197 H226 0.982 . S
C197 H227 0.979 . S
C197 H228 0.977 . S
C198 C185 1.684 . S
C198 H223 0.979 . S
C198 H224 0.980 . S
C198 H225 0.983 . S
C199 C200 1.391 . S
C199 C204 1.391 . S
C199 H229 0.948 . S
C200 C199 1.391 . S
C200 C201 1.391 . S
C201 C200 1.391 . S
C201 C202 1.392 . S
C201 H230 0.947 . S
C202 C201 1.392 . S
C202 C203 1.419 . S
C202 H231 0.948 . S
C203 C202 1.419 . S
C203 C204 1.391 . S
C203 C207 1.397 . S
C204 C199 1.391 . S
C204 C203 1.391 . S
C204 C205 1.399 . S
C205 C204 1.399 . S
C205 C206 1.396 . S
C205 C208 1.453 . S
C205 C209 1.684 . S
C206 C187 1.723 . S
C206 C205 1.396 . S
C206 C207 1.394 . S
C207 C203 1.397 . S
C207 C206 1.394 . S
C207 C217 1.723 . S
C208 C205 1.453 . S
C208 H232 0.982 . S
C208 H233 0.979 . S
C208 H234 0.977 . S
C209 C205 1.684 . S
C209 H235 0.979 . S
C209 H236 0.980 . S
C209 H237 0.983 . S
C210 H186 0.948 . S
C210 C211 1.391 . S
C210 C215 1.391 . S
C211 C210 1.391 . S
C211 C212 1.391 . S
C212 H189 0.947 . S
C212 C211 1.391 . S
C212 C213 1.392 . S
C213 H190 0.948 . S
C213 C212 1.392 . S
C213 C214 1.419 . S
C214 C213 1.419 . S
C214 C215 1.391 . S
C214 C218 1.397 . S
C215 C210 1.391 . S
C215 C214 1.391 . S
C215 C216 1.399 . S
C216 C215 1.399 . S
C216 C217 1.396 . S
C216 C219 1.453 . S
C216 C220 1.684 . S
C217 C207 1.723 . S
C217 C216 1.396 . S
C217 C218 1.394 . S
C218 C188 1.723 . S
C218 C214 1.397 . S
C218 C217 1.394 . S
C219 H191 0.982 . S
C219 H195 0.979 . S
C219 H196 0.977 . S
C219 C216 1.453 . S
C220 H192 0.979 . S
C220 H193 0.980 . S
C220 H194 0.983 . S
C220 C216 1.684 . S
H221 C239 0.948 . S
H222 C180 0.948 . S
H223 C198 0.979 . S
H224 C198 0.980 . S
H225 C198 0.983 . S
H226 C197 0.982 . S
H227 C197 0.979 . S
H228 C197 0.977 . S
H229 C199 0.948 . S
H230 C201 0.947 . S
H231 C202 0.948 . S
H232 C208 0.982 . S
H233 C208 0.979 . S
H234 C208 0.977 . S
H235 C209 0.979 . S
H236 C209 0.980 . S
H237 C209 0.983 . S
H238 C182 0.947 . S
C239 C182 1.392 . S
C239 C183 1.419 . S
C239 H221 0.948 . S
C240 C241 1.391 . S
C240 C244 1.391 . S
C240 H282 0.948 . S
C241 C240 1.391 . S
C241 C242 1.391 . S
C242 C241 1.391 . S
C242 H298 0.947 . S
C242 C299 1.392 . S
C243 C244 1.391 . S
C243 C247 1.397 . S
C243 C299 1.419 . S
C244 C240 1.391 . S
C244 C243 1.391 . S
C244 C245 1.399 . S
C245 C244 1.399 . S
C245 C248 1.396 . S
C245 C257 1.453 . S
C245 C258 1.684 . S
H246 C270 0.948 . S
C247 C243 1.397 . S
C247 C248 1.394 . S
C247 C266 1.723 . S
C248 C245 1.396 . S
C248 C247 1.394 . S
C248 C278 1.723 . S
H249 C272 0.947 . S
H250 C273 0.948 . S
H251 C279 0.982 . S
H252 C280 0.979 . S
H253 C280 0.980 . S
H254 C280 0.983 . S
H255 C279 0.979 . S
H256 C279 0.977 . S
C257 C245 1.453 . S
C257 H286 0.982 . S
C257 H287 0.979 . S
C257 H288 0.977 . S
C258 C245 1.684 . S
C258 H283 0.979 . S
C258 H284 0.980 . S
C258 H285 0.983 . S
C259 C260 1.391 . S
C259 C264 1.391 . S
C259 H289 0.948 . S
C260 C259 1.391 . S
C260 C261 1.391 . S
C261 C260 1.391 . S
C261 C262 1.392 . S
C261 H290 0.947 . S
C262 C261 1.392 . S
C262 C263 1.419 . S
C262 H291 0.948 . S
C263 C262 1.419 . S
C263 C264 1.391 . S
C263 C267 1.397 . S
C264 C259 1.391 . S
C264 C263 1.391 . S
C264 C265 1.399 . S
C265 C264 1.399 . S
C265 C266 1.396 . S
C265 C268 1.453 . S
C265 C269 1.684 . S
C266 C247 1.723 . S
C266 C265 1.396 . S
C266 C267 1.394 . S
C267 C263 1.397 . S
C267 C266 1.394 . S
C267 C277 1.723 . S
C268 C265 1.453 . S
C268 H292 0.982 . S
C268 H293 0.979 . S
C268 H294 0.977 . S
C269 C265 1.684 . S
C269 H295 0.979 . S
C269 H296 0.980 . S
C269 H297 0.983 . S
C270 H246 0.948 . S
C270 C271 1.391 . S
C270 C275 1.391 . S
C271 C270 1.391 . S
C271 C272 1.391 . S
C272 H249 0.947 . S
C272 C271 1.391 . S
C272 C273 1.392 . S
C273 H250 0.948 . S
C273 C272 1.392 . S
C273 C274 1.419 . S
C274 C273 1.419 . S
C274 C275 1.391 . S
C274 C278 1.397 . S
C275 C270 1.391 . S
C275 C274 1.391 . S
C275 C276 1.399 . S
C276 C275 1.399 . S
C276 C277 1.396 . S
C276 C279 1.453 . S
C276 C280 1.684 . S
C277 C267 1.723 . S
C277 C276 1.396 . S
C277 C278 1.394 . S
C278 C248 1.723 . S
C278 C274 1.397 . S
C278 C277 1.394 . S
C279 H251 0.982 . S
C279 H255 0.979 . S
C279 H256 0.977 . S
C279 C276 1.453 . S
C280 H252 0.979 . S
C280 H253 0.980 . S
C280 H254 0.983 . S
C280 C276 1.684 . S
H281 C299 0.948 . S
H282 C240 0.948 . S
H283 C258 0.979 . S
H284 C258 0.980 . S
H285 C258 0.983 . S
H286 C257 0.982 . S
H287 C257 0.979 . S
H288 C257 0.977 . S
H289 C259 0.948 . S
H290 C261 0.947 . S
H291 C262 0.948 . S
H292 C268 0.982 . S
H293 C268 0.979 . S
H294 C268 0.977 . S
H295 C269 0.979 . S
H296 C269 0.980 . S
H297 C269 0.983 . S
H298 C242 0.947 . S
C299 C242 1.392 . S
C299 C243 1.419 . S
C299 H281 0.948 . S
C300 C301 1.391 . S
C300 C304 1.391 . S
C300 H342 0.948 . S
C301 C300 1.391 . S
C301 C302 1.391 . S
C302 C301 1.391 . S
C302 H358 0.947 . S
C302 C359 1.392 . S
C303 C304 1.391 . S
C303 C307 1.397 . S
C303 C359 1.419 . S
C304 C300 1.391 . S
C304 C303 1.391 . S
C304 C305 1.399 . S
C305 C304 1.399 . S
C305 C308 1.396 . S
C305 C317 1.453 . S
C305 C318 1.684 . S
H306 C330 0.948 . S
C307 C303 1.397 . S
C307 C308 1.394 . S
C307 C326 1.723 . S
C308 C305 1.396 . S
C308 C307 1.394 . S
C308 C338 1.723 . S
H309 C332 0.947 . S
H310 C333 0.948 . S
H311 C339 0.982 . S
H312 C340 0.979 . S
H313 C340 0.980 . S
H314 C340 0.983 . S
H315 C339 0.979 . S
H316 C339 0.977 . S
C317 C305 1.453 . S
C317 H346 0.982 . S
C317 H347 0.979 . S
C317 H348 0.977 . S
C318 C305 1.684 . S
C318 H343 0.979 . S
C318 H344 0.980 . S
C318 H345 0.983 . S
C319 C320 1.391 . S
C319 C324 1.391 . S
C319 H349 0.948 . S
C320 C319 1.391 . S
C320 C321 1.391 . S
C321 C320 1.391 . S
C321 C322 1.392 . S
C321 H350 0.947 . S
C322 C321 1.392 . S
C322 C323 1.419 . S
C322 H351 0.948 . S
C323 C322 1.419 . S
C323 C324 1.391 . S
C323 C327 1.397 . S
C324 C319 1.391 . S
C324 C323 1.391 . S
C324 C325 1.399 . S
C325 C324 1.399 . S
C325 C326 1.396 . S
C325 C328 1.453 . S
C325 C329 1.684 . S
C326 C307 1.723 . S
C326 C325 1.396 . S
C326 C327 1.394 . S
C327 C323 1.397 . S
C327 C326 1.394 . S
C327 C337 1.723 . S
C328 C325 1.453 . S
C328 H352 0.982 . S
C328 H353 0.979 . S
C328 H354 0.977 . S
C329 C325 1.684 . S
C329 H355 0.979 . S
C329 H356 0.980 . S
C329 H357 0.983 . S
C330 H306 0.948 . S
C330 C331 1.391 . S
C330 C335 1.391 . S
C331 C330 1.391 . S
C331 C332 1.391 . S
C332 H309 0.947 . S
C332 C331 1.391 . S
C332 C333 1.392 . S
C333 H310 0.948 . S
C333 C332 1.392 . S
C333 C334 1.419 . S
C334 C333 1.419 . S
C334 C335 1.391 . S
C334 C338 1.397 . S
C335 C330 1.391 . S
C335 C334 1.391 . S
C335 C336 1.399 . S
C336 C335 1.399 . S
C336 C337 1.396 . S
C336 C339 1.453 . S
C336 C340 1.684 . S
C337 C327 1.723 . S
C337 C336 1.396 . S
C337 C338 1.394 . S
C338 C308 1.723 . S
C338 C334 1.397 . S
C338 C337 1.394 . S
C339 H311 0.982 . S
C339 H315 0.979 . S
C339 H316 0.977 . S
C339 C336 1.453 . S
C340 H312 0.979 . S
C340 H313 0.980 . S
C340 H314 0.983 . S
C340 C336 1.684 . S
H341 C359 0.948 . S
H342 C300 0.948 . S
H343 C318 0.979 . S
H344 C318 0.980 . S
H345 C318 0.983 . S
H346 C317 0.982 . S
H347 C317 0.979 . S
H348 C317 0.977 . S
H349 C319 0.948 . S
H350 C321 0.947 . S
H351 C322 0.948 . S
H352 C328 0.982 . S
H353 C328 0.979 . S
H354 C328 0.977 . S
H355 C329 0.979 . S
H356 C329 0.980 . S
H357 C329 0.983 . S
H358 C302 0.947 . S
C359 C302 1.392 . S
C359 C303 1.419 . S
C359 H341 0.948 . S
C360 C361 1.391 . S
C360 C364 1.391 . S
C360 H402 0.948 . S
C361 C360 1.391 . S
C361 C362 1.391 . S
C362 C361 1.391 . S
C362 H418 0.947 . S
C362 C419 1.392 . S
C363 C364 1.391 . S
C363 C367 1.397 . S
C363 C419 1.419 . S
C364 C360 1.391 . S
C364 C363 1.391 . S
C364 C365 1.399 . S
C365 C364 1.399 . S
C365 C368 1.396 . S
C365 C377 1.453 . S
C365 C378 1.684 . S
H366 C390 0.948 . S
C367 C363 1.397 . S
C367 C368 1.394 . S
C367 C386 1.723 . S
C368 C365 1.396 . S
C368 C367 1.394 . S
C368 C398 1.723 . S
H369 C392 0.947 . S
H370 C393 0.948 . S
H371 C399 0.982 . S
H372 C400 0.979 . S
H373 C400 0.980 . S
H374 C400 0.983 . S
H375 C399 0.979 . S
H376 C399 0.977 . S
C377 C365 1.453 . S
C377 H406 0.982 . S
C377 H407 0.979 . S
C377 H408 0.977 . S
C378 C365 1.684 . S
C378 H403 0.979 . S
C378 H404 0.980 . S
C378 H405 0.983 . S
C379 C380 1.391 . S
C379 C384 1.391 . S
C379 H409 0.948 . S
C380 C379 1.391 . S
C380 C381 1.391 . S
C381 C380 1.391 . S
C381 C382 1.392 . S
C381 H410 0.947 . S
C382 C381 1.392 . S
C382 C383 1.419 . S
C382 H411 0.948 . S
C383 C382 1.419 . S
C383 C384 1.391 . S
C383 C387 1.397 . S
C384 C379 1.391 . S
C384 C383 1.391 . S
C384 C385 1.399 . S
C385 C384 1.399 . S
C385 C386 1.396 . S
C385 C388 1.453 . S
C385 C389 1.684 . S
C386 C367 1.723 . S
C386 C385 1.396 . S
C386 C387 1.394 . S
C387 C383 1.397 . S
C387 C386 1.394 . S
C387 C397 1.723 . S
C388 C385 1.453 . S
C388 H412 0.982 . S
C388 H413 0.979 . S
C388 H414 0.977 . S
C389 C385 1.684 . S
C389 H415 0.979 . S
C389 H416 0.980 . S
C389 H417 0.983 . S
C390 H366 0.948 . S
C390 C391 1.391 . S
C390 C395 1.391 . S
C391 C390 1.391 . S
C391 C392 1.391 . S
C392 H369 0.947 . S
C392 C391 1.391 . S
C392 C393 1.392 . S
C393 H370 0.948 . S
C393 C392 1.392 . S
C393 C394 1.419 . S
C394 C393 1.419 . S
C394 C395 1.391 . S
C394 C398 1.397 . S
C395 C390 1.391 . S
C395 C394 1.391 . S
C395 C396 1.399 . S
C396 C395 1.399 . S
C396 C397 1.396 . S
C396 C399 1.453 . S
C396 C400 1.684 . S
C397 C387 1.723 . S
C397 C396 1.396 . S
C397 C398 1.394 . S
C398 C368 1.723 . S
C398 C394 1.397 . S
C398 C397 1.394 . S
C399 H371 0.982 . S
C399 H375 0.979 . S
C399 H376 0.977 . S
C399 C396 1.453 . S
C400 H372 0.979 . S
C400 H373 0.980 . S
C400 H374 0.983 . S
C400 C396 1.684 . S
H401 C419 0.948 . S
H402 C360 0.948 . S
H403 C378 0.979 . S
H404 C378 0.980 . S
H405 C378 0.983 . S
H406 C377 0.982 . S
H407 C377 0.979 . S
H408 C377 0.977 . S
H409 C379 0.948 . S
H410 C381 0.947 . S
H411 C382 0.948 . S
H412 C388 0.982 . S
H413 C388 0.979 . S
H414 C388 0.977 . S
H415 C389 0.979 . S
H416 C389 0.980 . S
H417 C389 0.983 . S
H418 C362 0.947 . S
C419 C362 1.392 . S
C419 C363 1.419 . S
C419 H401 0.948 . S
C420 C421 1.391 . S
C420 C424 1.391 . S
C420 H462 0.948 . S
C421 C420 1.391 . S
C421 C422 1.391 . S
C422 C421 1.391 . S
C422 H478 0.947 . S
C422 C479 1.392 . S
C423 C424 1.391 . S
C423 C427 1.397 . S
C423 C479 1.419 . S
C424 C420 1.391 . S
C424 C423 1.391 . S
C424 C425 1.399 . S
C425 C424 1.399 . S
C425 C428 1.396 . S
C425 C437 1.453 . S
C425 C438 1.684 . S
H426 C450 0.948 . S
C427 C423 1.397 . S
C427 C428 1.394 . S
C427 C446 1.723 . S
C428 C425 1.396 . S
C428 C427 1.394 . S
C428 C458 1.723 . S
H429 C452 0.947 . S
H430 C453 0.948 . S
H431 C459 0.982 . S
H432 C460 0.979 . S
H433 C460 0.980 . S
H434 C460 0.983 . S
H435 C459 0.979 . S
H436 C459 0.977 . S
C437 C425 1.453 . S
C437 H466 0.982 . S
C437 H467 0.979 . S
C437 H468 0.977 . S
C438 C425 1.684 . S
C438 H463 0.979 . S
C438 H464 0.980 . S
C438 H465 0.983 . S
C439 C440 1.391 . S
C439 C444 1.391 . S
C439 H469 0.948 . S
C440 C439 1.391 . S
C440 C441 1.391 . S
C441 C440 1.391 . S
C441 C442 1.392 . S
C441 H470 0.947 . S
C442 C441 1.392 . S
C442 C443 1.419 . S
C442 H471 0.948 . S
C443 C442 1.419 . S
C443 C444 1.391 . S
C443 C447 1.397 . S
C444 C439 1.391 . S
C444 C443 1.391 . S
C444 C445 1.399 . S
C445 C444 1.399 . S
C445 C446 1.396 . S
C445 C448 1.453 . S
C445 C449 1.684 . S
C446 C427 1.723 . S
C446 C445 1.396 . S
C446 C447 1.394 . S
C447 C443 1.397 . S
C447 C446 1.394 . S
C447 C457 1.723 . S
C448 C445 1.453 . S
C448 H472 0.982 . S
C448 H473 0.979 . S
C448 H474 0.977 . S
C449 C445 1.684 . S
C449 H475 0.979 . S
C449 H476 0.980 . S
C449 H477 0.983 . S
C450 H426 0.948 . S
C450 C451 1.391 . S
C450 C455 1.391 . S
C451 C450 1.391 . S
C451 C452 1.391 . S
C452 H429 0.947 . S
C452 C451 1.391 . S
C452 C453 1.392 . S
C453 H430 0.948 . S
C453 C452 1.392 . S
C453 C454 1.419 . S
C454 C453 1.419 . S
C454 C455 1.391 . S
C454 C458 1.397 . S
C455 C450 1.391 . S
C455 C454 1.391 . S
C455 C456 1.399 . S
C456 C455 1.399 . S
C456 C457 1.396 . S
C456 C459 1.453 . S
C456 C460 1.684 . S
C457 C447 1.723 . S
C457 C456 1.396 . S
C457 C458 1.394 . S
C458 C428 1.723 . S
C458 C454 1.397 . S
C458 C457 1.394 . S
C459 H431 0.982 . S
C459 H435 0.979 . S
C459 H436 0.977 . S
C459 C456 1.453 . S
C460 H432 0.979 . S
C460 H433 0.980 . S
C460 H434 0.983 . S
C460 C456 1.684 . S
H461 C479 0.948 . S
H462 C420 0.948 . S
H463 C438 0.979 . S
H464 C438 0.980 . S
H465 C438 0.983 . S
H466 C437 0.982 . S
H467 C437 0.979 . S
H468 C437 0.977 . S
H469 C439 0.948 . S
H470 C441 0.947 . S
H471 C442 0.948 . S
H472 C448 0.982 . S
H473 C448 0.979 . S
H474 C448 0.977 . S
H475 C449 0.979 . S
H476 C449 0.980 . S
H477 C449 0.983 . S
H478 C422 0.947 . S
C479 C422 1.392 . S
C479 C423 1.419 . S
C479 H461 0.948 . S
Gd480 C483 2.818 . S
Gd480 O500 2.377 . S
Gd480 O502 2.448 . S
Gd480 O503 2.506 . S
Gd480 O504 2.435 1_545 S
Gd480 O505 2.717 1_545 S
Gd480 O507 2.395 1_445 S
Gd480 O511 2.327 1_455 S
Gd481 C492 2.818 . S
Gd481 O501 2.395 1_665 S
Gd481 O505 2.327 1_655 S
Gd481 O506 2.377 . S
Gd481 O508 2.448 . S
Gd481 O509 2.506 . S
Gd481 O510 2.435 1_565 S
Gd481 O511 2.717 1_565 S
C482 O500 1.240 . S
C482 O501 1.240 . S
C483 Gd480 2.818 . S
C483 C484 1.510 . S
C483 O502 1.249 . S
C483 O503 1.252 . S
C484 C483 1.510 . S
C484 C485 1.404 . S
C484 C486 1.352 . S
C485 C484 1.404 . S
C485 C489 1.389 . S
C485 H512 0.930 . S
C486 C484 1.352 . S
C486 C488 1.374 . S
C486 H513 0.931 . S
C487 C488 1.359 . S
C487 C489 1.364 . S
C488 C486 1.374 . S
C488 C487 1.359 . S
C488 H514 0.931 . S
C489 C485 1.389 . S
C489 C487 1.364 . S
C489 H515 0.931 . S
C490 O504 1.256 . S
C490 O505 1.257 . S
C491 O506 1.240 . S
C491 O507 1.240 . S
C492 Gd481 2.818 . S
C492 C493 1.510 . S
C492 O508 1.249 . S
C492 O509 1.252 . S
C493 C492 1.510 . S
C493 C494 1.404 . S
C493 C495 1.352 . S
C494 C493 1.404 . S
C494 C498 1.389 . S
C494 H516 0.930 . S
C495 C493 1.352 . S
C495 C497 1.374 . S
C495 H517 0.931 . S
C496 C497 1.359 . S
C496 C498 1.364 . S
C497 C495 1.374 . S
C497 C496 1.359 . S
C497 H518 0.931 . S
C498 C494 1.389 . S
C498 C496 1.364 . S
C498 H519 0.931 . S
C499 O510 1.256 . S
C499 O511 1.257 . S
O500 Gd480 2.377 . S
O500 C482 1.240 . S
O501 Gd481 2.395 1_445 S
O501 C482 1.240 . S
O502 Gd480 2.448 . S
O502 C483 1.249 . S
O503 Gd480 2.506 . S
O503 C483 1.252 . S
O504 Gd480 2.435 1_565 S
O504 C490 1.256 . S
O505 Gd480 2.717 1_565 S
O505 Gd481 2.327 1_455 S
O505 C490 1.257 . S
O506 Gd481 2.377 . S
O506 C491 1.240 . S
O507 Gd480 2.395 1_665 S
O507 C491 1.240 . S
O508 Gd481 2.448 . S
O508 C492 1.249 . S
O509 Gd481 2.506 . S
O509 C492 1.252 . S
O510 Gd481 2.435 1_545 S
O510 C499 1.256 . S
O511 Gd480 2.327 1_655 S
O511 Gd481 2.717 1_545 S
O511 C499 1.257 . S
H512 C485 0.930 . S
H513 C486 0.931 . S
H514 C488 0.931 . S
H515 C489 0.931 . S
H516 C494 0.930 . S
H517 C495 0.931 . S
H518 C497 0.931 . S
H519 C498 0.931 . S
Gd520 C523 2.798 1_565 S
Gd520 O540 2.355 1_565 S
Gd520 O542 2.445 1_565 S
Gd520 O543 2.472 1_565 S
Gd520 O544 2.465 . S
Gd520 O545 2.732 . S
Gd520 O547 2.421 1_554 S
Gd520 O551 2.300 1_564 S
Gd521 C532 2.818 1_545 S
Gd521 O541 2.395 1_556 S
Gd521 O545 2.327 1_546 S
Gd521 O546 2.377 1_545 S
Gd521 O548 2.448 1_545 S
Gd521 O549 2.506 1_545 S
Gd521 O550 2.435 . S
Gd521 O551 2.717 . S
C522 O540 1.240 . S
C522 O541 1.240 . S
C523 Gd520 2.798 1_545 S
C523 C524 1.510 . S
C523 O542 1.249 . S
C523 O543 1.252 . S
C524 C523 1.510 . S
C524 C525 1.404 . S
C524 C526 1.352 . S
C525 C524 1.404 . S
C525 C529 1.389 . S
C525 H552 0.930 . S
C526 C524 1.352 . S
C526 C528 1.374 . S
C526 H553 0.931 . S
C527 C528 1.359 . S
C527 C529 1.364 . S
C528 C526 1.374 . S
C528 C527 1.359 . S
C528 H554 0.931 . S
C529 C525 1.389 . S
C529 C527 1.364 . S
C529 H555 0.931 . S
C530 O544 1.256 . S
C530 O545 1.257 . S
C531 O546 1.240 . S
C531 O547 1.240 . S
C532 Gd521 2.818 1_565 S
C532 C533 1.510 . S
C532 O548 1.249 . S
C532 O549 1.252 . S
C533 C532 1.510 . S
C533 C534 1.404 . S
C533 C535 1.352 . S
C534 C533 1.404 . S
C534 C538 1.389 . S
C534 H556 0.930 . S
C535 C533 1.352 . S
C535 C537 1.374 . S
C535 H557 0.931 . S
C536 C537 1.359 . S
C536 C538 1.364 . S
C537 C535 1.374 . S
C537 C536 1.359 . S
C537 H558 0.931 . S
C538 C534 1.389 . S
C538 C536 1.364 . S
C538 H559 0.931 . S
C539 O550 1.256 . S
C539 O551 1.257 . S
O540 Gd520 2.355 1_545 S
O540 C522 1.240 . S
O541 Gd521 2.395 1_554 S
O541 C522 1.240 . S
O542 Gd520 2.445 1_545 S
O542 C523 1.249 . S
O543 Gd520 2.472 1_545 S
O543 C523 1.252 . S
O544 Gd520 2.465 . S
O544 C530 1.256 . S
O545 Gd520 2.732 . S
O545 Gd521 2.327 1_564 S
O545 C530 1.257 . S
O546 Gd521 2.377 1_565 S
O546 C531 1.240 . S
O547 Gd520 2.421 1_556 S
O547 C531 1.240 . S
O548 Gd521 2.448 1_565 S
O548 C532 1.249 . S
O549 Gd521 2.506 1_565 S
O549 C532 1.252 . S
O550 Gd521 2.435 . S
O550 C539 1.256 . S
O551 Gd520 2.300 1_546 S
O551 Gd521 2.717 . S
O551 C539 1.257 . S
H552 C525 0.930 . S
H553 C526 0.931 . S
H554 C528 0.931 . S
H555 C529 0.931 . S
H556 C534 0.930 . S
H557 C535 0.931 . S
H558 C537 0.931 . S
H559 C538 0.931 . S
Gd560 C563 2.818 . S
Gd560 O580 2.377 . S
Gd560 O582 2.448 . S
Gd560 O583 2.506 . S
Gd560 O584 2.435 . S
Gd560 O585 2.717 . S
Gd560 O587 2.395 . S
Gd560 O591 2.327 . S
Gd561 C572 2.818 . S
Gd561 O581 2.395 . S
Gd561 O585 2.327 . S
Gd561 O586 2.377 . S
Gd561 O588 2.448 . S
Gd561 O589 2.506 . S
Gd561 O590 2.435 . S
Gd561 O591 2.717 . S
C562 O580 1.240 . S
C562 O581 1.240 . S
C563 Gd560 2.818 . S
C563 C564 1.510 . S
C563 O582 1.249 . S
C563 O583 1.252 . S
C564 C563 1.510 . S
C564 C565 1.404 . S
C564 C566 1.352 . S
C565 C564 1.404 . S
C565 C569 1.389 . S
C565 H592 0.930 . S
C566 C564 1.352 . S
C566 C568 1.374 . S
C566 H593 0.931 . S
C567 C568 1.359 . S
C567 C569 1.364 . S
C568 C566 1.374 . S
C568 C567 1.359 . S
C568 H594 0.931 . S
C569 C565 1.389 . S
C569 C567 1.364 . S
C569 H595 0.931 . S
C570 O584 1.256 . S
C570 O585 1.257 . S
C571 O586 1.240 . S
C571 O587 1.240 . S
C572 Gd561 2.818 . S
C572 C573 1.510 . S
C572 O588 1.249 . S
C572 O589 1.252 . S
C573 C572 1.510 . S
C573 C574 1.404 . S
C573 C575 1.352 . S
C574 C573 1.404 . S
C574 C578 1.389 . S
C574 H596 0.930 . S
C575 C573 1.352 . S
C575 C577 1.374 . S
C575 H597 0.931 . S
C576 C577 1.359 . S
C576 C578 1.364 . S
C577 C575 1.374 . S
C577 C576 1.359 . S
C577 H598 0.931 . S
C578 C574 1.389 . S
C578 C576 1.364 . S
C578 H599 0.931 . S
C579 O590 1.256 . S
C579 O591 1.257 . S
O580 Gd560 2.377 . S
O580 C562 1.240 . S
O581 Gd561 2.395 . S
O581 C562 1.240 . S
O582 Gd560 2.448 . S
O582 C563 1.249 . S
O583 Gd560 2.506 . S
O583 C563 1.252 . S
O584 Gd560 2.435 . S
O584 C570 1.256 . S
O585 Gd560 2.717 . S
O585 Gd561 2.327 . S
O585 C570 1.257 . S
O586 Gd561 2.377 . S
O586 C571 1.240 . S
O587 Gd560 2.395 . S
O587 C571 1.240 . S
O588 Gd561 2.448 . S
O588 C572 1.249 . S
O589 Gd561 2.506 . S
O589 C572 1.252 . S
O590 Gd561 2.435 . S
O590 C579 1.256 . S
O591 Gd560 2.327 . S
O591 Gd561 2.717 . S
O591 C579 1.257 . S
H592 C565 0.930 . S
H593 C566 0.931 . S
H594 C568 0.931 . S
H595 C569 0.931 . S
H596 C574 0.930 . S
H597 C575 0.931 . S
H598 C577 0.931 . S
H599 C578 0.931 . S
Gd600 C603 2.818 . S
Gd600 O620 2.377 . S
Gd600 O622 2.448 . S
Gd600 O623 2.506 . S
Gd600 O624 2.435 1_455 S
Gd600 O625 2.717 1_455 S
Gd600 O627 2.395 1_454 S
Gd600 O631 2.327 1_554 S
Gd601 C612 2.818 . S
Gd601 O621 2.395 1_656 S
Gd601 O625 2.327 1_556 S
Gd601 O626 2.377 . S
Gd601 O628 2.448 . S
Gd601 O629 2.506 . S
Gd601 O630 2.435 1_655 S
Gd601 O631 2.717 1_655 S
C602 O620 1.240 . S
C602 O621 1.240 . S
C603 Gd600 2.818 . S
C603 C604 1.510 . S
C603 O622 1.249 . S
C603 O623 1.252 . S
C604 C603 1.510 . S
C604 C605 1.404 . S
C604 C606 1.352 . S
C605 C604 1.404 . S
C605 C609 1.389 . S
C605 H632 0.930 . S
C606 C604 1.352 . S
C606 C608 1.374 . S
C606 H633 0.931 . S
C607 C608 1.359 . S
C607 C609 1.364 . S
C608 C606 1.374 . S
C608 C607 1.359 . S
C608 H634 0.931 . S
C609 C605 1.389 . S
C609 C607 1.364 . S
C609 H635 0.931 . S
C610 O624 1.256 . S
C610 O625 1.257 . S
C611 O626 1.240 . S
C611 O627 1.240 . S
C612 Gd601 2.818 . S
C612 C613 1.510 . S
C612 O628 1.249 . S
C612 O629 1.252 . S
C613 C612 1.510 . S
C613 C614 1.404 . S
C613 C615 1.352 . S
C614 C613 1.404 . S
C614 C618 1.389 . S
C614 H636 0.930 . S
C615 C613 1.352 . S
C615 C617 1.374 . S
C615 H637 0.931 . S
C616 C617 1.359 . S
C616 C618 1.364 . S
C617 C615 1.374 . S
C617 C616 1.359 . S
C617 H638 0.931 . S
C618 C614 1.389 . S
C618 C616 1.364 . S
C618 H639 0.931 . S
C619 O630 1.256 . S
C619 O631 1.257 . S
O620 Gd600 2.377 . S
O620 C602 1.240 . S
O621 Gd601 2.395 1_454 S
O621 C602 1.240 . S
O622 Gd600 2.448 . S
O622 C603 1.249 . S
O623 Gd600 2.506 . S
O623 C603 1.252 . S
O624 Gd600 2.435 1_655 S
O624 C610 1.256 . S
O625 Gd600 2.717 1_655 S
O625 Gd601 2.327 1_554 S
O625 C610 1.257 . S
O626 Gd601 2.377 . S
O626 C611 1.240 . S
O627 Gd600 2.395 1_656 S
O627 C611 1.240 . S
O628 Gd601 2.448 . S
O628 C612 1.249 . S
O629 Gd601 2.506 . S
O629 C612 1.252 . S
O630 Gd601 2.435 1_455 S
O630 C619 1.256 . S
O631 Gd600 2.327 1_556 S
O631 Gd601 2.717 1_455 S
O631 C619 1.257 . S
H632 C605 0.930 . S
H633 C606 0.931 . S
H634 C608 0.931 . S
H635 C609 0.931 . S
H636 C614 0.930 . S
H637 C615 0.931 . S
H638 C617 0.931 . S
H639 C618 0.931 . S
H640 C646 0.930 . S
H641 C650 0.930 . S
H642 C655 0.929 . S
H643 C653 0.929 . S
H644 C648 0.929 . S
H645 C654 0.929 . S
C646 H640 0.930 . S
C646 C647 1.367 . S
C646 C654 1.378 . S
C647 C646 1.367 . S
C647 C655 1.433 . S
C648 H644 0.929 . S
C648 C650 1.378 . S
C648 C652 1.350 . S
C649 C652 1.463 . S
C649 C654 1.350 . S
C649 N657 1.427 . S
C650 H641 0.930 . S
C650 C648 1.378 . S
C650 C651 1.367 . S
C651 C650 1.367 . S
C651 C653 1.433 . S
C652 C648 1.350 . S
C652 C649 1.463 . S
C652 N656 1.427 . S
C653 H643 0.929 . S
C653 C651 1.433 . S
C653 N656 1.384 . S
C654 H645 0.929 . S
C654 C646 1.378 . S
C654 C649 1.350 . S
C655 H642 0.929 . S
C655 C647 1.433 . S
C655 N657 1.384 . S
N656 C652 1.427 . S
N656 C653 1.384 . S
N657 C649 1.427 . S
N657 C655 1.384 . S
H658 C664 0.930 . S
H659 C668 0.930 . S
H660 C673 0.929 . S
H661 C671 0.929 . S
H662 C666 0.929 . S
H663 C672 0.929 . S
C664 H658 0.930 . S
C664 C665 1.367 . S
C664 C672 1.378 . S
C665 C664 1.367 . S
C665 C673 1.433 . S
C666 H662 0.929 . S
C666 C668 1.378 . S
C666 C670 1.350 . S
C667 C670 1.463 . S
C667 C672 1.350 . S
C667 N675 1.427 . S
C668 H659 0.930 . S
C668 C666 1.378 . S
C668 C669 1.367 . S
C669 C668 1.367 . S
C669 C671 1.433 . S
C670 C666 1.350 . S
C670 C667 1.463 . S
C670 N674 1.427 . S
C671 H661 0.929 . S
C671 C669 1.433 . S
C671 N674 1.384 . S
C672 H663 0.929 . S
C672 C664 1.378 . S
C672 C667 1.350 . S
C673 H660 0.929 . S
C673 C665 1.433 . S
C673 N675 1.384 . S
N674 C670 1.427 . S
N674 C671 1.384 . S
N675 C667 1.427 . S
N675 C673 1.384 . S
H676 C682 0.930 . S
H677 C686 0.930 . S
H678 C691 0.929 . S
H679 C689 0.929 . S
H680 C684 0.929 . S
H681 C690 0.929 . S
C682 H676 0.930 . S
C682 C683 1.367 . S
C682 C690 1.378 . S
C683 C682 1.367 . S
C683 C691 1.433 . S
C684 H680 0.929 . S
C684 C686 1.378 . S
C684 C688 1.350 . S
C685 C688 1.463 . S
C685 C690 1.350 . S
C685 N693 1.427 . S
C686 H677 0.930 . S
C686 C684 1.378 . S
C686 C687 1.367 . S
C687 C686 1.367 . S
C687 C689 1.433 . S
C688 C684 1.350 . S
C688 C685 1.463 . S
C688 N692 1.427 . S
C689 H679 0.929 . S
C689 C687 1.433 . S
C689 N692 1.384 . S
C690 H681 0.929 . S
C690 C682 1.378 . S
C690 C685 1.350 . S
C691 H678 0.929 . S
C691 C683 1.433 . S
C691 N693 1.384 . S
N692 C688 1.427 . S
N692 C689 1.384 . S
N693 C685 1.427 . S
N693 C691 1.384 . S
H694 C700 0.930 . S
H695 C704 0.930 . S
H696 C709 0.929 . S
H697 C707 0.929 . S
H698 C702 0.929 . S
H699 C708 0.929 . S
C700 H694 0.930 . S
C700 C701 1.367 . S
C700 C708 1.378 . S
C701 C700 1.367 . S
C701 C709 1.433 . S
C702 H698 0.929 . S
C702 C704 1.378 . S
C702 C706 1.350 . S
C703 C706 1.463 . S
C703 C708 1.350 . S
C703 N711 1.427 . S
C704 H695 0.930 . S
C704 C702 1.378 . S
C704 C705 1.367 . S
C705 C704 1.367 . S
C705 C707 1.433 . S
C706 C702 1.350 . S
C706 C703 1.463 . S
C706 N710 1.427 . S
C707 H697 0.929 . S
C707 C705 1.433 . S
C707 N710 1.384 . S
C708 H699 0.929 . S
C708 C700 1.378 . S
C708 C703 1.350 . S
C709 H696 0.929 . S
C709 C701 1.433 . S
C709 N711 1.384 . S
N710 C706 1.427 . S
N710 C707 1.384 . S
N711 C703 1.427 . S
N711 C709 1.384 . S
H712 C718 0.930 . S
H713 C722 0.930 . S
H714 C727 0.929 . S
H715 C725 0.929 . S
H716 C720 0.929 . S
H717 C726 0.929 . S
C718 H712 0.930 . S
C718 C719 1.367 . S
C718 C726 1.378 . S
C719 C718 1.367 . S
C719 C727 1.433 . S
C720 H716 0.929 . S
C720 C722 1.378 . S
C720 C724 1.350 . S
C721 C724 1.463 . S
C721 C726 1.350 . S
C721 N729 1.427 . S
C722 H713 0.930 . S
C722 C720 1.378 . S
C722 C723 1.367 . S
C723 C722 1.367 . S
C723 C725 1.433 . S
C724 C720 1.350 . S
C724 C721 1.463 . S
C724 N728 1.427 . S
C725 H715 0.929 . S
C725 C723 1.433 . S
C725 N728 1.384 . S
C726 H717 0.929 . S
C726 C718 1.378 . S
C726 C721 1.350 . S
C727 H714 0.929 . S
C727 C719 1.433 . S
C727 N729 1.384 . S
N728 C724 1.427 . S
N728 C725 1.384 . S
N729 C721 1.427 . S
N729 C727 1.384 . S
H730 C736 0.930 . S
H731 C740 0.930 . S
H732 C745 0.929 . S
H733 C743 0.929 . S
H734 C738 0.929 . S
H735 C744 0.929 . S
C736 H730 0.930 . S
C736 C737 1.367 . S
C736 C744 1.378 . S
C737 C736 1.367 . S
C737 C745 1.433 . S
C738 H734 0.929 . S
C738 C740 1.378 . S
C738 C742 1.350 . S
C739 C742 1.463 . S
C739 C744 1.350 . S
C739 N747 1.427 . S
C740 H731 0.930 . S
C740 C738 1.378 . S
C740 C741 1.367 . S
C741 C740 1.367 . S
C741 C743 1.433 . S
C742 C738 1.350 . S
C742 C739 1.463 . S
C742 N746 1.427 . S
C743 H733 0.929 . S
C743 C741 1.433 . S
C743 N746 1.384 . S
C744 H735 0.929 . S
C744 C736 1.378 . S
C744 C739 1.350 . S
C745 H732 0.929 . S
C745 C737 1.433 . S
C745 N747 1.384 . S
N746 C742 1.427 . S
N746 C743 1.384 . S
N747 C739 1.427 . S
N747 C745 1.384 . S
H748 C754 0.930 . S
H749 C758 0.930 . S
H750 C763 0.929 . S
H751 C761 0.929 . S
H752 C756 0.929 . S
H753 C762 0.929 . S
C754 H748 0.930 . S
C754 C755 1.367 . S
C754 C762 1.378 . S
C755 C754 1.367 . S
C755 C763 1.433 . S
C756 H752 0.929 . S
C756 C758 1.378 . S
C756 C760 1.350 . S
C757 C760 1.463 . S
C757 C762 1.350 . S
C757 N765 1.427 . S
C758 H749 0.930 . S
C758 C756 1.378 . S
C758 C759 1.367 . S
C759 C758 1.367 . S
C759 C761 1.433 . S
C760 C756 1.350 . S
C760 C757 1.463 . S
C760 N764 1.427 . S
C761 H751 0.929 . S
C761 C759 1.433 . S
C761 N764 1.384 . S
C762 H753 0.929 . S
C762 C754 1.378 . S
C762 C757 1.350 . S
C763 H750 0.929 . S
C763 C755 1.433 . S
C763 N765 1.384 . S
N764 C760 1.427 . S
N764 C761 1.384 . S
N765 C757 1.427 . S
N765 C763 1.384 . S
H766 C772 0.930 . S
H767 C776 0.930 . S
H768 C781 0.929 . S
H769 C779 0.929 . S
H770 C774 0.929 . S
H771 C780 0.929 . S
C772 H766 0.930 . S
C772 C773 1.367 . S
C772 C780 1.378 . S
C773 C772 1.367 . S
C773 C781 1.433 . S
C774 H770 0.929 . S
C774 C776 1.378 . S
C774 C778 1.350 . S
C775 C778 1.463 . S
C775 C780 1.350 . S
C775 N783 1.427 . S
C776 H767 0.930 . S
C776 C774 1.378 . S
C776 C777 1.367 . S
C777 C776 1.367 . S
C777 C779 1.433 . S
C778 C774 1.350 . S
C778 C775 1.463 . S
C778 N782 1.427 . S
C779 H769 0.929 . S
C779 C777 1.433 . S
C779 N782 1.384 . S
C780 H771 0.929 . S
C780 C772 1.378 . S
C780 C775 1.350 . S
C781 H768 0.929 . S
C781 C773 1.433 . S
C781 N783 1.384 . S
N782 C778 1.427 . S
N782 C779 1.384 . S
N783 C775 1.427 . S
N783 C781 1.384 . S
H784 C790 0.930 . S
H785 C794 0.930 . S
H786 C799 0.929 . S
H787 C797 0.929 . S
H788 C792 0.929 . S
H789 C798 0.929 . S
C790 H784 0.930 . S
C790 C791 1.367 . S
C790 C798 1.378 . S
C791 C790 1.367 . S
C791 C799 1.433 . S
C792 H788 0.929 . S
C792 C794 1.378 . S
C792 C796 1.350 . S
C793 C796 1.463 . S
C793 C798 1.350 . S
C793 N801 1.427 . S
C794 H785 0.930 . S
C794 C792 1.378 . S
C794 C795 1.367 . S
C795 C794 1.367 . S
C795 C797 1.433 . S
C796 C792 1.350 . S
C796 C793 1.463 . S
C796 N800 1.427 . S
C797 H787 0.929 . S
C797 C795 1.433 . S
C797 N800 1.384 . S
C798 H789 0.929 . S
C798 C790 1.378 . S
C798 C793 1.350 . S
C799 H786 0.929 . S
C799 C791 1.433 . S
C799 N801 1.384 . S
N800 C796 1.427 . S
N800 C797 1.384 . S
N801 C793 1.427 . S
N801 C799 1.384 . S
H802 C808 0.930 . S
H803 C812 0.930 . S
H804 C817 0.929 . S
H805 C815 0.929 . S
H806 C810 0.929 . S
H807 C816 0.929 . S
C808 H802 0.930 . S
C808 C809 1.367 . S
C808 C816 1.378 . S
C809 C808 1.367 . S
C809 C817 1.433 . S
C810 H806 0.929 . S
C810 C812 1.378 . S
C810 C814 1.350 . S
C811 C814 1.463 . S
C811 C816 1.350 . S
C811 N819 1.427 . S
C812 H803 0.930 . S
C812 C810 1.378 . S
C812 C813 1.367 . S
C813 C812 1.367 . S
C813 C815 1.433 . S
C814 C810 1.350 . S
C814 C811 1.463 . S
C814 N818 1.427 . S
C815 H805 0.929 . S
C815 C813 1.433 . S
C815 N818 1.384 . S
C816 H807 0.929 . S
C816 C808 1.378 . S
C816 C811 1.350 . S
C817 H804 0.929 . S
C817 C809 1.433 . S
C817 N819 1.384 . S
N818 C814 1.427 . S
N818 C815 1.384 . S
N819 C811 1.427 . S
N819 C817 1.384 . S
H820 C826 0.930 . S
H821 C830 0.930 . S
H822 C835 0.929 . S
H823 C833 0.929 . S
H824 C828 0.929 . S
H825 C834 0.929 . S
C826 H820 0.930 . S
C826 C827 1.367 . S
C826 C834 1.378 . S
C827 C826 1.367 . S
C827 C835 1.433 . S
C828 H824 0.929 . S
C828 C830 1.378 . S
C828 C832 1.350 . S
C829 C832 1.463 . S
C829 C834 1.350 . S
C829 N837 1.427 . S
C830 H821 0.930 . S
C830 C828 1.378 . S
C830 C831 1.367 . S
C831 C830 1.367 . S
C831 C833 1.433 . S
C832 C828 1.350 . S
C832 C829 1.463 . S
C832 N836 1.427 . S
C833 H823 0.929 . S
C833 C831 1.433 . S
C833 N836 1.384 . S
C834 H825 0.929 . S
C834 C826 1.378 . S
C834 C829 1.350 . S
C835 H822 0.929 . S
C835 C827 1.433 . S
C835 N837 1.384 . S
N836 C832 1.427 . S
N836 C833 1.384 . S
N837 C829 1.427 . S
N837 C835 1.384 . S
H838 C844 0.930 . S
H839 C848 0.930 . S
H840 C853 0.929 . S
H841 C851 0.929 . S
H842 C846 0.929 . S
H843 C852 0.929 . S
C844 H838 0.930 . S
C844 C845 1.367 . S
C844 C852 1.378 . S
C845 C844 1.367 . S
C845 C853 1.433 . S
C846 H842 0.929 . S
C846 C848 1.378 . S
C846 C850 1.350 . S
C847 C850 1.463 . S
C847 C852 1.350 . S
C847 N855 1.427 . S
C848 H839 0.930 . S
C848 C846 1.378 . S
C848 C849 1.367 . S
C849 C848 1.367 . S
C849 C851 1.433 . S
C850 C846 1.350 . S
C850 C847 1.463 . S
C850 N854 1.427 . S
C851 H841 0.929 . S
C851 C849 1.433 . S
C851 N854 1.384 . S
C852 H843 0.929 . S
C852 C844 1.378 . S
C852 C847 1.350 . S
C853 H840 0.929 . S
C853 C845 1.433 . S
C853 N855 1.384 . S
N854 C850 1.427 . S
N854 C851 1.384 . S
N855 C847 1.427 . S
N855 C853 1.384 . S
H856 C862 0.930 . S
H857 C866 0.930 . S
H858 C871 0.929 . S
H859 C869 0.929 . S
H860 C864 0.929 . S
H861 C870 0.929 . S
C862 H856 0.930 . S
C862 C863 1.367 . S
C862 C870 1.378 . S
C863 C862 1.367 . S
C863 C871 1.433 . S
C864 H860 0.929 . S
C864 C866 1.378 . S
C864 C868 1.350 . S
C865 C868 1.463 . S
C865 C870 1.350 . S
C865 N873 1.427 . S
C866 H857 0.930 . S
C866 C864 1.378 . S
C866 C867 1.367 . S
C867 C866 1.367 . S
C867 C869 1.433 . S
C868 C864 1.350 . S
C868 C865 1.463 . S
C868 N872 1.427 . S
C869 H859 0.929 . S
C869 C867 1.433 . S
C869 N872 1.384 . S
C870 H861 0.929 . S
C870 C862 1.378 . S
C870 C865 1.350 . S
C871 H858 0.929 . S
C871 C863 1.433 . S
C871 N873 1.384 . S
N872 C868 1.427 . S
N872 C869 1.384 . S
N873 C865 1.427 . S
N873 C871 1.384 . S
H874 C880 0.930 . S
H875 C884 0.930 . S
H876 C889 0.929 . S
H877 C887 0.929 . S
H878 C882 0.929 . S
H879 C888 0.929 . S
C880 H874 0.930 . S
C880 C881 1.367 . S
C880 C888 1.378 . S
C881 C880 1.367 . S
C881 C889 1.433 . S
C882 H878 0.929 . S
C882 C884 1.378 . S
C882 C886 1.350 . S
C883 C886 1.463 . S
C883 C888 1.350 . S
C883 N891 1.427 . S
C884 H875 0.930 . S
C884 C882 1.378 . S
C884 C885 1.367 . S
C885 C884 1.367 . S
C885 C887 1.433 . S
C886 C882 1.350 . S
C886 C883 1.463 . S
C886 N890 1.427 . S
C887 H877 0.929 . S
C887 C885 1.433 . S
C887 N890 1.384 . S
C888 H879 0.929 . S
C888 C880 1.378 . S
C888 C883 1.350 . S
C889 H876 0.929 . S
C889 C881 1.433 . S
C889 N891 1.384 . S
N890 C886 1.427 . S
N890 C887 1.384 . S
N891 C883 1.427 . S
N891 C889 1.384 . S
H892 C898 0.930 . S
H893 C902 0.930 . S
H894 C907 0.929 . S
H895 C905 0.929 . S
H896 C900 0.929 . S
H897 C906 0.929 . S
C898 H892 0.930 . S
C898 C899 1.367 . S
C898 C906 1.378 . S
C899 C898 1.367 . S
C899 C907 1.433 . S
C900 H896 0.929 . S
C900 C902 1.378 . S
C900 C904 1.350 . S
C901 C904 1.463 . S
C901 C906 1.350 . S
C901 N909 1.427 . S
C902 H893 0.930 . S
C902 C900 1.378 . S
C902 C903 1.367 . S
C903 C902 1.367 . S
C903 C905 1.433 . S
C904 C900 1.350 . S
C904 C901 1.463 . S
C904 N908 1.427 . S
C905 H895 0.929 . S
C905 C903 1.433 . S
C905 N908 1.384 . S
C906 H897 0.929 . S
C906 C898 1.378 . S
C906 C901 1.350 . S
C907 H894 0.929 . S
C907 C899 1.433 . S
C907 N909 1.384 . S
N908 C904 1.427 . S
N908 C905 1.384 . S
N909 C901 1.427 . S
N909 C907 1.384 . S
H910 C916 0.930 . S
H911 C920 0.930 . S
H912 C925 0.929 . S
H913 C923 0.929 . S
H914 C918 0.929 . S
H915 C924 0.929 . S
C916 H910 0.930 . S
C916 C917 1.367 . S
C916 C924 1.378 . S
C917 C916 1.367 . S
C917 C925 1.433 . S
C918 H914 0.929 . S
C918 C920 1.378 . S
C918 C922 1.350 . S
C919 C922 1.463 . S
C919 C924 1.350 . S
C919 N927 1.427 . S
C920 H911 0.930 . S
C920 C918 1.378 . S
C920 C921 1.367 . S
C921 C920 1.367 . S
C921 C923 1.433 . S
C922 C918 1.350 . S
C922 C919 1.463 . S
C922 N926 1.427 . S
C923 H913 0.929 . S
C923 C921 1.433 . S
C923 N926 1.384 . S
C924 H915 0.929 . S
C924 C916 1.378 . S
C924 C919 1.350 . S
C925 H912 0.929 . S
C925 C917 1.433 . S
C925 N927 1.384 . S
N926 C922 1.427 . S
N926 C923 1.384 . S
N927 C919 1.427 . S
N927 C925 1.384 . S
H928 C934 0.930 . S
H929 C938 0.930 . S
H930 C943 0.929 . S
H931 C941 0.929 . S
H932 C936 0.929 . S
H933 C942 0.929 . S
C934 H928 0.930 . S
C934 C935 1.367 . S
C934 C942 1.378 . S
C935 C934 1.367 . S
C935 C943 1.433 . S
C936 H932 0.929 . S
C936 C938 1.378 . S
C936 C940 1.350 . S
C937 C940 1.463 . S
C937 C942 1.350 . S
C937 N945 1.427 . S
C938 H929 0.930 . S
C938 C936 1.378 . S
C938 C939 1.367 . S
C939 C938 1.367 . S
C939 C941 1.433 . S
C940 C936 1.350 . S
C940 C937 1.463 . S
C940 N944 1.427 . S
C941 H931 0.929 . S
C941 C939 1.433 . S
C941 N944 1.384 . S
C942 H933 0.929 . S
C942 C934 1.378 . S
C942 C937 1.350 . S
C943 H930 0.929 . S
C943 C935 1.433 . S
C943 N945 1.384 . S
N944 C940 1.427 . S
N944 C941 1.384 . S
N945 C937 1.427 . S
N945 C943 1.384 . S
H946 C952 0.930 . S
H947 C956 0.930 . S
H948 C961 0.929 . S
H949 C959 0.929 . S
H950 C954 0.929 . S
H951 C960 0.929 . S
C952 H946 0.930 . S
C952 C953 1.367 . S
C952 C960 1.378 . S
C953 C952 1.367 . S
C953 C961 1.433 . S
C954 H950 0.929 . S
C954 C956 1.378 . S
C954 C958 1.350 . S
C955 C958 1.463 . S
C955 C960 1.350 . S
C955 N963 1.427 . S
C956 H947 0.930 . S
C956 C954 1.378 . S
C956 C957 1.367 . S
C957 C956 1.367 . S
C957 C959 1.433 . S
C958 C954 1.350 . S
C958 C955 1.463 . S
C958 N962 1.427 . S
C959 H949 0.929 . S
C959 C957 1.433 . S
C959 N962 1.384 . S
C960 H951 0.929 . S
C960 C952 1.378 . S
C960 C955 1.350 . S
C961 H948 0.929 . S
C961 C953 1.433 . S
C961 N963 1.384 . S
N962 C958 1.427 . S
N962 C959 1.384 . S
N963 C955 1.427 . S
N963 C961 1.384 . S
H964 C970 0.930 . S
H965 C974 0.930 . S
H966 C979 0.929 . S
H967 C977 0.929 . S
H968 C972 0.929 . S
H969 C978 0.929 . S
C970 H964 0.930 . S
C970 C971 1.367 . S
C970 C978 1.378 . S
C971 C970 1.367 . S
C971 C979 1.433 . S
C972 H968 0.929 . S
C972 C974 1.378 . S
C972 C976 1.350 . S
C973 C976 1.463 . S
C973 C978 1.350 . S
C973 N981 1.427 . S
C974 H965 0.930 . S
C974 C972 1.378 . S
C974 C975 1.367 . S
C975 C974 1.367 . S
C975 C977 1.433 . S
C976 C972 1.350 . S
C976 C973 1.463 . S
C976 N980 1.427 . S
C977 H967 0.929 . S
C977 C975 1.433 . S
C977 N980 1.384 . S
C978 H969 0.929 . S
C978 C970 1.378 . S
C978 C973 1.350 . S
C979 H966 0.929 . S
C979 C971 1.433 . S
C979 N981 1.384 . S
N980 C976 1.427 . S
N980 C977 1.384 . S
N981 C973 1.427 . S
N981 C979 1.384 . S
H982 C988 0.930 . S
H983 C992 0.930 . S
H984 C997 0.929 . S
H985 C995 0.929 . S
H986 C990 0.929 . S
H987 C996 0.929 . S
C988 H982 0.930 . S
C988 C989 1.367 . S
C988 C996 1.378 . S
C989 C988 1.367 . S
C989 C997 1.433 . S
C990 H986 0.929 . S
C990 C992 1.378 . S
C990 C994 1.350 . S
C991 C994 1.463 . S
C991 C996 1.350 . S
C991 N999 1.427 . S
C992 H983 0.930 . S
C992 C990 1.378 . S
C992 C993 1.367 . S
C993 C992 1.367 . S
C993 C995 1.433 . S
C994 C990 1.350 . S
C994 C991 1.463 . S
C994 N998 1.427 . S
C995 H985 0.929 . S
C995 C993 1.433 . S
C995 N998 1.384 . S
C996 H987 0.929 . S
C996 C988 1.378 . S
C996 C991 1.350 . S
C997 H984 0.929 . S
C997 C989 1.433 . S
C997 N999 1.384 . S
N998 C994 1.427 . S
N998 C995 1.384 . S
N999 C991 1.427 . S
N999 C997 1.384 . S
H1000 C1006 0.930 . S
H1001 C1010 0.930 . S
H1002 C1015 0.929 . S
H1003 C1013 0.929 . S
H1004 C1008 0.929 . S
H1005 C1014 0.929 . S
C1006 H1000 0.930 . S
C1006 C1007 1.367 . S
C1006 C1014 1.378 . S
C1007 C1006 1.367 . S
C1007 C1015 1.433 . S
C1008 H1004 0.929 . S
C1008 C1010 1.378 . S
C1008 C1012 1.350 . S
C1009 C1012 1.463 . S
C1009 C1014 1.350 . S
C1009 N1017 1.427 . S
C1010 H1001 0.930 . S
C1010 C1008 1.378 . S
C1010 C1011 1.367 . S
C1011 C1010 1.367 . S
C1011 C1013 1.433 . S
C1012 C1008 1.350 . S
C1012 C1009 1.463 . S
C1012 N1016 1.427 . S
C1013 H1003 0.929 . S
C1013 C1011 1.433 . S
C1013 N1016 1.384 . S
C1014 H1005 0.929 . S
C1014 C1006 1.378 . S
C1014 C1009 1.350 . S
C1015 H1002 0.929 . S
C1015 C1007 1.433 . S
C1015 N1017 1.384 . S
N1016 C1012 1.427 . S
N1016 C1013 1.384 . S
N1017 C1009 1.427 . S
N1017 C1015 1.384 . S
H1018 C1024 0.930 . S
H1019 C1028 0.930 . S
H1020 C1033 0.929 . S
H1021 C1031 0.929 . S
H1022 C1026 0.929 . S
H1023 C1032 0.929 . S
C1024 H1018 0.930 . S
C1024 C1025 1.367 . S
C1024 C1032 1.378 . S
C1025 C1024 1.367 . S
C1025 C1033 1.433 . S
C1026 H1022 0.929 . S
C1026 C1028 1.378 . S
C1026 C1030 1.350 . S
C1027 C1030 1.463 . S
C1027 C1032 1.350 . S
C1027 N1035 1.427 . S
C1028 H1019 0.930 . S
C1028 C1026 1.378 . S
C1028 C1029 1.367 . S
C1029 C1028 1.367 . S
C1029 C1031 1.433 . S
C1030 C1026 1.350 . S
C1030 C1027 1.463 . S
C1030 N1034 1.427 . S
C1031 H1021 0.929 . S
C1031 C1029 1.433 . S
C1031 N1034 1.384 . S
C1032 H1023 0.929 . S
C1032 C1024 1.378 . S
C1032 C1027 1.350 . S
C1033 H1020 0.929 . S
C1033 C1025 1.433 . S
C1033 N1035 1.384 . S
N1034 C1030 1.427 . S
N1034 C1031 1.384 . S
N1035 C1027 1.427 . S
N1035 C1033 1.384 . S
H1036 C1042 0.930 . S
H1037 C1046 0.930 . S
H1038 C1051 0.929 . S
H1039 C1049 0.929 . S
H1040 C1044 0.929 . S
H1041 C1050 0.929 . S
C1042 H1036 0.930 . S
C1042 C1043 1.367 . S
C1042 C1050 1.378 . S
C1043 C1042 1.367 . S
C1043 C1051 1.433 . S
C1044 H1040 0.929 . S
C1044 C1046 1.378 . S
C1044 C1048 1.350 . S
C1045 C1048 1.463 . S
C1045 C1050 1.350 . S
C1045 N1053 1.427 . S
C1046 H1037 0.930 . S
C1046 C1044 1.378 . S
C1046 C1047 1.367 . S
C1047 C1046 1.367 . S
C1047 C1049 1.433 . S
C1048 C1044 1.350 . S
C1048 C1045 1.463 . S
C1048 N1052 1.427 . S
C1049 H1039 0.929 . S
C1049 C1047 1.433 . S
C1049 N1052 1.384 . S
C1050 H1041 0.929 . S
C1050 C1042 1.378 . S
C1050 C1045 1.350 . S
C1051 H1038 0.929 . S
C1051 C1043 1.433 . S
C1051 N1053 1.384 . S
N1052 C1048 1.427 . S
N1052 C1049 1.384 . S
N1053 C1045 1.427 . S
N1053 C1051 1.384 . S
H1054 C1060 0.930 . S
H1055 C1064 0.930 . S
H1056 C1069 0.929 . S
H1057 C1067 0.929 . S
H1058 C1062 0.929 . S
H1059 C1068 0.929 . S
C1060 H1054 0.930 . S
C1060 C1061 1.367 . S
C1060 C1068 1.378 . S
C1061 C1060 1.367 . S
C1061 C1069 1.433 . S
C1062 H1058 0.929 . S
C1062 C1064 1.378 . S
C1062 C1066 1.350 . S
C1063 C1066 1.463 . S
C1063 C1068 1.350 . S
C1063 N1071 1.427 . S
C1064 H1055 0.930 . S
C1064 C1062 1.378 . S
C1064 C1065 1.367 . S
C1065 C1064 1.367 . S
C1065 C1067 1.433 . S
C1066 C1062 1.350 . S
C1066 C1063 1.463 . S
C1066 N1070 1.427 . S
C1067 H1057 0.929 . S
C1067 C1065 1.433 . S
C1067 N1070 1.384 . S
C1068 H1059 0.929 . S
C1068 C1060 1.378 . S
C1068 C1063 1.350 . S
C1069 H1056 0.929 . S
C1069 C1061 1.433 . S
C1069 N1071 1.384 . S
N1070 C1066 1.427 . S
N1070 C1067 1.384 . S
N1071 C1063 1.427 . S
N1071 C1069 1.384 . S
C647 C1 1.187 . S
C651 C487 1.306 . S
C665 C80 0.948 . S
C669 C536 0.983 . S
C687 C562 2.452 . S
C683 C140 2.436 . S
C701 C211 2.354 . S
C705 C610 2.330 . S
C723 C522 2.502 . S
C719 C31 2.239 . S
C741 C490 0.886 . S
C737 C61 0.889 . S
C759 C611 1.892 . S
C755 C151 1.897 . S
C777 C579 1.583 . S
C773 C200 1.586 . S
C791 C20 1.677 . S
C795 C607 1.770 . S
C813 C539 2.314 . S
C809 C121 2.380 . S
C827 C181 2.289 . S
C831 C491 2.332 . S
C845 C91 0.905 . S
C849 C576 0.897 . S
C867 C496 1.303 . S
C863 C260 1.206 . S
C881 C320 0.972 . S
C885 C527 0.992 . S
C899 C361 2.428 . S
C903 C571 2.450 . S
C917 C451 2.349 . S
C921 C619 2.323 . S
C935 C271 2.312 . S
C939 C531 2.504 . S
C957 C499 0.884 . S
C953 C301 0.870 . S
C975 C602 1.892 . S
C971 C380 1.876 . S
C993 C570 1.579 . S
C989 C440 1.579 . S
C1007 C241 1.603 . S
C1011 C616 1.774 . S
C1029 C530 2.323 . S
C1025 C391 2.373 . S
C1047 C482 2.328 . S
C1043 C421 2.287 . S
C1061 C331 0.912 . S
C1065 C567 0.906 . S
