# Generated by pormake.
# Topology zzz, (3,6)-cn, num edge types: 1
# Building blocks:
#     Node 0, Type 0, BuildingBlock: VETTIZ_charged_linker_0, # of connection points: 3
#     Node 1, Type 0, BuildingBlock: VETTIZ_charged_linker_0, # of connection points: 3
#     Node 2, Type 0, BuildingBlock: VETTIZ_charged_linker_0, # of connection points: 3
#     Node 3, Type 0, BuildingBlock: VETTIZ_charged_linker_0, # of connection points: 3
#     Node 4, Type 0, BuildingBlock: VETTIZ_charged_linker_0, # of connection points: 3
#     Node 5, Type 0, BuildingBlock: VETTIZ_charged_linker_0, # of connection points: 3
#     Node 6, Type 0, BuildingBlock: VETTIZ_charged_linker_0, # of connection points: 3
#     Node 7, Type 0, BuildingBlock: VETTIZ_charged_linker_0, # of connection points: 3
#     Node 8, Type 1, BuildingBlock: MIFKUJ_clean_sbu_0, # of connection points: 6
#     Node 9, Type 1, BuildingBlock: MIFKUJ_clean_sbu_0, # of connection points: 6
#     Node 10, Type 1, BuildingBlock: MIFKUJ_clean_sbu_0, # of connection points: 6
#     Node 11, Type 1, BuildingBlock: MIFKUJ_clean_sbu_0, # of connection points: 6
#     Edge 12, Type (0, 1), BuildingBlock: XIVTED_clean_linker_0, # of connection points: 2
#     Edge 13, Type (0, 1), BuildingBlock: XIVTED_clean_linker_0, # of connection points: 2
#     Edge 14, Type (0, 1), BuildingBlock: XIVTED_clean_linker_0, # of connection points: 2
#     Edge 15, Type (0, 1), BuildingBlock: XIVTED_clean_linker_0, # of connection points: 2
#     Edge 16, Type (0, 1), BuildingBlock: XIVTED_clean_linker_0, # of connection points: 2
#     Edge 17, Type (0, 1), BuildingBlock: XIVTED_clean_linker_0, # of connection points: 2
#     Edge 18, Type (0, 1), BuildingBlock: XIVTED_clean_linker_0, # of connection points: 2
#     Edge 19, Type (0, 1), BuildingBlock: XIVTED_clean_linker_0, # of connection points: 2
#     Edge 20, Type (0, 1), BuildingBlock: XIVTED_clean_linker_0, # of connection points: 2
#     Edge 21, Type (0, 1), BuildingBlock: XIVTED_clean_linker_0, # of connection points: 2
#     Edge 22, Type (0, 1), BuildingBlock: XIVTED_clean_linker_0, # of connection points: 2
#     Edge 23, Type (0, 1), BuildingBlock: XIVTED_clean_linker_0, # of connection points: 2
#     Edge 24, Type (0, 1), BuildingBlock: XIVTED_clean_linker_0, # of connection points: 2
#     Edge 25, Type (0, 1), BuildingBlock: XIVTED_clean_linker_0, # of connection points: 2
#     Edge 26, Type (0, 1), BuildingBlock: XIVTED_clean_linker_0, # of connection points: 2
#     Edge 27, Type (0, 1), BuildingBlock: XIVTED_clean_linker_0, # of connection points: 2
#     Edge 28, Type (0, 1), BuildingBlock: XIVTED_clean_linker_0, # of connection points: 2
#     Edge 29, Type (0, 1), BuildingBlock: XIVTED_clean_linker_0, # of connection points: 2
#     Edge 30, Type (0, 1), BuildingBlock: XIVTED_clean_linker_0, # of connection points: 2
#     Edge 31, Type (0, 1), BuildingBlock: XIVTED_clean_linker_0, # of connection points: 2
#     Edge 32, Type (0, 1), BuildingBlock: XIVTED_clean_linker_0, # of connection points: 2
#     Edge 33, Type (0, 1), BuildingBlock: XIVTED_clean_linker_0, # of connection points: 2
#     Edge 34, Type (0, 1), BuildingBlock: XIVTED_clean_linker_0, # of connection points: 2
#     Edge 35, Type (0, 1), BuildingBlock: XIVTED_clean_linker_0, # of connection points: 2
# Relax obj value: 0.318
# Max RMSD: 0.217
# Mean RMSD: 0.195
data_MOF--net-zzz--node1-MIFKUJ_clean_sbu_0--node2-VETTIZ_charged_linker_0--edge1-XIVTED_clean_linker_0
_symmetry_space_group_name_H-M    P1
_symmetry_Int_Tables_number       1
_symmetry_cell_setting            triclinic
loop_
_symmetry_equiv_pos_as_xyz
'x, y, z'
_cell_length_a     56.452481
_cell_length_b     57.824931
_cell_length_c     21.315734
_cell_angle_alpha  89.614414
_cell_angle_beta   89.730236
_cell_angle_gamma 91.576811
loop_
_atom_site_label
_atom_site_type_symbol
_atom_site_fract_x
_atom_site_fract_y
_atom_site_fract_z
_atom_type_partial_charge
C0 C 0.77894 0.56876 0.20723 0.0
C1 C 0.7989 0.58201 0.2285 0.0
C2 C 0.80127 0.60545 0.20946 0.0
C3 C 0.77153 0.59881 0.13186 0.0
C4 C 0.7648 0.57817 0.1594 0.0
C5 C 0.7421 0.5689 0.12925 0.0
H6 H 0.67399 0.57264 0.86357 0.0
C7 C 0.7591 0.6014 0.07318 0.0
C8 C 0.74031 0.58505 0.072 0.0
H9 H 0.6552 0.53633 0.03514 0.0
H10 H 0.69248 0.5498 0.08228 0.0
H11 H 0.69376 0.62028 0.92131 0.0
H12 H 0.72114 0.55803 0.85364 0.0
H13 H 0.74761 0.57457 0.86051 0.0
H14 H 0.72467 0.58361 0.80756 0.0
H15 H 0.69515 0.61031 0.84169 0.0
H16 H 0.71914 0.62724 0.87506 0.0
C17 C 0.72167 0.57234 0.17637 0.0
C18 C 0.74489 0.54345 0.11035 0.0
C19 C 0.81279 0.62073 0.89092 0.0
C20 C 0.80936 0.61729 0.82646 0.0
C21 C 0.78615 0.61648 0.80266 0.0
C22 C 0.76667 0.61631 0.84359 0.0
C23 C 0.77059 0.6159 0.90858 0.0
C24 C 0.79321 0.61957 0.93143 0.0
C25 C 0.79416 0.61782 0.00181 0.0
C26 C 0.76829 0.61106 0.01669 0.0
C27 C 0.75508 0.60885 0.96157 0.0
C28 C 0.8021 0.64162 0.02842 0.0
C29 C 0.81136 0.59847 0.02022 0.0
C30 C 0.67743 0.56801 0.91195 0.0
C31 C 0.66124 0.55408 0.94623 0.0
C32 C 0.66721 0.54741 0.00798 0.0
C33 C 0.68859 0.55549 0.03558 0.0
C34 C 0.70403 0.57032 0.00099 0.0
C35 C 0.69835 0.57595 0.93987 0.0
C36 C 0.717 0.59072 0.90787 0.0
C37 C 0.73374 0.59531 0.9619 0.0
C38 C 0.72646 0.58303 0.01638 0.0
C39 C 0.70575 0.61335 0.8848 0.0
C40 C 0.72822 0.57618 0.85465 0.0
H41 H 0.78928 0.6318 0.14672 0.0
H42 H 0.77537 0.55135 0.22434 0.0
H43 H 0.76084 0.54166 0.08012 0.0
H44 H 0.72944 0.53677 0.0838 0.0
H45 H 0.74691 0.53228 0.15249 0.0
H46 H 0.72349 0.58948 0.19951 0.0
H47 H 0.72168 0.55881 0.21365 0.0
H48 H 0.70416 0.5722 0.15382 0.0
H49 H 0.83052 0.6217 0.91003 0.0
H50 H 0.78313 0.61448 0.75281 0.0
H51 H 0.74935 0.61517 0.82339 0.0
H52 H 0.81293 0.65191 0.99397 0.0
H53 H 0.81371 0.63974 0.06983 0.0
H54 H 0.78661 0.65209 0.0413 0.0
H55 H 0.80559 0.58169 -0.00072 0.0
H56 H 0.81256 0.59599 0.07146 0.0
H57 H 0.82969 0.60271 0.00404 0.0
H58 H 0.8148 0.61679 0.22938 0.0
C59 C 0.78736 0.61399 0.1612 0.0
C60 C 0.10181 0.80763 0.87195 0.0
C61 C 0.10584 0.8312 0.88628 0.0
C62 C 0.10125 0.83857 0.94808 0.0
C63 C 0.08325 0.80126 0.97358 0.0
C64 C 0.09011 0.79311 0.91583 0.0
C65 C 0.08055 0.76893 0.90441 0.0
H66 H 0.00187 0.68255 0.97632 0.0
C67 C 0.06701 0.78382 0.0028 0.0
C68 C 0.0655 0.76469 0.96317 0.0
H69 H 0.05362 0.68667 0.82629 0.0
H70 H 0.06954 0.72235 0.86726 0.0
H71 H 0.03954 0.70301 0.09024 0.0
H72 H 0.98904 0.73874 0.97427 0.0
H73 H 0.98577 0.74565 0.05443 0.0
H74 H 0.97975 0.71652 0.02918 0.0
H75 H 0.00824 0.69668 0.0958 0.0
H76 H 0.02151 0.72116 0.13539 0.0
C77 C 0.10179 0.7525 0.9012 0.0
C78 C 0.06523 0.76943 0.84415 0.0
C79 C 0.01975 0.80892 0.18989 0.0
C80 C 0.0006 0.79944 0.22397 0.0
C81 C 0.99245 0.77673 0.21043 0.0
C82 C 0.00283 0.76413 0.16116 0.0
C83 C 0.02156 0.7744 0.12568 0.0
C84 C 0.02983 0.79631 0.14166 0.0
C85 C 0.04945 0.80518 0.10009 0.0
C86 C 0.05174 0.78517 0.05547 0.0
C87 C 0.03544 0.76699 0.0699 0.0
C88 C 0.072 0.80845 0.14079 0.0
C89 C 0.04105 0.82757 0.06685 0.0
C90 C 0.01668 0.69126 0.95286 0.0
C91 C 0.02641 0.68205 0.89754 0.0
C92 C 0.04574 0.69364 0.86836 0.0
C93 C 0.05496 0.71437 0.89222 0.0
C94 C 0.04451 0.72406 0.94536 0.0
C95 C 0.02604 0.71244 0.97596 0.0
C96 C 0.01779 0.72574 0.0327 0.0
C97 C 0.03433 0.74709 0.03043 0.0
C98 C 0.04963 0.74595 0.97821 0.0
C99 C 0.0218 0.71091 0.09196 0.0
C100 C 0.99164 0.73198 0.02266 0.0
H101 H 0.08609 0.83083 0.03661 0.0
H102 H 0.10584 0.80106 0.82581 0.0
H103 H 0.05414 0.78505 0.8434 0.0
H104 H 0.05259 0.75467 0.84037 0.0
H105 H 0.07655 0.76994 0.80138 0.0
H106 H 0.11767 0.7599 0.92541 0.0
H107 H 0.10702 0.7491 0.85189 0.0
H108 H 0.098 0.7358 0.92555 0.0
H109 H 0.02657 0.82621 0.19988 0.0
H110 H 0.97778 0.76902 0.23681 0.0
H111 H 0.99576 0.74707 0.15201 0.0
H112 H 0.07287 0.79468 0.17739 0.0
H113 H 0.07217 0.82537 0.16512 0.0
H114 H 0.08858 0.80696 0.11345 0.0
H115 H 0.02139 0.82863 0.06671 0.0
H116 H 0.04595 0.8284 0.0166 0.0
H117 H 0.04813 0.84336 0.09041 0.0
H118 H 0.10408 0.85643 0.96157 0.0
C119 C 0.09026 0.82367 0.9918 0.0
C120 C 0.81937 0.94387 0.99271 0.0
C121 C 0.82986 0.93846 0.93451 0.0
C122 C 0.81552 0.9292 0.8865 0.0
C123 C 0.78084 0.93164 0.95249 0.0
C124 C 0.79478 0.93986 0.00104 0.0
C125 C 0.78019 0.94339 0.05988 0.0
H126 H 0.67104 0.93427 0.20025 0.0
C127 C 0.75615 0.92958 0.9744 0.0
C128 C 0.7555 0.93562 0.03818 0.0
H129 H 0.73523 0.96211 0.28299 0.0
H130 H 0.75707 0.95398 0.18695 0.0
H131 H 0.67432 0.96069 0.09008 0.0
H132 H 0.69398 0.89092 0.12 0.0
H133 H 0.67902 0.89205 0.04758 0.0
H134 H 0.66429 0.90129 0.11802 0.0
H135 H 0.65422 0.93732 0.07177 0.0
H136 H 0.67427 0.94975 0.01375 0.0
C137 C 0.78138 0.96939 0.0762 0.0
C138 C 0.78961 0.92757 0.11222 0.0
C139 C 0.68989 0.92219 0.81603 0.0
C140 C 0.66512 0.92225 0.82338 0.0
C141 C 0.65524 0.91762 0.88319 0.0
C142 C 0.66975 0.91554 0.93574 0.0
C143 C 0.69438 0.91838 0.92866 0.0
C144 C 0.70418 0.92023 0.86933 0.0
C145 C 0.73082 0.92202 0.87126 0.0
C146 C 0.73497 0.92388 0.94171 0.0
C147 C 0.71354 0.9219 0.97471 0.0
C148 C 0.73906 0.9443 0.83568 0.0
C149 C 0.7407 0.89941 0.84362 0.0
C150 C 0.68995 0.93804 0.19849 0.0
C151 C 0.70155 0.9483 0.24957 0.0
C152 C 0.72597 0.95396 0.24425 0.0
C153 C 0.73855 0.94929 0.1885 0.0
C154 C 0.72641 0.93941 0.13715 0.0
C155 C 0.70243 0.93419 0.14303 0.0
C156 C 0.69139 0.92641 0.08279 0.0
C157 C 0.71277 0.92697 0.03965 0.0
C158 C 0.73346 0.93427 0.07141 0.0
C159 C 0.67252 0.94426 0.06343 0.0
C160 C 0.68145 0.90139 0.09227 0.0
H161 H 0.78135 0.91893 0.85655 0.0
H162 H 0.83004 0.9508 0.03063 0.0
H163 H 0.79231 0.90984 0.09401 0.0
H164 H 0.77719 0.92554 0.15207 0.0
H165 H 0.80688 0.93436 0.13011 0.0
H166 H 0.7801 0.98018 0.03298 0.0
H167 H 0.79836 0.97409 0.09961 0.0
H168 H 0.76656 0.97459 0.10641 0.0
H169 H 0.69791 0.92507 0.7703 0.0
H170 H 0.63623 0.91745 0.89039 0.0
H171 H 0.66117 0.91307 0.9803 0.0
H172 H 0.72867 0.9593 0.85139 0.0
H173 H 0.73654 0.94235 0.78433 0.0
H174 H 0.75783 0.94906 0.84358 0.0
H175 H 0.72675 0.88559 0.83849 0.0
H176 H 0.75419 0.89178 0.87465 0.0
H177 H 0.74861 0.90245 0.79635 0.0
H178 H 0.82309 0.92509 0.84124 0.0
C179 C 0.79121 0.92573 0.89524 0.0
C180 C 0.47487 0.71834 0.22014 0.0
C181 C 0.46675 0.69683 0.24466 0.0
C182 C 0.44799 0.68479 0.21511 0.0
C183 C 0.44744 0.71375 0.13337 0.0
C184 C 0.46447 0.72673 0.16475 0.0
C185 C 0.46943 0.74965 0.13193 0.0
H186 H 0.44903 0.81897 0.8786 0.0
C187 C 0.44155 0.72578 0.07489 0.0
C188 C 0.45363 0.74731 0.07421 0.0
H189 H 0.49312 0.83512 0.03814 0.0
H190 H 0.48335 0.79743 0.08423 0.0
H191 H 0.46847 0.77316 0.8575 0.0
H192 H 0.40468 0.79117 0.95199 0.0
H193 H 0.39837 0.76784 0.90082 0.0
H194 H 0.41065 0.7946 0.86951 0.0
H195 H 0.44095 0.77382 0.81641 0.0
H196 H 0.45086 0.74776 0.85399 0.0
C197 C 0.496 0.75121 0.11413 0.0
C198 C 0.4614 0.76917 0.17578 0.0
C199 C 0.40657 0.67863 0.89827 0.0
C200 C 0.40466 0.68338 0.83378 0.0
C201 C 0.405 0.70669 0.81362 0.0
C202 C 0.41013 0.72463 0.85586 0.0
C203 C 0.41524 0.71917 0.91862 0.0
C204 C 0.41225 0.69662 0.93955 0.0
C205 C 0.41919 0.69378 0.0071 0.0
C206 C 0.42883 0.71798 0.02149 0.0
C207 C 0.42644 0.73273 0.96964 0.0
C208 C 0.43869 0.67541 0.01067 0.0
C209 C 0.39651 0.68745 0.04578 0.0
C210 C 0.45619 0.81454 0.92408 0.0
C211 C 0.47141 0.83008 0.95554 0.0
C212 C 0.48118 0.82341 0.01344 0.0
C213 C 0.47541 0.80162 0.04011 0.0
C214 C 0.46006 0.78625 0.00792 0.0
C215 C 0.45098 0.79281 0.95051 0.0
C216 C 0.4367 0.77379 0.91989 0.0
C217 C 0.43727 0.75517 0.97015 0.0
C218 C 0.45099 0.76244 0.0218 0.0
C219 C 0.4497 0.76675 0.8587 0.0
C220 C 0.41122 0.78221 0.90951 0.0
H221 H 0.42428 0.68305 0.1391 0.0
H222 H 0.48886 0.72818 0.24321 0.0
H223 H 0.44482 0.76393 0.20118 0.0
H224 H 0.45708 0.78513 0.15015 0.0
H225 H 0.47515 0.7733 0.21142 0.0
H226 H 0.50177 0.73455 0.09412 0.0
H227 H 0.50707 0.755 0.15597 0.0
H228 H 0.50003 0.76444 0.07786 0.0
H229 H 0.40631 0.66099 0.91554 0.0
H230 H 0.40293 0.71093 0.76441 0.0
H231 H 0.41123 0.74192 0.83736 0.0
H232 H 0.45255 0.67894 0.9743 0.0
H233 H 0.43111 0.65775 0.0028 0.0
H234 H 0.44803 0.67504 0.05579 0.0
H235 H 0.38 0.69039 0.01891 0.0
H236 H 0.39498 0.69835 0.08818 0.0
H237 H 0.39609 0.66895 0.06027 0.0
H238 H 0.44135 0.66837 0.23388 0.0
C239 C 0.4382 0.69322 0.16 0.0
C240 C 0.31758 0.44221 0.20519 0.0
C241 C 0.32665 0.43453 0.26326 0.0
C242 C 0.31201 0.42054 0.30254 0.0
C243 C 0.27961 0.42345 0.22989 0.0
C244 C 0.29402 0.43606 0.18897 0.0
C245 C 0.28105 0.44166 0.12888 0.0
H246 H 0.17683 0.43431 0.96635 0.0
C247 C 0.25588 0.42088 0.20245 0.0
C248 C 0.25652 0.43076 0.14199 0.0
H249 H 0.24199 0.46786 0.9036 0.0
H250 H 0.26131 0.45651 0.0008 0.0
H251 H 0.19876 0.38849 0.03634 0.0
H252 H 0.17623 0.45574 0.0851 0.0
H253 H 0.17482 0.44119 0.15737 0.0
H254 H 0.15646 0.43126 0.09328 0.0
H255 H 0.16881 0.39823 0.03615 0.0
H256 H 0.18157 0.3858 0.10559 0.0
C257 C 0.29367 0.42977 0.07393 0.0
C258 C 0.28021 0.46823 0.12198 0.0
C259 C 0.18632 0.40249 0.34565 0.0
C260 C 0.16188 0.4048 0.33546 0.0
C261 C 0.15336 0.40336 0.27339 0.0
C262 C 0.1691 0.40313 0.22253 0.0
C263 C 0.19355 0.40501 0.23365 0.0
C264 C 0.20188 0.40326 0.2942 0.0
C265 C 0.22843 0.4061 0.29703 0.0
C266 C 0.23422 0.41235 0.22895 0.0
C267 C 0.21372 0.41169 0.19236 0.0
C268 C 0.23874 0.38253 0.31677 0.0
C269 C 0.23461 0.42626 0.34234 0.0
C270 C 0.19545 0.43871 0.97264 0.0
C271 C 0.20806 0.45147 0.92678 0.0
C272 C 0.23198 0.45781 0.93817 0.0
C273 C 0.24311 0.45121 0.99452 0.0
C274 C 0.23 0.43861 0.0404 0.0
C275 C 0.20649 0.43283 0.02873 0.0
C276 C 0.19416 0.42177 0.08398 0.0
C277 C 0.21437 0.42053 0.13014 0.0
C278 C 0.23551 0.43032 0.10486 0.0
C279 C 0.18515 0.39729 0.06479 0.0
C280 C 0.17434 0.43812 0.10617 0.0
H281 H 0.27862 0.40437 0.31827 0.0
H282 H 0.32852 0.45263 0.17344 0.0
H283 H 0.27568 0.47625 0.16764 0.0
H284 H 0.26654 0.47378 0.08879 0.0
H285 H 0.29767 0.47561 0.10644 0.0
H286 H 0.29802 0.41171 0.08689 0.0
H287 H 0.3105 0.43917 0.06154 0.0
H288 H 0.28258 0.42841 0.03162 0.0
H289 H 0.19335 0.40253 0.3928 0.0
H290 H 0.13468 0.4047 0.26333 0.0
H291 H 0.16158 0.40321 0.1765 0.0
H292 H 0.22546 0.36802 0.31322 0.0
H293 H 0.245 0.38284 0.3661 0.0
H294 H 0.25359 0.37756 0.28577 0.0
H295 H 0.22354 0.44143 0.33196 0.0
H296 H 0.25313 0.43259 0.33884 0.0
H297 H 0.23133 0.421 0.3919 0.0
H298 H 0.31829 0.41452 0.34758 0.0
C299 C 0.28879 0.41481 0.28588 0.0
C300 C 0.90244 0.19621 0.34013 0.0
C301 C 0.90118 0.17233 0.32722 0.0
C302 C 0.90105 0.16526 0.26404 0.0
C303 C 0.91222 0.20414 0.23136 0.0
C304 C 0.90852 0.21181 0.29164 0.0
C305 C 0.91552 0.23701 0.29861 0.0
H306 H 0.9861 0.32676 0.20682 0.0
C307 C 0.92537 0.22252 0.19645 0.0
C308 C 0.92723 0.24195 0.23503 0.0
H309 H 0.9329 0.32422 0.35363 0.0
H310 H 0.91998 0.28633 0.32053 0.0
H311 H 0.00172 0.27071 0.21544 0.0
H312 H 0.94911 0.30281 0.0981 0.0
H313 H 0.96791 0.28502 0.05406 0.0
H314 H 0.98011 0.31046 0.09131 0.0
H315 H 0.00991 0.29204 0.15691 0.0
H316 H 0.00442 0.26226 0.13629 0.0
C317 C 0.93338 0.23948 0.35335 0.0
C318 C 0.89261 0.25088 0.30799 0.0
C319 C 0.96723 0.19876 -0.00113 0.0
C320 C 0.98584 0.20822 0.96286 0.0
C321 C 0.99542 0.23022 0.97833 0.0
C322 C 0.98627 0.24257 0.02975 0.0
C323 C 0.96766 0.23256 0.06618 0.0
C324 C 0.95872 0.21088 0.05014 0.0
C325 C 0.94059 0.20151 0.09555 0.0
C326 C 0.93926 0.22141 0.14104 0.0
C327 C 0.95496 0.23979 0.12401 0.0
C328 C 0.95035 0.17913 0.12615 0.0
C329 C 0.9169 0.19786 0.06007 0.0
C330 C 0.97185 0.3178 0.23199 0.0
C331 C 0.96067 0.32832 0.28353 0.0
C332 C 0.94178 0.31647 0.31412 0.0
C333 C 0.93435 0.29444 0.29517 0.0
C334 C 0.94599 0.2838 0.24543 0.0
C335 C 0.96383 0.2956 0.2129 0.0
C336 C 0.97209 0.2818 0.15703 0.0
C337 C 0.95622 0.26001 0.16221 0.0
C338 C 0.94167 0.26122 0.2158 0.0
C339 C -0.00151 0.27644 0.16635 0.0
C340 C 0.96722 0.29571 0.09663 0.0
H341 H 0.90726 0.17459 0.16922 0.0
H342 H 0.90142 0.20224 0.388 0.0
H343 H 0.87624 0.24022 0.29949 0.0
H344 H 0.89172 0.26562 0.27451 0.0
H345 H 0.89127 0.25758 0.35657 0.0
H346 H 0.94776 0.22685 0.34823 0.0
H347 H 0.92447 0.23625 0.39925 0.0
H348 H 0.94207 0.25673 0.35565 0.0
H349 H 0.95987 0.1817 0.98845 0.0
H350 H 0.0099 0.23775 0.95089 0.0
H351 H 0.99416 0.25923 0.03973 0.0
H352 H 0.96925 0.17636 0.11404 0.0
H353 H 0.94029 0.16342 0.11073 0.0
H354 H 0.95015 0.17979 0.17807 0.0
H355 H 0.91398 0.2124 0.02675 0.0
H356 H 0.90132 0.19751 0.09175 0.0
H357 H 0.91688 0.18161 0.03259 0.0
H358 H 0.89957 0.14713 0.25192 0.0
C359 C 0.90625 0.18117 0.21594 0.0
C360 C 0.26914 0.04877 0.95178 0.0
C361 C 0.29 0.05746 0.92187 0.0
C362 C 0.30288 0.07589 0.94978 0.0
C363 C 0.27838 0.07239 0.04219 0.0
C364 C 0.26326 0.05715 0.01167 0.0
C365 C 0.24159 0.05137 0.05163 0.0
H366 H 0.19303 0.05032 0.34499 0.0
C367 C 0.27081 0.07402 0.10778 0.0
C368 C 0.24862 0.06264 0.11374 0.0
H369 H 0.15723 0.03296 0.17202 0.0
H370 H 0.19361 0.04149 0.1135 0.0
H371 H 0.23775 0.02549 0.3171 0.0
H372 H 0.22093 0.09674 0.29652 0.0
H373 H 0.249 0.095 0.33256 0.0
H374 H 0.22353 0.08127 0.36947 0.0
H375 H 0.24424 0.04568 0.37821 0.0
H376 H 0.26559 0.03978 0.31738 0.0
C377 C 0.2385 0.02486 0.05812 0.0
C378 C 0.21998 0.06306 0.02171 0.0
C379 C 0.33555 0.08718 0.26754 0.0
C380 C 0.33679 0.08005 0.33066 0.0
C381 C 0.31534 0.0763 0.36415 0.0
C382 C 0.29347 0.07705 0.33356 0.0
C383 C 0.29294 0.08069 0.26842 0.0
C384 C 0.3137 0.08629 0.23668 0.0
C385 C 0.31035 0.08696 0.16669 0.0
C386 C 0.28414 0.08004 0.16186 0.0
C387 C 0.27414 0.07648 0.22155 0.0
C388 C 0.32663 0.06863 0.13758 0.0
C389 C 0.31568 0.11194 0.14249 0.0
C390 C 0.19272 0.04877 0.29439 0.0
C391 C 0.17199 0.04142 0.2632 0.0
C392 C 0.17287 0.03868 0.19737 0.0
C393 C 0.19386 0.0439 0.16338 0.0
C394 C 0.21414 0.05194 0.19551 0.0
C395 C 0.21329 0.05411 0.25999 0.0
C396 C 0.23646 0.06244 0.28703 0.0
C397 C 0.25076 0.06706 0.22769 0.0
C398 C 0.23791 0.06033 0.17414 0.0
C399 C 0.24658 0.04249 0.32725 0.0
C400 C 0.2324 0.08502 0.32374 0.0
H401 H 0.30778 0.09703 0.02987 0.0
H402 H 0.25829 0.03539 0.92998 0.0
H403 H 0.22547 0.07853 0.99329 0.0
H404 H 0.20765 0.06971 0.05735 0.0
H405 H 0.21016 0.05098 0.99022 0.0
H406 H 0.25527 0.01718 0.07437 0.0
H407 H 0.23371 0.01695 0.01239 0.0
H408 H 0.22458 0.01975 0.09244 0.0
H409 H 0.35149 0.0913 0.24095 0.0
H410 H 0.3153 0.07098 0.4129 0.0
H411 H 0.2779 0.07332 0.36118 0.0
H412 H 0.32308 0.05139 0.15967 0.0
H413 H 0.34561 0.07339 0.14472 0.0
H414 H 0.32441 0.06647 0.08683 0.0
H415 H 0.31765 0.12457 0.18139 0.0
H416 H 0.30105 0.1184 0.11313 0.0
H417 H 0.33238 0.11297 0.11471 0.0
H418 H 0.31866 0.08326 0.92745 0.0
C419 C 0.29694 0.08358 0.00954 0.0
C420 C 0.52222 0.27026 0.96411 0.0
C421 C 0.53138 0.29135 0.93935 0.0
C422 C 0.55089 0.30239 0.96839 0.0
C423 C 0.54954 0.27387 0.05129 0.0
C424 C 0.5321 0.2615 0.01975 0.0
C425 C 0.52626 0.23876 0.05259 0.0
H426 H 0.53338 0.17432 0.3197 0.0
C427 C 0.55421 0.26214 0.111 0.0
C428 C 0.54137 0.241 0.11163 0.0
H429 H 0.49996 0.154 0.14607 0.0
H430 H 0.51327 0.19034 0.09736 0.0
H431 H 0.58225 0.1959 0.25468 0.0
H432 H 0.51733 0.22218 0.32472 0.0
H433 H 0.53732 0.24572 0.33142 0.0
H434 H 0.5425 0.21942 0.37463 0.0
H435 H 0.57371 0.19665 0.33589 0.0
H436 H 0.58927 0.2208 0.29895 0.0
C437 C 0.53443 0.21884 0.01012 0.0
C438 C 0.49949 0.23766 0.06808 0.0
C439 C 0.58518 0.31094 0.28986 0.0
C440 C 0.58516 0.30691 0.35495 0.0
C441 C 0.58371 0.28386 0.37708 0.0
C442 C 0.57918 0.26555 0.33568 0.0
C443 C 0.57592 0.27037 0.27163 0.0
C444 C 0.58017 0.29256 0.24919 0.0
C445 C 0.57522 0.29467 0.18014 0.0
C446 C 0.56558 0.27039 0.16604 0.0
C447 C 0.56584 0.25638 0.21992 0.0
C448 C 0.59895 0.30029 0.14541 0.0
C449 C 0.55622 0.31328 0.17101 0.0
C450 C 0.52892 0.17768 0.27116 0.0
C451 C 0.51542 0.16151 0.23678 0.0
C452 C 0.51031 0.16631 0.17339 0.0
C453 C 0.51805 0.18733 0.14533 0.0
C454 C 0.53126 0.20351 0.1809 0.0
C455 C 0.53678 0.19829 0.24242 0.0
C456 C 0.55121 0.21712 0.27336 0.0
C457 C 0.55402 0.23439 0.21988 0.0
C458 C 0.54201 0.22658 0.16596 0.0
C459 C 0.57538 0.20721 0.29228 0.0
C460 C 0.53656 0.22661 0.32908 0.0
H461 H 0.57468 0.30297 0.04459 0.0
H462 H 0.50777 0.26105 0.9411 0.0
H463 H 0.49419 0.25375 0.09208 0.0
H464 H 0.4945 0.22315 0.09971 0.0
H465 H 0.48884 0.23586 0.0246 0.0
H466 H 0.54969 0.22446 0.97994 0.0
H467 H 0.51994 0.21274 0.97871 0.0
H468 H 0.54096 0.20402 0.03745 0.0
H469 H 0.58641 0.32839 0.27125 0.0
H470 H 0.58426 0.28018 0.42694 0.0
H471 H 0.57687 0.24857 0.35566 0.0
H472 H 0.61461 0.29831 0.17629 0.0
H473 H 0.59966 0.31837 0.12741 0.0
H474 H 0.60182 0.28835 0.10569 0.0
H475 H 0.54091 0.30987 0.20314 0.0
H476 H 0.54896 0.31391 0.12331 0.0
H477 H 0.56364 0.33084 0.18106 0.0
H478 H 0.55843 0.3184 0.9493 0.0
C479 C 0.56015 0.29363 0.02385 0.0
Zn480 Zn 0.00414 0.02516 0.64908 0.0
Zn481 Zn 0.00364 0.96753 0.58085 0.0
C482 C 0.99401 0.06697 0.71145 0.0
O483 O 0.97288 0.05965 0.6936 0.0
C484 C 0.98852 0.92248 0.53992 0.0
O485 O 0.99324 0.91809 0.59905 0.0
O486 O 0.98262 0.03698 0.58198 0.0
O487 O 0.034 0.01464 0.60636 0.0
O488 O 0.01497 0.99584 0.53137 0.0
C489 C 0.99149 0.05454 0.55346 0.0
O490 O 0.01381 0.06035 0.56363 0.0
O491 O 0.01167 0.05424 0.70088 0.0
C492 C 0.04487 0.95764 0.66119 0.0
O493 O 0.03809 0.97446 0.69767 0.0
O494 O 0.03302 0.95272 0.61239 0.0
O495 O 0.98049 0.97 0.65391 0.0
O496 O 0.98519 0.00328 0.70446 0.0
O497 O 0.99048 0.94332 0.5202 0.0
C498 C 0.03324 0.00708 0.55041 0.0
C499 C 0.97569 0.98319 0.69967 0.0
Zn500 Zn 0.46503 -0.00234 0.61053 0.0
Zn501 Zn 0.52024 0.99221 0.57416 0.0
C502 C 0.41966 0.99253 0.67648 0.0
O503 O 0.42674 0.9714 0.6868 0.0
C504 C 0.56615 -0.00351 0.51163 0.0
O505 O 0.5607 0.01843 0.50936 0.0
O506 O 0.46208 0.97123 0.5484 0.0
O507 O 0.47863 0.02557 0.56428 0.0
O508 O 0.50139 0.00533 0.50228 0.0
C509 C 0.45233 0.97207 0.49481 0.0
O510 O 0.45415 0.95453 0.45648 0.0
O511 O 0.43295 0.00651 0.64503 0.0
C512 C 0.54601 0.02358 0.66141 0.0
O513 O 0.54903 0.04348 0.68999 0.0
O514 O 0.52707 0.01964 0.63077 0.0
O515 O 0.50649 0.96509 0.62529 0.0
O516 O 0.48282 0.9855 0.68429 0.0
O517 O 0.55154 0.982 0.53678 0.0
C518 C 0.48959 0.02339 0.51245 0.0
C519 C 0.49481 0.96751 0.67598 0.0
Zn520 Zn 0.49161 0.46988 0.62955 0.0
Zn521 Zn 0.49872 0.51999 0.56548 0.0
C522 C 0.50368 0.43038 0.69578 0.0
O523 O 0.52424 0.44014 0.68071 0.0
C524 C 0.48765 0.55987 0.49847 0.0
O525 O 0.46674 0.55089 0.51353 0.0
O526 O 0.51342 0.45718 0.56357 0.0
O527 O 0.46146 0.47918 0.58594 0.0
O528 O 0.4806 0.49776 0.50969 0.0
C529 C 0.5037 0.43955 0.53807 0.0
O530 O 0.48104 0.4353 0.54866 0.0
O531 O 0.48485 0.441 0.6827 0.0
C532 C 0.48542 0.55118 0.6543 0.0
O533 O 0.50805 0.556 0.64493 0.0
O534 O 0.47651 0.53291 0.6301 0.0
O535 O 0.52872 0.51088 0.61011 0.0
O536 O 0.50966 0.49195 0.68581 0.0
O537 O 0.50605 0.54859 0.51169 0.0
C538 C 0.46259 0.48609 0.52912 0.0
C539 C 0.52761 0.50378 0.66673 0.0
Zn540 Zn 0.03547 0.504 0.5868 0.0
Zn541 Zn 0.97642 0.52177 0.54819 0.0
C542 C 0.08231 0.50787 0.64368 0.0
O543 O 0.07906 0.53011 0.63568 0.0
C544 C 0.93734 0.52224 0.471 0.0
O545 O 0.9339 0.50409 0.50768 0.0
O546 O 0.04341 0.5263 0.51604 0.0
O547 O 0.01842 0.47575 0.55273 0.0
O548 O 0.98318 0.48843 0.52565 0.0
C549 C 0.06 0.52355 0.47672 0.0
O550 O 0.06535 0.54012 0.43624 0.0
O551 O 0.0662 0.49351 0.62617 0.0
C552 C 0.94821 0.54653 0.62177 0.0
O553 O 0.95955 0.56118 0.58421 0.0
O554 O 0.95256 0.52507 0.61807 0.0
O555 O 0.00364 0.54347 0.57584 0.0
O556 O 0.01825 0.52237 0.65181 0.0
O557 O 0.95693 0.5337 0.47513 0.0
C558 C -0.00179 0.47242 0.52776 0.0
C559 C 0.00985 0.54137 0.63303 0.0
H560 H 0.13787 0.00665 0.24878 0.0
H561 H 0.07025 0.03802 0.56644 0.0
H562 H 0.15528 0.06628 0.36205 0.0
H563 H 0.04149 0.98875 0.43389 0.0
H564 H 0.10276 0.04695 0.4937 0.0
H565 H 0.10317 -0.00139 0.3162 0.0
C566 C 0.13432 0.01816 0.28734 0.0
C567 C 0.14978 0.037 0.30011 0.0
C568 C 0.08932 0.03422 0.48032 0.0
C569 C 0.11033 0.0277 0.37793 0.0
C570 C 0.07077 0.02904 0.52205 0.0
C571 C 0.05307 0.0126 0.50635 0.0
C572 C 0.09043 0.02275 0.4225 0.0
C573 C 0.0547 0.0016 0.44789 0.0
C574 C 0.11459 0.01349 0.32601 0.0
C575 C 0.1443 0.05122 0.35114 0.0
N576 N 0.0731 0.00679 0.40821 0.0
N577 N 0.12521 0.04619 0.38824 0.0
H578 H 0.52109 0.11666 0.19936 0.0
H579 H 0.46581 0.06392 0.51837 0.0
H580 H 0.49082 0.15743 0.34646 0.0
H581 H 0.51269 0.02608 0.39857 0.0
H582 H 0.46813 0.09633 0.44452 0.0
H583 H 0.51141 0.0814 0.26072 0.0
C584 C 0.51203 0.11811 0.24401 0.0
C585 C 0.50687 0.13991 0.26824 0.0
C586 C 0.47783 0.0809 0.43422 0.0
C587 C 0.49585 0.09993 0.3384 0.0
C588 C 0.47654 0.06236 0.47643 0.0
C589 C 0.48942 0.04236 0.4653 0.0
C590 C 0.49205 0.07949 0.38021 0.0
C591 C 0.50269 0.04126 0.40948 0.0
C592 C 0.50667 0.09807 0.27914 0.0
C593 C 0.49529 0.14093 0.32648 0.0
N594 N 0.5038 0.05964 0.36921 0.0
N595 N 0.49026 0.12126 0.35963 0.0
H596 H 0.35907 0.40715 0.31962 0.0
H597 H 0.45061 0.50743 0.41885 0.0
H598 H 0.34868 0.47771 0.26119 0.0
H599 H 0.43189 0.44877 0.53692 0.0
H600 H 0.41982 0.49485 0.34414 0.0
H601 H 0.39357 0.41996 0.38003 0.0
C602 C 0.36427 0.42533 0.31871 0.0
C603 C 0.35065 0.44146 0.28632 0.0
C604 C 0.42256 0.48479 0.38641 0.0
C605 C 0.39031 0.45617 0.35519 0.0
C606 C 0.44008 0.4919 0.42897 0.0
C607 C 0.44376 0.47914 0.48429 0.0
C608 C 0.40911 0.46448 0.39856 0.0
C609 C 0.42958 0.4592 0.49514 0.0
C610 C 0.3839 0.43261 0.35341 0.0
C611 C 0.35861 0.46471 0.28562 0.0
N612 N 0.41304 0.4524 0.45245 0.0
N613 N 0.37785 0.47145 0.32019 0.0
H614 H 0.93318 0.36574 0.29785 0.0
H615 H 0.02775 0.43601 0.50745 0.0
H616 H 0.00435 0.34296 0.32657 0.0
H617 H 0.9573 0.45913 0.46736 0.0
H618 H 0.02017 0.40217 0.44119 0.0
H619 H 0.94272 0.40096 0.35615 0.0
C620 C 0.95099 0.36843 0.31557 0.0
C621 C 0.96803 0.35149 0.3073 0.0
C622 C 0.00637 0.41464 0.44706 0.0
C623 C 0.97901 0.39158 0.37577 0.0
C624 C 0.01062 0.43391 0.48529 0.0
C625 C 0.99313 0.45053 0.49334 0.0
C626 C 0.98445 0.41185 0.41668 0.0
C627 C 0.97134 0.44684 0.46292 0.0
C628 C 0.95641 0.38846 0.34927 0.0
C629 C 0.9908 0.35573 0.33146 0.0
N630 N 0.96766 0.42799 0.42609 0.0
N631 N 0.99558 0.37526 0.36524 0.0
H632 H 0.86144 0.9084 0.8868 0.0
H633 H 0.95585 0.0086 0.79389 0.0
H634 H 0.85583 0.97895 0.94772 0.0
H635 H 0.95408 0.94027 0.71322 0.0
H636 H 0.92366 -0.00346 0.86508 0.0
H637 H 0.90005 0.91814 0.84003 0.0
C638 C 0.86863 0.92587 0.89143 0.0
C639 C 0.85536 0.94296 0.92064 0.0
C640 C 0.93048 0.98414 0.83219 0.0
C641 C 0.8994 0.9544 0.86611 0.0
C642 C 0.9489 0.99098 0.79148 0.0
C643 C 0.95761 0.9755 0.74686 0.0
C644 C 0.9207 0.9616 0.82864 0.0
C645 C 0.94785 0.9529 0.74628 0.0
C646 C 0.8906 0.93146 0.8644 0.0
C647 C 0.86553 0.96527 0.9257 0.0
N648 N 0.92987 0.94671 0.7862 0.0
N649 N 0.88682 0.97046 0.89782 0.0
H650 H 0.51542 0.84895 0.92923 0.0
H651 H 0.52543 0.93177 0.68898 0.0
H652 H 0.44095 0.86234 0.91349 0.0
H653 H 0.46335 0.96092 0.77297 0.0
H654 H 0.52276 0.89988 0.76502 0.0
H655 H 0.52444 0.88412 0.86715 0.0
C656 C 0.50103 0.8595 0.91337 0.0
C657 C 0.47742 0.85274 0.92593 0.0
C658 C 0.51001 0.91349 0.76761 0.0
C659 C 0.48746 0.89255 0.85434 0.0
C660 C 0.51137 0.93158 0.72378 0.0
C661 C 0.49451 0.94899 0.72439 0.0
C662 C 0.49146 0.91266 0.81184 0.0
C663 C 0.47672 0.94788 0.77067 0.0
C664 C 0.50614 0.87935 0.87732 0.0
C665 C 0.45937 0.8669 0.90422 0.0
N666 N 0.47544 0.92983 0.81186 0.0
N667 N 0.46476 0.88614 0.86951 0.0
H668 H 0.63247 0.58093 0.87603 0.0
H669 H 0.53887 0.4824 0.77757 0.0
H670 H 0.63819 0.51115 0.94625 0.0
H671 H 0.55935 0.54025 0.65844 0.0
H672 H 0.56979 0.49442 0.85241 0.0
H673 H 0.5993 0.56833 0.81086 0.0
C674 C 0.62665 0.56293 0.87805 0.0
C675 C 0.63852 0.54696 0.91571 0.0
C676 C 0.56747 0.5044 0.80982 0.0
C677 C 0.60018 0.53249 0.84138 0.0
C678 C 0.54984 0.49763 0.76719 0.0
C679 C 0.54657 0.51035 0.71159 0.0
C680 C 0.5815 0.52431 0.79737 0.0
C681 C 0.56132 0.52986 0.70043 0.0
C682 C 0.60772 0.55577 0.84071 0.0
C683 C 0.62964 0.52402 0.91775 0.0
N684 N 0.57799 0.53633 0.74313 0.0
N685 N 0.61105 0.51739 0.88064 0.0
H686 H 0.00503 0.67927 0.78445 0.0
H687 H 0.01726 0.54195 0.76045 0.0
H688 H 0.02724 0.63706 0.93942 0.0
H689 H -7e-05 0.58648 0.60498 0.0
H690 H 0.01644 0.57539 0.83036 0.0
H691 H 0.99734 0.64436 0.72296 0.0
C692 C 0.00771 0.66251 0.80595 0.0
C693 C 0.01662 0.66095 0.86706 0.0
C694 C 0.01262 0.57779 0.78103 0.0
C695 C 0.00864 0.62085 0.79635 0.0
C696 C 0.01316 0.55871 0.74098 0.0
C697 C 0.00866 0.56134 0.67653 0.0
C698 C 0.00758 0.59972 0.75658 0.0
C699 C 0.00338 0.5835 0.65423 0.0
C700 C 0.00354 0.64259 0.77071 0.0
C701 C 0.02012 0.63891 0.89263 0.0
N702 N 0.00306 0.60177 0.69405 0.0
N703 N 0.01639 0.61968 0.85687 0.0
H704 H 0.88512 0.12677 0.34153 0.0
H705 H 0.00258 0.09887 0.51996 0.0
H706 H 0.93165 0.17849 0.42484 0.0
H707 H 0.94509 0.04806 0.51605 0.0
H708 H 0.97639 0.12744 0.47704 0.0
H709 H 0.90519 0.09692 0.40226 0.0
C710 C 0.89907 0.13196 0.37361 0.0
C711 C 0.90691 0.15523 0.37696 0.0
C712 C 0.96941 0.11006 0.48566 0.0
C713 C 0.92997 0.12126 0.4455 0.0
C714 C 0.98447 0.09362 0.50948 0.0
C715 C 0.97604 0.071 0.52142 0.0
C716 C 0.94574 0.10388 0.47265 0.0
C717 C 0.95228 0.06533 0.50733 0.0
C718 C 0.91049 0.11491 0.40813 0.0
C719 C 0.92481 0.16093 0.42027 0.0
N720 N 0.93792 0.08168 0.48317 0.0
N721 N 0.93599 0.14404 0.45172 0.0
H722 H 0.37456 0.06186 0.26713 0.0
H723 H 0.41355 0.98909 0.55029 0.0
H724 H 0.35156 0.0789 0.4548 0.0
H725 H 0.4598 -0.00071 0.39124 0.0
H726 H 0.39099 0.02258 0.51761 0.0
H727 H 0.40701 0.04094 0.31115 0.0
C728 C 0.37653 0.06194 0.31757 0.0
C729 C 0.35967 0.07205 0.35708 0.0
C730 C 0.40648 0.01797 0.49075 0.0
C731 C 0.39668 0.0468 0.40774 0.0
C732 C 0.41952 -0.00086 0.51008 0.0
C733 C 0.43915 0.99238 0.47532 0.0
C734 C 0.41257 0.02944 0.4345 0.0
C735 C 0.4449 0.00434 0.41975 0.0
C736 C 0.39514 0.04965 0.34267 0.0
C737 C 0.36343 0.07078 0.4222 0.0
N738 N 0.43154 0.02226 0.40068 0.0
N739 N 0.38118 0.05787 0.44553 0.0
H740 H 0.60435 0.35154 0.35233 0.0
H741 H 0.48903 0.3958 0.51055 0.0
H742 H 0.55423 0.30724 0.45314 0.0
H743 H 0.55127 0.44096 0.50606 0.0
H744 H 0.51304 0.36393 0.47787 0.0
H745 H 0.58676 0.38529 0.40209 0.0
C746 C 0.59012 0.34883 0.38607 0.0
C747 C 0.58054 0.32648 0.39775 0.0
C748 C 0.52152 0.38078 0.4841 0.0
C749 C 0.56029 0.36483 0.45353 0.0
C750 C 0.50775 0.39912 0.50206 0.0
C751 C 0.51814 0.42115 0.51102 0.0
C752 C 0.54588 0.38439 0.47383 0.0
C753 C 0.54257 0.42424 0.49952 0.0
C754 C 0.58013 0.36808 0.41431 0.0
C755 C 0.56231 0.324 0.4425 0.0
N756 N 0.55569 0.40602 0.481 0.0
N757 N 0.55249 0.34294 0.46765 0.0
H758 H 0.17481 0.4353 0.42792 0.0
H759 H 0.04395 0.47994 0.45208 0.0
H760 H 0.11374 0.39741 0.3564 0.0
H761 H 0.1069 0.51959 0.4996 0.0
H762 H 0.06768 0.44519 0.44351 0.0
H763 H 0.1487 0.46024 0.48468 0.0
C764 C 0.15594 0.4316 0.42552 0.0
C765 C 0.14655 0.41448 0.38537 0.0
C766 C 0.07623 0.46135 0.45723 0.0
C767 C 0.11642 0.44399 0.44878 0.0
C768 C 0.06268 0.48107 0.46254 0.0
C769 C 0.07359 0.50237 0.47715 0.0
C770 C 0.10085 0.46315 0.46615 0.0
C771 C 0.09799 0.50337 0.48794 0.0
C772 C 0.14097 0.44621 0.45753 0.0
C773 C 0.12182 0.4109 0.38475 0.0
N774 N 0.11086 0.48403 0.4819 0.0
N775 N 0.10757 0.42593 0.4146 0.0
H776 H 0.08984 0.82928 0.76489 0.0
H777 H 0.06516 0.92372 0.59229 0.0
H778 H 0.12924 0.87403 0.89096 0.0
H779 H 0.06825 0.95625 0.77389 0.0
H780 H 0.09078 0.89355 0.63107 0.0
H781 H 0.08429 0.8617 0.69567 0.0
C782 C 0.09822 0.84566 0.77726 0.0
C783 C 0.10949 0.84882 0.8354 0.0
C784 C 0.08595 0.90734 0.66233 0.0
C785 C 0.10256 0.88662 0.7557 0.0
C786 C 0.0714 0.92465 0.64021 0.0
C787 C 0.06391 0.94212 0.68062 0.0
C788 C 0.0928 0.90735 0.72552 0.0
C789 C 0.07315 0.94282 0.74158 0.0
C790 C 0.09491 0.8644 0.73725 0.0
C791 C 0.11955 0.87084 0.84808 0.0
N792 N 0.08679 0.92539 0.76259 0.0
N793 N 0.11513 0.88907 0.80966 0.0
H794 H 0.62084 0.90661 0.78725 0.0
H795 H 0.59348 0.02978 0.64088 0.0
H796 H 0.67432 0.95946 0.74692 0.0
H797 H 0.54053 0.97855 0.69486 0.0
H798 H 0.62418 0.0011 0.65693 0.0
H799 H 0.59223 0.92883 0.72787 0.0
C800 C 0.6267 0.92261 0.76463 0.0
C801 C 0.64985 0.93142 0.77314 0.0
C802 C 0.60577 0.99595 0.66393 0.0
C803 C 0.6172 0.95711 0.70611 0.0
C804 C 0.58833 0.01233 0.65512 0.0
C805 C 0.56446 0.00621 0.66549 0.0
C806 C 0.5992 0.97353 0.68467 0.0
C807 C 0.55858 0.98354 0.68405 0.0
C808 C 0.61037 0.93533 0.73087 0.0
C809 C 0.65663 0.95203 0.74184 0.0
N810 N 0.57583 0.96805 0.69365 0.0
N811 N 0.64024 0.96443 0.71083 0.0
H812 H 0.43196 0.68455 0.72785 0.0
H813 H 0.43926 0.54745 0.69734 0.0
H814 H 0.38654 0.63839 0.83771 0.0
H815 H 0.49612 0.59706 0.65904 0.0
H816 H 0.41382 0.57961 0.7275 0.0
H817 H 0.44778 0.65141 0.67439 0.0
C818 C 0.42466 0.66753 0.73945 0.0
C819 C 0.40819 0.66431 0.7885 0.0
C820 C 0.43187 0.58329 0.7123 0.0
C821 C 0.42705 0.62612 0.72865 0.0
C822 C 0.44639 0.56502 0.69556 0.0
C823 C 0.46994 0.56958 0.67676 0.0
C824 C 0.44091 0.60613 0.70849 0.0
C825 C 0.47825 0.59265 0.67438 0.0
C826 C 0.43405 0.64854 0.70947 0.0
C827 C 0.39968 0.64165 0.80135 0.0
N828 N 0.46375 0.61 0.68981 0.0
N829 N 0.40957 0.6233 0.77247 0.0
H830 H 0.85414 0.6367 0.81732 0.0
H831 H 0.90647 0.52447 0.65565 0.0
H832 H 0.81056 0.57932 0.75249 0.0
H833 H 0.94609 0.58893 0.6735 0.0
H834 H 0.87201 0.54272 0.70321 0.0
H835 H 0.88892 0.61856 0.77191 0.0
C836 C 0.85187 0.62052 0.79239 0.0
C837 C 0.82948 0.60958 0.78811 0.0
C838 C 0.88833 0.55278 0.69712 0.0
C839 C 0.86908 0.58843 0.73793 0.0
C840 C 0.90802 0.54228 0.67088 0.0
C841 C 0.92898 0.55529 0.66071 0.0
C842 C 0.88987 0.57629 0.71361 0.0
C843 C 0.93011 0.5784 0.68031 0.0
C844 C 0.87169 0.6101 0.76694 0.0
C845 C 0.82746 0.58853 0.75587 0.0
N846 N 0.91078 0.5882 0.70567 0.0
N847 N 0.84706 0.57851 0.73255 0.0
H848 H 0.0242 0.18053 0.96306 0.0
H849 H 0.96412 0.10265 0.69976 0.0
H850 H 0.96593 0.20176 0.84878 0.0
H851 H 0.03029 0.08477 0.78538 0.0
H852 H 0.96695 0.14046 0.7487 0.0
H853 H 0.03006 0.14765 0.89257 0.0
C854 C 0.01333 0.17879 0.92152 0.0
C855 C 0.99481 0.19401 0.91094 0.0
C856 C 0.981 0.12843 0.75667 0.0
C857 C 0.00064 0.15603 0.83189 0.0
C858 C 0.9793 0.10669 0.72899 0.0
C859 C 0.99683 0.09035 0.73919 0.0
C860 C 0.0002 0.13396 0.79598 0.0
C861 C 0.01631 0.0968 0.77661 0.0
C862 C 0.01645 0.15988 0.88178 0.0
C863 C 0.98064 0.1906 0.85785 0.0
N864 N 0.01732 0.11801 0.80443 0.0
N865 N 0.98364 0.17184 0.82087 0.0
H866 H 0.30811 0.0771 0.81387 0.0
H867 H 0.38792 0.96791 0.75042 0.0
H868 H 0.29791 0.01142 0.90836 0.0
H869 H 0.39844 0.03418 0.65861 0.0
H870 H 0.35111 0.98152 0.79636 0.0
H871 H 0.33639 0.05948 0.74267 0.0
C872 C 0.31135 0.05879 0.81845 0.0
C873 C 0.30082 0.04575 0.86744 0.0
C874 C 0.36135 0.99303 0.76572 0.0
C875 C 0.33366 0.02556 0.78718 0.0
C876 C 0.38243 0.98528 0.73955 0.0
C877 C 0.39652 3e-05 0.70129 0.0
C878 C 0.35426 0.01573 0.75373 0.0
C879 C 0.38835 0.0223 0.6885 0.0
C880 C 0.32764 0.04876 0.77811 0.0
C881 C 0.30557 0.02208 0.87114 0.0
N882 N 0.3679 0.02951 0.71507 0.0
N883 N 0.32199 0.01284 0.83236 0.0
H884 H 0.55011 0.2991 0.82348 0.0
H885 H 0.46841 0.40794 0.76519 0.0
H886 H 0.4891 0.31285 0.93783 0.0
H887 H 0.53741 0.39832 0.68308 0.0
H888 H 0.47 0.36886 0.81168 0.0
H889 H 0.53898 0.33003 0.75165 0.0
C890 C 0.53384 0.30811 0.83197 0.0
C891 C 0.52042 0.30346 0.88621 0.0
C892 C 0.48464 0.3753 0.78292 0.0
C893 C 0.50813 0.33959 0.80621 0.0
C894 C 0.48375 0.39756 0.75656 0.0
C895 C 0.50302 0.40653 0.72141 0.0
C896 C 0.50476 0.36194 0.77303 0.0
C897 C 0.52238 0.39232 0.71108 0.0
C898 C 0.52764 0.32598 0.79156 0.0
C899 C 0.49973 0.31586 0.896 0.0
N900 N 0.52278 0.37085 0.73693 0.0
N901 N 0.49442 0.33373 0.85701 0.0
H902 H 0.18085 0.425 0.84826 0.0
H903 H 0.11887 0.534 0.69337 0.0
H904 H 0.2049 0.49541 0.87836 0.0
H905 H 0.09553 0.46316 0.6651 0.0
H906 H 0.15318 0.52027 0.751 0.0
H907 H 0.1529 0.43857 0.76994 0.0
C908 C 0.18053 0.44332 0.83739 0.0
C909 C 0.19513 0.45912 0.87005 0.0
C910 C 0.14066 0.50772 0.7318 0.0
C911 C 0.16276 0.47492 0.78117 0.0
C912 C 0.12101 0.51555 0.69889 0.0
C913 C 0.10406 0.49973 0.67494 0.0
C914 C 0.14345 0.48387 0.74098 0.0
C915 C 0.10794 0.47602 0.68328 0.0
C916 C 0.16449 0.45109 0.79287 0.0
C917 C 0.19405 0.48265 0.85404 0.0
N918 N 0.12709 0.46885 0.71592 0.0
N919 N 0.17788 0.48988 0.81136 0.0
H920 H 0.97952 0.84037 0.20473 0.0
H921 H 0.98777 0.87598 0.56589 0.0
H922 H -0.00172 0.79288 0.35165 0.0
H923 H 0.97877 0.92446 0.4136 0.0
H924 H 0.98436 0.84413 0.49138 0.0
H925 H 0.9711 0.86953 0.28366 0.0
C926 C 0.98121 0.83592 0.25394 0.0
C927 C 0.98955 0.81422 0.27186 0.0
C928 C 0.98289 0.86171 0.47434 0.0
C929 C 0.98063 0.84775 0.36258 0.0
C930 C 0.9848 0.87997 0.51688 0.0
C931 C 0.9838 0.90304 0.49599 0.0
C932 C 0.97987 0.86647 0.41026 0.0
C933 C 0.97983 0.90702 0.43189 0.0
C934 C 0.97662 0.85263 0.29896 0.0
C935 C 0.99168 0.80935 0.33606 0.0
N936 N 0.97819 0.88895 0.39135 0.0
N937 N 0.98758 0.82612 0.37918 0.0
H938 H 0.69851 0.99067 0.30545 0.0
H939 H 0.58227 0.95225 0.50207 0.0
H940 H 0.67084 0.92056 0.31721 0.0
H941 H 0.60221 0.02332 0.46057 0.0
H942 H 0.61878 0.94002 0.45126 0.0
H943 H 0.66795 0.00242 0.38026 0.0
C944 C 0.68642 0.97765 0.32516 0.0
C945 C 0.68712 0.95464 0.305 0.0
C946 C 0.61523 0.95831 0.4536 0.0
C947 C 0.65189 0.96796 0.38952 0.0
C948 C 0.59435 0.9653 0.48256 0.0
C949 C 0.58893 0.98884 0.48473 0.0
C950 C 0.63091 0.97494 0.42677 0.0
C951 C 0.60546 0.00497 0.45929 0.0
C952 C 0.66882 0.98439 0.36728 0.0
C953 C 0.6708 0.93851 0.33131 0.0
N954 N 0.6256 -0.00228 0.43105 0.0
N955 N 0.65376 0.9455 0.3717 0.0
H956 H 0.5088 0.67502 0.24761 0.0
H957 H 0.45666 0.59399 0.51782 0.0
H958 H 0.44824 0.69086 0.36136 0.0
H959 H 0.52246 0.58021 0.42336 0.0
H960 H 0.45714 0.63249 0.4713 0.0
H961 H 0.51871 0.64424 0.32215 0.0
C962 C 0.49825 0.67268 0.2899 0.0
C963 C 0.47778 0.68547 0.29885 0.0
C964 C 0.47163 0.62122 0.46086 0.0
C965 C 0.48833 0.64988 0.38264 0.0
C966 C 0.47125 0.59911 0.48708 0.0
C967 C 0.48928 0.58372 0.47323 0.0
C968 C 0.48995 0.628 0.4193 0.0
C969 C 0.50808 0.59151 0.43455 0.0
C970 C 0.5037 0.65492 0.33197 0.0
C971 C 0.46428 0.68144 0.35327 0.0
N972 N 0.50772 0.61301 0.40793 0.0
N973 N 0.46955 0.66375 0.39253 0.0
H974 H 0.79716 0.54894 0.324 0.0
H975 H 0.93727 0.55816 0.38546 0.0
H976 H 0.84618 0.59086 0.21277 0.0
H977 H 0.89199 0.50462 0.46767 0.0
H978 H 0.90333 0.5718 0.32581 0.0
H979 H 0.83104 0.53342 0.38129 0.0
C980 C 0.81493 0.55489 0.31161 0.0
C981 C 0.81867 0.57165 0.26436 0.0
C982 C 0.90086 0.55699 0.35671 0.0
C983 C 0.85744 0.55408 0.32962 0.0
C984 C 0.92026 0.5492 0.39071 0.0
C985 C 0.91755 0.53019 0.4315 0.0
C986 C 0.87851 0.54584 0.36398 0.0
C987 C 0.89499 0.51931 0.4366 0.0
C988 C 0.83427 0.54608 0.34436 0.0
C989 C 0.84222 0.57859 0.25019 0.0
N990 N 0.87635 0.52734 0.40357 0.0
N991 N 0.86057 0.56993 0.28278 0.0
loop_
_geom_bond_atom_site_label_1
_geom_bond_atom_site_label_2
_geom_bond_distance
_geom_bond_site_symmetry_2
_ccdc_geom_bond_type
C0 C1 1.391 . S
C0 C4 1.391 . S
C0 H42 0.948 . S
C1 C0 1.391 . S
C1 C2 1.391 . S
C2 C1 1.391 . S
C2 H58 0.947 . S
C2 C59 1.392 . S
C3 C4 1.391 . S
C3 C7 1.397 . S
C3 C59 1.419 . S
C4 C0 1.391 . S
C4 C3 1.391 . S
C4 C5 1.399 . S
C5 C4 1.399 . S
C5 C8 1.396 . S
C5 C17 1.453 . S
C5 C18 1.684 . S
H6 C30 0.948 . S
C7 C3 1.397 . S
C7 C8 1.394 . S
C7 C26 1.723 . S
C8 C5 1.396 . S
C8 C7 1.394 . S
C8 C38 1.723 . S
H9 C32 0.947 . S
H10 C33 0.948 . S
H11 C39 0.982 . S
H12 C40 0.979 . S
H13 C40 0.980 . S
H14 C40 0.983 . S
H15 C39 0.979 . S
H16 C39 0.977 . S
C17 C5 1.453 . S
C17 H46 0.982 . S
C17 H47 0.979 . S
C17 H48 0.977 . S
C18 C5 1.684 . S
C18 H43 0.979 . S
C18 H44 0.980 . S
C18 H45 0.983 . S
C19 C20 1.391 . S
C19 C24 1.391 . S
C19 H49 0.948 . S
C20 C19 1.391 . S
C20 C21 1.391 . S
C21 C20 1.391 . S
C21 C22 1.392 . S
C21 H50 0.947 . S
C22 C21 1.392 . S
C22 C23 1.419 . S
C22 H51 0.948 . S
C23 C22 1.419 . S
C23 C24 1.391 . S
C23 C27 1.397 . S
C24 C19 1.391 . S
C24 C23 1.391 . S
C24 C25 1.399 . S
C25 C24 1.399 . S
C25 C26 1.396 1_556 S
C25 C28 1.453 1_556 S
C25 C29 1.684 1_556 S
C26 C7 1.723 . S
C26 C25 1.396 1_554 S
C26 C27 1.394 1_554 S
C27 C23 1.397 . S
C27 C26 1.394 1_556 S
C27 C37 1.723 . S
C28 C25 1.453 1_554 S
C28 H52 0.982 . S
C28 H53 0.979 . S
C28 H54 0.977 . S
C29 C25 1.684 1_554 S
C29 H55 0.979 . S
C29 H56 0.980 . S
C29 H57 0.983 . S
C30 H6 0.948 . S
C30 C31 1.391 . S
C30 C35 1.391 . S
C31 C30 1.391 . S
C31 C32 1.391 1_556 S
C32 H9 0.947 . S
C32 C31 1.391 1_554 S
C32 C33 1.392 . S
C33 H10 0.948 . S
C33 C32 1.392 . S
C33 C34 1.419 . S
C34 C33 1.419 . S
C34 C35 1.391 1_554 S
C34 C38 1.397 . S
C35 C30 1.391 . S
C35 C34 1.391 1_556 S
C35 C36 1.399 . S
C36 C35 1.399 . S
C36 C37 1.396 . S
C36 C39 1.453 . S
C36 C40 1.684 . S
C37 C27 1.723 . S
C37 C36 1.396 . S
C37 C38 1.394 1_556 S
C38 C8 1.723 . S
C38 C34 1.397 . S
C38 C37 1.394 1_554 S
C39 H11 0.982 . S
C39 H15 0.979 . S
C39 H16 0.977 . S
C39 C36 1.453 . S
C40 H12 0.979 . S
C40 H13 0.980 . S
C40 H14 0.983 . S
C40 C36 1.684 . S
H41 C59 0.948 . S
H42 C0 0.948 . S
H43 C18 0.979 . S
H44 C18 0.980 . S
H45 C18 0.983 . S
H46 C17 0.982 . S
H47 C17 0.979 . S
H48 C17 0.977 . S
H49 C19 0.948 . S
H50 C21 0.947 . S
H51 C22 0.948 . S
H52 C28 0.982 . S
H53 C28 0.979 . S
H54 C28 0.977 . S
H55 C29 0.979 . S
H56 C29 0.980 . S
H57 C29 0.983 . S
H58 C2 0.947 . S
C59 C2 1.392 . S
C59 C3 1.419 . S
C59 H41 0.948 . S
C60 C61 1.391 . S
C60 C64 1.391 . S
C60 H102 0.948 . S
C61 C60 1.391 . S
C61 C62 1.391 . S
C62 C61 1.391 . S
C62 H118 0.947 . S
C62 C119 1.392 . S
C63 C64 1.391 . S
C63 C67 1.397 1_655 S
C63 C119 1.419 . S
C64 C60 1.391 . S
C64 C63 1.391 . S
C64 C65 1.399 . S
C65 C64 1.399 . S
C65 C68 1.396 1_655 S
C65 C77 1.453 1_655 S
C65 C78 1.684 . S
H66 C90 0.948 . S
C67 C63 1.397 1_455 S
C67 C68 1.394 . S
C67 C86 1.723 1_556 S
C68 C65 1.396 1_455 S
C68 C67 1.394 . S
C68 C98 1.723 1_556 S
H69 C92 0.947 . S
H70 C93 0.948 . S
H71 C99 0.982 . S
H72 C100 0.979 . S
H73 C100 0.980 . S
H74 C100 0.983 . S
H75 C99 0.979 . S
H76 C99 0.977 . S
C77 C65 1.453 1_455 S
C77 H106 0.982 . S
C77 H107 0.979 . S
C77 H108 0.977 . S
C78 C65 1.684 . S
C78 H103 0.979 . S
C78 H104 0.980 . S
C78 H105 0.983 . S
C79 C80 1.391 . S
C79 C84 1.391 . S
C79 H109 0.948 . S
C80 C79 1.391 . S
C80 C81 1.391 . S
C81 C80 1.391 . S
C81 C82 1.392 . S
C81 H110 0.947 . S
C82 C81 1.392 . S
C82 C83 1.419 . S
C82 H111 0.948 . S
C83 C82 1.419 . S
C83 C84 1.391 . S
C83 C87 1.397 1_655 S
C84 C79 1.391 . S
C84 C83 1.391 . S
C84 C85 1.399 . S
C85 C84 1.399 . S
C85 C86 1.396 1_655 S
C85 C88 1.453 1_655 S
C85 C89 1.684 . S
C86 C67 1.723 1_554 S
C86 C85 1.396 1_455 S
C86 C87 1.394 . S
C87 C83 1.397 1_455 S
C87 C86 1.394 . S
C87 C97 1.723 . S
C88 C85 1.453 1_455 S
C88 H112 0.982 . S
C88 H113 0.979 . S
C88 H114 0.977 . S
C89 C85 1.684 . S
C89 H115 0.979 . S
C89 H116 0.980 . S
C89 H117 0.983 . S
C90 H66 0.948 . S
C90 C91 1.391 1_554 S
C90 C95 1.391 . S
C91 C90 1.391 1_556 S
C91 C92 1.391 . S
C92 H69 0.947 . S
C92 C91 1.391 . S
C92 C93 1.392 . S
C93 H70 0.948 . S
C93 C92 1.392 . S
C93 C94 1.419 . S
C94 C93 1.419 . S
C94 C95 1.391 1_556 S
C94 C98 1.397 1_656 S
C95 C90 1.391 . S
C95 C94 1.391 1_554 S
C95 C96 1.399 . S
C96 C95 1.399 . S
C96 C97 1.396 1_655 S
C96 C99 1.453 1_655 S
C96 C100 1.684 . S
C97 C87 1.723 . S
C97 C96 1.396 1_455 S
C97 C98 1.394 . S
C98 C68 1.723 1_554 S
C98 C94 1.397 1_454 S
C98 C97 1.394 . S
C99 H71 0.982 . S
C99 H75 0.979 . S
C99 H76 0.977 . S
C99 C96 1.453 1_455 S
C100 H72 0.979 . S
C100 H73 0.980 . S
C100 H74 0.983 . S
C100 C96 1.684 . S
H101 C119 0.948 1_554 S
H102 C60 0.948 . S
H103 C78 0.979 . S
H104 C78 0.980 . S
H105 C78 0.983 . S
H106 C77 0.982 . S
H107 C77 0.979 . S
H108 C77 0.977 . S
H109 C79 0.948 . S
H110 C81 0.947 . S
H111 C82 0.948 . S
H112 C88 0.982 . S
H113 C88 0.979 . S
H114 C88 0.977 . S
H115 C89 0.979 . S
H116 C89 0.980 . S
H117 C89 0.983 . S
H118 C62 0.947 . S
C119 C62 1.392 . S
C119 C63 1.419 . S
C119 H101 0.948 1_556 S
C120 C121 1.391 1_554 S
C120 C124 1.391 . S
C120 H162 0.948 . S
C121 C120 1.391 1_556 S
C121 C122 1.391 . S
C122 C121 1.391 . S
C122 H178 0.947 . S
C122 C179 1.392 . S
C123 C124 1.391 1_556 S
C123 C127 1.397 1_556 S
C123 C179 1.419 . S
C124 C120 1.391 . S
C124 C123 1.391 1_554 S
C124 C125 1.399 . S
C125 C124 1.399 . S
C125 C128 1.396 . S
C125 C137 1.453 . S
C125 C138 1.684 . S
H126 C150 0.948 . S
C127 C123 1.397 1_554 S
C127 C128 1.394 . S
C127 C146 1.723 1_554 S
C128 C125 1.396 . S
C128 C127 1.394 . S
C128 C158 1.723 . S
H129 C152 0.947 . S
H130 C153 0.948 . S
H131 C159 0.982 . S
H132 C160 0.979 . S
H133 C160 0.980 . S
H134 C160 0.983 . S
H135 C159 0.979 . S
H136 C159 0.977 . S
C137 C125 1.453 . S
C137 H166 0.982 . S
C137 H167 0.979 . S
C137 H168 0.977 . S
C138 C125 1.684 . S
C138 H163 0.979 . S
C138 H164 0.980 . S
C138 H165 0.983 . S
C139 C140 1.391 . S
C139 C144 1.391 . S
C139 H169 0.948 . S
C140 C139 1.391 . S
C140 C141 1.391 . S
C141 C140 1.391 . S
C141 C142 1.392 . S
C141 H170 0.947 . S
C142 C141 1.392 . S
C142 C143 1.419 . S
C142 H171 0.948 1_556 S
C143 C142 1.419 . S
C143 C144 1.391 . S
C143 C147 1.397 . S
C144 C139 1.391 . S
C144 C143 1.391 . S
C144 C145 1.399 . S
C145 C144 1.399 . S
C145 C146 1.396 . S
C145 C148 1.453 . S
C145 C149 1.684 . S
C146 C127 1.723 1_556 S
C146 C145 1.396 . S
C146 C147 1.394 . S
C147 C143 1.397 . S
C147 C146 1.394 . S
C147 C157 1.723 1_556 S
C148 C145 1.453 . S
C148 H172 0.982 . S
C148 H173 0.979 . S
C148 H174 0.977 . S
C149 C145 1.684 . S
C149 H175 0.979 . S
C149 H176 0.980 . S
C149 H177 0.983 . S
C150 H126 0.948 . S
C150 C151 1.391 . S
C150 C155 1.391 . S
C151 C150 1.391 . S
C151 C152 1.391 . S
C152 H129 0.947 . S
C152 C151 1.391 . S
C152 C153 1.392 . S
C153 H130 0.948 . S
C153 C152 1.392 . S
C153 C154 1.419 . S
C154 C153 1.419 . S
C154 C155 1.391 . S
C154 C158 1.397 . S
C155 C150 1.391 . S
C155 C154 1.391 . S
C155 C156 1.399 . S
C156 C155 1.399 . S
C156 C157 1.396 . S
C156 C159 1.453 . S
C156 C160 1.684 . S
C157 C147 1.723 1_554 S
C157 C156 1.396 . S
C157 C158 1.394 . S
C158 C128 1.723 . S
C158 C154 1.397 . S
C158 C157 1.394 . S
C159 H131 0.982 . S
C159 H135 0.979 . S
C159 H136 0.977 . S
C159 C156 1.453 . S
C160 H132 0.979 . S
C160 H133 0.980 . S
C160 H134 0.983 . S
C160 C156 1.684 . S
H161 C179 0.948 . S
H162 C120 0.948 . S
H163 C138 0.979 . S
H164 C138 0.980 . S
H165 C138 0.983 . S
H166 C137 0.982 . S
H167 C137 0.979 . S
H168 C137 0.977 . S
H169 C139 0.948 . S
H170 C141 0.947 . S
H171 C142 0.948 1_554 S
H172 C148 0.982 . S
H173 C148 0.979 . S
H174 C148 0.977 . S
H175 C149 0.979 . S
H176 C149 0.980 . S
H177 C149 0.983 . S
H178 C122 0.947 . S
C179 C122 1.392 . S
C179 C123 1.419 . S
C179 H161 0.948 . S
C180 C181 1.391 . S
C180 C184 1.391 . S
C180 H222 0.948 . S
C181 C180 1.391 . S
C181 C182 1.391 . S
C182 C181 1.391 . S
C182 H238 0.947 . S
C182 C239 1.392 . S
C183 C184 1.391 . S
C183 C187 1.397 . S
C183 C239 1.419 . S
C184 C180 1.391 . S
C184 C183 1.391 . S
C184 C185 1.399 . S
C185 C184 1.399 . S
C185 C188 1.396 . S
C185 C197 1.453 . S
C185 C198 1.684 . S
H186 C210 0.948 . S
C187 C183 1.397 . S
C187 C188 1.394 . S
C187 C206 1.723 . S
C188 C185 1.396 . S
C188 C187 1.394 . S
C188 C218 1.723 . S
H189 C212 0.947 . S
H190 C213 0.948 . S
H191 C219 0.982 . S
H192 C220 0.979 . S
H193 C220 0.980 . S
H194 C220 0.983 . S
H195 C219 0.979 . S
H196 C219 0.977 . S
C197 C185 1.453 . S
C197 H226 0.982 . S
C197 H227 0.979 . S
C197 H228 0.977 . S
C198 C185 1.684 . S
C198 H223 0.979 . S
C198 H224 0.980 . S
C198 H225 0.983 . S
C199 C200 1.391 . S
C199 C204 1.391 . S
C199 H229 0.948 . S
C200 C199 1.391 . S
C200 C201 1.391 . S
C201 C200 1.391 . S
C201 C202 1.392 . S
C201 H230 0.947 . S
C202 C201 1.392 . S
C202 C203 1.419 . S
C202 H231 0.948 . S
C203 C202 1.419 . S
C203 C204 1.391 . S
C203 C207 1.397 . S
C204 C199 1.391 . S
C204 C203 1.391 . S
C204 C205 1.399 1_556 S
C205 C204 1.399 1_554 S
C205 C206 1.396 . S
C205 C208 1.453 . S
C205 C209 1.684 . S
C206 C187 1.723 . S
C206 C205 1.396 . S
C206 C207 1.394 1_554 S
C207 C203 1.397 . S
C207 C206 1.394 1_556 S
C207 C217 1.723 . S
C208 C205 1.453 . S
C208 H232 0.982 . S
C208 H233 0.979 . S
C208 H234 0.977 . S
C209 C205 1.684 . S
C209 H235 0.979 . S
C209 H236 0.980 . S
C209 H237 0.983 . S
C210 H186 0.948 . S
C210 C211 1.391 . S
C210 C215 1.391 . S
C211 C210 1.391 . S
C211 C212 1.391 1_556 S
C212 H189 0.947 . S
C212 C211 1.391 1_554 S
C212 C213 1.392 . S
C213 H190 0.948 . S
C213 C212 1.392 . S
C213 C214 1.419 . S
C214 C213 1.419 . S
C214 C215 1.391 1_554 S
C214 C218 1.397 . S
C215 C210 1.391 . S
C215 C214 1.391 1_556 S
C215 C216 1.399 . S
C216 C215 1.399 . S
C216 C217 1.396 . S
C216 C219 1.453 . S
C216 C220 1.684 . S
C217 C207 1.723 . S
C217 C216 1.396 . S
C217 C218 1.394 1_556 S
C218 C188 1.723 . S
C218 C214 1.397 . S
C218 C217 1.394 1_554 S
C219 H191 0.982 . S
C219 H195 0.979 . S
C219 H196 0.977 . S
C219 C216 1.453 . S
C220 H192 0.979 . S
C220 H193 0.980 . S
C220 H194 0.983 . S
C220 C216 1.684 . S
H221 C239 0.948 . S
H222 C180 0.948 . S
H223 C198 0.979 . S
H224 C198 0.980 . S
H225 C198 0.983 . S
H226 C197 0.982 . S
H227 C197 0.979 . S
H228 C197 0.977 . S
H229 C199 0.948 . S
H230 C201 0.947 . S
H231 C202 0.948 . S
H232 C208 0.982 . S
H233 C208 0.979 . S
H234 C208 0.977 . S
H235 C209 0.979 . S
H236 C209 0.980 . S
H237 C209 0.983 . S
H238 C182 0.947 . S
C239 C182 1.392 . S
C239 C183 1.419 . S
C239 H221 0.948 . S
C240 C241 1.391 . S
C240 C244 1.391 . S
C240 H282 0.948 . S
C241 C240 1.391 . S
C241 C242 1.391 . S
C242 C241 1.391 . S
C242 H298 0.947 . S
C242 C299 1.392 . S
C243 C244 1.391 . S
C243 C247 1.397 . S
C243 C299 1.419 . S
C244 C240 1.391 . S
C244 C243 1.391 . S
C244 C245 1.399 . S
C245 C244 1.399 . S
C245 C248 1.396 . S
C245 C257 1.453 . S
C245 C258 1.684 . S
H246 C270 0.948 . S
C247 C243 1.397 . S
C247 C248 1.394 . S
C247 C266 1.723 . S
C248 C245 1.396 . S
C248 C247 1.394 . S
C248 C278 1.723 . S
H249 C272 0.947 . S
H250 C273 0.948 . S
H251 C279 0.982 . S
H252 C280 0.979 . S
H253 C280 0.980 . S
H254 C280 0.983 . S
H255 C279 0.979 . S
H256 C279 0.977 . S
C257 C245 1.453 . S
C257 H286 0.982 . S
C257 H287 0.979 . S
C257 H288 0.977 . S
C258 C245 1.684 . S
C258 H283 0.979 . S
C258 H284 0.980 . S
C258 H285 0.983 . S
C259 C260 1.391 . S
C259 C264 1.391 . S
C259 H289 0.948 . S
C260 C259 1.391 . S
C260 C261 1.391 . S
C261 C260 1.391 . S
C261 C262 1.392 . S
C261 H290 0.947 . S
C262 C261 1.392 . S
C262 C263 1.419 . S
C262 H291 0.948 . S
C263 C262 1.419 . S
C263 C264 1.391 . S
C263 C267 1.397 . S
C264 C259 1.391 . S
C264 C263 1.391 . S
C264 C265 1.399 . S
C265 C264 1.399 . S
C265 C266 1.396 . S
C265 C268 1.453 . S
C265 C269 1.684 . S
C266 C247 1.723 . S
C266 C265 1.396 . S
C266 C267 1.394 . S
C267 C263 1.397 . S
C267 C266 1.394 . S
C267 C277 1.723 . S
C268 C265 1.453 . S
C268 H292 0.982 . S
C268 H293 0.979 . S
C268 H294 0.977 . S
C269 C265 1.684 . S
C269 H295 0.979 . S
C269 H296 0.980 . S
C269 H297 0.983 . S
C270 H246 0.948 . S
C270 C271 1.391 . S
C270 C275 1.391 1_556 S
C271 C270 1.391 . S
C271 C272 1.391 . S
C272 H249 0.947 . S
C272 C271 1.391 . S
C272 C273 1.392 . S
C273 H250 0.948 . S
C273 C272 1.392 . S
C273 C274 1.419 1_556 S
C274 C273 1.419 1_554 S
C274 C275 1.391 . S
C274 C278 1.397 . S
C275 C270 1.391 1_554 S
C275 C274 1.391 . S
C275 C276 1.399 . S
C276 C275 1.399 . S
C276 C277 1.396 . S
C276 C279 1.453 . S
C276 C280 1.684 . S
C277 C267 1.723 . S
C277 C276 1.396 . S
C277 C278 1.394 . S
C278 C248 1.723 . S
C278 C274 1.397 . S
C278 C277 1.394 . S
C279 H251 0.982 . S
C279 H255 0.979 . S
C279 H256 0.977 . S
C279 C276 1.453 . S
C280 H252 0.979 . S
C280 H253 0.980 . S
C280 H254 0.983 . S
C280 C276 1.684 . S
H281 C299 0.948 . S
H282 C240 0.948 . S
H283 C258 0.979 . S
H284 C258 0.980 . S
H285 C258 0.983 . S
H286 C257 0.982 . S
H287 C257 0.979 . S
H288 C257 0.977 . S
H289 C259 0.948 . S
H290 C261 0.947 . S
H291 C262 0.948 . S
H292 C268 0.982 . S
H293 C268 0.979 . S
H294 C268 0.977 . S
H295 C269 0.979 . S
H296 C269 0.980 . S
H297 C269 0.983 . S
H298 C242 0.947 . S
C299 C242 1.392 . S
C299 C243 1.419 . S
C299 H281 0.948 . S
C300 C301 1.391 . S
C300 C304 1.391 . S
C300 H342 0.948 . S
C301 C300 1.391 . S
C301 C302 1.391 . S
C302 C301 1.391 . S
C302 H358 0.947 . S
C302 C359 1.392 . S
C303 C304 1.391 . S
C303 C307 1.397 1_655 S
C303 C359 1.419 . S
C304 C300 1.391 . S
C304 C303 1.391 . S
C304 C305 1.399 . S
C305 C304 1.399 . S
C305 C308 1.396 1_655 S
C305 C317 1.453 1_655 S
C305 C318 1.684 . S
H306 C330 0.948 . S
C307 C303 1.397 1_455 S
C307 C308 1.395 . S
C307 C326 1.723 . S
C308 C305 1.396 1_455 S
C308 C307 1.395 . S
C308 C338 1.723 . S
H309 C332 0.947 . S
H310 C333 0.948 . S
H311 C339 0.982 . S
H312 C340 0.979 . S
H313 C340 0.980 1_556 S
H314 C340 0.983 . S
H315 C339 0.979 . S
H316 C339 0.977 . S
C317 C305 1.453 1_455 S
C317 H346 0.982 . S
C317 H347 0.979 . S
C317 H348 0.977 . S
C318 C305 1.684 . S
C318 H343 0.979 . S
C318 H344 0.980 . S
C318 H345 0.983 . S
C319 C320 1.391 . S
C319 C324 1.391 1_556 S
C319 H349 0.948 . S
C320 C319 1.391 . S
C320 C321 1.391 . S
C321 C320 1.391 . S
C321 C322 1.392 . S
C321 H350 0.947 . S
C322 C321 1.392 . S
C322 C323 1.419 1_556 S
C322 H351 0.948 . S
C323 C322 1.419 1_554 S
C323 C324 1.391 . S
C323 C327 1.396 1_655 S
C324 C319 1.391 1_554 S
C324 C323 1.391 . S
C324 C325 1.399 . S
C325 C324 1.399 . S
C325 C326 1.396 1_655 S
C325 C328 1.453 1_655 S
C325 C329 1.684 . S
C326 C307 1.723 . S
C326 C325 1.396 1_455 S
C326 C327 1.395 . S
C327 C323 1.396 1_455 S
C327 C326 1.395 . S
C327 C337 1.723 . S
C328 C325 1.453 1_455 S
C328 H352 0.982 . S
C328 H353 0.979 . S
C328 H354 0.977 . S
C329 C325 1.684 . S
C329 H355 0.979 . S
C329 H356 0.980 . S
C329 H357 0.983 . S
C330 H306 0.948 . S
C330 C331 1.391 . S
C330 C335 1.391 . S
C331 C330 1.391 . S
C331 C332 1.391 . S
C332 H309 0.947 . S
C332 C331 1.391 . S
C332 C333 1.392 . S
C333 H310 0.948 . S
C333 C332 1.392 . S
C333 C334 1.419 . S
C334 C333 1.419 . S
C334 C335 1.391 . S
C334 C338 1.396 1_655 S
C335 C330 1.391 . S
C335 C334 1.391 . S
C335 C336 1.399 . S
C336 C335 1.399 . S
C336 C337 1.396 1_655 S
C336 C339 1.453 1_655 S
C336 C340 1.684 . S
C337 C327 1.723 . S
C337 C336 1.396 1_455 S
C337 C338 1.395 . S
C338 C308 1.723 . S
C338 C334 1.396 1_455 S
C338 C337 1.395 . S
C339 H311 0.982 . S
C339 H315 0.979 . S
C339 H316 0.977 . S
C339 C336 1.453 1_455 S
C340 H312 0.979 . S
C340 H313 0.980 1_554 S
C340 H314 0.983 . S
C340 C336 1.684 . S
H341 C359 0.948 . S
H342 C300 0.948 . S
H343 C318 0.979 . S
H344 C318 0.980 . S
H345 C318 0.983 . S
H346 C317 0.982 . S
H347 C317 0.979 . S
H348 C317 0.977 . S
H349 C319 0.948 . S
H350 C321 0.947 . S
H351 C322 0.948 . S
H352 C328 0.982 . S
H353 C328 0.979 . S
H354 C328 0.977 . S
H355 C329 0.979 . S
H356 C329 0.980 . S
H357 C329 0.983 . S
H358 C302 0.947 . S
C359 C302 1.392 . S
C359 C303 1.419 . S
C359 H341 0.948 . S
C360 C361 1.391 . S
C360 C364 1.391 . S
C360 H402 0.948 . S
C361 C360 1.391 . S
C361 C362 1.391 . S
C362 C361 1.391 . S
C362 H418 0.947 . S
C362 C419 1.392 1_556 S
C363 C364 1.391 1_554 S
C363 C367 1.397 . S
C363 C419 1.419 . S
C364 C360 1.391 . S
C364 C363 1.391 1_556 S
C364 C365 1.399 1_556 S
C365 C364 1.399 1_554 S
C365 C368 1.396 . S
C365 C377 1.453 . S
C365 C378 1.684 1_554 S
H366 C390 0.948 . S
C367 C363 1.397 . S
C367 C368 1.394 . S
C367 C386 1.723 . S
C368 C365 1.396 . S
C368 C367 1.394 . S
C368 C398 1.723 . S
H369 C392 0.947 . S
H370 C393 0.948 . S
H371 C399 0.982 . S
H372 C400 0.979 . S
H373 C400 0.980 . S
H374 C400 0.983 . S
H375 C399 0.979 . S
H376 C399 0.977 . S
C377 C365 1.453 . S
C377 H406 0.982 . S
C377 H407 0.979 1_554 S
C377 H408 0.977 . S
C378 C365 1.684 1_556 S
C378 H403 0.979 . S
C378 H404 0.980 1_556 S
C378 H405 0.983 . S
C379 C380 1.391 . S
C379 C384 1.391 . S
C379 H409 0.948 . S
C380 C379 1.391 . S
C380 C381 1.391 . S
C381 C380 1.391 . S
C381 C382 1.392 . S
C381 H410 0.947 . S
C382 C381 1.392 . S
C382 C383 1.419 . S
C382 H411 0.948 . S
C383 C382 1.419 . S
C383 C384 1.391 . S
C383 C387 1.397 . S
C384 C379 1.391 . S
C384 C383 1.391 . S
C384 C385 1.399 . S
C385 C384 1.399 . S
C385 C386 1.396 . S
C385 C388 1.453 . S
C385 C389 1.684 . S
C386 C367 1.723 . S
C386 C385 1.396 . S
C386 C387 1.394 . S
C387 C383 1.397 . S
C387 C386 1.394 . S
C387 C397 1.723 . S
C388 C385 1.453 . S
C388 H412 0.982 . S
C388 H413 0.979 . S
C388 H414 0.977 . S
C389 C385 1.684 . S
C389 H415 0.979 . S
C389 H416 0.980 . S
C389 H417 0.983 . S
C390 H366 0.948 . S
C390 C391 1.391 . S
C390 C395 1.391 . S
C391 C390 1.391 . S
C391 C392 1.391 . S
C392 H369 0.947 . S
C392 C391 1.391 . S
C392 C393 1.392 . S
C393 H370 0.948 . S
C393 C392 1.392 . S
C393 C394 1.419 . S
C394 C393 1.419 . S
C394 C395 1.391 . S
C394 C398 1.397 . S
C395 C390 1.391 . S
C395 C394 1.391 . S
C395 C396 1.399 . S
C396 C395 1.399 . S
C396 C397 1.396 . S
C396 C399 1.453 . S
C396 C400 1.684 . S
C397 C387 1.723 . S
C397 C396 1.396 . S
C397 C398 1.394 . S
C398 C368 1.723 . S
C398 C394 1.397 . S
C398 C397 1.394 . S
C399 H371 0.982 . S
C399 H375 0.979 . S
C399 H376 0.977 . S
C399 C396 1.453 . S
C400 H372 0.979 . S
C400 H373 0.980 . S
C400 H374 0.983 . S
C400 C396 1.684 . S
H401 C419 0.948 . S
H402 C360 0.948 . S
H403 C378 0.979 . S
H404 C378 0.980 1_554 S
H405 C378 0.983 . S
H406 C377 0.982 . S
H407 C377 0.979 1_556 S
H408 C377 0.977 . S
H409 C379 0.948 . S
H410 C381 0.947 . S
H411 C382 0.948 . S
H412 C388 0.982 . S
H413 C388 0.979 . S
H414 C388 0.977 . S
H415 C389 0.979 . S
H416 C389 0.980 . S
H417 C389 0.983 . S
H418 C362 0.947 . S
C419 C362 1.392 1_554 S
C419 C363 1.419 . S
C419 H401 0.948 . S
C420 C421 1.391 . S
C420 C424 1.391 . S
C420 H462 0.948 . S
C421 C420 1.391 . S
C421 C422 1.391 . S
C422 C421 1.391 . S
C422 H478 0.947 . S
C422 C479 1.392 1_556 S
C423 C424 1.391 1_554 S
C423 C427 1.397 . S
C423 C479 1.419 . S
C424 C420 1.391 . S
C424 C423 1.391 1_556 S
C424 C425 1.399 1_556 S
C425 C424 1.399 1_554 S
C425 C428 1.396 . S
C425 C437 1.453 . S
C425 C438 1.684 1_554 S
H426 C450 0.948 . S
C427 C423 1.397 . S
C427 C428 1.394 . S
C427 C446 1.723 . S
C428 C425 1.396 . S
C428 C427 1.394 . S
C428 C458 1.723 . S
H429 C452 0.947 . S
H430 C453 0.948 . S
H431 C459 0.982 . S
H432 C460 0.979 . S
H433 C460 0.980 . S
H434 C460 0.983 . S
H435 C459 0.979 . S
H436 C459 0.977 . S
C437 C425 1.453 . S
C437 H466 0.982 . S
C437 H467 0.979 1_554 S
C437 H468 0.977 . S
C438 C425 1.684 1_556 S
C438 H463 0.979 . S
C438 H464 0.980 1_556 S
C438 H465 0.983 . S
C439 C440 1.391 . S
C439 C444 1.391 . S
C439 H469 0.948 . S
C440 C439 1.391 . S
C440 C441 1.391 . S
C441 C440 1.391 . S
C441 C442 1.392 . S
C441 H470 0.947 . S
C442 C441 1.392 . S
C442 C443 1.419 . S
C442 H471 0.948 . S
C443 C442 1.419 . S
C443 C444 1.391 . S
C443 C447 1.397 . S
C444 C439 1.391 . S
C444 C443 1.391 . S
C444 C445 1.399 . S
C445 C444 1.399 . S
C445 C446 1.396 . S
C445 C448 1.453 . S
C445 C449 1.684 . S
C446 C427 1.723 . S
C446 C445 1.396 . S
C446 C447 1.394 . S
C447 C443 1.397 . S
C447 C446 1.394 . S
C447 C457 1.723 . S
C448 C445 1.453 . S
C448 H472 0.982 . S
C448 H473 0.979 . S
C448 H474 0.977 . S
C449 C445 1.684 . S
C449 H475 0.979 . S
C449 H476 0.980 . S
C449 H477 0.983 . S
C450 H426 0.948 . S
C450 C451 1.391 . S
C450 C455 1.391 . S
C451 C450 1.391 . S
C451 C452 1.391 . S
C452 H429 0.947 . S
C452 C451 1.391 . S
C452 C453 1.392 . S
C453 H430 0.948 . S
C453 C452 1.392 . S
C453 C454 1.419 . S
C454 C453 1.419 . S
C454 C455 1.391 . S
C454 C458 1.397 . S
C455 C450 1.391 . S
C455 C454 1.391 . S
C455 C456 1.399 . S
C456 C455 1.399 . S
C456 C457 1.396 . S
C456 C459 1.453 . S
C456 C460 1.684 . S
C457 C447 1.723 . S
C457 C456 1.396 . S
C457 C458 1.394 . S
C458 C428 1.723 . S
C458 C454 1.397 . S
C458 C457 1.394 . S
C459 H431 0.982 . S
C459 H435 0.979 . S
C459 H436 0.977 . S
C459 C456 1.453 . S
C460 H432 0.979 . S
C460 H433 0.980 . S
C460 H434 0.983 . S
C460 C456 1.684 . S
H461 C479 0.948 . S
H462 C420 0.948 . S
H463 C438 0.979 . S
H464 C438 0.980 1_554 S
H465 C438 0.983 . S
H466 C437 0.982 . S
H467 C437 0.979 1_556 S
H468 C437 0.977 . S
H469 C439 0.948 . S
H470 C441 0.947 . S
H471 C442 0.948 . S
H472 C448 0.982 . S
H473 C448 0.979 . S
H474 C448 0.977 . S
H475 C449 0.979 . S
H476 C449 0.980 . S
H477 C449 0.983 . S
H478 C422 0.947 . S
C479 C422 1.392 1_554 S
C479 C423 1.419 . S
C479 H461 0.948 . S
Zn480 O486 1.969 . S
Zn480 O487 1.965 1_655 S
Zn480 O491 2.024 1_655 S
Zn480 O496 1.969 . S
Zn481 O488 1.969 . S
Zn481 O494 1.969 . S
Zn481 O495 1.965 1_455 S
Zn481 O497 2.024 1_455 S
C482 O483 1.229 1_455 S
C482 O491 1.058 . S
O483 C482 1.229 1_655 S
C484 O485 1.229 1_655 S
C484 O497 1.058 . S
O485 C484 1.229 1_455 S
O486 Zn480 1.969 . S
O486 C489 1.267 . S
O487 Zn480 1.965 1_455 S
O487 C498 1.260 . S
O488 Zn481 1.969 . S
O488 C498 1.258 1_565 S
C489 O486 1.267 . S
C489 O490 1.228 1_655 S
O490 C489 1.228 1_455 S
O491 Zn480 2.024 1_455 S
O491 C482 1.058 . S
C492 O493 1.228 1_455 S
C492 O494 1.267 . S
O493 C492 1.228 1_655 S
O494 Zn481 1.969 . S
O494 C492 1.267 . S
O495 Zn481 1.965 1_655 S
O495 C499 1.260 1_565 S
O496 Zn480 1.969 . S
O496 C499 1.258 . S
O497 Zn481 2.024 1_655 S
O497 C484 1.058 . S
C498 O487 1.260 . S
C498 O488 1.258 1_545 S
C499 O495 1.260 1_545 S
C499 O496 1.258 . S
Zn500 O506 1.969 . S
Zn500 O507 1.965 . S
Zn500 O511 2.024 . S
Zn500 O516 1.969 1_545 S
Zn501 O508 1.969 1_565 S
Zn501 O514 1.969 1_565 S
Zn501 O515 1.965 . S
Zn501 O517 2.024 . S
C502 O503 1.229 . S
C502 O511 1.058 . S
O503 C502 1.229 . S
C504 O505 1.229 . S
C504 O517 1.058 . S
O505 C504 1.229 . S
O506 Zn500 1.969 . S
O506 C509 1.267 . S
O507 Zn500 1.965 . S
O507 C518 1.260 . S
O508 Zn501 1.969 1_545 S
O508 C518 1.258 . S
C509 O506 1.267 . S
C509 O510 1.228 . S
O510 C509 1.228 . S
O511 Zn500 2.024 . S
O511 C502 1.058 . S
C512 O513 1.228 . S
C512 O514 1.267 1_565 S
O513 C512 1.228 . S
O514 Zn501 1.969 1_545 S
O514 C512 1.267 1_545 S
O515 Zn501 1.965 . S
O515 C519 1.260 . S
O516 Zn500 1.969 1_565 S
O516 C519 1.258 . S
O517 Zn501 2.024 . S
O517 C504 1.058 . S
C518 O507 1.260 . S
C518 O508 1.258 . S
C519 O515 1.260 . S
C519 O516 1.258 . S
Zn520 O526 1.969 . S
Zn520 O527 1.965 . S
Zn520 O531 2.024 . S
Zn520 O536 1.969 . S
Zn521 O528 1.969 . S
Zn521 O534 1.969 . S
Zn521 O535 1.965 . S
Zn521 O537 2.024 . S
C522 O523 1.229 . S
C522 O531 1.058 . S
O523 C522 1.229 . S
C524 O525 1.229 . S
C524 O537 1.058 . S
O525 C524 1.229 . S
O526 Zn520 1.969 . S
O526 C529 1.267 . S
O527 Zn520 1.965 . S
O527 C538 1.260 . S
O528 Zn521 1.969 . S
O528 C538 1.258 . S
C529 O526 1.267 . S
C529 O530 1.228 . S
O530 C529 1.228 . S
O531 Zn520 2.024 . S
O531 C522 1.058 . S
C532 O533 1.228 . S
C532 O534 1.267 . S
O533 C532 1.228 . S
O534 Zn521 1.969 . S
O534 C532 1.267 . S
O535 Zn521 1.965 . S
O535 C539 1.260 . S
O536 Zn520 1.969 . S
O536 C539 1.258 . S
O537 Zn521 2.024 . S
O537 C524 1.058 . S
C538 O527 1.260 . S
C538 O528 1.258 . S
C539 O535 1.260 . S
C539 O536 1.258 . S
Zn540 O546 1.969 . S
Zn540 O547 1.965 . S
Zn540 O551 2.024 . S
Zn540 O556 1.969 . S
Zn541 O548 1.969 . S
Zn541 O554 1.969 . S
Zn541 O555 1.965 . S
Zn541 O557 2.024 . S
C542 O543 1.229 . S
C542 O551 1.058 . S
O543 C542 1.229 . S
C544 O545 1.229 . S
C544 O557 1.058 . S
O545 C544 1.229 . S
O546 Zn540 1.969 . S
O546 C549 1.267 . S
O547 Zn540 1.965 . S
O547 C558 1.260 1_455 S
O548 Zn541 1.969 . S
O548 C558 1.258 . S
C549 O546 1.267 . S
C549 O550 1.228 . S
O550 C549 1.228 . S
O551 Zn540 2.024 . S
O551 C542 1.058 . S
C552 O553 1.228 . S
C552 O554 1.267 . S
O553 C552 1.228 . S
O554 Zn541 1.969 . S
O554 C552 1.267 . S
O555 Zn541 1.965 . S
O555 C559 1.260 1_655 S
O556 Zn540 1.969 . S
O556 C559 1.258 . S
O557 Zn541 2.024 . S
O557 C544 1.058 . S
C558 O547 1.260 1_655 S
C558 O548 1.258 . S
C559 O555 1.260 1_455 S
C559 O556 1.258 . S
H560 C566 0.930 . S
H561 C570 0.930 . S
H562 C575 0.929 . S
H563 C573 0.929 1_565 S
H564 C568 0.929 . S
H565 C574 0.929 . S
C566 H560 0.930 . S
C566 C567 1.367 . S
C566 C574 1.378 . S
C567 C566 1.367 . S
C567 C575 1.433 . S
C568 H564 0.929 . S
C568 C570 1.378 . S
C568 C572 1.350 . S
C569 C572 1.463 . S
C569 C574 1.350 . S
C569 N577 1.427 . S
C570 H561 0.930 . S
C570 C568 1.378 . S
C570 C571 1.367 . S
C571 C570 1.367 . S
C571 C573 1.433 . S
C572 C568 1.350 . S
C572 C569 1.463 . S
C572 N576 1.427 . S
C573 H563 0.929 1_545 S
C573 C571 1.433 . S
C573 N576 1.384 . S
C574 H565 0.929 . S
C574 C566 1.378 . S
C574 C569 1.350 . S
C575 H562 0.929 . S
C575 C567 1.433 . S
C575 N577 1.384 . S
N576 C572 1.427 . S
N576 C573 1.384 . S
N577 C569 1.427 . S
N577 C575 1.384 . S
H578 C584 0.930 . S
H579 C588 0.930 . S
H580 C593 0.929 . S
H581 C591 0.929 . S
H582 C586 0.929 . S
H583 C592 0.929 . S
C584 H578 0.930 . S
C584 C585 1.367 . S
C584 C592 1.378 . S
C585 C584 1.367 . S
C585 C593 1.433 . S
C586 H582 0.929 . S
C586 C588 1.378 . S
C586 C590 1.350 . S
C587 C590 1.463 . S
C587 C592 1.350 . S
C587 N595 1.427 . S
C588 H579 0.930 . S
C588 C586 1.378 . S
C588 C589 1.367 . S
C589 C588 1.367 . S
C589 C591 1.433 . S
C590 C586 1.350 . S
C590 C587 1.463 . S
C590 N594 1.427 . S
C591 H581 0.929 . S
C591 C589 1.433 . S
C591 N594 1.384 . S
C592 H583 0.929 . S
C592 C584 1.378 . S
C592 C587 1.350 . S
C593 H580 0.929 . S
C593 C585 1.433 . S
C593 N595 1.384 . S
N594 C590 1.427 . S
N594 C591 1.384 . S
N595 C587 1.427 . S
N595 C593 1.384 . S
H596 C602 0.930 . S
H597 C606 0.930 . S
H598 C611 0.929 . S
H599 C609 0.929 . S
H600 C604 0.929 . S
H601 C610 0.929 . S
C602 H596 0.930 . S
C602 C603 1.367 . S
C602 C610 1.378 . S
C603 C602 1.367 . S
C603 C611 1.433 . S
C604 H600 0.929 . S
C604 C606 1.378 . S
C604 C608 1.350 . S
C605 C608 1.463 . S
C605 C610 1.350 . S
C605 N613 1.427 . S
C606 H597 0.930 . S
C606 C604 1.378 . S
C606 C607 1.367 . S
C607 C606 1.367 . S
C607 C609 1.433 . S
C608 C604 1.350 . S
C608 C605 1.463 . S
C608 N612 1.427 . S
C609 H599 0.929 . S
C609 C607 1.433 . S
C609 N612 1.384 . S
C610 H601 0.929 . S
C610 C602 1.378 . S
C610 C605 1.350 . S
C611 H598 0.929 . S
C611 C603 1.433 . S
C611 N613 1.384 . S
N612 C608 1.427 . S
N612 C609 1.384 . S
N613 C605 1.427 . S
N613 C611 1.384 . S
H614 C620 0.930 . S
H615 C624 0.930 . S
H616 C629 0.929 . S
H617 C627 0.929 . S
H618 C622 0.929 . S
H619 C628 0.929 . S
C620 H614 0.930 . S
C620 C621 1.382 . S
C620 C628 1.378 . S
C621 C620 1.382 . S
C621 C629 1.420 1_655 S
C622 H618 0.929 . S
C622 C624 1.378 . S
C622 C626 1.350 1_455 S
C623 C626 1.463 . S
C623 C628 1.350 . S
C623 N631 1.427 1_655 S
C624 H615 0.930 . S
C624 C622 1.378 . S
C624 C625 1.367 1_455 S
C625 C624 1.367 1_655 S
C625 C627 1.433 . S
C626 C622 1.350 1_655 S
C626 C623 1.463 . S
C626 N630 1.427 . S
C627 H617 0.929 . S
C627 C625 1.433 . S
C627 N630 1.384 . S
C628 H619 0.929 . S
C628 C620 1.378 . S
C628 C623 1.350 . S
C629 H616 0.929 . S
C629 C621 1.420 1_455 S
C629 N631 1.384 . S
N630 C626 1.427 . S
N630 C627 1.384 . S
N631 C623 1.427 1_455 S
N631 C629 1.384 . S
H632 C638 0.930 . S
H633 C642 0.930 1_545 S
H634 C647 0.929 . S
H635 C645 0.929 . S
H636 C640 0.929 . S
H637 C646 0.929 . S
C638 H632 0.930 . S
C638 C639 1.367 . S
C638 C646 1.378 . S
C639 C638 1.367 . S
C639 C647 1.433 . S
C640 H636 0.929 . S
C640 C642 1.378 . S
C640 C644 1.350 . S
C641 C644 1.463 . S
C641 C646 1.350 . S
C641 N649 1.427 . S
C642 H633 0.930 1_565 S
C642 C640 1.378 . S
C642 C643 1.367 . S
C643 C642 1.367 . S
C643 C645 1.433 . S
C644 C640 1.350 . S
C644 C641 1.463 . S
C644 N648 1.427 . S
C645 H635 0.929 . S
C645 C643 1.433 . S
C645 N648 1.384 . S
C646 H637 0.929 . S
C646 C638 1.378 . S
C646 C641 1.350 . S
C647 H634 0.929 . S
C647 C639 1.433 . S
C647 N649 1.384 . S
N648 C644 1.427 . S
N648 C645 1.384 . S
N649 C641 1.427 . S
N649 C647 1.384 . S
H650 C656 0.930 . S
H651 C660 0.930 . S
H652 C665 0.929 . S
H653 C663 0.929 . S
H654 C658 0.929 . S
H655 C664 0.929 . S
C656 H650 0.930 . S
C656 C657 1.367 . S
C656 C664 1.378 . S
C657 C656 1.367 . S
C657 C665 1.433 . S
C658 H654 0.929 . S
C658 C660 1.378 . S
C658 C662 1.350 . S
C659 C662 1.463 . S
C659 C664 1.350 . S
C659 N667 1.427 . S
C660 H651 0.930 . S
C660 C658 1.378 . S
C660 C661 1.367 . S
C661 C660 1.367 . S
C661 C663 1.433 . S
C662 C658 1.350 . S
C662 C659 1.463 . S
C662 N666 1.427 . S
C663 H653 0.929 . S
C663 C661 1.433 . S
C663 N666 1.384 . S
C664 H655 0.929 . S
C664 C656 1.378 . S
C664 C659 1.350 . S
C665 H652 0.929 . S
C665 C657 1.433 . S
C665 N667 1.384 . S
N666 C662 1.427 . S
N666 C663 1.384 . S
N667 C659 1.427 . S
N667 C665 1.384 . S
H668 C674 0.930 . S
H669 C678 0.930 . S
H670 C683 0.929 . S
H671 C681 0.929 . S
H672 C676 0.929 . S
H673 C682 0.929 . S
C674 H668 0.930 . S
C674 C675 1.367 . S
C674 C682 1.378 . S
C675 C674 1.367 . S
C675 C683 1.433 . S
C676 H672 0.929 . S
C676 C678 1.378 . S
C676 C680 1.350 . S
C677 C680 1.463 . S
C677 C682 1.350 . S
C677 N685 1.427 . S
C678 H669 0.930 . S
C678 C676 1.378 . S
C678 C679 1.367 . S
C679 C678 1.367 . S
C679 C681 1.433 . S
C680 C676 1.350 . S
C680 C677 1.463 . S
C680 N684 1.427 . S
C681 H671 0.929 . S
C681 C679 1.433 . S
C681 N684 1.384 . S
C682 H673 0.929 . S
C682 C674 1.378 . S
C682 C677 1.350 . S
C683 H670 0.929 . S
C683 C675 1.433 . S
C683 N685 1.384 . S
N684 C680 1.427 . S
N684 C681 1.384 . S
N685 C677 1.427 . S
N685 C683 1.384 . S
H686 C692 0.930 . S
H687 C696 0.930 . S
H688 C701 0.929 . S
H689 C699 0.929 . S
H690 C694 0.929 . S
H691 C700 0.929 . S
C692 H686 0.930 . S
C692 C693 1.364 . S
C692 C700 1.378 . S
C693 C692 1.364 . S
C693 C701 1.436 1_655 S
C694 H690 0.929 . S
C694 C696 1.378 . S
C694 C698 1.350 . S
C695 C698 1.463 . S
C695 C700 1.350 1_455 S
C695 N703 1.427 . S
C696 H687 0.930 . S
C696 C694 1.378 . S
C696 C697 1.367 . S
C697 C696 1.367 . S
C697 C699 1.433 1_455 S
C698 C694 1.350 . S
C698 C695 1.463 . S
C698 N702 1.427 1_455 S
C699 H689 0.929 . S
C699 C697 1.433 1_655 S
C699 N702 1.384 . S
C700 H691 0.929 . S
C700 C692 1.378 . S
C700 C695 1.350 1_655 S
C701 H688 0.929 . S
C701 C693 1.436 1_455 S
C701 N703 1.384 . S
N702 C698 1.427 1_655 S
N702 C699 1.384 . S
N703 C695 1.427 . S
N703 C701 1.384 . S
H704 C710 0.930 . S
H705 C714 0.930 1_455 S
H706 C719 0.929 . S
H707 C717 0.929 . S
H708 C712 0.942 . S
H709 C718 0.929 . S
C710 H704 0.930 . S
C710 C711 1.362 1_655 S
C710 C718 1.378 . S
C711 C710 1.362 1_455 S
C711 C719 1.437 . S
C712 H708 0.942 . S
C712 C714 1.375 1_455 S
C712 C716 1.340 1_455 S
C713 C716 1.463 . S
C713 C718 1.350 . S
C713 N721 1.427 1_655 S
C714 H705 0.930 1_655 S
C714 C712 1.375 1_655 S
C714 C715 1.367 . S
C715 C714 1.367 . S
C715 C717 1.433 . S
C716 C712 1.340 1_655 S
C716 C713 1.463 . S
C716 N720 1.427 . S
C717 H707 0.929 . S
C717 C715 1.433 . S
C717 N720 1.384 . S
C718 H709 0.929 . S
C718 C710 1.378 . S
C718 C713 1.350 . S
C719 H706 0.929 . S
C719 C711 1.437 . S
C719 N721 1.384 . S
N720 C716 1.427 . S
N720 C717 1.384 . S
N721 C713 1.427 1_455 S
N721 C719 1.384 . S
H722 C728 0.930 . S
H723 C732 0.930 . S
H724 C737 0.929 . S
H725 C735 0.929 . S
H726 C730 0.929 . S
H727 C736 0.929 . S
C728 H722 0.930 . S
C728 C729 1.367 . S
C728 C736 1.378 . S
C729 C728 1.367 . S
C729 C737 1.433 . S
C730 H726 0.929 . S
C730 C732 1.378 . S
C730 C734 1.350 . S
C731 C734 1.463 . S
C731 C736 1.350 . S
C731 N739 1.427 . S
C732 H723 0.930 . S
C732 C730 1.378 . S
C732 C733 1.367 . S
C733 C732 1.367 . S
C733 C735 1.433 . S
C734 C730 1.350 . S
C734 C731 1.463 . S
C734 N738 1.427 . S
C735 H725 0.929 . S
C735 C733 1.433 . S
C735 N738 1.384 . S
C736 H727 0.929 . S
C736 C728 1.378 . S
C736 C731 1.350 . S
C737 H724 0.929 . S
C737 C729 1.433 . S
C737 N739 1.384 . S
N738 C734 1.427 . S
N738 C735 1.384 . S
N739 C731 1.427 . S
N739 C737 1.384 . S
H740 C746 0.930 . S
H741 C750 0.930 . S
H742 C755 0.929 . S
H743 C753 0.929 . S
H744 C748 0.929 . S
H745 C754 0.929 . S
C746 H740 0.930 . S
C746 C747 1.367 . S
C746 C754 1.378 . S
C747 C746 1.367 . S
C747 C755 1.433 . S
C748 H744 0.929 . S
C748 C750 1.378 . S
C748 C752 1.350 . S
C749 C752 1.463 . S
C749 C754 1.350 . S
C749 N757 1.427 . S
C750 H741 0.930 . S
C750 C748 1.378 . S
C750 C751 1.367 . S
C751 C750 1.367 . S
C751 C753 1.433 . S
C752 C748 1.350 . S
C752 C749 1.463 . S
C752 N756 1.427 . S
C753 H743 0.929 . S
C753 C751 1.433 . S
C753 N756 1.384 . S
C754 H745 0.929 . S
C754 C746 1.378 . S
C754 C749 1.350 . S
C755 H742 0.929 . S
C755 C747 1.433 . S
C755 N757 1.384 . S
N756 C752 1.427 . S
N756 C753 1.384 . S
N757 C749 1.427 . S
N757 C755 1.384 . S
H758 C764 0.930 . S
H759 C768 0.930 . S
H760 C773 0.929 . S
H761 C771 0.929 . S
H762 C766 0.929 . S
H763 C772 0.929 . S
C764 H758 0.930 . S
C764 C765 1.367 . S
C764 C772 1.378 . S
C765 C764 1.367 . S
C765 C773 1.433 . S
C766 H762 0.929 . S
C766 C768 1.378 . S
C766 C770 1.350 . S
C767 C770 1.463 . S
C767 C772 1.350 . S
C767 N775 1.427 . S
C768 H759 0.930 . S
C768 C766 1.378 . S
C768 C769 1.367 . S
C769 C768 1.367 . S
C769 C771 1.433 . S
C770 C766 1.350 . S
C770 C767 1.463 . S
C770 N774 1.427 . S
C771 H761 0.929 . S
C771 C769 1.433 . S
C771 N774 1.384 . S
C772 H763 0.929 . S
C772 C764 1.378 . S
C772 C767 1.350 . S
C773 H760 0.929 . S
C773 C765 1.433 . S
C773 N775 1.384 . S
N774 C770 1.427 . S
N774 C771 1.384 . S
N775 C767 1.427 . S
N775 C773 1.384 . S
H776 C782 0.930 . S
H777 C786 0.930 . S
H778 C791 0.929 . S
H779 C789 0.929 . S
H780 C784 0.929 . S
H781 C790 0.929 . S
C782 H776 0.930 . S
C782 C783 1.367 . S
C782 C790 1.378 . S
C783 C782 1.367 . S
C783 C791 1.433 1_655 S
C784 H780 0.929 . S
C784 C786 1.378 . S
C784 C788 1.350 . S
C785 C788 1.463 . S
C785 C790 1.350 1_455 S
C785 N793 1.427 . S
C786 H777 0.930 . S
C786 C784 1.378 . S
C786 C787 1.367 . S
C787 C786 1.367 . S
C787 C789 1.433 1_455 S
C788 C784 1.350 . S
C788 C785 1.463 . S
C788 N792 1.427 1_455 S
C789 H779 0.929 . S
C789 C787 1.433 1_655 S
C789 N792 1.384 . S
C790 H781 0.929 . S
C790 C782 1.378 . S
C790 C785 1.350 1_655 S
C791 H778 0.929 . S
C791 C783 1.433 1_455 S
C791 N793 1.384 . S
N792 C788 1.427 1_655 S
N792 C789 1.384 . S
N793 C785 1.427 . S
N793 C791 1.384 . S
H794 C800 0.930 . S
H795 C804 0.944 . S
H796 C809 0.929 . S
H797 C807 0.929 . S
H798 C802 0.929 . S
H799 C808 0.929 . S
C800 H794 0.930 . S
C800 C801 1.367 . S
C800 C808 1.378 . S
C801 C800 1.367 . S
C801 C809 1.433 . S
C802 H798 0.929 . S
C802 C804 1.378 . S
C802 C806 1.350 . S
C803 C806 1.463 . S
C803 C808 1.350 . S
C803 N811 1.427 . S
C804 H795 0.944 . S
C804 C802 1.378 . S
C804 C805 1.367 . S
C805 C804 1.367 . S
C805 C807 1.433 . S
C806 C802 1.350 . S
C806 C803 1.463 . S
C806 N810 1.427 . S
C807 H797 0.929 . S
C807 C805 1.433 . S
C807 N810 1.384 . S
C808 H799 0.929 . S
C808 C800 1.378 . S
C808 C803 1.350 . S
C809 H796 0.929 . S
C809 C801 1.433 . S
C809 N811 1.384 . S
N810 C806 1.427 . S
N810 C807 1.384 . S
N811 C803 1.427 . S
N811 C809 1.384 . S
H812 C818 0.930 . S
H813 C822 0.930 . S
H814 C827 0.929 . S
H815 C825 0.929 . S
H816 C820 0.929 . S
H817 C826 0.929 . S
C818 H812 0.930 . S
C818 C819 1.367 . S
C818 C826 1.378 . S
C819 C818 1.367 . S
C819 C827 1.433 . S
C820 H816 0.929 . S
C820 C822 1.378 . S
C820 C824 1.350 . S
C821 C824 1.463 . S
C821 C826 1.350 . S
C821 N829 1.427 . S
C822 H813 0.930 . S
C822 C820 1.378 . S
C822 C823 1.367 . S
C823 C822 1.367 . S
C823 C825 1.433 . S
C824 C820 1.350 . S
C824 C821 1.463 . S
C824 N828 1.427 . S
C825 H815 0.929 . S
C825 C823 1.433 . S
C825 N828 1.384 . S
C826 H817 0.929 . S
C826 C818 1.378 . S
C826 C821 1.350 . S
C827 H814 0.929 . S
C827 C819 1.433 . S
C827 N829 1.384 . S
N828 C824 1.427 . S
N828 C825 1.384 . S
N829 C821 1.427 . S
N829 C827 1.384 . S
H830 C836 0.930 . S
H831 C840 0.930 . S
H832 C845 0.929 . S
H833 C843 0.929 . S
H834 C838 0.929 . S
H835 C844 0.929 . S
C836 H830 0.930 . S
C836 C837 1.367 . S
C836 C844 1.378 . S
C837 C836 1.367 . S
C837 C845 1.433 . S
C838 H834 0.929 . S
C838 C840 1.378 . S
C838 C842 1.350 . S
C839 C842 1.463 . S
C839 C844 1.350 . S
C839 N847 1.427 . S
C840 H831 0.930 . S
C840 C838 1.378 . S
C840 C841 1.367 . S
C841 C840 1.367 . S
C841 C843 1.433 . S
C842 C838 1.350 . S
C842 C839 1.463 . S
C842 N846 1.427 . S
C843 H833 0.929 . S
C843 C841 1.433 . S
C843 N846 1.384 . S
C844 H835 0.929 . S
C844 C836 1.378 . S
C844 C839 1.350 . S
C845 H832 0.929 . S
C845 C837 1.433 . S
C845 N847 1.384 . S
N846 C842 1.427 . S
N846 C843 1.384 . S
N847 C839 1.427 . S
N847 C845 1.384 . S
H848 C854 0.930 . S
H849 C858 0.929 1_655 S
H850 C863 0.929 . S
H851 C861 0.929 . S
H852 C856 0.942 . S
H853 C862 0.929 . S
C854 H848 0.930 . S
C854 C855 1.367 . S
C854 C862 1.378 . S
C855 C854 1.367 . S
C855 C863 1.433 1_455 S
C856 H852 0.942 . S
C856 C858 1.375 1_655 S
C856 C860 1.341 1_655 S
C857 C860 1.463 . S
C857 C862 1.350 . S
C857 N865 1.427 1_455 S
C858 H849 0.929 1_455 S
C858 C856 1.375 1_455 S
C858 C859 1.369 . S
C859 C858 1.369 . S
C859 C861 1.433 . S
C860 C856 1.341 1_455 S
C860 C857 1.463 . S
C860 N864 1.427 . S
C861 H851 0.929 . S
C861 C859 1.433 . S
C861 N864 1.384 . S
C862 H853 0.929 . S
C862 C854 1.378 . S
C862 C857 1.350 . S
C863 H850 0.929 . S
C863 C855 1.433 1_655 S
C863 N865 1.384 . S
N864 C860 1.427 . S
N864 C861 1.384 . S
N865 C857 1.427 1_655 S
N865 C863 1.384 . S
H866 C872 0.930 . S
H867 C876 0.930 . S
H868 C881 0.929 . S
H869 C879 0.929 . S
H870 C874 0.929 . S
H871 C880 0.929 . S
C872 H866 0.930 . S
C872 C873 1.367 . S
C872 C880 1.378 . S
C873 C872 1.367 . S
C873 C881 1.433 . S
C874 H870 0.929 . S
C874 C876 1.378 . S
C874 C878 1.350 . S
C875 C878 1.463 . S
C875 C880 1.350 . S
C875 N883 1.427 . S
C876 H867 0.930 . S
C876 C874 1.378 . S
C876 C877 1.367 . S
C877 C876 1.367 . S
C877 C879 1.433 . S
C878 C874 1.350 . S
C878 C875 1.463 . S
C878 N882 1.427 . S
C879 H869 0.929 . S
C879 C877 1.433 . S
C879 N882 1.384 . S
C880 H871 0.929 . S
C880 C872 1.378 . S
C880 C875 1.350 . S
C881 H868 0.929 . S
C881 C873 1.433 . S
C881 N883 1.384 . S
N882 C878 1.427 . S
N882 C879 1.384 . S
N883 C875 1.427 . S
N883 C881 1.384 . S
H884 C890 0.930 . S
H885 C894 0.930 . S
H886 C899 0.929 . S
H887 C897 0.929 . S
H888 C892 0.929 . S
H889 C898 0.929 . S
C890 H884 0.930 . S
C890 C891 1.367 . S
C890 C898 1.378 . S
C891 C890 1.367 . S
C891 C899 1.433 . S
C892 H888 0.929 . S
C892 C894 1.378 . S
C892 C896 1.350 . S
C893 C896 1.463 . S
C893 C898 1.350 . S
C893 N901 1.427 . S
C894 H885 0.930 . S
C894 C892 1.378 . S
C894 C895 1.367 . S
C895 C894 1.367 . S
C895 C897 1.433 . S
C896 C892 1.350 . S
C896 C893 1.463 . S
C896 N900 1.427 . S
C897 H887 0.929 . S
C897 C895 1.433 . S
C897 N900 1.384 . S
C898 H889 0.929 . S
C898 C890 1.378 . S
C898 C893 1.350 . S
C899 H886 0.929 . S
C899 C891 1.433 . S
C899 N901 1.384 . S
N900 C896 1.427 . S
N900 C897 1.384 . S
N901 C893 1.427 . S
N901 C899 1.384 . S
H902 C908 0.930 . S
H903 C912 0.930 . S
H904 C917 0.929 . S
H905 C915 0.929 . S
H906 C910 0.929 . S
H907 C916 0.929 . S
C908 H902 0.930 . S
C908 C909 1.367 . S
C908 C916 1.378 . S
C909 C908 1.367 . S
C909 C917 1.433 . S
C910 H906 0.929 . S
C910 C912 1.378 . S
C910 C914 1.350 . S
C911 C914 1.463 . S
C911 C916 1.350 . S
C911 N919 1.427 . S
C912 H903 0.930 . S
C912 C910 1.378 . S
C912 C913 1.367 . S
C913 C912 1.367 . S
C913 C915 1.433 . S
C914 C910 1.350 . S
C914 C911 1.463 . S
C914 N918 1.427 . S
C915 H905 0.929 . S
C915 C913 1.433 . S
C915 N918 1.384 . S
C916 H907 0.929 . S
C916 C908 1.378 . S
C916 C911 1.350 . S
C917 H904 0.929 . S
C917 C909 1.433 . S
C917 N919 1.384 . S
N918 C914 1.427 . S
N918 C915 1.384 . S
N919 C911 1.427 . S
N919 C917 1.384 . S
H920 C926 0.930 . S
H921 C930 0.930 . S
H922 C935 0.929 . S
H923 C933 0.929 . S
H924 C928 0.929 . S
H925 C934 0.929 . S
C926 H920 0.930 . S
C926 C927 1.367 . S
C926 C934 1.378 . S
C927 C926 1.367 . S
C927 C935 1.433 1_655 S
C928 H924 0.929 . S
C928 C930 1.378 . S
C928 C932 1.350 1_455 S
C929 C932 1.463 . S
C929 C934 1.350 . S
C929 N937 1.427 1_655 S
C930 H921 0.930 . S
C930 C928 1.378 . S
C930 C931 1.367 1_455 S
C931 C930 1.367 1_655 S
C931 C933 1.433 . S
C932 C928 1.350 1_655 S
C932 C929 1.463 . S
C932 N936 1.427 . S
C933 H923 0.929 . S
C933 C931 1.433 . S
C933 N936 1.384 . S
C934 H925 0.929 . S
C934 C926 1.378 . S
C934 C929 1.350 . S
C935 H922 0.929 . S
C935 C927 1.433 1_455 S
C935 N937 1.384 . S
N936 C932 1.427 . S
N936 C933 1.384 . S
N937 C929 1.427 1_455 S
N937 C935 1.384 . S
H938 C944 0.930 . S
H939 C948 0.930 . S
H940 C953 0.929 . S
H941 C951 0.929 . S
H942 C946 0.929 . S
H943 C952 0.929 . S
C944 H938 0.930 . S
C944 C945 1.367 . S
C944 C952 1.378 . S
C945 C944 1.367 . S
C945 C953 1.433 . S
C946 H942 0.929 . S
C946 C948 1.378 . S
C946 C950 1.350 . S
C947 C950 1.463 . S
C947 C952 1.350 . S
C947 N955 1.427 . S
C948 H939 0.930 . S
C948 C946 1.378 . S
C948 C949 1.367 . S
C949 C948 1.367 . S
C949 C951 1.433 . S
C950 C946 1.350 . S
C950 C947 1.463 . S
C950 N954 1.427 . S
C951 H941 0.929 . S
C951 C949 1.433 . S
C951 N954 1.384 . S
C952 H943 0.929 . S
C952 C944 1.378 . S
C952 C947 1.350 . S
C953 H940 0.929 . S
C953 C945 1.433 . S
C953 N955 1.384 . S
N954 C950 1.427 . S
N954 C951 1.384 . S
N955 C947 1.427 . S
N955 C953 1.384 . S
H956 C962 0.930 . S
H957 C966 0.930 . S
H958 C971 0.929 . S
H959 C969 0.929 . S
H960 C964 0.929 . S
H961 C970 0.929 . S
C962 H956 0.930 . S
C962 C963 1.367 . S
C962 C970 1.378 . S
C963 C962 1.367 . S
C963 C971 1.433 . S
C964 H960 0.929 . S
C964 C966 1.378 . S
C964 C968 1.350 . S
C965 C968 1.463 . S
C965 C970 1.350 . S
C965 N973 1.427 . S
C966 H957 0.930 . S
C966 C964 1.378 . S
C966 C967 1.367 . S
C967 C966 1.367 . S
C967 C969 1.433 . S
C968 C964 1.350 . S
C968 C965 1.463 . S
C968 N972 1.427 . S
C969 H959 0.929 . S
C969 C967 1.433 . S
C969 N972 1.384 . S
C970 H961 0.929 . S
C970 C962 1.378 . S
C970 C965 1.350 . S
C971 H958 0.929 . S
C971 C963 1.433 . S
C971 N973 1.384 . S
N972 C968 1.427 . S
N972 C969 1.384 . S
N973 C965 1.427 . S
N973 C971 1.384 . S
H974 C980 0.930 . S
H975 C984 0.930 . S
H976 C989 0.929 . S
H977 C987 0.929 . S
H978 C982 0.929 . S
H979 C988 0.929 . S
C980 H974 0.930 . S
C980 C981 1.367 . S
C980 C988 1.378 . S
C981 C980 1.367 . S
C981 C989 1.433 . S
C982 H978 0.929 . S
C982 C984 1.378 . S
C982 C986 1.350 . S
C983 C986 1.463 . S
C983 C988 1.350 . S
C983 N991 1.427 . S
C984 H975 0.930 . S
C984 C982 1.378 . S
C984 C985 1.367 . S
C985 C984 1.367 . S
C985 C987 1.433 . S
C986 C982 1.350 . S
C986 C983 1.463 . S
C986 N990 1.427 . S
C987 H977 0.929 . S
C987 C985 1.433 . S
C987 N990 1.384 . S
C988 H979 0.929 . S
C988 C980 1.378 . S
C988 C983 1.350 . S
C989 H976 0.929 . S
C989 C981 1.433 . S
C989 N991 1.384 . S
N990 C986 1.427 . S
N990 C987 1.384 . S
N991 C983 1.427 . S
N991 C989 1.384 . S
C567 C391 1.921 . S
C571 C498 1.871 . S
C589 C518 1.565 . S
C585 C451 1.627 . S
C607 C538 1.832 . S
C603 C241 1.648 . S
C625 C558 1.552 . S
C621 C331 1.454 . S
C643 C499 1.868 1_565 S
C639 C121 1.753 . S
C657 C211 1.659 . S
C661 C519 1.573 . S
C675 C31 1.808 . S
C679 C539 1.829 . S
C693 C91 1.448 . S
C697 C559 1.545 . S
C715 C489 0.640 . S
C711 C301 0.652 1_455 S
C733 C509 0.786 . S
C729 C380 0.819 . S
C751 C529 0.677 . S
C747 C440 0.657 . S
C765 C260 0.798 . S
C769 C549 0.792 . S
C783 C61 0.633 . S
C787 C492 0.650 . S
C805 C512 0.798 . S
C801 C140 0.796 . S
C823 C532 0.675 . S
C819 C200 0.644 . S
C837 C20 0.792 . S
C841 C552 0.781 . S
C855 C320 2.143 1_455 S
C859 C482 2.005 . S
C873 C361 1.953 . S
C877 C502 2.067 . S
C895 C522 1.933 . S
C891 C421 1.774 . S
C913 C542 2.163 . S
C909 C271 2.244 . S
C927 C80 2.143 . S
C931 C484 2.018 . S
C949 C504 2.062 . S
C945 C151 2.203 . S
C967 C524 1.924 . S
C963 C181 1.819 . S
C981 C1 1.988 . S
C985 C544 2.169 . S
