# Generated by pormake.
# Topology csq, (4,8)-cn, num edge types: 1
# Building blocks:
#     Node 0, Type 0, BuildingBlock: MIFKUJ_clean_linker_1, # of connection points: 4
#     Node 1, Type 0, BuildingBlock: MIFKUJ_clean_linker_1, # of connection points: 4
#     Node 2, Type 0, BuildingBlock: MIFKUJ_clean_linker_1, # of connection points: 4
#     Node 3, Type 0, BuildingBlock: MIFKUJ_clean_linker_1, # of connection points: 4
#     Node 4, Type 0, BuildingBlock: MIFKUJ_clean_linker_1, # of connection points: 4
#     Node 5, Type 0, BuildingBlock: MIFKUJ_clean_linker_1, # of connection points: 4
#     Node 6, Type 1, BuildingBlock: TAGTUT_clean_sbu_3, # of connection points: 8
#     Node 7, Type 1, BuildingBlock: TAGTUT_clean_sbu_3, # of connection points: 8
#     Node 8, Type 1, BuildingBlock: TAGTUT_clean_sbu_3, # of connection points: 8
#     Edge 9, Type (0, 1), BuildingBlock: ZUJKAS_clean_linker_0, # of connection points: 2
#     Edge 10, Type (0, 1), BuildingBlock: ZUJKAS_clean_linker_0, # of connection points: 2
#     Edge 11, Type (0, 1), BuildingBlock: ZUJKAS_clean_linker_0, # of connection points: 2
#     Edge 12, Type (0, 1), BuildingBlock: ZUJKAS_clean_linker_0, # of connection points: 2
#     Edge 13, Type (0, 1), BuildingBlock: ZUJKAS_clean_linker_0, # of connection points: 2
#     Edge 14, Type (0, 1), BuildingBlock: ZUJKAS_clean_linker_0, # of connection points: 2
#     Edge 15, Type (0, 1), BuildingBlock: ZUJKAS_clean_linker_0, # of connection points: 2
#     Edge 16, Type (0, 1), BuildingBlock: ZUJKAS_clean_linker_0, # of connection points: 2
#     Edge 17, Type (0, 1), BuildingBlock: ZUJKAS_clean_linker_0, # of connection points: 2
#     Edge 18, Type (0, 1), BuildingBlock: ZUJKAS_clean_linker_0, # of connection points: 2
#     Edge 19, Type (0, 1), BuildingBlock: ZUJKAS_clean_linker_0, # of connection points: 2
#     Edge 20, Type (0, 1), BuildingBlock: ZUJKAS_clean_linker_0, # of connection points: 2
#     Edge 21, Type (0, 1), BuildingBlock: ZUJKAS_clean_linker_0, # of connection points: 2
#     Edge 22, Type (0, 1), BuildingBlock: ZUJKAS_clean_linker_0, # of connection points: 2
#     Edge 23, Type (0, 1), BuildingBlock: ZUJKAS_clean_linker_0, # of connection points: 2
#     Edge 24, Type (0, 1), BuildingBlock: ZUJKAS_clean_linker_0, # of connection points: 2
#     Edge 25, Type (0, 1), BuildingBlock: ZUJKAS_clean_linker_0, # of connection points: 2
#     Edge 26, Type (0, 1), BuildingBlock: ZUJKAS_clean_linker_0, # of connection points: 2
#     Edge 27, Type (0, 1), BuildingBlock: ZUJKAS_clean_linker_0, # of connection points: 2
#     Edge 28, Type (0, 1), BuildingBlock: ZUJKAS_clean_linker_0, # of connection points: 2
#     Edge 29, Type (0, 1), BuildingBlock: ZUJKAS_clean_linker_0, # of connection points: 2
#     Edge 30, Type (0, 1), BuildingBlock: ZUJKAS_clean_linker_0, # of connection points: 2
#     Edge 31, Type (0, 1), BuildingBlock: ZUJKAS_clean_linker_0, # of connection points: 2
#     Edge 32, Type (0, 1), BuildingBlock: ZUJKAS_clean_linker_0, # of connection points: 2
# Relax obj value: 0.028
# Max RMSD: 0.112
# Mean RMSD: 0.043
data_MOF--net-csq--node1-TAGTUT_clean_sbu_3--node2-MIFKUJ_clean_linker_1--edge1-ZUJKAS_clean_linker_0
_symmetry_space_group_name_H-M    P1
_symmetry_Int_Tables_number       1
_symmetry_cell_setting            triclinic
loop_
_symmetry_equiv_pos_as_xyz
'x, y, z'
_cell_length_a     77.406304
_cell_length_b     76.57056
_cell_length_c     26.466696
_cell_angle_alpha  92.082316
_cell_angle_beta   92.371744
_cell_angle_gamma 119.8584
loop_
_atom_site_label
_atom_site_type_symbol
_atom_site_fract_x
_atom_site_fract_y
_atom_site_fract_z
_atom_type_partial_charge
H0 H 0.2625 0.46242 0.25016 0.0
H1 H 0.29378 0.46886 0.29353 0.0
H2 H 0.32685 0.51482 0.19032 0.0
H3 H 0.29549 0.50909 0.14918 0.0
H4 H 0.24434 0.48457 0.22941 0.0
H5 H 0.27291 0.45041 0.13273 0.0
H6 H 0.30169 0.45209 0.09307 0.0
H7 H 0.30231 0.49585 0.99341 0.0
H8 H 0.27385 0.49442 0.03397 0.0
H9 H 0.21663 0.48151 0.02071 0.0
H10 H 0.18572 0.4703 0.96881 0.0
H11 H 0.15266 0.42768 0.07884 0.0
H12 H 0.1838 0.43885 0.13066 0.0
H13 H 0.23526 0.4626 0.04683 0.0
H14 H 0.20615 0.49588 0.13499 0.0
H15 H 0.18123 0.49997 0.17958 0.0
H16 H 0.18361 0.46295 0.2961 0.0
H17 H 0.20785 0.45824 0.25022 0.0
C18 C 0.2767 0.48502 0.19594 0.0
C19 C 0.2765 0.47418 0.23765 0.0
C20 C 0.2944 0.4777 0.26193 0.0
C21 C 0.31285 0.49207 0.24474 0.0
C22 C 0.31295 0.50369 0.20467 0.0
C23 C 0.29503 0.50031 0.18082 0.0
C24 C 0.25784 0.47914 0.1658 0.0
C25 C 0.24218 0.47953 0.18963 0.0
C26 C 0.25532 0.47307 0.11366 0.0
C27 C 0.27139 0.47244 0.08655 0.0
C28 C 0.27921 0.46028 0.10216 0.0
C29 C 0.29559 0.4612 0.07936 0.0
C30 C 0.30439 0.47426 0.04047 0.0
C31 C 0.29609 0.48592 0.02389 0.0
C32 C 0.2797 0.48495 0.0466 0.0
C33 C 0.20252 0.46115 0.07976 0.0
C34 C 0.20276 0.46966 0.03357 0.0
C35 C 0.1851 0.46316 0.00381 0.0
C36 C 0.16681 0.448 0.01962 0.0
C37 C 0.16654 0.43946 0.0659 0.0
C38 C 0.18429 0.44589 0.09557 0.0
C39 C 0.2215 0.46791 0.11036 0.0
C40 C 0.23723 0.46758 0.08663 0.0
C41 C 0.22411 0.47429 0.16242 0.0
C42 C 0.2087 0.47653 0.1889 0.0
C43 C 0.20107 0.48839 0.16974 0.0
C44 C 0.18699 0.49092 0.1956 0.0
C45 C 0.18038 0.48177 0.24143 0.0
C46 C 0.18811 0.46995 0.26053 0.0
C47 C 0.20211 0.46737 0.23456 0.0
H48 H 0.775 0.28518 0.0273 0.0
H49 H 0.79662 0.31305 0.97703 0.0
H50 H 0.8441 0.29967 0.00468 0.0
H51 H 0.82238 0.27181 0.05527 0.0
H52 H 0.76132 0.24653 0.00952 0.0
H53 H 0.8023 0.29618 0.13892 0.0
H54 H 0.83044 0.32026 0.19526 0.0
H55 H 0.84141 0.27252 0.23886 0.0
H56 H 0.81439 0.24895 0.17874 0.0
H57 H 0.75869 0.19202 0.15229 0.0
H58 H 0.73315 0.16256 0.19263 0.0
H59 H 0.69511 0.18892 0.19176 0.0
H60 H 0.72055 0.21813 0.15121 0.0
H61 H 0.77761 0.23603 0.18504 0.0
H62 H 0.73869 0.1878 0.04698 0.0
H63 H 0.70669 0.16254 0.00506 0.0
H64 H 0.68957 0.20806 0.99104 0.0
H65 H 0.7218 0.23335 0.03301 0.0
C66 C 0.79706 0.27641 0.04521 0.0
C67 C 0.79009 0.28828 0.02267 0.0
C68 C 0.80245 0.30417 0.99377 0.0
C69 C 0.82206 0.30853 0.98658 0.0
C70 C 0.82915 0.29686 0.00995 0.0
C71 C 0.81675 0.28092 0.03886 0.0
C72 C 0.78331 0.25876 0.07306 0.0
C73 C 0.76496 0.24446 0.04806 0.0
C74 C 0.7881 0.25563 0.12305 0.0
C75 C 0.80632 0.27075 0.15389 0.0
C76 C 0.81116 0.29101 0.15925 0.0
C77 C 0.82706 0.30472 0.19251 0.0
C78 C 0.83811 0.29835 0.22243 0.0
C79 C 0.83346 0.27811 0.2162 0.0
C80 C 0.81784 0.26452 0.18207 0.0
C81 C 0.74144 0.20717 0.1489 0.0
C82 C 0.74491 0.19147 0.16127 0.0
C83 C 0.73029 0.17464 0.18385 0.0
C84 C 0.71218 0.17351 0.1952 0.0
C85 C 0.70899 0.1895 0.18376 0.0
C86 C 0.72346 0.20614 0.1606 0.0
C87 C 0.7561 0.22423 0.12132 0.0
C88 C 0.77441 0.23826 0.14626 0.0
C89 C 0.75139 0.22727 0.07157 0.0
C90 C 0.7325 0.21237 0.04338 0.0
C91 C 0.72801 0.19231 0.03498 0.0
C92 C 0.70967 0.17789 0.01135 0.0
C93 C 0.69551 0.18328 0.99535 0.0
C94 C 0.70022 0.20349 0.00283 0.0
C95 C 0.7186 0.21794 0.02665 0.0
H96 H 0.57587 0.7609 0.97554 0.0
H97 H 0.58412 0.74056 0.91868 0.0
H98 H 0.52747 0.68789 0.94137 0.0
H99 H 0.51892 0.70833 0.99666 0.0
H100 H 0.54762 0.76924 0.96141 0.0
H101 H 0.56204 0.73328 0.0909 0.0
H102 H 0.55832 0.70499 0.13899 0.0
H103 H 0.49637 0.68658 0.15565 0.0
H104 H 0.50019 0.71482 0.10787 0.0
H105 H 0.49638 0.76643 0.11849 0.0
H106 H 0.49196 0.78844 0.17937 0.0
H107 H 0.5531 0.83521 0.1654 0.0
H108 H 0.55702 0.8134 0.10315 0.0
H109 H 0.52351 0.75385 0.13362 0.0
H110 H 0.50637 0.78597 0.00872 0.0
H111 H 0.50548 0.81139 0.95751 0.0
H112 H 0.5674 0.83441 0.92793 0.0
H113 H 0.56803 0.80863 0.97857 0.0
C114 C 0.54686 0.7361 0.99091 0.0
C115 C 0.56525 0.74494 0.96847 0.0
C116 C 0.56996 0.73337 0.936 0.0
C117 C 0.55645 0.71272 0.92591 0.0
C118 C 0.53824 0.70377 0.94917 0.0
C119 C 0.5334 0.7154 0.98097 0.0
C120 C 0.54126 0.74894 0.02129 0.0
C121 C 0.54273 0.76608 0.99952 0.0
C122 C 0.53371 0.74411 0.06981 0.0
C123 C 0.53138 0.72617 0.09557 0.0
C124 C 0.54759 0.72297 0.10427 0.0
C125 C 0.54543 0.70678 0.13179 0.0
C126 C 0.52706 0.69357 0.1515 0.0
C127 C 0.5108 0.69663 0.14182 0.0
C128 C 0.51295 0.71274 0.11428 0.0
C129 C 0.52697 0.78836 0.10618 0.0
C130 C 0.50868 0.78157 0.12803 0.0
C131 C 0.50627 0.79411 0.16319 0.0
C132 C 0.52223 0.81356 0.17777 0.0
C133 C 0.54038 0.82047 0.15463 0.0
C134 C 0.54268 0.80801 0.11903 0.0
C135 C 0.53043 0.77432 0.0742 0.0
C136 C 0.52851 0.75699 0.09559 0.0
C137 C 0.53717 0.77871 0.02501 0.0
C138 C 0.53731 0.79545 0.99789 0.0
C139 C 0.51986 0.79671 0.99196 0.0
C140 C 0.51938 0.81128 0.96255 0.0
C141 C 0.53636 0.82498 0.93835 0.0
C142 C 0.55394 0.82393 0.94524 0.0
C143 C 0.55438 0.80927 0.97451 0.0
H144 H 0.80516 0.52442 0.13875 0.0
H145 H 0.8363 0.52481 0.16255 0.0
H146 H 0.86909 0.57767 0.07867 0.0
H147 H 0.83778 0.57703 0.05417 0.0
H148 H 0.79353 0.55581 0.14935 0.0
H149 H 0.80222 0.51332 0.02636 0.0
H150 H 0.82476 0.50816 0.97424 0.0
H151 H 0.83307 0.55807 0.88675 0.0
H152 H 0.81107 0.56365 0.94078 0.0
H153 H 0.7537 0.562 0.96569 0.0
H154 H 0.72026 0.55351 0.93247 0.0
H155 H 0.69431 0.50781 0.04067 0.0
H156 H 0.72774 0.51643 0.07372 0.0
H157 H 0.77019 0.53745 0.9674 0.0
H158 H 0.76023 0.57936 0.09439 0.0
H159 H 0.73956 0.58459 0.15351 0.0
H160 H 0.73154 0.53253 0.23126 0.0
H161 H 0.75319 0.52831 0.17378 0.0
C162 C 0.81928 0.55072 0.09492 0.0
C163 C 0.8191 0.53624 0.1261 0.0
C164 C 0.83679 0.53634 0.13912 0.0
C165 C 0.85494 0.55115 0.12189 0.0
C166 C 0.85522 0.56611 0.09225 0.0
C167 C 0.83745 0.5658 0.07849 0.0
C168 C 0.80024 0.54884 0.07568 0.0
C169 C 0.78839 0.5518 0.10964 0.0
C170 C 0.79368 0.54369 0.02388 0.0
C171 C 0.80523 0.53905 0.98786 0.0
C172 C 0.80885 0.5231 0.9958 0.0
C173 C 0.82161 0.52006 0.96565 0.0
C174 C 0.83085 0.53278 0.92645 0.0
C175 C 0.82648 0.54822 0.91718 0.0
C176 C 0.81375 0.5513 0.94761 0.0
C177 C 0.74318 0.54 0.02246 0.0
C178 C 0.74079 0.55023 0.98234 0.0
C179 C 0.72169 0.5453 0.96333 0.0
C180 C 0.70465 0.52995 0.98392 0.0
C181 C 0.70712 0.51989 0.02451 0.0
C182 C 0.72622 0.52481 0.04343 0.0
C183 C 0.76337 0.54451 0.04105 0.0
C184 C 0.77545 0.54189 0.00693 0.0
C185 C 0.77006 0.54983 0.0928 0.0
C186 C 0.75817 0.55344 0.12978 0.0
C187 C 0.75415 0.56925 0.12461 0.0
C188 C 0.74218 0.57209 0.15827 0.0
C189 C 0.7337 0.55894 0.19731 0.0
C190 C 0.73805 0.54325 0.20253 0.0
C191 C 0.75033 0.54068 0.16945 0.0
H192 H 0.23342 0.82629 0.01711 0.0
H193 H 0.2547 0.85201 0.96067 0.0
H194 H 0.30014 0.83558 0.98547 0.0
H195 H 0.27875 0.80975 0.04109 0.0
H196 H 0.21817 0.78533 0.01148 0.0
H197 H 0.26629 0.84225 0.1264 0.0
H198 H 0.30048 0.86679 0.15809 0.0
H199 H 0.31084 0.81792 0.19338 0.0
H200 H 0.27702 0.79358 0.15979 0.0
H201 H 0.22955 0.74971 0.1936 0.0
H202 H 0.21022 0.72524 0.25436 0.0
H203 H 0.15838 0.72948 0.20785 0.0
H204 H 0.17791 0.75445 0.14799 0.0
H205 H 0.2415 0.78609 0.18921 0.0
H206 H 0.20385 0.73123 0.07332 0.0
H207 H 0.17848 0.70316 0.01785 0.0
H208 H 0.15421 0.74046 0.97058 0.0
H209 H 0.17949 0.76849 0.02697 0.0
C210 C 0.25466 0.81639 0.03416 0.0
C211 C 0.24793 0.82818 0.01016 0.0
C212 C 0.26007 0.84282 0.97785 0.0
C213 C 0.27916 0.84593 0.96908 0.0
C214 C 0.28565 0.83378 0.99226 0.0
C215 C 0.27346 0.81904 0.02411 0.0
C216 C 0.24193 0.80118 0.06933 0.0
C217 C 0.223 0.78571 0.05079 0.0
C218 C 0.2488 0.80103 0.11957 0.0
C219 C 0.26916 0.8161 0.14053 0.0
C220 C 0.276 0.83686 0.14065 0.0
C221 C 0.29549 0.85085 0.15902 0.0
C222 C 0.30841 0.8443 0.178 0.0
C223 C 0.30141 0.82348 0.17816 0.0
C224 C 0.28199 0.80954 0.15963 0.0
C225 C 0.20525 0.75399 0.16589 0.0
C226 C 0.21405 0.74548 0.19649 0.0
C227 C 0.203 0.73149 0.23129 0.0
C228 C 0.18282 0.72551 0.23599 0.0
C229 C 0.17387 0.73368 0.20474 0.0
C230 C 0.18501 0.74789 0.17032 0.0
C231 C 0.21755 0.76992 0.13142 0.0
C232 C 0.23635 0.78572 0.15023 0.0
C233 C 0.21102 0.76974 0.08051 0.0
C234 C 0.19348 0.75191 0.0545 0.0
C235 C 0.19271 0.7332 0.05222 0.0
C236 C 0.17838 0.71726 0.02002 0.0
C237 C 0.16459 0.71976 0.98944 0.0
C238 C 0.16464 0.73813 0.99384 0.0
C239 C 0.17906 0.75413 0.02594 0.0
H240 H 0.51047 0.23287 0.08608 0.0
H241 H 0.52225 0.21227 0.04347 0.0
H242 H 0.46622 0.15858 0.06561 0.0
H243 H 0.45461 0.17925 0.10847 0.0
H244 H 0.47937 0.23697 0.05659 0.0
H245 H 0.49893 0.21272 0.19854 0.0
H246 H 0.49985 0.18823 0.25304 0.0
H247 H 0.43796 0.16593 0.28202 0.0
H248 H 0.43679 0.18951 0.22437 0.0
H249 H 0.42612 0.23593 0.20992 0.0
H250 H 0.42033 0.25863 0.26486 0.0
H251 H 0.47623 0.30896 0.226 0.0
H252 H 0.48242 0.28614 0.17356 0.0
H253 H 0.4548 0.22836 0.22892 0.0
H254 H 0.43649 0.25442 0.0844 0.0
H255 H 0.43729 0.27893 0.0261 0.0
H256 H 0.4997 0.3001 0.00747 0.0
H257 H 0.49894 0.27606 0.06654 0.0
C258 C 0.4817 0.20757 0.10051 0.0
C259 C 0.50079 0.21664 0.08199 0.0
C260 C 0.50749 0.20487 0.05762 0.0
C261 C 0.49517 0.18382 0.05118 0.0
C262 C 0.47619 0.17474 0.07071 0.0
C263 C 0.4695 0.18652 0.09505 0.0
C264 C 0.47427 0.22029 0.1234 0.0
C265 C 0.47415 0.23525 0.0945 0.0
C266 C 0.46697 0.21754 0.17234 0.0
C267 C 0.46766 0.20273 0.20625 0.0
C268 C 0.48543 0.2023 0.21578 0.0
C269 C 0.48602 0.18846 0.24787 0.0
C270 C 0.46898 0.17499 0.27226 0.0
C271 C 0.4513 0.17574 0.26336 0.0
C272 C 0.45065 0.1894 0.23067 0.0
C273 C 0.45467 0.25932 0.18742 0.0
C274 C 0.43698 0.25192 0.21273 0.0
C275 C 0.43364 0.26491 0.24393 0.0
C276 C 0.44796 0.28554 0.25036 0.0
C277 C 0.46509 0.29306 0.22265 0.0
C278 C 0.4685 0.28007 0.19189 0.0
C279 C 0.45992 0.24516 0.16215 0.0
C280 C 0.4597 0.22991 0.1907 0.0
C281 C 0.46717 0.24783 0.11312 0.0
C282 C 0.46767 0.26341 0.08011 0.0
C283 C 0.45041 0.26454 0.06831 0.0
C284 C 0.45084 0.27843 0.03454 0.0
C285 C 0.46856 0.29148 0.01197 0.0
C286 C 0.48586 0.29048 0.02454 0.0
C287 C 0.48541 0.2766 0.05807 0.0
C288 C 0.03639 0.49176 0.54642 0.0
C289 C 0.01965 0.463 0.72772 0.0
C290 C 0.96378 0.46075 0.69467 0.0
Mg291 Mg 0.02047 0.51752 0.48605 0.0
Mg292 Mg 0.00749 0.54706 0.54713 0.0
O293 O 0.00338 0.52086 0.53633 0.0
Mg294 Mg 0.00816 0.50745 0.59428 0.0
O295 O 0.01314 0.49263 0.64836 0.0
Mg296 Mg 0.99881 0.46451 0.61493 0.0
Mg297 Mg 0.00651 0.49509 0.71436 0.0
C298 C 0.98002 0.52511 0.63748 0.0
O299 O 0.02956 0.53713 0.64151 0.0
O300 O 0.00603 0.52914 0.42751 0.0
O301 O 0.02207 0.52785 0.72141 0.0
O302 O 0.04651 0.55019 0.50136 0.0
O303 O 0.99678 0.54848 0.47183 0.0
O304 O 0.03904 0.56863 0.55326 0.0
O305 O 0.98685 0.47698 0.55278 0.0
O306 O 0.99457 0.48506 0.47336 0.0
C307 C 0.98448 0.47212 0.50513 0.0
C308 C 0.99803 0.54036 0.42988 0.0
O309 O 0.98358 0.51037 0.63413 0.0
O310 O 0.01311 0.45592 0.68176 0.0
O311 O 0.98876 0.54071 0.6113 0.0
O312 O 0.97046 0.45426 0.65959 0.0
O313 O 0.01882 0.47809 0.74743 0.0
O314 O 0.97482 0.47785 0.71854 0.0
O315 O 0.03239 0.50609 0.55095 0.0
O316 O 0.02661 0.47547 0.56926 0.0
C317 C 0.05146 0.56675 0.52659 0.0
C318 C 0.03088 0.54136 0.68956 0.0
C319 C 0.49988 0.02898 0.52026 0.0
C320 C 0.55866 0.01867 0.46222 0.0
C321 C 0.52307 0.95939 0.52073 0.0
Mg322 Mg 0.4702 0.00829 0.61204 0.0
Mg323 Mg 0.4855 0.99326 0.71021 0.0
O324 O 0.48066 0.99091 0.63982 0.0
Mg325 Mg 0.50396 0.99904 0.59786 0.0
O326 O 0.52616 0.00726 0.55195 0.0
Mg327 Mg 0.50986 0.99363 0.48693 0.0
Mg328 Mg 0.54706 0.00223 0.56895 0.0
C329 C 0.50769 0.96934 0.68056 0.0
O330 O 0.52768 0.02051 0.65931 0.0
O331 O 0.44304 0.99066 0.66231 0.0
O332 O 0.55445 0.01705 0.64505 0.0
O333 O 0.48608 0.03345 0.67679 0.0
O334 O 0.45501 0.98085 0.72777 0.0
O335 O 0.50104 0.02435 0.73532 0.0
O336 O 0.48206 0.97864 0.53364 0.0
O337 O 0.4566 0.98398 0.54636 0.0
C338 C 0.46461 0.97567 0.52062 0.0
C339 C 0.44071 0.98165 0.70382 0.0
O340 O 0.50852 0.97409 0.63413 0.0
O341 O 0.54002 0.01069 0.44791 0.0
O342 O 0.5009 0.97621 0.7147 0.0
O343 O 0.51378 0.966 0.49374 0.0
O344 O 0.56463 0.01744 0.50721 0.0
O345 O 0.53629 0.97045 0.55579 0.0
O346 O 0.49833 0.02338 0.56585 0.0
O347 O 0.50515 0.0208 0.48555 0.0
C348 C 0.49731 0.03742 0.71736 0.0
C349 C 0.54546 0.02412 0.67154 0.0
C350 C 0.5206 0.53992 0.67313 0.0
C351 C 0.45686 0.47893 0.74415 0.0
C352 C 0.48275 0.44392 0.69098 0.0
Mg353 Mg 0.54602 0.5401 0.57884 0.0
Mg354 Mg 0.52555 0.50612 0.48316 0.0
O355 O 0.53078 0.51086 0.55335 0.0
Mg356 Mg 0.50828 0.50025 0.59939 0.0
O357 O 0.4873 0.49113 0.64947 0.0
Mg358 Mg 0.50408 0.49475 0.71321 0.0
Mg359 Mg 0.46401 0.46586 0.6374 0.0
C360 C 0.49747 0.46184 0.51866 0.0
O361 O 0.48494 0.49892 0.54093 0.0
O362 O 0.5712 0.54357 0.52648 0.0
O363 O 0.45671 0.47109 0.56049 0.0
O364 O 0.53265 0.55053 0.5143 0.0
O365 O 0.55605 0.51817 0.46578 0.0
O366 O 0.51522 0.5256 0.45515 0.0
O367 O 0.52976 0.50074 0.66156 0.0
O368 O 0.55758 0.52877 0.64393 0.0
C369 C 0.54828 0.51375 0.67146 0.0
C370 C 0.57173 0.53339 0.48733 0.0
O371 O 0.49794 0.46806 0.56485 0.0
O372 O 0.47581 0.48833 0.75601 0.0
O373 O 0.50572 0.47384 0.48335 0.0
O374 O 0.49457 0.46106 0.71401 0.0
O375 O 0.44933 0.4697 0.70054 0.0
O376 O 0.47021 0.44205 0.65533 0.0
O377 O 0.51945 0.53273 0.62789 0.0
O378 O 0.5144 0.52835 0.70999 0.0
C379 C 0.52153 0.5436 0.47308 0.0
C380 C 0.4664 0.4856 0.53159 0.0
H381 H 0.17854 0.5165 0.25588 0.0
H382 H 0.15523 0.52158 0.30572 0.0
H383 H 0.12614 0.45921 0.34161 0.0
H384 H 0.14903 0.45385 0.29115 0.0
H385 H 0.11125 0.49965 0.29676 0.0
H386 H 0.14341 0.49268 0.4812 0.0
H387 H 0.15661 0.49775 0.424 0.0
H388 H 0.13733 0.47255 0.43428 0.0
C389 C 0.16702 0.50379 0.27381 0.0
C390 C 0.16576 0.48479 0.26982 0.0
C391 C 0.15379 0.50676 0.30245 0.0
C392 C 0.1392 0.49085 0.32787 0.0
C393 C 0.13756 0.47177 0.32298 0.0
H394 H 0.04569 0.4627 0.52184 0.0
H395 H 0.07126 0.46493 0.46771 0.0
C396 C 0.1507 0.46876 0.29426 0.0
C397 C 0.12574 0.49408 0.36017 0.0
H398 H 0.11215 0.49155 0.48182 0.0
C399 C 0.11154 0.49814 0.33733 0.0
C400 C 0.12632 0.49221 0.41305 0.0
C401 C 0.14184 0.48874 0.4398 0.0
C402 C 0.09718 0.49935 0.36576 0.0
C403 C 0.09733 0.49676 0.41841 0.0
C404 C 0.11203 0.49346 0.44142 0.0
C405 C 0.08149 0.49578 0.44986 0.0
C406 C 0.08143 0.50246 0.33896 0.0
C407 C 0.07875 0.51245 0.4579 0.0
C408 C 0.06399 0.51122 0.48896 0.0
C409 C 0.05187 0.49334 0.51269 0.0
C410 C 0.05474 0.47673 0.50436 0.0
C411 C 0.06937 0.47796 0.47337 0.0
H412 H 0.08112 0.50033 0.29711 0.0
H413 H 0.06641 0.49184 0.35153 0.0
H414 H 0.08458 0.51805 0.34847 0.0
H415 H 0.08818 0.52646 0.44079 0.0
H416 H 0.06226 0.52432 0.49479 0.0
H417 H 0.69186 0.17317 0.277 0.0
H418 H 0.66533 0.14385 0.31446 0.0
H419 H 0.67003 0.10436 0.20229 0.0
H420 H 0.69702 0.13371 0.16556 0.0
H421 H 0.62941 0.11604 0.27388 0.0
H422 H 0.67236 0.0787 0.33035 0.0
H423 H 0.68423 0.10409 0.31002 0.0
H424 H 0.67227 0.0829 0.2641 0.0
C425 C 0.68728 0.15822 0.26053 0.0
C426 C 0.69653 0.15567 0.2186 0.0
C427 C 0.67213 0.14148 0.28191 0.0
C428 C 0.66584 0.12187 0.2616 0.0
C429 C 0.67496 0.11929 0.21941 0.0
H430 H 0.55334 0.02285 0.36082 0.0
H431 H 0.57858 0.04565 0.30587 0.0
C432 C 0.69032 0.13605 0.19838 0.0
C433 C 0.64938 0.10432 0.28421 0.0
H434 H 0.63785 0.06118 0.34279 0.0
C435 C 0.63122 0.104 0.28881 0.0
C436 C 0.65181 0.08867 0.30385 0.0
C437 C 0.67127 0.08863 0.30233 0.0
C438 C 0.61562 0.0888 0.3137 0.0
C439 C 0.618 0.07309 0.33317 0.0
C440 C 0.63598 0.07312 0.3274 0.0
C441 C 0.60289 0.05768 0.36402 0.0
C442 C 0.59714 0.0903 0.321 0.0
C443 C 0.60834 0.05613 0.41413 0.0
C444 C 0.59408 0.04292 0.44526 0.0
C445 C 0.57396 0.031 0.42708 0.0
C446 C 0.56864 0.03197 0.3762 0.0
C447 C 0.58303 0.04509 0.34483 0.0
H448 H 0.59968 0.10563 0.31452 0.0
H449 H 0.58492 0.07944 0.29352 0.0
H450 H 0.59213 0.08656 0.35983 0.0
H451 H 0.62358 0.06563 0.42975 0.0
H452 H 0.59879 0.04258 0.48414 0.0
H453 H 0.54198 0.66799 0.13705 0.0
H454 H 0.53856 0.64106 0.1903 0.0
H455 H 0.50425 0.65506 0.29153 0.0
H456 H 0.50759 0.68192 0.23868 0.0
H457 H 0.55115 0.64367 0.28944 0.0
H458 H 0.46896 0.59439 0.26563 0.0
H459 H 0.48263 0.61474 0.22531 0.0
H460 H 0.47663 0.61988 0.28701 0.0
C461 C 0.53372 0.66534 0.17067 0.0
C462 C 0.52494 0.67703 0.18334 0.0
C463 C 0.53169 0.64988 0.20094 0.0
C464 C 0.52081 0.64576 0.24442 0.0
C465 C 0.51222 0.65755 0.25744 0.0
H466 H 0.53298 0.5831 0.49821 0.0
H467 H 0.53147 0.60733 0.44335 0.0
C468 C 0.51418 0.67294 0.22716 0.0
C469 C 0.51922 0.62977 0.27743 0.0
H470 H 0.48584 0.58686 0.33134 0.0
C471 C 0.53687 0.6312 0.29838 0.0
C472 C 0.50058 0.61335 0.28865 0.0
C473 C 0.48112 0.61033 0.26509 0.0
C474 C 0.53641 0.61693 0.331 0.0
C475 C 0.51777 0.60098 0.34391 0.0
C476 C 0.50011 0.59927 0.32206 0.0
C477 C 0.51645 0.58576 0.37922 0.0
C478 C 0.55593 0.6189 0.35069 0.0
C479 C 0.50746 0.56532 0.36245 0.0
C480 C 0.50812 0.55132 0.39394 0.0
C481 C 0.51779 0.55753 0.44285 0.0
C482 C 0.52564 0.57779 0.46059 0.0
C483 C 0.52491 0.59173 0.42914 0.0
H484 H 0.56835 0.62849 0.32707 0.0
H485 H 0.55978 0.62605 0.38981 0.0
H486 H 0.5548 0.60389 0.35176 0.0
H487 H 0.50064 0.56033 0.32425 0.0
H488 H 0.50175 0.53582 0.37913 0.0
H489 H 0.88953 0.58166 0.16764 0.0
H490 H 0.91854 0.5797 0.19991 0.0
H491 H 0.89115 0.51815 0.13729 0.0
H492 H 0.86177 0.51989 0.1068 0.0
H493 H 0.9016 0.52032 0.23244 0.0
H494 H 0.9661 0.58066 0.14479 0.0
H495 H 0.95211 0.5906 0.17428 0.0
H496 H 0.94068 0.57202 0.12157 0.0
C497 C 0.88996 0.5679 0.15992 0.0
C498 C 0.87348 0.55088 0.13521 0.0
C499 C 0.9066 0.56683 0.17788 0.0
C500 C 0.90719 0.54887 0.17032 0.0
C501 C 0.89107 0.53218 0.14336 0.0
H502 H 0.98785 0.51817 0.33893 0.0
H503 H 0.96821 0.51998 0.2663 0.0
C504 C 0.8743 0.53314 0.12617 0.0
C505 C 0.92314 0.54661 0.1968 0.0
H506 H 0.97349 0.57048 0.22547 0.0
C507 C 0.91734 0.53098 0.22983 0.0
C508 C 0.9437 0.56052 0.19346 0.0
C509 C 0.95099 0.57674 0.15614 0.0
C510 C 0.9314 0.52961 0.26181 0.0
C511 C 0.95179 0.54424 0.2607 0.0
C512 C 0.95778 0.55933 0.22614 0.0
C513 C 0.96653 0.54527 0.29945 0.0
C514 C 0.92432 0.51321 0.29874 0.0
C515 C 0.97245 0.55927 0.34114 0.0
C516 C 0.98345 0.55819 0.38273 0.0
C517 C 0.98881 0.54314 0.38312 0.0
C518 C 0.98391 0.52991 0.33982 0.0
C519 C 0.97274 0.53092 0.29831 0.0
H520 H 0.90778 0.50385 0.29713 0.0
H521 H 0.9305 0.50319 0.29011 0.0
H522 H 0.92982 0.51996 0.338 0.0
H523 H 0.96769 0.5704 0.34257 0.0
H524 H 0.98717 0.56875 0.41524 0.0
H525 H 0.34296 0.84322 0.16693 0.0
H526 H 0.37602 0.86599 0.20907 0.0
H527 H 0.35313 0.90134 0.27918 0.0
H528 H 0.32007 0.87857 0.23816 0.0
H529 H 0.39234 0.92403 0.23559 0.0
H530 H 0.38646 0.8659 0.36592 0.0
H531 H 0.38241 0.85941 0.29874 0.0
H532 H 0.36479 0.86362 0.33119 0.0
C533 C 0.34498 0.85585 0.19135 0.0
C534 C 0.32885 0.85901 0.19954 0.0
C535 C 0.36387 0.86885 0.21516 0.0
C536 C 0.36688 0.88518 0.24744 0.0
C537 C 0.35104 0.88881 0.2542 0.0
H538 H 0.43168 0.97308 0.47228 0.0
H539 H 0.41244 0.9518 0.39751 0.0
C540 C 0.33219 0.87583 0.23057 0.0
C541 C 0.38612 0.89801 0.27678 0.0
H542 H 0.41261 0.899 0.38415 0.0
C543 C 0.39706 0.91851 0.26746 0.0
C544 C 0.3923 0.89066 0.31789 0.0
C545 C 0.38092 0.86873 0.32949 0.0
C546 C 0.41337 0.93214 0.30015 0.0
C547 C 0.41851 0.92508 0.34366 0.0
C548 C 0.40856 0.90434 0.35077 0.0
C549 C 0.43161 0.93912 0.38618 0.0
C550 C 0.42442 0.95412 0.289 0.0
C551 C 0.44862 0.93877 0.40525 0.0
C552 C 0.45971 0.95095 0.44852 0.0
C553 C 0.4537 0.96335 0.47366 0.0
C554 C 0.43673 0.96369 0.45402 0.0
C555 C 0.42581 0.95169 0.41085 0.0
H556 H 0.42373 0.95594 0.24763 0.0
H557 H 0.41733 0.96195 0.30762 0.0
H558 H 0.44032 0.96158 0.30352 0.0
H559 H 0.45315 0.92892 0.38705 0.0
H560 H 0.47268 0.95031 0.46286 0.0
H561 H 0.41413 0.28697 0.27163 0.0
H562 H 0.41162 0.31025 0.33322 0.0
H563 H 0.47461 0.3377 0.37551 0.0
H564 H 0.47703 0.31411 0.31631 0.0
H565 H 0.45196 0.33294 0.45827 0.0
H566 H 0.43314 0.36904 0.30222 0.0
H567 H 0.41677 0.34255 0.30854 0.0
H568 H 0.44162 0.35136 0.28945 0.0
C569 C 0.42736 0.29781 0.2946 0.0
C570 C 0.44587 0.29899 0.28834 0.0
C571 C 0.42592 0.31114 0.32953 0.0
C572 C 0.44299 0.32585 0.35841 0.0
C573 C 0.46125 0.32648 0.35356 0.0
H574 H 0.506 0.44313 0.44341 0.0
H575 H 0.48729 0.40772 0.41335 0.0
C576 C 0.46267 0.31318 0.31908 0.0
C577 C 0.44276 0.34189 0.39076 0.0
H578 H 0.44411 0.38682 0.38105 0.0
C579 C 0.44966 0.34448 0.44195 0.0
C580 C 0.43967 0.35685 0.36923 0.0
C581 C 0.43248 0.35499 0.31434 0.0
C582 C 0.4554 0.36251 0.47076 0.0
C583 C 0.45397 0.37811 0.4477 0.0
C584 C 0.44517 0.37472 0.3983 0.0
C585 C 0.46531 0.39915 0.46925 0.0
C586 C 0.46464 0.36555 0.52394 0.0
C587 C 0.45928 0.40594 0.51128 0.0
C588 C 0.47008 0.42632 0.52879 0.0
C589 C 0.48692 0.44002 0.50429 0.0
C590 C 0.49304 0.43296 0.46291 0.0
C591 C 0.48236 0.41275 0.44567 0.0
H592 H 0.46465 0.35185 0.53638 0.0
H593 H 0.48028 0.37828 0.52617 0.0
H594 H 0.45629 0.36955 0.55067 0.0
H595 H 0.44604 0.39563 0.52964 0.0
H596 H 0.46481 0.43148 0.55997 0.0
H597 H 0.55358 0.83726 0.84799 0.0
H598 H 0.55162 0.86135 0.79303 0.0
H599 H 0.51484 0.87011 0.89719 0.0
H600 H 0.5171 0.84649 0.95307 0.0
H601 H 0.5004 0.86171 0.78843 0.0
H602 H 0.57893 0.92431 0.8258 0.0
H603 H 0.57483 0.89941 0.80977 0.0
H604 H 0.56703 0.90448 0.8687 0.0
C605 C 0.54532 0.84453 0.85969 0.0
C606 C 0.53553 0.83992 0.90516 0.0
C607 C 0.54414 0.85821 0.82803 0.0
C608 C 0.53315 0.86754 0.84117 0.0
C609 C 0.52335 0.86299 0.88633 0.0
H610 H 0.52102 0.96704 0.77504 0.0
H611 H 0.52886 0.94193 0.80503 0.0
C612 C 0.52459 0.84941 0.91811 0.0
C613 C 0.53165 0.88198 0.80795 0.0
H614 H 0.55776 0.93036 0.77211 0.0
C615 C 0.51298 0.87662 0.78415 0.0
C616 C 0.54812 0.90139 0.80263 0.0
C617 C 0.56839 0.90793 0.82817 0.0
C618 C 0.51019 0.89044 0.75642 0.0
C619 C 0.52652 0.91007 0.75236 0.0
C620 C 0.54534 0.91521 0.77485 0.0
C621 C 0.52364 0.92623 0.73153 0.0
C622 C 0.48958 0.88433 0.7339 0.0
C623 C 0.51857 0.92604 0.6798 0.0
C624 C 0.51411 0.94054 0.6623 0.0
C625 C 0.5145 0.95527 0.69647 0.0
C626 C 0.52034 0.95577 0.74779 0.0
C627 C 0.52493 0.94148 0.76503 0.0
H628 H 0.47812 0.86921 0.7448 0.0
H629 H 0.48526 0.89556 0.7463 0.0
H630 H 0.48962 0.88398 0.69195 0.0
H631 H 0.51764 0.91444 0.65328 0.0
H632 H 0.50961 0.93973 0.62261 0.0
H633 H 0.67125 0.52117 0.03418 0.0
H634 H 0.6379 0.51154 0.99694 0.0
H635 H 0.65929 0.51631 0.84729 0.0
H636 H 0.69229 0.52525 0.88393 0.0
H637 H 0.62775 0.53391 0.93807 0.0
H638 H 0.60791 0.46238 0.83177 0.0
H639 H 0.62787 0.47377 0.88115 0.0
H640 H 0.6322 0.4819 0.81754 0.0
C641 C 0.66871 0.51983 0.99332 0.0
C642 C 0.68439 0.52399 0.96195 0.0
C643 C 0.6497 0.51438 0.97217 0.0
C644 C 0.64603 0.5128 0.91937 0.0
C645 C 0.66165 0.51692 0.8881 0.0
H646 H 0.58502 0.54202 0.71239 0.0
H647 H 0.60429 0.53902 0.78278 0.0
C648 C 0.6806 0.52237 0.90912 0.0
C649 C 0.62646 0.50852 0.89636 0.0
H650 H 0.5925 0.48105 0.79815 0.0
C651 C 0.61972 0.52202 0.90837 0.0
C652 C 0.61566 0.49271 0.85855 0.0
C653 C 0.62118 0.47674 0.84694 0.0
C654 C 0.60364 0.52131 0.88011 0.0
C655 C 0.59438 0.50698 0.83839 0.0
C656 C 0.59983 0.49225 0.82965 0.0
C657 C 0.58146 0.50899 0.79908 0.0
C658 C 0.59729 0.53649 0.89378 0.0
C659 C 0.56229 0.49291 0.78415 0.0
C660 C 0.55117 0.49452 0.74332 0.0
C661 C 0.55923 0.51212 0.71646 0.0
C662 C 0.57834 0.52822 0.73209 0.0
C663 C 0.58933 0.52664 0.7728 0.0
H664 H 0.60015 0.54088 0.93505 0.0
H665 H 0.60614 0.55032 0.87342 0.0
H666 H 0.5812 0.53047 0.88309 0.0
H667 H 0.55608 0.47905 0.80359 0.0
H668 H 0.53653 0.48182 0.73206 0.0
H669 H 0.17448 0.69872 0.92322 0.0
H670 H 0.15249 0.67167 0.86031 0.0
H671 H 0.10252 0.6775 0.90493 0.0
H672 H 0.12458 0.70484 0.96772 0.0
H673 H 0.12139 0.63617 0.88122 0.0
H674 H 0.09528 0.67469 0.7512 0.0
H675 H 0.1165 0.68832 0.79651 0.0
H676 H 0.09153 0.67818 0.81644 0.0
C677 C 0.1588 0.69425 0.91957 0.0
C678 C 0.15117 0.70373 0.95064 0.0
C679 C 0.14631 0.67893 0.88335 0.0
C680 C 0.12594 0.67277 0.87745 0.0
C681 C 0.11829 0.68237 0.90797 0.0
H682 H 0.02916 0.55731 0.78127 0.0
H683 H 0.05248 0.59067 0.82072 0.0
C684 C 0.13085 0.69785 0.94405 0.0
C685 C 0.11248 0.65506 0.84281 0.0
H686 H 0.07688 0.63842 0.7443 0.0
C687 C 0.11186 0.63676 0.8509 0.0
C688 C 0.10018 0.65589 0.80298 0.0
C689 C 0.10101 0.67537 0.79085 0.0
C690 C 0.09879 0.6191 0.82142 0.0
C691 C 0.0858 0.61971 0.78336 0.0
C692 C 0.08682 0.63808 0.77386 0.0
C693 C 0.07024 0.60096 0.75587 0.0
C694 C 0.09867 0.59979 0.83179 0.0
C695 C 0.0722 0.59607 0.70564 0.0
C696 C 0.05886 0.57689 0.68281 0.0
C697 C 0.0435 0.56246 0.71016 0.0
C698 C 0.04102 0.56795 0.75945 0.0
C699 C 0.05425 0.58703 0.78202 0.0
H700 H 0.11236 0.60269 0.85443 0.0
H701 H 0.08557 0.5902 0.85339 0.0
H702 H 0.09739 0.59119 0.79577 0.0
H703 H 0.08452 0.60672 0.68501 0.0
H704 H 0.06116 0.57309 0.64483 0.0
H705 H 0.49055 0.14705 0.0721 0.0
H706 H 0.49741 0.12502 0.01754 0.0
H707 H 0.52066 0.17046 0.90849 0.0
H708 H 0.51372 0.19248 0.96248 0.0
H709 H 0.47919 0.11176 0.92053 0.0
H710 H 0.5617 0.15112 0.91575 0.0
H711 H 0.54927 0.15677 0.96468 0.0
H712 H 0.55088 0.16669 0.90347 0.0
C713 C 0.49733 0.15242 0.03675 0.0
C714 C 0.50151 0.17145 0.02146 0.0
C715 C 0.50137 0.1399 0.00586 0.0
C716 C 0.50975 0.14623 0.95933 0.0
C717 C 0.51463 0.16549 0.9448 0.0
H718 H 0.49048 0.06819 0.69511 0.0
H719 H 0.49651 0.09675 0.75221 0.0
C720 C 0.5106 0.17803 0.97567 0.0
C721 C 0.511 0.13178 0.92327 0.0
H722 H 0.54293 0.12387 0.85344 0.0
C723 C 0.49314 0.11435 0.90613 0.0
C724 C 0.52925 0.13523 0.9047 0.0
C725 C 0.54891 0.15338 0.92337 0.0
C726 C 0.49295 0.10038 0.87024 0.0
C727 C 0.51108 0.10411 0.85046 0.0
C728 C 0.52905 0.12131 0.86825 0.0
C729 C 0.51137 0.08974 0.8124 0.0
C730 C 0.47335 0.08164 0.85394 0.0
C731 C 0.51866 0.07704 0.82666 0.0
C732 C 0.51517 0.06064 0.79428 0.0
C733 C 0.5044 0.05678 0.74711 0.0
C734 C 0.49862 0.07058 0.73137 0.0
C735 C 0.50207 0.08693 0.76386 0.0
H736 H 0.46151 0.07914 0.87985 0.0
H737 H 0.46828 0.08318 0.81537 0.0
H738 H 0.47513 0.0681 0.85244 0.0
H739 H 0.52594 0.07907 0.864 0.0
H740 H 0.52003 0.05045 0.80739 0.0
H741 H 0.31134 0.44375 0.01134 0.0
H742 H 0.34028 0.44663 0.97005 0.0
H743 H 0.36678 0.51139 0.9765 0.0
H744 H 0.33787 0.50862 0.01765 0.0
H745 H 0.36641 0.4958 0.8826 0.0
H746 H 0.39711 0.46533 0.02488 0.0
H747 H 0.37106 0.44867 0.00759 0.0
H748 H 0.37911 0.47292 0.03946 0.0
C749 C 0.32348 0.45862 0.00468 0.0
C750 C 0.3223 0.47595 0.01755 0.0
C751 C 0.34005 0.46025 0.98129 0.0
C752 C 0.35582 0.47925 0.97089 0.0
C753 C 0.3548 0.49659 0.98436 0.0
H754 H 0.4661 0.49878 0.83883 0.0
H755 H 0.4428 0.50014 0.8969 0.0
C756 C 0.33822 0.49497 0.00755 0.0
C757 C 0.37261 0.48093 0.94237 0.0
H758 H 0.40877 0.46774 0.94135 0.0
C759 C 0.37581 0.48987 0.89576 0.0
C760 C 0.38505 0.47343 0.95987 0.0
C761 C 0.38307 0.46473 0.01094 0.0
C762 C 0.39058 0.4908 0.86524 0.0
C763 C 0.40224 0.48227 0.88139 0.0
C764 C 0.39964 0.47407 0.9289 0.0
C765 C 0.41638 0.48079 0.84797 0.0
C766 C 0.39347 0.50076 0.81571 0.0
C767 C 0.40915 0.4691 0.802 0.0
C768 C 0.42231 0.46828 0.7689 0.0
C769 C 0.44305 0.47909 0.78115 0.0
C770 C 0.45024 0.49034 0.82809 0.0
C771 C 0.43698 0.49113 0.86132 0.0
H772 H 0.38747 0.51126 0.81546 0.0
H773 H 0.40952 0.50926 0.80803 0.0
H774 H 0.3854 0.48899 0.7844 0.0
H775 H 0.39326 0.46071 0.79147 0.0
H776 H 0.41616 0.4593 0.73339 0.0
H777 H 0.81114 0.31743 0.89562 0.0
H778 H 0.83226 0.34371 0.84053 0.0
H779 H 0.8829 0.36272 0.94743 0.0
H780 H 0.86186 0.33653 0.00295 0.0
H781 H 0.85526 0.38579 0.8583 0.0
H782 H 0.90227 0.35203 0.8142 0.0
H783 H 0.87894 0.33837 0.84363 0.0
H784 H 0.9012 0.35636 0.88083 0.0
C785 C 0.82673 0.32732 0.90771 0.0
C786 C 0.83483 0.32482 0.95365 0.0
C787 C 0.83878 0.34229 0.87606 0.0
C788 C 0.85919 0.35498 0.88955 0.0
C789 C 0.86726 0.35281 0.93581 0.0
H790 H 0.94671 0.46685 0.77721 0.0
H791 H 0.91867 0.44111 0.81943 0.0
C792 C 0.85523 0.33783 0.96747 0.0
C793 C 0.87208 0.37033 0.85498 0.0
H794 H 0.91341 0.38514 0.78831 0.0
C795 C 0.86791 0.38561 0.84269 0.0
C796 C 0.88834 0.36985 0.83393 0.0
C797 C 0.89289 0.35317 0.84334 0.0
C798 C 0.87998 0.4008 0.81109 0.0
C799 C 0.89677 0.40081 0.79188 0.0
C800 C 0.90057 0.38519 0.80313 0.0
C801 C 0.91121 0.41719 0.76181 0.0
C802 C 0.87455 0.41659 0.79834 0.0
C803 C 0.91614 0.41247 0.71475 0.0
C804 C 0.93234 0.42712 0.69069 0.0
C805 C 0.94402 0.44678 0.71341 0.0
C806 C 0.9381 0.45185 0.75865 0.0
C807 C 0.92195 0.43715 0.7828 0.0
H808 H 0.85842 0.41101 0.80207 0.0
H809 H 0.88314 0.43006 0.82505 0.0
H810 H 0.87821 0.4213 0.7592 0.0
H811 H 0.90802 0.39717 0.69777 0.0
H812 H 0.93636 0.42269 0.65575 0.0
H813 H 0.82911 0.49769 0.89148 0.0
H814 H 0.85448 0.49406 0.84766 0.0
H815 H 0.89097 0.55881 0.84907 0.0
H816 H 0.86616 0.5626 0.89477 0.0
H817 H 0.86957 0.50659 0.75609 0.0
H818 H 0.93007 0.54326 0.90875 0.0
H819 H 0.90442 0.53563 0.91903 0.0
H820 H 0.92006 0.55899 0.89074 0.0
C821 C 0.84263 0.51117 0.88297 0.0
C822 C 0.84563 0.53045 0.89697 0.0
C823 C 0.85706 0.50906 0.85767 0.0
C824 C 0.8748 0.52616 0.84603 0.0
C825 C 0.87761 0.5454 0.85875 0.0
H826 H 0.97516 0.55615 0.67317 0.0
H827 H 0.94935 0.55443 0.72615 0.0
C828 C 0.86324 0.54754 0.8842 0.0
C829 C 0.89018 0.52394 0.81953 0.0
H830 H 0.9398 0.53867 0.8268 0.0
C831 C 0.88486 0.51336 0.7718 0.0
C832 C 0.91011 0.53267 0.8403 0.0
C833 C 0.91648 0.54309 0.89275 0.0
C834 C 0.89914 0.51208 0.74329 0.0
C835 C 0.91919 0.52147 0.76329 0.0
C836 C 0.92441 0.53155 0.81157 0.0
C837 C 0.93521 0.52222 0.73318 0.0
C838 C 0.89289 0.50137 0.69117 0.0
C839 C 0.93598 0.50469 0.72032 0.0
C840 C 0.95077 0.50561 0.68997 0.0
C841 C 0.965 0.52408 0.67201 0.0
C842 C 0.96437 0.54165 0.686 0.0
C843 C 0.94967 0.54072 0.71643 0.0
H844 H 0.87752 0.49759 0.67818 0.0
H845 H 0.90336 0.51084 0.66322 0.0
H846 H 0.89336 0.48713 0.69182 0.0
H847 H 0.92505 0.49029 0.73337 0.0
H848 H 0.95073 0.49179 0.67958 0.0
H849 H 0.3187 0.87316 0.9886 0.0
H850 H 0.34106 0.89903 0.93448 0.0
H851 H 0.29224 0.88117 0.82228 0.0
H852 H 0.26971 0.85497 0.87628 0.0
H853 H 0.32807 0.88471 0.78439 0.0
H854 H 0.34347 0.9527 0.90252 0.0
H855 H 0.34625 0.93456 0.93782 0.0
H856 H 0.32209 0.92811 0.90959 0.0
C857 C 0.31271 0.87473 0.95242 0.0
C858 C 0.29247 0.86202 0.93662 0.0
C859 C 0.32544 0.88965 0.92179 0.0
C860 C 0.31822 0.89221 0.87477 0.0
C861 C 0.29803 0.87956 0.85871 0.0
H862 H 0.40375 0.96979 0.65635 0.0
H863 H 0.37103 0.94966 0.69133 0.0
C864 C 0.2852 0.86468 0.88961 0.0
C865 C 0.33224 0.90739 0.84166 0.0
H866 H 0.36779 0.95715 0.84274 0.0
C867 C 0.33645 0.90064 0.79632 0.0
C868 C 0.343 0.92816 0.85728 0.0
C869 C 0.33836 0.93637 0.90423 0.0
C870 C 0.35231 0.9139 0.76832 0.0
C871 C 0.36398 0.93443 0.78592 0.0
C872 C 0.35884 0.9414 0.82937 0.0
C873 C 0.3833 0.94804 0.76484 0.0
C874 C 0.35738 0.9056 0.72225 0.0
C875 C 0.40092 0.95425 0.79503 0.0
C876 C 0.41945 0.96565 0.77539 0.0
C877 C 0.42084 0.97122 0.725 0.0
C878 C 0.40317 0.96571 0.69525 0.0
C879 C 0.38449 0.95412 0.71504 0.0
H880 H 0.34817 0.8889 0.71693 0.0
H881 H 0.35483 0.91214 0.68795 0.0
H882 H 0.37339 0.9099 0.72542 0.0
H883 H 0.40033 0.94976 0.83358 0.0
H884 H 0.43272 0.96979 0.79963 0.0
H885 H 0.44037 0.2848 0.93568 0.0
H886 H 0.44202 0.308 0.87215 0.0
H887 H 0.49938 0.35367 0.93993 0.0
H888 H 0.49783 0.33068 0.00355 0.0
H889 H 0.44534 0.34565 0.88382 0.0
H890 H 0.5108 0.35152 0.7916 0.0
H891 H 0.49701 0.33223 0.83447 0.0
H892 H 0.51535 0.35731 0.85881 0.0
C893 C 0.45327 0.29984 0.93732 0.0
C894 C 0.46904 0.30581 0.97457 0.0
C895 C 0.45424 0.31303 0.90076 0.0
C896 C 0.47103 0.33242 0.90053 0.0
C897 C 0.48654 0.33859 0.93839 0.0
H898 H 0.50952 0.44277 0.75933 0.0
H899 H 0.50577 0.41384 0.80365 0.0
C900 C 0.48561 0.32543 0.97486 0.0
C901 C 0.47215 0.34645 0.86168 0.0
H902 H 0.50158 0.37617 0.77193 0.0
C903 C 0.45747 0.35212 0.85883 0.0
C904 C 0.48795 0.35482 0.82894 0.0
C905 C 0.50357 0.34852 0.82815 0.0
C906 C 0.45868 0.36664 0.8259 0.0
C907 C 0.47484 0.37548 0.79431 0.0
C908 C 0.4892 0.36937 0.7961 0.0
C909 C 0.47798 0.3923 0.7625 0.0
C910 C 0.44317 0.37308 0.82686 0.0
C911 C 0.46402 0.38967 0.72303 0.0
C912 C 0.46612 0.40626 0.69733 0.0
C913 C 0.48224 0.42576 0.7108 0.0
C914 C 0.49682 0.42803 0.7482 0.0
C915 C 0.49472 0.41149 0.77365 0.0
H916 H 0.43394 0.36764 0.85999 0.0
H917 H 0.45034 0.38978 0.82791 0.0
H918 H 0.43307 0.36678 0.79192 0.0
H919 H 0.45119 0.3749 0.71309 0.0
H920 H 0.45468 0.40393 0.66858 0.0
H921 H 0.16016 0.44007 0.91709 0.0
H922 H 0.13118 0.43526 0.86444 0.0
H923 H 0.10231 0.43725 0.99863 0.0
H924 H 0.13131 0.44221 0.05166 0.0
H925 H 0.07629 0.40731 0.91133 0.0
H926 H 0.12464 0.48693 0.86297 0.0
H927 H 0.13443 0.47022 0.85334 0.0
H928 H 0.13077 0.47657 0.91642 0.0
C929 C 0.14753 0.43922 0.93539 0.0
C930 C 0.1481 0.44183 0.98842 0.0
C931 C 0.13097 0.43635 0.90531 0.0
C932 C 0.11478 0.4361 0.92778 0.0
C933 C 0.1147 0.43734 0.98075 0.0
H934 H 0.03203 0.4716 0.82807 0.0
H935 H 0.05287 0.4615 0.87575 0.0
C936 C 0.13125 0.44017 0.01093 0.0
C937 C 0.09925 0.43723 0.89624 0.0
H938 H 0.09183 0.46966 0.82592 0.0
C939 C 0.07964 0.42084 0.89227 0.0
C940 C 0.10377 0.45503 0.87199 0.0
C941 C 0.12449 0.47329 0.87649 0.0
C942 C 0.06434 0.42188 0.86445 0.0
C943 C 0.06891 0.43972 0.84058 0.0
C944 C 0.08852 0.45598 0.84422 0.0
C945 C 0.05349 0.44259 0.81406 0.0
C946 C 0.04333 0.40425 0.8616 0.0
C947 C 0.04668 0.43491 0.76387 0.0
C948 C 0.0348 0.44074 0.73618 0.0
C949 C 0.02973 0.45443 0.75836 0.0
C950 C 0.03578 0.46119 0.80958 0.0
C951 C 0.04761 0.45538 0.83706 0.0
H952 H 0.04207 0.39169 0.88387 0.0
H953 H 0.03308 0.40923 0.87594 0.0
H954 H 0.03833 0.39855 0.82147 0.0
H955 H 0.0513 0.42518 0.7455 0.0
H956 H 0.03036 0.43523 0.69687 0.0
H957 H 0.67622 0.18701 0.9112 0.0
H958 H 0.64612 0.16046 0.86397 0.0
H959 H 0.64157 0.11804 0.97286 0.0
H960 H 0.67127 0.14463 0.02118 0.0
H961 H 0.64476 0.1267 0.8213 0.0
H962 H 0.58367 0.10505 0.95038 0.0
H963 H 0.60706 0.12857 0.95949 0.0
H964 H 0.60533 0.10556 0.9793 0.0
C965 C 0.6685 0.17217 0.92584 0.0
C966 C 0.67617 0.16786 0.9697 0.0
C967 C 0.65136 0.15702 0.89875 0.0
C968 C 0.64153 0.13737 0.91523 0.0
C969 C 0.64871 0.1332 0.96002 0.0
H970 H 0.57728 0.02719 0.72792 0.0
H971 H 0.59917 0.05425 0.79123 0.0
C972 C 0.66584 0.14833 0.98716 0.0
C973 C 0.6254 0.12073 0.88238 0.0
H974 H 0.57738 0.08163 0.87971 0.0
C975 C 0.62997 0.11698 0.83391 0.0
C976 C 0.6061 0.10816 0.89888 0.0
C977 C 0.60014 0.11213 0.94968 0.0
C978 C 0.61594 0.10063 0.80191 0.0
C979 C 0.59697 0.0875 0.81926 0.0
C980 C 0.5921 0.09158 0.86705 0.0
C981 C 0.5821 0.0696 0.78755 0.0
C982 C 0.62153 0.09756 0.74969 0.0
C983 C 0.56487 0.06892 0.76637 0.0
C984 C 0.55235 0.05348 0.73027 0.0
C985 C 0.55684 0.03848 0.71513 0.0
C986 C 0.57353 0.03862 0.73861 0.0
C987 C 0.58601 0.05403 0.77473 0.0
H988 H 0.6347 0.11142 0.73797 0.0
H989 H 0.62532 0.08535 0.74971 0.0
H990 H 0.60887 0.09299 0.72109 0.0
H991 H 0.56168 0.08087 0.77578 0.0
H992 H 0.53985 0.054 0.7121 0.0
H993 H 0.55393 0.67659 0.9402 0.0
H994 H 0.55799 0.65482 0.87772 0.0
H995 H 0.57252 0.69935 0.76731 0.0
H996 H 0.56854 0.72134 0.83008 0.0
H997 H 0.54016 0.65918 0.7374 0.0
H998 H 0.60748 0.65838 0.812 0.0
H999 H 0.59107 0.6559 0.86068 0.0
H1000 H 0.60276 0.67875 0.82772 0.0
C1001 C 0.55828 0.68185 0.90284 0.0
C1002 C 0.5609 0.70056 0.8898 0.0
C1003 C 0.56078 0.66952 0.86739 0.0
C1004 C 0.56584 0.67566 0.81823 0.0
C1005 C 0.56888 0.69453 0.8053 0.0
H1006 H 0.53527 0.57028 0.60677 0.0
H1007 H 0.55095 0.60675 0.62819 0.0
C1008 C 0.56663 0.70702 0.84109 0.0
C1009 C 0.56548 0.66108 0.77957 0.0
H1010 H 0.58217 0.62776 0.76438 0.0
C1011 C 0.54975 0.65268 0.74183 0.0
C1012 C 0.57817 0.65288 0.78528 0.0
C1013 C 0.59596 0.66209 0.82332 0.0
C1014 C 0.54489 0.63474 0.71377 0.0
C1015 C 0.55629 0.6253 0.72357 0.0
C1016 C 0.57338 0.63499 0.75723 0.0
C1017 C 0.54828 0.60372 0.70889 0.0
C1018 C 0.52648 0.62495 0.67769 0.0
C1019 C 0.5419 0.59012 0.74718 0.0
C1020 C 0.53304 0.56951 0.73526 0.0
C1021 C 0.53036 0.56196 0.68462 0.0
C1022 C 0.53707 0.57563 0.64611 0.0
C1023 C 0.546 0.59643 0.65822 0.0
H1024 H 0.51872 0.63385 0.6763 0.0
H1025 H 0.53069 0.62334 0.63895 0.0
H1026 H 0.51587 0.6096 0.68917 0.0
H1027 H 0.54343 0.59547 0.7865 0.0
H1028 H 0.52817 0.55951 0.76598 0.0
H1029 H 0.50008 0.18002 0.33715 0.0
H1030 H 0.50197 0.1548 0.38712 0.0
H1031 H 0.4409 0.11152 0.33824 0.0
H1032 H 0.43926 0.13614 0.2853 0.0
H1033 H 0.48223 0.13299 0.46457 0.0
H1034 H 0.46862 0.08157 0.29551 0.0
H1035 H 0.47316 0.10689 0.29041 0.0
H1036 H 0.44886 0.08697 0.30426 0.0
C1037 C 0.48709 0.16507 0.33633 0.0
C1038 C 0.46963 0.16011 0.30622 0.0
C1039 C 0.48813 0.15072 0.36558 0.0
C1040 C 0.47171 0.13111 0.36576 0.0
C1041 C 0.45393 0.12639 0.33784 0.0
H1042 H 0.47517 0.04108 0.56294 0.0
H1043 H 0.46661 0.06577 0.53044 0.0
C1044 C 0.45295 0.14064 0.30801 0.0
C1045 C 0.47363 0.11546 0.39316 0.0
H1046 H 0.4717 0.07015 0.37476 0.0
C1047 C 0.47985 0.11919 0.44505 0.0
C1048 C 0.47066 0.09751 0.36757 0.0
C1049 C 0.46515 0.09303 0.31131 0.0
C1050 C 0.48361 0.1057 0.47169 0.0
C1051 C 0.48067 0.08781 0.44596 0.0
C1052 C 0.47386 0.08382 0.39454 0.0
C1053 C 0.48651 0.07397 0.46938 0.0
C1054 C 0.4915 0.11113 0.52642 0.0
C1055 C 0.5005 0.07038 0.4461 0.0
C1056 C 0.50508 0.05619 0.4639 0.0
C1057 C 0.49594 0.04525 0.50583 0.0
C1058 C 0.4825 0.04934 0.53069 0.0
C1059 C 0.47767 0.06349 0.51225 0.0
H1060 H 0.49679 0.12722 0.53753 0.0
H1061 H 0.47942 0.10168 0.55098 0.0
H1062 H 0.50401 0.10816 0.53376 0.0
H1063 H 0.50764 0.07835 0.41328 0.0
H1064 H 0.51569 0.05361 0.44422 0.0
H1065 H 0.31964 0.46203 0.27366 0.0
H1066 H 0.35044 0.46524 0.31119 0.0
H1067 H 0.38027 0.5297 0.29974 0.0
H1068 H 0.34912 0.52677 0.26466 0.0
H1069 H 0.38726 0.47993 0.274 0.0
H1070 H 0.39164 0.52542 0.44806 0.0
H1071 H 0.3696 0.51301 0.40513 0.0
H1072 H 0.39091 0.5361 0.38927 0.0
C1073 C 0.33262 0.47696 0.27995 0.0
C1074 C 0.33179 0.49418 0.26691 0.0
C1075 C 0.3503 0.47873 0.30079 0.0
C1076 C 0.36757 0.49773 0.30883 0.0
C1077 C 0.36701 0.51494 0.2947 0.0
H1078 H 0.4766 0.51953 0.48073 0.0
H1079 H 0.4558 0.5244 0.41707 0.0
C1080 C 0.34923 0.5132 0.2742 0.0
C1081 C 0.3859 0.49927 0.33304 0.0
H1082 H 0.41656 0.51669 0.44141 0.0
C1083 C 0.39382 0.48816 0.31035 0.0
C1084 C 0.39447 0.51009 0.38036 0.0
C1085 C 0.38617 0.52171 0.40746 0.0
C1086 C 0.4096 0.48695 0.33465 0.0
C1087 C 0.41756 0.49706 0.38279 0.0
C1088 C 0.4104 0.50903 0.40429 0.0
C1089 C 0.43154 0.49351 0.41441 0.0
C1090 C 0.41733 0.47448 0.30933 0.0
C1091 C 0.42486 0.47447 0.43324 0.0
C1092 C 0.43662 0.47165 0.46975 0.0
C1093 C 0.45528 0.48786 0.488 0.0
C1094 C 0.46237 0.50671 0.46717 0.0
C1095 C 0.45049 0.50955 0.43093 0.0
H1096 H 0.41371 0.47238 0.2677 0.0
H1097 H 0.43375 0.4816 0.31681 0.0
H1098 H 0.41024 0.45935 0.32482 0.0
H1099 H 0.41013 0.462 0.4215 0.0
H1100 H 0.43078 0.45695 0.48487 0.0
H1101 H 0.8735 0.30014 0.25256 0.0
H1102 H 0.89901 0.32347 0.31657 0.0
H1103 H 0.8648 0.35315 0.34094 0.0
H1104 H 0.8385 0.32887 0.28088 0.0
H1105 H 0.9222 0.36094 0.31518 0.0
H1106 H 0.87988 0.35118 0.48346 0.0
H1107 H 0.86942 0.33372 0.42832 0.0
H1108 H 0.8676 0.35634 0.43231 0.0
C1109 C 0.8711 0.31126 0.27254 0.0
C1110 C 0.85386 0.31256 0.26125 0.0
C1111 C 0.8858 0.32469 0.30898 0.0
C1112 C 0.88368 0.33984 0.33456 0.0
C1113 C 0.86654 0.34121 0.32318 0.0
H1114 H 0.96868 0.45959 0.40864 0.0
H1115 H 0.94585 0.42543 0.37415 0.0
C1116 C 0.85168 0.32756 0.28763 0.0
C1117 C 0.90016 0.35555 0.36908 0.0
H1118 H 0.90895 0.38506 0.47754 0.0
C1119 C 0.91936 0.36586 0.35128 0.0
C1120 C 0.89683 0.36171 0.41708 0.0
C1121 C 0.87734 0.34993 0.44154 0.0
C1122 C 0.93475 0.38315 0.37791 0.0
C1123 C 0.9306 0.39082 0.42237 0.0
C1124 C 0.91199 0.37952 0.44266 0.0
C1125 C 0.94448 0.41149 0.44474 0.0
C1126 C 0.95516 0.39327 0.35727 0.0
C1127 C 0.9505 0.41521 0.49669 0.0
C1128 C 0.96331 0.43497 0.51698 0.0
C1129 C 0.97032 0.45121 0.48546 0.0
C1130 C 0.96388 0.44739 0.43379 0.0
C1131 C 0.95094 0.42781 0.41385 0.0
H1132 H 0.95804 0.38199 0.33762 0.0
H1133 H 0.95587 0.40392 0.32897 0.0
H1134 H 0.96716 0.40174 0.38772 0.0
H1135 H 0.94542 0.40285 0.52138 0.0
H1136 H 0.96793 0.43746 0.55698 0.0
H1137 H 0.53801 0.85461 0.18351 0.0
H1138 H 0.53638 0.87563 0.25238 0.0
H1139 H 0.49938 0.82254 0.33128 0.0
H1140 H 0.50208 0.80146 0.26426 0.0
H1141 H 0.50543 0.87684 0.28524 0.0
H1142 H 0.54057 0.8569 0.44276 0.0
H1143 H 0.54096 0.84979 0.37728 0.0
H1144 H 0.51904 0.83551 0.41133 0.0
C1145 C 0.52981 0.84738 0.21587 0.0
C1146 C 0.5203 0.82632 0.21836 0.0
C1147 C 0.52876 0.85943 0.25508 0.0
C1148 C 0.51806 0.8507 0.29746 0.0
C1149 C 0.50815 0.82966 0.29961 0.0
H1150 H 0.48828 0.92613 0.48615 0.0
H1151 H 0.48485 0.8962 0.43993 0.0
C1152 C 0.50941 0.81759 0.26069 0.0
C1153 C 0.5168 0.86372 0.33824 0.0
H1154 H 0.52667 0.87741 0.46504 0.0
C1155 C 0.51005 0.87694 0.32457 0.0
C1156 C 0.52301 0.86394 0.38947 0.0
C1157 C 0.53149 0.85093 0.40612 0.0
C1158 C 0.50966 0.89064 0.36034 0.0
C1159 C 0.5154 0.89055 0.41184 0.0
C1160 C 0.52196 0.87719 0.42574 0.0
C1161 C 0.5162 0.90543 0.45061 0.0
C1162 C 0.50396 0.90567 0.34197 0.0
C1163 C 0.53453 0.91946 0.47609 0.0
C1164 C 0.53637 0.93625 0.50391 0.0
C1165 C 0.51996 0.93929 0.5058 0.0
C1166 C 0.50121 0.92421 0.48458 0.0
C1167 C 0.49928 0.90722 0.45787 0.0
H1168 H 0.5051 0.90711 0.30044 0.0
H1169 H 0.48825 0.90054 0.35005 0.0
H1170 H 0.51363 0.92083 0.36142 0.0
H1171 H 0.54774 0.91824 0.47143 0.0
H1172 H 0.55099 0.94768 0.51996 0.0
H1173 H 0.72884 0.5512 0.29812 0.0
H1174 H 0.70324 0.55062 0.34981 0.0
H1175 H 0.68247 0.57253 0.22712 0.0
H1176 H 0.70679 0.57147 0.17358 0.0
H1177 H 0.69374 0.57726 0.38577 0.0
H1178 H 0.63221 0.52214 0.25068 0.0
H1179 H 0.65784 0.52895 0.24415 0.0
H1180 H 0.64871 0.54512 0.22271 0.0
C1181 C 0.71867 0.55563 0.28169 0.0
C1182 C 0.71972 0.56096 0.23106 0.0
C1183 C 0.70419 0.55555 0.31166 0.0
C1184 C 0.69058 0.56104 0.29197 0.0
C1185 C 0.69242 0.56766 0.24269 0.0
H1186 H 0.60402 0.57122 0.48034 0.0
H1187 H 0.63401 0.57982 0.43485 0.0
C1188 C 0.70662 0.56735 0.21232 0.0
C1189 C 0.67391 0.55882 0.32215 0.0
H1190 H 0.6231 0.53536 0.3198 0.0
C1191 C 0.67827 0.56809 0.37143 0.0
C1192 C 0.65371 0.54664 0.30365 0.0
C1193 C 0.6478 0.53498 0.25264 0.0
C1194 C 0.663 0.56531 0.40289 0.0
C1195 C 0.64284 0.55343 0.38393 0.0
C1196 C 0.63855 0.54453 0.33432 0.0
C1197 C 0.62575 0.54877 0.41532 0.0
C1198 C 0.66864 0.57449 0.45661 0.0
C1199 C 0.61106 0.52854 0.41923 0.0
C1200 C 0.59382 0.52369 0.44382 0.0
C1201 C 0.59097 0.53894 0.46589 0.0
C1202 C 0.60598 0.55919 0.46401 0.0
C1203 C 0.62315 0.5641 0.43826 0.0
H1204 H 0.68406 0.5783 0.46924 0.0
H1205 H 0.66798 0.58864 0.45883 0.0
H1206 H 0.65818 0.56409 0.48325 0.0
H1207 H 0.61274 0.51644 0.40215 0.0
H1208 H 0.58256 0.50794 0.44506 0.0
H1209 H 0.19403 0.72582 0.33548 0.0
H1210 H 0.17504 0.70169 0.39763 0.0
H1211 H 0.12673 0.66803 0.28375 0.0
H1212 H 0.14546 0.69243 0.2219 0.0
H1213 H 0.11294 0.67232 0.37097 0.0
H1214 H 0.16705 0.64607 0.40929 0.0
H1215 H 0.1774 0.67274 0.42156 0.0
H1216 H 0.1691 0.66167 0.35787 0.0
C1217 C 0.1794 0.71319 0.32369 0.0
C1218 C 0.17126 0.71093 0.27376 0.0
C1219 C 0.1686 0.69936 0.35918 0.0
C1220 C 0.14961 0.68279 0.34519 0.0
C1221 C 0.14138 0.68066 0.29546 0.0
H1222 H 0.07959 0.5689 0.4642 0.0
H1223 H 0.10545 0.59904 0.42907 0.0
C1224 C 0.15206 0.69461 0.26014 0.0
C1225 C 0.13807 0.66776 0.38224 0.0
H1226 H 0.13903 0.63317 0.45868 0.0
C1227 C 0.11867 0.66382 0.39034 0.0
C1228 C 0.14553 0.65659 0.4073 0.0
C1229 C 0.16583 0.65931 0.3983 0.0
C1230 C 0.10633 0.64869 0.4216 0.0
C1231 C 0.11382 0.63759 0.44697 0.0
C1232 C 0.1334 0.64188 0.43986 0.0
C1233 C 0.10076 0.6199 0.47579 0.0
C1234 C 0.08505 0.64408 0.42492 0.0
C1235 C 0.0903 0.62159 0.51611 0.0
C1236 C 0.07522 0.60425 0.53608 0.0
C1237 C 0.07054 0.58494 0.5164 0.0
C1238 C 0.08255 0.58347 0.47988 0.0
C1239 C 0.09741 0.60075 0.45965 0.0
H1240 H 0.08045 0.65083 0.39442 0.0
H1241 H 0.07456 0.62755 0.42232 0.0
H1242 H 0.08362 0.65042 0.46183 0.0
H1243 H 0.0931 0.63626 0.53039 0.0
H1244 H 0.06649 0.60597 0.56473 0.0
loop_
_geom_bond_atom_site_label_1
_geom_bond_atom_site_label_2
_geom_bond_distance
_geom_bond_site_symmetry_2
_ccdc_geom_bond_type
H0 C19 0.949 . S
H1 C20 0.950 . S
H2 C22 0.950 . S
H3 C23 0.950 . S
H4 C25 0.950 . S
H5 C28 0.950 . S
H6 C29 0.950 . S
H7 C31 0.951 . S
H8 C32 0.949 . S
H9 C34 0.949 . S
H10 C35 0.950 . S
H11 C37 0.950 . S
H12 C38 0.950 . S
H13 C40 0.950 . S
H14 C43 0.950 . S
H15 C44 0.950 . S
H16 C46 0.951 . S
H17 C47 0.949 . S
C18 C19 1.376 . S
C18 C23 1.386 . S
C18 C24 1.483 . S
C19 H0 0.949 . S
C19 C18 1.376 . S
C19 C20 1.397 . S
C20 H1 0.950 . S
C20 C19 1.397 . S
C20 C21 1.391 . S
C21 C20 1.391 . S
C21 C22 1.405 . S
C22 H2 0.950 . S
C22 C21 1.405 . S
C22 C23 1.367 . S
C23 H3 0.950 . S
C23 C18 1.386 . S
C23 C22 1.367 . S
C24 C18 1.483 . S
C24 C25 1.382 . S
C24 C26 1.403 . S
C25 H4 0.950 . S
C25 C24 1.382 . S
C25 C41 1.411 . S
C26 C24 1.403 . S
C26 C27 1.489 . S
C26 C40 1.411 . S
C27 C26 1.489 . S
C27 C28 1.383 . S
C27 C32 1.382 . S
C28 H5 0.950 . S
C28 C27 1.383 . S
C28 C29 1.395 . S
C29 H6 0.950 . S
C29 C28 1.395 . S
C29 C30 1.288 . S
C30 C29 1.288 . S
C30 C31 1.392 . S
C31 H7 0.951 . S
C31 C30 1.392 . S
C31 C32 1.392 . S
C32 H8 0.949 . S
C32 C27 1.382 . S
C32 C31 1.392 . S
C33 C34 1.376 . S
C33 C38 1.386 . S
C33 C39 1.483 . S
C34 H9 0.949 . S
C34 C33 1.376 . S
C34 C35 1.397 . S
C35 H10 0.950 . S
C35 C34 1.397 . S
C35 C36 1.391 . S
C36 C35 1.391 . S
C36 C37 1.405 . S
C37 H11 0.950 . S
C37 C36 1.405 . S
C37 C38 1.367 . S
C38 H12 0.950 . S
C38 C33 1.386 . S
C38 C37 1.367 . S
C39 C33 1.483 . S
C39 C40 1.382 . S
C39 C41 1.403 . S
C40 H13 0.950 . S
C40 C26 1.411 . S
C40 C39 1.382 . S
C41 C25 1.411 . S
C41 C39 1.403 . S
C41 C42 1.489 . S
C42 C41 1.489 . S
C42 C43 1.383 . S
C42 C47 1.382 . S
C43 H14 0.950 . S
C43 C42 1.383 . S
C43 C44 1.395 . S
C44 H15 0.950 . S
C44 C43 1.395 . S
C44 C45 1.288 . S
C45 C44 1.288 . S
C45 C46 1.392 . S
C46 H16 0.951 . S
C46 C45 1.392 . S
C46 C47 1.392 . S
C47 H17 0.949 . S
C47 C42 1.382 . S
C47 C46 1.392 . S
H48 C67 0.949 . S
H49 C68 0.950 . S
H50 C70 0.950 . S
H51 C71 0.950 . S
H52 C73 0.950 . S
H53 C76 0.950 . S
H54 C77 0.950 . S
H55 C79 0.951 . S
H56 C80 0.949 . S
H57 C82 0.949 . S
H58 C83 0.950 . S
H59 C85 0.950 . S
H60 C86 0.950 . S
H61 C88 0.950 . S
H62 C91 0.950 . S
H63 C92 0.948 1_554 S
H64 C94 0.951 . S
H65 C95 0.949 . S
C66 C67 1.376 . S
C66 C71 1.386 . S
C66 C72 1.483 . S
C67 H48 0.949 . S
C67 C66 1.376 . S
C67 C68 1.397 1_554 S
C68 H49 0.950 . S
C68 C67 1.397 1_556 S
C68 C69 1.391 . S
C69 C68 1.391 . S
C69 C70 1.405 1_556 S
C70 H50 0.950 . S
C70 C69 1.405 1_554 S
C70 C71 1.367 . S
C71 H51 0.950 . S
C71 C66 1.386 . S
C71 C70 1.367 . S
C72 C66 1.483 . S
C72 C73 1.382 . S
C72 C74 1.403 . S
C73 H52 0.950 . S
C73 C72 1.382 . S
C73 C89 1.411 . S
C74 C72 1.403 . S
C74 C75 1.489 . S
C74 C88 1.411 . S
C75 C74 1.489 . S
C75 C76 1.383 . S
C75 C80 1.382 . S
C76 H53 0.950 . S
C76 C75 1.383 . S
C76 C77 1.395 . S
C77 H54 0.950 . S
C77 C76 1.395 . S
C77 C78 1.288 . S
C78 C77 1.288 . S
C78 C79 1.392 . S
C79 H55 0.951 . S
C79 C78 1.392 . S
C79 C80 1.392 . S
C80 H56 0.949 . S
C80 C75 1.382 . S
C80 C79 1.392 . S
C81 C82 1.376 . S
C81 C86 1.386 . S
C81 C87 1.483 . S
C82 H57 0.949 . S
C82 C81 1.376 . S
C82 C83 1.397 . S
C83 H58 0.950 . S
C83 C82 1.397 . S
C83 C84 1.391 . S
C84 C83 1.391 . S
C84 C85 1.405 . S
C85 H59 0.950 . S
C85 C84 1.405 . S
C85 C86 1.367 . S
C86 H60 0.950 . S
C86 C81 1.386 . S
C86 C85 1.367 . S
C87 C81 1.483 . S
C87 C88 1.382 . S
C87 C89 1.403 . S
C88 H61 0.950 . S
C88 C74 1.411 . S
C88 C87 1.382 . S
C89 C73 1.411 . S
C89 C87 1.403 . S
C89 C90 1.489 . S
C90 C89 1.489 . S
C90 C91 1.383 . S
C90 C95 1.382 1_554 S
C91 H62 0.950 . S
C91 C90 1.383 . S
C91 C92 1.387 1_554 S
C92 H63 0.948 1_556 S
C92 C91 1.387 1_556 S
C92 C93 1.298 . S
C93 C92 1.298 . S
C93 C94 1.392 . S
C94 H64 0.951 . S
C94 C93 1.392 . S
C94 C95 1.392 . S
C95 H65 0.949 . S
C95 C90 1.382 1_556 S
C95 C94 1.392 . S
H96 C115 0.949 . S
H97 C116 0.950 . S
H98 C118 0.950 . S
H99 C119 0.950 . S
H100 C121 0.950 . S
H101 C124 0.950 . S
H102 C125 0.950 . S
H103 C127 0.951 . S
H104 C128 0.949 . S
H105 C130 0.949 . S
H106 C131 0.950 . S
H107 C133 0.950 . S
H108 C134 0.950 . S
H109 C136 0.950 . S
H110 C139 0.941 1_554 S
H111 C140 0.950 . S
H112 C142 0.951 . S
H113 C143 0.949 . S
C114 C115 1.376 . S
C114 C119 1.386 . S
C114 C120 1.483 1_556 S
C115 H96 0.949 . S
C115 C114 1.376 . S
C115 C116 1.397 . S
C116 H97 0.950 . S
C116 C115 1.397 . S
C116 C117 1.391 . S
C117 C116 1.391 . S
C117 C118 1.405 . S
C118 H98 0.950 . S
C118 C117 1.405 . S
C118 C119 1.367 . S
C119 H99 0.950 . S
C119 C114 1.386 . S
C119 C118 1.367 . S
C120 C114 1.483 1_554 S
C120 C121 1.382 1_554 S
C120 C122 1.403 . S
C121 H100 0.950 . S
C121 C120 1.382 1_556 S
C121 C137 1.411 1_556 S
C122 C120 1.403 . S
C122 C123 1.489 . S
C122 C136 1.411 . S
C123 C122 1.489 . S
C123 C124 1.383 . S
C123 C128 1.382 . S
C124 H101 0.950 . S
C124 C123 1.383 . S
C124 C125 1.395 . S
C125 H102 0.950 . S
C125 C124 1.395 . S
C125 C126 1.288 . S
C126 C125 1.288 . S
C126 C127 1.392 . S
C127 H103 0.951 . S
C127 C126 1.392 . S
C127 C128 1.392 . S
C128 H104 0.949 . S
C128 C123 1.382 . S
C128 C127 1.392 . S
C129 C130 1.376 . S
C129 C134 1.386 . S
C129 C135 1.483 . S
C130 H105 0.949 . S
C130 C129 1.376 . S
C130 C131 1.397 . S
C131 H106 0.950 . S
C131 C130 1.397 . S
C131 C132 1.391 . S
C132 C131 1.391 . S
C132 C133 1.405 . S
C133 H107 0.950 . S
C133 C132 1.405 . S
C133 C134 1.367 . S
C134 H108 0.950 . S
C134 C129 1.386 . S
C134 C133 1.367 . S
C135 C129 1.483 . S
C135 C136 1.382 . S
C135 C137 1.403 . S
C136 H109 0.950 . S
C136 C122 1.411 . S
C136 C135 1.382 . S
C137 C121 1.411 1_554 S
C137 C135 1.403 . S
C137 C138 1.489 1_554 S
C138 C137 1.489 1_556 S
C138 C139 1.383 . S
C138 C143 1.382 . S
C139 H110 0.941 1_556 S
C139 C138 1.383 . S
C139 C140 1.395 . S
C140 H111 0.950 . S
C140 C139 1.395 . S
C140 C141 1.288 . S
C141 C140 1.288 . S
C141 C142 1.392 . S
C142 H112 0.951 . S
C142 C141 1.392 . S
C142 C143 1.392 . S
C143 H113 0.949 . S
C143 C138 1.382 . S
C143 C142 1.392 . S
H144 C163 0.949 . S
H145 C164 0.950 . S
H146 C166 0.950 . S
H147 C167 0.950 . S
H148 C169 0.950 . S
H149 C172 0.950 . S
H150 C173 0.950 . S
H151 C175 0.951 . S
H152 C176 0.949 . S
H153 C178 0.949 . S
H154 C179 0.950 . S
H155 C181 0.950 . S
H156 C182 0.950 . S
H157 C184 0.950 . S
H158 C187 0.950 . S
H159 C188 0.950 . S
H160 C190 0.951 . S
H161 C191 0.949 . S
C162 C163 1.376 . S
C162 C167 1.386 . S
C162 C168 1.483 . S
C163 H144 0.949 . S
C163 C162 1.376 . S
C163 C164 1.397 . S
C164 H145 0.950 . S
C164 C163 1.397 . S
C164 C165 1.391 . S
C165 C164 1.391 . S
C165 C166 1.405 . S
C166 H146 0.950 . S
C166 C165 1.405 . S
C166 C167 1.367 . S
C167 H147 0.950 . S
C167 C162 1.386 . S
C167 C166 1.367 . S
C168 C162 1.483 . S
C168 C169 1.382 . S
C168 C170 1.403 1_554 S
C169 H148 0.950 . S
C169 C168 1.382 . S
C169 C185 1.411 . S
C170 C168 1.403 1_556 S
C170 C171 1.489 . S
C170 C184 1.411 . S
C171 C170 1.489 . S
C171 C172 1.383 . S
C171 C176 1.382 . S
C172 H149 0.950 . S
C172 C171 1.383 . S
C172 C173 1.395 . S
C173 H150 0.950 . S
C173 C172 1.395 . S
C173 C174 1.288 . S
C174 C173 1.288 . S
C174 C175 1.392 . S
C175 H151 0.951 . S
C175 C174 1.392 . S
C175 C176 1.392 . S
C176 H152 0.949 . S
C176 C171 1.382 . S
C176 C175 1.392 . S
C177 C178 1.376 . S
C177 C182 1.386 . S
C177 C183 1.483 . S
C178 H153 0.949 . S
C178 C177 1.376 . S
C178 C179 1.397 . S
C179 H154 0.950 . S
C179 C178 1.397 . S
C179 C180 1.391 . S
C180 C179 1.391 . S
C180 C181 1.405 . S
C181 H155 0.950 . S
C181 C180 1.405 . S
C181 C182 1.367 . S
C182 H156 0.950 . S
C182 C177 1.386 . S
C182 C181 1.367 . S
C183 C177 1.483 . S
C183 C184 1.382 . S
C183 C185 1.403 1_556 S
C184 H157 0.950 . S
C184 C170 1.411 . S
C184 C183 1.382 . S
C185 C169 1.411 . S
C185 C183 1.403 1_554 S
C185 C186 1.489 . S
C186 C185 1.489 . S
C186 C187 1.383 . S
C186 C191 1.382 . S
C187 H158 0.950 . S
C187 C186 1.383 . S
C187 C188 1.395 . S
C188 H159 0.950 . S
C188 C187 1.395 . S
C188 C189 1.288 . S
C189 C188 1.288 . S
C189 C190 1.392 . S
C190 H160 0.951 . S
C190 C189 1.392 . S
C190 C191 1.392 . S
C191 H161 0.949 . S
C191 C186 1.382 . S
C191 C190 1.392 . S
H192 C211 0.949 . S
H193 C212 0.950 . S
H194 C214 0.950 . S
H195 C215 0.950 . S
H196 C217 0.950 . S
H197 C220 0.950 . S
H198 C221 0.950 . S
H199 C223 0.951 . S
H200 C224 0.949 . S
H201 C226 0.949 . S
H202 C227 0.950 . S
H203 C229 0.950 . S
H204 C230 0.950 . S
H205 C232 0.950 . S
H206 C235 0.950 . S
H207 C236 0.950 . S
H208 C238 0.951 . S
H209 C239 0.948 1_556 S
C210 C211 1.376 . S
C210 C215 1.386 . S
C210 C216 1.483 . S
C211 H192 0.949 . S
C211 C210 1.376 . S
C211 C212 1.397 1_554 S
C212 H193 0.950 . S
C212 C211 1.397 1_556 S
C212 C213 1.391 . S
C213 C212 1.391 . S
C213 C214 1.405 1_556 S
C214 H194 0.950 . S
C214 C213 1.405 1_554 S
C214 C215 1.367 . S
C215 H195 0.950 . S
C215 C210 1.386 . S
C215 C214 1.367 . S
C216 C210 1.483 . S
C216 C217 1.382 . S
C216 C218 1.403 . S
C217 H196 0.950 . S
C217 C216 1.382 . S
C217 C233 1.411 . S
C218 C216 1.403 . S
C218 C219 1.489 . S
C218 C232 1.411 . S
C219 C218 1.489 . S
C219 C220 1.383 . S
C219 C224 1.382 . S
C220 H197 0.950 . S
C220 C219 1.383 . S
C220 C221 1.395 . S
C221 H198 0.950 . S
C221 C220 1.395 . S
C221 C222 1.288 . S
C222 C221 1.288 . S
C222 C223 1.392 . S
C223 H199 0.951 . S
C223 C222 1.392 . S
C223 C224 1.392 . S
C224 H200 0.949 . S
C224 C219 1.382 . S
C224 C223 1.392 . S
C225 C226 1.376 . S
C225 C230 1.386 . S
C225 C231 1.483 . S
C226 H201 0.949 . S
C226 C225 1.376 . S
C226 C227 1.397 . S
C227 H202 0.950 . S
C227 C226 1.397 . S
C227 C228 1.391 . S
C228 C227 1.391 . S
C228 C229 1.405 . S
C229 H203 0.950 . S
C229 C228 1.405 . S
C229 C230 1.367 . S
C230 H204 0.950 . S
C230 C225 1.386 . S
C230 C229 1.367 . S
C231 C225 1.483 . S
C231 C232 1.382 . S
C231 C233 1.403 . S
C232 H205 0.950 . S
C232 C218 1.411 . S
C232 C231 1.382 . S
C233 C217 1.411 . S
C233 C231 1.403 . S
C233 C234 1.489 . S
C234 C233 1.489 . S
C234 C235 1.383 . S
C234 C239 1.382 . S
C235 H206 0.950 . S
C235 C234 1.383 . S
C235 C236 1.395 . S
C236 H207 0.950 . S
C236 C235 1.395 . S
C236 C237 1.288 1_554 S
C237 C236 1.288 1_556 S
C237 C238 1.392 . S
C238 H208 0.951 . S
C238 C237 1.392 . S
C238 C239 1.392 1_556 S
C239 H209 0.948 1_554 S
C239 C234 1.382 . S
C239 C238 1.392 1_554 S
H240 C259 0.949 . S
H241 C260 0.950 . S
H242 C262 0.950 . S
H243 C263 0.950 . S
H244 C265 0.950 . S
H245 C268 0.950 . S
H246 C269 0.950 . S
H247 C271 0.951 . S
H248 C272 0.949 . S
H249 C274 0.949 . S
H250 C275 0.950 . S
H251 C277 0.950 . S
H252 C278 0.950 . S
H253 C280 0.950 . S
H254 C283 0.950 . S
H255 C284 0.950 . S
H256 C286 0.951 . S
H257 C287 0.949 . S
C258 C259 1.376 . S
C258 C263 1.386 . S
C258 C264 1.483 . S
C259 H240 0.949 . S
C259 C258 1.376 . S
C259 C260 1.397 . S
C260 H241 0.950 . S
C260 C259 1.397 . S
C260 C261 1.391 . S
C261 C260 1.391 . S
C261 C262 1.405 . S
C262 H242 0.950 . S
C262 C261 1.405 . S
C262 C263 1.367 . S
C263 H243 0.950 . S
C263 C258 1.386 . S
C263 C262 1.367 . S
C264 C258 1.483 . S
C264 C265 1.382 . S
C264 C266 1.403 . S
C265 H244 0.950 . S
C265 C264 1.382 . S
C265 C281 1.411 . S
C266 C264 1.403 . S
C266 C267 1.489 . S
C266 C280 1.411 . S
C267 C266 1.489 . S
C267 C268 1.383 . S
C267 C272 1.382 . S
C268 H245 0.950 . S
C268 C267 1.383 . S
C268 C269 1.395 . S
C269 H246 0.950 . S
C269 C268 1.395 . S
C269 C270 1.288 . S
C270 C269 1.288 . S
C270 C271 1.392 . S
C271 H247 0.951 . S
C271 C270 1.392 . S
C271 C272 1.392 . S
C272 H248 0.949 . S
C272 C267 1.382 . S
C272 C271 1.392 . S
C273 C274 1.376 . S
C273 C278 1.386 . S
C273 C279 1.483 . S
C274 H249 0.949 . S
C274 C273 1.376 . S
C274 C275 1.397 . S
C275 H250 0.950 . S
C275 C274 1.397 . S
C275 C276 1.391 . S
C276 C275 1.391 . S
C276 C277 1.405 . S
C277 H251 0.950 . S
C277 C276 1.405 . S
C277 C278 1.367 . S
C278 H252 0.950 . S
C278 C273 1.386 . S
C278 C277 1.367 . S
C279 C273 1.483 . S
C279 C280 1.382 . S
C279 C281 1.403 . S
C280 H253 0.950 . S
C280 C266 1.411 . S
C280 C279 1.382 . S
C281 C265 1.411 . S
C281 C279 1.403 . S
C281 C282 1.489 . S
C282 C281 1.489 . S
C282 C283 1.383 . S
C282 C287 1.382 . S
C283 H254 0.950 . S
C283 C282 1.383 . S
C283 C284 1.395 . S
C284 H255 0.950 . S
C284 C283 1.395 . S
C284 C285 1.288 . S
C285 C284 1.288 . S
C285 C286 1.392 . S
C286 H256 0.951 . S
C286 C285 1.392 . S
C286 C287 1.392 . S
C287 H257 0.949 . S
C287 C282 1.382 . S
C287 C286 1.392 . S
C288 O315 1.312 . S
C288 O316 1.208 . S
C289 O310 1.331 . S
C289 O313 1.244 . S
C290 O312 1.264 . S
C290 O314 1.273 . S
Mg291 O293 1.936 1_455 S
Mg291 O300 2.081 1_455 S
Mg291 O302 2.023 . S
Mg291 O306 2.031 1_455 S
Mg291 O315 2.291 . S
Mg292 O293 1.939 . S
Mg292 O303 1.971 . S
Mg292 O304 1.917 1_655 S
Mg292 O311 2.011 . S
O293 Mg291 1.936 1_655 S
O293 Mg292 1.939 . S
O293 Mg294 1.915 1_655 S
Mg294 O293 1.915 1_455 S
Mg294 O295 1.915 . S
Mg294 O299 2.013 . S
Mg294 O305 2.114 1_455 S
Mg294 O309 2.013 1_455 S
Mg294 O315 2.114 . S
O295 Mg294 1.915 . S
O295 Mg296 1.936 . S
O295 Mg297 1.963 . S
Mg296 O295 1.936 . S
Mg296 O305 2.291 1_455 S
Mg296 O310 2.081 . S
Mg296 O312 2.023 1_455 S
Mg296 O316 2.031 . S
Mg297 O295 1.963 . S
Mg297 O301 1.986 . S
Mg297 O313 1.942 . S
Mg297 O314 1.955 1_455 S
C298 O309 1.191 . S
C298 O311 1.307 . S
O299 Mg294 2.013 . S
O299 C318 1.191 . S
O300 Mg291 2.081 1_655 S
O300 C308 1.331 . S
O301 Mg297 1.986 . S
O301 C318 1.307 . S
O302 Mg291 2.023 . S
O302 C317 1.264 . S
O303 Mg292 1.971 . S
O303 C308 1.244 . S
O304 Mg292 1.917 1_455 S
O304 C317 1.273 . S
O305 Mg294 2.114 1_655 S
O305 Mg296 2.291 1_655 S
O305 C307 1.312 . S
O306 Mg291 2.031 1_655 S
O306 C307 1.208 . S
C307 O305 1.312 . S
C307 O306 1.208 . S
C308 O300 1.331 . S
C308 O303 1.244 . S
O309 Mg294 2.013 1_655 S
O309 C298 1.191 . S
O310 C289 1.331 . S
O310 Mg296 2.081 . S
O311 Mg292 2.011 . S
O311 C298 1.307 . S
O312 C290 1.264 . S
O312 Mg296 2.023 1_655 S
O313 C289 1.244 . S
O313 Mg297 1.942 . S
O314 C290 1.273 . S
O314 Mg297 1.955 1_655 S
O315 C288 1.312 . S
O315 Mg291 2.291 . S
O315 Mg294 2.114 . S
O316 C288 1.208 . S
O316 Mg296 2.031 . S
C317 O302 1.264 . S
C317 O304 1.273 . S
C318 O299 1.191 . S
C318 O301 1.307 . S
C319 O346 1.312 . S
C319 O347 1.208 . S
C320 O341 1.331 . S
C320 O344 1.244 . S
C321 O343 1.264 . S
C321 O345 1.273 . S
Mg322 O324 1.936 1_545 S
Mg322 O331 2.081 1_545 S
Mg322 O333 2.023 . S
Mg322 O337 2.031 1_545 S
Mg322 O346 2.291 . S
Mg323 O324 1.963 . S
Mg323 O334 1.942 . S
Mg323 O335 1.955 1_565 S
Mg323 O342 1.986 . S
O324 Mg322 1.936 1_565 S
O324 Mg323 1.963 . S
O324 Mg325 1.915 1_565 S
Mg325 O324 1.915 1_545 S
Mg325 O326 1.915 . S
Mg325 O330 2.013 . S
Mg325 O336 2.114 1_545 S
Mg325 O340 2.013 1_545 S
Mg325 O346 2.114 . S
O326 Mg325 1.915 . S
O326 Mg327 1.936 . S
O326 Mg328 1.963 . S
Mg327 O326 1.936 . S
Mg327 O336 2.291 1_545 S
Mg327 O341 2.081 . S
Mg327 O343 2.023 1_545 S
Mg327 O347 2.031 . S
Mg328 O326 1.963 . S
Mg328 O332 1.986 . S
Mg328 O344 1.942 . S
Mg328 O345 1.955 1_545 S
C329 O340 1.191 . S
C329 O342 1.307 . S
O330 Mg325 2.013 . S
O330 C349 1.191 . S
O331 Mg322 2.081 1_565 S
O331 C339 1.331 . S
O332 Mg328 1.986 . S
O332 C349 1.307 . S
O333 Mg322 2.023 . S
O333 C348 1.264 . S
O334 Mg323 1.942 . S
O334 C339 1.244 . S
O335 Mg323 1.955 1_545 S
O335 C348 1.273 . S
O336 Mg325 2.114 1_565 S
O336 Mg327 2.291 1_565 S
O336 C338 1.312 . S
O337 Mg322 2.031 1_565 S
O337 C338 1.208 . S
C338 O336 1.312 . S
C338 O337 1.208 . S
C339 O331 1.331 . S
C339 O334 1.244 . S
O340 Mg325 2.013 1_565 S
O340 C329 1.191 . S
O341 C320 1.331 . S
O341 Mg327 2.081 . S
O342 Mg323 1.986 . S
O342 C329 1.307 . S
O343 C321 1.264 . S
O343 Mg327 2.023 1_565 S
O344 C320 1.244 . S
O344 Mg328 1.942 . S
O345 C321 1.273 . S
O345 Mg328 1.955 1_565 S
O346 C319 1.312 . S
O346 Mg322 2.291 . S
O346 Mg325 2.114 . S
O347 C319 1.208 . S
O347 Mg327 2.031 . S
C348 O333 1.264 . S
C348 O335 1.273 . S
C349 O330 1.191 . S
C349 O332 1.307 . S
C350 O377 1.312 . S
C350 O378 1.208 . S
C351 O372 1.331 . S
C351 O375 1.244 . S
C352 O374 1.264 . S
C352 O376 1.273 . S
Mg353 O355 1.936 . S
Mg353 O362 2.081 . S
Mg353 O364 2.023 . S
Mg353 O368 2.031 . S
Mg353 O377 2.291 . S
Mg354 O355 1.963 . S
Mg354 O365 1.942 . S
Mg354 O366 1.955 . S
Mg354 O373 1.986 . S
O355 Mg353 1.936 . S
O355 Mg354 1.963 . S
O355 Mg356 1.915 . S
Mg356 O355 1.915 . S
Mg356 O357 1.915 . S
Mg356 O361 2.013 . S
Mg356 O367 2.114 . S
Mg356 O371 2.013 . S
Mg356 O377 2.114 . S
O357 Mg356 1.915 . S
O357 Mg358 1.936 . S
O357 Mg359 1.963 . S
Mg358 O357 1.936 . S
Mg358 O367 2.291 . S
Mg358 O372 2.081 . S
Mg358 O374 2.023 . S
Mg358 O378 2.031 . S
Mg359 O357 1.963 . S
Mg359 O363 1.986 . S
Mg359 O375 1.942 . S
Mg359 O376 1.955 . S
C360 O371 1.191 . S
C360 O373 1.307 . S
O361 Mg356 2.013 . S
O361 C380 1.191 . S
O362 Mg353 2.081 . S
O362 C370 1.331 . S
O363 Mg359 1.986 . S
O363 C380 1.307 . S
O364 Mg353 2.023 . S
O364 C379 1.264 . S
O365 Mg354 1.942 . S
O365 C370 1.244 . S
O366 Mg354 1.955 . S
O366 C379 1.273 . S
O367 Mg356 2.114 . S
O367 Mg358 2.291 . S
O367 C369 1.312 . S
O368 Mg353 2.031 . S
O368 C369 1.208 . S
C369 O367 1.312 . S
C369 O368 1.208 . S
C370 O362 1.331 . S
C370 O365 1.244 . S
O371 Mg356 2.013 . S
O371 C360 1.191 . S
O372 C351 1.331 . S
O372 Mg358 2.081 . S
O373 Mg354 1.986 . S
O373 C360 1.307 . S
O374 C352 1.264 . S
O374 Mg358 2.023 . S
O375 C351 1.244 . S
O375 Mg359 1.942 . S
O376 C352 1.273 . S
O376 Mg359 1.955 . S
O377 C350 1.312 . S
O377 Mg353 2.291 . S
O377 Mg356 2.114 . S
O378 C350 1.208 . S
O378 Mg358 2.031 . S
C379 O364 1.264 . S
C379 O366 1.273 . S
C380 O361 1.191 . S
C380 O363 1.307 . S
H381 C389 0.929 . S
H382 C391 0.930 . S
H383 C393 0.930 . S
H384 C396 0.929 . S
H385 C399 0.930 . S
H386 C401 0.960 . S
H387 C401 0.960 . S
H388 C401 0.960 . S
C389 H381 0.929 . S
C389 C390 1.377 . S
C389 C391 1.384 . S
C390 C389 1.377 . S
C390 C396 1.390 . S
C391 H382 0.930 . S
C391 C389 1.384 . S
C391 C392 1.372 . S
C392 C391 1.372 . S
C392 C393 1.400 . S
C392 C397 1.490 . S
C393 H383 0.930 . S
C393 C392 1.400 . S
C393 C396 1.386 . S
H394 C410 0.930 . S
H395 C411 0.931 . S
C396 H384 0.929 . S
C396 C390 1.390 . S
C396 C393 1.386 . S
C397 C392 1.490 . S
C397 C399 1.395 . S
C397 C400 1.403 . S
H398 C404 0.930 . S
C399 H385 0.930 . S
C399 C397 1.395 . S
C399 C402 1.403 . S
C400 C397 1.403 . S
C400 C401 1.524 . S
C400 C404 1.400 . S
C401 H386 0.960 . S
C401 H387 0.960 . S
C401 H388 0.960 . S
C401 C400 1.524 . S
C402 C399 1.403 . S
C402 C403 1.392 . S
C402 C406 1.495 . S
C403 C402 1.392 . S
C403 C404 1.385 . S
C403 C405 1.478 . S
C404 H398 0.930 . S
C404 C400 1.400 . S
C404 C403 1.385 . S
C405 C403 1.478 . S
C405 C407 1.381 . S
C405 C411 1.383 . S
C406 C402 1.495 . S
C406 H412 0.959 . S
C406 H413 0.961 . S
C406 H414 0.960 . S
C407 C405 1.381 . S
C407 C408 1.394 . S
C407 H415 0.930 . S
C408 C407 1.394 . S
C408 C409 1.383 . S
C408 H416 0.929 . S
C409 C408 1.383 . S
C409 C410 1.377 . S
C410 H394 0.930 . S
C410 C409 1.377 . S
C410 C411 1.379 . S
C411 H395 0.931 . S
C411 C405 1.383 . S
C411 C410 1.379 . S
H412 C406 0.959 . S
H413 C406 0.961 . S
H414 C406 0.960 . S
H415 C407 0.930 . S
H416 C408 0.929 . S
H417 C425 0.929 . S
H418 C427 0.930 . S
H419 C429 0.930 . S
H420 C432 0.929 . S
H421 C435 0.930 . S
H422 C437 0.960 . S
H423 C437 0.960 . S
H424 C437 0.960 . S
C425 H417 0.929 . S
C425 C426 1.377 . S
C425 C427 1.384 . S
C426 C425 1.377 . S
C426 C432 1.390 . S
C427 H418 0.930 . S
C427 C425 1.384 . S
C427 C428 1.372 . S
C428 C427 1.372 . S
C428 C429 1.400 . S
C428 C433 1.490 . S
C429 H419 0.930 . S
C429 C428 1.400 . S
C429 C432 1.386 . S
H430 C446 0.930 . S
H431 C447 0.931 . S
C432 H420 0.929 . S
C432 C426 1.390 . S
C432 C429 1.386 . S
C433 C428 1.490 . S
C433 C435 1.395 . S
C433 C436 1.403 . S
H434 C440 0.930 . S
C435 H421 0.930 . S
C435 C433 1.395 . S
C435 C438 1.403 . S
C436 C433 1.403 . S
C436 C437 1.524 . S
C436 C440 1.400 . S
C437 H422 0.960 . S
C437 H423 0.960 . S
C437 H424 0.960 . S
C437 C436 1.524 . S
C438 C435 1.403 . S
C438 C439 1.392 . S
C438 C442 1.495 . S
C439 C438 1.392 . S
C439 C440 1.385 . S
C439 C441 1.478 . S
C440 H434 0.930 . S
C440 C436 1.400 . S
C440 C439 1.385 . S
C441 C439 1.478 . S
C441 C443 1.381 . S
C441 C447 1.383 . S
C442 C438 1.495 . S
C442 H448 0.959 . S
C442 H449 0.961 . S
C442 H450 0.960 . S
C443 C441 1.381 . S
C443 C444 1.394 . S
C443 H451 0.930 . S
C444 C443 1.394 . S
C444 C445 1.383 . S
C444 H452 0.929 . S
C445 C444 1.383 . S
C445 C446 1.377 . S
C446 H430 0.930 . S
C446 C445 1.377 . S
C446 C447 1.379 . S
C447 H431 0.931 . S
C447 C441 1.383 . S
C447 C446 1.379 . S
H448 C442 0.959 . S
H449 C442 0.961 . S
H450 C442 0.960 . S
H451 C443 0.930 . S
H452 C444 0.929 . S
H453 C461 0.929 . S
H454 C463 0.930 . S
H455 C465 0.930 . S
H456 C468 0.929 . S
H457 C471 0.930 . S
H458 C473 0.960 . S
H459 C473 0.960 . S
H460 C473 0.960 . S
C461 H453 0.929 . S
C461 C462 1.377 . S
C461 C463 1.384 . S
C462 C461 1.377 . S
C462 C468 1.390 . S
C463 H454 0.930 . S
C463 C461 1.384 . S
C463 C464 1.372 . S
C464 C463 1.372 . S
C464 C465 1.400 . S
C464 C469 1.490 . S
C465 H455 0.930 . S
C465 C464 1.400 . S
C465 C468 1.386 . S
H466 C482 0.930 . S
H467 C483 0.931 . S
C468 H456 0.929 . S
C468 C462 1.390 . S
C468 C465 1.386 . S
C469 C464 1.490 . S
C469 C471 1.395 . S
C469 C472 1.403 . S
H470 C476 0.930 . S
C471 H457 0.930 . S
C471 C469 1.395 . S
C471 C474 1.403 . S
C472 C469 1.403 . S
C472 C473 1.524 . S
C472 C476 1.400 . S
C473 H458 0.960 . S
C473 H459 0.960 . S
C473 H460 0.960 . S
C473 C472 1.524 . S
C474 C471 1.403 . S
C474 C475 1.392 . S
C474 C478 1.495 . S
C475 C474 1.392 . S
C475 C476 1.385 . S
C475 C477 1.478 . S
C476 H470 0.930 . S
C476 C472 1.400 . S
C476 C475 1.385 . S
C477 C475 1.478 . S
C477 C479 1.381 . S
C477 C483 1.383 . S
C478 C474 1.495 . S
C478 H484 0.959 . S
C478 H485 0.961 . S
C478 H486 0.960 . S
C479 C477 1.381 . S
C479 C480 1.394 . S
C479 H487 0.930 . S
C480 C479 1.394 . S
C480 C481 1.383 . S
C480 H488 0.929 . S
C481 C480 1.383 . S
C481 C482 1.377 . S
C482 H466 0.930 . S
C482 C481 1.377 . S
C482 C483 1.379 . S
C483 H467 0.931 . S
C483 C477 1.383 . S
C483 C482 1.379 . S
H484 C478 0.959 . S
H485 C478 0.961 . S
H486 C478 0.960 . S
H487 C479 0.930 . S
H488 C480 0.929 . S
H489 C497 0.929 . S
H490 C499 0.930 . S
H491 C501 0.930 . S
H492 C504 0.929 . S
H493 C507 0.930 . S
H494 C509 0.960 . S
H495 C509 0.960 . S
H496 C509 0.960 . S
C497 H489 0.929 . S
C497 C498 1.377 . S
C497 C499 1.384 . S
C498 C497 1.377 . S
C498 C504 1.390 . S
C499 H490 0.930 . S
C499 C497 1.384 . S
C499 C500 1.372 . S
C500 C499 1.372 . S
C500 C501 1.400 . S
C500 C505 1.490 . S
C501 H491 0.930 . S
C501 C500 1.400 . S
C501 C504 1.386 . S
H502 C518 0.930 . S
H503 C519 0.931 . S
C504 H492 0.929 . S
C504 C498 1.390 . S
C504 C501 1.386 . S
C505 C500 1.490 . S
C505 C507 1.395 . S
C505 C508 1.403 . S
H506 C512 0.930 . S
C507 H493 0.930 . S
C507 C505 1.395 . S
C507 C510 1.403 . S
C508 C505 1.403 . S
C508 C509 1.524 . S
C508 C512 1.400 . S
C509 H494 0.960 . S
C509 H495 0.960 . S
C509 H496 0.960 . S
C509 C508 1.524 . S
C510 C507 1.403 . S
C510 C511 1.392 . S
C510 C514 1.495 . S
C511 C510 1.392 . S
C511 C512 1.385 . S
C511 C513 1.478 . S
C512 H506 0.930 . S
C512 C508 1.400 . S
C512 C511 1.385 . S
C513 C511 1.478 . S
C513 C515 1.381 . S
C513 C519 1.383 . S
C514 C510 1.495 . S
C514 H520 0.959 . S
C514 H521 0.961 . S
C514 H522 0.960 . S
C515 C513 1.381 . S
C515 C516 1.394 . S
C515 H523 0.930 . S
C516 C515 1.394 . S
C516 C517 1.383 . S
C516 H524 0.929 . S
C517 C516 1.383 . S
C517 C518 1.377 . S
C518 H502 0.930 . S
C518 C517 1.377 . S
C518 C519 1.379 . S
C519 H503 0.931 . S
C519 C513 1.383 . S
C519 C518 1.379 . S
H520 C514 0.959 . S
H521 C514 0.961 . S
H522 C514 0.960 . S
H523 C515 0.930 . S
H524 C516 0.929 . S
H525 C533 0.929 . S
H526 C535 0.930 . S
H527 C537 0.930 . S
H528 C540 0.929 . S
H529 C543 0.930 . S
H530 C545 0.960 . S
H531 C545 0.960 . S
H532 C545 0.960 . S
C533 H525 0.929 . S
C533 C534 1.377 . S
C533 C535 1.384 . S
C534 C533 1.377 . S
C534 C540 1.390 . S
C535 H526 0.930 . S
C535 C533 1.384 . S
C535 C536 1.372 . S
C536 C535 1.372 . S
C536 C537 1.400 . S
C536 C541 1.490 . S
C537 H527 0.930 . S
C537 C536 1.400 . S
C537 C540 1.386 . S
H538 C554 0.930 . S
H539 C555 0.931 . S
C540 H528 0.929 . S
C540 C534 1.390 . S
C540 C537 1.386 . S
C541 C536 1.490 . S
C541 C543 1.395 . S
C541 C544 1.403 . S
H542 C548 0.930 . S
C543 H529 0.930 . S
C543 C541 1.395 . S
C543 C546 1.403 . S
C544 C541 1.403 . S
C544 C545 1.524 . S
C544 C548 1.400 . S
C545 H530 0.960 . S
C545 H531 0.960 . S
C545 H532 0.960 . S
C545 C544 1.524 . S
C546 C543 1.403 . S
C546 C547 1.392 . S
C546 C550 1.495 . S
C547 C546 1.392 . S
C547 C548 1.385 . S
C547 C549 1.478 . S
C548 H542 0.930 . S
C548 C544 1.400 . S
C548 C547 1.385 . S
C549 C547 1.478 . S
C549 C551 1.381 . S
C549 C555 1.383 . S
C550 C546 1.495 . S
C550 H556 0.959 . S
C550 H557 0.961 . S
C550 H558 0.960 . S
C551 C549 1.381 . S
C551 C552 1.394 . S
C551 H559 0.930 . S
C552 C551 1.394 . S
C552 C553 1.383 . S
C552 H560 0.929 . S
C553 C552 1.383 . S
C553 C554 1.377 . S
C554 H538 0.930 . S
C554 C553 1.377 . S
C554 C555 1.379 . S
C555 H539 0.931 . S
C555 C549 1.383 . S
C555 C554 1.379 . S
H556 C550 0.959 . S
H557 C550 0.961 . S
H558 C550 0.960 . S
H559 C551 0.930 . S
H560 C552 0.929 . S
H561 C569 0.929 . S
H562 C571 0.930 . S
H563 C573 0.930 . S
H564 C576 0.929 . S
H565 C579 0.930 . S
H566 C581 0.960 . S
H567 C581 0.960 . S
H568 C581 0.960 . S
C569 H561 0.929 . S
C569 C570 1.377 . S
C569 C571 1.384 . S
C570 C569 1.377 . S
C570 C576 1.390 . S
C571 H562 0.930 . S
C571 C569 1.384 . S
C571 C572 1.372 . S
C572 C571 1.372 . S
C572 C573 1.400 . S
C572 C577 1.490 . S
C573 H563 0.930 . S
C573 C572 1.400 . S
C573 C576 1.386 . S
H574 C590 0.930 . S
H575 C591 0.931 . S
C576 H564 0.929 . S
C576 C570 1.390 . S
C576 C573 1.386 . S
C577 C572 1.490 . S
C577 C579 1.395 . S
C577 C580 1.403 . S
H578 C584 0.930 . S
C579 H565 0.930 . S
C579 C577 1.395 . S
C579 C582 1.403 . S
C580 C577 1.403 . S
C580 C581 1.524 . S
C580 C584 1.400 . S
C581 H566 0.960 . S
C581 H567 0.960 . S
C581 H568 0.960 . S
C581 C580 1.524 . S
C582 C579 1.403 . S
C582 C583 1.392 . S
C582 C586 1.495 . S
C583 C582 1.392 . S
C583 C584 1.385 . S
C583 C585 1.478 . S
C584 H578 0.930 . S
C584 C580 1.400 . S
C584 C583 1.385 . S
C585 C583 1.478 . S
C585 C587 1.381 . S
C585 C591 1.383 . S
C586 C582 1.495 . S
C586 H592 0.959 . S
C586 H593 0.961 . S
C586 H594 0.960 . S
C587 C585 1.381 . S
C587 C588 1.394 . S
C587 H595 0.930 . S
C588 C587 1.394 . S
C588 C589 1.383 . S
C588 H596 0.929 . S
C589 C588 1.383 . S
C589 C590 1.377 . S
C590 H574 0.930 . S
C590 C589 1.377 . S
C590 C591 1.379 . S
C591 H575 0.931 . S
C591 C585 1.383 . S
C591 C590 1.379 . S
H592 C586 0.959 . S
H593 C586 0.961 . S
H594 C586 0.960 . S
H595 C587 0.930 . S
H596 C588 0.929 . S
H597 C605 0.929 . S
H598 C607 0.930 . S
H599 C609 0.930 . S
H600 C612 0.929 . S
H601 C615 0.930 . S
H602 C617 0.960 . S
H603 C617 0.960 . S
H604 C617 0.960 . S
C605 H597 0.929 . S
C605 C606 1.377 . S
C605 C607 1.384 . S
C606 C605 1.377 . S
C606 C612 1.390 . S
C607 H598 0.930 . S
C607 C605 1.384 . S
C607 C608 1.372 . S
C608 C607 1.372 . S
C608 C609 1.400 . S
C608 C613 1.490 . S
C609 H599 0.930 . S
C609 C608 1.400 . S
C609 C612 1.386 . S
H610 C626 0.930 . S
H611 C627 0.931 . S
C612 H600 0.929 . S
C612 C606 1.390 . S
C612 C609 1.386 . S
C613 C608 1.490 . S
C613 C615 1.395 . S
C613 C616 1.403 . S
H614 C620 0.930 . S
C615 H601 0.930 . S
C615 C613 1.395 . S
C615 C618 1.403 . S
C616 C613 1.403 . S
C616 C617 1.524 . S
C616 C620 1.400 . S
C617 H602 0.960 . S
C617 H603 0.960 . S
C617 H604 0.960 . S
C617 C616 1.524 . S
C618 C615 1.403 . S
C618 C619 1.392 . S
C618 C622 1.495 . S
C619 C618 1.392 . S
C619 C620 1.385 . S
C619 C621 1.478 . S
C620 H614 0.930 . S
C620 C616 1.400 . S
C620 C619 1.385 . S
C621 C619 1.478 . S
C621 C623 1.381 . S
C621 C627 1.383 . S
C622 C618 1.495 . S
C622 H628 0.959 . S
C622 H629 0.961 . S
C622 H630 0.960 . S
C623 C621 1.381 . S
C623 C624 1.394 . S
C623 H631 0.930 . S
C624 C623 1.394 . S
C624 C625 1.383 . S
C624 H632 0.929 . S
C625 C624 1.383 . S
C625 C626 1.377 . S
C626 H610 0.930 . S
C626 C625 1.377 . S
C626 C627 1.379 . S
C627 H611 0.931 . S
C627 C621 1.383 . S
C627 C626 1.379 . S
H628 C622 0.959 . S
H629 C622 0.961 . S
H630 C622 0.960 . S
H631 C623 0.930 . S
H632 C624 0.929 . S
H633 C641 0.929 . S
H634 C643 0.930 . S
H635 C645 0.930 . S
H636 C648 0.929 . S
H637 C651 0.930 . S
H638 C653 0.960 . S
H639 C653 0.960 . S
H640 C653 0.960 . S
C641 H633 0.929 . S
C641 C642 1.377 . S
C641 C643 1.384 . S
C642 C641 1.377 . S
C642 C648 1.390 . S
C643 H634 0.930 . S
C643 C641 1.384 . S
C643 C644 1.372 . S
C644 C643 1.372 . S
C644 C645 1.400 . S
C644 C649 1.490 . S
C645 H635 0.930 . S
C645 C644 1.400 . S
C645 C648 1.386 . S
H646 C662 0.930 . S
H647 C663 0.931 . S
C648 H636 0.929 . S
C648 C642 1.390 . S
C648 C645 1.386 . S
C649 C644 1.490 . S
C649 C651 1.395 . S
C649 C652 1.403 . S
H650 C656 0.930 . S
C651 H637 0.930 . S
C651 C649 1.395 . S
C651 C654 1.403 . S
C652 C649 1.403 . S
C652 C653 1.524 . S
C652 C656 1.400 . S
C653 H638 0.960 . S
C653 H639 0.960 . S
C653 H640 0.960 . S
C653 C652 1.524 . S
C654 C651 1.403 . S
C654 C655 1.392 . S
C654 C658 1.495 . S
C655 C654 1.392 . S
C655 C656 1.385 . S
C655 C657 1.478 . S
C656 H650 0.930 . S
C656 C652 1.400 . S
C656 C655 1.385 . S
C657 C655 1.478 . S
C657 C659 1.381 . S
C657 C663 1.383 . S
C658 C654 1.495 . S
C658 H664 0.959 . S
C658 H665 0.961 . S
C658 H666 0.960 . S
C659 C657 1.381 . S
C659 C660 1.394 . S
C659 H667 0.930 . S
C660 C659 1.394 . S
C660 C661 1.383 . S
C660 H668 0.929 . S
C661 C660 1.383 . S
C661 C662 1.377 . S
C662 H646 0.930 . S
C662 C661 1.377 . S
C662 C663 1.379 . S
C663 H647 0.931 . S
C663 C657 1.383 . S
C663 C662 1.379 . S
H664 C658 0.959 . S
H665 C658 0.961 . S
H666 C658 0.960 . S
H667 C659 0.930 . S
H668 C660 0.929 . S
H669 C677 0.929 . S
H670 C679 0.930 . S
H671 C681 0.930 . S
H672 C684 0.929 . S
H673 C687 0.930 . S
H674 C689 0.960 . S
H675 C689 0.960 . S
H676 C689 0.960 . S
C677 H669 0.929 . S
C677 C678 1.377 . S
C677 C679 1.384 . S
C678 C677 1.377 . S
C678 C684 1.390 . S
C679 H670 0.930 . S
C679 C677 1.384 . S
C679 C680 1.372 . S
C680 C679 1.372 . S
C680 C681 1.400 . S
C680 C685 1.490 . S
C681 H671 0.930 . S
C681 C680 1.400 . S
C681 C684 1.386 . S
H682 C698 0.930 . S
H683 C699 0.931 . S
C684 H672 0.929 . S
C684 C678 1.390 . S
C684 C681 1.386 . S
C685 C680 1.490 . S
C685 C687 1.395 . S
C685 C688 1.403 . S
H686 C692 0.930 . S
C687 H673 0.930 . S
C687 C685 1.395 . S
C687 C690 1.403 . S
C688 C685 1.403 . S
C688 C689 1.524 . S
C688 C692 1.400 . S
C689 H674 0.960 . S
C689 H675 0.960 . S
C689 H676 0.960 . S
C689 C688 1.524 . S
C690 C687 1.403 . S
C690 C691 1.392 . S
C690 C694 1.495 . S
C691 C690 1.392 . S
C691 C692 1.385 . S
C691 C693 1.478 . S
C692 H686 0.930 . S
C692 C688 1.400 . S
C692 C691 1.385 . S
C693 C691 1.478 . S
C693 C695 1.381 . S
C693 C699 1.383 . S
C694 C690 1.495 . S
C694 H700 0.959 . S
C694 H701 0.961 . S
C694 H702 0.960 . S
C695 C693 1.381 . S
C695 C696 1.394 . S
C695 H703 0.930 . S
C696 C695 1.394 . S
C696 C697 1.383 . S
C696 H704 0.929 . S
C697 C696 1.383 . S
C697 C698 1.377 . S
C698 H682 0.930 . S
C698 C697 1.377 . S
C698 C699 1.379 . S
C699 H683 0.931 . S
C699 C693 1.383 . S
C699 C698 1.379 . S
H700 C694 0.959 . S
H701 C694 0.961 . S
H702 C694 0.960 . S
H703 C695 0.930 . S
H704 C696 0.929 . S
H705 C713 0.929 1_554 S
H706 C715 0.930 . S
H707 C717 0.930 . S
H708 C720 0.929 . S
H709 C723 0.930 . S
H710 C725 0.960 . S
H711 C725 0.960 . S
H712 C725 0.960 . S
C713 H705 0.929 1_556 S
C713 C714 1.377 1_556 S
C713 C715 1.384 . S
C714 C713 1.377 1_554 S
C714 C720 1.390 1_554 S
C715 H706 0.930 . S
C715 C713 1.384 . S
C715 C716 1.372 . S
C716 C715 1.372 . S
C716 C717 1.400 . S
C716 C721 1.490 . S
C717 H707 0.930 . S
C717 C716 1.400 . S
C717 C720 1.386 . S
H718 C734 0.930 . S
H719 C735 0.931 . S
C720 H708 0.929 . S
C720 C714 1.390 1_556 S
C720 C717 1.386 . S
C721 C716 1.490 . S
C721 C723 1.395 . S
C721 C724 1.403 . S
H722 C728 0.930 . S
C723 H709 0.930 . S
C723 C721 1.395 . S
C723 C726 1.403 . S
C724 C721 1.403 . S
C724 C725 1.524 . S
C724 C728 1.400 . S
C725 H710 0.960 . S
C725 H711 0.960 . S
C725 H712 0.960 . S
C725 C724 1.524 . S
C726 C723 1.403 . S
C726 C727 1.392 . S
C726 C730 1.495 . S
C727 C726 1.392 . S
C727 C728 1.385 . S
C727 C729 1.478 . S
C728 H722 0.930 . S
C728 C724 1.400 . S
C728 C727 1.385 . S
C729 C727 1.478 . S
C729 C731 1.381 . S
C729 C735 1.383 . S
C730 C726 1.495 . S
C730 H736 0.959 . S
C730 H737 0.961 . S
C730 H738 0.960 . S
C731 C729 1.381 . S
C731 C732 1.394 . S
C731 H739 0.930 . S
C732 C731 1.394 . S
C732 C733 1.383 . S
C732 H740 0.929 . S
C733 C732 1.383 . S
C733 C734 1.377 . S
C734 H718 0.930 . S
C734 C733 1.377 . S
C734 C735 1.379 . S
C735 H719 0.931 . S
C735 C729 1.383 . S
C735 C734 1.379 . S
H736 C730 0.959 . S
H737 C730 0.961 . S
H738 C730 0.960 . S
H739 C731 0.930 . S
H740 C732 0.929 . S
H741 C749 0.929 . S
H742 C751 0.930 . S
H743 C753 0.930 . S
H744 C756 0.929 . S
H745 C759 0.930 . S
H746 C761 0.960 . S
H747 C761 0.960 1_554 S
H748 C761 0.960 1_554 S
C749 H741 0.929 . S
C749 C750 1.377 1_556 S
C749 C751 1.384 . S
C750 C749 1.377 1_554 S
C750 C756 1.390 . S
C751 H742 0.930 . S
C751 C749 1.384 . S
C751 C752 1.372 . S
C752 C751 1.372 . S
C752 C753 1.400 . S
C752 C757 1.490 . S
C753 H743 0.930 . S
C753 C752 1.400 . S
C753 C756 1.386 1_556 S
H754 C770 0.930 . S
H755 C771 0.931 . S
C756 H744 0.929 . S
C756 C750 1.390 . S
C756 C753 1.386 1_554 S
C757 C752 1.490 . S
C757 C759 1.395 . S
C757 C760 1.403 . S
H758 C764 0.930 . S
C759 H745 0.930 . S
C759 C757 1.395 . S
C759 C762 1.403 . S
C760 C757 1.403 . S
C760 C761 1.524 . S
C760 C764 1.400 . S
C761 H746 0.960 . S
C761 H747 0.960 1_556 S
C761 H748 0.960 1_556 S
C761 C760 1.524 . S
C762 C759 1.403 . S
C762 C763 1.392 . S
C762 C766 1.495 . S
C763 C762 1.392 . S
C763 C764 1.385 . S
C763 C765 1.478 . S
C764 H758 0.930 . S
C764 C760 1.400 . S
C764 C763 1.385 . S
C765 C763 1.478 . S
C765 C767 1.381 . S
C765 C771 1.383 . S
C766 C762 1.495 . S
C766 H772 0.959 . S
C766 H773 0.961 . S
C766 H774 0.960 . S
C767 C765 1.381 . S
C767 C768 1.394 . S
C767 H775 0.930 . S
C768 C767 1.394 . S
C768 C769 1.383 . S
C768 H776 0.929 . S
C769 C768 1.383 . S
C769 C770 1.377 . S
C770 H754 0.930 . S
C770 C769 1.377 . S
C770 C771 1.379 . S
C771 H755 0.931 . S
C771 C765 1.383 . S
C771 C770 1.379 . S
H772 C766 0.959 . S
H773 C766 0.961 . S
H774 C766 0.960 . S
H775 C767 0.930 . S
H776 C768 0.929 . S
H777 C785 0.929 . S
H778 C787 0.930 . S
H779 C789 0.930 . S
H780 C792 0.929 . S
H781 C795 0.930 . S
H782 C797 0.960 . S
H783 C797 0.960 . S
H784 C797 0.960 . S
C785 H777 0.929 . S
C785 C786 1.377 . S
C785 C787 1.384 . S
C786 C785 1.377 . S
C786 C792 1.390 . S
C787 H778 0.930 . S
C787 C785 1.384 . S
C787 C788 1.372 . S
C788 C787 1.372 . S
C788 C789 1.400 . S
C788 C793 1.490 . S
C789 H779 0.930 . S
C789 C788 1.400 . S
C789 C792 1.386 . S
H790 C806 0.930 . S
H791 C807 0.931 . S
C792 H780 0.929 . S
C792 C786 1.390 . S
C792 C789 1.386 . S
C793 C788 1.490 . S
C793 C795 1.395 . S
C793 C796 1.403 . S
H794 C800 0.930 . S
C795 H781 0.930 . S
C795 C793 1.395 . S
C795 C798 1.403 . S
C796 C793 1.403 . S
C796 C797 1.524 . S
C796 C800 1.400 . S
C797 H782 0.960 . S
C797 H783 0.960 . S
C797 H784 0.960 . S
C797 C796 1.524 . S
C798 C795 1.403 . S
C798 C799 1.392 . S
C798 C802 1.495 . S
C799 C798 1.392 . S
C799 C800 1.385 . S
C799 C801 1.478 . S
C800 H794 0.930 . S
C800 C796 1.400 . S
C800 C799 1.385 . S
C801 C799 1.478 . S
C801 C803 1.381 . S
C801 C807 1.383 . S
C802 C798 1.495 . S
C802 H808 0.959 . S
C802 H809 0.961 . S
C802 H810 0.960 . S
C803 C801 1.381 . S
C803 C804 1.394 . S
C803 H811 0.930 . S
C804 C803 1.394 . S
C804 C805 1.383 . S
C804 H812 0.929 . S
C805 C804 1.383 . S
C805 C806 1.377 . S
C806 H790 0.930 . S
C806 C805 1.377 . S
C806 C807 1.379 . S
C807 H791 0.931 . S
C807 C801 1.383 . S
C807 C806 1.379 . S
H808 C802 0.959 . S
H809 C802 0.961 . S
H810 C802 0.960 . S
H811 C803 0.930 . S
H812 C804 0.929 . S
H813 C821 0.929 . S
H814 C823 0.930 . S
H815 C825 0.930 . S
H816 C828 0.929 . S
H817 C831 0.930 . S
H818 C833 0.960 . S
H819 C833 0.960 . S
H820 C833 0.960 . S
C821 H813 0.929 . S
C821 C822 1.377 . S
C821 C823 1.384 . S
C822 C821 1.377 . S
C822 C828 1.390 . S
C823 H814 0.930 . S
C823 C821 1.384 . S
C823 C824 1.372 . S
C824 C823 1.372 . S
C824 C825 1.400 . S
C824 C829 1.490 . S
C825 H815 0.930 . S
C825 C824 1.400 . S
C825 C828 1.386 . S
H826 C842 0.930 . S
H827 C843 0.931 . S
C828 H816 0.929 . S
C828 C822 1.390 . S
C828 C825 1.386 . S
C829 C824 1.490 . S
C829 C831 1.395 . S
C829 C832 1.403 . S
H830 C836 0.930 . S
C831 H817 0.930 . S
C831 C829 1.395 . S
C831 C834 1.403 . S
C832 C829 1.403 . S
C832 C833 1.524 . S
C832 C836 1.400 . S
C833 H818 0.960 . S
C833 H819 0.960 . S
C833 H820 0.960 . S
C833 C832 1.524 . S
C834 C831 1.403 . S
C834 C835 1.392 . S
C834 C838 1.495 . S
C835 C834 1.392 . S
C835 C836 1.385 . S
C835 C837 1.478 . S
C836 H830 0.930 . S
C836 C832 1.400 . S
C836 C835 1.385 . S
C837 C835 1.478 . S
C837 C839 1.381 . S
C837 C843 1.383 . S
C838 C834 1.495 . S
C838 H844 0.959 . S
C838 H845 0.961 . S
C838 H846 0.960 . S
C839 C837 1.381 . S
C839 C840 1.394 . S
C839 H847 0.930 . S
C840 C839 1.394 . S
C840 C841 1.383 . S
C840 H848 0.929 . S
C841 C840 1.383 . S
C841 C842 1.377 . S
C842 H826 0.930 . S
C842 C841 1.377 . S
C842 C843 1.379 . S
C843 H827 0.931 . S
C843 C837 1.383 . S
C843 C842 1.379 . S
H844 C838 0.959 . S
H845 C838 0.961 . S
H846 C838 0.960 . S
H847 C839 0.930 . S
H848 C840 0.929 . S
H849 C857 0.929 . S
H850 C859 0.930 . S
H851 C861 0.930 . S
H852 C864 0.929 . S
H853 C867 0.930 . S
H854 C869 0.960 . S
H855 C869 0.960 . S
H856 C869 0.960 . S
C857 H849 0.929 . S
C857 C858 1.377 . S
C857 C859 1.384 . S
C858 C857 1.377 . S
C858 C864 1.390 . S
C859 H850 0.930 . S
C859 C857 1.384 . S
C859 C860 1.372 . S
C860 C859 1.372 . S
C860 C861 1.400 . S
C860 C865 1.490 . S
C861 H851 0.930 . S
C861 C860 1.400 . S
C861 C864 1.386 . S
H862 C878 0.930 . S
H863 C879 0.931 . S
C864 H852 0.929 . S
C864 C858 1.390 . S
C864 C861 1.386 . S
C865 C860 1.490 . S
C865 C867 1.395 . S
C865 C868 1.403 . S
H866 C872 0.930 . S
C867 H853 0.930 . S
C867 C865 1.395 . S
C867 C870 1.403 . S
C868 C865 1.403 . S
C868 C869 1.524 . S
C868 C872 1.400 . S
C869 H854 0.960 . S
C869 H855 0.960 . S
C869 H856 0.960 . S
C869 C868 1.524 . S
C870 C867 1.403 . S
C870 C871 1.392 . S
C870 C874 1.495 . S
C871 C870 1.392 . S
C871 C872 1.385 . S
C871 C873 1.478 . S
C872 H866 0.930 . S
C872 C868 1.400 . S
C872 C871 1.385 . S
C873 C871 1.478 . S
C873 C875 1.381 . S
C873 C879 1.383 . S
C874 C870 1.495 . S
C874 H880 0.959 . S
C874 H881 0.961 . S
C874 H882 0.960 . S
C875 C873 1.381 . S
C875 C876 1.394 . S
C875 H883 0.930 . S
C876 C875 1.394 . S
C876 C877 1.383 . S
C876 H884 0.929 . S
C877 C876 1.383 . S
C877 C878 1.377 . S
C878 H862 0.930 . S
C878 C877 1.377 . S
C878 C879 1.379 . S
C879 H863 0.931 . S
C879 C873 1.383 . S
C879 C878 1.379 . S
H880 C874 0.959 . S
H881 C874 0.961 . S
H882 C874 0.960 . S
H883 C875 0.930 . S
H884 C876 0.929 . S
H885 C893 0.929 . S
H886 C895 0.930 . S
H887 C897 0.930 . S
H888 C900 0.929 1_554 S
H889 C903 0.930 . S
H890 C905 0.960 . S
H891 C905 0.960 . S
H892 C905 0.960 . S
C893 H885 0.929 . S
C893 C894 1.377 . S
C893 C895 1.384 . S
C894 C893 1.377 . S
C894 C900 1.390 . S
C895 H886 0.930 . S
C895 C893 1.384 . S
C895 C896 1.372 . S
C896 C895 1.372 . S
C896 C897 1.400 . S
C896 C901 1.490 . S
C897 H887 0.930 . S
C897 C896 1.400 . S
C897 C900 1.386 . S
H898 C914 0.930 . S
H899 C915 0.931 . S
C900 H888 0.929 1_556 S
C900 C894 1.390 . S
C900 C897 1.386 . S
C901 C896 1.490 . S
C901 C903 1.395 . S
C901 C904 1.403 . S
H902 C908 0.930 . S
C903 H889 0.930 . S
C903 C901 1.395 . S
C903 C906 1.403 . S
C904 C901 1.403 . S
C904 C905 1.524 . S
C904 C908 1.400 . S
C905 H890 0.960 . S
C905 H891 0.960 . S
C905 H892 0.960 . S
C905 C904 1.524 . S
C906 C903 1.403 . S
C906 C907 1.392 . S
C906 C910 1.495 . S
C907 C906 1.392 . S
C907 C908 1.385 . S
C907 C909 1.478 . S
C908 H902 0.930 . S
C908 C904 1.400 . S
C908 C907 1.385 . S
C909 C907 1.478 . S
C909 C911 1.381 . S
C909 C915 1.383 . S
C910 C906 1.495 . S
C910 H916 0.959 . S
C910 H917 0.961 . S
C910 H918 0.960 . S
C911 C909 1.381 . S
C911 C912 1.394 . S
C911 H919 0.930 . S
C912 C911 1.394 . S
C912 C913 1.383 . S
C912 H920 0.929 . S
C913 C912 1.383 . S
C913 C914 1.377 . S
C914 H898 0.930 . S
C914 C913 1.377 . S
C914 C915 1.379 . S
C915 H899 0.931 . S
C915 C909 1.383 . S
C915 C914 1.379 . S
H916 C910 0.959 . S
H917 C910 0.961 . S
H918 C910 0.960 . S
H919 C911 0.930 . S
H920 C912 0.929 . S
H921 C929 0.929 . S
H922 C931 0.930 . S
H923 C933 0.930 1_554 S
H924 C936 0.929 . S
H925 C939 0.930 . S
H926 C941 0.960 . S
H927 C941 0.960 . S
H928 C941 0.960 . S
C929 H921 0.929 . S
C929 C930 1.377 1_556 S
C929 C931 1.384 . S
C930 C929 1.377 1_554 S
C930 C936 1.390 . S
C931 H922 0.930 . S
C931 C929 1.384 . S
C931 C932 1.372 . S
C932 C931 1.372 . S
C932 C933 1.400 . S
C932 C937 1.490 . S
C933 H923 0.930 1_556 S
C933 C932 1.400 . S
C933 C936 1.386 1_556 S
H934 C950 0.930 . S
H935 C951 0.931 . S
C936 H924 0.929 . S
C936 C930 1.390 . S
C936 C933 1.386 1_554 S
C937 C932 1.490 . S
C937 C939 1.395 . S
C937 C940 1.403 . S
H938 C944 0.930 . S
C939 H925 0.930 . S
C939 C937 1.395 . S
C939 C942 1.403 . S
C940 C937 1.403 . S
C940 C941 1.524 . S
C940 C944 1.400 . S
C941 H926 0.960 . S
C941 H927 0.960 . S
C941 H928 0.960 . S
C941 C940 1.524 . S
C942 C939 1.403 . S
C942 C943 1.392 . S
C942 C946 1.495 . S
C943 C942 1.392 . S
C943 C944 1.385 . S
C943 C945 1.478 . S
C944 H938 0.930 . S
C944 C940 1.400 . S
C944 C943 1.385 . S
C945 C943 1.478 . S
C945 C947 1.381 . S
C945 C951 1.383 . S
C946 C942 1.495 . S
C946 H952 0.959 . S
C946 H953 0.961 . S
C946 H954 0.960 . S
C947 C945 1.381 . S
C947 C948 1.394 . S
C947 H955 0.930 . S
C948 C947 1.394 . S
C948 C949 1.383 . S
C948 H956 0.929 . S
C949 C948 1.383 . S
C949 C950 1.377 . S
C950 H934 0.930 . S
C950 C949 1.377 . S
C950 C951 1.379 . S
C951 H935 0.931 . S
C951 C945 1.383 . S
C951 C950 1.379 . S
H952 C946 0.959 . S
H953 C946 0.961 . S
H954 C946 0.960 . S
H955 C947 0.930 . S
H956 C948 0.929 . S
H957 C965 0.929 . S
H958 C967 0.930 . S
H959 C969 0.930 . S
H960 C972 0.929 . S
H961 C975 0.930 . S
H962 C977 0.960 . S
H963 C977 0.960 . S
H964 C977 0.960 . S
C965 H957 0.929 . S
C965 C966 1.377 . S
C965 C967 1.384 . S
C966 C965 1.377 . S
C966 C972 1.390 . S
C967 H958 0.930 . S
C967 C965 1.384 . S
C967 C968 1.372 . S
C968 C967 1.372 . S
C968 C969 1.400 . S
C968 C973 1.490 . S
C969 H959 0.930 . S
C969 C968 1.400 . S
C969 C972 1.386 . S
H970 C986 0.930 . S
H971 C987 0.931 . S
C972 H960 0.929 . S
C972 C966 1.390 . S
C972 C969 1.386 . S
C973 C968 1.490 . S
C973 C975 1.395 . S
C973 C976 1.403 . S
H974 C980 0.930 . S
C975 H961 0.930 . S
C975 C973 1.395 . S
C975 C978 1.403 . S
C976 C973 1.403 . S
C976 C977 1.524 . S
C976 C980 1.400 . S
C977 H962 0.960 . S
C977 H963 0.960 . S
C977 H964 0.960 . S
C977 C976 1.524 . S
C978 C975 1.403 . S
C978 C979 1.392 . S
C978 C982 1.495 . S
C979 C978 1.392 . S
C979 C980 1.385 . S
C979 C981 1.478 . S
C980 H974 0.930 . S
C980 C976 1.400 . S
C980 C979 1.385 . S
C981 C979 1.478 . S
C981 C983 1.381 . S
C981 C987 1.383 . S
C982 C978 1.495 . S
C982 H988 0.959 . S
C982 H989 0.961 . S
C982 H990 0.960 . S
C983 C981 1.381 . S
C983 C984 1.394 . S
C983 H991 0.930 . S
C984 C983 1.394 . S
C984 C985 1.383 . S
C984 H992 0.929 . S
C985 C984 1.383 . S
C985 C986 1.377 . S
C986 H970 0.930 . S
C986 C985 1.377 . S
C986 C987 1.379 . S
C987 H971 0.931 . S
C987 C981 1.383 . S
C987 C986 1.379 . S
H988 C982 0.959 . S
H989 C982 0.961 . S
H990 C982 0.960 . S
H991 C983 0.930 . S
H992 C984 0.929 . S
H993 C1001 0.929 . S
H994 C1003 0.930 . S
H995 C1005 0.930 . S
H996 C1008 0.929 . S
H997 C1011 0.930 . S
H998 C1013 0.960 . S
H999 C1013 0.960 . S
H1000 C1013 0.960 . S
C1001 H993 0.929 . S
C1001 C1002 1.377 . S
C1001 C1003 1.384 . S
C1002 C1001 1.377 . S
C1002 C1008 1.390 . S
C1003 H994 0.930 . S
C1003 C1001 1.384 . S
C1003 C1004 1.372 . S
C1004 C1003 1.372 . S
C1004 C1005 1.400 . S
C1004 C1009 1.490 . S
C1005 H995 0.930 . S
C1005 C1004 1.400 . S
C1005 C1008 1.386 . S
H1006 C1022 0.930 . S
H1007 C1023 0.931 . S
C1008 H996 0.929 . S
C1008 C1002 1.390 . S
C1008 C1005 1.386 . S
C1009 C1004 1.490 . S
C1009 C1011 1.395 . S
C1009 C1012 1.403 . S
H1010 C1016 0.930 . S
C1011 H997 0.930 . S
C1011 C1009 1.395 . S
C1011 C1014 1.403 . S
C1012 C1009 1.403 . S
C1012 C1013 1.524 . S
C1012 C1016 1.400 . S
C1013 H998 0.960 . S
C1013 H999 0.960 . S
C1013 H1000 0.960 . S
C1013 C1012 1.524 . S
C1014 C1011 1.403 . S
C1014 C1015 1.392 . S
C1014 C1018 1.495 . S
C1015 C1014 1.392 . S
C1015 C1016 1.385 . S
C1015 C1017 1.478 . S
C1016 H1010 0.930 . S
C1016 C1012 1.400 . S
C1016 C1015 1.385 . S
C1017 C1015 1.478 . S
C1017 C1019 1.381 . S
C1017 C1023 1.383 . S
C1018 C1014 1.495 . S
C1018 H1024 0.959 . S
C1018 H1025 0.961 . S
C1018 H1026 0.960 . S
C1019 C1017 1.381 . S
C1019 C1020 1.394 . S
C1019 H1027 0.930 . S
C1020 C1019 1.394 . S
C1020 C1021 1.383 . S
C1020 H1028 0.929 . S
C1021 C1020 1.383 . S
C1021 C1022 1.377 . S
C1022 H1006 0.930 . S
C1022 C1021 1.377 . S
C1022 C1023 1.379 . S
C1023 H1007 0.931 . S
C1023 C1017 1.383 . S
C1023 C1022 1.379 . S
H1024 C1018 0.959 . S
H1025 C1018 0.961 . S
H1026 C1018 0.960 . S
H1027 C1019 0.930 . S
H1028 C1020 0.929 . S
H1029 C1037 0.929 . S
H1030 C1039 0.930 . S
H1031 C1041 0.930 . S
H1032 C1044 0.929 . S
H1033 C1047 0.930 . S
H1034 C1049 0.960 . S
H1035 C1049 0.960 . S
H1036 C1049 0.960 . S
C1037 H1029 0.929 . S
C1037 C1038 1.377 . S
C1037 C1039 1.384 . S
C1038 C1037 1.377 . S
C1038 C1044 1.390 . S
C1039 H1030 0.930 . S
C1039 C1037 1.384 . S
C1039 C1040 1.372 . S
C1040 C1039 1.372 . S
C1040 C1041 1.400 . S
C1040 C1045 1.490 . S
C1041 H1031 0.930 . S
C1041 C1040 1.400 . S
C1041 C1044 1.386 . S
H1042 C1058 0.930 . S
H1043 C1059 0.931 . S
C1044 H1032 0.929 . S
C1044 C1038 1.390 . S
C1044 C1041 1.386 . S
C1045 C1040 1.490 . S
C1045 C1047 1.395 . S
C1045 C1048 1.403 . S
H1046 C1052 0.930 . S
C1047 H1033 0.930 . S
C1047 C1045 1.395 . S
C1047 C1050 1.403 . S
C1048 C1045 1.403 . S
C1048 C1049 1.524 . S
C1048 C1052 1.400 . S
C1049 H1034 0.960 . S
C1049 H1035 0.960 . S
C1049 H1036 0.960 . S
C1049 C1048 1.524 . S
C1050 C1047 1.403 . S
C1050 C1051 1.392 . S
C1050 C1054 1.495 . S
C1051 C1050 1.392 . S
C1051 C1052 1.385 . S
C1051 C1053 1.478 . S
C1052 H1046 0.930 . S
C1052 C1048 1.400 . S
C1052 C1051 1.385 . S
C1053 C1051 1.478 . S
C1053 C1055 1.381 . S
C1053 C1059 1.383 . S
C1054 C1050 1.495 . S
C1054 H1060 0.959 . S
C1054 H1061 0.961 . S
C1054 H1062 0.960 . S
C1055 C1053 1.381 . S
C1055 C1056 1.394 . S
C1055 H1063 0.930 . S
C1056 C1055 1.394 . S
C1056 C1057 1.383 . S
C1056 H1064 0.929 . S
C1057 C1056 1.383 . S
C1057 C1058 1.377 . S
C1058 H1042 0.930 . S
C1058 C1057 1.377 . S
C1058 C1059 1.379 . S
C1059 H1043 0.931 . S
C1059 C1053 1.383 . S
C1059 C1058 1.379 . S
H1060 C1054 0.959 . S
H1061 C1054 0.961 . S
H1062 C1054 0.960 . S
H1063 C1055 0.930 . S
H1064 C1056 0.929 . S
H1065 C1073 0.929 . S
H1066 C1075 0.930 . S
H1067 C1077 0.930 . S
H1068 C1080 0.929 . S
H1069 C1083 0.930 . S
H1070 C1085 0.960 . S
H1071 C1085 0.960 . S
H1072 C1085 0.960 . S
C1073 H1065 0.929 . S
C1073 C1074 1.377 . S
C1073 C1075 1.384 . S
C1074 C1073 1.377 . S
C1074 C1080 1.390 . S
C1075 H1066 0.930 . S
C1075 C1073 1.384 . S
C1075 C1076 1.372 . S
C1076 C1075 1.372 . S
C1076 C1077 1.400 . S
C1076 C1081 1.490 . S
C1077 H1067 0.930 . S
C1077 C1076 1.400 . S
C1077 C1080 1.386 . S
H1078 C1094 0.930 . S
H1079 C1095 0.931 . S
C1080 H1068 0.929 . S
C1080 C1074 1.390 . S
C1080 C1077 1.386 . S
C1081 C1076 1.490 . S
C1081 C1083 1.395 . S
C1081 C1084 1.403 . S
H1082 C1088 0.930 . S
C1083 H1069 0.930 . S
C1083 C1081 1.395 . S
C1083 C1086 1.403 . S
C1084 C1081 1.403 . S
C1084 C1085 1.524 . S
C1084 C1088 1.400 . S
C1085 H1070 0.960 . S
C1085 H1071 0.960 . S
C1085 H1072 0.960 . S
C1085 C1084 1.524 . S
C1086 C1083 1.403 . S
C1086 C1087 1.392 . S
C1086 C1090 1.495 . S
C1087 C1086 1.392 . S
C1087 C1088 1.385 . S
C1087 C1089 1.478 . S
C1088 H1082 0.930 . S
C1088 C1084 1.400 . S
C1088 C1087 1.385 . S
C1089 C1087 1.478 . S
C1089 C1091 1.381 . S
C1089 C1095 1.383 . S
C1090 C1086 1.495 . S
C1090 H1096 0.959 . S
C1090 H1097 0.961 . S
C1090 H1098 0.960 . S
C1091 C1089 1.381 . S
C1091 C1092 1.394 . S
C1091 H1099 0.930 . S
C1092 C1091 1.394 . S
C1092 C1093 1.383 . S
C1092 H1100 0.929 . S
C1093 C1092 1.383 . S
C1093 C1094 1.377 . S
C1094 H1078 0.930 . S
C1094 C1093 1.377 . S
C1094 C1095 1.379 . S
C1095 H1079 0.931 . S
C1095 C1089 1.383 . S
C1095 C1094 1.379 . S
H1096 C1090 0.959 . S
H1097 C1090 0.961 . S
H1098 C1090 0.960 . S
H1099 C1091 0.930 . S
H1100 C1092 0.929 . S
H1101 C1109 0.929 . S
H1102 C1111 0.930 . S
H1103 C1113 0.930 . S
H1104 C1116 0.929 . S
H1105 C1119 0.930 . S
H1106 C1121 0.960 . S
H1107 C1121 0.960 . S
H1108 C1121 0.960 . S
C1109 H1101 0.929 . S
C1109 C1110 1.377 . S
C1109 C1111 1.384 . S
C1110 C1109 1.377 . S
C1110 C1116 1.390 . S
C1111 H1102 0.930 . S
C1111 C1109 1.384 . S
C1111 C1112 1.372 . S
C1112 C1111 1.372 . S
C1112 C1113 1.400 . S
C1112 C1117 1.490 . S
C1113 H1103 0.930 . S
C1113 C1112 1.400 . S
C1113 C1116 1.386 . S
H1114 C1130 0.930 . S
H1115 C1131 0.931 . S
C1116 H1104 0.929 . S
C1116 C1110 1.390 . S
C1116 C1113 1.386 . S
C1117 C1112 1.490 . S
C1117 C1119 1.395 . S
C1117 C1120 1.403 . S
H1118 C1124 0.930 . S
C1119 H1105 0.930 . S
C1119 C1117 1.395 . S
C1119 C1122 1.403 . S
C1120 C1117 1.403 . S
C1120 C1121 1.524 . S
C1120 C1124 1.400 . S
C1121 H1106 0.960 . S
C1121 H1107 0.960 . S
C1121 H1108 0.960 . S
C1121 C1120 1.524 . S
C1122 C1119 1.403 . S
C1122 C1123 1.392 . S
C1122 C1126 1.495 . S
C1123 C1122 1.392 . S
C1123 C1124 1.385 . S
C1123 C1125 1.478 . S
C1124 H1118 0.930 . S
C1124 C1120 1.400 . S
C1124 C1123 1.385 . S
C1125 C1123 1.478 . S
C1125 C1127 1.381 . S
C1125 C1131 1.383 . S
C1126 C1122 1.495 . S
C1126 H1132 0.959 . S
C1126 H1133 0.961 . S
C1126 H1134 0.960 . S
C1127 C1125 1.381 . S
C1127 C1128 1.394 . S
C1127 H1135 0.930 . S
C1128 C1127 1.394 . S
C1128 C1129 1.383 . S
C1128 H1136 0.929 . S
C1129 C1128 1.383 . S
C1129 C1130 1.377 . S
C1130 H1114 0.930 . S
C1130 C1129 1.377 . S
C1130 C1131 1.379 . S
C1131 H1115 0.931 . S
C1131 C1125 1.383 . S
C1131 C1130 1.379 . S
H1132 C1126 0.959 . S
H1133 C1126 0.961 . S
H1134 C1126 0.960 . S
H1135 C1127 0.930 . S
H1136 C1128 0.929 . S
H1137 C1145 0.929 . S
H1138 C1147 0.930 . S
H1139 C1149 0.930 . S
H1140 C1152 0.929 . S
H1141 C1155 0.930 . S
H1142 C1157 0.960 . S
H1143 C1157 0.960 . S
H1144 C1157 0.960 . S
C1145 H1137 0.929 . S
C1145 C1146 1.377 . S
C1145 C1147 1.384 . S
C1146 C1145 1.377 . S
C1146 C1152 1.390 . S
C1147 H1138 0.930 . S
C1147 C1145 1.384 . S
C1147 C1148 1.372 . S
C1148 C1147 1.372 . S
C1148 C1149 1.400 . S
C1148 C1153 1.490 . S
C1149 H1139 0.930 . S
C1149 C1148 1.400 . S
C1149 C1152 1.386 . S
H1150 C1166 0.930 . S
H1151 C1167 0.931 . S
C1152 H1140 0.929 . S
C1152 C1146 1.390 . S
C1152 C1149 1.386 . S
C1153 C1148 1.490 . S
C1153 C1155 1.395 . S
C1153 C1156 1.403 . S
H1154 C1160 0.930 . S
C1155 H1141 0.930 . S
C1155 C1153 1.395 . S
C1155 C1158 1.403 . S
C1156 C1153 1.403 . S
C1156 C1157 1.524 . S
C1156 C1160 1.400 . S
C1157 H1142 0.960 . S
C1157 H1143 0.960 . S
C1157 H1144 0.960 . S
C1157 C1156 1.524 . S
C1158 C1155 1.403 . S
C1158 C1159 1.392 . S
C1158 C1162 1.495 . S
C1159 C1158 1.392 . S
C1159 C1160 1.385 . S
C1159 C1161 1.478 . S
C1160 H1154 0.930 . S
C1160 C1156 1.400 . S
C1160 C1159 1.385 . S
C1161 C1159 1.478 . S
C1161 C1163 1.381 . S
C1161 C1167 1.383 . S
C1162 C1158 1.495 . S
C1162 H1168 0.959 . S
C1162 H1169 0.961 . S
C1162 H1170 0.960 . S
C1163 C1161 1.381 . S
C1163 C1164 1.394 . S
C1163 H1171 0.930 . S
C1164 C1163 1.394 . S
C1164 C1165 1.383 . S
C1164 H1172 0.929 . S
C1165 C1164 1.383 . S
C1165 C1166 1.377 . S
C1166 H1150 0.930 . S
C1166 C1165 1.377 . S
C1166 C1167 1.379 . S
C1167 H1151 0.931 . S
C1167 C1161 1.383 . S
C1167 C1166 1.379 . S
H1168 C1162 0.959 . S
H1169 C1162 0.961 . S
H1170 C1162 0.960 . S
H1171 C1163 0.930 . S
H1172 C1164 0.929 . S
H1173 C1181 0.929 . S
H1174 C1183 0.930 . S
H1175 C1185 0.930 . S
H1176 C1188 0.929 . S
H1177 C1191 0.930 . S
H1178 C1193 0.960 . S
H1179 C1193 0.960 . S
H1180 C1193 0.960 . S
C1181 H1173 0.929 . S
C1181 C1182 1.377 . S
C1181 C1183 1.384 . S
C1182 C1181 1.377 . S
C1182 C1188 1.390 . S
C1183 H1174 0.930 . S
C1183 C1181 1.384 . S
C1183 C1184 1.372 . S
C1184 C1183 1.372 . S
C1184 C1185 1.400 . S
C1184 C1189 1.490 . S
C1185 H1175 0.930 . S
C1185 C1184 1.400 . S
C1185 C1188 1.386 . S
H1186 C1202 0.930 . S
H1187 C1203 0.931 . S
C1188 H1176 0.929 . S
C1188 C1182 1.390 . S
C1188 C1185 1.386 . S
C1189 C1184 1.490 . S
C1189 C1191 1.395 . S
C1189 C1192 1.403 . S
H1190 C1196 0.930 . S
C1191 H1177 0.930 . S
C1191 C1189 1.395 . S
C1191 C1194 1.403 . S
C1192 C1189 1.403 . S
C1192 C1193 1.524 . S
C1192 C1196 1.400 . S
C1193 H1178 0.960 . S
C1193 H1179 0.960 . S
C1193 H1180 0.960 . S
C1193 C1192 1.524 . S
C1194 C1191 1.403 . S
C1194 C1195 1.392 . S
C1194 C1198 1.495 . S
C1195 C1194 1.392 . S
C1195 C1196 1.385 . S
C1195 C1197 1.478 . S
C1196 H1190 0.930 . S
C1196 C1192 1.400 . S
C1196 C1195 1.385 . S
C1197 C1195 1.478 . S
C1197 C1199 1.381 . S
C1197 C1203 1.383 . S
C1198 C1194 1.495 . S
C1198 H1204 0.959 . S
C1198 H1205 0.961 . S
C1198 H1206 0.960 . S
C1199 C1197 1.381 . S
C1199 C1200 1.394 . S
C1199 H1207 0.930 . S
C1200 C1199 1.394 . S
C1200 C1201 1.383 . S
C1200 H1208 0.929 . S
C1201 C1200 1.383 . S
C1201 C1202 1.377 . S
C1202 H1186 0.930 . S
C1202 C1201 1.377 . S
C1202 C1203 1.379 . S
C1203 H1187 0.931 . S
C1203 C1197 1.383 . S
C1203 C1202 1.379 . S
H1204 C1198 0.959 . S
H1205 C1198 0.961 . S
H1206 C1198 0.960 . S
H1207 C1199 0.930 . S
H1208 C1200 0.929 . S
H1209 C1217 0.929 . S
H1210 C1219 0.930 . S
H1211 C1221 0.930 . S
H1212 C1224 0.929 . S
H1213 C1227 0.930 . S
H1214 C1229 0.960 . S
H1215 C1229 0.960 . S
H1216 C1229 0.960 . S
C1217 H1209 0.929 . S
C1217 C1218 1.377 . S
C1217 C1219 1.384 . S
C1218 C1217 1.377 . S
C1218 C1224 1.390 . S
C1219 H1210 0.930 . S
C1219 C1217 1.384 . S
C1219 C1220 1.372 . S
C1220 C1219 1.372 . S
C1220 C1221 1.400 . S
C1220 C1225 1.490 . S
C1221 H1211 0.930 . S
C1221 C1220 1.400 . S
C1221 C1224 1.386 . S
H1222 C1238 0.930 . S
H1223 C1239 0.931 . S
C1224 H1212 0.929 . S
C1224 C1218 1.390 . S
C1224 C1221 1.386 . S
C1225 C1220 1.490 . S
C1225 C1227 1.395 . S
C1225 C1228 1.403 . S
H1226 C1232 0.930 . S
C1227 H1213 0.930 . S
C1227 C1225 1.395 . S
C1227 C1230 1.403 . S
C1228 C1225 1.403 . S
C1228 C1229 1.524 . S
C1228 C1232 1.400 . S
C1229 H1214 0.960 . S
C1229 H1215 0.960 . S
C1229 H1216 0.960 . S
C1229 C1228 1.524 . S
C1230 C1227 1.403 . S
C1230 C1231 1.392 . S
C1230 C1234 1.495 . S
C1231 C1230 1.392 . S
C1231 C1232 1.385 . S
C1231 C1233 1.478 . S
C1232 H1226 0.930 . S
C1232 C1228 1.400 . S
C1232 C1231 1.385 . S
C1233 C1231 1.478 . S
C1233 C1235 1.381 . S
C1233 C1239 1.383 . S
C1234 C1230 1.495 . S
C1234 H1240 0.959 . S
C1234 H1241 0.961 . S
C1234 H1242 0.960 . S
C1235 C1233 1.381 . S
C1235 C1236 1.394 . S
C1235 H1243 0.930 . S
C1236 C1235 1.394 . S
C1236 C1237 1.383 . S
C1236 H1244 0.929 . S
C1237 C1236 1.383 . S
C1237 C1238 1.377 . S
C1238 H1222 0.930 . S
C1238 C1237 1.377 . S
C1238 C1239 1.379 . S
C1239 H1223 0.931 . S
C1239 C1233 1.383 . S
C1239 C1238 1.379 . S
H1240 C1234 0.959 . S
H1241 C1234 0.961 . S
H1242 C1234 0.960 . S
H1243 C1235 0.930 . S
H1244 C1236 0.929 . S
C390 C45 1.769 . S
C409 C288 1.672 . S
C426 C84 1.651 . S
C445 C320 1.633 . S
C481 C379 1.993 . S
C462 C126 2.031 . S
C517 C308 1.514 . S
C498 C165 1.531 . S
C534 C222 1.608 . S
C553 C338 1.573 . S
C589 C360 1.175 . S
C570 C276 1.174 . S
C625 C329 1.660 . S
C606 C141 1.698 . S
C642 C180 1.248 . S
C661 C369 1.177 . S
C697 C318 1.519 . S
C678 C237 1.583 . S
C714 C261 1.599 . S
C733 C348 1.558 . S
C750 C30 1.960 . S
C769 C351 1.941 . S
C805 C290 1.702 . S
C786 C69 1.709 . S
C841 C298 1.608 . S
C822 C174 1.659 . S
C877 C339 1.624 . S
C858 C213 1.640 . S
C913 C352 2.015 . S
C894 C285 2.055 1_556 S
C949 C289 1.525 . S
C930 C36 1.565 . S
C985 C349 1.484 . S
C966 C93 1.521 . S
C1002 C117 1.198 . S
C1021 C350 1.164 . S
C1057 C319 1.621 . S
C1038 C270 1.671 . S
C1093 C380 1.156 . S
C1074 C21 1.197 . S
C1129 C307 1.480 . S
C1110 C78 1.590 . S
C1165 C321 1.609 . S
C1146 C132 1.656 . S
C1182 C189 1.960 . S
C1201 C370 1.952 . S
C1218 C228 1.725 . S
C1237 C317 1.701 . S
