# Generated by pormake.
# Topology apo, (3,6)-cn, num edge types: 1
# Building blocks:
#     Node 0, Type 0, BuildingBlock: CUQRIR_clean_linker_1, # of connection points: 3
#     Node 1, Type 0, BuildingBlock: CUQRIR_clean_linker_1, # of connection points: 3
#     Node 2, Type 0, BuildingBlock: CUQRIR_clean_linker_1, # of connection points: 3
#     Node 3, Type 0, BuildingBlock: CUQRIR_clean_linker_1, # of connection points: 3
#     Node 4, Type 0, BuildingBlock: CUQRIR_clean_linker_1, # of connection points: 3
#     Node 5, Type 0, BuildingBlock: CUQRIR_clean_linker_1, # of connection points: 3
#     Node 6, Type 0, BuildingBlock: CUQRIR_clean_linker_1, # of connection points: 3
#     Node 7, Type 0, BuildingBlock: CUQRIR_clean_linker_1, # of connection points: 3
#     Node 8, Type 1, BuildingBlock: KUMJIN_clean_sbu_1, # of connection points: 6
#     Node 9, Type 1, BuildingBlock: KUMJIN_clean_sbu_1, # of connection points: 6
#     Node 10, Type 1, BuildingBlock: KUMJIN_clean_sbu_1, # of connection points: 6
#     Node 11, Type 1, BuildingBlock: KUMJIN_clean_sbu_1, # of connection points: 6
#     Edge 12, Type (0, 1), BuildingBlock: AJUNOK_clean_linker_0, # of connection points: 2
#     Edge 13, Type (0, 1), BuildingBlock: AJUNOK_clean_linker_0, # of connection points: 2
#     Edge 14, Type (0, 1), BuildingBlock: AJUNOK_clean_linker_0, # of connection points: 2
#     Edge 15, Type (0, 1), BuildingBlock: AJUNOK_clean_linker_0, # of connection points: 2
#     Edge 16, Type (0, 1), BuildingBlock: AJUNOK_clean_linker_0, # of connection points: 2
#     Edge 17, Type (0, 1), BuildingBlock: AJUNOK_clean_linker_0, # of connection points: 2
#     Edge 18, Type (0, 1), BuildingBlock: AJUNOK_clean_linker_0, # of connection points: 2
#     Edge 19, Type (0, 1), BuildingBlock: AJUNOK_clean_linker_0, # of connection points: 2
#     Edge 20, Type (0, 1), BuildingBlock: AJUNOK_clean_linker_0, # of connection points: 2
#     Edge 21, Type (0, 1), BuildingBlock: AJUNOK_clean_linker_0, # of connection points: 2
#     Edge 22, Type (0, 1), BuildingBlock: AJUNOK_clean_linker_0, # of connection points: 2
#     Edge 23, Type (0, 1), BuildingBlock: AJUNOK_clean_linker_0, # of connection points: 2
#     Edge 24, Type (0, 1), BuildingBlock: AJUNOK_clean_linker_0, # of connection points: 2
#     Edge 25, Type (0, 1), BuildingBlock: AJUNOK_clean_linker_0, # of connection points: 2
#     Edge 26, Type (0, 1), BuildingBlock: AJUNOK_clean_linker_0, # of connection points: 2
#     Edge 27, Type (0, 1), BuildingBlock: AJUNOK_clean_linker_0, # of connection points: 2
#     Edge 28, Type (0, 1), BuildingBlock: AJUNOK_clean_linker_0, # of connection points: 2
#     Edge 29, Type (0, 1), BuildingBlock: AJUNOK_clean_linker_0, # of connection points: 2
#     Edge 30, Type (0, 1), BuildingBlock: AJUNOK_clean_linker_0, # of connection points: 2
#     Edge 31, Type (0, 1), BuildingBlock: AJUNOK_clean_linker_0, # of connection points: 2
#     Edge 32, Type (0, 1), BuildingBlock: AJUNOK_clean_linker_0, # of connection points: 2
#     Edge 33, Type (0, 1), BuildingBlock: AJUNOK_clean_linker_0, # of connection points: 2
#     Edge 34, Type (0, 1), BuildingBlock: AJUNOK_clean_linker_0, # of connection points: 2
#     Edge 35, Type (0, 1), BuildingBlock: AJUNOK_clean_linker_0, # of connection points: 2
# Relax obj value: 0.043
# Max RMSD: 0.250
# Mean RMSD: 0.192
data_MOF--net-apo--node1-KUMJIN_clean_sbu_1--node2-CUQRIR_clean_linker_1--edge1-AJUNOK_clean_linker_0
_symmetry_space_group_name_H-M    P1
_symmetry_Int_Tables_number       1
_symmetry_cell_setting            triclinic
loop_
_symmetry_equiv_pos_as_xyz
'x, y, z'
_cell_length_a     18.872422
_cell_length_b     27.852034
_cell_length_c     35.460622
_cell_angle_alpha  90.14332
_cell_angle_beta   89.860549
_cell_angle_gamma 90.428124
loop_
_atom_site_label
_atom_site_type_symbol
_atom_site_fract_x
_atom_site_fract_y
_atom_site_fract_z
_atom_type_partial_charge
C0 C 0.22672 0.32214 0.42681 0.0
N1 N 0.26606 0.36297 0.42955 0.0
N2 N 0.22087 0.30816 0.39041 0.0
C3 C 0.19377 0.29594 0.45959 0.0
C4 C 0.25695 0.34205 0.37094 0.0
N5 N 0.28423 0.37557 0.39464 0.0
C6 C 0.26464 0.3423 0.32872 0.0
H7 H 0.23234 0.26961 0.47058 0.0
H8 H 0.14553 0.2759 0.45086 0.0
H9 H 0.18016 0.32125 0.48266 0.0
H10 H 0.28073 0.37815 0.3181 0.0
H11 H 0.21404 0.33118 0.31529 0.0
H12 H 0.30555 0.31584 0.32047 0.0
C13 C 0.24775 0.18269 0.92127 0.0
N14 N 0.21083 0.14099 0.92513 0.0
N15 N 0.2646 0.19044 0.88469 0.0
C16 C 0.27107 0.21435 0.95341 0.0
C17 C 0.23712 0.15209 0.86638 0.0
N18 N 0.20532 0.12159 0.89092 0.0
C19 C 0.23991 0.1453 0.82438 0.0
H20 H 0.22511 0.2355 0.96341 0.0
H21 H 0.31384 0.23952 0.94466 0.0
H22 H 0.28988 0.19219 0.9773 0.0
H23 H 0.28926 0.1259 0.81724 0.0
H24 H 0.24117 0.18045 0.8097 0.0
H25 H 0.19395 0.12391 0.81421 0.0
C26 C 0.70845 0.17664 0.63896 0.0
N27 N 0.75369 0.13908 0.63665 0.0
N28 N 0.68314 0.18151 0.67451 0.0
C29 C 0.6924 0.21037 0.60703 0.0
C30 C 0.7144 0.14579 0.69383 0.0
N31 N 0.75818 0.12039 0.67111 0.0
C32 C 0.70459 0.13733 0.73551 0.0
H33 H 0.74248 0.22219 0.59331 0.0
H34 H 0.66224 0.24218 0.61657 0.0
H35 H 0.66012 0.19126 0.58557 0.0
H36 H 0.64978 0.14567 0.74447 0.0
H37 H 0.7411 0.16138 0.75133 0.0
H38 H 0.71595 0.09954 0.74308 0.0
C39 C 0.78169 0.31414 0.14224 0.0
N40 N 0.73885 0.35277 0.13852 0.0
N41 N 0.78746 0.30141 0.17893 0.0
C42 C 0.82222 0.29112 0.1105 0.0
C43 C 0.74623 0.33325 0.1974 0.0
N44 N 0.71744 0.36467 0.17305 0.0
C45 C 0.73117 0.33273 0.23915 0.0
H46 H 0.79027 0.26099 0.09883 0.0
H47 H 0.8732 0.27649 0.12071 0.0
H48 H 0.83289 0.31726 0.08757 0.0
H49 H 0.76393 0.36074 0.25319 0.0
H50 H 0.74301 0.29729 0.25176 0.0
H51 H 0.67476 0.34149 0.24451 0.0
C52 C 0.7559 0.67238 0.63359 0.0
N53 N 0.71237 0.63341 0.63412 0.0
N54 N 0.78092 0.68198 0.6686 0.0
C55 C 0.77128 0.70218 0.59923 0.0
C56 C 0.75081 0.6478 0.69046 0.0
N57 N 0.7083 0.61862 0.6697 0.0
C58 C 0.76219 0.64381 0.73231 0.0
H59 H 0.80728 0.68201 0.58028 0.0
H60 H 0.79692 0.73689 0.60663 0.0
H61 H 0.72147 0.70884 0.58357 0.0
H62 H 0.72812 0.67029 0.74685 0.0
H63 H 0.81799 0.6523 0.73962 0.0
H64 H 0.74872 0.60736 0.74267 0.0
C65 C 0.74852 0.81391 0.13255 0.0
N66 N 0.78906 0.85444 0.13151 0.0
N67 N 0.73979 0.79874 0.1685 0.0
C68 C 0.7205 0.7874 0.0987 0.0
C69 C 0.77629 0.83104 0.18934 0.0
N70 N 0.8068 0.8646 0.16697 0.0
C71 C 0.78124 0.82975 0.23163 0.0
H72 H 0.66585 0.7997 0.09284 0.0
H73 H 0.71802 0.74824 0.10431 0.0
H74 H 0.75389 0.79418 0.07345 0.0
H75 H 0.7298 0.81829 0.24402 0.0
H76 H 0.79671 0.86517 0.24341 0.0
H77 H 0.8217 0.80301 0.23976 0.0
C78 C 0.29344 0.81928 0.42233 0.0
N79 N 0.25025 0.85722 0.42854 0.0
N80 N 0.29466 0.80752 0.38525 0.0
C81 C 0.33842 0.79596 0.45197 0.0
C82 C 0.25014 0.8392 0.36917 0.0
N83 N 0.22389 0.86971 0.39527 0.0
C84 C 0.22839 0.83878 0.32831 0.0
H85 H 0.38836 0.78223 0.43954 0.0
H86 H 0.30874 0.76519 0.46424 0.0
H87 H 0.3513 0.82165 0.47496 0.0
H88 H 0.23759 0.80321 0.31511 0.0
H89 H 0.2593 0.86644 0.31279 0.0
H90 H 0.17148 0.84799 0.32571 0.0
C91 C 0.22678 0.68674 0.91996 0.0
N92 N 0.26678 0.64702 0.92493 0.0
N93 N 0.19077 0.68412 0.88701 0.0
C94 C 0.23023 0.73051 0.94494 0.0
C95 C 0.21075 0.64158 0.87216 0.0
N96 N 0.2578 0.61928 0.89473 0.0
C97 C 0.18367 0.62111 0.83557 0.0
H98 H 0.18691 0.7287 0.96608 0.0
H99 H 0.22369 0.76379 0.92821 0.0
H100 H 0.28142 0.73231 0.96023 0.0
H101 H 0.22047 0.63099 0.81237 0.0
H102 H 0.13032 0.63522 0.82894 0.0
H103 H 0.18113 0.58135 0.83725 0.0
Eu104 Eu 0.08493 0.08384 0.24457 0.0
C105 C 0.75817 0.08113 0.29599 0.0
N106 N 0.80827 0.11484 0.30425 0.0
C107 C 0.72562 0.17773 0.29175 0.0
C108 C 0.68949 0.09465 0.28485 0.0
C109 C 0.79281 0.16261 0.30299 0.0
C110 C 0.6738 0.14363 0.2825 0.0
C111 C 0.72443 0.99698 0.29112 0.0
C112 C 0.77538 0.03285 0.29899 0.0
C113 C 0.65611 0.01032 0.27976 0.0
C114 C 0.63871 0.05901 0.27659 0.0
Eu115 Eu 0.92078 0.08556 0.32115 0.0
N116 N 0.84251 0.02096 0.309 0.0
C117 C 0.74374 0.94875 0.29495 0.0
C118 C 0.86107 0.97418 0.31401 0.0
C119 C 0.81222 0.93735 0.30672 0.0
H120 H 0.8322 0.18913 0.31088 0.0
H121 H 0.82753 0.90021 0.30993 0.0
H122 H 0.21009 1.00005 0.25511 0.0
H123 H 0.11424 0.27854 0.23066 0.0
H124 H 0.91437 0.96551 0.32223 0.0
H125 H 0.70616 0.92011 0.28908 0.0
H126 H 0.05348 0.20024 0.2252 0.0
H127 H 0.71374 0.21564 0.29042 0.0
H128 H 0.61628 0.98328 0.27346 0.0
H129 H 0.5857 0.06872 0.26793 0.0
H130 H 0.33826 0.996 0.26879 0.0
H131 H 0.6217 0.15547 0.27394 0.0
H132 H 0.24012 0.28199 0.2499 0.0
N133 N 0.20756 0.07634 0.25589 0.0
C134 C 0.24535 0.11786 0.25896 0.0
C135 C 0.31275 0.03051 0.26624 0.0
C136 C 0.31856 0.11725 0.26681 0.0
C137 C 0.2402 0.03294 0.25858 0.0
C138 C 0.35201 0.07284 0.27073 0.0
N139 N 0.14067 0.1603 0.24503 0.0
C140 C 0.10683 0.20149 0.23541 0.0
C141 C 0.24893 0.20485 0.25552 0.0
C142 C 0.21105 0.16109 0.25318 0.0
C143 C 0.21299 0.24762 0.24833 0.0
C144 C 0.14187 0.24584 0.23765 0.0
H145 H 0.40819 0.07085 0.2767 0.0
H146 H 0.41228 0.16105 0.27636 0.0
H147 H 0.35116 0.23778 0.26674 0.0
O148 O 0.07566 0.10227 0.18456 0.0
O149 O 0.10752 0.1207 0.30087 0.0
O150 O -0.00034 0.14764 0.32374 0.0
O151 O 0.13189 0.03859 0.20095 0.0
O152 O 0.97904 0.1195 0.2315 0.0
O153 O 0.94466 0.15235 0.28798 0.0
O154 O 0.9336 0.05882 0.37864 0.0
O155 O 0.90527 0.04716 0.26449 0.0
O156 O 0.01565 0.0186 0.25158 0.0
O157 O 0.85762 0.11444 0.36774 0.0
O158 O 0.01299 0.03815 0.33673 0.0
O159 O 0.09437 0.02435 0.28789 0.0
C160 C 0.06958 0.14903 0.32267 0.0
C161 C 0.17063 0.07734 0.14507 0.0
C162 C 0.2082 0.08776 0.0794 0.0
C163 C 0.27848 0.09343 0.09181 0.0
C164 C 0.24138 0.08304 0.15651 0.0
C165 C 0.29477 0.09115 0.13005 0.0
C166 C 0.15403 0.08028 0.10632 0.0
C167 C 0.94526 0.15229 0.25108 0.0
C168 C 0.11465 0.06661 0.17317 0.0
C169 C 0.35613 0.1608 0.27004 0.0
C170 C 0.32135 0.2045 0.26451 0.0
C171 C 0.94751 0.01837 0.24564 0.0
C172 C 0.91287 0.1147 0.42744 0.0
C173 C 0.90345 0.1313 0.4953 0.0
C174 C 0.95449 0.16813 0.49082 0.0
C175 C 0.96569 0.15 0.42438 0.0
C176 C 0.88262 0.10482 0.46299 0.0
C177 C 0.98605 0.17674 0.45582 0.0
C178 C 0.06977 0.01772 0.32253 0.0
C179 C 0.88865 0.08878 0.39346 0.0
H180 H 0.32089 0.10029 0.07184 0.0
H181 H 0.25582 0.08081 0.18584 0.0
H182 H 0.34909 0.0956 0.13924 0.0
H183 H 0.09961 0.07602 0.09713 0.0
H184 H 0.9691 0.19133 0.51409 0.0
H185 H 0.99051 0.15719 0.39753 0.0
H186 H 0.84277 0.07678 0.46532 0.0
H187 H 0.02567 0.20483 0.45293 0.0
Eu188 Eu 0.41069 0.41595 0.74181 0.0
C189 C 0.71833 0.45066 0.80199 0.0
N190 N 0.68288 0.40806 0.8047 0.0
C191 C 0.78785 0.36596 0.78596 0.0
C192 C 0.78928 0.45256 0.78941 0.0
C193 C 0.71762 0.36584 0.79863 0.0
C194 C 0.82338 0.40953 0.78056 0.0
C195 C 0.72191 0.5365 0.81437 0.0
C196 C 0.68547 0.49215 0.81463 0.0
C197 C 0.79129 0.53884 0.80009 0.0
C198 C 0.82488 0.49699 0.78761 0.0
Eu199 Eu 0.56335 0.41208 0.82555 0.0
N200 N 0.61836 0.48871 0.82851 0.0
C201 C 0.68819 0.57687 0.82947 0.0
C202 C 0.58718 0.52712 0.84572 0.0
C203 C 0.621 0.57198 0.84576 0.0
H204 H 0.69146 0.3318 0.80367 0.0
H205 H 0.5953 0.60271 0.85837 0.0
H206 H 0.32295 0.51997 0.75577 0.0
H207 H 0.30765 0.23231 0.73244 0.0
H208 H 0.53549 0.52321 0.85852 0.0
H209 H 0.71431 0.61166 0.82959 0.0
H210 H 0.39697 0.29669 0.7255 0.0
H211 H 0.8146 0.3324 0.78052 0.0
H212 H 0.82011 0.57263 0.79948 0.0
H213 H 0.87915 0.49916 0.77768 0.0
H214 H 0.20312 0.54587 0.77385 0.0
H215 H 0.87791 0.40946 0.77091 0.0
H216 H 0.18618 0.25192 0.75338 0.0
N217 N 0.29755 0.44539 0.758 0.0
C218 C 0.24537 0.41176 0.76162 0.0
C219 C 0.21455 0.50802 0.77119 0.0
C220 C 0.17594 0.42511 0.77186 0.0
C221 C 0.28263 0.49313 0.76127 0.0
C222 C 0.1612 0.47386 0.77708 0.0
N223 N 0.32785 0.352 0.74371 0.0
C224 C 0.34456 0.30569 0.73504 0.0
C225 C 0.20777 0.32821 0.75801 0.0
C226 C 0.26081 0.36385 0.75421 0.0
C227 C 0.2253 0.28036 0.75052 0.0
C228 C 0.29385 0.26913 0.73873 0.0
H229 H 0.10847 0.48557 0.78477 0.0
H230 H 0.06974 0.39923 0.78402 0.0
H231 H 0.09783 0.31441 0.77237 0.0
O232 O 0.39141 0.39544 0.68333 0.0
O233 O 0.3843 0.37745 0.79651 0.0
O234 O 0.49012 0.34729 0.81917 0.0
O235 O 0.38992 0.4706 0.69888 0.0
O236 O 0.48986 0.3566 0.73266 0.0
O237 O 0.57496 0.35331 0.78108 0.0
O238 O 0.54741 0.42411 0.88622 0.0
O239 O 0.55816 0.47321 0.78365 0.0
O240 O 0.52654 0.43246 0.73099 0.0
O241 O 0.62465 0.37304 0.86747 0.0
O242 O 0.45427 0.44115 0.8383 0.0
O243 O 0.42507 0.47866 0.78261 0.0
C244 C 0.42062 0.3459 0.81594 0.0
C245 C 0.32301 0.44598 0.64495 0.0
C246 C 0.27841 0.43799 0.58031 0.0
C247 C 0.21103 0.45188 0.59339 0.0
C248 C 0.25539 0.45949 0.6572 0.0
C249 C 0.19993 0.46283 0.63142 0.0
C250 C 0.33458 0.43611 0.60646 0.0
C251 C 0.54609 0.33835 0.7491 0.0
C252 C 0.38151 0.4392 0.67181 0.0
C253 C 0.1232 0.38963 0.77592 0.0
C254 C 0.13914 0.34133 0.76916 0.0
C255 C 0.55903 0.46844 0.74701 0.0
C256 C 0.65078 0.41558 0.92321 0.0
C257 C 0.69705 0.42194 0.98755 0.0
C258 C 0.75607 0.44736 0.97325 0.0
C259 C 0.70957 0.44168 0.91004 0.0
C260 C 0.64422 0.4062 0.96206 0.0
C261 C 0.76159 0.45767 0.93492 0.0
C262 C 0.42151 0.47508 0.81971 0.0
C263 C 0.59861 0.39592 0.89625 0.0
H264 H 0.16622 0.45311 0.57441 0.0
H265 H 0.24515 0.46698 0.68661 0.0
H266 H 0.1477 0.47303 0.64108 0.0
H267 H 0.3873 0.4265 0.5971 0.0
H268 H 0.79952 0.45794 0.99138 0.0
H269 H 0.71639 0.4486 0.88039 0.0
H270 H 0.59885 0.38592 0.97224 0.0
H271 H 0.80741 0.477 0.9243 0.0
Eu272 Eu 0.06433 0.91098 0.73866 0.0
C273 C 0.74238 0.88756 0.79449 0.0
N274 N 0.78703 0.92582 0.79825 0.0
C275 C 0.69288 0.97975 0.78334 0.0
C276 C 0.6707 0.89411 0.78477 0.0
C277 C 0.76334 0.97155 0.79341 0.0
C278 C 0.64636 0.94088 0.77895 0.0
C279 C 0.72366 0.80117 0.79627 0.0
C280 C 0.76858 0.84155 0.8 0.0
C281 C 0.65211 0.80761 0.78689 0.0
C282 C 0.62575 0.85393 0.78108 0.0
Eu283 Eu 0.9045 0.90794 0.81532 0.0
N284 N 0.83863 0.83624 0.80785 0.0
C285 C 0.75211 0.75547 0.80195 0.0
C286 C 0.86642 0.79193 0.81415 0.0
C287 C 0.82378 0.75084 0.81091 0.0
H288 H 0.79851 1.00183 0.79776 0.0
H289 H 0.8461 0.71566 0.81551 0.0
H290 H 0.20036 0.85769 0.78103 0.0
H291 H 0.04349 0.09432 0.68438 0.0
H292 H 0.92147 0.78825 0.82141 0.0
H293 H 0.71907 0.72364 0.79979 0.0
H294 H 0.01001 0.00947 0.69072 0.0
H295 H 0.67435 0.01604 0.77926 0.0
H296 H 0.61683 0.77699 0.78381 0.0
H297 H 0.57053 0.85828 0.77363 0.0
H298 H 0.31939 0.8789 0.80525 0.0
H299 H 0.59172 0.94739 0.7713 0.0
H300 H 0.15472 0.12421 0.71291 0.0
N301 N 0.17722 0.92847 0.76354 0.0
C302 C 0.2006 0.97452 0.75989 0.0
C303 C 0.28647 0.90614 0.79266 0.0
C304 C 0.26852 0.98814 0.77276 0.0
C305 C 0.21905 0.8942 0.77916 0.0
C306 C 0.31129 0.95334 0.78953 0.0
N307 N 0.09234 0.9933 0.72947 0.0
C308 C 0.05453 0.02287 0.70655 0.0
C309 C 0.18102 0.05544 0.73731 0.0
C310 C 0.15669 0.0079 0.74279 0.0
C311 C 0.1381 0.08736 0.71753 0.0
C312 C 0.07513 0.07072 0.70154 0.0
H313 H 0.36371 0.96244 0.79983 0.0
H314 H 0.34387 0.04684 0.77787 0.0
H315 H 0.26797 0.10543 0.74602 0.0
O316 O 0.06445 0.9143 0.67697 0.0
O317 O 0.08456 0.93907 0.79859 0.0
O318 O 0.97846 0.97205 0.81578 0.0
O319 O 0.14468 0.87351 0.70546 0.0
O320 O 0.95665 0.94195 0.72382 0.0
O321 O 0.91969 0.97462 0.77997 0.0
O322 O 0.9109 0.88153 0.873 0.0
O323 O 0.88502 0.87055 0.75883 0.0
O324 O 0.99404 0.84479 0.73757 0.0
O325 O 0.84494 0.94243 0.86113 0.0
O326 O 0.0047 0.86646 0.82911 0.0
O327 O 0.0615 0.84328 0.77382 0.0
C328 C 0.04775 0.97062 0.818 0.0
C329 C 0.17625 0.90986 0.64722 0.0
C330 C 0.2211 0.91959 0.5827 0.0
C331 C 0.2802 0.94452 0.59731 0.0
C332 C 0.2352 0.93539 0.66088 0.0
C333 C 0.28658 0.95278 0.636 0.0
C334 C 0.169 0.90256 0.60812 0.0
C335 C 0.91913 0.97321 0.74297 0.0
C336 C 0.12255 0.88992 0.67326 0.0
C337 C 0.29187 0.03571 0.76817 0.0
C338 C 0.24845 0.06914 0.75024 0.0
C339 C 0.92455 0.84253 0.73765 0.0
C340 C 0.89336 0.93608 0.92283 0.0
C341 C 0.89091 0.93789 0.99193 0.0
C342 C 0.94471 0.97308 0.99136 0.0
C343 C 0.94691 0.97118 0.92299 0.0
C344 C 0.86538 0.91957 0.95734 0.0
C345 C 0.97217 0.98973 0.95709 0.0
C346 C 0.04635 0.83746 0.80991 0.0
C347 C 0.86946 0.9141 0.88714 0.0
H348 H 0.3229 0.95635 0.57907 0.0
H349 H 0.24228 0.94121 0.69074 0.0
H350 H 0.33243 0.97183 0.64685 0.0
H351 H 0.12321 0.88304 0.59761 0.0
H352 H 0.96537 0.98779 1.01745 0.0
H353 H 0.96968 0.98364 0.89679 0.0
H354 H 0.82519 0.89155 0.95728 0.0
H355 H 0.01369 0.01678 0.95695 0.0
Eu356 Eu 0.42756 0.58947 0.24032 0.0
C357 C 0.74902 0.60637 0.31223 0.0
N358 N 0.70366 0.5686 0.31639 0.0
C359 C 0.80118 0.51403 0.3184 0.0
C360 C 0.82283 0.5991 0.31028 0.0
C361 C 0.72837 0.52287 0.31971 0.0
C362 C 0.84859 0.55225 0.31334 0.0
C363 C 0.76773 0.6925 0.30674 0.0
C364 C 0.72176 0.65263 0.31055 0.0
C365 C 0.84114 0.68525 0.30408 0.0
C366 C 0.8686 0.63871 0.30586 0.0
Eu367 Eu 0.58254 0.58779 0.32031 0.0
N368 N 0.65036 0.65869 0.31274 0.0
C369 C 0.73859 0.73856 0.30613 0.0
C370 C 0.62204 0.70355 0.31403 0.0
C371 C 0.66546 0.74411 0.31002 0.0
H372 H 0.69176 0.49324 0.32366 0.0
H373 H 0.64259 0.77963 0.31033 0.0
H374 H 0.34027 0.69429 0.248 0.0
H375 H 0.32899 0.40533 0.24879 0.0
H376 H 0.56613 0.7081 0.3181 0.0
H377 H 0.7722 0.77006 0.30346 0.0
H378 H 0.41894 0.46972 0.24006 0.0
H379 H 0.82063 0.47774 0.32098 0.0
H380 H 0.87718 0.71544 0.30091 0.0
H381 H 0.92541 0.63376 0.30409 0.0
H382 H 0.21978 0.72208 0.26354 0.0
H383 H 0.90495 0.54523 0.31207 0.0
H384 H 0.20483 0.42669 0.26345 0.0
N385 N 0.31389 0.62022 0.25353 0.0
C386 C 0.26174 0.58708 0.25932 0.0
C387 C 0.23094 0.68402 0.2626 0.0
C388 C 0.19172 0.60138 0.26726 0.0
C389 C 0.29935 0.66815 0.25428 0.0
C390 C 0.17692 0.65052 0.26924 0.0
N391 N 0.34651 0.52593 0.25018 0.0
C392 C 0.36479 0.47894 0.24615 0.0
C393 C 0.22517 0.50333 0.26216 0.0
C394 C 0.27822 0.53861 0.25695 0.0
C395 C 0.24399 0.45488 0.25943 0.0
C396 C 0.31405 0.44266 0.2512 0.0
H397 H 0.12385 0.66293 0.27541 0.0
H398 H 0.08468 0.57665 0.27886 0.0
H399 H 0.11392 0.49087 0.27426 0.0
O400 O 0.44581 0.56063 0.18381 0.0
O401 O 0.40473 0.55224 0.29682 0.0
O402 O 0.51098 0.52281 0.31856 0.0
O403 O 0.37055 0.61776 0.19154 0.0
O404 O 0.52018 0.54041 0.22894 0.0
O405 O 0.58595 0.52173 0.28286 0.0
O406 O 0.56498 0.62046 0.37565 0.0
O407 O 0.61229 0.61954 0.2629 0.0
O408 O 0.5087 0.64972 0.23826 0.0
O409 O 0.62717 0.55586 0.37123 0.0
O410 O 0.4763 0.62404 0.32912 0.0
O411 O 0.44967 0.65783 0.27237 0.0
C412 C 0.44157 0.52381 0.31901 0.0
C413 C 0.4303 0.61407 0.13296 0.0
C414 C 0.41829 0.6316 0.06554 0.0
C415 C 0.47868 0.66148 0.068 0.0
C416 C 0.49028 0.64391 0.13456 0.0
C417 C 0.51453 0.66724 0.10218 0.0
C418 C 0.3954 0.60717 0.09833 0.0
C419 C 0.56926 0.51626 0.24686 0.0
C420 C 0.40312 0.59049 0.16729 0.0
C421 C 0.13875 0.56633 0.27271 0.0
C422 C 0.15537 0.51746 0.27004 0.0
C423 C 0.57826 0.64679 0.23871 0.0
C424 C 0.56918 0.57024 0.42939 0.0
C425 C 0.5723 0.56714 0.49841 0.0
C426 C 0.51214 0.537 0.4978 0.0
C427 C 0.50883 0.54064 0.42944 0.0
C428 C 0.60061 0.58342 0.46384 0.0
C429 C 0.48062 0.52403 0.46353 0.0
C430 C 0.44931 0.65893 0.30928 0.0
C431 C 0.60038 0.58783 0.39386 0.0
H432 H 0.4974 0.68136 0.04369 0.0
H433 H 0.51815 0.64918 0.16083 0.0
H434 H 0.56069 0.69049 0.1037 0.0
H435 H 0.35039 0.58287 0.09715 0.0
H436 H 0.48995 0.52296 0.52376 0.0
H437 H 0.48384 0.53038 0.4032 0.0
H438 H 0.64682 0.60679 0.4637 0.0
H439 H 0.4343 0.50085 0.46338 0.0
C440 C 0.22078 0.94795 0.36474 0.0
C441 C 0.18613 0.91263 0.38623 0.0
C442 C 0.18254 0.98306 0.34567 0.0
C443 C 0.10823 0.98375 0.34697 0.0
H444 H 0.27772 0.94659 0.36104 0.0
H445 H 0.21141 0.00935 0.32934 0.0
S446 S 0.9937 0.90279 0.40408 0.0
N447 N 0.07482 0.8828 0.41112 0.0
N448 N 0.00202 0.94964 0.37587 0.0
C449 C 0.07335 0.951 0.37108 0.0
C450 C 0.11261 0.91503 0.39045 0.0
C451 C 0.34915 0.59549 0.8495 0.0
C452 C 0.30697 0.58413 0.88102 0.0
C453 C 0.38599 0.55997 0.82984 0.0
C454 C 0.38358 0.51198 0.84165 0.0
H455 H 0.3507 0.63195 0.83896 0.0
H456 H 0.4159 0.57014 0.80503 0.0
S457 S 0.28368 0.46425 0.92384 0.0
N458 N 0.26587 0.52227 0.92379 0.0
N459 N 0.33814 0.45514 0.88799 0.0
C460 C 0.34437 0.50049 0.87432 0.0
C461 C 0.30542 0.53672 0.89383 0.0
C462 C 0.67232 0.53328 0.67439 0.0
C463 C 0.66229 0.58161 0.68434 0.0
C464 C 0.63607 0.4964 0.69369 0.0
C465 C 0.58993 0.50708 0.72377 0.0
H466 H 0.71065 0.52402 0.65286 0.0
H467 H 0.64684 0.45938 0.68634 0.0
S468 S 0.53907 0.62833 0.75682 0.0
N469 N 0.5969 0.63836 0.72267 0.0
N470 N 0.53146 0.56938 0.76001 0.0
C471 C 0.57712 0.55536 0.73252 0.0
C472 C 0.61251 0.5926 0.71242 0.0
C473 C 0.8137 0.94949 0.18584 0.0
C474 C 0.8472 0.9053 0.17999 0.0
C475 C 0.8472 0.98637 0.20638 0.0
C476 C 0.91552 0.98025 0.22158 0.0
H477 H 0.75996 0.95453 0.17606 0.0
H478 H 0.81871 0.01948 0.21112 0.0
S479 S 0.0248 0.87032 0.21347 0.0
N480 N 0.95116 0.85698 0.19053 0.0
N481 N 0.0155 0.92612 0.22844 0.0
C482 C 0.95021 0.93645 0.21472 0.0
C483 C 0.91563 0.89897 0.19415 0.0
C484 C 0.85247 0.09499 0.71403 0.0
C485 C 0.80649 0.08424 0.68394 0.0
C486 C 0.88806 0.05871 0.73327 0.0
C487 C 0.88102 0.01059 0.72209 0.0
H488 H 0.8582 0.13168 0.72379 0.0
H489 H 0.92145 0.06836 0.75697 0.0
S490 S 0.77163 0.96402 0.64325 0.0
N491 N 0.75764 0.02254 0.64308 0.0
N492 N 0.82847 0.95411 0.67771 0.0
C493 C 0.83868 0.99957 0.69063 0.0
C494 C 0.80069 0.03653 0.67174 0.0
C495 C 0.60609 0.40677 0.18617 0.0
C496 C 0.68026 0.40701 0.18438 0.0
C497 C 0.56997 0.44299 0.20582 0.0
C498 C 0.60729 0.47987 0.22464 0.0
H499 H 0.5764 0.37722 0.17393 0.0
H500 H 0.51286 0.44108 0.2073 0.0
S501 S 0.80133 0.50016 0.22238 0.0
N502 N 0.78946 0.44869 0.19999 0.0
N503 N 0.72147 0.51837 0.23481 0.0
C504 C 0.68113 0.48197 0.22079 0.0
C505 C 0.71769 0.44496 0.2013 0.0
C506 C 0.39776 0.41012 0.37389 0.0
C507 C 0.32623 0.41637 0.38342 0.0
C508 C 0.43556 0.44578 0.35422 0.0
C509 C 0.40271 0.48877 0.34309 0.0
H510 H 0.42336 0.37638 0.38003 0.0
H511 H 0.48994 0.43866 0.34629 0.0
S512 S 0.21743 0.52355 0.36465 0.0
N513 N 0.22456 0.46874 0.38181 0.0
N514 N 0.29594 0.53714 0.34679 0.0
C515 C 0.33201 0.49625 0.35434 0.0
C516 C 0.29362 0.45967 0.37397 0.0
C517 C 0.19601 0.03796 0.86882 0.0
C518 C 0.16309 0.08055 0.88041 0.0
C519 C 0.15753 1.0016 0.8503 0.0
C520 C 0.08551 0.0075 0.8411 0.0
H521 H 0.25243 0.0336 0.87287 0.0
H522 H 0.18504 0.96922 0.84223 0.0
S523 S 0.97605 0.11368 0.86551 0.0
N524 N 0.05516 0.12655 0.88275 0.0
N525 N 0.98294 0.05997 0.84609 0.0
C526 C 0.05192 0.04991 0.85337 0.0
C527 C 0.09078 0.08605 0.87331 0.0
C528 C 0.15021 0.14234 0.98683 0.0
C529 C 0.19345 0.11839 0.96054 0.0
C530 C 0.14982 0.12932 1.02514 0.0
C531 C 0.19319 0.09212 0.03836 0.0
H532 H 0.12066 0.17356 0.9781 0.0
H533 H 0.11989 0.15091 0.04492 0.0
S534 S 0.30861 0.01444 0.97989 0.0
N535 N 0.27508 0.05312 0.94968 0.0
N536 N 0.27372 0.0279 1.02132 0.0
C537 C 0.23179 0.06536 1.0117 0.0
C538 C 0.23201 0.07863 0.97284 0.0
C539 C 0.25031 0.43036 0.47393 0.0
C540 C 0.28425 0.38747 0.46411 0.0
C541 C 0.25268 0.44815 0.51103 0.0
C542 C 0.28782 0.4231 0.53998 0.0
H543 H 0.21775 0.44855 0.45352 0.0
H544 H 0.22392 0.48069 0.51742 0.0
S545 S 0.38846 0.30992 0.52743 0.0
N546 N 0.35846 0.32227 0.48488 0.0
N547 N 0.36023 0.35365 0.55504 0.0
C548 C 0.32503 0.38125 0.52981 0.0
C549 C 0.32367 0.3639 0.49184 0.0
C550 C 0.68651 0.34414 0.07534 0.0
C551 C 0.71639 0.37377 0.10335 0.0
C552 C 0.67652 0.36074 0.03845 0.0
C553 C 0.69505 0.40803 1.02822 0.0
H554 H 0.67418 0.30698 0.08166 0.0
H555 H 0.65791 0.33542 1.01741 0.0
S556 S 0.76545 0.50212 0.09277 0.0
N557 N 0.76001 0.45342 0.11906 0.0
N558 N 0.73533 0.48623 0.05085 0.0
C559 C 0.71943 0.43918 0.05691 0.0
C560 C 0.73145 0.42173 0.0942 0.0
C561 C 0.75857 0.11606 0.56959 0.0
C562 C 0.7941 0.12607 0.60354 0.0
C563 C 0.79468 0.11532 0.53495 0.0
C564 C 0.86836 0.12364 0.53289 0.0
H565 H 0.70154 0.11156 0.56968 0.0
H566 H 0.76369 0.11096 0.5095 0.0
S567 S 0.98762 0.14283 0.61496 0.0
N568 N 0.9075 0.14008 0.63365 0.0
N569 N 0.97689 0.13438 0.56922 0.0
C570 C 0.90536 0.12908 0.56728 0.0
C571 C 0.868 0.13119 0.60243 0.0
C572 C 0.88652 0.88318 0.09047 0.0
C573 C 0.81368 0.87948 0.09828 0.0
C574 C 0.91108 0.90286 0.05632 0.0
C575 C 0.86357 0.91918 1.02862 0.0
H576 H 0.92458 0.8693 0.11036 0.0
H577 H 0.96765 0.90403 0.05111 0.0
S578 S 0.66777 0.92185 0.03746 0.0
N579 N 0.69462 0.89717 0.0772 0.0
N580 N 0.74028 0.93339 1.01278 0.0
C581 C 0.79062 0.91695 0.03673 0.0
C582 C 0.76582 0.89736 0.07162 0.0
C583 C 0.71452 0.59456 0.57166 0.0
C584 C 0.6757 0.61291 0.60222 0.0
C585 C 0.68059 0.57904 0.53858 0.0
C586 C 0.60637 0.58133 0.53479 0.0
H587 H 0.77173 0.59292 0.57327 0.0
H588 H 0.71282 0.56541 0.51568 0.0
S589 S 0.48116 0.62739 0.60708 0.0
N590 N 0.55987 0.6329 0.62696 0.0
N591 N 0.49534 0.60377 0.56496 0.0
C592 C 0.5669 0.5989 0.56564 0.0
C593 C 0.60173 0.61471 0.5993 0.0
C594 C 0.37754 0.63032 0.95979 0.0
C595 C 0.30355 0.63451 0.95911 0.0
C596 C 0.41409 0.62706 0.99426 0.0
C597 C 0.37792 0.62842 1.02925 0.0
H598 H 0.4074 0.63175 0.9337 0.0
H599 H 0.47133 0.62484 0.9935 0.0
S600 S 0.18263 0.63608 0.04146 0.0
N601 N 0.19473 0.63587 0.99536 0.0
N602 N 0.26254 0.63276 0.06004 0.0
C603 C 0.30335 0.63062 1.02845 0.0
C604 C 0.2665 0.63297 0.99343 0.0
C605 C 0.20463 0.84562 0.49284 0.0
C606 C 0.23139 0.87659 0.46493 0.0
C607 C 0.19825 0.86054 0.53045 0.0
C608 C 0.21767 0.90737 0.54164 0.0
H609 H 0.19176 0.80875 0.48572 0.0
H610 H 0.18148 0.83426 0.55114 0.0
S611 S 0.28155 1.00428 0.4779 0.0
N612 N 0.27279 0.95694 0.45012 0.0
N613 N 0.25654 0.98645 0.52032 0.0
C614 C 0.2397 0.93977 0.51328 0.0
C615 C 0.2474 0.9241 0.47504 0.0
C616 C 0.21834 0.2274 0.3621 0.0
C617 C 0.18229 0.26791 0.37532 0.0
C618 C 0.18125 0.18857 0.34609 0.0
C619 C 0.10689 0.1894 0.34205 0.0
H620 H 0.27552 0.22593 0.36413 0.0
H621 H 0.21132 0.15787 0.33657 0.0
S622 S 0.9893 0.28891 0.37273 0.0
N623 N 0.06982 0.30736 0.38406 0.0
N624 N -0.00083 0.23543 0.35331 0.0
C625 C 0.07056 0.23018 0.35556 0.0
C626 C 0.10855 0.26926 0.37221 0.0
C627 C 0.37211 0.22272 0.85414 0.0
C628 C 0.30371 0.22985 0.86865 0.0
C629 C 0.41041 0.26074 0.83776 0.0
C630 C 0.38077 0.3068 0.83479 0.0
H631 H 0.39583 0.18749 0.85556 0.0
H632 H 0.46286 0.25378 0.82662 0.0
S633 S 0.20283 0.34312 0.86884 0.0
N634 N 0.20786 0.28551 0.87942 0.0
N635 N 0.27885 0.35717 0.84833 0.0
C636 C 0.3121 0.31409 0.84924 0.0
C637 C 0.27378 0.27552 0.86628 0.0
C638 C 0.57967 0.21593 0.70687 0.0
C639 C 0.6472 0.22182 0.69078 0.0
C640 C 0.54695 0.25391 0.72603 0.0
C641 C 0.58088 0.29878 0.72929 0.0
H642 H 0.55288 0.18148 0.70518 0.0
H643 H 0.4956 0.24788 0.73891 0.0
S644 S 0.75585 0.333 0.68988 0.0
N645 N 0.74619 0.27572 0.67864 0.0
N646 N 0.68312 0.34796 0.71299 0.0
C647 C 0.64749 0.30541 0.71248 0.0
C648 C 0.68108 0.26665 0.69351 0.0
C649 C 0.82309 0.21658 0.18381 0.0
C650 C 0.83091 0.26472 0.19513 0.0
C651 C 0.86185 0.18014 0.20139 0.0
C652 C 0.90809 0.19089 0.23129 0.0
H653 H 0.78572 0.20712 0.16185 0.0
H654 H 0.85392 0.14328 0.19242 0.0
S655 S 0.95239 0.31184 0.26849 0.0
N656 N 0.89368 0.32168 0.235 0.0
N657 N 0.96252 0.25304 0.26997 0.0
C658 C 0.91714 0.23895 0.24232 0.0
C659 C 0.87964 0.27598 0.22365 0.0
C660 C 0.88929 0.72017 0.69355 0.0
C661 C 0.81867 0.72377 0.68171 0.0
C662 C 0.92413 0.75934 0.71052 0.0
C663 C 0.889 0.80318 0.71654 0.0
H664 H 0.91689 0.68643 0.69051 0.0
H665 H 0.97804 0.75464 0.72018 0.0
S666 S 0.70465 0.83091 0.68808 0.0
N667 N 0.71552 0.77426 0.67557 0.0
N668 N 0.78057 0.84832 0.70695 0.0
C669 C 0.81878 0.80737 0.70371 0.0
C670 C 0.78368 0.76752 0.68642 0.0
C671 C 0.62614 0.76294 0.18805 0.0
C672 C 0.69926 0.75856 0.18225 0.0
C673 C 0.58703 0.72603 0.20538 0.0
C674 C 0.61989 0.6834 0.21747 0.0
H675 H 0.59966 0.79576 0.18015 0.0
H676 H 0.53103 0.73165 0.21026 0.0
S677 S 0.81005 0.6537 0.20508 0.0
N678 N 0.80289 0.70848 0.18779 0.0
N679 N 0.72974 0.63809 0.21933 0.0
C680 C 0.69292 0.67818 0.21035 0.0
C681 C 0.73256 0.71605 0.19303 0.0
C682 C 0.33077 0.72309 0.3788 0.0
C683 C 0.33565 0.77101 0.36682 0.0
C684 C 0.36864 0.6869 0.36029 0.0
C685 C 0.41115 0.69753 0.32874 0.0
H686 H 0.29676 0.71359 0.40229 0.0
H687 H 0.36333 0.65026 0.37017 0.0
S688 S 0.44535 0.81788 0.28808 0.0
N689 N 0.3906 0.82776 0.32363 0.0
N690 N 0.4579 0.75928 0.28708 0.0
C691 C 0.41663 0.7453 0.3166 0.0
C692 C 0.37987 0.78222 0.33614 0.0
C693 C 0.17288 0.73593 0.8318 0.0
C694 C 0.15267 0.72165 0.86822 0.0
C695 C 0.13686 0.7723 0.81289 0.0
C696 C 0.08099 0.79736 0.83026 0.0
H697 H 0.21733 0.71902 0.8179 0.0
H698 H 0.15386 0.78099 0.78454 0.0
S699 S 0.00535 0.77089 0.92502 0.0
N700 N 0.07046 0.73212 0.92007 0.0
N701 N 0.00539 0.80309 0.88601 0.0
C702 C 0.06005 0.78298 0.86683 0.0
C703 C 0.09547 0.74471 0.8855 0.0
loop_
_geom_bond_atom_site_label_1
_geom_bond_atom_site_label_2
_geom_bond_distance
_geom_bond_site_symmetry_2
_ccdc_geom_bond_type
C0 N1 1.317 . S
C0 N2 1.348 . S
C0 C3 1.485 . S
N1 C0 1.317 . S
N1 N5 1.370 . S
N2 C0 1.348 . S
N2 C4 1.346 . S
C3 C0 1.485 . S
C3 H7 0.960 . S
C3 H8 0.961 . S
C3 H9 0.960 . S
C4 N2 1.346 . S
C4 N5 1.307 . S
C4 C6 1.486 . S
N5 N1 1.370 . S
N5 C4 1.307 . S
C6 C4 1.486 . S
C6 H10 0.960 . S
C6 H11 0.960 . S
C6 H12 0.959 . S
H7 C3 0.960 . S
H8 C3 0.961 . S
H9 C3 0.960 . S
H10 C6 0.960 . S
H11 C6 0.960 . S
H12 C6 0.959 . S
C13 N14 1.317 . S
C13 N15 1.348 . S
C13 C16 1.485 . S
N14 C13 1.317 . S
N14 N18 1.370 . S
N15 C13 1.348 . S
N15 C17 1.346 . S
C16 C13 1.485 . S
C16 H20 0.960 . S
C16 H21 0.961 . S
C16 H22 0.960 . S
C17 N15 1.346 . S
C17 N18 1.307 . S
C17 C19 1.486 . S
N18 N14 1.370 . S
N18 C17 1.307 . S
C19 C17 1.486 . S
C19 H23 0.960 . S
C19 H24 0.960 . S
C19 H25 0.959 . S
H20 C16 0.960 . S
H21 C16 0.961 . S
H22 C16 0.960 . S
H23 C19 0.960 . S
H24 C19 0.960 . S
H25 C19 0.959 . S
C26 N27 1.317 . S
C26 N28 1.348 . S
C26 C29 1.485 . S
N27 C26 1.317 . S
N27 N31 1.370 . S
N28 C26 1.348 . S
N28 C30 1.346 . S
C29 C26 1.485 . S
C29 H33 0.960 . S
C29 H34 0.961 . S
C29 H35 0.960 . S
C30 N28 1.346 . S
C30 N31 1.307 . S
C30 C32 1.486 . S
N31 N27 1.370 . S
N31 C30 1.307 . S
C32 C30 1.486 . S
C32 H36 0.960 . S
C32 H37 0.960 . S
C32 H38 0.959 . S
H33 C29 0.960 . S
H34 C29 0.961 . S
H35 C29 0.960 . S
H36 C32 0.960 . S
H37 C32 0.960 . S
H38 C32 0.959 . S
C39 N40 1.317 . S
C39 N41 1.348 . S
C39 C42 1.485 . S
N40 C39 1.317 . S
N40 N44 1.370 . S
N41 C39 1.348 . S
N41 C43 1.346 . S
C42 C39 1.485 . S
C42 H46 0.960 . S
C42 H47 0.961 . S
C42 H48 0.960 . S
C43 N41 1.346 . S
C43 N44 1.307 . S
C43 C45 1.486 . S
N44 N40 1.370 . S
N44 C43 1.307 . S
C45 C43 1.486 . S
C45 H49 0.960 . S
C45 H50 0.960 . S
C45 H51 0.959 . S
H46 C42 0.960 . S
H47 C42 0.961 . S
H48 C42 0.960 . S
H49 C45 0.960 . S
H50 C45 0.960 . S
H51 C45 0.959 . S
C52 N53 1.317 . S
C52 N54 1.348 . S
C52 C55 1.485 . S
N53 C52 1.317 . S
N53 N57 1.370 . S
N54 C52 1.348 . S
N54 C56 1.346 . S
C55 C52 1.485 . S
C55 H59 0.960 . S
C55 H60 0.961 . S
C55 H61 0.960 . S
C56 N54 1.346 . S
C56 N57 1.307 . S
C56 C58 1.486 . S
N57 N53 1.370 . S
N57 C56 1.307 . S
C58 C56 1.486 . S
C58 H62 0.960 . S
C58 H63 0.960 . S
C58 H64 0.959 . S
H59 C55 0.960 . S
H60 C55 0.961 . S
H61 C55 0.960 . S
H62 C58 0.960 . S
H63 C58 0.960 . S
H64 C58 0.959 . S
C65 N66 1.317 . S
C65 N67 1.348 . S
C65 C68 1.485 . S
N66 C65 1.317 . S
N66 N70 1.370 . S
N67 C65 1.348 . S
N67 C69 1.346 . S
C68 C65 1.485 . S
C68 H72 0.960 . S
C68 H73 0.961 . S
C68 H74 0.960 . S
C69 N67 1.346 . S
C69 N70 1.307 . S
C69 C71 1.486 . S
N70 N66 1.370 . S
N70 C69 1.307 . S
C71 C69 1.486 . S
C71 H75 0.960 . S
C71 H76 0.960 . S
C71 H77 0.959 . S
H72 C68 0.960 . S
H73 C68 0.961 . S
H74 C68 0.960 . S
H75 C71 0.960 . S
H76 C71 0.960 . S
H77 C71 0.959 . S
C78 N79 1.317 . S
C78 N80 1.348 . S
C78 C81 1.485 . S
N79 C78 1.317 . S
N79 N83 1.370 . S
N80 C78 1.348 . S
N80 C82 1.346 . S
C81 C78 1.485 . S
C81 H85 0.960 . S
C81 H86 0.961 . S
C81 H87 0.960 . S
C82 N80 1.346 . S
C82 N83 1.307 . S
C82 C84 1.486 . S
N83 N79 1.370 . S
N83 C82 1.307 . S
C84 C82 1.486 . S
C84 H88 0.960 . S
C84 H89 0.960 . S
C84 H90 0.959 . S
H85 C81 0.960 . S
H86 C81 0.961 . S
H87 C81 0.960 . S
H88 C84 0.960 . S
H89 C84 0.960 . S
H90 C84 0.959 . S
C91 N92 1.317 . S
C91 N93 1.348 . S
C91 C94 1.485 . S
N92 C91 1.317 . S
N92 N96 1.370 . S
N93 C91 1.348 . S
N93 C95 1.346 . S
C94 C91 1.485 . S
C94 H98 0.960 . S
C94 H99 0.961 . S
C94 H100 0.960 . S
C95 N93 1.346 . S
C95 N96 1.307 . S
C95 C97 1.486 . S
N96 N92 1.370 . S
N96 C95 1.307 . S
C97 C95 1.486 . S
C97 H101 0.960 . S
C97 H102 0.960 . S
C97 H103 0.959 . S
H98 C94 0.960 . S
H99 C94 0.961 . S
H100 C94 0.960 . S
H101 C97 0.960 . S
H102 C97 0.960 . S
H103 C97 0.959 . S
Eu104 N133 2.600 . S
Eu104 N139 2.562 . S
Eu104 O148 2.462 . S
Eu104 O149 2.373 . S
Eu104 O151 2.432 . S
Eu104 O152 2.291 1_455 S
Eu104 O156 2.335 1_455 S
Eu104 O159 2.372 . S
Eu104 C168 2.787 . S
C105 N106 1.365 . S
C105 C108 1.405 . S
C105 C112 1.448 . S
N106 C105 1.365 . S
N106 C109 1.319 . S
N106 Eu115 2.600 . S
C107 C109 1.397 . S
C107 C110 1.367 . S
C107 H127 0.931 . S
C108 C105 1.405 . S
C108 C110 1.403 . S
C108 C114 1.439 . S
C109 N106 1.319 . S
C109 C107 1.397 . S
C109 H120 0.930 . S
C110 C107 1.367 . S
C110 C108 1.403 . S
C110 H131 0.929 . S
C111 C112 1.430 1_565 S
C111 C113 1.387 . S
C111 C117 1.404 . S
C112 C105 1.448 . S
C112 C111 1.430 1_545 S
C112 N116 1.351 . S
C113 C111 1.387 . S
C113 C114 1.374 1_565 S
C113 H128 0.931 . S
C114 C108 1.439 . S
C114 C113 1.374 1_545 S
C114 H129 0.931 . S
Eu115 N106 2.600 . S
Eu115 N116 2.562 . S
Eu115 O150 2.335 1_655 S
Eu115 O153 2.372 . S
Eu115 O154 2.462 . S
Eu115 O155 2.373 . S
Eu115 O157 2.432 . S
Eu115 O158 2.291 1_655 S
Eu115 C179 2.787 . S
N116 C112 1.351 . S
N116 Eu115 2.562 . S
N116 C118 1.325 1_545 S
C117 C111 1.404 . S
C117 C119 1.366 . S
C117 H125 0.930 . S
C118 N116 1.325 1_565 S
C118 C119 1.416 . S
C118 H124 0.929 . S
C119 C117 1.366 . S
C119 C118 1.416 . S
C119 H121 0.930 . S
H120 C109 0.930 . S
H121 C119 0.930 . S
H122 C137 0.930 . S
H123 C144 0.930 . S
H124 C118 0.929 . S
H125 C117 0.930 . S
H126 C140 0.929 . S
H127 C107 0.931 . S
H128 C113 0.931 . S
H129 C114 0.931 . S
H130 C135 0.931 . S
H131 C110 0.929 . S
H132 C143 0.930 . S
N133 Eu104 2.600 . S
N133 C134 1.365 . S
N133 C137 1.319 . S
C134 N133 1.365 . S
C134 C136 1.405 . S
C134 C142 1.448 . S
C135 H130 0.931 . S
C135 C137 1.397 . S
C135 C138 1.367 . S
C136 C134 1.405 . S
C136 C138 1.403 . S
C136 C169 1.439 . S
C137 H122 0.930 . S
C137 N133 1.319 . S
C137 C135 1.397 . S
C138 C135 1.367 . S
C138 C136 1.403 . S
C138 H145 0.929 . S
N139 Eu104 2.562 . S
N139 C140 1.325 . S
N139 C142 1.351 . S
C140 H126 0.929 . S
C140 N139 1.325 . S
C140 C144 1.416 . S
C141 C142 1.430 . S
C141 C143 1.404 . S
C141 C170 1.387 . S
C142 C134 1.448 . S
C142 N139 1.351 . S
C142 C141 1.430 . S
C143 H132 0.930 . S
C143 C141 1.404 . S
C143 C144 1.366 . S
C144 H123 0.930 . S
C144 C140 1.416 . S
C144 C143 1.366 . S
H145 C138 0.929 . S
H146 C169 0.931 . S
H147 C170 0.931 . S
O148 Eu104 2.462 . S
O148 C168 1.252 . S
O149 Eu104 2.373 . S
O149 C160 1.249 . S
O150 Eu115 2.335 1_455 S
O150 C160 1.264 . S
O151 Eu104 2.432 . S
O151 C168 1.268 . S
O152 Eu104 2.291 1_655 S
O152 C167 1.255 . S
O153 Eu115 2.372 . S
O153 C167 1.257 . S
O154 Eu115 2.462 . S
O154 C179 1.252 . S
O155 Eu115 2.373 . S
O155 C171 1.249 . S
O156 Eu104 2.335 1_655 S
O156 C171 1.264 . S
O157 Eu115 2.432 . S
O157 C179 1.268 . S
O158 Eu115 2.291 1_455 S
O158 C178 1.255 . S
O159 Eu104 2.372 . S
O159 C178 1.257 . S
C160 O149 1.249 . S
C160 O150 1.264 . S
C161 C164 1.382 . S
C161 C166 1.390 . S
C161 C168 1.506 . S
C162 C163 1.398 . S
C162 C166 1.392 . S
C163 C162 1.398 . S
C163 C165 1.372 . S
C163 H180 0.931 . S
C164 C161 1.382 . S
C164 C165 1.390 . S
C164 H181 0.931 . S
C165 C163 1.372 . S
C165 C164 1.390 . S
C165 H182 0.929 1_545 S
C166 C161 1.390 . S
C166 C162 1.392 . S
C166 H183 0.930 . S
C167 O152 1.255 . S
C167 O153 1.257 . S
C168 Eu104 2.787 . S
C168 O148 1.252 . S
C168 O151 1.268 . S
C168 C161 1.506 . S
C169 C136 1.439 . S
C169 H146 0.931 . S
C169 C170 1.374 . S
C170 C141 1.387 . S
C170 H147 0.931 . S
C170 C169 1.374 . S
C171 O155 1.249 . S
C171 O156 1.264 . S
C172 C175 1.382 . S
C172 C176 1.390 . S
C172 C179 1.506 . S
C173 C174 1.398 . S
C173 C176 1.392 . S
C174 C173 1.398 . S
C174 C177 1.372 . S
C174 H184 0.931 . S
C175 C172 1.382 . S
C175 C177 1.390 . S
C175 H185 0.931 . S
C176 C172 1.390 . S
C176 C173 1.392 . S
C176 H186 0.930 . S
C177 C174 1.372 . S
C177 C175 1.390 . S
C177 H187 0.929 . S
C178 O158 1.255 . S
C178 O159 1.257 . S
C179 Eu115 2.787 . S
C179 O154 1.252 . S
C179 O157 1.268 . S
C179 C172 1.506 . S
H180 C163 0.931 . S
H181 C164 0.931 . S
H182 C165 0.929 1_565 S
H183 C166 0.930 . S
H184 C174 0.931 . S
H185 C175 0.931 . S
H186 C176 0.930 . S
H187 C177 0.929 . S
Eu188 N217 2.600 . S
Eu188 N223 2.562 . S
Eu188 O232 2.462 . S
Eu188 O233 2.373 . S
Eu188 O235 2.432 . S
Eu188 O236 2.291 . S
Eu188 O240 2.335 . S
Eu188 O243 2.372 . S
Eu188 C252 2.787 . S
C189 N190 1.365 . S
C189 C192 1.405 . S
C189 C196 1.448 . S
N190 C189 1.365 . S
N190 C193 1.319 . S
N190 Eu199 2.600 . S
C191 C193 1.397 . S
C191 C194 1.367 . S
C191 H211 0.931 . S
C192 C189 1.405 . S
C192 C194 1.403 . S
C192 C198 1.439 . S
C193 N190 1.319 . S
C193 C191 1.397 . S
C193 H204 0.930 . S
C194 C191 1.367 . S
C194 C192 1.403 . S
C194 H215 0.929 . S
C195 C196 1.430 . S
C195 C197 1.387 . S
C195 C201 1.404 . S
C196 C189 1.448 . S
C196 C195 1.430 . S
C196 N200 1.351 . S
C197 C195 1.387 . S
C197 C198 1.374 . S
C197 H212 0.931 . S
C198 C192 1.439 . S
C198 C197 1.374 . S
C198 H213 0.931 . S
Eu199 N190 2.600 . S
Eu199 N200 2.562 . S
Eu199 O234 2.335 . S
Eu199 O237 2.372 . S
Eu199 O238 2.462 . S
Eu199 O239 2.373 . S
Eu199 O241 2.432 . S
Eu199 O242 2.291 . S
Eu199 C263 2.787 . S
N200 C196 1.351 . S
N200 Eu199 2.562 . S
N200 C202 1.325 . S
C201 C195 1.404 . S
C201 C203 1.366 . S
C201 H209 0.930 . S
C202 N200 1.325 . S
C202 C203 1.416 . S
C202 H208 0.929 . S
C203 C201 1.366 . S
C203 C202 1.416 . S
C203 H205 0.930 . S
H204 C193 0.930 . S
H205 C203 0.930 . S
H206 C221 0.930 . S
H207 C228 0.930 . S
H208 C202 0.929 . S
H209 C201 0.930 . S
H210 C224 0.929 . S
H211 C191 0.931 . S
H212 C197 0.931 . S
H213 C198 0.931 . S
H214 C219 0.931 . S
H215 C194 0.929 . S
H216 C227 0.930 . S
N217 Eu188 2.600 . S
N217 C218 1.365 . S
N217 C221 1.319 . S
C218 N217 1.365 . S
C218 C220 1.405 . S
C218 C226 1.448 . S
C219 H214 0.931 . S
C219 C221 1.397 . S
C219 C222 1.367 . S
C220 C218 1.405 . S
C220 C222 1.403 . S
C220 C253 1.439 . S
C221 H206 0.930 . S
C221 N217 1.319 . S
C221 C219 1.397 . S
C222 C219 1.367 . S
C222 C220 1.403 . S
C222 H229 0.929 . S
N223 Eu188 2.562 . S
N223 C224 1.325 . S
N223 C226 1.351 . S
C224 H210 0.929 . S
C224 N223 1.325 . S
C224 C228 1.416 . S
C225 C226 1.430 . S
C225 C227 1.404 . S
C225 C254 1.387 . S
C226 C218 1.448 . S
C226 N223 1.351 . S
C226 C225 1.430 . S
C227 H216 0.930 . S
C227 C225 1.404 . S
C227 C228 1.366 . S
C228 H207 0.930 . S
C228 C224 1.416 . S
C228 C227 1.366 . S
H229 C222 0.929 . S
H230 C253 0.931 . S
H231 C254 0.931 . S
O232 Eu188 2.462 . S
O232 C252 1.252 . S
O233 Eu188 2.373 . S
O233 C244 1.249 . S
O234 Eu199 2.335 . S
O234 C244 1.264 . S
O235 Eu188 2.432 . S
O235 C252 1.268 . S
O236 Eu188 2.291 . S
O236 C251 1.255 . S
O237 Eu199 2.372 . S
O237 C251 1.257 . S
O238 Eu199 2.462 . S
O238 C263 1.252 . S
O239 Eu199 2.373 . S
O239 C255 1.249 . S
O240 Eu188 2.335 . S
O240 C255 1.264 . S
O241 Eu199 2.432 . S
O241 C263 1.268 . S
O242 Eu199 2.291 . S
O242 C262 1.255 . S
O243 Eu188 2.372 . S
O243 C262 1.257 . S
C244 O233 1.249 . S
C244 O234 1.264 . S
C245 C248 1.382 . S
C245 C250 1.390 . S
C245 C252 1.506 . S
C246 C247 1.398 . S
C246 C250 1.392 . S
C247 C246 1.398 . S
C247 C249 1.372 . S
C247 H264 0.931 . S
C248 C245 1.382 . S
C248 C249 1.390 . S
C248 H265 0.931 . S
C249 C247 1.372 . S
C249 C248 1.390 . S
C249 H266 0.929 . S
C250 C245 1.390 . S
C250 C246 1.392 . S
C250 H267 0.930 . S
C251 O236 1.255 . S
C251 O237 1.257 . S
C252 Eu188 2.787 . S
C252 O232 1.252 . S
C252 O235 1.268 . S
C252 C245 1.506 . S
C253 C220 1.439 . S
C253 H230 0.931 . S
C253 C254 1.374 . S
C254 C225 1.387 . S
C254 H231 0.931 . S
C254 C253 1.374 . S
C255 O239 1.249 . S
C255 O240 1.264 . S
C256 C259 1.382 . S
C256 C260 1.390 . S
C256 C263 1.506 . S
C257 C258 1.398 . S
C257 C260 1.392 . S
C258 C257 1.398 . S
C258 C261 1.372 . S
C258 H268 0.931 . S
C259 C256 1.382 . S
C259 C261 1.390 . S
C259 H269 0.931 . S
C260 C256 1.390 . S
C260 C257 1.392 . S
C260 H270 0.930 . S
C261 C258 1.372 . S
C261 C259 1.390 . S
C261 H271 0.929 . S
C262 O242 1.255 . S
C262 O243 1.257 . S
C263 Eu199 2.787 . S
C263 O238 1.252 . S
C263 O241 1.268 . S
C263 C256 1.506 . S
H264 C247 0.931 . S
H265 C248 0.931 . S
H266 C249 0.929 . S
H267 C250 0.930 . S
H268 C258 0.931 . S
H269 C259 0.931 . S
H270 C260 0.930 . S
H271 C261 0.929 . S
Eu272 N301 2.600 . S
Eu272 N307 2.562 . S
Eu272 O316 2.462 . S
Eu272 O317 2.373 . S
Eu272 O319 2.432 . S
Eu272 O320 2.285 1_455 S
Eu272 O324 2.335 1_455 S
Eu272 O327 2.372 . S
Eu272 C336 2.787 . S
C273 N274 1.365 . S
C273 C276 1.405 . S
C273 C280 1.448 . S
N274 C273 1.365 . S
N274 C277 1.319 . S
N274 Eu283 2.600 . S
C275 C277 1.397 . S
C275 C278 1.367 . S
C275 H295 0.931 . S
C276 C273 1.405 . S
C276 C278 1.403 . S
C276 C282 1.439 . S
C277 N274 1.319 . S
C277 C275 1.397 . S
C277 H288 0.930 . S
C278 C275 1.367 . S
C278 C276 1.403 . S
C278 H299 0.929 . S
C279 C280 1.430 . S
C279 C281 1.387 . S
C279 C285 1.404 . S
C280 C273 1.448 . S
C280 C279 1.430 . S
C280 N284 1.351 . S
C281 C279 1.387 . S
C281 C282 1.374 . S
C281 H296 0.931 . S
C282 C276 1.439 . S
C282 C281 1.374 . S
C282 H297 0.931 . S
Eu283 N274 2.600 . S
Eu283 N284 2.562 . S
Eu283 O318 2.335 1_655 S
Eu283 O321 2.372 . S
Eu283 O322 2.462 . S
Eu283 O323 2.373 . S
Eu283 O325 2.432 . S
Eu283 O326 2.291 1_655 S
Eu283 C347 2.787 . S
N284 C280 1.351 . S
N284 Eu283 2.562 . S
N284 C286 1.325 . S
C285 C279 1.404 . S
C285 C287 1.366 . S
C285 H293 0.930 . S
C286 N284 1.325 . S
C286 C287 1.416 . S
C286 H292 0.929 . S
C287 C285 1.366 . S
C287 C286 1.416 . S
C287 H289 0.930 . S
H288 C277 0.930 . S
H289 C287 0.930 . S
H290 C305 0.930 . S
H291 C312 0.930 . S
H292 C286 0.929 . S
H293 C285 0.930 . S
H294 C308 0.929 . S
H295 C275 0.931 . S
H296 C281 0.931 . S
H297 C282 0.931 . S
H298 C303 0.931 . S
H299 C278 0.929 . S
H300 C311 0.930 . S
N301 Eu272 2.600 . S
N301 C302 1.365 . S
N301 C305 1.319 . S
C302 N301 1.365 . S
C302 C304 1.405 . S
C302 C310 1.448 . S
C303 H298 0.931 . S
C303 C305 1.397 . S
C303 C306 1.367 . S
C304 C302 1.405 . S
C304 C306 1.403 . S
C304 C337 1.439 . S
C305 H290 0.930 . S
C305 N301 1.319 . S
C305 C303 1.397 . S
C306 C303 1.367 . S
C306 C304 1.403 . S
C306 H313 0.929 . S
N307 Eu272 2.562 . S
N307 C308 1.325 1_565 S
N307 C310 1.351 . S
C308 H294 0.929 . S
C308 N307 1.325 1_545 S
C308 C312 1.416 . S
C309 C310 1.430 1_545 S
C309 C311 1.404 . S
C309 C338 1.387 . S
C310 C302 1.448 . S
C310 N307 1.351 . S
C310 C309 1.430 1_565 S
C311 H300 0.930 . S
C311 C309 1.404 . S
C311 C312 1.366 . S
C312 H291 0.930 . S
C312 C308 1.416 . S
C312 C311 1.366 . S
H313 C306 0.929 . S
H314 C337 0.931 . S
H315 C338 0.931 . S
O316 Eu272 2.462 . S
O316 C336 1.252 . S
O317 Eu272 2.373 . S
O317 C328 1.249 . S
O318 Eu283 2.335 1_455 S
O318 C328 1.264 . S
O319 Eu272 2.432 . S
O319 C336 1.268 . S
O320 Eu272 2.285 1_655 S
O320 C335 1.263 . S
O321 Eu283 2.372 . S
O321 C335 1.257 . S
O322 Eu283 2.462 . S
O322 C347 1.252 . S
O323 Eu283 2.373 . S
O323 C339 1.249 . S
O324 Eu272 2.335 1_655 S
O324 C339 1.264 . S
O325 Eu283 2.432 . S
O325 C347 1.268 . S
O326 Eu283 2.291 1_455 S
O326 C346 1.255 . S
O327 Eu272 2.372 . S
O327 C346 1.257 . S
C328 O317 1.249 . S
C328 O318 1.264 . S
C329 C332 1.382 . S
C329 C334 1.390 . S
C329 C336 1.506 . S
C330 C331 1.398 . S
C330 C334 1.392 . S
C331 C330 1.398 . S
C331 C333 1.372 . S
C331 H348 0.931 . S
C332 C329 1.382 . S
C332 C333 1.390 . S
C332 H349 0.931 . S
C333 C331 1.372 . S
C333 C332 1.390 . S
C333 H350 0.929 . S
C334 C329 1.390 . S
C334 C330 1.392 . S
C334 H351 0.930 . S
C335 O320 1.263 . S
C335 O321 1.257 . S
C336 Eu272 2.787 . S
C336 O316 1.252 . S
C336 O319 1.268 . S
C336 C329 1.506 . S
C337 C304 1.439 . S
C337 H314 0.931 . S
C337 C338 1.374 1_565 S
C338 C309 1.387 . S
C338 H315 0.931 . S
C338 C337 1.374 1_545 S
C339 O323 1.249 . S
C339 O324 1.264 . S
C340 C343 1.382 . S
C340 C344 1.390 . S
C340 C347 1.506 . S
C341 C342 1.398 . S
C341 C344 1.392 . S
C342 C341 1.398 . S
C342 C345 1.372 . S
C342 H352 0.931 . S
C343 C340 1.382 . S
C343 C345 1.390 . S
C343 H353 0.931 . S
C344 C340 1.390 . S
C344 C341 1.392 . S
C344 H354 0.930 . S
C345 C342 1.372 . S
C345 C343 1.390 . S
C345 H355 0.929 1_565 S
C346 O326 1.255 . S
C346 O327 1.257 . S
C347 Eu283 2.787 . S
C347 O322 1.252 . S
C347 O325 1.268 . S
C347 C340 1.506 . S
H348 C331 0.931 . S
H349 C332 0.931 . S
H350 C333 0.929 . S
H351 C334 0.930 . S
H352 C342 0.931 . S
H353 C343 0.931 . S
H354 C344 0.930 . S
H355 C345 0.929 1_545 S
Eu356 N385 2.600 . S
Eu356 N391 2.562 . S
Eu356 O400 2.462 . S
Eu356 O401 2.373 . S
Eu356 O403 2.432 . S
Eu356 O404 2.291 . S
Eu356 O408 2.335 . S
Eu356 O411 2.372 . S
Eu356 C420 2.787 . S
C357 N358 1.365 . S
C357 C360 1.405 . S
C357 C364 1.448 . S
N358 C357 1.365 . S
N358 C361 1.319 . S
N358 Eu367 2.600 . S
C359 C361 1.397 . S
C359 C362 1.367 . S
C359 H379 0.931 . S
C360 C357 1.405 . S
C360 C362 1.403 . S
C360 C366 1.439 . S
C361 N358 1.319 . S
C361 C359 1.397 . S
C361 H372 0.930 . S
C362 C359 1.367 . S
C362 C360 1.403 . S
C362 H383 0.929 . S
C363 C364 1.430 . S
C363 C365 1.387 . S
C363 C369 1.404 . S
C364 C357 1.448 . S
C364 C363 1.430 . S
C364 N368 1.351 . S
C365 C363 1.387 . S
C365 C366 1.374 . S
C365 H380 0.931 . S
C366 C360 1.439 . S
C366 C365 1.374 . S
C366 H381 0.931 . S
Eu367 N358 2.600 . S
Eu367 N368 2.562 . S
Eu367 O402 2.335 . S
Eu367 O405 2.372 . S
Eu367 O406 2.462 . S
Eu367 O407 2.373 . S
Eu367 O409 2.432 . S
Eu367 O410 2.291 . S
Eu367 C431 2.787 . S
N368 C364 1.351 . S
N368 Eu367 2.562 . S
N368 C370 1.325 . S
C369 C363 1.404 . S
C369 C371 1.366 . S
C369 H377 0.930 . S
C370 N368 1.325 . S
C370 C371 1.416 . S
C370 H376 0.929 . S
C371 C369 1.366 . S
C371 C370 1.416 . S
C371 H373 0.930 . S
H372 C361 0.930 . S
H373 C371 0.930 . S
H374 C389 0.930 . S
H375 C396 0.930 . S
H376 C370 0.929 . S
H377 C369 0.930 . S
H378 C392 0.929 . S
H379 C359 0.931 . S
H380 C365 0.931 . S
H381 C366 0.931 . S
H382 C387 0.931 . S
H383 C362 0.929 . S
H384 C395 0.930 . S
N385 Eu356 2.600 . S
N385 C386 1.365 . S
N385 C389 1.319 . S
C386 N385 1.365 . S
C386 C388 1.405 . S
C386 C394 1.448 . S
C387 H382 0.931 . S
C387 C389 1.397 . S
C387 C390 1.367 . S
C388 C386 1.405 . S
C388 C390 1.403 . S
C388 C421 1.439 . S
C389 H374 0.930 . S
C389 N385 1.319 . S
C389 C387 1.397 . S
C390 C387 1.367 . S
C390 C388 1.403 . S
C390 H397 0.929 . S
N391 Eu356 2.562 . S
N391 C392 1.325 . S
N391 C394 1.351 . S
C392 H378 0.929 . S
C392 N391 1.325 . S
C392 C396 1.416 . S
C393 C394 1.430 . S
C393 C395 1.404 . S
C393 C422 1.387 . S
C394 C386 1.448 . S
C394 N391 1.351 . S
C394 C393 1.430 . S
C395 H384 0.930 . S
C395 C393 1.404 . S
C395 C396 1.366 . S
C396 H375 0.930 . S
C396 C392 1.416 . S
C396 C395 1.366 . S
H397 C390 0.929 . S
H398 C421 0.931 . S
H399 C422 0.931 . S
O400 Eu356 2.462 . S
O400 C420 1.252 . S
O401 Eu356 2.373 . S
O401 C412 1.249 . S
O402 Eu367 2.335 . S
O402 C412 1.264 . S
O403 Eu356 2.432 . S
O403 C420 1.268 . S
O404 Eu356 2.291 . S
O404 C419 1.255 . S
O405 Eu367 2.372 . S
O405 C419 1.257 . S
O406 Eu367 2.462 . S
O406 C431 1.252 . S
O407 Eu367 2.373 . S
O407 C423 1.249 . S
O408 Eu356 2.335 . S
O408 C423 1.264 . S
O409 Eu367 2.432 . S
O409 C431 1.268 . S
O410 Eu367 2.291 . S
O410 C430 1.255 . S
O411 Eu356 2.372 . S
O411 C430 1.257 . S
C412 O401 1.249 . S
C412 O402 1.264 . S
C413 C416 1.382 . S
C413 C418 1.390 . S
C413 C420 1.506 . S
C414 C415 1.398 . S
C414 C418 1.392 . S
C415 C414 1.398 . S
C415 C417 1.372 . S
C415 H432 0.931 . S
C416 C413 1.382 . S
C416 C417 1.390 . S
C416 H433 0.931 . S
C417 C415 1.372 . S
C417 C416 1.390 . S
C417 H434 0.929 . S
C418 C413 1.390 . S
C418 C414 1.392 . S
C418 H435 0.930 . S
C419 O404 1.255 . S
C419 O405 1.257 . S
C420 Eu356 2.787 . S
C420 O400 1.252 . S
C420 O403 1.268 . S
C420 C413 1.506 . S
C421 C388 1.439 . S
C421 H398 0.931 . S
C421 C422 1.374 . S
C422 C393 1.387 . S
C422 H399 0.931 . S
C422 C421 1.374 . S
C423 O407 1.249 . S
C423 O408 1.264 . S
C424 C427 1.382 . S
C424 C428 1.390 . S
C424 C431 1.506 . S
C425 C426 1.398 . S
C425 C428 1.392 . S
C426 C425 1.398 . S
C426 C429 1.372 . S
C426 H436 0.931 . S
C427 C424 1.382 . S
C427 C429 1.390 . S
C427 H437 0.931 . S
C428 C424 1.390 . S
C428 C425 1.392 . S
C428 H438 0.930 . S
C429 C426 1.372 . S
C429 C427 1.390 . S
C429 H439 0.929 . S
C430 O410 1.255 . S
C430 O411 1.257 . S
C431 Eu367 2.787 . S
C431 O406 1.252 . S
C431 O409 1.268 . S
C431 C424 1.506 . S
H432 C415 0.931 . S
H433 C416 0.931 . S
H434 C417 0.929 . S
H435 C418 0.930 . S
H436 C426 0.931 . S
H437 C427 0.931 . S
H438 C428 0.930 . S
H439 C429 0.929 . S
C440 C441 1.369 . S
C440 C442 1.419 1_565 S
C440 H444 0.930 . S
C441 C440 1.369 . S
C441 C450 1.429 . S
C442 C440 1.419 1_545 S
C442 C443 1.363 1_545 S
C442 H445 0.929 . S
C443 C442 1.363 1_565 S
C443 C449 1.428 . S
H444 C440 0.930 . S
H445 C442 0.929 . S
S446 N447 1.613 . S
S446 N448 1.610 . S
N447 S446 1.613 . S
N447 C450 1.350 . S
N448 S446 1.610 . S
N448 C449 1.351 . S
C449 C443 1.428 . S
C449 N448 1.351 . S
C449 C450 1.434 . S
C450 C441 1.429 . S
C450 N447 1.350 . S
C450 C449 1.434 . S
C451 C452 1.369 . S
C451 C453 1.419 . S
C451 H455 0.930 . S
C452 C451 1.369 . S
C452 C461 1.429 . S
C453 C451 1.419 . S
C453 C454 1.363 . S
C453 H456 0.929 . S
C454 C453 1.363 . S
C454 C460 1.428 . S
H455 C451 0.930 . S
H456 C453 0.929 . S
S457 N458 1.613 . S
S457 N459 1.610 . S
N458 S457 1.613 . S
N458 C461 1.350 . S
N459 S457 1.610 . S
N459 C460 1.351 . S
C460 C454 1.428 . S
C460 N459 1.351 . S
C460 C461 1.434 . S
C461 C452 1.429 . S
C461 N458 1.350 . S
C461 C460 1.434 . S
C462 C463 1.369 . S
C462 C464 1.419 . S
C462 H466 0.930 . S
C463 C462 1.369 . S
C463 C472 1.429 . S
C464 C462 1.419 . S
C464 C465 1.363 . S
C464 H467 0.929 . S
C465 C464 1.363 . S
C465 C471 1.428 . S
H466 C462 0.930 . S
H467 C464 0.929 . S
S468 N469 1.613 . S
S468 N470 1.610 . S
N469 S468 1.613 . S
N469 C472 1.350 . S
N470 S468 1.610 . S
N470 C471 1.351 . S
C471 C465 1.428 . S
C471 N470 1.351 . S
C471 C472 1.434 . S
C472 C463 1.429 . S
C472 N469 1.350 . S
C472 C471 1.434 . S
C473 C474 1.369 . S
C473 C475 1.419 . S
C473 H477 0.930 . S
C474 C473 1.369 . S
C474 C483 1.429 . S
C475 C473 1.419 . S
C475 C476 1.363 . S
C475 H478 0.929 1_565 S
C476 C475 1.363 . S
C476 C482 1.428 . S
H477 C473 0.930 . S
H478 C475 0.929 1_545 S
S479 N480 1.606 1_455 S
S479 N481 1.610 1_455 S
N480 S479 1.606 1_655 S
N480 C483 1.350 . S
N481 S479 1.610 1_655 S
N481 C482 1.351 . S
C482 C476 1.428 . S
C482 N481 1.351 . S
C482 C483 1.434 . S
C483 C474 1.429 . S
C483 N480 1.350 . S
C483 C482 1.434 . S
C484 C485 1.369 . S
C484 C486 1.419 . S
C484 H488 0.930 . S
C485 C484 1.369 . S
C485 C494 1.429 . S
C486 C484 1.419 . S
C486 C487 1.363 . S
C486 H489 0.929 . S
C487 C486 1.363 . S
C487 C493 1.428 . S
H488 C484 0.930 . S
H489 C486 0.929 . S
S490 N491 1.613 1_565 S
S490 N492 1.610 . S
N491 S490 1.613 1_545 S
N491 C494 1.350 . S
N492 S490 1.610 . S
N492 C493 1.351 1_565 S
C493 C487 1.428 . S
C493 N492 1.351 1_545 S
C493 C494 1.434 . S
C494 C485 1.429 . S
C494 N491 1.350 . S
C494 C493 1.434 . S
C495 C496 1.369 . S
C495 C497 1.419 . S
C495 H499 0.930 . S
C496 C495 1.369 . S
C496 C505 1.429 . S
C497 C495 1.419 . S
C497 C498 1.363 . S
C497 H500 0.929 . S
C498 C497 1.363 . S
C498 C504 1.428 . S
H499 C495 0.930 . S
H500 C497 0.929 . S
S501 N502 1.613 . S
S501 N503 1.610 . S
N502 S501 1.613 . S
N502 C505 1.350 . S
N503 S501 1.610 . S
N503 C504 1.351 . S
C504 C498 1.428 . S
C504 N503 1.351 . S
C504 C505 1.434 . S
C505 C496 1.429 . S
C505 N502 1.350 . S
C505 C504 1.434 . S
C506 C507 1.369 . S
C506 C508 1.419 . S
C506 H510 0.930 . S
C507 C506 1.369 . S
C507 C516 1.429 . S
C508 C506 1.419 . S
C508 C509 1.363 . S
C508 H511 0.929 . S
C509 C508 1.363 . S
C509 C515 1.428 . S
H510 C506 0.930 . S
H511 C508 0.929 . S
S512 N513 1.613 . S
S512 N514 1.610 . S
N513 S512 1.613 . S
N513 C516 1.350 . S
N514 S512 1.610 . S
N514 C515 1.351 . S
C515 C509 1.428 . S
C515 N514 1.351 . S
C515 C516 1.434 . S
C516 C507 1.429 . S
C516 N513 1.350 . S
C516 C515 1.434 . S
C517 C518 1.369 . S
C517 C519 1.419 . S
C517 H521 0.930 . S
C518 C517 1.369 . S
C518 C527 1.429 . S
C519 C517 1.419 . S
C519 C520 1.363 . S
C519 H522 0.929 1_545 S
C520 C519 1.363 . S
C520 C526 1.428 . S
H521 C517 0.930 . S
H522 C519 0.929 1_565 S
S523 N524 1.613 1_655 S
S523 N525 1.610 1_655 S
N524 S523 1.613 1_455 S
N524 C527 1.350 . S
N525 S523 1.610 1_455 S
N525 C526 1.351 . S
C526 C520 1.428 . S
C526 N525 1.351 . S
C526 C527 1.434 . S
C527 C518 1.429 . S
C527 N524 1.350 . S
C527 C526 1.434 . S
C528 C529 1.369 . S
C528 C530 1.419 . S
C528 H532 0.930 . S
C529 C528 1.369 . S
C529 C538 1.429 . S
C530 C528 1.419 . S
C530 C531 1.363 1_556 S
C530 H533 0.929 1_556 S
C531 C530 1.363 1_554 S
C531 C537 1.428 1_554 S
H532 C528 0.930 . S
H533 C530 0.929 1_554 S
S534 N535 1.613 1_565 S
S534 N536 1.610 1_566 S
N535 S534 1.613 1_545 S
N535 C538 1.350 . S
N536 S534 1.610 1_544 S
N536 C537 1.351 1_554 S
C537 C531 1.428 1_556 S
C537 N536 1.351 1_556 S
C537 C538 1.434 . S
C538 C529 1.429 . S
C538 N535 1.350 . S
C538 C537 1.434 . S
C539 C540 1.369 . S
C539 C541 1.419 . S
C539 H543 0.930 . S
C540 C539 1.369 . S
C540 C549 1.429 . S
C541 C539 1.419 . S
C541 C542 1.363 . S
C541 H544 0.929 . S
C542 C541 1.363 . S
C542 C548 1.428 . S
H543 C539 0.930 . S
H544 C541 0.929 . S
S545 N546 1.613 . S
S545 N547 1.610 . S
N546 S545 1.613 . S
N546 C549 1.350 . S
N547 S545 1.610 . S
N547 C548 1.351 . S
C548 C542 1.428 . S
C548 N547 1.351 . S
C548 C549 1.434 . S
C549 C540 1.429 . S
C549 N546 1.350 . S
C549 C548 1.434 . S
C550 C551 1.369 . S
C550 C552 1.437 . S
C550 H554 0.930 . S
C551 C550 1.369 . S
C551 C560 1.429 . S
C552 C550 1.437 . S
C552 C553 1.358 1_554 S
C552 H555 0.916 1_554 S
C553 C552 1.358 1_556 S
C553 C559 1.428 1_556 S
H554 C550 0.930 . S
H555 C552 0.916 1_556 S
S556 N557 1.613 . S
S556 N558 1.610 . S
N557 S556 1.613 . S
N557 C560 1.350 . S
N558 S556 1.610 . S
N558 C559 1.351 . S
C559 C553 1.428 1_554 S
C559 N558 1.351 . S
C559 C560 1.434 . S
C560 C551 1.429 . S
C560 N557 1.350 . S
C560 C559 1.434 . S
C561 C562 1.369 . S
C561 C563 1.419 . S
C561 H565 0.930 . S
C562 C561 1.369 . S
C562 C571 1.429 . S
C563 C561 1.419 . S
C563 C564 1.363 . S
C563 H566 0.929 . S
C564 C563 1.363 . S
C564 C570 1.428 . S
H565 C561 0.930 . S
H566 C563 0.929 . S
S567 N568 1.613 . S
S567 N569 1.610 . S
N568 S567 1.613 . S
N568 C571 1.350 . S
N569 S567 1.610 . S
N569 C570 1.351 . S
C570 C564 1.428 . S
C570 N569 1.351 . S
C570 C571 1.434 . S
C571 C562 1.429 . S
C571 N568 1.350 . S
C571 C570 1.434 . S
C572 C573 1.369 . S
C572 C574 1.419 . S
C572 H576 0.930 . S
C573 C572 1.369 . S
C573 C582 1.429 . S
C574 C572 1.419 . S
C574 C575 1.363 1_554 S
C574 H577 0.929 . S
C575 C574 1.363 1_556 S
C575 C581 1.428 . S
H576 C572 0.930 . S
H577 C574 0.929 . S
S578 N579 1.613 1_556 S
S578 N580 1.610 . S
N579 S578 1.613 1_554 S
N579 C582 1.350 . S
N580 S578 1.610 . S
N580 C581 1.351 . S
C581 C575 1.428 . S
C581 N580 1.351 . S
C581 C582 1.434 1_556 S
C582 C573 1.429 . S
C582 N579 1.350 . S
C582 C581 1.434 1_554 S
C583 C584 1.369 . S
C583 C585 1.419 . S
C583 H587 0.930 . S
C584 C583 1.369 . S
C584 C593 1.429 . S
C585 C583 1.419 . S
C585 C586 1.363 . S
C585 H588 0.929 . S
C586 C585 1.363 . S
C586 C592 1.428 . S
H587 C583 0.930 . S
H588 C585 0.929 . S
S589 N590 1.613 . S
S589 N591 1.610 . S
N590 S589 1.613 . S
N590 C593 1.350 . S
N591 S589 1.610 . S
N591 C592 1.351 . S
C592 C586 1.428 . S
C592 N591 1.351 . S
C592 C593 1.434 . S
C593 C584 1.429 . S
C593 N590 1.350 . S
C593 C592 1.434 . S
C594 C595 1.369 . S
C594 C596 1.419 . S
C594 H598 0.930 . S
C595 C594 1.369 . S
C595 C604 1.429 . S
C596 C594 1.419 . S
C596 C597 1.363 1_556 S
C596 H599 0.929 . S
C597 C596 1.363 1_554 S
C597 C603 1.428 . S
H598 C594 0.930 . S
H599 C596 0.929 . S
S600 N601 1.613 1_554 S
S600 N602 1.610 . S
N601 S600 1.613 1_556 S
N601 C604 1.350 . S
N602 S600 1.610 . S
N602 C603 1.351 . S
C603 C597 1.428 . S
C603 N602 1.351 . S
C603 C604 1.434 1_554 S
C604 C595 1.429 . S
C604 N601 1.350 . S
C604 C603 1.434 1_556 S
C605 C606 1.369 . S
C605 C607 1.419 . S
C605 H609 0.930 . S
C606 C605 1.369 . S
C606 C615 1.429 . S
C607 C605 1.419 . S
C607 C608 1.363 . S
C607 H610 0.929 . S
C608 C607 1.363 . S
C608 C614 1.428 . S
H609 C605 0.930 . S
H610 C607 0.929 . S
S611 N612 1.613 1_545 S
S611 N613 1.610 1_545 S
N612 S611 1.613 1_565 S
N612 C615 1.350 . S
N613 S611 1.610 1_565 S
N613 C614 1.351 . S
C614 C608 1.428 . S
C614 N613 1.351 . S
C614 C615 1.434 . S
C615 C606 1.429 . S
C615 N612 1.350 . S
C615 C614 1.434 . S
C616 C617 1.369 . S
C616 C618 1.419 . S
C616 H620 0.930 . S
C617 C616 1.369 . S
C617 C626 1.429 . S
C618 C616 1.419 . S
C618 C619 1.363 . S
C618 H621 0.929 . S
C619 C618 1.363 . S
C619 C625 1.428 . S
H620 C616 0.930 . S
H621 C618 0.929 . S
S622 N623 1.613 . S
S622 N624 1.610 . S
N623 S622 1.613 . S
N623 C626 1.350 . S
N624 S622 1.610 . S
N624 C625 1.351 . S
C625 C619 1.428 . S
C625 N624 1.351 . S
C625 C626 1.434 . S
C626 C617 1.429 . S
C626 N623 1.350 . S
C626 C625 1.434 . S
C627 C628 1.369 . S
C627 C629 1.419 . S
C627 H631 0.930 . S
C628 C627 1.369 . S
C628 C637 1.429 . S
C629 C627 1.419 . S
C629 C630 1.363 . S
C629 H632 0.929 . S
C630 C629 1.363 . S
C630 C636 1.428 . S
H631 C627 0.930 . S
H632 C629 0.929 . S
S633 N634 1.613 . S
S633 N635 1.610 . S
N634 S633 1.613 . S
N634 C637 1.350 . S
N635 S633 1.610 . S
N635 C636 1.351 . S
C636 C630 1.428 . S
C636 N635 1.351 . S
C636 C637 1.434 . S
C637 C628 1.429 . S
C637 N634 1.350 . S
C637 C636 1.434 . S
C638 C639 1.369 . S
C638 C640 1.419 . S
C638 H642 0.930 . S
C639 C638 1.369 . S
C639 C648 1.429 . S
C640 C638 1.419 . S
C640 C641 1.363 . S
C640 H643 0.929 . S
C641 C640 1.363 . S
C641 C647 1.428 . S
H642 C638 0.930 . S
H643 C640 0.929 . S
S644 N645 1.613 . S
S644 N646 1.610 . S
N645 S644 1.613 . S
N645 C648 1.350 . S
N646 S644 1.610 . S
N646 C647 1.351 . S
C647 C641 1.428 . S
C647 N646 1.351 . S
C647 C648 1.434 . S
C648 C639 1.429 . S
C648 N645 1.350 . S
C648 C647 1.434 . S
C649 C650 1.369 . S
C649 C651 1.419 . S
C649 H653 0.930 . S
C650 C649 1.369 . S
C650 C659 1.429 . S
C651 C649 1.419 . S
C651 C652 1.363 . S
C651 H654 0.929 . S
C652 C651 1.363 . S
C652 C658 1.428 . S
H653 C649 0.930 . S
H654 C651 0.929 . S
S655 N656 1.613 . S
S655 N657 1.610 . S
N656 S655 1.613 . S
N656 C659 1.350 . S
N657 S655 1.610 . S
N657 C658 1.351 . S
C658 C652 1.428 . S
C658 N657 1.351 . S
C658 C659 1.434 . S
C659 C650 1.429 . S
C659 N656 1.350 . S
C659 C658 1.434 . S
C660 C661 1.369 . S
C660 C662 1.419 . S
C660 H664 0.930 . S
C661 C660 1.369 . S
C661 C670 1.429 . S
C662 C660 1.419 . S
C662 C663 1.363 . S
C662 H665 0.929 . S
C663 C662 1.363 . S
C663 C669 1.428 . S
H664 C660 0.930 . S
H665 C662 0.929 . S
S666 N667 1.613 . S
S666 N668 1.610 . S
N667 S666 1.613 . S
N667 C670 1.350 . S
N668 S666 1.610 . S
N668 C669 1.351 . S
C669 C663 1.428 . S
C669 N668 1.351 . S
C669 C670 1.434 . S
C670 C661 1.429 . S
C670 N667 1.350 . S
C670 C669 1.434 . S
C671 C672 1.369 . S
C671 C673 1.419 . S
C671 H675 0.930 . S
C672 C671 1.369 . S
C672 C681 1.429 . S
C673 C671 1.419 . S
C673 C674 1.363 . S
C673 H676 0.929 . S
C674 C673 1.363 . S
C674 C680 1.428 . S
H675 C671 0.930 . S
H676 C673 0.929 . S
S677 N678 1.613 . S
S677 N679 1.610 . S
N678 S677 1.613 . S
N678 C681 1.350 . S
N679 S677 1.610 . S
N679 C680 1.351 . S
C680 C674 1.428 . S
C680 N679 1.351 . S
C680 C681 1.434 . S
C681 C672 1.429 . S
C681 N678 1.350 . S
C681 C680 1.434 . S
C682 C683 1.369 . S
C682 C684 1.419 . S
C682 H686 0.930 . S
C683 C682 1.369 . S
C683 C692 1.429 . S
C684 C682 1.419 . S
C684 C685 1.363 . S
C684 H687 0.929 . S
C685 C684 1.363 . S
C685 C691 1.428 . S
H686 C682 0.930 . S
H687 C684 0.929 . S
S688 N689 1.613 . S
S688 N690 1.610 . S
N689 S688 1.613 . S
N689 C692 1.350 . S
N690 S688 1.610 . S
N690 C691 1.351 . S
C691 C685 1.428 . S
C691 N690 1.351 . S
C691 C692 1.434 . S
C692 C683 1.429 . S
C692 N689 1.350 . S
C692 C691 1.434 . S
C693 C694 1.369 . S
C693 C695 1.419 . S
C693 H697 0.930 . S
C694 C693 1.369 . S
C694 C703 1.429 . S
C695 C693 1.419 . S
C695 C696 1.363 . S
C695 H698 0.929 . S
C696 C695 1.363 . S
C696 C702 1.428 . S
H697 C693 0.930 . S
H698 C695 0.929 . S
S699 N700 1.613 1_655 S
S699 N701 1.610 1_655 S
N700 S699 1.613 1_455 S
N700 C703 1.350 . S
N701 S699 1.610 1_455 S
N701 C702 1.351 . S
C702 C696 1.428 . S
C702 N701 1.351 . S
C702 C703 1.434 . S
C703 C694 1.429 . S
C703 N700 1.350 . S
C703 C702 1.434 . S
C441 N83 1.623 . S
C443 C178 1.629 1_565 S
C454 C262 1.631 . S
C452 N96 1.628 . S
C465 C255 1.638 . S
C463 N57 1.617 . S
C474 N70 1.618 . S
C476 C171 1.639 1_565 S
C487 C335 1.632 1_545 S
C485 N31 1.630 . S
C498 C419 1.629 . S
C496 N44 1.626 . S
C507 N5 1.620 . S
C509 C412 1.637 . S
C518 N18 1.623 . S
C520 C328 1.638 1_545 S
C531 C162 1.446 . S
C529 N14 1.624 . S
C542 C246 1.448 . S
C540 N1 1.623 . S
C553 C257 1.358 . S
C551 N40 1.616 . S
C564 C173 1.349 . S
C562 N27 1.615 . S
C575 C341 1.450 . S
C573 N66 1.613 . S
C584 N53 1.613 . S
C586 C425 1.455 . S
C597 C414 1.346 . S
C595 N92 1.608 . S
C606 N79 1.609 . S
C608 C330 1.353 . S
C619 C160 1.525 . S
C617 N2 1.523 . S
C630 C244 1.524 . S
C628 N15 1.522 . S
C639 N28 1.520 . S
C641 C251 1.497 . S
C652 C167 1.493 . S
C650 N41 1.520 . S
C663 C339 1.524 . S
C661 N54 1.515 . S
C672 N67 1.516 . S
C674 C423 1.523 . S
C683 N80 1.515 . S
C685 C430 1.494 . S
C694 N93 1.517 . S
C696 C346 1.497 . S
