# Generated by pormake.
# Topology pyr, (3,6)-cn, num edge types: 1
# Building blocks:
#     Node 0, Type 0, BuildingBlock: MIDCAF_clean_linker_0, # of connection points: 3
#     Node 1, Type 0, BuildingBlock: MIDCAF_clean_linker_0, # of connection points: 3
#     Node 2, Type 0, BuildingBlock: MIDCAF_clean_linker_0, # of connection points: 3
#     Node 3, Type 0, BuildingBlock: MIDCAF_clean_linker_0, # of connection points: 3
#     Node 4, Type 0, BuildingBlock: MIDCAF_clean_linker_0, # of connection points: 3
#     Node 5, Type 0, BuildingBlock: MIDCAF_clean_linker_0, # of connection points: 3
#     Node 6, Type 0, BuildingBlock: MIDCAF_clean_linker_0, # of connection points: 3
#     Node 7, Type 0, BuildingBlock: MIDCAF_clean_linker_0, # of connection points: 3
#     Node 8, Type 1, BuildingBlock: PAMTUU_clean_sbu_0, # of connection points: 6
#     Node 9, Type 1, BuildingBlock: PAMTUU_clean_sbu_0, # of connection points: 6
#     Node 10, Type 1, BuildingBlock: PAMTUU_clean_sbu_0, # of connection points: 6
#     Node 11, Type 1, BuildingBlock: PAMTUU_clean_sbu_0, # of connection points: 6
#     Edge 12, Type (0, 1), BuildingBlock: TEMPAE_clean_linker_10, # of connection points: 2
#     Edge 13, Type (0, 1), BuildingBlock: TEMPAE_clean_linker_10, # of connection points: 2
#     Edge 14, Type (0, 1), BuildingBlock: TEMPAE_clean_linker_10, # of connection points: 2
#     Edge 15, Type (0, 1), BuildingBlock: TEMPAE_clean_linker_10, # of connection points: 2
#     Edge 16, Type (0, 1), BuildingBlock: TEMPAE_clean_linker_10, # of connection points: 2
#     Edge 17, Type (0, 1), BuildingBlock: TEMPAE_clean_linker_10, # of connection points: 2
#     Edge 18, Type (0, 1), BuildingBlock: TEMPAE_clean_linker_10, # of connection points: 2
#     Edge 19, Type (0, 1), BuildingBlock: TEMPAE_clean_linker_10, # of connection points: 2
#     Edge 20, Type (0, 1), BuildingBlock: TEMPAE_clean_linker_10, # of connection points: 2
#     Edge 21, Type (0, 1), BuildingBlock: TEMPAE_clean_linker_10, # of connection points: 2
#     Edge 22, Type (0, 1), BuildingBlock: TEMPAE_clean_linker_10, # of connection points: 2
#     Edge 23, Type (0, 1), BuildingBlock: TEMPAE_clean_linker_10, # of connection points: 2
#     Edge 24, Type (0, 1), BuildingBlock: TEMPAE_clean_linker_10, # of connection points: 2
#     Edge 25, Type (0, 1), BuildingBlock: TEMPAE_clean_linker_10, # of connection points: 2
#     Edge 26, Type (0, 1), BuildingBlock: TEMPAE_clean_linker_10, # of connection points: 2
#     Edge 27, Type (0, 1), BuildingBlock: TEMPAE_clean_linker_10, # of connection points: 2
#     Edge 28, Type (0, 1), BuildingBlock: TEMPAE_clean_linker_10, # of connection points: 2
#     Edge 29, Type (0, 1), BuildingBlock: TEMPAE_clean_linker_10, # of connection points: 2
#     Edge 30, Type (0, 1), BuildingBlock: TEMPAE_clean_linker_10, # of connection points: 2
#     Edge 31, Type (0, 1), BuildingBlock: TEMPAE_clean_linker_10, # of connection points: 2
#     Edge 32, Type (0, 1), BuildingBlock: TEMPAE_clean_linker_10, # of connection points: 2
#     Edge 33, Type (0, 1), BuildingBlock: TEMPAE_clean_linker_10, # of connection points: 2
#     Edge 34, Type (0, 1), BuildingBlock: TEMPAE_clean_linker_10, # of connection points: 2
#     Edge 35, Type (0, 1), BuildingBlock: TEMPAE_clean_linker_10, # of connection points: 2
# Relax obj value: 0.086
# Max RMSD: 0.124
# Mean RMSD: 0.052
data_MOF--net-pyr--node1-PAMTUU_clean_sbu_0--node2-MIDCAF_clean_linker_0--edge1-TEMPAE_clean_linker_10
_symmetry_space_group_name_H-M    P1
_symmetry_Int_Tables_number       1
_symmetry_cell_setting            triclinic
loop_
_symmetry_equiv_pos_as_xyz
'x, y, z'
_cell_length_a     46.759202
_cell_length_b     47.89109
_cell_length_c     46.599172
_cell_angle_alpha  90.051846
_cell_angle_beta   89.317867
_cell_angle_gamma 99.898029
loop_
_atom_site_label
_atom_site_type_symbol
_atom_site_fract_x
_atom_site_fract_y
_atom_site_fract_z
_atom_type_partial_charge
C0 C 0.29422 0.25548 0.32332 0.0
C1 C 0.30443 0.23192 0.33466 0.0
C2 C 0.32881 0.22326 0.32183 0.0
C3 C 0.34106 0.23624 0.29668 0.0
H4 H 0.4053 0.23489 0.22989 0.0
H5 H 0.4323 0.20312 0.204 0.0
H6 H 0.38343 0.21238 0.12768 0.0
H7 H 0.35666 0.2445 0.15325 0.0
H8 H 0.30944 0.28582 0.15514 0.0
H9 H 0.27283 0.30878 0.13263 0.0
H10 H 0.26376 0.355 0.21103 0.0
H11 H 0.29935 0.33104 0.23386 0.0
H12 H 0.29684 0.28544 0.28908 0.0
H13 H 0.27542 0.26261 0.33268 0.0
H14 H 0.33747 0.20547 0.33043 0.0
H15 H 0.35877 0.22793 0.2865 0.0
N16 N 0.35619 0.25411 0.23874 0.0
N17 N 0.3446 0.27596 0.1964 0.0
N18 N 0.32218 0.28469 0.24 0.0
C19 C 0.36019 0.25861 0.21009 0.0
C20 C 0.32588 0.28942 0.21136 0.0
C21 C 0.33717 0.26702 0.25388 0.0
C22 C 0.37877 0.2421 0.19364 0.0
C23 C 0.40058 0.23046 0.20747 0.0
C24 C 0.4161 0.21239 0.19269 0.0
C25 C 0.40972 0.20525 0.16399 0.0
C26 C 0.38855 0.21749 0.14989 0.0
C27 C 0.3734 0.23597 0.16449 0.0
C28 C 0.30704 0.30639 0.19637 0.0
C29 C 0.2999 0.30118 0.16743 0.0
C30 C 0.27894 0.31444 0.15449 0.0
C31 C 0.26498 0.33349 0.17011 0.0
C32 C 0.27344 0.33987 0.19857 0.0
C33 C 0.29402 0.3263 0.21162 0.0
C34 C 0.32908 0.25807 0.28378 0.0
C35 C 0.30644 0.26846 0.29816 0.0
C36 C 0.11537 0.83402 0.69509 0.0
C37 C 0.1215 0.84068 0.6661 0.0
C38 C 0.14287 0.82853 0.65169 0.0
C39 C 0.15839 0.81054 0.66621 0.0
H40 H 0.22114 0.75804 0.65573 0.0
H41 H 0.25757 0.73398 0.6332 0.0
H42 H 0.2688 0.6927 0.71371 0.0
H43 H 0.23323 0.71736 0.73636 0.0
H44 H 0.23579 0.76316 0.78899 0.0
H45 H 0.25644 0.78553 0.83241 0.0
H46 H 0.19189 0.84017 0.8334 0.0
H47 H 0.17164 0.81837 0.78918 0.0
H48 H 0.12663 0.81235 0.73235 0.0
H49 H 0.09903 0.84322 0.70665 0.0
H50 H 0.14782 0.83325 0.62926 0.0
H51 H 0.17521 0.80202 0.65469 0.0
N52 N 0.18739 0.77096 0.69801 0.0
N53 N 0.20949 0.7626 0.74133 0.0
N54 N 0.17579 0.79345 0.74036 0.0
C55 C 0.20593 0.75753 0.71283 0.0
C56 C 0.19462 0.78055 0.75529 0.0
C57 C 0.17189 0.78864 0.71181 0.0
C58 C 0.22457 0.7399 0.69792 0.0
C59 C 0.23109 0.74351 0.66849 0.0
C60 C 0.25195 0.72967 0.65556 0.0
C61 C 0.26648 0.71176 0.67177 0.0
C62 C 0.25862 0.70693 0.70078 0.0
C63 C 0.23807 0.72095 0.71373 0.0
C64 C 0.20248 0.78943 0.78509 0.0
C65 C 0.22553 0.77954 0.79868 0.0
C66 C 0.23729 0.79226 0.82383 0.0
C67 C 0.22615 0.81501 0.83616 0.0
C68 C 0.20139 0.82312 0.82407 0.0
C69 C 0.1897 0.8105 0.79876 0.0
C70 C 0.15318 0.80483 0.69557 0.0
C71 C 0.13124 0.81646 0.70977 0.0
C72 C 0.65099 0.26476 0.89615 0.0
C73 C 0.62202 0.25239 0.89084 0.0
C74 C 0.60578 0.26721 0.87269 0.0
C75 C 0.61826 0.29347 0.86022 0.0
H76 H 0.61098 0.35522 0.79244 0.0
H77 H 0.59172 0.37714 0.75119 0.0
H78 H 0.66614 0.44431 0.75162 0.0
H79 H 0.68552 0.42233 0.79255 0.0
H80 H 0.7266 0.43015 0.85404 0.0
H81 H 0.77084 0.45232 0.87876 0.0
H82 H 0.77908 0.37138 0.91523 0.0
H83 H 0.7352 0.34935 0.89089 0.0
H84 H 0.68562 0.29956 0.88909 0.0
H85 H 0.66419 0.25439 0.91022 0.0
H86 H 0.58346 0.25838 0.86787 0.0
H87 H 0.60507 0.30419 0.84648 0.0
N88 N 0.64915 0.34715 0.83182 0.0
N89 N 0.6875 0.38623 0.83401 0.0
N90 N 0.686 0.34805 0.8658 0.0
C91 C 0.66239 0.37306 0.82144 0.0
C92 C 0.69947 0.37385 0.85625 0.0
C93 C 0.66092 0.33445 0.85406 0.0
C94 C 0.65 0.38677 0.79622 0.0
C95 C 0.62332 0.37468 0.78384 0.0
C96 C 0.61211 0.38744 0.7601 0.0
C97 C 0.62722 0.41269 0.74764 0.0
C98 C 0.65387 0.42475 0.76008 0.0
C99 C 0.66498 0.41212 0.78389 0.0
C100 C 0.72705 0.38785 0.87033 0.0
C101 C 0.73789 0.41705 0.86723 0.0
C102 C 0.76321 0.42982 0.88159 0.0
C103 C 0.77873 0.4137 0.89906 0.0
C104 C 0.76803 0.38451 0.90181 0.0
C105 C 0.74261 0.37187 0.88787 0.0
C106 C 0.64721 0.30591 0.8659 0.0
C107 C 0.66328 0.29099 0.88406 0.0
C108 C 0.77565 0.65088 0.41172 0.0
C109 C 0.75865 0.62647 0.40013 0.0
C110 C 0.7675 0.61626 0.37366 0.0
C111 C 0.7927 0.63001 0.35933 0.0
H112 H 0.85539 0.619 0.29632 0.0
H113 H 0.8746 0.59784 0.25445 0.0
H114 H 0.93475 0.6756 0.23901 0.0
H115 H 0.91611 0.69649 0.28161 0.0
H116 H 0.9289 0.74071 0.34253 0.0
H117 H 0.95061 0.78639 0.3636 0.0
H118 H 0.87087 0.78916 0.41018 0.0
H119 H 0.84933 0.74394 0.38946 0.0
H120 H 0.81286 0.6835 0.4071 0.0
H121 H 0.76941 0.65965 0.43181 0.0
H122 H 0.75511 0.59742 0.36414 0.0
H123 H 0.79879 0.62148 0.33907 0.0
N124 N 0.84763 0.6585 0.33227 0.0
N125 N 0.88495 0.69835 0.32902 0.0
N126 N 0.84946 0.69552 0.36549 0.0
C127 C 0.87199 0.67253 0.31867 0.0
C128 C 0.87372 0.71003 0.35247 0.0
C129 C 0.83623 0.66981 0.35575 0.0
C130 C 0.88406 0.65963 0.29267 0.0
C131 C 0.87274 0.63171 0.2841 0.0
C132 C 0.88371 0.61954 0.25975 0.0
C133 C 0.90631 0.63484 0.24284 0.0
C134 C 0.91767 0.66279 0.25146 0.0
C135 C 0.9068 0.67493 0.27596 0.0
C136 C 0.88728 0.73839 0.3642 0.0
C137 C 0.91596 0.75112 0.35716 0.0
C138 C 0.92848 0.77727 0.36939 0.0
C139 C 0.91251 0.79162 0.3886 0.0
C140 C 0.88378 0.77901 0.39528 0.0
C141 C 0.87146 0.75283 0.38344 0.0
C142 C 0.80959 0.65455 0.37091 0.0
C143 C 0.8006 0.66472 0.39734 0.0
C144 C 0.61537 0.82134 0.85885 0.0
C145 C 0.61816 0.82537 0.88863 0.0
C146 C 0.63618 0.80999 0.90379 0.0
C147 C 0.65226 0.7922 0.88924 0.0
H148 H 0.70953 0.73481 0.90033 0.0
H149 H 0.74621 0.71304 0.92492 0.0
H150 H 0.78461 0.69711 0.84318 0.0
H151 H 0.74833 0.71846 0.81858 0.0
H152 H 0.74019 0.75409 0.76636 0.0
H153 H 0.76367 0.77915 0.72479 0.0
H154 H 0.70148 0.83617 0.72723 0.0
H155 H 0.67816 0.8115 0.76925 0.0
H156 H 0.62959 0.80196 0.82122 0.0
H157 H 0.60115 0.83233 0.84663 0.0
H158 H 0.63898 0.81273 0.92671 0.0
H159 H 0.66689 0.78165 0.90138 0.0
N160 N 0.68655 0.75714 0.85683 0.0
N161 N 0.71268 0.7525 0.81435 0.0
N162 N 0.67713 0.78131 0.8151 0.0
C163 C 0.70716 0.74565 0.84237 0.0
C164 C 0.69784 0.77026 0.80051 0.0
C165 C 0.67116 0.77472 0.84314 0.0
C166 C 0.72621 0.72884 0.85747 0.0
C167 C 0.72549 0.72624 0.88757 0.0
C168 C 0.74644 0.71379 0.90168 0.0
C169 C 0.76846 0.70392 0.88591 0.0
C170 C 0.76817 0.70508 0.85585 0.0
C171 C 0.74727 0.71728 0.84179 0.0
C172 C 0.70766 0.78116 0.77164 0.0
C173 C 0.73107 0.7716 0.75776 0.0
C174 C 0.74447 0.78586 0.73375 0.0
C175 C 0.73472 0.80993 0.72306 0.0
C176 C 0.7098 0.818 0.73538 0.0
C177 C 0.69637 0.80374 0.7594 0.0
C178 C 0.6508 0.78963 0.85921 0.0
C179 C 0.63157 0.80379 0.84431 0.0
C180 C 0.8168 0.22156 0.23219 0.0
C181 C 0.79625 0.23518 0.21863 0.0
C182 C 0.79295 0.26237 0.22797 0.0
C183 C 0.80792 0.27454 0.25189 0.0
H184 H 0.78997 0.32398 0.31666 0.0
H185 H 0.755 0.34631 0.34309 0.0
H186 H 0.79268 0.32659 0.42304 0.0
H187 H 0.82803 0.30383 0.39661 0.0
H188 H 0.86963 0.25678 0.39513 0.0
H189 H 0.89786 0.22585 0.41936 0.0
H190 H 0.93216 0.20353 0.33756 0.0
H191 H 0.9032 0.23371 0.31326 0.0
H192 H 0.84629 0.22195 0.26694 0.0
H193 H 0.81978 0.20052 0.2257 0.0
H194 H 0.77779 0.27371 0.21757 0.0
H195 H 0.80369 0.29487 0.25943 0.0
N196 N 0.82356 0.28803 0.31036 0.0
N197 N 0.8496 0.28145 0.35173 0.0
N198 N 0.85727 0.25721 0.30924 0.0
C199 C 0.82958 0.29418 0.3383 0.0
C200 C 0.86383 0.26321 0.33717 0.0
C201 C 0.83722 0.26964 0.29564 0.0
C202 C 0.81159 0.31163 0.35449 0.0
C203 C 0.79117 0.32454 0.33986 0.0
C204 C 0.77101 0.33731 0.35496 0.0
C205 C 0.77086 0.33769 0.38506 0.0
C206 C 0.79235 0.32647 0.3998 0.0
C207 C 0.81254 0.31346 0.38464 0.0
C208 C 0.88387 0.24749 0.35221 0.0
C209 C 0.88348 0.24558 0.38232 0.0
C210 C 0.89979 0.22789 0.39625 0.0
C211 C 0.91708 0.21194 0.3804 0.0
C212 C 0.91858 0.21501 0.35039 0.0
C213 C 0.90207 0.23245 0.33646 0.0
C214 C 0.82666 0.25986 0.26689 0.0
C215 C 0.83196 0.23383 0.25599 0.0
C216 C 0.26554 0.61266 0.18064 0.0
C217 C 0.25688 0.62257 0.15414 0.0
C218 C 0.27413 0.64683 0.14211 0.0
C219 C 0.29905 0.66074 0.15602 0.0
H220 H 0.34498 0.74499 0.17208 0.0
H221 H 0.36614 0.79011 0.14981 0.0
H222 H 0.45155 0.7771 0.17404 0.0
H223 H 0.43022 0.73202 0.19727 0.0
H224 H 0.41582 0.69301 0.26815 0.0
H225 H 0.43481 0.67276 0.31043 0.0
H226 H 0.37392 0.59513 0.29828 0.0
H227 H 0.35434 0.61575 0.25672 0.0
H228 H 0.29667 0.61811 0.21473 0.0
H229 H 0.25301 0.59397 0.19055 0.0
H230 H 0.26812 0.65543 0.12202 0.0
H231 H 0.31145 0.67937 0.14585 0.0
N232 N 0.34785 0.6919 0.18678 0.0
N233 N 0.38393 0.69466 0.22186 0.0
N234 N 0.34637 0.65492 0.22006 0.0
C235 C 0.37237 0.70635 0.19886 0.0
C236 C 0.37098 0.66893 0.23281 0.0
C237 C 0.33468 0.66619 0.19693 0.0
C238 C 0.38582 0.73469 0.18662 0.0
C239 C 0.36828 0.75174 0.17293 0.0
C240 C 0.38041 0.77774 0.16017 0.0
C241 C 0.41058 0.78732 0.16001 0.0
C242 C 0.42824 0.77034 0.17365 0.0
C243 C 0.41599 0.74457 0.18713 0.0
C244 C 0.38333 0.65624 0.25866 0.0
C245 C 0.40641 0.6716 0.27443 0.0
C246 C 0.41751 0.65979 0.29879 0.0
C247 C 0.40612 0.63205 0.30833 0.0
C248 C 0.38315 0.61667 0.29236 0.0
C249 C 0.37195 0.62853 0.26813 0.0
C250 C 0.30789 0.65084 0.18243 0.0
C251 C 0.29075 0.62647 0.19448 0.0
C252 C 0.13873 0.27432 0.64084 0.0
C253 C 0.11635 0.25572 0.65481 0.0
C254 C 0.10693 0.26375 0.68203 0.0
C255 C 0.11951 0.28966 0.69474 0.0
H256 H 0.10846 0.35392 0.75922 0.0
H257 H 0.08985 0.37534 0.80169 0.0
H258 H 0.16735 0.43891 0.80315 0.0
H259 H 0.18606 0.41748 0.7611 0.0
H260 H 0.23923 0.41507 0.71406 0.0
H261 H 0.28391 0.43799 0.68963 0.0
H262 H 0.25784 0.39043 0.61286 0.0
H263 H 0.21356 0.36745 0.63707 0.0
H264 H 0.16861 0.31336 0.64182 0.0
H265 H 0.14698 0.26887 0.62014 0.0
H266 H 0.08961 0.25012 0.69341 0.0
H267 H 0.11173 0.29506 0.71566 0.0
N268 N 0.14631 0.34633 0.71836 0.0
N269 N 0.18522 0.38487 0.71681 0.0
N270 N 0.18124 0.34981 0.68131 0.0
C271 C 0.16043 0.37119 0.72994 0.0
C272 C 0.19572 0.37437 0.69241 0.0
C273 C 0.15671 0.33545 0.69396 0.0
C274 C 0.1489 0.38379 0.75642 0.0
C275 C 0.12164 0.37241 0.7686 0.0
C276 C 0.11082 0.38487 0.79296 0.0
C277 C 0.12699 0.409 0.80612 0.0
C278 C 0.15431 0.42021 0.79403 0.0
C279 C 0.16502 0.4079 0.76963 0.0
C280 C 0.22267 0.3893 0.67766 0.0
C281 C 0.24296 0.40958 0.69194 0.0
C282 C 0.26867 0.42261 0.67799 0.0
C283 C 0.27449 0.41609 0.64924 0.0
C284 C 0.25399 0.39616 0.63489 0.0
C285 C 0.22861 0.38284 0.64891 0.0
C286 C 0.14207 0.30814 0.68071 0.0
C287 C 0.15135 0.29996 0.65353 0.0
Tb288 Tb 0.04508 0.0258 0.50433 0.0
Tb289 Tb 0.98456 1.0195 0.54147 0.0
C290 C 0.99254 0.97592 0.4927 0.0
C291 C 0.11496 0.05541 0.46834 0.0
C292 C 0.15832 0.10044 0.45041 0.0
C293 C 0.16479 0.07306 0.45395 0.0
C294 C 0.14324 0.05071 0.46279 0.0
C295 C 0.10853 0.08285 0.46563 0.0
C296 C 0.13003 0.10519 0.45658 0.0
C297 C 0.09245 0.03147 0.47677 0.0
O298 O 0.0253 0.0613 0.49105 0.0
O299 O 0.97829 0.04181 0.50203 0.0
O300 O 1.00771 0.06179 0.55161 0.0
O301 O 0.05398 0.0549 0.54092 0.0
O302 O 0.93907 1.01277 0.54113 0.0
O303 O 0.9624 0.02063 0.58082 0.0
O304 O 0.01454 0.99977 0.56689 0.0
O305 O 0.04266 0.98777 0.52991 0.0
O306 O 0.01314 0.99508 0.48123 0.0
O307 O 0.98232 0.97933 0.51867 0.0
C308 C 0.99735 0.06088 0.4887 0.0
O309 O 0.09005 0.02609 0.50419 0.0
O310 O 0.0672 0.03035 0.46479 0.0
C311 C 0.03598 0.06965 0.55347 0.0
C312 C 0.91696 0.9904 0.58225 0.0
C313 C 0.87693 0.94559 0.60599 0.0
C314 C 0.8689 0.97215 0.60116 0.0
C315 C 0.88879 0.99437 0.5894 0.0
C316 C 0.92516 0.96394 0.58689 0.0
C317 C 0.90529 0.9417 0.59883 0.0
C318 C 0.93704 1.01378 0.56898 0.0
C319 C 0.03297 0.98452 0.55637 0.0
H320 H 0.1863 0.06872 0.44902 0.0
H321 H 0.14856 0.02967 0.4649 0.0
H322 H 0.08684 0.08692 0.47015 0.0
H323 H 0.12452 0.12613 0.45424 0.0
H324 H 0.84735 0.97588 0.60685 0.0
H325 H 0.88214 1.01466 0.58581 0.0
H326 H 0.94681 0.9605 0.58117 0.0
H327 H 0.91197 0.92139 0.60217 0.0
Tb328 Tb 0.54629 0.02248 0.04435 0.0
Tb329 Tb 0.48842 1.01585 1.00425 0.0
C330 C 0.53659 0.97977 0.99254 0.0
C331 C 0.61203 0.05144 0.08694 0.0
C332 C 0.65182 0.09533 0.11174 0.0
C333 C 0.65611 0.06702 0.11349 0.0
C334 C 0.63636 0.04529 0.1012 0.0
C335 C 0.60753 0.07959 0.08501 0.0
C336 C 0.62732 0.10142 0.09733 0.0
C337 C 0.59223 0.0283 0.07341 0.0
O338 O 0.5498 0.06271 1.02113 0.0
O339 O 0.52216 0.04643 0.98238 0.0
O340 O 0.48839 0.05341 0.03017 0.0
O341 O 0.51499 0.04243 0.06822 0.0
O342 O 0.46982 1.01081 0.96335 0.0
O343 O 0.44394 1.01677 1.00099 0.0
O344 O 0.47653 0.98525 0.03941 0.0
O345 O 0.52177 0.98092 0.05611 0.0
O346 O 0.55489 0.99895 1.00616 0.0
O347 O 0.50863 0.97989 0.99322 0.0
C348 C 0.54144 0.06603 0.99464 0.0
O349 O 0.56622 0.02212 0.08452 0.0
O350 O 0.59173 0.02894 0.0455 0.0
C351 C 0.49672 0.05708 0.05684 0.0
C352 C 0.42113 0.98753 0.9639 0.0
C353 C 0.37742 0.94423 0.94391 0.0
C354 C 0.38551 0.94499 0.97288 0.0
C355 C 0.40737 0.96639 0.98279 0.0
C356 C 0.41307 0.98672 0.93502 0.0
C357 C 0.39149 0.96523 0.92507 0.0
C358 C 0.44374 1.01072 0.97366 0.0
C359 C 0.49354 0.97196 0.05489 0.0
H360 H 0.67498 0.06169 0.12403 0.0
H361 H 0.64022 0.02366 0.10263 0.0
H362 H 0.58882 0.08463 0.07393 0.0
H363 H 0.6233 0.12297 0.09586 0.0
H364 H 0.37513 0.92892 0.98776 0.0
H365 H 0.4134 0.96642 1.00516 0.0
H366 H 0.4234 1.00284 0.92014 0.0
H367 H 0.38544 0.96531 0.90271 0.0
Tb368 Tb 0.51801 0.49306 0.50963 0.0
Tb369 Tb 0.51751 0.55189 0.54471 0.0
C370 C 0.48958 0.54324 0.48328 0.0
C371 C 0.54751 0.43435 0.47632 0.0
C372 C 0.59871 0.41315 0.46342 0.0
C373 C 0.57836 0.41523 0.44192 0.0
C374 C 0.55293 0.42565 0.44836 0.0
C375 C 0.56754 0.43175 0.49803 0.0
C376 C 0.59284 0.42097 0.49165 0.0
C377 C 0.52273 0.44895 0.48161 0.0
O378 O 0.56283 0.51538 0.50852 0.0
O379 O 0.55447 0.56062 0.51499 0.0
O380 O 0.54638 0.52954 0.56966 0.0
O381 O 0.53118 0.48431 0.5532 0.0
O382 O 0.51953 0.59608 0.54401 0.0
O383 O 0.51519 0.57309 0.58391 0.0
O384 O 0.47942 0.52297 0.56035 0.0
O385 O 0.47315 0.48895 0.52501 0.0
O386 O 0.50425 0.52252 0.47867 0.0
O387 O 0.4873 0.55341 0.5093 0.0
C388 C 0.57113 0.54289 0.50589 0.0
O389 O 0.51254 0.44856 0.50779 0.0
O390 O 0.52543 0.47407 0.47027 0.0
C391 C 0.54476 0.50186 0.57235 0.0
C392 C 0.48809 0.60949 0.57891 0.0
C393 C 0.43837 0.63201 0.59466 0.0
C394 C 0.46629 0.64672 0.60107 0.0
C395 C 0.49099 0.63547 0.59331 0.0
C396 C 0.46033 0.59499 0.57204 0.0
C397 C 0.43567 0.60608 0.57994 0.0
C398 C 0.51375 0.59707 0.57135 0.0
C399 C 0.46378 0.50095 0.5479 0.0
H400 H 0.58229 0.40907 0.42005 0.0
H401 H 0.53789 0.42774 0.4313 0.0
H402 H 0.56407 0.43878 0.5197 0.0
H403 H 0.6083 0.41969 0.50853 0.0
H404 H 0.46899 0.66662 0.61263 0.0
H405 H 0.51228 0.6469 0.59876 0.0
H406 H 0.45775 0.57497 0.5607 0.0
H407 H 0.4145 0.59443 0.57443 0.0
Tb408 Tb 0.01893 0.54926 1.00877 0.0
Tb409 Tb 0.01617 0.49036 0.04401 0.0
C410 C 0.04609 0.49927 0.98224 0.0
C411 C 0.99249 0.60898 0.97518 0.0
C412 C 0.94243 0.63094 0.96047 0.0
C413 C 0.96328 0.62739 0.93939 0.0
C414 C 0.98814 0.61658 0.94672 0.0
C415 C 0.97194 0.61306 0.99638 0.0
C416 C 0.94723 0.62411 0.9891 0.0
C417 C 0.01702 0.59458 0.98194 0.0
O418 O 0.9824 0.51977 0.9912 0.0
O419 O 0.97177 0.48826 0.02839 0.0
O420 O 1.0027 0.5204 0.07463 0.0
O421 O 0.98713 0.55111 0.04329 0.0
O422 O 1.0106 0.44581 0.04446 0.0
O423 O 0.01998 0.46984 0.0832 0.0
O424 O 0.0613 0.51194 0.0471 0.0
O425 O 0.05465 0.5575 0.03922 0.0
O426 O 0.0493 0.52695 0.98561 0.0
O427 O 0.03018 0.48196 1.00037 0.0
C428 C 0.96472 0.49904 1.00398 0.0
O429 O 0.02393 0.59368 1.00888 0.0
O430 O 0.0166 0.57019 0.96944 0.0
C431 C 0.98859 0.54132 0.0695 0.0
C432 C 0.04326 0.43098 0.07661 0.0
C433 C 0.09241 0.40775 0.09134 0.0
C434 C 0.0648 0.39581 0.10216 0.0
C435 C 0.04037 0.4075 0.09496 0.0
C436 C 0.07062 0.44225 0.06496 0.0
C437 C 0.09502 0.43085 0.07239 0.0
C438 C 0.01842 0.44514 0.07113 0.0
C439 C 0.07026 0.53942 0.04931 0.0
H440 H 0.96024 0.63279 0.9172 0.0
H441 H 1.00362 0.61348 0.93004 0.0
H442 H 0.97455 0.60708 1.01847 0.0
H443 H 0.9314 0.62644 1.00571 0.0
H444 H 0.06227 0.37811 0.11696 0.0
H445 H 0.01941 0.39864 0.10422 0.0
H446 H 0.07321 0.46027 0.05058 0.0
H447 H 0.116 0.44026 0.06353 0.0
C448 C 0.28043 0.18472 0.35295 0.0
C449 C 0.28721 0.21413 0.35697 0.0
C450 C 0.2608 0.16769 0.37124 0.0
C451 C 0.24771 0.18033 0.39427 0.0
C452 C 0.25551 0.2098 0.39933 0.0
C453 C 0.27507 0.22642 0.38047 0.0
C454 C 0.25289 0.13637 0.36494 0.0
C455 C 0.2423 0.22391 0.42393 0.0
C456 C 0.17369 0.14002 0.41574 0.0
C457 C 0.1806 0.12343 0.43855 0.0
C458 C 0.19518 0.15963 0.40197 0.0
C459 C 0.22424 0.16285 0.41141 0.0
C460 C 0.23108 0.14723 0.43538 0.0
C461 C 0.20918 0.12754 0.44858 0.0
C462 C 0.18704 0.17572 0.37631 0.0
C463 C 0.26173 0.1504 0.4463 0.0
H464 H 0.28933 0.17514 0.33455 0.0
H465 H 0.2804 0.24913 0.38374 0.0
H466 H 0.25563 0.12378 0.38437 0.0
H467 H 0.22972 0.13123 0.35883 0.0
H468 H 0.2663 0.12959 0.34727 0.0
H469 H 0.25304 0.24627 0.42688 0.0
H470 H 0.21892 0.22361 0.41987 0.0
H471 H 0.24382 0.21214 0.4442 0.0
H472 H 0.15168 0.13672 0.40776 0.0
H473 H 0.21449 0.11497 0.46646 0.0
H474 H 0.19745 0.16871 0.35668 0.0
H475 H 0.1951 0.19875 0.37883 0.0
H476 H 0.16319 0.17239 0.37307 0.0
H477 H 0.2755 0.14145 0.43038 0.0
H478 H 0.26282 0.13935 0.4671 0.0
H479 H 0.27114 0.17314 0.44899 0.0
C480 C 0.25711 0.81989 0.88026 0.0
C481 C 0.24277 0.8325 0.85879 0.0
C482 C 0.27725 0.83641 0.8982 0.0
C483 C 0.28305 0.8662 0.89461 0.0
C484 C 0.26714 0.87916 0.8744 0.0
C485 C 0.24728 0.86217 0.85669 0.0
C486 C 0.29364 0.82184 0.91966 0.0
C487 C 0.27257 0.91089 0.87001 0.0
C488 C 0.3272 0.91593 0.94752 0.0
C489 C 0.35407 0.92195 0.93314 0.0
C490 C 0.30402 0.89693 0.93583 0.0
C491 C 0.308 0.88361 0.90929 0.0
C492 C 0.33551 0.88867 0.89541 0.0
C493 C 0.35818 0.90785 0.90747 0.0
C494 C 0.27498 0.89213 0.95117 0.0
C495 C 0.34074 0.87465 0.86723 0.0
H496 H 0.2534 0.79701 0.88233 0.0
H497 H 0.23666 0.87216 0.83997 0.0
H498 H 0.31641 0.823 0.91212 0.0
H499 H 0.29428 0.83265 0.94077 0.0
H500 H 0.28385 0.79918 0.92262 0.0
H501 H 0.25614 0.91786 0.85589 0.0
H502 H 0.27239 0.922 0.89089 0.0
H503 H 0.29434 0.91761 0.86006 0.0
H504 H 0.32397 0.92695 0.96731 0.0
H505 H 0.37909 0.9122 0.89656 0.0
H506 H 0.26632 0.86913 0.95298 0.0
H507 H 0.25919 0.90178 0.93857 0.0
H508 H 0.2763 0.90157 0.973 0.0
H509 H 0.33406 0.85134 0.86899 0.0
H510 H 0.36388 0.87933 0.86028 0.0
H511 H 0.32737 0.88212 0.85029 0.0
C512 C 0.63403 0.43911 0.69981 0.0
C513 C 0.61542 0.4263 0.72188 0.0
C514 C 0.62337 0.45182 0.67562 0.0
C515 C 0.59319 0.45213 0.67303 0.0
C516 C 0.57429 0.43939 0.69526 0.0
C517 C 0.58551 0.42666 0.71913 0.0
C518 C 0.6445 0.4647 0.65257 0.0
C519 C 0.54204 0.43924 0.69385 0.0
C520 C 0.56754 0.50622 0.62199 0.0
C521 C 0.55815 0.48963 0.59783 0.0
C522 C 0.57888 0.49442 0.64641 0.0
C523 C 0.58136 0.46524 0.64694 0.0
C524 C 0.57233 0.44854 0.62244 0.0
C525 C 0.5608 0.46078 0.59848 0.0
C526 C 0.58792 0.5132 0.67188 0.0
C527 C 0.57473 0.41752 0.62152 0.0
H528 H 0.65709 0.43878 0.70115 0.0
H529 H 0.57075 0.41731 0.73597 0.0
H530 H 0.63887 0.4539 0.63181 0.0
H531 H 0.64298 0.48738 0.6496 0.0
H532 H 0.6673 0.4631 0.65772 0.0
H533 H 0.5302 0.429 0.71294 0.0
H534 H 0.53783 0.46128 0.69219 0.0
H535 H 0.53309 0.42779 0.67435 0.0
H536 H 0.56559 0.52844 0.62206 0.0
H537 H 0.55384 0.44756 0.58011 0.0
H538 H 0.61112 0.51323 0.67664 0.0
H539 H 0.57514 0.50475 0.69115 0.0
H540 H 0.58479 0.53539 0.66829 0.0
H541 H 0.59752 0.41491 0.62518 0.0
H542 H 0.56758 0.40751 0.6007 0.0
H543 H 0.56129 0.40598 0.63897 0.0
C544 C 0.89942 0.60253 0.19915 0.0
C545 C 0.91789 0.62166 0.21654 0.0
C546 C 0.91 0.58953 0.17493 0.0
C547 C 0.93988 0.5958 0.16735 0.0
C548 C 0.95861 0.61535 0.18449 0.0
C549 C 0.9475 0.62786 0.20877 0.0
C550 C 0.88912 0.56885 0.15751 0.0
C551 C 0.99057 0.62287 0.17735 0.0
C552 C 0.97381 0.54278 0.12184 0.0
C553 C 0.97493 0.55472 0.09418 0.0
C554 C 0.96226 0.55569 0.14556 0.0
C555 C 0.95165 0.58149 0.14195 0.0
C556 C 0.95254 0.59358 0.11407 0.0
C557 C 0.96398 0.58007 0.09063 0.0
C558 C 0.96156 0.54173 0.17465 0.0
C559 C 0.94175 0.62108 0.10903 0.0
H560 H 0.87644 0.5978 0.20429 0.0
H561 H 0.96228 0.64217 0.22198 0.0
H562 H 0.88928 0.57615 0.13491 0.0
H563 H 0.89608 0.54783 0.15734 0.0
H564 H 0.86653 0.56621 0.16604 0.0
H565 H 1.00213 0.63919 0.19205 0.0
H566 H 1.00078 0.60365 0.17866 0.0
H567 H 0.99364 0.63091 0.15501 0.0
H568 H 0.98208 0.52324 0.12505 0.0
H569 H 0.96477 0.58969 0.06955 0.0
H570 H 0.939 0.53755 0.18325 0.0
H571 H 0.9748 0.55614 0.18995 0.0
H572 H 0.96997 0.5214 0.1739 0.0
H573 H 0.91871 0.61902 0.11599 0.0
H574 H 0.94355 0.62763 0.08612 0.0
H575 H 0.9544 0.63815 0.12211 0.0
C576 C 0.45423 0.18678 0.14806 0.0
C577 C 0.42391 0.18384 0.14926 0.0
C578 C 0.46774 0.16655 0.13389 0.0
C579 C 0.45043 0.1426 0.12128 0.0
C580 C 0.41978 0.1393 0.12303 0.0
C581 C 0.4069 0.16014 0.13676 0.0
C582 C 0.50046 0.17107 0.13191 0.0
C583 C 0.40059 0.11382 0.1103 0.0
C584 C 0.47906 0.10311 0.05978 0.0
C585 C 0.48633 0.07945 0.07378 0.0
C586 C 0.46837 0.12434 0.07518 0.0
C587 C 0.46419 0.12147 0.10522 0.0
C588 C 0.47183 0.09778 0.11956 0.0
C589 C 0.48319 0.07717 0.10366 0.0
C590 C 0.46112 0.1496 0.0592 0.0
C591 C 0.46716 0.09376 0.1515 0.0
H592 H 0.46732 0.2052 0.15771 0.0
H593 H 0.38343 0.15773 0.13807 0.0
H594 H 0.5086 0.15266 0.14122 0.0
H595 H 0.50749 0.17267 0.10906 0.0
H596 H 0.51077 0.19058 0.14324 0.0
H597 H 0.3772 0.11371 0.11487 0.0
H598 H 0.4039 0.11356 0.08669 0.0
H599 H 0.40652 0.09403 0.11894 0.0
H600 H 0.48188 0.10513 0.0367 0.0
H601 H 0.48876 0.05884 0.11448 0.0
H602 H 0.4721 0.16956 0.06921 0.0
H603 H 0.4374 0.14955 0.06052 0.0
H604 H 0.46766 0.14966 0.0362 0.0
H605 H 0.47841 0.1126 0.16317 0.0
H606 H 0.47513 0.07468 0.15953 0.0
H607 H 0.44366 0.09161 0.15673 0.0
C608 C 0.12317 0.88494 0.63762 0.0
C609 C 0.1067 0.86142 0.65131 0.0
C610 C 0.10971 0.90508 0.62373 0.0
C611 C 0.07901 0.90127 0.62304 0.0
C612 C 0.06225 0.87753 0.6369 0.0
C613 C 0.07634 0.858 0.65118 0.0
C614 C 0.12835 0.93035 0.60963 0.0
C615 C 0.0295 0.87244 0.63609 0.0
C616 C 0.04548 0.96566 0.60382 0.0
C617 C 0.04249 0.96238 0.57408 0.0
C618 C 0.05686 0.94563 0.62025 0.0
C619 C 0.06467 0.92151 0.60663 0.0
C620 C 0.06039 0.91753 0.57679 0.0
C621 C 0.04969 0.9382 0.56083 0.0
C622 C 0.06161 0.95083 0.65193 0.0
C623 C 0.06777 0.89179 0.56156 0.0
H624 H 0.14668 0.88774 0.63809 0.0
H625 H 0.06365 0.83973 0.66174 0.0
H626 H 0.12484 0.92969 0.58612 0.0
H627 H 0.12208 0.95027 0.61773 0.0
H628 H 0.15185 0.93106 0.61358 0.0
H629 H 0.01965 0.85333 0.6485 0.0
H630 H 0.02113 0.89105 0.64486 0.0
H631 H 0.02221 0.86974 0.61352 0.0
H632 H 0.03998 0.98442 0.61405 0.0
H633 H 0.04699 0.93543 0.53787 0.0
H634 H 0.08519 0.95387 0.65647 0.0
H635 H 0.05101 0.93217 0.6645 0.0
H636 H 0.05304 0.96982 0.65953 0.0
H637 H 0.09157 0.89227 0.56203 0.0
H638 H 0.06079 0.89068 0.53882 0.0
H639 H 0.05729 0.87215 0.57271 0.0
C640 C 0.80732 0.45282 0.92922 0.0
C641 C 0.80585 0.42698 0.91449 0.0
C642 C 0.83233 0.46485 0.94462 0.0
C643 C 0.8569 0.45107 0.94509 0.0
C644 C 0.85565 0.42516 0.92997 0.0
C645 C 0.83024 0.41342 0.91513 0.0
C646 C 0.83237 0.49227 0.96061 0.0
C647 C 0.88132 0.40989 0.92925 0.0
C648 C 0.93176 0.49479 0.96107 0.0
C649 C 0.93664 0.48716 0.98953 0.0
C650 C 0.90606 0.48338 0.94655 0.0
C651 C 0.88413 0.46397 0.96075 0.0
C652 C 0.88866 0.45649 0.98964 0.0
C653 C 0.91482 0.46795 1.00356 0.0
C654 C 0.90261 0.49183 0.91574 0.0
C655 C 0.86585 0.43624 1.00586 0.0
H656 H 0.78861 0.4634 0.92922 0.0
H657 H 0.82961 0.39366 0.90362 0.0
H658 H 0.83675 0.48931 0.98366 0.0
H659 H 0.85 0.50883 0.95219 0.0
H660 H 0.81142 0.50007 0.95877 0.0
H661 H 0.87705 0.39004 0.91648 0.0
H662 H 0.90052 0.42392 0.9199 0.0
H663 H 0.88699 0.40455 0.95139 0.0
H664 H 0.94832 0.50947 0.94978 0.0
H665 H 0.91812 0.46188 0.02551 0.0
H666 H 0.88277 0.5014 0.91357 0.0
H667 H 0.89994 0.47276 0.90183 0.0
H668 H 0.92152 0.50723 0.90771 0.0
H669 H 0.84489 0.44413 1.00572 0.0
H670 H 0.87202 0.43337 0.02848 0.0
H671 H 0.86228 0.41527 0.99514 0.0
C672 C 0.73144 0.60867 0.44556 0.0
C673 C 0.73171 0.61211 0.41559 0.0
C674 C 0.70602 0.5964 0.46059 0.0
C675 C 0.67994 0.5874 0.44546 0.0
C676 C 0.68015 0.59039 0.41516 0.0
C677 C 0.70595 0.60255 0.40064 0.0
C678 C 0.70703 0.59339 0.49279 0.0
C679 C 0.6529 0.58131 0.39811 0.0
C680 C 0.61799 0.53592 0.48146 0.0
C681 C 0.59953 0.55423 0.49138 0.0
C682 C 0.64418 0.54634 0.46666 0.0
C683 C 0.65225 0.57584 0.46143 0.0
C684 C 0.63379 0.59442 0.47152 0.0
C685 C 0.60783 0.58346 0.48635 0.0
C686 C 0.66314 0.5257 0.45648 0.0
C687 C 0.64134 0.62597 0.46642 0.0
H688 H 0.75123 0.61554 0.45736 0.0
H689 H 0.70574 0.6053 0.37757 0.0
H690 H 0.69216 0.60621 0.50313 0.0
H691 H 0.69943 0.57099 0.4991 0.0
H692 H 0.7292 0.60034 0.5013 0.0
H693 H 0.65678 0.58411 0.37464 0.0
H694 H 0.64393 0.55871 0.40245 0.0
H695 H 0.63613 0.59388 0.40483 0.0
H696 H 0.61192 0.51331 0.48508 0.0
H697 H 0.59384 0.5979 0.49372 0.0
H698 H 0.68508 0.53131 0.46585 0.0
H699 H 0.66585 0.52705 0.43281 0.0
H700 H 0.654 0.50346 0.46239 0.0
H701 H 0.66261 0.63444 0.47614 0.0
H702 H 0.62476 0.63761 0.47555 0.0
H703 H 0.64345 0.63035 0.44304 0.0
C704 C 0.24103 0.3531 0.12832 0.0
C705 C 0.24057 0.34542 0.15742 0.0
C706 C 0.21751 0.36329 0.11606 0.0
C707 C 0.19315 0.36625 0.1334 0.0
C708 C 0.19269 0.35889 0.16281 0.0
C709 C 0.21623 0.34834 0.17438 0.0
C710 C 0.21863 0.37071 0.08454 0.0
C711 C 0.1672 0.36198 0.18207 0.0
C712 C 0.14272 0.41612 0.11063 0.0
C713 C 0.11866 0.39708 0.10082 0.0
C714 C 0.16734 0.40641 0.12085 0.0
C715 C 0.16801 0.37698 0.12093 0.0
C716 C 0.14403 0.3577 0.11038 0.0
C717 C 0.11951 0.36798 0.10067 0.0
C718 C 0.19227 0.4276 0.13234 0.0
C719 C 0.14415 0.3262 0.10974 0.0
H720 H 0.25983 0.35125 0.1151 0.0
H721 H 0.21529 0.3419 0.1967 0.0
H722 H 0.19989 0.35801 0.07346 0.0
H723 H 0.21691 0.39336 0.08172 0.0
H724 H 0.23898 0.36683 0.07392 0.0
H725 H 0.17064 0.35619 0.2047 0.0
H726 H 0.16327 0.38417 0.18152 0.0
H727 H 0.14727 0.34828 0.17423 0.0
H728 H 0.14196 0.43862 0.11104 0.0
H729 H 0.10099 0.35329 0.09282 0.0
H730 H 0.2128 0.42516 0.12123 0.0
H731 H 0.19505 0.42355 0.1555 0.0
H732 H 0.18881 0.44983 0.12969 0.0
H733 H 0.16367 0.32179 0.098 0.0
H734 H 0.12452 0.31424 0.09935 0.0
H735 H 0.1452 0.31812 0.13193 0.0
C736 C 0.62541 0.20232 0.90646 0.0
C737 C 0.60911 0.22436 0.90451 0.0
C738 C 0.61432 0.17642 0.92034 0.0
C739 C 0.58617 0.17214 0.93303 0.0
C740 C 0.56946 0.19417 0.93091 0.0
C741 C 0.58099 0.21979 0.91661 0.0
C742 C 0.63292 0.15363 0.92157 0.0
C743 C 0.53951 0.19088 0.94427 0.0
C744 C 0.54759 0.09602 0.94936 0.0
C745 C 0.55315 0.09301 0.9787 0.0
C746 C 0.55815 0.12144 0.93432 0.0
C747 C 0.57451 0.14485 0.94884 0.0
C748 C 0.58006 0.14198 0.97849 0.0
C749 C 0.56952 0.11623 0.99292 0.0
C750 C 0.55188 0.12318 0.90274 0.0
C751 C 0.5971 0.16624 0.9951 0.0
H752 H 0.64697 0.20525 0.89692 0.0
H753 H 0.56821 0.23661 0.91561 0.0
H754 H 0.63739 0.14901 0.94424 0.0
H755 H 0.62119 0.13372 0.91207 0.0
H756 H 0.65396 0.15979 0.90998 0.0
H757 H 0.52903 0.20965 0.94047 0.0
H758 H 0.52545 0.17186 0.93544 0.0
H759 H 0.54084 0.18762 0.96775 0.0
H760 H 0.53504 0.07839 0.93799 0.0
H761 H 0.57392 0.11445 1.01557 0.0
H762 H 0.57255 0.12797 0.89035 0.0
H763 H 0.53973 0.14074 0.89878 0.0
H764 H 0.53903 0.1032 0.89443 0.0
H765 H 0.61917 0.17217 0.98559 0.0
H766 H 0.5992 0.16093 1.0181 0.0
H767 H 0.58637 0.18512 0.99367 0.0
C768 C 0.95356 0.82361 0.41358 0.0
C769 C 0.92553 0.81943 0.40201 0.0
C770 C 0.9652 0.84904 0.42779 0.0
C771 C 0.94868 0.87121 0.43025 0.0
C772 C 0.92066 0.86735 0.418 0.0
C773 C 0.90942 0.84159 0.40426 0.0
C774 C 0.99497 0.85194 0.44078 0.0
C775 C 0.90235 0.89038 0.41963 0.0
C776 C 0.96453 0.92596 0.49061 0.0
C777 C 0.98133 0.94924 0.47654 0.0
C778 C 0.95417 0.9005 0.47596 0.0
C779 C 0.96029 0.89809 0.44626 0.0
C780 C 0.97713 0.92154 0.43188 0.0
C781 C 0.98758 0.94665 0.44717 0.0
C782 C 0.93665 0.87609 0.49236 0.0
C783 C 0.98392 0.92019 0.40023 0.0
H784 H 0.96612 0.80661 0.41228 0.0
H785 H 0.88791 0.83882 0.39513 0.0
H786 H 1.00928 0.871 0.43206 0.0
H787 H 0.99337 0.85487 0.46434 0.0
H788 H 1.00535 0.83312 0.43657 0.0
H789 H 0.88154 0.88463 0.40804 0.0
H790 H 0.89742 0.8947 0.44238 0.0
H791 H 0.9145 0.91034 0.41037 0.0
H792 H 0.95968 0.92748 0.5133 0.0
H793 H 1.00045 0.9644 0.43598 0.0
H794 H 0.94715 0.85707 0.49043 0.0
H795 H 0.91468 0.87058 0.48307 0.0
H796 H 0.93433 0.88101 0.51549 0.0
H797 H 0.99588 0.90251 0.39588 0.0
H798 H 0.99716 0.94018 0.3921 0.0
H799 H 0.96345 0.91585 0.38795 0.0
C800 C 0.28961 0.68893 0.63091 0.0
C801 C 0.29088 0.6994 0.65909 0.0
C802 C 0.31289 0.67772 0.61883 0.0
C803 C 0.33793 0.67685 0.63538 0.0
C804 C 0.33931 0.68733 0.66382 0.0
C805 C 0.31588 0.6986 0.67524 0.0
C806 C 0.31072 0.66682 0.58839 0.0
C807 C 0.36561 0.68674 0.68218 0.0
C808 C 0.38866 0.62536 0.61687 0.0
C809 C 0.41209 0.64331 0.60386 0.0
C810 C 0.36406 0.63587 0.62662 0.0
C811 C 0.36282 0.66499 0.62316 0.0
C812 C 0.38612 0.68309 0.60946 0.0
C813 C 0.41054 0.67205 0.60008 0.0
C814 C 0.33979 0.61595 0.64137 0.0
C815 C 0.38546 0.71422 0.60515 0.0
H816 H 0.2703 0.68925 0.61837 0.0
H817 H 0.31737 0.70721 0.69679 0.0
H818 H 0.32893 0.67829 0.57522 0.0
H819 H 0.31261 0.64404 0.58804 0.0
H820 H 0.28993 0.66934 0.57826 0.0
H821 H 0.36304 0.69529 0.70406 0.0
H822 H 0.36969 0.66468 0.68418 0.0
H823 H 0.38512 0.69939 0.67186 0.0
H824 H 0.38988 0.60318 0.6201 0.0
H825 H 0.42844 0.6859 0.58969 0.0
H826 H 0.31881 0.61698 0.63093 0.0
H827 H 0.33781 0.62252 0.66405 0.0
H828 H 0.34343 0.59363 0.64102 0.0
H829 H 0.36544 0.71698 0.59374 0.0
H830 H 0.40458 0.72508 0.59271 0.0
H831 H 0.385 0.72482 0.62629 0.0
C832 C 0.76551 0.81684 0.67823 0.0
C833 C 0.75257 0.82843 0.70169 0.0
C834 C 0.7851 0.83412 0.65993 0.0
C835 C 0.79198 0.86358 0.66542 0.0
C836 C 0.77832 0.87547 0.68856 0.0
C837 C 0.75878 0.85776 0.70637 0.0
C838 C 0.79906 0.82079 0.63527 0.0
C839 C 0.7852 0.90678 0.69521 0.0
C840 C 0.86414 0.90677 0.64214 0.0
C841 C 0.85584 0.9224 0.61922 0.0
C842 C 0.84373 0.88665 0.65667 0.0
C843 C 0.81439 0.88201 0.64792 0.0
C844 C 0.80616 0.89681 0.62398 0.0
C845 C 0.82699 0.91692 0.60995 0.0
C846 C 0.85331 0.87137 0.68222 0.0
C847 C 0.77514 0.89222 0.61388 0.0
H848 H 0.76064 0.79419 0.67445 0.0
H849 H 0.74928 0.86679 0.72477 0.0
H850 H 0.79624 0.832 0.61495 0.0
H851 H 0.82274 0.82285 0.63888 0.0
H852 H 0.78984 0.79796 0.63268 0.0
H853 H 0.77178 0.91283 0.71326 0.0
H854 H 0.80843 0.9127 0.7009 0.0
H855 H 0.78157 0.91936 0.67603 0.0
H856 H 0.88638 0.9111 0.64948 0.0
H857 H 0.82062 0.92869 0.59194 0.0
H858 H 0.84623 0.84816 0.68 0.0
H859 H 0.84296 0.87804 0.70203 0.0
H860 H 0.87724 0.87579 0.6849 0.0
H861 H 0.76686 0.86927 0.61098 0.0
H862 H 0.77286 0.90336 0.59334 0.0
H863 H 0.76119 0.90011 0.63037 0.0
C864 C 0.7855 0.20134 0.17736 0.0
C865 C 0.77591 0.21958 0.19749 0.0
C866 C 0.76565 0.18314 0.16056 0.0
C867 C 0.73555 0.1833 0.16396 0.0
C868 C 0.72587 0.20288 0.18292 0.0
C869 C 0.74614 0.2207 0.19952 0.0
C870 C 0.7768 0.16263 0.14043 0.0
C871 C 0.69395 0.20377 0.18709 0.0
C872 C 0.68228 0.14394 0.11061 0.0
C873 C 0.67289 0.11825 0.12508 0.0
C874 C 0.70277 0.16538 0.1229 0.0
C875 C 0.71407 0.16095 0.15024 0.0
C876 C 0.70453 0.13513 0.16499 0.0
C877 C 0.68403 0.11416 0.15226 0.0
C878 C 0.71239 0.19268 0.10663 0.0
C879 C 0.71594 0.12966 0.19429 0.0
H880 H 0.80849 0.20065 0.17537 0.0
H881 H 0.73842 0.23441 0.21527 0.0
H882 H 0.77055 0.14075 0.14889 0.0
H883 H 0.76684 0.16318 0.119 0.0
H884 H 0.8008 0.16731 0.13787 0.0
H885 H 0.69023 0.22242 0.19989 0.0
H886 H 0.68319 0.20434 0.16606 0.0
H887 H 0.68332 0.18427 0.19839 0.0
H888 H 0.67395 0.14709 0.08947 0.0
H889 H 0.6765 0.09455 0.16375 0.0
H890 H 0.7362 0.19598 0.10279 0.0
H891 H 0.70777 0.21088 0.11957 0.0
H892 H 0.7014 0.19285 0.08564 0.0
H893 H 0.73992 0.13151 0.1933 0.0
H894 H 0.70655 0.10831 0.2027 0.0
H895 H 0.71085 0.1458 0.20973 0.0
C896 C 0.39987 0.60001 0.35266 0.0
C897 C 0.418 0.61924 0.33461 0.0
C898 C 0.41069 0.58761 0.37695 0.0
C899 C 0.44052 0.59455 0.38404 0.0
C900 C 0.45891 0.61411 0.36617 0.0
C901 C 0.44758 0.62601 0.34185 0.0
C902 C 0.39009 0.56689 0.39504 0.0
C903 C 0.49079 0.62239 0.37266 0.0
C904 C 0.46444 0.58104 0.46113 0.0
C905 C 0.47605 0.55593 0.45819 0.0
C906 C 0.4529 0.59374 0.43741 0.0
C907 C 0.45253 0.58109 0.40978 0.0
C908 C 0.46385 0.55554 0.40679 0.0
C909 C 0.47551 0.54346 0.43078 0.0
C910 C 0.44141 0.62101 0.44188 0.0
C911 C 0.46376 0.54092 0.37808 0.0
H912 H 0.37694 0.59476 0.34804 0.0
H913 H 0.4622 0.64035 0.3282 0.0
H914 H 0.39767 0.54618 0.39571 0.0
H915 H 0.38977 0.57472 0.41744 0.0
H916 H 0.36758 0.56347 0.38675 0.0
H917 H 0.50214 0.63849 0.35738 0.0
H918 H 0.49356 0.63103 0.39474 0.0
H919 H 0.50142 0.60341 0.37171 0.0
H920 H 0.46475 0.59112 0.48198 0.0
H921 H 0.48427 0.5241 0.42796 0.0
H922 H 0.41835 0.61824 0.43538 0.0
H923 H 0.45372 0.63793 0.42811 0.0
H924 H 0.443 0.6282 0.46457 0.0
H925 H 0.44128 0.53601 0.36986 0.0
H926 H 0.47271 0.52092 0.37926 0.0
H927 H 0.47681 0.55521 0.36226 0.0
C928 C 0.0861 0.42529 0.83452 0.0
C929 C 0.11552 0.42255 0.83217 0.0
C930 C 0.07523 0.4383 0.85861 0.0
C931 C 0.09403 0.44881 0.88133 0.0
C932 C 0.12371 0.44603 0.87916 0.0
C933 C 0.13404 0.4331 0.85475 0.0
C934 C 0.04352 0.44087 0.8597 0.0
C935 C 0.1446 0.45651 0.90282 0.0
C936 C 0.07136 0.50374 0.93347 0.0
C937 C 0.05965 0.48685 0.95687 0.0
C938 C 0.08262 0.49175 0.90891 0.0
C939 C 0.08255 0.4621 0.90756 0.0
C940 C 0.07122 0.44506 0.93133 0.0
C941 C 0.05988 0.45753 0.95545 0.0
C942 C 0.09426 0.51083 0.88416 0.0
C943 C 0.07087 0.41348 0.93123 0.0
H944 H 0.07155 0.41766 0.81721 0.0
H945 H 0.15669 0.43086 0.85358 0.0
H946 H 0.0329 0.42945 0.87875 0.0
H947 H 0.04127 0.46345 0.86199 0.0
H948 H 0.03178 0.43214 0.8402 0.0
H949 H 0.16704 0.45311 0.89787 0.0
H950 H 0.14499 0.47947 0.90647 0.0
H951 H 0.13723 0.4454 0.92317 0.0
H952 H 0.07125 0.52634 0.93408 0.0
H953 H 0.05107 0.44413 0.97329 0.0
H954 H 0.08172 0.5041 0.86453 0.0
H955 H 0.11719 0.50898 0.87958 0.0
H956 H 0.09309 0.53342 0.88849 0.0
H957 H 0.05743 0.40355 0.91327 0.0
H958 H 0.06209 0.40323 0.95162 0.0
H959 H 0.09318 0.40908 0.92772 0.0
C960 C 0.60391 0.87338 0.8903 0.0
C961 C 0.60398 0.84701 0.90339 0.0
C962 C 0.59197 0.89468 0.90431 0.0
C963 C 0.58001 0.88961 0.93223 0.0
C964 C 0.57967 0.86296 0.94548 0.0
C965 C 0.59163 0.84194 0.93088 0.0
C966 C 0.59273 0.92283 0.88946 0.0
C967 C 0.56709 0.85682 0.97526 0.0
C968 C 0.57696 0.95401 0.97894 0.0
C969 C 0.54775 0.95698 0.97669 0.0
C970 C 0.58765 0.932 0.9648 0.0
C971 C 0.56872 0.91259 0.94785 0.0
C972 C 0.53925 0.91551 0.94538 0.0
C973 C 0.52908 0.93763 0.9599 0.0
C974 C 0.61922 0.92949 0.96803 0.0
C975 C 0.51848 0.89534 0.9273 0.0
H976 H 0.61389 0.87771 0.8693 0.0
H977 H 0.59135 0.82153 0.941 0.0
H978 H 0.57055 0.92809 0.88864 0.0
H979 H 0.60632 0.93987 0.90181 0.0
H980 H 0.6016 0.92292 0.86723 0.0
H981 H 0.56782 0.83479 0.98226 0.0
H982 H 0.57931 0.87171 0.99085 0.0
H983 H 0.54421 0.8602 0.97602 0.0
H984 H 0.59152 0.96873 0.99199 0.0
H985 H 0.50647 0.93974 0.95803 0.0
H986 H 0.63021 0.93129 0.94671 0.0
H987 H 0.62099 0.90836 0.97687 0.0
H988 H 0.63096 0.94604 0.98236 0.0
H989 H 0.52634 0.89611 0.90471 0.0
H990 H 0.49617 0.90039 0.92779 0.0
H991 H 0.51755 0.87329 0.935 0.0
C992 C 0.93218 0.16422 0.38246 0.0
C993 C 0.93202 0.1909 0.39493 0.0
C994 C 0.94446 0.1434 0.39663 0.0
C995 C 0.95659 0.14923 0.4241 0.0
C996 C 0.9571 0.17627 0.43658 0.0
C997 C 0.94491 0.19682 0.4218 0.0
C998 C 0.94363 0.11485 0.38255 0.0
C999 C 0.96978 0.18323 0.46591 0.0
C1000 C 0.95778 0.08648 0.47342 0.0
C1001 C 0.98695 0.08307 0.47155 0.0
C1002 C 0.94772 0.10803 0.45821 0.0
C1003 C 0.96722 0.12648 0.44045 0.0
C1004 C 0.99662 0.12302 0.43821 0.0
C1005 C 1.00619 0.10143 0.45391 0.0
C1006 C 0.91624 0.11118 0.46133 0.0
C1007 C 0.01795 0.1421 0.41922 0.0
H1008 H 0.92187 0.15922 0.36195 0.0
H1009 H 0.94527 0.21749 0.43141 0.0
H1010 H 0.96564 0.10915 0.38208 0.0
H1011 H 0.92938 0.09831 0.39524 0.0
H1012 H 0.93541 0.11442 0.36026 0.0
H1013 H 0.96963 0.20561 0.47207 0.0
H1014 H 0.95717 0.1692 0.48223 0.0
H1015 H 0.99246 0.17927 0.46647 0.0
H1016 H 0.94279 0.07253 0.48714 0.0
H1017 H 0.02875 0.09891 0.45229 0.0
H1018 H 0.90562 0.10887 0.4401 0.0
H1019 H 0.91471 0.13268 0.46943 0.0
H1020 H 0.90397 0.09526 0.47624 0.0
H1021 H 1.01029 0.14073 0.39674 0.0
H1022 H 0.04004 0.13651 0.41972 0.0
H1023 H 0.01938 0.16447 0.4261 0.0
C1024 C 0.20404 0.59845 0.15432 0.0
C1025 C 0.22999 0.60806 0.13905 0.0
C1026 C 0.17833 0.58623 0.14013 0.0
C1027 C 0.17833 0.58314 0.10982 0.0
C1028 C 0.20463 0.59215 0.09439 0.0
C1029 C 0.22993 0.60452 0.10907 0.0
C1030 C 0.1509 0.57723 0.15758 0.0
C1031 C 0.20599 0.58906 0.06218 0.0
C1032 C 0.11639 0.53197 0.07417 0.0
C1033 C 0.09832 0.55045 0.06419 0.0
C1034 C 0.14237 0.54219 0.08892 0.0
C1035 C 0.15067 0.57169 0.09414 0.0
C1036 C 0.13251 0.59039 0.08412 0.0
C1037 C 0.1068 0.57964 0.0693 0.0
C1038 C 0.16097 0.52136 0.09893 0.0
C1039 C 0.14016 0.62192 0.08922 0.0
H1040 H 0.20358 0.60122 0.17739 0.0
H1041 H 0.24982 0.61138 0.09697 0.0
H1042 H 0.13427 0.5899 0.15112 0.0
H1043 H 0.14187 0.55466 0.15332 0.0
H1044 H 0.15458 0.58 0.18099 0.0
H1045 H 0.2283 0.59582 0.0534 0.0
H1046 H 0.19829 0.56667 0.05602 0.0
H1047 H 0.19138 0.602 0.05198 0.0
H1048 H 0.11024 0.5094 0.07051 0.0
H1049 H 0.09313 0.59424 0.06193 0.0
H1050 H 0.16345 0.52275 0.12256 0.0
H1051 H 0.18302 0.52673 0.08925 0.0
H1052 H 0.15166 0.49915 0.0932 0.0
H1053 H 0.14213 0.62623 0.11258 0.0
H1054 H 0.1237 0.63367 0.08041 0.0
H1055 H 0.16151 0.63032 0.07915 0.0
C1056 C 0.30117 0.44024 0.60617 0.0
C1057 C 0.30191 0.42964 0.63421 0.0
C1058 C 0.32682 0.45235 0.59143 0.0
C1059 C 0.35411 0.45354 0.60474 0.0
C1060 C 0.35498 0.44287 0.63306 0.0
C1061 C 0.32894 0.43131 0.64749 0.0
C1062 C 0.32469 0.46397 0.56157 0.0
C1063 C 0.38352 0.44328 0.648 0.0
C1064 C 0.42244 0.46049 0.55719 0.0
C1065 C 0.43492 0.48905 0.56097 0.0
C1066 C 0.39625 0.44868 0.57127 0.0
C1067 C 0.38171 0.46593 0.58911 0.0
C1068 C 0.39381 0.49499 0.59231 0.0
C1069 C 0.42033 0.50606 0.57854 0.0
C1070 C 0.38447 0.41753 0.56755 0.0
C1071 C 0.37888 0.51443 0.61049 0.0
H1072 H 0.2804 0.43932 0.59581 0.0
H1073 H 0.32979 0.42292 0.669 0.0
H1074 H 0.33501 0.48663 0.56082 0.0
H1075 H 0.33661 0.45248 0.54608 0.0
H1076 H 0.30185 0.46212 0.55446 0.0
H1077 H 0.38061 0.43386 0.66984 0.0
H1078 H 0.3975 0.43136 0.63513 0.0
H1079 H 0.39524 0.46539 0.64983 0.0
H1080 H 0.43361 0.4471 0.54389 0.0
H1081 H 0.42963 0.52818 0.58153 0.0
H1082 H 0.36219 0.41464 0.55884 0.0
H1083 H 0.38303 0.40674 0.58871 0.0
H1084 H 0.39823 0.40697 0.55293 0.0
H1085 H 0.35616 0.51348 0.60338 0.0
H1086 H 0.39016 0.53682 0.60945 0.0
H1087 H 0.37797 0.50737 0.63319 0.0
C1088 C 0.82142 0.70497 0.89188 0.0
C1089 C 0.79286 0.69399 0.9004 0.0
C1090 C 0.84501 0.69496 0.90394 0.0
C1091 C 0.83989 0.67325 0.92488 0.0
C1092 C 0.81113 0.66259 0.93418 0.0
C1093 C 0.78787 0.67325 0.92191 0.0
C1094 C 0.87537 0.70716 0.89371 0.0
C1095 C 0.80489 0.63932 0.95636 0.0
C1096 C 0.89943 0.6289 0.92882 0.0
C1097 C 0.91535 0.64092 0.95239 0.0
C1098 C 0.87414 0.63849 0.92036 0.0
C1099 C 0.86471 0.66084 0.93571 0.0
C1100 C 0.88031 0.67262 0.95996 0.0
C1101 C 0.90543 0.66242 0.9681 0.0
C1102 C 0.85792 0.62519 0.89456 0.0
C1103 C 0.87105 0.69664 0.97668 0.0
H1104 H 0.82529 0.72137 0.87558 0.0
H1105 H 0.76576 0.66475 0.92844 0.0
H1106 H 0.88925 0.71471 0.91225 0.0
H1107 H 0.88521 0.69044 0.88281 0.0
H1108 H 0.87569 0.72508 0.87852 0.0
H1109 H 0.78154 0.6346 0.96256 0.0
H1110 H 0.81138 0.61969 0.94776 0.0
H1111 H 0.81787 0.64529 0.97588 0.0
H1112 H 0.90679 0.61191 0.91697 0.0
H1113 H 0.91778 0.67178 0.98629 0.0
H1114 H 0.85902 0.64112 0.87712 0.0
H1115 H 0.83466 0.61816 0.9001 0.0
H1116 H 0.86693 0.60671 0.88625 0.0
H1117 H 0.87319 0.71577 0.96287 0.0
H1118 H 0.88428 0.70204 0.99619 0.0
H1119 H 0.84788 0.69106 0.9832 0.0
C1120 C 0.44561 0.81575 0.12465 0.0
C1121 C 0.42332 0.81472 0.1453 0.0
C1122 C 0.45667 0.84106 0.10962 0.0
C1123 C 0.44587 0.86641 0.11583 0.0
C1124 C 0.42373 0.86555 0.13711 0.0
C1125 C 0.4125 0.83978 0.15119 0.0
C1126 C 0.47966 0.84054 0.08672 0.0
C1127 C 0.412 0.89197 0.14519 0.0
C1128 C 0.49427 0.93707 0.09544 0.0
C1129 C 0.48077 0.94538 0.07083 0.0
C1130 C 0.48293 0.91188 0.11046 0.0
C1131 C 0.45783 0.89378 0.1003 0.0
C1132 C 0.44425 0.90195 0.07528 0.0
C1133 C 0.45557 0.92772 0.06116 0.0
C1134 C 0.49778 0.90473 0.13739 0.0
C1135 C 0.41797 0.8832 0.06306 0.0
H1136 H 0.45391 0.7965 0.11967 0.0
H1137 H 0.39541 0.83929 0.16719 0.0
H1138 H 0.47206 0.84778 0.06598 0.0
H1139 H 0.49969 0.8554 0.09238 0.0
H1140 H 0.48518 0.81907 0.08374 0.0
H1141 H 0.39557 0.88811 0.1628 0.0
H1142 H 0.43002 0.90876 0.15206 0.0
H1143 H 0.40189 0.90021 0.12629 0.0
H1144 H 0.51364 0.95053 0.10326 0.0
H1145 H 0.44507 0.93368 0.04205 0.0
H1146 H 0.50594 0.88448 0.13448 0.0
H1147 H 0.482 0.90173 0.15557 0.0
H1148 H 0.5163 0.92148 0.14322 0.0
H1149 H 0.42321 0.86194 0.05817 0.0
H1150 H 0.41027 0.89212 0.04316 0.0
H1151 H 0.39998 0.88017 0.07909 0.0
C1152 C 0.09693 0.20286 0.65677 0.0
C1153 C 0.10331 0.22813 0.64084 0.0
C1154 C 0.08606 0.17669 0.64347 0.0
C1155 C 0.08118 0.17556 0.61345 0.0
C1156 C 0.08718 0.20105 0.59735 0.0
C1157 C 0.09813 0.22684 0.61115 0.0
C1158 C 0.08011 0.15015 0.66154 0.0
C1159 C 0.0821 0.2011 0.56542 0.0
C1160 C 0.07776 0.10545 0.57247 0.0
C1161 C 0.04772 0.09633 0.56947 0.0
C1162 C 0.08889 0.13085 0.58699 0.0
C1163 C 0.06965 0.14785 0.59883 0.0
C1164 C 0.03933 0.13868 0.596 0.0
C1165 C 0.0288 0.11317 0.58149 0.0
C1166 C 0.12134 0.13964 0.58945 0.0
C1167 C 0.01792 0.15603 0.60803 0.0
H1168 H 0.10108 0.20339 0.67961 0.0
H1169 H 0.10248 0.24616 0.59858 0.0
H1170 H 0.05706 0.13997 0.65953 0.0
H1171 H 0.09358 0.13471 0.6537 0.0
H1172 H 0.0848 0.15449 0.68459 0.0
H1173 H 0.08768 0.22265 0.55593 0.0
H1174 H 0.09532 0.18703 0.5545 0.0
H1175 H 0.05899 0.19261 0.56092 0.0
H1176 H 0.0927 0.09279 0.56335 0.0
H1177 H 1.00556 0.10657 0.57938 0.0
H1178 H 0.12738 0.14262 0.61234 0.0
H1179 H 0.12839 0.16028 0.57849 0.0
H1180 H 0.13343 0.12381 0.57987 0.0
H1181 H 0.02132 0.15931 0.6314 0.0
H1182 H 0.99504 0.14582 0.60457 0.0
H1183 H 0.02151 0.17728 0.5978 0.0
C1184 C 0.71825 0.3383 0.39274 0.0
C1185 C 0.74704 0.34814 0.40065 0.0
C1186 C 0.69522 0.34886 0.40582 0.0
C1187 C 0.70113 0.36999 0.42721 0.0
C1188 C 0.73011 0.37946 0.43592 0.0
C1189 C 0.7528 0.36825 0.42261 0.0
C1190 C 0.66461 0.33793 0.39615 0.0
C1191 C 0.7372 0.4021 0.45852 0.0
C1192 C 0.6431 0.41599 0.4327 0.0
C1193 C 0.62636 0.40366 0.45599 0.0
C1194 C 0.66841 0.40617 0.42407 0.0
C1195 C 0.67696 0.38323 0.43891 0.0
C1196 C 0.66069 0.37136 0.46313 0.0
C1197 C 0.63561 0.38187 0.47151 0.0
C1198 C 0.68535 0.41965 0.39837 0.0
C1199 C 0.66899 0.34672 0.47932 0.0
H1200 H 0.71377 0.32237 0.37609 0.0
H1201 H 0.77509 0.37586 0.42869 0.0
H1202 H 0.65049 0.33052 0.4149 0.0
H1203 H 0.65552 0.35532 0.38586 0.0
H1204 H 0.66358 0.3202 0.3806 0.0
H1205 H 0.76051 0.40564 0.46436 0.0
H1206 H 0.7318 0.42235 0.4505 0.0
H1207 H 0.72388 0.39627 0.47815 0.0
H1208 H 0.63618 0.43319 0.42102 0.0
H1209 H 0.62261 0.37234 0.48953 0.0
H1210 H 0.68356 0.40424 0.38042 0.0
H1211 H 0.70871 0.42545 0.40358 0.0
H1212 H 0.67739 0.43895 0.39094 0.0
H1213 H 0.66583 0.32764 0.46541 0.0
H1214 H 0.65581 0.34175 0.49923 0.0
H1215 H 0.69228 0.35128 0.48506 0.0
loop_
_geom_bond_atom_site_label_1
_geom_bond_atom_site_label_2
_geom_bond_distance
_geom_bond_site_symmetry_2
_ccdc_geom_bond_type
C0 C1 1.384 . S
C0 H13 0.947 . S
C0 C35 1.382 . S
C1 C0 1.384 . S
C1 C2 1.378 . S
C2 C1 1.378 . S
C2 C3 1.378 . S
C2 H14 0.952 . S
C3 C2 1.378 . S
C3 H15 0.950 . S
C3 C34 1.383 . S
H4 C23 0.947 . S
H5 C24 0.946 . S
H6 C26 0.953 . S
H7 C27 0.945 . S
H8 C29 0.952 . S
H9 C30 0.949 . S
H10 C32 0.950 . S
H11 C33 0.948 . S
H12 C35 0.951 . S
H13 C0 0.947 . S
H14 C2 0.952 . S
H15 C3 0.950 . S
N16 C19 1.382 . S
N16 C21 1.363 . S
N17 C19 1.371 . S
N17 C20 1.372 . S
N18 C20 1.361 . S
N18 C21 1.377 . S
C19 N16 1.382 . S
C19 N17 1.371 . S
C19 C22 1.480 . S
C20 N17 1.372 . S
C20 N18 1.361 . S
C20 C28 1.457 . S
C21 N16 1.363 . S
C21 N18 1.377 . S
C21 C34 1.479 . S
C22 C19 1.480 . S
C22 C23 1.383 . S
C22 C27 1.385 . S
C23 H4 0.947 . S
C23 C22 1.383 . S
C23 C24 1.388 . S
C24 H5 0.946 . S
C24 C23 1.388 . S
C24 C25 1.384 . S
C25 C24 1.384 . S
C25 C26 1.377 . S
C26 H6 0.953 . S
C26 C25 1.377 . S
C26 C27 1.369 . S
C27 H7 0.945 . S
C27 C22 1.385 . S
C27 C26 1.369 . S
C28 C20 1.457 . S
C28 C29 1.372 . S
C28 C33 1.364 . S
C29 H8 0.952 . S
C29 C28 1.372 . S
C29 C30 1.389 . S
C30 H9 0.949 . S
C30 C29 1.389 . S
C30 C31 1.387 . S
C31 C30 1.387 . S
C31 C32 1.372 . S
C32 H10 0.950 . S
C32 C31 1.372 . S
C32 C33 1.379 . S
C33 H11 0.948 . S
C33 C28 1.364 . S
C33 C32 1.379 . S
C34 C3 1.383 . S
C34 C21 1.479 . S
C34 C35 1.398 . S
C35 C0 1.382 . S
C35 H12 0.951 . S
C35 C34 1.398 . S
C36 C37 1.384 . S
C36 H49 0.947 . S
C36 C71 1.382 . S
C37 C36 1.384 . S
C37 C38 1.378 . S
C38 C37 1.378 . S
C38 C39 1.378 . S
C38 H50 0.952 . S
C39 C38 1.378 . S
C39 H51 0.950 . S
C39 C70 1.383 . S
H40 C59 0.947 . S
H41 C60 0.946 . S
H42 C62 0.953 . S
H43 C63 0.945 . S
H44 C65 0.952 . S
H45 C66 0.949 . S
H46 C68 0.950 . S
H47 C69 0.948 . S
H48 C71 0.951 . S
H49 C36 0.947 . S
H50 C38 0.952 . S
H51 C39 0.950 . S
N52 C55 1.382 . S
N52 C57 1.363 . S
N53 C55 1.371 . S
N53 C56 1.372 . S
N54 C56 1.361 . S
N54 C57 1.377 . S
C55 N52 1.382 . S
C55 N53 1.371 . S
C55 C58 1.480 . S
C56 N53 1.372 . S
C56 N54 1.361 . S
C56 C64 1.457 . S
C57 N52 1.363 . S
C57 N54 1.377 . S
C57 C70 1.479 . S
C58 C55 1.480 . S
C58 C59 1.383 . S
C58 C63 1.385 . S
C59 H40 0.947 . S
C59 C58 1.383 . S
C59 C60 1.388 . S
C60 H41 0.946 . S
C60 C59 1.388 . S
C60 C61 1.384 . S
C61 C60 1.384 . S
C61 C62 1.377 . S
C62 H42 0.953 . S
C62 C61 1.377 . S
C62 C63 1.369 . S
C63 H43 0.945 . S
C63 C58 1.385 . S
C63 C62 1.369 . S
C64 C56 1.457 . S
C64 C65 1.372 . S
C64 C69 1.364 . S
C65 H44 0.952 . S
C65 C64 1.372 . S
C65 C66 1.389 . S
C66 H45 0.949 . S
C66 C65 1.389 . S
C66 C67 1.387 . S
C67 C66 1.387 . S
C67 C68 1.372 . S
C68 H46 0.950 . S
C68 C67 1.372 . S
C68 C69 1.379 . S
C69 H47 0.948 . S
C69 C64 1.364 . S
C69 C68 1.379 . S
C70 C39 1.383 . S
C70 C57 1.479 . S
C70 C71 1.398 . S
C71 C36 1.382 . S
C71 H48 0.951 . S
C71 C70 1.398 . S
C72 C73 1.384 . S
C72 H85 0.947 . S
C72 C107 1.382 . S
C73 C72 1.384 . S
C73 C74 1.378 . S
C74 C73 1.378 . S
C74 C75 1.378 . S
C74 H86 0.952 . S
C75 C74 1.378 . S
C75 H87 0.950 . S
C75 C106 1.383 . S
H76 C95 0.947 . S
H77 C96 0.946 . S
H78 C98 0.953 . S
H79 C99 0.945 . S
H80 C101 0.952 . S
H81 C102 0.949 . S
H82 C104 0.950 . S
H83 C105 0.948 . S
H84 C107 0.951 . S
H85 C72 0.947 . S
H86 C74 0.952 . S
H87 C75 0.950 . S
N88 C91 1.382 . S
N88 C93 1.363 . S
N89 C91 1.371 . S
N89 C92 1.372 . S
N90 C92 1.361 . S
N90 C93 1.377 . S
C91 N88 1.382 . S
C91 N89 1.371 . S
C91 C94 1.480 . S
C92 N89 1.372 . S
C92 N90 1.361 . S
C92 C100 1.457 . S
C93 N88 1.363 . S
C93 N90 1.377 . S
C93 C106 1.479 . S
C94 C91 1.480 . S
C94 C95 1.383 . S
C94 C99 1.385 . S
C95 H76 0.947 . S
C95 C94 1.383 . S
C95 C96 1.388 . S
C96 H77 0.946 . S
C96 C95 1.388 . S
C96 C97 1.384 . S
C97 C96 1.384 . S
C97 C98 1.377 . S
C98 H78 0.953 . S
C98 C97 1.377 . S
C98 C99 1.369 . S
C99 H79 0.945 . S
C99 C94 1.385 . S
C99 C98 1.369 . S
C100 C92 1.457 . S
C100 C101 1.372 . S
C100 C105 1.364 . S
C101 H80 0.952 . S
C101 C100 1.372 . S
C101 C102 1.389 . S
C102 H81 0.949 . S
C102 C101 1.389 . S
C102 C103 1.387 . S
C103 C102 1.387 . S
C103 C104 1.372 . S
C104 H82 0.950 . S
C104 C103 1.372 . S
C104 C105 1.379 . S
C105 H83 0.948 . S
C105 C100 1.364 . S
C105 C104 1.379 . S
C106 C75 1.383 . S
C106 C93 1.479 . S
C106 C107 1.398 . S
C107 C72 1.382 . S
C107 H84 0.951 . S
C107 C106 1.398 . S
C108 C109 1.384 . S
C108 H121 0.947 . S
C108 C143 1.382 . S
C109 C108 1.384 . S
C109 C110 1.378 . S
C110 C109 1.378 . S
C110 C111 1.378 . S
C110 H122 0.952 . S
C111 C110 1.378 . S
C111 H123 0.950 . S
C111 C142 1.383 . S
H112 C131 0.947 . S
H113 C132 0.946 . S
H114 C134 0.953 . S
H115 C135 0.945 . S
H116 C137 0.952 . S
H117 C138 0.949 . S
H118 C140 0.950 . S
H119 C141 0.948 . S
H120 C143 0.951 . S
H121 C108 0.947 . S
H122 C110 0.952 . S
H123 C111 0.950 . S
N124 C127 1.382 . S
N124 C129 1.363 . S
N125 C127 1.371 . S
N125 C128 1.372 . S
N126 C128 1.361 . S
N126 C129 1.377 . S
C127 N124 1.382 . S
C127 N125 1.371 . S
C127 C130 1.480 . S
C128 N125 1.372 . S
C128 N126 1.361 . S
C128 C136 1.457 . S
C129 N124 1.363 . S
C129 N126 1.377 . S
C129 C142 1.479 . S
C130 C127 1.480 . S
C130 C131 1.383 . S
C130 C135 1.385 . S
C131 H112 0.947 . S
C131 C130 1.383 . S
C131 C132 1.388 . S
C132 H113 0.946 . S
C132 C131 1.388 . S
C132 C133 1.384 . S
C133 C132 1.384 . S
C133 C134 1.377 . S
C134 H114 0.953 . S
C134 C133 1.377 . S
C134 C135 1.369 . S
C135 H115 0.945 . S
C135 C130 1.385 . S
C135 C134 1.369 . S
C136 C128 1.457 . S
C136 C137 1.372 . S
C136 C141 1.364 . S
C137 H116 0.952 . S
C137 C136 1.372 . S
C137 C138 1.389 . S
C138 H117 0.949 . S
C138 C137 1.389 . S
C138 C139 1.387 . S
C139 C138 1.387 . S
C139 C140 1.372 . S
C140 H118 0.950 . S
C140 C139 1.372 . S
C140 C141 1.379 . S
C141 H119 0.948 . S
C141 C136 1.364 . S
C141 C140 1.379 . S
C142 C111 1.383 . S
C142 C129 1.479 . S
C142 C143 1.398 . S
C143 C108 1.382 . S
C143 H120 0.951 . S
C143 C142 1.398 . S
C144 C145 1.384 . S
C144 H157 0.947 . S
C144 C179 1.382 . S
C145 C144 1.384 . S
C145 C146 1.378 . S
C146 C145 1.378 . S
C146 C147 1.378 . S
C146 H158 0.952 . S
C147 C146 1.378 . S
C147 H159 0.950 . S
C147 C178 1.383 . S
H148 C167 0.947 . S
H149 C168 0.946 . S
H150 C170 0.953 . S
H151 C171 0.945 . S
H152 C173 0.952 . S
H153 C174 0.949 . S
H154 C176 0.950 . S
H155 C177 0.948 . S
H156 C179 0.951 . S
H157 C144 0.947 . S
H158 C146 0.952 . S
H159 C147 0.950 . S
N160 C163 1.382 . S
N160 C165 1.363 . S
N161 C163 1.371 . S
N161 C164 1.372 . S
N162 C164 1.361 . S
N162 C165 1.377 . S
C163 N160 1.382 . S
C163 N161 1.371 . S
C163 C166 1.480 . S
C164 N161 1.372 . S
C164 N162 1.361 . S
C164 C172 1.457 . S
C165 N160 1.363 . S
C165 N162 1.377 . S
C165 C178 1.479 . S
C166 C163 1.480 . S
C166 C167 1.383 . S
C166 C171 1.385 . S
C167 H148 0.947 . S
C167 C166 1.383 . S
C167 C168 1.388 . S
C168 H149 0.946 . S
C168 C167 1.388 . S
C168 C169 1.384 . S
C169 C168 1.384 . S
C169 C170 1.377 . S
C170 H150 0.953 . S
C170 C169 1.377 . S
C170 C171 1.369 . S
C171 H151 0.945 . S
C171 C166 1.385 . S
C171 C170 1.369 . S
C172 C164 1.457 . S
C172 C173 1.372 . S
C172 C177 1.364 . S
C173 H152 0.952 . S
C173 C172 1.372 . S
C173 C174 1.389 . S
C174 H153 0.949 . S
C174 C173 1.389 . S
C174 C175 1.387 . S
C175 C174 1.387 . S
C175 C176 1.372 . S
C176 H154 0.950 . S
C176 C175 1.372 . S
C176 C177 1.379 . S
C177 H155 0.948 . S
C177 C172 1.364 . S
C177 C176 1.379 . S
C178 C147 1.383 . S
C178 C165 1.479 . S
C178 C179 1.398 . S
C179 C144 1.382 . S
C179 H156 0.951 . S
C179 C178 1.398 . S
C180 C181 1.384 . S
C180 H193 0.947 . S
C180 C215 1.382 . S
C181 C180 1.384 . S
C181 C182 1.378 . S
C182 C181 1.378 . S
C182 C183 1.378 . S
C182 H194 0.952 . S
C183 C182 1.378 . S
C183 H195 0.950 . S
C183 C214 1.383 . S
H184 C203 0.947 . S
H185 C204 0.946 . S
H186 C206 0.953 . S
H187 C207 0.945 . S
H188 C209 0.952 . S
H189 C210 0.949 . S
H190 C212 0.950 . S
H191 C213 0.948 . S
H192 C215 0.951 . S
H193 C180 0.947 . S
H194 C182 0.952 . S
H195 C183 0.950 . S
N196 C199 1.382 . S
N196 C201 1.363 . S
N197 C199 1.371 . S
N197 C200 1.372 . S
N198 C200 1.361 . S
N198 C201 1.377 . S
C199 N196 1.382 . S
C199 N197 1.371 . S
C199 C202 1.480 . S
C200 N197 1.372 . S
C200 N198 1.361 . S
C200 C208 1.457 . S
C201 N196 1.363 . S
C201 N198 1.377 . S
C201 C214 1.479 . S
C202 C199 1.480 . S
C202 C203 1.383 . S
C202 C207 1.385 . S
C203 H184 0.947 . S
C203 C202 1.383 . S
C203 C204 1.388 . S
C204 H185 0.946 . S
C204 C203 1.388 . S
C204 C205 1.384 . S
C205 C204 1.384 . S
C205 C206 1.377 . S
C206 H186 0.953 . S
C206 C205 1.377 . S
C206 C207 1.369 . S
C207 H187 0.945 . S
C207 C202 1.385 . S
C207 C206 1.369 . S
C208 C200 1.457 . S
C208 C209 1.372 . S
C208 C213 1.364 . S
C209 H188 0.952 . S
C209 C208 1.372 . S
C209 C210 1.389 . S
C210 H189 0.949 . S
C210 C209 1.389 . S
C210 C211 1.387 . S
C211 C210 1.387 . S
C211 C212 1.372 . S
C212 H190 0.950 . S
C212 C211 1.372 . S
C212 C213 1.379 . S
C213 H191 0.948 . S
C213 C208 1.364 . S
C213 C212 1.379 . S
C214 C183 1.383 . S
C214 C201 1.479 . S
C214 C215 1.398 . S
C215 C180 1.382 . S
C215 H192 0.951 . S
C215 C214 1.398 . S
C216 C217 1.384 . S
C216 H229 0.947 . S
C216 C251 1.382 . S
C217 C216 1.384 . S
C217 C218 1.378 . S
C218 C217 1.378 . S
C218 C219 1.378 . S
C218 H230 0.952 . S
C219 C218 1.378 . S
C219 H231 0.950 . S
C219 C250 1.383 . S
H220 C239 0.947 . S
H221 C240 0.946 . S
H222 C242 0.953 . S
H223 C243 0.945 . S
H224 C245 0.952 . S
H225 C246 0.949 . S
H226 C248 0.950 . S
H227 C249 0.948 . S
H228 C251 0.951 . S
H229 C216 0.947 . S
H230 C218 0.952 . S
H231 C219 0.950 . S
N232 C235 1.382 . S
N232 C237 1.363 . S
N233 C235 1.371 . S
N233 C236 1.372 . S
N234 C236 1.361 . S
N234 C237 1.377 . S
C235 N232 1.382 . S
C235 N233 1.371 . S
C235 C238 1.480 . S
C236 N233 1.372 . S
C236 N234 1.361 . S
C236 C244 1.457 . S
C237 N232 1.363 . S
C237 N234 1.377 . S
C237 C250 1.479 . S
C238 C235 1.480 . S
C238 C239 1.383 . S
C238 C243 1.385 . S
C239 H220 0.947 . S
C239 C238 1.383 . S
C239 C240 1.388 . S
C240 H221 0.946 . S
C240 C239 1.388 . S
C240 C241 1.384 . S
C241 C240 1.384 . S
C241 C242 1.377 . S
C242 H222 0.953 . S
C242 C241 1.377 . S
C242 C243 1.369 . S
C243 H223 0.945 . S
C243 C238 1.385 . S
C243 C242 1.369 . S
C244 C236 1.457 . S
C244 C245 1.372 . S
C244 C249 1.364 . S
C245 H224 0.952 . S
C245 C244 1.372 . S
C245 C246 1.389 . S
C246 H225 0.949 . S
C246 C245 1.389 . S
C246 C247 1.387 . S
C247 C246 1.387 . S
C247 C248 1.372 . S
C248 H226 0.950 . S
C248 C247 1.372 . S
C248 C249 1.379 . S
C249 H227 0.948 . S
C249 C244 1.364 . S
C249 C248 1.379 . S
C250 C219 1.383 . S
C250 C237 1.479 . S
C250 C251 1.398 . S
C251 C216 1.382 . S
C251 H228 0.951 . S
C251 C250 1.398 . S
C252 C253 1.384 . S
C252 H265 0.947 . S
C252 C287 1.382 . S
C253 C252 1.384 . S
C253 C254 1.378 . S
C254 C253 1.378 . S
C254 C255 1.378 . S
C254 H266 0.952 . S
C255 C254 1.378 . S
C255 H267 0.950 . S
C255 C286 1.383 . S
H256 C275 0.947 . S
H257 C276 0.946 . S
H258 C278 0.953 . S
H259 C279 0.945 . S
H260 C281 0.952 . S
H261 C282 0.949 . S
H262 C284 0.950 . S
H263 C285 0.948 . S
H264 C287 0.951 . S
H265 C252 0.947 . S
H266 C254 0.952 . S
H267 C255 0.950 . S
N268 C271 1.382 . S
N268 C273 1.363 . S
N269 C271 1.371 . S
N269 C272 1.372 . S
N270 C272 1.361 . S
N270 C273 1.377 . S
C271 N268 1.382 . S
C271 N269 1.371 . S
C271 C274 1.480 . S
C272 N269 1.372 . S
C272 N270 1.361 . S
C272 C280 1.457 . S
C273 N268 1.363 . S
C273 N270 1.377 . S
C273 C286 1.479 . S
C274 C271 1.480 . S
C274 C275 1.383 . S
C274 C279 1.385 . S
C275 H256 0.947 . S
C275 C274 1.383 . S
C275 C276 1.388 . S
C276 H257 0.946 . S
C276 C275 1.388 . S
C276 C277 1.384 . S
C277 C276 1.384 . S
C277 C278 1.377 . S
C278 H258 0.953 . S
C278 C277 1.377 . S
C278 C279 1.369 . S
C279 H259 0.945 . S
C279 C274 1.385 . S
C279 C278 1.369 . S
C280 C272 1.457 . S
C280 C281 1.372 . S
C280 C285 1.364 . S
C281 H260 0.952 . S
C281 C280 1.372 . S
C281 C282 1.389 . S
C282 H261 0.949 . S
C282 C281 1.389 . S
C282 C283 1.387 . S
C283 C282 1.387 . S
C283 C284 1.372 . S
C284 H262 0.950 . S
C284 C283 1.372 . S
C284 C285 1.379 . S
C285 H263 0.948 . S
C285 C280 1.364 . S
C285 C284 1.379 . S
C286 C255 1.383 . S
C286 C273 1.479 . S
C286 C287 1.398 . S
C287 C252 1.382 . S
C287 H264 0.951 . S
C287 C286 1.398 . S
Tb288 C297 2.764 . S
Tb288 O298 2.301 1_455 S
Tb288 O301 2.303 . S
Tb288 O305 2.322 1_545 S
Tb288 O306 2.349 1_545 S
Tb288 O309 2.415 . S
Tb288 O310 2.399 . S
Tb289 O299 2.341 . S
Tb289 O300 2.371 . S
Tb289 O302 2.392 1_545 S
Tb289 O303 2.397 1_545 S
Tb289 O304 2.310 1_645 S
Tb289 O307 2.286 1_545 S
Tb289 C318 2.750 1_545 S
C290 O306 1.261 1_655 S
C290 O307 1.257 . S
C291 C294 1.358 . S
C291 C295 1.332 . S
C291 C297 1.504 . S
C292 C293 1.373 . S
C292 C296 1.308 . S
C293 C292 1.373 . S
C293 C294 1.429 . S
C293 H320 0.932 . S
C294 C291 1.358 . S
C294 C293 1.429 . S
C294 H321 0.930 . S
C295 C291 1.332 . S
C295 C296 1.394 . S
C295 H322 0.932 . S
C296 C292 1.308 . S
C296 C295 1.394 . S
C296 H323 0.929 . S
C297 Tb288 2.764 . S
C297 C291 1.504 . S
C297 O309 1.239 . S
C297 O310 1.263 . S
O298 Tb288 2.301 1_655 S
O298 C308 1.260 . S
O299 Tb289 2.341 . S
O299 C308 1.257 . S
O300 Tb289 2.371 . S
O300 C311 1.261 1_655 S
O301 Tb288 2.303 . S
O301 C311 1.257 . S
O302 Tb289 2.392 1_565 S
O302 C318 1.239 . S
O303 Tb289 2.397 1_565 S
O303 C318 1.263 . S
O304 Tb289 2.310 1_465 S
O304 C319 1.236 . S
O305 Tb288 2.322 1_565 S
O305 C319 1.257 . S
O306 Tb288 2.349 1_565 S
O306 C290 1.261 1_455 S
O307 Tb289 2.286 1_565 S
O307 C290 1.257 . S
C308 O298 1.260 . S
C308 O299 1.257 . S
O309 Tb288 2.415 . S
O309 C297 1.239 . S
O310 Tb288 2.399 . S
O310 C297 1.263 . S
C311 O300 1.261 1_455 S
C311 O301 1.257 . S
C312 C315 1.358 . S
C312 C316 1.332 . S
C312 C318 1.504 . S
C313 C314 1.373 . S
C313 C317 1.308 . S
C314 C313 1.373 . S
C314 C315 1.429 . S
C314 H324 0.932 . S
C315 C312 1.358 . S
C315 C314 1.429 . S
C315 H325 0.930 . S
C316 C312 1.332 . S
C316 C317 1.394 . S
C316 H326 0.932 . S
C317 C313 1.308 . S
C317 C316 1.394 . S
C317 H327 0.929 . S
C318 Tb289 2.750 1_565 S
C318 O302 1.239 . S
C318 O303 1.263 . S
C318 C312 1.504 . S
C319 O304 1.236 . S
C319 O305 1.257 . S
H320 C293 0.932 . S
H321 C294 0.930 . S
H322 C295 0.932 . S
H323 C296 0.929 . S
H324 C314 0.932 . S
H325 C315 0.930 . S
H326 C316 0.932 . S
H327 C317 0.929 . S
Tb328 C337 2.764 . S
Tb328 O338 2.325 1_554 S
Tb328 O341 2.303 . S
Tb328 O345 2.322 1_545 S
Tb328 O346 2.362 1_545 S
Tb328 O349 2.415 . S
Tb328 O350 2.399 . S
Tb329 O339 2.322 1_565 S
Tb329 O340 2.349 1_566 S
Tb329 O342 2.415 . S
Tb329 O343 2.399 . S
Tb329 O344 2.325 1_556 S
Tb329 O347 2.303 . S
Tb329 C358 2.764 . S
C330 O346 1.246 1_556 S
C330 O347 1.257 . S
C331 C334 1.358 . S
C331 C335 1.332 . S
C331 C337 1.504 . S
C332 C333 1.373 . S
C332 C336 1.308 . S
C333 C332 1.373 . S
C333 C334 1.429 . S
C333 H360 0.932 . S
C334 C331 1.358 . S
C334 C333 1.429 . S
C334 H361 0.930 . S
C335 C331 1.332 . S
C335 C336 1.394 . S
C335 H362 0.932 . S
C336 C332 1.308 . S
C336 C335 1.394 . S
C336 H363 0.929 . S
C337 Tb328 2.764 . S
C337 C331 1.504 . S
C337 O349 1.239 . S
C337 O350 1.263 . S
O338 Tb328 2.325 1_556 S
O338 C348 1.236 . S
O339 Tb329 2.322 1_545 S
O339 C348 1.257 . S
O340 Tb329 2.349 1_544 S
O340 C351 1.261 . S
O341 Tb328 2.303 . S
O341 C351 1.257 . S
O342 Tb329 2.415 . S
O342 C358 1.239 . S
O343 Tb329 2.399 . S
O343 C358 1.263 . S
O344 Tb329 2.325 1_554 S
O344 C359 1.236 . S
O345 Tb328 2.322 1_565 S
O345 C359 1.257 . S
O346 Tb328 2.362 1_565 S
O346 C330 1.246 1_554 S
O347 Tb329 2.303 . S
O347 C330 1.257 . S
C348 O338 1.236 . S
C348 O339 1.257 . S
O349 Tb328 2.415 . S
O349 C337 1.239 . S
O350 Tb328 2.399 . S
O350 C337 1.263 . S
C351 O340 1.261 . S
C351 O341 1.257 . S
C352 C355 1.358 . S
C352 C356 1.332 . S
C352 C358 1.504 . S
C353 C354 1.373 . S
C353 C357 1.308 . S
C354 C353 1.373 . S
C354 C355 1.429 . S
C354 H364 0.932 . S
C355 C352 1.358 . S
C355 C354 1.429 . S
C355 H365 0.930 . S
C356 C352 1.332 . S
C356 C357 1.394 . S
C356 H366 0.932 . S
C357 C353 1.308 . S
C357 C356 1.394 . S
C357 H367 0.929 . S
C358 Tb329 2.764 . S
C358 O342 1.239 . S
C358 O343 1.263 . S
C358 C352 1.504 . S
C359 O344 1.236 . S
C359 O345 1.257 . S
H360 C333 0.932 . S
H361 C334 0.930 . S
H362 C335 0.932 . S
H363 C336 0.929 . S
H364 C354 0.932 . S
H365 C355 0.930 . S
H366 C356 0.932 . S
H367 C357 0.929 . S
Tb368 C377 2.764 . S
Tb368 O378 2.325 . S
Tb368 O381 2.303 . S
Tb368 O385 2.322 . S
Tb368 O386 2.349 . S
Tb368 O389 2.415 . S
Tb368 O390 2.399 . S
Tb369 O379 2.322 . S
Tb369 O380 2.349 . S
Tb369 O382 2.415 . S
Tb369 O383 2.399 . S
Tb369 O384 2.325 . S
Tb369 O387 2.303 . S
Tb369 C398 2.764 . S
C370 O386 1.261 . S
C370 O387 1.257 . S
C371 C374 1.358 . S
C371 C375 1.332 . S
C371 C377 1.504 . S
C372 C373 1.373 . S
C372 C376 1.308 . S
C373 C372 1.373 . S
C373 C374 1.429 . S
C373 H400 0.932 . S
C374 C371 1.358 . S
C374 C373 1.429 . S
C374 H401 0.930 . S
C375 C371 1.332 . S
C375 C376 1.394 . S
C375 H402 0.932 . S
C376 C372 1.308 . S
C376 C375 1.394 . S
C376 H403 0.929 . S
C377 Tb368 2.764 . S
C377 C371 1.504 . S
C377 O389 1.239 . S
C377 O390 1.263 . S
O378 Tb368 2.325 . S
O378 C388 1.236 . S
O379 Tb369 2.322 . S
O379 C388 1.257 . S
O380 Tb369 2.349 . S
O380 C391 1.261 . S
O381 Tb368 2.303 . S
O381 C391 1.257 . S
O382 Tb369 2.415 . S
O382 C398 1.239 . S
O383 Tb369 2.399 . S
O383 C398 1.263 . S
O384 Tb369 2.325 . S
O384 C399 1.236 . S
O385 Tb368 2.322 . S
O385 C399 1.257 . S
O386 Tb368 2.349 . S
O386 C370 1.261 . S
O387 Tb369 2.303 . S
O387 C370 1.257 . S
C388 O378 1.236 . S
C388 O379 1.257 . S
O389 Tb368 2.415 . S
O389 C377 1.239 . S
O390 Tb368 2.399 . S
O390 C377 1.263 . S
C391 O380 1.261 . S
C391 O381 1.257 . S
C392 C395 1.358 . S
C392 C396 1.332 . S
C392 C398 1.504 . S
C393 C394 1.373 . S
C393 C397 1.308 . S
C394 C393 1.373 . S
C394 C395 1.429 . S
C394 H404 0.932 . S
C395 C392 1.358 . S
C395 C394 1.429 . S
C395 H405 0.930 . S
C396 C392 1.332 . S
C396 C397 1.394 . S
C396 H406 0.932 . S
C397 C393 1.308 . S
C397 C396 1.394 . S
C397 H407 0.929 . S
C398 Tb369 2.764 . S
C398 O382 1.239 . S
C398 O383 1.263 . S
C398 C392 1.504 . S
C399 O384 1.236 . S
C399 O385 1.257 . S
H400 C373 0.932 . S
H401 C374 0.930 . S
H402 C375 0.932 . S
H403 C376 0.929 . S
H404 C394 0.932 . S
H405 C395 0.930 . S
H406 C396 0.932 . S
H407 C397 0.929 . S
Tb408 C417 2.764 1_455 S
Tb408 O418 2.325 1_455 S
Tb408 O421 2.303 1_456 S
Tb408 O425 2.322 1_556 S
Tb408 O426 2.349 . S
Tb408 O429 2.415 1_455 S
Tb408 O430 2.399 1_455 S
Tb409 O419 2.322 1_455 S
Tb409 O420 2.349 1_455 S
Tb409 O422 2.415 . S
Tb409 O423 2.399 . S
Tb409 O424 2.325 . S
Tb409 O427 2.303 1_554 S
Tb409 C438 2.764 . S
C410 O426 1.261 . S
C410 O427 1.257 . S
C411 C414 1.358 . S
C411 C415 1.332 . S
C411 C417 1.504 . S
C412 C413 1.373 . S
C412 C416 1.308 . S
C413 C412 1.373 . S
C413 C414 1.429 . S
C413 H440 0.932 . S
C414 C411 1.358 . S
C414 C413 1.429 . S
C414 H441 0.930 . S
C415 C411 1.332 . S
C415 C416 1.394 . S
C415 H442 0.932 . S
C416 C412 1.308 . S
C416 C415 1.394 . S
C416 H443 0.929 . S
C417 Tb408 2.764 1_655 S
C417 C411 1.504 . S
C417 O429 1.239 . S
C417 O430 1.263 . S
O418 Tb408 2.325 1_655 S
O418 C428 1.236 . S
O419 Tb409 2.322 1_655 S
O419 C428 1.257 1_554 S
O420 Tb409 2.349 1_655 S
O420 C431 1.261 . S
O421 Tb408 2.303 1_654 S
O421 C431 1.257 . S
O422 Tb409 2.415 . S
O422 C438 1.239 . S
O423 Tb409 2.399 . S
O423 C438 1.263 . S
O424 Tb409 2.325 . S
O424 C439 1.236 . S
O425 Tb408 2.322 1_554 S
O425 C439 1.257 . S
O426 Tb408 2.349 . S
O426 C410 1.261 . S
O427 Tb409 2.303 1_556 S
O427 C410 1.257 . S
C428 O418 1.236 . S
C428 O419 1.257 1_556 S
O429 Tb408 2.415 1_655 S
O429 C417 1.239 . S
O430 Tb408 2.399 1_655 S
O430 C417 1.263 . S
C431 O420 1.261 . S
C431 O421 1.257 . S
C432 C435 1.358 . S
C432 C436 1.332 . S
C432 C438 1.504 . S
C433 C434 1.373 . S
C433 C437 1.308 . S
C434 C433 1.373 . S
C434 C435 1.429 . S
C434 H444 0.932 . S
C435 C432 1.358 . S
C435 C434 1.429 . S
C435 H445 0.930 . S
C436 C432 1.332 . S
C436 C437 1.394 . S
C436 H446 0.932 . S
C437 C433 1.308 . S
C437 C436 1.394 . S
C437 H447 0.929 . S
C438 Tb409 2.764 . S
C438 O422 1.239 . S
C438 O423 1.263 . S
C438 C432 1.504 . S
C439 O424 1.236 . S
C439 O425 1.257 . S
H440 C413 0.932 . S
H441 C414 0.930 . S
H442 C415 0.932 . S
H443 C416 0.929 . S
H444 C434 0.932 . S
H445 C435 0.930 . S
H446 C436 0.932 . S
H447 C437 0.929 . S
C448 C449 1.391 . S
C448 C450 1.394 . S
C448 H464 0.931 . S
C449 C448 1.391 . S
C449 C453 1.376 . S
C450 C448 1.394 . S
C450 C451 1.369 . S
C450 C454 1.531 . S
C451 C450 1.369 . S
C451 C452 1.410 . S
C451 C459 1.503 . S
C452 C451 1.410 . S
C452 C453 1.392 . S
C452 C455 1.511 . S
C453 C449 1.376 . S
C453 C452 1.392 . S
C453 H465 0.929 . S
C454 C450 1.531 . S
C454 H466 0.960 . S
C454 H467 0.962 . S
C454 H468 0.960 . S
C455 C452 1.511 . S
C455 H469 0.961 . S
C455 H470 0.961 . S
C455 H471 0.961 . S
C456 C457 1.370 . S
C456 C458 1.363 . S
C456 H472 0.931 . S
C457 C456 1.370 . S
C457 C461 1.408 . S
C458 C456 1.363 . S
C458 C459 1.370 . S
C458 C462 1.524 . S
C459 C451 1.503 . S
C459 C458 1.370 . S
C459 C460 1.403 . S
C460 C459 1.403 . S
C460 C461 1.404 . S
C460 C463 1.539 . S
C461 C457 1.408 . S
C461 C460 1.404 . S
C461 H473 0.930 . S
C462 C458 1.524 . S
C462 H474 0.956 . S
C462 H475 0.961 . S
C462 H476 0.961 . S
C463 C460 1.539 . S
C463 H477 0.958 . S
C463 H478 0.961 . S
C463 H479 0.960 . S
H464 C448 0.931 . S
H465 C453 0.929 . S
H466 C454 0.960 . S
H467 C454 0.962 . S
H468 C454 0.960 . S
H469 C455 0.961 . S
H470 C455 0.961 . S
H471 C455 0.961 . S
H472 C456 0.931 . S
H473 C461 0.930 . S
H474 C462 0.956 . S
H475 C462 0.961 . S
H476 C462 0.961 . S
H477 C463 0.958 . S
H478 C463 0.961 . S
H479 C463 0.960 . S
C480 C481 1.391 . S
C480 C482 1.394 . S
C480 H496 0.931 . S
C481 C480 1.391 . S
C481 C485 1.376 . S
C482 C480 1.394 . S
C482 C483 1.369 . S
C482 C486 1.531 . S
C483 C482 1.369 . S
C483 C484 1.410 . S
C483 C491 1.503 . S
C484 C483 1.410 . S
C484 C485 1.392 . S
C484 C487 1.511 . S
C485 C481 1.376 . S
C485 C484 1.392 . S
C485 H497 0.929 . S
C486 C482 1.531 . S
C486 H498 0.960 . S
C486 H499 0.962 . S
C486 H500 0.960 . S
C487 C484 1.511 . S
C487 H501 0.961 . S
C487 H502 0.961 . S
C487 H503 0.961 . S
C488 C489 1.370 . S
C488 C490 1.363 . S
C488 H504 0.931 . S
C489 C488 1.370 . S
C489 C493 1.408 . S
C490 C488 1.363 . S
C490 C491 1.370 . S
C490 C494 1.524 . S
C491 C483 1.503 . S
C491 C490 1.370 . S
C491 C492 1.403 . S
C492 C491 1.403 . S
C492 C493 1.404 . S
C492 C495 1.539 . S
C493 C489 1.408 . S
C493 C492 1.404 . S
C493 H505 0.930 . S
C494 C490 1.524 . S
C494 H506 0.956 . S
C494 H507 0.961 . S
C494 H508 0.961 . S
C495 C492 1.539 . S
C495 H509 0.958 . S
C495 H510 0.961 . S
C495 H511 0.960 . S
H496 C480 0.931 . S
H497 C485 0.929 . S
H498 C486 0.960 . S
H499 C486 0.962 . S
H500 C486 0.960 . S
H501 C487 0.961 . S
H502 C487 0.961 . S
H503 C487 0.961 . S
H504 C488 0.931 . S
H505 C493 0.930 . S
H506 C494 0.956 . S
H507 C494 0.961 . S
H508 C494 0.961 . S
H509 C495 0.958 . S
H510 C495 0.961 . S
H511 C495 0.960 . S
C512 C513 1.391 . S
C512 C514 1.394 . S
C512 H528 0.931 . S
C513 C512 1.391 . S
C513 C517 1.376 . S
C514 C512 1.394 . S
C514 C515 1.369 . S
C514 C518 1.531 . S
C515 C514 1.369 . S
C515 C516 1.410 . S
C515 C523 1.503 . S
C516 C515 1.410 . S
C516 C517 1.392 . S
C516 C519 1.511 . S
C517 C513 1.376 . S
C517 C516 1.392 . S
C517 H529 0.929 . S
C518 C514 1.531 . S
C518 H530 0.960 . S
C518 H531 0.962 . S
C518 H532 0.960 . S
C519 C516 1.511 . S
C519 H533 0.961 . S
C519 H534 0.961 . S
C519 H535 0.961 . S
C520 C521 1.370 . S
C520 C522 1.363 . S
C520 H536 0.931 . S
C521 C520 1.370 . S
C521 C525 1.408 . S
C522 C520 1.363 . S
C522 C523 1.370 . S
C522 C526 1.524 . S
C523 C515 1.503 . S
C523 C522 1.370 . S
C523 C524 1.403 . S
C524 C523 1.403 . S
C524 C525 1.404 . S
C524 C527 1.539 . S
C525 C521 1.408 . S
C525 C524 1.404 . S
C525 H537 0.930 . S
C526 C522 1.524 . S
C526 H538 0.956 . S
C526 H539 0.961 . S
C526 H540 0.961 . S
C527 C524 1.539 . S
C527 H541 0.958 . S
C527 H542 0.961 . S
C527 H543 0.960 . S
H528 C512 0.931 . S
H529 C517 0.929 . S
H530 C518 0.960 . S
H531 C518 0.962 . S
H532 C518 0.960 . S
H533 C519 0.961 . S
H534 C519 0.961 . S
H535 C519 0.961 . S
H536 C520 0.931 . S
H537 C525 0.930 . S
H538 C526 0.956 . S
H539 C526 0.961 . S
H540 C526 0.961 . S
H541 C527 0.958 . S
H542 C527 0.961 . S
H543 C527 0.960 . S
C544 C545 1.391 . S
C544 C546 1.394 . S
C544 H560 0.931 . S
C545 C544 1.391 . S
C545 C549 1.376 . S
C546 C544 1.394 . S
C546 C547 1.369 . S
C546 C550 1.531 . S
C547 C546 1.369 . S
C547 C548 1.410 . S
C547 C555 1.503 . S
C548 C547 1.410 . S
C548 C549 1.392 . S
C548 C551 1.511 . S
C549 C545 1.376 . S
C549 C548 1.392 . S
C549 H561 0.929 . S
C550 C546 1.531 . S
C550 H562 0.960 . S
C550 H563 0.962 . S
C550 H564 0.960 . S
C551 C548 1.511 . S
C551 H565 0.961 . S
C551 H566 0.961 . S
C551 H567 0.961 . S
C552 C553 1.370 . S
C552 C554 1.363 . S
C552 H568 0.931 . S
C553 C552 1.370 . S
C553 C557 1.408 . S
C554 C552 1.363 . S
C554 C555 1.370 . S
C554 C558 1.524 . S
C555 C547 1.503 . S
C555 C554 1.370 . S
C555 C556 1.403 . S
C556 C555 1.403 . S
C556 C557 1.404 . S
C556 C559 1.539 . S
C557 C553 1.408 . S
C557 C556 1.404 . S
C557 H569 0.930 . S
C558 C554 1.524 . S
C558 H570 0.956 . S
C558 H571 0.961 . S
C558 H572 0.961 . S
C559 C556 1.539 . S
C559 H573 0.958 . S
C559 H574 0.961 . S
C559 H575 0.960 . S
H560 C544 0.931 . S
H561 C549 0.929 . S
H562 C550 0.960 . S
H563 C550 0.962 . S
H564 C550 0.960 . S
H565 C551 0.961 . S
H566 C551 0.961 . S
H567 C551 0.961 . S
H568 C552 0.931 . S
H569 C557 0.930 . S
H570 C558 0.956 . S
H571 C558 0.961 . S
H572 C558 0.961 . S
H573 C559 0.958 . S
H574 C559 0.961 . S
H575 C559 0.960 . S
C576 C577 1.391 . S
C576 C578 1.394 . S
C576 H592 0.931 . S
C577 C576 1.391 . S
C577 C581 1.376 . S
C578 C576 1.394 . S
C578 C579 1.369 . S
C578 C582 1.531 . S
C579 C578 1.369 . S
C579 C580 1.410 . S
C579 C587 1.503 . S
C580 C579 1.410 . S
C580 C581 1.392 . S
C580 C583 1.511 . S
C581 C577 1.376 . S
C581 C580 1.392 . S
C581 H593 0.929 . S
C582 C578 1.531 . S
C582 H594 0.960 . S
C582 H595 0.962 . S
C582 H596 0.960 . S
C583 C580 1.511 . S
C583 H597 0.961 . S
C583 H598 0.961 . S
C583 H599 0.961 . S
C584 C585 1.370 . S
C584 C586 1.363 . S
C584 H600 0.931 . S
C585 C584 1.370 . S
C585 C589 1.408 . S
C586 C584 1.363 . S
C586 C587 1.370 . S
C586 C590 1.524 . S
C587 C579 1.503 . S
C587 C586 1.370 . S
C587 C588 1.403 . S
C588 C587 1.403 . S
C588 C589 1.404 . S
C588 C591 1.539 . S
C589 C585 1.408 . S
C589 C588 1.404 . S
C589 H601 0.930 . S
C590 C586 1.524 . S
C590 H602 0.956 . S
C590 H603 0.961 . S
C590 H604 0.961 . S
C591 C588 1.539 . S
C591 H605 0.958 . S
C591 H606 0.961 . S
C591 H607 0.960 . S
H592 C576 0.931 . S
H593 C581 0.929 . S
H594 C582 0.960 . S
H595 C582 0.962 . S
H596 C582 0.960 . S
H597 C583 0.961 . S
H598 C583 0.961 . S
H599 C583 0.961 . S
H600 C584 0.931 . S
H601 C589 0.930 . S
H602 C590 0.956 . S
H603 C590 0.961 . S
H604 C590 0.961 . S
H605 C591 0.958 . S
H606 C591 0.961 . S
H607 C591 0.960 . S
C608 C609 1.391 . S
C608 C610 1.394 . S
C608 H624 0.931 . S
C609 C608 1.391 . S
C609 C613 1.376 . S
C610 C608 1.394 . S
C610 C611 1.369 . S
C610 C614 1.531 . S
C611 C610 1.369 . S
C611 C612 1.410 . S
C611 C619 1.503 . S
C612 C611 1.410 . S
C612 C613 1.392 . S
C612 C615 1.511 . S
C613 C609 1.376 . S
C613 C612 1.392 . S
C613 H625 0.929 . S
C614 C610 1.531 . S
C614 H626 0.960 . S
C614 H627 0.962 . S
C614 H628 0.960 . S
C615 C612 1.511 . S
C615 H629 0.959 . S
C615 H630 0.961 . S
C615 H631 0.961 1_455 S
C616 C617 1.370 . S
C616 C618 1.363 . S
C616 H632 0.931 . S
C617 C616 1.370 . S
C617 C621 1.408 . S
C618 C616 1.363 . S
C618 C619 1.370 . S
C618 C622 1.524 . S
C619 C611 1.503 . S
C619 C618 1.370 . S
C619 C620 1.403 . S
C620 C619 1.403 . S
C620 C621 1.404 . S
C620 C623 1.539 . S
C621 C617 1.408 . S
C621 C620 1.404 . S
C621 H633 0.930 . S
C622 C618 1.524 . S
C622 H634 0.956 . S
C622 H635 0.961 . S
C622 H636 0.961 . S
C623 C620 1.539 . S
C623 H637 0.958 . S
C623 H638 0.961 . S
C623 H639 0.960 . S
H624 C608 0.931 . S
H625 C613 0.929 . S
H626 C614 0.960 . S
H627 C614 0.962 . S
H628 C614 0.960 . S
H629 C615 0.959 . S
H630 C615 0.961 . S
H631 C615 0.961 1_655 S
H632 C616 0.931 . S
H633 C621 0.930 . S
H634 C622 0.956 . S
H635 C622 0.961 . S
H636 C622 0.961 . S
H637 C623 0.958 . S
H638 C623 0.961 . S
H639 C623 0.960 . S
C640 C641 1.391 . S
C640 C642 1.394 . S
C640 H656 0.931 . S
C641 C640 1.391 . S
C641 C645 1.376 . S
C642 C640 1.394 . S
C642 C643 1.369 . S
C642 C646 1.531 . S
C643 C642 1.369 . S
C643 C644 1.410 . S
C643 C651 1.503 . S
C644 C643 1.410 . S
C644 C645 1.392 . S
C644 C647 1.511 . S
C645 C641 1.376 . S
C645 C644 1.392 . S
C645 H657 0.929 . S
C646 C642 1.531 . S
C646 H658 0.960 . S
C646 H659 0.962 . S
C646 H660 0.960 . S
C647 C644 1.511 . S
C647 H661 0.961 . S
C647 H662 0.961 . S
C647 H663 0.961 . S
C648 C649 1.370 . S
C648 C650 1.363 . S
C648 H664 0.931 . S
C649 C648 1.370 . S
C649 C653 1.408 . S
C650 C648 1.363 . S
C650 C651 1.370 . S
C650 C654 1.524 . S
C651 C643 1.503 . S
C651 C650 1.370 . S
C651 C652 1.403 . S
C652 C651 1.403 . S
C652 C653 1.404 . S
C652 C655 1.539 . S
C653 C649 1.408 . S
C653 C652 1.404 . S
C653 H665 0.930 1_556 S
C654 C650 1.524 . S
C654 H666 0.956 . S
C654 H667 0.961 . S
C654 H668 0.961 . S
C655 C652 1.539 . S
C655 H669 0.958 1_556 S
C655 H670 0.961 . S
C655 H671 0.960 . S
H656 C640 0.931 . S
H657 C645 0.929 . S
H658 C646 0.960 . S
H659 C646 0.962 . S
H660 C646 0.960 . S
H661 C647 0.961 . S
H662 C647 0.961 . S
H663 C647 0.961 . S
H664 C648 0.931 . S
H665 C653 0.930 1_554 S
H666 C654 0.956 . S
H667 C654 0.961 . S
H668 C654 0.961 . S
H669 C655 0.958 1_554 S
H670 C655 0.961 . S
H671 C655 0.960 . S
C672 C673 1.391 . S
C672 C674 1.394 . S
C672 H688 0.931 . S
C673 C672 1.391 . S
C673 C677 1.376 . S
C674 C672 1.394 . S
C674 C675 1.369 . S
C674 C678 1.531 . S
C675 C674 1.369 . S
C675 C676 1.410 . S
C675 C683 1.503 . S
C676 C675 1.410 . S
C676 C677 1.392 . S
C676 C679 1.511 . S
C677 C673 1.376 . S
C677 C676 1.392 . S
C677 H689 0.929 . S
C678 C674 1.531 . S
C678 H690 0.960 . S
C678 H691 0.962 . S
C678 H692 0.960 . S
C679 C676 1.511 . S
C679 H693 0.961 . S
C679 H694 0.961 . S
C679 H695 0.961 . S
C680 C681 1.370 . S
C680 C682 1.363 . S
C680 H696 0.931 . S
C681 C680 1.370 . S
C681 C685 1.408 . S
C682 C680 1.363 . S
C682 C683 1.370 . S
C682 C686 1.524 . S
C683 C675 1.503 . S
C683 C682 1.370 . S
C683 C684 1.403 . S
C684 C683 1.403 . S
C684 C685 1.404 . S
C684 C687 1.539 . S
C685 C681 1.408 . S
C685 C684 1.404 . S
C685 H697 0.930 . S
C686 C682 1.524 . S
C686 H698 0.956 . S
C686 H699 0.961 . S
C686 H700 0.961 . S
C687 C684 1.539 . S
C687 H701 0.958 . S
C687 H702 0.961 . S
C687 H703 0.960 . S
H688 C672 0.931 . S
H689 C677 0.929 . S
H690 C678 0.960 . S
H691 C678 0.962 . S
H692 C678 0.960 . S
H693 C679 0.961 . S
H694 C679 0.961 . S
H695 C679 0.961 . S
H696 C680 0.931 . S
H697 C685 0.930 . S
H698 C686 0.956 . S
H699 C686 0.961 . S
H700 C686 0.961 . S
H701 C687 0.958 . S
H702 C687 0.961 . S
H703 C687 0.960 . S
C704 C705 1.391 . S
C704 C706 1.394 . S
C704 H720 0.931 . S
C705 C704 1.391 . S
C705 C709 1.376 . S
C706 C704 1.394 . S
C706 C707 1.369 . S
C706 C710 1.531 . S
C707 C706 1.369 . S
C707 C708 1.410 . S
C707 C715 1.503 . S
C708 C707 1.410 . S
C708 C709 1.392 . S
C708 C711 1.511 . S
C709 C705 1.376 . S
C709 C708 1.392 . S
C709 H721 0.929 . S
C710 C706 1.531 . S
C710 H722 0.960 . S
C710 H723 0.962 . S
C710 H724 0.960 . S
C711 C708 1.511 . S
C711 H725 0.961 . S
C711 H726 0.961 . S
C711 H727 0.961 . S
C712 C713 1.370 . S
C712 C714 1.363 . S
C712 H728 0.931 . S
C713 C712 1.370 . S
C713 C717 1.408 . S
C714 C712 1.363 . S
C714 C715 1.370 . S
C714 C718 1.524 . S
C715 C707 1.503 . S
C715 C714 1.370 . S
C715 C716 1.403 . S
C716 C715 1.403 . S
C716 C717 1.404 . S
C716 C719 1.539 . S
C717 C713 1.408 . S
C717 C716 1.404 . S
C717 H729 0.930 . S
C718 C714 1.524 . S
C718 H730 0.956 . S
C718 H731 0.961 . S
C718 H732 0.961 . S
C719 C716 1.539 . S
C719 H733 0.958 . S
C719 H734 0.961 . S
C719 H735 0.960 . S
H720 C704 0.931 . S
H721 C709 0.929 . S
H722 C710 0.960 . S
H723 C710 0.962 . S
H724 C710 0.960 . S
H725 C711 0.961 . S
H726 C711 0.961 . S
H727 C711 0.961 . S
H728 C712 0.931 . S
H729 C717 0.930 . S
H730 C718 0.956 . S
H731 C718 0.961 . S
H732 C718 0.961 . S
H733 C719 0.958 . S
H734 C719 0.961 . S
H735 C719 0.960 . S
C736 C737 1.391 . S
C736 C738 1.394 . S
C736 H752 0.931 . S
C737 C736 1.391 . S
C737 C741 1.376 . S
C738 C736 1.394 . S
C738 C739 1.369 . S
C738 C742 1.531 . S
C739 C738 1.369 . S
C739 C740 1.410 . S
C739 C747 1.503 . S
C740 C739 1.410 . S
C740 C741 1.392 . S
C740 C743 1.511 . S
C741 C737 1.376 . S
C741 C740 1.392 . S
C741 H753 0.929 . S
C742 C738 1.531 . S
C742 H754 0.960 . S
C742 H755 0.962 . S
C742 H756 0.960 . S
C743 C740 1.511 . S
C743 H757 0.961 . S
C743 H758 0.961 . S
C743 H759 0.961 . S
C744 C745 1.370 . S
C744 C746 1.363 . S
C744 H760 0.931 . S
C745 C744 1.370 . S
C745 C749 1.408 . S
C746 C744 1.363 . S
C746 C747 1.370 . S
C746 C750 1.524 . S
C747 C739 1.503 . S
C747 C746 1.370 . S
C747 C748 1.403 . S
C748 C747 1.403 . S
C748 C749 1.404 . S
C748 C751 1.539 . S
C749 C745 1.408 . S
C749 C748 1.404 . S
C749 H761 0.930 1_556 S
C750 C746 1.524 . S
C750 H762 0.956 . S
C750 H763 0.961 . S
C750 H764 0.961 . S
C751 C748 1.539 . S
C751 H765 0.958 1_556 S
C751 H766 0.961 1_556 S
C751 H767 0.960 . S
H752 C736 0.931 . S
H753 C741 0.929 . S
H754 C742 0.960 . S
H755 C742 0.962 . S
H756 C742 0.960 . S
H757 C743 0.961 . S
H758 C743 0.961 . S
H759 C743 0.961 . S
H760 C744 0.931 . S
H761 C749 0.930 1_554 S
H762 C750 0.956 . S
H763 C750 0.961 . S
H764 C750 0.961 . S
H765 C751 0.958 1_554 S
H766 C751 0.961 1_554 S
H767 C751 0.960 . S
C768 C769 1.391 . S
C768 C770 1.394 . S
C768 H784 0.931 . S
C769 C768 1.391 . S
C769 C773 1.376 . S
C770 C768 1.394 . S
C770 C771 1.369 . S
C770 C774 1.531 . S
C771 C770 1.369 . S
C771 C772 1.410 . S
C771 C779 1.503 . S
C772 C771 1.410 . S
C772 C773 1.392 . S
C772 C775 1.511 . S
C773 C769 1.376 . S
C773 C772 1.392 . S
C773 H785 0.929 . S
C774 C770 1.531 . S
C774 H786 0.960 . S
C774 H787 0.975 . S
C774 H788 0.968 . S
C775 C772 1.511 . S
C775 H789 0.961 . S
C775 H790 0.961 . S
C775 H791 0.961 . S
C776 C777 1.370 . S
C776 C778 1.363 . S
C776 H792 0.931 . S
C777 C776 1.370 . S
C777 C781 1.408 . S
C778 C776 1.363 . S
C778 C779 1.370 . S
C778 C782 1.524 . S
C779 C771 1.503 . S
C779 C778 1.370 . S
C779 C780 1.403 . S
C780 C779 1.403 . S
C780 C781 1.404 . S
C780 C783 1.539 . S
C781 C777 1.408 . S
C781 C780 1.404 . S
C781 H793 0.930 . S
C782 C778 1.524 . S
C782 H794 0.956 . S
C782 H795 0.961 . S
C782 H796 0.961 . S
C783 C780 1.539 . S
C783 H797 0.958 . S
C783 H798 0.961 . S
C783 H799 0.960 . S
H784 C768 0.931 . S
H785 C773 0.929 . S
H786 C774 0.960 . S
H787 C774 0.975 . S
H788 C774 0.968 . S
H789 C775 0.961 . S
H790 C775 0.961 . S
H791 C775 0.961 . S
H792 C776 0.931 . S
H793 C781 0.930 . S
H794 C782 0.956 . S
H795 C782 0.961 . S
H796 C782 0.961 . S
H797 C783 0.958 . S
H798 C783 0.961 . S
H799 C783 0.960 . S
C800 C801 1.391 . S
C800 C802 1.394 . S
C800 H816 0.931 . S
C801 C800 1.391 . S
C801 C805 1.376 . S
C802 C800 1.394 . S
C802 C803 1.369 . S
C802 C806 1.531 . S
C803 C802 1.369 . S
C803 C804 1.410 . S
C803 C811 1.503 . S
C804 C803 1.410 . S
C804 C805 1.392 . S
C804 C807 1.511 . S
C805 C801 1.376 . S
C805 C804 1.392 . S
C805 H817 0.929 . S
C806 C802 1.531 . S
C806 H818 0.960 . S
C806 H819 0.962 . S
C806 H820 0.960 . S
C807 C804 1.511 . S
C807 H821 0.961 . S
C807 H822 0.961 . S
C807 H823 0.961 . S
C808 C809 1.370 . S
C808 C810 1.363 . S
C808 H824 0.931 . S
C809 C808 1.370 . S
C809 C813 1.408 . S
C810 C808 1.363 . S
C810 C811 1.370 . S
C810 C814 1.524 . S
C811 C803 1.503 . S
C811 C810 1.370 . S
C811 C812 1.403 . S
C812 C811 1.403 . S
C812 C813 1.404 . S
C812 C815 1.539 . S
C813 C809 1.408 . S
C813 C812 1.404 . S
C813 H825 0.930 . S
C814 C810 1.524 . S
C814 H826 0.956 . S
C814 H827 0.961 . S
C814 H828 0.961 . S
C815 C812 1.539 . S
C815 H829 0.958 . S
C815 H830 0.961 . S
C815 H831 0.960 . S
H816 C800 0.931 . S
H817 C805 0.929 . S
H818 C806 0.960 . S
H819 C806 0.962 . S
H820 C806 0.960 . S
H821 C807 0.961 . S
H822 C807 0.961 . S
H823 C807 0.961 . S
H824 C808 0.931 . S
H825 C813 0.930 . S
H826 C814 0.956 . S
H827 C814 0.961 . S
H828 C814 0.961 . S
H829 C815 0.958 . S
H830 C815 0.961 . S
H831 C815 0.960 . S
C832 C833 1.391 . S
C832 C834 1.394 . S
C832 H848 0.931 . S
C833 C832 1.391 . S
C833 C837 1.376 . S
C834 C832 1.394 . S
C834 C835 1.369 . S
C834 C838 1.531 . S
C835 C834 1.369 . S
C835 C836 1.410 . S
C835 C843 1.503 . S
C836 C835 1.410 . S
C836 C837 1.392 . S
C836 C839 1.511 . S
C837 C833 1.376 . S
C837 C836 1.392 . S
C837 H849 0.929 . S
C838 C834 1.531 . S
C838 H850 0.960 . S
C838 H851 0.962 . S
C838 H852 0.960 . S
C839 C836 1.511 . S
C839 H853 0.961 . S
C839 H854 0.961 . S
C839 H855 0.961 . S
C840 C841 1.370 . S
C840 C842 1.363 . S
C840 H856 0.931 . S
C841 C840 1.370 . S
C841 C845 1.408 . S
C842 C840 1.363 . S
C842 C843 1.370 . S
C842 C846 1.524 . S
C843 C835 1.503 . S
C843 C842 1.370 . S
C843 C844 1.403 . S
C844 C843 1.403 . S
C844 C845 1.404 . S
C844 C847 1.539 . S
C845 C841 1.408 . S
C845 C844 1.404 . S
C845 H857 0.930 . S
C846 C842 1.524 . S
C846 H858 0.956 . S
C846 H859 0.961 . S
C846 H860 0.961 . S
C847 C844 1.539 . S
C847 H861 0.958 . S
C847 H862 0.961 . S
C847 H863 0.960 . S
H848 C832 0.931 . S
H849 C837 0.929 . S
H850 C838 0.960 . S
H851 C838 0.962 . S
H852 C838 0.960 . S
H853 C839 0.961 . S
H854 C839 0.961 . S
H855 C839 0.961 . S
H856 C840 0.931 . S
H857 C845 0.930 . S
H858 C846 0.956 . S
H859 C846 0.961 . S
H860 C846 0.961 . S
H861 C847 0.958 . S
H862 C847 0.961 . S
H863 C847 0.960 . S
C864 C865 1.391 . S
C864 C866 1.394 . S
C864 H880 0.931 . S
C865 C864 1.391 . S
C865 C869 1.376 . S
C866 C864 1.394 . S
C866 C867 1.369 . S
C866 C870 1.531 . S
C867 C866 1.369 . S
C867 C868 1.410 . S
C867 C875 1.503 . S
C868 C867 1.410 . S
C868 C869 1.392 . S
C868 C871 1.511 . S
C869 C865 1.376 . S
C869 C868 1.392 . S
C869 H881 0.929 . S
C870 C866 1.531 . S
C870 H882 0.960 . S
C870 H883 0.962 . S
C870 H884 0.960 . S
C871 C868 1.511 . S
C871 H885 0.961 . S
C871 H886 0.961 . S
C871 H887 0.961 . S
C872 C873 1.370 . S
C872 C874 1.363 . S
C872 H888 0.931 . S
C873 C872 1.370 . S
C873 C877 1.408 . S
C874 C872 1.363 . S
C874 C875 1.370 . S
C874 C878 1.524 . S
C875 C867 1.503 . S
C875 C874 1.370 . S
C875 C876 1.403 . S
C876 C875 1.403 . S
C876 C877 1.404 . S
C876 C879 1.539 . S
C877 C873 1.408 . S
C877 C876 1.404 . S
C877 H889 0.930 . S
C878 C874 1.524 . S
C878 H890 0.956 . S
C878 H891 0.961 . S
C878 H892 0.961 . S
C879 C876 1.539 . S
C879 H893 0.958 . S
C879 H894 0.961 . S
C879 H895 0.960 . S
H880 C864 0.931 . S
H881 C869 0.929 . S
H882 C870 0.960 . S
H883 C870 0.962 . S
H884 C870 0.960 . S
H885 C871 0.961 . S
H886 C871 0.961 . S
H887 C871 0.961 . S
H888 C872 0.931 . S
H889 C877 0.930 . S
H890 C878 0.956 . S
H891 C878 0.961 . S
H892 C878 0.961 . S
H893 C879 0.958 . S
H894 C879 0.961 . S
H895 C879 0.960 . S
C896 C897 1.391 . S
C896 C898 1.394 . S
C896 H912 0.931 . S
C897 C896 1.391 . S
C897 C901 1.376 . S
C898 C896 1.394 . S
C898 C899 1.369 . S
C898 C902 1.531 . S
C899 C898 1.369 . S
C899 C900 1.410 . S
C899 C907 1.503 . S
C900 C899 1.410 . S
C900 C901 1.392 . S
C900 C903 1.511 . S
C901 C897 1.376 . S
C901 C900 1.392 . S
C901 H913 0.929 . S
C902 C898 1.531 . S
C902 H914 0.960 . S
C902 H915 0.962 . S
C902 H916 0.960 . S
C903 C900 1.511 . S
C903 H917 0.961 . S
C903 H918 0.961 . S
C903 H919 0.961 . S
C904 C905 1.370 . S
C904 C906 1.363 . S
C904 H920 0.931 . S
C905 C904 1.370 . S
C905 C909 1.408 . S
C906 C904 1.363 . S
C906 C907 1.370 . S
C906 C910 1.524 . S
C907 C899 1.503 . S
C907 C906 1.370 . S
C907 C908 1.403 . S
C908 C907 1.403 . S
C908 C909 1.404 . S
C908 C911 1.539 . S
C909 C905 1.408 . S
C909 C908 1.404 . S
C909 H921 0.930 . S
C910 C906 1.524 . S
C910 H922 0.956 . S
C910 H923 0.961 . S
C910 H924 0.961 . S
C911 C908 1.539 . S
C911 H925 0.958 . S
C911 H926 0.961 . S
C911 H927 0.960 . S
H912 C896 0.931 . S
H913 C901 0.929 . S
H914 C902 0.960 . S
H915 C902 0.962 . S
H916 C902 0.960 . S
H917 C903 0.961 . S
H918 C903 0.961 . S
H919 C903 0.961 . S
H920 C904 0.931 . S
H921 C909 0.930 . S
H922 C910 0.956 . S
H923 C910 0.961 . S
H924 C910 0.961 . S
H925 C911 0.958 . S
H926 C911 0.961 . S
H927 C911 0.960 . S
C928 C929 1.391 . S
C928 C930 1.394 . S
C928 H944 0.931 . S
C929 C928 1.391 . S
C929 C933 1.376 . S
C930 C928 1.394 . S
C930 C931 1.369 . S
C930 C934 1.531 . S
C931 C930 1.369 . S
C931 C932 1.410 . S
C931 C939 1.503 . S
C932 C931 1.410 . S
C932 C933 1.392 . S
C932 C935 1.511 . S
C933 C929 1.376 . S
C933 C932 1.392 . S
C933 H945 0.929 . S
C934 C930 1.531 . S
C934 H946 0.960 . S
C934 H947 0.962 . S
C934 H948 0.960 . S
C935 C932 1.511 . S
C935 H949 0.961 . S
C935 H950 0.961 . S
C935 H951 0.961 . S
C936 C937 1.370 . S
C936 C938 1.363 . S
C936 H952 0.931 . S
C937 C936 1.370 . S
C937 C941 1.408 . S
C938 C936 1.363 . S
C938 C939 1.370 . S
C938 C942 1.524 . S
C939 C931 1.503 . S
C939 C938 1.370 . S
C939 C940 1.403 . S
C940 C939 1.403 . S
C940 C941 1.404 . S
C940 C943 1.539 . S
C941 C937 1.408 . S
C941 C940 1.404 . S
C941 H953 0.930 . S
C942 C938 1.524 . S
C942 H954 0.956 . S
C942 H955 0.961 . S
C942 H956 0.961 . S
C943 C940 1.539 . S
C943 H957 0.958 . S
C943 H958 0.961 . S
C943 H959 0.960 . S
H944 C928 0.931 . S
H945 C933 0.929 . S
H946 C934 0.960 . S
H947 C934 0.962 . S
H948 C934 0.960 . S
H949 C935 0.961 . S
H950 C935 0.961 . S
H951 C935 0.961 . S
H952 C936 0.931 . S
H953 C941 0.930 . S
H954 C942 0.956 . S
H955 C942 0.961 . S
H956 C942 0.961 . S
H957 C943 0.958 . S
H958 C943 0.961 . S
H959 C943 0.960 . S
C960 C961 1.391 . S
C960 C962 1.394 . S
C960 H976 0.931 . S
C961 C960 1.391 . S
C961 C965 1.376 . S
C962 C960 1.394 . S
C962 C963 1.369 . S
C962 C966 1.531 . S
C963 C962 1.369 . S
C963 C964 1.410 . S
C963 C971 1.503 . S
C964 C963 1.410 . S
C964 C965 1.392 . S
C964 C967 1.511 . S
C965 C961 1.376 . S
C965 C964 1.392 . S
C965 H977 0.929 . S
C966 C962 1.531 . S
C966 H978 0.960 . S
C966 H979 0.962 . S
C966 H980 0.960 . S
C967 C964 1.511 . S
C967 H981 0.961 . S
C967 H982 0.961 . S
C967 H983 0.961 . S
C968 C969 1.370 . S
C968 C970 1.363 . S
C968 H984 0.931 . S
C969 C968 1.370 . S
C969 C973 1.408 . S
C970 C968 1.363 . S
C970 C971 1.370 . S
C970 C974 1.524 . S
C971 C963 1.503 . S
C971 C970 1.370 . S
C971 C972 1.403 . S
C972 C971 1.403 . S
C972 C973 1.404 . S
C972 C975 1.539 . S
C973 C969 1.408 . S
C973 C972 1.404 . S
C973 H985 0.930 . S
C974 C970 1.524 . S
C974 H986 0.956 . S
C974 H987 0.961 . S
C974 H988 0.961 . S
C975 C972 1.539 . S
C975 H989 0.958 . S
C975 H990 0.961 . S
C975 H991 0.960 . S
H976 C960 0.931 . S
H977 C965 0.929 . S
H978 C966 0.960 . S
H979 C966 0.962 . S
H980 C966 0.960 . S
H981 C967 0.961 . S
H982 C967 0.961 . S
H983 C967 0.961 . S
H984 C968 0.931 . S
H985 C973 0.930 . S
H986 C974 0.956 . S
H987 C974 0.961 . S
H988 C974 0.961 . S
H989 C975 0.958 . S
H990 C975 0.961 . S
H991 C975 0.960 . S
C992 C993 1.391 . S
C992 C994 1.394 . S
C992 H1008 0.931 . S
C993 C992 1.391 . S
C993 C997 1.376 . S
C994 C992 1.394 . S
C994 C995 1.369 . S
C994 C998 1.531 . S
C995 C994 1.369 . S
C995 C996 1.410 . S
C995 C1003 1.503 . S
C996 C995 1.410 . S
C996 C997 1.392 . S
C996 C999 1.511 1_655 S
C997 C993 1.376 . S
C997 C996 1.392 . S
C997 H1009 0.929 . S
C998 C994 1.531 . S
C998 H1010 0.960 . S
C998 H1011 0.962 . S
C998 H1012 0.960 . S
C999 C996 1.511 1_455 S
C999 H1013 0.961 . S
C999 H1014 0.961 . S
C999 H1015 0.961 . S
C1000 C1001 1.370 . S
C1000 C1002 1.363 . S
C1000 H1016 0.931 . S
C1001 C1000 1.370 . S
C1001 C1005 1.408 . S
C1002 C1000 1.363 . S
C1002 C1003 1.370 . S
C1002 C1006 1.524 . S
C1003 C995 1.503 . S
C1003 C1002 1.370 . S
C1003 C1004 1.403 . S
C1004 C1003 1.403 . S
C1004 C1005 1.404 . S
C1004 C1007 1.539 . S
C1005 C1001 1.408 . S
C1005 C1004 1.404 . S
C1005 H1017 0.930 . S
C1006 C1002 1.524 . S
C1006 H1018 0.956 . S
C1006 H1019 0.961 . S
C1006 H1020 0.961 . S
C1007 C1004 1.539 . S
C1007 H1021 0.958 . S
C1007 H1022 0.961 . S
C1007 H1023 0.960 . S
H1008 C992 0.931 . S
H1009 C997 0.929 . S
H1010 C998 0.960 . S
H1011 C998 0.962 . S
H1012 C998 0.960 . S
H1013 C999 0.961 . S
H1014 C999 0.961 . S
H1015 C999 0.961 . S
H1016 C1000 0.931 . S
H1017 C1005 0.930 . S
H1018 C1006 0.956 . S
H1019 C1006 0.961 . S
H1020 C1006 0.961 . S
H1021 C1007 0.958 . S
H1022 C1007 0.961 . S
H1023 C1007 0.960 . S
C1024 C1025 1.391 . S
C1024 C1026 1.394 . S
C1024 H1040 0.931 . S
C1025 C1024 1.391 . S
C1025 C1029 1.376 . S
C1026 C1024 1.394 . S
C1026 C1027 1.369 . S
C1026 C1030 1.531 . S
C1027 C1026 1.369 . S
C1027 C1028 1.410 . S
C1027 C1035 1.503 . S
C1028 C1027 1.410 . S
C1028 C1029 1.392 . S
C1028 C1031 1.511 . S
C1029 C1025 1.376 . S
C1029 C1028 1.392 . S
C1029 H1041 0.929 . S
C1030 C1026 1.531 . S
C1030 H1042 0.960 . S
C1030 H1043 0.962 . S
C1030 H1044 0.960 . S
C1031 C1028 1.511 . S
C1031 H1045 0.961 . S
C1031 H1046 0.961 . S
C1031 H1047 0.961 . S
C1032 C1033 1.370 . S
C1032 C1034 1.363 . S
C1032 H1048 0.931 . S
C1033 C1032 1.370 . S
C1033 C1037 1.408 . S
C1034 C1032 1.363 . S
C1034 C1035 1.370 . S
C1034 C1038 1.524 . S
C1035 C1027 1.503 . S
C1035 C1034 1.370 . S
C1035 C1036 1.403 . S
C1036 C1035 1.403 . S
C1036 C1037 1.404 . S
C1036 C1039 1.539 . S
C1037 C1033 1.408 . S
C1037 C1036 1.404 . S
C1037 H1049 0.930 . S
C1038 C1034 1.524 . S
C1038 H1050 0.956 . S
C1038 H1051 0.961 . S
C1038 H1052 0.961 . S
C1039 C1036 1.539 . S
C1039 H1053 0.958 . S
C1039 H1054 1.004 . S
C1039 H1055 0.960 . S
H1040 C1024 0.931 . S
H1041 C1029 0.929 . S
H1042 C1030 0.960 . S
H1043 C1030 0.962 . S
H1044 C1030 0.960 . S
H1045 C1031 0.961 . S
H1046 C1031 0.961 . S
H1047 C1031 0.961 . S
H1048 C1032 0.931 . S
H1049 C1037 0.930 . S
H1050 C1038 0.956 . S
H1051 C1038 0.961 . S
H1052 C1038 0.961 . S
H1053 C1039 0.958 . S
H1054 C1039 1.004 . S
H1055 C1039 0.960 . S
C1056 C1057 1.391 . S
C1056 C1058 1.394 . S
C1056 H1072 0.931 . S
C1057 C1056 1.391 . S
C1057 C1061 1.376 . S
C1058 C1056 1.394 . S
C1058 C1059 1.369 . S
C1058 C1062 1.531 . S
C1059 C1058 1.369 . S
C1059 C1060 1.410 . S
C1059 C1067 1.503 . S
C1060 C1059 1.410 . S
C1060 C1061 1.392 . S
C1060 C1063 1.511 . S
C1061 C1057 1.376 . S
C1061 C1060 1.392 . S
C1061 H1073 0.929 . S
C1062 C1058 1.531 . S
C1062 H1074 0.960 . S
C1062 H1075 0.962 . S
C1062 H1076 0.960 . S
C1063 C1060 1.511 . S
C1063 H1077 0.961 . S
C1063 H1078 0.961 . S
C1063 H1079 0.961 . S
C1064 C1065 1.370 . S
C1064 C1066 1.363 . S
C1064 H1080 0.931 . S
C1065 C1064 1.370 . S
C1065 C1069 1.408 . S
C1066 C1064 1.363 . S
C1066 C1067 1.370 . S
C1066 C1070 1.524 . S
C1067 C1059 1.503 . S
C1067 C1066 1.370 . S
C1067 C1068 1.403 . S
C1068 C1067 1.403 . S
C1068 C1069 1.404 . S
C1068 C1071 1.539 . S
C1069 C1065 1.408 . S
C1069 C1068 1.404 . S
C1069 H1081 0.930 . S
C1070 C1066 1.524 . S
C1070 H1082 0.956 . S
C1070 H1083 0.961 . S
C1070 H1084 0.961 . S
C1071 C1068 1.539 . S
C1071 H1085 0.958 . S
C1071 H1086 0.961 . S
C1071 H1087 0.960 . S
H1072 C1056 0.931 . S
H1073 C1061 0.929 . S
H1074 C1062 0.960 . S
H1075 C1062 0.962 . S
H1076 C1062 0.960 . S
H1077 C1063 0.961 . S
H1078 C1063 0.961 . S
H1079 C1063 0.961 . S
H1080 C1064 0.931 . S
H1081 C1069 0.930 . S
H1082 C1070 0.956 . S
H1083 C1070 0.961 . S
H1084 C1070 0.961 . S
H1085 C1071 0.958 . S
H1086 C1071 0.961 . S
H1087 C1071 0.960 . S
C1088 C1089 1.391 . S
C1088 C1090 1.394 . S
C1088 H1104 0.931 . S
C1089 C1088 1.391 . S
C1089 C1093 1.376 . S
C1090 C1088 1.394 . S
C1090 C1091 1.369 . S
C1090 C1094 1.531 . S
C1091 C1090 1.369 . S
C1091 C1092 1.410 . S
C1091 C1099 1.503 . S
C1092 C1091 1.410 . S
C1092 C1093 1.392 . S
C1092 C1095 1.511 . S
C1093 C1089 1.376 . S
C1093 C1092 1.392 . S
C1093 H1105 0.929 . S
C1094 C1090 1.531 . S
C1094 H1106 0.960 . S
C1094 H1107 0.962 . S
C1094 H1108 0.960 . S
C1095 C1092 1.511 . S
C1095 H1109 0.961 . S
C1095 H1110 0.961 . S
C1095 H1111 0.961 . S
C1096 C1097 1.370 . S
C1096 C1098 1.363 . S
C1096 H1112 0.931 . S
C1097 C1096 1.370 . S
C1097 C1101 1.408 . S
C1098 C1096 1.363 . S
C1098 C1099 1.370 . S
C1098 C1102 1.524 . S
C1099 C1091 1.503 . S
C1099 C1098 1.370 . S
C1099 C1100 1.403 . S
C1100 C1099 1.403 . S
C1100 C1101 1.404 . S
C1100 C1103 1.539 . S
C1101 C1097 1.408 . S
C1101 C1100 1.404 . S
C1101 H1113 0.930 . S
C1102 C1098 1.524 . S
C1102 H1114 0.956 . S
C1102 H1115 0.961 . S
C1102 H1116 0.961 . S
C1103 C1100 1.539 . S
C1103 H1117 0.958 . S
C1103 H1118 0.961 . S
C1103 H1119 0.960 . S
H1104 C1088 0.931 . S
H1105 C1093 0.929 . S
H1106 C1094 0.960 . S
H1107 C1094 0.962 . S
H1108 C1094 0.960 . S
H1109 C1095 0.961 . S
H1110 C1095 0.961 . S
H1111 C1095 0.961 . S
H1112 C1096 0.931 . S
H1113 C1101 0.930 . S
H1114 C1102 0.956 . S
H1115 C1102 0.961 . S
H1116 C1102 0.961 . S
H1117 C1103 0.958 . S
H1118 C1103 0.961 . S
H1119 C1103 0.960 . S
C1120 C1121 1.391 . S
C1120 C1122 1.394 . S
C1120 H1136 0.931 . S
C1121 C1120 1.391 . S
C1121 C1125 1.376 . S
C1122 C1120 1.394 . S
C1122 C1123 1.369 . S
C1122 C1126 1.531 . S
C1123 C1122 1.369 . S
C1123 C1124 1.410 . S
C1123 C1131 1.503 . S
C1124 C1123 1.410 . S
C1124 C1125 1.392 . S
C1124 C1127 1.511 . S
C1125 C1121 1.376 . S
C1125 C1124 1.392 . S
C1125 H1137 0.929 . S
C1126 C1122 1.531 . S
C1126 H1138 0.960 . S
C1126 H1139 0.962 . S
C1126 H1140 0.960 . S
C1127 C1124 1.511 . S
C1127 H1141 0.961 . S
C1127 H1142 0.961 . S
C1127 H1143 0.961 . S
C1128 C1129 1.370 . S
C1128 C1130 1.363 . S
C1128 H1144 0.931 . S
C1129 C1128 1.370 . S
C1129 C1133 1.408 . S
C1130 C1128 1.363 . S
C1130 C1131 1.370 . S
C1130 C1134 1.524 . S
C1131 C1123 1.503 . S
C1131 C1130 1.370 . S
C1131 C1132 1.403 . S
C1132 C1131 1.403 . S
C1132 C1133 1.404 . S
C1132 C1135 1.539 . S
C1133 C1129 1.408 . S
C1133 C1132 1.404 . S
C1133 H1145 0.913 1_554 S
C1134 C1130 1.524 . S
C1134 H1146 0.956 . S
C1134 H1147 0.961 . S
C1134 H1148 0.961 . S
C1135 C1132 1.539 . S
C1135 H1149 0.947 1_554 S
C1135 H1150 0.961 1_554 S
C1135 H1151 0.960 . S
H1136 C1120 0.931 . S
H1137 C1125 0.929 . S
H1138 C1126 0.960 . S
H1139 C1126 0.962 . S
H1140 C1126 0.960 . S
H1141 C1127 0.961 . S
H1142 C1127 0.961 . S
H1143 C1127 0.961 . S
H1144 C1128 0.931 . S
H1145 C1133 0.913 1_556 S
H1146 C1134 0.956 . S
H1147 C1134 0.961 . S
H1148 C1134 0.961 . S
H1149 C1135 0.947 1_556 S
H1150 C1135 0.961 1_556 S
H1151 C1135 0.960 . S
C1152 C1153 1.391 . S
C1152 C1154 1.394 . S
C1152 H1168 0.931 . S
C1153 C1152 1.391 . S
C1153 C1157 1.376 . S
C1154 C1152 1.394 . S
C1154 C1155 1.369 . S
C1154 C1158 1.531 . S
C1155 C1154 1.369 . S
C1155 C1156 1.410 . S
C1155 C1163 1.503 . S
C1156 C1155 1.410 . S
C1156 C1157 1.392 . S
C1156 C1159 1.511 . S
C1157 C1153 1.376 . S
C1157 C1156 1.392 . S
C1157 H1169 0.929 . S
C1158 C1154 1.531 . S
C1158 H1170 0.960 . S
C1158 H1171 0.962 . S
C1158 H1172 0.960 . S
C1159 C1156 1.511 . S
C1159 H1173 0.961 . S
C1159 H1174 0.961 . S
C1159 H1175 0.961 . S
C1160 C1161 1.370 . S
C1160 C1162 1.363 . S
C1160 H1176 0.931 . S
C1161 C1160 1.370 . S
C1161 C1165 1.408 . S
C1162 C1160 1.363 . S
C1162 C1163 1.370 . S
C1162 C1166 1.524 . S
C1163 C1155 1.503 . S
C1163 C1162 1.370 . S
C1163 C1164 1.403 . S
C1164 C1163 1.403 . S
C1164 C1165 1.404 . S
C1164 C1167 1.539 . S
C1165 C1161 1.408 . S
C1165 C1164 1.404 . S
C1165 H1177 0.930 . S
C1166 C1162 1.524 . S
C1166 H1178 0.956 . S
C1166 H1179 0.961 . S
C1166 H1180 0.961 . S
C1167 C1164 1.539 . S
C1167 H1181 0.958 . S
C1167 H1182 0.961 1_455 S
C1167 H1183 0.960 . S
H1168 C1152 0.931 . S
H1169 C1157 0.929 . S
H1170 C1158 0.960 . S
H1171 C1158 0.962 . S
H1172 C1158 0.960 . S
H1173 C1159 0.961 . S
H1174 C1159 0.961 . S
H1175 C1159 0.961 . S
H1176 C1160 0.931 . S
H1177 C1165 0.930 . S
H1178 C1166 0.956 . S
H1179 C1166 0.961 . S
H1180 C1166 0.961 . S
H1181 C1167 0.958 . S
H1182 C1167 0.961 1_655 S
H1183 C1167 0.960 . S
C1184 C1185 1.391 . S
C1184 C1186 1.394 . S
C1184 H1200 0.931 . S
C1185 C1184 1.391 . S
C1185 C1189 1.376 . S
C1186 C1184 1.394 . S
C1186 C1187 1.369 . S
C1186 C1190 1.531 . S
C1187 C1186 1.369 . S
C1187 C1188 1.410 . S
C1187 C1195 1.503 . S
C1188 C1187 1.410 . S
C1188 C1189 1.392 . S
C1188 C1191 1.511 . S
C1189 C1185 1.376 . S
C1189 C1188 1.392 . S
C1189 H1201 0.929 . S
C1190 C1186 1.531 . S
C1190 H1202 0.960 . S
C1190 H1203 0.962 . S
C1190 H1204 0.960 . S
C1191 C1188 1.511 . S
C1191 H1205 0.961 . S
C1191 H1206 0.961 . S
C1191 H1207 0.961 . S
C1192 C1193 1.370 . S
C1192 C1194 1.363 . S
C1192 H1208 0.931 . S
C1193 C1192 1.370 . S
C1193 C1197 1.408 . S
C1194 C1192 1.363 . S
C1194 C1195 1.370 . S
C1194 C1198 1.524 . S
C1195 C1187 1.503 . S
C1195 C1194 1.370 . S
C1195 C1196 1.403 . S
C1196 C1195 1.403 . S
C1196 C1197 1.404 . S
C1196 C1199 1.539 . S
C1197 C1193 1.408 . S
C1197 C1196 1.404 . S
C1197 H1209 0.930 . S
C1198 C1194 1.524 . S
C1198 H1210 0.956 . S
C1198 H1211 0.961 . S
C1198 H1212 0.961 . S
C1199 C1196 1.539 . S
C1199 H1213 0.958 . S
C1199 H1214 0.961 . S
C1199 H1215 0.960 . S
H1200 C1184 0.931 . S
H1201 C1189 0.929 . S
H1202 C1190 0.960 . S
H1203 C1190 0.962 . S
H1204 C1190 0.960 . S
H1205 C1191 0.961 . S
H1206 C1191 0.961 . S
H1207 C1191 0.961 . S
H1208 C1192 0.931 . S
H1209 C1197 0.930 . S
H1210 C1198 0.956 . S
H1211 C1198 0.961 . S
H1212 C1198 0.961 . S
H1213 C1199 0.958 . S
H1214 C1199 0.961 . S
H1215 C1199 0.960 . S
C449 C1 0.960 . S
C457 C292 0.921 . S
C481 C67 1.208 . S
C489 C353 1.245 . S
C521 C391 2.490 . S
C513 C97 2.535 . S
C545 C133 2.351 . S
C553 C431 2.304 . S
C585 C351 1.298 . S
C577 C25 1.269 . S
C617 C319 2.135 . S
C609 C37 2.074 . S
C649 C428 1.740 . S
C641 C103 1.722 . S
C681 C388 1.843 . S
C673 C109 1.857 . S
C705 C31 1.080 . S
C713 C433 1.126 . S
C745 C348 2.380 . S
C737 C73 2.369 . S
C769 C139 2.200 . S
C777 C290 2.161 . S
C801 C61 1.505 . S
C809 C393 1.584 . S
C841 C313 0.925 . S
C833 C175 0.956 . S
C865 C181 1.174 . S
C873 C332 1.231 . S
C897 C247 2.576 . S
C905 C370 2.507 . S
C929 C277 2.340 . S
C937 C410 2.299 . S
C961 C145 1.274 . S
C969 C330 1.283 . S
C1001 C308 2.139 . S
C993 C211 2.065 . S
C1033 C439 1.728 . S
C1025 C217 1.713 . S
C1065 C399 1.866 . S
C1057 C283 1.870 . S
C1089 C169 1.038 . S
C1097 C412 1.110 . S
C1129 C359 2.389 . S
C1121 C241 2.385 . S
C1161 C311 2.142 . S
C1153 C253 2.185 . S
C1185 C205 1.540 . S
C1193 C372 1.585 . S
