# Generated by pormake.
# Topology pyr, (3,6)-cn, num edge types: 1
# Building blocks:
#     Node 0, Type 0, BuildingBlock: PAMTOO_clean_linker_0, # of connection points: 3
#     Node 1, Type 0, BuildingBlock: PAMTOO_clean_linker_0, # of connection points: 3
#     Node 2, Type 0, BuildingBlock: PAMTOO_clean_linker_0, # of connection points: 3
#     Node 3, Type 0, BuildingBlock: PAMTOO_clean_linker_0, # of connection points: 3
#     Node 4, Type 0, BuildingBlock: PAMTOO_clean_linker_0, # of connection points: 3
#     Node 5, Type 0, BuildingBlock: PAMTOO_clean_linker_0, # of connection points: 3
#     Node 6, Type 0, BuildingBlock: PAMTOO_clean_linker_0, # of connection points: 3
#     Node 7, Type 0, BuildingBlock: PAMTOO_clean_linker_0, # of connection points: 3
#     Node 8, Type 1, BuildingBlock: PAMTUU_clean_sbu_0, # of connection points: 6
#     Node 9, Type 1, BuildingBlock: PAMTUU_clean_sbu_0, # of connection points: 6
#     Node 10, Type 1, BuildingBlock: PAMTUU_clean_sbu_0, # of connection points: 6
#     Node 11, Type 1, BuildingBlock: PAMTUU_clean_sbu_0, # of connection points: 6
#     Edge 12, Type (0, 1), BuildingBlock: OJICUG_clean_linker_0, # of connection points: 2
#     Edge 13, Type (0, 1), BuildingBlock: OJICUG_clean_linker_0, # of connection points: 2
#     Edge 14, Type (0, 1), BuildingBlock: OJICUG_clean_linker_0, # of connection points: 2
#     Edge 15, Type (0, 1), BuildingBlock: OJICUG_clean_linker_0, # of connection points: 2
#     Edge 16, Type (0, 1), BuildingBlock: OJICUG_clean_linker_0, # of connection points: 2
#     Edge 17, Type (0, 1), BuildingBlock: OJICUG_clean_linker_0, # of connection points: 2
#     Edge 18, Type (0, 1), BuildingBlock: OJICUG_clean_linker_0, # of connection points: 2
#     Edge 19, Type (0, 1), BuildingBlock: OJICUG_clean_linker_0, # of connection points: 2
#     Edge 20, Type (0, 1), BuildingBlock: OJICUG_clean_linker_0, # of connection points: 2
#     Edge 21, Type (0, 1), BuildingBlock: OJICUG_clean_linker_0, # of connection points: 2
#     Edge 22, Type (0, 1), BuildingBlock: OJICUG_clean_linker_0, # of connection points: 2
#     Edge 23, Type (0, 1), BuildingBlock: OJICUG_clean_linker_0, # of connection points: 2
#     Edge 24, Type (0, 1), BuildingBlock: OJICUG_clean_linker_0, # of connection points: 2
#     Edge 25, Type (0, 1), BuildingBlock: OJICUG_clean_linker_0, # of connection points: 2
#     Edge 26, Type (0, 1), BuildingBlock: OJICUG_clean_linker_0, # of connection points: 2
#     Edge 27, Type (0, 1), BuildingBlock: OJICUG_clean_linker_0, # of connection points: 2
#     Edge 28, Type (0, 1), BuildingBlock: OJICUG_clean_linker_0, # of connection points: 2
#     Edge 29, Type (0, 1), BuildingBlock: OJICUG_clean_linker_0, # of connection points: 2
#     Edge 30, Type (0, 1), BuildingBlock: OJICUG_clean_linker_0, # of connection points: 2
#     Edge 31, Type (0, 1), BuildingBlock: OJICUG_clean_linker_0, # of connection points: 2
#     Edge 32, Type (0, 1), BuildingBlock: OJICUG_clean_linker_0, # of connection points: 2
#     Edge 33, Type (0, 1), BuildingBlock: OJICUG_clean_linker_0, # of connection points: 2
#     Edge 34, Type (0, 1), BuildingBlock: OJICUG_clean_linker_0, # of connection points: 2
#     Edge 35, Type (0, 1), BuildingBlock: OJICUG_clean_linker_0, # of connection points: 2
# Relax obj value: 0.255
# Max RMSD: 0.255
# Mean RMSD: 0.150
data_MOF--net-pyr--node1-PAMTUU_clean_sbu_0--node2-PAMTOO_clean_linker_0--edge1-OJICUG_clean_linker_0
_symmetry_space_group_name_H-M    P1
_symmetry_Int_Tables_number       1
_symmetry_cell_setting            triclinic
loop_
_symmetry_equiv_pos_as_xyz
'x, y, z'
_cell_length_a     27.63832
_cell_length_b     28.725249
_cell_length_c     26.643086
_cell_angle_alpha  91.244582
_cell_angle_beta   89.690344
_cell_angle_gamma 108.38916
loop_
_atom_site_label
_atom_site_type_symbol
_atom_site_fract_x
_atom_site_fract_y
_atom_site_fract_z
_atom_type_partial_charge
H0 H 0.30424 0.28137 0.31486 0.0
H1 H 0.43614 0.24165 0.27288 0.0
H2 H 0.40652 0.36267 0.20141 0.0
H3 H 0.51952 0.32561 0.26254 0.0
C4 C 0.51697 0.32122 0.22087 0.0
O5 O 0.4671 0.30833 0.20417 0.0
H6 H 0.53898 0.35706 0.2048 0.0
C7 C 0.33863 0.28831 0.29254 0.0
C8 C 0.35117 0.32605 0.25746 0.0
C9 C 0.36948 0.25849 0.29858 0.0
C10 C 0.41278 0.26537 0.26888 0.0
C11 C 0.42654 0.30344 0.23445 0.0
C12 C 0.39601 0.33395 0.22888 0.0
H13 H 0.10623 0.86898 0.82911 0.0
H14 H 0.13703 0.8328 0.67798 0.0
H15 H 0.22174 0.80023 0.79806 0.0
H16 H 0.25534 0.86294 0.69099 0.0
C17 C 0.2474 0.8243 0.67719 0.0
O18 O 0.20624 0.79281 0.70194 0.0
H19 H 0.23783 0.82371 0.63669 0.0
C20 C 0.12544 0.85086 0.80347 0.0
C21 C 0.1651 0.83447 0.821 0.0
C22 C 0.11718 0.85294 0.75195 0.0
C23 C 0.14186 0.83003 0.71804 0.0
C24 C 0.17802 0.80926 0.7353 0.0
C25 C 0.18994 0.81187 0.78648 0.0
H26 H 0.76193 0.36741 1.01021 0.0
H27 H 0.65852 0.35518 0.8866 0.0
H28 H 0.78118 0.48942 0.91279 0.0
H29 H 0.67678 0.49807 0.89173 0.0
C30 C 0.66606 0.47135 0.85962 0.0
O31 O 0.70154 0.4462 0.85587 0.0
H32 H 0.628 0.44477 0.86784 0.0
C33 C 0.75033 0.38291 0.97746 0.0
C34 C 0.77811 0.43126 0.9645 0.0
C35 C 0.70787 0.35415 0.94944 0.0
C36 C 0.69092 0.37628 0.90897 0.0
C37 C 0.71676 0.42554 0.89625 0.0
C38 C 0.76044 0.45245 0.92393 0.0
H39 H 0.87828 0.81382 0.5287 0.0
H40 H 0.86856 0.69149 0.42816 0.0
H41 H 0.99399 0.8249 0.41703 0.0
H42 H 0.94472 0.76435 0.31698 0.0
C43 C 0.93865 0.72739 0.33278 0.0
O44 O 0.9548 0.73284 0.38255 0.0
H45 H 0.89693 0.70779 0.33123 0.0
C46 C 0.8924 0.79792 0.4969 0.0
C47 C 0.9378 0.82623 0.47387 0.0
C48 C 0.86593 0.74953 0.48082 0.0
C49 C 0.88764 0.72847 0.44176 0.0
C50 C 0.93385 0.75514 0.41878 0.0
C51 C 0.95869 0.80419 0.43487 0.0
H52 H 0.63129 0.87155 0.86105 0.0
H53 H 0.64694 0.81074 1.00314 0.0
H54 H 0.70637 0.76122 0.87142 0.0
H55 H 0.67432 0.68963 0.94288 0.0
C56 C 0.69427 0.71167 0.97593 0.0
O57 O 0.70422 0.76107 0.96858 0.0
H58 H 0.66941 0.70049 1.00937 0.0
C59 C 0.64074 0.84359 0.88188 0.0
C60 C 0.66811 0.81521 0.85846 0.0
C61 C 0.6327 0.84205 0.93392 0.0
C62 C 0.64974 0.80983 0.96255 0.0
C63 C 0.67633 0.78104 0.93975 0.0
C64 C 0.68399 0.78254 0.88783 0.0
H65 H 1.00841 0.26361 0.39893 0.0
H66 H 0.91508 0.35822 0.39369 0.0
H67 H 1.00956 0.36413 0.52143 0.0
H68 H 0.91904 0.38198 0.55708 0.0
C69 C 0.90142 0.37392 0.51915 0.0
O70 O 0.93855 0.39435 0.48381 0.0
H71 H 0.88653 0.33315 0.5148 0.0
C72 C 0.99731 0.29368 0.41485 0.0
C73 C 1.01304 0.31095 0.46373 0.0
C74 C 0.96206 0.31049 0.38883 0.0
C75 C 0.94493 0.34717 0.41119 0.0
C76 C 0.96235 0.36641 0.45872 0.0
C77 C 0.99815 0.35008 0.48378 0.0
H78 H 0.37349 0.79341 0.17653 0.0
H79 H 0.35235 0.68084 0.28688 0.0
H80 H 0.48202 0.8111 0.29615 0.0
H81 H 0.50493 0.7166 0.31909 0.0
C82 C 0.46737 0.69552 0.33512 0.0
O83 O 0.43613 0.72519 0.33707 0.0
H84 H 0.44996 0.66372 0.30928 0.0
C85 C 0.38513 0.77978 0.21042 0.0
C86 C 0.42998 0.80888 0.23477 0.0
C87 C 0.35585 0.73353 0.22839 0.0
C88 C 0.37409 0.7156 0.27114 0.0
C89 C 0.42009 0.74281 0.29503 0.0
C90 C 0.44765 0.78953 0.27677 0.0
H91 H 0.11206 0.35955 0.87348 0.0
H92 H 0.22655 0.499 0.84548 0.0
H93 H 0.21947 0.37475 0.75157 0.0
H94 H 0.31978 0.43415 0.79276 0.0
C95 C 0.31766 0.47052 0.78126 0.0
O96 O 0.26793 0.46667 0.76888 0.0
H97 H 0.3299 0.49611 0.81405 0.0
C98 C 0.14405 0.38179 0.85194 0.0
C99 C 0.16312 0.36005 0.81111 0.0
C100 C 0.16643 0.43242 0.8648 0.0
C101 C 0.20824 0.46055 0.8362 0.0
C102 C 0.22747 0.43942 0.79601 0.0
C103 C 0.2046 0.38988 0.7835 0.0
Tb104 Tb 0.11386 0.10088 0.62747 0.0
Tb105 Tb 0.99455 0.0818 0.66166 0.0
C106 C 0.02279 1.01763 0.57426 0.0
C107 C 0.23191 0.11557 0.55479 0.0
C108 C 0.28644 0.13943 0.46472 0.0
C109 C 0.23297 0.1276 0.46515 0.0
C110 C 0.20593 0.11568 0.50985 0.0
C111 C 0.28461 0.12396 0.55422 0.0
C112 C 0.31175 0.13558 0.50939 0.0
C113 C 0.20516 0.11239 0.60262 0.0
O114 O 0.08103 0.13708 0.5722 0.0
O115 O 1.02091 0.15122 0.62441 0.0
O116 O 0.03769 0.13795 0.71635 0.0
O117 O 0.11845 0.16006 0.68168 0.0
O118 O 0.92059 0.07828 0.63992 0.0
O119 O 0.93765 1.06527 0.71666 0.0
O120 O 1.01695 1.01965 0.68555 0.0
O121 O 0.09923 1.06491 0.6988 0.0
O122 O 0.0711 1.03302 0.58763 0.0
O123 O 0.99025 1.03912 0.59168 0.0
C124 C 0.05027 0.16216 0.58478 0.0
O125 O 0.18686 0.14825 0.61197 0.0
O126 O 0.17219 0.07 0.61258 0.0
C127 C 0.08542 0.16708 0.71444 0.0
C128 C 0.85825 1.01868 0.68449 0.0
C129 C 0.78024 0.93113 0.70455 0.0
C130 C 0.77276 0.97685 0.71353 0.0
C131 C 0.81164 1.02033 0.70373 0.0
C132 C 0.86428 0.97335 0.67101 0.0
C133 C 0.82542 0.92978 0.68088 0.0
C134 C 0.90196 1.06359 0.68404 0.0
C135 C 0.0621 1.0237 0.70335 0.0
H136 H 0.21222 0.13086 0.43176 0.0
H137 H 0.16513 0.10933 0.50987 0.0
H138 H 0.30505 0.12379 0.58877 0.0
H139 H 0.35277 0.14378 0.51013 0.0
H140 H 0.73874 0.97923 0.73231 0.0
H141 H 0.80648 1.05513 0.71415 0.0
H142 H 0.90011 0.9716 0.65574 0.0
H143 H 0.83209 0.89511 0.67329 0.0
Tb144 Tb 0.62828 0.08477 0.1124 0.0
Tb145 Tb 0.51763 0.06866 1.05884 0.0
C146 C 0.58865 1.00817 1.02502 0.0
C147 C 0.75606 0.13208 0.17509 0.0
C148 C 0.83599 0.19929 0.22857 0.0
C149 C 0.84249 0.15668 0.2068 0.0
C150 C 0.80272 0.12329 0.18032 0.0
C151 C 0.75028 0.176 0.19392 0.0
C152 C 0.79014 0.20951 0.22056 0.0
C153 C 0.71348 0.09386 0.15198 0.0
O154 O 0.64122 0.15049 1.06824 0.0
O155 O 0.57167 0.1266 1.0149 0.0
O156 O 0.5344 0.13763 0.0993 0.0
O157 O 0.59236 0.12953 0.15744 0.0
O158 O 0.47183 1.05615 0.99457 0.0
O159 O 0.44057 1.06328 1.06818 0.0
O160 O 0.50273 1.02505 0.12709 0.0
O161 O 0.57973 1.01233 0.13496 0.0
O162 O 0.62725 1.04398 1.04285 0.0
O163 O 0.54157 1.00723 1.03278 0.0
C164 C 0.61637 0.15765 1.02861 0.0
O165 O 0.67049 0.08162 0.17659 0.0
O166 O 0.70693 0.09781 0.10412 0.0
C167 C 0.56123 0.15203 0.14034 0.0
C168 C 0.38685 1.00726 1.01063 0.0
C169 C 0.30032 0.93067 0.97867 0.0
C170 C 0.29524 0.96831 1.01086 0.0
C171 C 0.33817 1.00651 1.02635 0.0
C172 C 0.39244 0.96718 0.98276 0.0
C173 C 0.34947 0.92924 0.96678 0.0
C174 C 0.43059 1.05133 1.02096 0.0
C175 C 0.53065 0.99927 0.14426 0.0
H176 H 0.87765 0.14825 0.212 0.0
H177 H 0.80781 0.08972 0.16542 0.0
H178 H 0.71445 0.18341 0.18967 0.0
H179 H 0.78402 0.2419 0.2373 0.0
H180 H 0.25786 0.96995 1.02128 0.0
H181 H 0.33315 1.03667 1.04862 0.0
H182 H 0.42974 0.96636 0.97097 0.0
H183 H 0.35477 0.90098 0.94182 0.0
Tb184 Tb 0.5735 0.54671 0.57102 0.0
Tb185 Tb 0.57377 0.64603 0.63395 0.0
C186 C 0.53018 0.62507 0.52243 0.0
C187 C 0.62919 0.45957 0.51732 0.0
C188 C 0.72022 0.43499 0.51105 0.0
C189 C 0.67385 0.40206 0.49302 0.0
C190 C 0.62859 0.41432 0.49614 0.0
C191 C 0.67541 0.49261 0.53454 0.0
C192 C 0.72043 0.48072 0.53108 0.0
C193 C 0.5822 0.47272 0.52379 0.0
O194 O 0.64242 0.60394 0.54816 0.0
O195 O 0.65324 0.66192 0.6118 0.0
O196 O 0.59451 0.59903 0.68842 0.0
O197 O 0.62322 0.5496 0.63541 0.0
O198 O 0.58889 0.72243 0.64014 0.0
O199 O 0.55223 0.67528 0.70019 0.0
O200 O 0.49499 0.59877 0.62969 0.0
O201 O 0.5087 0.5247 0.62252 0.0
O202 O 0.52413 0.57793 0.52751 0.0
O203 O 0.55561 0.65768 0.55616 0.0
C204 C 0.67017 0.64381 0.57211 0.0
O205 O 0.56589 0.47148 0.56984 0.0
O206 O 0.58238 0.51305 0.50224 0.0
C207 C 0.61788 0.56591 0.68093 0.0
C208 C 0.52014 0.73882 0.68109 0.0
C209 C 0.43138 0.76746 0.6836 0.0
C210 C 0.46655 0.77994 0.72365 0.0
C211 C 0.51055 0.76562 0.72241 0.0
C212 C 0.48565 0.72703 0.64077 0.0
C213 C 0.44193 0.74142 0.64187 0.0
C214 C 0.56307 0.71896 0.68175 0.0
C215 C 0.48018 0.55141 0.63719 0.0
H216 H 0.67222 0.36632 0.47787 0.0
H217 H 0.59317 0.38824 0.48293 0.0
H218 H 0.67657 0.52752 0.55143 0.0
H219 H 0.75541 0.50734 0.54453 0.0
H220 H 0.4594 0.79959 0.75655 0.0
H221 H 0.53641 0.77442 0.75417 0.0
H222 H 0.49206 0.70588 0.6087 0.0
H223 H 0.41631 0.73197 0.60997 0.0
Tb224 Tb 0.06259 0.62331 1.07244 0.0
Tb225 Tb 0.05889 0.53143 0.14388 0.0
C226 C 0.10107 0.53468 1.03274 0.0
C227 C 0.99985 0.69962 1.01487 0.0
C228 C 0.89979 0.70371 1.00305 0.0
C229 C 0.93589 0.71842 0.96417 0.0
C230 C 0.98548 0.71614 0.96998 0.0
C231 C 0.96439 0.68629 1.05416 0.0
C232 C 0.91497 0.68822 1.04832 0.0
C233 C 0.04823 0.68866 1.01864 0.0
O234 O 0.98281 0.57878 0.07947 0.0
O235 O 0.99335 0.50476 0.09348 0.0
O236 O 1.01326 0.57177 0.18312 0.0
O237 O 0.05239 0.64657 0.1492 0.0
O238 O 0.04506 0.45602 0.15437 0.0
O239 O 0.06932 0.5077 0.21594 0.0
O240 O 0.13232 0.58687 0.15944 0.0
O241 O 0.14236 0.64172 0.09506 0.0
O242 O 0.08262 0.57048 1.02248 0.0
O243 O 0.10356 0.52073 0.07912 0.0
C244 C 0.96607 0.5308 0.07582 0.0
O245 O 0.07104 0.69794 1.06211 0.0
O246 O 0.04595 0.64526 1.00156 0.0
C247 C 0.02461 0.62 0.18475 0.0
C248 C 0.10685 0.44531 0.20886 0.0
C249 C 0.19148 0.41279 0.22578 0.0
C250 C 0.14643 0.39433 0.25399 0.0
C251 C 0.10438 0.41043 0.2455 0.0
C252 C 0.15184 0.46414 0.18102 0.0
C253 C 0.19368 0.44792 0.18924 0.0
C254 C 0.06334 0.46312 0.19984 0.0
C255 C 0.15999 0.62517 0.13451 0.0
H256 H 0.92572 0.73123 0.92906 0.0
H257 H 1.01204 0.72587 0.93897 0.0
H258 H 0.97425 0.67248 0.08887 0.0
H259 H 0.88817 0.67583 0.07875 0.0
H260 H 0.1434 0.36684 0.28207 0.0
H261 H 0.07001 0.39563 0.26743 0.0
H262 H 0.15467 0.49156 0.15293 0.0
H263 H 0.22795 0.46328 0.16736 0.0
C264 C 0.3163 0.17802 0.33055 0.0
C265 C 0.35665 0.22162 0.33776 0.0
H266 H 0.26359 0.11595 0.36526 0.0
C267 C 0.37903 0.23381 0.38523 0.0
H268 H 0.29861 0.16835 0.29396 0.0
C269 C 0.3586 0.20465 0.42613 0.0
C270 C 0.31553 0.16275 0.41999 0.0
H271 H 0.40991 0.26775 0.39131 0.0
H272 H 0.37412 0.21721 0.46303 0.0
C273 C 0.29617 0.14844 0.37134 0.0
C274 C 0.19131 0.89986 0.88807 0.0
C275 C 0.18905 0.85254 0.87072 0.0
H276 H 0.22742 0.96089 0.93589 0.0
C277 C 0.21726 0.82745 0.8966 0.0
H278 H 0.17164 0.92149 0.86899 0.0
C279 C 0.25081 0.85117 0.9352 0.0
C280 C 0.25603 0.90003 0.94907 0.0
H281 H 0.21578 0.79065 0.88508 0.0
H282 H 0.27471 0.83233 0.9522 0.0
C283 C 0.22393 0.92301 0.92686 0.0
C284 C 0.66196 0.47843 0.7634 0.0
C285 C 0.66124 0.49867 0.81194 0.0
H286 H 0.65011 0.48393 0.68422 0.0
C287 C 0.64826 0.54228 0.81635 0.0
H288 H 0.67041 0.44428 0.7585 0.0
C289 C 0.63595 0.56472 0.774 0.0
C290 C 0.63598 0.54434 0.72545 0.0
H291 H 0.64612 0.55843 0.85308 0.0
H292 H 0.62523 0.59762 0.77957 0.0
C293 C 0.65006 0.5012 0.72076 0.0
C294 C 1.00432 0.72368 0.26648 0.0
C295 C 0.96584 0.69878 0.29998 0.0
H296 H 0.05237 0.71898 0.20456 0.0
C297 C 0.94912 0.647 0.29773 0.0
H298 H 1.01812 0.76342 0.26694 0.0
C299 C 0.96881 0.62105 0.26152 0.0
C300 C 1.00567 0.6462 0.22641 0.0
H301 H 0.91934 0.62662 0.32279 0.0
H302 H 0.95401 0.58136 0.2601 0.0
C303 C 0.02371 0.69794 0.2303 0.0
C304 C 0.54843 0.2781 0.15168 0.0
C305 C 0.53871 0.28192 0.203 0.0
H306 H 0.56365 0.23381 0.09206 0.0
C307 C 0.54199 0.24469 0.23509 0.0
H308 H 0.54557 0.30602 0.12622 0.0
C309 C 0.55288 0.2033 0.21559 0.0
C310 C 0.55932 0.19834 0.16372 0.0
H311 H 0.53394 0.24662 0.27477 0.0
H312 H 0.5531 0.17402 0.24045 0.0
C313 C 0.55844 0.23669 0.13223 0.0
C314 C 0.04969 0.89411 0.74286 0.0
C315 C 0.0997 0.89339 0.73484 0.0
H316 H 0.99803 0.9364 0.73841 0.0
C317 C 0.13676 0.93558 0.71763 0.0
H318 H 1.02092 0.86221 0.75732 0.0
C319 C 0.12453 0.9781 0.70912 0.0
C320 C 0.07458 0.97919 0.71659 0.0
H321 H 0.17591 0.93621 0.71252 0.0
H322 H 0.15431 1.01001 0.69611 0.0
C323 C 0.03693 0.93658 0.73278 0.0
C324 C 0.84079 0.50862 1.00376 0.0
C325 C 0.8264 0.45785 0.9928 0.0
H326 H 0.89541 0.57137 1.03881 0.0
C327 C 0.85846 0.43179 1.00998 0.0
H328 H 0.81724 0.53006 0.9916 0.0
C329 C 0.90266 0.45522 1.03777 0.0
C330 C 0.91698 0.50578 1.04894 0.0
H331 H 0.84988 0.39301 1.00139 0.0
H332 H 0.92614 0.43361 1.04974 0.0
C333 C 0.8855 0.53226 1.03136 0.0
C334 C 0.78406 0.74711 0.52654 0.0
C335 C 0.8158 0.72185 0.50503 0.0
H336 H 0.71468 0.74263 0.5657 0.0
C337 C 0.7989 0.67016 0.50721 0.0
H338 H 0.79391 0.78656 0.52453 0.0
C339 C 0.75193 0.64491 0.52928 0.0
C340 C 0.72116 0.67052 0.55127 0.0
H341 H 0.82192 0.64887 0.49225 0.0
H342 H 0.73994 0.60523 0.52956 0.0
C343 C 0.73804 0.72189 0.55007 0.0
C344 C 0.30153 0.36292 0.20049 0.0
C345 C 0.31525 0.35437 0.24932 0.0
H346 H 0.2512 0.38743 0.15474 0.0
C347 C 0.29038 0.36851 0.29034 0.0
H348 H 0.31949 0.35194 0.16809 0.0
C349 C 0.25096 0.38835 0.28272 0.0
C350 C 0.23573 0.3949 0.2339 0.0
H351 H 0.30066 0.36323 0.32848 0.0
H352 H 0.23206 0.39813 0.3151 0.0
C353 C 0.26222 0.38303 0.19286 0.0
C354 C 0.63 0.27805 0.9618 0.0
C355 C 0.68328 0.30106 0.9631 0.0
H356 H 0.56685 0.21452 0.98092 0.0
C357 C 0.71368 0.27363 0.98104 0.0
H358 H 0.60514 0.29766 0.94841 0.0
C359 C 0.6918 0.22672 1.00042 0.0
C360 C 0.63868 0.20463 1.00136 0.0
H361 H 0.75486 0.28887 0.98122 0.0
H362 H 0.7167 0.20795 1.01556 0.0
C363 C 0.60799 0.2303 0.98048 0.0
C364 C 0.93138 0.90819 0.50373 0.0
C365 C 0.96211 0.87839 0.49232 0.0
H366 H 0.92586 0.9746 0.53771 0.0
C367 C 1.01447 0.89729 0.50369 0.0
H368 H 0.89104 0.89538 0.49495 0.0
C369 C 0.03473 0.94335 0.52833 0.0
C370 C 1.00323 0.97188 0.54208 0.0
H371 H 0.03932 0.87548 0.49581 0.0
H372 H 0.07478 0.95569 0.53827 0.0
C373 C 0.95148 0.95396 0.52823 0.0
C374 C 0.29343 0.76192 0.66482 0.0
C375 C 0.29399 0.80833 0.68276 0.0
H376 H 0.33593 0.71215 0.65208 0.0
C377 C 0.33935 0.84062 0.70298 0.0
H378 H 0.25887 0.73649 0.64903 0.0
C379 C 0.38374 0.82711 0.70416 0.0
C380 C 0.38363 0.78102 0.68512 0.0
H381 H 0.3408 0.87676 0.71685 0.0
H382 H 0.41846 0.85335 0.71861 0.0
C383 C 0.33769 0.7483 0.66616 0.0
C384 C 0.7425 0.833 0.79985 0.0
C385 C 0.69108 0.82942 0.80806 0.0
H386 H 0.81073 0.86745 0.75973 0.0
C387 C 0.66626 0.84934 0.77229 0.0
H388 H 0.76352 0.81863 0.82623 0.0
C389 C 0.6942 0.87861 0.73409 0.0
C390 C 0.74708 0.88747 0.73049 0.0
H391 H 0.62629 0.84595 0.77639 0.0
H392 H 0.67533 0.89751 0.71006 0.0
C393 C 0.77003 0.86142 0.76132 0.0
C394 C 0.92162 0.23173 0.34177 0.0
C395 C 0.93576 0.28325 0.34358 0.0
H396 H 0.87937 0.1653 0.30404 0.0
C397 C 0.91993 0.30744 0.30461 0.0
H398 H 0.93152 0.21156 0.37176 0.0
C399 C 0.88887 0.28047 0.26585 0.0
C400 C 0.87375 0.22895 0.2652 0.0
H401 H 0.93045 0.34711 0.30479 0.0
H402 H 0.87588 0.29973 0.23701 0.0
C403 C 0.89134 0.20501 0.30294 0.0
C404 C 0.4678 0.6266 0.39421 0.0
C405 C 0.47673 0.67711 0.38671 0.0
H406 H 0.47702 0.57062 0.44199 0.0
C407 C 0.50108 0.71003 0.42551 0.0
H408 H 0.44985 0.60009 0.36497 0.0
C409 C 0.51696 0.69309 0.46989 0.0
C410 C 0.5094 0.64262 0.47678 0.0
H411 H 0.50937 0.74913 0.4208 0.0
H412 H 0.53645 0.71988 0.49829 0.0
C413 C 0.48372 0.60964 0.43846 0.0
C414 C 0.13864 0.4365 0.95579 0.0
C415 C 0.14726 0.45697 0.90769 0.0
H416 H 0.11867 0.44502 1.0329 0.0
C417 C 0.1405 0.50315 0.90144 0.0
H418 H 0.14389 0.40132 0.96227 0.0
C419 C 0.12577 0.52811 0.94174 0.0
C420 C 0.11803 0.50821 0.9901 0.0
H421 H 0.14651 0.52011 0.86503 0.0
H422 H 0.12083 0.56337 0.93495 0.0
C423 C 0.12468 0.46192 0.99647 0.0
C424 C 0.57345 0.89213 0.94705 0.0
C425 C 0.61867 0.88234 0.95906 0.0
H426 H 0.5279 0.93973 0.95917 0.0
C427 C 0.65374 0.91433 0.99203 0.0
H428 H 0.54623 0.86819 0.92116 0.0
C429 C 0.64417 0.95562 1.01237 0.0
C430 C 0.59889 0.9655 1.00084 0.0
H431 H 0.68934 0.90807 1.00107 0.0
H432 H 0.67212 0.97951 1.03769 0.0
C433 C 0.56323 0.93307 0.96846 0.0
C434 C 1.01217 0.27101 0.54603 0.0
C435 C 0.03246 0.27998 0.4974 0.0
H436 H 1.00218 0.22773 0.61116 0.0
C437 C 0.06366 0.25272 0.47941 0.0
H438 H 0.98711 0.29009 0.56124 0.0
C439 C 0.07137 0.21525 0.50816 0.0
C440 C 0.04805 0.20458 0.55537 0.0
H441 H 0.08043 0.25899 0.44234 0.0
H442 H 0.09383 0.1936 0.4927 0.0
C443 C 1.02005 0.23415 0.57454 0.0
C444 C 0.27709 0.7296 0.17668 0.0
C445 C 0.30616 0.70511 0.20273 0.0
H446 H 0.20977 0.72393 0.1338 0.0
C447 C 0.2869 0.65341 0.20382 0.0
H448 H 0.28882 0.76922 0.1758 0.0
C449 C 0.24016 0.62753 0.18082 0.0
C450 C 0.21174 0.65228 0.15479 0.0
H451 H 0.30783 0.63258 0.22232 0.0
H452 H 0.22623 0.58793 0.1834 0.0
C453 C 0.23117 0.70359 0.15251 0.0
C454 C 0.37864 0.45938 0.71369 0.0
C455 C 0.35395 0.48958 0.73794 0.0
H456 H 0.4374 0.45488 0.66274 0.0
C457 C 0.36733 0.53906 0.72454 0.0
H458 H 0.36904 0.42104 0.7231 0.0
C459 C 0.40649 0.55857 0.68978 0.0
C460 C 0.43331 0.52902 0.6676 0.0
H461 H 0.34893 0.56314 0.74261 0.0
H462 H 0.41713 0.59735 0.68198 0.0
C463 C 0.41788 0.47885 0.67905 0.0
C464 C 0.7707 0.68973 0.94412 0.0
C465 C 0.74472 0.70354 0.98428 0.0
H466 H 0.83962 0.67794 0.91872 0.0
C467 C 0.76971 0.71713 1.03055 0.0
H468 H 0.75256 0.6802 0.90772 0.0
C469 C 0.81985 0.71708 1.03661 0.0
C470 C 0.84622 0.70348 0.99645 0.0
H471 H 0.75088 0.72931 1.06157 0.0
H472 H 0.83839 0.72902 1.07246 0.0
C473 C 0.82081 0.68929 0.95024 0.0
C474 C 0.51032 0.87757 0.21111 0.0
C475 C 0.4569 0.85959 0.21582 0.0
H476 H 0.57541 0.93516 0.18492 0.0
C477 C 0.42856 0.88966 0.19968 0.0
H478 H 0.53349 0.85558 0.22283 0.0
C479 C 0.45249 0.93527 0.17791 0.0
C480 C 0.5057 0.95254 0.1715 0.0
H481 H 0.38744 0.87769 0.2034 0.0
H482 H 0.42896 0.95653 0.16517 0.0
C483 C 0.53434 0.92328 0.18909 0.0
C484 C 0.17401 0.28019 0.78085 0.0
C485 C 0.14106 0.30677 0.79549 0.0
H486 H 0.18255 0.21604 0.74457 0.0
C487 C 0.0882 0.2837 0.78911 0.0
H488 H 0.21482 0.29604 0.78601 0.0
C489 C 0.06938 0.23684 0.76555 0.0
C490 C 0.10302 0.21213 0.74766 0.0
H491 H 0.06162 0.30295 0.79969 0.0
H492 H 0.02879 0.22129 0.75882 0.0
C493 C 0.15542 0.234 0.75709 0.0
C494 C 0.84522 0.42064 0.55447 0.0
C495 C 0.85705 0.39331 0.51475 0.0
H496 H 0.79239 0.45406 0.585 0.0
C497 C 0.82453 0.38078 0.47285 0.0
H498 H 0.86941 0.43032 0.58743 0.0
C499 C 0.78031 0.39464 0.47116 0.0
C500 C 0.76786 0.42127 0.51142 0.0
H501 H 0.83282 0.35936 0.44195 0.0
H502 H 0.75588 0.38444 0.43843 0.0
C503 C 0.80111 0.43433 0.55291 0.0
loop_
_geom_bond_atom_site_label_1
_geom_bond_atom_site_label_2
_geom_bond_distance
_geom_bond_site_symmetry_2
_ccdc_geom_bond_type
H0 C7 0.929 . S
H1 C10 0.930 . S
H2 C12 0.929 . S
H3 C4 0.969 . S
C4 H3 0.969 . S
C4 O5 1.550 . S
C4 H6 0.973 . S
O5 C4 1.550 . S
O5 C11 1.412 . S
H6 C4 0.973 . S
C7 H0 0.929 . S
C7 C8 1.400 . S
C7 C9 1.364 . S
C8 C7 1.400 . S
C8 C12 1.377 . S
C9 C7 1.364 . S
C9 C10 1.374 . S
C10 H1 0.930 . S
C10 C9 1.374 . S
C10 C11 1.383 . S
C11 O5 1.412 . S
C11 C10 1.383 . S
C11 C12 1.394 . S
C12 H2 0.929 . S
C12 C8 1.377 . S
C12 C11 1.394 . S
H13 C20 0.929 . S
H14 C23 0.930 . S
H15 C25 0.929 . S
H16 C17 0.969 . S
C17 H16 0.969 . S
C17 O18 1.550 . S
C17 H19 0.973 . S
O18 C17 1.550 . S
O18 C24 1.412 . S
H19 C17 0.973 . S
C20 H13 0.929 . S
C20 C21 1.400 . S
C20 C22 1.364 . S
C21 C20 1.400 . S
C21 C25 1.377 . S
C22 C20 1.364 . S
C22 C23 1.374 . S
C23 H14 0.930 . S
C23 C22 1.374 . S
C23 C24 1.383 . S
C24 O18 1.412 . S
C24 C23 1.383 . S
C24 C25 1.394 . S
C25 H15 0.929 . S
C25 C21 1.377 . S
C25 C24 1.394 . S
H26 C33 0.929 . S
H27 C36 0.930 . S
H28 C38 0.929 . S
H29 C30 0.969 . S
C30 H29 0.969 . S
C30 O31 1.550 . S
C30 H32 0.973 . S
O31 C30 1.550 . S
O31 C37 1.412 . S
H32 C30 0.973 . S
C33 H26 0.929 . S
C33 C34 1.400 . S
C33 C35 1.364 . S
C34 C33 1.400 . S
C34 C38 1.377 . S
C35 C33 1.364 . S
C35 C36 1.374 . S
C36 H27 0.930 . S
C36 C35 1.374 . S
C36 C37 1.383 . S
C37 O31 1.412 . S
C37 C36 1.383 . S
C37 C38 1.394 . S
C38 H28 0.929 . S
C38 C34 1.377 . S
C38 C37 1.394 . S
H39 C46 0.929 . S
H40 C49 0.930 . S
H41 C51 0.929 . S
H42 C43 0.969 . S
C43 H42 0.969 . S
C43 O44 1.550 . S
C43 H45 0.973 . S
O44 C43 1.550 . S
O44 C50 1.412 . S
H45 C43 0.973 . S
C46 H39 0.929 . S
C46 C47 1.400 . S
C46 C48 1.364 . S
C47 C46 1.400 . S
C47 C51 1.377 . S
C48 C46 1.364 . S
C48 C49 1.374 . S
C49 H40 0.930 . S
C49 C48 1.374 . S
C49 C50 1.383 . S
C50 O44 1.412 . S
C50 C49 1.383 . S
C50 C51 1.394 . S
C51 H41 0.929 . S
C51 C47 1.377 . S
C51 C50 1.394 . S
H52 C59 0.929 . S
H53 C62 0.930 . S
H54 C64 0.929 . S
H55 C56 0.969 . S
C56 H55 0.969 . S
C56 O57 1.550 . S
C56 H58 0.973 . S
O57 C56 1.550 . S
O57 C63 1.412 . S
H58 C56 0.973 . S
C59 H52 0.929 . S
C59 C60 1.400 . S
C59 C61 1.364 . S
C60 C59 1.400 . S
C60 C64 1.377 . S
C61 C59 1.364 . S
C61 C62 1.374 . S
C62 H53 0.930 . S
C62 C61 1.374 . S
C62 C63 1.383 . S
C63 O57 1.412 . S
C63 C62 1.383 . S
C63 C64 1.394 . S
C64 H54 0.929 . S
C64 C60 1.377 . S
C64 C63 1.394 . S
H65 C72 0.929 . S
H66 C75 0.930 . S
H67 C77 0.929 . S
H68 C69 0.969 . S
C69 H68 0.969 . S
C69 O70 1.550 . S
C69 H71 0.973 . S
O70 C69 1.550 . S
O70 C76 1.412 . S
H71 C69 0.973 . S
C72 H65 0.929 . S
C72 C73 1.400 . S
C72 C74 1.364 . S
C73 C72 1.400 . S
C73 C77 1.377 . S
C74 C72 1.364 . S
C74 C75 1.374 . S
C75 H66 0.930 . S
C75 C74 1.374 . S
C75 C76 1.383 . S
C76 O70 1.412 . S
C76 C75 1.383 . S
C76 C77 1.394 . S
C77 H67 0.929 . S
C77 C73 1.377 . S
C77 C76 1.394 . S
H78 C85 0.929 . S
H79 C88 0.930 . S
H80 C90 0.929 . S
H81 C82 0.969 . S
C82 H81 0.969 . S
C82 O83 1.550 . S
C82 H84 0.973 . S
O83 C82 1.550 . S
O83 C89 1.412 . S
H84 C82 0.973 . S
C85 H78 0.929 . S
C85 C86 1.400 . S
C85 C87 1.364 . S
C86 C85 1.400 . S
C86 C90 1.377 . S
C87 C85 1.364 . S
C87 C88 1.374 . S
C88 H79 0.930 . S
C88 C87 1.374 . S
C88 C89 1.383 . S
C89 O83 1.412 . S
C89 C88 1.383 . S
C89 C90 1.394 . S
C90 H80 0.929 . S
C90 C86 1.377 . S
C90 C89 1.394 . S
H91 C98 0.929 . S
H92 C101 0.930 . S
H93 C103 0.929 . S
H94 C95 0.969 . S
C95 H94 0.969 . S
C95 O96 1.550 . S
C95 H97 0.973 . S
O96 C95 1.550 . S
O96 C102 1.412 . S
H97 C95 0.973 . S
C98 H91 0.929 . S
C98 C99 1.400 . S
C98 C100 1.364 . S
C99 C98 1.400 . S
C99 C103 1.377 . S
C100 C98 1.364 . S
C100 C101 1.374 . S
C101 H92 0.930 . S
C101 C100 1.374 . S
C101 C102 1.383 . S
C102 O96 1.412 . S
C102 C101 1.383 . S
C102 C103 1.394 . S
C103 H93 0.929 . S
C103 C99 1.377 . S
C103 C102 1.394 . S
Tb104 C113 2.764 . S
Tb104 O114 2.325 . S
Tb104 O117 2.303 . S
Tb104 O121 2.322 1_545 S
Tb104 O122 2.349 1_545 S
Tb104 O125 2.415 . S
Tb104 O126 2.399 . S
Tb105 O115 2.322 . S
Tb105 O116 2.345 1_655 S
Tb105 O118 2.415 1_545 S
Tb105 O119 2.399 . S
Tb105 O120 2.325 1_645 S
Tb105 O123 2.303 1_545 S
Tb105 C134 2.764 1_545 S
C106 O122 1.261 1_655 S
C106 O123 1.257 . S
C107 C110 1.358 . S
C107 C111 1.332 . S
C107 C113 1.504 . S
C108 C109 1.373 . S
C108 C112 1.308 . S
C109 C108 1.373 . S
C109 C110 1.429 . S
C109 H136 0.932 . S
C110 C107 1.358 . S
C110 C109 1.429 . S
C110 H137 0.930 . S
C111 C107 1.332 . S
C111 C112 1.394 . S
C111 H138 0.932 . S
C112 C108 1.308 . S
C112 C111 1.394 . S
C112 H139 0.929 . S
C113 Tb104 2.764 . S
C113 C107 1.504 . S
C113 O125 1.239 . S
C113 O126 1.263 . S
O114 Tb104 2.325 . S
O114 C124 1.236 1_455 S
O115 Tb105 2.322 . S
O115 C124 1.257 . S
O116 Tb105 2.345 1_455 S
O116 C127 1.271 . S
O117 Tb104 2.303 . S
O117 C127 1.257 . S
O118 Tb105 2.415 1_565 S
O118 C134 1.239 . S
O119 Tb105 2.399 . S
O119 C134 1.263 1_545 S
O120 Tb105 2.325 1_465 S
O120 C135 1.236 . S
O121 Tb104 2.322 1_565 S
O121 C135 1.257 . S
O122 Tb104 2.349 1_565 S
O122 C106 1.261 1_455 S
O123 Tb105 2.303 1_565 S
O123 C106 1.257 . S
C124 O114 1.236 1_655 S
C124 O115 1.257 . S
O125 Tb104 2.415 . S
O125 C113 1.239 . S
O126 Tb104 2.399 . S
O126 C113 1.263 . S
C127 O116 1.271 . S
C127 O117 1.257 . S
C128 C131 1.358 . S
C128 C132 1.332 . S
C128 C134 1.504 . S
C129 C130 1.373 . S
C129 C133 1.308 . S
C130 C129 1.373 . S
C130 C131 1.429 . S
C130 H140 0.932 . S
C131 C128 1.358 . S
C131 C130 1.429 . S
C131 H141 0.930 . S
C132 C128 1.332 . S
C132 C133 1.394 . S
C132 H142 0.932 . S
C133 C129 1.308 . S
C133 C132 1.394 . S
C133 H143 0.929 . S
C134 Tb105 2.764 1_565 S
C134 O118 1.239 . S
C134 O119 1.263 1_565 S
C134 C128 1.504 . S
C135 O120 1.236 . S
C135 O121 1.257 . S
H136 C109 0.932 . S
H137 C110 0.930 . S
H138 C111 0.932 . S
H139 C112 0.929 . S
H140 C130 0.932 . S
H141 C131 0.930 . S
H142 C132 0.932 . S
H143 C133 0.929 . S
Tb144 C153 2.764 . S
Tb144 O154 2.325 . S
Tb144 O157 2.303 . S
Tb144 O161 2.322 1_545 S
Tb144 O162 2.349 1_545 S
Tb144 O165 2.415 . S
Tb144 O166 2.399 . S
Tb145 O155 2.322 . S
Tb145 O156 2.349 1_556 S
Tb145 O158 2.415 1_545 S
Tb145 O159 2.399 1_545 S
Tb145 O160 2.325 1_546 S
Tb145 O163 2.303 1_545 S
Tb145 C174 2.764 1_545 S
C146 O162 1.261 1_556 S
C146 O163 1.257 . S
C147 C150 1.358 . S
C147 C151 1.332 . S
C147 C153 1.504 . S
C148 C149 1.373 . S
C148 C152 1.308 . S
C149 C148 1.373 . S
C149 C150 1.429 . S
C149 H176 0.932 . S
C150 C147 1.358 . S
C150 C149 1.429 . S
C150 H177 0.930 . S
C151 C147 1.332 . S
C151 C152 1.394 . S
C151 H178 0.932 . S
C152 C148 1.308 . S
C152 C151 1.394 . S
C152 H179 0.929 . S
C153 Tb144 2.764 . S
C153 C147 1.504 . S
C153 O165 1.239 . S
C153 O166 1.263 . S
O154 Tb144 2.325 . S
O154 C164 1.236 1_554 S
O155 Tb145 2.322 . S
O155 C164 1.257 . S
O156 Tb145 2.349 1_554 S
O156 C167 1.261 . S
O157 Tb144 2.303 . S
O157 C167 1.257 . S
O158 Tb145 2.415 1_565 S
O158 C174 1.239 . S
O159 Tb145 2.399 1_565 S
O159 C174 1.263 . S
O160 Tb145 2.325 1_564 S
O160 C175 1.236 . S
O161 Tb144 2.322 1_565 S
O161 C175 1.257 . S
O162 Tb144 2.349 1_565 S
O162 C146 1.261 1_554 S
O163 Tb145 2.303 1_565 S
O163 C146 1.257 . S
C164 O154 1.236 1_556 S
C164 O155 1.257 . S
O165 Tb144 2.415 . S
O165 C153 1.239 . S
O166 Tb144 2.399 . S
O166 C153 1.263 . S
C167 O156 1.261 . S
C167 O157 1.257 . S
C168 C171 1.358 . S
C168 C172 1.332 . S
C168 C174 1.504 . S
C169 C170 1.373 . S
C169 C173 1.308 . S
C170 C169 1.373 . S
C170 C171 1.429 . S
C170 H180 0.932 . S
C171 C168 1.358 . S
C171 C170 1.429 . S
C171 H181 0.930 . S
C172 C168 1.332 . S
C172 C173 1.394 . S
C172 H182 0.932 . S
C173 C169 1.308 . S
C173 C172 1.394 . S
C173 H183 0.929 . S
C174 Tb145 2.764 1_565 S
C174 O158 1.239 . S
C174 O159 1.263 . S
C174 C168 1.504 . S
C175 O160 1.236 . S
C175 O161 1.257 . S
H176 C149 0.932 . S
H177 C150 0.930 . S
H178 C151 0.932 . S
H179 C152 0.929 . S
H180 C170 0.932 . S
H181 C171 0.930 . S
H182 C172 0.932 . S
H183 C173 0.929 . S
Tb184 C193 2.764 . S
Tb184 O194 2.325 . S
Tb184 O197 2.303 . S
Tb184 O201 2.322 . S
Tb184 O202 2.349 . S
Tb184 O205 2.415 . S
Tb184 O206 2.399 . S
Tb185 O195 2.322 . S
Tb185 O196 2.349 . S
Tb185 O198 2.415 . S
Tb185 O199 2.399 . S
Tb185 O200 2.325 . S
Tb185 O203 2.303 . S
Tb185 C214 2.764 . S
C186 O202 1.261 . S
C186 O203 1.257 . S
C187 C190 1.358 . S
C187 C191 1.332 . S
C187 C193 1.504 . S
C188 C189 1.373 . S
C188 C192 1.308 . S
C189 C188 1.373 . S
C189 C190 1.429 . S
C189 H216 0.932 . S
C190 C187 1.358 . S
C190 C189 1.429 . S
C190 H217 0.930 . S
C191 C187 1.332 . S
C191 C192 1.394 . S
C191 H218 0.932 . S
C192 C188 1.308 . S
C192 C191 1.394 . S
C192 H219 0.929 . S
C193 Tb184 2.764 . S
C193 C187 1.504 . S
C193 O205 1.239 . S
C193 O206 1.263 . S
O194 Tb184 2.325 . S
O194 C204 1.236 . S
O195 Tb185 2.322 . S
O195 C204 1.257 . S
O196 Tb185 2.349 . S
O196 C207 1.261 . S
O197 Tb184 2.303 . S
O197 C207 1.257 . S
O198 Tb185 2.415 . S
O198 C214 1.239 . S
O199 Tb185 2.399 . S
O199 C214 1.263 . S
O200 Tb185 2.325 . S
O200 C215 1.236 . S
O201 Tb184 2.322 . S
O201 C215 1.257 . S
O202 Tb184 2.349 . S
O202 C186 1.261 . S
O203 Tb185 2.303 . S
O203 C186 1.257 . S
C204 O194 1.236 . S
C204 O195 1.257 . S
O205 Tb184 2.415 . S
O205 C193 1.239 . S
O206 Tb184 2.399 . S
O206 C193 1.263 . S
C207 O196 1.261 . S
C207 O197 1.257 . S
C208 C211 1.358 . S
C208 C212 1.332 . S
C208 C214 1.504 . S
C209 C210 1.373 . S
C209 C213 1.308 . S
C210 C209 1.373 . S
C210 C211 1.429 . S
C210 H220 0.932 . S
C211 C208 1.358 . S
C211 C210 1.429 . S
C211 H221 0.930 . S
C212 C208 1.332 . S
C212 C213 1.394 . S
C212 H222 0.932 . S
C213 C209 1.308 . S
C213 C212 1.394 . S
C213 H223 0.929 . S
C214 Tb185 2.764 . S
C214 O198 1.239 . S
C214 O199 1.263 . S
C214 C208 1.504 . S
C215 O200 1.236 . S
C215 O201 1.257 . S
H216 C189 0.932 . S
H217 C190 0.930 . S
H218 C191 0.932 . S
H219 C192 0.929 . S
H220 C210 0.932 . S
H221 C211 0.930 . S
H222 C212 0.932 . S
H223 C213 0.929 . S
Tb224 C233 2.764 1_454 S
Tb224 O234 2.325 1_455 S
Tb224 O237 2.306 . S
Tb224 O241 2.322 . S
Tb224 O242 2.349 1_554 S
Tb224 O245 2.415 1_455 S
Tb224 O246 2.399 1_454 S
Tb225 O235 2.322 1_455 S
Tb225 O236 2.349 1_455 S
Tb225 O238 2.415 . S
Tb225 O239 2.399 . S
Tb225 O240 2.325 . S
Tb225 O243 2.303 . S
Tb225 C254 2.764 . S
C226 O242 1.261 . S
C226 O243 1.257 1_556 S
C227 C230 1.358 . S
C227 C231 1.332 . S
C227 C233 1.504 . S
C228 C229 1.373 . S
C228 C232 1.308 . S
C229 C228 1.373 . S
C229 C230 1.429 . S
C229 H256 0.932 . S
C230 C227 1.358 . S
C230 C229 1.429 . S
C230 H257 0.930 . S
C231 C227 1.332 . S
C231 C232 1.394 . S
C231 H258 0.932 1_556 S
C232 C228 1.308 . S
C232 C231 1.394 . S
C232 H259 0.929 . S
C233 Tb224 2.764 1_656 S
C233 C227 1.504 . S
C233 O245 1.239 1_556 S
C233 O246 1.263 . S
O234 Tb224 2.325 1_655 S
O234 C244 1.236 . S
O235 Tb225 2.322 1_655 S
O235 C244 1.257 . S
O236 Tb225 2.349 1_655 S
O236 C247 1.261 . S
O237 Tb224 2.306 . S
O237 C247 1.253 1_455 S
O238 Tb225 2.415 . S
O238 C254 1.239 . S
O239 Tb225 2.399 . S
O239 C254 1.263 . S
O240 Tb225 2.325 . S
O240 C255 1.236 . S
O241 Tb224 2.322 . S
O241 C255 1.257 . S
O242 Tb224 2.349 1_556 S
O242 C226 1.261 . S
O243 Tb225 2.303 . S
O243 C226 1.257 1_554 S
C244 O234 1.236 . S
C244 O235 1.257 . S
O245 Tb224 2.415 1_655 S
O245 C233 1.239 1_554 S
O246 Tb224 2.399 1_656 S
O246 C233 1.263 . S
C247 O236 1.261 . S
C247 O237 1.253 1_655 S
C248 C251 1.358 . S
C248 C252 1.332 . S
C248 C254 1.504 . S
C249 C250 1.373 . S
C249 C253 1.308 . S
C250 C249 1.373 . S
C250 C251 1.429 . S
C250 H260 0.932 . S
C251 C248 1.358 . S
C251 C250 1.429 . S
C251 H261 0.930 . S
C252 C248 1.332 . S
C252 C253 1.394 . S
C252 H262 0.932 . S
C253 C249 1.308 . S
C253 C252 1.394 . S
C253 H263 0.929 . S
C254 Tb225 2.764 . S
C254 O238 1.239 . S
C254 O239 1.263 . S
C254 C248 1.504 . S
C255 O240 1.236 . S
C255 O241 1.257 . S
H256 C229 0.932 . S
H257 C230 0.930 . S
H258 C231 0.932 1_554 S
H259 C232 0.929 . S
H260 C250 0.932 . S
H261 C251 0.930 . S
H262 C252 0.932 . S
H263 C253 0.929 . S
C264 C265 1.387 . S
C264 H268 0.950 . S
C264 C273 1.390 . S
C265 C264 1.387 . S
C265 C267 1.387 . S
H266 C273 0.950 . S
C267 C265 1.387 . S
C267 C269 1.390 . S
C267 H271 0.950 . S
H268 C264 0.950 . S
C269 C267 1.390 . S
C269 C270 1.387 . S
C269 H272 0.950 . S
C270 C269 1.387 . S
C270 C273 1.387 . S
H271 C267 0.950 . S
H272 C269 0.950 . S
C273 C264 1.390 . S
C273 H266 0.950 . S
C273 C270 1.387 . S
C274 C275 1.387 . S
C274 H278 0.950 . S
C274 C283 1.390 . S
C275 C274 1.387 . S
C275 C277 1.387 . S
H276 C283 0.950 . S
C277 C275 1.387 . S
C277 C279 1.390 . S
C277 H281 0.950 . S
H278 C274 0.950 . S
C279 C277 1.390 . S
C279 C280 1.387 . S
C279 H282 0.950 . S
C280 C279 1.387 . S
C280 C283 1.387 . S
H281 C277 0.950 . S
H282 C279 0.950 . S
C283 C274 1.390 . S
C283 H276 0.950 . S
C283 C280 1.387 . S
C284 C285 1.387 . S
C284 H288 0.950 . S
C284 C293 1.390 . S
C285 C284 1.387 . S
C285 C287 1.387 . S
H286 C293 0.950 . S
C287 C285 1.387 . S
C287 C289 1.390 . S
C287 H291 0.950 . S
H288 C284 0.950 . S
C289 C287 1.390 . S
C289 C290 1.387 . S
C289 H292 0.950 . S
C290 C289 1.387 . S
C290 C293 1.387 . S
H291 C287 0.950 . S
H292 C289 0.950 . S
C293 C284 1.390 . S
C293 H286 0.950 . S
C293 C290 1.387 . S
C294 C295 1.387 . S
C294 H298 0.950 . S
C294 C303 1.390 . S
C295 C294 1.387 . S
C295 C297 1.387 . S
H296 C303 0.950 . S
C297 C295 1.387 . S
C297 C299 1.390 1_655 S
C297 H301 0.950 1_655 S
H298 C294 0.950 . S
C299 C297 1.390 1_455 S
C299 C300 1.387 1_455 S
C299 H302 0.950 . S
C300 C299 1.387 1_655 S
C300 C303 1.387 . S
H301 C297 0.950 1_455 S
H302 C299 0.950 . S
C303 C294 1.390 . S
C303 H296 0.950 . S
C303 C300 1.387 . S
C304 C305 1.387 . S
C304 H308 0.950 . S
C304 C313 1.390 . S
C305 C304 1.387 . S
C305 C307 1.387 . S
H306 C313 0.950 . S
C307 C305 1.387 . S
C307 C309 1.390 . S
C307 H311 0.950 . S
H308 C304 0.950 . S
C309 C307 1.390 . S
C309 C310 1.387 . S
C309 H312 0.950 . S
C310 C309 1.387 . S
C310 C313 1.387 . S
H311 C307 0.950 . S
H312 C309 0.950 . S
C313 C304 1.390 . S
C313 H306 0.950 . S
C313 C310 1.387 . S
C314 C315 1.387 . S
C314 H318 0.950 . S
C314 C323 1.390 . S
C315 C314 1.387 . S
C315 C317 1.387 . S
H316 C323 0.950 . S
C317 C315 1.387 . S
C317 C319 1.390 . S
C317 H321 0.950 . S
H318 C314 0.950 . S
C319 C317 1.390 . S
C319 C320 1.387 . S
C319 H322 0.950 . S
C320 C319 1.387 . S
C320 C323 1.387 . S
H321 C317 0.950 . S
H322 C319 0.950 . S
C323 C314 1.390 . S
C323 H316 0.950 . S
C323 C320 1.387 . S
C324 C325 1.387 . S
C324 H328 0.950 . S
C324 C333 1.390 . S
C325 C324 1.387 . S
C325 C327 1.387 . S
H326 C333 0.950 . S
C327 C325 1.387 . S
C327 C329 1.390 . S
C327 H331 0.950 . S
H328 C324 0.950 . S
C329 C327 1.390 . S
C329 C330 1.387 1_556 S
C329 H332 0.950 1_556 S
C330 C329 1.387 1_554 S
C330 C333 1.387 1_554 S
H331 C327 0.950 . S
H332 C329 0.950 1_554 S
C333 C324 1.390 . S
C333 H326 0.950 . S
C333 C330 1.387 1_556 S
C334 C335 1.387 . S
C334 H338 0.950 . S
C334 C343 1.390 . S
C335 C334 1.387 . S
C335 C337 1.387 . S
H336 C343 0.950 . S
C337 C335 1.387 . S
C337 C339 1.390 . S
C337 H341 0.950 . S
H338 C334 0.950 . S
C339 C337 1.390 . S
C339 C340 1.387 . S
C339 H342 0.950 . S
C340 C339 1.387 . S
C340 C343 1.387 . S
H341 C337 0.950 . S
H342 C339 0.950 . S
C343 C334 1.390 . S
C343 H336 0.950 . S
C343 C340 1.387 . S
C344 C345 1.387 . S
C344 H348 0.950 . S
C344 C353 1.390 . S
C345 C344 1.387 . S
C345 C347 1.387 . S
H346 C353 0.950 . S
C347 C345 1.387 . S
C347 C349 1.390 . S
C347 H351 0.950 . S
H348 C344 0.950 . S
C349 C347 1.390 . S
C349 C350 1.387 . S
C349 H352 0.950 . S
C350 C349 1.387 . S
C350 C353 1.387 . S
H351 C347 0.950 . S
H352 C349 0.950 . S
C353 C344 1.390 . S
C353 H346 0.950 . S
C353 C350 1.387 . S
C354 C355 1.387 . S
C354 H358 0.950 . S
C354 C363 1.390 . S
C355 C354 1.387 . S
C355 C357 1.387 . S
H356 C363 0.950 . S
C357 C355 1.387 . S
C357 C359 1.390 . S
C357 H361 0.950 . S
H358 C354 0.950 . S
C359 C357 1.390 . S
C359 C360 1.387 . S
C359 H362 0.950 1_556 S
C360 C359 1.387 . S
C360 C363 1.387 . S
H361 C357 0.950 . S
H362 C359 0.950 1_554 S
C363 C354 1.390 . S
C363 H356 0.950 . S
C363 C360 1.387 . S
C364 C365 1.387 . S
C364 H368 0.950 . S
C364 C373 1.390 . S
C365 C364 1.387 . S
C365 C367 1.387 . S
H366 C373 0.950 . S
C367 C365 1.387 . S
C367 C369 1.390 . S
C367 H371 0.950 1_655 S
H368 C364 0.950 . S
C369 C367 1.390 . S
C369 C370 1.387 . S
C369 H372 0.950 1_655 S
C370 C369 1.387 . S
C370 C373 1.387 . S
H371 C367 0.950 1_455 S
H372 C369 0.950 1_455 S
C373 C364 1.390 . S
C373 H366 0.950 . S
C373 C370 1.387 . S
C374 C375 1.387 . S
C374 H378 0.950 . S
C374 C383 1.390 . S
C375 C374 1.387 . S
C375 C377 1.387 . S
H376 C383 0.950 . S
C377 C375 1.387 . S
C377 C379 1.390 . S
C377 H381 0.950 . S
H378 C374 0.950 . S
C379 C377 1.390 . S
C379 C380 1.387 . S
C379 H382 0.950 . S
C380 C379 1.387 . S
C380 C383 1.387 . S
H381 C377 0.950 . S
H382 C379 0.950 . S
C383 C374 1.390 . S
C383 H376 0.950 . S
C383 C380 1.387 . S
C384 C385 1.387 . S
C384 H388 0.950 . S
C384 C393 1.390 . S
C385 C384 1.387 . S
C385 C387 1.387 . S
H386 C393 0.950 . S
C387 C385 1.387 . S
C387 C389 1.390 . S
C387 H391 0.950 . S
H388 C384 0.950 . S
C389 C387 1.390 . S
C389 C390 1.387 . S
C389 H392 0.950 . S
C390 C389 1.387 . S
C390 C393 1.387 . S
H391 C387 0.950 . S
H392 C389 0.950 . S
C393 C384 1.390 . S
C393 H386 0.950 . S
C393 C390 1.387 . S
C394 C395 1.387 . S
C394 H398 0.950 . S
C394 C403 1.390 . S
C395 C394 1.387 . S
C395 C397 1.387 . S
H396 C403 0.950 . S
C397 C395 1.387 . S
C397 C399 1.390 . S
C397 H401 0.950 . S
H398 C394 0.950 . S
C399 C397 1.390 . S
C399 C400 1.387 . S
C399 H402 0.950 . S
C400 C399 1.387 . S
C400 C403 1.387 . S
H401 C397 0.950 . S
H402 C399 0.950 . S
C403 C394 1.390 . S
C403 H396 0.950 . S
C403 C400 1.387 . S
C404 C405 1.387 . S
C404 H408 0.950 . S
C404 C413 1.390 . S
C405 C404 1.387 . S
C405 C407 1.387 . S
H406 C413 0.950 . S
C407 C405 1.387 . S
C407 C409 1.390 . S
C407 H411 0.950 . S
H408 C404 0.950 . S
C409 C407 1.390 . S
C409 C410 1.387 . S
C409 H412 0.950 . S
C410 C409 1.387 . S
C410 C413 1.387 . S
H411 C407 0.950 . S
H412 C409 0.950 . S
C413 C404 1.390 . S
C413 H406 0.950 . S
C413 C410 1.387 . S
C414 C415 1.387 . S
C414 H418 0.950 . S
C414 C423 1.390 . S
C415 C414 1.387 . S
C415 C417 1.387 . S
H416 C423 0.950 . S
C417 C415 1.387 . S
C417 C419 1.390 . S
C417 H421 0.950 . S
H418 C414 0.950 . S
C419 C417 1.390 . S
C419 C420 1.387 . S
C419 H422 0.950 . S
C420 C419 1.387 . S
C420 C423 1.387 . S
H421 C417 0.950 . S
H422 C419 0.950 . S
C423 C414 1.390 . S
C423 H416 0.950 . S
C423 C420 1.387 . S
C424 C425 1.387 . S
C424 H428 0.950 . S
C424 C433 1.390 . S
C425 C424 1.387 . S
C425 C427 1.387 . S
H426 C433 0.950 . S
C427 C425 1.387 . S
C427 C429 1.390 . S
C427 H431 0.950 . S
H428 C424 0.950 . S
C429 C427 1.390 . S
C429 C430 1.387 . S
C429 H432 0.950 . S
C430 C429 1.387 . S
C430 C433 1.387 . S
H431 C427 0.950 . S
H432 C429 0.950 . S
C433 C424 1.390 . S
C433 H426 0.950 . S
C433 C430 1.387 . S
C434 C435 1.387 . S
C434 H438 0.950 . S
C434 C443 1.390 . S
C435 C434 1.387 . S
C435 C437 1.387 1_655 S
H436 C443 0.950 . S
C437 C435 1.387 1_455 S
C437 C439 1.390 . S
C437 H441 0.950 . S
H438 C434 0.950 . S
C439 C437 1.390 . S
C439 C440 1.387 1_455 S
C439 H442 0.950 . S
C440 C439 1.387 1_655 S
C440 C443 1.387 . S
H441 C437 0.950 . S
H442 C439 0.950 . S
C443 C434 1.390 . S
C443 H436 0.950 . S
C443 C440 1.387 . S
C444 C445 1.387 . S
C444 H448 0.950 . S
C444 C453 1.390 . S
C445 C444 1.387 . S
C445 C447 1.387 . S
H446 C453 0.950 . S
C447 C445 1.387 . S
C447 C449 1.390 . S
C447 H451 0.950 . S
H448 C444 0.950 . S
C449 C447 1.390 . S
C449 C450 1.387 . S
C449 H452 0.950 . S
C450 C449 1.387 . S
C450 C453 1.387 . S
H451 C447 0.950 . S
H452 C449 0.950 . S
C453 C444 1.390 . S
C453 H446 0.950 . S
C453 C450 1.387 . S
C454 C455 1.387 . S
C454 H458 0.950 . S
C454 C463 1.390 . S
C455 C454 1.387 . S
C455 C457 1.387 . S
H456 C463 0.950 . S
C457 C455 1.387 . S
C457 C459 1.390 . S
C457 H461 0.950 . S
H458 C454 0.950 . S
C459 C457 1.390 . S
C459 C460 1.387 . S
C459 H462 0.950 . S
C460 C459 1.387 . S
C460 C463 1.387 . S
H461 C457 0.950 . S
H462 C459 0.950 . S
C463 C454 1.390 . S
C463 H456 0.950 . S
C463 C460 1.387 . S
C464 C465 1.387 . S
C464 H468 0.950 . S
C464 C473 1.390 . S
C465 C464 1.387 . S
C465 C467 1.387 . S
H466 C473 0.950 . S
C467 C465 1.387 . S
C467 C469 1.390 . S
C467 H471 0.950 . S
H468 C464 0.950 . S
C469 C467 1.390 . S
C469 C470 1.387 . S
C469 H472 0.950 . S
C470 C469 1.387 . S
C470 C473 1.387 . S
H471 C467 0.950 . S
H472 C469 0.950 . S
C473 C464 1.390 . S
C473 H466 0.950 . S
C473 C470 1.387 . S
C474 C475 1.387 . S
C474 H478 0.950 . S
C474 C483 1.390 . S
C475 C474 1.387 . S
C475 C477 1.387 . S
H476 C483 0.950 . S
C477 C475 1.387 . S
C477 C479 1.390 . S
C477 H481 0.950 . S
H478 C474 0.950 . S
C479 C477 1.390 . S
C479 C480 1.387 . S
C479 H482 0.950 . S
C480 C479 1.387 . S
C480 C483 1.387 . S
H481 C477 0.950 . S
H482 C479 0.950 . S
C483 C474 1.390 . S
C483 H476 0.950 . S
C483 C480 1.387 . S
C484 C485 1.387 . S
C484 H488 0.950 . S
C484 C493 1.390 . S
C485 C484 1.387 . S
C485 C487 1.387 . S
H486 C493 0.950 . S
C487 C485 1.387 . S
C487 C489 1.390 . S
C487 H491 0.950 . S
H488 C484 0.950 . S
C489 C487 1.390 . S
C489 C490 1.387 . S
C489 H492 0.943 1_455 S
C490 C489 1.387 . S
C490 C493 1.387 . S
H491 C487 0.950 . S
H492 C489 0.943 1_655 S
C493 C484 1.390 . S
C493 H486 0.950 . S
C493 C490 1.387 . S
C494 C495 1.387 . S
C494 H498 0.950 . S
C494 C503 1.390 . S
C495 C494 1.387 . S
C495 C497 1.387 . S
H496 C503 0.950 . S
C497 C495 1.387 . S
C497 C499 1.390 . S
C497 H501 0.950 . S
H498 C494 0.950 . S
C499 C497 1.390 . S
C499 C500 1.387 . S
C499 H502 0.950 . S
C500 C499 1.387 . S
C500 C503 1.387 . S
H501 C497 0.950 . S
H502 C499 0.950 . S
C503 C494 1.390 . S
C503 H496 0.950 . S
C503 C500 1.387 . S
C265 C9 1.227 . S
C270 C108 1.306 . S
C275 C21 1.130 . S
C280 C169 1.187 . S
C290 C207 2.314 . S
C285 C30 2.342 . S
C295 C43 2.219 . S
C300 C247 2.337 . S
C310 C167 1.360 . S
C305 C4 1.116 . S
C320 C135 2.314 . S
C315 C22 2.199 . S
C330 C244 1.572 . S
C325 C34 1.623 . S
C340 C204 1.876 . S
C335 C48 1.889 . S
C345 C8 1.379 . S
C350 C249 1.413 . S
C360 C164 2.379 . S
C355 C35 2.361 . S
C365 C47 2.472 . S
C370 C106 2.412 . S
C375 C17 1.447 . S
C380 C209 1.512 . S
C390 C129 0.886 . S
C385 C60 0.879 . S
C395 C74 1.208 . S
C400 C148 1.196 . S
C405 C82 2.116 . S
C410 C186 2.111 . S
C415 C100 2.840 . S
C420 C226 2.773 . S
C425 C61 1.519 . S
C430 C146 1.609 . S
C440 C124 1.836 . S
C435 C73 1.690 . S
C450 C255 1.990 . S
C445 C87 2.020 . S
C460 C215 1.727 . S
C455 C95 1.757 . S
C465 C56 1.296 . S
C470 C228 1.247 . S
C480 C175 2.528 . S
C475 C86 2.526 . S
C490 C127 2.361 . S
C485 C99 2.408 . S
C495 C69 1.106 . S
C500 C188 1.355 . S
