# Generated by pormake.
# Topology ctn, (3,4)-cn, num edge types: 1
# Building blocks:
#     Node 0, Type 0, BuildingBlock: ESEHIV_clean_linker_0, # of connection points: 3
#     Node 1, Type 0, BuildingBlock: ESEHIV_clean_linker_0, # of connection points: 3
#     Node 2, Type 0, BuildingBlock: ESEHIV_clean_linker_0, # of connection points: 3
#     Node 3, Type 0, BuildingBlock: ESEHIV_clean_linker_0, # of connection points: 3
#     Node 4, Type 0, BuildingBlock: ESEHIV_clean_linker_0, # of connection points: 3
#     Node 5, Type 0, BuildingBlock: ESEHIV_clean_linker_0, # of connection points: 3
#     Node 6, Type 0, BuildingBlock: ESEHIV_clean_linker_0, # of connection points: 3
#     Node 7, Type 0, BuildingBlock: ESEHIV_clean_linker_0, # of connection points: 3
#     Node 8, Type 0, BuildingBlock: ESEHIV_clean_linker_0, # of connection points: 3
#     Node 9, Type 0, BuildingBlock: ESEHIV_clean_linker_0, # of connection points: 3
#     Node 10, Type 0, BuildingBlock: ESEHIV_clean_linker_0, # of connection points: 3
#     Node 11, Type 0, BuildingBlock: ESEHIV_clean_linker_0, # of connection points: 3
#     Node 12, Type 0, BuildingBlock: ESEHIV_clean_linker_0, # of connection points: 3
#     Node 13, Type 0, BuildingBlock: ESEHIV_clean_linker_0, # of connection points: 3
#     Node 14, Type 0, BuildingBlock: ESEHIV_clean_linker_0, # of connection points: 3
#     Node 15, Type 0, BuildingBlock: ESEHIV_clean_linker_0, # of connection points: 3
#     Node 16, Type 1, BuildingBlock: QUQFOY_clean_sbu_1, # of connection points: 4
#     Node 17, Type 1, BuildingBlock: QUQFOY_clean_sbu_1, # of connection points: 4
#     Node 18, Type 1, BuildingBlock: QUQFOY_clean_sbu_1, # of connection points: 4
#     Node 19, Type 1, BuildingBlock: QUQFOY_clean_sbu_1, # of connection points: 4
#     Node 20, Type 1, BuildingBlock: QUQFOY_clean_sbu_1, # of connection points: 4
#     Node 21, Type 1, BuildingBlock: QUQFOY_clean_sbu_1, # of connection points: 4
#     Node 22, Type 1, BuildingBlock: QUQFOY_clean_sbu_1, # of connection points: 4
#     Node 23, Type 1, BuildingBlock: QUQFOY_clean_sbu_1, # of connection points: 4
#     Node 24, Type 1, BuildingBlock: QUQFOY_clean_sbu_1, # of connection points: 4
#     Node 25, Type 1, BuildingBlock: QUQFOY_clean_sbu_1, # of connection points: 4
#     Node 26, Type 1, BuildingBlock: QUQFOY_clean_sbu_1, # of connection points: 4
#     Node 27, Type 1, BuildingBlock: QUQFOY_clean_sbu_1, # of connection points: 4
#     Edge 28, Type (0, 1), BuildingBlock: CIFDUS_clean_linker_0, # of connection points: 2
#     Edge 29, Type (0, 1), BuildingBlock: CIFDUS_clean_linker_0, # of connection points: 2
#     Edge 30, Type (0, 1), BuildingBlock: CIFDUS_clean_linker_0, # of connection points: 2
#     Edge 31, Type (0, 1), BuildingBlock: CIFDUS_clean_linker_0, # of connection points: 2
#     Edge 32, Type (0, 1), BuildingBlock: CIFDUS_clean_linker_0, # of connection points: 2
#     Edge 33, Type (0, 1), BuildingBlock: CIFDUS_clean_linker_0, # of connection points: 2
#     Edge 34, Type (0, 1), BuildingBlock: CIFDUS_clean_linker_0, # of connection points: 2
#     Edge 35, Type (0, 1), BuildingBlock: CIFDUS_clean_linker_0, # of connection points: 2
#     Edge 36, Type (0, 1), BuildingBlock: CIFDUS_clean_linker_0, # of connection points: 2
#     Edge 37, Type (0, 1), BuildingBlock: CIFDUS_clean_linker_0, # of connection points: 2
#     Edge 38, Type (0, 1), BuildingBlock: CIFDUS_clean_linker_0, # of connection points: 2
#     Edge 39, Type (0, 1), BuildingBlock: CIFDUS_clean_linker_0, # of connection points: 2
#     Edge 40, Type (0, 1), BuildingBlock: CIFDUS_clean_linker_0, # of connection points: 2
#     Edge 41, Type (0, 1), BuildingBlock: CIFDUS_clean_linker_0, # of connection points: 2
#     Edge 42, Type (0, 1), BuildingBlock: CIFDUS_clean_linker_0, # of connection points: 2
#     Edge 43, Type (0, 1), BuildingBlock: CIFDUS_clean_linker_0, # of connection points: 2
#     Edge 44, Type (0, 1), BuildingBlock: CIFDUS_clean_linker_0, # of connection points: 2
#     Edge 45, Type (0, 1), BuildingBlock: CIFDUS_clean_linker_0, # of connection points: 2
#     Edge 46, Type (0, 1), BuildingBlock: CIFDUS_clean_linker_0, # of connection points: 2
#     Edge 47, Type (0, 1), BuildingBlock: CIFDUS_clean_linker_0, # of connection points: 2
#     Edge 48, Type (0, 1), BuildingBlock: CIFDUS_clean_linker_0, # of connection points: 2
#     Edge 49, Type (0, 1), BuildingBlock: CIFDUS_clean_linker_0, # of connection points: 2
#     Edge 50, Type (0, 1), BuildingBlock: CIFDUS_clean_linker_0, # of connection points: 2
#     Edge 51, Type (0, 1), BuildingBlock: CIFDUS_clean_linker_0, # of connection points: 2
#     Edge 52, Type (0, 1), BuildingBlock: CIFDUS_clean_linker_0, # of connection points: 2
#     Edge 53, Type (0, 1), BuildingBlock: CIFDUS_clean_linker_0, # of connection points: 2
#     Edge 54, Type (0, 1), BuildingBlock: CIFDUS_clean_linker_0, # of connection points: 2
#     Edge 55, Type (0, 1), BuildingBlock: CIFDUS_clean_linker_0, # of connection points: 2
#     Edge 56, Type (0, 1), BuildingBlock: CIFDUS_clean_linker_0, # of connection points: 2
#     Edge 57, Type (0, 1), BuildingBlock: CIFDUS_clean_linker_0, # of connection points: 2
#     Edge 58, Type (0, 1), BuildingBlock: CIFDUS_clean_linker_0, # of connection points: 2
#     Edge 59, Type (0, 1), BuildingBlock: CIFDUS_clean_linker_0, # of connection points: 2
#     Edge 60, Type (0, 1), BuildingBlock: CIFDUS_clean_linker_0, # of connection points: 2
#     Edge 61, Type (0, 1), BuildingBlock: CIFDUS_clean_linker_0, # of connection points: 2
#     Edge 62, Type (0, 1), BuildingBlock: CIFDUS_clean_linker_0, # of connection points: 2
#     Edge 63, Type (0, 1), BuildingBlock: CIFDUS_clean_linker_0, # of connection points: 2
#     Edge 64, Type (0, 1), BuildingBlock: CIFDUS_clean_linker_0, # of connection points: 2
#     Edge 65, Type (0, 1), BuildingBlock: CIFDUS_clean_linker_0, # of connection points: 2
#     Edge 66, Type (0, 1), BuildingBlock: CIFDUS_clean_linker_0, # of connection points: 2
#     Edge 67, Type (0, 1), BuildingBlock: CIFDUS_clean_linker_0, # of connection points: 2
#     Edge 68, Type (0, 1), BuildingBlock: CIFDUS_clean_linker_0, # of connection points: 2
#     Edge 69, Type (0, 1), BuildingBlock: CIFDUS_clean_linker_0, # of connection points: 2
#     Edge 70, Type (0, 1), BuildingBlock: CIFDUS_clean_linker_0, # of connection points: 2
#     Edge 71, Type (0, 1), BuildingBlock: CIFDUS_clean_linker_0, # of connection points: 2
#     Edge 72, Type (0, 1), BuildingBlock: CIFDUS_clean_linker_0, # of connection points: 2
#     Edge 73, Type (0, 1), BuildingBlock: CIFDUS_clean_linker_0, # of connection points: 2
#     Edge 74, Type (0, 1), BuildingBlock: CIFDUS_clean_linker_0, # of connection points: 2
#     Edge 75, Type (0, 1), BuildingBlock: CIFDUS_clean_linker_0, # of connection points: 2
# Relax obj value: 0.037
# Max RMSD: 0.145
# Mean RMSD: 0.067
data_MOF--net-ctn--node1-QUQFOY_clean_sbu_1--node2-ESEHIV_clean_linker_0--edge1-CIFDUS_clean_linker_0
_symmetry_space_group_name_H-M    P1
_symmetry_Int_Tables_number       1
_symmetry_cell_setting            triclinic
loop_
_symmetry_equiv_pos_as_xyz
'x, y, z'
_cell_length_a     45.262516
_cell_length_b     45.254194
_cell_length_c     45.274424
_cell_angle_alpha  92.89685
_cell_angle_beta   89.985843
_cell_angle_gamma 94.801618
loop_
_atom_site_label
_atom_site_type_symbol
_atom_site_fract_x
_atom_site_fract_y
_atom_site_fract_z
_atom_type_partial_charge
H0 H 0.97004 0.09584 0.05887 0.0
H1 H 0.02157 0.02476 0.08144 0.0
H2 H 0.03656 0.0666 -0.00105 0.0
C3 C 0.98678 0.08078 0.05318 0.0
C4 C 0.00202 0.08341 0.02625 0.0
C5 C 0.99323 0.0594 0.07309 0.0
C6 C 0.01622 0.04119 0.06619 0.0
C7 C 0.03252 0.044 0.03986 0.0
C8 C 0.02499 0.06502 0.01983 0.0
H9 H 0.30365 0.70224 0.25612 0.0
H10 H 0.33409 0.77249 0.20038 0.0
H11 H 0.24784 0.72598 0.18594 0.0
C12 C 0.30018 0.71583 0.23758 0.0
C13 C 0.27356 0.71108 0.22158 0.0
C14 C 0.32235 0.73757 0.23 0.0
C15 C 0.31706 0.75572 0.20665 0.0
C16 C 0.29001 0.75201 0.19095 0.0
C17 C 0.26822 0.72972 0.19866 0.0
H18 H 0.94841 0.51921 0.10181 0.0
H19 H 0.99003 0.43786 0.08664 0.0
H20 H 0.93826 0.47061 0.01782 0.0
C21 C 0.95298 0.50039 0.08731 0.0
C22 C 0.94081 0.49755 0.05867 0.0
C23 C 0.97103 0.47921 0.09752 0.0
C24 C 0.97649 0.45456 0.07887 0.0
C25 C 0.96464 0.45136 0.05014 0.0
C26 C 0.94718 0.47308 0.04009 0.0
H27 H 0.69751 0.73889 0.23865 0.0
H28 H 0.77867 0.78931 0.21715 0.0
H29 H 0.73005 0.81443 0.29454 0.0
C30 C 0.71465 0.75638 0.24452 0.0
C31 C 0.71077 0.77613 0.26897 0.0
C32 C 0.73938 0.76098 0.22598 0.0
C33 C 0.76043 0.78503 0.2323 0.0
C34 C 0.75702 0.80466 0.25673 0.0
C35 C 0.73268 0.79943 0.27545 0.0
H36 H 0.00311 0.96059 0.47148 0.0
H37 H 0.06859 0.02276 0.43547 0.0
H38 H 0.09092 0.97402 0.50987 0.0
C39 C 0.02539 0.97139 0.47202 0.0
C40 C 0.04586 0.9646 0.49366 0.0
C41 C 0.03376 0.99182 0.45058 0.0
C42 C 0.06222 0.00651 0.45163 0.0
C43 C 0.08261 0.00042 0.47321 0.0
C44 C 0.07465 0.97907 0.49373 0.0
H45 H 0.19567 0.77957 0.80988 0.0
H46 H 0.26384 0.73167 0.84674 0.0
H47 H 0.22339 0.7013 0.7637 0.0
C48 C 0.21067 0.76213 0.80789 0.0
C49 C 0.20803 0.74169 0.78346 0.0
C50 C 0.23055 0.75866 0.831 0.0
C51 C 0.24837 0.73467 0.82908 0.0
C52 C 0.24581 0.71385 0.805 0.0
C53 C 0.22598 0.71775 0.78198 0.0
H54 H 0.93956 0.55676 0.54829 0.0
H55 H 0.0238 0.58201 0.50929 0.0
H56 H 0.97746 0.49744 0.48453 0.0
C57 C 0.95775 0.55138 0.53393 0.0
C58 C 0.95595 0.52433 0.51731 0.0
C59 C 0.98221 0.57212 0.53129 0.0
C60 C 0.00558 0.56534 0.51249 0.0
C61 C 0.00395 0.53848 0.49541 0.0
C62 C 0.97931 0.51779 0.49837 0.0
H63 H 0.77102 0.83556 0.85963 0.0
H64 H 0.80825 0.86274 0.77711 0.0
H65 H 0.83978 0.78783 0.81882 0.0
C66 C 0.78666 0.83255 0.84181 0.0
C67 C 0.80538 0.80937 0.84219 0.0
C68 C 0.78754 0.85176 0.81843 0.0
C69 C 0.80708 0.84747 0.79485 0.0
C70 C 0.82621 0.82455 0.79495 0.0
C71 C 0.82507 0.80552 0.81862 0.0
H72 H 0.24853 0.33518 0.3339 0.0
H73 H 0.30034 0.3693 0.26159 0.0
H74 H 0.33209 0.30066 0.31227 0.0
C75 C 0.26812 0.33476 0.32016 0.0
C76 C 0.28976 0.31525 0.32589 0.0
C77 C 0.272 0.35443 0.29721 0.0
C78 C 0.29725 0.35402 0.27925 0.0
C79 C 0.31882 0.33439 0.2845 0.0
C80 C 0.31506 0.31536 0.30795 0.0
H81 H 0.45306 0.02783 0.59791 0.0
H82 H 0.49975 0.94993 0.57952 0.0
H83 H 0.4371 0.97558 0.5166 0.0
C84 C 0.45701 0.00855 0.58376 0.0
C85 C 0.44206 0.00392 0.55653 0.0
C86 C 0.47751 0.98901 0.59265 0.0
C87 C 0.48407 0.96532 0.57316 0.0
C88 C 0.46982 0.96075 0.54562 0.0
C89 C 0.44848 0.97969 0.53765 0.0
H90 H 0.175 0.251 0.71539 0.0
H91 H 0.25153 0.3087 0.69376 0.0
H92 H 0.19974 0.32886 0.77078 0.0
C93 C 0.19034 0.2702 0.72083 0.0
C94 C 0.1847 0.28914 0.74526 0.0
C95 C 0.21471 0.27697 0.70235 0.0
C96 C 0.2337 0.30267 0.70887 0.0
C97 C 0.22828 0.32183 0.7333 0.0
C98 C 0.20409 0.31444 0.7517 0.0
H99 H 0.76867 0.22481 0.7741 0.0
H100 H 0.79401 0.29558 0.71708 0.0
H101 H 0.71159 0.24263 0.70234 0.0
C102 C 0.7639 0.238 0.75568 0.0
C103 C 0.7374 0.23113 0.73964 0.0
C104 C 0.78477 0.2609 0.74764 0.0
C105 C 0.77838 0.2776 0.72348 0.0
C106 C 0.75198 0.27122 0.70722 0.0
C107 C 0.73142 0.2482 0.71557 0.0
H108 H 0.49582 0.60756 0.56914 0.0
H109 H 0.54437 0.53084 0.57763 0.0
H110 H 0.55696 0.58312 0.50135 0.0
C111 C 0.51159 0.59264 0.56045 0.0
C112 C 0.52462 0.59741 0.53268 0.0
C113 C 0.51919 0.56909 0.57724 0.0
C114 C 0.53986 0.55011 0.5657 0.0
C115 C 0.55428 0.55527 0.53875 0.0
C116 C 0.54639 0.57903 0.52236 0.0
H117 H 0.49616 0.45266 0.96685 0.0
H118 H 0.55936 0.52239 0.94005 0.0
H119 H 0.57821 0.47281 0.01502 0.0
C120 C 0.51714 0.46578 0.97023 0.0
C121 C 0.53592 0.46013 0.99377 0.0
C122 C 0.52572 0.48795 0.95055 0.0
C123 C 0.55268 0.50517 0.95509 0.0
C124 C 0.57145 0.49988 0.97843 0.0
C125 C 0.56317 0.47722 -0.00255 0.0
H126 H 0.68868 0.28126 0.29759 0.0
H127 H 0.76109 0.23197 0.32221 0.0
H128 H 0.71132 0.20604 0.24286 0.0
C129 C 0.70312 0.2637 0.29287 0.0
C130 C 0.69798 0.24498 0.26736 0.0
C131 C 0.72556 0.25904 0.31304 0.0
C132 C 0.74348 0.2357 0.30696 0.0
C133 C 0.73837 0.21631 0.28195 0.0
C134 C 0.71598 0.22142 0.26174 0.0
H135 H 0.44612 0.04801 0.05354 0.0
H136 H 0.52963 0.06125 0.009 0.0
H137 H 0.47167 0.98284 0.98809 0.0
C138 C 0.46252 0.0399 0.0384 0.0
C139 C 0.45619 0.01283 0.02223 0.0
C140 C 0.48886 0.05755 0.03361 0.0
C141 C 0.5096 0.04731 0.01338 0.0
C142 C 0.50359 0.02036 0.99699 0.0
C143 C 0.47692 0.00306 0.00162 0.0
O144 O 0.23531 0.87199 0.98634 0.0
Cd145 Cd 0.24752 0.89186 0.02682 0.0
Cd146 Cd 0.22423 0.94103 -0.00295 0.0
O147 O 0.22253 0.91006 0.96189 0.0
O148 O 0.26646 0.85878 0.04459 0.0
O149 O 0.22803 0.87847 0.06495 0.0
C150 C 0.24776 0.85953 0.06588 0.0
C151 C 0.18307 0.9683 0.00464 0.0
C152 C 0.22718 0.88278 0.96258 0.0
C153 C 0.28663 0.94943 0.02056 0.0
O154 O 0.26521 0.9613 0.0091 0.0
O155 O 0.28358 0.92273 0.02812 0.0
O156 O 0.20195 0.97431 0.98406 0.0
O157 O 0.18749 0.94659 0.02114 0.0
O158 O 0.16274 0.57179 0.29002 0.0
Cd159 Cd 0.14662 0.53325 0.30887 0.0
Cd160 Cd 0.0978 0.54686 0.27758 0.0
O161 O 0.12252 0.58584 0.26927 0.0
O162 O 0.18335 0.51771 0.32336 0.0
O163 O 0.15439 0.49392 0.28888 0.0
C164 C 0.17815 0.49529 0.30488 0.0
C165 C 0.07364 0.5219 0.23746 0.0
C166 C 0.14991 0.59029 0.27542 0.0
C167 C 0.09027 0.5361 0.34257 0.0
O168 O 0.07851 0.5407 0.31797 0.0
O169 O 0.11798 0.53378 0.34445 0.0
O170 O 0.06344 0.54488 0.25048 0.0
O171 O 0.098 0.51292 0.24722 0.0
O172 O 0.77328 0.69217 0.9802 0.0
Cd173 Cd 0.75234 0.67032 0.01416 0.0
Cd174 Cd 0.77869 0.62311 0.98502 0.0
O175 O 0.78875 0.65409 0.95393 0.0
O176 O 0.73822 0.70385 0.03874 0.0
O177 O 0.76798 0.67239 0.05609 0.0
C178 C 0.753 0.69525 0.06053 0.0
C179 C 0.81501 0.59259 -0.00232 0.0
C180 C 0.7855 0.68168 0.95715 0.0
C181 C 0.71263 0.61672 0.99515 0.0
O182 O 0.7359 0.60448 0.98764 0.0
O183 O 0.71413 0.64363 0.00478 0.0
O184 O 0.80067 0.58829 0.97306 0.0
O185 O 0.80923 0.61486 0.01509 0.0
O186 O 0.91677 0.0129 0.30929 0.0
Cd187 Cd 0.89353 0.00673 0.27034 0.0
Cd188 Cd 0.85054 0.02973 0.30576 0.0
O189 O 0.88235 0.02964 0.33855 0.0
O190 O 0.92574 -0.00223 0.24228 0.0
O191 O 0.89842 0.03564 0.23782 0.0
C192 C 0.91987 0.02067 0.22833 0.0
C193 C 0.82374 0.07151 0.30355 0.0
C194 C 0.90838 0.02166 0.33476 0.0
C195 C 0.83734 0.96814 0.27782 0.0
O196 O 0.82809 0.98958 0.29343 0.0
O197 O 0.86307 0.97031 0.26649 0.0
O198 O 0.81968 0.05315 0.32429 0.0
O199 O 0.84346 0.06631 0.28375 0.0
O200 O 0.27414 0.19919 0.46853 0.0
Cd201 Cd 0.26048 0.17356 0.50295 0.0
Cd202 Cd 0.2884 0.13055 0.47054 0.0
O203 O 0.29443 0.16431 0.4416 0.0
O204 O 0.24096 0.20163 0.53009 0.0
O205 O 0.27972 0.17883 0.54347 0.0
C206 C 0.25949 0.19644 0.55032 0.0
C207 C 0.32867 0.10605 0.48482 0.0
C208 C 0.28699 0.19073 0.44502 0.0
C209 C 0.22448 0.11674 0.48218 0.0
O210 O 0.24766 0.10681 0.47111 0.0
O211 O 0.22545 0.14241 0.49494 0.0
O212 O 0.31754 0.10178 0.45859 0.0
O213 O 0.31721 0.12486 0.50297 0.0
O214 O 0.42099 0.50946 0.79868 0.0
Cd215 Cd 0.39928 0.5055 0.75855 0.0
Cd216 Cd 0.35425 0.523 0.79076 0.0
O217 O 0.38255 0.51976 0.82596 0.0
O218 O 0.43155 0.50473 0.72884 0.0
O219 O 0.39908 0.53878 0.73067 0.0
C220 C 0.42179 0.52798 0.71824 0.0
C221 C 0.33236 0.5674 0.7867 0.0
C222 C 0.40957 0.51431 0.82391 0.0
C223 C 0.3445 0.46391 0.75784 0.0
O224 O 0.33279 0.48409 0.77323 0.0
O225 O 0.37148 0.46759 0.75006 0.0
O226 O 0.3234 0.54858 0.80591 0.0
O227 O 0.35379 0.56084 0.76936 0.0
O228 O 0.74494 0.36319 0.47482 0.0
Cd229 Cd 0.75783 0.38396 0.5148 0.0
Cd230 Cd 0.72913 0.43003 0.49107 0.0
O231 O 0.72418 0.40013 0.45533 0.0
O232 O 0.77678 0.35236 0.53488 0.0
O233 O 0.73776 0.37293 0.55318 0.0
C234 C 0.75766 0.35437 0.55575 0.0
C235 C 0.68814 0.45364 0.50762 0.0
C236 C 0.73216 0.37387 0.45328 0.0
C237 C 0.79292 0.44319 0.50713 0.0
O238 O 0.76971 0.45326 0.49728 0.0
O239 O 0.79242 0.41657 0.51486 0.0
O240 O 0.70098 0.4601 0.4831 0.0
O241 O 0.69841 0.43331 0.52281 0.0
O242 O 0.66568 0.05769 0.80103 0.0
Cd243 Cd 0.64612 0.01718 0.81243 0.0
Cd244 Cd 0.60002 0.03651 0.7816 0.0
O245 O 0.62753 0.07502 0.77945 0.0
O246 O 0.67945 -0.00314 0.82804 0.0
O247 O 0.65443 0.98056 0.78766 0.0
C248 C 0.67545 0.97748 0.80628 0.0
C249 C 0.57741 0.01842 0.73766 0.0
C250 C 0.65437 0.07828 0.78801 0.0
C251 C 0.58789 0.01859 0.84379 0.0
O252 O 0.57748 0.02684 0.81981 0.0
O253 O 0.6152 0.01449 0.8459 0.0
O254 O 0.56783 0.04042 0.75293 0.0
O255 O 0.60019 0.00642 0.74737 0.0
O256 O 0.97344 0.301 0.93135 0.0
Cd257 Cd 0.96668 0.26254 0.90517 0.0
Cd258 Cd 0.98986 0.29743 0.86187 0.0
O259 O 0.99083 0.32937 0.89608 0.0
O260 O 0.95712 0.23087 0.93331 0.0
O261 O 0.99707 0.23228 0.90511 0.0
C262 C 0.98107 0.21935 0.9251 0.0
C263 C 0.03234 0.29774 0.83266 0.0
C264 C 0.98325 0.32626 0.92283 0.0
C265 C 0.9279 0.2702 0.85236 0.0
O266 O 0.94961 0.28564 0.84153 0.0
O267 O 0.93031 0.25903 0.87735 0.0
O268 O 0.01392 0.31781 0.83115 0.0
O269 O 0.02643 0.27679 0.85064 0.0
O270 O 0.46881 0.80096 0.42568 0.0
Cd271 Cd 0.479 0.76506 0.39883 0.0
Cd272 Cd 0.51178 0.80607 0.37218 0.0
O273 O 0.50607 0.83096 0.41089 0.0
O274 O 0.46787 0.72979 0.42218 0.0
O275 O 0.5141 0.74339 0.4096 0.0
C276 C 0.49568 0.72564 0.42344 0.0
C277 C 0.55899 0.80399 0.35201 0.0
C278 C 0.48469 0.82544 0.42848 0.0
C279 C 0.45856 0.7785 0.33948 0.0
O280 O 0.47696 0.80125 0.34233 0.0
O281 O 0.45784 0.75869 0.35845 0.0
O282 O 0.54483 0.82749 0.35115 0.0
O283 O 0.54651 0.78149 0.36506 0.0
O284 O 0.98614 0.78753 0.69297 0.0
Cd285 Cd 0.02149 0.77533 0.6673 0.0
Cd286 Cd 0.98033 0.79104 0.62351 0.0
O287 O 0.95384 0.79832 0.65938 0.0
O288 O 0.04607 0.75847 0.69736 0.0
O289 O 0.06237 0.7972 0.67249 0.0
C290 C 0.06736 0.77779 0.6914 0.0
C291 C 0.99112 0.82864 0.5915 0.0
C292 C 0.9609 0.79573 0.68622 0.0
C293 C 0.00101 0.73062 0.61691 0.0
O294 O 0.9834 0.74834 0.60735 0.0
O295 O 0.01744 0.73805 0.63917 0.0
O296 O 0.96615 0.81263 0.58993 0.0
O297 O 0.00994 0.82353 0.61172 0.0
O298 O 0.46417 0.28778 0.18147 0.0
Cd299 Cd 0.49773 0.26297 0.16647 0.0
Cd300 Cd 0.47406 0.27808 0.1129 0.0
O301 O 0.43907 0.28795 0.13978 0.0
O302 O 0.51689 0.25424 0.2041 0.0
O303 O 0.54131 0.27721 0.16844 0.0
C304 C 0.54149 0.26603 0.19411 0.0
C305 C 0.48898 0.31411 0.0801 0.0
C306 C 0.4411 0.2934 0.16753 0.0
C307 C 0.48436 0.2145 0.12025 0.0
O308 O 0.48151 0.23464 0.10218 0.0
O309 O 0.48748 0.22103 0.1477 0.0
O310 O 0.46632 0.29547 0.07451 0.0
O311 O 0.50374 0.31185 0.10421 0.0
H312 H 0.22553 0.81851 0.83546 0.0
H313 H 0.23479 0.74285 0.88821 0.0
H314 H 0.23399 0.77448 0.9332 0.0
H315 H 0.2306 0.82327 0.95769 0.0
H316 H 0.21939 0.89899 0.90571 0.0
H317 H 0.22003 0.86739 0.86033 0.0
C318 C 0.22714 0.80889 0.8568 0.0
C319 C 0.23061 0.77836 0.85831 0.0
C320 C 0.22598 0.82711 0.88275 0.0
C321 C 0.23291 0.76637 0.88621 0.0
C322 C 0.2321 0.78438 0.91204 0.0
C323 C 0.22816 0.83293 0.93647 0.0
C324 C 0.22506 0.86349 0.93514 0.0
C325 C 0.22868 0.81474 0.91056 0.0
C326 C 0.22175 0.87552 0.90741 0.0
C327 C 0.22226 0.85749 0.88143 0.0
H328 H 0.99017 0.52467 0.43846 0.0
H329 H 0.0647 0.54533 0.49727 0.0
H330 H 0.09869 0.54477 0.45501 0.0
H331 H 0.10652 0.54137 0.40089 0.0
H332 H 0.03069 0.52344 0.34289 0.0
H333 H -0.0021 0.51975 0.38533 0.0
C334 C 0.01392 0.52838 0.44208 0.0
C335 C 0.02504 0.53466 0.47084 0.0
C336 C 0.03302 0.52883 0.4178 0.0
C337 C 0.05575 0.5403 0.47523 0.0
C338 C 0.07511 0.54006 0.45111 0.0
C339 C 0.08285 0.53646 0.39762 0.0
C340 C 0.07107 0.53289 0.36878 0.0
C341 C 0.06392 0.53486 0.42222 0.0
C342 C 0.04033 0.52662 0.36484 0.0
C343 C 0.02153 0.52439 0.38909 0.0
H344 H 0.80859 0.74934 0.84006 0.0
H345 H 0.80011 0.8247 0.90097 0.0
H346 H 0.79471 0.79189 0.94202 0.0
H347 H 0.78997 0.74184 0.96028 0.0
H348 H 0.79969 0.66634 0.89993 0.0
H349 H 0.80795 0.69936 0.85912 0.0
C350 C 0.80607 0.75866 0.86236 0.0
C351 C 0.80434 0.78943 0.86731 0.0
C352 C 0.80328 0.73969 0.88598 0.0
C353 C 0.8008 0.80105 0.89639 0.0
C354 C 0.79793 0.78234 0.91993 0.0
C355 C 0.79412 0.73257 0.93825 0.0
C356 C 0.79392 0.70165 0.93313 0.0
C357 C 0.79868 0.75161 0.91491 0.0
C358 C 0.79969 0.69007 0.9045 0.0
C359 C 0.80427 0.70892 0.88111 0.0
H360 H 0.97652 0.0064 0.45429 0.0
H361 H 0.0461 0.98937 0.39215 0.0
H362 H 0.01398 -0.00105 0.35109 0.0
H363 H 0.96621 0.01098 0.33276 0.0
H364 H 0.89585 0.02827 0.39401 0.0
H365 H 0.92835 0.02023 0.43557 0.0
C366 C 0.98446 0.00469 0.43171 0.0
C367 C 0.01353 -0.00284 0.42614 0.0
C368 C 0.9659 0.01048 0.40815 0.0
C369 C 0.02382 0.99531 0.3969 0.0
C370 C 0.0055 0.00076 0.37344 0.0
C371 C 0.95793 0.01319 0.35519 0.0
C372 C 0.92859 0.02008 0.36023 0.0
C373 C 0.97654 0.00829 0.37881 0.0
C374 C 0.91838 0.02305 0.38949 0.0
C375 C 0.93689 0.01827 0.41326 0.0
H376 H 0.26499 0.25504 0.6802 0.0
H377 H 0.17225 0.26051 0.66116 0.0
H378 H 0.17811 0.23576 0.61267 0.0
H379 H 0.20974 0.21465 0.57497 0.0
H380 H 0.30216 0.20707 0.59351 0.0
H381 H 0.29638 0.23066 0.64298 0.0
C382 C 0.2461 0.25059 0.66543 0.0
C383 C 0.21822 0.2595 0.67421 0.0
C384 C 0.24962 0.23625 0.63752 0.0
C385 C 0.19383 0.25351 0.65504 0.0
C386 C 0.19721 0.23958 0.62723 0.0
C387 C 0.22867 0.21819 0.58981 0.0
C388 C 0.25643 0.20956 0.58055 0.0
C389 C 0.22503 0.23121 0.61814 0.0
C390 C 0.2806 0.21369 0.60018 0.0
C391 C 0.27729 0.22718 0.62839 0.0
H392 H 0.46207 0.57608 0.59518 0.0
H393 H 0.54613 0.55064 0.62624 0.0
H394 H 0.52346 0.53634 0.67262 0.0
H395 H 0.47935 0.52823 0.70332 0.0
H396 H 0.39606 0.55703 0.67482 0.0
H397 H 0.41904 0.57361 0.62877 0.0
C398 C 0.47561 0.56796 0.61226 0.0
C399 C 0.50566 0.56376 0.60674 0.0
C400 C 0.46257 0.56036 0.63935 0.0
C401 C 0.52273 0.55317 0.62932 0.0
C402 C 0.50986 0.54518 0.65602 0.0
C403 C 0.46631 0.53836 0.68709 0.0
C404 C 0.43605 0.5411 0.69214 0.0
C405 C 0.47971 0.54811 0.66102 0.0
C406 C 0.41944 0.55469 0.67129 0.0
C407 C 0.43253 0.56403 0.64495 0.0
H408 H 0.78983 0.27805 0.66184 0.0
H409 H 0.70349 0.29953 0.69179 0.0
H410 H 0.69713 0.32722 0.64725 0.0
H411 H 0.71711 0.34628 0.60022 0.0
H412 H 0.80313 0.32262 0.57054 0.0
H413 H 0.80863 0.2949 0.61453 0.0
C414 C 0.76967 0.28891 0.65862 0.0
C415 C 0.74731 0.28716 0.68008 0.0
C416 C 0.76614 0.30439 0.63302 0.0
C417 C 0.72101 0.30072 0.67548 0.0
C418 C 0.71743 0.31657 0.65011 0.0
C419 C 0.73698 0.33498 0.60339 0.0
C420 C 0.7597 0.33666 0.58215 0.0
C421 C 0.73997 0.31872 0.62878 0.0
C422 C 0.78525 0.32171 0.58647 0.0
C423 C 0.7885 0.30587 0.61168 0.0
H424 H 0.53449 0.97981 0.60816 0.0
H425 H 0.45234 0.00775 0.64439 0.0
H426 H 0.47603 0.01876 0.6923 0.0
H427 H 0.52028 0.02234 0.7235 0.0
H428 H 0.60158 0.99115 0.68921 0.0
H429 H 0.57767 0.97861 0.64107 0.0
C430 C 0.52157 0.9878 0.6266 0.0
C431 C 0.49177 0.9935 0.62234 0.0
C432 C 0.53512 0.99341 0.65446 0.0
C433 C 0.47554 0.00404 0.64663 0.0
C434 C 0.48897 0.0101 0.67419 0.0
C435 C 0.53272 0.01264 0.70551 0.0
C436 C 0.56266 0.00796 0.70964 0.0
C437 C 0.51881 0.00528 0.67821 0.0
C438 C 0.57845 0.99493 0.68643 0.0
C439 C 0.56484 0.98791 0.65893 0.0
H440 H 0.79591 0.25606 0.80649 0.0
H441 H 0.83955 0.27661 0.72423 0.0
H442 H 0.88737 0.28209 0.74943 0.0
H443 H 0.91717 0.2792 0.79445 0.0
H444 H 0.8737 0.25394 0.87537 0.0
H445 H 0.82561 0.25095 0.85066 0.0
C446 C 0.81583 0.26133 0.79385 0.0
C447 C 0.81385 0.26589 0.76339 0.0
C448 C 0.84344 0.26319 0.80816 0.0
C449 C 0.84008 0.27352 0.74777 0.0
C450 C 0.86758 0.27631 0.76209 0.0
C451 C 0.89717 0.27296 0.80665 0.0
C452 C 0.89905 0.26679 0.8367 0.0
C453 C 0.86956 0.27092 0.79222 0.0
C454 C 0.87294 0.2586 0.85216 0.0
C455 C 0.84539 0.25705 0.8381 0.0
H456 H 0.43295 0.91573 0.52163 0.0
H457 H 0.52417 0.95166 0.52346 0.0
H458 H 0.53707 0.91285 0.4872 0.0
H459 H 0.52199 0.86943 0.45411 0.0
H460 H 0.43122 0.83176 0.45452 0.0
H461 H 0.41849 0.87039 0.49083 0.0
C462 C 0.45561 0.9149 0.51404 0.0
C463 C 0.47759 0.93643 0.52487 0.0
C464 C 0.46289 0.89229 0.49365 0.0
C465 C 0.50699 0.93515 0.51532 0.0
C466 C 0.51431 0.91307 0.49459 0.0
C467 C 0.49945 0.86969 0.46221 0.0
C468 C 0.47754 0.84795 0.45153 0.0
C469 C 0.4924 0.89165 0.48345 0.0
C470 C 0.4485 0.84825 0.46247 0.0
C471 C 0.44117 0.87037 0.48316 0.0
H472 H 0.145 0.32923 0.75529 0.0
H473 H 0.16175 0.2393 0.7722 0.0
H474 H 0.11578 0.23366 0.80106 0.0
H475 H 0.07122 0.25516 0.82217 0.0
H476 H 0.05493 0.34493 0.803 0.0
H477 H 0.10039 0.34982 0.77445 0.0
C478 C 0.13863 0.30845 0.76546 0.0
C479 C 0.15677 0.28485 0.76208 0.0
C480 C 0.11229 0.30538 0.78159 0.0
C481 C 0.14805 0.25778 0.77468 0.0
C482 C 0.12188 0.25461 0.79119 0.0
C483 C 0.07767 0.27574 0.81171 0.0
C484 C 0.05974 0.29966 0.81482 0.0
C485 C 0.10387 0.27837 0.79493 0.0
C486 C 0.06824 0.32613 0.80094 0.0
C487 C 0.09429 0.32902 0.78463 0.0
H488 H 0.55885 0.63538 0.499 0.0
H489 H 0.46813 0.61206 0.52396 0.0
H490 H 0.45133 0.64924 0.49217 0.0
H491 H 0.46214 0.68788 0.45694 0.0
H492 H 0.55258 0.71091 0.43098 0.0
H493 H 0.56964 0.67376 0.46296 0.0
C494 C 0.53538 0.63825 0.49731 0.0
C495 C 0.51482 0.62093 0.51397 0.0
C496 C 0.52577 0.65942 0.47861 0.0
C497 C 0.48452 0.62536 0.51183 0.0
C498 C 0.47484 0.64645 0.49343 0.0
C499 C 0.48559 0.68471 0.45811 0.0
C500 C 0.50604 0.70212 0.44151 0.0
C501 C 0.49524 0.66351 0.47666 0.0
C502 C 0.53635 0.69776 0.44344 0.0
C503 C 0.54613 0.67658 0.4618 0.0
H504 H 0.88403 0.81433 0.80076 0.0
H505 H 0.81763 0.82716 0.73533 0.0
H506 H 0.85375 0.8204 0.69587 0.0
H507 H 0.90377 0.8094 0.68005 0.0
H508 H 0.96962 0.79545 0.74586 0.0
H509 H 0.93393 0.80376 0.78507 0.0
C510 C 0.87737 0.81536 0.77784 0.0
C511 C 0.84815 0.821 0.77096 0.0
C512 C 0.89811 0.8112 0.75536 0.0
C513 C 0.84005 0.823 0.74121 0.0
C514 C 0.86064 0.819 0.71865 0.0
C515 C 0.91038 0.80827 0.70296 0.0
C516 C 0.93935 0.80172 0.70993 0.0
C517 C 0.88969 0.81292 0.72548 0.0
C518 C 0.94747 0.80035 0.73979 0.0
C519 C 0.92708 0.8051 0.76227 0.0
H520 H 0.00971 0.91332 0.48588 0.0
H521 H 0.06316 0.96544 0.55186 0.0
H522 H 0.05212 0.92744 0.58737 0.0
H523 H 0.02731 0.87924 0.59986 0.0
H524 H 0.97003 0.82975 0.5355 0.0
H525 H 0.982 0.86728 0.49944 0.0
C526 C 0.01855 0.91677 0.50815 0.0
C527 C 0.03756 0.9422 0.51589 0.0
C528 C 0.01139 0.89527 0.52884 0.0
C529 C 0.0491 0.9458 0.54487 0.0
C530 C 0.04261 0.92418 0.56536 0.0
C531 C 0.01751 0.87674 0.57792 0.0
C532 C -0.00197 0.85177 0.57021 0.0
C533 C 0.02393 0.89874 0.55754 0.0
C534 C 0.98509 0.84888 0.5419 0.0
C535 C 0.99196 0.87027 0.52127 0.0
H536 H 0.19156 0.79027 0.75622 0.0
H537 H 0.16882 0.69637 0.76357 0.0
H538 H 0.12403 0.69937 0.73448 0.0
H539 H 0.08937 0.7291 0.7107 0.0
H540 H 0.11112 0.82287 0.70225 0.0
H541 H 0.15831 0.81962 0.72824 0.0
C542 C 0.1769 0.77046 0.75113 0.0
C543 C 0.18348 0.74314 0.76206 0.0
C544 C 0.15091 0.77241 0.73463 0.0
C545 C 0.1645 0.71756 0.75512 0.0
C546 C 0.13871 0.71932 0.73875 0.0
C547 C 0.10446 0.74885 0.7145 0.0
C548 C 0.09667 0.77629 0.70513 0.0
C549 C 0.1314 0.7467 0.72903 0.0
C550 C 0.11666 0.80156 0.70951 0.0
C551 C 0.14354 0.79968 0.72436 0.0
H552 H 0.02475 0.60258 0.56557 0.0
H553 H 0.93808 0.60876 0.52803 0.0
H554 H 0.93653 0.6588 0.55052 0.0
H555 H 0.95964 0.7006 0.58104 0.0
H556 H 0.0455 0.6939 0.62044 0.0
H557 H 0.04763 0.64435 0.59697 0.0
C558 C 0.00562 0.61501 0.56237 0.0
C559 C 0.98154 0.60215 0.5454 0.0
C560 C 0.00475 0.64362 0.57561 0.0
C561 C 0.95672 0.61822 0.54138 0.0
C562 C 0.95588 0.64683 0.55408 0.0
C563 C 0.97887 0.68835 0.58437 0.0
C564 C 0.00238 0.7009 0.60233 0.0
C565 C 0.97974 0.65972 0.57127 0.0
C566 C 0.02704 0.68465 0.60673 0.0
C567 C 0.02832 0.65634 0.59332 0.0
H568 H 0.74057 0.85981 0.27072 0.0
H569 H 0.81744 0.81229 0.25038 0.0
H570 H 0.84895 0.85899 0.25366 0.0
H571 H 0.85452 0.91329 0.2626 0.0
H572 H 0.77757 0.95999 0.28506 0.0
H573 H 0.74621 0.91343 0.28092 0.0
C574 C 0.7643 0.85952 0.26756 0.0
C575 C 0.77666 0.83255 0.26056 0.0
C576 C 0.78221 0.8863 0.26968 0.0
C577 C 0.80736 0.83277 0.25568 0.0
C578 C 0.82537 0.85944 0.2576 0.0
C579 C 0.83085 0.91328 0.26639 0.0
C580 C 0.81836 0.94006 0.27399 0.0
C581 C 0.813 0.88635 0.26447 0.0
C582 C 0.78773 0.93967 0.2792 0.0
C583 C 0.76978 0.91307 0.27687 0.0
H584 H 0.74336 0.17747 0.3241 0.0
H585 H 0.76876 0.19394 0.23432 0.0
H586 H 0.79791 0.15037 0.23279 0.0
H587 H 0.81734 0.10845 0.25813 0.0
H588 H 0.79033 0.09301 0.34796 0.0
H589 H 0.76095 0.13557 0.34843 0.0
C590 C 0.75536 0.17156 0.3042 0.0
C591 C 0.75433 0.189 0.2795 0.0
C592 C 0.77193 0.1468 0.3036 0.0
C593 C 0.76934 0.18078 0.25361 0.0
C594 C 0.78608 0.15602 0.25283 0.0
C595 C 0.80506 0.1145 0.27778 0.0
C596 C 0.80618 0.09763 0.30303 0.0
C597 C 0.7878 0.13902 0.27786 0.0
C598 C 0.7899 0.10554 0.32823 0.0
C599 C 0.77305 0.1299 0.32856 0.0
H600 H 0.40313 0.03592 0.02006 0.0
H601 H 0.443 0.95351 0.02875 0.0
H602 H 0.39372 0.9268 0.03088 0.0
H603 H 0.33957 0.9269 0.0286 0.0
H604 H 0.29992 0.00926 0.01786 0.0
H605 H 0.34903 0.03617 0.01871 0.0
C606 C 0.40099 0.01216 0.02284 0.0
C607 C 0.42655 -0.00334 0.02449 0.0
C608 C 0.37273 -0.00295 0.02369 0.0
C609 C 0.42357 0.96582 0.02739 0.0
C610 C 0.39546 0.95062 0.02868 0.0
C611 C 0.34162 0.95079 0.02676 0.0
C612 C 0.3161 0.96607 0.02322 0.0
C613 C 0.36991 0.966 0.02664 0.0
C614 C 0.3192 -0.00303 0.02055 0.0
C615 C 0.34726 0.01236 0.021 0.0
H616 H 0.28384 0.41335 0.30464 0.0
H617 H 0.21311 0.34595 0.28359 0.0
H618 H 0.17762 0.38405 0.28191 0.0
H619 H 0.16662 0.43658 0.289 0.0
H620 H 0.23726 0.50285 0.31466 0.0
H621 H 0.27297 0.46533 0.3119 0.0
C622 C 0.2607 0.40718 0.29931 0.0
C623 C 0.25095 0.37719 0.29391 0.0
C624 C 0.24047 0.42899 0.29943 0.0
C625 C 0.22092 0.3691 0.28762 0.0
C626 C 0.20072 0.39081 0.28674 0.0
C627 C 0.18988 0.44272 0.29375 0.0
C628 C 0.19937 0.47235 0.30201 0.0
C629 C 0.21019 0.42083 0.29297 0.0
C630 C 0.22946 0.4801 0.30844 0.0
C631 C 0.24989 0.4587 0.30681 0.0
H632 H 0.09298 0.05969 0.47694 0.0
H633 H 0.13728 0.97897 0.47336 0.0
H634 H 0.18566 0.00792 0.47481 0.0
H635 H 0.21505 0.05651 0.47703 0.0
H636 H 0.16977 0.13684 0.48311 0.0
H637 H 0.12196 0.10775 0.48052 0.0
C638 C 0.11329 0.04853 0.47637 0.0
C639 C 0.11184 0.01743 0.47483 0.0
C640 C 0.14072 0.06522 0.47758 0.0
C641 C 0.1381 0.00299 0.4746 0.0
C642 C 0.16564 0.0195 0.47531 0.0
C643 C 0.19468 0.06755 0.47763 0.0
C644 C 0.19586 0.09871 0.48013 0.0
C645 C 0.1672 0.05066 0.47675 0.0
C646 C 0.16938 0.11284 0.48129 0.0
C647 C 0.14205 0.09627 0.47978 0.0
H648 H 0.75286 0.17792 0.75697 0.0
H649 H 0.67632 0.22505 0.73882 0.0
H650 H 0.64367 0.18185 0.75193 0.0
H651 H 0.63709 0.13079 0.76936 0.0
H652 H 0.71448 0.08614 0.7907 0.0
H653 H 0.74654 0.12889 0.77658 0.0
C654 C 0.72905 0.17917 0.75644 0.0
C655 C 0.71716 0.20495 0.7472 0.0
C656 C 0.71053 0.15474 0.76484 0.0
C657 C 0.68616 0.20547 0.74562 0.0
C658 C 0.66747 0.18085 0.75335 0.0
C659 C 0.66096 0.1305 0.77104 0.0
C660 C 0.67332 0.10525 0.78107 0.0
C661 C 0.67943 0.15538 0.7631 0.0
C662 C 0.70431 0.10528 0.78322 0.0
C663 C 0.72272 0.12968 0.77501 0.0
H664 H 0.43245 0.02404 0.50179 0.0
H665 H 0.40164 0.03019 0.59202 0.0
H666 H 0.36581 0.06443 0.5783 0.0
H667 H 0.34173 0.0912 0.54032 0.0
H668 H 0.36956 0.0815 0.44948 0.0
H669 H 0.4078 0.04986 0.46375 0.0
C670 C 0.41769 0.03254 0.51844 0.0
C671 C 0.41992 0.02451 0.54793 0.0
C672 C 0.39656 0.05165 0.51028 0.0
C673 C 0.40088 0.03631 0.56924 0.0
C674 C 0.38019 0.05578 0.56139 0.0
C675 C 0.3564 0.08239 0.52375 0.0
C676 C 0.353 0.08874 0.49396 0.0
C677 C 0.37776 0.06352 0.53197 0.0
C678 C 0.3718 0.07686 0.47258 0.0
C679 C 0.39362 0.05875 0.4807 0.0
H680 H 0.59396 0.52843 0.5718 0.0
H681 H 0.56726 0.53789 0.48128 0.0
H682 H 0.60651 0.50781 0.46394 0.0
H683 H 0.64863 0.47895 0.47432 0.0
H684 H 0.67169 0.465 0.56468 0.0
H685 H 0.63269 0.49581 0.58226 0.0
C686 C 0.59612 0.52349 0.54827 0.0
C687 C 0.57756 0.53584 0.528 0.0
C688 C 0.61797 0.50513 0.53839 0.0
C689 C 0.58152 0.52952 0.49754 0.0
C690 C 0.60381 0.51198 0.48753 0.0
C691 C 0.64496 0.48256 0.49786 0.0
C692 C 0.66304 0.46996 0.51822 0.0
C693 C 0.62222 0.4998 0.50775 0.0
C694 C 0.65793 0.47442 0.54863 0.0
C695 C 0.63577 0.49215 0.55866 0.0
H696 H 0.71911 0.31823 0.32301 0.0
H697 H 0.73794 0.2397 0.36764 0.0
H698 H 0.74164 0.26824 0.41466 0.0
H699 H 0.73894 0.31518 0.44336 0.0
H700 H 0.71699 0.39306 0.39949 0.0
H701 H 0.71408 0.36471 0.35212 0.0
C702 C 0.72373 0.30723 0.34303 0.0
C703 C 0.72854 0.27687 0.34156 0.0
C704 C 0.72492 0.32355 0.37025 0.0
C705 C 0.7349 0.26318 0.36781 0.0
C706 C 0.73667 0.2794 0.39486 0.0
C707 C 0.7334 0.32596 0.42347 0.0
C708 C 0.72827 0.3562 0.42499 0.0
C709 C 0.73167 0.30956 0.39634 0.0
C710 C 0.72094 0.36976 0.399 0.0
C711 C 0.71942 0.35362 0.37185 0.0
H712 H 0.48739 0.01138 0.93991 0.0
H713 H 0.56323 0.0154 -0.00211 0.0
H714 H 0.59628 0.01265 0.9551 0.0
H715 H 0.60362 0.01402 0.90134 0.0
H716 H 0.52749 0.01362 0.84379 0.0
H717 H 0.4945 0.00994 0.88624 0.0
C718 C 0.5111 0.01087 0.94309 0.0
C719 C 0.52297 0.0133 0.97182 0.0
C720 C 0.52988 0.01042 0.91849 0.0
C721 C 0.55373 0.01336 0.97584 0.0
C722 C 0.57256 0.01197 0.95144 0.0
C723 C 0.5798 0.01282 0.89806 0.0
C724 C 0.56807 0.01435 0.86946 0.0
C725 C 0.56092 0.0113 0.92266 0.0
C726 C 0.53714 0.01281 0.8656 0.0
C727 C 0.51822 0.01062 0.88985 0.0
H728 H 0.30415 0.25811 0.32705 0.0
H729 H 0.26874 0.32779 0.3815 0.0
H730 H 0.26534 0.29563 0.42326 0.0
H731 H 0.27285 0.24798 0.4444 0.0
H732 H 0.31016 0.17912 0.39031 0.0
H733 H 0.31335 0.21125 0.3486 0.0
C734 C 0.29601 0.26645 0.34813 0.0
C735 C 0.2867 0.29536 0.35105 0.0
C736 C 0.29477 0.24814 0.37223 0.0
C737 C 0.2756 0.30549 0.37841 0.0
C738 C 0.27393 0.28722 0.40242 0.0
C739 C 0.28188 0.24003 0.42356 0.0
C740 C 0.29122 0.21113 0.42054 0.0
C741 C 0.28354 0.25855 0.39959 0.0
C742 C 0.30285 0.20125 0.39334 0.0
C743 C 0.30457 0.21956 0.3694 0.0
H744 H 0.46701 0.49697 0.9486 0.0
H745 H 0.5441 0.48908 0.8937 0.0
H746 H 0.51524 0.49759 0.84985 0.0
H747 H 0.46826 0.50678 0.82708 0.0
H748 H 0.39084 0.51554 0.88152 0.0
H749 H 0.41971 0.50748 0.92559 0.0
C750 C 0.47732 0.49698 0.92696 0.0
C751 C 0.50754 0.4924 0.92426 0.0
C752 C 0.46064 0.50223 0.90185 0.0
C753 C 0.52087 0.49276 0.89624 0.0
C754 C 0.5044 0.49759 0.8712 0.0
C755 C 0.45766 0.50708 0.84857 0.0
C756 C 0.42741 0.51169 0.85093 0.0
C757 C 0.47431 0.50238 0.87375 0.0
C758 C 0.41413 0.51211 0.87903 0.0
C759 C 0.43058 0.50737 0.90425 0.0
H760 H 0.742 0.78231 0.17181 0.0
H761 H 0.74134 0.70083 0.21708 0.0
H762 H 0.74754 0.67301 0.1697 0.0
H763 H 0.7531 0.67236 0.11508 0.0
H764 H 0.7503 0.75417 0.07062 0.0
H765 H 0.746 0.78159 0.11802 0.0
C766 C 0.74328 0.75845 0.17123 0.0
C767 C 0.7415 0.74354 0.19768 0.0
C768 C 0.74647 0.74281 0.14411 0.0
C769 C 0.74266 0.71262 0.19683 0.0
C770 C 0.74635 0.69683 0.16983 0.0
C771 C 0.75184 0.69622 0.11595 0.0
C772 C 0.75228 0.71136 0.08956 0.0
C773 C 0.7484 0.71174 0.1433 0.0
C774 C 0.75005 0.74214 0.09073 0.0
C775 C 0.74753 0.7578 0.11777 0.0
H776 H 0.01266 0.04486 0.12731 0.0
H777 H 0.93385 0.06568 0.0815 0.0
H778 H 0.90489 0.05864 0.1263 0.0
H779 H 0.90111 0.04354 0.17791 0.0
H780 H 0.97865 0.01659 0.22107 0.0
H781 H 0.00872 0.02839 0.17775 0.0
C782 C 0.98908 0.04746 0.12682 0.0
C783 C 0.97566 0.0558 0.1008 0.0
C784 C 0.9722 0.0421 0.15227 0.0
C785 C 0.94511 0.05982 0.1012 0.0
C786 C 0.92836 0.05551 0.12679 0.0
C787 C 0.92464 0.04054 0.1778 0.0
C788 C 0.93776 0.02935 0.20253 0.0
C789 C 0.94159 0.04634 0.15238 0.0
C790 C 0.96813 0.0251 0.20214 0.0
C791 C 0.98531 0.03185 0.17742 0.0
H792 H 0.24264 0.78325 0.1796 0.0
H793 H 0.32733 0.76143 0.14492 0.0
H794 H 0.32111 0.79205 0.10289 0.0
H795 H 0.29236 0.82554 0.07657 0.0
H796 H 0.20835 0.84952 0.11126 0.0
H797 H 0.21344 0.81744 0.15272 0.0
C798 C 0.25958 0.78516 0.1627 0.0
C799 C 0.28546 0.77026 0.16535 0.0
C800 C 0.256 0.80315 0.13871 0.0
C801 C 0.3074 0.77299 0.14349 0.0
C802 C 0.30381 0.79038 0.11942 0.0
C803 C 0.27502 0.8237 0.09309 0.0
C804 C 0.24996 0.83984 0.09078 0.0
C805 C 0.27832 0.80567 0.11691 0.0
C806 C 0.22787 0.83733 0.11254 0.0
C807 C 0.23078 0.819 0.13623 0.0
H808 H 0.0274 0.46952 0.11332 0.0
H809 H 0.94555 0.49871 0.14883 0.0
H810 H 0.96998 0.51288 0.19598 0.0
H811 H 0.01537 0.52092 0.22555 0.0
H812 H 0.09691 0.49012 0.19141 0.0
H813 H 0.07157 0.47183 0.1454 0.0
C814 C 0.01472 0.47835 0.13156 0.0
C815 C 0.98483 0.48363 0.12732 0.0
C816 C 0.02885 0.48623 0.15876 0.0
C817 C 0.96879 0.4952 0.15121 0.0
C818 C 0.98268 0.50316 0.17824 0.0
C819 C 0.02751 0.50993 0.20812 0.0
C820 C 0.05797 0.50722 0.21153 0.0
C821 C 0.01285 0.49951 0.18196 0.0
C822 C 0.07342 0.4925 0.18914 0.0
C823 C 0.05898 0.48219 0.16283 0.0
H824 H 0.35563 0.78861 0.24802 0.0
H825 H 0.35367 0.69307 0.24892 0.0
H826 H 0.39629 0.69732 0.28204 0.0
H827 H 0.43171 0.72802 0.31382 0.0
H828 H 0.43613 0.82338 0.31093 0.0
H829 H 0.39543 0.81932 0.27502 0.0
C830 C 0.36487 0.76872 0.25497 0.0
C831 C 0.3509 0.7406 0.2466 0.0
C832 C 0.38978 0.77126 0.27377 0.0
C833 C 0.36332 0.71506 0.25579 0.0
C834 C 0.38784 0.71741 0.27461 0.0
C835 C 0.42391 0.74788 0.3051 0.0
C836 C 0.43656 0.77592 0.31524 0.0
C837 C 0.40076 0.74538 0.28433 0.0
C838 C 0.42666 0.80151 0.30345 0.0
C839 C 0.40331 0.79921 0.28303 0.0
H840 H 0.98214 0.45023 0.99282 0.0
H841 H 0.95861 0.39336 0.06425 0.0
H842 H 0.96395 0.34947 0.03154 0.0
H843 H 0.97256 0.32738 0.98202 0.0
H844 H 0.996 0.38441 0.9105 0.0
H845 H 0.99347 0.4281 0.94391 0.0
C846 C 0.97821 0.42819 0.00116 0.0
C847 C 0.96981 0.42496 0.03078 0.0
C848 C 0.98121 0.40313 0.98224 0.0
C849 C 0.96525 0.39636 0.04154 0.0
C850 C 0.96815 0.37129 0.02283 0.0
C851 C 0.97731 0.34934 0.97375 0.0
C852 C 0.98422 0.35256 0.94372 0.0
C853 C 0.97574 0.37441 0.99305 0.0
C854 C 0.99055 0.38123 0.93348 0.0
C855 C 0.98903 0.40627 0.95255 0.0
H856 H 0.67953 0.82274 0.28387 0.0
H857 H 0.67777 0.72787 0.29036 0.0
H858 H 0.63082 0.72797 0.31761 0.0
H859 H 0.59018 0.75553 0.33941 0.0
H860 H 0.59343 0.85053 0.33188 0.0
H861 H 0.64033 0.84989 0.3058 0.0
C862 C 0.66918 0.80207 0.29163 0.0
C863 C 0.68235 0.77539 0.2855 0.0
C864 C 0.64251 0.80237 0.3072 0.0
C865 C 0.66808 0.74871 0.29485 0.0
C866 C 0.64134 0.7488 0.31052 0.0
C867 C 0.60131 0.77607 0.33224 0.0
C868 C 0.58828 0.80304 0.33763 0.0
C869 C 0.62834 0.77556 0.31685 0.0
C870 C 0.60286 0.82946 0.32799 0.0
C871 C 0.6297 0.82915 0.31303 0.0
H872 H 0.03842 0.11928 0.99214 0.0
H873 H 0.94624 0.09682 0.01236 0.0
H874 H 0.93181 0.13614 0.98207 0.0
H875 H 0.94528 0.17866 0.95229 0.0
H876 H 0.03676 0.20037 0.92956 0.0
H877 H 0.05149 0.15911 0.9578 0.0
C878 C 0.01515 0.12264 0.98952 0.0
C879 C 0.99353 0.10545 0.0051 0.0
C880 C 0.00686 0.14516 0.97165 0.0
C881 C 0.96346 0.11023 0.00139 0.0
C882 C 0.95512 0.1326 0.98389 0.0
C883 C 0.96844 0.17424 0.95334 0.0
C884 C 0.98994 0.19269 0.93919 0.0
C885 C 0.97664 0.15054 0.96941 0.0
C886 C 0.0198 0.18645 0.94032 0.0
C887 C 0.02822 0.16296 0.95657 0.0
H888 H 0.32066 0.32768 0.22466 0.0
H889 H 0.37626 0.33768 0.30244 0.0
H890 H 0.41962 0.32799 0.27247 0.0
H891 H 0.44068 0.31234 0.22523 0.0
H892 H 0.38526 0.30079 0.1472 0.0
H893 H 0.3429 0.31574 0.17614 0.0
C894 C 0.34241 0.32831 0.23484 0.0
C895 C 0.34537 0.33314 0.26563 0.0
C896 C 0.36713 0.32214 0.21754 0.0
C897 C 0.37354 0.3337 0.27875 0.0
C898 C 0.39826 0.32813 0.26167 0.0
C899 C 0.41941 0.31327 0.21443 0.0
C900 C 0.41608 0.30508 0.18417 0.0
C901 C 0.39516 0.32155 0.2312 0.0
C902 C 0.38841 0.3068 0.17052 0.0
C903 C 0.36415 0.31531 0.18705 0.0
H904 H 0.50924 0.40492 0.97959 0.0
H905 H 0.54477 0.46071 0.05357 0.0
H906 H 0.53535 0.41986 0.08628 0.0
H907 H 0.51685 0.36828 0.09407 0.0
H908 H 0.4778 0.31369 0.02107 0.0
H909 H 0.48857 0.35412 0.98784 0.0
C910 C 0.5145 0.40833 0.00294 0.0
C911 C 0.52793 0.43583 0.01398 0.0
C912 C 0.50856 0.38488 0.0218 0.0
C913 C 0.53494 0.43963 0.0443 0.0
C914 C 0.52945 0.41631 0.06309 0.0
C915 C 0.51095 0.36521 0.07083 0.0
C916 C 0.49684 0.33805 0.05992 0.0
C917 C 0.51646 0.38879 0.05206 0.0
C918 C 0.48877 0.33445 0.02991 0.0
C919 C 0.49486 0.35755 0.01093 0.0
H920 H 0.64232 0.25154 0.28604 0.0
H921 H 0.69485 0.24623 0.20683 0.0
H922 H 0.65132 0.25448 0.17685 0.0
H923 H 0.5979 0.26287 0.17356 0.0
H924 H 0.54618 0.26635 0.25355 0.0
H925 H 0.59007 0.26002 0.28299 0.0
C926 C 0.64434 0.25247 0.26222 0.0
C927 C 0.67176 0.24862 0.24865 0.0
C928 C 0.61943 0.25721 0.24536 0.0
C929 C 0.67389 0.24909 0.21772 0.0
C930 C 0.64909 0.25399 0.20065 0.0
C931 C 0.59646 0.26266 0.19746 0.0
C932 C 0.56896 0.26527 0.21144 0.0
C933 C 0.62173 0.25818 0.21427 0.0
C934 C 0.56714 0.26441 0.24235 0.0
C935 C 0.59218 0.26069 0.25918 0.0
H936 H 0.48026 0.07645 0.09073 0.0
H937 H 0.50483 0.10761 0.00489 0.0
H938 H 0.50579 0.15894 0.02425 0.0
H939 H 0.4973 0.19492 0.06478 0.0
H940 H 0.47345 0.16438 0.15103 0.0
H941 H 0.47422 0.11281 0.13224 0.0
C942 C 0.48599 0.09454 0.0764 0.0
C943 C 0.49254 0.08832 0.04651 0.0
C944 C 0.48627 0.12404 0.08762 0.0
C945 C 0.50015 0.11186 0.02811 0.0
C946 C 0.50041 0.14121 0.03907 0.0
C947 C 0.49218 0.17698 0.07945 0.0
C948 C 0.48499 0.18338 0.10911 0.0
C949 C 0.49309 0.14753 0.06865 0.0
C950 C 0.47894 0.15995 0.12803 0.0
C951 C 0.47939 0.1305 0.11732 0.0
H952 H 0.28813 0.33369 0.72666 0.0
H953 H 0.20846 0.3754 0.75051 0.0
H954 H 0.2373 0.42269 0.76004 0.0
H955 H 0.28497 0.45228 0.76217 0.0
H956 H 0.36461 0.41176 0.73611 0.0
H957 H 0.33579 0.36418 0.72618 0.0
C958 C 0.27703 0.35317 0.73367 0.0
C959 C 0.2462 0.35074 0.73835 0.0
C960 C 0.29369 0.38061 0.73856 0.0
C961 C 0.23225 0.37629 0.74755 0.0
C962 C 0.24868 0.40349 0.75274 0.0
C963 C 0.29606 0.43308 0.75424 0.0
C964 C 0.32691 0.43556 0.75006 0.0
C965 C 0.2794 0.40587 0.74849 0.0
C966 C 0.34086 0.41049 0.7395 0.0
C967 C 0.32442 0.38323 0.73391 0.0
H968 H 0.27975 0.68914 0.762 0.0
H969 H 0.24571 0.6766 0.84988 0.0
H970 H 0.26926 0.63019 0.85179 0.0
H971 H 0.29896 0.59298 0.82853 0.0
H972 H 0.33514 0.60559 0.74149 0.0
H973 H 0.31137 0.65214 0.73913 0.0
C974 C 0.2776 0.67617 0.7815 0.0
C975 C 0.26116 0.68625 0.80581 0.0
C976 C 0.2915 0.64956 0.78258 0.0
C977 C 0.25857 0.66942 0.83106 0.0
C978 C 0.27189 0.64283 0.83211 0.0
C979 C 0.30161 0.60586 0.80899 0.0
C980 C 0.31858 0.59577 0.78514 0.0
C981 C 0.28832 0.63267 0.80801 0.0
C982 C 0.32215 0.61291 0.76015 0.0
C983 C 0.30854 0.63948 0.75878 0.0
H984 H 0.90065 0.5408 0.51046 0.0
H985 H 0.94911 0.46423 0.52272 0.0
H986 H 0.90258 0.43224 0.52131 0.0
H987 H 0.84833 0.42634 0.51614 0.0
H988 H 0.80041 0.50321 0.50256 0.0
H989 H 0.8467 0.53496 0.50523 0.0
C990 C 0.90096 0.51714 0.51318 0.0
C991 C 0.92809 0.50482 0.51703 0.0
C992 C 0.87433 0.49904 0.51207 0.0
C993 C 0.92838 0.4741 0.51977 0.0
C994 C 0.90185 0.45589 0.51902 0.0
C995 C 0.84798 0.45006 0.5139 0.0
C996 C 0.82094 0.4624 0.50921 0.0
C997 C 0.87471 0.46815 0.51512 0.0
C998 C 0.82091 0.49314 0.50611 0.0
C999 C 0.84736 0.51132 0.50766 0.0
H1000 H 0.74974 0.86746 0.77624 0.0
H1001 H 0.78384 0.89263 0.86367 0.0
H1002 H 0.75235 0.93387 0.86734 0.0
H1003 H 0.71488 0.96218 0.84623 0.0
H1004 H 0.67893 0.93692 0.75948 0.0
H1005 H 0.71136 0.8962 0.75495 0.0
C1006 C 0.75031 0.88217 0.79594 0.0
C1007 C 0.76895 0.87712 0.81968 0.0
C1008 C 0.73179 0.90563 0.79806 0.0
C1009 C 0.76943 0.89605 0.84525 0.0
C1010 C 0.75151 0.91961 0.84734 0.0
C1011 C 0.71412 0.94784 0.82626 0.0
C1012 C 0.69458 0.9526 0.8032 0.0
C1013 C 0.73252 0.92449 0.82397 0.0
C1014 C 0.69376 0.93367 0.77758 0.0
C1015 C 0.71233 0.91044 0.77497 0.0
H1016 H 0.58094 0.55971 0.98271 0.0
H1017 H 0.62591 0.47942 0.98304 0.0
H1018 H 0.67376 0.50866 0.9882 0.0
H1019 H 0.70261 0.5569 0.99184 0.0
H1020 H 0.6577 0.63744 0.99338 0.0
H1021 H 0.60986 0.60824 0.98826 0.0
C1022 C 0.6013 0.54874 0.98388 0.0
C1023 C 0.60014 0.51761 0.98241 0.0
C1024 C 0.62858 0.56567 0.98713 0.0
C1025 C 0.62644 0.50343 0.9843 0.0
C1026 C 0.65372 0.5201 0.98713 0.0
C1027 C 0.68236 0.56808 0.99099 0.0
C1028 C 0.68366 0.59925 0.99275 0.0
C1029 C 0.65503 0.55121 0.98844 0.0
C1030 C 0.65724 0.61344 0.99206 0.0
C1031 C 0.62992 0.59678 0.98908 0.0
H1032 H 0.21325 0.70904 0.22892 0.0
H1033 H 0.28746 0.65499 0.22881 0.0
H1034 H 0.25566 0.61326 0.24565 0.0
H1035 H 0.20782 0.59276 0.26264 0.0
H1036 H 0.13212 0.64449 0.2612 0.0
H1037 H 0.16337 0.68652 0.24261 0.0
C1038 C 0.22224 0.68797 0.23222 0.0
C1039 C 0.25275 0.68526 0.22822 0.0
C1040 C 0.20371 0.66382 0.24188 0.0
C1041 C 0.26417 0.65782 0.23241 0.0
C1042 C 0.24603 0.63392 0.24198 0.0
C1043 C 0.19813 0.61327 0.25839 0.0
C1044 C 0.1679 0.61578 0.26376 0.0
C1045 C 0.21597 0.63687 0.24734 0.0
C1046 C 0.15547 0.64219 0.25743 0.0
C1047 C 0.1733 0.66616 0.24679 0.0
H1048 H 0.89177 0.48723 0.02343 0.0
H1049 H 0.94463 0.55791 0.0713 0.0
H1050 H 0.90978 0.59324 0.05784 0.0
H1051 H 0.86389 0.60415 0.03264 0.0
H1052 H 0.81429 0.53428 0.98083 0.0
H1053 H 0.84872 0.49875 0.99509 0.0
C1054 C 0.89616 0.51044 0.03048 0.0
C1055 C 0.92078 0.51964 0.04866 0.0
C1056 C 0.87656 0.53087 0.02192 0.0
C1057 C 0.92553 0.54986 0.05792 0.0
C1058 C 0.90572 0.57022 0.05004 0.0
C1059 C 0.86072 0.58114 0.02452 0.0
C1060 C 0.83657 0.57175 0.00592 0.0
C1061 C 0.88103 0.56094 0.03223 0.0
C1062 C 0.83282 0.54201 0.99515 0.0
C1063 C 0.85243 0.52167 0.00334 0.0
H1064 H 0.08571 0.06015 0.01436 0.0
H1065 H 0.03598 0.98539 0.05158 0.0
H1066 H 0.07845 0.95598 0.04536 0.0
H1067 H 0.13006 0.95142 0.02967 0.0
H1068 H 0.17824 0.02484 0.98892 0.0
H1069 H 0.13594 0.0546 0.99581 0.0
C1070 C 0.0839 0.03728 0.02067 0.0
C1071 C 0.05765 0.02526 0.03376 0.0
C1072 C 0.10823 0.02019 0.01647 0.0
C1073 C 0.05604 0.99559 0.0421 0.0
C1074 C 0.0803 0.97862 0.03839 0.0
C1075 C 0.13127 0.97396 0.0224 0.0
C1076 C 0.15727 0.986 0.00902 0.0
C1077 C 0.1066 0.99076 0.02583 0.0
C1078 C 0.15843 0.01508 -0.00071 0.0
C1079 C 0.13426 0.03212 0.00323 0.0
loop_
_geom_bond_atom_site_label_1
_geom_bond_atom_site_label_2
_geom_bond_distance
_geom_bond_site_symmetry_2
_ccdc_geom_bond_type
H0 C3 0.931 . S
H1 C6 0.928 . S
H2 C8 0.930 . S
C3 H0 0.931 . S
C3 C4 1.413 . S
C3 C5 1.360 . S
C4 C3 1.413 . S
C4 C8 1.429 . S
C5 C3 1.360 . S
C5 C6 1.372 . S
C6 H1 0.928 . S
C6 C5 1.372 . S
C6 C7 1.404 . S
C7 C6 1.404 . S
C7 C8 1.391 . S
C8 H2 0.930 . S
C8 C4 1.429 . S
C8 C7 1.391 . S
H9 C12 0.931 . S
H10 C15 0.928 . S
H11 C17 0.930 . S
C12 H9 0.931 . S
C12 C13 1.413 . S
C12 C14 1.360 . S
C13 C12 1.413 . S
C13 C17 1.429 . S
C14 C12 1.360 . S
C14 C15 1.372 . S
C15 H10 0.928 . S
C15 C14 1.372 . S
C15 C16 1.404 . S
C16 C15 1.404 . S
C16 C17 1.391 . S
C17 H11 0.930 . S
C17 C13 1.429 . S
C17 C16 1.391 . S
H18 C21 0.931 . S
H19 C24 0.928 . S
H20 C26 0.930 . S
C21 H18 0.931 . S
C21 C22 1.413 . S
C21 C23 1.360 . S
C22 C21 1.413 . S
C22 C26 1.429 . S
C23 C21 1.360 . S
C23 C24 1.372 . S
C24 H19 0.928 . S
C24 C23 1.372 . S
C24 C25 1.404 . S
C25 C24 1.404 . S
C25 C26 1.391 . S
C26 H20 0.930 . S
C26 C22 1.429 . S
C26 C25 1.391 . S
H27 C30 0.931 . S
H28 C33 0.928 . S
H29 C35 0.930 . S
C30 H27 0.931 . S
C30 C31 1.413 . S
C30 C32 1.360 . S
C31 C30 1.413 . S
C31 C35 1.429 . S
C32 C30 1.360 . S
C32 C33 1.372 . S
C33 H28 0.928 . S
C33 C32 1.372 . S
C33 C34 1.404 . S
C34 C33 1.404 . S
C34 C35 1.391 . S
C35 H29 0.930 . S
C35 C31 1.429 . S
C35 C34 1.391 . S
H36 C39 0.931 . S
H37 C42 0.928 . S
H38 C44 0.930 . S
C39 H36 0.931 . S
C39 C40 1.413 . S
C39 C41 1.360 . S
C40 C39 1.413 . S
C40 C44 1.429 . S
C41 C39 1.360 . S
C41 C42 1.372 . S
C42 H37 0.928 . S
C42 C41 1.372 . S
C42 C43 1.404 . S
C43 C42 1.404 . S
C43 C44 1.391 . S
C44 H38 0.930 . S
C44 C40 1.429 . S
C44 C43 1.391 . S
H45 C48 0.931 . S
H46 C51 0.928 . S
H47 C53 0.930 . S
C48 H45 0.931 . S
C48 C49 1.413 . S
C48 C50 1.360 . S
C49 C48 1.413 . S
C49 C53 1.429 . S
C50 C48 1.360 . S
C50 C51 1.372 . S
C51 H46 0.928 . S
C51 C50 1.372 . S
C51 C52 1.404 . S
C52 C51 1.404 . S
C52 C53 1.391 . S
C53 H47 0.930 . S
C53 C49 1.429 . S
C53 C52 1.391 . S
H54 C57 0.931 . S
H55 C60 0.928 . S
H56 C62 0.930 . S
C57 H54 0.931 . S
C57 C58 1.413 . S
C57 C59 1.360 . S
C58 C57 1.413 . S
C58 C62 1.429 . S
C59 C57 1.360 . S
C59 C60 1.372 . S
C60 H55 0.928 . S
C60 C59 1.372 . S
C60 C61 1.404 . S
C61 C60 1.404 . S
C61 C62 1.391 . S
C62 H56 0.930 . S
C62 C58 1.429 . S
C62 C61 1.391 . S
H63 C66 0.931 . S
H64 C69 0.928 . S
H65 C71 0.930 . S
C66 H63 0.931 . S
C66 C67 1.413 . S
C66 C68 1.360 . S
C67 C66 1.413 . S
C67 C71 1.429 . S
C68 C66 1.360 . S
C68 C69 1.372 . S
C69 H64 0.928 . S
C69 C68 1.372 . S
C69 C70 1.404 . S
C70 C69 1.404 . S
C70 C71 1.391 . S
C71 H65 0.930 . S
C71 C67 1.429 . S
C71 C70 1.391 . S
H72 C75 0.931 . S
H73 C78 0.928 . S
H74 C80 0.930 . S
C75 H72 0.931 . S
C75 C76 1.413 . S
C75 C77 1.360 . S
C76 C75 1.413 . S
C76 C80 1.429 . S
C77 C75 1.360 . S
C77 C78 1.372 . S
C78 H73 0.928 . S
C78 C77 1.372 . S
C78 C79 1.404 . S
C79 C78 1.404 . S
C79 C80 1.391 . S
C80 H74 0.930 . S
C80 C76 1.429 . S
C80 C79 1.391 . S
H81 C84 0.931 . S
H82 C87 0.928 . S
H83 C89 0.930 . S
C84 H81 0.931 . S
C84 C85 1.413 . S
C84 C86 1.360 . S
C85 C84 1.413 . S
C85 C89 1.429 . S
C86 C84 1.360 . S
C86 C87 1.372 . S
C87 H82 0.928 . S
C87 C86 1.372 . S
C87 C88 1.404 . S
C88 C87 1.404 . S
C88 C89 1.391 . S
C89 H83 0.930 . S
C89 C85 1.429 . S
C89 C88 1.391 . S
H90 C93 0.931 . S
H91 C96 0.928 . S
H92 C98 0.930 . S
C93 H90 0.931 . S
C93 C94 1.413 . S
C93 C95 1.360 . S
C94 C93 1.413 . S
C94 C98 1.429 . S
C95 C93 1.360 . S
C95 C96 1.372 . S
C96 H91 0.928 . S
C96 C95 1.372 . S
C96 C97 1.404 . S
C97 C96 1.404 . S
C97 C98 1.391 . S
C98 H92 0.930 . S
C98 C94 1.429 . S
C98 C97 1.391 . S
H99 C102 0.931 . S
H100 C105 0.928 . S
H101 C107 0.930 . S
C102 H99 0.931 . S
C102 C103 1.413 . S
C102 C104 1.360 . S
C103 C102 1.413 . S
C103 C107 1.429 . S
C104 C102 1.360 . S
C104 C105 1.372 . S
C105 H100 0.928 . S
C105 C104 1.372 . S
C105 C106 1.404 . S
C106 C105 1.404 . S
C106 C107 1.391 . S
C107 H101 0.930 . S
C107 C103 1.429 . S
C107 C106 1.391 . S
H108 C111 0.931 . S
H109 C114 0.928 . S
H110 C116 0.930 . S
C111 H108 0.931 . S
C111 C112 1.413 . S
C111 C113 1.360 . S
C112 C111 1.413 . S
C112 C116 1.429 . S
C113 C111 1.360 . S
C113 C114 1.372 . S
C114 H109 0.928 . S
C114 C113 1.372 . S
C114 C115 1.404 . S
C115 C114 1.404 . S
C115 C116 1.391 . S
C116 H110 0.930 . S
C116 C112 1.429 . S
C116 C115 1.391 . S
H117 C120 0.931 . S
H118 C123 0.928 . S
H119 C125 0.930 . S
C120 H117 0.931 . S
C120 C121 1.413 . S
C120 C122 1.360 . S
C121 C120 1.413 . S
C121 C125 1.429 . S
C122 C120 1.360 . S
C122 C123 1.372 . S
C123 H118 0.928 . S
C123 C122 1.372 . S
C123 C124 1.404 . S
C124 C123 1.404 . S
C124 C125 1.391 . S
C125 H119 0.930 . S
C125 C121 1.429 . S
C125 C124 1.391 . S
H126 C129 0.931 . S
H127 C132 0.928 . S
H128 C134 0.930 . S
C129 H126 0.931 . S
C129 C130 1.413 . S
C129 C131 1.360 . S
C130 C129 1.413 . S
C130 C134 1.429 . S
C131 C129 1.360 . S
C131 C132 1.372 . S
C132 H127 0.928 . S
C132 C131 1.372 . S
C132 C133 1.404 . S
C133 C132 1.404 . S
C133 C134 1.391 . S
C134 H128 0.930 . S
C134 C130 1.429 . S
C134 C133 1.391 . S
H135 C138 0.931 . S
H136 C141 0.928 . S
H137 C143 0.930 . S
C138 H135 0.931 . S
C138 C139 1.413 . S
C138 C140 1.360 . S
C139 C138 1.413 . S
C139 C143 1.429 . S
C140 C138 1.360 . S
C140 C141 1.372 . S
C141 H136 0.928 . S
C141 C140 1.372 . S
C141 C142 1.404 . S
C142 C141 1.404 . S
C142 C143 1.391 . S
C143 H137 0.930 . S
C143 C139 1.429 . S
C143 C142 1.391 . S
O144 Cd145 2.223 . S
O144 C152 1.315 . S
Cd145 O144 2.223 . S
Cd145 O148 2.297 . S
Cd145 O149 2.439 . S
Cd145 O155 2.240 . S
Cd146 O147 2.240 . S
Cd146 O154 2.206 1_554 S
Cd146 O156 2.297 . S
Cd146 O157 2.439 . S
O147 Cd146 2.240 . S
O147 C152 1.279 . S
O148 Cd145 2.297 . S
O148 C150 1.247 . S
O149 Cd145 2.439 . S
O149 C150 1.208 . S
C150 O148 1.247 . S
C150 O149 1.208 . S
C151 O156 1.247 . S
C151 O157 1.208 . S
C152 O144 1.315 . S
C152 O147 1.279 . S
C153 O154 1.296 1_554 S
C153 O155 1.279 . S
O154 Cd146 2.206 1_556 S
O154 C153 1.296 1_556 S
O155 Cd145 2.240 . S
O155 C153 1.279 . S
O156 Cd146 2.297 . S
O156 C151 1.247 . S
O157 Cd146 2.439 . S
O157 C151 1.208 . S
O158 Cd159 2.223 . S
O158 C166 1.315 . S
Cd159 O158 2.223 . S
Cd159 O162 2.297 . S
Cd159 O163 2.439 . S
Cd159 O169 2.240 . S
Cd160 O161 2.240 . S
Cd160 O168 2.223 . S
Cd160 O170 2.297 . S
Cd160 O171 2.439 . S
O161 Cd160 2.240 . S
O161 C166 1.279 . S
O162 Cd159 2.297 . S
O162 C164 1.247 . S
O163 Cd159 2.439 . S
O163 C164 1.208 . S
C164 O162 1.247 . S
C164 O163 1.208 . S
C165 O170 1.247 . S
C165 O171 1.208 . S
C166 O158 1.315 . S
C166 O161 1.279 . S
C167 O168 1.315 . S
C167 O169 1.279 . S
O168 Cd160 2.223 . S
O168 C167 1.315 . S
O169 Cd159 2.240 . S
O169 C167 1.279 . S
O170 Cd160 2.297 . S
O170 C165 1.247 . S
O171 Cd160 2.439 . S
O171 C165 1.208 . S
O172 Cd173 2.223 1_556 S
O172 C180 1.315 . S
Cd173 O172 2.223 1_554 S
Cd173 O176 2.297 . S
Cd173 O177 2.439 . S
Cd173 O183 2.240 . S
Cd174 O175 2.240 . S
Cd174 O182 2.223 . S
Cd174 O184 2.298 1_556 S
Cd174 O185 2.439 1_556 S
O175 Cd174 2.240 . S
O175 C180 1.279 . S
O176 Cd173 2.297 . S
O176 C178 1.247 . S
O177 Cd173 2.439 . S
O177 C178 1.208 . S
C178 O176 1.247 . S
C178 O177 1.208 . S
C179 O184 1.246 . S
C179 O185 1.208 . S
C180 O172 1.315 . S
C180 O175 1.279 . S
C181 O182 1.315 . S
C181 O183 1.279 1_556 S
O182 Cd174 2.223 . S
O182 C181 1.315 . S
O183 Cd173 2.240 . S
O183 C181 1.279 1_554 S
O184 Cd174 2.298 1_554 S
O184 C179 1.246 . S
O185 Cd174 2.439 1_554 S
O185 C179 1.208 . S
O186 Cd187 2.223 . S
O186 C194 1.315 . S
Cd187 O186 2.223 . S
Cd187 O190 2.297 . S
Cd187 O191 2.439 . S
Cd187 O197 2.240 . S
Cd188 O189 2.240 . S
Cd188 O196 2.223 . S
Cd188 O198 2.297 . S
Cd188 O199 2.439 . S
O189 Cd188 2.240 . S
O189 C194 1.279 . S
O190 Cd187 2.297 . S
O190 C192 1.247 . S
O191 Cd187 2.439 . S
O191 C192 1.208 . S
C192 O190 1.247 . S
C192 O191 1.208 . S
C193 O198 1.247 . S
C193 O199 1.208 . S
C194 O186 1.315 . S
C194 O189 1.279 . S
C195 O196 1.315 . S
C195 O197 1.279 . S
O196 Cd188 2.223 . S
O196 C195 1.315 . S
O197 Cd187 2.240 . S
O197 C195 1.279 . S
O198 Cd188 2.297 . S
O198 C193 1.247 . S
O199 Cd188 2.439 . S
O199 C193 1.208 . S
O200 Cd201 2.223 . S
O200 C208 1.315 . S
Cd201 O200 2.223 . S
Cd201 O204 2.297 . S
Cd201 O205 2.439 . S
Cd201 O211 2.240 . S
Cd202 O203 2.240 . S
Cd202 O210 2.223 . S
Cd202 O212 2.297 . S
Cd202 O213 2.439 . S
O203 Cd202 2.240 . S
O203 C208 1.279 . S
O204 Cd201 2.297 . S
O204 C206 1.247 . S
O205 Cd201 2.439 . S
O205 C206 1.208 . S
C206 O204 1.247 . S
C206 O205 1.208 . S
C207 O212 1.247 . S
C207 O213 1.208 . S
C208 O200 1.315 . S
C208 O203 1.279 . S
C209 O210 1.315 . S
C209 O211 1.279 . S
O210 Cd202 2.223 . S
O210 C209 1.315 . S
O211 Cd201 2.240 . S
O211 C209 1.279 . S
O212 Cd202 2.297 . S
O212 C207 1.247 . S
O213 Cd202 2.439 . S
O213 C207 1.208 . S
O214 Cd215 2.223 . S
O214 C222 1.315 . S
Cd215 O214 2.223 . S
Cd215 O218 2.297 . S
Cd215 O219 2.439 . S
Cd215 O225 2.240 . S
Cd216 O217 2.240 . S
Cd216 O224 2.223 . S
Cd216 O226 2.297 . S
Cd216 O227 2.439 . S
O217 Cd216 2.240 . S
O217 C222 1.279 . S
O218 Cd215 2.297 . S
O218 C220 1.247 . S
O219 Cd215 2.439 . S
O219 C220 1.208 . S
C220 O218 1.247 . S
C220 O219 1.208 . S
C221 O226 1.247 . S
C221 O227 1.208 . S
C222 O214 1.315 . S
C222 O217 1.279 . S
C223 O224 1.315 . S
C223 O225 1.279 . S
O224 Cd216 2.223 . S
O224 C223 1.315 . S
O225 Cd215 2.240 . S
O225 C223 1.279 . S
O226 Cd216 2.297 . S
O226 C221 1.247 . S
O227 Cd216 2.439 . S
O227 C221 1.208 . S
O228 Cd229 2.223 . S
O228 C236 1.315 . S
Cd229 O228 2.223 . S
Cd229 O232 2.297 . S
Cd229 O233 2.439 . S
Cd229 O239 2.240 . S
Cd230 O231 2.240 . S
Cd230 O238 2.223 . S
Cd230 O240 2.297 . S
Cd230 O241 2.439 . S
O231 Cd230 2.240 . S
O231 C236 1.279 . S
O232 Cd229 2.297 . S
O232 C234 1.247 . S
O233 Cd229 2.439 . S
O233 C234 1.208 . S
C234 O232 1.247 . S
C234 O233 1.208 . S
C235 O240 1.247 . S
C235 O241 1.208 . S
C236 O228 1.315 . S
C236 O231 1.279 . S
C237 O238 1.315 . S
C237 O239 1.279 . S
O238 Cd230 2.223 . S
O238 C237 1.315 . S
O239 Cd229 2.240 . S
O239 C237 1.279 . S
O240 Cd230 2.297 . S
O240 C235 1.247 . S
O241 Cd230 2.439 . S
O241 C235 1.208 . S
O242 Cd243 2.223 1_545 S
O242 C250 1.315 . S
Cd243 O242 2.223 1_565 S
Cd243 O246 2.297 . S
Cd243 O247 2.439 . S
Cd243 O253 2.240 1_565 S
Cd244 O245 2.240 . S
Cd244 O252 2.223 . S
Cd244 O254 2.297 . S
Cd244 O255 2.439 1_545 S
O245 Cd244 2.240 . S
O245 C250 1.279 . S
O246 Cd243 2.297 . S
O246 C248 1.247 . S
O247 Cd243 2.439 . S
O247 C248 1.208 . S
C248 O246 1.247 . S
C248 O247 1.208 . S
C249 O254 1.247 1_565 S
C249 O255 1.208 . S
C250 O242 1.315 . S
C250 O245 1.279 . S
C251 O252 1.315 . S
C251 O253 1.279 . S
O252 Cd244 2.223 . S
O252 C251 1.315 . S
O253 Cd243 2.240 1_545 S
O253 C251 1.279 . S
O254 Cd244 2.297 . S
O254 C249 1.247 1_545 S
O255 Cd244 2.439 1_565 S
O255 C249 1.208 . S
O256 Cd257 2.223 . S
O256 C264 1.315 . S
Cd257 O256 2.223 . S
Cd257 O260 2.297 1_655 S
Cd257 O261 2.439 1_655 S
Cd257 O267 2.240 . S
Cd258 O259 2.240 . S
Cd258 O266 2.223 1_455 S
Cd258 O268 2.297 . S
Cd258 O269 2.439 . S
O259 Cd258 2.240 . S
O259 C264 1.279 1_455 S
O260 Cd257 2.297 1_455 S
O260 C262 1.247 . S
O261 Cd257 2.439 1_455 S
O261 C262 1.208 . S
C262 O260 1.247 . S
C262 O261 1.208 . S
C263 O268 1.247 . S
C263 O269 1.208 . S
C264 O256 1.315 . S
C264 O259 1.279 1_655 S
C265 O266 1.315 . S
C265 O267 1.279 . S
O266 Cd258 2.223 1_655 S
O266 C265 1.315 . S
O267 Cd257 2.240 . S
O267 C265 1.279 . S
O268 Cd258 2.297 . S
O268 C263 1.247 . S
O269 Cd258 2.439 . S
O269 C263 1.208 . S
O270 Cd271 2.223 . S
O270 C278 1.315 . S
Cd271 O270 2.223 . S
Cd271 O274 2.297 . S
Cd271 O275 2.439 . S
Cd271 O281 2.240 . S
Cd272 O273 2.240 . S
Cd272 O280 2.223 . S
Cd272 O282 2.297 . S
Cd272 O283 2.439 . S
O273 Cd272 2.240 . S
O273 C278 1.279 . S
O274 Cd271 2.297 . S
O274 C276 1.247 . S
O275 Cd271 2.439 . S
O275 C276 1.208 . S
C276 O274 1.247 . S
C276 O275 1.208 . S
C277 O282 1.247 . S
C277 O283 1.208 . S
C278 O270 1.315 . S
C278 O273 1.279 . S
C279 O280 1.315 . S
C279 O281 1.279 . S
O280 Cd272 2.223 . S
O280 C279 1.315 . S
O281 Cd271 2.240 . S
O281 C279 1.279 . S
O282 Cd272 2.297 . S
O282 C277 1.247 . S
O283 Cd272 2.439 . S
O283 C277 1.208 . S
O284 Cd285 2.223 1_655 S
O284 C292 1.315 . S
Cd285 O284 2.223 1_455 S
Cd285 O288 2.297 . S
Cd285 O289 2.439 . S
Cd285 O295 2.240 . S
Cd286 O287 2.240 . S
Cd286 O294 2.223 . S
Cd286 O296 2.297 1_655 S
Cd286 O297 2.439 1_655 S
O287 Cd286 2.240 . S
O287 C292 1.279 . S
O288 Cd285 2.297 . S
O288 C290 1.247 . S
O289 Cd285 2.439 . S
O289 C290 1.208 . S
C290 O288 1.247 . S
C290 O289 1.208 . S
C291 O296 1.247 . S
C291 O297 1.208 . S
C292 O284 1.315 . S
C292 O287 1.279 . S
C293 O294 1.315 . S
C293 O295 1.279 1_655 S
O294 Cd286 2.223 . S
O294 C293 1.315 . S
O295 Cd285 2.240 . S
O295 C293 1.279 1_455 S
O296 Cd286 2.297 1_455 S
O296 C291 1.247 . S
O297 Cd286 2.439 1_455 S
O297 C291 1.208 . S
O298 Cd299 2.223 . S
O298 C306 1.315 . S
Cd299 O298 2.223 . S
Cd299 O302 2.297 . S
Cd299 O303 2.439 . S
Cd299 O309 2.240 . S
Cd300 O301 2.240 . S
Cd300 O308 2.223 . S
Cd300 O310 2.297 . S
Cd300 O311 2.439 . S
O301 Cd300 2.240 . S
O301 C306 1.279 . S
O302 Cd299 2.297 . S
O302 C304 1.247 . S
O303 Cd299 2.439 . S
O303 C304 1.208 . S
C304 O302 1.247 . S
C304 O303 1.208 . S
C305 O310 1.247 . S
C305 O311 1.208 . S
C306 O298 1.315 . S
C306 O301 1.279 . S
C307 O308 1.315 . S
C307 O309 1.279 . S
O308 Cd300 2.223 . S
O308 C307 1.315 . S
O309 Cd299 2.240 . S
O309 C307 1.279 . S
O310 Cd300 2.297 . S
O310 C305 1.247 . S
O311 Cd300 2.439 . S
O311 C305 1.208 . S
H312 C318 0.930 . S
H313 C321 0.930 . S
H314 C322 0.930 . S
H315 C323 0.930 . S
H316 C326 0.930 . S
H317 C327 0.930 . S
C318 H312 0.930 . S
C318 C319 1.355 . S
C318 C320 1.415 . S
C319 C318 1.355 . S
C319 C321 1.419 . S
C320 C318 1.415 . S
C320 C325 1.425 . S
C320 C327 1.409 . S
C321 H313 0.930 . S
C321 C319 1.419 . S
C321 C322 1.362 . S
C322 H314 0.930 . S
C322 C321 1.362 . S
C322 C325 1.409 . S
C323 H315 0.930 . S
C323 C324 1.355 . S
C323 C325 1.415 . S
C324 C323 1.355 . S
C324 C326 1.419 . S
C325 C320 1.425 . S
C325 C322 1.409 . S
C325 C323 1.415 . S
C326 H316 0.930 . S
C326 C324 1.419 . S
C326 C327 1.362 . S
C327 H317 0.930 . S
C327 C320 1.409 . S
C327 C326 1.362 . S
H328 C334 0.930 . S
H329 C337 0.930 . S
H330 C338 0.930 . S
H331 C339 0.930 . S
H332 C342 0.930 . S
H333 C343 0.930 1_655 S
C334 H328 0.930 . S
C334 C335 1.355 . S
C334 C336 1.415 . S
C335 C334 1.355 . S
C335 C337 1.419 . S
C336 C334 1.415 . S
C336 C341 1.425 1_655 S
C336 C343 1.409 1_655 S
C337 H329 0.930 . S
C337 C335 1.419 . S
C337 C338 1.362 1_655 S
C338 H330 0.930 . S
C338 C337 1.362 1_455 S
C338 C341 1.409 . S
C339 H331 0.930 . S
C339 C340 1.355 . S
C339 C341 1.415 . S
C340 C339 1.355 . S
C340 C342 1.419 . S
C341 C336 1.425 1_455 S
C341 C338 1.409 . S
C341 C339 1.415 . S
C342 H332 0.930 . S
C342 C340 1.419 . S
C342 C343 1.362 . S
C343 H333 0.930 1_455 S
C343 C336 1.409 1_455 S
C343 C342 1.362 . S
H344 C350 0.930 . S
H345 C353 0.930 . S
H346 C354 0.930 . S
H347 C355 0.930 . S
H348 C358 0.930 . S
H349 C359 0.930 . S
C350 H344 0.930 . S
C350 C351 1.355 . S
C350 C352 1.415 . S
C351 C350 1.355 . S
C351 C353 1.419 . S
C352 C350 1.415 . S
C352 C357 1.425 . S
C352 C359 1.409 . S
C353 H345 0.930 . S
C353 C351 1.419 . S
C353 C354 1.362 . S
C354 H346 0.930 . S
C354 C353 1.362 . S
C354 C357 1.409 . S
C355 H347 0.930 . S
C355 C356 1.355 . S
C355 C357 1.415 . S
C356 C355 1.355 . S
C356 C358 1.419 . S
C357 C352 1.425 . S
C357 C354 1.409 . S
C357 C355 1.415 . S
C358 H348 0.930 . S
C358 C356 1.419 . S
C358 C359 1.362 . S
C359 H349 0.930 . S
C359 C352 1.409 . S
C359 C358 1.362 . S
H360 C366 0.930 . S
H361 C369 0.930 . S
H362 C370 0.930 . S
H363 C371 0.930 . S
H364 C374 0.930 . S
H365 C375 0.930 . S
C366 H360 0.930 . S
C366 C367 1.355 . S
C366 C368 1.415 1_455 S
C367 C366 1.355 . S
C367 C369 1.419 . S
C368 C366 1.415 1_655 S
C368 C373 1.422 1_565 S
C368 C375 1.409 . S
C369 H361 0.930 . S
C369 C367 1.419 . S
C369 C370 1.362 1_565 S
C370 H362 0.930 . S
C370 C369 1.362 1_545 S
C370 C373 1.409 1_455 S
C371 H363 0.930 . S
C371 C372 1.355 . S
C371 C373 1.417 . S
C372 C371 1.355 . S
C372 C374 1.419 1_545 S
C373 C368 1.422 1_545 S
C373 C370 1.409 1_655 S
C373 C371 1.417 . S
C374 H364 0.930 . S
C374 C372 1.419 1_565 S
C374 C375 1.362 . S
C375 H365 0.930 . S
C375 C368 1.409 . S
C375 C374 1.362 . S
H376 C382 0.930 . S
H377 C385 0.930 . S
H378 C386 0.930 . S
H379 C387 0.930 . S
H380 C390 0.930 . S
H381 C391 0.930 . S
C382 H376 0.930 . S
C382 C383 1.355 . S
C382 C384 1.415 . S
C383 C382 1.355 . S
C383 C385 1.419 . S
C384 C382 1.415 . S
C384 C389 1.425 . S
C384 C391 1.409 . S
C385 H377 0.930 . S
C385 C383 1.419 . S
C385 C386 1.362 . S
C386 H378 0.930 . S
C386 C385 1.362 . S
C386 C389 1.409 . S
C387 H379 0.930 . S
C387 C388 1.355 . S
C387 C389 1.415 . S
C388 C387 1.355 . S
C388 C390 1.419 . S
C389 C384 1.425 . S
C389 C386 1.409 . S
C389 C387 1.415 . S
C390 H380 0.930 . S
C390 C388 1.419 . S
C390 C391 1.362 . S
C391 H381 0.930 . S
C391 C384 1.409 . S
C391 C390 1.362 . S
H392 C398 0.930 . S
H393 C401 0.930 . S
H394 C402 0.930 . S
H395 C403 0.930 . S
H396 C406 0.930 . S
H397 C407 0.930 . S
C398 H392 0.930 . S
C398 C399 1.355 . S
C398 C400 1.415 . S
C399 C398 1.355 . S
C399 C401 1.419 . S
C400 C398 1.415 . S
C400 C405 1.425 . S
C400 C407 1.409 . S
C401 H393 0.930 . S
C401 C399 1.419 . S
C401 C402 1.362 . S
C402 H394 0.930 . S
C402 C401 1.362 . S
C402 C405 1.409 . S
C403 H395 0.930 . S
C403 C404 1.355 . S
C403 C405 1.415 . S
C404 C403 1.355 . S
C404 C406 1.419 . S
C405 C400 1.425 . S
C405 C402 1.409 . S
C405 C403 1.415 . S
C406 H396 0.930 . S
C406 C404 1.419 . S
C406 C407 1.362 . S
C407 H397 0.930 . S
C407 C400 1.409 . S
C407 C406 1.362 . S
H408 C414 0.930 . S
H409 C417 0.930 . S
H410 C418 0.930 . S
H411 C419 0.930 . S
H412 C422 0.930 . S
H413 C423 0.930 . S
C414 H408 0.930 . S
C414 C415 1.355 . S
C414 C416 1.415 . S
C415 C414 1.355 . S
C415 C417 1.419 . S
C416 C414 1.415 . S
C416 C421 1.425 . S
C416 C423 1.409 . S
C417 H409 0.930 . S
C417 C415 1.419 . S
C417 C418 1.362 . S
C418 H410 0.930 . S
C418 C417 1.362 . S
C418 C421 1.409 . S
C419 H411 0.930 . S
C419 C420 1.355 . S
C419 C421 1.415 . S
C420 C419 1.355 . S
C420 C422 1.419 . S
C421 C416 1.425 . S
C421 C418 1.409 . S
C421 C419 1.415 . S
C422 H412 0.930 . S
C422 C420 1.419 . S
C422 C423 1.362 . S
C423 H413 0.930 . S
C423 C416 1.409 . S
C423 C422 1.362 . S
H424 C430 0.930 . S
H425 C433 0.930 . S
H426 C434 0.930 . S
H427 C435 0.930 . S
H428 C438 0.930 . S
H429 C439 0.930 . S
C430 H424 0.930 . S
C430 C431 1.355 . S
C430 C432 1.415 . S
C431 C430 1.355 . S
C431 C433 1.419 . S
C432 C430 1.415 . S
C432 C437 1.425 . S
C432 C439 1.409 . S
C433 H425 0.930 . S
C433 C431 1.419 . S
C433 C434 1.362 . S
C434 H426 0.930 . S
C434 C433 1.362 . S
C434 C437 1.409 . S
C435 H427 0.930 . S
C435 C436 1.355 . S
C435 C437 1.415 . S
C436 C435 1.355 . S
C436 C438 1.419 . S
C437 C432 1.425 . S
C437 C434 1.409 . S
C437 C435 1.415 . S
C438 H428 0.930 . S
C438 C436 1.419 . S
C438 C439 1.362 . S
C439 H429 0.930 . S
C439 C432 1.409 . S
C439 C438 1.362 . S
H440 C446 0.930 . S
H441 C449 0.930 . S
H442 C450 0.930 . S
H443 C451 0.930 . S
H444 C454 0.930 . S
H445 C455 0.930 . S
C446 H440 0.930 . S
C446 C447 1.355 . S
C446 C448 1.415 . S
C447 C446 1.355 . S
C447 C449 1.419 . S
C448 C446 1.415 . S
C448 C453 1.425 . S
C448 C455 1.409 . S
C449 H441 0.930 . S
C449 C447 1.419 . S
C449 C450 1.362 . S
C450 H442 0.930 . S
C450 C449 1.362 . S
C450 C453 1.409 . S
C451 H443 0.930 . S
C451 C452 1.355 . S
C451 C453 1.415 . S
C452 C451 1.355 . S
C452 C454 1.419 . S
C453 C448 1.425 . S
C453 C450 1.409 . S
C453 C451 1.415 . S
C454 H444 0.930 . S
C454 C452 1.419 . S
C454 C455 1.362 . S
C455 H445 0.930 . S
C455 C448 1.409 . S
C455 C454 1.362 . S
H456 C462 0.930 . S
H457 C465 0.930 . S
H458 C466 0.930 . S
H459 C467 0.930 . S
H460 C470 0.930 . S
H461 C471 0.930 . S
C462 H456 0.930 . S
C462 C463 1.355 . S
C462 C464 1.415 . S
C463 C462 1.355 . S
C463 C465 1.419 . S
C464 C462 1.415 . S
C464 C469 1.425 . S
C464 C471 1.409 . S
C465 H457 0.930 . S
C465 C463 1.419 . S
C465 C466 1.362 . S
C466 H458 0.930 . S
C466 C465 1.362 . S
C466 C469 1.409 . S
C467 H459 0.930 . S
C467 C468 1.355 . S
C467 C469 1.415 . S
C468 C467 1.355 . S
C468 C470 1.419 . S
C469 C464 1.425 . S
C469 C466 1.409 . S
C469 C467 1.415 . S
C470 H460 0.930 . S
C470 C468 1.419 . S
C470 C471 1.362 . S
C471 H461 0.930 . S
C471 C464 1.409 . S
C471 C470 1.362 . S
H472 C478 0.930 . S
H473 C481 0.930 . S
H474 C482 0.930 . S
H475 C483 0.930 . S
H476 C486 0.930 . S
H477 C487 0.930 . S
C478 H472 0.930 . S
C478 C479 1.355 . S
C478 C480 1.415 . S
C479 C478 1.355 . S
C479 C481 1.419 . S
C480 C478 1.415 . S
C480 C485 1.425 . S
C480 C487 1.409 . S
C481 H473 0.930 . S
C481 C479 1.419 . S
C481 C482 1.362 . S
C482 H474 0.930 . S
C482 C481 1.362 . S
C482 C485 1.409 . S
C483 H475 0.930 . S
C483 C484 1.355 . S
C483 C485 1.415 . S
C484 C483 1.355 . S
C484 C486 1.419 . S
C485 C480 1.425 . S
C485 C482 1.409 . S
C485 C483 1.415 . S
C486 H476 0.930 . S
C486 C484 1.419 . S
C486 C487 1.362 . S
C487 H477 0.930 . S
C487 C480 1.409 . S
C487 C486 1.362 . S
H488 C494 0.930 . S
H489 C497 0.930 . S
H490 C498 0.930 . S
H491 C499 0.930 . S
H492 C502 0.930 . S
H493 C503 0.930 . S
C494 H488 0.930 . S
C494 C495 1.355 . S
C494 C496 1.415 . S
C495 C494 1.355 . S
C495 C497 1.419 . S
C496 C494 1.415 . S
C496 C501 1.425 . S
C496 C503 1.409 . S
C497 H489 0.930 . S
C497 C495 1.419 . S
C497 C498 1.362 . S
C498 H490 0.930 . S
C498 C497 1.362 . S
C498 C501 1.409 . S
C499 H491 0.930 . S
C499 C500 1.355 . S
C499 C501 1.415 . S
C500 C499 1.355 . S
C500 C502 1.419 . S
C501 C496 1.425 . S
C501 C498 1.409 . S
C501 C499 1.415 . S
C502 H492 0.930 . S
C502 C500 1.419 . S
C502 C503 1.362 . S
C503 H493 0.930 . S
C503 C496 1.409 . S
C503 C502 1.362 . S
H504 C510 0.930 . S
H505 C513 0.930 . S
H506 C514 0.930 . S
H507 C515 0.930 . S
H508 C518 0.930 . S
H509 C519 0.930 . S
C510 H504 0.930 . S
C510 C511 1.355 . S
C510 C512 1.415 . S
C511 C510 1.355 . S
C511 C513 1.419 . S
C512 C510 1.415 . S
C512 C517 1.425 . S
C512 C519 1.409 . S
C513 H505 0.930 . S
C513 C511 1.419 . S
C513 C514 1.362 . S
C514 H506 0.930 . S
C514 C513 1.362 . S
C514 C517 1.409 . S
C515 H507 0.930 . S
C515 C516 1.355 . S
C515 C517 1.415 . S
C516 C515 1.355 . S
C516 C518 1.419 . S
C517 C512 1.425 . S
C517 C514 1.409 . S
C517 C515 1.415 . S
C518 H508 0.930 . S
C518 C516 1.419 . S
C518 C519 1.362 . S
C519 H509 0.930 . S
C519 C512 1.409 . S
C519 C518 1.362 . S
H520 C526 0.930 . S
H521 C529 0.930 . S
H522 C530 0.930 . S
H523 C531 0.930 . S
H524 C534 0.930 . S
H525 C535 0.930 . S
C526 H520 0.930 . S
C526 C527 1.355 . S
C526 C528 1.415 . S
C527 C526 1.355 . S
C527 C529 1.419 . S
C528 C526 1.415 . S
C528 C533 1.425 . S
C528 C535 1.409 . S
C529 H521 0.930 . S
C529 C527 1.419 . S
C529 C530 1.362 . S
C530 H522 0.930 . S
C530 C529 1.362 . S
C530 C533 1.409 . S
C531 H523 0.930 . S
C531 C532 1.355 . S
C531 C533 1.415 . S
C532 C531 1.355 . S
C532 C534 1.419 . S
C533 C528 1.425 . S
C533 C530 1.409 . S
C533 C531 1.415 . S
C534 H524 0.930 . S
C534 C532 1.419 . S
C534 C535 1.362 . S
C535 H525 0.930 . S
C535 C528 1.409 . S
C535 C534 1.362 . S
H536 C542 0.930 . S
H537 C545 0.930 . S
H538 C546 0.930 . S
H539 C547 0.930 . S
H540 C550 0.930 . S
H541 C551 0.930 . S
C542 H536 0.930 . S
C542 C543 1.355 . S
C542 C544 1.415 . S
C543 C542 1.355 . S
C543 C545 1.419 . S
C544 C542 1.415 . S
C544 C549 1.425 . S
C544 C551 1.409 . S
C545 H537 0.930 . S
C545 C543 1.419 . S
C545 C546 1.362 . S
C546 H538 0.930 . S
C546 C545 1.362 . S
C546 C549 1.409 . S
C547 H539 0.930 . S
C547 C548 1.355 . S
C547 C549 1.415 . S
C548 C547 1.355 . S
C548 C550 1.419 . S
C549 C544 1.425 . S
C549 C546 1.409 . S
C549 C547 1.415 . S
C550 H540 0.930 . S
C550 C548 1.419 . S
C550 C551 1.362 . S
C551 H541 0.930 . S
C551 C544 1.409 . S
C551 C550 1.362 . S
H552 C558 0.930 . S
H553 C561 0.930 . S
H554 C562 0.930 . S
H555 C563 0.930 . S
H556 C566 0.930 1_455 S
H557 C567 0.930 . S
C558 H552 0.930 . S
C558 C559 1.355 . S
C558 C560 1.415 . S
C559 C558 1.355 . S
C559 C561 1.419 . S
C560 C558 1.415 . S
C560 C565 1.425 . S
C560 C567 1.409 . S
C561 H553 0.930 . S
C561 C559 1.419 . S
C561 C562 1.362 . S
C562 H554 0.930 . S
C562 C561 1.362 . S
C562 C565 1.409 . S
C563 H555 0.930 . S
C563 C564 1.355 . S
C563 C565 1.415 . S
C564 C563 1.355 . S
C564 C566 1.419 . S
C565 C560 1.425 . S
C565 C562 1.409 . S
C565 C563 1.415 . S
C566 H556 0.930 1_655 S
C566 C564 1.419 . S
C566 C567 1.362 . S
C567 H557 0.930 . S
C567 C560 1.409 . S
C567 C566 1.362 . S
H568 C574 0.930 . S
H569 C577 0.930 . S
H570 C578 0.930 . S
H571 C579 0.930 . S
H572 C582 0.930 1_545 S
H573 C583 0.930 . S
C574 H568 0.930 . S
C574 C575 1.355 . S
C574 C576 1.415 . S
C575 C574 1.355 . S
C575 C577 1.419 . S
C576 C574 1.415 . S
C576 C581 1.425 . S
C576 C583 1.409 . S
C577 H569 0.930 . S
C577 C575 1.419 . S
C577 C578 1.362 . S
C578 H570 0.930 . S
C578 C577 1.362 . S
C578 C581 1.409 . S
C579 H571 0.930 . S
C579 C580 1.355 . S
C579 C581 1.415 . S
C580 C579 1.355 . S
C580 C582 1.419 . S
C581 C576 1.425 . S
C581 C578 1.409 . S
C581 C579 1.415 . S
C582 H572 0.930 1_565 S
C582 C580 1.419 . S
C582 C583 1.362 . S
C583 H573 0.930 . S
C583 C576 1.409 . S
C583 C582 1.362 . S
H584 C590 0.930 . S
H585 C593 0.930 . S
H586 C594 0.930 . S
H587 C595 0.930 . S
H588 C598 0.930 . S
H589 C599 0.930 . S
C590 H584 0.930 . S
C590 C591 1.355 . S
C590 C592 1.415 . S
C591 C590 1.355 . S
C591 C593 1.419 . S
C592 C590 1.415 . S
C592 C597 1.425 . S
C592 C599 1.409 . S
C593 H585 0.930 . S
C593 C591 1.419 . S
C593 C594 1.362 . S
C594 H586 0.930 . S
C594 C593 1.362 . S
C594 C597 1.409 . S
C595 H587 0.930 . S
C595 C596 1.355 . S
C595 C597 1.415 . S
C596 C595 1.355 . S
C596 C598 1.419 . S
C597 C592 1.425 . S
C597 C594 1.409 . S
C597 C595 1.415 . S
C598 H588 0.930 . S
C598 C596 1.419 . S
C598 C599 1.362 . S
C599 H589 0.930 . S
C599 C592 1.409 . S
C599 C598 1.362 . S
H600 C606 0.930 . S
H601 C609 0.930 . S
H602 C610 0.930 1_564 S
H603 C611 0.930 . S
H604 C614 0.930 . S
H605 C615 0.930 . S
C606 H600 0.930 . S
C606 C607 1.355 . S
C606 C608 1.415 . S
C607 C606 1.355 . S
C607 C609 1.419 . S
C608 C606 1.415 . S
C608 C613 1.425 . S
C608 C615 1.409 . S
C609 H601 0.930 . S
C609 C607 1.419 . S
C609 C610 1.362 . S
C610 H602 0.930 1_546 S
C610 C609 1.362 . S
C610 C613 1.409 . S
C611 H603 0.930 . S
C611 C612 1.355 . S
C611 C613 1.415 1_564 S
C612 C611 1.355 . S
C612 C614 1.419 1_554 S
C613 C608 1.425 . S
C613 C610 1.409 . S
C613 C611 1.415 1_546 S
C614 H604 0.930 . S
C614 C612 1.419 1_556 S
C614 C615 1.362 1_565 S
C615 H605 0.930 . S
C615 C608 1.409 . S
C615 C614 1.362 1_545 S
H616 C622 0.930 . S
H617 C625 0.930 . S
H618 C626 0.930 . S
H619 C627 0.930 . S
H620 C630 0.930 . S
H621 C631 0.930 . S
C622 H616 0.930 . S
C622 C623 1.355 . S
C622 C624 1.415 . S
C623 C622 1.355 . S
C623 C625 1.419 . S
C624 C622 1.415 . S
C624 C629 1.425 . S
C624 C631 1.409 . S
C625 H617 0.930 . S
C625 C623 1.419 . S
C625 C626 1.362 . S
C626 H618 0.930 . S
C626 C625 1.362 . S
C626 C629 1.409 . S
C627 H619 0.930 . S
C627 C628 1.355 . S
C627 C629 1.415 . S
C628 C627 1.355 . S
C628 C630 1.419 . S
C629 C624 1.425 . S
C629 C626 1.409 . S
C629 C627 1.415 . S
C630 H620 0.930 . S
C630 C628 1.419 . S
C630 C631 1.362 . S
C631 H621 0.930 . S
C631 C624 1.409 . S
C631 C630 1.362 . S
H632 C638 0.930 . S
H633 C641 0.930 . S
H634 C642 0.930 . S
H635 C643 0.930 . S
H636 C646 0.930 . S
H637 C647 0.930 . S
C638 H632 0.930 . S
C638 C639 1.355 1_545 S
C638 C640 1.415 . S
C639 C638 1.355 1_565 S
C639 C641 1.419 . S
C640 C638 1.415 . S
C640 C645 1.425 . S
C640 C647 1.409 . S
C641 H633 0.930 . S
C641 C639 1.419 . S
C641 C642 1.362 1_565 S
C642 H634 0.930 . S
C642 C641 1.362 1_545 S
C642 C645 1.409 . S
C643 H635 0.930 . S
C643 C644 1.355 . S
C643 C645 1.415 . S
C644 C643 1.355 . S
C644 C646 1.419 . S
C645 C640 1.425 . S
C645 C642 1.409 . S
C645 C643 1.415 . S
C646 H636 0.930 . S
C646 C644 1.419 . S
C646 C647 1.362 . S
C647 H637 0.930 . S
C647 C640 1.409 . S
C647 C646 1.362 . S
H648 C654 0.930 . S
H649 C657 0.930 . S
H650 C658 0.930 . S
H651 C659 0.930 . S
H652 C662 0.930 . S
H653 C663 0.930 . S
C654 H648 0.930 . S
C654 C655 1.355 . S
C654 C656 1.415 . S
C655 C654 1.355 . S
C655 C657 1.419 . S
C656 C654 1.415 . S
C656 C661 1.425 . S
C656 C663 1.409 . S
C657 H649 0.930 . S
C657 C655 1.419 . S
C657 C658 1.362 . S
C658 H650 0.930 . S
C658 C657 1.362 . S
C658 C661 1.409 . S
C659 H651 0.930 . S
C659 C660 1.355 . S
C659 C661 1.415 . S
C660 C659 1.355 . S
C660 C662 1.419 . S
C661 C656 1.425 . S
C661 C658 1.409 . S
C661 C659 1.415 . S
C662 H652 0.930 . S
C662 C660 1.419 . S
C662 C663 1.362 . S
C663 H653 0.930 . S
C663 C656 1.409 . S
C663 C662 1.362 . S
H664 C670 0.930 . S
H665 C673 0.930 . S
H666 C674 0.930 . S
H667 C675 0.930 . S
H668 C678 0.930 . S
H669 C679 0.930 1_565 S
C670 H664 0.930 . S
C670 C671 1.355 . S
C670 C672 1.415 1_565 S
C671 C670 1.355 . S
C671 C673 1.419 . S
C672 C670 1.415 1_545 S
C672 C677 1.425 . S
C672 C679 1.409 . S
C673 H665 0.930 . S
C673 C671 1.419 . S
C673 C674 1.362 1_565 S
C674 H666 0.930 . S
C674 C673 1.362 1_545 S
C674 C677 1.409 . S
C675 H667 0.930 . S
C675 C676 1.355 . S
C675 C677 1.415 . S
C676 C675 1.355 . S
C676 C678 1.419 . S
C677 C672 1.425 . S
C677 C674 1.409 . S
C677 C675 1.415 . S
C678 H668 0.930 . S
C678 C676 1.419 . S
C678 C679 1.362 . S
C679 H669 0.930 1_545 S
C679 C672 1.409 . S
C679 C678 1.362 . S
H680 C686 0.930 . S
H681 C689 0.930 . S
H682 C690 0.930 . S
H683 C691 0.930 . S
H684 C694 0.930 . S
H685 C695 0.930 . S
C686 H680 0.930 . S
C686 C687 1.355 . S
C686 C688 1.415 . S
C687 C686 1.355 . S
C687 C689 1.419 . S
C688 C686 1.415 . S
C688 C693 1.425 . S
C688 C695 1.409 . S
C689 H681 0.930 . S
C689 C687 1.419 . S
C689 C690 1.362 . S
C690 H682 0.930 . S
C690 C689 1.362 . S
C690 C693 1.409 . S
C691 H683 0.930 . S
C691 C692 1.355 . S
C691 C693 1.415 . S
C692 C691 1.355 . S
C692 C694 1.419 . S
C693 C688 1.425 . S
C693 C690 1.409 . S
C693 C691 1.415 . S
C694 H684 0.930 . S
C694 C692 1.419 . S
C694 C695 1.362 . S
C695 H685 0.930 . S
C695 C688 1.409 . S
C695 C694 1.362 . S
H696 C702 0.930 . S
H697 C705 0.930 . S
H698 C706 0.930 . S
H699 C707 0.930 . S
H700 C710 0.930 . S
H701 C711 0.930 . S
C702 H696 0.930 . S
C702 C703 1.355 . S
C702 C704 1.415 . S
C703 C702 1.355 . S
C703 C705 1.419 . S
C704 C702 1.415 . S
C704 C709 1.425 . S
C704 C711 1.409 . S
C705 H697 0.930 . S
C705 C703 1.419 . S
C705 C706 1.362 . S
C706 H698 0.930 . S
C706 C705 1.362 . S
C706 C709 1.409 . S
C707 H699 0.930 . S
C707 C708 1.355 . S
C707 C709 1.415 . S
C708 C707 1.355 . S
C708 C710 1.419 . S
C709 C704 1.425 . S
C709 C706 1.409 . S
C709 C707 1.415 . S
C710 H700 0.930 . S
C710 C708 1.419 . S
C710 C711 1.362 . S
C711 H701 0.930 . S
C711 C704 1.409 . S
C711 C710 1.362 . S
H712 C718 0.930 . S
H713 C721 0.930 . S
H714 C722 0.930 . S
H715 C723 0.930 . S
H716 C726 0.930 . S
H717 C727 0.930 . S
C718 H712 0.930 . S
C718 C719 1.355 . S
C718 C720 1.415 . S
C719 C718 1.355 . S
C719 C721 1.419 . S
C720 C718 1.415 . S
C720 C725 1.425 . S
C720 C727 1.409 . S
C721 H713 0.930 . S
C721 C719 1.419 . S
C721 C722 1.362 . S
C722 H714 0.930 . S
C722 C721 1.362 . S
C722 C725 1.409 . S
C723 H715 0.930 . S
C723 C724 1.355 . S
C723 C725 1.415 . S
C724 C723 1.355 . S
C724 C726 1.419 . S
C725 C720 1.425 . S
C725 C722 1.409 . S
C725 C723 1.415 . S
C726 H716 0.930 . S
C726 C724 1.419 . S
C726 C727 1.362 . S
C727 H717 0.930 . S
C727 C720 1.409 . S
C727 C726 1.362 . S
H728 C734 0.930 . S
H729 C737 0.930 . S
H730 C738 0.930 . S
H731 C739 0.930 . S
H732 C742 0.930 . S
H733 C743 0.930 . S
C734 H728 0.930 . S
C734 C735 1.355 . S
C734 C736 1.415 . S
C735 C734 1.355 . S
C735 C737 1.419 . S
C736 C734 1.415 . S
C736 C741 1.425 . S
C736 C743 1.409 . S
C737 H729 0.930 . S
C737 C735 1.419 . S
C737 C738 1.362 . S
C738 H730 0.930 . S
C738 C737 1.362 . S
C738 C741 1.409 . S
C739 H731 0.930 . S
C739 C740 1.355 . S
C739 C741 1.415 . S
C740 C739 1.355 . S
C740 C742 1.419 . S
C741 C736 1.425 . S
C741 C738 1.409 . S
C741 C739 1.415 . S
C742 H732 0.930 . S
C742 C740 1.419 . S
C742 C743 1.362 . S
C743 H733 0.930 . S
C743 C736 1.409 . S
C743 C742 1.362 . S
H744 C750 0.930 . S
H745 C753 0.930 . S
H746 C754 0.930 . S
H747 C755 0.930 . S
H748 C758 0.930 . S
H749 C759 0.930 . S
C750 H744 0.930 . S
C750 C751 1.355 . S
C750 C752 1.415 . S
C751 C750 1.355 . S
C751 C753 1.419 . S
C752 C750 1.415 . S
C752 C757 1.425 . S
C752 C759 1.409 . S
C753 H745 0.930 . S
C753 C751 1.419 . S
C753 C754 1.362 . S
C754 H746 0.930 . S
C754 C753 1.362 . S
C754 C757 1.409 . S
C755 H747 0.930 . S
C755 C756 1.355 . S
C755 C757 1.415 . S
C756 C755 1.355 . S
C756 C758 1.419 . S
C757 C752 1.425 . S
C757 C754 1.409 . S
C757 C755 1.415 . S
C758 H748 0.930 . S
C758 C756 1.419 . S
C758 C759 1.362 . S
C759 H749 0.930 . S
C759 C752 1.409 . S
C759 C758 1.362 . S
H760 C766 0.930 . S
H761 C769 0.930 . S
H762 C770 0.930 . S
H763 C771 0.930 . S
H764 C774 0.930 . S
H765 C775 0.930 . S
C766 H760 0.930 . S
C766 C767 1.355 . S
C766 C768 1.415 . S
C767 C766 1.355 . S
C767 C769 1.419 . S
C768 C766 1.415 . S
C768 C773 1.425 . S
C768 C775 1.409 . S
C769 H761 0.930 . S
C769 C767 1.419 . S
C769 C770 1.362 . S
C770 H762 0.930 . S
C770 C769 1.362 . S
C770 C773 1.409 . S
C771 H763 0.930 . S
C771 C772 1.355 . S
C771 C773 1.415 . S
C772 C771 1.355 . S
C772 C774 1.419 . S
C773 C768 1.425 . S
C773 C770 1.409 . S
C773 C771 1.415 . S
C774 H764 0.930 . S
C774 C772 1.419 . S
C774 C775 1.362 . S
C775 H765 0.930 . S
C775 C768 1.409 . S
C775 C774 1.362 . S
H776 C782 0.930 . S
H777 C785 0.930 . S
H778 C786 0.930 1_655 S
H779 C787 0.930 . S
H780 C790 0.930 1_655 S
H781 C791 0.930 . S
C782 H776 0.930 . S
C782 C783 1.355 . S
C782 C784 1.415 . S
C783 C782 1.355 . S
C783 C785 1.419 . S
C784 C782 1.415 . S
C784 C789 1.425 . S
C784 C791 1.409 . S
C785 H777 0.930 . S
C785 C783 1.419 . S
C785 C786 1.362 . S
C786 H778 0.930 1_455 S
C786 C785 1.362 . S
C786 C789 1.409 . S
C787 H779 0.930 . S
C787 C788 1.355 . S
C787 C789 1.415 1_655 S
C788 C787 1.355 . S
C788 C790 1.419 1_655 S
C789 C784 1.425 . S
C789 C786 1.409 . S
C789 C787 1.415 1_455 S
C790 H780 0.930 1_455 S
C790 C788 1.419 1_455 S
C790 C791 1.362 . S
C791 H781 0.930 . S
C791 C784 1.409 . S
C791 C790 1.362 . S
H792 C798 0.930 . S
H793 C801 0.930 . S
H794 C802 0.930 . S
H795 C803 0.930 . S
H796 C806 0.930 . S
H797 C807 0.930 . S
C798 H792 0.930 . S
C798 C799 1.355 . S
C798 C800 1.415 . S
C799 C798 1.355 . S
C799 C801 1.419 . S
C800 C798 1.415 . S
C800 C805 1.425 . S
C800 C807 1.409 . S
C801 H793 0.930 . S
C801 C799 1.419 . S
C801 C802 1.362 . S
C802 H794 0.930 . S
C802 C801 1.362 . S
C802 C805 1.409 . S
C803 H795 0.930 . S
C803 C804 1.355 . S
C803 C805 1.415 . S
C804 C803 1.355 . S
C804 C806 1.419 . S
C805 C800 1.425 . S
C805 C802 1.409 . S
C805 C803 1.415 . S
C806 H796 0.930 . S
C806 C804 1.419 . S
C806 C807 1.362 . S
C807 H797 0.930 . S
C807 C800 1.409 . S
C807 C806 1.362 . S
H808 C814 0.930 . S
H809 C817 0.930 . S
H810 C818 0.930 . S
H811 C819 0.930 1_655 S
H812 C822 0.930 . S
H813 C823 0.930 . S
C814 H808 0.930 . S
C814 C815 1.355 . S
C814 C816 1.415 . S
C815 C814 1.355 . S
C815 C817 1.419 . S
C816 C814 1.415 . S
C816 C821 1.425 . S
C816 C823 1.409 1_655 S
C817 H809 0.930 . S
C817 C815 1.419 . S
C817 C818 1.362 . S
C818 H810 0.930 . S
C818 C817 1.362 . S
C818 C821 1.409 . S
C819 H811 0.930 1_455 S
C819 C820 1.355 . S
C819 C821 1.415 1_455 S
C820 C819 1.355 . S
C820 C822 1.419 . S
C821 C816 1.425 . S
C821 C818 1.409 . S
C821 C819 1.415 1_655 S
C822 H812 0.930 . S
C822 C820 1.419 . S
C822 C823 1.362 . S
C823 H813 0.930 . S
C823 C816 1.409 1_455 S
C823 C822 1.362 . S
H824 C830 0.930 . S
H825 C833 0.930 . S
H826 C834 0.930 . S
H827 C835 0.930 . S
H828 C838 0.930 . S
H829 C839 0.930 . S
C830 H824 0.930 . S
C830 C831 1.355 . S
C830 C832 1.415 . S
C831 C830 1.355 . S
C831 C833 1.419 . S
C832 C830 1.415 . S
C832 C837 1.425 . S
C832 C839 1.409 . S
C833 H825 0.930 . S
C833 C831 1.419 . S
C833 C834 1.362 . S
C834 H826 0.930 . S
C834 C833 1.362 . S
C834 C837 1.409 . S
C835 H827 0.930 . S
C835 C836 1.355 . S
C835 C837 1.415 . S
C836 C835 1.355 . S
C836 C838 1.419 . S
C837 C832 1.425 . S
C837 C834 1.409 . S
C837 C835 1.415 . S
C838 H828 0.930 . S
C838 C836 1.419 . S
C838 C839 1.362 . S
C839 H829 0.930 . S
C839 C832 1.409 . S
C839 C838 1.362 . S
H840 C846 0.930 . S
H841 C849 0.930 . S
H842 C850 0.930 1_556 S
H843 C851 0.930 . S
H844 C854 0.930 1_455 S
H845 C855 0.957 . S
C846 H840 0.930 . S
C846 C847 1.355 . S
C846 C848 1.415 . S
C847 C846 1.355 . S
C847 C849 1.419 . S
C848 C846 1.415 . S
C848 C853 1.425 1_554 S
C848 C855 1.409 . S
C849 H841 0.930 . S
C849 C847 1.419 . S
C849 C850 1.362 . S
C850 H842 0.930 1_554 S
C850 C849 1.362 . S
C850 C853 1.409 1_554 S
C851 H843 0.930 . S
C851 C852 1.355 . S
C851 C853 1.415 . S
C852 C851 1.355 . S
C852 C854 1.419 . S
C853 C848 1.425 1_556 S
C853 C850 1.409 1_556 S
C853 C851 1.415 . S
C854 H844 0.930 1_655 S
C854 C852 1.419 . S
C854 C855 1.362 1_556 S
C855 H845 0.957 . S
C855 C848 1.409 . S
C855 C854 1.362 1_554 S
H856 C862 0.930 . S
H857 C865 0.930 . S
H858 C866 0.930 . S
H859 C867 0.930 . S
H860 C870 0.930 . S
H861 C871 0.930 . S
C862 H856 0.930 . S
C862 C863 1.355 . S
C862 C864 1.415 . S
C863 C862 1.355 . S
C863 C865 1.419 . S
C864 C862 1.415 . S
C864 C869 1.425 . S
C864 C871 1.409 . S
C865 H857 0.930 . S
C865 C863 1.419 . S
C865 C866 1.362 . S
C866 H858 0.930 . S
C866 C865 1.362 . S
C866 C869 1.409 . S
C867 H859 0.930 . S
C867 C868 1.355 . S
C867 C869 1.415 . S
C868 C867 1.355 . S
C868 C870 1.419 . S
C869 C864 1.425 . S
C869 C866 1.409 . S
C869 C867 1.415 . S
C870 H860 0.930 . S
C870 C868 1.419 . S
C870 C871 1.362 . S
C871 H861 0.930 . S
C871 C864 1.409 . S
C871 C870 1.362 . S
H872 C878 0.930 . S
H873 C881 0.930 . S
H874 C882 0.930 . S
H875 C883 0.930 1_556 S
H876 C886 0.930 . S
H877 C887 0.930 . S
C878 H872 0.930 . S
C878 C879 1.355 . S
C878 C880 1.415 . S
C879 C878 1.355 . S
C879 C881 1.419 . S
C880 C878 1.415 . S
C880 C885 1.425 . S
C880 C887 1.409 . S
C881 H873 0.930 . S
C881 C879 1.419 . S
C881 C882 1.362 . S
C882 H874 0.930 . S
C882 C881 1.362 . S
C882 C885 1.409 . S
C883 H875 0.930 1_554 S
C883 C884 1.355 1_554 S
C883 C885 1.415 . S
C884 C883 1.355 1_556 S
C884 C886 1.419 . S
C885 C880 1.425 . S
C885 C882 1.409 . S
C885 C883 1.415 . S
C886 H876 0.930 . S
C886 C884 1.419 . S
C886 C887 1.362 1_556 S
C887 H877 0.930 . S
C887 C880 1.409 . S
C887 C886 1.362 1_554 S
H888 C894 0.930 . S
H889 C897 0.930 . S
H890 C898 0.930 . S
H891 C899 0.930 . S
H892 C902 0.930 . S
H893 C903 0.930 . S
C894 H888 0.930 . S
C894 C895 1.355 . S
C894 C896 1.415 . S
C895 C894 1.355 . S
C895 C897 1.419 . S
C896 C894 1.415 . S
C896 C901 1.425 . S
C896 C903 1.409 . S
C897 H889 0.930 . S
C897 C895 1.419 . S
C897 C898 1.362 . S
C898 H890 0.930 . S
C898 C897 1.362 . S
C898 C901 1.409 . S
C899 H891 0.930 . S
C899 C900 1.355 . S
C899 C901 1.415 . S
C900 C899 1.355 . S
C900 C902 1.419 . S
C901 C896 1.425 . S
C901 C898 1.409 . S
C901 C899 1.415 . S
C902 H892 0.930 . S
C902 C900 1.419 . S
C902 C903 1.362 . S
C903 H893 0.930 . S
C903 C896 1.409 . S
C903 C902 1.362 . S
H904 C910 0.930 . S
H905 C913 0.930 . S
H906 C914 0.930 . S
H907 C915 0.930 . S
H908 C918 0.930 . S
H909 C919 0.930 . S
C910 H904 0.930 . S
C910 C911 1.355 . S
C910 C912 1.415 . S
C911 C910 1.355 . S
C911 C913 1.419 . S
C912 C910 1.415 . S
C912 C917 1.425 1_556 S
C912 C919 1.409 . S
C913 H905 0.930 . S
C913 C911 1.419 . S
C913 C914 1.362 1_556 S
C914 H906 0.930 . S
C914 C913 1.362 1_554 S
C914 C917 1.409 . S
C915 H907 0.930 . S
C915 C916 1.355 . S
C915 C917 1.415 . S
C916 C915 1.355 . S
C916 C918 1.419 . S
C917 C912 1.425 1_554 S
C917 C914 1.409 . S
C917 C915 1.415 . S
C918 H908 0.930 . S
C918 C916 1.419 . S
C918 C919 1.362 1_554 S
C919 H909 0.930 . S
C919 C912 1.409 . S
C919 C918 1.362 1_556 S
H920 C926 0.930 . S
H921 C929 0.930 . S
H922 C930 0.930 . S
H923 C931 0.930 . S
H924 C934 0.930 . S
H925 C935 0.930 . S
C926 H920 0.930 . S
C926 C927 1.355 . S
C926 C928 1.415 . S
C927 C926 1.355 . S
C927 C929 1.419 . S
C928 C926 1.415 . S
C928 C933 1.425 . S
C928 C935 1.409 . S
C929 H921 0.930 . S
C929 C927 1.419 . S
C929 C930 1.362 . S
C930 H922 0.930 . S
C930 C929 1.362 . S
C930 C933 1.409 . S
C931 H923 0.930 . S
C931 C932 1.355 . S
C931 C933 1.415 . S
C932 C931 1.355 . S
C932 C934 1.419 . S
C933 C928 1.425 . S
C933 C930 1.409 . S
C933 C931 1.415 . S
C934 H924 0.930 . S
C934 C932 1.419 . S
C934 C935 1.362 . S
C935 H925 0.930 . S
C935 C928 1.409 . S
C935 C934 1.362 . S
H936 C942 0.930 . S
H937 C945 0.930 . S
H938 C946 0.930 . S
H939 C947 0.930 . S
H940 C950 0.930 . S
H941 C951 0.930 . S
C942 H936 0.930 . S
C942 C943 1.355 . S
C942 C944 1.415 1_556 S
C943 C942 1.355 . S
C943 C945 1.419 . S
C944 C942 1.415 1_554 S
C944 C949 1.425 . S
C944 C951 1.409 . S
C945 H937 0.930 . S
C945 C943 1.419 . S
C945 C946 1.362 1_556 S
C946 H938 0.930 . S
C946 C945 1.362 1_554 S
C946 C949 1.409 . S
C947 H939 0.930 . S
C947 C948 1.355 . S
C947 C949 1.415 . S
C948 C947 1.355 . S
C948 C950 1.419 . S
C949 C944 1.425 . S
C949 C946 1.409 . S
C949 C947 1.415 . S
C950 H940 0.930 . S
C950 C948 1.419 . S
C950 C951 1.362 . S
C951 H941 0.930 . S
C951 C944 1.409 . S
C951 C950 1.362 . S
H952 C958 0.930 . S
H953 C961 0.930 . S
H954 C962 0.930 . S
H955 C963 0.930 . S
H956 C966 0.930 . S
H957 C967 0.930 . S
C958 H952 0.930 . S
C958 C959 1.355 . S
C958 C960 1.415 . S
C959 C958 1.355 . S
C959 C961 1.419 . S
C960 C958 1.415 . S
C960 C965 1.425 . S
C960 C967 1.409 . S
C961 H953 0.930 . S
C961 C959 1.419 . S
C961 C962 1.362 . S
C962 H954 0.930 . S
C962 C961 1.362 . S
C962 C965 1.409 . S
C963 H955 0.930 . S
C963 C964 1.355 . S
C963 C965 1.415 . S
C964 C963 1.355 . S
C964 C966 1.419 . S
C965 C960 1.425 . S
C965 C962 1.409 . S
C965 C963 1.415 . S
C966 H956 0.930 . S
C966 C964 1.419 . S
C966 C967 1.362 . S
C967 H957 0.930 . S
C967 C960 1.409 . S
C967 C966 1.362 . S
H968 C974 0.930 . S
H969 C977 0.930 . S
H970 C978 0.930 . S
H971 C979 0.930 . S
H972 C982 0.930 . S
H973 C983 0.930 . S
C974 H968 0.930 . S
C974 C975 1.355 . S
C974 C976 1.415 . S
C975 C974 1.355 . S
C975 C977 1.419 . S
C976 C974 1.415 . S
C976 C981 1.425 . S
C976 C983 1.409 . S
C977 H969 0.930 . S
C977 C975 1.419 . S
C977 C978 1.362 . S
C978 H970 0.930 . S
C978 C977 1.362 . S
C978 C981 1.409 . S
C979 H971 0.930 . S
C979 C980 1.355 . S
C979 C981 1.415 . S
C980 C979 1.355 . S
C980 C982 1.419 . S
C981 C976 1.425 . S
C981 C978 1.409 . S
C981 C979 1.415 . S
C982 H972 0.930 . S
C982 C980 1.419 . S
C982 C983 1.362 . S
C983 H973 0.930 . S
C983 C976 1.409 . S
C983 C982 1.362 . S
H984 C990 0.930 . S
H985 C993 0.930 . S
H986 C994 0.930 . S
H987 C995 0.930 . S
H988 C998 0.930 . S
H989 C999 0.930 . S
C990 H984 0.930 . S
C990 C991 1.355 . S
C990 C992 1.415 . S
C991 C990 1.355 . S
C991 C993 1.419 . S
C992 C990 1.415 . S
C992 C997 1.425 . S
C992 C999 1.409 . S
C993 H985 0.930 . S
C993 C991 1.419 . S
C993 C994 1.362 . S
C994 H986 0.930 . S
C994 C993 1.362 . S
C994 C997 1.409 . S
C995 H987 0.930 . S
C995 C996 1.355 . S
C995 C997 1.415 . S
C996 C995 1.355 . S
C996 C998 1.419 . S
C997 C992 1.425 . S
C997 C994 1.409 . S
C997 C995 1.415 . S
C998 H988 0.930 . S
C998 C996 1.419 . S
C998 C999 1.362 . S
C999 H989 0.930 . S
C999 C992 1.409 . S
C999 C998 1.362 . S
H1000 C1006 0.930 . S
H1001 C1009 0.930 . S
H1002 C1010 0.930 . S
H1003 C1011 0.930 . S
H1004 C1014 0.930 . S
H1005 C1015 0.930 . S
C1006 H1000 0.930 . S
C1006 C1007 1.355 . S
C1006 C1008 1.415 . S
C1007 C1006 1.355 . S
C1007 C1009 1.419 . S
C1008 C1006 1.415 . S
C1008 C1013 1.425 . S
C1008 C1015 1.409 . S
C1009 H1001 0.930 . S
C1009 C1007 1.419 . S
C1009 C1010 1.362 . S
C1010 H1002 0.930 . S
C1010 C1009 1.362 . S
C1010 C1013 1.409 . S
C1011 H1003 0.930 . S
C1011 C1012 1.355 . S
C1011 C1013 1.415 . S
C1012 C1011 1.355 . S
C1012 C1014 1.419 . S
C1013 C1008 1.425 . S
C1013 C1010 1.409 . S
C1013 C1011 1.415 . S
C1014 H1004 0.930 . S
C1014 C1012 1.419 . S
C1014 C1015 1.362 . S
C1015 H1005 0.930 . S
C1015 C1008 1.409 . S
C1015 C1014 1.362 . S
H1016 C1022 0.930 . S
H1017 C1025 0.930 . S
H1018 C1026 0.930 . S
H1019 C1027 0.930 . S
H1020 C1030 0.930 1_554 S
H1021 C1031 0.930 1_554 S
C1022 H1016 0.930 . S
C1022 C1023 1.355 . S
C1022 C1024 1.415 . S
C1023 C1022 1.355 . S
C1023 C1025 1.419 . S
C1024 C1022 1.415 . S
C1024 C1029 1.425 . S
C1024 C1031 1.409 . S
C1025 H1017 0.930 . S
C1025 C1023 1.419 . S
C1025 C1026 1.362 . S
C1026 H1018 0.930 . S
C1026 C1025 1.362 . S
C1026 C1029 1.409 . S
C1027 H1019 0.930 . S
C1027 C1028 1.355 . S
C1027 C1029 1.415 . S
C1028 C1027 1.355 . S
C1028 C1030 1.419 . S
C1029 C1024 1.425 . S
C1029 C1026 1.409 . S
C1029 C1027 1.415 . S
C1030 H1020 0.930 1_556 S
C1030 C1028 1.419 . S
C1030 C1031 1.362 . S
C1031 H1021 0.930 1_556 S
C1031 C1024 1.409 . S
C1031 C1030 1.362 . S
H1032 C1038 0.930 . S
H1033 C1041 0.930 . S
H1034 C1042 0.930 . S
H1035 C1043 0.930 . S
H1036 C1046 0.930 . S
H1037 C1047 0.930 . S
C1038 H1032 0.930 . S
C1038 C1039 1.355 . S
C1038 C1040 1.415 . S
C1039 C1038 1.355 . S
C1039 C1041 1.419 . S
C1040 C1038 1.415 . S
C1040 C1045 1.425 . S
C1040 C1047 1.409 . S
C1041 H1033 0.930 . S
C1041 C1039 1.419 . S
C1041 C1042 1.362 . S
C1042 H1034 0.930 . S
C1042 C1041 1.362 . S
C1042 C1045 1.409 . S
C1043 H1035 0.930 . S
C1043 C1044 1.355 . S
C1043 C1045 1.415 . S
C1044 C1043 1.355 . S
C1044 C1046 1.419 . S
C1045 C1040 1.425 . S
C1045 C1042 1.409 . S
C1045 C1043 1.415 . S
C1046 H1036 0.930 . S
C1046 C1044 1.419 . S
C1046 C1047 1.362 . S
C1047 H1037 0.930 . S
C1047 C1040 1.409 . S
C1047 C1046 1.362 . S
H1048 C1054 0.930 . S
H1049 C1057 0.930 . S
H1050 C1058 0.930 . S
H1051 C1059 0.930 . S
H1052 C1062 0.930 . S
H1053 C1063 0.930 . S
C1054 H1048 0.930 . S
C1054 C1055 1.355 . S
C1054 C1056 1.415 . S
C1055 C1054 1.355 . S
C1055 C1057 1.419 . S
C1056 C1054 1.415 . S
C1056 C1061 1.425 . S
C1056 C1063 1.409 . S
C1057 H1049 0.930 . S
C1057 C1055 1.419 . S
C1057 C1058 1.362 . S
C1058 H1050 0.930 . S
C1058 C1057 1.362 . S
C1058 C1061 1.409 . S
C1059 H1051 0.930 . S
C1059 C1060 1.355 . S
C1059 C1061 1.415 . S
C1060 C1059 1.355 . S
C1060 C1062 1.419 . S
C1061 C1056 1.425 . S
C1061 C1058 1.409 . S
C1061 C1059 1.415 . S
C1062 H1052 0.930 . S
C1062 C1060 1.419 . S
C1062 C1063 1.362 . S
C1063 H1053 0.930 . S
C1063 C1056 1.409 . S
C1063 C1062 1.362 . S
H1064 C1070 0.930 . S
H1065 C1073 0.930 . S
H1066 C1074 0.930 . S
H1067 C1075 0.930 1_565 S
H1068 C1078 0.930 . S
H1069 C1079 0.930 . S
C1070 H1064 0.930 . S
C1070 C1071 1.355 . S
C1070 C1072 1.415 . S
C1071 C1070 1.355 . S
C1071 C1073 1.419 . S
C1072 C1070 1.415 . S
C1072 C1077 1.425 . S
C1072 C1079 1.409 . S
C1073 H1065 0.930 . S
C1073 C1071 1.419 . S
C1073 C1074 1.362 . S
C1074 H1066 0.930 . S
C1074 C1073 1.362 . S
C1074 C1077 1.409 . S
C1075 H1067 0.930 1_545 S
C1075 C1076 1.355 . S
C1075 C1077 1.415 . S
C1076 C1075 1.355 . S
C1076 C1078 1.419 . S
C1077 C1072 1.425 . S
C1077 C1074 1.409 . S
C1077 C1075 1.415 . S
C1078 H1068 0.930 . S
C1078 C1076 1.419 . S
C1078 C1079 1.362 . S
C1079 H1069 0.930 . S
C1079 C1072 1.409 . S
C1079 C1078 1.362 . S
C324 C152 1.582 1_556 S
C319 C50 1.568 . S
C340 C167 1.602 . S
C335 C61 1.646 . S
C351 C67 1.638 . S
C356 C180 1.643 . S
C372 C194 1.511 . S
C367 C41 1.529 . S
C388 C206 1.610 . S
C383 C95 1.647 . S
C404 C220 1.289 . S
C399 C113 1.332 . S
C415 C106 1.677 . S
C420 C234 1.652 . S
C436 C249 1.409 . S
C431 C86 1.468 . S
C447 C104 1.597 . S
C452 C265 1.607 . S
C468 C278 1.481 . S
C463 C88 1.468 . S
C479 C94 1.563 . S
C484 C263 1.492 . S
C500 C276 1.432 . S
C495 C112 1.403 . S
C511 C70 1.746 . S
C516 C292 1.717 . S
C527 C40 1.485 . S
C532 C291 1.469 . S
C543 C49 1.669 . S
C548 C290 1.579 . S
C559 C59 1.599 . S
C564 C293 1.575 . S
C575 C34 1.629 . S
C580 C195 1.611 1_565 S
C591 C133 1.487 . S
C596 C193 1.437 . S
C612 C153 1.474 . S
C607 C139 1.503 . S
C628 C164 1.687 . S
C623 C77 1.693 . S
C639 C43 1.568 . S
C644 C209 1.546 . S
C660 C250 1.773 . S
C655 C103 1.790 . S
C676 C207 1.427 . S
C671 C85 1.451 . S
C692 C235 1.440 . S
C687 C115 1.410 . S
C708 C236 1.582 . S
C703 C131 1.570 . S
C719 C142 1.670 . S
C724 C251 1.648 . S
C735 C76 1.640 . S
C740 C208 1.648 . S
C756 C222 1.509 . S
C751 C122 1.535 . S
C767 C32 1.635 . S
C772 C178 1.567 . S
C788 C192 1.311 . S
C783 C5 1.285 . S
C804 C150 1.639 . S
C799 C16 1.671 . S
C820 C165 1.428 . S
C815 C23 1.468 . S
C831 C14 1.598 . S
C836 C279 1.590 . S
C847 C25 1.492 . S
C852 C264 1.459 . S
C863 C31 1.563 . S
C868 C277 1.490 . S
C879 C4 1.412 . S
C884 C262 1.458 . S
C900 C306 1.745 . S
C895 C79 1.740 . S
C916 C305 1.481 . S
C911 C121 1.484 . S
C932 C304 1.641 . S
C927 C130 1.674 . S
C943 C140 1.587 . S
C948 C307 1.555 . S
C959 C97 1.627 . S
C964 C223 1.635 . S
C980 C221 1.483 . S
C975 C52 1.488 . S
C996 C237 1.465 . S
C991 C58 1.503 . S
C1012 C248 1.648 . S
C1007 C68 1.685 . S
C1023 C124 1.549 . S
C1028 C181 1.515 . S
C1044 C166 1.790 . S
C1039 C13 1.784 . S
C1055 C22 1.436 . S
C1060 C179 1.441 . S
C1076 C151 1.420 1_545 S
C1071 C7 1.404 . S
