# Generated by pormake.
# Topology sit, (3,6)-cn, num edge types: 1
# Building blocks:
#     Node 0, Type 0, BuildingBlock: KAKCAD_clean_linker_0, # of connection points: 3
#     Node 1, Type 0, BuildingBlock: KAKCAD_clean_linker_0, # of connection points: 3
#     Node 2, Type 0, BuildingBlock: KAKCAD_clean_linker_0, # of connection points: 3
#     Node 3, Type 0, BuildingBlock: KAKCAD_clean_linker_0, # of connection points: 3
#     Node 4, Type 1, BuildingBlock: MIDCAF_clean_sbu_0, # of connection points: 6
#     Node 5, Type 1, BuildingBlock: MIDCAF_clean_sbu_0, # of connection points: 6
#     Edge 6, Type (0, 1), BuildingBlock: TEMPAE_clean_linker_10, # of connection points: 2
#     Edge 7, Type (0, 1), BuildingBlock: TEMPAE_clean_linker_10, # of connection points: 2
#     Edge 8, Type (0, 1), BuildingBlock: TEMPAE_clean_linker_10, # of connection points: 2
#     Edge 9, Type (0, 1), BuildingBlock: TEMPAE_clean_linker_10, # of connection points: 2
#     Edge 10, Type (0, 1), BuildingBlock: TEMPAE_clean_linker_10, # of connection points: 2
#     Edge 11, Type (0, 1), BuildingBlock: TEMPAE_clean_linker_10, # of connection points: 2
#     Edge 12, Type (0, 1), BuildingBlock: TEMPAE_clean_linker_10, # of connection points: 2
#     Edge 13, Type (0, 1), BuildingBlock: TEMPAE_clean_linker_10, # of connection points: 2
#     Edge 14, Type (0, 1), BuildingBlock: TEMPAE_clean_linker_10, # of connection points: 2
#     Edge 15, Type (0, 1), BuildingBlock: TEMPAE_clean_linker_10, # of connection points: 2
#     Edge 16, Type (0, 1), BuildingBlock: TEMPAE_clean_linker_10, # of connection points: 2
#     Edge 17, Type (0, 1), BuildingBlock: TEMPAE_clean_linker_10, # of connection points: 2
# Relax obj value: 0.110
# Max RMSD: 0.193
# Mean RMSD: 0.106
data_MOF--net-sit--node1-MIDCAF_clean_sbu_0--node2-KAKCAD_clean_linker_0--edge1-TEMPAE_clean_linker_10
_symmetry_space_group_name_H-M    P1
_symmetry_Int_Tables_number       1
_symmetry_cell_setting            triclinic
loop_
_symmetry_equiv_pos_as_xyz
'x, y, z'
_cell_length_a     28.933821
_cell_length_b     39.559122
_cell_length_c     44.005055
_cell_angle_alpha  90.069676
_cell_angle_beta   89.478634
_cell_angle_gamma 83.408905
loop_
_atom_site_label
_atom_site_type_symbol
_atom_site_fract_x
_atom_site_fract_y
_atom_site_fract_z
_atom_type_partial_charge
C0 C 0.25295 0.31327 0.97334 0.0
C1 C 0.25849 0.3473 0.98036 0.0
C2 C 0.21468 0.29846 0.98467 0.0
C3 C 0.18129 0.31756 0.00293 0.0
C4 C 0.1883 0.35075 0.01147 0.0
C5 C 0.22669 0.3654 0.00048 0.0
C6 C 0.13648 0.30479 0.01002 0.0
C7 C 0.13447 0.27399 0.02538 0.0
C8 C 0.09123 0.26255 0.03225 0.0
C9 C 0.05011 0.28239 0.02309 0.0
C10 C 0.05175 0.31329 0.00755 0.0
C11 C 0.09528 0.324 0.00099 0.0
C12 C 0.00845 0.33435 -0.0023 0.0
C13 C 0.96984 0.31899 0.98769 0.0
C14 C 0.00603 0.3701 -0.00283 0.0
C15 C 0.96711 0.38982 0.98553 0.0
C16 C 0.92897 0.37442 0.9748 0.0
C17 C 0.08884 0.23082 0.05014 0.0
C18 C 0.12273 0.20251 0.04647 0.0
C19 C 0.05332 0.22907 0.07193 0.0
C20 C 0.05215 0.20018 0.0899 0.0
C21 C 0.0868 0.17247 0.0869 0.0
C22 C 0.12195 0.17374 0.06488 0.0
C23 C 0.93045 0.33878 0.97675 0.0
H24 H 0.27667 0.2987 0.95777 0.0
H25 H 0.20971 0.27286 0.9777 0.0
H26 H 0.1631 0.36579 0.0258 0.0
H27 H 0.23058 0.39135 0.00693 0.0
H28 H 0.16655 0.25968 0.03281 0.0
H29 H 0.0975 0.34712 0.98813 0.0
H30 H 0.0167 0.27386 0.02825 0.0
H31 H 0.97032 0.29159 0.9875 0.0
H32 H 0.03449 0.38301 0.00541 0.0
H33 H 0.96763 0.4171 0.98427 0.0
H34 H 0.15016 0.20267 0.02959 0.0
H35 H 0.02723 0.25051 0.07601 0.0
H36 H 0.90133 0.32595 0.96948 0.0
H37 H 0.1491 0.15267 0.06218 0.0
H38 H 0.02525 0.2002 0.1072 0.0
C39 C 0.89527 0.67053 0.97035 0.0
C40 C 0.85961 0.66144 0.98945 0.0
C41 C 0.93423 0.68295 0.98253 0.0
C42 C 0.93829 0.68677 0.01407 0.0
C43 C 0.90217 0.67866 0.03327 0.0
C44 C 0.86319 0.66579 0.02104 0.0
C45 C 0.98178 0.69715 0.0265 0.0
C46 C 0.98143 0.72532 0.04596 0.0
C47 C 0.02356 0.73662 0.05535 0.0
C48 C 0.06595 0.71886 0.04522 0.0
C49 C 0.0664 0.68995 0.02672 0.0
C50 C 0.02427 0.67935 0.01745 0.0
C51 C 0.11054 0.67138 0.01561 0.0
C52 C 0.14338 0.68875 0.00035 0.0
C53 C 0.11818 0.63579 0.01793 0.0
C54 C 0.15726 0.61772 0.00434 0.0
C55 C 0.18919 0.63488 0.98779 0.0
C56 C 0.02358 0.76697 0.07543 0.0
C57 C -0.01015 0.79536 0.0723 0.0
C58 C 0.0577 0.76782 0.09792 0.0
C59 C 0.05827 0.79628 0.11661 0.0
C60 C 0.02441 0.82443 0.1136 0.0
C61 C -0.00993 0.8237 0.09135 0.0
C62 C 0.18219 0.67067 0.98641 0.0
H63 H 0.89362 0.66717 0.94596 0.0
H64 H 0.96163 0.68919 0.96729 0.0
H65 H 0.90477 0.68128 0.05768 0.0
H66 H 0.83598 0.65914 0.03621 0.0
H67 H 0.94838 0.73859 0.05335 0.0
H68 H 0.02454 0.6575 0.00249 0.0
H69 H 0.09875 0.72751 0.05155 0.0
H70 H 0.13791 0.71617 -0.00203 0.0
H71 H 0.09342 0.6219 0.02985 0.0
H72 H 0.16204 0.59027 0.00639 0.0
H73 H 0.96351 0.79591 0.05493 0.0
H74 H 0.08363 0.74624 0.1015 0.0
H75 H 0.20563 0.68472 0.97349 0.0
H76 H 0.96364 0.84516 0.08855 0.0
H77 H 0.0846 0.79592 0.134 0.0
C78 C 0.75269 0.82934 0.48438 0.0
C79 C 0.74768 0.86509 0.48543 0.0
C80 C 0.71621 0.81137 0.49385 0.0
C81 C 0.67423 0.82889 0.50463 0.0
C82 C 0.67072 0.8645 0.50769 0.0
C83 C 0.70694 0.88241 0.49803 0.0
C84 C 0.63259 0.81078 0.50957 0.0
C85 C 0.63556 0.77907 0.52428 0.0
C86 C 0.59588 0.7617 0.52772 0.0
C87 C 0.55323 0.77659 0.51589 0.0
C88 C 0.54961 0.80858 0.50183 0.0
C89 C 0.58947 0.82522 0.49851 0.0
C90 C 0.50421 0.82498 0.49078 0.0
C91 C 0.47426 0.80619 0.47456 0.0
C92 C 0.49086 0.85981 0.49611 0.0
C93 C 0.44865 0.87561 0.48518 0.0
C94 C 0.41887 0.8569 0.46872 0.0
C95 C 0.59819 0.72889 0.54473 0.0
C96 C 0.63856 0.70524 0.54406 0.0
C97 C 0.56006 0.72138 0.5626 0.0
C98 C 0.56227 0.69141 0.57941 0.0
C99 C 0.60294 0.66844 0.5794 0.0
C100 C 0.64109 0.67551 0.56154 0.0
C101 C 0.43206 0.822 0.46361 0.0
H102 H 0.78375 0.81541 0.47464 0.0
H103 H 0.71989 0.78398 0.49109 0.0
H104 H 0.63921 0.87866 0.51658 0.0
H105 H 0.70256 0.90994 0.49955 0.0
H106 H 0.66852 0.76853 0.53373 0.0
H107 H 0.58706 0.84924 0.48647 0.0
H108 H 0.52242 0.76356 0.51791 0.0
H109 H 0.48388 0.77944 0.46976 0.0
H110 H 0.51293 0.87483 0.50896 0.0
H111 H 0.43915 0.90241 0.48985 0.0
H112 H 0.66837 0.70975 0.53025 0.0
H113 H 0.52883 0.73915 0.56457 0.0
H114 H 0.41016 0.80701 0.45058 0.0
H115 H 0.67296 0.65821 0.56138 0.0
H116 H 0.53279 0.68696 0.59363 0.0
C117 C 0.36869 0.17157 0.47904 0.0
C118 C 0.36155 0.1417 0.495 0.0
C119 C 0.40022 0.19301 0.48956 0.0
C120 C 0.42535 0.18492 0.51609 0.0
C121 C 0.4174 0.15587 0.53268 0.0
C122 C 0.38549 0.13457 0.52236 0.0
C123 C 0.46528 0.20321 0.52347 0.0
C124 C 0.45972 0.23452 0.53887 0.0
C125 C 0.49898 0.2508 0.54592 0.0
C126 C 0.54338 0.23609 0.53667 0.0
C127 C 0.54898 0.20517 0.52069 0.0
C128 C 0.50972 0.18876 0.51445 0.0
C129 C 0.59545 0.19031 0.50972 0.0
C130 C 0.62527 0.2109 0.49513 0.0
C131 C 0.60934 0.15521 0.51237 0.0
C132 C 0.65174 0.14085 0.50002 0.0
C133 C 0.6809 0.1613 0.48465 0.0
C134 C 0.49478 0.28201 0.56462 0.0
C135 C 0.47118 0.31271 0.55405 0.0
C136 C 0.51698 0.28134 0.59282 0.0
C137 C 0.51579 0.31085 0.61023 0.0
C138 C 0.49297 0.34177 0.59961 0.0
C139 C 0.47073 0.3426 0.57132 0.0
C140 C 0.66753 0.19651 0.48266 0.0
H141 H 0.35157 0.17764 0.45763 0.0
H142 H 0.40678 0.21495 0.47615 0.0
H143 H 0.43709 0.14907 0.55303 0.0
H144 H 0.38034 0.11214 0.53548 0.0
H145 H 0.42535 0.24559 0.54608 0.0
H146 H 0.51346 0.16498 0.50188 0.0
H147 H 0.57365 0.24865 0.5422 0.0
H148 H 0.61532 0.23798 0.49257 0.0
H149 H 0.5872 0.1388 0.52377 0.0
H150 H 0.66111 0.11362 0.50178 0.0
H151 H 0.45416 0.3137 0.53219 0.0
H152 H 0.5355 0.25794 0.60129 0.0
H153 H 0.68965 0.21293 0.47125 0.0
H154 H 0.453 0.36621 0.56273 0.0
H155 H 0.53359 0.30967 0.63183 0.0
Zn156 Zn 0.06664 0.08113 0.35141 0.0
Zn157 Zn 0.0389 0.91433 0.33919 0.0
Zn158 Zn 0.05168 0.01876 0.34396 0.0
C159 C 0.03972 0.97598 0.29395 0.0
C160 C 0.98264 0.9801 0.36584 0.0
O161 O 0.11614 0.01259 0.36899 0.0
O162 O 0.12524 0.06714 0.37363 0.0
C163 C 0.06602 0.06965 0.28851 0.0
O164 O 0.04489 0.00744 0.29572 0.0
O165 O 0.03828 0.96075 0.31914 0.0
O166 O 0.01198 0.96247 0.34921 0.0
O167 O 0.98731 0.01164 0.36715 0.0
O168 O 0.0703 0.09296 0.3076 0.0
O169 O 0.0585 0.03985 0.29769 0.0
O170 O -0.0076 0.04531 0.37016 0.0
O171 O 0.0097 0.09797 0.37538 0.0
C172 C 0.9822 0.07591 0.38017 0.0
O173 O 0.10398 0.97623 0.36246 0.0
O174 O 0.10077 0.91867 0.35991 0.0
C175 C 0.13923 0.03621 0.37855 0.0
C176 C 0.12063 0.94474 0.36772 0.0
Zn177 Zn 0.53207 0.57705 0.83522 0.0
Zn178 Zn 0.58478 0.44753 0.83005 0.0
Zn179 Zn 0.55805 0.51341 0.83432 0.0
C180 C 0.57499 0.46954 0.77117 0.0
C181 C 0.49881 0.4557 0.8604 0.0
O182 O 0.60941 0.53715 0.86137 0.0
O183 O 0.57297 0.58884 0.86868 0.0
C184 C 0.55745 0.56364 0.77606 0.0
O185 O 0.56202 0.49757 0.78552 0.0
O186 O 0.5902 0.44314 0.78565 0.0
O187 O 0.52845 0.43282 0.84966 0.0
O188 O 0.50398 0.48741 0.85716 0.0
O189 O 0.54826 0.58894 0.79344 0.0
O190 O 0.55971 0.53325 0.78697 0.0
O191 O 0.48855 0.52277 0.85707 0.0
O192 O 0.46583 0.57619 0.84473 0.0
C193 C 0.45721 0.54873 0.85687 0.0
O194 O 0.62399 0.50208 0.85964 0.0
O195 O 0.64133 0.4463 0.85477 0.0
C196 C 0.60681 0.56667 0.87412 0.0
C197 C 0.65059 0.47443 0.86517 0.0
C198 C 0.12877 0.13584 0.12621 0.0
C199 C 0.08845 0.14435 0.10918 0.0
C200 C 0.12759 0.11608 0.15259 0.0
C201 C 0.08514 0.10447 0.16187 0.0
C202 C 0.0459 0.10964 0.14275 0.0
C203 C 0.04789 0.12984 0.11671 0.0
C204 C 0.17029 0.1111 0.17225 0.0
C205 C 0.00037 0.09692 0.15142 0.0
C206 C 0.08322 0.05198 0.23434 0.0
C207 C 0.06929 0.07745 0.2558 0.0
C208 C 0.08781 0.06003 0.2034 0.0
C209 C 0.07891 0.09437 0.19402 0.0
C210 C 0.06467 0.12007 0.21568 0.0
C211 C 0.05999 0.11127 0.24621 0.0
C212 C 0.103 0.03199 0.18095 0.0
C213 C 0.05485 0.15708 0.20673 0.0
H214 H 0.16019 0.14704 0.12043 0.0
H215 H 0.01688 0.13598 0.10322 0.0
H216 H 0.16591 0.12929 0.19158 0.0
H217 H 0.17515 0.08505 0.18185 0.0
H218 H 0.20223 0.11564 0.15941 0.0
H219 H 0.9767 0.09681 0.13169 0.0
H220 H 0.00625 0.07083 0.16092 0.0
H221 H 0.98275 0.11376 0.16923 0.0
H222 H 0.09165 0.02595 0.24182 0.0
H223 H 0.04912 0.13105 0.2627 0.0
H224 H 0.13796 0.03538 0.17172 0.0
H225 H 0.07881 0.03317 0.16146 0.0
H226 H 0.10457 0.00635 0.19145 0.0
H227 H 0.08635 0.16585 0.19619 0.0
H228 H 0.04413 0.17385 0.22643 0.0
H229 H 0.02678 0.16021 0.18961 0.0
C230 C 0.06522 0.86783 0.1407 0.0
C231 C 0.02402 0.8536 0.13477 0.0
C232 C 0.06689 0.89223 0.1637 0.0
C233 C 0.02657 0.90215 0.18147 0.0
C234 C 0.98419 0.88935 0.17437 0.0
C235 C 0.98338 0.86531 0.15095 0.0
C236 C 0.1125 0.90577 0.17021 0.0
C237 C 0.94053 0.89911 0.1929 0.0
C238 C 0.04609 0.9222 0.26418 0.0
C239 C 0.03731 0.95775 0.26482 0.0
C240 C 0.0427 0.90398 0.23717 0.0
C241 C 0.03039 0.92176 0.20999 0.0
C242 C 0.02167 0.95773 0.21038 0.0
C243 C 0.02498 0.97533 0.23791 0.0
C244 C 0.05211 0.86561 0.2378 0.0
C245 C 0.00853 0.97753 0.18184 0.0
H246 H 0.09652 0.85912 0.12788 0.0
H247 H 0.95154 0.85423 0.14646 0.0
H248 H 0.10723 0.93382 0.17306 0.0
H249 H 0.12684 0.89476 0.1918 0.0
H250 H 0.13864 0.89929 0.15184 0.0
H251 H 0.90932 0.89054 0.18209 0.0
H252 H 0.94454 0.88732 0.21574 0.0
H253 H 0.93458 0.92707 0.19621 0.0
H254 H 0.05578 0.90848 0.28488 0.0
H255 H 0.01703 0.00276 0.23849 0.0
H256 H 0.08144 0.85693 0.2222 0.0
H257 H 0.02115 0.85419 0.22973 0.0
H258 H 0.06083 0.8557 0.26091 0.0
H259 H 0.03607 0.9719 0.16425 0.0
H260 H 0.00339 0.00543 0.18594 0.0
H261 H 0.97598 0.9696 0.17247 0.0
C262 C 0.57166 0.61783 0.60229 0.0
C263 C 0.60654 0.63964 0.60098 0.0
C264 C 0.56781 0.59644 0.6274 0.0
C265 C 0.59862 0.59793 0.65203 0.0
C266 C 0.6368 0.61721 0.64925 0.0
C267 C 0.64048 0.63772 0.62356 0.0
C268 C 0.52802 0.57493 0.6289 0.0
C269 C 0.67058 0.61941 0.67492 0.0
C270 C 0.54556 0.60084 0.73085 0.0
C271 C 0.56512 0.57 0.7434 0.0
C272 C 0.55541 0.60962 0.70093 0.0
C273 C 0.58485 0.58662 0.68267 0.0
C274 C 0.60293 0.55464 0.69465 0.0
C275 C 0.59382 0.54709 0.72521 0.0
C276 C 0.5355 0.64415 0.68927 0.0
C277 C 0.63309 0.52888 0.67571 0.0
H278 H 0.54576 0.61899 0.58454 0.0
H279 H 0.66747 0.65459 0.62253 0.0
H280 H 0.53896 0.55009 0.63988 0.0
H281 H 0.49927 0.58824 0.64276 0.0
H282 H 0.51439 0.57029 0.60593 0.0
H283 H 0.70182 0.63128 0.66759 0.0
H284 H 0.65307 0.63498 0.69362 0.0
H285 H 0.68193 0.59378 0.68417 0.0
H286 H 0.52321 0.61864 0.74476 0.0
H287 H 0.61046 0.52383 0.73505 0.0
H288 H 0.51431 0.64119 0.66877 0.0
H289 H 0.56414 0.65912 0.68262 0.0
H290 H 0.51326 0.65898 0.70647 0.0
H291 H 0.62089 0.52874 0.65188 0.0
H292 H 0.63354 0.50281 0.68517 0.0
H293 H 0.66929 0.53553 0.67539 0.0
C294 C 0.48018 0.372 0.64891 0.0
C295 C 0.49385 0.37274 0.61838 0.0
C296 C 0.49047 0.39727 0.6692 0.0
C297 C 0.51535 0.42389 0.65868 0.0
C298 C 0.52506 0.42664 0.62723 0.0
C299 C 0.51425 0.40084 0.60733 0.0
C300 C 0.47851 0.39359 0.70244 0.0
C301 C 0.55029 0.45508 0.61491 0.0
C302 C 0.52792 0.48324 0.72443 0.0
C303 C 0.56735 0.4661 0.73824 0.0
C304 C 0.51316 0.47259 0.69597 0.0
C305 C 0.53818 0.44403 0.68154 0.0
C306 C 0.58126 0.4298 0.69363 0.0
C307 C 0.59523 0.44098 0.7219 0.0
C308 C 0.46837 0.48964 0.68305 0.0
C309 C 0.60997 0.40001 0.67856 0.0
H310 H 0.46379 0.35046 0.65727 0.0
H311 H 0.52467 0.40147 0.58363 0.0
H312 H 0.51091 0.38673 0.71547 0.0
H313 H 0.46139 0.41801 0.71169 0.0
H314 H 0.4551 0.3736 0.70633 0.0
H315 H 0.54177 0.4601 0.59064 0.0
H316 H 0.54167 0.47894 0.6281 0.0
H317 H 0.58836 0.44768 0.61641 0.0
H318 H 0.50656 0.50303 0.73685 0.0
H319 H 0.62635 0.42826 0.73228 0.0
H320 H 0.43924 0.47545 0.69029 0.0
H321 H 0.46954 0.48977 0.65784 0.0
H322 H 0.46089 0.51625 0.69138 0.0
H323 H 0.59208 0.37682 0.68132 0.0
H324 H 0.64521 0.395 0.68856 0.0
H325 H 0.61376 0.40461 0.65387 0.0
C326 C 0.33942 0.34831 0.95933 0.0
C327 C 0.29461 0.3649 0.9647 0.0
C328 C 0.37259 0.36432 0.94291 0.0
C329 C 0.36061 0.39772 0.93174 0.0
C330 C 0.31579 0.41478 0.93758 0.0
C331 C 0.28328 0.39812 0.9538 0.0
C332 C 0.42012 0.34531 0.93705 0.0
C333 C 0.30162 0.45028 0.92596 0.0
C334 C 0.45809 0.44961 0.9095 0.0
C335 C 0.45982 0.44502 0.87798 0.0
C336 C 0.42567 0.43453 0.92735 0.0
C337 C 0.39445 0.41452 0.91316 0.0
C338 C 0.39564 0.41041 0.88118 0.0
C339 C 0.42874 0.42548 0.86398 0.0
C340 C 0.42568 0.43908 0.96141 0.0
C341 C 0.36285 0.38931 0.86525 0.0
H342 H 0.34851 0.32275 0.96789 0.0
H343 H 0.24842 0.41088 0.9572 0.0
H344 H 0.4259 0.34175 0.91224 0.0
H345 H 0.44751 0.3603 0.94549 0.0
H346 H 0.42441 0.31993 0.94812 0.0
H347 H 0.268 0.46159 0.93598 0.0
H348 H 0.32866 0.4671 0.93112 0.0
H349 H 0.29805 0.44959 0.90089 0.0
H350 H 0.48338 0.46382 0.92027 0.0
H351 H 0.43104 0.42145 0.8396 0.0
H352 H 0.43316 0.41398 0.97263 0.0
H353 H 0.39077 0.45031 0.9694 0.0
H354 H 0.45194 0.45567 0.96888 0.0
H355 H 0.36852 0.36265 0.87342 0.0
H356 H 0.36763 0.38932 0.84017 0.0
H357 H 0.32627 0.39916 0.87072 0.0
C358 C 0.79757 0.66181 0.95048 0.0
C359 C 0.81965 0.64667 0.97607 0.0
C360 C 0.76233 0.64678 0.93582 0.0
C361 C 0.74898 0.61574 0.94696 0.0
C362 C 0.7706 0.60055 0.9731 0.0
C363 C 0.80553 0.61638 0.98753 0.0
C364 C 0.73999 0.66382 0.90804 0.0
C365 C 0.75693 0.56766 0.9858 0.0
C366 C 0.63095 0.59665 0.9199 0.0
C367 C 0.64318 0.57545 0.89488 0.0
C368 C 0.66515 0.60851 0.93813 0.0
C369 C 0.71262 0.59932 0.93079 0.0
C370 C 0.72512 0.57696 0.90613 0.0
C371 C 0.69009 0.56519 0.88848 0.0
C372 C 0.65047 0.63209 0.96435 0.0
C373 C 0.77542 0.56656 0.89771 0.0
H374 H 0.80817 0.6854 0.94179 0.0
H375 H 0.8228 0.60453 0.00722 0.0
H376 H 0.74593 0.64661 0.88811 0.0
H377 H 0.70182 0.66905 0.91157 0.0
H378 H 0.75392 0.68816 0.90261 0.0
H379 H 0.7825 0.55606 0.00255 0.0
H380 H 0.72254 0.57266 -0.0027 0.0
H381 H 0.75344 0.549 0.96736 0.0
H382 H 0.59451 0.6045 0.92487 0.0
H383 H 0.69935 0.54952 0.86868 0.0
H384 H 0.66056 0.65778 0.95951 0.0
H385 H 0.66857 0.62285 0.98539 0.0
H386 H 0.61233 0.63442 0.96859 0.0
H387 H 0.79355 0.58941 0.89371 0.0
H388 H 0.77917 0.55044 0.87698 0.0
H389 H 0.79321 0.55227 0.91678 0.0
C390 C 0.87332 0.42825 0.97105 0.0
C391 C 0.88861 0.3952 0.96061 0.0
C392 C 0.83571 0.44798 0.95736 0.0
C393 C 0.81203 0.434 0.93326 0.0
C394 C 0.82718 0.40073 0.92264 0.0
C395 C 0.86564 0.38204 0.93608 0.0
C396 C 0.82114 0.48363 0.96877 0.0
C397 C 0.80241 0.3846 0.89726 0.0
C398 C 0.68597 0.45912 0.9145 0.0
C399 C 0.68994 0.47389 0.8859 0.0
C400 C 0.72557 0.44854 0.93159 0.0
C401 C 0.77005 0.45307 0.91967 0.0
C402 C 0.77381 0.47074 0.89192 0.0
C403 C 0.73353 0.48054 0.87505 0.0
C404 C 0.71995 0.42925 0.96073 0.0
C405 C 0.82063 0.47672 0.87893 0.0
H406 H 0.89034 0.43865 0.99017 0.0
H407 H 0.87781 0.35705 0.92713 0.0
H408 H 0.82167 0.50195 0.94974 0.0
H409 H 0.78495 0.48569 0.97767 0.0
H410 H 0.84415 0.49123 0.98703 0.0
H411 H 0.81803 0.3582 0.89217 0.0
H412 H 0.76525 0.38398 0.90346 0.0
H413 H 0.80354 0.39995 0.87625 0.0
H414 H 0.65208 0.45352 0.92246 0.0
H415 H 0.7364 0.49143 0.85261 0.0
H416 H 0.74214 0.43801 0.97886 0.0
H417 H 0.73122 0.4018 0.95682 0.0
H418 H 0.68328 0.43204 0.96893 0.0
H419 H 0.84111 0.48869 0.8963 0.0
H420 H 0.81741 0.49322 0.85848 0.0
H421 H 0.84055 0.45206 0.87253 0.0
C422 C 0.27143 0.62801 0.96828 0.0
C423 C 0.2281 0.61555 0.97058 0.0
C424 C 0.30693 0.61186 0.94971 0.0
C425 C 0.29935 0.58201 0.93355 0.0
C426 C 0.25634 0.56853 0.93667 0.0
C427 C 0.22114 0.58561 0.95495 0.0
C428 C 0.35183 0.62767 0.94634 0.0
C429 C 0.24585 0.5372 0.91968 0.0
C430 C 0.37351 0.569 0.86257 0.0
C431 C 0.4129 0.54902 0.87359 0.0
C432 C 0.33474 0.57805 0.88135 0.0
C433 C 0.33552 0.56678 0.91184 0.0
C434 C 0.37352 0.54417 0.92228 0.0
C435 C 0.41207 0.53564 0.90299 0.0
C436 C 0.29459 0.60183 0.86925 0.0
C437 C 0.37469 0.53097 0.95443 0.0
H438 H 0.2774 0.6508 0.98064 0.0
H439 H 0.18753 0.57604 0.95604 0.0
H440 H 0.38184 0.60903 0.95251 0.0
H441 H 0.3568 0.63492 0.92227 0.0
H442 H 0.35236 0.6507 0.96075 0.0
H443 H 0.22517 0.52149 0.93424 0.0
H444 H 0.22434 0.5451 0.8996 0.0
H445 H 0.27766 0.52129 0.9117 0.0
H446 H 0.37423 0.57931 0.83977 0.0
H447 H 0.44296 0.52101 0.91175 0.0
H448 H 0.29194 0.62634 0.88182 0.0
H449 H 0.26145 0.59077 0.87288 0.0
H450 H 0.29853 0.60709 0.84462 0.0
H451 H 0.37505 0.55239 0.97068 0.0
H452 H 0.40579 0.51249 0.95861 0.0
H453 H 0.34283 0.51868 0.95932 0.0
C454 C 0.76844 0.91001 0.44982 0.0
C455 C 0.78275 0.88439 0.47083 0.0
C456 C 0.801 0.92695 0.43387 0.0
C457 C 0.849 0.91837 0.43938 0.0
C458 C 0.86362 0.8933 0.46132 0.0
C459 C 0.83026 0.87631 0.47659 0.0
C460 C 0.78407 0.95321 0.41038 0.0
C461 C 0.9145 0.88397 0.46819 0.0
C462 C 0.93375 0.93352 0.37595 0.0
C463 C 0.94855 0.96452 0.38473 0.0
C464 C 0.9013 0.91827 0.39357 0.0
C465 C 0.88389 0.93419 0.42086 0.0
C466 C 0.8992 0.96535 0.43 0.0
C467 C 0.93135 0.98019 0.41175 0.0
C468 C 0.8852 0.88534 0.38278 0.0
C469 C 0.8818 0.98292 0.45908 0.0
H470 H 0.73171 0.91598 0.44508 0.0
H471 H 0.84128 0.85665 0.49298 0.0
H472 H 0.79675 0.97791 0.41578 0.0
H473 H 0.79834 0.94516 0.38768 0.0
H474 H 0.7455 0.95716 0.40905 0.0
H475 H 0.91988 0.86582 0.48743 0.0
H476 H 0.93274 0.87222 0.44784 0.0
H477 H 0.93097 0.90717 0.47376 0.0
H478 H 0.94708 0.92142 0.35503 0.0
H479 H 0.94366 0.00377 0.4189 0.0
H480 H 0.8469 0.88871 0.37978 0.0
H481 H 0.89319 0.86519 0.40007 0.0
H482 H 0.90187 0.87643 0.36091 0.0
H483 H 0.84363 0.98993 0.458 0.0
H484 H 0.89852 0.00635 0.46345 0.0
H485 H 0.88859 0.96538 0.4786 0.0
C486 C 0.29039 0.12958 0.46686 0.0
C487 C 0.33115 0.1174 0.48219 0.0
C488 C 0.26359 0.1073 0.45217 0.0
C489 C 0.27719 0.07171 0.45331 0.0
C490 C 0.31707 0.05906 0.46996 0.0
C491 C 0.3439 0.08208 0.48386 0.0
C492 C 0.22112 0.12205 0.43482 0.0
C493 C 0.33276 0.02148 0.47234 0.0
C494 C 0.17301 0.03046 0.42949 0.0
C495 C 0.18 0.02928 0.39798 0.0
C496 C 0.20779 0.03961 0.44883 0.0
C497 C 0.24967 0.04869 0.43607 0.0
C498 C 0.25909 0.04299 0.40473 0.0
C499 C 0.22382 0.03349 0.38592 0.0
C500 C 0.19752 0.04355 0.48238 0.0
C501 C 0.30408 0.05107 0.39045 0.0
H502 H 0.27961 0.15671 0.46604 0.0
H503 H 0.37565 0.0723 0.49531 0.0
H504 H 0.22467 0.11433 0.41058 0.0
H505 H 0.18961 0.11203 0.44407 0.0
H506 H 0.21564 0.15028 0.43596 0.0
H507 H 0.352 0.01548 0.49376 0.0
H508 H 0.30314 0.00607 0.4714 0.0
H509 H 0.3568 0.01376 0.45317 0.0
H510 H 0.13883 0.0275 0.43874 0.0
H511 H 0.22891 0.03289 0.36147 0.0
H512 H 0.18842 0.07091 0.48788 0.0
H513 H 0.22863 0.0341 0.49581 0.0
H514 H 0.16798 0.02962 0.48946 0.0
H515 H 0.30387 0.07911 0.38899 0.0
H516 H 0.30911 0.04021 0.3672 0.0
H517 H 0.33406 0.04105 0.40462 0.0
C518 C 0.37277 0.90558 0.44223 0.0
C519 C 0.37447 0.87373 0.45647 0.0
C520 C 0.33162 0.92068 0.42888 0.0
C521 C 0.29139 0.90349 0.42985 0.0
C522 C 0.2925 0.87187 0.445 0.0
C523 C 0.33403 0.8574 0.45816 0.0
C524 C 0.33159 0.95437 0.41277 0.0
C525 C 0.25022 0.85277 0.44647 0.0
C526 C 0.17141 0.94824 0.41257 0.0
C527 C 0.16573 0.93777 0.38264 0.0
C528 C 0.21292 0.93825 0.42807 0.0
C529 C 0.24904 0.91716 0.41314 0.0
C530 C 0.24357 0.90717 0.3826 0.0
C531 C 0.20175 0.91749 0.36776 0.0
C532 C 0.21759 0.94928 0.46063 0.0
C533 C 0.28114 0.8845 0.36596 0.0
H534 H 0.40403 0.91821 0.44064 0.0
H535 H 0.33495 0.83309 0.46961 0.0
H536 H 0.32602 0.95093 0.38811 0.0
H537 H 0.30246 0.97267 0.4213 0.0
H538 H 0.36476 0.96554 0.41576 0.0
H539 H 0.25615 0.8294 0.46054 0.0
H540 H 0.22003 0.86933 0.45602 0.0
H541 H 0.24078 0.84538 0.4232 0.0
H542 H 0.14276 0.9632 0.42413 0.0
H543 H 0.19676 0.90917 0.34464 0.0
H544 H 0.24783 0.96396 0.46267 0.0
H545 H 0.22425 0.92668 0.47553 0.0
H546 H 0.18598 0.96521 0.46909 0.0
H547 H 0.31463 0.89557 0.36687 0.0
H548 H 0.27237 0.88065 0.34177 0.0
H549 H 0.28648 0.85927 0.3772 0.0
C550 C 0.73551 0.15539 0.44027 0.0
C551 C 0.72451 0.1459 0.4699 0.0
C552 C 0.77697 0.14168 0.42606 0.0
C553 C 0.80828 0.11804 0.44195 0.0
C554 C 0.79701 0.10783 0.47166 0.0
C555 C 0.7551 0.12185 0.48529 0.0
C556 C 0.78762 0.15294 0.39421 0.0
C557 C 0.82964 0.08268 0.48924 0.0
C558 C 0.90059 0.06654 0.39399 0.0
C559 C 0.93836 0.08548 0.39713 0.0
C560 C 0.85844 0.07604 0.40937 0.0
C561 C 0.85383 0.10552 0.42789 0.0
C562 C 0.89206 0.12446 0.4315 0.0
C563 C 0.93385 0.11423 0.41603 0.0
C564 C 0.8185 0.05511 0.40507 0.0
C565 C 0.88849 0.15599 0.45118 0.0
H566 H 0.71149 0.1735 0.42812 0.0
H567 H 0.74671 0.11458 0.50826 0.0
H568 H 0.81943 0.16616 0.39427 0.0
H569 H 0.79464 0.13048 0.37904 0.0
H570 H 0.75867 0.1704 0.38454 0.0
H571 H 0.81522 0.0768 0.51186 0.0
H572 H 0.83699 0.05864 0.47619 0.0
H573 H 0.86334 0.09297 0.49254 0.0
H574 H 0.90351 0.04471 0.37893 0.0
H575 H 0.96301 0.12889 0.41864 0.0
H576 H 0.78982 0.07043 0.39301 0.0
H577 H 0.80454 0.04796 0.42742 0.0
H578 H 0.82894 0.03151 0.39179 0.0
H579 H 0.86235 0.17575 0.44163 0.0
H580 H 0.9222 0.16673 0.45293 0.0
H581 H 0.87648 0.15009 0.47439 0.0
loop_
_geom_bond_atom_site_label_1
_geom_bond_atom_site_label_2
_geom_bond_distance
_geom_bond_site_symmetry_2
_ccdc_geom_bond_type
C0 C1 1.386 . S
C0 C2 1.397 . S
C0 H24 0.931 . S
C1 C0 1.386 . S
C1 C5 1.397 . S
C2 C0 1.397 . S
C2 C3 1.384 . S
C2 H25 0.930 . S
C3 C2 1.384 . S
C3 C4 1.377 . S
C3 C6 1.481 1_556 S
C4 C3 1.377 . S
C4 C5 1.389 . S
C4 H26 0.929 . S
C5 C1 1.397 . S
C5 C4 1.389 . S
C5 H27 0.931 . S
C6 C3 1.481 1_554 S
C6 C7 1.387 . S
C6 C11 1.390 1_554 S
C7 C6 1.387 . S
C7 C8 1.401 . S
C7 H28 0.930 . S
C8 C7 1.401 . S
C8 C9 1.376 . S
C8 C17 1.511 . S
C9 C8 1.376 . S
C9 C10 1.392 . S
C9 H30 0.931 . S
C10 C9 1.392 . S
C10 C11 1.361 1_554 S
C10 C12 1.500 1_554 S
C11 C6 1.390 1_556 S
C11 C10 1.361 1_556 S
C11 H29 0.931 . S
C12 C10 1.500 1_556 S
C12 C13 1.371 1_455 S
C12 C14 1.365 . S
C13 C12 1.371 1_655 S
C13 C23 1.386 . S
C13 H31 0.931 1_655 S
C14 C12 1.365 . S
C14 C15 1.409 1_455 S
C14 H32 0.929 . S
C15 C14 1.409 1_655 S
C15 C16 1.380 . S
C15 H33 0.930 . S
C16 C15 1.380 . S
C16 C23 1.357 . S
C17 C8 1.511 . S
C17 C18 1.341 . S
C17 C19 1.371 . S
C18 C17 1.341 . S
C18 C22 1.394 . S
C18 H34 0.930 . S
C19 C17 1.371 . S
C19 C20 1.392 . S
C19 H35 0.931 . S
C20 C19 1.392 . S
C20 C21 1.331 . S
C20 H38 0.932 . S
C21 C20 1.331 . S
C21 C22 1.336 . S
C22 C18 1.394 . S
C22 C21 1.336 . S
C22 H37 0.929 . S
C23 C13 1.386 . S
C23 C16 1.357 . S
C23 H36 0.928 . S
H24 C0 0.931 . S
H25 C2 0.930 . S
H26 C4 0.929 . S
H27 C5 0.931 . S
H28 C7 0.930 . S
H29 C11 0.931 . S
H30 C9 0.931 . S
H31 C13 0.931 1_455 S
H32 C14 0.929 . S
H33 C15 0.930 . S
H34 C18 0.930 . S
H35 C19 0.931 . S
H36 C23 0.928 . S
H37 C22 0.929 . S
H38 C20 0.932 . S
C39 C40 1.386 . S
C39 C41 1.397 . S
C39 H63 0.931 . S
C40 C39 1.386 . S
C40 C44 1.397 . S
C41 C39 1.397 . S
C41 C42 1.384 . S
C41 H64 0.930 . S
C42 C41 1.384 . S
C42 C43 1.377 . S
C42 C45 1.481 1_556 S
C43 C42 1.377 . S
C43 C44 1.389 . S
C43 H65 0.929 . S
C44 C40 1.397 . S
C44 C43 1.389 . S
C44 H66 0.931 . S
C45 C42 1.481 1_554 S
C45 C46 1.387 . S
C45 C50 1.390 1_654 S
C46 C45 1.387 . S
C46 C47 1.401 1_655 S
C46 H67 0.930 . S
C47 C46 1.401 1_455 S
C47 C48 1.376 . S
C47 C56 1.511 . S
C48 C47 1.376 . S
C48 C49 1.392 . S
C48 H69 0.931 . S
C49 C48 1.392 . S
C49 C50 1.361 1_554 S
C49 C51 1.500 1_554 S
C50 C45 1.390 1_456 S
C50 C49 1.361 1_556 S
C50 H68 0.931 . S
C51 C49 1.500 1_556 S
C51 C52 1.371 . S
C51 C53 1.365 . S
C52 C51 1.371 . S
C52 C62 1.386 . S
C52 H70 0.931 . S
C53 C51 1.365 . S
C53 C54 1.409 . S
C53 H71 0.929 . S
C54 C53 1.409 . S
C54 C55 1.380 . S
C54 H72 0.930 . S
C55 C54 1.380 . S
C55 C62 1.357 . S
C56 C47 1.511 . S
C56 C57 1.341 1_455 S
C56 C58 1.371 . S
C57 C56 1.341 1_655 S
C57 C61 1.394 . S
C57 H73 0.930 . S
C58 C56 1.371 . S
C58 C59 1.392 . S
C58 H74 0.931 . S
C59 C58 1.392 . S
C59 C60 1.330 . S
C59 H77 0.932 . S
C60 C59 1.330 . S
C60 C61 1.337 1_455 S
C61 C57 1.394 . S
C61 C60 1.337 1_655 S
C61 H76 0.929 . S
C62 C52 1.386 . S
C62 C55 1.357 . S
C62 H75 0.928 . S
H63 C39 0.931 . S
H64 C41 0.930 . S
H65 C43 0.929 . S
H66 C44 0.931 . S
H67 C46 0.930 . S
H68 C50 0.931 . S
H69 C48 0.931 . S
H70 C52 0.931 . S
H71 C53 0.929 . S
H72 C54 0.930 . S
H73 C57 0.930 . S
H74 C58 0.931 . S
H75 C62 0.928 . S
H76 C61 0.929 . S
H77 C59 0.932 . S
C78 C79 1.386 . S
C78 C80 1.397 . S
C78 H102 0.931 . S
C79 C78 1.386 . S
C79 C83 1.397 . S
C80 C78 1.397 . S
C80 C81 1.384 . S
C80 H103 0.930 . S
C81 C80 1.384 . S
C81 C82 1.377 . S
C81 C84 1.481 . S
C82 C81 1.377 . S
C82 C83 1.389 . S
C82 H104 0.929 . S
C83 C79 1.397 . S
C83 C82 1.389 . S
C83 H105 0.931 . S
C84 C81 1.481 . S
C84 C85 1.387 . S
C84 C89 1.390 . S
C85 C84 1.387 . S
C85 C86 1.401 . S
C85 H106 0.930 . S
C86 C85 1.401 . S
C86 C87 1.376 . S
C86 C95 1.511 . S
C87 C86 1.376 . S
C87 C88 1.392 . S
C87 H108 0.931 . S
C88 C87 1.392 . S
C88 C89 1.361 . S
C88 C90 1.500 . S
C89 C84 1.390 . S
C89 C88 1.361 . S
C89 H107 0.931 . S
C90 C88 1.500 . S
C90 C91 1.371 . S
C90 C92 1.365 . S
C91 C90 1.371 . S
C91 C101 1.386 . S
C91 H109 0.931 . S
C92 C90 1.365 . S
C92 C93 1.409 . S
C92 H110 0.929 . S
C93 C92 1.409 . S
C93 C94 1.380 . S
C93 H111 0.930 . S
C94 C93 1.380 . S
C94 C101 1.357 . S
C95 C86 1.511 . S
C95 C96 1.341 . S
C95 C97 1.371 . S
C96 C95 1.341 . S
C96 C100 1.394 . S
C96 H112 0.930 . S
C97 C95 1.371 . S
C97 C98 1.392 . S
C97 H113 0.931 . S
C98 C97 1.392 . S
C98 C99 1.331 . S
C98 H116 0.932 . S
C99 C98 1.331 . S
C99 C100 1.336 . S
C100 C96 1.394 . S
C100 C99 1.336 . S
C100 H115 0.929 . S
C101 C91 1.386 . S
C101 C94 1.357 . S
C101 H114 0.928 . S
H102 C78 0.931 . S
H103 C80 0.930 . S
H104 C82 0.929 . S
H105 C83 0.931 . S
H106 C85 0.930 . S
H107 C89 0.931 . S
H108 C87 0.931 . S
H109 C91 0.931 . S
H110 C92 0.929 . S
H111 C93 0.930 . S
H112 C96 0.930 . S
H113 C97 0.931 . S
H114 C101 0.928 . S
H115 C100 0.929 . S
H116 C98 0.932 . S
C117 C118 1.386 . S
C117 C119 1.397 . S
C117 H141 0.931 . S
C118 C117 1.386 . S
C118 C122 1.397 . S
C119 C117 1.397 . S
C119 C120 1.384 . S
C119 H142 0.930 . S
C120 C119 1.384 . S
C120 C121 1.377 . S
C120 C123 1.481 . S
C121 C120 1.377 . S
C121 C122 1.389 . S
C121 H143 0.929 . S
C122 C118 1.397 . S
C122 C121 1.389 . S
C122 H144 0.931 . S
C123 C120 1.481 . S
C123 C124 1.387 . S
C123 C128 1.390 . S
C124 C123 1.387 . S
C124 C125 1.401 . S
C124 H145 0.930 . S
C125 C124 1.401 . S
C125 C126 1.376 . S
C125 C134 1.511 . S
C126 C125 1.376 . S
C126 C127 1.392 . S
C126 H147 0.931 . S
C127 C126 1.392 . S
C127 C128 1.361 . S
C127 C129 1.500 . S
C128 C123 1.390 . S
C128 C127 1.361 . S
C128 H146 0.931 . S
C129 C127 1.500 . S
C129 C130 1.371 . S
C129 C131 1.365 . S
C130 C129 1.371 . S
C130 C140 1.386 . S
C130 H148 0.931 . S
C131 C129 1.365 . S
C131 C132 1.409 . S
C131 H149 0.929 . S
C132 C131 1.409 . S
C132 C133 1.380 . S
C132 H150 0.930 . S
C133 C132 1.380 . S
C133 C140 1.357 . S
C134 C125 1.511 . S
C134 C135 1.341 . S
C134 C136 1.371 . S
C135 C134 1.341 . S
C135 C139 1.394 . S
C135 H151 0.930 . S
C136 C134 1.371 . S
C136 C137 1.392 . S
C136 H152 0.931 . S
C137 C136 1.392 . S
C137 C138 1.331 . S
C137 H155 0.932 . S
C138 C137 1.331 . S
C138 C139 1.336 . S
C139 C135 1.394 . S
C139 C138 1.336 . S
C139 H154 0.929 . S
C140 C130 1.386 . S
C140 C133 1.357 . S
C140 H153 0.928 . S
H141 C117 0.931 . S
H142 C119 0.930 . S
H143 C121 0.929 . S
H144 C122 0.931 . S
H145 C124 0.930 . S
H146 C128 0.931 . S
H147 C126 0.931 . S
H148 C130 0.931 . S
H149 C131 0.929 . S
H150 C132 0.930 . S
H151 C135 0.930 . S
H152 C136 0.931 . S
H153 C140 0.928 . S
H154 C139 0.929 . S
H155 C137 0.932 . S
Zn156 O162 1.920 . S
Zn156 O168 1.898 . S
Zn156 O171 1.905 1_455 S
Zn157 O165 1.905 . S
Zn157 O166 1.898 . S
Zn157 O174 1.920 . S
Zn158 O161 2.080 . S
Zn158 O164 2.114 1_545 S
Zn158 O167 2.120 1_545 S
Zn158 O169 2.120 . S
Zn158 O170 2.114 . S
Zn158 O173 2.080 1_545 S
C159 O164 1.166 . S
C159 O165 1.182 . S
C160 O166 1.167 . S
C160 O167 1.299 . S
O161 Zn158 2.080 . S
O161 C175 1.305 . S
O162 Zn156 1.920 . S
O162 C175 1.234 . S
C163 O168 1.167 . S
C163 O169 1.299 . S
O164 Zn158 2.114 1_565 S
O164 C159 1.166 . S
O165 Zn157 1.905 . S
O165 C159 1.182 . S
O166 Zn157 1.898 . S
O166 C160 1.167 . S
O167 Zn158 2.120 1_565 S
O167 C160 1.299 . S
O168 Zn156 1.898 . S
O168 C163 1.167 . S
O169 Zn158 2.120 . S
O169 C163 1.299 . S
O170 Zn158 2.114 . S
O170 C172 1.166 1_455 S
O171 Zn156 1.905 1_655 S
O171 C172 1.182 . S
C172 O170 1.166 1_655 S
C172 O171 1.182 . S
O173 Zn158 2.080 1_565 S
O173 C176 1.305 . S
O174 Zn157 1.920 . S
O174 C176 1.234 . S
C175 O161 1.305 . S
C175 O162 1.234 . S
C176 O173 1.305 . S
C176 O174 1.234 . S
Zn177 O183 1.920 . S
Zn177 O189 1.898 . S
Zn177 O192 1.905 . S
Zn178 O186 1.905 . S
Zn178 O187 1.898 . S
Zn178 O195 1.920 . S
Zn179 O182 2.080 . S
Zn179 O185 2.114 . S
Zn179 O188 2.120 . S
Zn179 O190 2.120 . S
Zn179 O191 2.114 . S
Zn179 O194 2.080 . S
C180 O185 1.166 . S
C180 O186 1.182 . S
C181 O187 1.167 . S
C181 O188 1.299 . S
O182 Zn179 2.080 . S
O182 C196 1.305 . S
O183 Zn177 1.920 . S
O183 C196 1.234 . S
C184 O189 1.167 . S
C184 O190 1.299 . S
O185 Zn179 2.114 . S
O185 C180 1.166 . S
O186 Zn178 1.905 . S
O186 C180 1.182 . S
O187 Zn178 1.898 . S
O187 C181 1.167 . S
O188 Zn179 2.120 . S
O188 C181 1.299 . S
O189 Zn177 1.898 . S
O189 C184 1.167 . S
O190 Zn179 2.120 . S
O190 C184 1.299 . S
O191 Zn179 2.114 . S
O191 C193 1.166 . S
O192 Zn177 1.905 . S
O192 C193 1.182 . S
C193 O191 1.166 . S
C193 O192 1.182 . S
O194 Zn179 2.080 . S
O194 C197 1.305 . S
O195 Zn178 1.920 . S
O195 C197 1.234 . S
C196 O182 1.305 . S
C196 O183 1.234 . S
C197 O194 1.305 . S
C197 O195 1.234 . S
C198 C199 1.391 . S
C198 C200 1.394 . S
C198 H214 0.931 . S
C199 C198 1.391 . S
C199 C203 1.376 . S
C200 C198 1.394 . S
C200 C201 1.369 . S
C200 C204 1.531 . S
C201 C200 1.369 . S
C201 C202 1.410 . S
C201 C209 1.503 . S
C202 C201 1.410 . S
C202 C203 1.392 . S
C202 C205 1.511 . S
C203 C199 1.376 . S
C203 C202 1.392 . S
C203 H215 0.929 . S
C204 C200 1.531 . S
C204 H216 0.960 . S
C204 H217 0.962 . S
C204 H218 0.960 . S
C205 C202 1.511 . S
C205 H219 0.961 . S
C205 H220 0.961 . S
C205 H221 0.961 . S
C206 C207 1.370 . S
C206 C208 1.363 . S
C206 H222 0.931 . S
C207 C206 1.370 . S
C207 C211 1.408 . S
C208 C206 1.363 . S
C208 C209 1.370 . S
C208 C212 1.524 . S
C209 C201 1.503 . S
C209 C208 1.370 . S
C209 C210 1.403 . S
C210 C209 1.403 . S
C210 C211 1.404 . S
C210 C213 1.539 . S
C211 C207 1.408 . S
C211 C210 1.404 . S
C211 H223 0.930 . S
C212 C208 1.524 . S
C212 H224 0.956 . S
C212 H225 0.961 . S
C212 H226 0.961 . S
C213 C210 1.539 . S
C213 H227 0.958 . S
C213 H228 0.961 . S
C213 H229 0.960 . S
H214 C198 0.931 . S
H215 C203 0.929 . S
H216 C204 0.960 . S
H217 C204 0.962 . S
H218 C204 0.960 . S
H219 C205 0.961 . S
H220 C205 0.961 . S
H221 C205 0.961 . S
H222 C206 0.931 . S
H223 C211 0.930 . S
H224 C212 0.956 . S
H225 C212 0.961 . S
H226 C212 0.961 . S
H227 C213 0.958 . S
H228 C213 0.961 . S
H229 C213 0.960 . S
C230 C231 1.404 . S
C230 C232 1.394 . S
C230 H246 0.931 . S
C231 C230 1.404 . S
C231 C235 1.365 1_455 S
C232 C230 1.394 . S
C232 C233 1.369 . S
C232 C236 1.531 . S
C233 C232 1.369 . S
C233 C234 1.410 1_455 S
C233 C241 1.503 . S
C234 C233 1.410 1_655 S
C234 C235 1.392 . S
C234 C237 1.511 . S
C235 C231 1.365 1_655 S
C235 C234 1.392 . S
C235 H247 0.929 . S
C236 C232 1.531 . S
C236 H248 0.960 . S
C236 H249 0.962 . S
C236 H250 0.960 . S
C237 C234 1.511 . S
C237 H251 0.961 . S
C237 H252 0.961 . S
C237 H253 0.961 . S
C238 C239 1.370 . S
C238 C240 1.363 . S
C238 H254 0.931 . S
C239 C238 1.370 . S
C239 C243 1.408 . S
C240 C238 1.363 . S
C240 C241 1.370 . S
C240 C244 1.524 . S
C241 C233 1.503 . S
C241 C240 1.370 . S
C241 C242 1.403 . S
C242 C241 1.403 . S
C242 C243 1.404 . S
C242 C245 1.539 1_455 S
C243 C239 1.408 . S
C243 C242 1.404 . S
C243 H255 0.930 . S
C244 C240 1.524 . S
C244 H256 0.956 . S
C244 H257 0.961 . S
C244 H258 0.961 . S
C245 C242 1.539 1_655 S
C245 H259 0.954 1_655 S
C245 H260 0.961 . S
C245 H261 0.960 . S
H246 C230 0.931 . S
H247 C235 0.929 . S
H248 C236 0.960 . S
H249 C236 0.962 . S
H250 C236 0.960 . S
H251 C237 0.961 . S
H252 C237 0.961 . S
H253 C237 0.961 . S
H254 C238 0.931 . S
H255 C243 0.930 . S
H256 C244 0.956 . S
H257 C244 0.961 . S
H258 C244 0.961 . S
H259 C245 0.954 1_455 S
H260 C245 0.961 . S
H261 C245 0.960 . S
C262 C263 1.391 . S
C262 C264 1.394 . S
C262 H278 0.931 . S
C263 C262 1.391 . S
C263 C267 1.376 . S
C264 C262 1.394 . S
C264 C265 1.369 . S
C264 C268 1.531 . S
C265 C264 1.369 . S
C265 C266 1.410 . S
C265 C273 1.503 . S
C266 C265 1.410 . S
C266 C267 1.392 . S
C266 C269 1.511 . S
C267 C263 1.376 . S
C267 C266 1.392 . S
C267 H279 0.929 . S
C268 C264 1.531 . S
C268 H280 0.960 . S
C268 H281 0.962 . S
C268 H282 0.960 . S
C269 C266 1.511 . S
C269 H283 0.961 . S
C269 H284 0.961 . S
C269 H285 0.961 . S
C270 C271 1.370 . S
C270 C272 1.363 . S
C270 H286 0.931 . S
C271 C270 1.370 . S
C271 C275 1.408 . S
C272 C270 1.363 . S
C272 C273 1.370 . S
C272 C276 1.524 . S
C273 C265 1.503 . S
C273 C272 1.370 . S
C273 C274 1.403 . S
C274 C273 1.403 . S
C274 C275 1.404 . S
C274 C277 1.539 . S
C275 C271 1.408 . S
C275 C274 1.404 . S
C275 H287 0.930 . S
C276 C272 1.524 . S
C276 H288 0.956 . S
C276 H289 0.961 . S
C276 H290 0.961 . S
C277 C274 1.539 . S
C277 H291 0.958 . S
C277 H292 0.961 . S
C277 H293 0.960 . S
H278 C262 0.931 . S
H279 C267 0.929 . S
H280 C268 0.960 . S
H281 C268 0.962 . S
H282 C268 0.960 . S
H283 C269 0.961 . S
H284 C269 0.961 . S
H285 C269 0.961 . S
H286 C270 0.931 . S
H287 C275 0.930 . S
H288 C276 0.956 . S
H289 C276 0.961 . S
H290 C276 0.961 . S
H291 C277 0.958 . S
H292 C277 0.961 . S
H293 C277 0.960 . S
C294 C295 1.391 . S
C294 C296 1.394 . S
C294 H310 0.931 . S
C295 C294 1.391 . S
C295 C299 1.376 . S
C296 C294 1.394 . S
C296 C297 1.369 . S
C296 C300 1.531 . S
C297 C296 1.369 . S
C297 C298 1.410 . S
C297 C305 1.503 . S
C298 C297 1.410 . S
C298 C299 1.392 . S
C298 C301 1.511 . S
C299 C295 1.376 . S
C299 C298 1.392 . S
C299 H311 0.929 . S
C300 C296 1.531 . S
C300 H312 0.960 . S
C300 H313 0.962 . S
C300 H314 0.960 . S
C301 C298 1.511 . S
C301 H315 0.961 . S
C301 H316 0.961 . S
C301 H317 0.961 . S
C302 C303 1.370 . S
C302 C304 1.363 . S
C302 H318 0.931 . S
C303 C302 1.370 . S
C303 C307 1.408 . S
C304 C302 1.363 . S
C304 C305 1.370 . S
C304 C308 1.524 . S
C305 C297 1.503 . S
C305 C304 1.370 . S
C305 C306 1.403 . S
C306 C305 1.403 . S
C306 C307 1.404 . S
C306 C309 1.539 . S
C307 C303 1.408 . S
C307 C306 1.404 . S
C307 H319 0.930 . S
C308 C304 1.524 . S
C308 H320 0.956 . S
C308 H321 0.961 . S
C308 H322 0.961 . S
C309 C306 1.539 . S
C309 H323 0.958 . S
C309 H324 0.961 . S
C309 H325 0.960 . S
H310 C294 0.931 . S
H311 C299 0.929 . S
H312 C300 0.960 . S
H313 C300 0.962 . S
H314 C300 0.960 . S
H315 C301 0.961 . S
H316 C301 0.961 . S
H317 C301 0.961 . S
H318 C302 0.931 . S
H319 C307 0.930 . S
H320 C308 0.956 . S
H321 C308 0.961 . S
H322 C308 0.961 . S
H323 C309 0.958 . S
H324 C309 0.961 . S
H325 C309 0.960 . S
C326 C327 1.391 . S
C326 C328 1.394 . S
C326 H342 0.931 . S
C327 C326 1.391 . S
C327 C331 1.376 . S
C328 C326 1.394 . S
C328 C329 1.369 . S
C328 C332 1.531 . S
C329 C328 1.369 . S
C329 C330 1.410 . S
C329 C337 1.503 . S
C330 C329 1.410 . S
C330 C331 1.392 . S
C330 C333 1.511 . S
C331 C327 1.376 . S
C331 C330 1.392 . S
C331 H343 0.929 . S
C332 C328 1.531 . S
C332 H344 0.960 . S
C332 H345 0.962 . S
C332 H346 0.960 . S
C333 C330 1.511 . S
C333 H347 0.961 . S
C333 H348 0.961 . S
C333 H349 0.961 . S
C334 C335 1.370 . S
C334 C336 1.363 . S
C334 H350 0.931 . S
C335 C334 1.370 . S
C335 C339 1.408 . S
C336 C334 1.363 . S
C336 C337 1.370 . S
C336 C340 1.524 . S
C337 C329 1.503 . S
C337 C336 1.370 . S
C337 C338 1.403 . S
C338 C337 1.403 . S
C338 C339 1.404 . S
C338 C341 1.539 . S
C339 C335 1.408 . S
C339 C338 1.404 . S
C339 H351 0.930 . S
C340 C336 1.524 . S
C340 H352 0.956 . S
C340 H353 0.961 . S
C340 H354 0.961 . S
C341 C338 1.539 . S
C341 H355 0.958 . S
C341 H356 0.961 . S
C341 H357 0.960 . S
H342 C326 0.931 . S
H343 C331 0.929 . S
H344 C332 0.960 . S
H345 C332 0.962 . S
H346 C332 0.960 . S
H347 C333 0.961 . S
H348 C333 0.961 . S
H349 C333 0.961 . S
H350 C334 0.931 . S
H351 C339 0.930 . S
H352 C340 0.956 . S
H353 C340 0.961 . S
H354 C340 0.961 . S
H355 C341 0.958 . S
H356 C341 0.961 . S
H357 C341 0.960 . S
C358 C359 1.391 . S
C358 C360 1.394 . S
C358 H374 0.931 . S
C359 C358 1.391 . S
C359 C363 1.376 . S
C360 C358 1.394 . S
C360 C361 1.369 . S
C360 C364 1.531 . S
C361 C360 1.369 . S
C361 C362 1.410 . S
C361 C369 1.503 . S
C362 C361 1.410 . S
C362 C363 1.392 . S
C362 C365 1.511 . S
C363 C359 1.376 . S
C363 C362 1.392 . S
C363 H375 0.929 . S
C364 C360 1.531 . S
C364 H376 0.960 . S
C364 H377 0.962 . S
C364 H378 0.960 . S
C365 C362 1.511 . S
C365 H379 0.961 . S
C365 H380 0.961 . S
C365 H381 0.961 . S
C366 C367 1.370 . S
C366 C368 1.363 . S
C366 H382 0.931 . S
C367 C366 1.370 . S
C367 C371 1.408 . S
C368 C366 1.363 . S
C368 C369 1.370 . S
C368 C372 1.524 . S
C369 C361 1.503 . S
C369 C368 1.370 . S
C369 C370 1.403 . S
C370 C369 1.403 . S
C370 C371 1.404 . S
C370 C373 1.539 . S
C371 C367 1.408 . S
C371 C370 1.404 . S
C371 H383 0.930 . S
C372 C368 1.524 . S
C372 H384 0.956 . S
C372 H385 0.961 . S
C372 H386 0.961 1_556 S
C373 C370 1.539 . S
C373 H387 0.958 . S
C373 H388 0.961 . S
C373 H389 0.960 . S
H374 C358 0.931 . S
H375 C363 0.929 . S
H376 C364 0.960 . S
H377 C364 0.962 . S
H378 C364 0.960 . S
H379 C365 0.961 . S
H380 C365 0.961 . S
H381 C365 0.961 . S
H382 C366 0.931 . S
H383 C371 0.930 . S
H384 C372 0.956 . S
H385 C372 0.961 . S
H386 C372 0.961 1_554 S
H387 C373 0.958 . S
H388 C373 0.961 . S
H389 C373 0.960 . S
C390 C391 1.391 . S
C390 C392 1.394 . S
C390 H406 0.931 . S
C391 C390 1.391 . S
C391 C395 1.376 . S
C392 C390 1.394 . S
C392 C393 1.369 . S
C392 C396 1.531 . S
C393 C392 1.369 . S
C393 C394 1.410 . S
C393 C401 1.503 . S
C394 C393 1.410 . S
C394 C395 1.392 . S
C394 C397 1.511 . S
C395 C391 1.376 . S
C395 C394 1.392 . S
C395 H407 0.929 . S
C396 C392 1.531 . S
C396 H408 0.960 . S
C396 H409 0.962 . S
C396 H410 0.960 . S
C397 C394 1.511 . S
C397 H411 0.961 . S
C397 H412 0.961 . S
C397 H413 0.961 . S
C398 C399 1.370 . S
C398 C400 1.363 . S
C398 H414 0.931 . S
C399 C398 1.370 . S
C399 C403 1.408 . S
C400 C398 1.363 . S
C400 C401 1.370 . S
C400 C404 1.524 . S
C401 C393 1.503 . S
C401 C400 1.370 . S
C401 C402 1.403 . S
C402 C401 1.403 . S
C402 C403 1.404 . S
C402 C405 1.539 . S
C403 C399 1.408 . S
C403 C402 1.404 . S
C403 H415 0.930 . S
C404 C400 1.524 . S
C404 H416 0.956 . S
C404 H417 0.961 . S
C404 H418 0.961 . S
C405 C402 1.539 . S
C405 H419 0.958 . S
C405 H420 0.961 . S
C405 H421 0.960 . S
H406 C390 0.931 . S
H407 C395 0.929 . S
H408 C396 0.960 . S
H409 C396 0.962 . S
H410 C396 0.960 . S
H411 C397 0.961 . S
H412 C397 0.961 . S
H413 C397 0.961 . S
H414 C398 0.931 . S
H415 C403 0.930 . S
H416 C404 0.956 . S
H417 C404 0.961 . S
H418 C404 0.961 . S
H419 C405 0.958 . S
H420 C405 0.961 . S
H421 C405 0.960 . S
C422 C423 1.391 . S
C422 C424 1.394 . S
C422 H438 0.931 . S
C423 C422 1.391 . S
C423 C427 1.376 . S
C424 C422 1.394 . S
C424 C425 1.369 . S
C424 C428 1.531 . S
C425 C424 1.369 . S
C425 C426 1.410 . S
C425 C433 1.503 . S
C426 C425 1.410 . S
C426 C427 1.392 . S
C426 C429 1.511 . S
C427 C423 1.376 . S
C427 C426 1.392 . S
C427 H439 0.929 . S
C428 C424 1.531 . S
C428 H440 0.960 . S
C428 H441 0.962 . S
C428 H442 0.960 . S
C429 C426 1.511 . S
C429 H443 0.961 . S
C429 H444 0.961 . S
C429 H445 0.961 . S
C430 C431 1.370 . S
C430 C432 1.363 . S
C430 H446 0.931 . S
C431 C430 1.370 . S
C431 C435 1.408 . S
C432 C430 1.363 . S
C432 C433 1.370 . S
C432 C436 1.524 . S
C433 C425 1.503 . S
C433 C432 1.370 . S
C433 C434 1.403 . S
C434 C433 1.403 . S
C434 C435 1.404 . S
C434 C437 1.539 . S
C435 C431 1.408 . S
C435 C434 1.404 . S
C435 H447 0.930 . S
C436 C432 1.524 . S
C436 H448 0.956 . S
C436 H449 0.961 . S
C436 H450 0.961 . S
C437 C434 1.539 . S
C437 H451 0.958 . S
C437 H452 0.961 . S
C437 H453 0.960 . S
H438 C422 0.931 . S
H439 C427 0.929 . S
H440 C428 0.960 . S
H441 C428 0.962 . S
H442 C428 0.960 . S
H443 C429 0.961 . S
H444 C429 0.961 . S
H445 C429 0.961 . S
H446 C430 0.931 . S
H447 C435 0.930 . S
H448 C436 0.956 . S
H449 C436 0.961 . S
H450 C436 0.961 . S
H451 C437 0.958 . S
H452 C437 0.961 . S
H453 C437 0.960 . S
C454 C455 1.391 . S
C454 C456 1.394 . S
C454 H470 0.931 . S
C455 C454 1.391 . S
C455 C459 1.376 . S
C456 C454 1.394 . S
C456 C457 1.369 . S
C456 C460 1.531 . S
C457 C456 1.369 . S
C457 C458 1.410 . S
C457 C465 1.503 . S
C458 C457 1.410 . S
C458 C459 1.392 . S
C458 C461 1.511 . S
C459 C455 1.376 . S
C459 C458 1.392 . S
C459 H471 0.929 . S
C460 C456 1.531 . S
C460 H472 0.960 . S
C460 H473 0.962 . S
C460 H474 0.960 . S
C461 C458 1.511 . S
C461 H475 0.961 . S
C461 H476 0.961 . S
C461 H477 0.961 . S
C462 C463 1.370 . S
C462 C464 1.363 . S
C462 H478 0.931 1_655 S
C463 C462 1.370 . S
C463 C467 1.408 . S
C464 C462 1.363 . S
C464 C465 1.370 . S
C464 C468 1.524 . S
C465 C457 1.503 . S
C465 C464 1.370 . S
C465 C466 1.403 . S
C466 C465 1.403 . S
C466 C467 1.404 . S
C466 C469 1.539 . S
C467 C463 1.408 . S
C467 C466 1.404 . S
C467 H479 0.930 . S
C468 C464 1.524 . S
C468 H480 0.956 . S
C468 H481 0.961 . S
C468 H482 0.947 1_655 S
C469 C466 1.539 . S
C469 H483 0.958 . S
C469 H484 0.961 . S
C469 H485 0.960 . S
H470 C454 0.931 . S
H471 C459 0.929 . S
H472 C460 0.960 . S
H473 C460 0.962 . S
H474 C460 0.960 . S
H475 C461 0.961 . S
H476 C461 0.961 . S
H477 C461 0.961 . S
H478 C462 0.931 1_455 S
H479 C467 0.930 . S
H480 C468 0.956 . S
H481 C468 0.961 . S
H482 C468 0.947 1_455 S
H483 C469 0.958 . S
H484 C469 0.961 . S
H485 C469 0.960 . S
C486 C487 1.391 . S
C486 C488 1.394 . S
C486 H502 0.931 . S
C487 C486 1.391 . S
C487 C491 1.376 . S
C488 C486 1.394 . S
C488 C489 1.369 . S
C488 C492 1.531 . S
C489 C488 1.369 . S
C489 C490 1.410 . S
C489 C497 1.503 . S
C490 C489 1.410 . S
C490 C491 1.392 . S
C490 C493 1.511 . S
C491 C487 1.376 . S
C491 C490 1.392 . S
C491 H503 0.929 . S
C492 C488 1.531 . S
C492 H504 0.960 . S
C492 H505 0.962 . S
C492 H506 0.960 . S
C493 C490 1.511 . S
C493 H507 0.961 . S
C493 H508 0.961 . S
C493 H509 0.961 . S
C494 C495 1.370 . S
C494 C496 1.363 . S
C494 H510 0.931 . S
C495 C494 1.370 . S
C495 C499 1.408 . S
C496 C494 1.363 . S
C496 C497 1.370 . S
C496 C500 1.524 . S
C497 C489 1.503 . S
C497 C496 1.370 . S
C497 C498 1.403 . S
C498 C497 1.403 . S
C498 C499 1.404 . S
C498 C501 1.539 . S
C499 C495 1.408 . S
C499 C498 1.404 . S
C499 H511 0.930 . S
C500 C496 1.524 . S
C500 H512 0.956 . S
C500 H513 0.961 . S
C500 H514 0.961 . S
C501 C498 1.539 . S
C501 H515 0.958 . S
C501 H516 0.961 . S
C501 H517 0.960 . S
H502 C486 0.931 . S
H503 C491 0.929 . S
H504 C492 0.960 . S
H505 C492 0.962 . S
H506 C492 0.960 . S
H507 C493 0.961 . S
H508 C493 0.961 . S
H509 C493 0.961 . S
H510 C494 0.931 . S
H511 C499 0.930 . S
H512 C500 0.956 . S
H513 C500 0.961 . S
H514 C500 0.961 . S
H515 C501 0.958 . S
H516 C501 0.961 . S
H517 C501 0.960 . S
C518 C519 1.391 . S
C518 C520 1.394 . S
C518 H534 0.931 . S
C519 C518 1.391 . S
C519 C523 1.376 . S
C520 C518 1.394 . S
C520 C521 1.369 . S
C520 C524 1.531 . S
C521 C520 1.369 . S
C521 C522 1.410 . S
C521 C529 1.503 . S
C522 C521 1.410 . S
C522 C523 1.392 . S
C522 C525 1.511 . S
C523 C519 1.376 . S
C523 C522 1.392 . S
C523 H535 0.929 . S
C524 C520 1.531 . S
C524 H536 0.960 . S
C524 H537 0.962 . S
C524 H538 0.960 . S
C525 C522 1.511 . S
C525 H539 0.961 . S
C525 H540 0.961 . S
C525 H541 0.961 . S
C526 C527 1.370 . S
C526 C528 1.363 . S
C526 H542 0.931 . S
C527 C526 1.370 . S
C527 C531 1.408 . S
C528 C526 1.363 . S
C528 C529 1.370 . S
C528 C532 1.524 . S
C529 C521 1.503 . S
C529 C528 1.370 . S
C529 C530 1.403 . S
C530 C529 1.403 . S
C530 C531 1.404 . S
C530 C533 1.539 . S
C531 C527 1.408 . S
C531 C530 1.404 . S
C531 H543 0.930 . S
C532 C528 1.524 . S
C532 H544 0.956 . S
C532 H545 0.961 . S
C532 H546 0.961 . S
C533 C530 1.539 . S
C533 H547 0.958 . S
C533 H548 0.961 . S
C533 H549 0.960 . S
H534 C518 0.931 . S
H535 C523 0.929 . S
H536 C524 0.960 . S
H537 C524 0.962 . S
H538 C524 0.960 . S
H539 C525 0.961 . S
H540 C525 0.961 . S
H541 C525 0.961 . S
H542 C526 0.931 . S
H543 C531 0.930 . S
H544 C532 0.956 . S
H545 C532 0.961 . S
H546 C532 0.961 . S
H547 C533 0.958 . S
H548 C533 0.961 . S
H549 C533 0.960 . S
C550 C551 1.391 . S
C550 C552 1.394 . S
C550 H566 0.931 . S
C551 C550 1.391 . S
C551 C555 1.376 . S
C552 C550 1.394 . S
C552 C553 1.369 . S
C552 C556 1.531 . S
C553 C552 1.369 . S
C553 C554 1.410 . S
C553 C561 1.503 . S
C554 C553 1.410 . S
C554 C555 1.392 . S
C554 C557 1.511 . S
C555 C551 1.376 . S
C555 C554 1.392 . S
C555 H567 0.929 . S
C556 C552 1.531 . S
C556 H568 0.960 . S
C556 H569 0.962 . S
C556 H570 0.960 . S
C557 C554 1.511 . S
C557 H571 0.961 . S
C557 H572 0.961 . S
C557 H573 0.961 . S
C558 C559 1.370 . S
C558 C560 1.363 . S
C558 H574 0.931 . S
C559 C558 1.370 . S
C559 C563 1.408 . S
C560 C558 1.363 . S
C560 C561 1.370 . S
C560 C564 1.524 . S
C561 C553 1.503 . S
C561 C560 1.370 . S
C561 C562 1.403 . S
C562 C561 1.403 . S
C562 C563 1.404 . S
C562 C565 1.539 . S
C563 C559 1.408 . S
C563 C562 1.404 . S
C563 H575 0.930 . S
C564 C560 1.524 . S
C564 H576 0.956 . S
C564 H577 0.961 . S
C564 H578 0.961 . S
C565 C562 1.539 . S
C565 H579 0.958 . S
C565 H580 0.961 . S
C565 H581 0.960 . S
H566 C550 0.931 . S
H567 C555 0.929 . S
H568 C556 0.960 . S
H569 C556 0.962 . S
H570 C556 0.960 . S
H571 C557 0.961 . S
H572 C557 0.961 . S
H573 C557 0.961 . S
H574 C558 0.931 . S
H575 C563 0.930 . S
H576 C564 0.956 . S
H577 C564 0.961 . S
H578 C564 0.961 . S
H579 C565 0.958 . S
H580 C565 0.961 . S
H581 C565 0.960 . S
C207 C163 1.422 . S
C199 C21 1.512 . S
C239 C159 1.462 . S
C231 C60 1.540 . S
C271 C184 1.456 . S
C263 C99 1.539 . S
C295 C138 1.529 . S
C303 C180 1.460 . S
C327 C1 1.236 . S
C335 C181 1.046 . S
C367 C196 1.078 . S
C359 C40 1.247 . S
C391 C16 1.694 . S
C399 C197 1.569 . S
C431 C193 1.595 . S
C423 C55 1.697 . S
C463 C160 1.103 1_655 S
C455 C79 1.188 . S
C487 C118 1.255 . S
C495 C175 1.070 . S
C527 C176 1.547 . S
C519 C94 1.710 . S
C559 C172 1.562 . S
C551 C133 1.719 . S
