# Generated by pormake.
# Topology zzz, (3,6)-cn, num edge types: 1
# Building blocks:
#     Node 0, Type 0, BuildingBlock: ESEHIV_clean_linker_0, # of connection points: 3
#     Node 1, Type 0, BuildingBlock: ESEHIV_clean_linker_0, # of connection points: 3
#     Node 2, Type 0, BuildingBlock: ESEHIV_clean_linker_0, # of connection points: 3
#     Node 3, Type 0, BuildingBlock: ESEHIV_clean_linker_0, # of connection points: 3
#     Node 4, Type 0, BuildingBlock: ESEHIV_clean_linker_0, # of connection points: 3
#     Node 5, Type 0, BuildingBlock: ESEHIV_clean_linker_0, # of connection points: 3
#     Node 6, Type 0, BuildingBlock: ESEHIV_clean_linker_0, # of connection points: 3
#     Node 7, Type 0, BuildingBlock: ESEHIV_clean_linker_0, # of connection points: 3
#     Node 8, Type 1, BuildingBlock: BETDAH_clean_sbu_0, # of connection points: 6
#     Node 9, Type 1, BuildingBlock: BETDAH_clean_sbu_0, # of connection points: 6
#     Node 10, Type 1, BuildingBlock: BETDAH_clean_sbu_0, # of connection points: 6
#     Node 11, Type 1, BuildingBlock: BETDAH_clean_sbu_0, # of connection points: 6
#     Edge 12, Type (0, 1), BuildingBlock: UVAHIK_clean_linker_0, # of connection points: 2
#     Edge 13, Type (0, 1), BuildingBlock: UVAHIK_clean_linker_0, # of connection points: 2
#     Edge 14, Type (0, 1), BuildingBlock: UVAHIK_clean_linker_0, # of connection points: 2
#     Edge 15, Type (0, 1), BuildingBlock: UVAHIK_clean_linker_0, # of connection points: 2
#     Edge 16, Type (0, 1), BuildingBlock: UVAHIK_clean_linker_0, # of connection points: 2
#     Edge 17, Type (0, 1), BuildingBlock: UVAHIK_clean_linker_0, # of connection points: 2
#     Edge 18, Type (0, 1), BuildingBlock: UVAHIK_clean_linker_0, # of connection points: 2
#     Edge 19, Type (0, 1), BuildingBlock: UVAHIK_clean_linker_0, # of connection points: 2
#     Edge 20, Type (0, 1), BuildingBlock: UVAHIK_clean_linker_0, # of connection points: 2
#     Edge 21, Type (0, 1), BuildingBlock: UVAHIK_clean_linker_0, # of connection points: 2
#     Edge 22, Type (0, 1), BuildingBlock: UVAHIK_clean_linker_0, # of connection points: 2
#     Edge 23, Type (0, 1), BuildingBlock: UVAHIK_clean_linker_0, # of connection points: 2
#     Edge 24, Type (0, 1), BuildingBlock: UVAHIK_clean_linker_0, # of connection points: 2
#     Edge 25, Type (0, 1), BuildingBlock: UVAHIK_clean_linker_0, # of connection points: 2
#     Edge 26, Type (0, 1), BuildingBlock: UVAHIK_clean_linker_0, # of connection points: 2
#     Edge 27, Type (0, 1), BuildingBlock: UVAHIK_clean_linker_0, # of connection points: 2
#     Edge 28, Type (0, 1), BuildingBlock: UVAHIK_clean_linker_0, # of connection points: 2
#     Edge 29, Type (0, 1), BuildingBlock: UVAHIK_clean_linker_0, # of connection points: 2
#     Edge 30, Type (0, 1), BuildingBlock: UVAHIK_clean_linker_0, # of connection points: 2
#     Edge 31, Type (0, 1), BuildingBlock: UVAHIK_clean_linker_0, # of connection points: 2
#     Edge 32, Type (0, 1), BuildingBlock: UVAHIK_clean_linker_0, # of connection points: 2
#     Edge 33, Type (0, 1), BuildingBlock: UVAHIK_clean_linker_0, # of connection points: 2
#     Edge 34, Type (0, 1), BuildingBlock: UVAHIK_clean_linker_0, # of connection points: 2
#     Edge 35, Type (0, 1), BuildingBlock: UVAHIK_clean_linker_0, # of connection points: 2
# Relax obj value: 0.443
# Max RMSD: 0.272
# Mean RMSD: 0.255
data_MOF--net-zzz--node1-BETDAH_clean_sbu_0--node2-ESEHIV_clean_linker_0--edge1-UVAHIK_clean_linker_0
_symmetry_space_group_name_H-M    P1
_symmetry_Int_Tables_number       1
_symmetry_cell_setting            triclinic
loop_
_symmetry_equiv_pos_as_xyz
'x, y, z'
_cell_length_a     60.71001
_cell_length_b     60.681513
_cell_length_c     18.408754
_cell_angle_alpha  89.975044
_cell_angle_beta   90.011945
_cell_angle_gamma 89.963086
loop_
_atom_site_label
_atom_site_type_symbol
_atom_site_fract_x
_atom_site_fract_y
_atom_site_fract_z
_atom_type_partial_charge
H0 H 0.7799 0.4775 0.21389 0.0
H1 H 0.71687 0.4696 0.11306 0.0
H2 H 0.72182 0.50218 0.32108 0.0
C3 C 0.76217 0.47982 0.21515 0.0
C4 C 0.75249 0.49045 0.27471 0.0
C5 C 0.7494 0.47221 0.15718 0.0
C6 C 0.72659 0.47494 0.15926 0.0
C7 C 0.71634 0.48576 0.21779 0.0
C8 C 0.72943 0.49359 0.27599 0.0
H9 H 0.05877 0.7651 0.31954 0.0
H10 H 0.06083 0.70785 0.18311 0.0
H11 H 0.00481 0.71923 0.32242 0.0
C12 C 0.05173 0.7495 0.30249 0.0
C13 C 0.03107 0.74329 0.32956 0.0
C14 C 0.06235 0.73709 0.24877 0.0
C15 C 0.05273 0.7174 0.22515 0.0
C16 C 0.03215 0.71055 0.25201 0.0
C17 C 0.021 0.72391 0.30314 0.0
H18 H 0.72708 0.04682 0.32367 0.0
H19 H 0.77983 0.05007 0.16912 0.0
H20 H 0.78271 0.00372 0.34717 0.0
C21 C 0.74307 0.04128 0.30463 0.0
C22 C 0.75363 0.02421 0.34184 0.0
C23 C 0.75208 0.05039 0.24144 0.0
C24 C 0.773 0.04342 0.21887 0.0
C25 C 0.78465 0.02701 0.25745 0.0
C26 C 0.77449 0.01693 0.31826 0.0
H27 H 0.44732 0.73475 0.27698 0.0
H28 H 0.49758 0.78125 0.33991 0.0
H29 H 0.45664 0.79361 0.15266 0.0
C30 C 0.45553 0.75049 0.27016 0.0
C31 C 0.44979 0.76373 0.21097 0.0
C32 C 0.47282 0.75639 0.31706 0.0
C33 C 0.48413 0.77642 0.30465 0.0
C34 C 0.47788 0.79016 0.24613 0.0
C35 C 0.46095 0.7835 0.19918 0.0
H36 H 0.23822 0.55938 0.08869 0.0
H37 H 0.2938 0.54826 0.22689 0.0
H38 H 0.28304 0.50598 0.04207 0.0
C39 C 0.25337 0.55049 0.09967 0.0
C40 C 0.25923 0.53236 0.05619 0.0
C41 C 0.26566 0.55617 0.16112 0.0
C42 C 0.28447 0.54404 0.17859 0.0
C43 C 0.29108 0.52621 0.13533 0.0
C44 C 0.2783 0.52012 0.07441 0.0
H45 H 0.96621 0.23149 0.15956 0.0
H46 H 0.97416 0.29559 0.25158 0.0
H47 H 0.99948 0.28224 0.03669 0.0
C48 C 0.972 0.24833 0.15399 0.0
C49 C 0.98299 0.25493 0.09039 0.0
C50 C 0.96898 0.26292 0.21165 0.0
C51 C 0.97657 0.28445 0.20614 0.0
C52 C 0.98727 0.29179 0.14307 0.0
C53 C 0.99103 0.27681 0.08533 0.0
H54 H 0.26778 0.94785 0.12759 0.0
H55 H 0.21098 0.9577 0.26116 0.0
H56 H 0.22122 0.99912 0.07376 0.0
C57 C 0.25226 0.95624 0.1369 0.0
C58 C 0.24598 0.97383 0.09161 0.0
C59 C 0.2398 0.95049 0.19789 0.0
C60 C 0.22045 0.96198 0.2132 0.0
C61 C 0.21341 0.97924 0.16811 0.0
C62 C 0.22632 0.98542 0.10756 0.0
H63 H 0.55557 0.26958 0.12988 0.0
H64 H 0.50799 0.22158 0.05981 0.0
H65 H 0.55135 0.20727 0.23921 0.0
C66 C 0.54873 0.25312 0.13389 0.0
C67 C 0.5557 0.23915 0.19006 0.0
C68 C 0.53195 0.24692 0.08547 0.0
C69 C 0.52145 0.22635 0.09509 0.0
C70 C 0.5288 0.21182 0.15008 0.0
C71 C 0.54605 0.21829 0.19623 0.0
Ho72 Ho 0.01641 0.99121 0.77425 0.0
Ho73 Ho 0.98599 1.00247 0.6584 0.0
C74 C 0.99966 0.95258 0.66285 0.0
C75 C 0.03795 0.9739 0.88115 0.0
C76 C 0.05239 0.95456 0.89153 0.0
C77 C 0.04434 0.93301 0.88336 0.0
C78 C 0.05806 0.91495 0.89606 0.0
C79 C 0.0802 0.91798 0.91664 0.0
C80 C 0.08834 0.93959 0.92295 0.0
C81 C 0.07454 0.95767 0.91087 0.0
C82 C 0.0368 0.00455 0.65062 0.0
C83 C 1.0022 0.04103 0.76834 0.0
C84 C 0.96516 0.02237 0.5559 0.0
C85 C 0.95558 0.04469 0.55597 0.0
C86 C 0.96447 0.06077 0.50981 0.0
C87 C 0.95851 0.08282 0.51783 0.0
C88 C 0.94336 0.08915 0.57158 0.0
C89 C 0.93359 0.07301 0.61544 0.0
C90 C 0.93978 0.05094 0.60815 0.0
C91 C 0.96545 0.98925 0.78197 0.0
O92 O 0.00788 0.95739 0.7277 0.0
O93 O 0.99242 0.96829 0.61952 0.0
O94 O 0.04583 0.98963 0.84035 0.0
O95 O 0.01704 0.97017 0.86898 0.0
O96 O 0.04286 0.01007 0.71544 0.0
O97 O 0.0205 0.99175 0.6544 0.0
O98 O 0.99579 0.03613 0.70172 0.0
O99 O 0.00793 0.02517 0.81355 0.0
O100 O 0.95584 0.00786 0.59837 0.0
O101 O 0.98666 0.02173 0.5596 0.0
O102 O 0.95953 0.98372 0.71696 0.0
O103 O 0.98186 1.00196 0.77841 0.0
H104 H 0.02735 0.93002 0.86835 0.0
H105 H 0.05104 0.8986 0.89203 0.0
H106 H 0.10534 0.94257 0.93784 0.0
H107 H 0.08115 0.97414 0.91726 0.0
H108 H 0.9767 0.05638 0.46946 0.0
H109 H 0.96596 0.09501 0.48253 0.0
H110 H 0.92181 0.07757 0.657 0.0
H111 H 0.93276 0.03897 0.64512 0.0
Ho112 Ho 0.50421 0.02051 0.76251 0.0
Ho113 Ho 0.49613 0.98727 0.65317 0.0
C114 C 0.54509 1.00343 0.66336 0.0
C115 C 0.51993 0.04601 0.86211 0.0
C116 C 0.54046 0.05898 0.86763 0.0
C117 C 0.56103 0.04849 0.87228 0.0
C118 C 0.58034 0.06085 0.87577 0.0
C119 C 0.57964 0.08404 0.87416 0.0
C120 C 0.55904 0.09454 0.86903 0.0
C121 C 0.53965 0.08212 0.86603 0.0
C122 C 0.49129 0.03737 0.63262 0.0
C123 C 0.45551 0.0036 0.75593 0.0
C124 C 0.48179 0.96268 0.54848 0.0
C125 C 0.46286 0.94813 0.53698 0.0
C126 C 0.44467 0.94872 0.58391 0.0
C127 C 0.42622 0.93566 0.5698 0.0
C128 C 0.42575 0.92174 0.50872 0.0
C129 C 0.44448 0.9205 0.46387 0.0
C130 C 0.46286 0.93365 0.47786 0.0
C131 C 0.50913 0.97006 0.78238 0.0
O132 O 0.53895 0.01164 0.72671 0.0
O133 O 0.53026 0.99582 0.61761 0.0
O134 O 0.50586 0.05265 0.81318 0.0
O135 O 0.52187 0.02454 0.86358 0.0
O136 O 0.48389 0.04377 0.69501 0.0
O137 O 0.50517 0.02216 0.64183 0.0
O138 O 0.46138 0.99563 0.69181 0.0
O139 O 0.47049 0.01155 0.80058 0.0
O140 O 0.49602 0.95603 0.59678 0.0
O141 O 0.4774 0.98371 0.55398 0.0
O142 O 0.51588 0.96336 0.71958 0.0
O143 O 0.49542 0.98549 0.77391 0.0
H144 H 0.56231 0.03069 0.87356 0.0
H145 H 0.5958 0.05213 0.88165 0.0
H146 H 0.55787 0.11234 0.86733 0.0
H147 H 0.52398 0.09061 0.86219 0.0
H148 H 0.44451 0.95964 0.63036 0.0
H149 H 0.41199 0.93721 0.60492 0.0
H150 H 0.44473 0.90973 0.41699 0.0
H151 H 0.47692 0.93281 0.44169 0.0
Ho152 Ho 0.48364 0.50596 0.75518 0.0
Ho153 Ho 0.51467 0.49563 0.63978 0.0
C154 C 0.49964 0.5451 0.64703 0.0
C155 C 0.46111 0.52205 0.86203 0.0
C156 C 0.44648 0.54103 0.87214 0.0
C157 C 0.44729 0.55909 0.82463 0.0
C158 C 0.43427 0.57766 0.83766 0.0
C159 C 0.42015 0.57839 0.89819 0.0
C160 C 0.41862 0.55974 0.94345 0.0
C161 C 0.43175 0.54125 0.93058 0.0
C162 C 0.46395 0.49292 0.62957 0.0
C163 C 0.49923 0.45658 0.74935 0.0
C164 C 0.53696 0.47858 0.53433 0.0
C165 C 0.55183 0.45957 0.53104 0.0
C166 C 0.55588 0.44923 0.46451 0.0
C167 C 0.56847 0.42999 0.4619 0.0
C168 C 0.57728 0.42077 0.52593 0.0
C169 C 0.57371 0.43167 0.59234 0.0
C170 C 0.561 0.45084 0.5949 0.0
C171 C 0.5345 0.50873 0.76503 0.0
O172 O 0.49306 0.53998 0.71344 0.0
O173 O 0.50557 0.52944 0.60137 0.0
O174 O 0.45375 0.50663 0.8191 0.0
O175 O 0.48189 0.52656 0.85068 0.0
O176 O 0.45772 0.48702 0.69382 0.0
O177 O 0.48005 0.50588 0.63491 0.0
O178 O 0.50574 0.46153 0.68273 0.0
O179 O 0.49307 0.47234 0.79425 0.0
O180 O 0.54391 0.4952 0.57303 0.0
O181 O 0.5163 0.47388 0.5468 0.0
O182 O 0.54086 0.51425 0.70056 0.0
O183 O 0.51834 0.49581 0.76005 0.0
H184 H 0.45839 0.5591 0.77863 0.0
H185 H 0.43605 0.5918 0.80222 0.0
H186 H 0.40767 0.55966 0.98988 0.0
H187 H 0.43072 0.52729 0.96716 0.0
H188 H 0.54877 0.45568 0.41487 0.0
H189 H 0.57046 0.42183 0.41001 0.0
H190 H 0.58038 0.42515 0.64251 0.0
H191 H 0.55791 0.4586 0.64694 0.0
Ho192 Ho 1.00175 0.48983 0.71843 0.0
Ho193 Ho 0.01032 0.52236 0.60806 0.0
C194 C 0.96135 0.50574 0.61521 0.0
C195 C 0.98556 0.46531 0.81966 0.0
C196 C 0.96644 0.45059 0.81866 0.0
C197 C 0.95455 0.44689 0.88249 0.0
C198 C 0.93455 0.4356 0.88001 0.0
C199 C 0.92611 0.42775 0.81349 0.0
C200 C 0.93869 0.43061 0.75009 0.0
C201 C 0.95862 0.44206 0.75258 0.0
C202 C 0.01496 0.47172 0.59068 0.0
C203 C 0.05047 0.50654 0.71282 0.0
C204 C 0.02492 0.54676 0.50318 0.0
C205 C 0.0436 0.56166 0.49206 0.0
C206 C 0.06177 0.56131 0.53911 0.0
C207 C 0.08003 0.57465 0.52514 0.0
C208 C 0.08033 0.58859 0.46407 0.0
C209 C 0.0616 0.58961 0.41917 0.0
C210 C 0.0434 0.57619 0.43304 0.0
C211 C 0.99713 0.54019 0.73665 0.0
O212 O 0.96713 0.49781 0.67928 0.0
O213 O 0.97643 0.51347 0.57053 0.0
O214 O 1.00214 0.45933 0.77904 0.0
O215 O 0.98088 0.48624 0.81294 0.0
O216 O 0.02132 0.46528 0.65422 0.0
O217 O 1.00144 0.48739 0.59755 0.0
O218 O 0.04493 0.5138 0.64748 0.0
O219 O 0.03515 0.49946 0.75782 0.0
O220 O 0.01024 0.55335 0.55005 0.0
O221 O 0.02969 0.52586 0.51022 0.0
O222 O 0.99034 0.54654 0.67348 0.0
O223 O 0.01082 0.52478 0.72867 0.0
H224 H 0.96024 0.45359 0.93372 0.0
H225 H 0.92514 0.43418 0.92976 0.0
H226 H 0.93282 0.42465 0.69815 0.0
H227 H 0.96752 0.44496 0.70246 0.0
H228 H 0.06209 0.55033 0.58546 0.0
H229 H 0.09428 0.57327 0.56028 0.0
H230 H 0.06122 0.60039 0.37227 0.0
H231 H 0.02935 0.57684 0.39678 0.0
C232 C 0.19294 0.00538 0.24724 0.0
C233 C 0.19278 0.99065 0.18851 0.0
C234 C 0.17331 0.01102 0.28258 0.0
C235 C 0.11927 0.98625 0.32063 0.0
H236 H 0.10825 0.04162 0.41904 0.0
C237 C 0.07089 0.019 0.59113 0.0
C238 C 0.05123 0.0069 0.58613 0.0
C239 C 0.08566 0.01973 0.53283 0.0
C240 C 0.11111 0.026 0.39219 0.0
H241 H 0.17209 0.97091 0.11863 0.0
H242 H 0.1376 0.98113 0.17903 0.0
H243 H 0.13841 0.03891 0.33179 0.0
H244 H 0.03118 0.98678 0.51498 0.0
H245 H 0.05689 0.98817 0.4126 0.0
H246 H 0.0925 0.97311 0.38253 0.0
C247 C 0.15287 0.98827 0.19827 0.0
C248 C 0.12841 0.02447 0.34199 0.0
C249 C 0.17254 0.98267 0.16287 0.0
C250 C 0.04627 0.99615 0.52055 0.0
C251 C 0.06108 0.99685 0.46208 0.0
C252 C 0.10202 0.98777 0.37084 0.0
C253 C 0.1531 1.00184 0.26037 0.0
C254 C 0.133 0.00445 0.30654 0.0
C255 C 0.08115 0.00838 0.46783 0.0
C256 C 0.09797 0.00754 0.40849 0.0
H257 H 0.20843 0.01127 0.26907 0.0
H258 H 0.17424 0.0213 0.33054 0.0
H259 H 0.12248 0.97045 0.29546 0.0
H260 H 0.07517 0.02748 0.64094 0.0
H261 H 0.10102 0.02854 0.53985 0.0
C262 C 0.49699 0.18998 0.19726 0.0
C263 C 0.51803 0.19041 0.16569 0.0
C264 C 0.48958 0.17105 0.23356 0.0
C265 C 0.5017 0.11166 0.27086 0.0
H266 H 0.48153 0.12613 0.46477 0.0
C267 C 0.5054 0.0495 0.51057 0.0
C268 C 0.48984 0.05134 0.5667 0.0
C269 C 0.50555 0.06467 0.45302 0.0
C270 C 0.48667 0.1216 0.41048 0.0
H271 H 0.54716 0.1711 0.1428 0.0
H272 H 0.53417 0.13798 0.20458 0.0
H273 H 0.48646 0.15527 0.37603 0.0
H274 H 0.46141 0.06962 0.60436 0.0
H275 H 0.46112 0.09554 0.50321 0.0
H276 H 0.50223 0.07797 0.30584 0.0
C277 C 0.52329 0.1521 0.20149 0.0
C278 C 0.48951 0.13843 0.35935 0.0
C279 C 0.53074 0.17106 0.16584 0.0
C280 C 0.47376 0.06793 0.56222 0.0
C281 C 0.47373 0.08291 0.50441 0.0
C282 C 0.4987 0.09476 0.32195 0.0
C283 C 0.50304 0.15217 0.23861 0.0
C284 C 0.4974 0.13376 0.28922 0.0
C285 C 0.48998 0.08191 0.44989 0.0
C286 C 0.49148 0.09952 0.39298 0.0
H287 H 0.48703 0.20479 0.19889 0.0
H288 H 0.47377 0.17156 0.26077 0.0
H289 H 0.50764 0.10746 0.21715 0.0
H290 H 0.51804 0.03691 0.51267 0.0
H291 H 0.51846 0.06339 0.41271 0.0
C292 C 0.30976 0.49934 0.21672 0.0
C293 C 0.31104 0.51406 0.15808 0.0
C294 C 0.32883 0.49286 0.25382 0.0
C295 C 0.38354 0.51524 0.29679 0.0
H296 H 0.39175 0.45923 0.39436 0.0
C297 C 0.42961 0.47967 0.56835 0.0
C298 C 0.44965 0.49117 0.56454 0.0
C299 C 0.41499 0.47969 0.50953 0.0
C300 C 0.38966 0.47502 0.36781 0.0
H301 H 0.33312 0.53293 0.09023 0.0
H302 H 0.36663 0.52123 0.15373 0.0
H303 H 0.3622 0.46339 0.30538 0.0
H304 H 0.47055 0.51093 0.49492 0.0
H305 H 0.44518 0.51076 0.39165 0.0
H306 H 0.41045 0.52714 0.36066 0.0
C307 C 0.35091 0.51476 0.17155 0.0
C308 C 0.37273 0.47738 0.3166 0.0
C309 C 0.3318 0.5212 0.1344 0.0
C310 C 0.45515 0.50202 0.4996 0.0
C311 C 0.44053 0.50203 0.44062 0.0
C312 C 0.40042 0.5129 0.34803 0.0
C313 C 0.34959 0.50117 0.23348 0.0
C314 C 0.36919 0.49765 0.28129 0.0
C315 C 0.42006 0.49117 0.4452 0.0
C316 C 0.40348 0.49288 0.3853 0.0
H317 H 0.29385 0.49409 0.23703 0.0
H318 H 0.32708 0.48259 0.3016 0.0
H319 H 0.38113 0.53122 0.2718 0.0
H320 H 0.4249 0.47114 0.61766 0.0
H321 H 0.39933 0.47137 0.51566 0.0
C322 C 0.97767 0.33136 0.15446 0.0
C323 C 0.9939 0.31533 0.14158 0.0
C324 C 0.98334 0.35216 0.18089 0.0
C325 C 0.02878 0.3776 0.28761 0.0
H326 H 0.98759 0.42636 0.29137 0.0
C327 C 0.02506 0.436 0.53234 0.0
C328 C 0.01671 0.45747 0.52546 0.0
C329 C 0.02528 0.42163 0.47306 0.0
C330 C 0.99962 0.4132 0.29046 0.0
H331 H 0.02896 0.30924 0.1388 0.0
H332 H 0.03918 0.34616 0.18036 0.0
H333 H 0.98351 0.39777 0.20069 0.0
H334 H 1.00285 0.48108 0.4501 0.0
H335 H 0.00414 0.45636 0.34514 0.0
H336 H 0.04548 0.39351 0.37507 0.0
C337 C 0.02189 0.34241 0.17329 0.0
C338 C 0.99703 0.39643 0.23878 0.0
C339 C 0.01612 0.32135 0.1478 0.0
C340 C 0.00927 0.46455 0.45707 0.0
C341 C 0.00986 0.45025 0.39705 0.0
C342 C 0.03168 0.39463 0.33802 0.0
C343 C 0.00551 0.35771 0.1943 0.0
C344 C 0.01098 0.37783 0.23851 0.0
C345 C 0.0176 0.4284 0.40432 0.0
C346 C 0.01659 0.41223 0.34253 0.0
H347 H 0.96039 0.32706 0.1507 0.0
H348 H 0.97006 0.36307 0.19644 0.0
H349 H 0.03995 0.36373 0.29015 0.0
H350 H 0.03081 0.42996 0.58438 0.0
H351 H 0.03085 0.40492 0.4823 0.0
C352 C 0.82148 0.03638 0.20385 0.0
C353 C 0.80692 0.0203 0.23075 0.0
C354 C 0.841 0.03041 0.16895 0.0
C355 C 0.86641 0.98317 0.07134 0.0
H356 H 0.91591 0.02336 0.06231 0.0
C357 C 0.9285 0.98065 0.83478 0.0
C358 C 0.95011 0.98836 0.84459 0.0
C359 C 0.91311 0.98185 0.89114 0.0
C360 C 0.90251 0.01164 0.06481 0.0
H361 H 0.80236 0.98519 0.24583 0.0
H362 H 0.83699 0.97468 0.18741 0.0
H363 H 0.88651 0.03005 0.14853 0.0
H364 H 0.97286 1.00237 0.9224 0.0
H365 H 0.94628 0.00366 0.02211 0.0
H366 H 0.88277 0.96436 0.98931 0.0
C367 C 0.83291 0.992 0.19128 0.0
C368 C 0.88532 0.01572 0.11375 0.0
C369 C 0.81315 0.99803 0.2258 0.0
C370 C 0.95627 0.99644 0.91312 0.0
C371 C 0.94092 0.99734 0.97007 0.0
C372 C 0.88378 0.97889 0.0232 0.0
C373 C 0.84688 0.00811 0.16071 0.0
C374 C 0.86666 1.00195 0.11623 0.0
C375 C 0.91894 0.99047 0.95954 0.0
C376 C 0.9018 0.99342 0.01752 0.0
H377 H 0.81745 0.05374 0.2078 0.0
H378 H 0.85098 0.0434 0.14573 0.0
H379 H 0.85239 0.97216 0.07099 0.0
H380 H 0.92319 0.97439 0.78253 0.0
H381 H 0.89638 0.97674 0.87979 0.0
C382 C 0.47891 0.83109 0.25355 0.0
C383 C 0.48878 0.81141 0.23028 0.0
C384 C 0.48466 0.85122 0.22146 0.0
C385 C 0.52424 0.8785 0.0942 0.0
H386 H 0.47276 0.91204 0.03635 0.0
C387 C 0.49744 0.96009 0.90941 0.0
C388 C 0.51062 0.95601 0.84815 0.0
C389 C 0.49715 0.94515 0.96766 0.0
C390 C 0.48742 0.90322 0.05308 0.0
H391 H 0.51281 0.79725 0.15737 0.0
H392 H 0.52309 0.83232 0.10153 0.0
H393 H 0.4687 0.88123 0.11965 0.0
H394 H 0.53457 0.93368 0.80132 0.0
H395 H 0.53392 0.90764 0.90178 0.0
H396 H 0.54286 0.9002 0.02595 0.0
C397 C 0.51118 0.83243 0.14533 0.0
C398 C 0.48509 0.88547 0.10108 0.0
C399 C 0.50541 0.81231 0.17746 0.0
C400 C 0.5242 0.93726 0.84772 0.0
C401 C 0.52393 0.92237 0.90574 0.0
C402 C 0.52658 0.8963 0.04627 0.0
C403 C 0.50026 0.85204 0.16491 0.0
C404 C 0.50339 0.87257 0.1212 0.0
C405 C 0.51008 0.92585 0.96596 0.0
C406 C 0.50812 0.90862 0.02377 0.0
H407 H 0.46572 0.83071 0.29317 0.0
H408 H 0.47614 0.86601 0.23866 0.0
H409 H 0.53874 0.86915 0.10927 0.0
H410 H 0.48685 0.97446 0.91141 0.0
H411 H 0.48652 0.94857 0.01354 0.0
C412 C 0.67827 0.47276 0.18994 0.0
C413 C 0.69225 0.48994 0.21212 0.0
C414 C 0.6573 0.47724 0.16239 0.0
C415 C 0.62836 0.52285 0.06867 0.0
H416 H 0.58242 0.47876 0.05449 0.0
C417 C 0.57004 0.51965 0.82313 0.0
C418 C 0.54887 0.51057 0.82983 0.0
C419 C 0.58455 0.51975 0.88208 0.0
C420 C 0.59479 0.49153 0.0585 0.0
H421 H 0.69436 0.52511 0.22978 0.0
H422 H 0.65724 0.533 0.18475 0.0
H423 H 0.61152 0.47438 0.14376 0.0
H424 H 0.52593 0.49533 0.9045 0.0
H425 H 0.551 0.49615 0.00859 0.0
H426 H 0.61137 0.54027 0.98471 0.0
C427 C 0.66278 0.51605 0.18611 0.0
C428 C 0.61178 0.48883 0.10929 0.0
C429 C 0.68393 0.51153 0.21322 0.0
C430 C 0.54221 0.50232 0.89767 0.0
C431 C 0.55669 0.50266 0.95715 0.0
C432 C 0.61119 0.52572 0.01873 0.0
C433 C 0.64957 0.49906 0.15695 0.0
C434 C 0.62929 0.50402 0.11332 0.0
C435 C 0.57824 0.51107 0.94994 0.0
C436 C 0.59458 0.5097 0.01089 0.0
H437 H 0.68423 0.45593 0.1887 0.0
H438 H 0.64794 0.46362 0.14038 0.0
H439 H 0.64147 0.53492 0.06932 0.0
H440 H 0.5757 0.52608 0.77151 0.0
H441 H 0.60105 0.52597 0.87331 0.0
C442 C 0.03477 0.67063 0.21947 0.0
C443 C 0.02231 0.69015 0.22122 0.0
C444 C 0.02795 0.65263 0.17768 0.0
C445 C 0.99677 0.64127 0.01159 0.0
H446 H 0.00607 0.58008 0.06398 0.0
C447 C 0.98053 0.57188 0.80418 0.0
C448 C 0.99577 0.55448 0.80186 0.0
C449 C 0.98061 0.58692 0.86186 0.0
C450 C 0.00355 0.59707 0.04812 0.0
H451 H 0.99242 0.7058 0.18324 0.0
H452 H 0.98036 0.67425 0.10995 0.0
H453 H 0.01127 0.60888 0.155 0.0
H454 H 0.02263 0.53873 0.85944 0.0
H455 H 0.02321 0.56522 0.95925 0.0
H456 H 0.98991 0.62976 0.90429 0.0
C457 C 0.99549 0.67291 0.14082 0.0
C458 C 0.00643 0.6136 0.10054 0.0
C459 C 1.00223 0.69088 0.18341 0.0
C460 C 0.01062 0.55195 0.85982 0.0
C461 C 0.01087 0.56713 0.91728 0.0
C462 C 0.99405 0.6248 0.95911 0.0
C463 C 0.0086 0.65378 0.13588 0.0
C464 C 0.00333 0.63594 0.08272 0.0
C465 C 0.99611 0.58509 0.91851 0.0
C466 C 0.99764 0.60245 0.97625 0.0
H467 H 0.05037 0.66967 0.24789 0.0
H468 H 0.03855 0.63829 0.17487 0.0
H469 H 0.99463 0.6583 0.99548 0.0
H470 H 0.96876 0.57413 0.76057 0.0
H471 H 0.96864 0.60015 0.86147 0.0
C472 C 0.93597 0.25224 0.28365 0.0
C473 C 0.9588 0.25518 0.27928 0.0
C474 C 0.92671 0.24211 0.34459 0.0
C475 C 0.91696 0.20193 0.43402 0.0
H476 H 0.94719 0.19689 0.61878 0.0
C477 C 0.91623 0.12012 0.57703 0.0
C478 C 0.93808 0.11267 0.58132 0.0
C479 C 0.91181 0.14267 0.5714 0.0
C480 C 0.93823 0.19833 0.56809 0.0
H481 H 0.98989 0.25128 0.33492 0.0
H482 H 0.97411 0.23267 0.43984 0.0
H483 H 0.95193 0.23008 0.54534 0.0
H484 H 0.97216 0.1226 0.5921 0.0
H485 H 0.9646 0.16181 0.58148 0.0
H486 H 0.90441 0.16974 0.45415 0.0
C487 C 0.96304 0.23868 0.39816 0.0
C488 C 0.94104 0.21725 0.5258 0.0
C489 C 0.9722 0.24909 0.33776 0.0
C490 C 0.95521 0.12804 0.5875 0.0
C491 C 0.9508 0.15051 0.58248 0.0
C492 C 0.91402 0.18316 0.47647 0.0
C493 C 0.94026 0.23435 0.40123 0.0
C494 C 0.93165 0.21855 0.45601 0.0
C495 C 0.92918 0.158 0.57052 0.0
C496 C 0.92583 0.18053 0.5415 0.0
H497 H 0.92543 0.25708 0.2389 0.0
H498 H 0.90909 0.23939 0.3457 0.0
H499 H 0.90945 0.20221 0.38069 0.0
H500 H 0.90277 0.10849 0.57276 0.0
H501 H 0.89498 0.14801 0.56284 0.0
C502 C 0.25471 0.91325 0.2285 0.0
C503 C 0.24897 0.93461 0.25043 0.0
C504 C 0.26813 0.90015 0.27264 0.0
C505 C 0.30096 0.90193 0.44743 0.0
H506 H 0.34613 0.87792 0.32173 0.0
C507 C 0.39101 0.90106 0.5398 0.0
C508 C 0.40502 0.91051 0.48752 0.0
C509 C 0.37007 0.89346 0.52014 0.0
C510 C 0.33367 0.88448 0.35787 0.0
H511 H 0.25111 0.95856 0.337 0.0
H512 H 0.27538 0.93659 0.412 0.0
H513 H 0.3098 0.88453 0.2736 0.0
H514 H 0.40833 0.91862 0.3733 0.0
H515 H 0.37217 0.90588 0.3394 0.0
H516 H 0.32583 0.90436 0.52906 0.0
C517 C 0.26915 0.92924 0.36257 0.0
C518 C 0.31254 0.88797 0.33054 0.0
C519 C 0.25529 0.94205 0.31932 0.0
C520 C 0.39815 0.91111 0.41477 0.0
C521 C 0.3773 0.90366 0.39526 0.0
C522 C 0.32231 0.89898 0.47422 0.0
C523 C 0.2767 0.90853 0.33822 0.0
C524 C 0.29627 0.89814 0.37356 0.0
C525 C 0.36272 0.89527 0.44788 0.0
C526 C 0.33924 0.8916 0.42811 0.0
H527 H 0.24979 0.90718 0.1756 0.0
H528 H 0.27289 0.88403 0.253 0.0
H529 H 0.28864 0.90885 0.48331 0.0
H530 H 0.396 0.90011 0.59621 0.0
H531 H 0.35939 0.88685 0.5619 0.0
C532 C 0.58769 0.26265 0.22893 0.0
C533 C 0.57094 0.24762 0.24694 0.0
C534 C 0.59797 0.2751 0.28291 0.0
C535 C 0.58068 0.29766 0.45695 0.0
H536 H 0.63402 0.33197 0.43327 0.0
C537 C 0.60122 0.39271 0.46402 0.0
C538 C 0.58816 0.39883 0.52373 0.0
C539 C 0.60742 0.37076 0.45402 0.0
C540 C 0.61916 0.32241 0.44119 0.0
H541 H 0.55414 0.23172 0.33704 0.0
H542 H 0.5729 0.25251 0.43093 0.0
H543 H 0.63033 0.29669 0.37046 0.0
H544 H 0.57341 0.387 0.62392 0.0
H545 H 0.58484 0.34894 0.6076 0.0
H546 H 0.56886 0.32371 0.52364 0.0
C547 C 0.57742 0.2554 0.37481 0.0
C548 C 0.61702 0.30221 0.40516 0.0
C549 C 0.56683 0.24324 0.32075 0.0
C550 C 0.58342 0.38293 0.57714 0.0
C551 C 0.58981 0.36102 0.56749 0.0
C552 C 0.58285 0.3177 0.49299 0.0
C553 C 0.59198 0.27252 0.35625 0.0
C554 C 0.59725 0.29018 0.40957 0.0
C555 C 0.60082 0.35448 0.50385 0.0
C556 C 0.60161 0.33087 0.48255 0.0
H557 H 0.59181 0.26591 0.17269 0.0
H558 H 0.60916 0.28802 0.26618 0.0
H559 H 0.56509 0.28913 0.46136 0.0
H560 H 0.60564 0.40467 0.42284 0.0
H561 H 0.61586 0.36637 0.40427 0.0
C562 C 0.25138 0.59393 0.18807 0.0
C563 C 0.25673 0.57266 0.21205 0.0
C564 C 0.23813 0.60762 0.23073 0.0
C565 C 0.20499 0.60777 0.40498 0.0
H566 H 0.16043 0.63155 0.27634 0.0
C567 C 0.11489 0.60959 0.49489 0.0
C568 C 0.10096 0.59998 0.44273 0.0
C569 C 0.13585 0.61716 0.47528 0.0
C570 C 0.17271 0.62505 0.31329 0.0
H571 H 0.25403 0.54948 0.30079 0.0
H572 H 0.23006 0.57247 0.37325 0.0
H573 H 0.19676 0.62407 0.22963 0.0
H574 H 0.09775 0.59165 0.32868 0.0
H575 H 0.13394 0.60426 0.2949 0.0
H576 H 0.17993 0.60621 0.48612 0.0
C577 C 0.23648 0.57931 0.32329 0.0
C578 C 0.19385 0.62107 0.28675 0.0
C579 C 0.25018 0.56591 0.28149 0.0
C580 C 0.10789 0.59926 0.37006 0.0
C581 C 0.12876 0.60665 0.35061 0.0
C582 C 0.18363 0.61119 0.43098 0.0
C583 C 0.22932 0.59993 0.2969 0.0
C584 C 0.20988 0.61094 0.33093 0.0
C585 C 0.14331 0.6151 0.40322 0.0
C586 C 0.16688 0.61846 0.38388 0.0
H587 H 0.25649 0.59949 0.13473 0.0
H588 H 0.23367 0.62365 0.20951 0.0
H589 H 0.21713 0.60094 0.44171 0.0
H590 H 0.10985 0.61065 0.55121 0.0
H591 H 0.14648 0.62386 0.51702 0.0
C592 C 0.08035 0.74884 0.13345 0.0
C593 C 0.08125 0.74694 0.20943 0.0
C594 C 0.09386 0.76389 0.09739 0.0
C595 C 0.11456 0.81786 0.14261 0.0
H596 H 0.12658 0.81974 0.93596 0.0
C597 C 0.10823 0.89966 0.99706 0.0
C598 C 0.09403 0.89866 0.93676 0.0
C599 C 0.11813 0.88054 0.02409 0.0
C600 C 0.12346 0.8195 0.99387 0.0
H601 H 0.0991 0.75677 0.30597 0.0
H602 H 0.123 0.78287 0.24281 0.0
H603 H 0.12444 0.7842 0.99807 0.0
H604 H 0.0812 0.87716 0.85269 0.0
H605 H 0.09735 0.84377 0.90191 0.0
H606 H 0.11184 0.85278 0.13823 0.0
C607 C 0.11146 0.7732 0.2113 0.0
C608 C 0.12231 0.79914 0.02947 0.0
C609 C 0.09782 0.75824 0.24747 0.0
C610 C 0.09152 0.87843 0.9005 0.0
C611 C 0.10116 0.85928 0.92808 0.0
C612 C 0.11563 0.83812 0.10715 0.0
C613 C 0.10856 0.77726 0.13666 0.0
C614 C 0.11667 0.79808 0.1035 0.0
C615 C 0.11378 0.85995 0.99216 0.0
C616 C 0.11891 0.83915 0.03163 0.0
H617 H 0.0677 0.74042 0.10263 0.0
H618 H 0.09107 0.76658 0.03996 0.0
H619 H 0.10996 0.81779 0.19945 0.0
H620 H 0.11064 0.91492 0.02644 0.0
H621 H 0.12815 0.88175 0.07259 0.0
C622 C 0.71583 0.06168 0.18949 0.0
C623 C 0.73855 0.0656 0.19638 0.0
C624 C 0.70264 0.07568 0.14875 0.0
C625 C 0.70007 0.1082 0.99142 0.0
H626 H 0.64369 0.12308 0.07698 0.0
C627 C 0.62027 0.0889 0.85514 0.0
C628 C 0.60032 0.09687 0.88364 0.0
C629 C 0.64034 0.09735 0.87918 0.0
C630 C 0.65942 0.1199 0.05141 0.0
H631 H 0.76529 0.08713 0.16333 0.0
H632 H 0.74191 0.11135 0.08845 0.0
H633 H 0.67456 0.11464 0.15477 0.0
H634 H 0.58582 0.12238 0.95111 0.0
H635 H 0.62077 0.1379 0.98991 0.0
H636 H 0.68461 0.11223 0.88775 0.0
C637 C 0.73453 0.0976 0.11695 0.0
C638 C 0.67714 0.11491 0.09651 0.0
C639 C 0.74784 0.08367 0.15926 0.0
C640 C 0.60084 0.11556 0.92875 0.0
C641 C 0.62096 0.12434 0.95169 0.0
C642 C 0.68233 0.11343 0.94595 0.0
C643 C 0.71176 0.09381 0.11244 0.0
C644 C 0.69704 0.10739 0.06689 0.0
C645 C 0.64095 0.11428 0.93145 0.0
C646 C 0.6613 0.11757 0.97555 0.0
H647 H 0.70816 0.0475 0.21469 0.0
H648 H 0.68522 0.07199 0.14419 0.0
H649 H 0.71537 0.10261 0.96738 0.0
H650 H 0.62045 0.07506 0.81801 0.0
H651 H 0.65522 0.08912 0.86157 0.0
C652 C 0.4421 0.74859 0.08871 0.0
C653 C 0.43418 0.7551 0.15678 0.0
C654 C 0.42943 0.73496 0.04433 0.0
C655 C 0.38715 0.69238 0.07304 0.0
H656 H 0.40483 0.67857 0.87611 0.0
C657 C 0.40935 0.60623 0.99124 0.0
C658 C 0.40905 0.5993 0.91853 0.0
C659 C 0.40215 0.62724 0.01006 0.0
C660 C 0.39909 0.68226 0.93044 0.0
H661 H 0.40613 0.75486 0.22905 0.0
H662 H 0.38322 0.73221 0.14957 0.0
H663 H 0.4097 0.71572 0.9219 0.0
H664 H 0.39941 0.60842 0.80914 0.0
H665 H 0.38665 0.64533 0.84222 0.0
H666 H 0.37642 0.65898 0.08133 0.0
C667 C 0.39958 0.73664 0.13142 0.0
C668 C 0.40225 0.70357 0.95727 0.0
C669 C 0.41254 0.74981 0.17672 0.0
C670 C 0.40013 0.61344 0.86554 0.0
C671 C 0.39281 0.63455 0.8845 0.0
C672 C 0.38348 0.67128 0.04563 0.0
C673 C 0.40838 0.72784 0.06677 0.0
C674 C 0.39796 0.70842 0.03073 0.0
C675 C 0.39435 0.64194 0.95676 0.0
C676 C 0.39102 0.66551 0.97605 0.0
H677 H 0.45885 0.75241 0.07267 0.0
H678 H 0.43708 0.72853 0.99567 0.0
H679 H 0.38332 0.69524 0.12964 0.0
H680 H 0.41645 0.59596 0.03329 0.0
H681 H 0.40413 0.63238 0.06599 0.0
C682 C 0.75311 0.44247 0.06305 0.0
C683 C 0.76017 0.46263 0.09251 0.0
C684 C 0.76436 0.43307 0.00429 0.0
C685 C 0.80577 0.44603 0.86197 0.0
H686 H 0.82879 0.38772 0.90215 0.0
C687 C 0.89423 0.40738 0.86817 0.0
C688 C 0.90316 0.41929 0.80977 0.0
C689 C 0.87149 0.40481 0.87465 0.0
C690 C 0.82239 0.40394 0.88949 0.0
H691 H 0.78355 0.48937 0.08176 0.0
H692 H 0.80322 0.47307 0.98035 0.0
H693 H 0.79706 0.40123 0.96989 0.0
H694 H 0.89536 0.43495 0.70674 0.0
H695 H 0.8559 0.42938 0.71613 0.0
H696 H 0.83225 0.44995 0.7878 0.0
C697 C 0.78901 0.46446 1.00178 0.0
C698 C 0.80402 0.41157 0.92777 0.0
C699 C 0.77797 0.47367 0.06059 0.0
C700 C 0.88911 0.42586 0.75295 0.0
C701 C 0.86636 0.4229 0.75875 0.0
C702 C 0.82423 0.43855 0.82447 0.0
C703 C 0.78255 0.44393 0.97355 0.0
C704 C 0.79653 0.43327 0.91775 0.0
C705 C 0.85718 0.4138 0.82219 0.0
C706 C 0.83372 0.418 0.84146 0.0
H707 H 0.73936 0.43369 0.08686 0.0
H708 H 0.75908 0.41722 0.98368 0.0
H709 H 0.79993 0.46263 0.85184 0.0
H710 H 0.90467 0.40146 0.91171 0.0
H711 H 0.86523 0.3976 0.9243 0.0
C712 C 0.00666 0.23125 0.00883 0.0
C713 C 0.98568 0.23815 0.0319 0.0
C714 C 0.00914 0.21154 0.96924 0.0
C715 C 0.98209 0.15797 0.9566 0.0
H716 H 0.01871 0.1465 0.7883 0.0
C717 C 0.00475 0.06954 0.86725 0.0
C718 C 1.00173 0.06439 0.79343 0.0
C719 C 0.00355 0.09139 0.89149 0.0
C720 C 0.00839 0.14949 0.83525 0.0
H721 H 0.9508 0.23086 0.02642 0.0
H722 H 0.9551 0.19676 0.95783 0.0
H723 H 0.01523 0.18432 0.83518 0.0
H724 H 0.99537 0.07845 0.68701 0.0
H725 H 0.99361 0.11666 0.72945 0.0
H726 H 0.97546 0.12331 0.95784 0.0
C727 C 0.96966 0.20628 0.97092 0.0
C728 C 0.00651 0.1711 0.86226 0.0
C729 C 0.96719 0.22591 0.00972 0.0
C730 C 0.99783 0.08177 0.74426 0.0
C731 C 0.99692 0.1037 0.76845 0.0
C732 C 0.98427 0.13643 0.93053 0.0
C733 C 0.99069 0.19838 0.95262 0.0
C734 C 0.99319 0.1756 0.92301 0.0
C735 C 0.99955 0.10875 0.84252 0.0
C736 C 0.9974 0.13188 0.86948 0.0
H737 H 0.02121 0.2402 0.02577 0.0
H738 H 0.02557 0.20588 0.95584 0.0
H739 H 0.97188 0.16081 0.00394 0.0
H740 H 0.00776 0.05664 0.90672 0.0
H741 H 0.0058 0.09473 0.94882 0.0
C742 C 0.27196 0.96427 0.99055 0.0
C743 C 0.26147 0.98054 0.0326 0.0
C744 C 0.29038 0.96934 0.94821 0.0
C745 C 0.33535 0.01085 0.93937 0.0
H746 H 0.3537 0.97497 0.7761 0.0
C747 C 0.42656 0.00641 0.85281 0.0
C748 C 0.43206 1.00283 0.77959 0.0
C749 C 0.40463 0.00557 0.87603 0.0
C750 C 0.34885 0.98545 0.8209 0.0
H751 H 0.26107 0.01536 0.05801 0.0
H752 H 0.29268 0.02454 0.98133 0.0
H753 H 0.31649 0.97153 0.82297 0.0
H754 H 0.41862 0.99575 0.67308 0.0
H755 H 0.38026 0.99499 0.7129 0.0
H756 H 0.36744 0.02529 0.93586 0.0
C757 C 0.28714 0.0076 0.98314 0.0
C758 C 0.32745 0.98322 0.84868 0.0
C759 C 0.26873 1.00244 0.02622 0.0
C760 C 0.41499 0.9985 0.72997 0.0
C761 C 0.39295 0.99794 0.75306 0.0
C762 C 0.35663 0.0133 0.91096 0.0
C763 C 0.29878 0.99095 0.94569 0.0
C764 C 0.32052 0.99548 0.90959 0.0
C765 C 0.3874 1.00142 0.8266 0.0
C766 C 0.36395 1.00024 0.85243 0.0
H767 H 0.26666 0.94725 0.99371 0.0
H768 H 0.29876 0.95593 0.92105 0.0
H769 H 0.33092 0.0205 0.98658 0.0
H770 H 0.43927 0.00957 0.89279 0.0
H771 H 0.4013 0.00778 0.93333 0.0
C772 C 0.54212 0.27364 0.98789 0.0
C773 C 0.5255 0.26309 0.02821 0.0
C774 C 0.53759 0.29269 0.94804 0.0
C775 C 0.49611 0.32806 0.86349 0.0
H776 H 0.5337 0.37587 0.92858 0.0
C777 C 0.50228 0.4156 0.72752 0.0
C778 C 0.50036 0.43345 0.77598 0.0
C779 C 0.50371 0.39389 0.75366 0.0
C780 C 0.52309 0.36271 0.90978 0.0
H781 H 0.49066 0.26326 0.05322 0.0
H782 H 0.48254 0.29653 0.98128 0.0
H783 H 0.53886 0.33888 0.97808 0.0
H784 H 0.4985 0.44235 0.88996 0.0
H785 H 0.50162 0.40467 0.93516 0.0
H786 H 0.48059 0.35208 0.79411 0.0
C787 C 0.49915 0.29002 0.98153 0.0
C788 C 0.5261 0.34151 0.93784 0.0
C789 C 0.50376 0.27093 0.02233 0.0
C790 C 0.49989 0.42905 0.851 0.0
C791 C 0.50174 0.40745 0.87702 0.0
C792 C 0.49338 0.3493 0.83413 0.0
C793 C 0.51624 0.30158 0.94656 0.0
C794 C 0.51264 0.32395 0.91527 0.0
C795 C 0.50372 0.38963 0.82877 0.0
C796 C 0.50676 0.36687 0.85747 0.0
H797 H 0.55899 0.26788 0.9908 0.0
H798 H 0.55101 0.30105 0.92078 0.0
H799 H 0.48553 0.31483 0.8451 0.0
H800 H 0.50267 0.41841 0.66942 0.0
H801 H 0.50538 0.38047 0.71524 0.0
C802 C 0.23409 0.5421 0.95292 0.0
C803 C 0.24384 0.52578 0.99674 0.0
C804 C 0.21575 0.53733 0.90981 0.0
C805 C 0.16956 0.49725 0.90171 0.0
H806 H 0.15305 0.53254 0.73483 0.0
C807 C 0.07895 0.50411 0.81118 0.0
C808 C 0.07382 0.5071 0.73737 0.0
C809 C 0.10081 0.50452 0.8352 0.0
C810 C 0.15739 0.52224 0.78067 0.0
H811 H 0.24302 0.49113 0.02451 0.0
H812 H 0.21157 0.48245 0.94655 0.0
H813 H 0.19018 0.53511 0.78321 0.0
H814 H 0.08782 0.51274 0.63071 0.0
H815 H 0.12605 0.51277 0.67206 0.0
H816 H 0.13703 0.48386 0.89785 0.0
C817 C 0.21763 0.49922 0.94754 0.0
C818 C 0.17873 0.52395 0.80927 0.0
C819 C 0.23595 0.50408 0.99138 0.0
C820 C 0.09117 0.51046 0.68802 0.0
C821 C 0.11314 0.51059 0.71195 0.0
C822 C 0.14834 0.49531 0.87252 0.0
C823 C 0.20671 0.51598 0.9083 0.0
C824 C 0.18501 0.51191 0.87144 0.0
C825 C 0.11832 0.50761 0.78603 0.0
C826 C 0.14169 0.50819 0.81269 0.0
H827 H 0.2399 0.55896 0.95521 0.0
H828 H 0.20794 0.55082 0.88122 0.0
H829 H 0.17349 0.48779 0.94987 0.0
H830 H 0.06602 0.50171 0.85095 0.0
H831 H 0.10388 0.50276 0.89283 0.0
C832 C 1.00221 0.77165 0.35593 0.0
C833 C 0.02001 0.75882 0.38013 0.0
C834 C 0.9961 0.79082 0.39356 0.0
C835 C 0.00402 0.82275 0.5651 0.0
H836 H 0.99949 0.87343 0.43783 0.0
C837 C 0.01137 0.91272 0.6721 0.0
C838 C 0.9993 0.92935 0.63669 0.0
C839 C 0.01163 0.8911 0.64485 0.0
C840 C 1.00028 0.85951 0.47454 0.0
H841 H 0.04454 0.75521 0.46453 0.0
H842 H 0.03362 0.78824 0.53118 0.0
H843 H 1.0021 0.83673 0.38598 0.0
H844 H 0.97737 0.93598 0.54625 0.0
H845 H 0.97729 0.89847 0.5003 0.0
H846 H 1.00229 0.84557 0.65377 0.0
C847 C 0.02429 0.78361 0.48343 0.0
C848 C 1.00178 0.83836 0.44456 0.0
C849 C 0.03051 0.76462 0.44545 0.0
C850 C 0.98708 0.9237 0.57453 0.0
C851 C 0.98715 0.9021 0.5478 0.0
C852 C 1.00233 0.84394 0.59522 0.0
C853 C 0.0076 0.79746 0.4564 0.0
C854 C 0.00388 0.81969 0.48931 0.0
C855 C 0.99966 0.88549 0.58184 0.0
C856 C 1.00064 0.86269 0.55035 0.0
H857 H 0.99411 0.76778 0.30507 0.0
H858 H 0.98299 0.80097 0.37172 0.0
H859 H 0.00548 0.80873 0.60122 0.0
H860 H 0.02102 0.91649 0.72 0.0
H861 H 0.0217 0.87894 0.67228 0.0
C862 C 0.72614 0.99655 0.38151 0.0
C863 C 0.74084 0.01344 0.40039 0.0
C864 C 0.7076 0.99221 0.42452 0.0
C865 C 0.67118 0.02263 0.55148 0.0
H866 H 0.63915 0.96743 0.55529 0.0
C867 C 0.58466 0.01437 0.68426 0.0
C868 C 0.56881 1.00302 0.64288 0.0
C869 C 0.60695 0.01406 0.66411 0.0
C870 C 0.64787 0.98299 0.55453 0.0
H871 H 0.74859 0.03801 0.48136 0.0
H872 H 0.71701 0.02967 0.55897 0.0
H873 H 0.67679 0.96826 0.50881 0.0
H874 H 0.56415 0.98221 0.54835 0.0
H875 H 0.60289 0.98163 0.5136 0.0
H876 H 0.64217 0.03734 0.59673 0.0
C877 C 0.71934 0.0201 0.50994 0.0
C878 C 0.66949 0.98349 0.52779 0.0
C879 C 0.73775 0.02457 0.46644 0.0
C880 C 0.57585 0.99118 0.58145 0.0
C881 C 0.59813 0.99069 0.5618 0.0
C882 C 0.64966 0.02208 0.57881 0.0
C883 C 0.70336 0.00467 0.48762 0.0
C884 C 0.68136 1.00341 0.52454 0.0
C885 C 0.61397 1.0022 0.60261 0.0
C886 C 0.63756 1.00234 0.57941 0.0
H887 H 0.72779 0.98819 0.32978 0.0
H888 H 0.69572 0.98034 0.4048 0.0
H889 H 0.67945 0.03841 0.5487 0.0
H890 H 0.57985 0.02366 0.73192 0.0
H891 H 0.61872 0.02301 0.69701 0.0
C892 C 0.46298 0.72975 0.41575 0.0
C893 C 0.47936 0.74031 0.37446 0.0
C894 C 0.46783 0.71095 0.45664 0.0
C895 C 0.50824 0.66505 0.46128 0.0
H896 H 0.47348 0.6473 0.62785 0.0
C897 C 0.50218 0.57375 0.54869 0.0
C898 C 0.49945 0.5685 0.62253 0.0
C899 C 0.50172 0.5957 0.52511 0.0
C900 C 0.48363 0.65197 0.58205 0.0
H901 H 0.51411 0.74029 0.34823 0.0
H902 H 0.52288 0.70784 0.42201 0.0
H903 H 0.47045 0.68468 0.58179 0.0
H904 H 0.49439 0.58239 0.7297 0.0
H905 H 0.4942 0.62065 0.68912 0.0
H906 H 0.52185 0.63252 0.46266 0.0
C907 C 0.50606 0.71375 0.42107 0.0
C908 C 0.48165 0.67346 0.55483 0.0
C909 C 0.50114 0.7326 0.37968 0.0
C910 C 0.49643 0.58581 0.67233 0.0
C911 C 0.4962 0.60781 0.64885 0.0
C912 C 0.5104 0.64363 0.48898 0.0
C913 C 0.4893 0.70218 0.45811 0.0
C914 C 0.49354 0.68021 0.49298 0.0
C915 C 0.49875 0.61312 0.57475 0.0
C916 C 0.49777 0.63657 0.54885 0.0
H917 H 0.44605 0.73534 0.41313 0.0
H918 H 0.45436 0.7026 0.48353 0.0
H919 H 0.51757 0.66939 0.41326 0.0
H920 H 0.50438 0.56086 0.50864 0.0
H921 H 0.50326 0.59891 0.46749 0.0
C922 C 0.78355 0.51407 0.31557 0.0
C923 C 0.76748 0.4983 0.33286 0.0
C924 C 0.80194 0.51709 0.36023 0.0
C925 C 0.83602 0.48566 0.49087 0.0
H926 H 0.86809 0.54075 0.50255 0.0
C927 C 0.92191 0.49351 0.63148 0.0
C928 C 0.93781 0.50558 0.59251 0.0
C929 C 0.89977 0.49345 0.60936 0.0
C930 C 0.85939 0.5252 0.49959 0.0
H931 H 0.75749 0.47397 0.41203 0.0
H932 H 0.78937 0.47963 0.49187 0.0
H933 H 0.83101 0.54034 0.45183 0.0
H934 H 0.94273 0.52712 0.4999 0.0
H935 H 0.90431 0.5271 0.46182 0.0
H936 H 0.8646 0.47055 0.53817 0.0
C937 C 0.78792 0.48953 0.44315 0.0
C938 C 0.83807 0.52495 0.47043 0.0
C939 C 0.76944 0.48653 0.39822 0.0
C940 C 0.93099 0.51764 0.53125 0.0
C941 C 0.90888 0.51777 0.50969 0.0
C942 C 0.85731 0.48594 0.52057 0.0
C943 C 0.80483 0.50431 0.42342 0.0
C944 C 0.82625 0.50509 0.46394 0.0
C945 C 0.89295 0.50568 0.54834 0.0
C946 C 0.86948 0.50564 0.52368 0.0
H947 H 0.78264 0.52301 0.26467 0.0
H948 H 0.8146 0.52842 0.34234 0.0
H949 H 0.82765 0.46997 0.48606 0.0
H950 H 0.92658 0.48397 0.67881 0.0
H951 H 0.88794 0.48401 0.64053 0.0
loop_
_geom_bond_atom_site_label_1
_geom_bond_atom_site_label_2
_geom_bond_distance
_geom_bond_site_symmetry_2
_ccdc_geom_bond_type
H0 C3 0.931 . S
H1 C6 0.928 . S
H2 C8 0.930 . S
C3 H0 0.931 . S
C3 C4 1.413 . S
C3 C5 1.360 . S
C4 C3 1.413 . S
C4 C8 1.429 . S
C5 C3 1.360 . S
C5 C6 1.372 . S
C6 H1 0.928 . S
C6 C5 1.372 . S
C6 C7 1.404 . S
C7 C6 1.404 . S
C7 C8 1.391 . S
C8 H2 0.930 . S
C8 C4 1.429 . S
C8 C7 1.391 . S
H9 C12 0.931 . S
H10 C15 0.928 . S
H11 C17 0.930 . S
C12 H9 0.931 . S
C12 C13 1.413 . S
C12 C14 1.360 . S
C13 C12 1.413 . S
C13 C17 1.429 1_655 S
C14 C12 1.360 . S
C14 C15 1.372 . S
C15 H10 0.928 . S
C15 C14 1.372 . S
C15 C16 1.404 . S
C16 C15 1.404 . S
C16 C17 1.390 1_655 S
C17 H11 0.930 . S
C17 C13 1.429 1_455 S
C17 C16 1.390 1_455 S
H18 C21 0.931 . S
H19 C24 0.928 . S
H20 C26 0.930 . S
C21 H18 0.931 . S
C21 C22 1.413 . S
C21 C23 1.360 . S
C22 C21 1.413 . S
C22 C26 1.429 1_565 S
C23 C21 1.360 . S
C23 C24 1.372 . S
C24 H19 0.928 . S
C24 C23 1.372 . S
C24 C25 1.404 . S
C25 C24 1.404 . S
C25 C26 1.390 1_565 S
C26 H20 0.930 . S
C26 C22 1.429 1_545 S
C26 C25 1.390 1_545 S
H27 C30 0.931 . S
H28 C33 0.928 . S
H29 C35 0.930 . S
C30 H27 0.931 . S
C30 C31 1.413 . S
C30 C32 1.360 . S
C31 C30 1.413 . S
C31 C35 1.429 . S
C32 C30 1.360 . S
C32 C33 1.372 . S
C33 H28 0.928 . S
C33 C32 1.372 . S
C33 C34 1.404 . S
C34 C33 1.404 . S
C34 C35 1.391 . S
C35 H29 0.930 . S
C35 C31 1.429 . S
C35 C34 1.391 . S
H36 C39 0.931 . S
H37 C42 0.928 . S
H38 C44 0.930 . S
C39 H36 0.931 . S
C39 C40 1.413 1_554 S
C39 C41 1.360 . S
C40 C39 1.413 1_556 S
C40 C44 1.429 . S
C41 C39 1.360 . S
C41 C42 1.372 . S
C42 H37 0.928 . S
C42 C41 1.372 . S
C42 C43 1.404 . S
C43 C42 1.404 . S
C43 C44 1.391 1_554 S
C44 H38 0.930 . S
C44 C40 1.429 . S
C44 C43 1.391 1_556 S
H45 C48 0.931 . S
H46 C51 0.928 . S
H47 C53 0.930 . S
C48 H45 0.931 . S
C48 C49 1.413 1_554 S
C48 C50 1.360 . S
C49 C48 1.413 1_556 S
C49 C53 1.429 1_655 S
C50 C48 1.360 . S
C50 C51 1.372 . S
C51 H46 0.928 . S
C51 C50 1.372 . S
C51 C52 1.404 . S
C52 C51 1.404 . S
C52 C53 1.391 1_654 S
C53 H47 0.930 . S
C53 C49 1.429 1_455 S
C53 C52 1.391 1_456 S
H54 C57 0.931 . S
H55 C60 0.928 . S
H56 C62 0.930 . S
C57 H54 0.931 . S
C57 C58 1.413 1_554 S
C57 C59 1.360 . S
C58 C57 1.413 1_556 S
C58 C62 1.429 1_565 S
C59 C57 1.360 . S
C59 C60 1.372 . S
C60 H55 0.928 . S
C60 C59 1.372 . S
C60 C61 1.404 . S
C61 C60 1.404 . S
C61 C62 1.391 1_564 S
C62 H56 0.930 . S
C62 C58 1.429 1_545 S
C62 C61 1.391 1_546 S
H63 C66 0.931 . S
H64 C69 0.928 . S
H65 C71 0.930 . S
C66 H63 0.931 . S
C66 C67 1.413 . S
C66 C68 1.360 1_554 S
C67 C66 1.413 . S
C67 C71 1.429 . S
C68 C66 1.360 1_556 S
C68 C69 1.372 . S
C69 H64 0.928 . S
C69 C68 1.372 . S
C69 C70 1.404 1_556 S
C70 C69 1.404 1_554 S
C70 C71 1.391 . S
C71 H65 0.930 . S
C71 C67 1.429 . S
C71 C70 1.391 . S
Ho72 C75 2.811 . S
Ho72 O92 2.322 . S
Ho72 O94 2.378 . S
Ho72 O95 2.524 . S
Ho72 O96 2.381 . S
Ho72 O97 2.669 1_565 S
Ho72 O99 2.346 1_565 S
Ho72 O103 2.305 1_455 S
Ho73 C84 2.811 . S
Ho73 O93 2.346 1_545 S
Ho73 O97 2.305 1_655 S
Ho73 O98 2.322 . S
Ho73 O100 2.378 . S
Ho73 O101 2.524 . S
Ho73 O102 2.381 . S
Ho73 O103 2.669 1_545 S
C74 O92 1.259 1_655 S
C74 O93 1.268 . S
C75 Ho72 2.811 . S
C75 C76 1.488 . S
C75 O94 1.215 . S
C75 O95 1.289 . S
C76 C75 1.488 . S
C76 C77 1.348 . S
C76 C81 1.413 . S
C77 C76 1.348 . S
C77 C78 1.442 . S
C77 H104 0.930 1_455 S
C78 C77 1.442 . S
C78 C79 1.381 . S
C78 H105 0.931 1_455 S
C79 C78 1.381 . S
C79 C80 1.321 . S
C80 C79 1.321 . S
C80 C81 1.403 . S
C80 H106 0.934 . S
C81 C76 1.413 . S
C81 C80 1.403 . S
C81 H107 0.930 . S
C82 O96 1.296 . S
C82 O97 1.244 1_565 S
C83 O98 1.259 1_455 S
C83 O99 1.268 . S
C84 Ho73 2.811 . S
C84 C85 1.488 . S
C84 O100 1.215 . S
C84 O101 1.289 . S
C85 C84 1.488 . S
C85 C86 1.348 . S
C85 C90 1.413 . S
C86 C85 1.348 . S
C86 C87 1.442 . S
C86 H108 0.930 1_655 S
C87 C86 1.442 . S
C87 C88 1.381 . S
C87 H109 0.931 1_655 S
C88 C87 1.381 . S
C88 C89 1.321 . S
C89 C88 1.321 . S
C89 C90 1.403 . S
C89 H110 0.934 . S
C90 C85 1.413 . S
C90 C89 1.403 . S
C90 H111 0.930 . S
C91 O102 1.302 . S
C91 O103 1.241 1_545 S
O92 Ho72 2.322 . S
O92 C74 1.259 1_455 S
O93 Ho73 2.346 1_565 S
O93 C74 1.268 . S
O94 Ho72 2.378 . S
O94 C75 1.215 . S
O95 Ho72 2.524 . S
O95 C75 1.289 . S
O96 Ho72 2.381 . S
O96 C82 1.296 . S
O97 Ho72 2.669 1_545 S
O97 Ho73 2.305 1_455 S
O97 C82 1.244 1_545 S
O98 Ho73 2.322 . S
O98 C83 1.259 1_655 S
O99 Ho72 2.346 1_545 S
O99 C83 1.268 . S
O100 Ho73 2.378 . S
O100 C84 1.215 . S
O101 Ho73 2.524 . S
O101 C84 1.289 . S
O102 Ho73 2.381 . S
O102 C91 1.302 . S
O103 Ho72 2.305 1_655 S
O103 Ho73 2.669 1_565 S
O103 C91 1.241 1_565 S
H104 C77 0.930 1_655 S
H105 C78 0.931 1_655 S
H106 C80 0.934 . S
H107 C81 0.930 . S
H108 C86 0.930 1_455 S
H109 C87 0.931 1_455 S
H110 C89 0.934 . S
H111 C90 0.930 . S
Ho112 C115 2.811 . S
Ho112 O132 2.322 . S
Ho112 O134 2.378 . S
Ho112 O135 2.524 . S
Ho112 O136 2.381 . S
Ho112 O137 2.669 . S
Ho112 O139 2.346 . S
Ho112 O143 2.305 1_545 S
Ho113 C124 2.811 . S
Ho113 O133 2.346 . S
Ho113 O137 2.305 1_565 S
Ho113 O138 2.322 . S
Ho113 O140 2.378 . S
Ho113 O141 2.524 . S
Ho113 O142 2.381 . S
Ho113 O143 2.669 . S
C114 O132 1.259 1_565 S
C114 O133 1.268 . S
C115 Ho112 2.811 . S
C115 C116 1.488 . S
C115 O134 1.215 . S
C115 O135 1.289 . S
C116 C115 1.488 . S
C116 C117 1.348 . S
C116 C121 1.413 . S
C117 C116 1.348 . S
C117 C118 1.442 . S
C117 H144 0.930 1_545 S
C118 C117 1.442 . S
C118 C119 1.381 . S
C118 H145 0.931 1_545 S
C119 C118 1.381 . S
C119 C120 1.321 . S
C120 C119 1.321 . S
C120 C121 1.403 . S
C120 H146 0.934 . S
C121 C116 1.413 . S
C121 C120 1.403 . S
C121 H147 0.930 . S
C122 O136 1.275 . S
C122 O137 1.256 . S
C123 O138 1.259 1_545 S
C123 O139 1.268 . S
C124 Ho113 2.811 . S
C124 C125 1.488 . S
C124 O140 1.215 . S
C124 O141 1.289 . S
C125 C124 1.488 . S
C125 C126 1.348 . S
C125 C130 1.413 . S
C126 C125 1.348 . S
C126 C127 1.442 . S
C126 H148 0.930 1_565 S
C127 C126 1.442 . S
C127 C128 1.381 . S
C127 H149 0.931 1_565 S
C128 C127 1.381 . S
C128 C129 1.321 . S
C129 C128 1.321 . S
C129 C130 1.403 . S
C129 H150 0.934 . S
C130 C125 1.413 . S
C130 C129 1.403 . S
C130 H151 0.930 . S
C131 O142 1.275 . S
C131 O143 1.256 . S
O132 Ho112 2.322 . S
O132 C114 1.259 1_545 S
O133 Ho113 2.346 . S
O133 C114 1.268 . S
O134 Ho112 2.378 . S
O134 C115 1.215 . S
O135 Ho112 2.524 . S
O135 C115 1.289 . S
O136 Ho112 2.381 . S
O136 C122 1.275 . S
O137 Ho112 2.669 . S
O137 Ho113 2.305 1_545 S
O137 C122 1.256 . S
O138 Ho113 2.322 . S
O138 C123 1.259 1_565 S
O139 Ho112 2.346 . S
O139 C123 1.268 . S
O140 Ho113 2.378 . S
O140 C124 1.215 . S
O141 Ho113 2.524 . S
O141 C124 1.289 . S
O142 Ho113 2.381 . S
O142 C131 1.275 . S
O143 Ho112 2.305 1_565 S
O143 Ho113 2.669 . S
O143 C131 1.256 . S
H144 C117 0.930 1_565 S
H145 C118 0.931 1_565 S
H146 C120 0.934 . S
H147 C121 0.930 . S
H148 C126 0.930 1_545 S
H149 C127 0.931 1_545 S
H150 C129 0.934 . S
H151 C130 0.930 . S
Ho152 C155 2.811 . S
Ho152 O172 2.322 . S
Ho152 O174 2.378 . S
Ho152 O175 2.524 . S
Ho152 O176 2.381 . S
Ho152 O177 2.669 . S
Ho152 O179 2.346 . S
Ho152 O183 2.305 . S
Ho153 C164 2.811 . S
Ho153 O173 2.346 . S
Ho153 O177 2.305 . S
Ho153 O178 2.322 . S
Ho153 O180 2.378 . S
Ho153 O181 2.524 . S
Ho153 O182 2.381 . S
Ho153 O183 2.669 . S
C154 O172 1.259 . S
C154 O173 1.268 . S
C155 Ho152 2.811 . S
C155 C156 1.488 . S
C155 O174 1.215 . S
C155 O175 1.289 . S
C156 C155 1.488 . S
C156 C157 1.348 . S
C156 C161 1.413 . S
C157 C156 1.348 . S
C157 C158 1.442 . S
C157 H184 0.930 . S
C158 C157 1.442 . S
C158 C159 1.381 . S
C158 H185 0.931 . S
C159 C158 1.381 . S
C159 C160 1.321 . S
C160 C159 1.321 . S
C160 C161 1.403 . S
C160 H186 0.934 . S
C161 C156 1.413 . S
C161 C160 1.403 . S
C161 H187 0.930 . S
C162 O176 1.275 . S
C162 O177 1.256 . S
C163 O178 1.259 . S
C163 O179 1.268 . S
C164 Ho153 2.811 . S
C164 C165 1.488 . S
C164 O180 1.215 . S
C164 O181 1.289 . S
C165 C164 1.488 . S
C165 C166 1.348 . S
C165 C170 1.413 . S
C166 C165 1.348 . S
C166 C167 1.442 . S
C166 H188 0.930 . S
C167 C166 1.442 . S
C167 C168 1.381 . S
C167 H189 0.931 . S
C168 C167 1.381 . S
C168 C169 1.321 . S
C169 C168 1.321 . S
C169 C170 1.403 . S
C169 H190 0.934 . S
C170 C165 1.413 . S
C170 C169 1.403 . S
C170 H191 0.930 . S
C171 O182 1.275 . S
C171 O183 1.256 . S
O172 Ho152 2.322 . S
O172 C154 1.259 . S
O173 Ho153 2.346 . S
O173 C154 1.268 . S
O174 Ho152 2.378 . S
O174 C155 1.215 . S
O175 Ho152 2.524 . S
O175 C155 1.289 . S
O176 Ho152 2.381 . S
O176 C162 1.275 . S
O177 Ho152 2.669 . S
O177 Ho153 2.305 . S
O177 C162 1.256 . S
O178 Ho153 2.322 . S
O178 C163 1.259 . S
O179 Ho152 2.346 . S
O179 C163 1.268 . S
O180 Ho153 2.378 . S
O180 C164 1.215 . S
O181 Ho153 2.524 . S
O181 C164 1.289 . S
O182 Ho153 2.381 . S
O182 C171 1.275 . S
O183 Ho152 2.305 . S
O183 Ho153 2.669 . S
O183 C171 1.256 . S
H184 C157 0.930 . S
H185 C158 0.931 . S
H186 C160 0.934 . S
H187 C161 0.930 . S
H188 C166 0.930 . S
H189 C167 0.931 . S
H190 C169 0.934 . S
H191 C170 0.930 . S
Ho192 C195 2.811 . S
Ho192 O212 2.322 . S
Ho192 O214 2.378 . S
Ho192 O215 2.524 . S
Ho192 O216 2.381 . S
Ho192 O217 2.669 1_655 S
Ho192 O219 2.346 1_655 S
Ho192 O223 2.305 . S
Ho193 C204 2.811 . S
Ho193 O213 2.346 1_455 S
Ho193 O217 2.305 . S
Ho193 O218 2.322 . S
Ho193 O220 2.378 . S
Ho193 O221 2.524 . S
Ho193 O222 2.381 . S
Ho193 O223 2.669 1_455 S
C194 O212 1.259 . S
C194 O213 1.268 . S
C195 Ho192 2.811 . S
C195 C196 1.488 . S
C195 O214 1.215 . S
C195 O215 1.289 . S
C196 C195 1.488 . S
C196 C197 1.348 . S
C196 C201 1.413 . S
C197 C196 1.348 . S
C197 C198 1.442 . S
C197 H224 0.930 . S
C198 C197 1.442 . S
C198 C199 1.381 . S
C198 H225 0.931 . S
C199 C198 1.381 . S
C199 C200 1.321 . S
C200 C199 1.321 . S
C200 C201 1.403 . S
C200 H226 0.934 . S
C201 C196 1.413 . S
C201 C200 1.403 . S
C201 H227 0.930 . S
C202 O216 1.292 . S
C202 O217 1.246 1_655 S
C203 O218 1.259 . S
C203 O219 1.268 . S
C204 Ho193 2.811 . S
C204 C205 1.488 . S
C204 O220 1.215 . S
C204 O221 1.289 . S
C205 C204 1.488 . S
C205 C206 1.348 . S
C205 C210 1.413 . S
C206 C205 1.348 . S
C206 C207 1.442 . S
C206 H228 0.930 . S
C207 C206 1.442 . S
C207 C208 1.381 . S
C207 H229 0.931 . S
C208 C207 1.381 . S
C208 C209 1.321 . S
C209 C208 1.321 . S
C209 C210 1.403 . S
C209 H230 0.934 . S
C210 C205 1.413 . S
C210 C209 1.403 . S
C210 H231 0.930 . S
C211 O222 1.299 . S
C211 O223 1.243 1_455 S
O212 Ho192 2.322 . S
O212 C194 1.259 . S
O213 Ho193 2.346 1_655 S
O213 C194 1.268 . S
O214 Ho192 2.378 . S
O214 C195 1.215 . S
O215 Ho192 2.524 . S
O215 C195 1.289 . S
O216 Ho192 2.381 . S
O216 C202 1.292 . S
O217 Ho192 2.669 1_455 S
O217 Ho193 2.305 . S
O217 C202 1.246 1_455 S
O218 Ho193 2.322 . S
O218 C203 1.259 . S
O219 Ho192 2.346 1_455 S
O219 C203 1.268 . S
O220 Ho193 2.378 . S
O220 C204 1.215 . S
O221 Ho193 2.524 . S
O221 C204 1.289 . S
O222 Ho193 2.381 . S
O222 C211 1.299 . S
O223 Ho192 2.305 . S
O223 Ho193 2.669 1_655 S
O223 C211 1.243 1_655 S
H224 C197 0.930 . S
H225 C198 0.931 . S
H226 C200 0.934 . S
H227 C201 0.930 . S
H228 C206 0.930 . S
H229 C207 0.931 . S
H230 C209 0.934 . S
H231 C210 0.930 . S
C232 C233 1.354 . S
C232 C234 1.327 . S
C232 H257 0.950 . S
C233 C232 1.354 . S
C233 C249 1.344 1_545 S
C234 C232 1.327 . S
C234 C253 1.447 . S
C234 H258 0.950 . S
C235 C252 1.574 . S
C235 C254 1.340 1_565 S
C235 H259 0.949 . S
H236 C240 0.949 . S
C237 C238 1.349 1_565 S
C237 C239 1.327 . S
C237 H260 0.950 . S
C238 C237 1.349 1_545 S
C238 C250 1.349 . S
C239 C237 1.327 . S
C239 C255 1.429 1_565 S
C239 H261 0.950 . S
C240 H236 0.949 . S
C240 C248 1.574 . S
C240 C256 1.368 . S
H241 C249 0.950 . S
H242 C247 0.950 . S
H243 C248 0.949 . S
H244 C250 0.950 . S
H245 C251 0.950 . S
H246 C252 0.949 . S
C247 H242 0.950 . S
C247 C249 1.327 . S
C247 C253 1.410 1_565 S
C248 C240 1.574 . S
C248 H243 0.949 . S
C248 C254 1.397 . S
C249 C233 1.344 1_565 S
C249 H241 0.950 . S
C249 C247 1.327 . S
C250 C238 1.349 . S
C250 H244 0.950 . S
C250 C251 1.327 . S
C251 H245 0.950 . S
C251 C250 1.327 . S
C251 C255 1.429 . S
C252 C235 1.574 . S
C252 H246 0.949 . S
C252 C256 1.368 1_565 S
C253 C234 1.447 . S
C253 C247 1.410 1_545 S
C253 C254 1.523 . S
C254 C235 1.340 1_545 S
C254 C248 1.397 . S
C254 C253 1.523 . S
C255 C239 1.429 1_545 S
C255 C251 1.429 . S
C255 C256 1.523 . S
C256 C240 1.368 . S
C256 C252 1.368 1_545 S
C256 C255 1.523 . S
H257 C232 0.950 . S
H258 C234 0.950 . S
H259 C235 0.949 . S
H260 C237 0.950 . S
H261 C239 0.950 . S
C262 C263 1.349 . S
C262 C264 1.327 . S
C262 H287 0.950 . S
C263 C262 1.349 . S
C263 C279 1.349 . S
C264 C262 1.327 . S
C264 C283 1.429 . S
C264 H288 0.950 . S
C265 C282 1.574 . S
C265 C284 1.368 . S
C265 H289 0.949 . S
H266 C270 0.949 . S
C267 C268 1.349 . S
C267 C269 1.327 . S
C267 H290 0.950 . S
C268 C267 1.349 . S
C268 C280 1.349 . S
C269 C267 1.327 . S
C269 C285 1.429 . S
C269 H291 0.950 . S
C270 H266 0.949 . S
C270 C278 1.574 . S
C270 C286 1.368 . S
H271 C279 0.950 . S
H272 C277 0.950 . S
H273 C278 0.949 . S
H274 C280 0.950 . S
H275 C281 0.950 . S
H276 C282 0.949 . S
C277 H272 0.950 . S
C277 C279 1.327 . S
C277 C283 1.429 . S
C278 C270 1.574 . S
C278 H273 0.949 . S
C278 C284 1.368 . S
C279 C263 1.349 . S
C279 H271 0.950 . S
C279 C277 1.327 . S
C280 C268 1.349 . S
C280 H274 0.950 . S
C280 C281 1.327 . S
C281 H275 0.950 . S
C281 C280 1.327 . S
C281 C285 1.429 . S
C282 C265 1.574 . S
C282 H276 0.949 . S
C282 C286 1.368 . S
C283 C264 1.429 . S
C283 C277 1.429 . S
C283 C284 1.523 . S
C284 C265 1.368 . S
C284 C278 1.368 . S
C284 C283 1.523 . S
C285 C269 1.429 . S
C285 C281 1.429 . S
C285 C286 1.523 . S
C286 C270 1.368 . S
C286 C282 1.368 . S
C286 C285 1.523 . S
H287 C262 0.950 . S
H288 C264 0.950 . S
H289 C265 0.949 . S
H290 C267 0.950 . S
H291 C269 0.950 . S
C292 C293 1.349 . S
C292 C294 1.327 . S
C292 H317 0.950 . S
C293 C292 1.349 . S
C293 C309 1.349 . S
C294 C292 1.327 . S
C294 C313 1.429 . S
C294 H318 0.950 . S
C295 C312 1.574 . S
C295 C314 1.368 . S
C295 H319 0.949 . S
H296 C300 0.949 . S
C297 C298 1.349 . S
C297 C299 1.327 . S
C297 H320 0.950 . S
C298 C297 1.349 . S
C298 C310 1.349 . S
C299 C297 1.327 . S
C299 C315 1.429 . S
C299 H321 0.950 . S
C300 H296 0.949 . S
C300 C308 1.574 . S
C300 C316 1.368 . S
H301 C309 0.950 . S
H302 C307 0.950 . S
H303 C308 0.949 . S
H304 C310 0.950 . S
H305 C311 0.950 . S
H306 C312 0.949 . S
C307 H302 0.950 . S
C307 C309 1.327 . S
C307 C313 1.429 . S
C308 C300 1.574 . S
C308 H303 0.949 . S
C308 C314 1.368 . S
C309 C293 1.349 . S
C309 H301 0.950 . S
C309 C307 1.327 . S
C310 C298 1.349 . S
C310 H304 0.950 . S
C310 C311 1.327 . S
C311 H305 0.950 . S
C311 C310 1.327 . S
C311 C315 1.429 . S
C312 C295 1.574 . S
C312 H306 0.949 . S
C312 C316 1.368 . S
C313 C294 1.429 . S
C313 C307 1.429 . S
C313 C314 1.523 . S
C314 C295 1.368 . S
C314 C308 1.368 . S
C314 C313 1.523 . S
C315 C299 1.429 . S
C315 C311 1.429 . S
C315 C316 1.523 . S
C316 C300 1.368 . S
C316 C312 1.368 . S
C316 C315 1.523 . S
H317 C292 0.950 . S
H318 C294 0.950 . S
H319 C295 0.949 . S
H320 C297 0.950 . S
H321 C299 0.950 . S
C322 C323 1.343 1_655 S
C322 C324 1.327 . S
C322 H347 0.950 . S
C323 C322 1.343 1_455 S
C323 C339 1.355 . S
C324 C322 1.327 . S
C324 C343 1.405 1_655 S
C324 H348 0.950 . S
C325 C342 1.574 . S
C325 C344 1.405 . S
C325 H349 0.949 . S
H326 C330 0.949 . S
C327 C328 1.349 . S
C327 C329 1.327 . S
C327 H350 0.950 . S
C328 C327 1.349 . S
C328 C340 1.349 1_455 S
C329 C327 1.327 . S
C329 C345 1.429 . S
C329 H351 0.950 . S
C330 H326 0.949 . S
C330 C338 1.574 . S
C330 C346 1.368 1_655 S
H331 C339 0.950 . S
H332 C337 0.950 . S
H333 C338 0.949 . S
H334 C340 0.950 . S
H335 C341 0.950 . S
H336 C342 0.949 . S
C337 H332 0.950 . S
C337 C339 1.327 . S
C337 C343 1.452 . S
C338 C330 1.574 . S
C338 H333 0.949 . S
C338 C344 1.332 1_655 S
C339 C323 1.355 . S
C339 H331 0.950 . S
C339 C337 1.327 . S
C340 C328 1.349 1_655 S
C340 H334 0.950 . S
C340 C341 1.327 . S
C341 H335 0.950 . S
C341 C340 1.327 . S
C341 C345 1.429 1_655 S
C342 C325 1.574 . S
C342 H336 0.949 . S
C342 C346 1.368 . S
C343 C324 1.405 1_455 S
C343 C337 1.452 . S
C343 C344 1.523 . S
C344 C325 1.405 . S
C344 C338 1.332 1_455 S
C344 C343 1.523 . S
C345 C329 1.429 . S
C345 C341 1.429 1_455 S
C345 C346 1.523 . S
C346 C330 1.368 1_455 S
C346 C342 1.368 . S
C346 C345 1.523 . S
H347 C322 0.950 . S
H348 C324 0.950 . S
H349 C325 0.949 . S
H350 C327 0.950 . S
H351 C329 0.950 . S
C352 C353 1.352 1_545 S
C352 C354 1.327 . S
C352 H377 0.950 . S
C353 C352 1.352 1_565 S
C353 C369 1.345 . S
C354 C352 1.327 . S
C354 C373 1.418 1_545 S
C354 H378 0.950 . S
C355 C372 1.574 . S
C355 C374 1.388 . S
C355 H379 0.949 . S
H356 C360 0.949 . S
C357 C358 1.349 . S
C357 C359 1.327 . S
C357 H380 0.950 . S
C358 C357 1.349 . S
C358 C370 1.349 1_565 S
C359 C357 1.327 . S
C359 C375 1.429 . S
C359 H381 0.950 . S
C360 H356 0.949 . S
C360 C368 1.574 . S
C360 C376 1.335 1_545 S
H361 C369 0.950 . S
H362 C367 0.950 . S
H363 C368 0.949 . S
H364 C370 0.950 . S
H365 C371 0.950 . S
H366 C372 0.949 1_556 S
C367 H362 0.950 . S
C367 C369 1.327 . S
C367 C373 1.439 . S
C368 C360 1.574 . S
C368 H363 0.949 . S
C368 C374 1.349 1_545 S
C369 C353 1.345 . S
C369 H361 0.950 . S
C369 C367 1.327 . S
C370 C358 1.349 1_545 S
C370 H364 0.950 . S
C370 C371 1.327 . S
C371 H365 0.950 . S
C371 C370 1.327 . S
C371 C375 1.429 1_545 S
C372 C355 1.574 . S
C372 H366 0.949 1_554 S
C372 C376 1.402 . S
C373 C354 1.418 1_565 S
C373 C367 1.439 . S
C373 C374 1.523 . S
C374 C355 1.388 . S
C374 C368 1.349 1_565 S
C374 C373 1.523 . S
C375 C359 1.429 . S
C375 C371 1.429 1_565 S
C375 C376 1.524 1_556 S
C376 C360 1.335 1_565 S
C376 C372 1.402 . S
C376 C375 1.524 1_554 S
H377 C352 0.950 . S
H378 C354 0.950 . S
H379 C355 0.949 . S
H380 C357 0.950 . S
H381 C359 0.950 . S
C382 C383 1.349 . S
C382 C384 1.327 . S
C382 H407 0.950 . S
C383 C382 1.349 . S
C383 C399 1.349 . S
C384 C382 1.327 . S
C384 C403 1.429 . S
C384 H408 0.950 . S
C385 C402 1.574 . S
C385 C404 1.368 . S
C385 H409 0.949 . S
H386 C390 0.949 . S
C387 C388 1.349 . S
C387 C389 1.327 . S
C387 H410 0.950 . S
C388 C387 1.349 . S
C388 C400 1.349 . S
C389 C387 1.327 . S
C389 C405 1.429 . S
C389 H411 0.950 . S
C390 H386 0.949 . S
C390 C398 1.574 1_556 S
C390 C406 1.368 1_556 S
H391 C399 0.950 . S
H392 C397 0.950 . S
H393 C398 0.949 . S
H394 C400 0.950 . S
H395 C401 0.950 . S
H396 C402 0.949 . S
C397 H392 0.950 . S
C397 C399 1.327 . S
C397 C403 1.429 . S
C398 C390 1.574 1_554 S
C398 H393 0.949 . S
C398 C404 1.368 . S
C399 C383 1.349 . S
C399 H391 0.950 . S
C399 C397 1.327 . S
C400 C388 1.349 . S
C400 H394 0.950 . S
C400 C401 1.327 . S
C401 H395 0.950 . S
C401 C400 1.327 . S
C401 C405 1.429 . S
C402 C385 1.574 . S
C402 H396 0.949 . S
C402 C406 1.368 . S
C403 C384 1.429 . S
C403 C397 1.429 . S
C403 C404 1.523 . S
C404 C385 1.368 . S
C404 C398 1.368 . S
C404 C403 1.523 . S
C405 C389 1.429 . S
C405 C401 1.429 . S
C405 C406 1.523 1_556 S
C406 C390 1.368 1_554 S
C406 C402 1.368 . S
C406 C405 1.523 1_554 S
H407 C382 0.950 . S
H408 C384 0.950 . S
H409 C385 0.949 . S
H410 C387 0.950 . S
H411 C389 0.950 . S
C412 C413 1.349 . S
C412 C414 1.327 . S
C412 H437 0.950 . S
C413 C412 1.349 . S
C413 C429 1.349 . S
C414 C412 1.327 . S
C414 C433 1.429 . S
C414 H438 0.950 . S
C415 C432 1.574 . S
C415 C434 1.368 . S
C415 H439 0.949 . S
H416 C420 0.949 . S
C417 C418 1.349 . S
C417 C419 1.327 . S
C417 H440 0.950 . S
C418 C417 1.349 . S
C418 C430 1.349 . S
C419 C417 1.327 . S
C419 C435 1.429 . S
C419 H441 0.950 . S
C420 H416 0.949 . S
C420 C428 1.574 . S
C420 C436 1.368 . S
H421 C429 0.950 . S
H422 C427 0.950 . S
H423 C428 0.949 . S
H424 C430 0.950 . S
H425 C431 0.950 . S
H426 C432 0.949 1_556 S
C427 H422 0.950 . S
C427 C429 1.327 . S
C427 C433 1.429 . S
C428 C420 1.574 . S
C428 H423 0.949 . S
C428 C434 1.368 . S
C429 C413 1.349 . S
C429 H421 0.950 . S
C429 C427 1.327 . S
C430 C418 1.349 . S
C430 H424 0.950 . S
C430 C431 1.327 . S
C431 H425 0.950 . S
C431 C430 1.327 . S
C431 C435 1.429 . S
C432 C415 1.574 . S
C432 H426 0.949 1_554 S
C432 C436 1.368 . S
C433 C414 1.429 . S
C433 C427 1.429 . S
C433 C434 1.523 . S
C434 C415 1.368 . S
C434 C428 1.368 . S
C434 C433 1.523 . S
C435 C419 1.429 . S
C435 C431 1.429 . S
C435 C436 1.523 1_556 S
C436 C420 1.368 . S
C436 C432 1.368 . S
C436 C435 1.523 1_554 S
H437 C412 0.950 . S
H438 C414 0.950 . S
H439 C415 0.949 . S
H440 C417 0.950 . S
H441 C419 0.950 . S
C442 C443 1.348 1_455 S
C442 C444 1.327 . S
C442 H467 0.950 . S
C443 C442 1.348 1_655 S
C443 C459 1.350 . S
C444 C442 1.327 . S
C444 C463 1.424 1_455 S
C444 H468 0.950 . S
C445 C462 1.574 1_554 S
C445 C464 1.377 . S
C445 H469 0.949 . S
H446 C450 0.949 . S
C447 C448 1.349 . S
C447 C449 1.327 . S
C447 H470 0.950 . S
C448 C447 1.349 . S
C448 C460 1.349 1_655 S
C449 C447 1.327 . S
C449 C465 1.429 . S
C449 H471 0.950 . S
C450 H446 0.949 . S
C450 C458 1.574 . S
C450 C466 1.368 1_455 S
H451 C459 0.950 . S
H452 C457 0.950 . S
H453 C458 0.949 . S
H454 C460 0.950 . S
H455 C461 0.950 . S
H456 C462 0.949 . S
C457 H452 0.950 . S
C457 C459 1.327 . S
C457 C463 1.434 . S
C458 C450 1.574 . S
C458 H453 0.949 . S
C458 C464 1.361 1_455 S
C459 C443 1.350 . S
C459 H451 0.950 . S
C459 C457 1.327 . S
C460 C448 1.349 1_455 S
C460 H454 0.950 . S
C460 C461 1.327 . S
C461 H455 0.950 . S
C461 C460 1.327 . S
C461 C465 1.429 1_455 S
C462 C445 1.574 1_556 S
C462 H456 0.949 . S
C462 C466 1.368 1_556 S
C463 C444 1.424 1_655 S
C463 C457 1.434 . S
C463 C464 1.523 . S
C464 C445 1.377 . S
C464 C458 1.361 1_655 S
C464 C463 1.523 . S
C465 C449 1.429 . S
C465 C461 1.429 1_655 S
C465 C466 1.523 1_556 S
C466 C450 1.368 1_655 S
C466 C462 1.368 1_554 S
C466 C465 1.523 1_554 S
H467 C442 0.950 . S
H468 C444 0.950 . S
H469 C445 0.949 . S
H470 C447 0.950 . S
H471 C449 0.950 . S
C472 C473 1.349 1_655 S
C472 C474 1.327 . S
C472 H497 0.950 . S
C473 C472 1.349 1_455 S
C473 C489 1.349 . S
C474 C472 1.327 . S
C474 C493 1.429 . S
C474 H498 0.950 . S
C475 C492 1.574 . S
C475 C494 1.368 . S
C475 H499 0.949 1_655 S
H476 C480 0.949 . S
C477 C478 1.349 . S
C477 C479 1.327 . S
C477 H500 0.950 . S
C478 C477 1.349 . S
C478 C490 1.349 . S
C479 C477 1.327 . S
C479 C495 1.429 . S
C479 H501 0.950 . S
C480 H476 0.949 . S
C480 C488 1.574 . S
C480 C496 1.368 . S
H481 C489 0.950 . S
H482 C487 0.950 . S
H483 C488 0.949 . S
H484 C490 0.950 . S
H485 C491 0.950 . S
H486 C492 0.949 . S
C487 H482 0.950 . S
C487 C489 1.327 . S
C487 C493 1.429 1_455 S
C488 C480 1.574 . S
C488 H483 0.949 . S
C488 C494 1.368 . S
C489 C473 1.349 . S
C489 H481 0.950 . S
C489 C487 1.327 . S
C490 C478 1.349 . S
C490 H484 0.950 . S
C490 C491 1.327 . S
C491 H485 0.950 . S
C491 C490 1.327 . S
C491 C495 1.429 . S
C492 C475 1.574 . S
C492 H486 0.949 . S
C492 C496 1.368 . S
C493 C474 1.429 . S
C493 C487 1.429 1_655 S
C493 C494 1.523 . S
C494 C475 1.368 . S
C494 C488 1.368 . S
C494 C493 1.523 . S
C495 C479 1.429 . S
C495 C491 1.429 . S
C495 C496 1.523 . S
C496 C480 1.368 . S
C496 C492 1.368 . S
C496 C495 1.523 . S
H497 C472 0.950 . S
H498 C474 0.950 . S
H499 C475 0.949 1_455 S
H500 C477 0.950 . S
H501 C479 0.950 . S
C502 C503 1.349 1_565 S
C502 C504 1.327 . S
C502 H527 0.950 . S
C503 C502 1.349 1_545 S
C503 C519 1.349 . S
C504 C502 1.327 . S
C504 C523 1.429 . S
C504 H528 0.950 . S
C505 C522 1.571 1_545 S
C505 C524 1.368 1_545 S
C505 H529 0.949 . S
H506 C510 0.949 . S
C507 C508 1.349 . S
C507 C509 1.327 . S
C507 H530 0.950 . S
C508 C507 1.349 . S
C508 C520 1.349 . S
C509 C507 1.327 . S
C509 C525 1.429 . S
C509 H531 0.950 1_565 S
C510 H506 0.949 . S
C510 C518 1.574 . S
C510 C526 1.368 . S
H511 C519 0.950 . S
H512 C517 0.950 . S
H513 C518 0.949 . S
H514 C520 0.950 . S
H515 C521 0.950 . S
H516 C522 0.941 1_545 S
C517 H512 0.950 . S
C517 C519 1.327 . S
C517 C523 1.429 1_545 S
C518 C510 1.574 . S
C518 H513 0.949 . S
C518 C524 1.368 . S
C519 C503 1.349 . S
C519 H511 0.950 . S
C519 C517 1.327 . S
C520 C508 1.349 . S
C520 H514 0.950 . S
C520 C521 1.327 . S
C521 H515 0.950 . S
C521 C520 1.327 . S
C521 C525 1.429 . S
C522 C505 1.571 1_565 S
C522 H516 0.941 1_565 S
C522 C526 1.380 . S
C523 C504 1.429 . S
C523 C517 1.429 1_565 S
C523 C524 1.523 . S
C524 C505 1.368 1_565 S
C524 C518 1.368 . S
C524 C523 1.523 . S
C525 C509 1.429 . S
C525 C521 1.429 . S
C525 C526 1.523 . S
C526 C510 1.368 . S
C526 C522 1.380 . S
C526 C525 1.523 . S
H527 C502 0.950 . S
H528 C504 0.950 . S
H529 C505 0.949 . S
H530 C507 0.950 . S
H531 C509 0.950 1_545 S
C532 C533 1.349 . S
C532 C534 1.327 . S
C532 H557 0.950 . S
C533 C532 1.349 . S
C533 C549 1.349 . S
C534 C532 1.327 . S
C534 C553 1.429 . S
C534 H558 0.950 . S
C535 C552 1.574 . S
C535 C554 1.368 . S
C535 H559 0.949 . S
H536 C540 0.949 . S
C537 C538 1.349 . S
C537 C539 1.327 . S
C537 H560 0.950 . S
C538 C537 1.349 . S
C538 C550 1.349 . S
C539 C537 1.327 . S
C539 C555 1.429 . S
C539 H561 0.950 . S
C540 H536 0.949 . S
C540 C548 1.574 . S
C540 C556 1.368 . S
H541 C549 0.950 . S
H542 C547 0.950 . S
H543 C548 0.949 . S
H544 C550 0.950 . S
H545 C551 0.950 . S
H546 C552 0.949 . S
C547 H542 0.950 . S
C547 C549 1.327 . S
C547 C553 1.429 . S
C548 C540 1.574 . S
C548 H543 0.949 . S
C548 C554 1.368 . S
C549 C533 1.349 . S
C549 H541 0.950 . S
C549 C547 1.327 . S
C550 C538 1.349 . S
C550 H544 0.950 . S
C550 C551 1.327 . S
C551 H545 0.950 . S
C551 C550 1.327 . S
C551 C555 1.429 . S
C552 C535 1.574 . S
C552 H546 0.949 . S
C552 C556 1.368 . S
C553 C534 1.429 . S
C553 C547 1.429 . S
C553 C554 1.523 . S
C554 C535 1.368 . S
C554 C548 1.368 . S
C554 C553 1.523 . S
C555 C539 1.429 . S
C555 C551 1.429 . S
C555 C556 1.523 . S
C556 C540 1.368 . S
C556 C552 1.368 . S
C556 C555 1.523 . S
H557 C532 0.950 . S
H558 C534 0.950 . S
H559 C535 0.949 . S
H560 C537 0.950 . S
H561 C539 0.950 . S
C562 C563 1.349 . S
C562 C564 1.327 . S
C562 H587 0.950 . S
C563 C562 1.349 . S
C563 C579 1.349 . S
C564 C562 1.327 . S
C564 C583 1.429 . S
C564 H588 0.950 . S
C565 C582 1.574 . S
C565 C584 1.368 . S
C565 H589 0.949 . S
H566 C570 0.949 . S
C567 C568 1.349 . S
C567 C569 1.327 . S
C567 H590 0.950 . S
C568 C567 1.349 . S
C568 C580 1.349 . S
C569 C567 1.327 . S
C569 C585 1.429 . S
C569 H591 0.950 . S
C570 H566 0.949 . S
C570 C578 1.574 . S
C570 C586 1.368 . S
H571 C579 0.950 . S
H572 C577 0.950 . S
H573 C578 0.949 . S
H574 C580 0.950 . S
H575 C581 0.950 . S
H576 C582 0.949 . S
C577 H572 0.950 . S
C577 C579 1.327 . S
C577 C583 1.429 . S
C578 C570 1.574 . S
C578 H573 0.949 . S
C578 C584 1.368 . S
C579 C563 1.349 . S
C579 H571 0.950 . S
C579 C577 1.327 . S
C580 C568 1.349 . S
C580 H574 0.950 . S
C580 C581 1.327 . S
C581 H575 0.950 . S
C581 C580 1.327 . S
C581 C585 1.429 . S
C582 C565 1.574 . S
C582 H576 0.949 . S
C582 C586 1.368 . S
C583 C564 1.429 . S
C583 C577 1.429 . S
C583 C584 1.523 . S
C584 C565 1.368 . S
C584 C578 1.368 . S
C584 C583 1.523 . S
C585 C569 1.429 . S
C585 C581 1.429 . S
C585 C586 1.523 . S
C586 C570 1.368 . S
C586 C582 1.368 . S
C586 C585 1.523 . S
H587 C562 0.950 . S
H588 C564 0.950 . S
H589 C565 0.949 . S
H590 C567 0.950 . S
H591 C569 0.950 . S
C592 C593 1.349 . S
C592 C594 1.327 . S
C592 H617 0.950 . S
C593 C592 1.349 . S
C593 C609 1.349 1_655 S
C594 C592 1.327 . S
C594 C613 1.429 1_655 S
C594 H618 0.950 . S
C595 C612 1.574 . S
C595 C614 1.368 . S
C595 H619 0.949 . S
H596 C600 0.949 1_556 S
C597 C598 1.349 1_554 S
C597 C599 1.327 . S
C597 H620 0.950 . S
C598 C597 1.349 1_556 S
C598 C610 1.349 . S
C599 C597 1.327 . S
C599 C615 1.429 . S
C599 H621 0.950 . S
C600 H596 0.949 1_554 S
C600 C608 1.574 . S
C600 C616 1.368 . S
H601 C609 0.950 . S
H602 C607 0.950 . S
H603 C608 0.949 1_655 S
H604 C610 0.950 . S
H605 C611 0.950 . S
H606 C612 0.949 . S
C607 H602 0.950 . S
C607 C609 1.327 . S
C607 C613 1.429 . S
C608 C600 1.574 . S
C608 H603 0.949 1_455 S
C608 C614 1.368 . S
C609 C593 1.349 1_455 S
C609 H601 0.950 . S
C609 C607 1.327 . S
C610 C598 1.349 . S
C610 H604 0.950 . S
C610 C611 1.327 . S
C611 H605 0.950 . S
C611 C610 1.327 . S
C611 C615 1.429 1_556 S
C612 C595 1.574 . S
C612 H606 0.949 . S
C612 C616 1.368 . S
C613 C594 1.429 1_455 S
C613 C607 1.429 . S
C613 C614 1.523 . S
C614 C595 1.368 . S
C614 C608 1.368 . S
C614 C613 1.523 . S
C615 C599 1.429 . S
C615 C611 1.429 1_554 S
C615 C616 1.523 . S
C616 C600 1.368 . S
C616 C612 1.368 . S
C616 C615 1.523 . S
H617 C592 0.950 . S
H618 C594 0.950 . S
H619 C595 0.949 . S
H620 C597 0.950 . S
H621 C599 0.950 . S
C622 C623 1.349 . S
C622 C624 1.327 . S
C622 H647 0.950 . S
C623 C622 1.349 . S
C623 C639 1.349 1_565 S
C624 C622 1.327 . S
C624 C643 1.429 1_565 S
C624 H648 0.950 . S
C625 C642 1.574 . S
C625 C644 1.368 . S
C625 H649 0.949 . S
H626 C630 0.938 1_565 S
C627 C628 1.349 . S
C627 C629 1.327 . S
C627 H650 0.950 . S
C628 C627 1.349 . S
C628 C640 1.349 . S
C629 C627 1.327 . S
C629 C645 1.429 1_556 S
C629 H651 0.950 . S
C630 H626 0.938 1_545 S
C630 C638 1.584 . S
C630 C646 1.368 . S
H631 C639 0.950 . S
H632 C637 0.950 . S
H633 C638 0.919 1_565 S
H634 C640 0.950 1_554 S
H635 C641 0.950 . S
H636 C642 0.949 . S
C637 H632 0.950 . S
C637 C639 1.327 . S
C637 C643 1.429 . S
C638 C630 1.584 . S
C638 H633 0.919 1_545 S
C638 C644 1.394 . S
C639 C623 1.349 1_545 S
C639 H631 0.950 . S
C639 C637 1.327 . S
C640 C628 1.349 . S
C640 H634 0.950 1_556 S
C640 C641 1.327 1_556 S
C641 H635 0.950 . S
C641 C640 1.327 1_554 S
C641 C645 1.429 . S
C642 C625 1.574 . S
C642 H636 0.949 . S
C642 C646 1.368 . S
C643 C624 1.429 1_545 S
C643 C637 1.429 . S
C643 C644 1.523 . S
C644 C625 1.368 . S
C644 C638 1.394 . S
C644 C643 1.523 . S
C645 C629 1.429 1_554 S
C645 C641 1.429 . S
C645 C646 1.523 . S
C646 C630 1.368 . S
C646 C642 1.368 . S
C646 C645 1.523 . S
H647 C622 0.950 . S
H648 C624 0.950 . S
H649 C625 0.949 . S
H650 C627 0.950 . S
H651 C629 0.950 . S
C652 C653 1.349 . S
C652 C654 1.327 . S
C652 H677 0.950 . S
C653 C652 1.349 . S
C653 C669 1.349 . S
C654 C652 1.327 . S
C654 C673 1.429 . S
C654 H678 0.950 . S
C655 C672 1.574 . S
C655 C674 1.368 . S
C655 H679 0.949 . S
H656 C660 0.949 . S
C657 C658 1.361 . S
C657 C659 1.318 1_556 S
C657 H680 0.947 1_556 S
C658 C657 1.361 . S
C658 C670 1.349 . S
C659 C657 1.318 1_554 S
C659 C675 1.429 . S
C659 H681 0.950 . S
C660 H656 0.949 . S
C660 C668 1.574 . S
C660 C676 1.368 . S
H661 C669 0.950 . S
H662 C667 0.950 . S
H663 C668 0.949 . S
H664 C670 0.950 . S
H665 C671 0.950 . S
H666 C672 0.949 . S
C667 H662 0.950 . S
C667 C669 1.327 . S
C667 C673 1.429 . S
C668 C660 1.574 . S
C668 H663 0.949 . S
C668 C674 1.368 . S
C669 C653 1.349 . S
C669 H661 0.950 . S
C669 C667 1.327 . S
C670 C658 1.349 . S
C670 H664 0.950 . S
C670 C671 1.327 . S
C671 H665 0.950 . S
C671 C670 1.327 . S
C671 C675 1.429 1_556 S
C672 C655 1.574 . S
C672 H666 0.949 . S
C672 C676 1.368 . S
C673 C654 1.429 . S
C673 C667 1.429 . S
C673 C674 1.523 . S
C674 C655 1.368 . S
C674 C668 1.368 . S
C674 C673 1.523 . S
C675 C659 1.429 . S
C675 C671 1.429 1_554 S
C675 C676 1.523 . S
C676 C660 1.368 . S
C676 C672 1.368 . S
C676 C675 1.523 . S
H677 C652 0.950 . S
H678 C654 0.950 . S
H679 C655 0.949 . S
H680 C657 0.947 1_554 S
H681 C659 0.950 . S
C682 C683 1.349 . S
C682 C684 1.327 . S
C682 H707 0.950 . S
C683 C682 1.349 . S
C683 C699 1.349 . S
C684 C682 1.327 . S
C684 C703 1.429 . S
C684 H708 0.950 . S
C685 C702 1.574 . S
C685 C704 1.368 . S
C685 H709 0.949 . S
H686 C690 0.949 . S
C687 C688 1.349 . S
C687 C689 1.327 1_556 S
C687 H710 0.950 . S
C688 C687 1.349 . S
C688 C700 1.349 . S
C689 C687 1.327 1_554 S
C689 C705 1.429 . S
C689 H711 0.950 . S
C690 H686 0.949 . S
C690 C698 1.574 . S
C690 C706 1.368 . S
H691 C699 0.950 . S
H692 C697 0.950 . S
H693 C698 0.949 . S
H694 C700 0.950 . S
H695 C701 0.950 . S
H696 C702 0.949 . S
C697 H692 0.950 . S
C697 C699 1.327 . S
C697 C703 1.429 . S
C698 C690 1.574 . S
C698 H693 0.949 . S
C698 C704 1.368 . S
C699 C683 1.349 . S
C699 H691 0.950 . S
C699 C697 1.327 . S
C700 C688 1.349 . S
C700 H694 0.950 . S
C700 C701 1.327 . S
C701 H695 0.950 . S
C701 C700 1.327 . S
C701 C705 1.429 1_556 S
C702 C685 1.574 . S
C702 H696 0.949 . S
C702 C706 1.368 . S
C703 C684 1.429 . S
C703 C697 1.429 . S
C703 C704 1.523 . S
C704 C685 1.368 . S
C704 C698 1.368 . S
C704 C703 1.523 . S
C705 C689 1.429 . S
C705 C701 1.429 1_554 S
C705 C706 1.523 . S
C706 C690 1.368 . S
C706 C702 1.368 . S
C706 C705 1.523 . S
H707 C682 0.950 . S
H708 C684 0.950 . S
H709 C685 0.949 . S
H710 C687 0.950 . S
H711 C689 0.950 . S
C712 C713 1.349 . S
C712 C714 1.327 . S
C712 H737 0.950 . S
C713 C712 1.349 . S
C713 C729 1.349 1_455 S
C714 C712 1.327 . S
C714 C733 1.429 . S
C714 H738 0.950 . S
C715 C732 1.574 . S
C715 C734 1.368 1_655 S
C715 H739 0.949 . S
H716 C720 0.949 . S
C717 C718 1.349 1_655 S
C717 C719 1.327 . S
C717 H740 0.950 . S
C718 C717 1.349 1_455 S
C718 C730 1.349 . S
C719 C717 1.327 . S
C719 C735 1.429 1_655 S
C719 H741 0.950 . S
C720 H716 0.949 . S
C720 C728 1.574 . S
C720 C736 1.368 . S
H721 C729 0.950 . S
H722 C727 0.950 . S
H723 C728 0.949 . S
H724 C730 0.950 . S
H725 C731 0.950 . S
H726 C732 0.949 . S
C727 H722 0.950 . S
C727 C729 1.327 . S
C727 C733 1.429 1_655 S
C728 C720 1.574 . S
C728 H723 0.949 . S
C728 C734 1.368 . S
C729 C713 1.349 1_655 S
C729 H721 0.950 . S
C729 C727 1.327 . S
C730 C718 1.349 . S
C730 H724 0.950 . S
C730 C731 1.327 . S
C731 H725 0.950 . S
C731 C730 1.327 . S
C731 C735 1.429 . S
C732 C715 1.574 . S
C732 H726 0.949 . S
C732 C736 1.368 1_655 S
C733 C714 1.429 . S
C733 C727 1.429 1_455 S
C733 C734 1.523 . S
C734 C715 1.368 1_455 S
C734 C728 1.368 . S
C734 C733 1.523 . S
C735 C719 1.429 1_455 S
C735 C731 1.429 . S
C735 C736 1.523 . S
C736 C720 1.368 . S
C736 C732 1.368 1_455 S
C736 C735 1.523 . S
H737 C712 0.950 . S
H738 C714 0.950 . S
H739 C715 0.949 . S
H740 C717 0.950 . S
H741 C719 0.950 . S
C742 C743 1.349 1_565 S
C742 C744 1.327 . S
C742 H767 0.950 . S
C743 C742 1.349 1_545 S
C743 C759 1.349 . S
C744 C742 1.327 . S
C744 C763 1.429 1_565 S
C744 H768 0.950 . S
C745 C762 1.574 . S
C745 C764 1.368 . S
C745 H769 0.949 . S
H746 C750 0.949 . S
C747 C748 1.349 . S
C747 C749 1.327 . S
C747 H770 0.950 . S
C748 C747 1.349 . S
C748 C760 1.349 1_545 S
C749 C747 1.327 . S
C749 C765 1.429 . S
C749 H771 0.950 . S
C750 H746 0.949 . S
C750 C758 1.574 . S
C750 C766 1.368 1_565 S
H751 C759 0.950 . S
H752 C757 0.950 . S
H753 C758 0.949 . S
H754 C760 0.950 . S
H755 C761 0.950 . S
H756 C762 0.949 . S
C757 H752 0.950 . S
C757 C759 1.327 . S
C757 C763 1.429 . S
C758 C750 1.574 . S
C758 H753 0.949 . S
C758 C764 1.368 1_565 S
C759 C743 1.349 . S
C759 H751 0.950 . S
C759 C757 1.327 . S
C760 C748 1.349 1_565 S
C760 H754 0.950 . S
C760 C761 1.327 . S
C761 H755 0.950 . S
C761 C760 1.327 . S
C761 C765 1.429 1_565 S
C762 C745 1.574 . S
C762 H756 0.949 . S
C762 C766 1.368 . S
C763 C744 1.429 1_545 S
C763 C757 1.429 . S
C763 C764 1.523 . S
C764 C745 1.368 . S
C764 C758 1.368 1_545 S
C764 C763 1.523 . S
C765 C749 1.429 . S
C765 C761 1.429 1_545 S
C765 C766 1.523 . S
C766 C750 1.368 1_545 S
C766 C762 1.368 . S
C766 C765 1.523 . S
H767 C742 0.950 . S
H768 C744 0.950 . S
H769 C745 0.949 . S
H770 C747 0.950 . S
H771 C749 0.950 . S
C772 C773 1.349 . S
C772 C774 1.327 . S
C772 H797 0.950 . S
C773 C772 1.349 . S
C773 C789 1.349 . S
C774 C772 1.327 . S
C774 C793 1.429 . S
C774 H798 0.950 . S
C775 C792 1.574 . S
C775 C794 1.368 . S
C775 H799 0.949 . S
H776 C780 0.949 . S
C777 C778 1.349 . S
C777 C779 1.327 . S
C777 H800 0.950 . S
C778 C777 1.349 . S
C778 C790 1.349 . S
C779 C777 1.327 . S
C779 C795 1.429 . S
C779 H801 0.950 . S
C780 H776 0.949 . S
C780 C788 1.574 . S
C780 C796 1.368 . S
H781 C789 0.950 . S
H782 C787 0.950 . S
H783 C788 0.949 . S
H784 C790 0.950 . S
H785 C791 0.950 . S
H786 C792 0.949 . S
C787 H782 0.950 . S
C787 C789 1.327 . S
C787 C793 1.429 . S
C788 C780 1.574 . S
C788 H783 0.949 . S
C788 C794 1.368 . S
C789 C773 1.349 . S
C789 H781 0.950 . S
C789 C787 1.327 . S
C790 C778 1.349 . S
C790 H784 0.950 . S
C790 C791 1.327 . S
C791 H785 0.950 . S
C791 C790 1.327 . S
C791 C795 1.429 . S
C792 C775 1.574 . S
C792 H786 0.949 . S
C792 C796 1.368 . S
C793 C774 1.429 . S
C793 C787 1.429 . S
C793 C794 1.523 . S
C794 C775 1.368 . S
C794 C788 1.368 . S
C794 C793 1.523 . S
C795 C779 1.429 . S
C795 C791 1.429 . S
C795 C796 1.523 . S
C796 C780 1.368 . S
C796 C792 1.368 . S
C796 C795 1.523 . S
H797 C772 0.950 . S
H798 C774 0.950 . S
H799 C775 0.949 . S
H800 C777 0.950 . S
H801 C779 0.950 . S
C802 C803 1.349 . S
C802 C804 1.327 . S
C802 H827 0.950 . S
C803 C802 1.349 . S
C803 C819 1.349 . S
C804 C802 1.327 . S
C804 C823 1.429 . S
C804 H828 0.950 . S
C805 C822 1.574 . S
C805 C824 1.368 . S
C805 H829 0.949 . S
H806 C810 0.949 . S
C807 C808 1.349 . S
C807 C809 1.327 . S
C807 H830 0.950 . S
C808 C807 1.349 . S
C808 C820 1.349 . S
C809 C807 1.327 . S
C809 C825 1.429 . S
C809 H831 0.950 . S
C810 H806 0.949 . S
C810 C818 1.574 . S
C810 C826 1.368 . S
H811 C819 0.950 . S
H812 C817 0.950 . S
H813 C818 0.949 . S
H814 C820 0.950 . S
H815 C821 0.950 . S
H816 C822 0.949 . S
C817 H812 0.950 . S
C817 C819 1.327 . S
C817 C823 1.429 . S
C818 C810 1.574 . S
C818 H813 0.949 . S
C818 C824 1.368 . S
C819 C803 1.349 . S
C819 H811 0.950 . S
C819 C817 1.327 . S
C820 C808 1.349 . S
C820 H814 0.950 . S
C820 C821 1.327 . S
C821 H815 0.950 . S
C821 C820 1.327 . S
C821 C825 1.429 . S
C822 C805 1.574 . S
C822 H816 0.949 . S
C822 C826 1.368 . S
C823 C804 1.429 . S
C823 C817 1.429 . S
C823 C824 1.523 . S
C824 C805 1.368 . S
C824 C818 1.368 . S
C824 C823 1.523 . S
C825 C809 1.429 . S
C825 C821 1.429 . S
C825 C826 1.523 . S
C826 C810 1.368 . S
C826 C822 1.368 . S
C826 C825 1.523 . S
H827 C802 0.950 . S
H828 C804 0.950 . S
H829 C805 0.949 . S
H830 C807 0.950 . S
H831 C809 0.950 . S
C832 C833 1.349 . S
C832 C834 1.327 . S
C832 H857 0.950 . S
C833 C832 1.349 . S
C833 C849 1.349 1_655 S
C834 C832 1.327 . S
C834 C853 1.429 . S
C834 H858 0.950 . S
C835 C852 1.574 . S
C835 C854 1.368 1_455 S
C835 H859 0.949 . S
H836 C840 0.949 . S
C837 C838 1.349 1_455 S
C837 C839 1.327 . S
C837 H860 0.950 . S
C838 C837 1.349 1_655 S
C838 C850 1.349 . S
C839 C837 1.327 . S
C839 C855 1.429 1_455 S
C839 H861 0.950 . S
C840 H836 0.949 . S
C840 C848 1.574 . S
C840 C856 1.368 . S
H841 C849 0.950 . S
H842 C847 0.950 . S
H843 C848 0.949 . S
H844 C850 0.950 . S
H845 C851 0.950 . S
H846 C852 0.949 . S
C847 H842 0.950 . S
C847 C849 1.327 . S
C847 C853 1.429 1_455 S
C848 C840 1.574 . S
C848 H843 0.949 . S
C848 C854 1.368 . S
C849 C833 1.349 1_455 S
C849 H841 0.950 . S
C849 C847 1.327 . S
C850 C838 1.349 . S
C850 H844 0.950 . S
C850 C851 1.327 . S
C851 H845 0.950 . S
C851 C850 1.327 . S
C851 C855 1.429 . S
C852 C835 1.574 . S
C852 H846 0.949 . S
C852 C856 1.368 1_455 S
C853 C834 1.429 . S
C853 C847 1.429 1_655 S
C853 C854 1.523 . S
C854 C835 1.368 1_655 S
C854 C848 1.368 . S
C854 C853 1.523 . S
C855 C839 1.429 1_655 S
C855 C851 1.429 . S
C855 C856 1.523 . S
C856 C840 1.368 . S
C856 C852 1.368 1_655 S
C856 C855 1.523 . S
H857 C832 0.950 . S
H858 C834 0.950 . S
H859 C835 0.949 . S
H860 C837 0.950 . S
H861 C839 0.950 . S
C862 C863 1.349 . S
C862 C864 1.327 . S
C862 H887 0.950 . S
C863 C862 1.349 . S
C863 C879 1.349 1_565 S
C864 C862 1.327 . S
C864 C883 1.429 . S
C864 H888 0.950 . S
C865 C882 1.574 . S
C865 C884 1.368 1_545 S
C865 H889 0.949 . S
H866 C870 0.949 . S
C867 C868 1.349 1_545 S
C867 C869 1.327 . S
C867 H890 0.950 . S
C868 C867 1.349 1_565 S
C868 C880 1.349 . S
C869 C867 1.327 . S
C869 C885 1.429 1_545 S
C869 H891 0.950 . S
C870 H866 0.949 . S
C870 C878 1.574 . S
C870 C886 1.368 . S
H871 C879 0.950 . S
H872 C877 0.950 . S
H873 C878 0.949 . S
H874 C880 0.950 . S
H875 C881 0.950 . S
H876 C882 0.949 . S
C877 H872 0.950 . S
C877 C879 1.327 . S
C877 C883 1.429 1_545 S
C878 C870 1.574 . S
C878 H873 0.949 . S
C878 C884 1.368 . S
C879 C863 1.349 1_545 S
C879 H871 0.950 . S
C879 C877 1.327 . S
C880 C868 1.349 . S
C880 H874 0.950 . S
C880 C881 1.327 . S
C881 H875 0.950 . S
C881 C880 1.327 . S
C881 C885 1.429 . S
C882 C865 1.574 . S
C882 H876 0.949 . S
C882 C886 1.368 1_545 S
C883 C864 1.429 . S
C883 C877 1.429 1_565 S
C883 C884 1.523 . S
C884 C865 1.368 1_565 S
C884 C878 1.368 . S
C884 C883 1.523 . S
C885 C869 1.429 1_565 S
C885 C881 1.429 . S
C885 C886 1.523 . S
C886 C870 1.368 . S
C886 C882 1.368 1_565 S
C886 C885 1.523 . S
H887 C862 0.950 . S
H888 C864 0.950 . S
H889 C865 0.949 . S
H890 C867 0.950 . S
H891 C869 0.950 . S
C892 C893 1.349 . S
C892 C894 1.327 . S
C892 H917 0.950 . S
C893 C892 1.349 . S
C893 C909 1.349 . S
C894 C892 1.327 . S
C894 C913 1.429 . S
C894 H918 0.950 . S
C895 C912 1.574 . S
C895 C914 1.368 . S
C895 H919 0.949 . S
H896 C900 0.949 . S
C897 C898 1.349 . S
C897 C899 1.327 . S
C897 H920 0.950 . S
C898 C897 1.349 . S
C898 C910 1.349 . S
C899 C897 1.327 . S
C899 C915 1.429 . S
C899 H921 0.950 . S
C900 H896 0.949 . S
C900 C908 1.574 . S
C900 C916 1.368 . S
H901 C909 0.950 . S
H902 C907 0.950 . S
H903 C908 0.949 . S
H904 C910 0.950 . S
H905 C911 0.950 . S
H906 C912 0.949 . S
C907 H902 0.950 . S
C907 C909 1.327 . S
C907 C913 1.429 . S
C908 C900 1.574 . S
C908 H903 0.949 . S
C908 C914 1.368 . S
C909 C893 1.349 . S
C909 H901 0.950 . S
C909 C907 1.327 . S
C910 C898 1.349 . S
C910 H904 0.950 . S
C910 C911 1.327 . S
C911 H905 0.950 . S
C911 C910 1.327 . S
C911 C915 1.429 . S
C912 C895 1.574 . S
C912 H906 0.949 . S
C912 C916 1.368 . S
C913 C894 1.429 . S
C913 C907 1.429 . S
C913 C914 1.523 . S
C914 C895 1.368 . S
C914 C908 1.368 . S
C914 C913 1.523 . S
C915 C899 1.429 . S
C915 C911 1.429 . S
C915 C916 1.523 . S
C916 C900 1.368 . S
C916 C912 1.368 . S
C916 C915 1.523 . S
H917 C892 0.950 . S
H918 C894 0.950 . S
H919 C895 0.949 . S
H920 C897 0.950 . S
H921 C899 0.950 . S
C922 C923 1.349 . S
C922 C924 1.327 . S
C922 H947 0.950 . S
C923 C922 1.349 . S
C923 C939 1.349 . S
C924 C922 1.327 . S
C924 C943 1.429 . S
C924 H948 0.950 . S
C925 C942 1.574 . S
C925 C944 1.368 . S
C925 H949 0.949 . S
H926 C930 0.949 . S
C927 C928 1.349 . S
C927 C929 1.327 . S
C927 H950 0.950 . S
C928 C927 1.349 . S
C928 C940 1.349 . S
C929 C927 1.327 . S
C929 C945 1.429 . S
C929 H951 0.950 . S
C930 H926 0.949 . S
C930 C938 1.574 . S
C930 C946 1.368 . S
H931 C939 0.950 . S
H932 C937 0.950 . S
H933 C938 0.949 . S
H934 C940 0.950 . S
H935 C941 0.950 . S
H936 C942 0.949 . S
C937 H932 0.950 . S
C937 C939 1.327 . S
C937 C943 1.429 . S
C938 C930 1.574 . S
C938 H933 0.949 . S
C938 C944 1.368 . S
C939 C923 1.349 . S
C939 H931 0.950 . S
C939 C937 1.327 . S
C940 C928 1.349 . S
C940 H934 0.950 . S
C940 C941 1.327 . S
C941 H935 0.950 . S
C941 C940 1.327 . S
C941 C945 1.429 . S
C942 C925 1.574 . S
C942 H936 0.949 . S
C942 C946 1.368 . S
C943 C924 1.429 . S
C943 C937 1.429 . S
C943 C944 1.523 . S
C944 C925 1.368 . S
C944 C938 1.368 . S
C944 C943 1.523 . S
C945 C929 1.429 . S
C945 C941 1.429 . S
C945 C946 1.523 . S
C946 C930 1.368 . S
C946 C942 1.368 . S
C946 C945 1.523 . S
H947 C922 0.950 . S
H948 C924 0.950 . S
H949 C925 0.949 . S
H950 C927 0.950 . S
H951 C929 0.950 . S
C233 C61 1.648 1_545 S
C238 C82 1.728 1_545 S
C268 C122 1.736 . S
C263 C70 1.654 . S
C298 C162 1.738 . S
C293 C43 1.652 . S
C328 C202 1.736 1_455 S
C323 C52 1.653 1_455 S
C358 C91 1.731 1_565 S
C353 C25 1.653 . S
C383 C34 1.660 . S
C388 C131 1.740 . S
C413 C7 1.651 . S
C418 C171 1.738 . S
C443 C16 1.652 . S
C448 C211 1.736 1_655 S
C478 C88 0.320 . S
C473 C50 0.273 1_455 S
C508 C128 0.320 . S
C503 C59 0.276 1_545 S
C538 C168 0.319 . S
C533 C67 0.265 . S
C563 C41 0.278 . S
C568 C208 0.317 . S
C593 C14 0.269 . S
C598 C79 0.315 . S
C628 C119 0.320 . S
C623 C23 0.267 . S
C658 C159 0.320 . S
C653 C31 0.273 . S
C683 C5 0.263 . S
C688 C199 0.324 . S
C713 C49 1.793 1_455 S
C718 C83 1.970 . S
C743 C58 1.784 1_545 S
C748 C123 1.967 . S
C778 C163 1.966 . S
C773 C68 1.781 . S
C808 C203 1.970 . S
C803 C40 1.782 . S
C833 C13 1.792 . S
C838 C74 1.983 . S
C868 C114 1.968 . S
C863 C22 1.784 . S
C898 C154 1.966 . S
C893 C32 1.782 . S
C923 C4 1.786 . S
C928 C194 1.976 . S
