# Generated by pormake.
# Topology ssa, (4,4)-cn, num edge types: 1
# Building blocks:
#     Node 0, Type 0, BuildingBlock: NAWXER_clean_sbu_0, # of connection points: 4
#     Node 1, Type 0, BuildingBlock: NAWXER_clean_sbu_0, # of connection points: 4
#     Node 2, Type 0, BuildingBlock: NAWXER_clean_sbu_0, # of connection points: 4
#     Node 3, Type 0, BuildingBlock: NAWXER_clean_sbu_0, # of connection points: 4
#     Node 4, Type 0, BuildingBlock: NAWXER_clean_sbu_0, # of connection points: 4
#     Node 5, Type 0, BuildingBlock: NAWXER_clean_sbu_0, # of connection points: 4
#     Node 6, Type 1, BuildingBlock: MIFKUJ_clean_linker_1, # of connection points: 4
#     Node 7, Type 1, BuildingBlock: MIFKUJ_clean_linker_1, # of connection points: 4
#     Node 8, Type 1, BuildingBlock: MIFKUJ_clean_linker_1, # of connection points: 4
#     Node 9, Type 1, BuildingBlock: MIFKUJ_clean_linker_1, # of connection points: 4
#     Node 10, Type 1, BuildingBlock: MIFKUJ_clean_linker_1, # of connection points: 4
#     Node 11, Type 1, BuildingBlock: MIFKUJ_clean_linker_1, # of connection points: 4
#     Edge 12, Type (0, 1), None
#     Edge 13, Type (0, 1), None
#     Edge 14, Type (0, 1), None
#     Edge 15, Type (0, 1), None
#     Edge 16, Type (0, 1), None
#     Edge 17, Type (0, 1), None
#     Edge 18, Type (0, 1), None
#     Edge 19, Type (0, 1), None
#     Edge 20, Type (0, 1), None
#     Edge 21, Type (0, 1), None
#     Edge 22, Type (0, 1), None
#     Edge 23, Type (0, 1), None
#     Edge 24, Type (0, 1), None
#     Edge 25, Type (0, 1), None
#     Edge 26, Type (0, 1), None
#     Edge 27, Type (0, 1), None
#     Edge 28, Type (0, 1), None
#     Edge 29, Type (0, 1), None
#     Edge 30, Type (0, 1), None
#     Edge 31, Type (0, 1), None
#     Edge 32, Type (0, 1), None
#     Edge 33, Type (0, 1), None
#     Edge 34, Type (0, 1), None
#     Edge 35, Type (0, 1), None
# Relax obj value: 0.011
# Max RMSD: 0.026
# Mean RMSD: 0.026
data_MOF--net-ssa--node1-NAWXER_clean_sbu_0--node2-MIFKUJ_clean_linker_1--edge1-none
_symmetry_space_group_name_H-M    P1
_symmetry_Int_Tables_number       1
_symmetry_cell_setting            triclinic
loop_
_symmetry_equiv_pos_as_xyz
'x, y, z'
_cell_length_a     31.885378
_cell_length_b     31.885941
_cell_length_c     19.046686
_cell_angle_alpha  90.708599
_cell_angle_beta   90.708383
_cell_angle_gamma 119.36284
loop_
_atom_site_label
_atom_site_type_symbol
_atom_site_fract_x
_atom_site_fract_y
_atom_site_fract_z
_atom_type_partial_charge
C0 C 0.08608 0.53296 1.02838 0.0
C1 C 0.97146 0.3751 0.91886 0.0
O2 O 0.05071 0.50544 0.06633 0.0
Zn3 Zn 0.98924 0.4361 0.06314 0.0
O4 O 0.09087 0.51826 0.96799 0.0
Zn5 Zn 0.03463 0.45288 0.97269 0.0
O6 O 0.97944 0.47183 0.96687 0.0
O7 O 0.93969 0.45494 0.06645 0.0
O8 O 0.01251 0.40454 0.89478 0.0
O9 O 0.96065 0.38286 0.98049 0.0
O10 O 0.00293 0.40748 0.14305 0.0
O11 O 0.05541 0.42376 0.05873 0.0
C12 C 0.94631 0.47135 1.00451 0.0
C13 C 0.04085 0.40865 0.12057 0.0
C14 C 0.4105 0.03899 0.62057 0.0
C15 C 0.4732 0.94445 0.50452 0.0
O16 O 0.40933 0.00107 0.64305 0.0
Zn17 Zn 0.43796 0.98738 0.56314 0.0
O18 O 0.42561 0.05355 0.55873 0.0
Zn19 Zn 0.45474 0.03277 0.47269 0.0
O20 O 0.4064 0.01064 0.39478 0.0
O21 O 0.38472 0.95879 0.48049 0.0
O22 O 0.47369 0.97758 0.46687 0.0
O23 O 0.45679 0.93783 0.56646 0.0
O24 O 0.5073 0.04885 0.56633 0.0
O25 O 0.52012 0.08901 0.46799 0.0
C26 C 0.37696 0.96959 0.41885 0.0
C27 C 0.53482 0.08421 0.52839 0.0
C28 C 0.48295 0.46548 0.95776 0.0
C29 C 0.54468 0.6117 0.10619 0.0
O30 O 0.48261 0.50344 0.93799 0.0
Zn31 Zn 0.51587 0.54133 1.02278 0.0
O32 O 0.50188 0.46458 1.01667 0.0
Zn33 Zn 0.53615 0.5077 0.1064 0.0
O34 O 0.48563 0.46756 0.17347 0.0
O35 O 0.46156 0.50163 0.0943 0.0
O36 O 0.54974 0.57802 0.13382 0.0
O37 O 0.52822 0.60636 0.04348 0.0
O38 O 0.58341 0.54603 1.00849 0.0
O39 O 0.60007 0.51267 0.09769 0.0
C40 C 0.45255 0.47458 0.14723 0.0
C41 C 0.61143 0.5336 0.03881 0.0
C42 C 0.04479 0.56809 0.41015 0.0
C43 C 0.94238 0.41776 0.52745 0.0
O44 O 0.06002 0.566 0.47188 0.0
Zn45 Zn 0.03978 0.51787 0.55701 0.0
O46 O 0.00516 0.5335 0.38707 0.0
Zn47 Zn 0.99137 0.49177 0.46742 0.0
O48 O 0.9708 0.52395 0.55008 0.0
O49 O 0.02622 0.55047 0.63464 0.0
O50 O 0.93605 0.42798 0.46517 0.0
O51 O 0.97886 0.44752 0.56478 0.0
O52 O 0.09338 0.50434 0.56112 0.0
O53 O 0.04723 0.47332 0.46619 0.0
C54 C 0.9857 0.5436 0.61111 0.0
C55 C 0.08347 0.47982 0.50401 0.0
C56 C 0.54543 0.98383 0.1111 0.0
C57 C 0.48167 0.08161 1.004 0.0
O58 O 0.55231 0.02434 0.13464 0.0
Zn59 Zn 0.51972 0.03792 0.05701 0.0
O60 O 0.52579 0.96894 0.05007 0.0
Zn61 Zn 0.49362 0.98951 0.96741 0.0
O62 O 0.53536 0.0033 0.88706 0.0
O63 O 0.56785 0.05816 0.97188 0.0
O64 O 0.47517 0.04537 0.96618 0.0
O65 O 0.50619 0.09152 0.06111 0.0
O66 O 0.44937 0.977 0.06476 0.0
O67 O 0.42983 0.93419 0.96515 0.0
C68 C 0.56995 0.04293 0.91014 0.0
C69 C 0.4196 0.94053 1.02743 0.0
C70 C 0.61357 0.54284 0.60619 0.0
C71 C 0.46734 0.48109 0.45778 0.0
O72 O 0.57989 0.5479 0.63383 0.0
Zn73 Zn 0.50956 0.5343 0.60641 0.0
O74 O 0.60823 0.52638 0.54348 0.0
Zn75 Zn 0.5432 0.51402 0.52279 0.0
O76 O 0.54789 0.58156 0.5085 0.0
O77 O 0.51453 0.59821 0.5977 0.0
O78 O 0.5053 0.48076 0.438 0.0
O79 O 0.46644 0.50002 0.51668 0.0
O80 O 0.46943 0.48378 0.67348 0.0
O81 O 0.5035 0.45971 0.59431 0.0
C82 C 0.53546 0.60957 0.53881 0.0
C83 C 0.47645 0.4507 0.64724 0.0
H84 H 0.12686 0.3349 0.19855 0.0
H85 H 0.06236 0.33562 0.12722 0.0
H86 H 0.09718 0.47333 0.21922 0.0
H87 H 0.16359 0.47455 0.28632 0.0
H88 H 0.21908 0.39357 0.18949 0.0
H89 H 0.1044 0.36686 0.3767 0.0
H90 H 0.05424 0.39406 0.43662 0.0
H91 H 0.1815 0.52244 0.51002 0.0
H92 H 0.23163 0.49698 0.44633 0.0
H93 H 0.36101 0.50373 0.32335 0.0
H94 H 0.4434 0.52623 0.36032 0.0
H95 H 0.38996 0.39344 0.47181 0.0
H96 H 0.30739 0.36973 0.43207 0.0
H97 H 0.25439 0.43306 0.44372 0.0
H98 H 0.30731 0.47204 0.17074 0.0
H99 H 0.38679 0.50319 0.12268 0.0
H100 H 0.405 0.39416 0.22945 0.0
H101 H 0.32338 0.36154 0.27586 0.0
C102 C 0.14966 0.40417 0.24937 0.0
C103 C 0.12031 0.36504 0.20406 0.0
C104 C 0.08326 0.36517 0.16378 0.0
C105 C 0.07422 0.40387 0.16953 0.0
C106 C 0.10271 0.44245 0.21565 0.0
C107 C 0.14059 0.44305 0.2542 0.0
C108 C 0.19211 0.40614 0.28661 0.0
C109 C 0.22563 0.40049 0.24557 0.0
C110 C 0.20257 0.41829 0.35952 0.0
C111 C 0.17192 0.43027 0.40516 0.0
C112 C 0.12167 0.40081 0.40566 0.0
C113 C 0.09304 0.41622 0.44036 0.0
C114 C 0.11411 0.46043 0.47772 0.0
C115 C 0.1644 0.48808 0.48208 0.0
C116 C 0.19301 0.47339 0.44558 0.0
C117 C 0.32824 0.43533 0.37581 0.0
C118 C 0.36712 0.47921 0.35515 0.0
C119 C 0.41412 0.49146 0.37452 0.0
C120 C 0.42286 0.46051 0.41601 0.0
C121 C 0.38402 0.41668 0.43688 0.0
C122 C 0.33693 0.40395 0.41643 0.0
C123 C 0.2796 0.41991 0.34649 0.0
C124 C 0.24567 0.42334 0.38858 0.0
C125 C 0.26969 0.40832 0.2743 0.0
C126 C 0.30931 0.41468 0.22737 0.0
C127 C 0.3273 0.45338 0.18158 0.0
C128 C 0.37346 0.47182 0.15538 0.0
C129 C 0.40298 0.45214 0.17431 0.0
C130 C 0.38366 0.4109 0.21559 0.0
C131 C 0.33674 0.39176 0.24094 0.0
H132 H 0.70317 0.18928 0.86451 0.0
H133 H 0.63855 0.13509 0.93826 0.0
H134 H 0.59354 0.02208 0.77988 0.0
H135 H 0.6605 0.0769 0.70616 0.0
H136 H 0.7776 0.18929 0.82338 0.0
H137 H 0.63606 0.1747 0.71166 0.0
H138 H 0.55746 0.1338 0.65161 0.0
H139 H 0.62108 0.1051 0.47194 0.0
H140 H 0.69967 0.14373 0.53362 0.0
H141 H 0.84269 0.25276 0.53963 0.0
H142 H 0.89922 0.32513 0.47675 0.0
H143 H 0.90459 0.41351 0.65388 0.0
H144 H 0.8461 0.34206 0.71448 0.0
H145 H 0.75619 0.22959 0.58032 0.0
H146 H 0.91004 0.2804 0.71239 0.0
H147 H 0.97745 0.33871 0.78772 0.0
H148 H 0.87635 0.3249 0.94689 0.0
H149 H 0.81029 0.27024 0.87138 0.0
C150 C 0.687 0.13734 0.77964 0.0
C151 C 0.68 0.15266 0.8457 0.0
C152 C 0.64278 0.12146 0.88801 0.0
C153 C 0.61091 0.07403 0.86526 0.0
C154 C 0.61762 0.05837 0.799 0.0
C155 C 0.65566 0.08973 0.75668 0.0
C156 C 0.72754 0.17216 0.7366 0.0
C157 C 0.773 0.19843 0.77023 0.0
C158 C 0.72136 0.18329 0.6666 0.0
C159 C 0.67374 0.16071 0.6286 0.0
C160 C 0.63333 0.15927 0.65972 0.0
C161 C 0.58858 0.13687 0.62475 0.0
C162 C 0.58355 0.11715 0.55677 0.0
C163 C 0.62432 0.12106 0.52366 0.0
C164 C 0.66901 0.14253 0.55938 0.0
C165 C 0.84145 0.29192 0.63278 0.0
C166 C 0.85603 0.28779 0.56477 0.0
C167 C 0.8879 0.32888 0.52875 0.0
C168 C 0.90612 0.37431 0.56105 0.0
C169 C 0.89122 0.3785 0.62854 0.0
C170 C 0.85836 0.33773 0.66351 0.0
C171 C 0.8053 0.2487 0.66886 0.0
C172 C 0.76107 0.22014 0.63316 0.0
C173 C 0.81152 0.2383 0.7393 0.0
C174 C 0.85442 0.27072 0.78533 0.0
C175 C 0.90244 0.29007 0.76346 0.0
C176 C 0.94112 0.32315 0.80688 0.0
C177 C 0.93264 0.33646 0.87383 0.0
C178 C 0.88478 0.31542 0.89625 0.0
C179 C 0.84653 0.28366 0.85269 0.0
H180 H 0.57871 0.88422 0.48853 0.0
H181 H 0.5433 0.92607 0.55332 0.0
H182 H 0.44238 0.89612 0.38165 0.0
H183 H 0.47541 0.85206 0.31896 0.0
H184 H 0.54296 0.79714 0.45226 0.0
H185 H 0.60068 0.94189 0.31372 0.0
H186 H 0.59457 0.00135 0.23918 0.0
H187 H 0.51104 0.8886 0.08618 0.0
H188 H 0.51497 0.83004 0.16093 0.0
H189 H 0.50896 0.73095 0.16956 0.0
H190 H 0.5035 0.66816 0.09022 0.0
H191 H 0.6023 0.6485 0.22451 0.0
H192 H 0.61017 0.71402 0.30251 0.0
H193 H 0.5765 0.8123 0.19841 0.0
H194 H 0.49392 0.66815 0.34476 0.0
H195 H 0.48397 0.60329 0.42238 0.0
H196 H 0.59639 0.70605 0.56066 0.0
H197 H 0.60774 0.77114 0.48181 0.0
C198 C 0.5308 0.8663 0.3977 0.0
C199 C 0.54872 0.88638 0.46505 0.0
C200 C 0.52824 0.90968 0.50242 0.0
C201 C 0.49007 0.91365 0.47238 0.0
C202 C 0.4718 0.89318 0.4057 0.0
C203 C 0.49135 0.86893 0.36927 0.0
C204 C 0.54976 0.83825 0.36019 0.0
C205 C 0.55107 0.80089 0.39677 0.0
C206 C 0.56018 0.84334 0.2876 0.0
C207 C 0.55841 0.88108 0.24334 0.0
C208 C 0.58089 0.93004 0.26422 0.0
C209 C 0.57778 0.96415 0.22128 0.0
C210 C 0.55296 0.95005 0.15606 0.0
C211 C 0.53126 0.90126 0.13527 0.0
C212 C 0.53355 0.86741 0.17833 0.0
C213 C 0.55992 0.7275 0.24276 0.0
C214 C 0.5303 0.7139 0.18175 0.0
C215 C 0.52724 0.67799 0.13593 0.0
C216 C 0.55276 0.65365 0.1506 0.0
C217 C 0.58232 0.66685 0.21166 0.0
C218 C 0.5864 0.7039 0.25684 0.0
C219 C 0.5633 0.76762 0.28831 0.0
C220 C 0.56848 0.80869 0.25391 0.0
C221 C 0.55699 0.76497 0.36229 0.0
C222 C 0.55256 0.72455 0.40603 0.0
C223 C 0.5171 0.67686 0.39091 0.0
C224 C 0.5108 0.63995 0.43597 0.0
C225 C 0.53881 0.65002 0.49795 0.0
C226 C 0.57371 0.69762 0.51398 0.0
C227 C 0.58054 0.73455 0.46837 0.0
H228 H 0.73284 0.50714 0.66956 0.0
H229 H 0.67004 0.50168 0.59021 0.0
H230 H 0.65036 0.60045 0.72453 0.0
H231 H 0.71588 0.60833 0.80252 0.0
H232 H 0.81418 0.57469 0.69843 0.0
H233 H 0.67001 0.49208 0.84475 0.0
H234 H 0.60515 0.48213 0.92237 0.0
H235 H 0.70791 0.59453 0.06066 0.0
H236 H 0.773 0.60588 0.98182 0.0
H237 H 0.88608 0.57685 0.98855 0.0
H238 H 0.92793 0.54143 0.05333 0.0
H239 H 0.898 0.44054 0.88162 0.0
H240 H 0.85394 0.47359 0.81895 0.0
H241 H 0.799 0.54109 0.95226 0.0
H242 H 0.94377 0.59884 0.81373 0.0
H243 H 0.00322 0.59273 0.73919 0.0
H244 H 0.89047 0.50921 0.58618 0.0
H245 H 0.83192 0.51315 0.66094 0.0
C246 C 0.72937 0.55808 0.74277 0.0
C247 C 0.71578 0.52847 0.68175 0.0
C248 C 0.67987 0.52541 0.63593 0.0
C249 C 0.65552 0.55093 0.6506 0.0
C250 C 0.66872 0.58048 0.71167 0.0
C251 C 0.70577 0.58456 0.75685 0.0
C252 C 0.76949 0.56147 0.78832 0.0
C253 C 0.81057 0.56666 0.75392 0.0
C254 C 0.76683 0.55513 0.86229 0.0
C255 C 0.72641 0.55071 0.90603 0.0
C256 C 0.67872 0.51526 0.89091 0.0
C257 C 0.64181 0.50895 0.93596 0.0
C258 C 0.65188 0.53695 0.99795 0.0
C259 C 0.69948 0.57185 1.01398 0.0
C260 C 0.73641 0.57869 0.96837 0.0
C261 C 0.86817 0.52896 0.8977 0.0
C262 C 0.88824 0.54686 0.96506 0.0
C263 C 0.91154 0.52638 1.00242 0.0
C264 C 0.91552 0.48822 0.97237 0.0
C265 C 0.89505 0.46996 0.90568 0.0
C266 C 0.8708 0.48951 0.86926 0.0
C267 C 0.84012 0.54792 0.8602 0.0
C268 C 0.80275 0.54922 0.89678 0.0
C269 C 0.84522 0.55836 0.78762 0.0
C270 C 0.88296 0.55658 0.74335 0.0
C271 C 0.93192 0.57906 0.76423 0.0
C272 C 0.96602 0.57594 0.72128 0.0
C273 C 0.95193 0.55113 0.65606 0.0
C274 C 0.90313 0.52943 0.63528 0.0
C275 C 0.86929 0.53173 0.67834 0.0
H276 H 0.2546 0.84083 0.03963 0.0
H277 H 0.32697 0.89737 0.97675 0.0
H278 H 0.41537 0.90272 0.15384 0.0
H279 H 0.34392 0.84423 0.21445 0.0
H280 H 0.23144 0.75434 0.08031 0.0
H281 H 0.28225 0.90817 0.21238 0.0
H282 H 0.34057 0.97558 0.28771 0.0
H283 H 0.32677 0.87449 0.44689 0.0
H284 H 0.27211 0.80842 0.37137 0.0
H285 H 0.19115 0.70129 0.36449 0.0
H286 H 0.13695 0.63668 0.43825 0.0
H287 H 0.02393 0.59168 0.27989 0.0
H288 H 0.07876 0.65864 0.20616 0.0
H289 H 0.19116 0.77573 0.32339 0.0
H290 H 0.17657 0.63421 0.21165 0.0
H291 H 0.13567 0.55561 0.1516 0.0
H292 H 0.10695 0.61921 0.97193 0.0
H293 H 0.14557 0.69781 0.03361 0.0
C294 C 0.29377 0.83959 0.13276 0.0
C295 C 0.28964 0.85417 0.06477 0.0
C296 C 0.33072 0.88604 1.02874 0.0
C297 C 0.37616 0.90426 0.06103 0.0
C298 C 0.38036 0.88936 0.12851 0.0
C299 C 0.33959 0.8565 0.16349 0.0
C300 C 0.25056 0.80344 0.16885 0.0
C301 C 0.22199 0.75921 0.13315 0.0
C302 C 0.24017 0.80964 0.2393 0.0
C303 C 0.27259 0.85256 0.28533 0.0
C304 C 0.29193 0.90057 0.26346 0.0
C305 C 0.32501 0.93925 0.30687 0.0
C306 C 0.33832 0.93078 0.37382 0.0
C307 C 0.31728 0.88292 0.39625 0.0
C308 C 0.28553 0.84466 0.35269 0.0
C309 C 0.1392 0.68514 0.27964 0.0
C310 C 0.15452 0.67813 0.34569 0.0
C311 C 0.12333 0.64092 0.388 0.0
C312 C 0.07589 0.60904 0.36525 0.0
C313 C 0.06023 0.61576 0.299 0.0
C314 C 0.09158 0.6538 0.25668 0.0
C315 C 0.17402 0.72567 0.2366 0.0
C316 C 0.20029 0.77113 0.27023 0.0
C317 C 0.18513 0.7195 0.16659 0.0
C318 C 0.16257 0.67188 0.12859 0.0
C319 C 0.16113 0.63147 0.15971 0.0
C320 C 0.13873 0.58672 0.12473 0.0
C321 C 0.11901 0.58169 0.05675 0.0
C322 C 0.12291 0.62245 1.02365 0.0
C323 C 0.14438 0.66715 0.05936 0.0
H324 H 0.5056 0.35915 0.82336 0.0
H325 H 0.5281 0.44153 0.86033 0.0
H326 H 0.39529 0.3881 0.97178 0.0
H327 H 0.37158 0.30553 0.93203 0.0
H328 H 0.43491 0.25253 0.94371 0.0
H329 H 0.47392 0.30547 0.67077 0.0
H330 H 0.50508 0.38495 0.62271 0.0
H331 H 0.39602 0.40314 0.72944 0.0
H332 H 0.3634 0.32152 0.77584 0.0
H333 H 0.33675 0.125 0.69853 0.0
H334 H 0.33748 0.0605 0.6272 0.0
H335 H 0.47518 0.09531 0.71922 0.0
H336 H 0.4764 0.16172 0.78632 0.0
H337 H 0.39544 0.21723 0.68947 0.0
H338 H 0.3687 0.10254 0.8767 0.0
H339 H 0.39591 0.05238 0.93661 0.0
H340 H 0.52429 0.17964 1.01001 0.0
H341 H 0.49883 0.22977 0.94631 0.0
C342 C 0.43719 0.32638 0.8758 0.0
C343 C 0.48108 0.36526 0.85516 0.0
C344 C 0.49332 0.41226 0.87453 0.0
C345 C 0.46237 0.421 0.916 0.0
C346 C 0.41853 0.38216 0.93685 0.0
C347 C 0.4058 0.33507 0.91641 0.0
C348 C 0.42177 0.27774 0.84647 0.0
C349 C 0.42519 0.24381 0.88857 0.0
C350 C 0.41018 0.26783 0.77428 0.0
C351 C 0.41656 0.30746 0.72737 0.0
C352 C 0.45526 0.32546 0.6816 0.0
C353 C 0.47371 0.37162 0.6554 0.0
C354 C 0.45401 0.40113 0.67432 0.0
C355 C 0.41276 0.3818 0.71559 0.0
C356 C 0.39362 0.33488 0.74093 0.0
C357 C 0.40603 0.1478 0.74936 0.0
C358 C 0.3669 0.11845 0.70404 0.0
C359 C 0.36703 0.0814 0.66377 0.0
C360 C 0.40572 0.07235 0.66953 0.0
C361 C 0.4443 0.10085 0.71565 0.0
C362 C 0.4449 0.13873 0.75419 0.0
C363 C 0.40799 0.19025 0.7866 0.0
C364 C 0.40235 0.22377 0.74555 0.0
C365 C 0.42014 0.20071 0.85951 0.0
C366 C 0.43212 0.17005 0.90515 0.0
C367 C 0.40266 0.11981 0.90565 0.0
C368 C 0.41807 0.09117 0.94036 0.0
C369 C 0.46228 0.11225 0.97771 0.0
C370 C 0.48993 0.16254 0.98207 0.0
C371 C 0.47524 0.19115 0.94557 0.0
loop_
_geom_bond_atom_site_label_1
_geom_bond_atom_site_label_2
_geom_bond_distance
_geom_bond_site_symmetry_2
_ccdc_geom_bond_type
C0 O2 1.247 . S
C0 O4 1.258 . S
C1 O8 1.247 . S
C1 O9 1.258 . S
O2 C0 1.247 . S
O2 Zn3 2.028 1_455 S
Zn3 O2 2.028 1_655 S
Zn3 O7 2.035 1_554 S
Zn3 O9 2.035 1_554 S
Zn3 O10 2.028 1_655 S
O4 C0 1.258 . S
O4 Zn5 2.035 1_554 S
Zn5 O4 2.035 1_556 S
Zn5 O6 2.028 1_455 S
Zn5 O8 2.028 1_455 S
Zn5 O11 2.035 1_556 S
O6 Zn5 2.028 1_655 S
O6 C12 1.247 . S
O7 Zn3 2.035 1_556 S
O7 C12 1.258 . S
O8 C1 1.247 . S
O8 Zn5 2.028 1_655 S
O9 C1 1.258 . S
O9 Zn3 2.035 1_556 S
O10 Zn3 2.028 1_455 S
O10 C13 1.247 . S
O11 Zn5 2.035 1_554 S
O11 C13 1.258 . S
C12 O6 1.247 . S
C12 O7 1.258 . S
C13 O10 1.247 . S
C13 O11 1.258 . S
C14 O16 1.247 . S
C14 O18 1.258 . S
C15 O22 1.247 . S
C15 O23 1.258 . S
O16 C14 1.247 . S
O16 Zn17 2.028 1_545 S
Zn17 O16 2.028 1_565 S
Zn17 O21 2.035 . S
Zn17 O23 2.035 . S
Zn17 O24 2.028 1_565 S
O18 C14 1.258 . S
O18 Zn19 2.035 . S
Zn19 O18 2.035 . S
Zn19 O20 2.028 1_545 S
Zn19 O22 2.028 1_545 S
Zn19 O25 2.035 . S
O20 Zn19 2.028 1_565 S
O20 C26 1.247 . S
O21 Zn17 2.035 . S
O21 C26 1.258 . S
O22 C15 1.247 . S
O22 Zn19 2.028 1_565 S
O23 C15 1.258 . S
O23 Zn17 2.035 . S
O24 Zn17 2.028 1_545 S
O24 C27 1.247 . S
O25 Zn19 2.035 . S
O25 C27 1.258 . S
C26 O20 1.247 . S
C26 O21 1.258 . S
C27 O24 1.247 . S
C27 O25 1.258 . S
C28 O30 1.247 . S
C28 O32 1.258 . S
C29 O36 1.247 . S
C29 O37 1.258 . S
O30 C28 1.247 . S
O30 Zn31 2.028 . S
Zn31 O30 2.028 . S
Zn31 O35 2.035 1_556 S
Zn31 O37 2.035 1_556 S
Zn31 O38 2.028 . S
O32 C28 1.258 . S
O32 Zn33 2.035 1_556 S
Zn33 O32 2.035 1_554 S
Zn33 O34 2.028 . S
Zn33 O36 2.028 . S
Zn33 O39 2.035 1_554 S
O34 Zn33 2.028 . S
O34 C40 1.247 . S
O35 Zn31 2.035 1_554 S
O35 C40 1.258 . S
O36 C29 1.247 . S
O36 Zn33 2.028 . S
O37 C29 1.258 . S
O37 Zn31 2.035 1_554 S
O38 Zn31 2.028 . S
O38 C41 1.247 . S
O39 Zn33 2.035 1_556 S
O39 C41 1.258 . S
C40 O34 1.247 . S
C40 O35 1.258 . S
C41 O38 1.247 . S
C41 O39 1.258 . S
C42 O44 1.247 . S
C42 O46 1.258 . S
C43 O50 1.247 . S
C43 O51 1.258 . S
O44 C42 1.247 . S
O44 Zn45 2.028 . S
Zn45 O44 2.028 . S
Zn45 O49 2.035 1_455 S
Zn45 O51 2.035 1_455 S
Zn45 O52 2.028 . S
O46 C42 1.258 . S
O46 Zn47 2.035 1_455 S
Zn47 O46 2.035 1_655 S
Zn47 O48 2.028 . S
Zn47 O50 2.028 . S
Zn47 O53 2.035 1_655 S
O48 Zn47 2.028 . S
O48 C54 1.247 . S
O49 Zn45 2.035 1_655 S
O49 C54 1.258 . S
O50 C43 1.247 . S
O50 Zn47 2.028 . S
O51 C43 1.258 . S
O51 Zn45 2.035 1_655 S
O52 Zn45 2.028 . S
O52 C55 1.247 . S
O53 Zn47 2.035 1_455 S
O53 C55 1.258 . S
C54 O48 1.247 . S
C54 O49 1.258 . S
C55 O52 1.247 . S
C55 O53 1.258 . S
C56 O58 1.247 . S
C56 O60 1.258 . S
C57 O64 1.247 . S
C57 O65 1.258 . S
O58 C56 1.247 . S
O58 Zn59 2.028 1_565 S
Zn59 O58 2.028 1_545 S
Zn59 O63 2.035 1_554 S
Zn59 O65 2.035 1_554 S
Zn59 O66 2.028 1_545 S
O60 C56 1.258 . S
O60 Zn61 2.035 1_554 S
Zn61 O60 2.035 1_556 S
Zn61 O62 2.028 1_565 S
Zn61 O64 2.028 1_565 S
Zn61 O67 2.035 1_556 S
O62 Zn61 2.028 1_545 S
O62 C68 1.247 . S
O63 Zn59 2.035 1_556 S
O63 C68 1.258 . S
O64 C57 1.247 . S
O64 Zn61 2.028 1_545 S
O65 C57 1.258 . S
O65 Zn59 2.035 1_556 S
O66 Zn59 2.028 1_565 S
O66 C69 1.247 . S
O67 Zn61 2.035 1_554 S
O67 C69 1.258 . S
C68 O62 1.247 . S
C68 O63 1.258 . S
C69 O66 1.247 . S
C69 O67 1.258 . S
C70 O72 1.247 . S
C70 O74 1.258 . S
C71 O78 1.247 . S
C71 O79 1.258 . S
O72 C70 1.247 . S
O72 Zn73 2.028 . S
Zn73 O72 2.028 . S
Zn73 O77 2.035 . S
Zn73 O79 2.035 . S
Zn73 O80 2.028 . S
O74 C70 1.258 . S
O74 Zn75 2.035 . S
Zn75 O74 2.035 . S
Zn75 O76 2.028 . S
Zn75 O78 2.028 . S
Zn75 O81 2.035 . S
O76 Zn75 2.028 . S
O76 C82 1.247 . S
O77 Zn73 2.035 . S
O77 C82 1.258 . S
O78 C71 1.247 . S
O78 Zn75 2.028 . S
O79 C71 1.258 . S
O79 Zn73 2.035 . S
O80 Zn73 2.028 . S
O80 C83 1.247 . S
O81 Zn75 2.035 . S
O81 C83 1.258 . S
C82 O76 1.247 . S
C82 O77 1.258 . S
C83 O80 1.247 . S
C83 O81 1.258 . S
H84 C103 0.949 . S
H85 C104 0.950 . S
H86 C106 0.950 . S
H87 C107 0.950 . S
H88 C109 0.950 . S
H89 C112 0.950 . S
H90 C113 0.950 . S
H91 C115 0.951 . S
H92 C116 0.949 . S
H93 C118 0.949 . S
H94 C119 0.950 . S
H95 C121 0.950 . S
H96 C122 0.950 . S
H97 C124 0.950 . S
H98 C127 0.950 . S
H99 C128 0.950 . S
H100 C130 0.951 . S
H101 C131 0.949 . S
C102 C103 1.376 . S
C102 C107 1.386 . S
C102 C108 1.483 . S
C103 H84 0.949 . S
C103 C102 1.376 . S
C103 C104 1.397 . S
C104 H85 0.950 . S
C104 C103 1.397 . S
C104 C105 1.391 . S
C105 C104 1.391 . S
C105 C106 1.405 . S
C106 H86 0.950 . S
C106 C105 1.405 . S
C106 C107 1.367 . S
C107 H87 0.950 . S
C107 C102 1.386 . S
C107 C106 1.367 . S
C108 C102 1.483 . S
C108 C109 1.382 . S
C108 C110 1.403 . S
C109 H88 0.950 . S
C109 C108 1.382 . S
C109 C125 1.411 . S
C110 C108 1.403 . S
C110 C111 1.489 . S
C110 C124 1.411 . S
C111 C110 1.489 . S
C111 C112 1.383 . S
C111 C116 1.382 . S
C112 H89 0.950 . S
C112 C111 1.383 . S
C112 C113 1.395 . S
C113 H90 0.950 . S
C113 C112 1.395 . S
C113 C114 1.288 . S
C114 C113 1.288 . S
C114 C115 1.392 . S
C115 H91 0.951 . S
C115 C114 1.392 . S
C115 C116 1.392 . S
C116 H92 0.949 . S
C116 C111 1.382 . S
C116 C115 1.392 . S
C117 C118 1.376 . S
C117 C122 1.386 . S
C117 C123 1.483 . S
C118 H93 0.949 . S
C118 C117 1.376 . S
C118 C119 1.397 . S
C119 H94 0.950 . S
C119 C118 1.397 . S
C119 C120 1.391 . S
C120 C119 1.391 . S
C120 C121 1.405 . S
C121 H95 0.950 . S
C121 C120 1.405 . S
C121 C122 1.367 . S
C122 H96 0.950 . S
C122 C117 1.386 . S
C122 C121 1.367 . S
C123 C117 1.483 . S
C123 C124 1.382 . S
C123 C125 1.403 . S
C124 H97 0.950 . S
C124 C110 1.411 . S
C124 C123 1.382 . S
C125 C109 1.411 . S
C125 C123 1.403 . S
C125 C126 1.489 . S
C126 C125 1.489 . S
C126 C127 1.383 . S
C126 C131 1.382 . S
C127 H98 0.950 . S
C127 C126 1.383 . S
C127 C128 1.395 . S
C128 H99 0.950 . S
C128 C127 1.395 . S
C128 C129 1.288 . S
C129 C128 1.288 . S
C129 C130 1.392 . S
C130 H100 0.951 . S
C130 C129 1.392 . S
C130 C131 1.392 . S
C131 H101 0.949 . S
C131 C126 1.382 . S
C131 C130 1.392 . S
H132 C151 0.949 . S
H133 C152 0.950 . S
H134 C154 0.950 . S
H135 C155 0.950 . S
H136 C157 0.950 . S
H137 C160 0.950 . S
H138 C161 0.950 . S
H139 C163 0.951 . S
H140 C164 0.949 . S
H141 C166 0.949 . S
H142 C167 0.950 . S
H143 C169 0.950 . S
H144 C170 0.950 . S
H145 C172 0.950 . S
H146 C175 0.950 . S
H147 C176 0.950 . S
H148 C178 0.951 . S
H149 C179 0.949 . S
C150 C151 1.376 . S
C150 C155 1.386 . S
C150 C156 1.483 . S
C151 H132 0.949 . S
C151 C150 1.376 . S
C151 C152 1.397 . S
C152 H133 0.950 . S
C152 C151 1.397 . S
C152 C153 1.391 . S
C153 C152 1.391 . S
C153 C154 1.405 . S
C154 H134 0.950 . S
C154 C153 1.405 . S
C154 C155 1.367 . S
C155 H135 0.950 . S
C155 C150 1.386 . S
C155 C154 1.367 . S
C156 C150 1.483 . S
C156 C157 1.382 . S
C156 C158 1.403 . S
C157 H136 0.950 . S
C157 C156 1.382 . S
C157 C173 1.411 . S
C158 C156 1.403 . S
C158 C159 1.489 . S
C158 C172 1.411 . S
C159 C158 1.489 . S
C159 C160 1.383 . S
C159 C164 1.382 . S
C160 H137 0.950 . S
C160 C159 1.383 . S
C160 C161 1.395 . S
C161 H138 0.950 . S
C161 C160 1.395 . S
C161 C162 1.288 . S
C162 C161 1.288 . S
C162 C163 1.392 . S
C163 H139 0.951 . S
C163 C162 1.392 . S
C163 C164 1.392 . S
C164 H140 0.949 . S
C164 C159 1.382 . S
C164 C163 1.392 . S
C165 C166 1.376 . S
C165 C170 1.386 . S
C165 C171 1.483 . S
C166 H141 0.949 . S
C166 C165 1.376 . S
C166 C167 1.397 . S
C167 H142 0.950 . S
C167 C166 1.397 . S
C167 C168 1.391 . S
C168 C167 1.391 . S
C168 C169 1.405 . S
C169 H143 0.950 . S
C169 C168 1.405 . S
C169 C170 1.367 . S
C170 H144 0.950 . S
C170 C165 1.386 . S
C170 C169 1.367 . S
C171 C165 1.483 . S
C171 C172 1.382 . S
C171 C173 1.403 . S
C172 H145 0.950 . S
C172 C158 1.411 . S
C172 C171 1.382 . S
C173 C157 1.411 . S
C173 C171 1.403 . S
C173 C174 1.489 . S
C174 C173 1.489 . S
C174 C175 1.383 . S
C174 C179 1.382 . S
C175 H146 0.950 . S
C175 C174 1.383 . S
C175 C176 1.395 . S
C176 H147 0.950 . S
C176 C175 1.395 . S
C176 C177 1.288 . S
C177 C176 1.288 . S
C177 C178 1.392 . S
C178 H148 0.951 . S
C178 C177 1.392 . S
C178 C179 1.392 . S
C179 H149 0.949 . S
C179 C174 1.382 . S
C179 C178 1.392 . S
H180 C199 0.949 . S
H181 C200 0.950 . S
H182 C202 0.950 . S
H183 C203 0.950 . S
H184 C205 0.950 . S
H185 C208 0.950 . S
H186 C209 0.950 . S
H187 C211 0.951 . S
H188 C212 0.949 . S
H189 C214 0.949 . S
H190 C215 0.950 . S
H191 C217 0.950 . S
H192 C218 0.950 . S
H193 C220 0.950 . S
H194 C223 0.950 . S
H195 C224 0.950 . S
H196 C226 0.951 . S
H197 C227 0.949 . S
C198 C199 1.376 . S
C198 C203 1.386 . S
C198 C204 1.483 . S
C199 H180 0.949 . S
C199 C198 1.376 . S
C199 C200 1.397 . S
C200 H181 0.950 . S
C200 C199 1.397 . S
C200 C201 1.391 . S
C201 C200 1.391 . S
C201 C202 1.405 . S
C202 H182 0.950 . S
C202 C201 1.405 . S
C202 C203 1.367 . S
C203 H183 0.950 . S
C203 C198 1.386 . S
C203 C202 1.367 . S
C204 C198 1.483 . S
C204 C205 1.382 . S
C204 C206 1.403 . S
C205 H184 0.950 . S
C205 C204 1.382 . S
C205 C221 1.411 . S
C206 C204 1.403 . S
C206 C207 1.489 . S
C206 C220 1.411 . S
C207 C206 1.489 . S
C207 C208 1.383 . S
C207 C212 1.382 . S
C208 H185 0.950 . S
C208 C207 1.383 . S
C208 C209 1.395 . S
C209 H186 0.950 . S
C209 C208 1.395 . S
C209 C210 1.288 . S
C210 C209 1.288 . S
C210 C211 1.392 . S
C211 H187 0.951 . S
C211 C210 1.392 . S
C211 C212 1.392 . S
C212 H188 0.949 . S
C212 C207 1.382 . S
C212 C211 1.392 . S
C213 C214 1.376 . S
C213 C218 1.386 . S
C213 C219 1.483 . S
C214 H189 0.949 . S
C214 C213 1.376 . S
C214 C215 1.397 . S
C215 H190 0.950 . S
C215 C214 1.397 . S
C215 C216 1.391 . S
C216 C215 1.391 . S
C216 C217 1.405 . S
C217 H191 0.950 . S
C217 C216 1.405 . S
C217 C218 1.367 . S
C218 H192 0.950 . S
C218 C213 1.386 . S
C218 C217 1.367 . S
C219 C213 1.483 . S
C219 C220 1.382 . S
C219 C221 1.403 . S
C220 H193 0.950 . S
C220 C206 1.411 . S
C220 C219 1.382 . S
C221 C205 1.411 . S
C221 C219 1.403 . S
C221 C222 1.489 . S
C222 C221 1.489 . S
C222 C223 1.383 . S
C222 C227 1.382 . S
C223 H194 0.950 . S
C223 C222 1.383 . S
C223 C224 1.395 . S
C224 H195 0.950 . S
C224 C223 1.395 . S
C224 C225 1.288 . S
C225 C224 1.288 . S
C225 C226 1.392 . S
C226 H196 0.951 . S
C226 C225 1.392 . S
C226 C227 1.392 . S
C227 H197 0.949 . S
C227 C222 1.382 . S
C227 C226 1.392 . S
H228 C247 0.949 . S
H229 C248 0.950 . S
H230 C250 0.950 . S
H231 C251 0.950 . S
H232 C253 0.950 . S
H233 C256 0.950 . S
H234 C257 0.950 . S
H235 C259 0.951 . S
H236 C260 0.949 . S
H237 C262 0.949 . S
H238 C263 0.950 . S
H239 C265 0.950 . S
H240 C266 0.950 . S
H241 C268 0.950 . S
H242 C271 0.950 . S
H243 C272 0.950 . S
H244 C274 0.951 . S
H245 C275 0.949 . S
C246 C247 1.376 . S
C246 C251 1.386 . S
C246 C252 1.483 . S
C247 H228 0.949 . S
C247 C246 1.376 . S
C247 C248 1.397 . S
C248 H229 0.950 . S
C248 C247 1.397 . S
C248 C249 1.391 . S
C249 C248 1.391 . S
C249 C250 1.405 . S
C250 H230 0.950 . S
C250 C249 1.405 . S
C250 C251 1.367 . S
C251 H231 0.950 . S
C251 C246 1.386 . S
C251 C250 1.367 . S
C252 C246 1.483 . S
C252 C253 1.382 . S
C252 C254 1.403 . S
C253 H232 0.950 . S
C253 C252 1.382 . S
C253 C269 1.411 . S
C254 C252 1.403 . S
C254 C255 1.489 . S
C254 C268 1.411 . S
C255 C254 1.489 . S
C255 C256 1.383 . S
C255 C260 1.382 . S
C256 H233 0.950 . S
C256 C255 1.383 . S
C256 C257 1.395 . S
C257 H234 0.950 . S
C257 C256 1.395 . S
C257 C258 1.288 . S
C258 C257 1.288 . S
C258 C259 1.392 . S
C259 H235 0.951 . S
C259 C258 1.392 . S
C259 C260 1.392 . S
C260 H236 0.949 . S
C260 C255 1.382 . S
C260 C259 1.392 . S
C261 C262 1.376 . S
C261 C266 1.386 . S
C261 C267 1.483 . S
C262 H237 0.949 . S
C262 C261 1.376 . S
C262 C263 1.397 . S
C263 H238 0.950 . S
C263 C262 1.397 . S
C263 C264 1.391 . S
C264 C263 1.391 . S
C264 C265 1.405 . S
C265 H239 0.950 . S
C265 C264 1.405 . S
C265 C266 1.367 . S
C266 H240 0.950 . S
C266 C261 1.386 . S
C266 C265 1.367 . S
C267 C261 1.483 . S
C267 C268 1.382 . S
C267 C269 1.403 . S
C268 H241 0.950 . S
C268 C254 1.411 . S
C268 C267 1.382 . S
C269 C253 1.411 . S
C269 C267 1.403 . S
C269 C270 1.489 . S
C270 C269 1.489 . S
C270 C271 1.383 . S
C270 C275 1.382 . S
C271 H242 0.950 . S
C271 C270 1.383 . S
C271 C272 1.395 . S
C272 H243 0.950 . S
C272 C271 1.395 . S
C272 C273 1.288 . S
C273 C272 1.288 . S
C273 C274 1.392 . S
C274 H244 0.951 . S
C274 C273 1.392 . S
C274 C275 1.392 . S
C275 H245 0.949 . S
C275 C270 1.382 . S
C275 C274 1.392 . S
H276 C295 0.949 . S
H277 C296 0.950 . S
H278 C298 0.950 . S
H279 C299 0.950 . S
H280 C301 0.950 . S
H281 C304 0.950 . S
H282 C305 0.950 . S
H283 C307 0.951 . S
H284 C308 0.949 . S
H285 C310 0.949 . S
H286 C311 0.950 . S
H287 C313 0.950 . S
H288 C314 0.950 . S
H289 C316 0.950 . S
H290 C319 0.950 . S
H291 C320 0.950 . S
H292 C322 0.951 . S
H293 C323 0.949 . S
C294 C295 1.376 . S
C294 C299 1.386 . S
C294 C300 1.483 . S
C295 H276 0.949 . S
C295 C294 1.376 . S
C295 C296 1.397 . S
C296 H277 0.950 . S
C296 C295 1.397 . S
C296 C297 1.391 . S
C297 C296 1.391 . S
C297 C298 1.405 . S
C298 H278 0.950 . S
C298 C297 1.405 . S
C298 C299 1.367 . S
C299 H279 0.950 . S
C299 C294 1.386 . S
C299 C298 1.367 . S
C300 C294 1.483 . S
C300 C301 1.382 . S
C300 C302 1.403 . S
C301 H280 0.950 . S
C301 C300 1.382 . S
C301 C317 1.411 . S
C302 C300 1.403 . S
C302 C303 1.489 . S
C302 C316 1.411 . S
C303 C302 1.489 . S
C303 C304 1.383 . S
C303 C308 1.382 . S
C304 H281 0.950 . S
C304 C303 1.383 . S
C304 C305 1.395 . S
C305 H282 0.950 . S
C305 C304 1.395 . S
C305 C306 1.288 . S
C306 C305 1.288 . S
C306 C307 1.392 . S
C307 H283 0.951 . S
C307 C306 1.392 . S
C307 C308 1.392 . S
C308 H284 0.949 . S
C308 C303 1.382 . S
C308 C307 1.392 . S
C309 C310 1.376 . S
C309 C314 1.386 . S
C309 C315 1.483 . S
C310 H285 0.949 . S
C310 C309 1.376 . S
C310 C311 1.397 . S
C311 H286 0.950 . S
C311 C310 1.397 . S
C311 C312 1.391 . S
C312 C311 1.391 . S
C312 C313 1.405 . S
C313 H287 0.950 . S
C313 C312 1.405 . S
C313 C314 1.367 . S
C314 H288 0.950 . S
C314 C309 1.386 . S
C314 C313 1.367 . S
C315 C309 1.483 . S
C315 C316 1.382 . S
C315 C317 1.403 . S
C316 H289 0.950 . S
C316 C302 1.411 . S
C316 C315 1.382 . S
C317 C301 1.411 . S
C317 C315 1.403 . S
C317 C318 1.489 . S
C318 C317 1.489 . S
C318 C319 1.383 . S
C318 C323 1.382 . S
C319 H290 0.950 . S
C319 C318 1.383 . S
C319 C320 1.395 . S
C320 H291 0.950 . S
C320 C319 1.395 . S
C320 C321 1.288 . S
C321 C320 1.288 . S
C321 C322 1.392 . S
C322 H292 0.951 . S
C322 C321 1.392 . S
C322 C323 1.392 . S
C323 H293 0.949 . S
C323 C318 1.382 . S
C323 C322 1.392 . S
H324 C343 0.949 . S
H325 C344 0.950 . S
H326 C346 0.950 . S
H327 C347 0.950 . S
H328 C349 0.950 . S
H329 C352 0.950 . S
H330 C353 0.950 . S
H331 C355 0.951 . S
H332 C356 0.949 . S
H333 C358 0.949 . S
H334 C359 0.950 . S
H335 C361 0.950 . S
H336 C362 0.950 . S
H337 C364 0.950 . S
H338 C367 0.950 . S
H339 C368 0.950 . S
H340 C370 0.951 . S
H341 C371 0.949 . S
C342 C343 1.376 . S
C342 C347 1.386 . S
C342 C348 1.483 . S
C343 H324 0.949 . S
C343 C342 1.376 . S
C343 C344 1.397 . S
C344 H325 0.950 . S
C344 C343 1.397 . S
C344 C345 1.391 . S
C345 C344 1.391 . S
C345 C346 1.405 . S
C346 H326 0.950 . S
C346 C345 1.405 . S
C346 C347 1.367 . S
C347 H327 0.950 . S
C347 C342 1.386 . S
C347 C346 1.367 . S
C348 C342 1.483 . S
C348 C349 1.382 . S
C348 C350 1.403 . S
C349 H328 0.950 . S
C349 C348 1.382 . S
C349 C365 1.411 . S
C350 C348 1.403 . S
C350 C351 1.489 . S
C350 C364 1.411 . S
C351 C350 1.489 . S
C351 C352 1.383 . S
C351 C356 1.382 . S
C352 H329 0.950 . S
C352 C351 1.383 . S
C352 C353 1.395 . S
C353 H330 0.950 . S
C353 C352 1.395 . S
C353 C354 1.288 . S
C354 C353 1.288 . S
C354 C355 1.392 . S
C355 H331 0.951 . S
C355 C354 1.392 . S
C355 C356 1.392 . S
C356 H332 0.949 . S
C356 C351 1.382 . S
C356 C355 1.392 . S
C357 C358 1.376 . S
C357 C362 1.386 . S
C357 C363 1.483 . S
C358 H333 0.949 . S
C358 C357 1.376 . S
C358 C359 1.397 . S
C359 H334 0.950 . S
C359 C358 1.397 . S
C359 C360 1.391 . S
C360 C359 1.391 . S
C360 C361 1.405 . S
C361 H335 0.950 . S
C361 C360 1.405 . S
C361 C362 1.367 . S
C362 H336 0.950 . S
C362 C357 1.386 . S
C362 C361 1.367 . S
C363 C357 1.483 . S
C363 C364 1.382 . S
C363 C365 1.403 . S
C364 H337 0.950 . S
C364 C350 1.411 . S
C364 C363 1.382 . S
C365 C349 1.411 . S
C365 C363 1.403 . S
C365 C366 1.489 . S
C366 C365 1.489 . S
C366 C367 1.383 . S
C366 C371 1.382 . S
C367 H338 0.950 . S
C367 C366 1.383 . S
C367 C368 1.395 . S
C368 H339 0.950 . S
C368 C367 1.395 . S
C368 C369 1.288 . S
C369 C368 1.288 . S
C369 C370 1.392 . S
C370 H340 0.951 . S
C370 C369 1.392 . S
C370 C371 1.392 . S
C371 H341 0.949 . S
C371 C366 1.382 . S
C371 C370 1.392 . S
C13 C105 2.285 . S
C27 C162 2.343 . S
C216 C29 2.215 . S
C273 C54 2.147 . S
C297 C69 2.285 . S
C354 C83 2.343 . S
C15 C201 2.285 . S
C41 C258 2.343 . S
C312 C42 2.216 . S
C369 C57 2.145 . S
C71 C120 2.214 . S
C177 C1 2.145 . S
C264 C12 2.285 . S
C26 C306 2.145 . S
C345 C28 2.214 . S
C55 C114 2.147 . S
C68 C153 2.214 . S
C82 C225 2.343 . S
C14 C360 2.284 . S
C129 C40 2.343 . S
C43 C168 2.287 . S
C56 C210 2.145 . S
C70 C249 2.214 . S
C0 C321 2.343 . S
