# Generated by pormake.
# Topology ctn, (3,4)-cn, num edge types: 1
# Building blocks:
#     Node 0, Type 0, BuildingBlock: VETTIZ_charged_linker_0, # of connection points: 3
#     Node 1, Type 0, BuildingBlock: VETTIZ_charged_linker_0, # of connection points: 3
#     Node 2, Type 0, BuildingBlock: VETTIZ_charged_linker_0, # of connection points: 3
#     Node 3, Type 0, BuildingBlock: VETTIZ_charged_linker_0, # of connection points: 3
#     Node 4, Type 0, BuildingBlock: VETTIZ_charged_linker_0, # of connection points: 3
#     Node 5, Type 0, BuildingBlock: VETTIZ_charged_linker_0, # of connection points: 3
#     Node 6, Type 0, BuildingBlock: VETTIZ_charged_linker_0, # of connection points: 3
#     Node 7, Type 0, BuildingBlock: VETTIZ_charged_linker_0, # of connection points: 3
#     Node 8, Type 0, BuildingBlock: VETTIZ_charged_linker_0, # of connection points: 3
#     Node 9, Type 0, BuildingBlock: VETTIZ_charged_linker_0, # of connection points: 3
#     Node 10, Type 0, BuildingBlock: VETTIZ_charged_linker_0, # of connection points: 3
#     Node 11, Type 0, BuildingBlock: VETTIZ_charged_linker_0, # of connection points: 3
#     Node 12, Type 0, BuildingBlock: VETTIZ_charged_linker_0, # of connection points: 3
#     Node 13, Type 0, BuildingBlock: VETTIZ_charged_linker_0, # of connection points: 3
#     Node 14, Type 0, BuildingBlock: VETTIZ_charged_linker_0, # of connection points: 3
#     Node 15, Type 0, BuildingBlock: VETTIZ_charged_linker_0, # of connection points: 3
#     Node 16, Type 1, BuildingBlock: QUQFOY_clean_sbu_1, # of connection points: 4
#     Node 17, Type 1, BuildingBlock: QUQFOY_clean_sbu_1, # of connection points: 4
#     Node 18, Type 1, BuildingBlock: QUQFOY_clean_sbu_1, # of connection points: 4
#     Node 19, Type 1, BuildingBlock: QUQFOY_clean_sbu_1, # of connection points: 4
#     Node 20, Type 1, BuildingBlock: QUQFOY_clean_sbu_1, # of connection points: 4
#     Node 21, Type 1, BuildingBlock: QUQFOY_clean_sbu_1, # of connection points: 4
#     Node 22, Type 1, BuildingBlock: QUQFOY_clean_sbu_1, # of connection points: 4
#     Node 23, Type 1, BuildingBlock: QUQFOY_clean_sbu_1, # of connection points: 4
#     Node 24, Type 1, BuildingBlock: QUQFOY_clean_sbu_1, # of connection points: 4
#     Node 25, Type 1, BuildingBlock: QUQFOY_clean_sbu_1, # of connection points: 4
#     Node 26, Type 1, BuildingBlock: QUQFOY_clean_sbu_1, # of connection points: 4
#     Node 27, Type 1, BuildingBlock: QUQFOY_clean_sbu_1, # of connection points: 4
#     Edge 28, Type (0, 1), BuildingBlock: EZIPEK_clean_linker_0, # of connection points: 2
#     Edge 29, Type (0, 1), BuildingBlock: EZIPEK_clean_linker_0, # of connection points: 2
#     Edge 30, Type (0, 1), BuildingBlock: EZIPEK_clean_linker_0, # of connection points: 2
#     Edge 31, Type (0, 1), BuildingBlock: EZIPEK_clean_linker_0, # of connection points: 2
#     Edge 32, Type (0, 1), BuildingBlock: EZIPEK_clean_linker_0, # of connection points: 2
#     Edge 33, Type (0, 1), BuildingBlock: EZIPEK_clean_linker_0, # of connection points: 2
#     Edge 34, Type (0, 1), BuildingBlock: EZIPEK_clean_linker_0, # of connection points: 2
#     Edge 35, Type (0, 1), BuildingBlock: EZIPEK_clean_linker_0, # of connection points: 2
#     Edge 36, Type (0, 1), BuildingBlock: EZIPEK_clean_linker_0, # of connection points: 2
#     Edge 37, Type (0, 1), BuildingBlock: EZIPEK_clean_linker_0, # of connection points: 2
#     Edge 38, Type (0, 1), BuildingBlock: EZIPEK_clean_linker_0, # of connection points: 2
#     Edge 39, Type (0, 1), BuildingBlock: EZIPEK_clean_linker_0, # of connection points: 2
#     Edge 40, Type (0, 1), BuildingBlock: EZIPEK_clean_linker_0, # of connection points: 2
#     Edge 41, Type (0, 1), BuildingBlock: EZIPEK_clean_linker_0, # of connection points: 2
#     Edge 42, Type (0, 1), BuildingBlock: EZIPEK_clean_linker_0, # of connection points: 2
#     Edge 43, Type (0, 1), BuildingBlock: EZIPEK_clean_linker_0, # of connection points: 2
#     Edge 44, Type (0, 1), BuildingBlock: EZIPEK_clean_linker_0, # of connection points: 2
#     Edge 45, Type (0, 1), BuildingBlock: EZIPEK_clean_linker_0, # of connection points: 2
#     Edge 46, Type (0, 1), BuildingBlock: EZIPEK_clean_linker_0, # of connection points: 2
#     Edge 47, Type (0, 1), BuildingBlock: EZIPEK_clean_linker_0, # of connection points: 2
#     Edge 48, Type (0, 1), BuildingBlock: EZIPEK_clean_linker_0, # of connection points: 2
#     Edge 49, Type (0, 1), BuildingBlock: EZIPEK_clean_linker_0, # of connection points: 2
#     Edge 50, Type (0, 1), BuildingBlock: EZIPEK_clean_linker_0, # of connection points: 2
#     Edge 51, Type (0, 1), BuildingBlock: EZIPEK_clean_linker_0, # of connection points: 2
#     Edge 52, Type (0, 1), BuildingBlock: EZIPEK_clean_linker_0, # of connection points: 2
#     Edge 53, Type (0, 1), BuildingBlock: EZIPEK_clean_linker_0, # of connection points: 2
#     Edge 54, Type (0, 1), BuildingBlock: EZIPEK_clean_linker_0, # of connection points: 2
#     Edge 55, Type (0, 1), BuildingBlock: EZIPEK_clean_linker_0, # of connection points: 2
#     Edge 56, Type (0, 1), BuildingBlock: EZIPEK_clean_linker_0, # of connection points: 2
#     Edge 57, Type (0, 1), BuildingBlock: EZIPEK_clean_linker_0, # of connection points: 2
#     Edge 58, Type (0, 1), BuildingBlock: EZIPEK_clean_linker_0, # of connection points: 2
#     Edge 59, Type (0, 1), BuildingBlock: EZIPEK_clean_linker_0, # of connection points: 2
#     Edge 60, Type (0, 1), BuildingBlock: EZIPEK_clean_linker_0, # of connection points: 2
#     Edge 61, Type (0, 1), BuildingBlock: EZIPEK_clean_linker_0, # of connection points: 2
#     Edge 62, Type (0, 1), BuildingBlock: EZIPEK_clean_linker_0, # of connection points: 2
#     Edge 63, Type (0, 1), BuildingBlock: EZIPEK_clean_linker_0, # of connection points: 2
#     Edge 64, Type (0, 1), BuildingBlock: EZIPEK_clean_linker_0, # of connection points: 2
#     Edge 65, Type (0, 1), BuildingBlock: EZIPEK_clean_linker_0, # of connection points: 2
#     Edge 66, Type (0, 1), BuildingBlock: EZIPEK_clean_linker_0, # of connection points: 2
#     Edge 67, Type (0, 1), BuildingBlock: EZIPEK_clean_linker_0, # of connection points: 2
#     Edge 68, Type (0, 1), BuildingBlock: EZIPEK_clean_linker_0, # of connection points: 2
#     Edge 69, Type (0, 1), BuildingBlock: EZIPEK_clean_linker_0, # of connection points: 2
#     Edge 70, Type (0, 1), BuildingBlock: EZIPEK_clean_linker_0, # of connection points: 2
#     Edge 71, Type (0, 1), BuildingBlock: EZIPEK_clean_linker_0, # of connection points: 2
#     Edge 72, Type (0, 1), BuildingBlock: EZIPEK_clean_linker_0, # of connection points: 2
#     Edge 73, Type (0, 1), BuildingBlock: EZIPEK_clean_linker_0, # of connection points: 2
#     Edge 74, Type (0, 1), BuildingBlock: EZIPEK_clean_linker_0, # of connection points: 2
#     Edge 75, Type (0, 1), BuildingBlock: EZIPEK_clean_linker_0, # of connection points: 2
# Relax obj value: 0.037
# Max RMSD: 0.143
# Mean RMSD: 0.066
data_MOF--net-ctn--node1-QUQFOY_clean_sbu_1--node2-VETTIZ_charged_linker_0--edge1-EZIPEK_clean_linker_0
_symmetry_space_group_name_H-M    P1
_symmetry_Int_Tables_number       1
_symmetry_cell_setting            triclinic
loop_
_symmetry_equiv_pos_as_xyz
'x, y, z'
_cell_length_a     52.315834
_cell_length_b     52.234014
_cell_length_c     52.408997
_cell_angle_alpha  93.013449
_cell_angle_beta   90.005282
_cell_angle_gamma 94.812273
loop_
_atom_site_label
_atom_site_type_symbol
_atom_site_fract_x
_atom_site_fract_y
_atom_site_fract_z
_atom_type_partial_charge
C0 C 0.05458 0.15447 0.00308 0.0
C1 C 0.03622 0.17249 0.00182 0.0
C2 C 0.01974 0.17637 0.02259 0.0
C3 C 0.03838 0.1429 0.04474 0.0
C4 C 0.0553 0.13988 0.02475 0.0
C5 C 0.07273 0.11897 0.02898 0.0
H6 H 0.10186 0.01884 0.09759 0.0
C7 C 0.04285 0.12366 0.06351 0.0
C8 C 0.06315 0.10971 0.05457 0.0
H9 H 0.13814 0.04555 0.02886 0.0
H10 H 0.11163 0.08146 0.02937 0.0
H11 H 0.10131 0.07467 0.12632 0.0
H12 H 0.04479 0.02772 0.08137 0.0
H13 H 0.02906 0.04053 0.1081 0.0
H14 H 0.05448 0.02004 0.11273 0.0
H15 H 0.08288 0.04784 0.13914 0.0
H16 H 0.07155 0.07963 0.14038 0.0
C17 C 0.1007 0.13131 0.03074 0.0
C18 C 0.06787 0.09796 0.00714 0.0
C19 C 0.98155 0.11174 0.13801 0.0
C20 C 0.97978 0.09398 0.15723 0.0
C21 C 0.99888 0.07684 0.15946 0.0
C22 C 0.01914 0.07662 0.14207 0.0
C23 C 0.02016 0.09362 0.12213 0.0
C24 C 0.00193 0.11121 0.12068 0.0
C25 C 0.00622 0.12779 0.09823 0.0
C26 C 0.02975 0.11694 0.08624 0.0
C27 C 0.03761 0.09677 0.10019 0.0
C28 C 0.01194 0.15608 0.10849 0.0
C29 C 0.98233 0.12303 0.08057 0.0
C30 C 0.10409 0.03264 0.08286 0.0
C31 C 0.1218 0.02961 0.0631 0.0
C32 C 0.12446 0.04775 0.04417 0.0
C33 C 0.10902 0.06843 0.04449 0.0
C34 C 0.09068 0.07085 0.06388 0.0
C35 C 0.08882 0.05342 0.08292 0.0
C36 C 0.06843 0.0591 0.10207 0.0
C37 C 0.05812 0.08261 0.09124 0.0
C38 C 0.07102 0.08924 0.06872 0.0
C39 C 0.0815 0.06549 0.12846 0.0
C40 C 0.0481 0.03569 0.10132 0.0
H41 H 0.00743 0.1653 0.05914 0.0
H42 H 0.06749 0.15135 0.98728 0.0
H43 H 0.04702 0.09466 0.00265 0.0
H44 H 0.07372 0.07902 0.01202 0.0
H45 H 0.07791 0.10376 0.98941 0.0
H46 H 0.10145 0.15123 0.03949 0.0
H47 H 0.10955 0.13236 0.01152 0.0
H48 H 0.11293 0.121 0.04321 0.0
H49 H 0.96701 0.12512 0.13612 0.0
H50 H 0.99771 0.06315 0.17434 0.0
H51 H 0.03287 0.06279 0.14447 0.0
H52 H 0.02159 0.15713 0.12749 0.0
H53 H 0.99402 0.16595 0.11074 0.0
H54 H 0.02541 0.16728 0.09622 0.0
H55 H 0.97521 0.10231 0.07954 0.0
H56 H 0.98624 0.12768 0.0606 0.0
H57 H 0.96644 0.13418 0.08785 0.0
H58 H 0.00562 0.19036 0.02184 0.0
C59 C 0.02078 0.16175 0.0441 0.0
C60 C 0.2359 0.6362 0.24266 0.0
C61 C 0.212 0.6303 0.23085 0.0
C62 C 0.20338 0.64659 0.21273 0.0
C63 C 0.24209 0.67515 0.21934 0.0
C64 C 0.25061 0.65858 0.2366 0.0
C65 C 0.27628 0.66784 0.24788 0.0
H66 H 0.37196 0.76195 0.26468 0.0
C67 C 0.26162 0.69722 0.21826 0.0
C68 C 0.28174 0.69289 0.23481 0.0
H69 H 0.36382 0.6882 0.29858 0.0
H70 H 0.32556 0.67595 0.27345 0.0
H71 H 0.31195 0.773 0.26591 0.0
H72 H 0.35932 0.73984 0.20812 0.0
H73 H 0.33654 0.75559 0.19168 0.0
H74 H 0.3589 0.77401 0.21324 0.0
H75 H 0.33779 0.79069 0.25022 0.0
H76 H 0.30602 0.78676 0.23671 0.0
C77 C 0.27289 0.67226 0.27714 0.0
C78 C 0.29564 0.64795 0.23995 0.0
C79 C 0.24725 0.77144 0.16238 0.0
C80 C 0.2628 0.79363 0.15667 0.0
C81 C 0.28648 0.79927 0.16933 0.0
C82 C 0.29489 0.78273 0.18713 0.0
C83 C 0.27951 0.76021 0.19219 0.0
C84 C 0.25614 0.75484 0.1799 0.0
C85 C 0.24309 0.72934 0.18669 0.0
C86 C 0.26254 0.72028 0.20496 0.0
C87 C 0.28368 0.7386 0.2083 0.0
C88 C 0.21755 0.73444 0.20019 0.0
C89 C 0.23997 0.71165 0.16201 0.0
C90 C 0.36187 0.74314 0.26638 0.0
C91 C 0.37043 0.72595 0.28353 0.0
C92 C 0.35727 0.70156 0.28538 0.0
C93 C 0.33508 0.69463 0.27089 0.0
C94 C 0.32604 0.71233 0.25446 0.0
C95 C 0.33971 0.73587 0.25193 0.0
C96 C 0.32762 0.75178 0.23288 0.0
C97 C 0.30396 0.73424 0.2251 0.0
C98 C 0.30309 0.71135 0.238 0.0
C99 C 0.32053 0.77702 0.24695 0.0
C100 C 0.34649 0.75576 0.21032 0.0
H101 H 0.21073 0.681 0.19319 0.0
H102 H 0.2428 0.62377 0.2566 0.0
H103 H 0.29018 0.63768 0.22135 0.0
H104 H 0.31518 0.65702 0.2368 0.0
H105 H 0.29651 0.63321 0.25438 0.0
H106 H 0.25446 0.68074 0.28151 0.0
H107 H 0.27265 0.65385 0.28686 0.0
H108 H 0.28778 0.68603 0.2861 0.0
H109 H 0.22907 0.76667 0.15265 0.0
H110 H 0.29868 0.81629 0.16503 0.0
H111 H 0.31319 0.78794 0.19599 0.0
H112 H 0.22014 0.7518 0.21347 0.0
H113 H 0.20251 0.7378 0.18606 0.0
H114 H 0.21029 0.7187 0.21217 0.0
H115 H 0.25633 0.71553 0.1488 0.0
H116 H 0.24006 0.69103 0.16571 0.0
H117 H 0.22208 0.71476 0.15161 0.0
H118 H 0.1849 0.6421 0.2035 0.0
C119 C 0.21833 0.66909 0.20691 0.0
C120 C 0.97098 0.39927 0.00527 0.0
C121 C 0.9559 0.3953 0.98307 0.0
C122 C 0.93594 0.41125 0.97928 0.0
C123 C 0.94729 0.43551 0.01899 0.0
C124 C 0.96603 0.41902 0.02311 0.0
C125 C 0.97909 0.42444 0.04853 0.0
H126 H 0.99805 0.50003 0.15636 0.0
C127 C 0.94769 0.45443 0.04102 0.0
C128 C 0.96595 0.4477 0.05855 0.0
H129 H 0.03226 0.42965 0.13517 0.0
H130 H 0.00725 0.42479 0.09613 0.0
H131 H 0.93919 0.47935 0.13791 0.0
H132 H 0.00169 0.52293 0.10245 0.0
H133 H 0.97348 0.53562 0.09276 0.0
H134 H 0.98194 0.53731 0.12624 0.0
H135 H 0.95011 0.51172 0.14834 0.0
H136 H 0.92668 0.50513 0.12312 0.0
C137 C 0.97297 0.40082 0.06497 0.0
C138 C 0.00804 0.43114 0.04374 0.0
C139 C 0.89489 0.53162 0.03873 0.0
C140 C 0.89329 0.55339 0.05532 0.0
C141 C 0.90748 0.55582 0.07822 0.0
C142 C 0.92323 0.53665 0.08456 0.0
C143 C 0.9249 0.51499 0.06768 0.0
C144 C 0.91088 0.51276 0.04519 0.0
C145 C 0.91547 0.48874 0.02932 0.0
C146 C 0.93476 0.47703 0.04587 0.0
C147 C 0.94008 0.49242 0.06836 0.0
C148 C 0.88985 0.47161 0.02677 0.0
C149 C 0.92714 0.4969 0.00354 0.0
C150 C -0.00019 0.48351 0.14329 0.0
C151 C 0.01692 0.46514 0.14848 0.0
C152 C 0.01904 0.44388 0.13128 0.0
C153 C 0.00455 0.44118 0.10871 0.0
C154 C 0.98781 0.45995 0.10339 0.0
C155 C 0.98541 0.48051 0.12068 0.0
C156 C 0.96669 0.49852 0.11175 0.0
C157 C 0.95801 0.48516 0.08642 0.0
C158 C 0.97065 0.46278 0.08159 0.0
C159 C 0.94449 0.49898 0.13127 0.0
C160 C 0.98148 0.52509 0.10823 0.0
H161 H 0.91643 0.44322 0.99305 0.0
H162 H 0.98607 0.3869 0.00885 0.0
H163 H 0.01086 0.44401 0.02754 0.0
H164 H 0.01804 0.44166 0.06014 0.0
H165 H 0.01788 0.41349 0.03887 0.0
H166 H 0.95492 0.38946 0.05864 0.0
H167 H 0.98857 0.38763 0.06377 0.0
H168 H 0.96959 0.40641 0.08528 0.0
H169 H 0.88409 0.52952 0.021 0.0
H170 H 0.90633 0.57258 0.09112 0.0
H171 H 0.9336 0.53951 0.10228 0.0
H172 H 0.87761 0.4743 0.04391 0.0
H173 H 0.87871 0.47633 0.00985 0.0
H174 H 0.89269 0.45084 0.02558 0.0
H175 H 0.94227 0.51305 0.0067 0.0
H176 H 0.93659 0.48148 0.99311 0.0
H177 H 0.91222 0.5035 0.99093 0.0
H178 H 0.92387 0.40814 0.96242 0.0
C179 C 0.93169 0.43149 0.99705 0.0
C180 C 0.64552 0.81345 0.28338 0.0
C181 C 0.62543 0.79409 0.27778 0.0
C182 C 0.63228 0.77196 0.26323 0.0
C183 C 0.67394 0.79304 0.25369 0.0
C184 C 0.66893 0.81301 0.27063 0.0
C185 C 0.69073 0.83363 0.27277 0.0
H186 H 0.80258 0.88581 0.2267 0.0
C187 C 0.69954 0.79918 0.24256 0.0
C188 C 0.70951 0.82291 0.25384 0.0
H189 H 0.75716 0.91577 0.28831 0.0
H190 H 0.72785 0.87732 0.28502 0.0
H191 H 0.7544 0.86159 0.19046 0.0
H192 H 0.80225 0.83056 0.24574 0.0
H193 H 0.79357 0.80493 0.22356 0.0
H194 H 0.81214 0.83323 0.21317 0.0
H195 H 0.78809 0.85836 0.1864 0.0
H196 H 0.76459 0.83241 0.17743 0.0
C197 C 0.68063 0.85891 0.26414 0.0
C198 C 0.70131 0.83518 0.3005 0.0
C199 C 0.73041 0.74425 0.16753 0.0
C200 C 0.75247 0.74684 0.15231 0.0
C201 C 0.77212 0.76608 0.15886 0.0
C202 C 0.76932 0.78349 0.17965 0.0
C203 C 0.74655 0.78171 0.1939 0.0
C204 C 0.72789 0.76186 0.18832 0.0
C205 C 0.70542 0.76264 0.20623 0.0
C206 C 0.71333 0.78678 0.22281 0.0
C207 C 0.73727 0.79798 0.21518 0.0
C208 C 0.6811 0.76561 0.19019 0.0
C209 C 0.70388 0.73813 0.22177 0.0
C210 C 0.78619 0.88393 0.23931 0.0
C211 C 0.7817 0.90362 0.25754 0.0
C212 C 0.76061 0.90069 0.27405 0.0
C213 C 0.74371 0.87843 0.27205 0.0
C214 C 0.74795 0.85905 0.25326 0.0
C215 C 0.76919 0.86175 0.23763 0.0
C216 C 0.77111 0.8388 0.21944 0.0
C217 C 0.74724 0.82207 0.22642 0.0
C218 C 0.7336 0.83424 0.24592 0.0
C219 C 0.76963 0.84808 0.19191 0.0
C220 C 0.79608 0.82621 0.22554 0.0
H221 H 0.65952 0.75463 0.23932 0.0
H222 H 0.64354 0.82899 0.29746 0.0
H223 H 0.69851 0.8162 0.30925 0.0
H224 H 0.72226 0.84027 0.30143 0.0
H225 H 0.69147 0.84922 0.31283 0.0
H226 H 0.66771 0.855 0.24727 0.0
H227 H 0.66952 0.86813 0.27963 0.0
H228 H 0.69589 0.87303 0.25794 0.0
H229 H 0.71518 0.72941 0.1628 0.0
H230 H 0.78925 0.76815 0.14726 0.0
H231 H 0.78468 0.79811 0.18335 0.0
H232 H 0.68492 0.78097 0.17642 0.0
H233 H 0.67502 0.74742 0.17909 0.0
H234 H 0.66472 0.7712 0.2018 0.0
H235 H 0.72308 0.73075 0.22381 0.0
H236 H 0.6974 0.74183 0.24162 0.0
H237 H 0.69099 0.72246 0.21235 0.0
H238 H 0.61987 0.75442 0.26153 0.0
C239 C 0.65603 0.77159 0.2508 0.0
C240 C 0.04791 0.91947 0.52042 0.0
C241 C 0.02447 0.90436 0.51967 0.0
C242 C 0.00562 0.90889 0.50172 0.0
C243 C 0.03337 0.94395 0.48588 0.0
C244 C 0.0519 0.93921 0.50345 0.0
C245 C 0.07539 0.95773 0.50218 0.0
H246 H 0.13359 0.06606 0.4562 0.0
C247 C 0.04314 0.96642 0.47175 0.0
C248 C 0.06768 0.97468 0.48131 0.0
H249 H 0.16409 0.01581 0.50928 0.0
H250 H 0.12553 0.98686 0.50506 0.0
H251 H 0.07703 0.06391 0.47529 0.0
H252 H 0.11152 0.01756 0.41651 0.0
H253 H 0.08217 0.02618 0.40472 0.0
H254 H 0.10709 0.05097 0.41348 0.0
H255 H 0.08511 0.07593 0.44461 0.0
H256 H 0.0546 0.05837 0.45026 0.0
C257 C 0.07871 0.97279 0.52839 0.0
C258 C 0.09844 0.94231 0.49415 0.0
C259 C 0.99034 0.99729 0.39997 0.0
C260 C 0.99499 0.01661 0.38213 0.0
C261 C 0.01542 0.03564 0.38816 0.0
C262 C 0.03311 0.03269 0.40764 0.0
C263 C 0.02995 0.0111 0.42244 0.0
C264 C 0.00831 0.99438 0.41913 0.0
C265 C 0.00697 0.97353 0.43796 0.0
C266 C 0.03216 0.97981 0.45218 0.0
C267 C 0.04549 0.0019 0.44305 0.0
C268 C 0.9835 0.97691 0.45553 0.0
C269 C 0.0062 0.94722 0.42276 0.0
C270 C 0.13183 0.04874 0.46681 0.0
C271 C 0.15147 0.0432 0.48337 0.0
C272 C 0.14893 0.02039 0.49662 0.0
C273 C 0.12658 0.00372 0.49416 0.0
C274 C 0.10675 0.00982 0.47804 0.0
C275 C 0.10985 0.03164 0.46416 0.0
C276 C 0.08751 0.03407 0.44668 0.0
C277 C 0.07011 0.01054 0.45299 0.0
C278 C 0.08133 0.99667 0.47162 0.0
C279 C 0.0754 0.05943 0.45433 0.0
C280 C 0.09739 0.03229 0.41883 0.0
H281 H 0.99481 0.93133 0.47162 0.0
H282 H 0.06261 0.91617 0.53415 0.0
H283 H 0.09208 0.92444 0.48258 0.0
H284 H 0.11208 0.95308 0.48167 0.0
H285 H 0.10889 0.93656 0.5111 0.0
H286 H 0.05988 0.97845 0.53562 0.0
H287 H 0.0868 0.96083 0.54281 0.0
H288 H 0.09099 0.99094 0.5276 0.0
H289 H 0.97304 0.98453 0.39967 0.0
H290 H 0.01791 0.05332 0.37837 0.0
H291 H 0.04854 0.04744 0.41048 0.0
H292 H 0.97922 0.99743 0.45765 0.0
H293 H 0.96603 0.96568 0.44766 0.0
H294 H 0.98681 0.97142 0.47527 0.0
H295 H 0.01974 0.9482 0.4064 0.0
H296 H 0.01221 0.93161 0.43419 0.0
H297 H 0.9867 0.94152 0.41493 0.0
H298 H 0.98746 0.89724 0.50101 0.0
C299 C 0.00993 0.92865 0.48479 0.0
C300 C 0.26924 0.69154 0.80569 0.0
C301 C 0.26673 0.67054 0.78776 0.0
C302 C 0.24605 0.66852 0.77027 0.0
C303 C 0.2308 0.70785 0.78909 0.0
C304 C 0.25063 0.70923 0.80669 0.0
C305 C 0.2478 0.7294 0.82774 0.0
H306 H 0.17988 0.82261 0.8813 0.0
C307 C 0.21447 0.72893 0.79592 0.0
C308 C 0.22409 0.74122 0.81886 0.0
H309 H 0.24468 0.78921 0.91309 0.0
H310 H 0.24837 0.76228 0.8744 0.0
H311 H 0.15115 0.76916 0.85491 0.0
H312 H 0.20285 0.83018 0.82864 0.0
H313 H 0.18638 0.8174 0.801 0.0
H314 H 0.16884 0.8318 0.82698 0.0
H315 H 0.14408 0.80209 0.85298 0.0
H316 H 0.13928 0.7796 0.82602 0.0
C317 C 0.24328 0.71572 0.85319 0.0
C318 C 0.27178 0.74888 0.82787 0.0
C319 C 0.14085 0.74824 0.73797 0.0
C320 C 0.12436 0.7682 0.73903 0.0
C321 C 0.12755 0.78775 0.75852 0.0
C322 C 0.14614 0.78691 0.77749 0.0
C323 C 0.16186 0.76641 0.77687 0.0
C324 C 0.15976 0.74795 0.75693 0.0
C325 C 0.1793 0.72848 0.75898 0.0
C326 C 0.19328 0.73838 0.78348 0.0
C327 C 0.18238 0.76016 0.7941 0.0
C328 C 0.16491 0.70164 0.76175 0.0
C329 C 0.19693 0.7302 0.73536 0.0
C330 C 0.19459 0.80919 0.87985 0.0
C331 C 0.21179 0.80748 0.90004 0.0
C332 C 0.23111 0.79037 0.89766 0.0
C333 C 0.23315 0.77481 0.87528 0.0
C334 C 0.21554 0.77635 0.85526 0.0
C335 C 0.19683 0.79349 0.85767 0.0
C336 C 0.18019 0.79294 0.83428 0.0
C337 C 0.19107 0.77153 0.81802 0.0
C338 C 0.21182 0.76207 0.83032 0.0
C339 C 0.15212 0.78569 0.84229 0.0
C340 C 0.18457 0.81941 0.82207 0.0
H341 H 0.21296 0.68474 0.75687 0.0
H342 H 0.28454 0.69322 0.81978 0.0
H343 H 0.27672 0.75419 0.80808 0.0
H344 H 0.26885 0.76711 0.83868 0.0
H345 H 0.28862 0.74054 0.83606 0.0
H346 H 0.23615 0.69514 0.84984 0.0
H347 H 0.26125 0.71627 0.86456 0.0
H348 H 0.22825 0.72406 0.86507 0.0
H349 H 0.13875 0.73308 0.72302 0.0
H350 H 0.11503 0.80328 0.75945 0.0
H351 H 0.14717 0.80201 0.79216 0.0
H352 H 0.1466 0.7032 0.7723 0.0
H353 H 0.1602 0.69194 0.74276 0.0
H354 H 0.17582 0.68896 0.77307 0.0
H355 H 0.20316 0.75063 0.73198 0.0
H356 H 0.21468 0.72054 0.73752 0.0
H357 H 0.18669 0.72172 0.71795 0.0
H358 H 0.2435 0.65224 0.75658 0.0
C359 C 0.22831 0.6873 0.77057 0.0
C360 C 0.88475 0.49959 0.50492 0.0
C361 C 0.8802 0.47475 0.49363 0.0
C362 C 0.89903 0.46438 0.47796 0.0
C363 C 0.92666 0.50377 0.48507 0.0
C364 C 0.90808 0.5136 0.50059 0.0
C365 C 0.91621 0.53991 0.51206 0.0
H366 H 0.00699 0.63879 0.52972 0.0
C367 C 0.9489 0.52316 0.48518 0.0
C368 C 0.94297 0.54417 0.50122 0.0
H369 H 0.92939 0.63248 0.55822 0.0
H370 H 0.92163 0.59047 0.53697 0.0
H371 H 0.98987 0.61649 0.47236 0.0
H372 H 0.02031 0.58114 0.53693 0.0
H373 H 0.03488 0.56832 0.50944 0.0
H374 H 0.03991 0.60237 0.51772 0.0
H375 H 0.02245 0.6232 0.48305 0.0
H376 H 0.01315 0.59653 0.4609 0.0
C377 C 0.89788 0.55901 0.50196 0.0
C378 C 0.9166 0.5384 0.54153 0.0
C379 C 0.02412 0.51076 0.42609 0.0
C380 C 0.047 0.52597 0.422 0.0
C381 C 0.05389 0.54749 0.43862 0.0
C382 C 0.03723 0.55487 0.45804 0.0
C383 C 0.01354 0.54052 0.46082 0.0
C384 C 0.00775 0.51829 0.44569 0.0
C385 C 0.98223 0.50486 0.4523 0.0
C386 C 0.97292 0.52368 0.47258 0.0
C387 C 0.99125 0.54464 0.47728 0.0
C388 C 0.96493 0.50265 0.42818 0.0
C389 C 0.98697 0.47866 0.46329 0.0
C390 C 0.98841 0.62817 0.53127 0.0
C391 C 0.96876 0.63856 0.54567 0.0
C392 C 0.9447 0.62458 0.54722 0.0
C393 C 0.94029 0.60025 0.53489 0.0
C394 C 0.96009 0.58993 0.52063 0.0
C395 C 0.98354 0.60396 0.51866 0.0
C396 C 0.00162 0.59051 0.50126 0.0
C397 C 0.98536 0.56578 0.49376 0.0
C398 C 0.9612 0.56559 0.50534 0.0
C399 C 0.00735 0.60746 0.47819 0.0
C400 C 0.0256 0.58539 0.51694 0.0
H401 H 0.93596 0.47012 0.46136 0.0
H402 H 0.87049 0.5078 0.51713 0.0
H403 H 0.9239 0.52005 0.54704 0.0
H404 H 0.92953 0.55364 0.55124 0.0
H405 H 0.89703 0.53923 0.54958 0.0
H406 H 0.88981 0.55228 0.48289 0.0
H407 H 0.88148 0.5613 0.5151 0.0
H408 H 0.90773 0.57816 0.49884 0.0
H409 H 0.01872 0.49394 0.41366 0.0
H410 H 0.07164 0.55921 0.43576 0.0
H411 H 0.04312 0.57186 0.46966 0.0
H412 H 0.96621 0.52119 0.41854 0.0
H413 H 0.97092 0.48755 0.41427 0.0
H414 H 0.94444 0.49829 0.43247 0.0
H415 H 0.0064 0.47909 0.47202 0.0
H416 H 0.97363 0.47359 0.47897 0.0
H417 H 0.98546 0.46291 0.44814 0.0
H418 H 0.89567 0.44514 0.46921 0.0
C419 C 0.9223 0.47884 0.47354 0.0
C420 C 0.8067 0.76753 0.87649 0.0
C421 C 0.7879 0.76651 0.8955 0.0
C422 C 0.76824 0.78329 0.89534 0.0
C423 C 0.78554 0.80098 0.85647 0.0
C424 C 0.80516 0.78485 0.85723 0.0
C425 C 0.82309 0.78768 0.83503 0.0
H426 H 0.8548 0.84142 0.72367 0.0
C427 C 0.78897 0.81576 0.83325 0.0
C428 C 0.81105 0.80815 0.82075 0.0
H429 H 0.89244 0.78346 0.76158 0.0
H430 H 0.8624 0.78532 0.79648 0.0
H431 H 0.84602 0.87754 0.77273 0.0
H432 H 0.79633 0.81707 0.73541 0.0
H433 H 0.77868 0.84393 0.7418 0.0
H434 H 0.80611 0.84686 0.72121 0.0
H435 H 0.8283 0.88278 0.74444 0.0
H436 H 0.81467 0.88687 0.77593 0.0
C437 C 0.85005 0.79735 0.84564 0.0
C438 C 0.82193 0.76151 0.81941 0.0
C439 C 0.7228 0.87634 0.80918 0.0
C440 C 0.71969 0.89157 0.78795 0.0
C441 C 0.74083 0.89427 0.77098 0.0
C442 C 0.76201 0.87976 0.77291 0.0
C443 C 0.76305 0.8628 0.79261 0.0
C444 C 0.74401 0.86183 0.81075 0.0
C445 C 0.74919 0.84404 0.83149 0.0
C446 C 0.77425 0.8341 0.82238 0.0
C447 C 0.78221 0.84512 0.79951 0.0
C448 C 0.75252 0.86013 0.85715 0.0
C449 C 0.72703 0.82241 0.83122 0.0
C450 C 0.85645 0.82933 0.73967 0.0
C451 C 0.87573 0.81224 0.74019 0.0
C452 C 0.87756 0.79666 0.76105 0.0
C453 C 0.8601 0.79778 0.78118 0.0
C454 C 0.84047 0.81451 0.78028 0.0
C455 C 0.8389 0.82999 0.75982 0.0
C456 C 0.81638 0.84611 0.76195 0.0
C457 C 0.80466 0.83759 0.78698 0.0
C458 C 0.81892 0.81917 0.79758 0.0
C459 C 0.82667 0.87486 0.76369 0.0
C460 C 0.79836 0.83834 0.73889 0.0
H461 H 0.75145 0.8128 0.87657 0.0
H462 H 0.82191 0.75466 0.87634 0.0
H463 H 0.80256 0.75105 0.82048 0.0
H464 H 0.82515 0.76362 0.79877 0.0
H465 H 0.83599 0.74886 0.82674 0.0
H466 H 0.84855 0.81097 0.86253 0.0
H467 H 0.86059 0.78111 0.85176 0.0
H468 H 0.86189 0.80835 0.83185 0.0
H469 H 0.70964 0.87588 0.825 0.0
H470 H 0.74191 0.90813 0.75641 0.0
H471 H 0.77694 0.88253 0.75905 0.0
H472 H 0.76147 0.87981 0.85412 0.0
H473 H 0.73373 0.86217 0.86659 0.0
H474 H 0.76556 0.85197 0.87055 0.0
H475 H 0.72138 0.81608 0.81126 0.0
H476 H 0.73227 0.80487 0.84006 0.0
H477 H 0.70982 0.82919 0.84101 0.0
H478 H 0.75362 0.78259 0.90999 0.0
C479 C 0.76699 0.80064 0.87592 0.0
C480 C 0.31715 0.27663 0.38639 0.0
C481 C 0.29537 0.26885 0.40051 0.0
C482 C 0.27194 0.27912 0.39582 0.0
C483 C 0.29144 0.30274 0.36129 0.0
C484 C 0.31471 0.29335 0.36665 0.0
C485 C 0.3353 0.30177 0.34809 0.0
H486 H 0.36135 0.33063 0.22828 0.0
C487 C 0.29447 0.31701 0.33779 0.0
C488 C 0.32004 0.31642 0.32984 0.0
H489 H 0.41602 0.3211 0.28823 0.0
H490 H 0.38197 0.32178 0.31969 0.0
H491 H 0.34205 0.37674 0.26012 0.0
H492 H 0.30786 0.29972 0.24707 0.0
H493 H 0.28545 0.3227 0.2417 0.0
H494 H 0.31443 0.32314 0.22344 0.0
H495 H 0.31832 0.36916 0.23574 0.0
H496 H 0.30953 0.37867 0.26799 0.0
C497 C 0.35634 0.31953 0.36265 0.0
C498 C 0.34546 0.27745 0.33489 0.0
C499 C 0.21804 0.3552 0.2993 0.0
C500 C 0.21395 0.36743 0.27628 0.0
C501 C 0.23509 0.36989 0.25925 0.0
C502 C 0.2583 0.35945 0.26416 0.0
C503 C 0.26132 0.347 0.28679 0.0
C504 C 0.2414 0.34499 0.30391 0.0
C505 C 0.24834 0.33162 0.32741 0.0
C506 C 0.27632 0.32767 0.32219 0.0
C507 C 0.28368 0.33646 0.29824 0.0
C508 C 0.24542 0.35 0.35119 0.0
C509 C 0.23138 0.30577 0.32792 0.0
C510 C 0.36599 0.32852 0.24816 0.0
C511 C 0.39106 0.32417 0.25563 0.0
C512 C 0.39663 0.32322 0.28191 0.0
C513 C 0.37699 0.32351 0.30005 0.0
C514 C 0.35177 0.32569 0.29191 0.0
C515 C 0.34696 0.3303 0.26677 0.0
C516 C 0.32031 0.33846 0.26312 0.0
C517 C 0.3092 0.33474 0.28962 0.0
C518 C 0.32754 0.32622 0.306 0.0
C519 C 0.32252 0.36715 0.25628 0.0
C520 C 0.30615 0.32011 0.24267 0.0
H521 H 0.25151 0.30324 0.37341 0.0
H522 H 0.33531 0.2689 0.38995 0.0
H523 H 0.32939 0.26477 0.32598 0.0
H524 H 0.35947 0.28186 0.31974 0.0
H525 H 0.35516 0.26625 0.3489 0.0
H526 H 0.34986 0.32622 0.3819 0.0
H527 H 0.37395 0.30948 0.36544 0.0
H528 H 0.36152 0.33737 0.35256 0.0
H529 H 0.20418 0.35435 0.31445 0.0
H530 H 0.23471 0.3809 0.24246 0.0
H531 H 0.27323 0.36188 0.25029 0.0
H532 H 0.2536 0.3698 0.34744 0.0
H533 H 0.2249 0.35103 0.35627 0.0
H534 H 0.25578 0.34433 0.36808 0.0
H535 H 0.22324 0.29954 0.30875 0.0
H536 H 0.24239 0.28966 0.33329 0.0
H537 H 0.21497 0.30731 0.34121 0.0
H538 H 0.25508 0.27331 0.40677 0.0
C539 C 0.2699 0.29623 0.37637 0.0
C540 C 0.47549 0.90302 0.51062 0.0
C541 C 0.45961 0.89794 0.48905 0.0
C542 C 0.4388 0.91293 0.48572 0.0
C543 C 0.45065 0.93829 0.52465 0.0
C544 C 0.4703 0.92276 0.52838 0.0
C545 C 0.48385 0.929 0.55346 0.0
H546 H 0.5015 0.00571 0.66082 0.0
C547 C 0.45084 0.95738 0.54649 0.0
C548 C 0.46989 0.95166 0.56366 0.0
H549 H 0.53912 0.93752 0.63897 0.0
H550 H 0.5134 0.93122 0.60042 0.0
H551 H 0.44269 0.98257 0.64278 0.0
H552 H 0.50352 0.02842 0.60725 0.0
H553 H 0.47472 0.03953 0.59701 0.0
H554 H 0.48288 0.04218 0.63058 0.0
H555 H 0.45303 0.01499 0.65355 0.0
H556 H 0.42939 0.00828 0.62857 0.0
C557 C 0.47927 0.9054 0.57021 0.0
C558 C 0.51243 0.93691 0.54791 0.0
C559 C 0.39532 0.03242 0.54401 0.0
C560 C 0.39345 0.05442 0.5602 0.0
C561 C 0.40787 0.0576 0.58295 0.0
C562 C 0.42418 0.03897 0.58949 0.0
C563 C 0.42622 0.01714 0.57292 0.0
C564 C 0.4119 0.01415 0.55062 0.0
C565 C 0.417 0.99014 0.535 0.0
C566 C 0.43706 0.9794 0.55139 0.0
C567 C 0.44224 0.99519 0.57364 0.0
C568 C 0.39185 0.97219 0.53311 0.0
C569 C 0.42791 0.99825 0.50889 0.0
C570 C 0.50378 0.98928 0.64777 0.0
C571 C 0.52201 0.97192 0.65265 0.0
C572 C 0.52496 0.9509 0.63537 0.0
C573 C 0.51007 0.94739 0.61307 0.0
C574 C 0.49217 0.96515 0.60807 0.0
C575 C 0.48907 0.98554 0.62538 0.0
C576 C 0.46943 0.00266 0.61661 0.0
C577 C 0.46088 0.98886 0.59144 0.0
C578 C 0.47445 0.96709 0.58651 0.0
C579 C 0.44745 0.00237 0.63638 0.0
C580 C 0.48311 0.0297 0.61277 0.0
H581 H 0.41841 0.94418 0.49968 0.0
H582 H 0.49125 0.89137 0.51387 0.0
H583 H 0.5142 0.94973 0.53158 0.0
H584 H 0.52241 0.94795 0.56403 0.0
H585 H 0.52295 0.91976 0.54286 0.0
H586 H 0.46149 0.89328 0.56445 0.0
H587 H 0.49545 0.89293 0.56864 0.0
H588 H 0.47626 0.91101 0.59058 0.0
H589 H 0.38438 0.02976 0.52638 0.0
H590 H 0.40653 0.07455 0.59554 0.0
H591 H 0.43474 0.04239 0.60705 0.0
H592 H 0.37948 0.9752 0.55009 0.0
H593 H 0.38054 0.97575 0.51591 0.0
H594 H 0.39538 0.95159 0.53287 0.0
H595 H 0.44275 0.01472 0.5116 0.0
H596 H 0.43747 0.98295 0.49837 0.0
H597 H 0.41252 0.00435 0.49652 0.0
H598 H 0.42613 0.90897 0.46938 0.0
C599 C 0.43436 0.93324 0.50331 0.0
C600 C 0.15821 0.30825 0.79383 0.0
C601 C 0.1415 0.28586 0.79135 0.0
C602 C 0.14738 0.26557 0.77419 0.0
C603 C 0.1857 0.29081 0.76114 0.0
C604 C 0.18017 0.31029 0.77865 0.0
C605 C 0.19965 0.33308 0.77851 0.0
H606 H 0.30599 0.39223 0.72732 0.0
C607 C 0.20944 0.29948 0.74772 0.0
C608 C 0.21785 0.3241 0.75805 0.0
H609 H 0.25899 0.42101 0.78824 0.0
H610 H 0.23167 0.38119 0.78586 0.0
H611 H 0.25759 0.36515 0.69209 0.0
H612 H 0.3089 0.33753 0.7465 0.0
H613 H 0.30188 0.31194 0.72384 0.0
H614 H 0.31818 0.34165 0.71394 0.0
H615 H 0.29139 0.3637 0.68694 0.0
H616 H 0.26892 0.33651 0.67908 0.0
C617 C 0.18584 0.35658 0.77052 0.0
C618 C 0.21267 0.33653 0.80518 0.0
C619 C 0.2402 0.24658 0.67139 0.0
C620 C 0.26121 0.25049 0.65498 0.0
C621 C 0.27998 0.27093 0.66052 0.0
C622 C 0.27704 0.28831 0.68133 0.0
C623 C 0.25512 0.28516 0.69671 0.0
C624 C 0.23764 0.26404 0.69225 0.0
C625 C 0.21619 0.26329 0.71141 0.0
C626 C 0.2231 0.28808 0.7273 0.0
C627 C 0.24567 0.30097 0.71828 0.0
C628 C 0.19055 0.26403 0.69679 0.0
C629 C 0.21779 0.23919 0.72718 0.0
C630 C 0.2897 0.38979 0.73998 0.0
C631 C 0.2843 0.40946 0.75788 0.0
C632 C 0.26319 0.40591 0.77428 0.0
C633 C 0.24748 0.38282 0.77286 0.0
C634 C 0.25297 0.36319 0.75478 0.0
C635 C 0.27382 0.36684 0.73878 0.0
C636 C 0.27671 0.34391 0.72078 0.0
C637 C 0.25416 0.32586 0.72867 0.0
C638 C 0.2403 0.33733 0.74845 0.0
C639 C 0.27367 0.35258 0.6932 0.0
C640 C 0.30279 0.33317 0.72629 0.0
H641 H 0.17279 0.25207 0.74597 0.0
H642 H 0.15396 0.32404 0.80696 0.0
H643 H 0.21438 0.31759 0.81353 0.0
H644 H 0.23256 0.34543 0.80451 0.0
H645 H 0.20139 0.34814 0.81871 0.0
H646 H 0.17056 0.35062 0.75612 0.0
H647 H 0.17663 0.36601 0.7872 0.0
H648 H 0.19866 0.37106 0.76114 0.0
H649 H 0.22572 0.23078 0.66754 0.0
H650 H 0.29636 0.27398 0.64807 0.0
H651 H 0.29159 0.30391 0.68421 0.0
H652 H 0.19253 0.27851 0.68193 0.0
H653 H 0.18467 0.24503 0.68707 0.0
H654 H 0.17471 0.26969 0.70914 0.0
H655 H 0.23781 0.23362 0.72825 0.0
H656 H 0.21211 0.24255 0.74734 0.0
H657 H 0.20577 0.22241 0.71854 0.0
H658 H 0.13455 0.24819 0.77217 0.0
C659 C 0.16946 0.26793 0.75904 0.0
C660 C 0.74578 0.14442 0.74338 0.0
C661 C 0.7189 0.14383 0.74416 0.0
C662 C 0.70691 0.16565 0.73708 0.0
C663 C 0.74827 0.18759 0.72813 0.0
C664 C 0.76002 0.16685 0.73655 0.0
C665 C 0.78838 0.17285 0.74047 0.0
H666 H 0.88719 0.264 0.74935 0.0
C667 C 0.76844 0.20807 0.72308 0.0
C668 C 0.79189 0.1999 0.73101 0.0
H669 H 0.88147 0.18825 0.77899 0.0
H670 H 0.84186 0.17718 0.75552 0.0
H671 H 0.8307 0.27769 0.75764 0.0
H672 H 0.86723 0.24465 0.69209 0.0
H673 H 0.84023 0.25779 0.67971 0.0
H674 H 0.86506 0.27863 0.69599 0.0
H675 H 0.85571 0.29353 0.73917 0.0
H676 H 0.82274 0.29346 0.72993 0.0
C677 C 0.79435 0.17205 0.7695 0.0
C678 C 0.80266 0.15376 0.72332 0.0
C679 C 0.74789 0.2834 0.67157 0.0
C680 C 0.7639 0.30252 0.66025 0.0
C681 C 0.79006 0.3059 0.66693 0.0
C682 C 0.80049 0.28962 0.68378 0.0
C683 C 0.78463 0.26962 0.69385 0.0
C684 C 0.75875 0.26679 0.68785 0.0
C685 C 0.74529 0.24341 0.69915 0.0
C686 C 0.76775 0.2319 0.71139 0.0
C687 C 0.79053 0.24771 0.70875 0.0
C688 C 0.72577 0.2524 0.71929 0.0
C689 C 0.733 0.22556 0.67718 0.0
C690 C 0.87749 0.24493 0.7502 0.0
C691 C 0.88685 0.227 0.7661 0.0
C692 C 0.8742 0.20225 0.76693 0.0
C693 C 0.85108 0.19609 0.75375 0.0
C694 C 0.84041 0.2151 0.74016 0.0
C695 C 0.85409 0.23862 0.73747 0.0
C696 C 0.83963 0.2562 0.72198 0.0
C697 C 0.81395 0.24045 0.71867 0.0
C698 C 0.81466 0.21642 0.72926 0.0
C699 C 0.83706 0.28168 0.73788 0.0
C700 C 0.85371 0.25968 0.69615 0.0
H701 H 0.71132 0.20323 0.72323 0.0
H702 H 0.75557 0.12828 0.74944 0.0
H703 H 0.79429 0.15191 0.70372 0.0
H704 H 0.82318 0.16013 0.72105 0.0
H705 H 0.80112 0.13435 0.73118 0.0
H706 H 0.77675 0.17202 0.78142 0.0
H707 H 0.80389 0.15453 0.77376 0.0
H708 H 0.80646 0.18926 0.77688 0.0
H709 H 0.72772 0.28055 0.6666 0.0
H710 H 0.80258 0.32065 0.6584 0.0
H711 H 0.82059 0.29285 0.68793 0.0
H712 H 0.73023 0.27289 0.72589 0.0
H713 H 0.70594 0.25056 0.71144 0.0
H714 H 0.72616 0.24157 0.73689 0.0
H715 H 0.74731 0.22222 0.66193 0.0
H716 H 0.7258 0.20647 0.68343 0.0
H717 H 0.71666 0.2343 0.66849 0.0
H718 H 0.68624 0.16585 0.73807 0.0
C719 C 0.72143 0.18731 0.7286 0.0
C720 C 0.55974 0.65519 0.5034 0.0
C721 C 0.54072 0.67258 0.50309 0.0
C722 C 0.52475 0.67556 0.52442 0.0
C723 C 0.54528 0.64241 0.54528 0.0
C724 C 0.56169 0.64031 0.52471 0.0
C725 C 0.58002 0.61999 0.52795 0.0
H726 H 0.61468 0.51956 0.59281 0.0
C727 C 0.55107 0.62305 0.56349 0.0
C728 C 0.57161 0.61002 0.55362 0.0
H729 H 0.64784 0.549 0.52375 0.0
H730 H 0.62034 0.58411 0.52626 0.0
H731 H 0.61359 0.57453 0.62312 0.0
H732 H 0.55653 0.52741 0.57896 0.0
H733 H 0.54172 0.53879 0.60692 0.0
H734 H 0.56802 0.51899 0.60943 0.0
H735 H 0.5961 0.54715 0.63596 0.0
H736 H 0.58414 0.57865 0.63819 0.0
C737 C 0.60767 0.63322 0.52903 0.0
C738 C 0.57512 0.59924 0.50587 0.0
C739 C 0.49256 0.60761 0.63957 0.0
C740 C 0.49216 0.58964 0.65857 0.0
C741 C 0.51202 0.57322 0.65986 0.0
C742 C 0.53171 0.57397 0.64178 0.0
C743 C 0.53138 0.59122 0.62212 0.0
C744 C 0.51239 0.60809 0.62158 0.0
C745 C 0.51534 0.62518 0.59938 0.0
C746 C 0.53894 0.61546 0.58646 0.0
C747 C 0.54802 0.59537 0.59971 0.0
C748 C 0.52031 0.65342 0.61004 0.0
C749 C 0.49103 0.61986 0.58238 0.0
C750 C 0.61603 0.5338 0.57846 0.0
C751 C 0.63313 0.53175 0.55801 0.0
C752 C 0.63465 0.55044 0.53959 0.0
C753 C 0.61862 0.57066 0.54106 0.0
C754 C 0.60083 0.57203 0.56109 0.0
C755 C 0.60016 0.55412 0.57967 0.0
C756 C 0.58022 0.55875 0.59964 0.0
C757 C 0.56877 0.58213 0.58979 0.0
C758 C 0.58071 0.58963 0.56705 0.0
C759 C 0.59402 0.56493 0.62569 0.0
C760 C 0.56057 0.53479 0.59899 0.0
H761 H 0.51398 0.66346 0.56108 0.0
H762 H 0.57226 0.65276 0.48714 0.0
H763 H 0.5542 0.59531 0.50202 0.0
H764 H 0.5818 0.58047 0.51015 0.0
H765 H 0.58435 0.60566 0.48795 0.0
H766 H 0.608 0.65308 0.5379 0.0
H767 H 0.61594 0.63464 0.50958 0.0
H768 H 0.62063 0.62329 0.54109 0.0
H769 H 0.47741 0.62042 0.63838 0.0
H770 H 0.51187 0.55935 0.67453 0.0
H771 H 0.54607 0.56067 0.64348 0.0
H772 H 0.53049 0.65451 0.62877 0.0
H773 H 0.50205 0.66257 0.61298 0.0
H774 H 0.53303 0.66529 0.59763 0.0
H775 H 0.48479 0.59893 0.58096 0.0
H776 H 0.49407 0.62522 0.56249 0.0
H777 H 0.47485 0.63007 0.5905 0.0
H778 H 0.5101 0.68904 0.52439 0.0
C779 C 0.52699 0.66064 0.54558 0.0
C780 C 0.55076 0.41816 0.01549 0.0
C781 C 0.52614 0.40586 0.01824 0.0
C782 C 0.50589 0.41247 0.00284 0.0
C783 C 0.53443 0.44493 0.98378 0.0
C784 C 0.55438 0.43789 0.9985 0.0
C785 C 0.57865 0.45489 0.99532 0.0
H786 H 0.63597 0.56591 0.95548 0.0
C787 C 0.54389 0.46779 0.97012 0.0
C788 C 0.56967 0.47391 0.97706 0.0
H789 H 0.67011 0.50753 0.99621 0.0
H790 H 0.63045 0.4801 0.99262 0.0
H791 H 0.58319 0.56358 0.98086 0.0
H792 H 0.6069 0.52264 0.9126 0.0
H793 H 0.57722 0.53462 0.90642 0.0
H794 H 0.60452 0.55677 0.91477 0.0
H795 H 0.58711 0.57884 0.95106 0.0
H796 H 0.55721 0.56153 0.95945 0.0
C797 C 0.58629 0.46791 0.0218 0.0
C798 C 0.59916 0.43835 0.9831 0.0
C799 C 0.48554 0.50832 0.90917 0.0
C800 C 0.48805 0.53151 0.89659 0.0
C801 C 0.50977 0.5489 0.90148 0.0
C802 C 0.52953 0.54254 0.91739 0.0
C803 C 0.52724 0.51883 0.92902 0.0
C804 C 0.5051 0.50262 0.92564 0.0
C805 C 0.50482 0.47974 0.94198 0.0
C806 C 0.53144 0.48377 0.95384 0.0
C807 C 0.54453 0.50652 0.94592 0.0
C808 C 0.48329 0.48191 0.9622 0.0
C809 C 0.50169 0.4549 0.92446 0.0
C810 C 0.63479 0.54713 0.96345 0.0
C811 C 0.65571 0.53886 0.97657 0.0
C812 C 0.65393 0.51419 0.98632 0.0
C813 C 0.63095 0.49845 0.98429 0.0
C814 C 0.6097 0.50747 0.97225 0.0
C815 C 0.61211 0.53101 0.96125 0.0
C816 C 0.58806 0.53658 0.94765 0.0
C817 C 0.5705 0.51292 0.95319 0.0
C818 C 0.58318 0.49624 0.96799 0.0
C819 C 0.57832 0.5615 0.96015 0.0
C820 C 0.59431 0.53792 0.91884 0.0
H821 H 0.49388 0.43618 0.97427 0.0
H822 H 0.56654 0.41323 0.02715 0.0
H823 H 0.5902 0.42128 0.97182 0.0
H824 H 0.61135 0.44895 0.96921 0.0
H825 H 0.61157 0.43119 0.9979 0.0
H826 H 0.56916 0.47473 0.0318 0.0
H827 H 0.59485 0.45419 0.03413 0.0
H828 H 0.59991 0.48508 0.02072 0.0
H829 H 0.46867 0.49498 0.90622 0.0
H830 H 0.51174 0.56707 0.89232 0.0
H831 H 0.54585 0.5563 0.91993 0.0
H832 H 0.47705 0.50175 0.96441 0.0
H833 H 0.46603 0.46886 0.9569 0.0
H834 H 0.48976 0.4777 0.98155 0.0
H835 H 0.51512 0.45632 0.90804 0.0
H836 H 0.50606 0.43765 0.93439 0.0
H837 H 0.48186 0.45166 0.9167 0.0
H838 H 0.48684 0.4029 0.00466 0.0
C839 C 0.50997 0.43184 0.98544 0.0
C840 C 0.757 0.17268 0.31882 0.0
C841 C 0.75718 0.15284 0.2994 0.0
C842 C 0.74473 0.15734 0.27611 0.0
C843 C 0.72544 0.19404 0.29581 0.0
C844 C 0.74035 0.19208 0.31718 0.0
C845 C 0.73567 0.21204 0.33792 0.0
H846 H 0.66666 0.30796 0.38364 0.0
C847 C 0.70859 0.21505 0.30118 0.0
C848 C 0.71436 0.22539 0.32601 0.0
H849 H 0.73296 0.27921 0.41761 0.0
H850 H 0.73561 0.24806 0.3821 0.0
H851 H 0.63874 0.25485 0.36436 0.0
H852 H 0.69047 0.30895 0.32712 0.0
H853 H 0.66512 0.29931 0.30576 0.0
H854 H 0.6583 0.31488 0.33612 0.0
H855 H 0.6276 0.28234 0.35009 0.0
H856 H 0.6295 0.25208 0.33208 0.0
C857 C 0.72653 0.19796 0.36203 0.0
C858 C 0.76054 0.23021 0.34183 0.0
C859 C 0.6421 0.23637 0.23599 0.0
C860 C 0.62127 0.25176 0.23803 0.0
C861 C 0.61711 0.26553 0.26126 0.0
C862 C 0.63353 0.26436 0.28208 0.0
C863 C 0.65419 0.24892 0.2799 0.0
C864 C 0.65792 0.23473 0.25739 0.0
C865 C 0.67923 0.21725 0.25985 0.0
C866 C 0.68835 0.22433 0.28709 0.0
C867 C 0.67377 0.24319 0.29846 0.0
C868 C 0.66736 0.1891 0.25662 0.0
C869 C 0.70018 0.22444 0.24006 0.0
C870 C 0.6814 0.29458 0.38343 0.0
C871 C 0.69954 0.29563 0.4032 0.0
C872 C 0.7188 0.2784 0.40243 0.0
C873 C 0.72036 0.26052 0.38178 0.0
C874 C 0.70248 0.25999 0.36169 0.0
C875 C 0.68345 0.27685 0.36272 0.0
C876 C 0.66713 0.27454 0.33899 0.0
C877 C 0.67971 0.25371 0.32345 0.0
C878 C 0.70014 0.24509 0.33698 0.0
C879 C 0.63923 0.26567 0.3466 0.0
C880 C 0.67014 0.30074 0.32624 0.0
H881 H 0.71902 0.17905 0.25651 0.0
H882 H 0.76934 0.17357 0.33536 0.0
H883 H 0.77214 0.23102 0.32404 0.0
H884 H 0.75658 0.25041 0.34646 0.0
H885 H 0.77284 0.22365 0.35705 0.0
H886 H 0.71292 0.18099 0.3567 0.0
H887 H 0.74297 0.19095 0.37225 0.0
H888 H 0.71593 0.20994 0.37559 0.0
H889 H 0.64547 0.22532 0.21842 0.0
H890 H 0.60105 0.27729 0.26325 0.0
H891 H 0.62935 0.27543 0.29913 0.0
H892 H 0.64817 0.18698 0.2658 0.0
H893 H 0.66482 0.18296 0.2361 0.0
H894 H 0.67871 0.17536 0.26595 0.0
H895 H 0.70346 0.24571 0.23923 0.0
H896 H 0.71898 0.21782 0.24491 0.0
H897 H 0.69444 0.21645 0.22064 0.0
H898 H 0.74741 0.14574 0.25883 0.0
C899 C 0.72855 0.17736 0.27441 0.0
C900 C 0.35956 0.02401 0.99539 0.0
C901 C 0.35805 0.99793 0.98741 0.0
C902 C 0.37689 0.98865 0.97104 0.0
C903 C 0.39869 0.03144 0.97112 0.0
C904 C 0.38011 0.04032 0.98728 0.0
C905 C 0.38551 0.06819 0.99551 0.0
H906 H 0.47296 0.16865 0.01121 0.0
C907 C 0.41784 0.0532 0.96703 0.0
C908 C 0.41023 0.07477 0.98126 0.0
H909 H 0.39578 0.16125 0.04062 0.0
H910 H 0.38621 0.12241 0.01379 0.0
H911 H 0.45412 0.1572 0.95431 0.0
H912 H 0.48709 0.10954 0.00745 0.0
H913 H 0.50294 0.10777 0.97752 0.0
H914 H 0.50237 0.13823 0.99468 0.0
H915 H 0.48785 0.15375 0.95446 0.0
H916 H 0.46599 0.13217 0.93515 0.0
C917 C 0.36325 0.08324 0.9862 0.0
C918 C 0.38943 0.06977 0.02489 0.0
C919 C 0.49493 0.04033 0.91037 0.0
C920 C 0.515 0.05746 0.90218 0.0
C921 C 0.51668 0.08335 0.91143 0.0
C922 C 0.49867 0.09205 0.92887 0.0
C923 C 0.47865 0.07476 0.93688 0.0
C924 C 0.47672 0.0495 0.9273 0.0
C925 C 0.45311 0.03444 0.93661 0.0
C926 C 0.44101 0.055 0.95294 0.0
C927 C 0.45642 0.07833 0.95351 0.0
C928 C 0.43623 0.02502 0.91313 0.0
C929 C 0.46177 0.01264 0.95273 0.0
C930 C 0.45405 0.15853 0.01174 0.0
C931 C 0.43541 0.16698 0.02874 0.0
C932 C 0.41054 0.15441 0.02813 0.0
C933 C 0.40515 0.13188 0.01277 0.0
C934 C 0.42475 0.12221 0.99773 0.0
C935 C 0.44815 0.13635 0.99606 0.0
C936 C 0.46538 0.12468 0.97648 0.0
C937 C 0.4495 0.09971 0.96897 0.0
C938 C 0.42603 0.0982 0.98197 0.0
C939 C 0.46868 0.14283 0.95396 0.0
C940 C 0.4909 0.1198 0.98959 0.0
H941 H 0.41099 0.99725 0.95022 0.0
H942 H 0.34522 0.0314 0.00807 0.0
H943 H 0.40236 0.05517 0.03059 0.0
H944 H 0.39843 0.08839 0.0325 0.0
H945 H 0.37086 0.06598 0.03485 0.0
H946 H 0.35333 0.07325 0.96923 0.0
H947 H 0.34864 0.08547 0.00136 0.0
H948 H 0.37008 0.10247 0.97974 0.0
H949 H 0.49319 0.02039 0.9033 0.0
H950 H 0.53203 0.09677 0.90516 0.0
H951 H 0.501 0.11186 0.93549 0.0
H952 H 0.43664 0.04002 0.89879 0.0
H953 H 0.4432 0.00743 0.90361 0.0
H954 H 0.41577 0.02113 0.91792 0.0
H955 H 0.48007 0.01876 0.96299 0.0
H956 H 0.44807 0.00733 0.96797 0.0
H957 H 0.46495 0.99521 0.94046 0.0
H958 H 0.37584 0.96849 0.96477 0.0
C959 C 0.39717 0.00534 0.96269 0.0
O960 O 0.23335 0.8665 0.00667 0.0
Cd961 Cd 0.24601 0.88554 0.04007 0.0
Cd962 Cd 0.2145 0.92025 0.0236 0.0
O963 O 0.20213 0.89067 0.99791 0.0
O964 O 0.26313 0.85905 0.05783 0.0
O965 O 0.22939 0.87726 0.07368 0.0
C966 C 0.24642 0.86094 0.07572 0.0
C967 C 0.18499 0.947 0.04107 0.0
C968 C 0.21468 0.87129 0.99277 0.0
C969 C 0.27174 0.93382 0.02311 0.0
O970 O 0.24963 0.93892 0.01594 0.0
O971 O 0.27466 0.91409 0.03554 0.0
O972 O 0.19085 0.94705 0.01725 0.0
O973 O 0.1952 0.93103 0.05518 0.0
O974 O 0.1645 0.52426 0.27788 0.0
Cd975 Cd 0.14571 0.49335 0.29482 0.0
Cd976 Cd 0.10391 0.50812 0.27189 0.0
O977 O 0.12924 0.53828 0.26241 0.0
O978 O 0.17034 0.46734 0.30111 0.0
O979 O 0.13752 0.46061 0.27393 0.0
C980 C 0.1573 0.45238 0.28457 0.0
C981 C 0.07873 0.48983 0.23838 0.0
C982 C 0.15332 0.54072 0.26595 0.0
C983 C 0.10225 0.50564 0.32876 0.0
O984 O 0.08978 0.50823 0.30839 0.0
O985 O 0.12553 0.50043 0.32793 0.0
O986 O 0.07392 0.51147 0.24948 0.0
O987 O 0.09735 0.47792 0.24687 0.0
O988 O 0.76702 0.69082 0.98666 0.0
Cd989 Cd 0.75894 0.66731 0.01629 0.0
Cd990 Cd 0.79392 0.63993 0.99276 0.0
O991 O 0.79995 0.67149 0.97074 0.0
O992 O 0.73958 0.68841 0.04082 0.0
O993 O 0.77738 0.67466 0.04981 0.0
C994 C 0.75827 0.68752 0.05667 0.0
C995 C 0.82589 0.62265 0.01492 0.0
C996 C 0.7852 0.68963 0.97074 0.0
C997 C 0.74067 0.61524 0.99432 0.0
O998 O 0.76277 0.61413 0.98454 0.0
O999 O 0.73556 0.63433 0.00884 0.0
O1000 O 0.82408 0.61932 0.9904 0.0
O1001 O 0.81059 0.63737 0.02678 0.0
O1002 O 0.91486 0.03189 0.29131 0.0
Cd1003 Cd 0.88925 0.03683 0.26262 0.0
Cd1004 Cd 0.86048 0.0463 0.30277 0.0
O1005 O 0.89339 0.04661 0.32448 0.0
O1006 O 0.91149 0.03737 0.23209 0.0
O1007 O 0.89117 0.07093 0.24611 0.0
C1008 C 0.90691 0.06101 0.23021 0.0
C1009 C 0.83333 0.07906 0.30318 0.0
C1010 C 0.9135 0.03798 0.31499 0.0
C1011 C 0.84552 0.99868 0.27053 0.0
O1012 O 0.84305 0.01074 0.2919 0.0
O1013 O 0.86186 0.00692 0.25436 0.0
O1014 O 0.83362 0.06379 0.32174 0.0
O1015 O 0.84991 0.0769 0.28507 0.0
O1016 O 0.2711 0.19306 0.48974 0.0
Cd1017 Cd 0.26067 0.16996 0.51906 0.0
Cd1018 Cd 0.29315 0.1392 0.49585 0.0
O1019 O 0.30075 0.16979 0.4727 0.0
O1020 O 0.2436 0.19274 0.54392 0.0
O1021 O 0.27988 0.17561 0.5523 0.0
C1022 C 0.26222 0.19025 0.55945 0.0
C1023 C 0.32487 0.12152 0.51807 0.0
C1024 C 0.2884 0.18976 0.47322 0.0
C1025 C 0.23837 0.11846 0.4986 0.0
O1026 O 0.26038 0.11496 0.48953 0.0
O1027 O 0.23455 0.13893 0.51167 0.0
O1028 O 0.3221 0.11693 0.49376 0.0
O1029 O 0.3105 0.13736 0.52965 0.0
O1030 O 0.41577 0.53568 0.79844 0.0
Cd1031 Cd 0.39583 0.53824 0.76502 0.0
Cd1032 Cd 0.36163 0.55557 0.79757 0.0
O1033 O 0.39115 0.55768 0.82399 0.0
O1034 O 0.42206 0.53606 0.73792 0.0
O1035 O 0.40072 0.5706 0.74578 0.0
C1036 C 0.41798 0.55925 0.73293 0.0
C1037 C 0.33698 0.5904 0.794 0.0
C1038 C 0.4114 0.54619 0.82023 0.0
C1039 C 0.34862 0.50446 0.76928 0.0
O1040 O 0.34335 0.51987 0.78768 0.0
O1041 O 0.36834 0.50904 0.75568 0.0
O1042 O 0.3331 0.57449 0.81187 0.0
O1043 O 0.35558 0.58684 0.77834 0.0
O1044 O 0.72839 0.36112 0.50472 0.0
Cd1045 Cd 0.74594 0.38131 0.53545 0.0
Cd1046 Cd 0.7239 0.42121 0.51481 0.0
O1047 O 0.70949 0.39296 0.48856 0.0
O1048 O 0.75857 0.35375 0.5554 0.0
O1049 O 0.73072 0.38014 0.57085 0.0
C1050 C 0.74444 0.36111 0.57402 0.0
C1051 C 0.69646 0.44975 0.53259 0.0
C1052 C 0.71453 0.36958 0.48774 0.0
C1053 C 0.78126 0.42441 0.51689 0.0
O1054 O 0.76151 0.43501 0.51025 0.0
O1055 O 0.77923 0.40322 0.5278 0.0
O1056 O 0.70381 0.451 0.50921 0.0
O1057 O 0.7044 0.43198 0.54609 0.0
O1058 O 0.65776 0.04837 0.80214 0.0
Cd1059 Cd 0.64042 0.01331 0.81197 0.0
Cd1060 Cd 0.60931 0.02057 0.77454 0.0
O1061 O 0.64227 0.04144 0.76342 0.0
O1062 O 0.66524 0.98876 0.82205 0.0
O1063 O 0.64128 0.98367 0.78673 0.0
C1064 C 0.65842 0.97545 0.8013 0.0
C1065 C 0.5848 0.00127 0.74082 0.0
C1066 C 0.6574 0.05441 0.77901 0.0
C1067 C 0.59068 0.02625 0.82899 0.0
O1068 O 0.58865 0.03281 0.8061 0.0
O1069 O 0.60954 0.01432 0.8356 0.0
O1070 O 0.58599 0.02571 0.74576 0.0
O1071 O 0.59739 0.98737 0.75517 0.0
O1072 O 0.97121 0.29075 0.91273 0.0
Cd1073 Cd 0.98417 0.25832 0.89475 0.0
Cd1074 Cd 0.00708 0.29201 0.86582 0.0
O1075 O 0.00078 0.31739 0.89624 0.0
O1076 O 0.98027 0.23116 0.91991 0.0
O1077 O 0.01802 0.24712 0.90577 0.0
C1078 C 0.00497 0.23198 0.92058 0.0
C1079 C 0.04711 0.28937 0.8478 0.0
C1080 C 0.98278 0.31307 0.91211 0.0
C1081 C 0.96384 0.25817 0.84272 0.0
O1082 O 0.97685 0.27972 0.84175 0.0
O1083 O 0.96585 0.24432 0.86168 0.0
O1084 O 0.03375 0.30843 0.84369 0.0
O1085 O 0.03819 0.27226 0.86313 0.0
O1086 O 0.47065 0.79202 0.42057 0.0
Cd1087 Cd 0.48049 0.75878 0.40187 0.0
Cd1088 Cd 0.50104 0.79124 0.36908 0.0
O1089 O 0.49759 0.81766 0.39943 0.0
O1090 O 0.47949 0.7326 0.42792 0.0
O1091 O 0.51522 0.74672 0.40832 0.0
C1092 C 0.50396 0.73248 0.42512 0.0
C1093 C 0.53773 0.79323 0.34415 0.0
C1094 C 0.48187 0.81416 0.41766 0.0
C1095 C 0.45437 0.75682 0.35258 0.0
O1096 O 0.46857 0.77716 0.34879 0.0
O1097 O 0.45718 0.74433 0.37233 0.0
O1098 O 0.52113 0.80999 0.34283 0.0
O1099 O 0.53421 0.77578 0.36067 0.0
O1100 O 0.96834 0.78208 0.66848 0.0
Cd1101 Cd -0.0006 0.77013 0.648 0.0
Cd1102 Cd 0.97276 0.79234 0.6101 0.0
O1103 O 0.948 0.80123 0.6388 0.0
O1104 O 0.01834 0.75376 0.67468 0.0
O1105 O 0.03451 0.7881 0.65541 0.0
C1106 C 0.03697 0.77107 0.67203 0.0
C1107 C 0.99217 0.82464 0.58684 0.0
C1108 C 0.94992 0.79454 0.66158 0.0
C1109 C 0.98096 0.73735 0.60103 0.0
O1110 O 0.96916 0.75584 0.59356 0.0
O1111 O 0.99468 0.73991 0.62112 0.0
O1112 O 0.96864 0.8161 0.58252 0.0
O1113 O 0.00484 0.81493 0.60462 0.0
O1114 O 0.4685 0.27765 0.17281 0.0
Cd1115 Cd 0.49765 0.26515 0.15023 0.0
Cd1116 Cd 0.4825 0.30265 0.12226 0.0
O1117 O 0.47057 0.31603 0.15782 0.0
O1118 O 0.51778 0.24597 0.1737 0.0
O1119 O 0.53426 0.27987 0.15386 0.0
C1120 C 0.5372 0.26209 0.1696 0.0
C1121 C 0.49882 0.33294 0.09447 0.0
C1122 C 0.46262 0.30073 0.17462 0.0
C1123 C 0.471 0.24709 0.10357 0.0
O1124 O 0.46438 0.26996 0.10345 0.0
O1125 O 0.48724 0.24109 0.11966 0.0
O1126 O 0.47468 0.33011 0.09936 0.0
O1127 O 0.51409 0.31904 0.1059 0.0
C1128 C 0.19906 0.81432 0.94579 0.0
C1129 C 0.21022 0.82441 0.92338 0.0
C1130 C 0.21847 0.86678 0.94538 0.0
C1131 C 0.21007 0.85594 0.96855 0.0
N1132 N 0.19366 0.81949 0.99172 0.0
N1133 N 0.23295 0.8591 0.90193 0.0
C1134 C 0.20063 0.82972 0.969 0.0
C1135 C 0.22035 0.85042 0.9231 0.0
N1136 N 0.18651 0.79024 0.94466 0.0
N1137 N 0.22491 0.89268 0.9447 0.0
H1138 H 0.23458 0.84777 0.88512 0.0
H1139 H 0.24353 0.87686 0.90153 0.0
H1140 H 0.2251 0.90531 0.96075 0.0
H1141 H 0.22827 0.90211 0.92786 0.0
H1142 H 0.17574 0.78269 0.95962 0.0
H1143 H 0.18519 0.7784 0.92796 0.0
H1144 H 0.18962 0.79988 0.99393 0.0
H1145 H 0.19314 0.8306 0.00883 0.0
C1146 C 0.07592 0.49856 0.39612 0.0
C1147 C 0.06239 0.52097 0.3988 0.0
C1148 C 0.07933 0.53508 0.35794 0.0
C1149 C 0.08993 0.51113 0.3536 0.0
N1150 N 0.09555 0.46843 0.36702 0.0
N1151 N 0.04696 0.55804 0.37987 0.0
C1152 C 0.08764 0.49241 0.37233 0.0
C1153 C 0.06293 0.53858 0.37907 0.0
N1154 N 0.07799 0.48349 0.41644 0.0
N1155 N 0.08565 0.55486 0.34241 0.0
H1156 H 0.03403 0.561 0.39466 0.0
H1157 H 0.04471 0.56967 0.36461 0.0
H1158 H 0.09844 0.55344 0.32722 0.0
H1159 H 0.08045 0.57349 0.34629 0.0
H1160 H 0.08977 0.46837 0.41643 0.0
H1161 H 0.06967 0.48751 0.43413 0.0
H1162 H 0.09186 0.45319 0.37889 0.0
H1163 H 0.10393 0.46308 0.34971 0.0
C1164 C 0.79811 0.7535 0.9395 0.0
C1165 C 0.78803 0.74673 0.91472 0.0
C1166 C 0.77993 0.70173 0.92568 0.0
C1167 C 0.78798 0.70892 0.95111 0.0
N1168 N 0.8027 0.74153 0.98329 0.0
N1169 N 0.76655 0.7156 0.88465 0.0
C1170 C 0.7965 0.7348 0.95834 0.0
C1171 C 0.77831 0.72112 0.90786 0.0
N1172 N 0.80986 0.77759 0.94474 0.0
N1173 N 0.77373 0.67638 0.9186 0.0
H1174 H 0.76517 0.72923 0.87098 0.0
H1175 H 0.75644 0.69807 0.87954 0.0
H1176 H 0.77322 0.6617 0.93137 0.0
H1177 H 0.7707 0.66953 0.89975 0.0
H1178 H 0.82005 0.78299 0.96149 0.0
H1179 H 0.81104 0.79185 0.93148 0.0
H1180 H 0.806 0.76047 0.99048 0.0
H1181 H 0.80323 0.72811 0.99731 0.0
C1182 C 0.98044 0.03878 0.34245 0.0
C1183 C 0.97715 0.01846 0.35941 0.0
C1184 C 0.93338 0.0084 0.34338 0.0
C1185 C 0.93484 0.03224 0.33152 0.0
N1186 N 0.96017 0.07021 0.31886 0.0
N1187 N 0.95855 0.97468 0.3561 0.0
C1188 C 0.95853 0.04745 0.33069 0.0
C1189 C 0.95579 0.00029 0.35455 0.0
N1190 N 0.00437 0.04642 0.33398 0.0
N1191 N 0.9108 0.99326 0.34379 0.0
H1192 H 0.97643 0.96796 0.35947 0.0
H1193 H 0.94432 0.96033 0.35044 0.0
H1194 H 0.89399 0.99816 0.33528 0.0
H1195 H 0.90849 0.97682 0.3543 0.0
H1196 H 0.00776 0.05953 0.31979 0.0
H1197 H 0.02025 0.03661 0.33843 0.0
H1198 H 0.97653 0.08307 0.31988 0.0
H1199 H 0.94451 0.07707 0.30984 0.0
C1200 C 0.25871 0.24647 0.60728 0.0
C1201 C 0.26238 0.2348 0.63068 0.0
C1202 C 0.26527 0.19313 0.60753 0.0
C1203 C 0.26388 0.20541 0.5841 0.0
N1204 N 0.26611 0.24483 0.56176 0.0
N1205 N 0.27372 0.1982 0.65311 0.0
C1206 C 0.26261 0.23241 0.58399 0.0
C1207 C 0.26705 0.20844 0.63084 0.0
N1208 N 0.25047 0.27064 0.60721 0.0
N1209 N 0.26368 0.16689 0.60765 0.0
H1210 H 0.2752 0.20889 0.67052 0.0
H1211 H 0.27992 0.17983 0.65395 0.0
H1212 H 0.26199 0.15499 0.59103 0.0
H1213 H 0.26181 0.15686 0.6243 0.0
H1214 H 0.24491 0.27888 0.59063 0.0
H1215 H 0.24673 0.28149 0.62386 0.0
H1216 H 0.26789 0.2648 0.56111 0.0
H1217 H 0.27006 0.23536 0.54436 0.0
C1218 C 0.47216 0.5984 0.70117 0.0
C1219 C 0.47018 0.58649 0.67625 0.0
C1220 C 0.42916 0.56366 0.6872 0.0
C1221 C 0.43334 0.57223 0.71304 0.0
N1222 N 0.45831 0.59763 0.74536 0.0
N1223 N 0.44727 0.55781 0.64491 0.0
C1224 C 0.45446 0.58998 0.7202 0.0
C1225 C 0.44858 0.56941 0.66894 0.0
N1226 N 0.49099 0.6177 0.70651 0.0
N1227 N 0.40648 0.55018 0.68024 0.0
H1228 H 0.4607 0.56218 0.63074 0.0
H1229 H 0.43369 0.54286 0.63931 0.0
H1230 H 0.39192 0.54587 0.69335 0.0
H1231 H 0.4011 0.54528 0.66138 0.0
H1232 H 0.49218 0.62885 0.72359 0.0
H1233 H 0.50432 0.62403 0.69292 0.0
H1234 H 0.47493 0.60798 0.75235 0.0
H1235 H 0.44525 0.59252 0.75963 0.0
C1236 C 0.754 0.34464 0.6432 0.0
C1237 C 0.75417 0.31755 0.63958 0.0
C1238 C 0.73911 0.31987 0.59566 0.0
C1239 C 0.74377 0.347 0.5978 0.0
N1240 N 0.75751 0.3856 0.62329 0.0
N1241 N 0.75006 0.27943 0.61104 0.0
C1242 C 0.75132 0.35962 0.6216 0.0
C1243 C 0.74726 0.30507 0.61554 0.0
N1244 N 0.75629 0.35597 0.66728 0.0
N1245 N 0.72669 0.30828 0.57461 0.0
H1246 H 0.75676 0.2678 0.62469 0.0
H1247 H 0.74799 0.27017 0.59297 0.0
H1248 H 0.71994 0.31872 0.55994 0.0
H1249 H 0.72066 0.28873 0.57309 0.0
H1250 H 0.75393 0.37535 0.67142 0.0
H1251 H 0.75812 0.34542 0.68345 0.0
H1252 H 0.76601 0.3953 0.6394 0.0
H1253 H 0.75594 0.3973 0.60796 0.0
C1254 C 0.56351 0.99052 0.67215 0.0
C1255 C 0.53923 0.97677 0.67506 0.0
C1256 C 0.54584 0.97667 0.72133 0.0
C1257 C 0.57028 0.99004 0.71829 0.0
N1258 N 0.60492 0.00478 0.69105 0.0
N1259 N 0.50895 0.95254 0.701 0.0
C1260 C 0.57991 0.99542 0.69372 0.0
C1261 C 0.53093 0.96845 0.69926 0.0
N1262 N 0.57046 -0.00025 0.64897 0.0
N1263 N 0.53647 0.9729 0.74533 0.0
H1264 H 0.49739 0.94657 0.68521 0.0
H1265 H 0.50313 0.94369 0.71761 0.0
H1266 H 0.54716 0.97811 0.76187 0.0
H1267 H 0.51765 0.96602 0.74899 0.0
H1268 H 0.58649 0.01251 0.64631 0.0
H1269 H 0.55923 0.99608 0.63253 0.0
H1270 H 0.61392 0.00671 0.67346 0.0
H1271 H 0.61748 0.00847 0.70654 0.0
C1272 C 0.9331 0.23266 0.77964 0.0
C1273 C 0.90695 0.23546 0.78525 0.0
C1274 C 0.91813 0.25198 0.82879 0.0
C1275 C 0.94441 0.2503 0.82286 0.0
N1276 N 0.9777 0.24165 0.79259 0.0
N1277 N 0.87431 0.25062 0.81345 0.0
C1278 C 0.95215 0.24146 0.7982 0.0
C1279 C 0.89939 0.2459 0.80938 0.0
N1280 N 0.93952 0.22099 0.75684 0.0
N1281 N 0.91109 0.25917 0.85312 0.0
H1282 H 0.85972 0.24562 0.80011 0.0
H1283 H 0.86803 0.26106 0.82935 0.0
H1284 H 0.92423 0.26551 0.86752 0.0
H1285 H 0.89226 0.25753 0.85962 0.0
H1286 H 0.95786 0.21586 0.75242 0.0
H1287 H 0.92603 0.21502 0.74263 0.0
H1288 H 0.98479 0.23816 0.7743 0.0
H1289 H 0.9921 0.24666 0.80614 0.0
C1290 C 0.46527 0.8512 0.47888 0.0
C1291 C 0.4646 0.87649 0.4704 0.0
C1292 C 0.47196 0.86024 0.4266 0.0
C1293 C 0.47647 0.83587 0.43574 0.0
N1294 N 0.48393 0.81073 0.47215 0.0
N1295 N 0.4734 0.90599 0.43682 0.0
C1296 C 0.47497 0.83203 0.46235 0.0
C1297 C 0.46973 0.88133 0.44442 0.0
N1298 N 0.45596 0.84522 0.50238 0.0
N1299 N 0.46852 0.86314 0.4011 0.0
H1300 H 0.47293 0.92207 0.44942 0.0
H1301 H 0.47959 0.91037 0.41853 0.0
H1302 H 0.46831 0.84792 0.3874 0.0
H1303 H 0.46288 0.88006 0.39395 0.0
H1304 H 0.454 0.82644 0.50838 0.0
H1305 H 0.4476 0.85845 0.51467 0.0
H1306 H 0.48523 0.80836 0.49172 0.0
H1307 H 0.49292 0.79699 0.46105 0.0
C1308 C 0.09381 0.28733 0.79274 0.0
C1309 C 0.1171 0.28448 0.80572 0.0
C1310 C 0.09467 0.28514 0.84678 0.0
C1311 C 0.07116 0.28637 0.83358 0.0
N1312 N 0.04748 0.28202 0.7938 0.0
N1313 N 0.13927 0.27574 0.84421 0.0
C1314 C 0.07047 0.28551 0.80648 0.0
C1315 C 0.11739 0.28182 0.83252 0.0
N1316 N 0.09406 0.29286 0.76751 0.0
N1317 N 0.09554 0.28839 0.87283 0.0
H1318 H 0.15624 0.27322 0.83427 0.0
H1319 H 0.14 0.27099 0.86323 0.0
H1320 H 0.07937 0.29115 0.88394 0.0
H1321 H 0.11257 0.29049 0.88331 0.0
H1322 H 0.078 0.29808 0.75793 0.0
H1323 H 0.11076 0.29446 0.75665 0.0
H1324 H 0.04595 0.27852 0.77408 0.0
H1325 H 0.02989 0.27996 0.80313 0.0
C1326 C 0.52043 0.67478 0.46001 0.0
C1327 C 0.53612 0.68682 0.48003 0.0
C1328 C 0.53451 0.72866 0.46136 0.0
C1329 C 0.51847 0.71666 0.44157 0.0
N1330 N 0.50163 0.67812 0.41809 0.0
N1331 N 0.56329 0.72331 0.49671 0.0
C1332 C 0.51325 0.68959 0.43962 0.0
C1333 C 0.54495 0.71319 0.47961 0.0
N1334 N 0.51137 0.64954 0.46116 0.0
N1335 N 0.53847 0.75489 0.46363 0.0
H1336 H 0.57111 0.71237 0.51037 0.0
H1337 H 0.57235 0.74178 0.49596 0.0
H1338 H 0.53151 0.76689 0.45043 0.0
H1339 H 0.54731 0.76493 0.47938 0.0
H1340 H 0.49738 0.64052 0.44886 0.0
H1341 H 0.5167 0.63785 0.47545 0.0
H1342 H 0.49938 0.65829 0.41434 0.0
H1343 H 0.49637 0.68859 0.40279 0.0
C1344 C 0.91852 0.82331 0.72036 0.0
C1345 C 0.8938 0.8099 0.71866 0.0
C1346 C 0.90564 0.78694 0.67902 0.0
C1347 C 0.93014 0.80082 0.68038 0.0
N1348 N 0.95875 0.8352 0.69923 0.0
N1349 N 0.86199 0.78231 0.69481 0.0
C1350 C 0.93626 0.81991 0.70017 0.0
C1351 C 0.88676 0.79282 0.6974 0.0
N1352 N 0.92516 0.83882 0.74157 0.0
N1353 N 0.90088 0.76727 0.66091 0.0
H1354 H 0.84784 0.78542 0.70837 0.0
H1355 H 0.8549 0.77203 0.6784 0.0
H1356 H 0.91414 0.76254 0.64694 0.0
H1357 H 0.88457 0.75441 0.66069 0.0
H1358 H 0.94376 0.84671 0.74551 0.0
H1359 H 0.91224 0.84275 0.75614 0.0
H1360 H 0.96331 0.85118 0.71158 0.0
H1361 H 0.97219 0.83313 0.68471 0.0
C1362 C 0.01157 0.89061 0.56328 0.0
C1363 C 0.01928 0.88395 0.53799 0.0
C1364 C 0.01171 0.83813 0.54571 0.0
C1365 C 0.00425 0.84479 0.57105 0.0
N1366 N 0.00164 0.87647 0.60583 0.0
N1367 N 0.03187 0.85217 0.50654 0.0
C1368 C 0.00578 0.87079 0.58048 0.0
C1369 C 0.02096 0.8579 0.52964 0.0
N1370 N 0.00863 0.91575 0.57044 0.0
N1371 N 0.00934 0.81292 0.53688 0.0
H1372 H 0.03875 0.86626 0.49428 0.0
H1373 H 0.03604 0.83373 0.50035 0.0
H1374 H 0.00398 0.79782 0.54854 0.0
H1375 H 0.01141 0.80698 0.51777 0.0
H1376 H 0.00027 0.92161 0.58755 0.0
H1377 H 0.01299 0.93085 0.55849 0.0
H1378 H 0.005 0.89484 0.61449 0.0
H1379 H 0.99672 0.8624 0.61878 0.0
C1380 C 0.10643 0.77271 0.69494 0.0
C1381 C 0.10239 0.76804 0.72112 0.0
C1382 C 0.05627 0.77006 0.71542 0.0
C1383 C 0.05988 0.77163 0.68871 0.0
N1384 N 0.08815 0.76973 0.65231 0.0
N1385 N 0.07302 0.75629 0.75492 0.0
C1386 C 0.08492 0.77175 0.67819 0.0
C1387 C 0.07715 0.7649 0.73095 0.0
N1388 N 0.13068 0.7788 0.68621 0.0
N1389 N 0.03317 0.77463 0.7262 0.0
H1390 H 0.08781 0.7516 0.76672 0.0
H1391 H 0.05477 0.75127 0.762 0.0
H1392 H 0.01767 0.77984 0.71568 0.0
H1393 H 0.03034 0.77613 0.74588 0.0
H1394 H 0.13447 0.78508 0.66795 0.0
H1395 H 0.1469 0.77968 0.69791 0.0
H1396 H 0.10576 0.767 0.64375 0.0
H1397 H 0.07291 0.76838 0.63937 0.0
C1398 C 0.972 0.66527 0.5867 0.0
C1399 C 0.97321 0.66391 0.55965 0.0
C1400 C 0.98293 0.71055 0.55996 0.0
C1401 C 0.97824 0.71216 0.58666 0.0
N1402 N 0.96252 0.69126 0.62439 0.0
N1403 N 0.97523 0.68566 0.52005 0.0
C1404 C 0.97122 0.68957 0.5998 0.0
C1405 C 0.97741 0.68667 0.54608 0.0
N1406 N 0.97221 0.64341 0.59992 0.0
N1407 N 0.99364 0.73147 0.54802 0.0
H1408 H 0.97082 0.66858 0.50916 0.0
H1409 H 0.97546 0.70204 0.50951 0.0
H1410 H 0.99888 0.7491 0.55767 0.0
H1411 H -0.00024 0.73057 0.5291 0.0
H1412 H 0.97389 0.6437 0.61975 0.0
H1413 H 0.97337 0.62522 0.59099 0.0
H1414 H 0.95481 0.67536 0.63386 0.0
H1415 H 0.96033 0.70872 0.6344 0.0
C1416 C 0.79271 0.94919 0.24623 0.0
C1417 C 0.79905 0.92749 0.2594 0.0
C1418 C 0.83661 0.9522 0.27878 0.0
C1419 C 0.83044 0.97383 0.26539 0.0
N1420 N 0.80527 0.99266 0.23394 0.0
N1421 N 0.82841 0.90653 0.28508 0.0
C1422 C 0.80932 0.9722 0.24826 0.0
C1423 C 0.82146 0.92846 0.27474 0.0
N1424 N 0.77041 0.9479 0.23239 0.0
N1425 N 0.85674 0.95458 0.29566 0.0
H1426 H 0.81731 0.88898 0.28323 0.0
H1427 H 0.84589 0.90509 0.29413 0.0
H1428 H 0.86938 0.97109 0.29782 0.0
H1429 H 0.86043 0.94073 0.30842 0.0
H1430 H 0.76303 0.96369 0.22467 0.0
H1431 H 0.75833 0.93105 0.22963 0.0
H1432 H 0.79191 0.99199 0.21917 0.0
H1433 H 0.81645 0.01016 0.23573 0.0
C1434 C 0.78579 0.12605 0.32546 0.0
C1435 C 0.77211 0.12931 0.30265 0.0
C1436 C 0.79502 0.09494 0.28162 0.0
C1437 C 0.813 0.09714 0.30221 0.0
N1438 N 0.82592 0.11652 0.34366 0.0
N1439 N 0.75149 0.10119 0.26968 0.0
C1440 C 0.80848 0.11315 0.32414 0.0
C1441 C 0.77318 0.10947 0.2832 0.0
N1442 N 0.77481 0.13086 0.34863 0.0
N1443 N 0.7982 0.07857 0.26088 0.0
H1444 H 0.73376 0.10791 0.27441 0.0
H1445 H 0.75017 0.08519 0.25686 0.0
H1446 H 0.81231 0.06564 0.25971 0.0
H1447 H 0.78739 0.07881 0.24419 0.0
H1448 H 0.78313 0.12659 0.36582 0.0
H1449 H 0.75578 0.13539 0.35015 0.0
H1450 H 0.82398 0.1297 0.35906 0.0
H1451 H 0.84334 0.10814 0.34319 0.0
C1452 C 0.31738 0.96999 0.979 0.0
C1453 C 0.33668 0.98041 0.99643 0.0
C1454 C 0.31265 0.96155 0.03194 0.0
C1455 C 0.29447 0.94942 0.01418 0.0
N1456 N 0.28326 0.93658 0.97032 0.0
N1457 N 0.3556 0.98198 0.03856 0.0
C1458 C 0.29788 0.95204 0.98754 0.0
C1459 C 0.33521 0.97495 0.02267 0.0
N1460 N 0.31709 0.97788 0.95455 0.0
N1461 N 0.3079 0.9612 0.05757 0.0
H1462 H 0.3726 0.99155 0.03235 0.0
H1463 H 0.35661 0.97625 0.05724 0.0
H1464 H 0.29139 0.95187 0.06507 0.0
H1465 H 0.31918 0.97204 0.07126 0.0
H1466 H 0.30184 0.97295 0.94195 0.0
H1467 H 0.33091 0.99125 0.94754 0.0
H1468 H 0.28671 0.93599 0.95073 0.0
H1469 H 0.2695 0.92231 0.97573 0.0
C1470 C 0.18725 0.39629 0.25081 0.0
C1471 C 0.18976 0.38099 0.27202 0.0
C1472 C 0.16052 0.40689 0.29619 0.0
C1473 C 0.16487 0.42623 0.27831 0.0
N1474 N 0.17957 0.43828 0.23653 0.0
N1475 N 0.16085 0.36133 0.30224 0.0
C1476 C 0.1769 0.42045 0.25468 0.0
C1477 C 0.17102 0.38297 0.29132 0.0
N1478 N 0.19181 0.38635 0.22685 0.0
N1479 N 0.14687 0.41144 0.31792 0.0
H1480 H 0.16601 0.34316 0.29595 0.0
H1481 H 0.14545 0.36119 0.31486 0.0
H1482 H 0.13789 0.42836 0.32154 0.0
H1483 H 0.14556 0.39881 0.33271 0.0
H1484 H 0.18813 0.39571 0.21032 0.0
H1485 H 0.19637 0.36733 0.2238 0.0
H1486 H 0.19066 0.43583 0.22019 0.0
H1487 H 0.1719 0.45607 0.23853 0.0
C1488 C 0.19109 0.0672 0.46664 0.0
C1489 C 0.17441 0.06167 0.48735 0.0
C1490 C 0.20247 0.08985 0.51596 0.0
C1491 C 0.21698 0.09823 0.49463 0.0
N1492 N 0.22195 0.0983 0.44874 0.0
N1493 N 0.16137 0.07196 0.53068 0.0
C1494 C 0.21053 0.08779 0.46966 0.0
C1495 C 0.17928 0.07416 0.51176 0.0
N1496 N 0.18879 0.05242 0.44433 0.0
N1497 N 0.21127 0.09597 0.54026 0.0
H1498 H 0.14369 0.06131 0.52822 0.0
H1499 H 0.163 0.08282 0.54795 0.0
H1500 H 0.22882 0.10641 0.54423 0.0
H1501 H 0.20254 0.08823 0.55633 0.0
H1502 H 0.20206 0.05407 0.42956 0.0
H1503 H 0.17508 0.03683 0.44157 0.0
H1504 H 0.21599 0.09302 0.43009 0.0
H1505 H 0.23556 0.11408 0.44995 0.0
C1506 C 0.70963 0.10973 0.7763 0.0
C1507 C 0.70336 0.12079 0.75314 0.0
C1508 C 0.66459 0.0915 0.75 0.0
C1509 C 0.67339 0.07726 0.77024 0.0
N1510 N 0.7094 0.06984 0.79737 0.0
N1511 N 0.67829 0.11602 0.71408 0.0
C1512 C 0.69744 0.08543 0.78193 0.0
C1513 C 0.68193 0.10975 0.73871 0.0
N1514 N 0.7263 0.12265 0.79349 0.0
N1515 N 0.63946 0.08911 0.74249 0.0
H1516 H 0.69148 0.12802 0.7044 0.0
H1517 H 0.66371 0.10679 0.70252 0.0
H1518 H 0.62505 0.07879 0.75232 0.0
H1519 H 0.63243 0.10056 0.72881 0.0
H1520 H 0.72977 0.11581 0.8114 0.0
H1521 H 0.73409 0.14141 0.79119 0.0
H1522 H 0.7278 0.07476 0.80469 0.0
H1523 H 0.70266 0.05083 0.80002 0.0
C1524 C 0.35082 0.0729 0.5607 0.0
C1525 C 0.37676 0.07435 0.55272 0.0
C1526 C 0.36959 0.11112 0.52718 0.0
C1527 C 0.343 0.10736 0.53237 0.0
N1528 N 0.30751 0.08354 0.5523 0.0
N1529 N 0.41122 0.09388 0.52792 0.0
C1530 C 0.3334 0.08821 0.54898 0.0
C1531 C 0.38633 0.09336 0.53598 0.0
N1532 N 0.34288 0.05683 0.57943 0.0
N1533 N 0.37881 0.13202 0.51429 0.0
H1534 H 0.42434 0.08191 0.53485 0.0
H1535 H 0.41859 0.10513 0.51339 0.0
H1536 H 0.36696 0.14545 0.50782 0.0
H1537 H 0.39825 0.13734 0.51192 0.0
H1538 H 0.32497 0.05687 0.58808 0.0
H1539 H 0.35499 0.04479 0.58788 0.0
H1540 H 0.29916 0.06784 0.5616 0.0
H1541 H 0.29403 0.09431 0.54418 0.0
C1542 C 0.63794 0.48699 0.54021 0.0
C1543 C 0.64833 0.50912 0.55476 0.0
C1544 C 0.68962 0.49054 0.55797 0.0
C1545 C 0.67925 0.46853 0.54326 0.0
N1546 N 0.64273 0.4429 0.5251 0.0
N1547 N 0.68176 0.53026 0.58181 0.0
C1548 C 0.65308 0.46585 0.53589 0.0
C1549 C 0.67347 0.5103 0.5651 0.0
N1550 N 0.61392 0.48661 0.52979 0.0
N1551 N 0.71516 0.49301 0.56408 0.0
H1552 H 0.67054 0.54528 0.58697 0.0
H1553 H 0.69889 0.53107 0.59203 0.0
H1554 H 0.72731 0.47853 0.55987 0.0
H1555 H 0.72467 0.50982 0.57209 0.0
H1556 H 0.60637 0.47248 0.5165 0.0
H1557 H 0.60187 0.50133 0.53331 0.0
H1558 H 0.62323 0.43871 0.52145 0.0
H1559 H 0.65344 0.42708 0.52176 0.0
C1560 C 0.68851 0.31069 0.44776 0.0
C1561 C 0.69986 0.31605 0.42385 0.0
C1562 C 0.71879 0.35772 0.44123 0.0
C1563 C 0.70712 0.3526 0.4651 0.0
N1564 N 0.67712 0.32709 0.49012 0.0
N1565 N 0.72111 0.34632 0.39594 0.0
C1566 C 0.69077 0.32991 0.46806 0.0
C1567 C 0.71335 0.3402 0.41996 0.0
N1568 N 0.6762 0.28698 0.45118 0.0
N1569 N 0.73649 0.37836 0.43926 0.0
H1570 H 0.71848 0.33359 0.37998 0.0
H1571 H 0.7283 0.36471 0.39141 0.0
H1572 H 0.74127 0.39174 0.4543 0.0
H1573 H 0.74804 0.3812 0.42331 0.0
H1574 H 0.67009 0.28071 0.46886 0.0
H1575 H 0.67323 0.2729 0.43636 0.0
H1576 H 0.66308 0.31214 0.49274 0.0
H1577 H 0.67832 0.34101 0.50521 0.0
C1578 C 0.56043 0.04972 0.89098 0.0
C1579 C 0.53423 0.04846 0.88372 0.0
C1580 C 0.54476 0.02848 0.8422 0.0
C1581 C 0.57128 0.03326 0.84812 0.0
N1582 N 0.60423 0.05413 0.87637 0.0
N1583 N 0.50211 0.04142 0.85035 0.0
C1584 C 0.57915 0.04538 0.87207 0.0
C1585 C 0.52652 0.03917 0.85873 0.0
N1586 N 0.56743 0.05442 0.91603 0.0
N1587 N 0.53688 0.01295 0.82139 0.0
H1588 H 0.48831 0.04987 0.86156 0.0
H1589 H 0.49637 0.03726 0.83144 0.0
H1590 H 0.54955 0.0037 0.80943 0.0
H1591 H 0.51767 0.00698 0.81767 0.0
H1592 H 0.58605 0.05305 0.92258 0.0
H1593 H 0.55418 0.05703 0.93061 0.0
H1594 H 0.61032 0.06529 0.89265 0.0
H1595 H 0.61848 0.05284 0.86258 0.0
C1596 C 0.30166 0.25483 0.44498 0.0
C1597 C 0.29642 0.24832 0.41881 0.0
C1598 C 0.2874 0.20294 0.42797 0.0
C1599 C 0.29343 0.2093 0.45406 0.0
N1600 N 0.31109 0.23989 0.48676 0.0
N1601 N 0.28925 0.21608 0.38429 0.0
C1602 C 0.30201 0.23488 0.46238 0.0
C1603 C 0.29096 0.22229 0.40996 0.0
N1604 N 0.30564 0.28012 0.45325 0.0
N1605 N 0.27678 0.17884 0.42064 0.0
H1606 H 0.2909 0.2298 0.37049 0.0
H1607 H 0.28824 0.19725 0.37655 0.0
H1608 H 0.27371 0.16407 0.43319 0.0
H1609 H 0.26911 0.17396 0.40254 0.0
H1610 H 0.30658 0.28636 0.47244 0.0
H1611 H 0.30645 0.29516 0.44085 0.0
H1612 H 0.31989 0.25761 0.49337 0.0
H1613 H 0.31188 0.22562 0.49988 0.0
C1614 C 0.44229 0.53785 0.88507 0.0
C1615 C 0.46835 0.53721 0.8777 0.0
C1616 C 0.45708 0.54925 0.83497 0.0
C1617 C 0.43063 0.54518 0.84093 0.0
N1618 N 0.39819 0.5305 0.87109 0.0
N1619 N 0.4994 0.53665 0.84345 0.0
C1620 C 0.42316 0.53825 0.86589 0.0
C1621 C 0.4755 0.54139 0.85203 0.0
N1622 N 0.43582 0.5386 0.91033 0.0
N1623 N 0.46474 0.56128 0.81338 0.0
H1624 H 0.51315 0.5294 0.85484 0.0
H1625 H 0.5045 0.53719 0.82425 0.0
H1626 H 0.45191 0.56879 0.80113 0.0
H1627 H 0.48395 0.56651 0.80942 0.0
H1628 H 0.41734 0.54143 0.91669 0.0
H1629 H 0.44941 0.53917 0.92496 0.0
H1630 H 0.39247 0.52289 0.88838 0.0
H1631 H 0.38363 0.529 0.85741 0.0
C1632 C 0.75927 0.70499 0.12825 0.0
C1633 C 0.75408 0.7312 0.12804 0.0
C1634 C 0.7559 0.7293 0.08137 0.0
C1635 C 0.75823 0.70246 0.0814 0.0
N1636 N 0.75856 0.66376 0.10458 0.0
N1637 N 0.74258 0.76712 0.10455 0.0
C1638 C 0.75908 0.68998 0.10477 0.0
C1639 C 0.751 0.74303 0.10463 0.0
N1640 N 0.76493 0.69464 0.15078 0.0
N1641 N 0.75942 0.74192 0.05925 0.0
H1642 H 0.73848 0.77782 0.1212 0.0
H1643 H 0.73732 0.77552 0.08794 0.0
H1644 H 0.7639 0.7327 0.04188 0.0
H1645 H 0.76057 0.76189 0.05865 0.0
H1646 H 0.77156 0.67648 0.15187 0.0
H1647 H 0.76494 0.70503 0.16834 0.0
H1648 H 0.75634 0.6534 0.12098 0.0
H1649 H 0.75825 0.65211 0.08778 0.0
C1650 C 0.93514 0.0758 0.16652 0.0
C1651 C 0.95729 0.09183 0.17436 0.0
C1652 C 0.94223 0.0935 0.21855 0.0
C1653 C 0.92085 0.07627 0.21094 0.0
N1654 N 0.89287 0.05686 0.17773 0.0
N1655 N 0.97876 0.12158 0.20549 0.0
C1656 C 0.91593 0.06947 0.18482 0.0
C1657 C 0.95967 0.1027 0.19965 0.0
N1658 N 0.93321 0.06552 0.14199 0.0
N1659 N 0.94677 0.09964 0.24392 0.0
H1660 H 0.99182 0.12847 0.19189 0.0
H1661 H 0.98033 0.13195 0.22301 0.0
H1662 H 0.93406 0.09381 0.25822 0.0
H1663 H 0.96365 0.10945 0.25097 0.0
H1664 H 0.91913 0.05128 0.13584 0.0
H1665 H 0.94656 0.07034 0.12788 0.0
H1666 H 0.88704 0.05313 0.15881 0.0
H1667 H 0.87854 0.05223 0.19097 0.0
C1668 C 0.25442 0.80076 0.11049 0.0
C1669 C 0.25525 0.81031 0.13635 0.0
C1670 C 0.2486 0.85352 0.12287 0.0
C1671 C 0.24645 0.84358 0.09715 0.0
N1672 N 0.23959 0.80659 0.06765 0.0
N1673 N 0.24697 0.84405 0.16768 0.0
C1674 C 0.2469 0.8168 0.09135 0.0
C1675 C 0.25033 0.83618 0.14271 0.0
N1676 N 0.26212 0.77692 0.10393 0.0
N1677 N 0.25049 0.87949 0.1283 0.0
H1678 H 0.24787 0.83173 0.18264 0.0
H1679 H 0.24089 0.86198 0.17328 0.0
H1680 H 0.24967 0.8929 0.11435 0.0
H1681 H 0.25499 0.88781 0.14641 0.0
H1682 H 0.2645 0.77029 0.08505 0.0
H1683 H 0.26851 0.76467 0.11719 0.0
H1684 H 0.23724 0.78686 0.06315 0.0
H1685 H 0.23312 0.81767 0.05336 0.0
C1686 C 0.02313 0.46313 0.19567 0.0
C1687 C 0.03351 0.46885 0.17144 0.0
C1688 C 0.0752 0.48275 0.19108 0.0
C1689 C 0.06395 0.47992 0.2155 0.0
N1690 N 0.02737 0.46863 0.2418 0.0
N1691 N 0.06834 0.48631 0.14571 0.0
C1692 C 0.03795 0.47034 0.21802 0.0
C1693 C 0.05936 0.479 0.16898 0.0
N1694 N -0.00069 0.45035 0.19718 0.0
N1695 N 0.10098 0.48921 0.18903 0.0
H1696 H 0.0574 0.48373 0.12899 0.0
H1697 H 0.08595 0.49665 0.14313 0.0
H1698 H 0.11309 0.49325 0.20479 0.0
H1699 H 0.11082 0.48871 0.17178 0.0
H1700 H 0.99157 0.44331 0.21397 0.0
H1701 H 0.98792 0.44495 0.18113 0.0
H1702 H 0.00783 0.4648 0.245 0.0
H1703 H 0.03808 0.47231 0.25858 0.0
C1704 C 0.4176 0.73084 0.29298 0.0
C1705 C 0.39212 0.7341 0.30098 0.0
C1706 C 0.40776 0.75382 0.34207 0.0
C1707 C 0.43305 0.74883 0.33482 0.0
N1708 N 0.46239 0.73044 0.30505 0.0
N1709 N 0.36216 0.74601 0.33363 0.0
C1710 C 0.43811 0.73681 0.31067 0.0
C1711 C 0.38697 0.74482 0.3257 0.0
N1712 N 0.42211 0.7224 0.26837 0.0
N1713 N 0.40378 0.76806 0.36418 0.0
H1714 H 0.34634 0.74076 0.3218 0.0
H1715 H 0.35707 0.75062 0.35241 0.0
H1716 H 0.41852 0.77481 0.37683 0.0
H1717 H 0.38625 0.77493 0.36914 0.0
H1718 H 0.44032 0.7222 0.26043 0.0
H1719 H 0.40743 0.71708 0.25518 0.0
H1720 H 0.46698 0.71928 0.28894 0.0
H1721 H 0.4779 0.73484 0.3175 0.0
C1722 C 0.96021 0.3485 0.97214 0.0
C1723 C 0.96103 0.3741 0.96419 0.0
C1724 C 0.97184 0.35875 0.92093 0.0
C1725 C 0.97514 0.33406 0.92997 0.0
N1726 N 0.97813 0.30754 0.96624 0.0
N1727 N 0.97304 0.40432 0.93198 0.0
C1728 C 0.97083 0.32943 0.95616 0.0
C1729 C 0.96834 0.37949 0.93883 0.0
N1730 N 0.94883 0.34223 0.9947 0.0
N1731 N 0.97091 0.36229 0.89531 0.0
H1732 H 0.97164 0.42017 0.94469 0.0
H1733 H 0.98087 0.40906 0.91438 0.0
H1734 H 0.97185 0.34735 0.88144 0.0
H1735 H 0.96621 0.37946 0.88794 0.0
H1736 H 0.94577 0.32333 0.00018 0.0
H1737 H 0.93999 0.35551 0.00654 0.0
H1738 H 0.97746 0.30457 0.98575 0.0
H1739 H 0.98762 0.29375 0.95574 0.0
C1740 C 0.57925 0.77572 0.28735 0.0
C1741 C 0.59886 0.79619 0.28928 0.0
C1742 C 0.57533 0.81674 0.32387 0.0
C1743 C 0.55934 0.79365 0.32593 0.0
N1744 N 0.54492 0.75109 0.30821 0.0
N1745 N 0.60024 0.84237 0.29446 0.0
C1746 C 0.56103 0.773 0.30736 0.0
C1747 C 0.59271 0.81882 0.30327 0.0
N1748 N 0.5748 0.76241 0.26448 0.0
N1749 N 0.57456 0.83651 0.3419 0.0
H1750 H 0.60948 0.84424 0.27691 0.0
H1751 H 0.59425 0.85948 0.30265 0.0
H1752 H 0.56262 0.83557 0.35783 0.0
H1753 H 0.58759 0.85277 0.34216 0.0
H1754 H 0.5593 0.74877 0.26112 0.0
H1755 H 0.58419 0.76819 0.2479 0.0
H1756 H 0.54746 0.7346 0.29673 0.0
H1757 H 0.52996 0.74883 0.32125 0.0
C1758 C 0.01835 0.1745 0.95763 0.0
C1759 C 0.03293 0.1866 0.97841 0.0
C1760 C 0.03229 0.22839 0.95943 0.0
C1761 C 0.0177 0.21628 0.93864 0.0
N1762 N 0.0026 0.17751 0.91444 0.0
N1763 N 0.05918 0.2232 0.99626 0.0
C1764 C 0.0126 0.18917 0.93663 0.0
C1765 C 0.04175 0.21298 0.97829 0.0
N1766 N 0.00891 0.14935 0.95855 0.0
N1767 N 0.03572 0.25464 0.96208 0.0
H1768 H 0.06632 0.21231 0.01036 0.0
H1769 H 0.06828 0.24168 0.9958 0.0
H1770 H 0.02916 0.2667 0.94873 0.0
H1771 H 0.04347 0.2646 0.97839 0.0
H1772 H 0.99559 0.14038 0.94551 0.0
H1773 H 0.0131 0.13776 0.97335 0.0
H1774 H 0.0007 0.15765 0.91081 0.0
H1775 H 0.99847 0.18781 0.89862 0.0
C1776 C 0.42608 0.29848 0.23677 0.0
C1777 C 0.41118 0.31995 0.236 0.0
C1778 C 0.42884 0.32861 0.19383 0.0
C1779 C 0.44627 0.30928 0.19629 0.0
N1780 N 0.4672 0.28362 0.22602 0.0
N1781 N 0.40582 0.36046 0.21716 0.0
C1782 C 0.44678 0.29666 0.21964 0.0
C1783 C 0.41499 0.33672 0.21565 0.0
N1784 N 0.41987 0.27901 0.25264 0.0
N1785 N 0.42384 0.33808 0.17071 0.0
H1786 H 0.39686 0.36765 0.23348 0.0
H1787 H 0.40989 0.37392 0.20341 0.0
H1788 H 0.4309 0.33092 0.15346 0.0
H1789 H 0.40976 0.35078 0.16836 0.0
H1790 H 0.42948 0.26228 0.25214 0.0
H1791 H 0.40337 0.27804 0.26381 0.0
H1792 H 0.46863 0.27553 0.2437 0.0
H1793 H 0.48406 0.28402 0.21537 0.0
C1794 C 0.51406 0.3607 0.03022 0.0
C1795 C 0.52122 0.38671 0.03792 0.0
C1796 C 0.51861 0.37597 0.0829 0.0
C1797 C 0.50825 0.35088 0.07511 0.0
N1798 N 0.4924 0.32021 0.04155 0.0
N1799 N 0.52667 0.42025 0.07153 0.0
C1800 C 0.50495 0.34345 0.0488 0.0
C1801 C 0.52273 0.39468 0.06428 0.0
N1802 N 0.51657 0.35237 0.00524 0.0
N1803 N 0.52434 0.38195 0.10807 0.0
H1804 H 0.52913 0.43469 0.05854 0.0
H1805 H 0.52522 0.4274 0.09035 0.0
H1806 H 0.52085 0.36886 0.12229 0.0
H1807 H 0.53442 0.3991 0.11454 0.0
H1808 H 0.5141 0.33306 0.99899 0.0
H1809 H 0.52354 0.36445 0.99114 0.0
H1810 H 0.48696 0.31493 0.02277 0.0
H1811 H 0.48545 0.30706 0.05465 0.0
C1812 C 0.58795 0.23185 0.20623 0.0
C1813 C 0.60323 0.25375 0.21638 0.0
C1814 C 0.57631 0.28187 0.19441 0.0
C1815 C 0.56191 0.25989 0.18304 0.0
N1816 N 0.56059 0.21443 0.17128 0.0
N1817 N 0.61704 0.29866 0.21302 0.0
C1818 C 0.56989 0.235 0.18671 0.0
C1819 C 0.59916 0.27845 0.20794 0.0
N1820 N 0.58933 0.20832 0.21614 0.0
N1821 N 0.56746 0.30574 0.19421 0.0
H1822 H 0.63427 0.2966 0.22244 0.0
H1823 H 0.61597 0.3166 0.20543 0.0
H1824 H 0.54998 0.30929 0.18624 0.0
H1825 H 0.57626 0.32169 0.20452 0.0
H1826 H 0.57659 0.19248 0.21094 0.0
H1827 H 0.60137 0.20515 0.23127 0.0
H1828 H 0.56743 0.1963 0.17196 0.0
H1829 H 0.54843 0.21627 0.15582 0.0
C1830 C 0.45076 0.21292 0.04001 0.0
C1831 C 0.44253 0.18809 0.04806 0.0
C1832 C 0.44897 0.20352 0.09271 0.0
C1833 C 0.46015 0.22731 0.08449 0.0
N1834 N 0.47751 0.25211 0.04994 0.0
N1835 N 0.43694 0.15921 0.08314 0.0
C1836 C 0.46247 0.23148 0.05801 0.0
C1837 C 0.44245 0.1832 0.07451 0.0
N1838 N 0.44704 0.21891 0.01529 0.0
N1839 N 0.44481 0.19991 0.11807 0.0
H1840 H 0.43324 0.14255 0.07141 0.0
H1841 H 0.43324 0.14255 0.07141 0.0
H1842 H 0.44802 0.2146 0.13226 0.0
H1843 H 0.43676 0.18251 0.12464 0.0
H1844 H 0.4505 0.23751 0.00906 0.0
H1845 H 0.4381 0.20589 0.00164 0.0
H1846 H 0.48177 0.25475 0.03079 0.0
H1847 H 0.48822 0.26489 0.06252 0.0
C1848 C 0.29325 0.45598 0.74894 0.0
C1849 C 0.30115 0.43367 0.75993 0.0
C1850 C 0.34156 0.45716 0.77407 0.0
C1851 C 0.33268 0.48 0.76506 0.0
N1852 N 0.29953 0.50232 0.74614 0.0
N1853 N 0.33094 0.41319 0.78561 0.0
C1854 C 0.30833 0.47976 0.75312 0.0
C1855 C 0.32488 0.43425 0.77312 0.0
N1856 N 0.27173 0.45421 0.73392 0.0
N1857 N 0.36598 0.45739 0.7835 0.0
H1858 H 0.31931 0.39595 0.78516 0.0
H1859 H 0.34649 0.41328 0.798 0.0
H1860 H 0.3784 0.47405 0.78574 0.0
H1861 H 0.37465 0.44084 0.78753 0.0
H1862 H 0.26635 0.46907 0.72315 0.0
H1863 H 0.26013 0.43711 0.73061 0.0
H1864 H 0.28082 0.50395 0.74009 0.0
H1865 H 0.31057 0.51992 0.74783 0.0
C1866 C 0.28906 0.63861 0.81221 0.0
C1867 C 0.28476 0.64991 0.78872 0.0
C1868 C 0.31275 0.62008 0.76758 0.0
C1869 C 0.32019 0.6119 0.79179 0.0
N1870 N 0.3208 0.62083 0.83766 0.0
N1871 N 0.29826 0.65546 0.74507 0.0
C1872 C 0.30998 0.62338 0.81431 0.0
C1873 C 0.29835 0.64193 0.76666 0.0
N1874 N 0.27275 0.64151 0.83231 0.0
N1875 N 0.31788 0.60642 0.7455 0.0
H1876 H 0.28897 0.67227 0.74397 0.0
H1877 H 0.30977 0.6515 0.72935 0.0
H1878 H 0.32624 0.58901 0.74508 0.0
H1879 H 0.31081 0.61077 0.72778 0.0
H1880 H 0.27431 0.63186 0.8491 0.0
H1881 H 0.25602 0.65092 0.83107 0.0
H1882 H 0.31483 0.63054 0.85422 0.0
H1883 H 0.33775 0.61202 0.83996 0.0
C1884 C 0.83658 0.4556 0.47955 0.0
C1885 C 0.85569 0.45973 0.49883 0.0
C1886 C 0.8255 0.44216 0.5304 0.0
C1887 C 0.80701 0.43624 0.51072 0.0
N1888 N 0.7971 0.43156 0.46558 0.0
N1889 N 0.8704 0.45206 0.54115 0.0
C1890 C 0.81314 0.4413 0.48497 0.0
C1891 C 0.85078 0.45145 0.52384 0.0
N1892 N 0.84037 0.46615 0.45638 0.0
N1893 N 0.81865 0.44013 0.55544 0.0
H1894 H 0.88925 0.45855 0.53688 0.0
H1895 H 0.86849 0.44389 0.55883 0.0
H1896 H 0.80012 0.43405 0.56113 0.0
H1897 H 0.83065 0.44679 0.57065 0.0
H1898 H 0.82592 0.4662 0.4427 0.0
H1899 H 0.8573 0.47676 0.45159 0.0
H1900 H 0.80193 0.43243 0.44634 0.0
H1901 H 0.78009 0.42029 0.46864 0.0
C1902 C 0.69471 0.92455 0.76591 0.0
C1903 C 0.69651 0.9071 0.78548 0.0
C1904 C 0.66509 0.92979 0.81034 0.0
C1905 C 0.66964 0.95098 0.79457 0.0
N1906 N 0.68795 0.96804 0.75589 0.0
N1907 N 0.6665 0.88379 0.81221 0.0
C1908 C 0.68382 0.94811 0.77164 0.0
C1909 C 0.67677 0.90674 0.80398 0.0
N1910 N 0.69985 0.91705 0.74127 0.0
N1911 N 0.64972 0.93154 0.83131 0.0
H1912 H 0.67214 0.86636 0.80431 0.0
H1913 H 0.65044 0.88198 0.82393 0.0
H1914 H 0.63945 0.94746 0.83574 0.0
H1915 H 0.64821 0.91758 0.84486 0.0
H1916 H 0.69661 0.92818 0.72584 0.0
H1917 H 0.704 0.89822 0.7363 0.0
H1918 H 0.70034 0.96735 0.74032 0.0
H1919 H 0.68065 0.98585 0.75945 0.0
C1920 C 0.69408 0.5649 0.96018 0.0
C1921 C 0.67899 0.55664 0.98115 0.0
C1922 C 0.70814 0.5825 0.01059 0.0
C1923 C 0.72071 0.59384 0.98949 0.0
N1924 N 0.72313 0.5986 0.94387 0.0
N1925 N 0.66895 0.56113 0.02613 0.0
C1926 C 0.71318 0.58568 0.96412 0.0
C1927 C 0.68531 0.56631 0.00636 0.0
N1928 N 0.69044 0.55263 0.93662 0.0
N1929 N 0.71841 0.58659 0.0346 0.0
H1930 H 0.65155 0.54995 0.02387 0.0
H1931 H 0.67146 0.57001 0.04434 0.0
H1932 H 0.73569 0.59763 0.03836 0.0
H1933 H 0.71128 0.57678 0.05024 0.0
H1934 H 0.70257 0.55621 0.92122 0.0
H1935 H 0.67678 0.5371 0.93314 0.0
H1936 H 0.71623 0.59511 0.92526 0.0
H1937 H 0.73662 0.61444 0.94587 0.0
C1938 C 0.17801 0.61029 0.25873 0.0
C1939 C 0.19574 0.60747 0.23851 0.0
C1940 C 0.18435 0.56093 0.2351 0.0
C1941 C 0.16823 0.56354 0.25667 0.0
N1942 N 0.15188 0.58966 0.29126 0.0
N1943 N 0.21801 0.5805 0.2088 0.0
C1944 C 0.16552 0.58797 0.26904 0.0
C1945 C 0.19953 0.58287 0.22703 0.0
N1946 N 0.17298 0.63435 0.2679 0.0
N1947 N 0.18445 0.53766 0.22185 0.0
H1948 H 0.22867 0.59628 0.2016 0.0
H1949 H 0.22388 0.56291 0.20184 0.0
H1950 H 0.17376 0.52112 0.22739 0.0
H1951 H 0.19357 0.53504 0.20438 0.0
H1952 H 0.1582 0.63784 0.28057 0.0
H1953 H 0.1824 0.65117 0.26143 0.0
H1954 H 0.15148 0.60647 0.30277 0.0
H1955 H 0.14246 0.5737 0.29941 0.0
C1956 C 0.85072 0.57193 0.05572 0.0
C1957 C 0.87684 0.57371 0.04834 0.0
C1958 C 0.87038 0.61187 0.02459 0.0
C1959 C 0.84366 0.60789 0.02901 0.0
N1960 N 0.80765 0.5828 0.04674 0.0
N1961 N 0.91191 0.59438 0.02519 0.0
C1962 C 0.83361 0.58781 0.04437 0.0
C1963 C 0.88685 0.59357 0.03277 0.0
N1964 N 0.84231 0.555 0.07354 0.0
N1965 N 0.87996 0.63346 0.013 0.0
H1966 H 0.92477 0.58191 0.03164 0.0
H1967 H 0.91964 0.60641 0.01143 0.0
H1968 H 0.8683 0.6473 0.00704 0.0
H1969 H 0.89946 0.63886 0.01128 0.0
H1970 H 0.8242 0.55472 0.08181 0.0
H1971 H 0.85419 0.54257 0.08171 0.0
H1972 H 0.79912 0.56653 0.055 0.0
H1973 H 0.79432 0.59385 0.03877 0.0
C1974 C 0.16146 0.00785 0.07234 0.0
C1975 C 0.13666 0.00665 0.06122 0.0
C1976 C 0.1415 0.96289 0.04374 0.0
C1977 C 0.16752 0.96562 0.0516 0.0
N1978 N 0.2031 0.99061 0.07255 0.0
N1979 N 0.10269 0.98371 0.036 0.0
C1980 C 0.17766 0.98791 0.06607 0.0
C1981 C 0.12643 0.98422 0.04705 0.0
N1982 N 0.16941 0.02805 0.08891 0.0
N1983 N 0.13122 0.9397 0.03343 0.0
H1984 H 0.09071 0.99859 0.03878 0.0
H1985 H 0.09535 0.96926 0.02294 0.0
H1986 H 0.14187 0.92373 0.031 0.0
H1987 H 0.11179 0.93553 0.0294 0.0
H1988 H 0.1862 0.02887 0.09968 0.0
H1989 H 0.15815 0.04321 0.09345 0.0
H1990 H 0.21245 0.00763 0.0803 0.0
H1991 H 0.2154 0.97616 0.06884 0.0
loop_
_geom_bond_atom_site_label_1
_geom_bond_atom_site_label_2
_geom_bond_distance
_geom_bond_site_symmetry_2
_ccdc_geom_bond_type
C0 C1 1.391 . S
C0 C4 1.391 . S
C0 H42 0.948 . S
C1 C0 1.391 . S
C1 C2 1.391 . S
C2 C1 1.391 . S
C2 H58 0.947 . S
C2 C59 1.392 . S
C3 C4 1.391 . S
C3 C7 1.397 . S
C3 C59 1.419 . S
C4 C0 1.391 . S
C4 C3 1.391 . S
C4 C5 1.399 . S
C5 C4 1.399 . S
C5 C8 1.396 . S
C5 C17 1.453 . S
C5 C18 1.684 . S
H6 C30 0.948 . S
C7 C3 1.397 . S
C7 C8 1.394 . S
C7 C26 1.723 . S
C8 C5 1.396 . S
C8 C7 1.394 . S
C8 C38 1.723 . S
H9 C32 0.947 . S
H10 C33 0.948 . S
H11 C39 0.982 . S
H12 C40 0.979 . S
H13 C40 0.980 . S
H14 C40 0.983 . S
H15 C39 0.979 . S
H16 C39 0.977 . S
C17 C5 1.453 . S
C17 H46 0.982 . S
C17 H47 0.979 . S
C17 H48 0.977 . S
C18 C5 1.684 . S
C18 H43 0.979 . S
C18 H44 0.980 . S
C18 H45 0.983 . S
C19 C20 1.391 . S
C19 C24 1.391 . S
C19 H49 0.948 . S
C20 C19 1.391 . S
C20 C21 1.391 . S
C21 C20 1.391 . S
C21 C22 1.392 . S
C21 H50 0.947 . S
C22 C21 1.392 . S
C22 C23 1.419 . S
C22 H51 0.948 . S
C23 C22 1.419 . S
C23 C24 1.391 . S
C23 C27 1.397 . S
C24 C19 1.391 . S
C24 C23 1.391 . S
C24 C25 1.399 . S
C25 C24 1.399 . S
C25 C26 1.396 . S
C25 C28 1.453 . S
C25 C29 1.684 . S
C26 C7 1.723 . S
C26 C25 1.396 . S
C26 C27 1.394 . S
C27 C23 1.397 . S
C27 C26 1.394 . S
C27 C37 1.723 . S
C28 C25 1.453 . S
C28 H52 0.982 . S
C28 H53 0.979 . S
C28 H54 0.977 . S
C29 C25 1.684 . S
C29 H55 0.979 . S
C29 H56 0.980 . S
C29 H57 0.983 . S
C30 H6 0.948 . S
C30 C31 1.391 . S
C30 C35 1.391 . S
C31 C30 1.391 . S
C31 C32 1.391 . S
C32 H9 0.947 . S
C32 C31 1.391 . S
C32 C33 1.392 . S
C33 H10 0.948 . S
C33 C32 1.392 . S
C33 C34 1.419 . S
C34 C33 1.419 . S
C34 C35 1.391 . S
C34 C38 1.397 . S
C35 C30 1.391 . S
C35 C34 1.391 . S
C35 C36 1.399 . S
C36 C35 1.399 . S
C36 C37 1.396 . S
C36 C39 1.453 . S
C36 C40 1.684 . S
C37 C27 1.723 . S
C37 C36 1.396 . S
C37 C38 1.394 . S
C38 C8 1.723 . S
C38 C34 1.397 . S
C38 C37 1.394 . S
C39 H11 0.982 . S
C39 H15 0.979 . S
C39 H16 0.977 . S
C39 C36 1.453 . S
C40 H12 0.979 . S
C40 H13 0.980 . S
C40 H14 0.983 . S
C40 C36 1.684 . S
H41 C59 0.948 . S
H42 C0 0.948 . S
H43 C18 0.979 . S
H44 C18 0.980 . S
H45 C18 0.983 . S
H46 C17 0.982 . S
H47 C17 0.979 . S
H48 C17 0.977 . S
H49 C19 0.948 . S
H50 C21 0.947 . S
H51 C22 0.948 . S
H52 C28 0.982 . S
H53 C28 0.979 . S
H54 C28 0.977 . S
H55 C29 0.979 . S
H56 C29 0.980 . S
H57 C29 0.983 . S
H58 C2 0.947 . S
C59 C2 1.392 . S
C59 C3 1.419 . S
C59 H41 0.948 . S
C60 C61 1.391 . S
C60 C64 1.391 . S
C60 H102 0.948 . S
C61 C60 1.391 . S
C61 C62 1.391 . S
C62 C61 1.391 . S
C62 H118 0.947 . S
C62 C119 1.392 . S
C63 C64 1.391 . S
C63 C67 1.397 . S
C63 C119 1.419 . S
C64 C60 1.391 . S
C64 C63 1.391 . S
C64 C65 1.399 . S
C65 C64 1.399 . S
C65 C68 1.396 . S
C65 C77 1.453 . S
C65 C78 1.684 . S
H66 C90 0.948 . S
C67 C63 1.397 . S
C67 C68 1.394 . S
C67 C86 1.723 . S
C68 C65 1.396 . S
C68 C67 1.394 . S
C68 C98 1.723 . S
H69 C92 0.947 . S
H70 C93 0.948 . S
H71 C99 0.982 . S
H72 C100 0.979 . S
H73 C100 0.980 . S
H74 C100 0.983 . S
H75 C99 0.979 . S
H76 C99 0.977 . S
C77 C65 1.453 . S
C77 H106 0.982 . S
C77 H107 0.979 . S
C77 H108 0.977 . S
C78 C65 1.684 . S
C78 H103 0.979 . S
C78 H104 0.980 . S
C78 H105 0.983 . S
C79 C80 1.391 . S
C79 C84 1.391 . S
C79 H109 0.948 . S
C80 C79 1.391 . S
C80 C81 1.391 . S
C81 C80 1.391 . S
C81 C82 1.392 . S
C81 H110 0.947 . S
C82 C81 1.392 . S
C82 C83 1.419 . S
C82 H111 0.948 . S
C83 C82 1.419 . S
C83 C84 1.391 . S
C83 C87 1.397 . S
C84 C79 1.391 . S
C84 C83 1.391 . S
C84 C85 1.399 . S
C85 C84 1.399 . S
C85 C86 1.396 . S
C85 C88 1.453 . S
C85 C89 1.684 . S
C86 C67 1.723 . S
C86 C85 1.396 . S
C86 C87 1.394 . S
C87 C83 1.397 . S
C87 C86 1.394 . S
C87 C97 1.723 . S
C88 C85 1.453 . S
C88 H112 0.982 . S
C88 H113 0.979 . S
C88 H114 0.977 . S
C89 C85 1.684 . S
C89 H115 0.979 . S
C89 H116 0.980 . S
C89 H117 0.983 . S
C90 H66 0.948 . S
C90 C91 1.391 . S
C90 C95 1.391 . S
C91 C90 1.391 . S
C91 C92 1.391 . S
C92 H69 0.947 . S
C92 C91 1.391 . S
C92 C93 1.392 . S
C93 H70 0.948 . S
C93 C92 1.392 . S
C93 C94 1.419 . S
C94 C93 1.419 . S
C94 C95 1.391 . S
C94 C98 1.397 . S
C95 C90 1.391 . S
C95 C94 1.391 . S
C95 C96 1.399 . S
C96 C95 1.399 . S
C96 C97 1.396 . S
C96 C99 1.453 . S
C96 C100 1.684 . S
C97 C87 1.723 . S
C97 C96 1.396 . S
C97 C98 1.394 . S
C98 C68 1.723 . S
C98 C94 1.397 . S
C98 C97 1.394 . S
C99 H71 0.982 . S
C99 H75 0.979 . S
C99 H76 0.977 . S
C99 C96 1.453 . S
C100 H72 0.979 . S
C100 H73 0.980 . S
C100 H74 0.983 . S
C100 C96 1.684 . S
H101 C119 0.948 . S
H102 C60 0.948 . S
H103 C78 0.979 . S
H104 C78 0.980 . S
H105 C78 0.983 . S
H106 C77 0.982 . S
H107 C77 0.979 . S
H108 C77 0.977 . S
H109 C79 0.948 . S
H110 C81 0.947 . S
H111 C82 0.948 . S
H112 C88 0.982 . S
H113 C88 0.979 . S
H114 C88 0.977 . S
H115 C89 0.979 . S
H116 C89 0.980 . S
H117 C89 0.983 . S
H118 C62 0.947 . S
C119 C62 1.392 . S
C119 C63 1.419 . S
C119 H101 0.948 . S
C120 C121 1.391 . S
C120 C124 1.391 . S
C120 H162 0.948 . S
C121 C120 1.391 . S
C121 C122 1.391 . S
C122 C121 1.391 . S
C122 H178 0.947 1_554 S
C122 C179 1.392 . S
C123 C124 1.391 . S
C123 C127 1.397 . S
C123 C179 1.419 . S
C124 C120 1.391 . S
C124 C123 1.391 . S
C124 C125 1.399 . S
C125 C124 1.399 . S
C125 C128 1.396 . S
C125 C137 1.453 . S
C125 C138 1.684 . S
H126 C150 0.948 . S
C127 C123 1.397 . S
C127 C128 1.394 . S
C127 C146 1.723 . S
C128 C125 1.396 . S
C128 C127 1.394 . S
C128 C158 1.723 . S
H129 C152 0.947 . S
H130 C153 0.948 . S
H131 C159 0.982 . S
H132 C160 0.979 . S
H133 C160 0.980 . S
H134 C160 0.983 . S
H135 C159 0.979 . S
H136 C159 0.977 . S
C137 C125 1.453 . S
C137 H166 0.982 . S
C137 H167 0.979 . S
C137 H168 0.977 . S
C138 C125 1.684 . S
C138 H163 0.979 . S
C138 H164 0.980 . S
C138 H165 0.983 . S
C139 C140 1.391 . S
C139 C144 1.391 . S
C139 H169 0.948 . S
C140 C139 1.391 . S
C140 C141 1.391 . S
C141 C140 1.391 . S
C141 C142 1.392 . S
C141 H170 0.947 . S
C142 C141 1.392 . S
C142 C143 1.419 . S
C142 H171 0.948 . S
C143 C142 1.419 . S
C143 C144 1.391 . S
C143 C147 1.397 . S
C144 C139 1.391 . S
C144 C143 1.391 . S
C144 C145 1.399 . S
C145 C144 1.399 . S
C145 C146 1.396 . S
C145 C148 1.453 . S
C145 C149 1.684 . S
C146 C127 1.723 . S
C146 C145 1.396 . S
C146 C147 1.394 . S
C147 C143 1.397 . S
C147 C146 1.394 . S
C147 C157 1.723 . S
C148 C145 1.453 . S
C148 H172 0.982 . S
C148 H173 0.979 . S
C148 H174 0.977 . S
C149 C145 1.684 . S
C149 H175 0.979 . S
C149 H176 0.980 . S
C149 H177 0.983 . S
C150 H126 0.948 . S
C150 C151 1.391 . S
C150 C155 1.391 . S
C151 C150 1.391 . S
C151 C152 1.391 . S
C152 H129 0.947 . S
C152 C151 1.391 . S
C152 C153 1.392 . S
C153 H130 0.948 . S
C153 C152 1.392 . S
C153 C154 1.419 . S
C154 C153 1.419 . S
C154 C155 1.391 . S
C154 C158 1.397 . S
C155 C150 1.391 . S
C155 C154 1.391 . S
C155 C156 1.399 . S
C156 C155 1.399 . S
C156 C157 1.396 . S
C156 C159 1.453 . S
C156 C160 1.684 . S
C157 C147 1.723 . S
C157 C156 1.396 . S
C157 C158 1.394 . S
C158 C128 1.723 . S
C158 C154 1.397 . S
C158 C157 1.394 . S
C159 H131 0.982 . S
C159 H135 0.979 . S
C159 H136 0.977 . S
C159 C156 1.453 . S
C160 H132 0.979 . S
C160 H133 0.980 . S
C160 H134 0.983 . S
C160 C156 1.684 . S
H161 C179 0.948 . S
H162 C120 0.948 . S
H163 C138 0.979 . S
H164 C138 0.980 . S
H165 C138 0.983 . S
H166 C137 0.982 . S
H167 C137 0.979 . S
H168 C137 0.977 . S
H169 C139 0.948 . S
H170 C141 0.947 . S
H171 C142 0.948 . S
H172 C148 0.982 . S
H173 C148 0.979 . S
H174 C148 0.977 . S
H175 C149 0.979 . S
H176 C149 0.980 . S
H177 C149 0.983 . S
H178 C122 0.947 1_556 S
C179 C122 1.392 . S
C179 C123 1.419 . S
C179 H161 0.948 . S
C180 C181 1.391 . S
C180 C184 1.391 . S
C180 H222 0.948 . S
C181 C180 1.391 . S
C181 C182 1.391 . S
C182 C181 1.391 . S
C182 H238 0.947 . S
C182 C239 1.392 . S
C183 C184 1.391 . S
C183 C187 1.397 . S
C183 C239 1.419 . S
C184 C180 1.391 . S
C184 C183 1.391 . S
C184 C185 1.399 . S
C185 C184 1.399 . S
C185 C188 1.396 . S
C185 C197 1.453 . S
C185 C198 1.684 . S
H186 C210 0.948 . S
C187 C183 1.397 . S
C187 C188 1.394 . S
C187 C206 1.723 . S
C188 C185 1.396 . S
C188 C187 1.394 . S
C188 C218 1.723 . S
H189 C212 0.947 . S
H190 C213 0.948 . S
H191 C219 0.982 . S
H192 C220 0.979 . S
H193 C220 0.980 . S
H194 C220 0.983 . S
H195 C219 0.979 . S
H196 C219 0.977 . S
C197 C185 1.453 . S
C197 H226 0.982 . S
C197 H227 0.979 . S
C197 H228 0.977 . S
C198 C185 1.684 . S
C198 H223 0.979 . S
C198 H224 0.980 . S
C198 H225 0.983 . S
C199 C200 1.391 . S
C199 C204 1.391 . S
C199 H229 0.948 . S
C200 C199 1.391 . S
C200 C201 1.391 . S
C201 C200 1.391 . S
C201 C202 1.392 . S
C201 H230 0.947 . S
C202 C201 1.392 . S
C202 C203 1.419 . S
C202 H231 0.948 . S
C203 C202 1.419 . S
C203 C204 1.391 . S
C203 C207 1.397 . S
C204 C199 1.391 . S
C204 C203 1.391 . S
C204 C205 1.399 . S
C205 C204 1.399 . S
C205 C206 1.396 . S
C205 C208 1.453 . S
C205 C209 1.684 . S
C206 C187 1.723 . S
C206 C205 1.396 . S
C206 C207 1.394 . S
C207 C203 1.397 . S
C207 C206 1.394 . S
C207 C217 1.723 . S
C208 C205 1.453 . S
C208 H232 0.982 . S
C208 H233 0.979 . S
C208 H234 0.977 . S
C209 C205 1.684 . S
C209 H235 0.979 . S
C209 H236 0.980 . S
C209 H237 0.983 . S
C210 H186 0.948 . S
C210 C211 1.391 . S
C210 C215 1.391 . S
C211 C210 1.391 . S
C211 C212 1.391 . S
C212 H189 0.947 . S
C212 C211 1.391 . S
C212 C213 1.392 . S
C213 H190 0.948 . S
C213 C212 1.392 . S
C213 C214 1.419 . S
C214 C213 1.419 . S
C214 C215 1.391 . S
C214 C218 1.397 . S
C215 C210 1.391 . S
C215 C214 1.391 . S
C215 C216 1.399 . S
C216 C215 1.399 . S
C216 C217 1.396 . S
C216 C219 1.453 . S
C216 C220 1.684 . S
C217 C207 1.723 . S
C217 C216 1.396 . S
C217 C218 1.394 . S
C218 C188 1.723 . S
C218 C214 1.397 . S
C218 C217 1.394 . S
C219 H191 0.982 . S
C219 H195 0.979 . S
C219 H196 0.977 . S
C219 C216 1.453 . S
C220 H192 0.979 . S
C220 H193 0.980 . S
C220 H194 0.983 . S
C220 C216 1.684 . S
H221 C239 0.948 . S
H222 C180 0.948 . S
H223 C198 0.979 . S
H224 C198 0.980 . S
H225 C198 0.983 . S
H226 C197 0.982 . S
H227 C197 0.979 . S
H228 C197 0.977 . S
H229 C199 0.948 . S
H230 C201 0.947 . S
H231 C202 0.948 . S
H232 C208 0.982 . S
H233 C208 0.979 . S
H234 C208 0.977 . S
H235 C209 0.979 . S
H236 C209 0.980 . S
H237 C209 0.983 . S
H238 C182 0.947 . S
C239 C182 1.392 . S
C239 C183 1.419 . S
C239 H221 0.948 . S
C240 C241 1.391 . S
C240 C244 1.391 . S
C240 H282 0.948 . S
C241 C240 1.391 . S
C241 C242 1.391 . S
C242 C241 1.391 . S
C242 H298 0.947 . S
C242 C299 1.392 . S
C243 C244 1.391 . S
C243 C247 1.397 . S
C243 C299 1.419 . S
C244 C240 1.391 . S
C244 C243 1.391 . S
C244 C245 1.399 . S
C245 C244 1.399 . S
C245 C248 1.396 . S
C245 C257 1.453 . S
C245 C258 1.684 . S
H246 C270 0.948 . S
C247 C243 1.397 . S
C247 C248 1.394 . S
C247 C266 1.723 . S
C248 C245 1.396 . S
C248 C247 1.394 . S
C248 C278 1.723 . S
H249 C272 0.947 . S
H250 C273 0.948 . S
H251 C279 0.982 . S
H252 C280 0.979 1_565 S
H253 C280 0.980 . S
H254 C280 0.983 . S
H255 C279 0.979 . S
H256 C279 0.977 . S
C257 C245 1.453 . S
C257 H286 0.982 . S
C257 H287 0.979 . S
C257 H288 0.977 . S
C258 C245 1.684 . S
C258 H283 0.979 . S
C258 H284 0.980 . S
C258 H285 0.983 . S
C259 C260 1.391 . S
C259 C264 1.391 . S
C259 H289 0.948 1_455 S
C260 C259 1.391 . S
C260 C261 1.391 . S
C261 C260 1.391 . S
C261 C262 1.392 . S
C261 H290 0.947 1_565 S
C262 C261 1.392 . S
C262 C263 1.419 . S
C262 H291 0.938 1_565 S
C263 C262 1.419 . S
C263 C264 1.391 . S
C263 C267 1.397 . S
C264 C259 1.391 . S
C264 C263 1.391 . S
C264 C265 1.399 . S
C265 C264 1.399 . S
C265 C266 1.396 . S
C265 C268 1.453 . S
C265 C269 1.684 . S
C266 C247 1.723 . S
C266 C265 1.396 . S
C266 C267 1.394 . S
C267 C263 1.397 . S
C267 C266 1.394 . S
C267 C277 1.723 . S
C268 C265 1.453 . S
C268 H292 0.982 . S
C268 H293 0.979 1_455 S
C268 H294 0.977 . S
C269 C265 1.684 . S
C269 H295 0.979 . S
C269 H296 0.980 . S
C269 H297 0.983 . S
C270 H246 0.948 . S
C270 C271 1.391 . S
C270 C275 1.390 1_545 S
C271 C270 1.391 . S
C271 C272 1.391 1_545 S
C272 H249 0.947 . S
C272 C271 1.391 1_565 S
C272 C273 1.392 . S
C273 H250 0.948 . S
C273 C272 1.392 . S
C273 C274 1.419 . S
C274 C273 1.419 . S
C274 C275 1.393 . S
C274 C278 1.397 . S
C275 C270 1.390 1_565 S
C275 C274 1.393 . S
C275 C276 1.402 . S
C276 C275 1.402 . S
C276 C277 1.420 . S
C276 C279 1.421 1_565 S
C276 C280 1.677 1_565 S
C277 C267 1.723 . S
C277 C276 1.420 . S
C277 C278 1.394 . S
C278 C248 1.723 . S
C278 C274 1.397 . S
C278 C277 1.394 . S
C279 H251 0.982 . S
C279 H255 0.979 . S
C279 H256 0.977 . S
C279 C276 1.421 1_545 S
C280 H252 0.979 1_545 S
C280 H253 0.980 . S
C280 H254 0.983 . S
C280 C276 1.677 1_545 S
H281 C299 0.948 . S
H282 C240 0.948 . S
H283 C258 0.979 . S
H284 C258 0.980 . S
H285 C258 0.983 . S
H286 C257 0.982 . S
H287 C257 0.979 . S
H288 C257 0.977 . S
H289 C259 0.948 1_655 S
H290 C261 0.947 1_545 S
H291 C262 0.938 1_545 S
H292 C268 0.982 . S
H293 C268 0.979 1_655 S
H294 C268 0.977 . S
H295 C269 0.979 . S
H296 C269 0.980 . S
H297 C269 0.983 . S
H298 C242 0.947 . S
C299 C242 1.392 . S
C299 C243 1.419 . S
C299 H281 0.948 . S
C300 C301 1.391 . S
C300 C304 1.391 . S
C300 H342 0.948 . S
C301 C300 1.391 . S
C301 C302 1.391 . S
C302 C301 1.391 . S
C302 H358 0.947 . S
C302 C359 1.392 . S
C303 C304 1.391 . S
C303 C307 1.397 . S
C303 C359 1.419 . S
C304 C300 1.391 . S
C304 C303 1.391 . S
C304 C305 1.399 . S
C305 C304 1.399 . S
C305 C308 1.396 . S
C305 C317 1.453 . S
C305 C318 1.684 . S
H306 C330 0.948 . S
C307 C303 1.397 . S
C307 C308 1.394 . S
C307 C326 1.723 . S
C308 C305 1.396 . S
C308 C307 1.394 . S
C308 C338 1.723 . S
H309 C332 0.947 . S
H310 C333 0.948 . S
H311 C339 0.982 . S
H312 C340 0.979 . S
H313 C340 0.980 . S
H314 C340 0.983 . S
H315 C339 0.979 . S
H316 C339 0.977 . S
C317 C305 1.453 . S
C317 H346 0.982 . S
C317 H347 0.979 . S
C317 H348 0.977 . S
C318 C305 1.684 . S
C318 H343 0.979 . S
C318 H344 0.980 . S
C318 H345 0.983 . S
C319 C320 1.391 . S
C319 C324 1.391 . S
C319 H349 0.948 . S
C320 C319 1.391 . S
C320 C321 1.391 . S
C321 C320 1.391 . S
C321 C322 1.392 . S
C321 H350 0.947 . S
C322 C321 1.392 . S
C322 C323 1.419 . S
C322 H351 0.948 . S
C323 C322 1.419 . S
C323 C324 1.391 . S
C323 C327 1.397 . S
C324 C319 1.391 . S
C324 C323 1.391 . S
C324 C325 1.399 . S
C325 C324 1.399 . S
C325 C326 1.396 . S
C325 C328 1.453 . S
C325 C329 1.684 . S
C326 C307 1.723 . S
C326 C325 1.396 . S
C326 C327 1.394 . S
C327 C323 1.397 . S
C327 C326 1.394 . S
C327 C337 1.723 . S
C328 C325 1.453 . S
C328 H352 0.982 . S
C328 H353 0.979 . S
C328 H354 0.977 . S
C329 C325 1.684 . S
C329 H355 0.979 . S
C329 H356 0.980 . S
C329 H357 0.983 . S
C330 H306 0.948 . S
C330 C331 1.391 . S
C330 C335 1.391 . S
C331 C330 1.391 . S
C331 C332 1.391 . S
C332 H309 0.947 . S
C332 C331 1.391 . S
C332 C333 1.392 . S
C333 H310 0.948 . S
C333 C332 1.392 . S
C333 C334 1.419 . S
C334 C333 1.419 . S
C334 C335 1.391 . S
C334 C338 1.397 . S
C335 C330 1.391 . S
C335 C334 1.391 . S
C335 C336 1.399 . S
C336 C335 1.399 . S
C336 C337 1.396 . S
C336 C339 1.453 . S
C336 C340 1.684 . S
C337 C327 1.723 . S
C337 C336 1.396 . S
C337 C338 1.394 . S
C338 C308 1.723 . S
C338 C334 1.397 . S
C338 C337 1.394 . S
C339 H311 0.982 . S
C339 H315 0.979 . S
C339 H316 0.977 . S
C339 C336 1.453 . S
C340 H312 0.979 . S
C340 H313 0.980 . S
C340 H314 0.983 . S
C340 C336 1.684 . S
H341 C359 0.948 . S
H342 C300 0.948 . S
H343 C318 0.979 . S
H344 C318 0.980 . S
H345 C318 0.983 . S
H346 C317 0.982 . S
H347 C317 0.979 . S
H348 C317 0.977 . S
H349 C319 0.948 . S
H350 C321 0.947 . S
H351 C322 0.948 . S
H352 C328 0.982 . S
H353 C328 0.979 . S
H354 C328 0.977 . S
H355 C329 0.979 . S
H356 C329 0.980 . S
H357 C329 0.983 . S
H358 C302 0.947 . S
C359 C302 1.392 . S
C359 C303 1.419 . S
C359 H341 0.948 . S
C360 C361 1.391 . S
C360 C364 1.391 . S
C360 H402 0.948 . S
C361 C360 1.391 . S
C361 C362 1.391 . S
C362 C361 1.391 . S
C362 H418 0.947 . S
C362 C419 1.392 . S
C363 C364 1.391 . S
C363 C367 1.397 . S
C363 C419 1.419 . S
C364 C360 1.391 . S
C364 C363 1.391 . S
C364 C365 1.399 . S
C365 C364 1.399 . S
C365 C368 1.396 . S
C365 C377 1.453 . S
C365 C378 1.684 . S
H366 C390 0.948 . S
C367 C363 1.397 . S
C367 C368 1.394 . S
C367 C386 1.723 . S
C368 C365 1.396 . S
C368 C367 1.394 . S
C368 C398 1.723 . S
H369 C392 0.947 . S
H370 C393 0.948 . S
H371 C399 0.982 . S
H372 C400 0.979 1_455 S
H373 C400 0.976 1_455 S
H374 C400 0.983 1_455 S
H375 C399 0.979 . S
H376 C399 0.977 . S
C377 C365 1.453 . S
C377 H406 0.982 . S
C377 H407 0.979 . S
C377 H408 0.977 . S
C378 C365 1.684 . S
C378 H403 0.979 . S
C378 H404 0.980 . S
C378 H405 0.983 . S
C379 C380 1.391 . S
C379 C384 1.391 . S
C379 H409 0.948 . S
C380 C379 1.391 . S
C380 C381 1.391 . S
C381 C380 1.391 . S
C381 C382 1.392 . S
C381 H410 0.947 1_655 S
C382 C381 1.392 . S
C382 C383 1.419 . S
C382 H411 0.948 . S
C383 C382 1.419 . S
C383 C384 1.391 . S
C383 C387 1.397 . S
C384 C379 1.391 . S
C384 C383 1.391 . S
C384 C385 1.399 . S
C385 C384 1.399 . S
C385 C386 1.396 . S
C385 C388 1.453 . S
C385 C389 1.684 . S
C386 C367 1.723 . S
C386 C385 1.396 . S
C386 C387 1.394 . S
C387 C383 1.397 . S
C387 C386 1.394 . S
C387 C397 1.723 . S
C388 C385 1.453 . S
C388 H412 0.982 . S
C388 H413 0.979 . S
C388 H414 0.977 . S
C389 C385 1.684 . S
C389 H415 0.979 . S
C389 H416 0.980 . S
C389 H417 0.983 . S
C390 H366 0.948 . S
C390 C391 1.391 . S
C390 C395 1.391 . S
C391 C390 1.391 . S
C391 C392 1.391 . S
C392 H369 0.947 . S
C392 C391 1.391 . S
C392 C393 1.392 . S
C393 H370 0.948 . S
C393 C392 1.392 . S
C393 C394 1.419 . S
C394 C393 1.419 . S
C394 C395 1.391 . S
C394 C398 1.397 . S
C395 C390 1.391 . S
C395 C394 1.391 . S
C395 C396 1.399 . S
C396 C395 1.399 . S
C396 C397 1.396 . S
C396 C399 1.453 . S
C396 C400 1.684 . S
C397 C387 1.723 . S
C397 C396 1.396 . S
C397 C398 1.394 . S
C398 C368 1.723 . S
C398 C394 1.397 . S
C398 C397 1.394 . S
C399 H371 0.982 . S
C399 H375 0.979 . S
C399 H376 0.977 . S
C399 C396 1.453 . S
C400 H372 0.979 1_655 S
C400 H373 0.976 1_655 S
C400 H374 0.983 1_655 S
C400 C396 1.684 . S
H401 C419 0.948 . S
H402 C360 0.948 . S
H403 C378 0.979 . S
H404 C378 0.980 . S
H405 C378 0.983 . S
H406 C377 0.982 . S
H407 C377 0.979 . S
H408 C377 0.977 . S
H409 C379 0.948 . S
H410 C381 0.947 1_455 S
H411 C382 0.948 . S
H412 C388 0.982 . S
H413 C388 0.979 . S
H414 C388 0.977 . S
H415 C389 0.979 . S
H416 C389 0.980 . S
H417 C389 0.983 . S
H418 C362 0.947 . S
C419 C362 1.392 . S
C419 C363 1.419 . S
C419 H401 0.948 . S
C420 C421 1.391 . S
C420 C424 1.391 . S
C420 H462 0.948 . S
C421 C420 1.391 . S
C421 C422 1.391 . S
C422 C421 1.391 . S
C422 H478 0.947 . S
C422 C479 1.392 . S
C423 C424 1.391 . S
C423 C427 1.397 . S
C423 C479 1.419 . S
C424 C420 1.391 . S
C424 C423 1.391 . S
C424 C425 1.399 . S
C425 C424 1.399 . S
C425 C428 1.396 . S
C425 C437 1.453 . S
C425 C438 1.684 . S
H426 C450 0.948 . S
C427 C423 1.397 . S
C427 C428 1.394 . S
C427 C446 1.723 . S
C428 C425 1.396 . S
C428 C427 1.394 . S
C428 C458 1.723 . S
H429 C452 0.947 . S
H430 C453 0.948 . S
H431 C459 0.982 . S
H432 C460 0.979 . S
H433 C460 0.980 . S
H434 C460 0.983 . S
H435 C459 0.979 . S
H436 C459 0.977 . S
C437 C425 1.453 . S
C437 H466 0.982 . S
C437 H467 0.979 . S
C437 H468 0.977 . S
C438 C425 1.684 . S
C438 H463 0.979 . S
C438 H464 0.980 . S
C438 H465 0.983 . S
C439 C440 1.391 . S
C439 C444 1.391 . S
C439 H469 0.948 . S
C440 C439 1.391 . S
C440 C441 1.391 . S
C441 C440 1.391 . S
C441 C442 1.392 . S
C441 H470 0.947 . S
C442 C441 1.392 . S
C442 C443 1.419 . S
C442 H471 0.948 . S
C443 C442 1.419 . S
C443 C444 1.391 . S
C443 C447 1.397 . S
C444 C439 1.391 . S
C444 C443 1.391 . S
C444 C445 1.399 . S
C445 C444 1.399 . S
C445 C446 1.396 . S
C445 C448 1.453 . S
C445 C449 1.684 . S
C446 C427 1.723 . S
C446 C445 1.396 . S
C446 C447 1.394 . S
C447 C443 1.397 . S
C447 C446 1.394 . S
C447 C457 1.723 . S
C448 C445 1.453 . S
C448 H472 0.982 . S
C448 H473 0.979 . S
C448 H474 0.977 . S
C449 C445 1.684 . S
C449 H475 0.979 . S
C449 H476 0.980 . S
C449 H477 0.983 . S
C450 H426 0.948 . S
C450 C451 1.391 . S
C450 C455 1.391 . S
C451 C450 1.391 . S
C451 C452 1.391 . S
C452 H429 0.947 . S
C452 C451 1.391 . S
C452 C453 1.392 . S
C453 H430 0.948 . S
C453 C452 1.392 . S
C453 C454 1.419 . S
C454 C453 1.419 . S
C454 C455 1.391 . S
C454 C458 1.397 . S
C455 C450 1.391 . S
C455 C454 1.391 . S
C455 C456 1.399 . S
C456 C455 1.399 . S
C456 C457 1.396 . S
C456 C459 1.453 . S
C456 C460 1.684 . S
C457 C447 1.723 . S
C457 C456 1.396 . S
C457 C458 1.394 . S
C458 C428 1.723 . S
C458 C454 1.397 . S
C458 C457 1.394 . S
C459 H431 0.982 . S
C459 H435 0.979 . S
C459 H436 0.977 . S
C459 C456 1.453 . S
C460 H432 0.979 . S
C460 H433 0.980 . S
C460 H434 0.983 . S
C460 C456 1.684 . S
H461 C479 0.948 . S
H462 C420 0.948 . S
H463 C438 0.979 . S
H464 C438 0.980 . S
H465 C438 0.983 . S
H466 C437 0.982 . S
H467 C437 0.979 . S
H468 C437 0.977 . S
H469 C439 0.948 . S
H470 C441 0.947 . S
H471 C442 0.948 . S
H472 C448 0.982 . S
H473 C448 0.979 . S
H474 C448 0.977 . S
H475 C449 0.979 . S
H476 C449 0.980 . S
H477 C449 0.983 . S
H478 C422 0.947 . S
C479 C422 1.392 . S
C479 C423 1.419 . S
C479 H461 0.948 . S
C480 C481 1.391 . S
C480 C484 1.391 . S
C480 H522 0.948 . S
C481 C480 1.391 . S
C481 C482 1.391 . S
C482 C481 1.391 . S
C482 H538 0.947 . S
C482 C539 1.392 . S
C483 C484 1.391 . S
C483 C487 1.397 . S
C483 C539 1.419 . S
C484 C480 1.391 . S
C484 C483 1.391 . S
C484 C485 1.399 . S
C485 C484 1.399 . S
C485 C488 1.396 . S
C485 C497 1.453 . S
C485 C498 1.684 . S
H486 C510 0.948 . S
C487 C483 1.397 . S
C487 C488 1.394 . S
C487 C506 1.723 . S
C488 C485 1.396 . S
C488 C487 1.394 . S
C488 C518 1.723 . S
H489 C512 0.947 . S
H490 C513 0.948 . S
H491 C519 0.982 . S
H492 C520 0.979 . S
H493 C520 0.980 . S
H494 C520 0.983 . S
H495 C519 0.979 . S
H496 C519 0.977 . S
C497 C485 1.453 . S
C497 H526 0.982 . S
C497 H527 0.979 . S
C497 H528 0.977 . S
C498 C485 1.684 . S
C498 H523 0.979 . S
C498 H524 0.980 . S
C498 H525 0.983 . S
C499 C500 1.391 . S
C499 C504 1.391 . S
C499 H529 0.948 . S
C500 C499 1.391 . S
C500 C501 1.391 . S
C501 C500 1.391 . S
C501 C502 1.392 . S
C501 H530 0.947 . S
C502 C501 1.392 . S
C502 C503 1.419 . S
C502 H531 0.948 . S
C503 C502 1.419 . S
C503 C504 1.391 . S
C503 C507 1.397 . S
C504 C499 1.391 . S
C504 C503 1.391 . S
C504 C505 1.399 . S
C505 C504 1.399 . S
C505 C506 1.396 . S
C505 C508 1.453 . S
C505 C509 1.684 . S
C506 C487 1.723 . S
C506 C505 1.396 . S
C506 C507 1.394 . S
C507 C503 1.397 . S
C507 C506 1.394 . S
C507 C517 1.723 . S
C508 C505 1.453 . S
C508 H532 0.982 . S
C508 H533 0.979 . S
C508 H534 0.977 . S
C509 C505 1.684 . S
C509 H535 0.979 . S
C509 H536 0.980 . S
C509 H537 0.983 . S
C510 H486 0.948 . S
C510 C511 1.391 . S
C510 C515 1.391 . S
C511 C510 1.391 . S
C511 C512 1.391 . S
C512 H489 0.947 . S
C512 C511 1.391 . S
C512 C513 1.392 . S
C513 H490 0.948 . S
C513 C512 1.392 . S
C513 C514 1.419 . S
C514 C513 1.419 . S
C514 C515 1.391 . S
C514 C518 1.397 . S
C515 C510 1.391 . S
C515 C514 1.391 . S
C515 C516 1.399 . S
C516 C515 1.399 . S
C516 C517 1.396 . S
C516 C519 1.453 . S
C516 C520 1.684 . S
C517 C507 1.723 . S
C517 C516 1.396 . S
C517 C518 1.394 . S
C518 C488 1.723 . S
C518 C514 1.397 . S
C518 C517 1.394 . S
C519 H491 0.982 . S
C519 H495 0.979 . S
C519 H496 0.977 . S
C519 C516 1.453 . S
C520 H492 0.979 . S
C520 H493 0.980 . S
C520 H494 0.983 . S
C520 C516 1.684 . S
H521 C539 0.948 . S
H522 C480 0.948 . S
H523 C498 0.979 . S
H524 C498 0.980 . S
H525 C498 0.983 . S
H526 C497 0.982 . S
H527 C497 0.979 . S
H528 C497 0.977 . S
H529 C499 0.948 . S
H530 C501 0.947 . S
H531 C502 0.948 . S
H532 C508 0.982 . S
H533 C508 0.979 . S
H534 C508 0.977 . S
H535 C509 0.979 . S
H536 C509 0.980 . S
H537 C509 0.983 . S
H538 C482 0.947 . S
C539 C482 1.392 . S
C539 C483 1.419 . S
C539 H521 0.948 . S
C540 C541 1.391 . S
C540 C544 1.391 . S
C540 H582 0.948 . S
C541 C540 1.391 . S
C541 C542 1.391 . S
C542 C541 1.391 . S
C542 H598 0.947 . S
C542 C599 1.392 . S
C543 C544 1.391 . S
C543 C547 1.397 . S
C543 C599 1.419 . S
C544 C540 1.391 . S
C544 C543 1.391 . S
C544 C545 1.399 . S
C545 C544 1.399 . S
C545 C548 1.396 . S
C545 C557 1.453 . S
C545 C558 1.684 . S
H546 C570 0.948 . S
C547 C543 1.397 . S
C547 C548 1.394 . S
C547 C566 1.723 . S
C548 C545 1.396 . S
C548 C547 1.394 . S
C548 C578 1.723 . S
H549 C572 0.947 . S
H550 C573 0.948 . S
H551 C579 0.982 . S
H552 C580 0.979 1_545 S
H553 C580 0.966 1_545 S
H554 C580 0.983 1_545 S
H555 C579 0.979 . S
H556 C579 0.977 . S
C557 C545 1.453 . S
C557 H586 0.982 . S
C557 H587 0.979 . S
C557 H588 0.977 . S
C558 C545 1.684 . S
C558 H583 0.979 . S
C558 H584 0.980 . S
C558 H585 0.983 . S
C559 C560 1.391 . S
C559 C564 1.391 . S
C559 H589 0.948 . S
C560 C559 1.391 . S
C560 C561 1.391 1_565 S
C561 C560 1.391 1_545 S
C561 C562 1.392 1_545 S
C561 H590 0.947 . S
C562 C561 1.392 1_565 S
C562 C563 1.419 . S
C562 H591 0.948 . S
C563 C562 1.419 . S
C563 C564 1.391 . S
C563 C567 1.397 . S
C564 C559 1.391 . S
C564 C563 1.391 . S
C564 C565 1.399 . S
C565 C564 1.399 . S
C565 C566 1.396 . S
C565 C568 1.453 . S
C565 C569 1.684 . S
C566 C547 1.723 . S
C566 C565 1.396 . S
C566 C567 1.394 . S
C567 C563 1.397 . S
C567 C566 1.394 . S
C567 C577 1.723 . S
C568 C565 1.453 . S
C568 H592 0.982 . S
C568 H593 0.979 . S
C568 H594 0.977 . S
C569 C565 1.684 . S
C569 H595 0.979 . S
C569 H596 0.980 . S
C569 H597 0.983 . S
C570 H546 0.948 . S
C570 C571 1.391 . S
C570 C575 1.391 . S
C571 C570 1.391 . S
C571 C572 1.391 . S
C572 H549 0.947 . S
C572 C571 1.391 . S
C572 C573 1.392 . S
C573 H550 0.948 . S
C573 C572 1.392 . S
C573 C574 1.419 . S
C574 C573 1.419 . S
C574 C575 1.391 . S
C574 C578 1.397 . S
C575 C570 1.391 . S
C575 C574 1.391 . S
C575 C576 1.399 . S
C576 C575 1.399 . S
C576 C577 1.396 . S
C576 C579 1.453 . S
C576 C580 1.684 . S
C577 C567 1.723 . S
C577 C576 1.396 . S
C577 C578 1.394 . S
C578 C548 1.723 . S
C578 C574 1.397 . S
C578 C577 1.394 . S
C579 H551 0.982 . S
C579 H555 0.979 . S
C579 H556 0.977 . S
C579 C576 1.453 . S
C580 H552 0.979 1_565 S
C580 H553 0.966 1_565 S
C580 H554 0.983 1_565 S
C580 C576 1.684 . S
H581 C599 0.948 . S
H582 C540 0.948 . S
H583 C558 0.979 . S
H584 C558 0.980 . S
H585 C558 0.983 . S
H586 C557 0.982 . S
H587 C557 0.979 . S
H588 C557 0.977 . S
H589 C559 0.948 . S
H590 C561 0.947 . S
H591 C562 0.948 . S
H592 C568 0.982 . S
H593 C568 0.979 . S
H594 C568 0.977 . S
H595 C569 0.979 . S
H596 C569 0.980 . S
H597 C569 0.983 . S
H598 C542 0.947 . S
C599 C542 1.392 . S
C599 C543 1.419 . S
C599 H581 0.948 . S
C600 C601 1.391 . S
C600 C604 1.391 . S
C600 H642 0.948 . S
C601 C600 1.391 . S
C601 C602 1.391 . S
C602 C601 1.391 . S
C602 H658 0.947 . S
C602 C659 1.392 . S
C603 C604 1.391 . S
C603 C607 1.397 . S
C603 C659 1.419 . S
C604 C600 1.391 . S
C604 C603 1.391 . S
C604 C605 1.399 . S
C605 C604 1.399 . S
C605 C608 1.396 . S
C605 C617 1.453 . S
C605 C618 1.684 . S
H606 C630 0.948 . S
C607 C603 1.397 . S
C607 C608 1.394 . S
C607 C626 1.723 . S
C608 C605 1.396 . S
C608 C607 1.394 . S
C608 C638 1.723 . S
H609 C632 0.947 . S
H610 C633 0.948 . S
H611 C639 0.982 . S
H612 C640 0.979 . S
H613 C640 0.980 . S
H614 C640 0.983 . S
H615 C639 0.979 . S
H616 C639 0.977 . S
C617 C605 1.453 . S
C617 H646 0.982 . S
C617 H647 0.979 . S
C617 H648 0.977 . S
C618 C605 1.684 . S
C618 H643 0.979 . S
C618 H644 0.980 . S
C618 H645 0.983 . S
C619 C620 1.391 . S
C619 C624 1.391 . S
C619 H649 0.948 . S
C620 C619 1.391 . S
C620 C621 1.391 . S
C621 C620 1.391 . S
C621 C622 1.392 . S
C621 H650 0.947 . S
C622 C621 1.392 . S
C622 C623 1.419 . S
C622 H651 0.948 . S
C623 C622 1.419 . S
C623 C624 1.391 . S
C623 C627 1.397 . S
C624 C619 1.391 . S
C624 C623 1.391 . S
C624 C625 1.399 . S
C625 C624 1.399 . S
C625 C626 1.396 . S
C625 C628 1.453 . S
C625 C629 1.684 . S
C626 C607 1.723 . S
C626 C625 1.396 . S
C626 C627 1.394 . S
C627 C623 1.397 . S
C627 C626 1.394 . S
C627 C637 1.723 . S
C628 C625 1.453 . S
C628 H652 0.982 . S
C628 H653 0.979 . S
C628 H654 0.977 . S
C629 C625 1.684 . S
C629 H655 0.979 . S
C629 H656 0.980 . S
C629 H657 0.983 . S
C630 H606 0.948 . S
C630 C631 1.391 . S
C630 C635 1.391 . S
C631 C630 1.391 . S
C631 C632 1.391 . S
C632 H609 0.947 . S
C632 C631 1.391 . S
C632 C633 1.392 . S
C633 H610 0.948 . S
C633 C632 1.392 . S
C633 C634 1.419 . S
C634 C633 1.419 . S
C634 C635 1.391 . S
C634 C638 1.397 . S
C635 C630 1.391 . S
C635 C634 1.391 . S
C635 C636 1.399 . S
C636 C635 1.399 . S
C636 C637 1.396 . S
C636 C639 1.453 . S
C636 C640 1.684 . S
C637 C627 1.723 . S
C637 C636 1.396 . S
C637 C638 1.394 . S
C638 C608 1.723 . S
C638 C634 1.397 . S
C638 C637 1.394 . S
C639 H611 0.982 . S
C639 H615 0.979 . S
C639 H616 0.977 . S
C639 C636 1.453 . S
C640 H612 0.979 . S
C640 H613 0.980 . S
C640 H614 0.983 . S
C640 C636 1.684 . S
H641 C659 0.948 . S
H642 C600 0.948 . S
H643 C618 0.979 . S
H644 C618 0.980 . S
H645 C618 0.983 . S
H646 C617 0.982 . S
H647 C617 0.979 . S
H648 C617 0.977 . S
H649 C619 0.948 . S
H650 C621 0.947 . S
H651 C622 0.948 . S
H652 C628 0.982 . S
H653 C628 0.979 . S
H654 C628 0.977 . S
H655 C629 0.979 . S
H656 C629 0.980 . S
H657 C629 0.983 . S
H658 C602 0.947 . S
C659 C602 1.392 . S
C659 C603 1.419 . S
C659 H641 0.948 . S
C660 C661 1.391 . S
C660 C664 1.391 . S
C660 H702 0.948 . S
C661 C660 1.391 . S
C661 C662 1.391 . S
C662 C661 1.391 . S
C662 H718 0.947 . S
C662 C719 1.392 . S
C663 C664 1.391 . S
C663 C667 1.397 . S
C663 C719 1.419 . S
C664 C660 1.391 . S
C664 C663 1.391 . S
C664 C665 1.399 . S
C665 C664 1.399 . S
C665 C668 1.396 . S
C665 C677 1.453 . S
C665 C678 1.684 . S
H666 C690 0.948 . S
C667 C663 1.397 . S
C667 C668 1.394 . S
C667 C686 1.723 . S
C668 C665 1.396 . S
C668 C667 1.394 . S
C668 C698 1.723 . S
H669 C692 0.947 . S
H670 C693 0.948 . S
H671 C699 0.982 . S
H672 C700 0.979 . S
H673 C700 0.980 . S
H674 C700 0.983 . S
H675 C699 0.979 . S
H676 C699 0.977 . S
C677 C665 1.453 . S
C677 H706 0.982 . S
C677 H707 0.979 . S
C677 H708 0.977 . S
C678 C665 1.684 . S
C678 H703 0.979 . S
C678 H704 0.980 . S
C678 H705 0.983 . S
C679 C680 1.391 . S
C679 C684 1.391 . S
C679 H709 0.948 . S
C680 C679 1.391 . S
C680 C681 1.391 . S
C681 C680 1.391 . S
C681 C682 1.392 . S
C681 H710 0.947 . S
C682 C681 1.392 . S
C682 C683 1.419 . S
C682 H711 0.948 . S
C683 C682 1.419 . S
C683 C684 1.391 . S
C683 C687 1.397 . S
C684 C679 1.391 . S
C684 C683 1.391 . S
C684 C685 1.399 . S
C685 C684 1.399 . S
C685 C686 1.396 . S
C685 C688 1.453 . S
C685 C689 1.684 . S
C686 C667 1.723 . S
C686 C685 1.396 . S
C686 C687 1.394 . S
C687 C683 1.397 . S
C687 C686 1.394 . S
C687 C697 1.723 . S
C688 C685 1.453 . S
C688 H712 0.982 . S
C688 H713 0.979 . S
C688 H714 0.977 . S
C689 C685 1.684 . S
C689 H715 0.979 . S
C689 H716 0.980 . S
C689 H717 0.983 . S
C690 H666 0.948 . S
C690 C691 1.391 . S
C690 C695 1.391 . S
C691 C690 1.391 . S
C691 C692 1.391 . S
C692 H669 0.947 . S
C692 C691 1.391 . S
C692 C693 1.392 . S
C693 H670 0.948 . S
C693 C692 1.392 . S
C693 C694 1.419 . S
C694 C693 1.419 . S
C694 C695 1.391 . S
C694 C698 1.397 . S
C695 C690 1.391 . S
C695 C694 1.391 . S
C695 C696 1.399 . S
C696 C695 1.399 . S
C696 C697 1.396 . S
C696 C699 1.453 . S
C696 C700 1.684 . S
C697 C687 1.723 . S
C697 C696 1.396 . S
C697 C698 1.394 . S
C698 C668 1.723 . S
C698 C694 1.397 . S
C698 C697 1.394 . S
C699 H671 0.982 . S
C699 H675 0.979 . S
C699 H676 0.977 . S
C699 C696 1.453 . S
C700 H672 0.979 . S
C700 H673 0.980 . S
C700 H674 0.983 . S
C700 C696 1.684 . S
H701 C719 0.948 . S
H702 C660 0.948 . S
H703 C678 0.979 . S
H704 C678 0.980 . S
H705 C678 0.983 . S
H706 C677 0.982 . S
H707 C677 0.979 . S
H708 C677 0.977 . S
H709 C679 0.948 . S
H710 C681 0.947 . S
H711 C682 0.948 . S
H712 C688 0.982 . S
H713 C688 0.979 . S
H714 C688 0.977 . S
H715 C689 0.979 . S
H716 C689 0.980 . S
H717 C689 0.983 . S
H718 C662 0.947 . S
C719 C662 1.392 . S
C719 C663 1.419 . S
C719 H701 0.948 . S
C720 C721 1.391 . S
C720 C724 1.391 . S
C720 H762 0.948 . S
C721 C720 1.391 . S
C721 C722 1.391 . S
C722 C721 1.391 . S
C722 H778 0.947 . S
C722 C779 1.392 . S
C723 C724 1.391 . S
C723 C727 1.397 . S
C723 C779 1.419 . S
C724 C720 1.391 . S
C724 C723 1.391 . S
C724 C725 1.399 . S
C725 C724 1.399 . S
C725 C728 1.396 . S
C725 C737 1.453 . S
C725 C738 1.684 . S
H726 C750 0.948 . S
C727 C723 1.397 . S
C727 C728 1.394 . S
C727 C746 1.723 . S
C728 C725 1.396 . S
C728 C727 1.394 . S
C728 C758 1.723 . S
H729 C752 0.947 . S
H730 C753 0.948 . S
H731 C759 0.982 . S
H732 C760 0.979 . S
H733 C760 0.980 . S
H734 C760 0.983 . S
H735 C759 0.979 . S
H736 C759 0.977 . S
C737 C725 1.453 . S
C737 H766 0.982 . S
C737 H767 0.979 . S
C737 H768 0.977 . S
C738 C725 1.684 . S
C738 H763 0.979 . S
C738 H764 0.980 . S
C738 H765 0.983 . S
C739 C740 1.391 . S
C739 C744 1.391 . S
C739 H769 0.948 . S
C740 C739 1.391 . S
C740 C741 1.391 . S
C741 C740 1.391 . S
C741 C742 1.392 . S
C741 H770 0.947 . S
C742 C741 1.392 . S
C742 C743 1.419 . S
C742 H771 0.948 . S
C743 C742 1.419 . S
C743 C744 1.391 . S
C743 C747 1.397 . S
C744 C739 1.391 . S
C744 C743 1.391 . S
C744 C745 1.399 . S
C745 C744 1.399 . S
C745 C746 1.396 . S
C745 C748 1.453 . S
C745 C749 1.684 . S
C746 C727 1.723 . S
C746 C745 1.396 . S
C746 C747 1.394 . S
C747 C743 1.397 . S
C747 C746 1.394 . S
C747 C757 1.723 . S
C748 C745 1.453 . S
C748 H772 0.982 . S
C748 H773 0.979 . S
C748 H774 0.977 . S
C749 C745 1.684 . S
C749 H775 0.979 . S
C749 H776 0.980 . S
C749 H777 0.983 . S
C750 H726 0.948 . S
C750 C751 1.391 . S
C750 C755 1.391 . S
C751 C750 1.391 . S
C751 C752 1.391 . S
C752 H729 0.947 . S
C752 C751 1.391 . S
C752 C753 1.392 . S
C753 H730 0.948 . S
C753 C752 1.392 . S
C753 C754 1.419 . S
C754 C753 1.419 . S
C754 C755 1.391 . S
C754 C758 1.397 . S
C755 C750 1.391 . S
C755 C754 1.391 . S
C755 C756 1.399 . S
C756 C755 1.399 . S
C756 C757 1.396 . S
C756 C759 1.453 . S
C756 C760 1.684 . S
C757 C747 1.723 . S
C757 C756 1.396 . S
C757 C758 1.394 . S
C758 C728 1.723 . S
C758 C754 1.397 . S
C758 C757 1.394 . S
C759 H731 0.982 . S
C759 H735 0.979 . S
C759 H736 0.977 . S
C759 C756 1.453 . S
C760 H732 0.979 . S
C760 H733 0.980 . S
C760 H734 0.983 . S
C760 C756 1.684 . S
H761 C779 0.948 . S
H762 C720 0.948 . S
H763 C738 0.979 . S
H764 C738 0.980 . S
H765 C738 0.983 . S
H766 C737 0.982 . S
H767 C737 0.979 . S
H768 C737 0.977 . S
H769 C739 0.948 . S
H770 C741 0.947 . S
H771 C742 0.948 . S
H772 C748 0.982 . S
H773 C748 0.979 . S
H774 C748 0.977 . S
H775 C749 0.979 . S
H776 C749 0.980 . S
H777 C749 0.983 . S
H778 C722 0.947 . S
C779 C722 1.392 . S
C779 C723 1.419 . S
C779 H761 0.948 . S
C780 C781 1.391 . S
C780 C784 1.391 . S
C780 H822 0.948 . S
C781 C780 1.391 . S
C781 C782 1.391 . S
C782 C781 1.391 . S
C782 H838 0.947 . S
C782 C839 1.392 . S
C783 C784 1.391 . S
C783 C787 1.397 . S
C783 C839 1.419 . S
C784 C780 1.391 . S
C784 C783 1.391 . S
C784 C785 1.399 . S
C785 C784 1.399 . S
C785 C788 1.396 . S
C785 C797 1.453 . S
C785 C798 1.684 . S
H786 C810 0.948 . S
C787 C783 1.397 . S
C787 C788 1.394 . S
C787 C806 1.723 . S
C788 C785 1.396 . S
C788 C787 1.394 . S
C788 C818 1.723 . S
H789 C812 0.947 . S
H790 C813 0.948 . S
H791 C819 0.982 . S
H792 C820 0.979 . S
H793 C820 0.980 . S
H794 C820 0.983 . S
H795 C819 0.979 . S
H796 C819 0.977 . S
C797 C785 1.453 . S
C797 H826 0.982 . S
C797 H827 0.979 . S
C797 H828 0.977 . S
C798 C785 1.684 . S
C798 H823 0.979 . S
C798 H824 0.980 . S
C798 H825 0.983 . S
C799 C800 1.391 . S
C799 C804 1.391 . S
C799 H829 0.948 . S
C800 C799 1.391 . S
C800 C801 1.391 . S
C801 C800 1.391 . S
C801 C802 1.392 . S
C801 H830 0.947 . S
C802 C801 1.392 . S
C802 C803 1.419 . S
C802 H831 0.948 . S
C803 C802 1.419 . S
C803 C804 1.391 . S
C803 C807 1.397 . S
C804 C799 1.391 . S
C804 C803 1.391 . S
C804 C805 1.399 . S
C805 C804 1.399 . S
C805 C806 1.396 . S
C805 C808 1.453 . S
C805 C809 1.684 . S
C806 C787 1.723 . S
C806 C805 1.396 . S
C806 C807 1.394 . S
C807 C803 1.397 . S
C807 C806 1.394 . S
C807 C817 1.723 . S
C808 C805 1.453 . S
C808 H832 0.982 . S
C808 H833 0.979 . S
C808 H834 0.977 . S
C809 C805 1.684 . S
C809 H835 0.979 . S
C809 H836 0.980 . S
C809 H837 0.983 . S
C810 H786 0.948 . S
C810 C811 1.391 . S
C810 C815 1.391 . S
C811 C810 1.391 . S
C811 C812 1.391 . S
C812 H789 0.947 . S
C812 C811 1.391 . S
C812 C813 1.392 . S
C813 H790 0.948 . S
C813 C812 1.392 . S
C813 C814 1.419 . S
C814 C813 1.419 . S
C814 C815 1.391 . S
C814 C818 1.397 . S
C815 C810 1.391 . S
C815 C814 1.391 . S
C815 C816 1.399 . S
C816 C815 1.399 . S
C816 C817 1.396 . S
C816 C819 1.453 . S
C816 C820 1.684 . S
C817 C807 1.723 . S
C817 C816 1.396 . S
C817 C818 1.394 . S
C818 C788 1.723 . S
C818 C814 1.397 . S
C818 C817 1.394 . S
C819 H791 0.982 . S
C819 H795 0.979 . S
C819 H796 0.977 . S
C819 C816 1.453 . S
C820 H792 0.979 . S
C820 H793 0.980 . S
C820 H794 0.983 . S
C820 C816 1.684 . S
H821 C839 0.948 . S
H822 C780 0.948 . S
H823 C798 0.979 . S
H824 C798 0.980 . S
H825 C798 0.983 . S
H826 C797 0.982 . S
H827 C797 0.979 . S
H828 C797 0.977 . S
H829 C799 0.948 . S
H830 C801 0.947 . S
H831 C802 0.948 . S
H832 C808 0.982 . S
H833 C808 0.979 . S
H834 C808 0.977 . S
H835 C809 0.979 . S
H836 C809 0.980 . S
H837 C809 0.983 . S
H838 C782 0.947 . S
C839 C782 1.392 . S
C839 C783 1.419 . S
C839 H821 0.948 . S
C840 C841 1.391 . S
C840 C844 1.391 . S
C840 H882 0.948 . S
C841 C840 1.391 . S
C841 C842 1.391 . S
C842 C841 1.391 . S
C842 H898 0.947 . S
C842 C899 1.392 . S
C843 C844 1.391 . S
C843 C847 1.397 . S
C843 C899 1.419 . S
C844 C840 1.391 . S
C844 C843 1.391 . S
C844 C845 1.399 . S
C845 C844 1.399 . S
C845 C848 1.396 . S
C845 C857 1.453 . S
C845 C858 1.684 . S
H846 C870 0.948 . S
C847 C843 1.397 . S
C847 C848 1.394 . S
C847 C866 1.723 . S
C848 C845 1.396 . S
C848 C847 1.394 . S
C848 C878 1.723 . S
H849 C872 0.947 . S
H850 C873 0.948 . S
H851 C879 0.982 . S
H852 C880 0.979 . S
H853 C880 0.980 . S
H854 C880 0.983 . S
H855 C879 0.979 . S
H856 C879 0.977 . S
C857 C845 1.453 . S
C857 H886 0.982 . S
C857 H887 0.979 . S
C857 H888 0.977 . S
C858 C845 1.684 . S
C858 H883 0.979 . S
C858 H884 0.980 . S
C858 H885 0.983 . S
C859 C860 1.391 . S
C859 C864 1.391 . S
C859 H889 0.948 . S
C860 C859 1.391 . S
C860 C861 1.391 . S
C861 C860 1.391 . S
C861 C862 1.392 . S
C861 H890 0.947 . S
C862 C861 1.392 . S
C862 C863 1.419 . S
C862 H891 0.948 . S
C863 C862 1.419 . S
C863 C864 1.391 . S
C863 C867 1.397 . S
C864 C859 1.391 . S
C864 C863 1.391 . S
C864 C865 1.399 . S
C865 C864 1.399 . S
C865 C866 1.396 . S
C865 C868 1.453 . S
C865 C869 1.684 . S
C866 C847 1.723 . S
C866 C865 1.396 . S
C866 C867 1.394 . S
C867 C863 1.397 . S
C867 C866 1.394 . S
C867 C877 1.723 . S
C868 C865 1.453 . S
C868 H892 0.982 . S
C868 H893 0.979 . S
C868 H894 0.977 . S
C869 C865 1.684 . S
C869 H895 0.979 . S
C869 H896 0.980 . S
C869 H897 0.983 . S
C870 H846 0.948 . S
C870 C871 1.391 . S
C870 C875 1.391 . S
C871 C870 1.391 . S
C871 C872 1.391 . S
C872 H849 0.947 . S
C872 C871 1.391 . S
C872 C873 1.392 . S
C873 H850 0.948 . S
C873 C872 1.392 . S
C873 C874 1.419 . S
C874 C873 1.419 . S
C874 C875 1.391 . S
C874 C878 1.397 . S
C875 C870 1.391 . S
C875 C874 1.391 . S
C875 C876 1.399 . S
C876 C875 1.399 . S
C876 C877 1.396 . S
C876 C879 1.453 . S
C876 C880 1.684 . S
C877 C867 1.723 . S
C877 C876 1.396 . S
C877 C878 1.394 . S
C878 C848 1.723 . S
C878 C874 1.397 . S
C878 C877 1.394 . S
C879 H851 0.982 . S
C879 H855 0.979 . S
C879 H856 0.977 . S
C879 C876 1.453 . S
C880 H852 0.979 . S
C880 H853 0.980 . S
C880 H854 0.983 . S
C880 C876 1.684 . S
H881 C899 0.948 . S
H882 C840 0.948 . S
H883 C858 0.979 . S
H884 C858 0.980 . S
H885 C858 0.983 . S
H886 C857 0.982 . S
H887 C857 0.979 . S
H888 C857 0.977 . S
H889 C859 0.948 . S
H890 C861 0.947 . S
H891 C862 0.948 . S
H892 C868 0.982 . S
H893 C868 0.979 . S
H894 C868 0.977 . S
H895 C869 0.979 . S
H896 C869 0.980 . S
H897 C869 0.983 . S
H898 C842 0.947 . S
C899 C842 1.392 . S
C899 C843 1.419 . S
C899 H881 0.948 . S
C900 C901 1.391 . S
C900 C904 1.391 . S
C900 H942 0.948 . S
C901 C900 1.391 . S
C901 C902 1.391 . S
C902 C901 1.391 . S
C902 H958 0.947 . S
C902 C959 1.392 . S
C903 C904 1.391 . S
C903 C907 1.397 . S
C903 C959 1.419 . S
C904 C900 1.391 . S
C904 C903 1.391 . S
C904 C905 1.399 . S
C905 C904 1.399 . S
C905 C908 1.396 . S
C905 C917 1.453 . S
C905 C918 1.684 1_556 S
H906 C930 0.948 . S
C907 C903 1.397 . S
C907 C908 1.394 . S
C907 C926 1.723 . S
C908 C905 1.396 . S
C908 C907 1.394 . S
C908 C938 1.723 . S
H909 C932 0.947 . S
H910 C933 0.948 . S
H911 C939 0.982 . S
H912 C940 0.979 . S
H913 C940 0.980 . S
H914 C940 0.983 . S
H915 C939 0.979 . S
H916 C939 0.977 . S
C917 C905 1.453 . S
C917 H946 0.982 . S
C917 H947 0.979 . S
C917 H948 0.977 . S
C918 C905 1.684 1_554 S
C918 H943 0.979 . S
C918 H944 0.980 . S
C918 H945 0.983 . S
C919 C920 1.391 . S
C919 C924 1.391 . S
C919 H949 0.948 . S
C920 C919 1.391 . S
C920 C921 1.391 . S
C921 C920 1.391 . S
C921 C922 1.392 . S
C921 H950 0.947 . S
C922 C921 1.392 . S
C922 C923 1.419 . S
C922 H951 0.948 . S
C923 C922 1.419 . S
C923 C924 1.391 . S
C923 C927 1.397 . S
C924 C919 1.391 . S
C924 C923 1.391 . S
C924 C925 1.399 . S
C925 C924 1.399 . S
C925 C926 1.396 . S
C925 C928 1.453 . S
C925 C929 1.684 . S
C926 C907 1.723 . S
C926 C925 1.396 . S
C926 C927 1.394 . S
C927 C923 1.397 . S
C927 C926 1.394 . S
C927 C937 1.723 . S
C928 C925 1.453 . S
C928 H952 0.982 . S
C928 H953 0.979 . S
C928 H954 0.977 . S
C929 C925 1.684 . S
C929 H955 0.979 . S
C929 H956 0.980 . S
C929 H957 0.983 . S
C930 H906 0.948 . S
C930 C931 1.391 1_556 S
C930 C935 1.391 . S
C931 C930 1.391 1_554 S
C931 C932 1.391 . S
C932 H909 0.947 . S
C932 C931 1.391 . S
C932 C933 1.392 . S
C933 H910 0.948 . S
C933 C932 1.392 . S
C933 C934 1.419 1_554 S
C934 C933 1.419 1_556 S
C934 C935 1.391 . S
C934 C938 1.397 . S
C935 C930 1.391 . S
C935 C934 1.391 . S
C935 C936 1.399 . S
C936 C935 1.399 . S
C936 C937 1.396 . S
C936 C939 1.453 . S
C936 C940 1.684 . S
C937 C927 1.723 . S
C937 C936 1.396 . S
C937 C938 1.394 . S
C938 C908 1.723 . S
C938 C934 1.397 . S
C938 C937 1.394 . S
C939 H911 0.982 . S
C939 H915 0.979 . S
C939 H916 0.977 . S
C939 C936 1.453 . S
C940 H912 0.979 . S
C940 H913 0.980 . S
C940 H914 0.983 . S
C940 C936 1.684 . S
H941 C959 0.948 . S
H942 C900 0.948 . S
H943 C918 0.979 . S
H944 C918 0.980 . S
H945 C918 0.983 . S
H946 C917 0.982 . S
H947 C917 0.979 . S
H948 C917 0.977 . S
H949 C919 0.948 . S
H950 C921 0.947 . S
H951 C922 0.948 . S
H952 C928 0.982 . S
H953 C928 0.979 . S
H954 C928 0.977 . S
H955 C929 0.979 . S
H956 C929 0.980 . S
H957 C929 0.983 . S
H958 C902 0.947 . S
C959 C902 1.392 . S
C959 C903 1.419 . S
C959 H941 0.948 . S
O960 Cd961 2.223 . S
O960 C968 1.315 . S
Cd961 O960 2.223 . S
Cd961 O964 2.297 . S
Cd961 O965 2.439 . S
Cd961 O971 2.240 . S
Cd962 O963 2.240 . S
Cd962 O970 2.223 . S
Cd962 O972 2.297 . S
Cd962 O973 2.439 . S
O963 Cd962 2.240 . S
O963 C968 1.279 . S
O964 Cd961 2.297 . S
O964 C966 1.247 . S
O965 Cd961 2.439 . S
O965 C966 1.208 . S
C966 O964 1.247 . S
C966 O965 1.208 . S
C967 O972 1.247 . S
C967 O973 1.208 . S
C968 O960 1.315 . S
C968 O963 1.279 . S
C969 O970 1.315 . S
C969 O971 1.279 . S
O970 Cd962 2.223 . S
O970 C969 1.315 . S
O971 Cd961 2.240 . S
O971 C969 1.279 . S
O972 Cd962 2.297 . S
O972 C967 1.247 . S
O973 Cd962 2.439 . S
O973 C967 1.208 . S
O974 Cd975 2.223 . S
O974 C982 1.315 . S
Cd975 O974 2.223 . S
Cd975 O978 2.297 . S
Cd975 O979 2.439 . S
Cd975 O985 2.240 . S
Cd976 O977 2.240 . S
Cd976 O984 2.223 . S
Cd976 O986 2.297 . S
Cd976 O987 2.439 . S
O977 Cd976 2.240 . S
O977 C982 1.279 . S
O978 Cd975 2.297 . S
O978 C980 1.247 . S
O979 Cd975 2.439 . S
O979 C980 1.208 . S
C980 O978 1.247 . S
C980 O979 1.208 . S
C981 O986 1.247 . S
C981 O987 1.208 . S
C982 O974 1.315 . S
C982 O977 1.279 . S
C983 O984 1.315 . S
C983 O985 1.279 . S
O984 Cd976 2.223 . S
O984 C983 1.315 . S
O985 Cd975 2.240 . S
O985 C983 1.279 . S
O986 Cd976 2.297 . S
O986 C981 1.247 . S
O987 Cd976 2.439 . S
O987 C981 1.208 . S
O988 Cd989 2.223 1_556 S
O988 C996 1.315 . S
Cd989 O988 2.223 1_554 S
Cd989 O992 2.297 . S
Cd989 O993 2.439 . S
Cd989 O999 2.240 . S
Cd990 O991 2.240 . S
Cd990 O998 2.223 . S
Cd990 O1000 2.283 1_556 S
Cd990 O1001 2.439 1_556 S
O991 Cd990 2.240 . S
O991 C996 1.279 . S
O992 Cd989 2.297 . S
O992 C994 1.247 . S
O993 Cd989 2.439 . S
O993 C994 1.208 . S
C994 O992 1.247 . S
C994 O993 1.208 . S
C995 O1000 1.287 . S
C995 O1001 1.208 . S
C996 O988 1.315 . S
C996 O991 1.279 . S
C997 O998 1.315 . S
C997 O999 1.279 1_556 S
O998 Cd990 2.223 . S
O998 C997 1.315 . S
O999 Cd989 2.240 . S
O999 C997 1.279 1_554 S
O1000 Cd990 2.283 1_554 S
O1000 C995 1.287 . S
O1001 Cd990 2.439 1_554 S
O1001 C995 1.208 . S
O1002 Cd1003 2.223 . S
O1002 C1010 1.315 . S
Cd1003 O1002 2.223 . S
Cd1003 O1006 2.297 . S
Cd1003 O1007 2.439 . S
Cd1003 O1013 2.240 . S
Cd1004 O1005 2.240 . S
Cd1004 O1012 2.223 . S
Cd1004 O1014 2.297 . S
Cd1004 O1015 2.439 . S
O1005 Cd1004 2.240 . S
O1005 C1010 1.279 . S
O1006 Cd1003 2.297 . S
O1006 C1008 1.247 . S
O1007 Cd1003 2.439 . S
O1007 C1008 1.208 . S
C1008 O1006 1.247 . S
C1008 O1007 1.208 . S
C1009 O1014 1.247 . S
C1009 O1015 1.208 . S
C1010 O1002 1.315 . S
C1010 O1005 1.279 . S
C1011 O1012 1.315 . S
C1011 O1013 1.279 . S
O1012 Cd1004 2.223 . S
O1012 C1011 1.315 . S
O1013 Cd1003 2.240 . S
O1013 C1011 1.279 . S
O1014 Cd1004 2.297 . S
O1014 C1009 1.247 . S
O1015 Cd1004 2.439 . S
O1015 C1009 1.208 . S
O1016 Cd1017 2.223 . S
O1016 C1024 1.315 . S
Cd1017 O1016 2.223 . S
Cd1017 O1020 2.297 . S
Cd1017 O1021 2.439 . S
Cd1017 O1027 2.240 . S
Cd1018 O1019 2.240 . S
Cd1018 O1026 2.223 . S
Cd1018 O1028 2.297 . S
Cd1018 O1029 2.439 . S
O1019 Cd1018 2.240 . S
O1019 C1024 1.279 . S
O1020 Cd1017 2.297 . S
O1020 C1022 1.247 . S
O1021 Cd1017 2.439 . S
O1021 C1022 1.208 . S
C1022 O1020 1.247 . S
C1022 O1021 1.208 . S
C1023 O1028 1.247 . S
C1023 O1029 1.208 . S
C1024 O1016 1.315 . S
C1024 O1019 1.279 . S
C1025 O1026 1.315 . S
C1025 O1027 1.279 . S
O1026 Cd1018 2.223 . S
O1026 C1025 1.315 . S
O1027 Cd1017 2.240 . S
O1027 C1025 1.279 . S
O1028 Cd1018 2.297 . S
O1028 C1023 1.247 . S
O1029 Cd1018 2.439 . S
O1029 C1023 1.208 . S
O1030 Cd1031 2.223 . S
O1030 C1038 1.315 . S
Cd1031 O1030 2.223 . S
Cd1031 O1034 2.297 . S
Cd1031 O1035 2.439 . S
Cd1031 O1041 2.240 . S
Cd1032 O1033 2.240 . S
Cd1032 O1040 2.223 . S
Cd1032 O1042 2.297 . S
Cd1032 O1043 2.439 . S
O1033 Cd1032 2.240 . S
O1033 C1038 1.279 . S
O1034 Cd1031 2.297 . S
O1034 C1036 1.247 . S
O1035 Cd1031 2.439 . S
O1035 C1036 1.208 . S
C1036 O1034 1.247 . S
C1036 O1035 1.208 . S
C1037 O1042 1.247 . S
C1037 O1043 1.208 . S
C1038 O1030 1.315 . S
C1038 O1033 1.279 . S
C1039 O1040 1.315 . S
C1039 O1041 1.279 . S
O1040 Cd1032 2.223 . S
O1040 C1039 1.315 . S
O1041 Cd1031 2.240 . S
O1041 C1039 1.279 . S
O1042 Cd1032 2.297 . S
O1042 C1037 1.247 . S
O1043 Cd1032 2.439 . S
O1043 C1037 1.208 . S
O1044 Cd1045 2.223 . S
O1044 C1052 1.315 . S
Cd1045 O1044 2.223 . S
Cd1045 O1048 2.297 . S
Cd1045 O1049 2.439 . S
Cd1045 O1055 2.240 . S
Cd1046 O1047 2.240 . S
Cd1046 O1054 2.223 . S
Cd1046 O1056 2.297 . S
Cd1046 O1057 2.439 . S
O1047 Cd1046 2.240 . S
O1047 C1052 1.279 . S
O1048 Cd1045 2.297 . S
O1048 C1050 1.247 . S
O1049 Cd1045 2.439 . S
O1049 C1050 1.208 . S
C1050 O1048 1.247 . S
C1050 O1049 1.208 . S
C1051 O1056 1.247 . S
C1051 O1057 1.208 . S
C1052 O1044 1.315 . S
C1052 O1047 1.279 . S
C1053 O1054 1.315 . S
C1053 O1055 1.279 . S
O1054 Cd1046 2.223 . S
O1054 C1053 1.315 . S
O1055 Cd1045 2.240 . S
O1055 C1053 1.279 . S
O1056 Cd1046 2.297 . S
O1056 C1051 1.247 . S
O1057 Cd1046 2.439 . S
O1057 C1051 1.208 . S
O1058 Cd1059 2.223 1_545 S
O1058 C1066 1.315 . S
Cd1059 O1058 2.223 1_565 S
Cd1059 O1062 2.297 . S
Cd1059 O1063 2.439 . S
Cd1059 O1069 2.240 1_565 S
Cd1060 O1061 2.240 . S
Cd1060 O1068 2.223 . S
Cd1060 O1070 2.297 . S
Cd1060 O1071 2.439 1_545 S
O1061 Cd1060 2.240 . S
O1061 C1066 1.279 . S
O1062 Cd1059 2.297 . S
O1062 C1064 1.247 . S
O1063 Cd1059 2.439 . S
O1063 C1064 1.208 . S
C1064 O1062 1.247 . S
C1064 O1063 1.208 . S
C1065 O1070 1.247 1_565 S
C1065 O1071 1.208 . S
C1066 O1058 1.315 . S
C1066 O1061 1.279 . S
C1067 O1068 1.315 . S
C1067 O1069 1.279 . S
O1068 Cd1060 2.223 . S
O1068 C1067 1.315 . S
O1069 Cd1059 2.240 1_545 S
O1069 C1067 1.279 . S
O1070 Cd1060 2.297 . S
O1070 C1065 1.247 1_545 S
O1071 Cd1060 2.439 1_565 S
O1071 C1065 1.208 . S
O1072 Cd1073 2.223 . S
O1072 C1080 1.315 . S
Cd1073 O1072 2.223 . S
Cd1073 O1076 2.297 1_655 S
Cd1073 O1077 2.439 1_655 S
Cd1073 O1083 2.240 . S
Cd1074 O1075 2.240 . S
Cd1074 O1082 2.223 1_455 S
Cd1074 O1084 2.297 . S
Cd1074 O1085 2.439 . S
O1075 Cd1074 2.240 . S
O1075 C1080 1.279 1_455 S
O1076 Cd1073 2.297 1_455 S
O1076 C1078 1.247 . S
O1077 Cd1073 2.439 1_455 S
O1077 C1078 1.208 . S
C1078 O1076 1.247 . S
C1078 O1077 1.208 . S
C1079 O1084 1.247 . S
C1079 O1085 1.208 . S
C1080 O1072 1.315 . S
C1080 O1075 1.279 1_655 S
C1081 O1082 1.315 . S
C1081 O1083 1.279 . S
O1082 Cd1074 2.223 1_655 S
O1082 C1081 1.315 . S
O1083 Cd1073 2.240 . S
O1083 C1081 1.279 . S
O1084 Cd1074 2.297 . S
O1084 C1079 1.247 . S
O1085 Cd1074 2.439 . S
O1085 C1079 1.208 . S
O1086 Cd1087 2.223 . S
O1086 C1094 1.315 . S
Cd1087 O1086 2.223 . S
Cd1087 O1090 2.297 . S
Cd1087 O1091 2.439 . S
Cd1087 O1097 2.240 . S
Cd1088 O1089 2.240 . S
Cd1088 O1096 2.223 . S
Cd1088 O1098 2.297 . S
Cd1088 O1099 2.439 . S
O1089 Cd1088 2.240 . S
O1089 C1094 1.279 . S
O1090 Cd1087 2.297 . S
O1090 C1092 1.247 . S
O1091 Cd1087 2.439 . S
O1091 C1092 1.208 . S
C1092 O1090 1.247 . S
C1092 O1091 1.208 . S
C1093 O1098 1.247 . S
C1093 O1099 1.208 . S
C1094 O1086 1.315 . S
C1094 O1089 1.279 . S
C1095 O1096 1.315 . S
C1095 O1097 1.279 . S
O1096 Cd1088 2.223 . S
O1096 C1095 1.315 . S
O1097 Cd1087 2.240 . S
O1097 C1095 1.279 . S
O1098 Cd1088 2.297 . S
O1098 C1093 1.247 . S
O1099 Cd1088 2.439 . S
O1099 C1093 1.208 . S
O1100 Cd1101 2.223 1_655 S
O1100 C1108 1.315 . S
Cd1101 O1100 2.223 1_455 S
Cd1101 O1104 2.297 . S
Cd1101 O1105 2.439 . S
Cd1101 O1111 2.240 . S
Cd1102 O1103 2.240 . S
Cd1102 O1110 2.223 . S
Cd1102 O1112 2.297 1_655 S
Cd1102 O1113 2.439 1_655 S
O1103 Cd1102 2.240 . S
O1103 C1108 1.279 . S
O1104 Cd1101 2.297 . S
O1104 C1106 1.247 . S
O1105 Cd1101 2.439 . S
O1105 C1106 1.208 . S
C1106 O1104 1.247 . S
C1106 O1105 1.208 . S
C1107 O1112 1.247 . S
C1107 O1113 1.208 . S
C1108 O1100 1.315 . S
C1108 O1103 1.279 . S
C1109 O1110 1.315 . S
C1109 O1111 1.279 1_655 S
O1110 Cd1102 2.223 . S
O1110 C1109 1.315 . S
O1111 Cd1101 2.240 . S
O1111 C1109 1.279 1_455 S
O1112 Cd1102 2.297 1_455 S
O1112 C1107 1.247 . S
O1113 Cd1102 2.439 1_455 S
O1113 C1107 1.208 . S
O1114 Cd1115 2.223 . S
O1114 C1122 1.315 . S
Cd1115 O1114 2.223 . S
Cd1115 O1118 2.297 . S
Cd1115 O1119 2.439 . S
Cd1115 O1125 2.240 . S
Cd1116 O1117 2.240 . S
Cd1116 O1124 2.223 . S
Cd1116 O1126 2.297 . S
Cd1116 O1127 2.439 . S
O1117 Cd1116 2.240 . S
O1117 C1122 1.279 . S
O1118 Cd1115 2.297 . S
O1118 C1120 1.247 . S
O1119 Cd1115 2.439 . S
O1119 C1120 1.208 . S
C1120 O1118 1.247 . S
C1120 O1119 1.208 . S
C1121 O1126 1.247 . S
C1121 O1127 1.208 . S
C1122 O1114 1.315 . S
C1122 O1117 1.279 . S
C1123 O1124 1.315 . S
C1123 O1125 1.279 . S
O1124 Cd1116 2.223 . S
O1124 C1123 1.315 . S
O1125 Cd1115 2.240 . S
O1125 C1123 1.279 . S
O1126 Cd1116 2.297 . S
O1126 C1121 1.247 . S
O1127 Cd1116 2.439 . S
O1127 C1121 1.208 . S
C1128 C1129 1.363 . S
C1128 C1134 1.379 . S
C1128 N1136 1.356 . S
C1129 C1128 1.363 . S
C1129 C1135 1.363 . S
C1130 C1131 1.363 . S
C1130 C1135 1.379 . S
C1130 N1137 1.356 . S
C1131 C1130 1.363 . S
C1131 C1134 1.363 . S
N1132 C1134 1.356 1_554 S
N1132 H1144 0.984 . S
N1132 H1145 0.985 . S
N1133 C1135 1.356 . S
N1133 H1138 0.984 . S
N1133 H1139 0.985 . S
C1134 C1128 1.379 . S
C1134 C1131 1.363 . S
C1134 N1132 1.356 1_556 S
C1135 C1129 1.363 . S
C1135 C1130 1.379 . S
C1135 N1133 1.356 . S
N1136 C1128 1.356 . S
N1136 H1142 0.984 . S
N1136 H1143 0.984 . S
N1137 C1130 1.356 . S
N1137 H1140 0.984 . S
N1137 H1141 0.985 . S
H1138 N1133 0.984 . S
H1139 N1133 0.985 . S
H1140 N1137 0.984 . S
H1141 N1137 0.985 . S
H1142 N1136 0.984 . S
H1143 N1136 0.984 . S
H1144 N1132 0.984 . S
H1145 N1132 0.985 . S
C1146 C1147 1.363 . S
C1146 C1152 1.379 . S
C1146 N1154 1.372 . S
C1147 C1146 1.363 . S
C1147 C1153 1.363 . S
C1148 C1149 1.363 . S
C1148 C1153 1.379 . S
C1148 N1155 1.356 . S
C1149 C1148 1.363 . S
C1149 C1152 1.363 . S
N1150 C1152 1.356 . S
N1150 H1162 0.984 . S
N1150 H1163 0.985 . S
N1151 C1153 1.356 . S
N1151 H1156 0.984 1_455 S
N1151 H1157 0.985 . S
C1152 C1146 1.379 . S
C1152 C1149 1.363 . S
C1152 N1150 1.356 . S
C1153 C1147 1.363 . S
C1153 C1148 1.379 . S
C1153 N1151 1.356 . S
N1154 C1146 1.372 . S
N1154 H1160 0.987 . S
N1154 H1161 0.967 1_455 S
N1155 C1148 1.356 . S
N1155 H1158 0.984 . S
N1155 H1159 0.985 . S
H1156 N1151 0.984 1_655 S
H1157 N1151 0.985 . S
H1158 N1155 0.984 . S
H1159 N1155 0.985 . S
H1160 N1154 0.987 . S
H1161 N1154 0.967 1_655 S
H1162 N1150 0.984 . S
H1163 N1150 0.985 . S
C1164 C1165 1.363 . S
C1164 C1170 1.379 . S
C1164 N1172 1.356 . S
C1165 C1164 1.363 . S
C1165 C1171 1.363 . S
C1166 C1167 1.363 . S
C1166 C1171 1.379 . S
C1166 N1173 1.356 . S
C1167 C1166 1.363 . S
C1167 C1170 1.363 . S
N1168 C1170 1.356 . S
N1168 H1180 0.984 . S
N1168 H1181 0.985 . S
N1169 C1171 1.356 . S
N1169 H1174 0.984 . S
N1169 H1175 0.985 . S
C1170 C1164 1.379 . S
C1170 C1167 1.363 . S
C1170 N1168 1.356 . S
C1171 C1165 1.363 . S
C1171 C1166 1.379 . S
C1171 N1169 1.356 . S
N1172 C1164 1.356 . S
N1172 H1178 0.984 . S
N1172 H1179 0.984 . S
N1173 C1166 1.356 . S
N1173 H1176 0.984 . S
N1173 H1177 0.985 . S
H1174 N1169 0.984 . S
H1175 N1169 0.985 . S
H1176 N1173 0.984 . S
H1177 N1173 0.985 . S
H1178 N1172 0.984 . S
H1179 N1172 0.984 . S
H1180 N1168 0.984 . S
H1181 N1168 0.985 . S
C1182 C1183 1.363 1_545 S
C1182 C1188 1.379 . S
C1182 N1190 1.356 1_655 S
C1183 C1182 1.363 1_565 S
C1183 C1189 1.363 . S
C1184 C1185 1.363 1_565 S
C1184 C1189 1.379 . S
C1184 N1191 1.356 . S
C1185 C1184 1.363 1_545 S
C1185 C1188 1.363 . S
N1186 C1188 1.356 . S
N1186 H1198 0.984 . S
N1186 H1199 0.985 . S
N1187 C1189 1.356 . S
N1187 H1192 0.984 . S
N1187 H1193 0.985 . S
C1188 C1182 1.379 . S
C1188 C1185 1.363 . S
C1188 N1186 1.356 . S
C1189 C1183 1.363 . S
C1189 C1184 1.379 . S
C1189 N1187 1.356 . S
N1190 C1182 1.356 1_455 S
N1190 H1196 0.984 . S
N1190 H1197 0.984 . S
N1191 C1184 1.356 . S
N1191 H1194 0.984 . S
N1191 H1195 0.985 . S
H1192 N1187 0.984 . S
H1193 N1187 0.985 . S
H1194 N1191 0.984 . S
H1195 N1191 0.985 . S
H1196 N1190 0.984 . S
H1197 N1190 0.984 . S
H1198 N1186 0.984 . S
H1199 N1186 0.985 . S
C1200 C1201 1.363 . S
C1200 C1206 1.379 . S
C1200 N1208 1.356 . S
C1201 C1200 1.363 . S
C1201 C1207 1.363 . S
C1202 C1203 1.363 . S
C1202 C1207 1.379 . S
C1202 N1209 1.356 . S
C1203 C1202 1.363 . S
C1203 C1206 1.363 . S
N1204 C1206 1.356 . S
N1204 H1216 0.984 . S
N1204 H1217 0.985 . S
N1205 C1207 1.356 . S
N1205 H1210 0.984 . S
N1205 H1211 0.985 . S
C1206 C1200 1.379 . S
C1206 C1203 1.363 . S
C1206 N1204 1.356 . S
C1207 C1201 1.363 . S
C1207 C1202 1.379 . S
C1207 N1205 1.356 . S
N1208 C1200 1.356 . S
N1208 H1214 0.984 . S
N1208 H1215 0.984 . S
N1209 C1202 1.356 . S
N1209 H1212 0.984 . S
N1209 H1213 0.985 . S
H1210 N1205 0.984 . S
H1211 N1205 0.985 . S
H1212 N1209 0.984 . S
H1213 N1209 0.985 . S
H1214 N1208 0.984 . S
H1215 N1208 0.984 . S
H1216 N1204 0.984 . S
H1217 N1204 0.985 . S
C1218 C1219 1.363 . S
C1218 C1224 1.379 . S
C1218 N1226 1.356 . S
C1219 C1218 1.363 . S
C1219 C1225 1.363 . S
C1220 C1221 1.363 . S
C1220 C1225 1.379 . S
C1220 N1227 1.356 . S
C1221 C1220 1.363 . S
C1221 C1224 1.363 . S
N1222 C1224 1.356 . S
N1222 H1234 0.984 . S
N1222 H1235 0.985 . S
N1223 C1225 1.356 . S
N1223 H1228 0.984 . S
N1223 H1229 0.985 . S
C1224 C1218 1.379 . S
C1224 C1221 1.363 . S
C1224 N1222 1.356 . S
C1225 C1219 1.363 . S
C1225 C1220 1.379 . S
C1225 N1223 1.356 . S
N1226 C1218 1.356 . S
N1226 H1232 0.984 . S
N1226 H1233 0.984 . S
N1227 C1220 1.356 . S
N1227 H1230 0.984 . S
N1227 H1231 0.985 . S
H1228 N1223 0.984 . S
H1229 N1223 0.985 . S
H1230 N1227 0.984 . S
H1231 N1227 0.985 . S
H1232 N1226 0.984 . S
H1233 N1226 0.984 . S
H1234 N1222 0.984 . S
H1235 N1222 0.985 . S
C1236 C1237 1.363 . S
C1236 C1242 1.379 . S
C1236 N1244 1.356 . S
C1237 C1236 1.363 . S
C1237 C1243 1.363 . S
C1238 C1239 1.363 . S
C1238 C1243 1.379 . S
C1238 N1245 1.356 . S
C1239 C1238 1.363 . S
C1239 C1242 1.363 . S
N1240 C1242 1.356 . S
N1240 H1252 0.984 . S
N1240 H1253 0.985 . S
N1241 C1243 1.356 . S
N1241 H1246 0.984 . S
N1241 H1247 0.985 . S
C1242 C1236 1.379 . S
C1242 C1239 1.363 . S
C1242 N1240 1.356 . S
C1243 C1237 1.363 . S
C1243 C1238 1.379 . S
C1243 N1241 1.356 . S
N1244 C1236 1.356 . S
N1244 H1250 0.984 . S
N1244 H1251 0.984 . S
N1245 C1238 1.356 . S
N1245 H1248 0.984 . S
N1245 H1249 0.985 . S
H1246 N1241 0.984 . S
H1247 N1241 0.985 . S
H1248 N1245 0.984 . S
H1249 N1245 0.985 . S
H1250 N1244 0.984 . S
H1251 N1244 0.984 . S
H1252 N1240 0.984 . S
H1253 N1240 0.985 . S
C1254 C1255 1.363 . S
C1254 C1260 1.379 . S
C1254 N1262 1.356 . S
C1255 C1254 1.363 . S
C1255 C1261 1.363 . S
C1256 C1257 1.363 . S
C1256 C1261 1.379 . S
C1256 N1263 1.356 . S
C1257 C1256 1.363 . S
C1257 C1260 1.363 . S
N1258 C1260 1.356 . S
N1258 H1270 0.984 . S
N1258 H1271 0.985 . S
N1259 C1261 1.356 . S
N1259 H1264 0.984 . S
N1259 H1265 0.985 . S
C1260 C1254 1.379 . S
C1260 C1257 1.363 . S
C1260 N1258 1.356 . S
C1261 C1255 1.363 . S
C1261 C1256 1.379 . S
C1261 N1259 1.356 . S
N1262 C1254 1.356 . S
N1262 H1268 0.984 . S
N1262 H1269 0.984 . S
N1263 C1256 1.356 . S
N1263 H1266 0.984 . S
N1263 H1267 0.985 . S
H1264 N1259 0.984 . S
H1265 N1259 0.985 . S
H1266 N1263 0.984 . S
H1267 N1263 0.985 . S
H1268 N1262 0.984 . S
H1269 N1262 0.984 . S
H1270 N1258 0.984 . S
H1271 N1258 0.985 . S
C1272 C1273 1.363 . S
C1272 C1278 1.379 . S
C1272 N1280 1.356 . S
C1273 C1272 1.363 . S
C1273 C1279 1.363 . S
C1274 C1275 1.363 . S
C1274 C1279 1.379 . S
C1274 N1281 1.356 . S
C1275 C1274 1.363 . S
C1275 C1278 1.363 . S
N1276 C1278 1.356 . S
N1276 H1288 0.984 . S
N1276 H1289 0.985 . S
N1277 C1279 1.356 . S
N1277 H1282 0.984 . S
N1277 H1283 0.985 . S
C1278 C1272 1.379 . S
C1278 C1275 1.363 . S
C1278 N1276 1.356 . S
C1279 C1273 1.363 . S
C1279 C1274 1.379 . S
C1279 N1277 1.356 . S
N1280 C1272 1.356 . S
N1280 H1286 0.984 . S
N1280 H1287 0.984 . S
N1281 C1274 1.356 . S
N1281 H1284 0.984 . S
N1281 H1285 0.985 . S
H1282 N1277 0.984 . S
H1283 N1277 0.985 . S
H1284 N1281 0.984 . S
H1285 N1281 0.985 . S
H1286 N1280 0.984 . S
H1287 N1280 0.984 . S
H1288 N1276 0.984 . S
H1289 N1276 0.985 . S
C1290 C1291 1.363 . S
C1290 C1296 1.379 . S
C1290 N1298 1.356 . S
C1291 C1290 1.363 . S
C1291 C1297 1.363 . S
C1292 C1293 1.363 . S
C1292 C1297 1.379 . S
C1292 N1299 1.356 . S
C1293 C1292 1.363 . S
C1293 C1296 1.363 . S
N1294 C1296 1.356 . S
N1294 H1306 0.984 . S
N1294 H1307 0.985 . S
N1295 C1297 1.356 . S
N1295 H1300 0.984 . S
N1295 H1301 0.985 . S
C1296 C1290 1.379 . S
C1296 C1293 1.363 . S
C1296 N1294 1.356 . S
C1297 C1291 1.363 . S
C1297 C1292 1.379 . S
C1297 N1295 1.356 . S
N1298 C1290 1.356 . S
N1298 H1304 0.984 . S
N1298 H1305 0.984 . S
N1299 C1292 1.356 . S
N1299 H1302 0.984 . S
N1299 H1303 0.985 . S
H1300 N1295 0.984 . S
H1301 N1295 0.985 . S
H1302 N1299 0.984 . S
H1303 N1299 0.985 . S
H1304 N1298 0.984 . S
H1305 N1298 0.984 . S
H1306 N1294 0.984 . S
H1307 N1294 0.985 . S
C1308 C1309 1.363 . S
C1308 C1314 1.379 . S
C1308 N1316 1.356 . S
C1309 C1308 1.363 . S
C1309 C1315 1.363 . S
C1310 C1311 1.363 . S
C1310 C1315 1.379 . S
C1310 N1317 1.356 . S
C1311 C1310 1.363 . S
C1311 C1314 1.363 . S
N1312 C1314 1.356 . S
N1312 H1324 0.984 . S
N1312 H1325 0.985 . S
N1313 C1315 1.356 . S
N1313 H1318 0.984 . S
N1313 H1319 0.985 . S
C1314 C1308 1.379 . S
C1314 C1311 1.363 . S
C1314 N1312 1.356 . S
C1315 C1309 1.363 . S
C1315 C1310 1.379 . S
C1315 N1313 1.356 . S
N1316 C1308 1.356 . S
N1316 H1322 0.984 . S
N1316 H1323 0.984 . S
N1317 C1310 1.356 . S
N1317 H1320 0.984 . S
N1317 H1321 0.985 . S
H1318 N1313 0.984 . S
H1319 N1313 0.985 . S
H1320 N1317 0.984 . S
H1321 N1317 0.985 . S
H1322 N1316 0.984 . S
H1323 N1316 0.984 . S
H1324 N1312 0.984 . S
H1325 N1312 0.985 . S
C1326 C1327 1.363 . S
C1326 C1332 1.379 . S
C1326 N1334 1.356 . S
C1327 C1326 1.363 . S
C1327 C1333 1.363 . S
C1328 C1329 1.363 . S
C1328 C1333 1.379 . S
C1328 N1335 1.356 . S
C1329 C1328 1.363 . S
C1329 C1332 1.363 . S
N1330 C1332 1.356 . S
N1330 H1342 0.984 . S
N1330 H1343 0.985 . S
N1331 C1333 1.356 . S
N1331 H1336 0.984 . S
N1331 H1337 0.985 . S
C1332 C1326 1.379 . S
C1332 C1329 1.363 . S
C1332 N1330 1.356 . S
C1333 C1327 1.363 . S
C1333 C1328 1.379 . S
C1333 N1331 1.356 . S
N1334 C1326 1.356 . S
N1334 H1340 0.984 . S
N1334 H1341 0.984 . S
N1335 C1328 1.356 . S
N1335 H1338 0.984 . S
N1335 H1339 0.985 . S
H1336 N1331 0.984 . S
H1337 N1331 0.985 . S
H1338 N1335 0.984 . S
H1339 N1335 0.985 . S
H1340 N1334 0.984 . S
H1341 N1334 0.984 . S
H1342 N1330 0.984 . S
H1343 N1330 0.985 . S
C1344 C1345 1.363 . S
C1344 C1350 1.379 . S
C1344 N1352 1.356 . S
C1345 C1344 1.363 . S
C1345 C1351 1.363 . S
C1346 C1347 1.363 . S
C1346 C1351 1.379 . S
C1346 N1353 1.356 . S
C1347 C1346 1.363 . S
C1347 C1350 1.363 . S
N1348 C1350 1.356 . S
N1348 H1360 0.984 . S
N1348 H1361 0.985 . S
N1349 C1351 1.356 . S
N1349 H1354 0.984 . S
N1349 H1355 0.985 . S
C1350 C1344 1.379 . S
C1350 C1347 1.363 . S
C1350 N1348 1.356 . S
C1351 C1345 1.363 . S
C1351 C1346 1.379 . S
C1351 N1349 1.356 . S
N1352 C1344 1.356 . S
N1352 H1358 0.984 . S
N1352 H1359 0.984 . S
N1353 C1346 1.356 . S
N1353 H1356 0.984 . S
N1353 H1357 0.985 . S
H1354 N1349 0.984 . S
H1355 N1349 0.985 . S
H1356 N1353 0.984 . S
H1357 N1353 0.985 . S
H1358 N1352 0.984 . S
H1359 N1352 0.984 . S
H1360 N1348 0.984 . S
H1361 N1348 0.985 . S
C1362 C1363 1.363 . S
C1362 C1368 1.379 . S
C1362 N1370 1.356 . S
C1363 C1362 1.363 . S
C1363 C1369 1.363 . S
C1364 C1365 1.363 . S
C1364 C1369 1.379 . S
C1364 N1371 1.356 . S
C1365 C1364 1.363 . S
C1365 C1368 1.363 . S
N1366 C1368 1.356 . S
N1366 H1378 0.984 . S
N1366 H1379 0.985 . S
N1367 C1369 1.356 . S
N1367 H1372 0.984 . S
N1367 H1373 0.985 . S
C1368 C1362 1.379 . S
C1368 C1365 1.363 . S
C1368 N1366 1.356 . S
C1369 C1363 1.363 . S
C1369 C1364 1.379 . S
C1369 N1367 1.356 . S
N1370 C1362 1.356 . S
N1370 H1376 0.984 . S
N1370 H1377 0.984 . S
N1371 C1364 1.356 . S
N1371 H1374 0.984 . S
N1371 H1375 0.985 1_455 S
H1372 N1367 0.984 . S
H1373 N1367 0.985 . S
H1374 N1371 0.984 . S
H1375 N1371 0.985 1_655 S
H1376 N1370 0.984 . S
H1377 N1370 0.984 . S
H1378 N1366 0.984 . S
H1379 N1366 0.985 . S
C1380 C1381 1.363 . S
C1380 C1386 1.379 . S
C1380 N1388 1.356 . S
C1381 C1380 1.363 . S
C1381 C1387 1.363 . S
C1382 C1383 1.363 . S
C1382 C1387 1.379 . S
C1382 N1389 1.356 . S
C1383 C1382 1.363 . S
C1383 C1386 1.363 . S
N1384 C1386 1.356 . S
N1384 H1396 0.984 . S
N1384 H1397 0.985 . S
N1385 C1387 1.356 . S
N1385 H1390 0.984 . S
N1385 H1391 0.985 . S
C1386 C1380 1.379 . S
C1386 C1383 1.363 . S
C1386 N1384 1.356 . S
C1387 C1381 1.363 . S
C1387 C1382 1.379 . S
C1387 N1385 1.356 . S
N1388 C1380 1.356 . S
N1388 H1394 0.984 . S
N1388 H1395 0.984 . S
N1389 C1382 1.356 . S
N1389 H1392 0.984 . S
N1389 H1393 0.985 . S
H1390 N1385 0.984 . S
H1391 N1385 0.985 . S
H1392 N1389 0.984 . S
H1393 N1389 0.985 . S
H1394 N1388 0.984 . S
H1395 N1388 0.984 . S
H1396 N1384 0.984 . S
H1397 N1384 0.985 . S
C1398 C1399 1.363 . S
C1398 C1404 1.379 . S
C1398 N1406 1.356 . S
C1399 C1398 1.363 . S
C1399 C1405 1.363 . S
C1400 C1401 1.363 . S
C1400 C1405 1.379 . S
C1400 N1407 1.374 . S
C1401 C1400 1.363 . S
C1401 C1404 1.363 . S
N1402 C1404 1.356 . S
N1402 H1414 0.984 . S
N1402 H1415 0.985 . S
N1403 C1405 1.356 . S
N1403 H1408 0.984 . S
N1403 H1409 0.985 . S
C1404 C1398 1.379 . S
C1404 C1401 1.363 . S
C1404 N1402 1.356 . S
C1405 C1399 1.363 . S
C1405 C1400 1.379 . S
C1405 N1403 1.356 . S
N1406 C1398 1.356 . S
N1406 H1412 0.984 . S
N1406 H1413 0.984 . S
N1407 C1400 1.374 . S
N1407 H1410 0.983 1_655 S
N1407 H1411 0.969 1_655 S
H1408 N1403 0.984 . S
H1409 N1403 0.985 . S
H1410 N1407 0.983 1_455 S
H1411 N1407 0.969 1_455 S
H1412 N1406 0.984 . S
H1413 N1406 0.984 . S
H1414 N1402 0.984 . S
H1415 N1402 0.985 . S
C1416 C1417 1.363 . S
C1416 C1422 1.379 . S
C1416 N1424 1.356 . S
C1417 C1416 1.363 . S
C1417 C1423 1.363 . S
C1418 C1419 1.363 . S
C1418 C1423 1.379 . S
C1418 N1425 1.356 . S
C1419 C1418 1.363 . S
C1419 C1422 1.363 . S
N1420 C1422 1.356 1_545 S
N1420 H1432 0.984 . S
N1420 H1433 0.985 . S
N1421 C1423 1.356 . S
N1421 H1426 0.984 . S
N1421 H1427 0.985 . S
C1422 C1416 1.379 . S
C1422 C1419 1.363 . S
C1422 N1420 1.356 1_565 S
C1423 C1417 1.363 . S
C1423 C1418 1.379 . S
C1423 N1421 1.356 . S
N1424 C1416 1.356 . S
N1424 H1430 0.984 . S
N1424 H1431 0.984 . S
N1425 C1418 1.356 . S
N1425 H1428 0.984 . S
N1425 H1429 0.985 . S
H1426 N1421 0.984 . S
H1427 N1421 0.985 . S
H1428 N1425 0.984 . S
H1429 N1425 0.985 . S
H1430 N1424 0.984 . S
H1431 N1424 0.984 . S
H1432 N1420 0.984 . S
H1433 N1420 0.985 . S
C1434 C1435 1.363 . S
C1434 C1440 1.379 . S
C1434 N1442 1.356 . S
C1435 C1434 1.363 . S
C1435 C1441 1.363 . S
C1436 C1437 1.363 . S
C1436 C1441 1.379 . S
C1436 N1443 1.356 . S
C1437 C1436 1.363 . S
C1437 C1440 1.363 . S
N1438 C1440 1.356 . S
N1438 H1450 0.984 . S
N1438 H1451 0.985 . S
N1439 C1441 1.356 . S
N1439 H1444 0.984 . S
N1439 H1445 0.985 . S
C1440 C1434 1.379 . S
C1440 C1437 1.363 . S
C1440 N1438 1.356 . S
C1441 C1435 1.363 . S
C1441 C1436 1.379 . S
C1441 N1439 1.356 . S
N1442 C1434 1.356 . S
N1442 H1448 0.984 . S
N1442 H1449 0.984 . S
N1443 C1436 1.356 . S
N1443 H1446 0.984 . S
N1443 H1447 0.985 . S
H1444 N1439 0.984 . S
H1445 N1439 0.985 . S
H1446 N1443 0.984 . S
H1447 N1443 0.985 . S
H1448 N1442 0.984 . S
H1449 N1442 0.984 . S
H1450 N1438 0.984 . S
H1451 N1438 0.985 . S
C1452 C1453 1.363 1_565 S
C1452 C1458 1.379 . S
C1452 N1460 1.356 1_565 S
C1453 C1452 1.363 1_545 S
C1453 C1459 1.363 1_556 S
C1454 C1455 1.363 . S
C1454 C1459 1.379 1_565 S
C1454 N1461 1.356 . S
C1455 C1454 1.363 . S
C1455 C1458 1.363 1_554 S
N1456 C1458 1.356 . S
N1456 H1468 0.984 . S
N1456 H1469 0.985 . S
N1457 C1459 1.356 . S
N1457 H1462 0.984 1_554 S
N1457 H1463 0.985 . S
C1458 C1452 1.379 . S
C1458 C1455 1.363 1_556 S
C1458 N1456 1.356 . S
C1459 C1453 1.363 1_554 S
C1459 C1454 1.379 1_545 S
C1459 N1457 1.356 . S
N1460 C1452 1.356 1_545 S
N1460 H1466 0.984 1_545 S
N1460 H1467 0.984 . S
N1461 C1454 1.356 . S
N1461 H1464 0.984 . S
N1461 H1465 0.985 . S
H1462 N1457 0.984 1_556 S
H1463 N1457 0.985 . S
H1464 N1461 0.984 . S
H1465 N1461 0.985 . S
H1466 N1460 0.984 1_565 S
H1467 N1460 0.984 . S
H1468 N1456 0.984 . S
H1469 N1456 0.985 . S
C1470 C1471 1.363 . S
C1470 C1476 1.379 . S
C1470 N1478 1.356 . S
C1471 C1470 1.363 . S
C1471 C1477 1.363 . S
C1472 C1473 1.363 . S
C1472 C1477 1.379 . S
C1472 N1479 1.356 . S
C1473 C1472 1.363 . S
C1473 C1476 1.363 . S
N1474 C1476 1.356 . S
N1474 H1486 0.984 . S
N1474 H1487 0.985 . S
N1475 C1477 1.356 . S
N1475 H1480 0.984 . S
N1475 H1481 0.985 . S
C1476 C1470 1.379 . S
C1476 C1473 1.363 . S
C1476 N1474 1.356 . S
C1477 C1471 1.363 . S
C1477 C1472 1.379 . S
C1477 N1475 1.356 . S
N1478 C1470 1.356 . S
N1478 H1484 0.984 . S
N1478 H1485 0.984 . S
N1479 C1472 1.356 . S
N1479 H1482 0.984 . S
N1479 H1483 0.985 . S
H1480 N1475 0.984 . S
H1481 N1475 0.985 . S
H1482 N1479 0.984 . S
H1483 N1479 0.985 . S
H1484 N1478 0.984 . S
H1485 N1478 0.984 . S
H1486 N1474 0.984 . S
H1487 N1474 0.985 . S
C1488 C1489 1.363 . S
C1488 C1494 1.379 . S
C1488 N1496 1.356 . S
C1489 C1488 1.363 . S
C1489 C1495 1.363 . S
C1490 C1491 1.363 . S
C1490 C1495 1.379 . S
C1490 N1497 1.356 . S
C1491 C1490 1.363 . S
C1491 C1494 1.363 . S
N1492 C1494 1.356 . S
N1492 H1504 0.984 . S
N1492 H1505 0.985 . S
N1493 C1495 1.356 . S
N1493 H1498 0.984 . S
N1493 H1499 0.985 . S
C1494 C1488 1.379 . S
C1494 C1491 1.363 . S
C1494 N1492 1.356 . S
C1495 C1489 1.363 . S
C1495 C1490 1.379 . S
C1495 N1493 1.356 . S
N1496 C1488 1.356 . S
N1496 H1502 0.984 . S
N1496 H1503 0.984 . S
N1497 C1490 1.356 . S
N1497 H1500 0.984 . S
N1497 H1501 0.985 . S
H1498 N1493 0.984 . S
H1499 N1493 0.985 . S
H1500 N1497 0.984 . S
H1501 N1497 0.985 . S
H1502 N1496 0.984 . S
H1503 N1496 0.984 . S
H1504 N1492 0.984 . S
H1505 N1492 0.985 . S
C1506 C1507 1.363 . S
C1506 C1512 1.379 . S
C1506 N1514 1.356 . S
C1507 C1506 1.363 . S
C1507 C1513 1.363 . S
C1508 C1509 1.363 . S
C1508 C1513 1.379 . S
C1508 N1515 1.356 . S
C1509 C1508 1.363 . S
C1509 C1512 1.363 . S
N1510 C1512 1.356 . S
N1510 H1522 0.984 . S
N1510 H1523 0.985 . S
N1511 C1513 1.356 . S
N1511 H1516 0.984 . S
N1511 H1517 0.985 . S
C1512 C1506 1.379 . S
C1512 C1509 1.363 . S
C1512 N1510 1.356 . S
C1513 C1507 1.363 . S
C1513 C1508 1.379 . S
C1513 N1511 1.356 . S
N1514 C1506 1.356 . S
N1514 H1520 0.984 . S
N1514 H1521 0.984 . S
N1515 C1508 1.356 . S
N1515 H1518 0.984 . S
N1515 H1519 0.985 . S
H1516 N1511 0.984 . S
H1517 N1511 0.985 . S
H1518 N1515 0.984 . S
H1519 N1515 0.985 . S
H1520 N1514 0.984 . S
H1521 N1514 0.984 . S
H1522 N1510 0.984 . S
H1523 N1510 0.985 . S
C1524 C1525 1.363 . S
C1524 C1530 1.379 . S
C1524 N1532 1.356 . S
C1525 C1524 1.363 . S
C1525 C1531 1.363 . S
C1526 C1527 1.363 . S
C1526 C1531 1.379 . S
C1526 N1533 1.356 . S
C1527 C1526 1.363 . S
C1527 C1530 1.363 . S
N1528 C1530 1.356 . S
N1528 H1540 0.984 . S
N1528 H1541 0.985 . S
N1529 C1531 1.356 . S
N1529 H1534 0.984 1_545 S
N1529 H1535 0.985 . S
C1530 C1524 1.379 . S
C1530 C1527 1.363 . S
C1530 N1528 1.356 . S
C1531 C1525 1.363 . S
C1531 C1526 1.379 . S
C1531 N1529 1.356 . S
N1532 C1524 1.356 . S
N1532 H1538 0.984 . S
N1532 H1539 0.984 . S
N1533 C1526 1.356 . S
N1533 H1536 0.984 . S
N1533 H1537 0.985 . S
H1534 N1529 0.984 1_565 S
H1535 N1529 0.985 . S
H1536 N1533 0.984 . S
H1537 N1533 0.985 . S
H1538 N1532 0.984 . S
H1539 N1532 0.984 . S
H1540 N1528 0.984 . S
H1541 N1528 0.985 . S
C1542 C1543 1.363 . S
C1542 C1548 1.379 . S
C1542 N1550 1.356 . S
C1543 C1542 1.363 . S
C1543 C1549 1.363 . S
C1544 C1545 1.363 . S
C1544 C1549 1.379 . S
C1544 N1551 1.356 . S
C1545 C1544 1.363 . S
C1545 C1548 1.363 . S
N1546 C1548 1.356 . S
N1546 H1558 0.984 . S
N1546 H1559 0.985 . S
N1547 C1549 1.356 . S
N1547 H1552 0.984 . S
N1547 H1553 0.985 . S
C1548 C1542 1.379 . S
C1548 C1545 1.363 . S
C1548 N1546 1.356 . S
C1549 C1543 1.363 . S
C1549 C1544 1.379 . S
C1549 N1547 1.356 . S
N1550 C1542 1.356 . S
N1550 H1556 0.984 . S
N1550 H1557 0.984 . S
N1551 C1544 1.356 . S
N1551 H1554 0.984 . S
N1551 H1555 0.985 . S
H1552 N1547 0.984 . S
H1553 N1547 0.985 . S
H1554 N1551 0.984 . S
H1555 N1551 0.985 . S
H1556 N1550 0.984 . S
H1557 N1550 0.984 . S
H1558 N1546 0.984 . S
H1559 N1546 0.985 . S
C1560 C1561 1.363 . S
C1560 C1566 1.379 . S
C1560 N1568 1.356 . S
C1561 C1560 1.363 . S
C1561 C1567 1.363 . S
C1562 C1563 1.363 . S
C1562 C1567 1.379 . S
C1562 N1569 1.356 . S
C1563 C1562 1.363 . S
C1563 C1566 1.363 . S
N1564 C1566 1.356 . S
N1564 H1576 0.984 . S
N1564 H1577 0.985 . S
N1565 C1567 1.356 . S
N1565 H1570 0.984 . S
N1565 H1571 0.985 . S
C1566 C1560 1.379 . S
C1566 C1563 1.363 . S
C1566 N1564 1.356 . S
C1567 C1561 1.363 . S
C1567 C1562 1.379 . S
C1567 N1565 1.356 . S
N1568 C1560 1.356 . S
N1568 H1574 0.984 . S
N1568 H1575 0.984 . S
N1569 C1562 1.356 . S
N1569 H1572 0.984 . S
N1569 H1573 0.985 . S
H1570 N1565 0.984 . S
H1571 N1565 0.985 . S
H1572 N1569 0.984 . S
H1573 N1569 0.985 . S
H1574 N1568 0.984 . S
H1575 N1568 0.984 . S
H1576 N1564 0.984 . S
H1577 N1564 0.985 . S
C1578 C1579 1.363 . S
C1578 C1584 1.379 . S
C1578 N1586 1.356 . S
C1579 C1578 1.363 . S
C1579 C1585 1.363 . S
C1580 C1581 1.363 . S
C1580 C1585 1.379 . S
C1580 N1587 1.356 . S
C1581 C1580 1.363 . S
C1581 C1584 1.363 . S
N1582 C1584 1.356 . S
N1582 H1594 0.984 . S
N1582 H1595 0.985 . S
N1583 C1585 1.356 . S
N1583 H1588 0.984 . S
N1583 H1589 0.985 . S
C1584 C1578 1.379 . S
C1584 C1581 1.363 . S
C1584 N1582 1.356 . S
C1585 C1579 1.363 . S
C1585 C1580 1.379 . S
C1585 N1583 1.356 . S
N1586 C1578 1.356 . S
N1586 H1592 0.984 . S
N1586 H1593 0.984 . S
N1587 C1580 1.356 . S
N1587 H1590 0.984 . S
N1587 H1591 0.985 1_545 S
H1588 N1583 0.984 . S
H1589 N1583 0.985 . S
H1590 N1587 0.984 . S
H1591 N1587 0.985 1_565 S
H1592 N1586 0.984 . S
H1593 N1586 0.984 . S
H1594 N1582 0.984 . S
H1595 N1582 0.985 . S
C1596 C1597 1.363 . S
C1596 C1602 1.379 . S
C1596 N1604 1.356 . S
C1597 C1596 1.363 . S
C1597 C1603 1.363 . S
C1598 C1599 1.363 . S
C1598 C1603 1.379 . S
C1598 N1605 1.356 . S
C1599 C1598 1.363 . S
C1599 C1602 1.363 . S
N1600 C1602 1.356 . S
N1600 H1612 0.984 . S
N1600 H1613 0.985 . S
N1601 C1603 1.356 . S
N1601 H1606 0.984 . S
N1601 H1607 0.985 . S
C1602 C1596 1.379 . S
C1602 C1599 1.363 . S
C1602 N1600 1.356 . S
C1603 C1597 1.363 . S
C1603 C1598 1.379 . S
C1603 N1601 1.356 . S
N1604 C1596 1.356 . S
N1604 H1610 0.984 . S
N1604 H1611 0.984 . S
N1605 C1598 1.356 . S
N1605 H1608 0.984 . S
N1605 H1609 0.985 . S
H1606 N1601 0.984 . S
H1607 N1601 0.985 . S
H1608 N1605 0.984 . S
H1609 N1605 0.985 . S
H1610 N1604 0.984 . S
H1611 N1604 0.984 . S
H1612 N1600 0.984 . S
H1613 N1600 0.985 . S
C1614 C1615 1.363 . S
C1614 C1620 1.379 . S
C1614 N1622 1.356 . S
C1615 C1614 1.363 . S
C1615 C1621 1.363 . S
C1616 C1617 1.363 . S
C1616 C1621 1.379 . S
C1616 N1623 1.356 . S
C1617 C1616 1.363 . S
C1617 C1620 1.363 . S
N1618 C1620 1.356 . S
N1618 H1630 0.984 . S
N1618 H1631 0.985 . S
N1619 C1621 1.356 . S
N1619 H1624 0.984 . S
N1619 H1625 0.985 . S
C1620 C1614 1.379 . S
C1620 C1617 1.363 . S
C1620 N1618 1.356 . S
C1621 C1615 1.363 . S
C1621 C1616 1.379 . S
C1621 N1619 1.356 . S
N1622 C1614 1.356 . S
N1622 H1628 0.984 . S
N1622 H1629 0.984 . S
N1623 C1616 1.356 . S
N1623 H1626 0.984 . S
N1623 H1627 0.985 . S
H1624 N1619 0.984 . S
H1625 N1619 0.985 . S
H1626 N1623 0.984 . S
H1627 N1623 0.985 . S
H1628 N1622 0.984 . S
H1629 N1622 0.984 . S
H1630 N1618 0.984 . S
H1631 N1618 0.985 . S
C1632 C1633 1.363 . S
C1632 C1638 1.379 . S
C1632 N1640 1.356 . S
C1633 C1632 1.363 . S
C1633 C1639 1.363 . S
C1634 C1635 1.363 . S
C1634 C1639 1.379 . S
C1634 N1641 1.356 . S
C1635 C1634 1.363 . S
C1635 C1638 1.363 . S
N1636 C1638 1.356 . S
N1636 H1648 0.984 . S
N1636 H1649 0.985 . S
N1637 C1639 1.356 . S
N1637 H1642 0.984 . S
N1637 H1643 0.985 . S
C1638 C1632 1.379 . S
C1638 C1635 1.363 . S
C1638 N1636 1.356 . S
C1639 C1633 1.363 . S
C1639 C1634 1.379 . S
C1639 N1637 1.356 . S
N1640 C1632 1.356 . S
N1640 H1646 0.984 . S
N1640 H1647 0.984 . S
N1641 C1634 1.356 . S
N1641 H1644 0.984 . S
N1641 H1645 0.985 . S
H1642 N1637 0.984 . S
H1643 N1637 0.985 . S
H1644 N1641 0.984 . S
H1645 N1641 0.985 . S
H1646 N1640 0.984 . S
H1647 N1640 0.984 . S
H1648 N1636 0.984 . S
H1649 N1636 0.985 . S
C1650 C1651 1.363 1_655 S
C1650 C1656 1.379 . S
C1650 N1658 1.359 . S
C1651 C1650 1.363 1_455 S
C1651 C1657 1.363 . S
C1652 C1653 1.363 . S
C1652 C1657 1.379 1_655 S
C1652 N1659 1.356 . S
C1653 C1652 1.363 . S
C1653 C1656 1.363 . S
N1654 C1656 1.356 . S
N1654 H1666 0.984 . S
N1654 H1667 0.985 . S
N1655 C1657 1.356 . S
N1655 H1660 0.984 . S
N1655 H1661 0.985 . S
C1656 C1650 1.379 . S
C1656 C1653 1.363 . S
C1656 N1654 1.356 . S
C1657 C1651 1.363 . S
C1657 C1652 1.379 1_455 S
C1657 N1655 1.356 . S
N1658 C1650 1.359 . S
N1658 H1664 0.990 . S
N1658 H1665 0.976 1_655 S
N1659 C1652 1.356 . S
N1659 H1662 0.984 . S
N1659 H1663 0.985 . S
H1660 N1655 0.984 . S
H1661 N1655 0.985 . S
H1662 N1659 0.984 . S
H1663 N1659 0.985 . S
H1664 N1658 0.990 . S
H1665 N1658 0.976 1_455 S
H1666 N1654 0.984 . S
H1667 N1654 0.985 . S
C1668 C1669 1.363 . S
C1668 C1674 1.379 . S
C1668 N1676 1.356 . S
C1669 C1668 1.363 . S
C1669 C1675 1.363 . S
C1670 C1671 1.363 . S
C1670 C1675 1.379 . S
C1670 N1677 1.356 . S
C1671 C1670 1.363 . S
C1671 C1674 1.363 . S
N1672 C1674 1.356 . S
N1672 H1684 0.984 . S
N1672 H1685 0.985 . S
N1673 C1675 1.356 . S
N1673 H1678 0.984 . S
N1673 H1679 0.985 . S
C1674 C1668 1.379 . S
C1674 C1671 1.363 . S
C1674 N1672 1.356 . S
C1675 C1669 1.363 . S
C1675 C1670 1.379 . S
C1675 N1673 1.356 . S
N1676 C1668 1.356 . S
N1676 H1682 0.984 . S
N1676 H1683 0.984 . S
N1677 C1670 1.356 . S
N1677 H1680 0.984 . S
N1677 H1681 0.985 . S
H1678 N1673 0.984 . S
H1679 N1673 0.985 . S
H1680 N1677 0.984 . S
H1681 N1677 0.985 . S
H1682 N1676 0.984 . S
H1683 N1676 0.984 . S
H1684 N1672 0.984 . S
H1685 N1672 0.985 . S
C1686 C1687 1.363 . S
C1686 C1692 1.379 1_655 S
C1686 N1694 1.356 . S
C1687 C1686 1.363 . S
C1687 C1693 1.363 1_655 S
C1688 C1689 1.363 . S
C1688 C1693 1.379 . S
C1688 N1695 1.356 . S
C1689 C1688 1.363 . S
C1689 C1692 1.363 . S
N1690 C1692 1.356 . S
N1690 H1702 0.984 . S
N1690 H1703 0.985 . S
N1691 C1693 1.356 1_655 S
N1691 H1696 0.984 . S
N1691 H1697 0.985 1_655 S
C1692 C1686 1.379 1_455 S
C1692 C1689 1.363 . S
C1692 N1690 1.356 . S
C1693 C1687 1.363 1_455 S
C1693 C1688 1.379 . S
C1693 N1691 1.356 1_455 S
N1694 C1686 1.356 . S
N1694 H1700 0.984 . S
N1694 H1701 0.984 . S
N1695 C1688 1.356 . S
N1695 H1698 0.984 . S
N1695 H1699 0.985 . S
H1696 N1691 0.984 . S
H1697 N1691 0.985 1_455 S
H1698 N1695 0.984 . S
H1699 N1695 0.985 . S
H1700 N1694 0.984 . S
H1701 N1694 0.984 . S
H1702 N1690 0.984 . S
H1703 N1690 0.985 . S
C1704 C1705 1.363 . S
C1704 C1710 1.379 . S
C1704 N1712 1.356 . S
C1705 C1704 1.363 . S
C1705 C1711 1.363 . S
C1706 C1707 1.363 . S
C1706 C1711 1.379 . S
C1706 N1713 1.356 . S
C1707 C1706 1.363 . S
C1707 C1710 1.363 . S
N1708 C1710 1.356 . S
N1708 H1720 0.984 . S
N1708 H1721 0.985 . S
N1709 C1711 1.356 . S
N1709 H1714 0.984 . S
N1709 H1715 0.985 . S
C1710 C1704 1.379 . S
C1710 C1707 1.363 . S
C1710 N1708 1.356 . S
C1711 C1705 1.363 . S
C1711 C1706 1.379 . S
C1711 N1709 1.356 . S
N1712 C1704 1.356 . S
N1712 H1718 0.984 . S
N1712 H1719 0.984 . S
N1713 C1706 1.356 . S
N1713 H1716 0.984 . S
N1713 H1717 0.985 . S
H1714 N1709 0.984 . S
H1715 N1709 0.985 . S
H1716 N1713 0.984 . S
H1717 N1713 0.985 . S
H1718 N1712 0.984 . S
H1719 N1712 0.984 . S
H1720 N1708 0.984 . S
H1721 N1708 0.985 . S
C1722 C1723 1.363 . S
C1722 C1728 1.379 . S
C1722 N1730 1.356 1_556 S
C1723 C1722 1.363 . S
C1723 C1729 1.363 . S
C1724 C1725 1.363 . S
C1724 C1729 1.379 . S
C1724 N1731 1.356 . S
C1725 C1724 1.363 . S
C1725 C1728 1.363 . S
N1726 C1728 1.356 . S
N1726 H1738 0.984 . S
N1726 H1739 0.985 . S
N1727 C1729 1.356 . S
N1727 H1732 0.984 . S
N1727 H1733 0.985 . S
C1728 C1722 1.379 . S
C1728 C1725 1.363 . S
C1728 N1726 1.356 . S
C1729 C1723 1.363 . S
C1729 C1724 1.379 . S
C1729 N1727 1.356 . S
N1730 C1722 1.356 1_554 S
N1730 H1736 0.984 . S
N1730 H1737 0.984 . S
N1731 C1724 1.356 . S
N1731 H1734 0.984 . S
N1731 H1735 0.985 . S
H1732 N1727 0.984 . S
H1733 N1727 0.985 . S
H1734 N1731 0.984 . S
H1735 N1731 0.985 . S
H1736 N1730 0.984 . S
H1737 N1730 0.984 . S
H1738 N1726 0.984 . S
H1739 N1726 0.985 . S
C1740 C1741 1.363 . S
C1740 C1746 1.379 . S
C1740 N1748 1.356 . S
C1741 C1740 1.363 . S
C1741 C1747 1.363 . S
C1742 C1743 1.363 . S
C1742 C1747 1.379 . S
C1742 N1749 1.356 . S
C1743 C1742 1.363 . S
C1743 C1746 1.363 . S
N1744 C1746 1.356 . S
N1744 H1756 0.984 . S
N1744 H1757 0.985 . S
N1745 C1747 1.356 . S
N1745 H1750 0.984 . S
N1745 H1751 0.985 . S
C1746 C1740 1.379 . S
C1746 C1743 1.363 . S
C1746 N1744 1.356 . S
C1747 C1741 1.363 . S
C1747 C1742 1.379 . S
C1747 N1745 1.356 . S
N1748 C1740 1.356 . S
N1748 H1754 0.984 . S
N1748 H1755 0.984 . S
N1749 C1742 1.356 . S
N1749 H1752 0.984 . S
N1749 H1753 0.985 . S
H1750 N1745 0.984 . S
H1751 N1745 0.985 . S
H1752 N1749 0.984 . S
H1753 N1749 0.985 . S
H1754 N1748 0.984 . S
H1755 N1748 0.984 . S
H1756 N1744 0.984 . S
H1757 N1744 0.985 . S
C1758 C1759 1.363 . S
C1758 C1764 1.379 1_554 S
C1758 N1766 1.356 . S
C1759 C1758 1.363 . S
C1759 C1765 1.363 . S
C1760 C1761 1.363 . S
C1760 C1765 1.379 1_556 S
C1760 N1767 1.356 . S
C1761 C1760 1.363 . S
C1761 C1764 1.363 . S
N1762 C1764 1.356 . S
N1762 H1774 0.984 . S
N1762 H1775 0.985 . S
N1763 C1765 1.356 . S
N1763 H1768 0.984 . S
N1763 H1769 0.985 . S
C1764 C1758 1.379 1_556 S
C1764 C1761 1.363 . S
C1764 N1762 1.356 . S
C1765 C1759 1.363 . S
C1765 C1760 1.379 1_554 S
C1765 N1763 1.356 . S
N1766 C1758 1.356 . S
N1766 H1772 0.984 . S
N1766 H1773 0.984 . S
N1767 C1760 1.356 . S
N1767 H1770 0.984 . S
N1767 H1771 0.985 . S
H1768 N1763 0.984 . S
H1769 N1763 0.985 . S
H1770 N1767 0.984 . S
H1771 N1767 0.985 . S
H1772 N1766 0.984 . S
H1773 N1766 0.984 . S
H1774 N1762 0.984 . S
H1775 N1762 0.985 . S
C1776 C1777 1.363 . S
C1776 C1782 1.379 . S
C1776 N1784 1.356 . S
C1777 C1776 1.363 . S
C1777 C1783 1.363 . S
C1778 C1779 1.363 . S
C1778 C1783 1.379 . S
C1778 N1785 1.356 . S
C1779 C1778 1.363 . S
C1779 C1782 1.363 . S
N1780 C1782 1.356 . S
N1780 H1792 0.984 . S
N1780 H1793 0.985 . S
N1781 C1783 1.356 . S
N1781 H1786 0.984 . S
N1781 H1787 0.985 . S
C1782 C1776 1.379 . S
C1782 C1779 1.363 . S
C1782 N1780 1.356 . S
C1783 C1777 1.363 . S
C1783 C1778 1.379 . S
C1783 N1781 1.356 . S
N1784 C1776 1.356 . S
N1784 H1790 0.984 . S
N1784 H1791 0.984 . S
N1785 C1778 1.356 . S
N1785 H1788 0.984 . S
N1785 H1789 0.985 . S
H1786 N1781 0.984 . S
H1787 N1781 0.985 . S
H1788 N1785 0.984 . S
H1789 N1785 0.985 . S
H1790 N1784 0.984 . S
H1791 N1784 0.984 . S
H1792 N1780 0.984 . S
H1793 N1780 0.985 . S
C1794 C1795 1.363 . S
C1794 C1800 1.379 . S
C1794 N1802 1.356 1_554 S
C1795 C1794 1.363 . S
C1795 C1801 1.363 . S
C1796 C1797 1.363 . S
C1796 C1801 1.379 . S
C1796 N1803 1.356 . S
C1797 C1796 1.363 . S
C1797 C1800 1.363 . S
N1798 C1800 1.356 . S
N1798 H1810 0.984 . S
N1798 H1811 0.985 . S
N1799 C1801 1.356 . S
N1799 H1804 0.984 1_554 S
N1799 H1805 0.985 . S
C1800 C1794 1.379 . S
C1800 C1797 1.363 . S
C1800 N1798 1.356 . S
C1801 C1795 1.363 . S
C1801 C1796 1.379 . S
C1801 N1799 1.356 . S
N1802 C1794 1.356 1_556 S
N1802 H1808 0.984 . S
N1802 H1809 0.984 . S
N1803 C1796 1.356 . S
N1803 H1806 0.984 . S
N1803 H1807 0.985 . S
H1804 N1799 0.984 1_556 S
H1805 N1799 0.985 . S
H1806 N1803 0.984 . S
H1807 N1803 0.985 . S
H1808 N1802 0.984 . S
H1809 N1802 0.984 . S
H1810 N1798 0.984 . S
H1811 N1798 0.985 . S
C1812 C1813 1.363 . S
C1812 C1818 1.379 . S
C1812 N1820 1.356 . S
C1813 C1812 1.363 . S
C1813 C1819 1.363 . S
C1814 C1815 1.363 . S
C1814 C1819 1.379 . S
C1814 N1821 1.356 . S
C1815 C1814 1.363 . S
C1815 C1818 1.363 . S
N1816 C1818 1.356 . S
N1816 H1828 0.984 . S
N1816 H1829 0.985 . S
N1817 C1819 1.356 . S
N1817 H1822 0.984 . S
N1817 H1823 0.985 . S
C1818 C1812 1.379 . S
C1818 C1815 1.363 . S
C1818 N1816 1.356 . S
C1819 C1813 1.363 . S
C1819 C1814 1.379 . S
C1819 N1817 1.356 . S
N1820 C1812 1.356 . S
N1820 H1826 0.984 . S
N1820 H1827 0.984 . S
N1821 C1814 1.356 . S
N1821 H1824 0.984 . S
N1821 H1825 0.985 . S
H1822 N1817 0.984 . S
H1823 N1817 0.985 . S
H1824 N1821 0.984 . S
H1825 N1821 0.985 . S
H1826 N1820 0.984 . S
H1827 N1820 0.984 . S
H1828 N1816 0.984 . S
H1829 N1816 0.985 . S
C1830 C1831 1.363 . S
C1830 C1836 1.379 . S
C1830 N1838 1.356 . S
C1831 C1830 1.363 . S
C1831 C1837 1.363 . S
C1832 C1833 1.363 . S
C1832 C1837 1.379 . S
C1832 N1839 1.356 . S
C1833 C1832 1.363 . S
C1833 C1836 1.363 . S
N1834 C1836 1.356 . S
N1834 H1846 0.984 . S
N1834 H1847 0.985 . S
N1835 C1837 1.356 . S
N1835 H1840 0.984 . S
N1835 H1841 0.985 . S
C1836 C1830 1.379 . S
C1836 C1833 1.363 . S
C1836 N1834 1.356 . S
C1837 C1831 1.363 . S
C1837 C1832 1.379 . S
C1837 N1835 1.356 . S
N1838 C1830 1.356 . S
N1838 H1844 0.984 1_554 S
N1838 H1845 0.984 1_554 S
N1839 C1832 1.356 . S
N1839 H1842 0.984 . S
N1839 H1843 0.985 . S
H1840 N1835 0.984 . S
H1841 N1835 0.985 . S
H1842 N1839 0.984 . S
H1843 N1839 0.985 . S
H1844 N1838 0.984 1_556 S
H1845 N1838 0.984 1_556 S
H1846 N1834 0.984 . S
H1847 N1834 0.985 . S
C1848 C1849 1.363 . S
C1848 C1854 1.379 . S
C1848 N1856 1.356 . S
C1849 C1848 1.363 . S
C1849 C1855 1.363 . S
C1850 C1851 1.363 . S
C1850 C1855 1.379 . S
C1850 N1857 1.356 . S
C1851 C1850 1.363 . S
C1851 C1854 1.363 . S
N1852 C1854 1.356 . S
N1852 H1864 0.984 . S
N1852 H1865 0.985 . S
N1853 C1855 1.356 . S
N1853 H1858 0.984 . S
N1853 H1859 0.985 . S
C1854 C1848 1.379 . S
C1854 C1851 1.363 . S
C1854 N1852 1.356 . S
C1855 C1849 1.363 . S
C1855 C1850 1.379 . S
C1855 N1853 1.356 . S
N1856 C1848 1.356 . S
N1856 H1862 0.984 . S
N1856 H1863 0.984 . S
N1857 C1850 1.356 . S
N1857 H1860 0.984 . S
N1857 H1861 0.985 . S
H1858 N1853 0.984 . S
H1859 N1853 0.985 . S
H1860 N1857 0.984 . S
H1861 N1857 0.985 . S
H1862 N1856 0.984 . S
H1863 N1856 0.984 . S
H1864 N1852 0.984 . S
H1865 N1852 0.985 . S
C1866 C1867 1.363 . S
C1866 C1872 1.379 . S
C1866 N1874 1.356 . S
C1867 C1866 1.363 . S
C1867 C1873 1.363 . S
C1868 C1869 1.363 . S
C1868 C1873 1.379 . S
C1868 N1875 1.356 . S
C1869 C1868 1.363 . S
C1869 C1872 1.363 . S
N1870 C1872 1.356 . S
N1870 H1882 0.984 . S
N1870 H1883 0.985 . S
N1871 C1873 1.356 . S
N1871 H1876 0.984 . S
N1871 H1877 0.985 . S
C1872 C1866 1.379 . S
C1872 C1869 1.363 . S
C1872 N1870 1.356 . S
C1873 C1867 1.363 . S
C1873 C1868 1.379 . S
C1873 N1871 1.356 . S
N1874 C1866 1.356 . S
N1874 H1880 0.984 . S
N1874 H1881 0.984 . S
N1875 C1868 1.356 . S
N1875 H1878 0.984 . S
N1875 H1879 0.985 . S
H1876 N1871 0.984 . S
H1877 N1871 0.985 . S
H1878 N1875 0.984 . S
H1879 N1875 0.985 . S
H1880 N1874 0.984 . S
H1881 N1874 0.984 . S
H1882 N1870 0.984 . S
H1883 N1870 0.985 . S
C1884 C1885 1.363 . S
C1884 C1890 1.379 . S
C1884 N1892 1.356 . S
C1885 C1884 1.363 . S
C1885 C1891 1.363 . S
C1886 C1887 1.363 . S
C1886 C1891 1.379 . S
C1886 N1893 1.356 . S
C1887 C1886 1.363 . S
C1887 C1890 1.363 . S
N1888 C1890 1.356 . S
N1888 H1900 0.984 . S
N1888 H1901 0.985 . S
N1889 C1891 1.356 . S
N1889 H1894 0.984 . S
N1889 H1895 0.985 . S
C1890 C1884 1.379 . S
C1890 C1887 1.363 . S
C1890 N1888 1.356 . S
C1891 C1885 1.363 . S
C1891 C1886 1.379 . S
C1891 N1889 1.356 . S
N1892 C1884 1.356 . S
N1892 H1898 0.984 . S
N1892 H1899 0.984 . S
N1893 C1886 1.356 . S
N1893 H1896 0.984 . S
N1893 H1897 0.985 . S
H1894 N1889 0.984 . S
H1895 N1889 0.985 . S
H1896 N1893 0.984 . S
H1897 N1893 0.985 . S
H1898 N1892 0.984 . S
H1899 N1892 0.984 . S
H1900 N1888 0.984 . S
H1901 N1888 0.985 . S
C1902 C1903 1.363 . S
C1902 C1908 1.379 . S
C1902 N1910 1.356 . S
C1903 C1902 1.363 . S
C1903 C1909 1.363 . S
C1904 C1905 1.363 . S
C1904 C1909 1.379 . S
C1904 N1911 1.356 . S
C1905 C1904 1.363 . S
C1905 C1908 1.363 . S
N1906 C1908 1.356 . S
N1906 H1918 0.984 . S
N1906 H1919 0.985 . S
N1907 C1909 1.356 . S
N1907 H1912 0.984 . S
N1907 H1913 0.985 . S
C1908 C1902 1.379 . S
C1908 C1905 1.363 . S
C1908 N1906 1.356 . S
C1909 C1903 1.363 . S
C1909 C1904 1.379 . S
C1909 N1907 1.356 . S
N1910 C1902 1.356 . S
N1910 H1916 0.984 . S
N1910 H1917 0.984 . S
N1911 C1904 1.356 . S
N1911 H1914 0.984 . S
N1911 H1915 0.985 . S
H1912 N1907 0.984 . S
H1913 N1907 0.985 . S
H1914 N1911 0.984 . S
H1915 N1911 0.985 . S
H1916 N1910 0.984 . S
H1917 N1910 0.984 . S
H1918 N1906 0.984 . S
H1919 N1906 0.985 . S
C1920 C1921 1.363 . S
C1920 C1926 1.379 . S
C1920 N1928 1.356 . S
C1921 C1920 1.363 . S
C1921 C1927 1.363 . S
C1922 C1923 1.363 . S
C1922 C1927 1.379 . S
C1922 N1929 1.356 . S
C1923 C1922 1.363 . S
C1923 C1926 1.363 . S
N1924 C1926 1.356 . S
N1924 H1936 0.984 . S
N1924 H1937 0.985 . S
N1925 C1927 1.356 . S
N1925 H1930 0.984 . S
N1925 H1931 0.985 . S
C1926 C1920 1.379 . S
C1926 C1923 1.363 . S
C1926 N1924 1.356 . S
C1927 C1921 1.363 . S
C1927 C1922 1.379 . S
C1927 N1925 1.356 . S
N1928 C1920 1.356 . S
N1928 H1934 0.984 . S
N1928 H1935 0.984 . S
N1929 C1922 1.356 . S
N1929 H1932 0.979 1_556 S
N1929 H1933 0.985 1_556 S
H1930 N1925 0.984 . S
H1931 N1925 0.985 . S
H1932 N1929 0.979 1_554 S
H1933 N1929 0.985 1_554 S
H1934 N1928 0.984 . S
H1935 N1928 0.984 . S
H1936 N1924 0.984 . S
H1937 N1924 0.985 . S
C1938 C1939 1.363 . S
C1938 C1944 1.379 . S
C1938 N1946 1.356 . S
C1939 C1938 1.363 . S
C1939 C1945 1.363 . S
C1940 C1941 1.363 . S
C1940 C1945 1.379 . S
C1940 N1947 1.356 . S
C1941 C1940 1.363 . S
C1941 C1944 1.363 . S
N1942 C1944 1.356 . S
N1942 H1954 0.984 . S
N1942 H1955 0.985 . S
N1943 C1945 1.356 . S
N1943 H1948 0.984 . S
N1943 H1949 0.985 . S
C1944 C1938 1.379 . S
C1944 C1941 1.363 . S
C1944 N1942 1.356 . S
C1945 C1939 1.363 . S
C1945 C1940 1.379 . S
C1945 N1943 1.356 . S
N1946 C1938 1.356 . S
N1946 H1952 0.984 . S
N1946 H1953 0.984 . S
N1947 C1940 1.356 . S
N1947 H1950 0.984 . S
N1947 H1951 0.985 . S
H1948 N1943 0.984 . S
H1949 N1943 0.985 . S
H1950 N1947 0.984 . S
H1951 N1947 0.985 . S
H1952 N1946 0.984 . S
H1953 N1946 0.984 . S
H1954 N1942 0.984 . S
H1955 N1942 0.985 . S
C1956 C1957 1.363 . S
C1956 C1962 1.379 . S
C1956 N1964 1.356 . S
C1957 C1956 1.363 . S
C1957 C1963 1.363 . S
C1958 C1959 1.363 . S
C1958 C1963 1.379 . S
C1958 N1965 1.356 . S
C1959 C1958 1.363 . S
C1959 C1962 1.363 . S
N1960 C1962 1.356 . S
N1960 H1972 0.984 . S
N1960 H1973 0.985 . S
N1961 C1963 1.356 . S
N1961 H1966 0.984 . S
N1961 H1967 0.985 . S
C1962 C1956 1.379 . S
C1962 C1959 1.363 . S
C1962 N1960 1.356 . S
C1963 C1957 1.363 . S
C1963 C1958 1.379 . S
C1963 N1961 1.356 . S
N1964 C1956 1.356 . S
N1964 H1970 0.984 . S
N1964 H1971 0.984 . S
N1965 C1958 1.356 . S
N1965 H1968 0.984 . S
N1965 H1969 0.985 . S
H1966 N1961 0.984 . S
H1967 N1961 0.985 . S
H1968 N1965 0.984 . S
H1969 N1965 0.985 . S
H1970 N1964 0.984 . S
H1971 N1964 0.984 . S
H1972 N1960 0.984 . S
H1973 N1960 0.985 . S
C1974 C1975 1.363 . S
C1974 C1980 1.379 . S
C1974 N1982 1.356 . S
C1975 C1974 1.363 . S
C1975 C1981 1.363 . S
C1976 C1977 1.363 1_545 S
C1976 C1981 1.379 . S
C1976 N1983 1.356 1_545 S
C1977 C1976 1.363 1_565 S
C1977 C1980 1.363 1_565 S
N1978 C1980 1.356 1_565 S
N1978 H1990 0.984 . S
N1978 H1991 0.985 . S
N1979 C1981 1.356 . S
N1979 H1984 0.984 . S
N1979 H1985 0.985 . S
C1980 C1974 1.379 . S
C1980 C1977 1.363 1_545 S
C1980 N1978 1.356 1_545 S
C1981 C1975 1.363 . S
C1981 C1976 1.379 . S
C1981 N1979 1.356 . S
N1982 C1974 1.356 . S
N1982 H1988 0.984 . S
N1982 H1989 0.984 . S
N1983 C1976 1.356 1_565 S
N1983 H1986 0.984 . S
N1983 H1987 0.994 . S
H1984 N1979 0.984 . S
H1985 N1979 0.985 . S
H1986 N1983 0.984 . S
H1987 N1983 0.994 . S
H1988 N1982 0.984 . S
H1989 N1982 0.984 . S
H1990 N1978 0.984 . S
H1991 N1978 0.985 . S
C1131 C968 1.605 1_556 S
C1129 C331 1.555 . S
C1149 C983 1.733 . S
C1147 C380 1.699 1_455 S
C1165 C421 1.655 . S
C1167 C996 1.676 . S
C1185 C1010 1.615 . S
C1183 C260 1.689 1_655 S
C1203 C1022 1.600 . S
C1201 C620 1.627 . S
C1221 C1036 1.525 . S
C1219 C740 1.395 . S
C1237 C680 1.693 . S
C1239 C1050 1.692 . S
C1257 C1065 1.608 . S
C1255 C571 1.489 . S
C1273 C691 1.623 . S
C1275 C1081 1.644 . S
C1293 C1094 1.617 . S
C1291 C541 1.567 . S
C1309 C601 1.535 . S
C1311 C1079 1.526 . S
C1329 C1092 1.706 . S
C1327 C721 1.545 . S
C1345 C451 1.768 . S
C1347 C1108 1.789 . S
C1363 C241 1.710 . S
C1365 C1107 1.673 . S
C1381 C320 1.660 . S
C1383 C1106 1.632 . S
C1399 C391 1.594 . S
C1401 C1109 1.653 . S
C1417 C211 1.617 . S
C1419 C1011 1.678 1_565 S
C1435 C841 1.474 . S
C1437 C1009 1.474 . S
C1455 C969 1.582 . S
C1453 C901 1.555 . S
C1473 C980 1.726 . S
C1471 C500 1.730 . S
C1489 C271 1.692 . S
C1491 C1025 1.659 . S
C1509 C1066 1.827 . S
C1507 C661 1.808 . S
C1527 C1023 1.664 . S
C1525 C560 1.527 1_545 S
C1545 C1051 1.662 . S
C1543 C751 1.560 . S
C1563 C1052 1.605 . S
C1561 C871 1.555 . S
C1579 C920 1.699 . S
C1581 C1067 1.733 . S
C1597 C481 1.655 . S
C1599 C1024 1.676 . S
C1617 C1038 1.615 . S
C1615 C800 1.689 . S
C1633 C200 1.627 . S
C1635 C994 1.600 . S
C1653 C1008 1.524 . S
C1651 C20 1.395 . S
C1671 C966 1.692 . S
C1669 C80 1.693 . S
C1689 C981 1.608 . S
C1687 C151 1.490 . S
C1705 C91 1.623 . S
C1707 C1095 1.644 . S
C1723 C121 1.567 1_556 S
C1725 C1080 1.617 . S
C1741 C181 1.535 . S
C1743 C1093 1.526 . S
C1759 C1 1.545 . S
C1761 C1078 1.706 . S
C1779 C1122 1.789 . S
C1777 C511 1.768 . S
C1797 C1121 1.673 . S
C1795 C781 1.710 1_554 S
C1815 C1120 1.632 . S
C1813 C860 1.660 . S
C1831 C931 1.594 . S
C1833 C1123 1.653 . S
C1849 C631 1.617 . S
C1851 C1039 1.678 . S
C1869 C1037 1.474 . S
C1867 C301 1.474 . S
C1887 C1053 1.582 . S
C1885 C361 1.555 . S
C1905 C1064 1.727 . S
C1903 C440 1.731 . S
C1921 C811 1.692 . S
C1923 C997 1.659 . S
C1941 C982 1.828 . S
C1939 C61 1.808 . S
C1957 C140 1.527 . S
C1959 C995 1.664 . S
C1977 C967 1.662 . S
C1975 C31 1.560 . S
