# Generated by pormake.
# Topology pyr, (3,6)-cn, num edge types: 1
# Building blocks:
#     Node 0, Type 0, BuildingBlock: INOVEN_clean_linker_0, # of connection points: 3
#     Node 1, Type 0, BuildingBlock: INOVEN_clean_linker_0, # of connection points: 3
#     Node 2, Type 0, BuildingBlock: INOVEN_clean_linker_0, # of connection points: 3
#     Node 3, Type 0, BuildingBlock: INOVEN_clean_linker_0, # of connection points: 3
#     Node 4, Type 0, BuildingBlock: INOVEN_clean_linker_0, # of connection points: 3
#     Node 5, Type 0, BuildingBlock: INOVEN_clean_linker_0, # of connection points: 3
#     Node 6, Type 0, BuildingBlock: INOVEN_clean_linker_0, # of connection points: 3
#     Node 7, Type 0, BuildingBlock: INOVEN_clean_linker_0, # of connection points: 3
#     Node 8, Type 1, BuildingBlock: MIDCAF_clean_sbu_0, # of connection points: 6
#     Node 9, Type 1, BuildingBlock: MIDCAF_clean_sbu_0, # of connection points: 6
#     Node 10, Type 1, BuildingBlock: MIDCAF_clean_sbu_0, # of connection points: 6
#     Node 11, Type 1, BuildingBlock: MIDCAF_clean_sbu_0, # of connection points: 6
#     Edge 12, Type (0, 1), BuildingBlock: EZIPEK_clean_linker_0, # of connection points: 2
#     Edge 13, Type (0, 1), BuildingBlock: EZIPEK_clean_linker_0, # of connection points: 2
#     Edge 14, Type (0, 1), BuildingBlock: EZIPEK_clean_linker_0, # of connection points: 2
#     Edge 15, Type (0, 1), BuildingBlock: EZIPEK_clean_linker_0, # of connection points: 2
#     Edge 16, Type (0, 1), BuildingBlock: EZIPEK_clean_linker_0, # of connection points: 2
#     Edge 17, Type (0, 1), BuildingBlock: EZIPEK_clean_linker_0, # of connection points: 2
#     Edge 18, Type (0, 1), BuildingBlock: EZIPEK_clean_linker_0, # of connection points: 2
#     Edge 19, Type (0, 1), BuildingBlock: EZIPEK_clean_linker_0, # of connection points: 2
#     Edge 20, Type (0, 1), BuildingBlock: EZIPEK_clean_linker_0, # of connection points: 2
#     Edge 21, Type (0, 1), BuildingBlock: EZIPEK_clean_linker_0, # of connection points: 2
#     Edge 22, Type (0, 1), BuildingBlock: EZIPEK_clean_linker_0, # of connection points: 2
#     Edge 23, Type (0, 1), BuildingBlock: EZIPEK_clean_linker_0, # of connection points: 2
#     Edge 24, Type (0, 1), BuildingBlock: EZIPEK_clean_linker_0, # of connection points: 2
#     Edge 25, Type (0, 1), BuildingBlock: EZIPEK_clean_linker_0, # of connection points: 2
#     Edge 26, Type (0, 1), BuildingBlock: EZIPEK_clean_linker_0, # of connection points: 2
#     Edge 27, Type (0, 1), BuildingBlock: EZIPEK_clean_linker_0, # of connection points: 2
#     Edge 28, Type (0, 1), BuildingBlock: EZIPEK_clean_linker_0, # of connection points: 2
#     Edge 29, Type (0, 1), BuildingBlock: EZIPEK_clean_linker_0, # of connection points: 2
#     Edge 30, Type (0, 1), BuildingBlock: EZIPEK_clean_linker_0, # of connection points: 2
#     Edge 31, Type (0, 1), BuildingBlock: EZIPEK_clean_linker_0, # of connection points: 2
#     Edge 32, Type (0, 1), BuildingBlock: EZIPEK_clean_linker_0, # of connection points: 2
#     Edge 33, Type (0, 1), BuildingBlock: EZIPEK_clean_linker_0, # of connection points: 2
#     Edge 34, Type (0, 1), BuildingBlock: EZIPEK_clean_linker_0, # of connection points: 2
#     Edge 35, Type (0, 1), BuildingBlock: EZIPEK_clean_linker_0, # of connection points: 2
# Relax obj value: 0.086
# Max RMSD: 0.175
# Mean RMSD: 0.130
data_MOF--net-pry--node1-MIDCAF_clean_sbu_0--node2-INOVEN_clean_linker_0--edge1-EZIPEK_clean_linker_0
_symmetry_space_group_name_H-M    P1
_symmetry_Int_Tables_number       1
_symmetry_cell_setting            triclinic
loop_
_symmetry_equiv_pos_as_xyz
'x, y, z'
_cell_length_a     24.866649
_cell_length_b     25.463288
_cell_length_c     26.59483
_cell_angle_alpha  90.579216
_cell_angle_beta   91.123077
_cell_angle_gamma 97.016881
loop_
_atom_site_label
_atom_site_type_symbol
_atom_site_fract_x
_atom_site_fract_y
_atom_site_fract_z
_atom_type_partial_charge
H0 H 0.17405 0.27938 0.3085 0.0
H1 H 0.27104 0.15089 0.303 0.0
H2 H 0.2853 0.26905 0.18772 0.0
N3 N 0.20766 0.32546 0.22528 0.0
N4 N 0.22073 0.34337 0.18309 0.0
C5 C 0.20573 0.26026 0.29109 0.0
C6 C 0.22028 0.21314 0.31126 0.0
C7 C 0.2287 0.28086 0.24663 0.0
C8 C 0.26818 0.25442 0.22278 0.0
C9 C 0.28419 0.20773 0.24343 0.0
C10 C 0.26041 0.18778 0.28799 0.0
H11 H 0.31002 0.78131 0.69193 0.0
H12 H 0.40406 0.76482 0.8279 0.0
H13 H 0.28856 0.87712 0.82138 0.0
N14 N 0.25023 0.84954 0.72722 0.0
N15 N 0.22508 0.88496 0.74451 0.0
C16 C 0.31961 0.79084 0.73114 0.0
C17 C 0.36 0.76661 0.75673 0.0
C18 C 0.29153 0.82803 0.75497 0.0
C19 C 0.30694 0.84517 0.80406 0.0
C20 C 0.34896 0.82384 0.82961 0.0
C21 C 0.37263 0.782 0.80731 0.0
H22 H 0.64567 0.25877 0.8329 0.0
H23 H 0.75805 0.28778 0.9582 0.0
H24 H 0.76089 0.39881 0.83779 0.0
N25 N 0.67757 0.34713 0.7846 0.0
N26 N 0.69597 0.38965 0.76491 0.0
C27 C 0.6809 0.28168 0.85028 0.0
C28 C 0.7003 0.26706 0.89742 0.0
C29 C 0.70323 0.32866 0.828 0.0
C30 C 0.74557 0.36075 0.85311 0.0
C31 C 0.76619 0.34607 0.89963 0.0
C32 C 0.74429 0.29821 0.9211 0.0
H33 H 0.72677 0.70117 0.27712 0.0
H34 H 0.74053 0.79695 0.41214 0.0
H35 H 0.85789 0.82715 0.29688 0.0
N36 N 0.81805 0.74452 0.23714 0.0
N37 N 0.86279 0.76572 0.2223 0.0
C38 C 0.74605 0.7352 0.29826 0.0
C39 C 0.72714 0.74662 0.34617 0.0
C40 C 0.79336 0.76393 0.28014 0.0
C41 C 0.82006 0.80603 0.30928 0.0
C42 C 0.80094 0.81806 0.35667 0.0
C43 C 0.75378 0.78916 0.37446 0.0
H44 H 0.9021 0.99054 0.84828 0.0
H45 H 0.01089 0.87309 0.86902 0.0
H46 H 0.89381 0.89618 0.98178 0.0
N47 N 0.84755 0.97192 0.93097 0.0
N48 N 0.8281 0.96721 0.97376 0.0
C49 C 0.9175 0.96045 0.87117 0.0
C50 C 0.96004 0.93423 0.85368 0.0
C51 C 0.89382 0.94771 0.91739 0.0
C52 C 0.91298 0.9078 0.94669 0.0
C53 C 0.95453 0.88009 0.929 0.0
C54 C 0.97881 0.89424 0.88289 0.0
H55 H 0.57044 0.17769 0.40852 0.0
H56 H 0.67153 0.05994 0.3656 0.0
H57 H 0.70958 0.15353 0.50014 0.0
N58 N 0.63114 0.21341 0.49067 0.0
N59 N 0.5902 0.2369 0.48653 0.0
C60 C 0.60434 0.15596 0.41679 0.0
C61 C 0.61607 0.11643 0.38304 0.0
C62 C 0.63802 0.16931 0.45936 0.0
C63 C 0.68279 0.14219 0.46816 0.0
C64 C 0.69487 0.10239 0.43486 0.0
C65 C 0.66133 0.08944 0.39228 0.0
H66 H 0.49833 0.69707 0.13549 0.0
H67 H 0.35099 0.65633 0.05014 0.0
H68 H 0.40646 0.54419 0.15247 0.0
N69 N 0.48712 0.6144 0.19279 0.0
N70 N 0.46807 0.58346 0.22566 0.0
C71 C 0.46602 0.66725 0.12248 0.0
C72 C 0.42719 0.68093 0.08777 0.0
C73 C 0.4585 0.61861 0.14674 0.0
C74 C 0.41397 0.5813 0.13272 0.0
C75 C 0.37497 0.59504 0.09816 0.0
C76 C 0.38259 0.64432 0.07463 0.0
H77 H 0.06081 0.34803 0.64725 0.0
H78 H 0.20596 0.40436 0.56908 0.0
H79 H 0.1435 0.50292 0.68074 0.0
N80 N 0.06153 0.43133 0.70722 0.0
N81 N 0.04503 0.47426 0.71758 0.0
C82 C 0.09296 0.37945 0.63943 0.0
C83 C 0.13156 0.37171 0.60326 0.0
C84 C 0.09632 0.42699 0.66649 0.0
C85 C 0.13911 0.46701 0.65802 0.0
C86 C 0.17924 0.4585 0.62373 0.0
C87 C 0.17476 0.41128 0.59541 0.0
Zn88 Zn 0.96045 0.10368 0.60095 0.0
Zn89 Zn 0.07682 0.97781 0.49024 0.0
Zn90 Zn 0.01755 0.04333 0.54264 0.0
C91 C 0.10831 0.08369 0.46141 0.0
C92 C 0.96424 0.95318 0.46691 0.0
O93 O 0.01972 0.01749 0.62232 0.0
O94 O 0.96312 0.06203 0.66381 0.0
C95 C 0.05052 0.16663 0.55912 0.0
O96 O 0.07737 0.0937 0.49772 0.0
O97 O 0.11301 0.03652 0.44882 0.0
O98 O 0.00921 0.93519 0.46308 0.0
O99 O 0.96033 0.99546 0.49273 0.0
O100 O 0.01448 0.16719 0.59188 0.0
O101 O 0.05596 0.12423 0.53411 0.0
O102 O 0.93347 0.0359 0.51198 0.0
O103 O 0.89456 0.09452 0.5563 0.0
C104 C 0.89276 0.06126 0.52059 0.0
O105 O 0.05784 0.99433 0.59558 0.0
O106 O 0.11492 0.95323 0.551 0.0
C107 C 0.99469 0.02681 0.66287 0.0
C108 C 0.09631 0.96488 0.59297 0.0
Zn109 Zn 0.4449 0.07444 0.01823 0.0
Zn110 Zn 0.5653 0.96616 0.13076 0.0
Zn111 Zn 0.50968 0.02447 0.07583 0.0
C112 C 0.63376 0.01026 0.05662 0.0
C113 C 0.48509 0.89759 0.08909 0.0
O114 O 0.46407 0.07297 0.12692 0.0
O115 O 0.40232 0.09888 0.07452 0.0
C116 C 0.55427 0.11371 0.99986 0.0
O117 O 0.59401 0.03743 0.04864 0.0
O118 O 0.63034 0.97432 0.08906 0.0
O119 O 0.5186 0.8982 0.12531 0.0
O120 O 0.47872 0.94024 0.06531 0.0
O121 O 0.50624 0.12363 0.99219 0.0
O122 O 0.56412 0.07527 0.02825 0.0
O123 O 0.45648 0.96672 0.02713 0.0
O124 O 0.41426 0.01451 0.97375 0.0
C125 C 0.4253 0.96996 0.98822 0.0
O126 O 0.50574 0.0527 0.1553 0.0
O127 O 0.56618 0.00817 0.19272 0.0
C128 C 0.4217 0.09661 0.1186 0.0
C129 C 0.53457 0.0432 0.19433 0.0
Zn130 Zn 0.58702 0.6204 0.59227 0.0
Zn131 Zn 0.44289 0.47825 0.49931 0.0
Zn132 Zn 0.51011 0.55104 0.54911 0.0
C133 C 0.51998 0.42384 0.5418 0.0
C134 C 0.48829 0.54643 0.4283 0.0
O135 O 0.46753 0.59753 0.60417 0.0
O136 O 0.53332 0.66086 0.62501 0.0
C137 C 0.60253 0.51911 0.62466 0.0
O138 O 0.53572 0.47084 0.55901 0.0
O139 O 0.47762 0.41496 0.51473 0.0
O140 O 0.45349 0.50629 0.43118 0.0
O141 O 0.5128 0.56746 0.46802 0.0
O142 O 0.62054 0.56693 0.63351 0.0
O143 O 0.56403 0.5068 0.59214 0.0
O144 O 0.55259 0.60234 0.49167 0.0
O145 O 0.6225 0.6491 0.53053 0.0
C146 C 0.59566 0.636 0.49067 0.0
O147 O 0.4297 0.55781 0.57908 0.0
O148 O 0.37947 0.49342 0.53678 0.0
C149 C 0.48461 0.64049 0.62884 0.0
C150 C 0.38372 0.53023 0.56925 0.0
Zn151 Zn 0.10437 0.62294 0.96734 0.0
Zn152 Zn 0.98303 0.52086 0.10086 0.0
Zn153 Zn 0.03346 0.56846 0.02535 0.0
C154 C 0.0806 0.48689 0.10935 0.0
C155 C 0.92611 0.49114 0.00671 0.0
O156 O 0.01983 0.65373 0.02521 0.0
O157 O 0.07723 0.69256 0.97042 0.0
C158 C 0.16602 0.57557 0.03235 0.0
O159 O 0.08534 0.52075 0.07327 0.0
O160 O 0.03593 0.47705 0.13106 0.0
O161 O 0.92617 0.48606 0.0539 0.0
O162 O 0.96775 0.5167 0.98607 0.0
O163 O 0.17337 0.61126 0.99984 0.0
O164 O 0.11777 0.5555 0.04386 0.0
O165 O 0.01039 0.53623 0.95137 0.0
O166 O 0.07911 0.57714 0.90923 0.0
C167 C 0.03696 0.54413 0.91058 0.0
O168 O 0.9946 0.628 0.06648 0.0
O169 O 0.96471 0.58627 0.13511 0.0
C170 C 0.03797 0.69456 0.99938 0.0
C171 C 0.97115 0.62777 0.10918 0.0
C172 C 0.13562 0.16081 0.34302 0.0
C173 C 0.18877 0.18665 0.35306 0.0
C174 C 0.18584 0.15197 0.43906 0.0
C175 C 0.13281 0.12653 0.42872 0.0
N176 N 0.05173 0.11812 0.37693 0.0
N177 N 0.26023 0.21629 0.41293 0.0
C178 C 0.10589 0.13497 0.38266 0.0
C179 C 0.21254 0.18529 0.40198 0.0
N180 N 0.11471 0.15815 0.29497 0.0
N181 N 0.21117 0.14274 0.48358 0.0
H182 H 0.28063 0.24081 0.38644 0.0
H183 H 0.2774 0.22095 0.44894 0.0
H184 H 0.19167 0.1202 0.51196 0.0
H185 H 0.2519 0.1552 0.49157 0.0
H186 H 0.07892 0.1347 0.28442 0.0
H187 H 0.1352 0.1758 0.26448 0.0
H188 H 0.02843 0.12767 0.34616 0.0
H189 H 0.02891 0.0989 0.40537 0.0
C190 C 0.35237 0.84626 0.92263 0.0
C191 C 0.37505 0.85337 0.87419 0.0
C192 C 0.4414 0.9248 0.90785 0.0
C193 C 0.41267 0.9241 0.9533 0.0
N194 N 0.34207 0.88401 0.00597 0.0
N195 N 0.43783 0.9035 0.81912 0.0
C196 C 0.36891 0.88419 0.96166 0.0
C197 C 0.41926 0.89322 0.86653 0.0
N198 N 0.31509 0.80341 0.93094 0.0
N199 N 0.49006 0.95586 0.90427 0.0
H200 H 0.42223 0.88231 0.78728 0.0
H201 H 0.46553 0.93609 0.81062 0.0
H202 H 0.50735 0.97974 0.93391 0.0
H203 H 0.5157 0.95389 0.87397 0.0
H204 H 0.30007 0.79317 0.96623 0.0
H205 H 0.3023 0.77559 0.90275 0.0
H206 H 0.30652 0.85938 0.01298 0.0
H207 H 0.35449 0.9105 0.03533 0.0
C208 C 0.69746 0.42917 0.68212 0.0
C209 C 0.66827 0.41304 0.72552 0.0
C210 C 0.59073 0.45487 0.69468 0.0
C211 C 0.62286 0.47738 0.65505 0.0
N212 N 0.7062 0.4866 0.60955 0.0
N213 N 0.59105 0.41842 0.77816 0.0
C214 C 0.67603 0.46435 0.64804 0.0
C215 C 0.61547 0.42703 0.73286 0.0
N216 N 0.74572 0.41037 0.67391 0.0
N217 N 0.53698 0.46122 0.69667 0.0
H218 H 0.60896 0.40117 0.8085 0.0
H219 H 0.5553 0.43326 0.78757 0.0
H220 H 0.51766 0.48362 0.67095 0.0
H221 H 0.51044 0.44057 0.72144 0.0
H222 H 0.7676 0.41666 0.64112 0.0
H223 H 0.76197 0.38483 0.69892 0.0
H224 H 0.74711 0.48318 0.60516 0.0
H225 H 0.69061 0.5106 0.58272 0.0
C226 C 0.86306 0.7131 0.14362 0.0
C227 C 0.89114 0.74311 0.18315 0.0
C228 C 0.97642 0.71293 0.15737 0.0
C229 C 0.94612 0.67419 0.12632 0.0
N230 N 0.86194 0.63927 0.08508 0.0
N231 N 0.97456 0.77882 0.22401 0.0
C232 C 0.88986 0.67539 0.11734 0.0
C233 C 0.94822 0.74625 0.1879 0.0
N234 N 0.81185 0.72246 0.13028 0.0
N235 N 0.03172 0.71697 0.15797 0.0
H236 H 0.95448 0.80448 0.24565 0.0
H237 H 0.01539 0.77951 0.23365 0.0
H238 H 0.05278 0.69259 0.13584 0.0
H239 H 0.05677 0.74665 0.17708 0.0
H240 H 0.79026 0.70462 0.09942 0.0
H241 H 0.79353 0.75287 0.14688 0.0
H242 H 0.81987 0.63392 0.08139 0.0
H243 H 0.88104 0.61301 0.06326 0.0
C244 C 0.30226 0.12719 0.19337 0.0
C245 C 0.32219 0.17674 0.21608 0.0
C246 C 0.41208 0.17007 0.18106 0.0
C247 C 0.39231 0.11988 0.15984 0.0
N248 N 0.32359 0.04479 0.15662 0.0
N249 N 0.39866 0.23971 0.24101 0.0
C250 C 0.33898 0.09655 0.16977 0.0
C251 C 0.37804 0.19639 0.21294 0.0
N252 N 0.24781 0.11067 0.19178 0.0
N253 N 0.46226 0.19375 0.16869 0.0
H254 H 0.37486 0.25987 0.26457 0.0
H255 H 0.43992 0.25287 0.24427 0.0
H256 H 0.48823 0.1753 0.14595 0.0
H257 H 0.47674 0.23276 0.1782 0.0
H258 H 0.23045 0.07778 0.17106 0.0
H259 H 0.21918 0.13242 0.2073 0.0
H260 H 0.287 0.02378 0.16704 0.0
H261 H 0.34994 0.02134 0.13967 0.0
C262 C 0.18907 0.96095 0.70745 0.0
C263 C 0.18471 0.90575 0.71471 0.0
C264 C 0.11286 0.89084 0.6501 0.0
C265 C 0.12066 0.94569 0.63944 0.0
N266 N 0.15803 0.03481 0.66264 0.0
N267 N 0.13241 0.82046 0.70628 0.0
C268 C 0.15571 0.98152 0.67017 0.0
C269 C 0.14337 0.87126 0.68998 0.0
N270 N 0.22747 0.99294 0.73462 0.0
N271 N 0.07703 0.85758 0.62138 0.0
H272 H 0.1528 0.8066 0.73716 0.0
H273 H 0.10029 0.79373 0.69272 0.0
H274 H 0.05151 0.87126 0.59415 0.0
H275 H 0.07365 0.81652 0.6232 0.0
H276 H 0.23706 0.03331 0.72902 0.0
H277 H 0.25114 0.97824 0.7628 0.0
H278 H 0.17963 0.06352 0.68566 0.0
H279 H 0.13588 0.05104 0.63436 0.0
C280 C 0.85285 0.40806 0.90399 0.0
C281 C 0.80548 0.38499 0.92801 0.0
C282 C 0.82959 0.44366 1.00111 0.0
C283 C 0.87831 0.46414 0.97697 0.0
N284 N 0.90547 0.49239 0.8947 0.0
N285 N 0.73956 0.39579 0.99194 0.0
C286 C 0.88208 0.45411 0.92517 0.0
C287 C 0.79115 0.40667 0.97482 0.0
N288 N 0.86993 0.3869 0.86068 0.0
N289 N 0.81806 0.46227 0.04752 0.0
H290 H 0.70899 0.37259 0.97195 0.0
H291 H 0.72512 0.41407 0.02322 0.0
H292 H 0.83645 0.49843 0.06199 0.0
H293 H 0.7892 0.44264 0.07082 0.0
H294 H 0.90571 0.40252 0.84366 0.0
H295 H 0.85122 0.35151 0.84483 0.0
H296 H 0.90359 0.48828 0.85559 0.0
H297 H 0.91751 0.53069 0.90826 0.0
C298 C 0.63508 0.72864 0.38335 0.0
C299 C 0.68477 0.71012 0.37103 0.0
C300 C 0.66059 0.63135 0.42182 0.0
C301 C 0.61781 0.65574 0.4424 0.0
N302 N 0.56167 0.72622 0.44257 0.0
N303 N 0.74695 0.64457 0.38093 0.0
C304 C 0.60354 0.70358 0.42243 0.0
C305 C 0.69764 0.66097 0.38992 0.0
N306 N 0.61867 0.7704 0.3579 0.0
N307 N 0.6662 0.58017 0.43366 0.0
H308 H 0.77608 0.66517 0.35856 0.0
H309 H 0.76078 0.61244 0.39884 0.0
H310 H 0.63948 0.55781 0.45724 0.0
H311 H 0.69362 0.55846 0.41622 0.0
H312 H 0.58084 0.78329 0.3621 0.0
H313 H 0.6413 0.78908 0.32906 0.0
H314 H 0.55281 0.76397 0.43362 0.0
H315 H 0.53708 0.70779 0.47022 0.0
C316 C 0.18612 0.43019 0.19211 0.0
C317 C 0.19608 0.38632 0.16203 0.0
C318 C 0.14513 0.41998 0.09168 0.0
C319 C 0.12665 0.45781 0.12493 0.0
N320 N 0.13149 0.50151 0.20604 0.0
N321 N 0.1907 0.34102 0.08252 0.0
C322 C 0.1481 0.46391 0.17488 0.0
C323 C 0.1783 0.38259 0.11114 0.0
N324 N 0.21525 0.44086 0.23584 0.0
N325 N 0.12999 0.41897 0.04193 0.0
H326 H 0.21617 0.3143 0.09581 0.0
H327 H 0.1745 0.33151 0.04676 0.0
H328 H 0.10328 0.44332 0.02675 0.0
H329 H 0.1463 0.39629 0.01472 0.0
H330 H 0.21362 0.47468 0.25779 0.0
H331 H 0.2458 0.41858 0.24716 0.0
H332 H 0.14034 0.5039 0.24447 0.0
H333 H 0.10685 0.52934 0.19367 0.0
C334 C 0.6719 0.17183 0.91965 0.0
C335 C 0.66706 0.22631 0.92661 0.0
C336 C 0.6006 0.20475 0.9919 0.0
C337 C 0.59871 0.15046 0.97926 0.0
N338 N 0.6281 0.08183 0.92706 0.0
N339 N 0.61815 0.29398 0.96183 0.0
C340 C 0.63367 0.13356 0.94245 0.0
C341 C 0.62924 0.24272 0.96089 0.0
N342 N 0.71268 0.15682 0.89123 0.0
N343 N 0.57524 0.21998 0.03382 0.0
H344 H 0.6356 0.32257 0.93735 0.0
H345 H 0.58714 0.30663 0.98289 0.0
H346 H 0.5548 0.19287 0.05816 0.0
H347 H 0.57955 0.2589 0.04723 0.0
H348 H 0.72148 0.11792 0.88883 0.0
H349 H 0.74045 0.18409 0.87328 0.0
H350 H 0.64884 0.06812 0.89693 0.0
H351 H 0.59946 0.05324 0.942 0.0
C352 C 0.86603 0.83435 0.43002 0.0
C353 C 0.83576 0.85496 0.39059 0.0
C354 C 0.88625 0.94288 0.40433 0.0
C355 C 0.91539 0.92231 0.44445 0.0
N356 N 0.92169 0.85363 0.50518 0.0
N357 N 0.80729 0.93044 0.34839 0.0
C358 C 0.90145 0.86966 0.46048 0.0
C359 C 0.8426 0.90993 0.38053 0.0
N360 N 0.86358 0.78091 0.4366 0.0
N361 N 0.90228 0.99254 0.38697 0.0
H362 H 0.77505 0.90701 0.3304 0.0
H363 H 0.80692 0.9709 0.34329 0.0
H364 H 0.93466 0.01741 0.40295 0.0
H365 H 0.88611 0.00765 0.35455 0.0
H366 H 0.88954 0.76386 0.46103 0.0
H367 H 0.83904 0.75311 0.41467 0.0
H368 H 0.90877 0.81716 0.52112 0.0
H369 H 0.94714 0.87895 0.52888 0.0
C370 C 0.44838 0.73082 0.73325 0.0
C371 C 0.39097 0.72856 0.72852 0.0
C372 C 0.39438 0.6701 0.65505 0.0
C373 C 0.44993 0.66612 0.6649 0.0
N374 N 0.52227 0.67826 0.72804 0.0
N375 N 0.30927 0.6773 0.69474 0.0
C376 C 0.47446 0.6915 0.70894 0.0
C377 C 0.36377 0.69196 0.69274 0.0
N378 N 0.47918 0.77224 0.75679 0.0
N379 N 0.37149 0.65788 0.60884 0.0
H380 H 0.28606 0.68917 0.72408 0.0
H381 H 0.28915 0.6485 0.67055 0.0
H382 H 0.39406 0.64829 0.57823 0.0
H383 H 0.33174 0.66413 0.59989 0.0
H384 H 0.52144 0.77582 0.75767 0.0
H385 H 0.46359 0.80621 0.76868 0.0
H386 H 0.53941 0.69446 0.76173 0.0
H387 H 0.54055 0.64653 0.71401 0.0
C388 C 0.01767 0.99786 0.7998 0.0
C389 C 0.98338 0.94933 0.80391 0.0
C390 C 0.97083 0.94404 0.71209 0.0
C391 C 1.00045 0.99513 0.7087 0.0
N392 N 0.06387 0.06432 0.74523 0.0
N393 N 0.93828 0.86976 0.76483 0.0
C394 C 0.02799 0.01983 0.7514 0.0
C395 C 0.96404 0.92001 0.76014 0.0
N396 N 0.03828 0.02377 0.84254 0.0
N397 N 0.9465 0.92018 0.66978 0.0
H398 H 0.93126 0.85184 0.79954 0.0
H399 H 0.92713 0.84421 0.73464 0.0
H400 H 0.9523 0.9359 0.63396 0.0
H401 H 0.91922 0.88581 0.66982 0.0
H402 H 0.05849 0.06203 0.84328 0.0
H403 H 0.03382 0.00707 0.87813 0.0
H404 H 0.08883 0.0825 0.77381 0.0
H405 H 0.07172 0.08091 0.70999 0.0
C406 C 0.53811 0.06785 0.33304 0.0
C407 C 0.58404 0.10687 0.33525 0.0
C408 C 0.57536 0.12076 0.24439 0.0
C409 C 0.53658 0.07526 0.24112 0.0
N410 N 0.47555 0.00875 0.28046 0.0
N411 N 0.64452 0.17408 0.29491 0.0
C412 C 0.51541 0.05057 0.28519 0.0
C413 C 0.60138 0.13524 0.29154 0.0
N414 N 0.51695 0.04713 0.37665 0.0
N415 N 0.5883 0.14874 0.20181 0.0
H416 H 0.66341 0.18671 0.32904 0.0
H417 H 0.66322 0.19263 0.26407 0.0
H418 H 0.57045 0.13772 0.16686 0.0
H419 H 0.61318 0.18465 0.20136 0.0
H420 H 0.4813 0.02126 0.37835 0.0
H421 H 0.53349 0.05854 0.41202 0.0
H422 H 0.46163 0.98461 0.30996 0.0
H423 H 0.45687 0.99772 0.24578 0.0
C424 C 0.47818 0.62386 0.30944 0.0
C425 C 0.49061 0.58447 0.27496 0.0
C426 C 0.52442 0.53412 0.34365 0.0
C427 C 0.50146 0.56732 0.3781 0.0
N428 N 0.45925 0.64543 0.39596 0.0
N429 N 0.52761 0.50406 0.25692 0.0
C430 C 0.48062 0.6137 0.3618 0.0
C431 C 0.51538 0.54061 0.29142 0.0
N432 N 0.46188 0.66973 0.29189 0.0
N433 N 0.5541 0.49623 0.36135 0.0
H434 H 0.52265 0.50944 0.2183 0.0
H435 H 0.54048 0.46798 0.26638 0.0
H436 H 0.56149 0.49157 0.39975 0.0
H437 H 0.57518 0.47289 0.33834 0.0
H438 H 0.45701 0.70215 0.31476 0.0
H439 H 0.45704 0.67711 0.25372 0.0
H440 H 0.43765 0.67647 0.38626 0.0
H441 H 0.46125 0.63933 0.43462 0.0
C442 C 0.00848 0.53615 0.77264 0.0
C443 C 0.01816 0.48366 0.76297 0.0
C444 C 0.01957 0.46507 0.85277 0.0
C445 C 0.01726 0.51951 0.86238 0.0
N446 N 0.98947 0.60189 0.83442 0.0
N447 N 0.00322 0.39352 0.79139 0.0
C448 C 0.00449 0.55335 0.82308 0.0
C449 C 0.01404 0.44624 0.80231 0.0
N450 N 0.00732 0.57021 0.73344 0.0
N451 N 0.02943 0.43217 0.89119 0.0
H452 H 0.99301 0.37968 0.75497 0.0
H453 H 0.99687 0.36463 0.81882 0.0
H454 H 0.03214 0.44463 0.92872 0.0
H455 H 0.03746 0.39337 0.88546 0.0
H456 H 0.00686 0.61083 0.73778 0.0
H457 H 0.00849 0.5573 0.69611 0.0
H458 H 0.97606 0.62714 0.80765 0.0
H459 H 0.9858 0.61474 0.87147 0.0
C460 C 0.77965 0.031 0.01832 0.0
C461 C 0.77874 0.98717 0.98506 0.0
C462 C 0.67955 0.9752 0.98421 0.0
C463 C 0.6808 0.01356 0.02331 0.0
N464 N 0.72942 0.08171 0.07521 0.0
N465 N 0.72952 0.9159 0.93692 0.0
C466 C 0.73018 0.04337 0.03902 0.0
C467 C 0.72905 0.95958 0.96714 0.0
N468 N 0.82818 0.06005 0.0301 0.0
N469 N 0.63072 0.9528 0.96468 0.0
H470 H 0.76522 0.90299 0.92443 0.0
H471 H 0.69506 0.89035 0.92671 0.0
H472 H 0.59392 0.96287 0.97758 0.0
H473 H 0.62647 0.9279 0.93321 0.0
H474 H 0.83245 0.09453 0.05185 0.0
H475 H 0.86453 0.05083 0.01532 0.0
H476 H 0.76391 0.10217 0.09217 0.0
H477 H 0.69321 0.09261 0.08884 0.0
C478 C 0.79534 0.10624 0.42578 0.0
C479 C 0.74619 0.07886 0.44318 0.0
C480 C 0.79681 0.0254 0.49887 0.0
C481 C 0.84523 0.05702 0.48578 0.0
N482 N 0.89397 0.11675 0.42844 0.0
N483 N 0.69927 0.00441 0.48539 0.0
C484 C 0.84552 0.09356 0.44595 0.0
C485 C 0.74678 0.03531 0.47591 0.0
N486 N 0.79356 0.1464 0.39225 0.0
N487 N 0.79892 0.98767 0.53479 0.0
H488 H 0.66245 0.01128 0.46876 0.0
H489 H 0.69642 0.97023 0.50673 0.0
H490 H 0.83559 0.97842 0.54999 0.0
H491 H 0.76507 0.96605 0.55005 0.0
H492 H 0.82712 0.17223 0.38205 0.0
H493 H 0.75751 0.15501 0.37532 0.0
H494 H 0.89788 0.1408 0.39704 0.0
H495 H 0.93113 0.10846 0.44327 0.0
C496 C 0.2805 0.57541 0.12673 0.0
C497 C 0.32083 0.56402 0.09275 0.0
C498 C 0.2509 0.53378 0.02985 0.0
C499 C 0.21365 0.55881 0.05838 0.0
N500 N 0.19005 0.59988 0.13568 0.0
N501 N 0.34555 0.52408 0.01595 0.0
C502 C 0.22695 0.57696 0.1081 0.0
C503 C 0.30606 0.53909 0.04595 0.0
N504 N 0.29403 0.58685 0.17597 0.0
N505 N 0.23332 0.50631 0.98706 0.0
H506 H 0.38583 0.52613 0.02853 0.0
H507 H 0.33892 0.51094 0.97891 0.0
H508 H 0.19271 0.50214 0.97521 0.0
H509 H 0.2575 0.48425 0.9659 0.0
H510 H 0.26563 0.59106 0.20351 0.0
H511 H 0.33326 0.58678 0.19038 0.0
H512 H 0.19947 0.61989 0.16964 0.0
H513 H 0.15017 0.60118 0.12347 0.0
C514 C 0.27325 0.49125 0.65478 0.0
C515 C 0.22932 0.49609 0.62086 0.0
C516 C 0.28917 0.55017 0.56509 0.0
C517 C 0.33376 0.53882 0.59526 0.0
N518 N 0.36825 0.51774 0.67642 0.0
N519 N 0.19123 0.54298 0.55365 0.0
C520 C 0.32555 0.51652 0.64322 0.0
C521 C 0.23588 0.53057 0.5795 0.0
N522 N 0.26567 0.45942 0.69575 0.0
N523 N 0.29869 0.57649 0.52103 0.0
H524 H 0.15193 0.52855 0.56397 0.0
H525 H 0.19266 0.57039 0.52482 0.0
H526 H 0.33769 0.59258 0.5112 0.0
H527 H 0.2689 0.58149 0.4941 0.0
H528 H 0.29715 0.44925 0.7186 0.0
H529 H 0.2277 0.44103 0.70582 0.0
H530 H 0.36454 0.50546 0.71354 0.0
H531 H 0.40678 0.53601 0.66795 0.0
C532 C 0.93809 0.78334 0.94951 0.0
C533 C 0.96987 0.83324 0.95661 0.0
C534 C 0.03462 0.79167 0.00941 0.0
C535 C 0.00781 0.74123 0.99536 0.0
N536 N 0.93427 0.68781 0.9515 0.0
N537 N 0.04719 0.88639 0.99437 0.0
C538 C 0.9588 0.73671 0.96635 0.0
C539 C 0.01752 0.83793 0.98747 0.0
N540 N 0.88838 0.78044 0.92599 0.0
N541 N 0.07632 0.79486 0.04396 0.0
H542 H 0.03449 0.92118 0.98061 0.0
H543 H 0.08536 0.8921 0.01171 0.0
H544 H 0.08871 0.76126 0.06065 0.0
H545 H 0.09539 0.83023 0.05926 0.0
H546 H 0.86046 0.74646 0.92506 0.0
H547 H 0.87305 0.81306 0.91037 0.0
H548 H 0.90322 0.68182 0.92448 0.0
H549 H 0.94672 0.65253 0.96407 0.0
C550 C 0.40121 0.76984 0.10945 0.0
C551 C 0.42676 0.7374 0.07585 0.0
C552 C 0.47473 0.81533 0.03669 0.0
C553 C 0.45423 0.84682 0.07424 0.0
N554 N 0.38539 0.85891 0.13357 0.0
N555 N 0.47407 0.72766 0.99907 0.0
C556 C 0.41272 0.82551 0.1061 0.0
C557 C 0.45865 0.75981 0.03618 0.0
N558 N 0.36909 0.7474 0.14661 0.0
N559 N 0.51172 0.83836 0.00375 0.0
H560 H 0.46246 0.68685 0.99857 0.0
H561 H 0.49455 0.74141 0.96715 0.0
H562 H 0.52223 0.87926 0.00245 0.0
H563 H 0.53269 0.81739 0.97851 0.0
H564 H 0.35475 0.76882 0.17594 0.0
H565 H 0.3585 0.70668 0.14961 0.0
H566 H 0.35158 0.84643 0.15478 0.0
H567 H 0.39377 0.9 0.13109 0.0
C568 C 0.09092 0.30996 0.53569 0.0
C569 C 0.12776 0.31987 0.57696 0.0
C570 C 0.1332 0.22512 0.58496 0.0
C571 C 0.08756 0.2155 0.55223 0.0
N572 N 0.02834 0.24505 0.4892 0.0
N573 N 0.18997 0.28913 0.63725 0.0
C574 C 0.06895 0.25689 0.52433 0.0
C575 C 0.15197 0.27808 0.59958 0.0
N576 N 0.07627 0.35155 0.50876 0.0
N577 N 0.15691 0.18328 0.60302 0.0
H578 H 0.20555 0.32772 0.64756 0.0
H579 H 0.20509 0.26052 0.65928 0.0
H580 H 0.14295 0.1443 0.59256 0.0
H581 H 0.1925 0.18702 0.62468 0.0
H582 H 0.05145 0.34757 0.47668 0.0
H583 H 0.0924 0.39058 0.51686 0.0
H584 H 0.00877 0.27312 0.47035 0.0
H585 H 0.01385 0.20602 0.47925 0.0
C586 C 0.54643 0.28354 0.5517 0.0
C587 C 0.58565 0.2842 0.51393 0.0
C588 C 0.60028 0.38098 0.51755 0.0
C589 C 0.55366 0.38018 0.54744 0.0
N590 N 0.48894 0.33387 0.60183 0.0
N591 N 0.65092 0.33188 0.46036 0.0
C592 C 0.52947 0.3322 0.56813 0.0
C593 C 0.61413 0.33247 0.49781 0.0
N594 N 0.5248 0.23599 0.57033 0.0
N595 N 0.62991 0.42808 0.5066 0.0
H596 H 0.66169 0.29697 0.44488 0.0
H597 H 0.66845 0.36564 0.44237 0.0
H598 H 0.62015 0.46428 0.51976 0.0
H599 H 0.66693 0.43117 0.48861 0.0
H600 H 0.49667 0.23153 0.59884 0.0
H601 H 0.53734 0.20037 0.55819 0.0
H602 H 0.46643 0.30074 0.61665 0.0
H603 H 0.47832 0.36973 0.61549 0.0
loop_
_geom_bond_atom_site_label_1
_geom_bond_atom_site_label_2
_geom_bond_distance
_geom_bond_site_symmetry_2
_ccdc_geom_bond_type
H0 C5 0.929 . S
H1 C10 0.931 . S
H2 C8 0.930 . S
N3 N4 1.234 . S
N3 C7 1.453 . S
N4 N3 1.234 . S
C5 H0 0.929 . S
C5 C6 1.373 . S
C5 C7 1.368 . S
C6 C5 1.373 . S
C6 C10 1.397 . S
C7 N3 1.453 . S
C7 C5 1.368 . S
C7 C8 1.373 . S
C8 H2 0.930 . S
C8 C7 1.373 . S
C8 C9 1.371 . S
C9 C8 1.371 . S
C9 C10 1.383 . S
C10 H1 0.931 . S
C10 C6 1.397 . S
C10 C9 1.383 . S
H11 C16 0.929 . S
H12 C21 0.931 . S
H13 C19 0.930 . S
N14 N15 1.234 . S
N14 C18 1.453 . S
N15 N14 1.234 . S
C16 H11 0.929 . S
C16 C17 1.373 . S
C16 C18 1.368 . S
C17 C16 1.373 . S
C17 C21 1.397 . S
C18 N14 1.453 . S
C18 C16 1.368 . S
C18 C19 1.373 . S
C19 H13 0.930 . S
C19 C18 1.373 . S
C19 C20 1.371 . S
C20 C19 1.371 . S
C20 C21 1.383 . S
C21 H12 0.931 . S
C21 C17 1.397 . S
C21 C20 1.383 . S
H22 C27 0.929 . S
H23 C32 0.931 . S
H24 C30 0.930 . S
N25 N26 1.234 . S
N25 C29 1.453 . S
N26 N25 1.234 . S
C27 H22 0.929 . S
C27 C28 1.373 . S
C27 C29 1.368 . S
C28 C27 1.373 . S
C28 C32 1.397 . S
C29 N25 1.453 . S
C29 C27 1.368 . S
C29 C30 1.373 . S
C30 H24 0.930 . S
C30 C29 1.373 . S
C30 C31 1.371 . S
C31 C30 1.371 . S
C31 C32 1.383 . S
C32 H23 0.931 . S
C32 C28 1.397 . S
C32 C31 1.383 . S
H33 C38 0.929 . S
H34 C43 0.931 . S
H35 C41 0.930 . S
N36 N37 1.234 . S
N36 C40 1.453 . S
N37 N36 1.234 . S
C38 H33 0.929 . S
C38 C39 1.373 . S
C38 C40 1.368 . S
C39 C38 1.373 . S
C39 C43 1.397 . S
C40 N36 1.453 . S
C40 C38 1.368 . S
C40 C41 1.373 . S
C41 H35 0.930 . S
C41 C40 1.373 . S
C41 C42 1.371 . S
C42 C41 1.371 . S
C42 C43 1.383 . S
C43 H34 0.931 . S
C43 C39 1.397 . S
C43 C42 1.383 . S
H44 C49 0.929 . S
H45 C54 0.941 . S
H46 C52 0.930 1_554 S
N47 N48 1.234 1_546 S
N47 C51 1.453 1_545 S
N48 N47 1.234 1_564 S
C49 H44 0.929 . S
C49 C50 1.373 1_545 S
C49 C51 1.368 1_545 S
C50 C49 1.373 1_565 S
C50 C54 1.392 1_655 S
C51 N47 1.453 1_565 S
C51 C49 1.368 1_565 S
C51 C52 1.373 . S
C52 H46 0.930 1_556 S
C52 C51 1.373 . S
C52 C53 1.371 . S
C53 C52 1.371 . S
C53 C54 1.378 1_655 S
C54 H45 0.941 . S
C54 C50 1.392 1_455 S
C54 C53 1.378 1_455 S
H55 C60 0.929 . S
H56 C65 0.931 . S
H57 C63 0.930 . S
N58 N59 1.234 . S
N58 C62 1.453 . S
N59 N58 1.234 . S
C60 H55 0.929 . S
C60 C61 1.373 . S
C60 C62 1.368 . S
C61 C60 1.373 . S
C61 C65 1.397 . S
C62 N58 1.453 . S
C62 C60 1.368 . S
C62 C63 1.373 . S
C63 H57 0.930 . S
C63 C62 1.373 . S
C63 C64 1.371 . S
C64 C63 1.371 . S
C64 C65 1.383 . S
C65 H56 0.931 . S
C65 C61 1.397 . S
C65 C64 1.383 . S
H66 C71 0.929 . S
H67 C76 0.931 . S
H68 C74 0.930 . S
N69 N70 1.234 . S
N69 C73 1.453 . S
N70 N69 1.234 . S
C71 H66 0.929 . S
C71 C72 1.373 . S
C71 C73 1.368 . S
C72 C71 1.373 . S
C72 C76 1.397 . S
C73 N69 1.453 . S
C73 C71 1.368 . S
C73 C74 1.373 . S
C74 H68 0.930 . S
C74 C73 1.373 . S
C74 C75 1.371 . S
C75 C74 1.371 . S
C75 C76 1.383 . S
C76 H67 0.931 . S
C76 C72 1.397 . S
C76 C75 1.383 . S
H77 C82 0.929 . S
H78 C87 0.931 . S
H79 C85 0.930 . S
N80 N81 1.234 . S
N80 C84 1.453 . S
N81 N80 1.234 . S
C82 H77 0.929 . S
C82 C83 1.373 . S
C82 C84 1.368 . S
C83 C82 1.373 . S
C83 C87 1.397 . S
C84 N80 1.453 . S
C84 C82 1.368 . S
C84 C85 1.373 . S
C85 H79 0.930 . S
C85 C84 1.373 . S
C85 C86 1.371 . S
C86 C85 1.371 . S
C86 C87 1.383 . S
C87 H78 0.931 . S
C87 C83 1.397 . S
C87 C86 1.383 . S
Zn88 O94 1.920 . S
Zn88 O100 1.898 . S
Zn88 O103 1.905 . S
Zn89 O97 1.905 1_565 S
Zn89 O98 1.898 . S
Zn89 O106 1.920 . S
Zn90 O93 2.080 1_455 S
Zn90 O96 2.114 . S
Zn90 O99 2.120 1_445 S
Zn90 O101 2.120 . S
Zn90 O102 2.114 1_455 S
Zn90 O105 2.080 . S
C91 O96 1.166 . S
C91 O97 1.182 . S
C92 O98 1.167 1_655 S
C92 O99 1.299 . S
O93 Zn90 2.080 1_655 S
O93 C107 1.305 . S
O94 Zn88 1.920 . S
O94 C107 1.234 . S
C95 O100 1.167 1_455 S
C95 O101 1.299 . S
O96 Zn90 2.114 . S
O96 C91 1.166 . S
O97 Zn89 1.905 1_545 S
O97 C91 1.182 . S
O98 Zn89 1.898 . S
O98 C92 1.167 1_455 S
O99 Zn90 2.120 1_665 S
O99 C92 1.299 . S
O100 Zn88 1.898 . S
O100 C95 1.167 1_655 S
O101 Zn90 2.120 . S
O101 C95 1.299 . S
O102 Zn90 2.114 1_655 S
O102 C104 1.166 . S
O103 Zn88 1.905 . S
O103 C104 1.182 . S
C104 O102 1.166 . S
C104 O103 1.182 . S
O105 Zn90 2.080 . S
O105 C108 1.305 1_545 S
O106 Zn89 1.920 . S
O106 C108 1.234 . S
C107 O93 1.305 . S
C107 O94 1.234 . S
C108 O105 1.305 1_565 S
C108 O106 1.234 . S
Zn109 O115 1.920 1_556 S
Zn109 O121 1.898 . S
Zn109 O124 1.905 . S
Zn110 O118 1.905 . S
Zn110 O119 1.898 . S
Zn110 O127 1.920 . S
Zn111 O114 2.080 . S
Zn111 O117 2.114 1_545 S
Zn111 O120 2.120 1_545 S
Zn111 O122 2.120 . S
Zn111 O123 2.114 1_544 S
Zn111 O126 2.080 . S
C112 O117 1.166 . S
C112 O118 1.182 . S
C113 O119 1.167 . S
C113 O120 1.299 . S
O114 Zn111 2.080 . S
O114 C128 1.305 . S
O115 Zn109 1.920 1_554 S
O115 C128 1.234 . S
C116 O121 1.167 1_554 S
C116 O122 1.299 . S
O117 Zn111 2.114 1_565 S
O117 C112 1.166 . S
O118 Zn110 1.905 . S
O118 C112 1.182 . S
O119 Zn110 1.898 . S
O119 C113 1.167 . S
O120 Zn111 2.120 1_565 S
O120 C113 1.299 . S
O121 Zn109 1.898 . S
O121 C116 1.167 1_556 S
O122 Zn111 2.120 . S
O122 C116 1.299 . S
O123 Zn111 2.114 1_566 S
O123 C125 1.166 . S
O124 Zn109 1.905 . S
O124 C125 1.182 1_545 S
C125 O123 1.166 . S
C125 O124 1.182 1_565 S
O126 Zn111 2.080 . S
O126 C129 1.305 . S
O127 Zn110 1.920 . S
O127 C129 1.234 1_565 S
C128 O114 1.305 . S
C128 O115 1.234 . S
C129 O126 1.305 . S
C129 O127 1.234 1_545 S
Zn130 O136 1.920 . S
Zn130 O142 1.898 . S
Zn130 O145 1.905 . S
Zn131 O139 1.905 . S
Zn131 O140 1.898 . S
Zn131 O148 1.920 . S
Zn132 O135 2.080 . S
Zn132 O138 2.114 . S
Zn132 O141 2.120 . S
Zn132 O143 2.120 . S
Zn132 O144 2.114 . S
Zn132 O147 2.080 . S
C133 O138 1.166 . S
C133 O139 1.182 . S
C134 O140 1.167 . S
C134 O141 1.299 . S
O135 Zn132 2.080 . S
O135 C149 1.305 . S
O136 Zn130 1.920 . S
O136 C149 1.234 . S
C137 O142 1.167 . S
C137 O143 1.299 . S
O138 Zn132 2.114 . S
O138 C133 1.166 . S
O139 Zn131 1.905 . S
O139 C133 1.182 . S
O140 Zn131 1.898 . S
O140 C134 1.167 . S
O141 Zn132 2.120 . S
O141 C134 1.299 . S
O142 Zn130 1.898 . S
O142 C137 1.167 . S
O143 Zn132 2.120 . S
O143 C137 1.299 . S
O144 Zn132 2.114 . S
O144 C146 1.166 . S
O145 Zn130 1.905 . S
O145 C146 1.182 . S
C146 O144 1.166 . S
C146 O145 1.182 . S
O147 Zn132 2.080 . S
O147 C150 1.305 . S
O148 Zn131 1.920 . S
O148 C150 1.234 . S
C149 O135 1.305 . S
C149 O136 1.234 . S
C150 O147 1.305 . S
C150 O148 1.234 . S
Zn151 O157 1.920 . S
Zn151 O163 1.898 . S
Zn151 O166 1.905 . S
Zn152 O160 1.905 1_655 S
Zn152 O161 1.898 . S
Zn152 O169 1.920 . S
Zn153 O156 2.080 1_554 S
Zn153 O159 2.114 . S
Zn153 O162 2.120 1_454 S
Zn153 O164 2.120 . S
Zn153 O165 2.114 1_554 S
Zn153 O168 2.080 . S
C154 O159 1.166 . S
C154 O160 1.182 . S
C155 O161 1.167 1_556 S
C155 O162 1.299 . S
O156 Zn153 2.080 1_556 S
O156 C170 1.305 . S
O157 Zn151 1.920 . S
O157 C170 1.234 . S
C158 O163 1.167 1_554 S
C158 O164 1.299 . S
O159 Zn153 2.114 . S
O159 C154 1.166 . S
O160 Zn152 1.905 1_455 S
O160 C154 1.182 . S
O161 Zn152 1.898 . S
O161 C155 1.167 1_554 S
O162 Zn153 2.120 1_656 S
O162 C155 1.299 . S
O163 Zn151 1.898 . S
O163 C158 1.167 1_556 S
O164 Zn153 2.120 . S
O164 C158 1.299 . S
O165 Zn153 2.114 1_556 S
O165 C167 1.166 . S
O166 Zn151 1.905 . S
O166 C167 1.182 . S
C167 O165 1.166 . S
C167 O166 1.182 . S
O168 Zn153 2.080 . S
O168 C171 1.305 1_455 S
O169 Zn152 1.920 . S
O169 C171 1.234 . S
C170 O156 1.305 . S
C170 O157 1.234 . S
C171 O168 1.305 1_655 S
C171 O169 1.234 . S
C172 C173 1.363 . S
C172 C178 1.379 . S
C172 N180 1.356 . S
C173 C172 1.363 . S
C173 C179 1.363 . S
C174 C175 1.363 . S
C174 C179 1.379 . S
C174 N181 1.356 . S
C175 C174 1.363 . S
C175 C178 1.363 . S
N176 C178 1.356 . S
N176 H188 0.984 . S
N176 H189 0.985 . S
N177 C179 1.356 . S
N177 H182 0.984 . S
N177 H183 0.985 . S
C178 C172 1.379 . S
C178 C175 1.363 . S
C178 N176 1.356 . S
C179 C173 1.363 . S
C179 C174 1.379 . S
C179 N177 1.356 . S
N180 C172 1.356 . S
N180 H186 0.984 . S
N180 H187 0.984 . S
N181 C174 1.356 . S
N181 H184 0.984 . S
N181 H185 0.985 . S
H182 N177 0.984 . S
H183 N177 0.985 . S
H184 N181 0.984 . S
H185 N181 0.985 . S
H186 N180 0.984 . S
H187 N180 0.984 . S
H188 N176 0.984 . S
H189 N176 0.985 . S
C190 C191 1.363 . S
C190 C196 1.379 . S
C190 N198 1.356 . S
C191 C190 1.363 . S
C191 C197 1.363 . S
C192 C193 1.363 . S
C192 C197 1.379 . S
C192 N199 1.356 1_565 S
C193 C192 1.363 . S
C193 C196 1.363 . S
N194 C196 1.356 . S
N194 H206 0.984 . S
N194 H207 0.985 . S
N195 C197 1.356 . S
N195 H200 0.984 . S
N195 H201 0.985 . S
C196 C190 1.379 . S
C196 C193 1.363 . S
C196 N194 1.356 . S
C197 C191 1.363 . S
C197 C192 1.379 . S
C197 N195 1.356 . S
N198 C190 1.356 . S
N198 H204 0.984 . S
N198 H205 0.984 . S
N199 C192 1.356 1_545 S
N199 H202 0.984 . S
N199 H203 0.985 . S
H200 N195 0.984 . S
H201 N195 0.985 . S
H202 N199 0.984 . S
H203 N199 0.985 . S
H204 N198 0.984 . S
H205 N198 0.984 . S
H206 N194 0.984 . S
H207 N194 0.985 . S
C208 C209 1.363 . S
C208 C214 1.379 . S
C208 N216 1.356 . S
C209 C208 1.363 . S
C209 C215 1.363 . S
C210 C211 1.363 . S
C210 C215 1.379 . S
C210 N217 1.356 . S
C211 C210 1.363 . S
C211 C214 1.363 . S
N212 C214 1.356 . S
N212 H224 0.984 . S
N212 H225 0.985 . S
N213 C215 1.356 . S
N213 H218 0.984 . S
N213 H219 0.985 . S
C214 C208 1.379 . S
C214 C211 1.363 . S
C214 N212 1.356 . S
C215 C209 1.363 . S
C215 C210 1.379 . S
C215 N213 1.356 . S
N216 C208 1.356 . S
N216 H222 0.984 . S
N216 H223 0.984 . S
N217 C210 1.356 . S
N217 H220 0.984 . S
N217 H221 0.985 . S
H218 N213 0.984 . S
H219 N213 0.985 . S
H220 N217 0.984 . S
H221 N217 0.985 . S
H222 N216 0.984 . S
H223 N216 0.984 . S
H224 N212 0.984 . S
H225 N212 0.985 . S
C226 C227 1.363 . S
C226 C232 1.379 . S
C226 N234 1.356 . S
C227 C226 1.363 . S
C227 C233 1.363 . S
C228 C229 1.363 . S
C228 C233 1.379 . S
C228 N235 1.356 1_655 S
C229 C228 1.363 . S
C229 C232 1.363 . S
N230 C232 1.356 . S
N230 H242 0.984 . S
N230 H243 0.985 . S
N231 C233 1.356 . S
N231 H236 0.984 . S
N231 H237 0.986 1_655 S
C232 C226 1.379 . S
C232 C229 1.363 . S
C232 N230 1.356 . S
C233 C227 1.363 . S
C233 C228 1.379 . S
C233 N231 1.356 . S
N234 C226 1.356 . S
N234 H240 0.984 . S
N234 H241 0.984 . S
N235 C228 1.356 1_455 S
N235 H238 0.984 . S
N235 H239 0.985 . S
H236 N231 0.984 . S
H237 N231 0.986 1_455 S
H238 N235 0.984 . S
H239 N235 0.985 . S
H240 N234 0.984 . S
H241 N234 0.984 . S
H242 N230 0.984 . S
H243 N230 0.985 . S
C244 C245 1.363 . S
C244 C250 1.379 . S
C244 N252 1.356 . S
C245 C244 1.363 . S
C245 C251 1.363 . S
C246 C247 1.363 . S
C246 C251 1.379 . S
C246 N253 1.356 . S
C247 C246 1.363 . S
C247 C250 1.363 . S
N248 C250 1.356 . S
N248 H260 0.984 . S
N248 H261 0.985 . S
N249 C251 1.356 . S
N249 H254 0.984 . S
N249 H255 0.985 . S
C250 C244 1.379 . S
C250 C247 1.363 . S
C250 N248 1.356 . S
C251 C245 1.363 . S
C251 C246 1.379 . S
C251 N249 1.356 . S
N252 C244 1.356 . S
N252 H258 0.984 . S
N252 H259 0.984 . S
N253 C246 1.356 . S
N253 H256 0.984 . S
N253 H257 0.985 . S
H254 N249 0.984 . S
H255 N249 0.985 . S
H256 N253 0.984 . S
H257 N253 0.985 . S
H258 N252 0.984 . S
H259 N252 0.984 . S
H260 N248 0.984 . S
H261 N248 0.985 . S
C262 C263 1.363 . S
C262 C268 1.379 1_565 S
C262 N270 1.356 1_565 S
C263 C262 1.363 . S
C263 C269 1.363 . S
C264 C265 1.363 . S
C264 C269 1.379 . S
C264 N271 1.356 . S
C265 C264 1.363 . S
C265 C268 1.363 1_565 S
N266 C268 1.356 . S
N266 H278 0.984 . S
N266 H279 0.985 . S
N267 C269 1.356 . S
N267 H272 0.984 . S
N267 H273 0.985 . S
C268 C262 1.379 1_545 S
C268 C265 1.363 1_545 S
C268 N266 1.356 . S
C269 C263 1.363 . S
C269 C264 1.379 . S
C269 N267 1.356 . S
N270 C262 1.356 1_545 S
N270 H276 0.984 . S
N270 H277 0.984 1_545 S
N271 C264 1.356 . S
N271 H274 0.984 . S
N271 H275 0.985 . S
H272 N267 0.984 . S
H273 N267 0.985 . S
H274 N271 0.984 . S
H275 N271 0.985 . S
H276 N270 0.984 . S
H277 N270 0.984 1_565 S
H278 N266 0.984 . S
H279 N266 0.985 . S
C280 C281 1.363 . S
C280 C286 1.379 . S
C280 N288 1.356 . S
C281 C280 1.363 . S
C281 C287 1.363 . S
C282 C283 1.363 . S
C282 C287 1.379 . S
C282 N289 1.356 1_556 S
C283 C282 1.363 . S
C283 C286 1.363 . S
N284 C286 1.356 . S
N284 H296 0.984 . S
N284 H297 0.985 . S
N285 C287 1.356 . S
N285 H290 0.984 . S
N285 H291 0.985 1_556 S
C286 C280 1.379 . S
C286 C283 1.363 . S
C286 N284 1.356 . S
C287 C281 1.363 . S
C287 C282 1.379 . S
C287 N285 1.356 . S
N288 C280 1.356 . S
N288 H294 0.984 . S
N288 H295 0.984 . S
N289 C282 1.356 1_554 S
N289 H292 0.984 . S
N289 H293 0.985 . S
H290 N285 0.984 . S
H291 N285 0.985 1_554 S
H292 N289 0.984 . S
H293 N289 0.985 . S
H294 N288 0.984 . S
H295 N288 0.984 . S
H296 N284 0.984 . S
H297 N284 0.985 . S
C298 C299 1.363 . S
C298 C304 1.379 . S
C298 N306 1.356 . S
C299 C298 1.363 . S
C299 C305 1.363 . S
C300 C301 1.363 . S
C300 C305 1.379 . S
C300 N307 1.356 . S
C301 C300 1.363 . S
C301 C304 1.363 . S
N302 C304 1.356 . S
N302 H314 0.984 . S
N302 H315 0.985 . S
N303 C305 1.356 . S
N303 H308 0.984 . S
N303 H309 0.985 . S
C304 C298 1.379 . S
C304 C301 1.363 . S
C304 N302 1.356 . S
C305 C299 1.363 . S
C305 C300 1.379 . S
C305 N303 1.356 . S
N306 C298 1.356 . S
N306 H312 0.984 . S
N306 H313 0.984 . S
N307 C300 1.356 . S
N307 H310 0.984 . S
N307 H311 0.985 . S
H308 N303 0.984 . S
H309 N303 0.985 . S
H310 N307 0.984 . S
H311 N307 0.985 . S
H312 N306 0.984 . S
H313 N306 0.984 . S
H314 N302 0.984 . S
H315 N302 0.985 . S
C316 C317 1.363 . S
C316 C322 1.379 . S
C316 N324 1.356 . S
C317 C316 1.363 . S
C317 C323 1.363 . S
C318 C319 1.363 . S
C318 C323 1.379 . S
C318 N325 1.356 . S
C319 C318 1.363 . S
C319 C322 1.363 . S
N320 C322 1.356 . S
N320 H332 0.984 . S
N320 H333 0.985 . S
N321 C323 1.356 . S
N321 H326 0.984 . S
N321 H327 0.985 . S
C322 C316 1.379 . S
C322 C319 1.363 . S
C322 N320 1.356 . S
C323 C317 1.363 . S
C323 C318 1.379 . S
C323 N321 1.356 . S
N324 C316 1.356 . S
N324 H330 0.984 . S
N324 H331 0.984 . S
N325 C318 1.356 . S
N325 H328 0.984 . S
N325 H329 0.983 . S
H326 N321 0.984 . S
H327 N321 0.985 . S
H328 N325 0.984 . S
H329 N325 0.983 . S
H330 N324 0.984 . S
H331 N324 0.984 . S
H332 N320 0.984 . S
H333 N320 0.985 . S
C334 C335 1.363 . S
C334 C340 1.379 . S
C334 N342 1.356 . S
C335 C334 1.363 . S
C335 C341 1.363 . S
C336 C337 1.363 1_554 S
C336 C341 1.379 1_554 S
C336 N343 1.356 . S
C337 C336 1.363 1_556 S
C337 C340 1.363 . S
N338 C340 1.356 . S
N338 H350 0.984 . S
N338 H351 0.985 . S
N339 C341 1.356 1_554 S
N339 H344 0.984 1_554 S
N339 H345 0.985 . S
C340 C334 1.379 . S
C340 C337 1.363 . S
C340 N338 1.356 . S
C341 C335 1.363 . S
C341 C336 1.379 1_556 S
C341 N339 1.356 1_556 S
N342 C334 1.356 . S
N342 H348 0.984 . S
N342 H349 0.984 . S
N343 C336 1.356 . S
N343 H346 0.984 . S
N343 H347 0.985 . S
H344 N339 0.984 1_556 S
H345 N339 0.985 . S
H346 N343 0.984 . S
H347 N343 0.985 . S
H348 N342 0.984 . S
H349 N342 0.984 . S
H350 N338 0.984 . S
H351 N338 0.985 . S
C352 C353 1.363 . S
C352 C358 1.379 . S
C352 N360 1.356 . S
C353 C352 1.363 . S
C353 C359 1.363 . S
C354 C355 1.363 . S
C354 C359 1.379 . S
C354 N361 1.356 . S
C355 C354 1.363 . S
C355 C358 1.363 . S
N356 C358 1.356 . S
N356 H368 0.984 . S
N356 H369 0.985 . S
N357 C359 1.356 . S
N357 H362 0.984 . S
N357 H363 0.985 . S
C358 C352 1.379 . S
C358 C355 1.363 . S
C358 N356 1.356 . S
C359 C353 1.363 . S
C359 C354 1.379 . S
C359 N357 1.356 . S
N360 C352 1.356 . S
N360 H366 0.984 . S
N360 H367 0.984 . S
N361 C354 1.356 . S
N361 H364 0.984 . S
N361 H365 0.985 . S
H362 N357 0.984 . S
H363 N357 0.985 . S
H364 N361 0.984 . S
H365 N361 0.985 . S
H366 N360 0.984 . S
H367 N360 0.984 . S
H368 N356 0.984 . S
H369 N356 0.985 . S
C370 C371 1.363 . S
C370 C376 1.379 . S
C370 N378 1.356 . S
C371 C370 1.363 . S
C371 C377 1.363 . S
C372 C373 1.363 . S
C372 C377 1.379 . S
C372 N379 1.356 . S
C373 C372 1.363 . S
C373 C376 1.363 . S
N374 C376 1.356 . S
N374 H386 0.984 . S
N374 H387 0.985 . S
N375 C377 1.356 . S
N375 H380 0.984 . S
N375 H381 0.985 . S
C376 C370 1.379 . S
C376 C373 1.363 . S
C376 N374 1.356 . S
C377 C371 1.363 . S
C377 C372 1.379 . S
C377 N375 1.356 . S
N378 C370 1.356 . S
N378 H384 0.984 . S
N378 H385 0.984 . S
N379 C372 1.356 . S
N379 H382 0.984 . S
N379 H383 0.985 . S
H380 N375 0.984 . S
H381 N375 0.985 . S
H382 N379 0.984 . S
H383 N379 0.985 . S
H384 N378 0.984 . S
H385 N378 0.984 . S
H386 N374 0.984 . S
H387 N374 0.985 . S
C388 C389 1.363 1_545 S
C388 C394 1.379 . S
C388 N396 1.356 . S
C389 C388 1.363 1_565 S
C389 C395 1.363 1_655 S
C390 C391 1.363 1_465 S
C390 C395 1.379 . S
C390 N397 1.356 . S
C391 C390 1.363 1_645 S
C391 C394 1.363 . S
N392 C394 1.356 . S
N392 H404 0.984 . S
N392 H405 0.985 . S
N393 C395 1.356 . S
N393 H398 0.984 . S
N393 H399 0.985 . S
C394 C388 1.379 . S
C394 C391 1.363 . S
C394 N392 1.356 . S
C395 C389 1.363 1_455 S
C395 C390 1.379 . S
C395 N393 1.356 . S
N396 C388 1.356 . S
N396 H402 0.984 . S
N396 H403 0.984 . S
N397 C390 1.356 . S
N397 H400 0.984 . S
N397 H401 0.985 . S
H398 N393 0.984 . S
H399 N393 0.985 . S
H400 N397 0.984 . S
H401 N397 0.985 . S
H402 N396 0.984 . S
H403 N396 0.984 . S
H404 N392 0.984 . S
H405 N392 0.985 . S
C406 C407 1.363 . S
C406 C412 1.379 . S
C406 N414 1.356 . S
C407 C406 1.363 . S
C407 C413 1.363 . S
C408 C409 1.363 . S
C408 C413 1.379 . S
C408 N415 1.356 1_545 S
C409 C408 1.363 . S
C409 C412 1.363 . S
N410 C412 1.356 . S
N410 H422 0.984 . S
N410 H423 0.985 . S
N411 C413 1.356 1_565 S
N411 H416 0.984 1_565 S
N411 H417 0.985 . S
C412 C406 1.379 . S
C412 C409 1.363 . S
C412 N410 1.356 . S
C413 C407 1.363 . S
C413 C408 1.379 . S
C413 N411 1.356 1_545 S
N414 C406 1.356 . S
N414 H420 0.984 . S
N414 H421 0.984 . S
N415 C408 1.356 1_565 S
N415 H418 0.984 . S
N415 H419 0.985 . S
H416 N411 0.984 1_545 S
H417 N411 0.985 . S
H418 N415 0.984 . S
H419 N415 0.985 . S
H420 N414 0.984 . S
H421 N414 0.984 . S
H422 N410 0.984 . S
H423 N410 0.985 . S
C424 C425 1.363 . S
C424 C430 1.379 . S
C424 N432 1.356 . S
C425 C424 1.363 . S
C425 C431 1.363 . S
C426 C427 1.363 . S
C426 C431 1.379 . S
C426 N433 1.356 . S
C427 C426 1.363 . S
C427 C430 1.363 . S
N428 C430 1.356 . S
N428 H440 0.984 . S
N428 H441 0.985 . S
N429 C431 1.356 . S
N429 H434 0.984 . S
N429 H435 0.985 . S
C430 C424 1.379 . S
C430 C427 1.363 . S
C430 N428 1.356 . S
C431 C425 1.363 . S
C431 C426 1.379 . S
C431 N429 1.356 . S
N432 C424 1.356 . S
N432 H438 0.984 . S
N432 H439 0.984 . S
N433 C426 1.356 . S
N433 H436 0.984 . S
N433 H437 0.985 . S
H434 N429 0.984 . S
H435 N429 0.985 . S
H436 N433 0.984 . S
H437 N433 0.985 . S
H438 N432 0.984 . S
H439 N432 0.984 . S
H440 N428 0.984 . S
H441 N428 0.985 . S
C442 C443 1.363 . S
C442 C448 1.379 . S
C442 N450 1.356 . S
C443 C442 1.363 . S
C443 C449 1.363 . S
C444 C445 1.363 . S
C444 C449 1.379 . S
C444 N451 1.356 . S
C445 C444 1.363 . S
C445 C448 1.363 . S
N446 C448 1.356 . S
N446 H458 0.984 . S
N446 H459 0.985 . S
N447 C449 1.356 . S
N447 H452 0.984 . S
N447 H453 0.985 1_455 S
C448 C442 1.379 . S
C448 C445 1.363 . S
C448 N446 1.356 . S
C449 C443 1.363 . S
C449 C444 1.379 . S
C449 N447 1.356 . S
N450 C442 1.356 . S
N450 H456 0.984 . S
N450 H457 0.984 . S
N451 C444 1.356 . S
N451 H454 0.984 . S
N451 H455 0.985 1_455 S
H452 N447 0.984 . S
H453 N447 0.985 1_655 S
H454 N451 0.984 . S
H455 N451 0.985 1_655 S
H456 N450 0.984 . S
H457 N450 0.984 . S
H458 N446 0.984 . S
H459 N446 0.985 . S
C460 C461 1.363 . S
C460 C466 1.379 . S
C460 N468 1.356 . S
C461 C460 1.363 . S
C461 C467 1.363 1_545 S
C462 C463 1.363 1_565 S
C462 C467 1.379 . S
C462 N469 1.356 . S
C463 C462 1.363 1_545 S
C463 C466 1.363 . S
N464 C466 1.356 . S
N464 H476 0.984 . S
N464 H477 0.985 . S
N465 C467 1.356 1_556 S
N465 H470 0.984 . S
N465 H471 0.985 . S
C466 C460 1.379 . S
C466 C463 1.363 . S
C466 N464 1.356 . S
C467 C461 1.363 1_565 S
C467 C462 1.379 . S
C467 N465 1.356 1_554 S
N468 C460 1.356 . S
N468 H474 0.984 . S
N468 H475 0.984 . S
N469 C462 1.356 . S
N469 H472 0.984 . S
N469 H473 0.989 . S
H470 N465 0.984 . S
H471 N465 0.985 . S
H472 N469 0.984 . S
H473 N469 0.989 . S
H474 N468 0.984 . S
H475 N468 0.984 . S
H476 N464 0.984 . S
H477 N464 0.985 . S
C478 C479 1.363 . S
C478 C484 1.379 . S
C478 N486 1.356 . S
C479 C478 1.363 . S
C479 C485 1.363 . S
C480 C481 1.363 . S
C480 C485 1.379 . S
C480 N487 1.356 1_545 S
C481 C480 1.363 . S
C481 C484 1.363 . S
N482 C484 1.356 . S
N482 H494 0.984 . S
N482 H495 0.985 . S
N483 C485 1.356 . S
N483 H488 0.984 . S
N483 H489 0.985 1_545 S
C484 C478 1.379 . S
C484 C481 1.363 . S
C484 N482 1.356 . S
C485 C479 1.363 . S
C485 C480 1.379 . S
C485 N483 1.356 . S
N486 C478 1.356 . S
N486 H492 0.984 . S
N486 H493 0.984 . S
N487 C480 1.356 1_565 S
N487 H490 0.984 . S
N487 H491 0.985 . S
H488 N483 0.984 . S
H489 N483 0.985 1_565 S
H490 N487 0.984 . S
H491 N487 0.985 . S
H492 N486 0.984 . S
H493 N486 0.984 . S
H494 N482 0.984 . S
H495 N482 0.985 . S
C496 C497 1.363 . S
C496 C502 1.379 . S
C496 N504 1.356 . S
C497 C496 1.363 . S
C497 C503 1.363 . S
C498 C499 1.363 . S
C498 C503 1.379 . S
C498 N505 1.356 1_554 S
C499 C498 1.363 . S
C499 C502 1.363 . S
N500 C502 1.356 . S
N500 H512 0.984 . S
N500 H513 0.985 . S
N501 C503 1.356 . S
N501 H506 0.984 . S
N501 H507 0.986 1_554 S
C502 C496 1.379 . S
C502 C499 1.363 . S
C502 N500 1.356 . S
C503 C497 1.363 . S
C503 C498 1.379 . S
C503 N501 1.356 . S
N504 C496 1.356 . S
N504 H510 0.984 . S
N504 H511 0.984 . S
N505 C498 1.356 1_556 S
N505 H508 0.984 . S
N505 H509 0.985 . S
H506 N501 0.984 . S
H507 N501 0.986 1_556 S
H508 N505 0.984 . S
H509 N505 0.985 . S
H510 N504 0.984 . S
H511 N504 0.984 . S
H512 N500 0.984 . S
H513 N500 0.985 . S
C514 C515 1.363 . S
C514 C520 1.379 . S
C514 N522 1.356 . S
C515 C514 1.363 . S
C515 C521 1.363 . S
C516 C517 1.363 . S
C516 C521 1.379 . S
C516 N523 1.356 . S
C517 C516 1.363 . S
C517 C520 1.363 . S
N518 C520 1.356 . S
N518 H530 0.984 . S
N518 H531 0.985 . S
N519 C521 1.356 . S
N519 H524 0.984 . S
N519 H525 0.985 . S
C520 C514 1.379 . S
C520 C517 1.363 . S
C520 N518 1.356 . S
C521 C515 1.363 . S
C521 C516 1.379 . S
C521 N519 1.356 . S
N522 C514 1.356 . S
N522 H528 0.984 . S
N522 H529 0.984 . S
N523 C516 1.356 . S
N523 H526 0.984 . S
N523 H527 0.985 . S
H524 N519 0.984 . S
H525 N519 0.985 . S
H526 N523 0.984 . S
H527 N523 0.985 . S
H528 N522 0.984 . S
H529 N522 0.984 . S
H530 N518 0.984 . S
H531 N518 0.985 . S
C532 C533 1.363 . S
C532 C538 1.379 . S
C532 N540 1.356 . S
C533 C532 1.363 . S
C533 C539 1.363 1_656 S
C534 C535 1.363 1_554 S
C534 C539 1.379 . S
C534 N541 1.356 . S
C535 C534 1.363 1_556 S
C535 C538 1.363 1_455 S
N536 C538 1.356 . S
N536 H548 0.984 . S
N536 H549 0.985 . S
N537 C539 1.356 . S
N537 H542 0.984 . S
N537 H543 0.985 . S
C538 C532 1.379 . S
C538 C535 1.363 1_655 S
C538 N536 1.356 . S
C539 C533 1.363 1_454 S
C539 C534 1.379 . S
C539 N537 1.356 . S
N540 C532 1.356 . S
N540 H546 0.984 . S
N540 H547 0.984 . S
N541 C534 1.356 . S
N541 H544 0.984 . S
N541 H545 0.985 . S
H542 N537 0.984 . S
H543 N537 0.985 . S
H544 N541 0.984 . S
H545 N541 0.985 . S
H546 N540 0.984 . S
H547 N540 0.984 . S
H548 N536 0.984 . S
H549 N536 0.985 . S
C550 C551 1.363 . S
C550 C556 1.379 . S
C550 N558 1.356 . S
C551 C550 1.363 . S
C551 C557 1.363 . S
C552 C553 1.363 . S
C552 C557 1.379 . S
C552 N559 1.356 . S
C553 C552 1.363 . S
C553 C556 1.363 . S
N554 C556 1.356 . S
N554 H566 0.984 . S
N554 H567 0.985 . S
N555 C557 1.356 . S
N555 H560 0.984 . S
N555 H561 0.980 1_554 S
C556 C550 1.379 . S
C556 C553 1.363 . S
C556 N554 1.356 . S
C557 C551 1.363 . S
C557 C552 1.379 . S
C557 N555 1.356 . S
N558 C550 1.356 . S
N558 H564 0.984 . S
N558 H565 0.984 . S
N559 C552 1.356 . S
N559 H562 0.984 . S
N559 H563 0.985 1_554 S
H560 N555 0.984 . S
H561 N555 0.980 1_556 S
H562 N559 0.984 . S
H563 N559 0.985 1_556 S
H564 N558 0.984 . S
H565 N558 0.984 . S
H566 N554 0.984 . S
H567 N554 0.985 . S
C568 C569 1.363 . S
C568 C574 1.379 . S
C568 N576 1.356 . S
C569 C568 1.363 . S
C569 C575 1.363 . S
C570 C571 1.363 . S
C570 C575 1.379 . S
C570 N577 1.356 . S
C571 C570 1.363 . S
C571 C574 1.363 . S
N572 C574 1.356 1_655 S
N572 H584 0.984 . S
N572 H585 0.985 . S
N573 C575 1.356 . S
N573 H578 0.984 . S
N573 H579 0.985 . S
C574 C568 1.379 . S
C574 C571 1.363 . S
C574 N572 1.356 1_455 S
C575 C569 1.363 . S
C575 C570 1.379 . S
C575 N573 1.356 . S
N576 C568 1.356 . S
N576 H582 0.984 1_455 S
N576 H583 0.984 . S
N577 C570 1.356 . S
N577 H580 0.984 . S
N577 H581 0.985 . S
H578 N573 0.984 . S
H579 N573 0.985 . S
H580 N577 0.984 . S
H581 N577 0.985 . S
H582 N576 0.984 1_655 S
H583 N576 0.984 . S
H584 N572 0.984 . S
H585 N572 0.985 . S
C586 C587 1.363 . S
C586 C592 1.379 . S
C586 N594 1.356 . S
C587 C586 1.363 . S
C587 C593 1.363 . S
C588 C589 1.363 . S
C588 C593 1.379 . S
C588 N595 1.356 . S
C589 C588 1.363 . S
C589 C592 1.363 . S
N590 C592 1.356 . S
N590 H602 0.984 . S
N590 H603 0.985 . S
N591 C593 1.356 . S
N591 H596 0.984 . S
N591 H597 0.985 . S
C592 C586 1.379 . S
C592 C589 1.363 . S
C592 N590 1.356 . S
C593 C587 1.363 . S
C593 C588 1.379 . S
C593 N591 1.356 . S
N594 C586 1.356 . S
N594 H600 0.984 . S
N594 H601 0.984 . S
N595 C588 1.356 . S
N595 H598 0.984 . S
N595 H599 0.985 . S
H596 N591 0.984 . S
H597 N591 0.985 . S
H598 N595 0.984 . S
H599 N595 0.985 . S
H600 N594 0.984 . S
H601 N594 0.984 . S
H602 N590 0.984 . S
H603 N590 0.985 . S
C173 C6 1.683 . S
C175 C91 1.551 . S
C191 C20 1.775 . S
C193 C125 1.648 . S
C211 C137 1.168 . S
C209 N26 1.216 . S
C227 N37 1.402 . S
C229 C171 1.293 . S
C247 C128 1.740 . S
C245 C9 1.873 . S
C265 C108 1.319 . S
C263 N15 1.374 . S
C283 C155 1.300 . S
C281 C31 1.454 . S
C301 C146 1.407 . S
C299 C39 1.464 . S
C317 N4 1.573 . S
C319 C154 1.488 . S
C337 C116 1.504 1_556 S
C335 C28 1.598 . S
C353 C42 1.347 . S
C355 C92 1.252 . S
C371 C17 1.635 . S
C373 C149 1.531 . S
C391 C107 1.756 . S
C389 C50 1.836 . S
C407 C61 1.632 . S
C409 C129 1.527 . S
C425 N70 1.513 . S
C427 C134 1.422 . S
C443 N81 1.387 . S
C445 C167 1.366 . S
C461 N48 1.481 1_545 S
C463 C112 1.431 1_545 S
C481 C104 1.737 . S
C479 C64 1.850 . S
C499 C158 1.478 . S
C497 C75 1.494 . S
C517 C150 1.390 . S
C515 C86 1.509 . S
C533 C53 1.784 . S
C535 C170 1.679 . S
C553 C113 1.328 . S
C551 C72 1.410 . S
C571 C95 1.534 . S
C569 C83 1.638 . S
C587 N59 1.580 . S
C589 C133 1.510 . S
