# Generated by pormake.
# Topology sit, (3,6)-cn, num edge types: 1
# Building blocks:
#     Node 0, Type 0, BuildingBlock: ESEHIV_clean_linker_0, # of connection points: 3
#     Node 1, Type 0, BuildingBlock: ESEHIV_clean_linker_0, # of connection points: 3
#     Node 2, Type 0, BuildingBlock: ESEHIV_clean_linker_0, # of connection points: 3
#     Node 3, Type 0, BuildingBlock: ESEHIV_clean_linker_0, # of connection points: 3
#     Node 4, Type 1, BuildingBlock: MIDCAF_clean_sbu_0, # of connection points: 6
#     Node 5, Type 1, BuildingBlock: MIDCAF_clean_sbu_0, # of connection points: 6
#     Edge 6, Type (0, 1), BuildingBlock: KIFKEQ_clean_linker_1, # of connection points: 2
#     Edge 7, Type (0, 1), BuildingBlock: KIFKEQ_clean_linker_1, # of connection points: 2
#     Edge 8, Type (0, 1), BuildingBlock: KIFKEQ_clean_linker_1, # of connection points: 2
#     Edge 9, Type (0, 1), BuildingBlock: KIFKEQ_clean_linker_1, # of connection points: 2
#     Edge 10, Type (0, 1), BuildingBlock: KIFKEQ_clean_linker_1, # of connection points: 2
#     Edge 11, Type (0, 1), BuildingBlock: KIFKEQ_clean_linker_1, # of connection points: 2
#     Edge 12, Type (0, 1), BuildingBlock: KIFKEQ_clean_linker_1, # of connection points: 2
#     Edge 13, Type (0, 1), BuildingBlock: KIFKEQ_clean_linker_1, # of connection points: 2
#     Edge 14, Type (0, 1), BuildingBlock: KIFKEQ_clean_linker_1, # of connection points: 2
#     Edge 15, Type (0, 1), BuildingBlock: KIFKEQ_clean_linker_1, # of connection points: 2
#     Edge 16, Type (0, 1), BuildingBlock: KIFKEQ_clean_linker_1, # of connection points: 2
#     Edge 17, Type (0, 1), BuildingBlock: KIFKEQ_clean_linker_1, # of connection points: 2
# Relax obj value: 0.110
# Max RMSD: 0.193
# Mean RMSD: 0.106
data_MOF--net-sit--node1-MIDCAF_clean_sbu_0--node2-ESEHIV_clean_linker_0--edge1-KIFKEQ_clean_linker_1
_symmetry_space_group_name_H-M    P1
_symmetry_Int_Tables_number       1
_symmetry_cell_setting            triclinic
loop_
_symmetry_equiv_pos_as_xyz
'x, y, z'
_cell_length_a     22.434646
_cell_length_b     30.504028
_cell_length_c     34.014724
_cell_angle_alpha  90.003342
_cell_angle_beta   89.222743
_cell_angle_gamma 83.59307
loop_
_atom_site_label
_atom_site_type_symbol
_atom_site_fract_x
_atom_site_fract_y
_atom_site_fract_z
_atom_type_partial_charge
H0 H 0.08188 0.35099 0.98133 0.0
H1 H 0.1796 0.26477 0.06369 0.0
H2 H 0.98731 0.26761 0.05574 0.0
C3 C 0.08224 0.32615 0.00418 0.0
C4 C 0.02834 0.31067 0.0161 0.0
C5 C 0.1368 0.3096 0.02103 0.0
C6 C 0.13741 0.27722 0.05043 0.0
C7 C 0.08351 0.26183 0.06338 0.0
C8 C 0.02929 0.27832 0.0455 0.0
H9 H 0.0166 0.66766 0.98107 0.0
H10 H 0.92189 0.7727 0.04873 0.0
H11 H 0.11526 0.76194 0.03676 0.0
C12 C 0.01708 0.6968 -0.00069 0.0
C13 C 0.07186 0.71174 0.0082 0.0
C14 C 0.96289 0.71935 0.01274 0.0
C15 C 0.96385 0.75636 0.03722 0.0
C16 C 0.01887 0.77207 0.04663 0.0
C17 C 0.07258 0.74993 0.03098 0.0
H18 H 0.58736 0.84343 0.49571 0.0
H19 H 0.68808 0.7355 0.55456 0.0
H20 H 0.49506 0.74098 0.54583 0.0
C21 C 0.58857 0.81283 0.5121 0.0
C22 C 0.53508 0.79527 0.52055 0.0
C23 C 0.64378 0.7909 0.52325 0.0
C24 C 0.64528 0.75157 0.54495 0.0
C25 C 0.59158 0.73313 0.55383 0.0
C26 C 0.53672 0.755 0.54056 0.0
H27 H 0.52203 0.16981 0.47 0.0
H28 H 0.41949 0.27206 0.53713 0.0
H29 H 0.61286 0.26445 0.53191 0.0
C30 C 0.52035 0.19869 0.48876 0.0
C31 C 0.57369 0.21576 0.4985 0.0
C32 C 0.46467 0.21893 0.50243 0.0
C33 C 0.46252 0.2567 0.52642 0.0
C34 C 0.51594 0.27364 0.53748 0.0
C35 C 0.57114 0.253 0.52285 0.0
Zn36 Zn 0.03249 0.1516 0.37167 0.0
Zn37 Zn 0.07278 0.92015 0.35319 0.0
Zn38 Zn 0.05817 0.99718 0.35994 0.0
C39 C 0.03973 0.95023 0.27971 0.0
C40 C 0.98248 0.93616 0.40904 0.0
O41 O 0.13176 0.0239 0.38956 0.0
O42 O 0.07773 0.08682 0.3801 0.0
C43 C 0.04883 0.07318 0.30541 0.0
O44 O 0.05288 0.98587 0.29599 0.0
O45 O 0.03885 0.91559 0.29987 0.0
O46 O 0.02276 0.90582 0.39911 0.0
O47 O 0.98283 0.97496 0.39421 0.0
O48 O 0.04287 0.09055 0.33974 0.0
O49 O 0.05404 0.03096 0.30373 0.0
O50 O 0.97632 0.02208 0.39086 0.0
O51 O 0.0093 0.08585 0.38042 0.0
C52 C 0.96773 0.06418 0.39389 0.0
O53 O 0.14557 0.97707 0.3871 0.0
O54 O 0.16103 0.91121 0.35973 0.0
C55 C 0.12579 0.06591 0.39362 0.0
C56 C 0.17986 0.94111 0.38031 0.0
Zn57 Zn 0.54133 0.58116 0.84111 0.0
Zn58 Zn 0.60318 0.37166 0.86368 0.0
Zn59 Zn 0.55843 0.50432 0.85547 0.0
C60 C 0.58596 0.41942 0.78618 0.0
C61 C 0.48542 0.4407 0.89558 0.0
O62 O 0.62703 0.53829 0.88737 0.0
O63 O 0.58445 0.60697 0.88442 0.0
C64 C 0.58178 0.53979 0.77194 0.0
O65 O 0.57173 0.4575 0.8032 0.0
O66 O 0.60225 0.38369 0.80489 0.0
O67 O 0.53019 0.41481 0.88338 0.0
O68 O 0.48341 0.48184 0.88733 0.0
O69 O 0.58018 0.57695 0.78843 0.0
O70 O 0.56807 0.50636 0.79155 0.0
O71 O 0.46774 0.52764 0.87865 0.0
O72 O 0.45284 0.58961 0.84508 0.0
C73 C 0.43325 0.56225 0.86842 0.0
O74 O 0.63767 0.49352 0.89098 0.0
O75 O 0.60334 0.43158 0.88381 0.0
C76 C 0.62484 0.57913 0.8978 0.0
C77 C 0.64492 0.45205 0.89613 0.0
H78 H 0.01979 0.19063 0.07149 0.0
H79 H 0.14458 0.26379 0.13235 0.0
H80 H 0.01088 0.14483 0.12965 0.0
H81 H 0.13713 0.21712 0.19004 0.0
H82 H 0.05165 0.16249 0.30017 0.0
H83 H 0.06214 0.20623 0.24097 0.0
H84 H 0.0667 0.08845 0.16997 0.0
H85 H 0.05519 0.04489 0.2291 0.0
C86 C 0.04567 0.19671 0.09718 0.0
C87 C 0.08271 0.231 0.09729 0.0
C88 C 0.04093 0.17023 0.13042 0.0
C89 C 0.07294 0.17751 0.16464 0.0
C90 C 0.11116 0.21106 0.16438 0.0
C91 C 0.11606 0.23743 0.1311 0.0
C92 C 0.05449 0.14596 0.27195 0.0
C93 C 0.05249 0.10018 0.26941 0.0
C94 C 0.06108 0.17097 0.238 0.0
C95 C 0.06563 0.15083 0.2007 0.0
C96 C 0.06285 0.1051 0.19816 0.0
C97 C 0.05648 0.08008 0.23212 0.0
H98 H 0.10484 0.7842 0.10077 0.0
H99 H 0.93739 0.84668 0.05496 0.0
H100 H 0.10695 0.84393 0.14729 0.0
H101 H 0.93828 0.90556 0.10379 0.0
H102 H 0.93832 0.92977 0.24631 0.0
H103 H 0.93105 0.89884 0.18059 0.0
H104 H 0.11072 0.92867 0.1535 0.0
H105 H 0.11731 0.96045 0.21937 0.0
C106 C 0.06906 0.81107 0.09983 0.0
C107 C 0.02097 0.81032 0.07376 0.0
C108 C 0.07039 0.84544 0.12666 0.0
C109 C 0.02316 0.87963 0.12881 0.0
C110 C 0.97543 0.87964 0.10252 0.0
C111 C 0.97465 0.84557 0.07496 0.0
C112 C 0.97498 0.9317 0.22553 0.0
C113 C 0.02827 0.94741 0.23753 0.0
C114 C 0.97087 0.91404 0.18795 0.0
C115 C 0.0206 0.91092 0.16222 0.0
C116 C 0.07186 0.9306 0.17294 0.0
C117 C 0.07553 0.949 0.2104 0.0
H118 H 0.50798 0.7128 0.60826 0.0
H119 H 0.67636 0.65987 0.55417 0.0
H120 H 0.50937 0.6479 0.64915 0.0
H121 H 0.67872 0.59517 0.59697 0.0
H122 H 0.68534 0.55248 0.73494 0.0
H123 H 0.68994 0.58813 0.67104 0.0
H124 H 0.50639 0.56555 0.65026 0.0
H125 H 0.50215 0.52993 0.71448 0.0
C126 C 0.54475 0.68696 0.60432 0.0
C127 C 0.592 0.6919 0.57762 0.0
C128 C 0.54543 0.6495 0.62786 0.0
C129 C 0.59376 0.61605 0.62595 0.0
C130 C 0.64073 0.62035 0.59895 0.0
C131 C 0.63963 0.65771 0.5748 0.0
C132 C 0.64732 0.55267 0.71559 0.0
C133 C 0.59347 0.53848 0.72941 0.0
C134 C 0.64977 0.57335 0.67904 0.0
C135 C 0.59802 0.58061 0.6561 0.0
C136 C 0.54669 0.56093 0.66765 0.0
C137 C 0.54449 0.5399 0.70413 0.0
H138 H 0.44316 0.28927 0.60288 0.0
H139 H 0.58906 0.34027 0.53966 0.0
H140 H 0.45695 0.33871 0.65756 0.0
H141 H 0.60454 0.38781 0.59548 0.0
H142 H 0.66315 0.37717 0.73307 0.0
H143 H 0.6397 0.35461 0.66658 0.0
H144 H 0.4626 0.42516 0.67819 0.0
H145 H 0.48696 0.44899 0.74454 0.0
C146 C 0.47703 0.31176 0.60003 0.0
C147 C 0.51579 0.30994 0.56701 0.0
C148 C 0.48498 0.34004 0.63149 0.0
C149 C 0.5322 0.36665 0.6308 0.0
C150 C 0.56814 0.36729 0.5968 0.0
C151 C 0.5595 0.33971 0.56504 0.0
C152 C 0.62007 0.38917 0.72081 0.0
C153 C 0.57703 0.41505 0.74361 0.0
C154 C 0.60662 0.37631 0.68284 0.0
C155 C 0.5493 0.38809 0.66741 0.0
C156 C 0.50712 0.41576 0.68948 0.0
C157 C 0.52118 0.4296 0.72719 0.0
H158 H 0.15938 0.39495 0.02318 0.0
H159 H 0.23824 0.26492 0.98906 0.0
H160 H 0.24594 0.42673 -0.00413 0.0
H161 H 0.32414 0.29661 0.95995 0.0
H162 H 0.49208 0.36448 0.93723 0.0
H163 H 0.4111 0.33223 0.97104 0.0
H164 H 0.28583 0.44174 0.9333 0.0
H165 H 0.3673 0.47401 0.90004 0.0
C166 C 0.1956 0.37323 0.00986 0.0
C167 C 0.19237 0.32761 0.0081 0.0
C168 C 0.24491 0.39139 -0.00613 0.0
C169 C 0.29177 0.36441 0.97511 0.0
C170 C 0.28926 0.31843 0.97447 0.0
C171 C 0.24013 0.30019 0.99104 0.0
C172 C 0.44721 0.38177 0.93646 0.0
C173 C 0.4361 0.42231 0.91678 0.0
C174 C 0.40069 0.36314 0.95564 0.0
C175 C 0.3418 0.38445 0.95526 0.0
C176 C 0.33081 0.42491 0.93518 0.0
C177 C 0.37747 0.44362 0.91619 0.0
H178 H 0.86502 0.70264 0.05773 0.0
H179 H 0.93367 0.7001 0.93841 0.0
H180 H 0.77927 0.66537 0.03587 0.0
H181 H 0.84975 0.66241 0.91707 0.0
H182 H 0.74329 0.54902 0.90039 0.0
H183 H 0.82188 0.58324 0.9339 0.0
H184 H 0.68841 0.68062 0.98453 0.0
H185 H 0.60961 0.64597 0.95113 0.0
C186 C 0.86126 0.69474 0.02688 0.0
C187 C 0.90628 0.70356 -0.00018 0.0
C188 C 0.81269 0.67321 0.01449 0.0
C189 C 0.80916 0.66005 0.97506 0.0
C190 C 0.85247 0.6711 0.94784 0.0
C191 C 0.90023 0.69284 0.96002 0.0
C192 C 0.73062 0.57661 0.91978 0.0
C193 C 0.67064 0.59474 0.92327 0.0
C194 C 0.77549 0.59654 0.93859 0.0
C195 C 0.76097 0.63475 0.96142 0.0
C196 C 0.70059 0.65114 0.96716 0.0
C197 C 0.65575 0.63147 0.94792 0.0
H198 H -0.01101 0.39756 0.00683 0.0
H199 H 0.93853 0.26713 0.98643 0.0
H200 H 0.89641 0.42992 0.97701 0.0
H201 H 0.84624 0.29934 0.95522 0.0
H202 H 0.65905 0.37556 0.93771 0.0
H203 H 0.75103 0.3401 0.96695 0.0
H204 H 0.85007 0.43999 0.91536 0.0
H205 H 0.75784 0.47544 0.88705 0.0
C206 C 0.95816 0.37582 -0.00443 0.0
C207 C 0.971 0.32987 -0.00126 0.0
C208 C 0.90519 0.39432 0.97826 0.0
C209 C 0.86392 0.36731 0.96323 0.0
C210 C 0.87657 0.32121 0.96681 0.0
C211 C 0.92945 0.3027 0.98458 0.0
C212 C 0.7007 0.38969 0.93262 0.0
C213 C 0.7013 0.42888 0.91105 0.0
C214 C 0.75346 0.36933 0.9492 0.0
C215 C 0.80806 0.38747 0.94407 0.0
C216 C 0.80868 0.42579 0.92104 0.0
C217 C 0.75585 0.44629 0.90486 0.0
H218 H 0.10725 0.62359 0.01255 0.0
H219 H 0.16116 0.74553 0.96713 0.0
H220 H 0.19268 0.58226 0.97867 0.0
H221 H 0.24682 0.70431 0.9335 0.0
H222 H 0.34015 0.61637 0.83952 0.0
H223 H 0.25329 0.65089 0.87607 0.0
H224 H 0.30767 0.57289 0.97802 0.0
H225 H 0.39555 0.53856 0.94148 0.0
C226 C 0.13789 0.64149 -0.00434 0.0
C227 C 0.1277 0.68765 -0.0078 0.0
C228 C 0.1867 0.6179 0.97644 0.0
C229 C 0.22569 0.64007 0.95309 0.0
C230 C 0.21675 0.68639 0.95085 0.0
C231 C 0.16829 0.71001 0.97039 0.0
C232 C 0.33299 0.60592 0.8695 0.0
C233 C 0.37451 0.57468 0.88765 0.0
C234 C 0.28362 0.62599 0.89049 0.0
C235 C 0.27459 0.61516 0.93004 0.0
C236 C 0.31379 0.58184 0.94754 0.0
C237 C 0.36368 0.56191 0.92654 0.0
H238 H 0.67357 0.81169 0.44902 0.0
H239 H 0.73678 0.81297 0.56822 0.0
H240 H 0.75484 0.85276 0.42736 0.0
H241 H 0.81896 0.85472 0.5465 0.0
H242 H -0.00794 0.88138 0.47179 0.0
H243 H 0.91114 0.84696 0.50392 0.0
H244 H 0.7816 0.92822 0.43499 0.0
H245 H 0.8629 0.96115 0.40191 0.0
C246 C 0.70532 0.82063 0.47053 0.0
C247 C 0.69886 0.80951 0.51029 0.0
C248 C 0.7514 0.8446 0.45825 0.0
C249 C 0.7923 0.85803 0.48541 0.0
C250 C 0.78774 0.84508 0.52498 0.0
C251 C 0.74119 0.82097 0.53737 0.0
C252 C 0.94607 0.89268 0.46438 0.0
C253 C 0.93346 0.92435 0.43474 0.0
C254 C 0.89981 0.87305 0.48282 0.0
C255 C 0.84014 0.88445 0.47161 0.0
C256 C 0.82732 0.91838 0.44389 0.0
C257 C 0.87365 0.93805 0.42552 0.0
H258 H 0.43932 0.13568 0.51751 0.0
H259 H 0.36676 0.25744 0.46332 0.0
H260 H 0.35436 0.09983 0.49468 0.0
H261 H 0.2827 0.22128 0.43852 0.0
H262 H 0.11601 0.15075 0.42115 0.0
H263 H 0.19362 0.18899 0.45143 0.0
H264 H 0.32013 0.07228 0.43612 0.0
H265 H 0.24206 0.034 0.4072 0.0
C266 C 0.40483 0.15474 0.50072 0.0
C267 C 0.4095 0.1992 0.49203 0.0
C268 C 0.35638 0.13415 0.48725 0.0
C269 C 0.31186 0.15728 0.46405 0.0
C270 C 0.31564 0.20237 0.45654 0.0
C271 C 0.36382 0.22318 0.47063 0.0
C272 C 0.16043 0.13332 0.42437 0.0
C273 C 0.17282 0.08925 0.41196 0.0
C274 C 0.2051 0.15531 0.4416 0.0
C275 C 0.26342 0.13386 0.44651 0.0
C276 C 0.27559 0.08975 0.43381 0.0
C277 C 0.23082 0.06771 0.41698 0.0
H278 H 0.49211 0.88142 0.53192 0.0
H279 H 0.45207 0.76173 0.4753 0.0
H280 H 0.40818 0.92302 0.49823 0.0
H281 H 0.36781 0.803 0.44198 0.0
H282 H 0.27802 0.89165 0.35142 0.0
H283 H 0.36336 0.85862 0.38872 0.0
H284 H 0.29612 0.93208 0.49168 0.0
H285 H 0.21074 0.9659 0.45383 0.0
C286 C 0.46455 0.864 0.51275 0.0
C287 C 0.47843 0.81851 0.50596 0.0
C288 C 0.41664 0.88773 0.49356 0.0
C289 C 0.38229 0.86639 0.46694 0.0
C290 C 0.3944 0.82045 0.46176 0.0
C291 C 0.44197 0.7967 0.48118 0.0
C292 C 0.28227 0.90153 0.38177 0.0
C293 C 0.23779 0.93101 0.3999 0.0
C294 C 0.33066 0.88225 0.40323 0.0
C295 C 0.33531 0.89177 0.44338 0.0
C296 C 0.29337 0.92396 0.46081 0.0
C297 C 0.24484 0.94353 0.43914 0.0
H298 H 0.66516 0.25414 0.4637 0.0
H299 H 0.61462 0.12824 0.50144 0.0
H300 H 0.76098 0.21806 0.439 0.0
H301 H 0.71104 0.09214 0.47818 0.0
H302 H 0.85791 0.03521 0.39356 0.0
H303 H 0.76382 0.07176 0.41959 0.0
H304 H 0.85564 0.18172 0.45677 0.0
H305 H 0.94973 0.14491 0.42971 0.0
C306 C 0.67495 0.21875 0.46704 0.0
C307 C 0.63239 0.19392 0.4842 0.0
C308 C 0.72997 0.19805 0.4531 0.0
C309 C 0.74396 0.15206 0.45643 0.0
C310 C 0.7015 0.12744 0.47428 0.0
C311 C 0.64626 0.14808 0.48775 0.0
C312 C 0.85809 0.06672 0.408 0.0
C313 C 0.91121 0.08674 0.41035 0.0
C314 C 0.8041 0.08787 0.42287 0.0
C315 C 0.80191 0.12965 0.44071 0.0
C316 C 0.85532 0.14982 0.44288 0.0
C317 C 0.90933 0.12869 0.42759 0.0
loop_
_geom_bond_atom_site_label_1
_geom_bond_atom_site_label_2
_geom_bond_distance
_geom_bond_site_symmetry_2
_ccdc_geom_bond_type
H0 C3 0.931 . S
H1 C6 0.928 . S
H2 C8 0.930 . S
C3 H0 0.931 . S
C3 C4 1.413 1_556 S
C3 C5 1.360 1_556 S
C4 C3 1.413 1_554 S
C4 C8 1.429 . S
C5 C3 1.360 1_554 S
C5 C6 1.372 . S
C6 H1 0.928 . S
C6 C5 1.372 . S
C6 C7 1.404 . S
C7 C6 1.404 . S
C7 C8 1.391 . S
C8 H2 0.930 . S
C8 C4 1.429 . S
C8 C7 1.391 . S
H9 C12 0.931 . S
H10 C15 0.928 . S
H11 C17 0.930 . S
C12 H9 0.931 . S
C12 C13 1.413 1_556 S
C12 C14 1.360 1_456 S
C13 C12 1.413 1_554 S
C13 C17 1.429 . S
C14 C12 1.360 1_654 S
C14 C15 1.372 . S
C15 H10 0.928 . S
C15 C14 1.372 . S
C15 C16 1.404 1_655 S
C16 C15 1.404 1_455 S
C16 C17 1.391 . S
C17 H11 0.930 . S
C17 C13 1.429 . S
C17 C16 1.391 . S
H18 C21 0.931 . S
H19 C24 0.928 . S
H20 C26 0.930 . S
C21 H18 0.931 . S
C21 C22 1.413 . S
C21 C23 1.360 . S
C22 C21 1.413 . S
C22 C26 1.429 . S
C23 C21 1.360 . S
C23 C24 1.372 . S
C24 H19 0.928 . S
C24 C23 1.372 . S
C24 C25 1.404 . S
C25 C24 1.404 . S
C25 C26 1.391 . S
C26 H20 0.930 . S
C26 C22 1.429 . S
C26 C25 1.391 . S
H27 C30 0.931 . S
H28 C33 0.928 . S
H29 C35 0.930 . S
C30 H27 0.931 . S
C30 C31 1.413 . S
C30 C32 1.360 . S
C31 C30 1.413 . S
C31 C35 1.429 . S
C32 C30 1.360 . S
C32 C33 1.372 . S
C33 H28 0.928 . S
C33 C32 1.372 . S
C33 C34 1.404 . S
C34 C33 1.404 . S
C34 C35 1.391 . S
C35 H29 0.930 . S
C35 C31 1.429 . S
C35 C34 1.391 . S
Zn36 O42 1.920 . S
Zn36 O48 1.898 . S
Zn36 O51 1.905 1_455 S
Zn37 O45 1.905 . S
Zn37 O46 1.898 . S
Zn37 O54 1.920 . S
Zn38 O41 2.080 . S
Zn38 O44 2.114 1_545 S
Zn38 O47 2.120 1_545 S
Zn38 O49 2.120 . S
Zn38 O50 2.114 1_455 S
Zn38 O53 2.080 1_545 S
C39 O44 1.166 . S
C39 O45 1.182 . S
C40 O46 1.167 . S
C40 O47 1.299 . S
O41 Zn38 2.080 . S
O41 C55 1.305 . S
O42 Zn36 1.920 . S
O42 C55 1.234 . S
C43 O48 1.167 . S
C43 O49 1.299 . S
O44 Zn38 2.114 1_565 S
O44 C39 1.166 . S
O45 Zn37 1.905 . S
O45 C39 1.182 . S
O46 Zn37 1.898 . S
O46 C40 1.167 . S
O47 Zn38 2.120 1_565 S
O47 C40 1.299 . S
O48 Zn36 1.898 . S
O48 C43 1.167 . S
O49 Zn38 2.120 . S
O49 C43 1.299 . S
O50 Zn38 2.114 1_655 S
O50 C52 1.166 . S
O51 Zn36 1.905 1_655 S
O51 C52 1.182 . S
C52 O50 1.166 . S
C52 O51 1.182 . S
O53 Zn38 2.080 1_565 S
O53 C56 1.305 . S
O54 Zn37 1.920 . S
O54 C56 1.234 . S
C55 O41 1.305 . S
C55 O42 1.234 . S
C56 O53 1.305 . S
C56 O54 1.234 . S
Zn57 O63 1.920 . S
Zn57 O69 1.898 . S
Zn57 O72 1.905 . S
Zn58 O66 1.905 . S
Zn58 O67 1.898 . S
Zn58 O75 1.920 . S
Zn59 O62 2.080 . S
Zn59 O65 2.114 . S
Zn59 O68 2.120 . S
Zn59 O70 2.120 . S
Zn59 O71 2.114 . S
Zn59 O74 2.080 . S
C60 O65 1.166 . S
C60 O66 1.182 . S
C61 O67 1.167 . S
C61 O68 1.299 . S
O62 Zn59 2.080 . S
O62 C76 1.305 . S
O63 Zn57 1.920 . S
O63 C76 1.234 . S
C64 O69 1.167 . S
C64 O70 1.299 . S
O65 Zn59 2.114 . S
O65 C60 1.166 . S
O66 Zn58 1.905 . S
O66 C60 1.182 . S
O67 Zn58 1.898 . S
O67 C61 1.167 . S
O68 Zn59 2.120 . S
O68 C61 1.299 . S
O69 Zn57 1.898 . S
O69 C64 1.167 . S
O70 Zn59 2.120 . S
O70 C64 1.299 . S
O71 Zn59 2.114 . S
O71 C73 1.166 . S
O72 Zn57 1.905 . S
O72 C73 1.182 . S
C73 O71 1.166 . S
C73 O72 1.182 . S
O74 Zn59 2.080 . S
O74 C77 1.305 . S
O75 Zn58 1.920 . S
O75 C77 1.234 . S
C76 O62 1.305 . S
C76 O63 1.234 . S
C77 O74 1.305 . S
C77 O75 1.234 . S
H78 C86 0.950 . S
H79 C91 0.950 . S
H80 C88 0.950 . S
H81 C90 0.950 . S
H82 C92 0.950 . S
H83 C94 0.950 . S
H84 C96 0.950 . S
H85 C97 0.950 . S
C86 H78 0.950 . S
C86 C87 1.386 . S
C86 C88 1.391 . S
C87 C86 1.386 . S
C87 C91 1.393 . S
C88 H80 0.950 . S
C88 C86 1.391 . S
C88 C89 1.400 . S
C89 C88 1.400 . S
C89 C90 1.398 . S
C89 C95 1.491 . S
C90 H81 0.950 . S
C90 C89 1.398 . S
C90 C91 1.391 . S
C91 H79 0.950 . S
C91 C87 1.393 . S
C91 C90 1.391 . S
C92 H82 0.950 . S
C92 C93 1.386 . S
C92 C94 1.391 . S
C93 C92 1.386 . S
C93 C97 1.393 . S
C94 H83 0.950 . S
C94 C92 1.391 . S
C94 C95 1.400 . S
C95 C89 1.491 . S
C95 C94 1.400 . S
C95 C96 1.398 . S
C96 H84 0.950 . S
C96 C95 1.398 . S
C96 C97 1.391 . S
C97 H85 0.950 . S
C97 C93 1.393 . S
C97 C96 1.391 . S
H98 C106 0.950 . S
H99 C111 0.950 . S
H100 C108 0.950 . S
H101 C110 0.950 . S
H102 C112 0.950 . S
H103 C114 0.950 . S
H104 C116 0.950 . S
H105 C117 0.950 . S
C106 H98 0.950 . S
C106 C107 1.386 . S
C106 C108 1.391 . S
C107 C106 1.386 . S
C107 C111 1.393 1_455 S
C108 H100 0.950 . S
C108 C106 1.391 . S
C108 C109 1.400 . S
C109 C108 1.400 . S
C109 C110 1.398 1_455 S
C109 C115 1.491 . S
C110 H101 0.950 . S
C110 C109 1.398 1_655 S
C110 C111 1.391 . S
C111 H99 0.950 . S
C111 C107 1.393 1_655 S
C111 C110 1.391 . S
C112 H102 0.950 . S
C112 C113 1.386 1_655 S
C112 C114 1.391 . S
C113 C112 1.386 1_455 S
C113 C117 1.393 . S
C114 H103 0.950 . S
C114 C112 1.391 . S
C114 C115 1.400 1_655 S
C115 C109 1.491 . S
C115 C114 1.400 1_455 S
C115 C116 1.398 . S
C116 H104 0.950 . S
C116 C115 1.398 . S
C116 C117 1.391 . S
C117 H105 0.950 . S
C117 C113 1.393 . S
C117 C116 1.391 . S
H118 C126 0.950 . S
H119 C131 0.950 . S
H120 C128 0.950 . S
H121 C130 0.950 . S
H122 C132 0.950 . S
H123 C134 0.950 . S
H124 C136 0.950 . S
H125 C137 0.950 . S
C126 H118 0.950 . S
C126 C127 1.386 . S
C126 C128 1.391 . S
C127 C126 1.386 . S
C127 C131 1.393 . S
C128 H120 0.950 . S
C128 C126 1.391 . S
C128 C129 1.400 . S
C129 C128 1.400 . S
C129 C130 1.398 . S
C129 C135 1.491 . S
C130 H121 0.950 . S
C130 C129 1.398 . S
C130 C131 1.391 . S
C131 H119 0.950 . S
C131 C127 1.393 . S
C131 C130 1.391 . S
C132 H122 0.950 . S
C132 C133 1.386 . S
C132 C134 1.391 . S
C133 C132 1.386 . S
C133 C137 1.393 . S
C134 H123 0.950 . S
C134 C132 1.391 . S
C134 C135 1.400 . S
C135 C129 1.491 . S
C135 C134 1.400 . S
C135 C136 1.398 . S
C136 H124 0.950 . S
C136 C135 1.398 . S
C136 C137 1.391 . S
C137 H125 0.950 . S
C137 C133 1.393 . S
C137 C136 1.391 . S
H138 C146 0.950 . S
H139 C151 0.950 . S
H140 C148 0.950 . S
H141 C150 0.950 . S
H142 C152 0.950 . S
H143 C154 0.950 . S
H144 C156 0.950 . S
H145 C157 0.950 . S
C146 H138 0.950 . S
C146 C147 1.386 . S
C146 C148 1.391 . S
C147 C146 1.386 . S
C147 C151 1.393 . S
C148 H140 0.950 . S
C148 C146 1.391 . S
C148 C149 1.400 . S
C149 C148 1.400 . S
C149 C150 1.398 . S
C149 C155 1.491 . S
C150 H141 0.950 . S
C150 C149 1.398 . S
C150 C151 1.391 . S
C151 H139 0.950 . S
C151 C147 1.393 . S
C151 C150 1.391 . S
C152 H142 0.950 . S
C152 C153 1.386 . S
C152 C154 1.391 . S
C153 C152 1.386 . S
C153 C157 1.393 . S
C154 H143 0.950 . S
C154 C152 1.391 . S
C154 C155 1.400 . S
C155 C149 1.491 . S
C155 C154 1.400 . S
C155 C156 1.398 . S
C156 H144 0.950 . S
C156 C155 1.398 . S
C156 C157 1.391 . S
C157 H145 0.950 . S
C157 C153 1.393 . S
C157 C156 1.391 . S
H158 C166 0.950 . S
H159 C171 0.950 . S
H160 C168 0.950 1_554 S
H161 C170 0.950 . S
H162 C172 0.950 . S
H163 C174 0.950 . S
H164 C176 0.950 . S
H165 C177 0.950 . S
C166 H158 0.950 . S
C166 C167 1.386 1_554 S
C166 C168 1.391 1_554 S
C167 C166 1.386 1_556 S
C167 C171 1.393 . S
C168 H160 0.950 1_556 S
C168 C166 1.391 1_556 S
C168 C169 1.400 . S
C169 C168 1.400 . S
C169 C170 1.398 . S
C169 C175 1.491 . S
C170 H161 0.950 . S
C170 C169 1.398 . S
C170 C171 1.391 . S
C171 H159 0.950 . S
C171 C167 1.393 . S
C171 C170 1.391 . S
C172 H162 0.950 . S
C172 C173 1.386 . S
C172 C174 1.391 . S
C173 C172 1.386 . S
C173 C177 1.393 . S
C174 H163 0.950 . S
C174 C172 1.391 . S
C174 C175 1.400 . S
C175 C169 1.491 . S
C175 C174 1.400 . S
C175 C176 1.398 . S
C176 H164 0.950 . S
C176 C175 1.398 . S
C176 C177 1.391 . S
C177 H165 0.950 . S
C177 C173 1.393 . S
C177 C176 1.391 . S
H178 C186 0.950 . S
H179 C191 0.950 . S
H180 C188 0.950 . S
H181 C190 0.950 . S
H182 C192 0.950 . S
H183 C194 0.950 . S
H184 C196 0.950 1_554 S
H185 C197 0.950 . S
C186 H178 0.950 . S
C186 C187 1.386 1_554 S
C186 C188 1.391 . S
C187 C186 1.386 1_556 S
C187 C191 1.393 . S
C188 H180 0.950 . S
C188 C186 1.391 . S
C188 C189 1.400 1_554 S
C189 C188 1.400 1_556 S
C189 C190 1.398 . S
C189 C195 1.491 . S
C190 H181 0.950 . S
C190 C189 1.398 . S
C190 C191 1.391 . S
C191 H179 0.950 . S
C191 C187 1.393 . S
C191 C190 1.391 . S
C192 H182 0.950 . S
C192 C193 1.386 . S
C192 C194 1.391 . S
C193 C192 1.386 . S
C193 C197 1.393 . S
C194 H183 0.950 . S
C194 C192 1.391 . S
C194 C195 1.400 . S
C195 C189 1.491 . S
C195 C194 1.400 . S
C195 C196 1.398 . S
C196 H184 0.950 1_556 S
C196 C195 1.398 . S
C196 C197 1.391 . S
C197 H185 0.950 . S
C197 C193 1.393 . S
C197 C196 1.391 . S
H198 C206 0.950 . S
H199 C211 0.950 . S
H200 C208 0.950 . S
H201 C210 0.950 . S
H202 C212 0.950 . S
H203 C214 0.950 . S
H204 C216 0.950 . S
H205 C217 0.950 . S
C206 H198 0.950 . S
C206 C207 1.386 . S
C206 C208 1.391 1_455 S
C207 C206 1.386 . S
C207 C211 1.393 1_455 S
C208 H200 0.950 . S
C208 C206 1.391 1_655 S
C208 C209 1.400 . S
C209 C208 1.400 . S
C209 C210 1.398 . S
C209 C215 1.491 . S
C210 H201 0.950 . S
C210 C209 1.398 . S
C210 C211 1.391 . S
C211 H199 0.950 . S
C211 C207 1.393 1_655 S
C211 C210 1.391 . S
C212 H202 0.950 . S
C212 C213 1.386 . S
C212 C214 1.391 . S
C213 C212 1.386 . S
C213 C217 1.393 . S
C214 H203 0.950 . S
C214 C212 1.391 . S
C214 C215 1.400 . S
C215 C209 1.491 . S
C215 C214 1.400 . S
C215 C216 1.398 . S
C216 H204 0.950 . S
C216 C215 1.398 . S
C216 C217 1.391 . S
C217 H205 0.950 . S
C217 C213 1.393 . S
C217 C216 1.391 . S
H218 C226 0.950 . S
H219 C231 0.950 . S
H220 C228 0.950 1_554 S
H221 C230 0.950 . S
H222 C232 0.950 . S
H223 C234 0.950 . S
H224 C236 0.950 . S
H225 C237 0.950 . S
C226 H218 0.950 . S
C226 C227 1.386 1_554 S
C226 C228 1.391 1_554 S
C227 C226 1.386 1_556 S
C227 C231 1.393 . S
C228 H220 0.950 1_556 S
C228 C226 1.391 1_556 S
C228 C229 1.400 . S
C229 C228 1.400 . S
C229 C230 1.398 . S
C229 C235 1.491 . S
C230 H221 0.950 . S
C230 C229 1.398 . S
C230 C231 1.391 . S
C231 H219 0.950 . S
C231 C227 1.393 . S
C231 C230 1.391 . S
C232 H222 0.950 . S
C232 C233 1.386 . S
C232 C234 1.391 . S
C233 C232 1.386 . S
C233 C237 1.393 . S
C234 H223 0.950 . S
C234 C232 1.391 . S
C234 C235 1.400 . S
C235 C229 1.491 . S
C235 C234 1.400 . S
C235 C236 1.398 . S
C236 H224 0.950 . S
C236 C235 1.398 . S
C236 C237 1.391 . S
C237 H225 0.950 . S
C237 C233 1.393 . S
C237 C236 1.391 . S
H238 C246 0.950 . S
H239 C251 0.950 . S
H240 C248 0.950 . S
H241 C250 0.950 . S
H242 C252 0.950 . S
H243 C254 0.950 . S
H244 C256 0.950 . S
H245 C257 0.950 . S
C246 H238 0.950 . S
C246 C247 1.386 . S
C246 C248 1.391 . S
C247 C246 1.386 . S
C247 C251 1.393 . S
C248 H240 0.950 . S
C248 C246 1.391 . S
C248 C249 1.400 . S
C249 C248 1.400 . S
C249 C250 1.398 . S
C249 C255 1.491 . S
C250 H241 0.950 . S
C250 C249 1.398 . S
C250 C251 1.391 . S
C251 H239 0.950 . S
C251 C247 1.393 . S
C251 C250 1.391 . S
C252 H242 0.950 . S
C252 C253 1.386 . S
C252 C254 1.391 . S
C253 C252 1.386 . S
C253 C257 1.393 . S
C254 H243 0.950 . S
C254 C252 1.391 . S
C254 C255 1.400 . S
C255 C249 1.491 . S
C255 C254 1.400 . S
C255 C256 1.398 . S
C256 H244 0.950 . S
C256 C255 1.398 . S
C256 C257 1.391 . S
C257 H245 0.950 . S
C257 C253 1.393 . S
C257 C256 1.391 . S
H258 C266 0.950 . S
H259 C271 0.950 . S
H260 C268 0.950 . S
H261 C270 0.950 . S
H262 C272 0.950 . S
H263 C274 0.950 . S
H264 C276 0.950 . S
H265 C277 0.950 . S
C266 H258 0.950 . S
C266 C267 1.386 . S
C266 C268 1.391 . S
C267 C266 1.386 . S
C267 C271 1.393 . S
C268 H260 0.950 . S
C268 C266 1.391 . S
C268 C269 1.400 . S
C269 C268 1.400 . S
C269 C270 1.398 . S
C269 C275 1.491 . S
C270 H261 0.950 . S
C270 C269 1.398 . S
C270 C271 1.391 . S
C271 H259 0.950 . S
C271 C267 1.393 . S
C271 C270 1.391 . S
C272 H262 0.950 . S
C272 C273 1.386 . S
C272 C274 1.391 . S
C273 C272 1.386 . S
C273 C277 1.393 . S
C274 H263 0.950 . S
C274 C272 1.391 . S
C274 C275 1.400 . S
C275 C269 1.491 . S
C275 C274 1.400 . S
C275 C276 1.398 . S
C276 H264 0.950 . S
C276 C275 1.398 . S
C276 C277 1.391 . S
C277 H265 0.950 . S
C277 C273 1.393 . S
C277 C276 1.391 . S
H278 C286 0.950 . S
H279 C291 0.950 . S
H280 C288 0.950 . S
H281 C290 0.950 . S
H282 C292 0.950 . S
H283 C294 0.950 . S
H284 C296 0.950 . S
H285 C297 0.950 . S
C286 H278 0.950 . S
C286 C287 1.386 . S
C286 C288 1.391 . S
C287 C286 1.386 . S
C287 C291 1.393 . S
C288 H280 0.950 . S
C288 C286 1.391 . S
C288 C289 1.400 . S
C289 C288 1.400 . S
C289 C290 1.398 . S
C289 C295 1.491 . S
C290 H281 0.950 . S
C290 C289 1.398 . S
C290 C291 1.391 . S
C291 H279 0.950 . S
C291 C287 1.393 . S
C291 C290 1.391 . S
C292 H282 0.950 . S
C292 C293 1.386 . S
C292 C294 1.391 . S
C293 C292 1.386 . S
C293 C297 1.393 . S
C294 H283 0.950 . S
C294 C292 1.391 . S
C294 C295 1.400 . S
C295 C289 1.491 . S
C295 C294 1.400 . S
C295 C296 1.398 . S
C296 H284 0.950 . S
C296 C295 1.398 . S
C296 C297 1.391 . S
C297 H285 0.950 . S
C297 C293 1.393 . S
C297 C296 1.391 . S
H298 C306 0.950 . S
H299 C311 0.950 . S
H300 C308 0.950 . S
H301 C310 0.950 . S
H302 C312 0.950 . S
H303 C314 0.950 . S
H304 C316 0.950 . S
H305 C317 0.950 . S
C306 H298 0.950 . S
C306 C307 1.386 . S
C306 C308 1.391 . S
C307 C306 1.386 . S
C307 C311 1.393 . S
C308 H300 0.950 . S
C308 C306 1.391 . S
C308 C309 1.400 . S
C309 C308 1.400 . S
C309 C310 1.398 . S
C309 C315 1.491 . S
C310 H301 0.950 . S
C310 C309 1.398 . S
C310 C311 1.391 . S
C311 H299 0.950 . S
C311 C307 1.393 . S
C311 C310 1.391 . S
C312 H302 0.950 . S
C312 C313 1.386 . S
C312 C314 1.391 . S
C313 C312 1.386 . S
C313 C317 1.393 . S
C314 H303 0.950 . S
C314 C312 1.391 . S
C314 C315 1.400 . S
C315 C309 1.491 . S
C315 C314 1.400 . S
C315 C316 1.398 . S
C316 H304 0.950 . S
C316 C315 1.398 . S
C316 C317 1.391 . S
C317 H305 0.950 . S
C317 C313 1.393 . S
C317 C316 1.391 . S
C93 C43 1.362 . S
C87 C7 1.491 . S
C113 C39 1.361 . S
C107 C16 1.490 . S
C133 C64 1.351 . S
C127 C25 1.492 . S
C147 C34 1.484 . S
C153 C60 1.388 . S
C167 C5 1.236 1_556 S
C173 C61 1.103 . S
C193 C76 1.153 . S
C187 C14 1.262 1_556 S
C207 C4 1.642 1_556 S
C213 C77 1.522 . S
C233 C73 1.524 . S
C227 C13 1.652 1_556 S
C253 C40 1.084 1_655 S
C247 C23 1.227 . S
C267 C32 1.256 . S
C273 C55 1.125 . S
C293 C56 1.504 . S
C287 C22 1.638 . S
C313 C52 1.533 . S
C307 C31 1.653 . S
