# Generated by pormake.
# Topology pth, (4,4)-cn, num edge types: 1
# Building blocks:
#     Node 0, Type 0, BuildingBlock: TATPOV_clean_sbu_0, # of connection points: 4
#     Node 1, Type 0, BuildingBlock: TATPOV_clean_sbu_0, # of connection points: 4
#     Node 2, Type 0, BuildingBlock: TATPOV_clean_sbu_0, # of connection points: 4
#     Node 3, Type 1, BuildingBlock: NAHDIM_clean_linker_0, # of connection points: 4
#     Node 4, Type 1, BuildingBlock: NAHDIM_clean_linker_0, # of connection points: 4
#     Node 5, Type 1, BuildingBlock: NAHDIM_clean_linker_0, # of connection points: 4
#     Edge 6, Type (0, 1), BuildingBlock: FUNLAD_clean_linker_0, # of connection points: 2
#     Edge 7, Type (0, 1), BuildingBlock: FUNLAD_clean_linker_0, # of connection points: 2
#     Edge 8, Type (0, 1), BuildingBlock: FUNLAD_clean_linker_0, # of connection points: 2
#     Edge 9, Type (0, 1), BuildingBlock: FUNLAD_clean_linker_0, # of connection points: 2
#     Edge 10, Type (0, 1), BuildingBlock: FUNLAD_clean_linker_0, # of connection points: 2
#     Edge 11, Type (0, 1), BuildingBlock: FUNLAD_clean_linker_0, # of connection points: 2
#     Edge 12, Type (0, 1), BuildingBlock: FUNLAD_clean_linker_0, # of connection points: 2
#     Edge 13, Type (0, 1), BuildingBlock: FUNLAD_clean_linker_0, # of connection points: 2
#     Edge 14, Type (0, 1), BuildingBlock: FUNLAD_clean_linker_0, # of connection points: 2
#     Edge 15, Type (0, 1), BuildingBlock: FUNLAD_clean_linker_0, # of connection points: 2
#     Edge 16, Type (0, 1), BuildingBlock: FUNLAD_clean_linker_0, # of connection points: 2
#     Edge 17, Type (0, 1), BuildingBlock: FUNLAD_clean_linker_0, # of connection points: 2
# Relax obj value: 0.053
# Max RMSD: 0.173
# Mean RMSD: 0.111
data_MOF--net-pth--node1-TATPOV_clean_sbu_0--node2-NAHDIM_clean_linker_0--edge1-FUNLAD_clean_linker_0
_symmetry_space_group_name_H-M    P1
_symmetry_Int_Tables_number       1
_symmetry_cell_setting            triclinic
loop_
_symmetry_equiv_pos_as_xyz
'x, y, z'
_cell_length_a     35.694943
_cell_length_b     35.288149
_cell_length_c     88.217547
_cell_angle_alpha  92.121739
_cell_angle_beta   92.528267
_cell_angle_gamma 121.1041
loop_
_atom_site_label
_atom_site_type_symbol
_atom_site_fract_x
_atom_site_fract_y
_atom_site_fract_z
_atom_type_partial_charge
Zn0 Zn 0.18449 0.0728 0.02662 0.0
Zn1 Zn 0.13121 0.10219 0.03497 0.0
O2 O 0.13877 0.07322 0.0537 0.0
O3 O 0.18481 0.05211 0.04778 0.0
O4 O 0.10072 0.13299 0.0428 0.0
O5 O 0.23102 0.13377 0.02073 0.0
O6 O 0.18602 0.15541 0.02739 0.0
C7 C 0.16052 0.05498 0.05724 0.0
C8 C 0.09759 0.02991 0.00959 0.0
O9 O 0.09064 0.05573 0.0179 0.0
O10 O 0.13391 0.03153 0.01123 0.0
C11 C 0.07339 0.11908 0.05299 0.0
O12 O 0.06026 0.07993 0.05808 0.0
C13 C 0.22209 0.16403 0.02216 0.0
Zn14 Zn 0.177 0.09982 0.3518 0.0
Zn15 Zn 0.1079 0.07741 0.3692 0.0
O16 O 0.15815 0.08796 0.38434 0.0
O17 O 0.21448 0.10538 0.37077 0.0
O18 O 0.05876 0.06226 0.38295 0.0
O19 O 0.17276 0.15169 0.34483 0.0
O20 O 0.11555 0.13116 0.35825 0.0
C21 C 0.19778 0.09808 0.38351 0.0
C22 C 0.10103 0.0117 0.34399 0.0
O23 O 0.08486 0.02144 0.355 0.0
O24 O 0.13918 0.0395 0.34027 0.0
C25 C 0.02959 0.07234 0.38073 0.0
O26 O 0.03 0.09322 0.36866 0.0
C27 C 0.14222 0.15704 0.34905 0.0
Zn28 Zn 0.09541 0.97804 0.73108 0.0
Zn29 Zn 0.04992 0.00485 0.7135 0.0
O30 O 0.09006 0.99962 0.69871 0.0
O31 O 0.12624 0.97633 0.71245 0.0
O32 O 0.01487 0.02313 0.70049 0.0
O33 O 0.03769 0.92416 0.73597 0.0
O34 O 0.00213 0.94691 0.72162 0.0
C35 C 0.11845 0.98808 0.69987 0.0
C36 C 0.11013 0.06439 0.74097 0.0
O37 O 0.08302 0.05655 0.72967 0.0
O38 O 0.12083 0.03622 0.74401 0.0
C39 C 0.03294 0.05394 0.69147 0.0
O40 O 0.07563 0.07442 0.69059 0.0
C41 C 0.00183 0.91882 0.73036 0.0
C42 C 0.85039 0.59929 0.29483 0.0
C43 C 0.89706 0.62186 0.28971 0.0
C44 C 0.9187 0.60987 0.26499 0.0
C45 C 0.96219 0.62252 0.26922 0.0
C46 C 0.98519 0.60948 0.25996 0.0
C47 C 0.96381 0.58238 0.2464 0.0
C48 C 0.92012 0.5704 0.24202 0.0
C49 C 0.89865 0.58537 0.25121 0.0
C50 C 0.03202 0.62403 0.26484 0.0
C51 C 0.89525 0.54039 0.22795 0.0
C52 C 0.99956 0.31072 0.25128 0.0
C53 C 0.00124 0.33535 0.26622 0.0
C54 C 0.02074 0.40916 0.25808 0.0
C55 C 0.9798 0.39625 0.25061 0.0
C56 C 0.97331 0.42706 0.2431 0.0
C57 C 0.00842 0.47148 0.243 0.0
C58 C 0.04953 0.48454 0.25053 0.0
C59 C 0.05506 0.45317 0.25799 0.0
C60 C 0.92901 0.41224 0.23524 0.0
C61 C 0.08763 0.53172 0.25071 0.0
C62 C 0.0184 0.42883 0.1439 0.0
C63 C 0.98071 0.4276 0.14866 0.0
C64 C 0.98404 0.46298 0.15764 0.0
C65 C 0.02593 0.50033 0.16214 0.0
C66 C 0.06386 0.50257 0.15691 0.0
C67 C 0.05953 0.46684 0.14774 0.0
C68 C 0.94265 0.45988 0.16263 0.0
C69 C 0.10893 0.54201 0.16142 0.0
C70 C 0.04902 0.8143 0.17337 0.0
C71 C 0.07545 0.80468 0.16232 0.0
C72 C 0.04574 0.72438 0.16026 0.0
C73 C 0.00481 0.68508 0.1583 0.0
C74 C 0.99876 0.64519 0.16342 0.0
C75 C 0.03482 0.64466 0.17048 0.0
C76 C 0.07675 0.68387 0.17189 0.0
C77 C 0.08186 0.72329 0.16669 0.0
C78 C 0.95374 0.60384 0.16157 0.0
C79 C 0.11613 0.68414 0.17901 0.0
C80 C 0.98522 0.56307 0.23753 0.0
C81 C 0.98846 0.52887 0.24373 0.0
C82 C 0.00231 0.50472 0.23525 0.0
C83 C 0.01073 0.51296 0.21985 0.0
C84 C 0.02013 0.48624 0.21049 0.0
C85 C 0.02616 0.49338 0.19514 0.0
C86 C 0.02495 0.52871 0.18875 0.0
C87 C 0.02949 0.53535 0.17307 0.0
C88 C 0.03249 0.57328 0.1674 0.0
C89 C 0.02869 0.60365 0.17688 0.0
C90 C 0.01947 0.59494 0.19224 0.0
C91 C 0.01113 0.62232 0.20174 0.0
C92 C 2e-05 0.6121 0.21661 0.0
C93 C 0.99826 0.57498 0.22268 0.0
C94 C 0.00934 0.5487 0.21362 0.0
C95 C 0.01825 0.55766 0.19822 0.0
C96 C 0.97577 0.32925 0.14978 0.0
C97 C 0.98163 0.35037 0.13448 0.0
O98 O 0.89499 0.62037 0.27395 0.0
O99 O 0.04921 0.76217 0.15543 0.0
O100 O 0.01661 0.39402 0.13589 0.0
O101 O 0.02891 0.38069 0.26545 0.0
H102 H 0.91178 0.60264 0.29392 0.0
H103 H 0.83125 0.56438 0.28997 0.0
H104 H 0.83365 0.61678 0.29092 0.0
H105 H 0.85092 0.59909 0.30744 0.0
H106 H 0.97817 0.6426 0.27973 0.0
H107 H 0.8652 0.57623 0.24802 0.0
H108 H 0.03291 0.59591 0.2697 0.0
H109 H 0.04669 0.65224 0.27363 0.0
H110 H 0.05248 0.6339 0.25494 0.0
H111 H 0.85954 0.52778 0.22776 0.0
H112 H 0.89982 0.51157 0.22719 0.0
H113 H 0.9079 0.55906 0.21769 0.0
H114 H 0.96768 0.32779 0.26842 0.0
H115 H 0.97763 0.27435 0.25192 0.0
H116 H 0.03289 0.31805 0.2489 0.0
H117 H 0.98656 0.32099 0.24164 0.0
H118 H 0.95275 0.36237 0.25055 0.0
H119 H 0.08647 0.46286 0.26378 0.0
H120 H 0.93243 0.41813 0.22297 0.0
H121 H 0.91591 0.43218 0.2401 0.0
H122 H 0.90492 0.37654 0.23638 0.0
H123 H 0.11764 0.53648 0.25696 0.0
H124 H 0.07865 0.55455 0.25615 0.0
H125 H 0.09516 0.54117 0.23887 0.0
H126 H 0.95108 0.34956 0.1307 0.0
H127 H 0.94848 0.39902 0.1456 0.0
H128 H 0.08846 0.46785 0.14392 0.0
H129 H 0.94051 0.45502 0.17499 0.0
H130 H 0.91266 0.43184 0.15648 0.0
H131 H 0.94333 0.49117 0.16074 0.0
H132 H 0.13527 0.53862 0.15651 0.0
H133 H 0.11466 0.54609 0.17401 0.0
H134 H 0.11109 0.57263 0.15757 0.0
H135 H 0.10404 0.80808 0.16913 0.0
H136 H 0.06927 0.84863 0.17871 0.0
H137 H 0.03899 0.79085 0.18253 0.0
H138 H 0.01896 0.81031 0.16743 0.0
H139 H 0.97731 0.686 0.15303 0.0
H140 H 0.11426 0.75277 0.16748 0.0
H141 H 0.94261 0.59178 0.17292 0.0
H142 H 0.95514 0.57721 0.15499 0.0
H143 H 0.92915 0.60958 0.15566 0.0
H144 H 0.14688 0.71688 0.17875 0.0
H145 H 0.12026 0.65853 0.17295 0.0
H146 H 0.11078 0.67559 0.19103 0.0
H147 H 0.97948 0.52046 0.25526 0.0
H148 H 0.02164 0.45872 0.21483 0.0
H149 H 0.03221 0.47112 0.18837 0.0
H150 H 0.03703 0.5788 0.15543 0.0
H151 H 0.01196 0.65127 0.19765 0.0
H152 H 0.99297 0.63366 0.22334 0.0
H153 H 0.94824 0.29415 0.14861 0.0
H154 H 0.96804 0.34713 0.15851 0.0
H155 H 0.00627 0.33037 0.15384 0.0
C156 C 0.44822 0.11609 0.62482 0.0
C157 C 0.4124 0.07754 0.61425 0.0
C158 C 0.45603 0.05213 0.60112 0.0
C159 C 0.47871 0.08918 0.59248 0.0
C160 C 0.51244 0.09381 0.58363 0.0
C161 C 0.52303 0.06031 0.58314 0.0
C162 C 0.49926 0.02231 0.5914 0.0
C163 C 0.46618 0.01885 0.60032 0.0
C164 C 0.53713 0.13477 0.57495 0.0
C165 C 0.50918 0.9856 0.59095 0.0
C166 C 0.80929 0.21032 0.63845 0.0
C167 C 0.78925 0.16486 0.62984 0.0
C168 C 0.75561 0.14907 0.60407 0.0
C169 C 0.7246 0.10372 0.60448 0.0
C170 C 0.68684 0.08301 0.5944 0.0
C171 C 0.67964 0.10845 0.58391 0.0
C172 C 0.71166 0.154 0.58321 0.0
C173 C 0.74978 0.17345 0.59311 0.0
C174 C 0.65406 0.03422 0.59529 0.0
C175 C 0.70492 0.18259 0.57244 0.0
C176 C 0.72071 0.04703 0.48676 0.0
C177 C 0.6932 0.00926 0.49451 0.0
C178 C 0.65898 0.00688 0.50251 0.0
C179 C 0.65229 0.04306 0.50292 0.0
C180 C 0.67974 0.08101 0.49511 0.0
C181 C 0.71347 0.08237 0.48709 0.0
C182 C 0.62994 0.96567 0.51058 0.0
C183 C 0.67355 0.1202 0.49534 0.0
C184 C 0.30104 0.93865 0.48905 0.0
C185 C 0.34612 0.97639 0.48531 0.0
C186 C 0.41396 0.97537 0.48789 0.0
C187 C 0.42766 0.94557 0.49076 0.0
C188 C 0.46926 0.96022 0.49791 0.0
C189 C 0.49818 0.00604 0.50185 0.0
C190 C 0.48555 0.0367 0.49798 0.0
C191 C 0.44338 0.02099 0.49114 0.0
C192 C 0.48172 0.92662 0.50171 0.0
C193 C 0.51618 0.08595 0.50143 0.0
C194 C 0.55978 0.06554 0.57435 0.0
C195 C 0.60089 0.08309 0.58215 0.0
C196 C 0.637 0.0885 0.57473 0.0
C197 C 0.63208 0.07599 0.559 0.0
C198 C 0.66728 0.07982 0.5512 0.0
C199 C 0.66228 0.06837 0.53565 0.0
C200 C 0.62182 0.05245 0.52731 0.0
C201 C 0.61642 0.04099 0.51148 0.0
C202 C 0.576 0.02629 0.50349 0.0
C203 C 0.54022 0.02158 0.51095 0.0
C204 C 0.5446 0.0315 0.52685 0.0
C205 C 0.50879 0.02542 0.53481 0.0
C206 C 0.51357 0.03614 0.55038 0.0
C207 C 0.5544 0.05357 0.55859 0.0
C208 C 0.59075 0.05908 0.55088 0.0
C209 C 0.58574 0.04769 0.535 0.0
C210 C 0.79711 0.02742 0.49292 0.0
C211 C 0.76988 0.02209 0.47818 0.0
O212 O 0.42473 0.0472 0.61049 0.0
O213 O 0.37216 0.95898 0.48208 0.0
O214 O 0.75451 0.05104 0.47893 0.0
O215 O 0.79085 0.17029 0.61434 0.0
H216 H 0.4066 0.09069 0.6037 0.0
H217 H 0.4791 0.13486 0.61909 0.0
H218 H 0.45532 0.10351 0.63526 0.0
H219 H 0.43754 0.13955 0.62815 0.0
H220 H 0.47074 0.11486 0.59267 0.0
H221 H 0.44831 0.99021 0.6069 0.0
H222 H 0.57284 0.15153 0.57821 0.0
H223 H 0.52629 0.15876 0.57704 0.0
H224 H 0.53223 0.12514 0.56257 0.0
H225 H 0.48532 0.95659 0.59696 0.0
H226 H 0.54257 0.9983 0.59636 0.0
H227 H 0.50879 0.97447 0.57897 0.0
H228 H 0.75452 0.1452 0.63287 0.0
H229 H 0.80838 0.20679 0.65092 0.0
H230 H 0.79018 0.22594 0.63519 0.0
H231 H 0.84383 0.23261 0.63572 0.0
H232 H 0.72982 0.08465 0.61275 0.0
H233 H 0.77424 0.20839 0.59284 0.0
H234 H 0.64201 0.01735 0.58372 0.0
H235 H 0.62545 0.03021 0.60114 0.0
H236 H 0.66826 0.01754 0.60174 0.0
H237 H 0.73062 0.21827 0.57449 0.0
H238 H 0.67233 0.17881 0.57363 0.0
H239 H 0.70563 0.1718 0.56055 0.0
H240 H 0.74171 0.98733 0.47645 0.0
H241 H 0.69806 0.98146 0.49443 0.0
H242 H 0.73472 0.11134 0.48109 0.0
H243 H 0.63357 0.97426 0.523 0.0
H244 H 0.63799 0.93948 0.50857 0.0
H245 H 0.59503 0.95205 0.50668 0.0
H246 H 0.69868 0.14794 0.48917 0.0
H247 H 0.67519 0.13241 0.50728 0.0
H248 H 0.64055 0.10976 0.49003 0.0
H249 H 0.36022 0.99983 0.49565 0.0
H250 H 0.2796 0.95174 0.49189 0.0
H251 H 0.30466 0.92221 0.49904 0.0
H252 H 0.28503 0.91347 0.47927 0.0
H253 H 0.4049 0.91049 0.48794 0.0
H254 H 0.43339 0.04431 0.48839 0.0
H255 H 0.49085 0.92984 0.51409 0.0
H256 H 0.51082 0.93314 0.49561 0.0
H257 H 0.45469 0.89202 0.49851 0.0
H258 H 0.50439 0.10559 0.49556 0.0
H259 H 0.54953 0.09633 0.49798 0.0
H260 H 0.51891 0.09392 0.51387 0.0
H261 H 0.60486 0.09278 0.59421 0.0
H262 H 0.69914 0.09189 0.55705 0.0
H263 H 0.69062 0.07236 0.53023 0.0
H264 H 0.57224 0.01807 0.49133 0.0
H265 H 0.47657 0.0123 0.52911 0.0
H266 H 0.48489 0.03087 0.55588 0.0
H267 H 0.82531 0.06206 0.49489 0.0
H268 H 0.80973 0.00451 0.49228 0.0
H269 H 0.77676 0.01945 0.50281 0.0
C270 C 0.6527 0.55825 0.75823 0.0
C271 C 0.66224 0.59359 0.77086 0.0
C272 C 0.63968 0.57512 0.79677 0.0
C273 C 0.62665 0.60592 0.79965 0.0
C274 C 0.60093 0.60169 0.81182 0.0
C275 C 0.58825 0.56614 0.8213 0.0
C276 C 0.60267 0.53604 0.81872 0.0
C277 C 0.62863 0.54128 0.80657 0.0
C278 C 0.58697 0.63495 0.81449 0.0
C279 C 0.58993 0.49781 0.82862 0.0
C280 C 0.22811 0.40387 0.8328 0.0
C281 C 0.26803 0.39949 0.83073 0.0
C282 C 0.34445 0.45716 0.828 0.0
C283 C 0.3638 0.43367 0.8333 0.0
C284 C 0.40924 0.45543 0.83696 0.0
C285 C 0.43566 0.50167 0.83549 0.0
C286 C 0.41638 0.52505 0.8297 0.0
C287 C 0.37104 0.50229 0.82586 0.0
C288 C 0.42893 0.42916 0.8426 0.0
C289 C 0.44355 0.57426 0.82786 0.0
C290 C 0.44985 0.53038 0.93639 0.0
C291 C 0.45936 0.50086 0.92896 0.0
C292 C 0.49168 0.51574 0.91846 0.0
C293 C 0.51393 0.56086 0.91499 0.0
C294 C 0.50542 0.59097 0.92292 0.0
C295 C 0.47396 0.57536 0.93375 0.0
C296 C 0.50132 0.48295 0.91088 0.0
C297 C 0.52861 0.63933 0.91968 0.0
C298 C 0.8646 0.76767 0.89817 0.0
C299 C 0.82996 0.76794 0.9077 0.0
C300 C 0.75772 0.69978 0.90835 0.0
C301 C 0.73832 0.6537 0.90745 0.0
C302 C 0.6933 0.62548 0.90342 0.0
C303 C 0.66711 0.64401 0.90033 0.0
C304 C 0.68619 0.6906 0.90179 0.0
C305 C 0.73126 0.71804 0.90593 0.0
C306 C 0.67382 0.57593 0.90227 0.0
C307 C 0.65893 0.71137 0.89888 0.0
C308 C 0.55847 0.55923 0.83354 0.0
C309 C 0.51331 0.53559 0.82957 0.0
C310 C 0.48312 0.52598 0.84055 0.0
C311 C 0.49819 0.53958 0.85601 0.0
C312 C 0.46874 0.53003 0.86739 0.0
C313 C 0.48377 0.54216 0.88262 0.0
C314 C 0.52889 0.56477 0.88708 0.0
C315 C 0.54442 0.57592 0.9026 0.0
C316 C 0.58957 0.60105 0.90655 0.0
C317 C 0.61982 0.61487 0.8954 0.0
C318 C 0.60492 0.60177 0.87989 0.0
C319 C 0.63446 0.61315 0.86844 0.0
C320 C 0.61938 0.59924 0.85325 0.0
C321 C 0.5742 0.57412 0.8489 0.0
C322 C 0.54387 0.56352 0.8602 0.0
C323 C 0.55925 0.57671 0.87574 0.0
C324 C 0.34085 0.48941 0.94592 0.0
C325 C 0.37609 0.47813 0.94313 0.0
O326 O 0.66315 0.57703 0.7848 0.0
O327 O 0.80173 0.72519 0.91183 0.0
O328 O 0.41712 0.51619 0.94596 0.0
O329 O 0.30048 0.43765 0.82483 0.0
H330 H 0.63503 0.60029 0.76971 0.0
H331 H 0.62045 0.52787 0.75957 0.0
H332 H 0.67839 0.54936 0.75871 0.0
H333 H 0.6514 0.57046 0.7469 0.0
H334 H 0.63668 0.63339 0.7925 0.0
H335 H 0.63948 0.51814 0.80439 0.0
H336 H 0.55079 0.61812 0.81243 0.0
H337 H 0.60249 0.66276 0.80693 0.0
H338 H 0.5956 0.64868 0.82651 0.0
H339 H 0.60265 0.47648 0.8248 0.0
H340 H 0.55364 0.4771 0.82856 0.0
H341 H 0.60292 0.51075 0.84055 0.0
H342 H 0.27956 0.39614 0.84228 0.0
H343 H 0.20174 0.37385 0.8377 0.0
H344 H 0.21521 0.40833 0.82173 0.0
H345 H 0.23747 0.43313 0.84071 0.0
H346 H 0.34364 0.39839 0.83456 0.0
H347 H 0.35585 0.51996 0.82156 0.0
H348 H 0.44014 0.43885 0.85482 0.0
H349 H 0.45803 0.4367 0.83632 0.0
H350 H 0.40506 0.39283 0.84132 0.0
H351 H 0.42321 0.58801 0.82398 0.0
H352 H 0.46803 0.58084 0.81942 0.0
H353 H 0.46187 0.59206 0.83882 0.0
H354 H 0.37083 0.46615 0.93089 0.0
H355 H 0.4415 0.46619 0.93137 0.0
H356 H 0.46668 0.59792 0.93974 0.0
H357 H 0.48544 0.47339 0.89915 0.0
H358 H 0.48862 0.45232 0.9171 0.0
H359 H 0.53718 0.49796 0.9101 0.0
H360 H 0.51461 0.65717 0.9255 0.0
H361 H 0.5266 0.64273 0.90725 0.0
H362 H 0.56384 0.6556 0.9236 0.0
H363 H 0.81245 0.77968 0.90033 0.0
H364 H 0.88772 0.80156 0.89469 0.0
H365 H 0.8484 0.74526 0.88773 0.0
H366 H 0.88342 0.75574 0.90469 0.0
H367 H 0.75885 0.63989 0.90963 0.0
H368 H 0.7454 0.75355 0.90739 0.0
H369 H 0.66059 0.56254 0.8904 0.0
H370 H 0.64603 0.55991 0.90966 0.0
H371 H 0.69826 0.56667 0.90563 0.0
H372 H 0.67877 0.74818 0.90028 0.0
H373 H 0.6325 0.69926 0.90686 0.0
H374 H 0.64297 0.70121 0.88715 0.0
H375 H 0.50147 0.52436 0.81776 0.0
H376 H 0.43364 0.51261 0.86468 0.0
H377 H 0.45949 0.53357 0.89086 0.0
H378 H 0.60134 0.61016 0.91844 0.0
H379 H 0.66959 0.63245 0.87111 0.0
H380 H 0.6436 0.60854 0.84494 0.0
H381 H 0.34458 0.50313 0.95781 0.0
H382 H 0.30761 0.45931 0.94374 0.0
H383 H 0.34374 0.5146 0.9381 0.0
C384 C 0.03149 0.13473 0.07182 0.0
C385 C 0.06128 0.14927 0.06041 0.0
C386 C 0.02346 0.16446 0.07986 0.0
C387 C 0.0451 0.20946 0.07664 0.0
C388 C 0.07425 0.22374 0.06507 0.0
C389 C 0.08202 0.19399 0.05696 0.0
C390 C 0.04036 0.24283 0.08578 0.0
C391 C 0.00414 0.23271 0.09297 0.0
C392 C 0.00011 0.26559 0.10269 0.0
C393 C 0.95817 0.25829 0.10468 0.0
C394 C 0.95269 0.2868 0.11448 0.0
C395 C 0.98905 0.32322 0.1226 0.0
H396 H 0.06938 0.30799 0.10993 0.0
C397 C 0.03112 0.33046 0.1207 0.0
C398 C 0.03666 0.30213 0.11077 0.0
H399 H 0.05962 0.35739 0.12717 0.0
H400 H 0.01519 0.10059 0.07483 0.0
H401 H 0.00158 0.15235 0.08894 0.0
H402 H 0.09154 0.25822 0.06242 0.0
H403 H 0.10533 0.20643 0.0483 0.0
H404 H 0.06726 0.27711 0.0862 0.0
H405 H 0.97561 0.19935 0.09133 0.0
H406 H 0.92942 0.23011 0.09877 0.0
H407 H 0.9198 0.27977 0.116 0.0
C408 C 0.96745 0.07766 0.3906 0.0
C409 C 0.99623 0.06169 0.39189 0.0
C410 C 0.93668 0.06848 0.40136 0.0
C411 C 0.93404 0.04308 0.41365 0.0
C412 C 0.96218 0.0264 0.41473 0.0
C413 C 0.99312 0.03582 0.40406 0.0
C414 C 0.90176 0.03232 0.42531 0.0
C415 C 0.8855 0.05814 0.42908 0.0
C416 C 0.85476 0.04804 0.44126 0.0
C417 C 0.85451 0.08313 0.44921 0.0
C418 C 0.8268 0.07495 0.46097 0.0
C419 C 0.79793 0.03129 0.4648 0.0
H420 H 0.82396 0.97629 0.43889 0.0
C421 C 0.79775 0.99614 0.45671 0.0
C422 C 0.82562 0.00433 0.44501 0.0
H423 H 0.77618 0.96222 0.45952 0.0
H424 H 0.96878 0.09746 0.38131 0.0
H425 H 0.9147 0.08082 0.39986 0.0
H426 H 0.96058 0.00639 0.42399 0.0
H427 H 0.0146 0.02278 0.40535 0.0
H428 H 0.89333 0.00349 0.43165 0.0
H429 H 0.8972 0.08929 0.42382 0.0
H430 H 0.8765 0.11709 0.44652 0.0
H431 H 0.82825 0.10278 0.46719 0.0
C432 C 0.9588 0.84938 0.74399 0.0
C433 C 0.95954 0.88054 0.73433 0.0
C434 C 0.919 0.81394 0.74807 0.0
C435 C 0.87887 0.80897 0.74267 0.0
C436 C 0.87967 0.83968 0.7328 0.0
C437 C 0.91946 0.87511 0.72871 0.0
C438 C 0.83556 0.77171 0.74661 0.0
C439 C 0.82991 0.74776 0.75879 0.0
C440 C 0.78661 0.7098 0.76232 0.0
C441 C 0.78551 0.67601 0.77057 0.0
C442 C 0.74551 0.63899 0.77368 0.0
C443 C 0.70567 0.63542 0.76886 0.0
H444 H 0.74613 0.73255 0.75177 0.0
C445 C 0.70673 0.66968 0.76092 0.0
C446 C 0.74673 0.70662 0.75774 0.0
H447 H 0.67649 0.66759 0.75698 0.0
H448 H 0.98904 0.8523 0.74842 0.0
H449 H 0.92012 0.79034 0.75526 0.0
H450 H 0.84933 0.83649 0.72832 0.0
H451 H 0.91875 0.89837 0.7212 0.0
H452 H 0.80727 0.76401 0.73908 0.0
H453 H 0.85798 0.75498 0.76633 0.0
H454 H 0.8157 0.6777 0.77431 0.0
H455 H 0.7457 0.61276 0.77961 0.0
C456 C 0.17522 0.00995 0.07523 0.0
C457 C 0.15376 0.0329 0.0717 0.0
C458 C 0.16457 0.98417 0.08779 0.0
C459 C 0.13231 0.98095 0.0972 0.0
C460 C 0.11196 0.00505 0.09395 0.0
C461 C 0.12267 0.03091 0.0814 0.0
C462 C 0.11654 0.95019 0.10966 0.0
C463 C 0.13998 0.93468 0.1165 0.0
C464 C 0.12252 0.90168 0.12823 0.0
C465 C 0.152 0.90075 0.13905 0.0
C466 C 0.13684 0.86953 0.15003 0.0
C467 C 0.09184 0.83803 0.15027 0.0
H468 H 0.05386 0.86862 0.11992 0.0
C469 C 0.06234 0.83848 0.13929 0.0
C470 C 0.07746 0.86993 0.12838 0.0
H471 H 0.02753 0.81437 0.13914 0.0
H472 H 0.19916 0.01053 0.06796 0.0
H473 H 0.18036 0.96538 0.08962 0.0
H474 H 0.08691 0.00311 0.10095 0.0
H475 H 0.10541 0.04806 0.07903 0.0
H476 H 0.08441 0.94046 0.11345 0.0
H477 H 0.17369 0.94747 0.11385 0.0
H478 H 0.18689 0.92449 0.13909 0.0
H479 H 0.16035 0.86998 0.15835 0.0
C480 C 0.26348 0.10019 0.39596 0.0
C481 C 0.22296 0.09736 0.3972 0.0
C482 C 0.28465 0.09409 0.40851 0.0
C483 C 0.26571 0.08503 0.42258 0.0
C484 C 0.22658 0.08477 0.42403 0.0
C485 C 0.20525 0.09056 0.41146 0.0
C486 C 0.28499 0.07445 0.43585 0.0
C487 C 0.30821 0.05432 0.43441 0.0
C488 C 0.32166 0.03746 0.44747 0.0
C489 C 0.32612 0.00052 0.44486 0.0
C490 C 0.33538 0.98151 0.45698 0.0
C491 C 0.3413 0.99967 0.47196 0.0
H492 H 0.32705 0.0857 0.46485 0.0
C493 C 0.3384 0.03757 0.47454 0.0
C494 C 0.32893 0.05647 0.46242 0.0
H495 H 0.34259 0.05205 0.48599 0.0
H496 H 0.27828 0.10581 0.38518 0.0
H497 H 0.31557 0.09608 0.4071 0.0
H498 H 0.21155 0.07842 0.43478 0.0
H499 H 0.17428 0.08855 0.41286 0.0
H500 H 0.2757 0.07912 0.44701 0.0
H501 H 0.31375 0.04572 0.42312 0.0
H502 H 0.3209 0.98534 0.43346 0.0
H503 H 0.33684 0.95196 0.45469 0.0
C504 C 0.16262 0.1174 0.76207 0.0
C505 C 0.12966 0.10667 0.75048 0.0
C506 C 0.18141 0.1574 0.77098 0.0
C507 C 0.16728 0.18747 0.76863 0.0
C508 C 0.13472 0.17692 0.75693 0.0
C509 C 0.11605 0.13699 0.74797 0.0
C510 C 0.18614 0.23041 0.77787 0.0
C511 C 0.20729 0.23867 0.79175 0.0
C512 C 0.22441 0.28086 0.80126 0.0
C513 C 0.23107 0.28068 0.81706 0.0
C514 C 0.24598 0.31917 0.82649 0.0
C515 C 0.25522 0.35894 0.82031 0.0
H516 H 0.23119 0.32302 0.78288 0.0
C517 C 0.24944 0.35951 0.80448 0.0
C518 C 0.23451 0.32099 0.79502 0.0
H519 H 0.2561 0.38971 0.79943 0.0
H520 H 0.1743 0.09507 0.76419 0.0
H521 H 0.20742 0.16467 0.77948 0.0
H522 H 0.12342 0.19955 0.75476 0.0
H523 H 0.09088 0.1299 0.7391 0.0
H524 H 0.18009 0.25507 0.77332 0.0
H525 H 0.20996 0.21265 0.79691 0.0
H526 H 0.22389 0.2504 0.82218 0.0
H527 H 0.24979 0.31775 0.83867 0.0
C528 C 0.96076 0.04596 0.6835 0.0
C529 C 0.00625 0.06704 0.68226 0.0
C530 C 0.93567 0.05902 0.67512 0.0
C531 C 0.95549 0.09334 0.66518 0.0
C532 C 0.00094 0.1143 0.66394 0.0
C533 C 0.02604 0.10124 0.67233 0.0
C534 C 0.9306 0.11002 0.65661 0.0
C535 C 0.88664 0.08668 0.65371 0.0
C536 C 0.8618 0.10536 0.64648 0.0
C537 C 0.81818 0.08851 0.64995 0.0
C538 C 0.79444 0.10693 0.64423 0.0
C539 C 0.81357 0.14215 0.63468 0.0
H540 H 0.91352 0.15255 0.63311 0.0
C541 C 0.85662 0.15788 0.63067 0.0
C542 C 0.88052 0.13964 0.63648 0.0
H543 H 0.87205 0.18491 0.62328 0.0
H544 H 0.9445 0.0197 0.69113 0.0
H545 H 0.90109 0.04282 0.67686 0.0
H546 H 0.01721 0.14108 0.6565 0.0
H547 H 0.06102 0.11826 0.67112 0.0
H548 H 0.94956 0.14338 0.65287 0.0
H549 H 0.86745 0.05337 0.65744 0.0
H550 H 0.80281 0.06188 0.6575 0.0
H551 H 0.76135 0.09419 0.64752 0.0
C552 C 0.02269 0.99396 0.99558 0.0
C553 C 0.06323 0.99675 0.99822 0.0
C554 C 0.99036 0.96159 0.98502 0.0
C555 C 0.99808 0.9314 0.97691 0.0
C556 C 0.03848 0.93424 0.97964 0.0
C557 C 0.07067 0.96653 0.99007 0.0
C558 C 0.96501 0.89567 0.9658 0.0
C559 C 0.93161 0.89647 0.9584 0.0
C560 C 0.90219 0.86186 0.94629 0.0
C561 C 0.88436 0.87357 0.93413 0.0
C562 C 0.85979 0.8428 0.9219 0.0
C563 C 0.85191 0.79943 0.92172 0.0
H564 H 0.90469 0.80714 0.95579 0.0
C565 C 0.86824 0.78716 0.93418 0.0
C566 C 0.89279 0.81789 0.94639 0.0
H567 H 0.86281 0.75401 0.93432 0.0
H568 H 0.01579 0.01653 0.00174 0.0
H569 H 0.95927 0.95987 0.98349 0.0
H570 H 0.04533 0.91138 0.97364 0.0
H571 H 0.10136 0.96744 0.99182 0.0
H572 H 0.97057 0.86892 0.9628 0.0
H573 H 0.92803 0.92501 0.96021 0.0
H574 H 0.89079 0.90708 0.93382 0.0
H575 H 0.84785 0.85322 0.9124 0.0
C576 C 0.03914 0.93237 0.34176 0.0
C577 C 0.0757 0.96755 0.33563 0.0
C578 C 0.01644 0.89023 0.33411 0.0
C579 C 0.02969 0.88259 0.32011 0.0
C580 C 0.0653 0.91804 0.31377 0.0
C581 C 0.08839 0.95998 0.32151 0.0
C582 C 0.00665 0.83822 0.31178 0.0
C583 C 0.98905 0.80037 0.31897 0.0
C584 C 0.9672 0.75575 0.31082 0.0
C585 C 0.96724 0.72101 0.31804 0.0
C586 C 0.94578 0.67823 0.31095 0.0
C587 C 0.9235 0.6692 0.29653 0.0
H588 H 0.94284 0.77242 0.29069 0.0
C589 C 0.92288 0.70382 0.28936 0.0
C590 C 0.94476 0.74676 0.29638 0.0
H591 H 0.90487 0.69756 0.27844 0.0
H592 H 0.0284 0.93719 0.35257 0.0
H593 H 0.98832 0.86385 0.33911 0.0
H594 H 0.07583 0.91308 0.30293 0.0
H595 H 0.11619 0.98649 0.31641 0.0
H596 H 0.00697 0.83693 0.29947 0.0
H597 H 0.99286 0.80207 0.33131 0.0
H598 H 0.98384 0.72695 0.32923 0.0
H599 H 0.94591 0.65192 0.31685 0.0
C600 C 0.17639 0.97916 0.68815 0.0
C601 C 0.14486 0.99162 0.68689 0.0
C602 C 0.2046 0.98678 0.67662 0.0
C603 C 0.20178 0.00686 0.66346 0.0
C604 C 0.16949 0.01822 0.66204 0.0
C605 C 0.14118 0.0105 0.67357 0.0
C606 C 0.23429 0.02015 0.65173 0.0
C607 C 0.25868 0.00157 0.64953 0.0
C608 C 0.29566 0.01888 0.63943 0.0
C609 C 0.30041 0.04681 0.62772 0.0
C610 C 0.33749 0.06469 0.61932 0.0
C611 C 0.37026 0.05459 0.62225 0.0
H612 H 0.32513 0.98636 0.65093 0.0
C613 C 0.3649 0.02572 0.63365 0.0
C614 C 0.32789 0.00786 0.64204 0.0
H615 H 0.38988 0.01777 0.63629 0.0
H616 H 0.18029 0.96473 0.69828 0.0
H617 H 0.2297 0.97863 0.67845 0.0
H618 H 0.16672 0.03401 0.6521 0.0
H619 H 0.11736 0.02063 0.67223 0.0
H620 H 0.2391 0.04746 0.64514 0.0
H621 H 0.25323 0.97389 0.65605 0.0
H622 H 0.27589 0.05523 0.62497 0.0
H623 H 0.3409 0.08703 0.61066 0.0
C624 C 0.28639 0.21592 0.00781 0.0
C625 C 0.25165 0.20843 0.01666 0.0
C626 C 0.31088 0.25622 0.00112 0.0
C627 C 0.30112 0.28987 0.00316 0.0
C628 C 0.26817 0.28331 0.01272 0.0
C629 C 0.24348 0.24296 0.01931 0.0
C630 C 0.3232 0.33141 0.99508 0.0
C631 C 0.33813 0.33324 0.98119 0.0
C632 C 0.35229 0.37189 0.9718 0.0
C633 C 0.34609 0.36435 0.9559 0.0
C634 C 0.35507 0.39894 0.94666 0.0
C635 C 0.37122 0.44207 0.95311 0.0
H636 H 0.37674 0.42278 0.99043 0.0
C637 C 0.3796 0.45019 0.96898 0.0
C638 C 0.37024 0.41545 0.97825 0.0
H639 H 0.39234 0.48322 0.97421 0.0
H640 H 0.29383 0.19017 0.00566 0.0
H641 H 0.33702 0.26064 0.99423 0.0
H642 H 0.26029 0.30884 0.01463 0.0
H643 H 0.21725 0.23849 0.02618 0.0
H644 H 0.32225 0.35963 -8e-05 0.0
H645 H 0.33509 0.30359 0.97572 0.0
H646 H 0.33268 0.33122 0.95062 0.0
H647 H 0.34837 0.39174 0.93447 0.0
C648 C 0.09935 0.19486 0.3457 0.0
C649 C 0.13502 0.19057 0.34208 0.0
C650 C 0.08927 0.2223 0.33767 0.0
C651 C 0.11453 0.24581 0.32573 0.0
C652 C 0.15167 0.24354 0.32278 0.0
C653 C 0.16176 0.21619 0.3308 0.0
C654 C 0.10275 0.27183 0.31577 0.0
C655 C 0.06159 0.26392 0.31355 0.0
C656 C 0.04778 0.28509 0.30203 0.0
C657 C 0.00265 0.2667 0.29842 0.0
C658 C 0.98779 0.28358 0.28713 0.0
C659 C 0.0177 0.31963 0.27924 0.0
H660 H 0.11279 0.33796 0.29681 0.0
C661 C 0.06287 0.33847 0.28291 0.0
C662 C 0.07778 0.32183 0.29429 0.0
H663 H 0.08678 0.36592 0.27689 0.0
H664 H 0.07845 0.17613 0.35448 0.0
H665 H 0.06145 0.22449 0.34077 0.0
H666 H 0.17212 0.26173 0.31381 0.0
H667 H 0.18973 0.21404 0.32779 0.0
H668 H 0.12834 0.29527 0.30906 0.0
H669 H 0.03568 0.23818 0.31961 0.0
H670 H 0.97867 0.23847 0.30414 0.0
H671 H 0.95282 0.268 0.28438 0.0
loop_
_geom_bond_atom_site_label_1
_geom_bond_atom_site_label_2
_geom_bond_distance
_geom_bond_site_symmetry_2
_ccdc_geom_bond_type
Zn0 O3 2.031 1_545 S
Zn0 O5 2.049 . S
Zn0 O10 2.067 . S
Zn1 O2 1.962 . S
Zn1 O4 1.986 . S
Zn1 O6 1.996 . S
Zn1 O9 1.943 . S
O2 Zn1 1.962 . S
O2 C7 1.254 . S
O3 Zn0 2.031 1_565 S
O3 C7 1.269 1_565 S
O4 Zn1 1.986 . S
O4 C11 1.262 . S
O5 Zn0 2.049 . S
O5 C13 1.260 . S
O6 Zn1 1.996 . S
O6 C13 1.257 . S
C7 O2 1.254 . S
C7 O3 1.269 1_545 S
C8 O9 1.249 . S
C8 O10 1.270 . S
O9 Zn1 1.943 . S
O9 C8 1.249 . S
O10 Zn0 2.067 . S
O10 C8 1.270 . S
C11 O4 1.262 . S
C11 O12 1.232 . S
O12 C11 1.232 . S
C13 O5 1.260 . S
C13 O6 1.257 . S
Zn14 O17 2.031 . S
Zn14 O19 2.049 . S
Zn14 O24 2.067 . S
Zn15 O16 1.962 . S
Zn15 O18 1.986 1_455 S
Zn15 O20 1.996 . S
Zn15 O23 1.943 . S
O16 Zn15 1.962 . S
O16 C21 1.254 . S
O17 Zn14 2.031 . S
O17 C21 1.269 . S
O18 Zn15 1.986 1_655 S
O18 C25 1.262 . S
O19 Zn14 2.049 . S
O19 C27 1.260 . S
O20 Zn15 1.996 . S
O20 C27 1.257 . S
C21 O16 1.254 . S
C21 O17 1.269 . S
C22 O23 1.249 . S
C22 O24 1.270 . S
O23 Zn15 1.943 . S
O23 C22 1.249 . S
O24 Zn14 2.067 . S
O24 C22 1.270 . S
C25 O18 1.262 . S
C25 O26 1.232 . S
O26 C25 1.232 . S
C27 O19 1.260 . S
C27 O20 1.257 . S
Zn28 O31 2.031 1_565 S
Zn28 O33 2.049 . S
Zn28 O38 2.067 1_565 S
Zn29 O30 1.970 . S
Zn29 O32 1.986 1_455 S
Zn29 O34 1.996 1_545 S
Zn29 O37 1.943 . S
O30 Zn29 1.970 . S
O30 C35 1.249 . S
O31 Zn28 2.031 1_545 S
O31 C35 1.269 . S
O32 Zn29 1.986 1_655 S
O32 C39 1.262 . S
O33 Zn28 2.049 . S
O33 C41 1.260 1_455 S
O34 Zn29 1.996 1_565 S
O34 C41 1.257 1_455 S
C35 O30 1.249 . S
C35 O31 1.269 . S
C36 O37 1.249 . S
C36 O38 1.270 . S
O37 Zn29 1.943 . S
O37 C36 1.249 . S
O38 Zn28 2.067 1_545 S
O38 C36 1.270 . S
C39 O32 1.262 . S
C39 O40 1.232 1_655 S
O40 C39 1.232 1_455 S
C41 O33 1.260 1_655 S
C41 O34 1.257 1_655 S
C42 C43 1.560 1_655 S
C42 H103 0.959 . S
C42 H104 0.959 . S
C42 H105 0.960 1_655 S
C43 C42 1.560 1_455 S
C43 O98 1.426 . S
C43 H102 0.980 . S
C44 C45 1.407 . S
C44 C49 1.418 1_455 S
C44 O98 1.334 . S
C45 C44 1.407 . S
C45 C46 1.360 . S
C45 H106 0.929 . S
C46 C45 1.360 . S
C46 C47 1.401 . S
C46 C50 1.527 . S
C47 C46 1.401 . S
C47 C48 1.405 . S
C47 C80 1.587 . S
C48 C47 1.405 . S
C48 C49 1.332 1_455 S
C48 C51 1.496 1_455 S
C49 C44 1.418 1_655 S
C49 C48 1.332 1_655 S
C49 H107 0.929 . S
C50 C46 1.527 . S
C50 H108 0.959 . S
C50 H109 0.961 . S
C50 H110 0.961 . S
C51 C48 1.496 1_655 S
C51 H111 0.960 . S
C51 H112 0.960 . S
C51 H113 0.961 . S
C52 C53 1.517 . S
C52 H115 0.961 . S
C52 H116 0.960 . S
C52 H117 0.959 . S
C53 C52 1.517 . S
C53 O101 1.468 . S
C53 H114 0.980 . S
C54 C55 1.349 . S
C54 C59 1.367 . S
C54 O101 1.408 . S
C55 C54 1.349 . S
C55 C56 1.407 . S
C55 H118 0.930 . S
C56 C55 1.407 . S
C56 C57 1.449 . S
C56 C60 1.535 . S
C57 C56 1.449 . S
C57 C58 1.384 . S
C57 C82 1.553 . S
C58 C57 1.384 . S
C58 C59 1.364 . S
C58 C61 1.450 . S
C59 C54 1.367 . S
C59 C58 1.364 . S
C59 H119 0.931 . S
C60 C56 1.535 . S
C60 H120 0.959 . S
C60 H121 0.961 1_455 S
C60 H122 0.959 1_455 S
C61 C58 1.450 . S
C61 H123 0.960 . S
C61 H124 0.960 . S
C61 H125 0.960 . S
C62 C63 1.309 . S
C62 C67 1.304 . S
C62 O100 1.435 . S
C63 C62 1.309 . S
C63 C64 1.476 . S
C63 H127 0.930 . S
C64 C63 1.476 . S
C64 C65 1.400 . S
C64 C68 1.567 . S
C65 C64 1.400 . S
C65 C66 1.373 . S
C65 C87 1.432 . S
C66 C65 1.373 . S
C66 C67 1.339 . S
C66 C69 1.530 . S
C67 C62 1.304 . S
C67 C66 1.339 . S
C67 H128 0.930 . S
C68 C64 1.567 . S
C68 H129 0.961 . S
C68 H130 0.960 1_455 S
C68 H131 0.958 1_455 S
C69 C66 1.530 . S
C69 H132 0.961 . S
C69 H133 0.960 . S
C69 H134 0.960 . S
C70 C71 1.530 . S
C70 H136 0.961 . S
C70 H137 0.961 . S
C70 H138 0.959 . S
C71 C70 1.530 . S
C71 O99 1.412 . S
C71 H135 0.980 . S
C72 C73 1.288 . S
C72 C77 1.377 . S
C72 O99 1.393 . S
C73 C72 1.288 . S
C73 C74 1.369 . S
C73 H139 0.932 1_455 S
C74 C73 1.369 . S
C74 C75 1.398 . S
C74 C78 1.527 1_455 S
C75 C74 1.398 . S
C75 C76 1.380 . S
C75 C89 1.497 . S
C76 C75 1.380 . S
C76 C77 1.383 . S
C76 C79 1.603 . S
C77 C72 1.377 . S
C77 C76 1.383 . S
C77 H140 0.929 . S
C78 C74 1.527 1_655 S
C78 H141 0.961 . S
C78 H142 0.959 . S
C78 H143 0.959 . S
C79 C76 1.603 . S
C79 H144 0.960 . S
C79 H145 0.962 . S
C79 H146 0.961 . S
C80 C47 1.587 . S
C80 C81 1.360 . S
C80 C93 1.412 . S
C81 C80 1.360 . S
C81 C82 1.365 . S
C81 H147 0.929 . S
C82 C57 1.553 . S
C82 C81 1.365 . S
C82 C83 1.404 . S
C83 C82 1.404 . S
C83 C84 1.395 . S
C83 C94 1.451 . S
C84 C83 1.395 . S
C84 C85 1.322 . S
C84 H148 0.930 . S
C85 C84 1.322 . S
C85 C86 1.459 . S
C85 H149 0.929 . S
C86 C85 1.459 . S
C86 C87 1.445 . S
C86 C95 1.395 . S
C87 C65 1.432 . S
C87 C86 1.445 . S
C87 C88 1.370 . S
C88 C87 1.370 . S
C88 C89 1.438 . S
C88 H150 0.930 . S
C89 C75 1.497 . S
C89 C88 1.438 . S
C89 C90 1.360 . S
C90 C89 1.360 . S
C90 C91 1.401 . S
C90 C95 1.446 . S
C91 C90 1.401 . S
C91 C92 1.347 . S
C91 H151 0.929 . S
C92 C91 1.347 . S
C92 C93 1.455 . S
C92 H152 0.930 . S
C93 C80 1.412 . S
C93 C92 1.455 . S
C93 C94 1.331 . S
C94 C83 1.451 . S
C94 C93 1.331 . S
C94 C95 1.497 . S
C95 C86 1.395 . S
C95 C90 1.446 . S
C95 C94 1.497 . S
C96 C97 1.582 . S
C96 H153 0.962 . S
C96 H154 0.959 . S
C96 H155 0.958 . S
C97 C96 1.582 . S
C97 O100 1.458 . S
C97 H126 0.980 . S
O98 C43 1.426 . S
O98 C44 1.334 . S
O99 C71 1.412 . S
O99 C72 1.393 . S
O100 C62 1.435 . S
O100 C97 1.458 . S
O101 C53 1.468 . S
O101 C54 1.408 . S
H102 C43 0.980 . S
H103 C42 0.959 . S
H104 C42 0.959 . S
H105 C42 0.960 1_455 S
H106 C45 0.929 . S
H107 C49 0.929 . S
H108 C50 0.959 . S
H109 C50 0.961 . S
H110 C50 0.961 . S
H111 C51 0.960 . S
H112 C51 0.960 . S
H113 C51 0.961 . S
H114 C53 0.980 . S
H115 C52 0.961 . S
H116 C52 0.960 . S
H117 C52 0.959 . S
H118 C55 0.930 . S
H119 C59 0.931 . S
H120 C60 0.959 . S
H121 C60 0.961 1_655 S
H122 C60 0.959 1_655 S
H123 C61 0.960 . S
H124 C61 0.960 . S
H125 C61 0.960 . S
H126 C97 0.980 . S
H127 C63 0.930 . S
H128 C67 0.930 . S
H129 C68 0.961 . S
H130 C68 0.960 1_655 S
H131 C68 0.958 1_655 S
H132 C69 0.961 . S
H133 C69 0.960 . S
H134 C69 0.960 . S
H135 C71 0.980 . S
H136 C70 0.961 . S
H137 C70 0.961 . S
H138 C70 0.959 . S
H139 C73 0.932 1_655 S
H140 C77 0.929 . S
H141 C78 0.961 . S
H142 C78 0.959 . S
H143 C78 0.959 . S
H144 C79 0.960 . S
H145 C79 0.962 . S
H146 C79 0.961 . S
H147 C81 0.929 . S
H148 C84 0.930 . S
H149 C85 0.929 . S
H150 C88 0.930 . S
H151 C91 0.929 . S
H152 C92 0.930 . S
H153 C96 0.962 . S
H154 C96 0.959 . S
H155 C96 0.958 . S
C156 C157 1.560 1_565 S
C156 H217 0.959 . S
C156 H218 0.959 . S
C156 H219 0.960 . S
C157 C156 1.560 1_545 S
C157 O212 1.426 1_545 S
C157 H216 0.980 . S
C158 C159 1.407 . S
C158 C163 1.418 1_545 S
C158 O212 1.334 1_545 S
C159 C158 1.407 . S
C159 C160 1.360 . S
C159 H220 0.929 . S
C160 C159 1.360 . S
C160 C161 1.401 . S
C160 C164 1.527 . S
C161 C160 1.401 . S
C161 C162 1.405 . S
C161 C194 1.587 . S
C162 C161 1.405 . S
C162 C163 1.332 1_545 S
C162 C165 1.496 1_545 S
C163 C158 1.418 1_565 S
C163 C162 1.332 1_565 S
C163 H221 0.929 . S
C164 C160 1.527 . S
C164 H222 0.959 . S
C164 H223 0.961 . S
C164 H224 0.961 . S
C165 C162 1.496 1_565 S
C165 H225 0.960 . S
C165 H226 0.960 . S
C165 H227 0.961 . S
C166 C167 1.517 . S
C166 H229 0.961 . S
C166 H230 0.960 . S
C166 H231 0.959 . S
C167 C166 1.517 . S
C167 O215 1.468 . S
C167 H228 0.980 . S
C168 C169 1.349 . S
C168 C173 1.367 . S
C168 O215 1.408 . S
C169 C168 1.349 . S
C169 C170 1.407 . S
C169 H232 0.930 . S
C170 C169 1.407 . S
C170 C171 1.449 . S
C170 C174 1.535 . S
C171 C170 1.449 . S
C171 C172 1.384 . S
C171 C196 1.553 . S
C172 C171 1.384 . S
C172 C173 1.364 . S
C172 C175 1.450 . S
C173 C168 1.367 . S
C173 C172 1.364 . S
C173 H233 0.931 . S
C174 C170 1.535 . S
C174 H234 0.959 . S
C174 H235 0.961 1_545 S
C174 H236 0.959 1_545 S
C175 C172 1.450 . S
C175 H237 0.960 . S
C175 H238 0.960 . S
C175 H239 0.960 . S
C176 C177 1.309 . S
C176 C181 1.304 . S
C176 O214 1.435 . S
C177 C176 1.309 . S
C177 C178 1.476 . S
C177 H241 0.930 . S
C178 C177 1.476 . S
C178 C179 1.400 . S
C178 C182 1.567 . S
C179 C178 1.400 . S
C179 C180 1.373 . S
C179 C201 1.432 . S
C180 C179 1.373 . S
C180 C181 1.339 . S
C180 C183 1.530 . S
C181 C176 1.304 . S
C181 C180 1.339 . S
C181 H242 0.930 . S
C182 C178 1.567 . S
C182 H243 0.961 . S
C182 H244 0.960 1_545 S
C182 H245 0.958 1_545 S
C183 C180 1.530 . S
C183 H246 0.961 . S
C183 H247 0.960 . S
C183 H248 0.960 . S
C184 C185 1.530 . S
C184 H250 0.961 . S
C184 H251 0.961 . S
C184 H252 0.959 . S
C185 C184 1.530 . S
C185 O213 1.412 . S
C185 H249 0.980 . S
C186 C187 1.288 . S
C186 C191 1.377 . S
C186 O213 1.393 . S
C187 C186 1.288 . S
C187 C188 1.369 . S
C187 H253 0.932 1_545 S
C188 C187 1.369 . S
C188 C189 1.398 . S
C188 C192 1.527 1_545 S
C189 C188 1.398 . S
C189 C190 1.380 . S
C189 C203 1.497 . S
C190 C189 1.380 . S
C190 C191 1.383 . S
C190 C193 1.603 . S
C191 C186 1.377 . S
C191 C190 1.383 . S
C191 H254 0.929 . S
C192 C188 1.527 1_565 S
C192 H255 0.961 . S
C192 H256 0.959 . S
C192 H257 0.959 . S
C193 C190 1.603 . S
C193 H258 0.960 . S
C193 H259 0.962 . S
C193 H260 0.961 . S
C194 C161 1.587 . S
C194 C195 1.360 . S
C194 C207 1.412 . S
C195 C194 1.360 . S
C195 C196 1.365 . S
C195 H261 0.929 . S
C196 C171 1.553 . S
C196 C195 1.365 . S
C196 C197 1.404 . S
C197 C196 1.404 . S
C197 C198 1.395 . S
C197 C208 1.451 . S
C198 C197 1.395 . S
C198 C199 1.322 . S
C198 H262 0.930 . S
C199 C198 1.322 . S
C199 C200 1.459 . S
C199 H263 0.929 . S
C200 C199 1.459 . S
C200 C201 1.445 . S
C200 C209 1.395 . S
C201 C179 1.432 . S
C201 C200 1.445 . S
C201 C202 1.370 . S
C202 C201 1.370 . S
C202 C203 1.438 . S
C202 H264 0.930 . S
C203 C189 1.497 . S
C203 C202 1.438 . S
C203 C204 1.360 . S
C204 C203 1.360 . S
C204 C205 1.401 . S
C204 C209 1.446 . S
C205 C204 1.401 . S
C205 C206 1.347 . S
C205 H265 0.929 . S
C206 C205 1.347 . S
C206 C207 1.455 . S
C206 H266 0.930 . S
C207 C194 1.412 . S
C207 C206 1.455 . S
C207 C208 1.331 . S
C208 C197 1.451 . S
C208 C207 1.331 . S
C208 C209 1.497 . S
C209 C200 1.395 . S
C209 C204 1.446 . S
C209 C208 1.497 . S
C210 C211 1.582 . S
C210 H267 0.962 . S
C210 H268 0.959 . S
C210 H269 0.958 . S
C211 C210 1.582 . S
C211 O214 1.458 . S
C211 H240 0.980 . S
O212 C157 1.426 1_565 S
O212 C158 1.334 1_565 S
O213 C185 1.412 . S
O213 C186 1.393 . S
O214 C176 1.435 . S
O214 C211 1.458 . S
O215 C167 1.468 . S
O215 C168 1.408 . S
H216 C157 0.980 . S
H217 C156 0.959 . S
H218 C156 0.959 . S
H219 C156 0.960 . S
H220 C159 0.929 . S
H221 C163 0.929 . S
H222 C164 0.959 . S
H223 C164 0.961 . S
H224 C164 0.961 . S
H225 C165 0.960 . S
H226 C165 0.960 . S
H227 C165 0.961 . S
H228 C167 0.980 . S
H229 C166 0.961 . S
H230 C166 0.960 . S
H231 C166 0.959 . S
H232 C169 0.930 . S
H233 C173 0.931 . S
H234 C174 0.959 . S
H235 C174 0.961 1_565 S
H236 C174 0.959 1_565 S
H237 C175 0.960 . S
H238 C175 0.960 . S
H239 C175 0.960 . S
H240 C211 0.980 . S
H241 C177 0.930 . S
H242 C181 0.930 . S
H243 C182 0.961 . S
H244 C182 0.960 1_565 S
H245 C182 0.958 1_565 S
H246 C183 0.961 . S
H247 C183 0.960 . S
H248 C183 0.960 . S
H249 C185 0.980 . S
H250 C184 0.961 . S
H251 C184 0.961 . S
H252 C184 0.959 . S
H253 C187 0.932 1_565 S
H254 C191 0.929 . S
H255 C192 0.961 . S
H256 C192 0.959 . S
H257 C192 0.959 . S
H258 C193 0.960 . S
H259 C193 0.962 . S
H260 C193 0.961 . S
H261 C195 0.929 . S
H262 C198 0.930 . S
H263 C199 0.929 . S
H264 C202 0.930 . S
H265 C205 0.929 . S
H266 C206 0.930 . S
H267 C210 0.962 . S
H268 C210 0.959 . S
H269 C210 0.958 . S
C270 C271 1.560 . S
C270 H331 0.959 . S
C270 H332 0.959 . S
C270 H333 0.960 . S
C271 C270 1.560 . S
C271 O326 1.426 . S
C271 H330 0.980 . S
C272 C273 1.407 . S
C272 C277 1.418 . S
C272 O326 1.334 . S
C273 C272 1.407 . S
C273 C274 1.360 . S
C273 H334 0.929 . S
C274 C273 1.360 . S
C274 C275 1.401 . S
C274 C278 1.527 . S
C275 C274 1.401 . S
C275 C276 1.405 . S
C275 C308 1.587 . S
C276 C275 1.405 . S
C276 C277 1.332 . S
C276 C279 1.496 . S
C277 C272 1.418 . S
C277 C276 1.332 . S
C277 H335 0.929 . S
C278 C274 1.527 . S
C278 H336 0.959 . S
C278 H337 0.961 . S
C278 H338 0.961 . S
C279 C276 1.496 . S
C279 H339 0.960 . S
C279 H340 0.960 . S
C279 H341 0.961 . S
C280 C281 1.517 . S
C280 H343 0.961 . S
C280 H344 0.960 . S
C280 H345 0.959 . S
C281 C280 1.517 . S
C281 O329 1.468 . S
C281 H342 0.980 . S
C282 C283 1.349 . S
C282 C287 1.367 . S
C282 O329 1.408 . S
C283 C282 1.349 . S
C283 C284 1.407 . S
C283 H346 0.930 . S
C284 C283 1.407 . S
C284 C285 1.449 . S
C284 C288 1.535 . S
C285 C284 1.449 . S
C285 C286 1.384 . S
C285 C310 1.553 . S
C286 C285 1.384 . S
C286 C287 1.364 . S
C286 C289 1.450 . S
C287 C282 1.367 . S
C287 C286 1.364 . S
C287 H347 0.931 . S
C288 C284 1.535 . S
C288 H348 0.959 . S
C288 H349 0.961 . S
C288 H350 0.959 . S
C289 C286 1.450 . S
C289 H351 0.960 . S
C289 H352 0.960 . S
C289 H353 0.960 . S
C290 C291 1.309 . S
C290 C295 1.304 . S
C290 O328 1.435 . S
C291 C290 1.309 . S
C291 C292 1.476 . S
C291 H355 0.930 . S
C292 C291 1.476 . S
C292 C293 1.400 . S
C292 C296 1.567 . S
C293 C292 1.400 . S
C293 C294 1.373 . S
C293 C315 1.432 . S
C294 C293 1.373 . S
C294 C295 1.339 . S
C294 C297 1.530 . S
C295 C290 1.304 . S
C295 C294 1.339 . S
C295 H356 0.930 . S
C296 C292 1.567 . S
C296 H357 0.961 . S
C296 H358 0.960 . S
C296 H359 0.958 . S
C297 C294 1.530 . S
C297 H360 0.961 . S
C297 H361 0.960 . S
C297 H362 0.960 . S
C298 C299 1.530 . S
C298 H364 0.961 . S
C298 H365 0.961 . S
C298 H366 0.959 . S
C299 C298 1.530 . S
C299 O327 1.412 . S
C299 H363 0.980 . S
C300 C301 1.288 . S
C300 C305 1.377 . S
C300 O327 1.393 . S
C301 C300 1.288 . S
C301 C302 1.369 . S
C301 H367 0.932 . S
C302 C301 1.369 . S
C302 C303 1.398 . S
C302 C306 1.527 . S
C303 C302 1.398 . S
C303 C304 1.380 . S
C303 C317 1.497 . S
C304 C303 1.380 . S
C304 C305 1.383 . S
C304 C307 1.603 . S
C305 C300 1.377 . S
C305 C304 1.383 . S
C305 H368 0.929 . S
C306 C302 1.527 . S
C306 H369 0.961 . S
C306 H370 0.959 . S
C306 H371 0.959 . S
C307 C304 1.603 . S
C307 H372 0.960 . S
C307 H373 0.962 . S
C307 H374 0.961 . S
C308 C275 1.587 . S
C308 C309 1.360 . S
C308 C321 1.412 . S
C309 C308 1.360 . S
C309 C310 1.365 . S
C309 H375 0.929 . S
C310 C285 1.553 . S
C310 C309 1.365 . S
C310 C311 1.404 . S
C311 C310 1.404 . S
C311 C312 1.395 . S
C311 C322 1.451 . S
C312 C311 1.395 . S
C312 C313 1.322 . S
C312 H376 0.930 . S
C313 C312 1.322 . S
C313 C314 1.459 . S
C313 H377 0.929 . S
C314 C313 1.459 . S
C314 C315 1.445 . S
C314 C323 1.395 . S
C315 C293 1.432 . S
C315 C314 1.445 . S
C315 C316 1.370 . S
C316 C315 1.370 . S
C316 C317 1.438 . S
C316 H378 0.930 . S
C317 C303 1.497 . S
C317 C316 1.438 . S
C317 C318 1.360 . S
C318 C317 1.360 . S
C318 C319 1.401 . S
C318 C323 1.446 . S
C319 C318 1.401 . S
C319 C320 1.347 . S
C319 H379 0.929 . S
C320 C319 1.347 . S
C320 C321 1.455 . S
C320 H380 0.930 . S
C321 C308 1.412 . S
C321 C320 1.455 . S
C321 C322 1.331 . S
C322 C311 1.451 . S
C322 C321 1.331 . S
C322 C323 1.497 . S
C323 C314 1.395 . S
C323 C318 1.446 . S
C323 C322 1.497 . S
C324 C325 1.582 . S
C324 H381 0.962 . S
C324 H382 0.959 . S
C324 H383 0.958 . S
C325 C324 1.582 . S
C325 O328 1.458 . S
C325 H354 0.980 . S
O326 C271 1.426 . S
O326 C272 1.334 . S
O327 C299 1.412 . S
O327 C300 1.393 . S
O328 C290 1.435 . S
O328 C325 1.458 . S
O329 C281 1.468 . S
O329 C282 1.408 . S
H330 C271 0.980 . S
H331 C270 0.959 . S
H332 C270 0.959 . S
H333 C270 0.960 . S
H334 C273 0.929 . S
H335 C277 0.929 . S
H336 C278 0.959 . S
H337 C278 0.961 . S
H338 C278 0.961 . S
H339 C279 0.960 . S
H340 C279 0.960 . S
H341 C279 0.961 . S
H342 C281 0.980 . S
H343 C280 0.961 . S
H344 C280 0.960 . S
H345 C280 0.959 . S
H346 C283 0.930 . S
H347 C287 0.931 . S
H348 C288 0.959 . S
H349 C288 0.961 . S
H350 C288 0.959 . S
H351 C289 0.960 . S
H352 C289 0.960 . S
H353 C289 0.960 . S
H354 C325 0.980 . S
H355 C291 0.930 . S
H356 C295 0.930 . S
H357 C296 0.961 . S
H358 C296 0.960 . S
H359 C296 0.958 . S
H360 C297 0.961 . S
H361 C297 0.960 . S
H362 C297 0.960 . S
H363 C299 0.980 . S
H364 C298 0.961 . S
H365 C298 0.961 . S
H366 C298 0.959 . S
H367 C301 0.932 . S
H368 C305 0.929 . S
H369 C306 0.961 . S
H370 C306 0.959 . S
H371 C306 0.959 . S
H372 C307 0.960 . S
H373 C307 0.962 . S
H374 C307 0.961 . S
H375 C309 0.929 . S
H376 C312 0.930 . S
H377 C313 0.929 . S
H378 C316 0.930 . S
H379 C319 0.929 . S
H380 C320 0.930 . S
H381 C324 0.962 . S
H382 C324 0.959 . S
H383 C324 0.958 . S
C384 C385 1.386 . S
C384 C386 1.383 . S
C384 H400 0.951 . S
C385 C384 1.386 . S
C385 C389 1.383 . S
C386 C384 1.383 . S
C386 C387 1.402 . S
C386 H401 0.951 . S
C387 C386 1.402 . S
C387 C388 1.375 . S
C387 C390 1.481 . S
C388 C387 1.375 . S
C388 C389 1.367 . S
C388 H402 0.951 . S
C389 C385 1.383 . S
C389 C388 1.367 . S
C389 H403 0.950 . S
C390 C387 1.481 . S
C390 C391 1.297 . S
C390 H404 0.950 . S
C391 C390 1.297 . S
C391 C392 1.479 . S
C391 H405 0.950 . S
C392 C391 1.479 . S
C392 C393 1.375 . S
C392 C398 1.404 . S
C393 C392 1.375 . S
C393 C394 1.369 . S
C393 H406 0.950 . S
C394 C393 1.369 . S
C394 C395 1.392 . S
C394 H407 0.951 . S
C395 C394 1.392 . S
C395 C397 1.384 . S
H396 C398 0.949 . S
C397 C395 1.384 . S
C397 C398 1.385 . S
C397 H399 0.950 . S
C398 C392 1.404 . S
C398 H396 0.949 . S
C398 C397 1.385 . S
H399 C397 0.950 . S
H400 C384 0.951 . S
H401 C386 0.951 . S
H402 C388 0.951 . S
H403 C389 0.950 . S
H404 C390 0.950 . S
H405 C391 0.950 . S
H406 C393 0.950 . S
H407 C394 0.951 . S
C408 C409 1.386 . S
C408 C410 1.383 . S
C408 H424 0.951 . S
C409 C408 1.386 . S
C409 C413 1.383 . S
C410 C408 1.383 . S
C410 C411 1.402 . S
C410 H425 0.951 . S
C411 C410 1.402 . S
C411 C412 1.375 . S
C411 C414 1.481 . S
C412 C411 1.375 . S
C412 C413 1.367 . S
C412 H426 0.951 . S
C413 C409 1.383 . S
C413 C412 1.367 . S
C413 H427 0.950 . S
C414 C411 1.481 . S
C414 C415 1.297 . S
C414 H428 0.950 . S
C415 C414 1.297 . S
C415 C416 1.479 . S
C415 H429 0.950 . S
C416 C415 1.479 . S
C416 C417 1.375 . S
C416 C422 1.404 . S
C417 C416 1.375 . S
C417 C418 1.369 . S
C417 H430 0.950 . S
C418 C417 1.369 . S
C418 C419 1.392 . S
C418 H431 0.951 . S
C419 C418 1.392 . S
C419 C421 1.384 . S
H420 C422 0.949 . S
C421 C419 1.384 . S
C421 C422 1.385 . S
C421 H423 0.950 . S
C422 C416 1.404 . S
C422 H420 0.949 . S
C422 C421 1.385 . S
H423 C421 0.950 . S
H424 C408 0.951 . S
H425 C410 0.951 . S
H426 C412 0.951 . S
H427 C413 0.950 . S
H428 C414 0.950 . S
H429 C415 0.950 . S
H430 C417 0.950 . S
H431 C418 0.951 . S
C432 C433 1.386 . S
C432 C434 1.383 . S
C432 H448 0.951 . S
C433 C432 1.386 . S
C433 C437 1.383 . S
C434 C432 1.383 . S
C434 C435 1.402 . S
C434 H449 0.951 . S
C435 C434 1.402 . S
C435 C436 1.375 . S
C435 C438 1.481 . S
C436 C435 1.375 . S
C436 C437 1.367 . S
C436 H450 0.951 . S
C437 C433 1.383 . S
C437 C436 1.367 . S
C437 H451 0.950 . S
C438 C435 1.481 . S
C438 C439 1.297 . S
C438 H452 0.950 . S
C439 C438 1.297 . S
C439 C440 1.479 . S
C439 H453 0.950 . S
C440 C439 1.479 . S
C440 C441 1.375 . S
C440 C446 1.404 . S
C441 C440 1.375 . S
C441 C442 1.369 . S
C441 H454 0.950 . S
C442 C441 1.369 . S
C442 C443 1.392 . S
C442 H455 0.951 . S
C443 C442 1.392 . S
C443 C445 1.384 . S
H444 C446 0.949 . S
C445 C443 1.384 . S
C445 C446 1.385 . S
C445 H447 0.950 . S
C446 C440 1.404 . S
C446 H444 0.949 . S
C446 C445 1.385 . S
H447 C445 0.950 . S
H448 C432 0.951 . S
H449 C434 0.951 . S
H450 C436 0.951 . S
H451 C437 0.950 . S
H452 C438 0.950 . S
H453 C439 0.950 . S
H454 C441 0.950 . S
H455 C442 0.951 . S
C456 C457 1.386 . S
C456 C458 1.383 . S
C456 H472 0.948 1_565 S
C457 C456 1.386 . S
C457 C461 1.383 . S
C458 C456 1.383 . S
C458 C459 1.402 . S
C458 H473 0.951 . S
C459 C458 1.402 . S
C459 C460 1.375 . S
C459 C462 1.481 . S
C460 C459 1.375 . S
C460 C461 1.367 . S
C460 H474 0.951 . S
C461 C457 1.383 . S
C461 C460 1.367 . S
C461 H475 0.950 . S
C462 C459 1.481 . S
C462 C463 1.297 . S
C462 H476 0.950 . S
C463 C462 1.297 . S
C463 C464 1.479 . S
C463 H477 0.950 . S
C464 C463 1.479 . S
C464 C465 1.375 . S
C464 C470 1.404 . S
C465 C464 1.375 . S
C465 C466 1.369 . S
C465 H478 0.950 . S
C466 C465 1.369 . S
C466 C467 1.392 . S
C466 H479 0.951 . S
C467 C466 1.392 . S
C467 C469 1.384 . S
H468 C470 0.949 . S
C469 C467 1.384 . S
C469 C470 1.385 . S
C469 H471 0.950 . S
C470 C464 1.404 . S
C470 H468 0.949 . S
C470 C469 1.385 . S
H471 C469 0.950 . S
H472 C456 0.948 1_545 S
H473 C458 0.951 . S
H474 C460 0.951 . S
H475 C461 0.950 . S
H476 C462 0.950 . S
H477 C463 0.950 . S
H478 C465 0.950 . S
H479 C466 0.951 . S
C480 C481 1.386 . S
C480 C482 1.383 . S
C480 H496 0.951 . S
C481 C480 1.386 . S
C481 C485 1.383 . S
C482 C480 1.383 . S
C482 C483 1.402 . S
C482 H497 0.951 . S
C483 C482 1.402 . S
C483 C484 1.375 . S
C483 C486 1.481 . S
C484 C483 1.375 . S
C484 C485 1.367 . S
C484 H498 0.951 . S
C485 C481 1.383 . S
C485 C484 1.367 . S
C485 H499 0.950 . S
C486 C483 1.481 . S
C486 C487 1.297 . S
C486 H500 0.950 . S
C487 C486 1.297 . S
C487 C488 1.479 . S
C487 H501 0.950 . S
C488 C487 1.479 . S
C488 C489 1.375 . S
C488 C494 1.404 . S
C489 C488 1.375 . S
C489 C490 1.369 . S
C489 H502 0.950 . S
C490 C489 1.369 . S
C490 C491 1.392 . S
C490 H503 0.951 . S
C491 C490 1.392 . S
C491 C493 1.384 . S
H492 C494 0.949 . S
C493 C491 1.384 . S
C493 C494 1.385 . S
C493 H495 0.950 . S
C494 C488 1.404 . S
C494 H492 0.949 . S
C494 C493 1.385 . S
H495 C493 0.950 . S
H496 C480 0.951 . S
H497 C482 0.951 . S
H498 C484 0.951 . S
H499 C485 0.950 . S
H500 C486 0.950 . S
H501 C487 0.950 . S
H502 C489 0.950 . S
H503 C490 0.951 . S
C504 C505 1.386 . S
C504 C506 1.383 . S
C504 H520 0.951 . S
C505 C504 1.386 . S
C505 C509 1.383 . S
C506 C504 1.383 . S
C506 C507 1.402 . S
C506 H521 0.951 . S
C507 C506 1.402 . S
C507 C508 1.375 . S
C507 C510 1.481 . S
C508 C507 1.375 . S
C508 C509 1.367 . S
C508 H522 0.951 . S
C509 C505 1.383 . S
C509 C508 1.367 . S
C509 H523 0.950 . S
C510 C507 1.481 . S
C510 C511 1.297 . S
C510 H524 0.950 . S
C511 C510 1.297 . S
C511 C512 1.479 . S
C511 H525 0.950 . S
C512 C511 1.479 . S
C512 C513 1.375 . S
C512 C518 1.404 . S
C513 C512 1.375 . S
C513 C514 1.369 . S
C513 H526 0.950 . S
C514 C513 1.369 . S
C514 C515 1.392 . S
C514 H527 0.951 . S
C515 C514 1.392 . S
C515 C517 1.384 . S
H516 C518 0.949 . S
C517 C515 1.384 . S
C517 C518 1.385 . S
C517 H519 0.950 . S
C518 C512 1.404 . S
C518 H516 0.949 . S
C518 C517 1.385 . S
H519 C517 0.950 . S
H520 C504 0.951 . S
H521 C506 0.951 . S
H522 C508 0.951 . S
H523 C509 0.950 . S
H524 C510 0.950 . S
H525 C511 0.950 . S
H526 C513 0.950 . S
H527 C514 0.951 . S
C528 C529 1.386 . S
C528 C530 1.383 . S
C528 H544 0.951 . S
C529 C528 1.386 . S
C529 C533 1.383 . S
C530 C528 1.383 . S
C530 C531 1.402 . S
C530 H545 0.951 . S
C531 C530 1.402 . S
C531 C532 1.375 . S
C531 C534 1.481 . S
C532 C531 1.375 . S
C532 C533 1.367 . S
C532 H546 0.951 . S
C533 C529 1.383 . S
C533 C532 1.367 . S
C533 H547 0.950 1_655 S
C534 C531 1.481 . S
C534 C535 1.297 . S
C534 H548 0.950 . S
C535 C534 1.297 . S
C535 C536 1.479 . S
C535 H549 0.950 . S
C536 C535 1.479 . S
C536 C537 1.375 . S
C536 C542 1.404 . S
C537 C536 1.375 . S
C537 C538 1.369 . S
C537 H550 0.950 . S
C538 C537 1.369 . S
C538 C539 1.392 . S
C538 H551 0.951 . S
C539 C538 1.392 . S
C539 C541 1.384 . S
H540 C542 0.949 . S
C541 C539 1.384 . S
C541 C542 1.385 . S
C541 H543 0.950 . S
C542 C536 1.404 . S
C542 H540 0.949 . S
C542 C541 1.385 . S
H543 C541 0.950 . S
H544 C528 0.951 . S
H545 C530 0.951 . S
H546 C532 0.951 . S
H547 C533 0.950 1_455 S
H548 C534 0.950 . S
H549 C535 0.950 . S
H550 C537 0.950 . S
H551 C538 0.951 . S
C552 C553 1.389 . S
C552 C554 1.381 1_554 S
C552 H568 0.949 1_664 S
C553 C552 1.389 . S
C553 C557 1.383 . S
C554 C552 1.381 1_556 S
C554 C555 1.413 . S
C554 H569 0.951 . S
C555 C554 1.413 . S
C555 C556 1.355 1_556 S
C555 C558 1.489 . S
C556 C555 1.355 1_554 S
C556 C557 1.367 . S
C556 H570 0.951 . S
C557 C553 1.383 . S
C557 C556 1.367 . S
C557 H571 0.950 . S
C558 C555 1.489 . S
C558 C559 1.297 . S
C558 H572 0.950 . S
C559 C558 1.297 . S
C559 C560 1.479 . S
C559 H573 0.950 . S
C560 C559 1.479 . S
C560 C561 1.375 . S
C560 C566 1.404 . S
C561 C560 1.375 . S
C561 C562 1.369 . S
C561 H574 0.950 . S
C562 C561 1.369 . S
C562 C563 1.392 . S
C562 H575 0.951 . S
C563 C562 1.392 . S
C563 C565 1.384 . S
H564 C566 0.949 . S
C565 C563 1.384 . S
C565 C566 1.385 . S
C565 H567 0.950 . S
C566 C560 1.404 . S
C566 H564 0.949 . S
C566 C565 1.385 . S
H567 C565 0.950 . S
H568 C552 0.949 1_446 S
H569 C554 0.951 . S
H570 C556 0.951 . S
H571 C557 0.950 . S
H572 C558 0.950 . S
H573 C559 0.950 . S
H574 C561 0.950 . S
H575 C562 0.951 . S
C576 C577 1.386 . S
C576 C578 1.383 . S
C576 H592 0.951 . S
C577 C576 1.386 . S
C577 C581 1.383 1_565 S
C578 C576 1.383 . S
C578 C579 1.402 . S
C578 H593 0.951 . S
C579 C578 1.402 . S
C579 C580 1.375 . S
C579 C582 1.481 . S
C580 C579 1.375 . S
C580 C581 1.367 1_565 S
C580 H594 0.951 . S
C581 C577 1.383 1_545 S
C581 C580 1.367 1_545 S
C581 H595 0.950 . S
C582 C579 1.481 . S
C582 C583 1.297 . S
C582 H596 0.950 . S
C583 C582 1.297 . S
C583 C584 1.479 . S
C583 H597 0.950 . S
C584 C583 1.479 . S
C584 C585 1.375 . S
C584 C590 1.404 . S
C585 C584 1.375 . S
C585 C586 1.369 . S
C585 H598 0.950 . S
C586 C585 1.369 . S
C586 C587 1.392 . S
C586 H599 0.951 . S
C587 C586 1.392 . S
C587 C589 1.384 . S
H588 C590 0.949 . S
C589 C587 1.384 . S
C589 C590 1.385 . S
C589 H591 0.950 . S
C590 C584 1.404 . S
C590 H588 0.949 . S
C590 C589 1.385 . S
H591 C589 0.950 . S
H592 C576 0.951 . S
H593 C578 0.951 . S
H594 C580 0.951 . S
H595 C581 0.950 . S
H596 C582 0.950 . S
H597 C583 0.950 . S
H598 C585 0.950 . S
H599 C586 0.951 . S
C600 C601 1.386 1_565 S
C600 C602 1.383 . S
C600 H616 0.951 . S
C601 C600 1.386 1_545 S
C601 C605 1.383 . S
C602 C600 1.383 . S
C602 C603 1.402 1_565 S
C602 H617 0.951 . S
C603 C602 1.402 1_545 S
C603 C604 1.375 . S
C603 C606 1.481 . S
C604 C603 1.375 . S
C604 C605 1.367 . S
C604 H618 0.951 . S
C605 C601 1.383 . S
C605 C604 1.367 . S
C605 H619 0.950 . S
C606 C603 1.481 . S
C606 C607 1.308 . S
C606 H620 0.950 . S
C607 C606 1.308 . S
C607 C608 1.477 . S
C607 H621 0.941 1_545 S
C608 C607 1.477 . S
C608 C609 1.375 1_545 S
C608 C614 1.404 . S
C609 C608 1.375 1_565 S
C609 C610 1.369 . S
C609 H622 0.950 . S
C610 C609 1.369 . S
C610 C611 1.392 1_565 S
C610 H623 0.951 . S
C611 C610 1.392 1_545 S
C611 C613 1.384 . S
H612 C614 0.949 . S
C613 C611 1.384 . S
C613 C614 1.385 . S
C613 H615 0.950 . S
C614 C608 1.404 . S
C614 H612 0.949 . S
C614 C613 1.385 . S
H615 C613 0.950 . S
H616 C600 0.951 . S
H617 C602 0.951 . S
H618 C604 0.951 . S
H619 C605 0.950 . S
H620 C606 0.950 . S
H621 C607 0.941 1_565 S
H622 C609 0.950 . S
H623 C610 0.951 . S
C624 C625 1.386 1_556 S
C624 C626 1.383 . S
C624 H640 0.951 . S
C625 C624 1.386 1_554 S
C625 C629 1.383 . S
C626 C624 1.383 . S
C626 C627 1.402 . S
C626 H641 0.951 . S
C627 C626 1.402 . S
C627 C628 1.375 1_556 S
C627 C630 1.481 . S
C628 C627 1.375 1_554 S
C628 C629 1.367 . S
C628 H642 0.951 . S
C629 C625 1.383 . S
C629 C628 1.367 . S
C629 H643 0.950 . S
C630 C627 1.481 . S
C630 C631 1.297 . S
C630 H644 0.950 . S
C631 C630 1.297 . S
C631 C632 1.479 . S
C631 H645 0.950 . S
C632 C631 1.479 . S
C632 C633 1.375 . S
C632 C638 1.404 . S
C633 C632 1.375 . S
C633 C634 1.369 . S
C633 H646 0.950 . S
C634 C633 1.369 . S
C634 C635 1.392 . S
C634 H647 0.951 . S
C635 C634 1.392 . S
C635 C637 1.384 . S
H636 C638 0.949 . S
C637 C635 1.384 . S
C637 C638 1.385 . S
C637 H639 0.950 . S
C638 C632 1.404 . S
C638 H636 0.949 . S
C638 C637 1.385 . S
H639 C637 0.950 . S
H640 C624 0.951 . S
H641 C626 0.951 . S
H642 C628 0.951 . S
H643 C629 0.950 . S
H644 C630 0.950 . S
H645 C631 0.950 . S
H646 C633 0.950 . S
H647 C634 0.951 . S
C648 C649 1.386 . S
C648 C650 1.383 . S
C648 H664 0.951 . S
C649 C648 1.386 . S
C649 C653 1.383 . S
C650 C648 1.383 . S
C650 C651 1.402 . S
C650 H665 0.951 . S
C651 C650 1.402 . S
C651 C652 1.375 . S
C651 C654 1.481 . S
C652 C651 1.375 . S
C652 C653 1.367 . S
C652 H666 0.951 . S
C653 C649 1.383 . S
C653 C652 1.367 . S
C653 H667 0.950 . S
C654 C651 1.481 . S
C654 C655 1.297 . S
C654 H668 0.950 . S
C655 C654 1.297 . S
C655 C656 1.479 . S
C655 H669 0.950 . S
C656 C655 1.479 . S
C656 C657 1.375 . S
C656 C662 1.404 . S
C657 C656 1.375 . S
C657 C658 1.369 . S
C657 H670 0.950 . S
C658 C657 1.369 . S
C658 C659 1.392 . S
C658 H671 0.951 . S
C659 C658 1.392 . S
C659 C661 1.384 . S
H660 C662 0.949 . S
C661 C659 1.384 . S
C661 C662 1.385 . S
C661 H663 0.950 . S
C662 C656 1.404 . S
C662 H660 0.949 . S
C662 C661 1.385 . S
H663 C661 0.950 . S
H664 C648 0.951 . S
H665 C650 0.951 . S
H666 C652 0.951 . S
H667 C653 0.950 . S
H668 C654 0.950 . S
H669 C655 0.950 . S
H670 C657 0.950 . S
H671 C658 0.951 . S
C395 C97 0.870 . S
C385 C11 1.350 . S
C409 C25 1.416 . S
C419 C211 1.136 . S
C433 C41 1.182 . S
C443 C271 1.073 . S
C457 C7 1.251 1_565 S
C467 C71 0.960 . S
C491 C185 1.156 . S
C481 C21 1.332 . S
C505 C36 1.392 . S
C515 C281 0.776 . S
C539 C167 0.666 . S
C529 C39 1.335 . S
C553 C8 1.295 1_665 S
C563 C299 1.020 . S
C587 C43 0.978 . S
C577 C22 1.265 1_565 S
C611 C157 0.987 . S
C601 C35 1.236 . S
C635 C325 0.962 . S
C625 C13 1.436 . S
C649 C27 1.389 . S
C659 C53 0.880 . S
