# Generated by pormake.
# Topology bpr, (3,3)-cn, num edge types: 1
# Building blocks:
#     Node 0, Type 0, BuildingBlock: WUSLED_clean_sbu_0, # of connection points: 3
#     Node 1, Type 0, BuildingBlock: WUSLED_clean_sbu_0, # of connection points: 3
#     Node 2, Type 0, BuildingBlock: WUSLED_clean_sbu_0, # of connection points: 3
#     Node 3, Type 0, BuildingBlock: WUSLED_clean_sbu_0, # of connection points: 3
#     Node 4, Type 0, BuildingBlock: WUSLED_clean_sbu_0, # of connection points: 3
#     Node 5, Type 0, BuildingBlock: WUSLED_clean_sbu_0, # of connection points: 3
#     Node 6, Type 0, BuildingBlock: WUSLED_clean_sbu_0, # of connection points: 3
#     Node 7, Type 0, BuildingBlock: WUSLED_clean_sbu_0, # of connection points: 3
#     Node 8, Type 0, BuildingBlock: WUSLED_clean_sbu_0, # of connection points: 3
#     Node 9, Type 0, BuildingBlock: WUSLED_clean_sbu_0, # of connection points: 3
#     Node 10, Type 0, BuildingBlock: WUSLED_clean_sbu_0, # of connection points: 3
#     Node 11, Type 0, BuildingBlock: WUSLED_clean_sbu_0, # of connection points: 3
#     Node 12, Type 0, BuildingBlock: WUSLED_clean_sbu_0, # of connection points: 3
#     Node 13, Type 0, BuildingBlock: WUSLED_clean_sbu_0, # of connection points: 3
#     Node 14, Type 0, BuildingBlock: WUSLED_clean_sbu_0, # of connection points: 3
#     Node 15, Type 0, BuildingBlock: WUSLED_clean_sbu_0, # of connection points: 3
#     Node 16, Type 0, BuildingBlock: WUSLED_clean_sbu_0, # of connection points: 3
#     Node 17, Type 0, BuildingBlock: WUSLED_clean_sbu_0, # of connection points: 3
#     Node 18, Type 0, BuildingBlock: WUSLED_clean_sbu_0, # of connection points: 3
#     Node 19, Type 0, BuildingBlock: WUSLED_clean_sbu_0, # of connection points: 3
#     Node 20, Type 0, BuildingBlock: WUSLED_clean_sbu_0, # of connection points: 3
#     Node 21, Type 0, BuildingBlock: WUSLED_clean_sbu_0, # of connection points: 3
#     Node 22, Type 0, BuildingBlock: WUSLED_clean_sbu_0, # of connection points: 3
#     Node 23, Type 0, BuildingBlock: WUSLED_clean_sbu_0, # of connection points: 3
#     Node 24, Type 0, BuildingBlock: WUSLED_clean_sbu_0, # of connection points: 3
#     Node 25, Type 0, BuildingBlock: WUSLED_clean_sbu_0, # of connection points: 3
#     Node 26, Type 0, BuildingBlock: WUSLED_clean_sbu_0, # of connection points: 3
#     Node 27, Type 0, BuildingBlock: WUSLED_clean_sbu_0, # of connection points: 3
#     Node 28, Type 0, BuildingBlock: WUSLED_clean_sbu_0, # of connection points: 3
#     Node 29, Type 0, BuildingBlock: WUSLED_clean_sbu_0, # of connection points: 3
#     Node 30, Type 0, BuildingBlock: WUSLED_clean_sbu_0, # of connection points: 3
#     Node 31, Type 0, BuildingBlock: WUSLED_clean_sbu_0, # of connection points: 3
#     Node 32, Type 0, BuildingBlock: WUSLED_clean_sbu_0, # of connection points: 3
#     Node 33, Type 0, BuildingBlock: WUSLED_clean_sbu_0, # of connection points: 3
#     Node 34, Type 0, BuildingBlock: WUSLED_clean_sbu_0, # of connection points: 3
#     Node 35, Type 0, BuildingBlock: WUSLED_clean_sbu_0, # of connection points: 3
#     Node 36, Type 0, BuildingBlock: WUSLED_clean_sbu_0, # of connection points: 3
#     Node 37, Type 0, BuildingBlock: WUSLED_clean_sbu_0, # of connection points: 3
#     Node 38, Type 0, BuildingBlock: WUSLED_clean_sbu_0, # of connection points: 3
#     Node 39, Type 0, BuildingBlock: WUSLED_clean_sbu_0, # of connection points: 3
#     Node 40, Type 0, BuildingBlock: WUSLED_clean_sbu_0, # of connection points: 3
#     Node 41, Type 0, BuildingBlock: WUSLED_clean_sbu_0, # of connection points: 3
#     Node 42, Type 0, BuildingBlock: WUSLED_clean_sbu_0, # of connection points: 3
#     Node 43, Type 0, BuildingBlock: WUSLED_clean_sbu_0, # of connection points: 3
#     Node 44, Type 0, BuildingBlock: WUSLED_clean_sbu_0, # of connection points: 3
#     Node 45, Type 0, BuildingBlock: WUSLED_clean_sbu_0, # of connection points: 3
#     Node 46, Type 0, BuildingBlock: WUSLED_clean_sbu_0, # of connection points: 3
#     Node 47, Type 0, BuildingBlock: WUSLED_clean_sbu_0, # of connection points: 3
#     Node 48, Type 1, BuildingBlock: BELTOD_clean_linker_0, # of connection points: 3
#     Node 49, Type 1, BuildingBlock: BELTOD_clean_linker_0, # of connection points: 3
#     Node 50, Type 1, BuildingBlock: BELTOD_clean_linker_0, # of connection points: 3
#     Node 51, Type 1, BuildingBlock: BELTOD_clean_linker_0, # of connection points: 3
#     Node 52, Type 1, BuildingBlock: BELTOD_clean_linker_0, # of connection points: 3
#     Node 53, Type 1, BuildingBlock: BELTOD_clean_linker_0, # of connection points: 3
#     Node 54, Type 1, BuildingBlock: BELTOD_clean_linker_0, # of connection points: 3
#     Node 55, Type 1, BuildingBlock: BELTOD_clean_linker_0, # of connection points: 3
#     Node 56, Type 1, BuildingBlock: BELTOD_clean_linker_0, # of connection points: 3
#     Node 57, Type 1, BuildingBlock: BELTOD_clean_linker_0, # of connection points: 3
#     Node 58, Type 1, BuildingBlock: BELTOD_clean_linker_0, # of connection points: 3
#     Node 59, Type 1, BuildingBlock: BELTOD_clean_linker_0, # of connection points: 3
#     Node 60, Type 1, BuildingBlock: BELTOD_clean_linker_0, # of connection points: 3
#     Node 61, Type 1, BuildingBlock: BELTOD_clean_linker_0, # of connection points: 3
#     Node 62, Type 1, BuildingBlock: BELTOD_clean_linker_0, # of connection points: 3
#     Node 63, Type 1, BuildingBlock: BELTOD_clean_linker_0, # of connection points: 3
#     Node 64, Type 1, BuildingBlock: BELTOD_clean_linker_0, # of connection points: 3
#     Node 65, Type 1, BuildingBlock: BELTOD_clean_linker_0, # of connection points: 3
#     Node 66, Type 1, BuildingBlock: BELTOD_clean_linker_0, # of connection points: 3
#     Node 67, Type 1, BuildingBlock: BELTOD_clean_linker_0, # of connection points: 3
#     Node 68, Type 1, BuildingBlock: BELTOD_clean_linker_0, # of connection points: 3
#     Node 69, Type 1, BuildingBlock: BELTOD_clean_linker_0, # of connection points: 3
#     Node 70, Type 1, BuildingBlock: BELTOD_clean_linker_0, # of connection points: 3
#     Node 71, Type 1, BuildingBlock: BELTOD_clean_linker_0, # of connection points: 3
#     Node 72, Type 1, BuildingBlock: BELTOD_clean_linker_0, # of connection points: 3
#     Node 73, Type 1, BuildingBlock: BELTOD_clean_linker_0, # of connection points: 3
#     Node 74, Type 1, BuildingBlock: BELTOD_clean_linker_0, # of connection points: 3
#     Node 75, Type 1, BuildingBlock: BELTOD_clean_linker_0, # of connection points: 3
#     Node 76, Type 1, BuildingBlock: BELTOD_clean_linker_0, # of connection points: 3
#     Node 77, Type 1, BuildingBlock: BELTOD_clean_linker_0, # of connection points: 3
#     Node 78, Type 1, BuildingBlock: BELTOD_clean_linker_0, # of connection points: 3
#     Node 79, Type 1, BuildingBlock: BELTOD_clean_linker_0, # of connection points: 3
#     Node 80, Type 1, BuildingBlock: BELTOD_clean_linker_0, # of connection points: 3
#     Node 81, Type 1, BuildingBlock: BELTOD_clean_linker_0, # of connection points: 3
#     Node 82, Type 1, BuildingBlock: BELTOD_clean_linker_0, # of connection points: 3
#     Node 83, Type 1, BuildingBlock: BELTOD_clean_linker_0, # of connection points: 3
#     Node 84, Type 1, BuildingBlock: BELTOD_clean_linker_0, # of connection points: 3
#     Node 85, Type 1, BuildingBlock: BELTOD_clean_linker_0, # of connection points: 3
#     Node 86, Type 1, BuildingBlock: BELTOD_clean_linker_0, # of connection points: 3
#     Node 87, Type 1, BuildingBlock: BELTOD_clean_linker_0, # of connection points: 3
#     Node 88, Type 1, BuildingBlock: BELTOD_clean_linker_0, # of connection points: 3
#     Node 89, Type 1, BuildingBlock: BELTOD_clean_linker_0, # of connection points: 3
#     Node 90, Type 1, BuildingBlock: BELTOD_clean_linker_0, # of connection points: 3
#     Node 91, Type 1, BuildingBlock: BELTOD_clean_linker_0, # of connection points: 3
#     Node 92, Type 1, BuildingBlock: BELTOD_clean_linker_0, # of connection points: 3
#     Node 93, Type 1, BuildingBlock: BELTOD_clean_linker_0, # of connection points: 3
#     Node 94, Type 1, BuildingBlock: BELTOD_clean_linker_0, # of connection points: 3
#     Node 95, Type 1, BuildingBlock: BELTOD_clean_linker_0, # of connection points: 3
#     Edge 96, Type (0, 1), BuildingBlock: UVAHIK_clean_linker_0, # of connection points: 2
#     Edge 97, Type (0, 1), BuildingBlock: UVAHIK_clean_linker_0, # of connection points: 2
#     Edge 98, Type (0, 1), BuildingBlock: UVAHIK_clean_linker_0, # of connection points: 2
#     Edge 99, Type (0, 1), BuildingBlock: UVAHIK_clean_linker_0, # of connection points: 2
#     Edge 100, Type (0, 1), BuildingBlock: UVAHIK_clean_linker_0, # of connection points: 2
#     Edge 101, Type (0, 1), BuildingBlock: UVAHIK_clean_linker_0, # of connection points: 2
#     Edge 102, Type (0, 1), BuildingBlock: UVAHIK_clean_linker_0, # of connection points: 2
#     Edge 103, Type (0, 1), BuildingBlock: UVAHIK_clean_linker_0, # of connection points: 2
#     Edge 104, Type (0, 1), BuildingBlock: UVAHIK_clean_linker_0, # of connection points: 2
#     Edge 105, Type (0, 1), BuildingBlock: UVAHIK_clean_linker_0, # of connection points: 2
#     Edge 106, Type (0, 1), BuildingBlock: UVAHIK_clean_linker_0, # of connection points: 2
#     Edge 107, Type (0, 1), BuildingBlock: UVAHIK_clean_linker_0, # of connection points: 2
#     Edge 108, Type (0, 1), BuildingBlock: UVAHIK_clean_linker_0, # of connection points: 2
#     Edge 109, Type (0, 1), BuildingBlock: UVAHIK_clean_linker_0, # of connection points: 2
#     Edge 110, Type (0, 1), BuildingBlock: UVAHIK_clean_linker_0, # of connection points: 2
#     Edge 111, Type (0, 1), BuildingBlock: UVAHIK_clean_linker_0, # of connection points: 2
#     Edge 112, Type (0, 1), BuildingBlock: UVAHIK_clean_linker_0, # of connection points: 2
#     Edge 113, Type (0, 1), BuildingBlock: UVAHIK_clean_linker_0, # of connection points: 2
#     Edge 114, Type (0, 1), BuildingBlock: UVAHIK_clean_linker_0, # of connection points: 2
#     Edge 115, Type (0, 1), BuildingBlock: UVAHIK_clean_linker_0, # of connection points: 2
#     Edge 116, Type (0, 1), BuildingBlock: UVAHIK_clean_linker_0, # of connection points: 2
#     Edge 117, Type (0, 1), BuildingBlock: UVAHIK_clean_linker_0, # of connection points: 2
#     Edge 118, Type (0, 1), BuildingBlock: UVAHIK_clean_linker_0, # of connection points: 2
#     Edge 119, Type (0, 1), BuildingBlock: UVAHIK_clean_linker_0, # of connection points: 2
#     Edge 120, Type (0, 1), BuildingBlock: UVAHIK_clean_linker_0, # of connection points: 2
#     Edge 121, Type (0, 1), BuildingBlock: UVAHIK_clean_linker_0, # of connection points: 2
#     Edge 122, Type (0, 1), BuildingBlock: UVAHIK_clean_linker_0, # of connection points: 2
#     Edge 123, Type (0, 1), BuildingBlock: UVAHIK_clean_linker_0, # of connection points: 2
#     Edge 124, Type (0, 1), BuildingBlock: UVAHIK_clean_linker_0, # of connection points: 2
#     Edge 125, Type (0, 1), BuildingBlock: UVAHIK_clean_linker_0, # of connection points: 2
#     Edge 126, Type (0, 1), BuildingBlock: UVAHIK_clean_linker_0, # of connection points: 2
#     Edge 127, Type (0, 1), BuildingBlock: UVAHIK_clean_linker_0, # of connection points: 2
#     Edge 128, Type (0, 1), BuildingBlock: UVAHIK_clean_linker_0, # of connection points: 2
#     Edge 129, Type (0, 1), BuildingBlock: UVAHIK_clean_linker_0, # of connection points: 2
#     Edge 130, Type (0, 1), BuildingBlock: UVAHIK_clean_linker_0, # of connection points: 2
#     Edge 131, Type (0, 1), BuildingBlock: UVAHIK_clean_linker_0, # of connection points: 2
#     Edge 132, Type (0, 1), BuildingBlock: UVAHIK_clean_linker_0, # of connection points: 2
#     Edge 133, Type (0, 1), BuildingBlock: UVAHIK_clean_linker_0, # of connection points: 2
#     Edge 134, Type (0, 1), BuildingBlock: UVAHIK_clean_linker_0, # of connection points: 2
#     Edge 135, Type (0, 1), BuildingBlock: UVAHIK_clean_linker_0, # of connection points: 2
#     Edge 136, Type (0, 1), BuildingBlock: UVAHIK_clean_linker_0, # of connection points: 2
#     Edge 137, Type (0, 1), BuildingBlock: UVAHIK_clean_linker_0, # of connection points: 2
#     Edge 138, Type (0, 1), BuildingBlock: UVAHIK_clean_linker_0, # of connection points: 2
#     Edge 139, Type (0, 1), BuildingBlock: UVAHIK_clean_linker_0, # of connection points: 2
#     Edge 140, Type (0, 1), BuildingBlock: UVAHIK_clean_linker_0, # of connection points: 2
#     Edge 141, Type (0, 1), BuildingBlock: UVAHIK_clean_linker_0, # of connection points: 2
#     Edge 142, Type (0, 1), BuildingBlock: UVAHIK_clean_linker_0, # of connection points: 2
#     Edge 143, Type (0, 1), BuildingBlock: UVAHIK_clean_linker_0, # of connection points: 2
#     Edge 144, Type (0, 1), BuildingBlock: UVAHIK_clean_linker_0, # of connection points: 2
#     Edge 145, Type (0, 1), BuildingBlock: UVAHIK_clean_linker_0, # of connection points: 2
#     Edge 146, Type (0, 1), BuildingBlock: UVAHIK_clean_linker_0, # of connection points: 2
#     Edge 147, Type (0, 1), BuildingBlock: UVAHIK_clean_linker_0, # of connection points: 2
#     Edge 148, Type (0, 1), BuildingBlock: UVAHIK_clean_linker_0, # of connection points: 2
#     Edge 149, Type (0, 1), BuildingBlock: UVAHIK_clean_linker_0, # of connection points: 2
#     Edge 150, Type (0, 1), BuildingBlock: UVAHIK_clean_linker_0, # of connection points: 2
#     Edge 151, Type (0, 1), BuildingBlock: UVAHIK_clean_linker_0, # of connection points: 2
#     Edge 152, Type (0, 1), BuildingBlock: UVAHIK_clean_linker_0, # of connection points: 2
#     Edge 153, Type (0, 1), BuildingBlock: UVAHIK_clean_linker_0, # of connection points: 2
#     Edge 154, Type (0, 1), BuildingBlock: UVAHIK_clean_linker_0, # of connection points: 2
#     Edge 155, Type (0, 1), BuildingBlock: UVAHIK_clean_linker_0, # of connection points: 2
#     Edge 156, Type (0, 1), BuildingBlock: UVAHIK_clean_linker_0, # of connection points: 2
#     Edge 157, Type (0, 1), BuildingBlock: UVAHIK_clean_linker_0, # of connection points: 2
#     Edge 158, Type (0, 1), BuildingBlock: UVAHIK_clean_linker_0, # of connection points: 2
#     Edge 159, Type (0, 1), BuildingBlock: UVAHIK_clean_linker_0, # of connection points: 2
#     Edge 160, Type (0, 1), BuildingBlock: UVAHIK_clean_linker_0, # of connection points: 2
#     Edge 161, Type (0, 1), BuildingBlock: UVAHIK_clean_linker_0, # of connection points: 2
#     Edge 162, Type (0, 1), BuildingBlock: UVAHIK_clean_linker_0, # of connection points: 2
#     Edge 163, Type (0, 1), BuildingBlock: UVAHIK_clean_linker_0, # of connection points: 2
#     Edge 164, Type (0, 1), BuildingBlock: UVAHIK_clean_linker_0, # of connection points: 2
#     Edge 165, Type (0, 1), BuildingBlock: UVAHIK_clean_linker_0, # of connection points: 2
#     Edge 166, Type (0, 1), BuildingBlock: UVAHIK_clean_linker_0, # of connection points: 2
#     Edge 167, Type (0, 1), BuildingBlock: UVAHIK_clean_linker_0, # of connection points: 2
#     Edge 168, Type (0, 1), BuildingBlock: UVAHIK_clean_linker_0, # of connection points: 2
#     Edge 169, Type (0, 1), BuildingBlock: UVAHIK_clean_linker_0, # of connection points: 2
#     Edge 170, Type (0, 1), BuildingBlock: UVAHIK_clean_linker_0, # of connection points: 2
#     Edge 171, Type (0, 1), BuildingBlock: UVAHIK_clean_linker_0, # of connection points: 2
#     Edge 172, Type (0, 1), BuildingBlock: UVAHIK_clean_linker_0, # of connection points: 2
#     Edge 173, Type (0, 1), BuildingBlock: UVAHIK_clean_linker_0, # of connection points: 2
#     Edge 174, Type (0, 1), BuildingBlock: UVAHIK_clean_linker_0, # of connection points: 2
#     Edge 175, Type (0, 1), BuildingBlock: UVAHIK_clean_linker_0, # of connection points: 2
#     Edge 176, Type (0, 1), BuildingBlock: UVAHIK_clean_linker_0, # of connection points: 2
#     Edge 177, Type (0, 1), BuildingBlock: UVAHIK_clean_linker_0, # of connection points: 2
#     Edge 178, Type (0, 1), BuildingBlock: UVAHIK_clean_linker_0, # of connection points: 2
#     Edge 179, Type (0, 1), BuildingBlock: UVAHIK_clean_linker_0, # of connection points: 2
#     Edge 180, Type (0, 1), BuildingBlock: UVAHIK_clean_linker_0, # of connection points: 2
#     Edge 181, Type (0, 1), BuildingBlock: UVAHIK_clean_linker_0, # of connection points: 2
#     Edge 182, Type (0, 1), BuildingBlock: UVAHIK_clean_linker_0, # of connection points: 2
#     Edge 183, Type (0, 1), BuildingBlock: UVAHIK_clean_linker_0, # of connection points: 2
#     Edge 184, Type (0, 1), BuildingBlock: UVAHIK_clean_linker_0, # of connection points: 2
#     Edge 185, Type (0, 1), BuildingBlock: UVAHIK_clean_linker_0, # of connection points: 2
#     Edge 186, Type (0, 1), BuildingBlock: UVAHIK_clean_linker_0, # of connection points: 2
#     Edge 187, Type (0, 1), BuildingBlock: UVAHIK_clean_linker_0, # of connection points: 2
#     Edge 188, Type (0, 1), BuildingBlock: UVAHIK_clean_linker_0, # of connection points: 2
#     Edge 189, Type (0, 1), BuildingBlock: UVAHIK_clean_linker_0, # of connection points: 2
#     Edge 190, Type (0, 1), BuildingBlock: UVAHIK_clean_linker_0, # of connection points: 2
#     Edge 191, Type (0, 1), BuildingBlock: UVAHIK_clean_linker_0, # of connection points: 2
#     Edge 192, Type (0, 1), BuildingBlock: UVAHIK_clean_linker_0, # of connection points: 2
#     Edge 193, Type (0, 1), BuildingBlock: UVAHIK_clean_linker_0, # of connection points: 2
#     Edge 194, Type (0, 1), BuildingBlock: UVAHIK_clean_linker_0, # of connection points: 2
#     Edge 195, Type (0, 1), BuildingBlock: UVAHIK_clean_linker_0, # of connection points: 2
#     Edge 196, Type (0, 1), BuildingBlock: UVAHIK_clean_linker_0, # of connection points: 2
#     Edge 197, Type (0, 1), BuildingBlock: UVAHIK_clean_linker_0, # of connection points: 2
#     Edge 198, Type (0, 1), BuildingBlock: UVAHIK_clean_linker_0, # of connection points: 2
#     Edge 199, Type (0, 1), BuildingBlock: UVAHIK_clean_linker_0, # of connection points: 2
#     Edge 200, Type (0, 1), BuildingBlock: UVAHIK_clean_linker_0, # of connection points: 2
#     Edge 201, Type (0, 1), BuildingBlock: UVAHIK_clean_linker_0, # of connection points: 2
#     Edge 202, Type (0, 1), BuildingBlock: UVAHIK_clean_linker_0, # of connection points: 2
#     Edge 203, Type (0, 1), BuildingBlock: UVAHIK_clean_linker_0, # of connection points: 2
#     Edge 204, Type (0, 1), BuildingBlock: UVAHIK_clean_linker_0, # of connection points: 2
#     Edge 205, Type (0, 1), BuildingBlock: UVAHIK_clean_linker_0, # of connection points: 2
#     Edge 206, Type (0, 1), BuildingBlock: UVAHIK_clean_linker_0, # of connection points: 2
#     Edge 207, Type (0, 1), BuildingBlock: UVAHIK_clean_linker_0, # of connection points: 2
#     Edge 208, Type (0, 1), BuildingBlock: UVAHIK_clean_linker_0, # of connection points: 2
#     Edge 209, Type (0, 1), BuildingBlock: UVAHIK_clean_linker_0, # of connection points: 2
#     Edge 210, Type (0, 1), BuildingBlock: UVAHIK_clean_linker_0, # of connection points: 2
#     Edge 211, Type (0, 1), BuildingBlock: UVAHIK_clean_linker_0, # of connection points: 2
#     Edge 212, Type (0, 1), BuildingBlock: UVAHIK_clean_linker_0, # of connection points: 2
#     Edge 213, Type (0, 1), BuildingBlock: UVAHIK_clean_linker_0, # of connection points: 2
#     Edge 214, Type (0, 1), BuildingBlock: UVAHIK_clean_linker_0, # of connection points: 2
#     Edge 215, Type (0, 1), BuildingBlock: UVAHIK_clean_linker_0, # of connection points: 2
#     Edge 216, Type (0, 1), BuildingBlock: UVAHIK_clean_linker_0, # of connection points: 2
#     Edge 217, Type (0, 1), BuildingBlock: UVAHIK_clean_linker_0, # of connection points: 2
#     Edge 218, Type (0, 1), BuildingBlock: UVAHIK_clean_linker_0, # of connection points: 2
#     Edge 219, Type (0, 1), BuildingBlock: UVAHIK_clean_linker_0, # of connection points: 2
#     Edge 220, Type (0, 1), BuildingBlock: UVAHIK_clean_linker_0, # of connection points: 2
#     Edge 221, Type (0, 1), BuildingBlock: UVAHIK_clean_linker_0, # of connection points: 2
#     Edge 222, Type (0, 1), BuildingBlock: UVAHIK_clean_linker_0, # of connection points: 2
#     Edge 223, Type (0, 1), BuildingBlock: UVAHIK_clean_linker_0, # of connection points: 2
#     Edge 224, Type (0, 1), BuildingBlock: UVAHIK_clean_linker_0, # of connection points: 2
#     Edge 225, Type (0, 1), BuildingBlock: UVAHIK_clean_linker_0, # of connection points: 2
#     Edge 226, Type (0, 1), BuildingBlock: UVAHIK_clean_linker_0, # of connection points: 2
#     Edge 227, Type (0, 1), BuildingBlock: UVAHIK_clean_linker_0, # of connection points: 2
#     Edge 228, Type (0, 1), BuildingBlock: UVAHIK_clean_linker_0, # of connection points: 2
#     Edge 229, Type (0, 1), BuildingBlock: UVAHIK_clean_linker_0, # of connection points: 2
#     Edge 230, Type (0, 1), BuildingBlock: UVAHIK_clean_linker_0, # of connection points: 2
#     Edge 231, Type (0, 1), BuildingBlock: UVAHIK_clean_linker_0, # of connection points: 2
#     Edge 232, Type (0, 1), BuildingBlock: UVAHIK_clean_linker_0, # of connection points: 2
#     Edge 233, Type (0, 1), BuildingBlock: UVAHIK_clean_linker_0, # of connection points: 2
#     Edge 234, Type (0, 1), BuildingBlock: UVAHIK_clean_linker_0, # of connection points: 2
#     Edge 235, Type (0, 1), BuildingBlock: UVAHIK_clean_linker_0, # of connection points: 2
#     Edge 236, Type (0, 1), BuildingBlock: UVAHIK_clean_linker_0, # of connection points: 2
#     Edge 237, Type (0, 1), BuildingBlock: UVAHIK_clean_linker_0, # of connection points: 2
#     Edge 238, Type (0, 1), BuildingBlock: UVAHIK_clean_linker_0, # of connection points: 2
#     Edge 239, Type (0, 1), BuildingBlock: UVAHIK_clean_linker_0, # of connection points: 2
# Relax obj value: 0.084
# Max RMSD: 0.078
# Mean RMSD: 0.067
data_MOF--net-bpr--node1-WUSLED_clean_sbu_0--node2-BELTOD_clean_linker_0--edge1-UVAHIK_clean_linker_0
_symmetry_space_group_name_H-M    P1
_symmetry_Int_Tables_number       1
_symmetry_cell_setting            triclinic
loop_
_symmetry_equiv_pos_as_xyz
'x, y, z'
_cell_length_a     142.10256
_cell_length_b     143.04034
_cell_length_c     142.96525
_cell_angle_alpha  90.459021
_cell_angle_beta   90.337928
_cell_angle_gamma 90.394592
loop_
_atom_site_label
_atom_site_type_symbol
_atom_site_fract_x
_atom_site_fract_y
_atom_site_fract_z
_atom_type_partial_charge
C0 C 0.99743 0.37241 0.26076 0.0
C1 C 0.99757 0.37034 0.27033 0.0
C2 C 0.98222 0.37753 0.27224 0.0
C3 C 0.99003 0.37285 0.27601 0.0
C4 C 0.98208 0.37952 0.26261 0.0
C5 C 0.98963 0.37697 0.25691 0.0
U6 U 0.02269 0.36499 0.25941 0.0
O7 O 0.03021 0.3556 0.24985 0.0
O8 O 0.03454 0.37034 0.25112 0.0
C9 C 0.03565 0.36234 0.2467 0.0
C10 C 0.00562 0.37025 0.25495 0.0
C11 C 0.03673 0.36292 0.23649 0.0
C12 C 0.03133 0.35977 0.22058 0.0
C13 C 0.02977 0.35962 0.23024 0.0
C14 C 0.04667 0.3668 0.22332 0.0
C15 C 0.03987 0.36325 0.21702 0.0
C16 C 0.04512 0.3666 0.23294 0.0
C17 C 0.03571 0.36014 0.28207 0.0
C18 C 0.05254 0.35732 0.28213 0.0
C19 C 0.04373 0.35631 0.29656 0.0
C20 C 0.03547 0.3585 0.29171 0.0
C21 C 0.05237 0.35575 0.29183 0.0
C22 C 0.04427 0.35948 0.27729 0.0
C23 C 0.02705 0.36268 0.27709 0.0
O24 O 0.0127 0.37613 0.25595 0.0
O25 O 0.00824 0.36144 0.25498 0.0
O26 O 0.0233 0.35603 0.27185 0.0
O27 O 0.02732 0.37084 0.27294 0.0
H28 H 0.0036 0.36692 0.27343 0.0
H29 H 0.99045 0.37136 0.28342 0.0
H30 H 0.97613 0.38305 0.25949 0.0
H31 H 0.98944 0.37865 0.24954 0.0
H32 H 0.02597 0.35694 0.21592 0.0
H33 H 0.0232 0.35678 0.23283 0.0
H34 H 0.05324 0.36972 0.22082 0.0
H35 H 0.05056 0.36923 0.23764 0.0
H36 H 0.05906 0.35683 0.27827 0.0
H37 H 0.04339 0.35524 0.30404 0.0
H38 H 0.02891 0.359 0.2955 0.0
H39 H 0.04456 0.36069 0.26982 0.0
C40 C 0.86869 0.74161 0.53185 0.0
C41 C 0.86826 0.73885 0.54124 0.0
C42 C 0.86753 0.72248 0.53645 0.0
C43 C 0.86773 0.72939 0.54351 0.0
C44 C 0.86784 0.72531 0.52703 0.0
C45 C 0.86843 0.7348 0.52477 0.0
U46 U 0.86621 0.7668 0.53926 0.0
O47 O 0.87538 0.77904 0.53727 0.0
O48 O 0.86087 0.77913 0.53186 0.0
C49 C 0.86899 0.78357 0.53244 0.0
C50 C 0.86939 0.75157 0.5295 0.0
C51 C 0.87236 0.78797 0.52384 0.0
C52 C 0.87818 0.78714 0.5079 0.0
C53 C 0.87458 0.7827 0.51583 0.0
C54 C 0.87728 0.80209 0.51593 0.0
C55 C 0.87968 0.79688 0.50792 0.0
C56 C 0.87367 0.79767 0.5238 0.0
C57 C 0.85822 0.77228 0.56388 0.0
C58 C 0.85737 0.78841 0.56919 0.0
C59 C 0.85334 0.77585 0.57974 0.0
C60 C 0.85523 0.7693 0.57269 0.0
C61 C 0.85441 0.78548 0.57808 0.0
C62 C 0.85926 0.78186 0.56215 0.0
C63 C 0.86038 0.76538 0.55657 0.0
O64 O 0.86134 0.75604 0.52921 0.0
O65 O 0.87604 0.75624 0.53399 0.0
O66 O 0.86929 0.76499 0.55422 0.0
O67 O 0.85465 0.76534 0.54932 0.0
H68 H 0.86841 0.74403 0.54681 0.0
H69 H 0.86765 0.72749 0.55083 0.0
H70 H 0.86757 0.7202 0.52141 0.0
H71 H 0.86869 0.73682 0.51748 0.0
H72 H 0.88 0.78294 0.50184 0.0
H73 H 0.87363 0.77518 0.51578 0.0
H74 H 0.8782 0.80962 0.51611 0.0
H75 H 0.87197 0.80184 0.52992 0.0
H76 H 0.85839 0.79576 0.56771 0.0
H77 H 0.85096 0.77336 0.58647 0.0
H78 H 0.85438 0.76192 0.57412 0.0
H79 H 0.86161 0.78427 0.55538 0.0
C80 C 0.48098 0.63312 0.72709 0.0
C81 C 0.47131 0.63358 0.72513 0.0
C82 C 0.47457 0.63521 0.70852 0.0
C83 C 0.46814 0.63459 0.71594 0.0
C84 C 0.48427 0.63485 0.71055 0.0
C85 C 0.48744 0.6338 0.71977 0.0
U86 U 0.47559 0.63219 0.75286 0.0
O87 O 0.48 0.62242 0.76379 0.0
O88 O 0.48342 0.63737 0.76523 0.0
C89 C 0.48446 0.62894 0.76865 0.0
C90 C 0.48429 0.63183 0.73675 0.0
C91 C 0.49396 0.62657 0.77196 0.0
C92 C 0.50897 0.61876 0.77003 0.0
C93 C 0.50023 0.62145 0.7664 0.0
C94 C 0.50534 0.62654 0.78468 0.0
C95 C 0.51159 0.62121 0.77925 0.0
C96 C 0.49662 0.62918 0.78106 0.0
C97 C 0.45063 0.63618 0.76102 0.0
C98 C 0.44566 0.63182 0.77661 0.0
C99 C 0.43584 0.64189 0.76719 0.0
C100 C 0.44241 0.64144 0.75996 0.0
C101 C 0.43737 0.63703 0.77557 0.0
C102 C 0.45225 0.63144 0.76942 0.0
C103 C 0.45751 0.63572 0.7534 0.0
O104 O 0.48394 0.63933 0.74211 0.0
O105 O 0.48105 0.62429 0.74085 0.0
O106 O 0.46092 0.62736 0.75167 0.0
O107 O 0.46399 0.64232 0.75354 0.0
H108 H 0.46622 0.63306 0.73072 0.0
H109 H 0.46062 0.6347 0.71463 0.0
H110 H 0.48943 0.63543 0.70503 0.0
H111 H 0.49494 0.6335 0.72118 0.0
H112 H 0.51367 0.61474 0.76565 0.0
H113 H 0.49832 0.61941 0.75932 0.0
H114 H 0.50707 0.62843 0.79184 0.0
H115 H 0.49185 0.63311 0.78546 0.0
H116 H 0.44709 0.62812 0.78304 0.0
H117 H 0.42949 0.64592 0.76618 0.0
H118 H 0.44108 0.64518 0.75352 0.0
H119 H 0.45862 0.62743 0.77042 0.0
C120 C 0.62607 0.26217 0.03811 0.0
C121 C 0.62584 0.26428 0.0477 0.0
C122 C 0.6279 0.28084 0.04441 0.0
C123 C 0.62668 0.27352 0.05081 0.0
C124 C 0.62809 0.27869 0.03478 0.0
C125 C 0.62719 0.26941 0.03166 0.0
U126 U 0.62887 0.23681 0.04386 0.0
O127 O 0.62017 0.22441 0.04082 0.0
O128 O 0.63481 0.22497 0.03595 0.0
C129 C 0.62676 0.22038 0.03582 0.0
C130 C 0.62551 0.25238 0.03495 0.0
C131 C 0.62378 0.21653 0.02669 0.0
C132 C 0.61366 0.21664 0.01293 0.0
C133 C 0.61674 0.22079 0.02131 0.0
C134 C 0.62484 0.20411 0.0151 0.0
C135 C 0.61761 0.20819 0.00978 0.0
C136 C 0.62787 0.20824 0.02348 0.0
C137 C 0.63685 0.23086 0.06849 0.0
C138 C 0.63926 0.21475 0.07311 0.0
C139 C 0.64101 0.22727 0.08454 0.0
C140 C 0.63885 0.23381 0.07766 0.0
C141 C 0.64122 0.21766 0.08235 0.0
C142 C 0.63707 0.2213 0.06624 0.0
C143 C 0.63443 0.23778 0.06137 0.0
O144 O 0.63364 0.24806 0.03455 0.0
O145 O 0.61887 0.24735 0.03891 0.0
O146 O 0.62554 0.23785 0.05883 0.0
O147 O 0.64025 0.23826 0.05427 0.0
H148 H 0.62503 0.25878 0.0528 0.0
H149 H 0.62631 0.27491 0.05826 0.0
H150 H 0.62912 0.28414 0.02967 0.0
H151 H 0.62746 0.26788 0.02423 0.0
H152 H 0.60804 0.21993 0.00904 0.0
H153 H 0.61351 0.22723 0.02366 0.0
H154 H 0.62818 0.19772 0.01279 0.0
H155 H 0.63335 0.20488 0.02752 0.0
H156 H 0.63925 0.2074 0.07123 0.0
H157 H 0.64261 0.22974 0.09155 0.0
H158 H 0.63872 0.24117 0.07949 0.0
H159 H 0.6355 0.21892 0.05918 0.0
C160 C 0.99908 0.62647 0.23909 0.0
C161 C 0.99989 0.62821 0.22948 0.0
C162 C 0.98396 0.62237 0.22686 0.0
C163 C 0.99239 0.6262 0.22343 0.0
C164 C 0.98315 0.62073 0.23652 0.0
C165 C 0.99067 0.62277 0.24259 0.0
U166 U 0.02496 0.63147 0.24183 0.0
O167 O 0.03298 0.64045 0.25159 0.0
O168 O 0.03564 0.62533 0.25111 0.0
C169 C 0.0373 0.63332 0.25543 0.0
C170 C 0.00719 0.62806 0.24532 0.0
C171 C 0.03731 0.63295 0.26573 0.0
C172 C 0.0309 0.63729 0.28088 0.0
C173 C 0.03046 0.63752 0.2711 0.0
C174 C 0.04485 0.62769 0.28002 0.0
C175 C 0.03812 0.63238 0.28544 0.0
C176 C 0.04446 0.62799 0.27027 0.0
C177 C 0.03942 0.63418 0.21966 0.0
C178 C 0.0561 0.63798 0.22018 0.0
C179 C 0.04854 0.63423 0.20537 0.0
C180 C 0.03997 0.63297 0.20995 0.0
C181 C 0.05671 0.63672 0.21043 0.0
C182 C 0.04753 0.6367 0.22476 0.0
C183 C 0.03041 0.63264 0.22437 0.0
O184 O 0.0136 0.62149 0.24495 0.0
O185 O 0.01079 0.63655 0.24517 0.0
O186 O 0.02719 0.6398 0.22916 0.0
O187 O 0.02969 0.62468 0.22884 0.0
H188 H 0.00638 0.63097 0.22665 0.0
H189 H 0.9933 0.6274 0.21602 0.0
H190 H 0.97673 0.61785 0.23938 0.0
H191 H 0.98996 0.62135 0.24998 0.0
H192 H 0.02558 0.64091 0.28489 0.0
H193 H 0.02482 0.64134 0.26777 0.0
H194 H 0.05057 0.62396 0.28332 0.0
H195 H 0.04982 0.62443 0.26625 0.0
H196 H 0.06229 0.63981 0.22428 0.0
H197 H 0.04874 0.63332 0.19784 0.0
H198 H 0.03377 0.63104 0.20592 0.0
H199 H 0.04722 0.6376 0.23229 0.0
C200 C 0.62577 0.73744 0.46335 0.0
C201 C 0.62562 0.73552 0.45372 0.0
C202 C 0.62767 0.71892 0.45671 0.0
C203 C 0.6265 0.72636 0.45044 0.0
C204 C 0.62779 0.72088 0.46638 0.0
C205 C 0.62685 0.73008 0.46967 0.0
U206 U 0.62815 0.76305 0.45826 0.0
O207 O 0.61926 0.7751 0.46155 0.0
O208 O 0.63392 0.77485 0.46654 0.0
C209 C 0.6258 0.7792 0.46672 0.0
C210 C 0.62509 0.74715 0.46672 0.0
C211 C 0.6228 0.78282 0.47589 0.0
C212 C 0.61208 0.78292 0.48909 0.0
C213 C 0.61522 0.77885 0.48074 0.0
C214 C 0.62429 0.79476 0.48797 0.0
C215 C 0.61651 0.79102 0.49273 0.0
C216 C 0.62738 0.79072 0.47962 0.0
C217 C 0.63584 0.77 0.43388 0.0
C218 C 0.63819 0.78631 0.42987 0.0
C219 C 0.63931 0.77429 0.41788 0.0
C220 C 0.6374 0.76745 0.42455 0.0
C221 C 0.6397 0.7838 0.42046 0.0
C222 C 0.63625 0.77946 0.43652 0.0
C223 C 0.63362 0.76277 0.44076 0.0
O224 O 0.63315 0.75168 0.46728 0.0
O225 O 0.61836 0.75207 0.46283 0.0
O226 O 0.62474 0.76232 0.44324 0.0
O227 O 0.63948 0.76226 0.44788 0.0
H228 H 0.62484 0.74112 0.44872 0.0
H229 H 0.62619 0.72511 0.44296 0.0
H230 H 0.62878 0.71534 0.4714 0.0
H231 H 0.62705 0.73146 0.47713 0.0
H232 H 0.60604 0.77989 0.49253 0.0
H233 H 0.61159 0.77272 0.47801 0.0
H234 H 0.62799 0.80087 0.49067 0.0
H235 H 0.63327 0.79386 0.476 0.0
H236 H 0.63832 0.79357 0.43205 0.0
H237 H 0.64056 0.77212 0.41072 0.0
H238 H 0.63712 0.76016 0.42241 0.0
H239 H 0.63501 0.78154 0.44371 0.0
C240 C 0.50055 0.37703 0.74378 0.0
C241 C 0.50146 0.37301 0.73484 0.0
C242 C 0.5159 0.38183 0.73232 0.0
C243 C 0.50909 0.37534 0.72919 0.0
C244 C 0.51495 0.3859 0.74125 0.0
C245 C 0.50734 0.38348 0.74695 0.0
U246 U 0.47481 0.37099 0.74501 0.0
O247 O 0.46688 0.36087 0.75348 0.0
O248 O 0.46348 0.37582 0.75419 0.0
C249 C 0.46188 0.36743 0.75754 0.0
C250 C 0.49228 0.37487 0.74957 0.0
C251 C 0.46104 0.36682 0.76776 0.0
C252 C 0.46573 0.3715 0.78349 0.0
C253 C 0.46715 0.37173 0.77381 0.0
C254 C 0.45229 0.36121 0.78113 0.0
C255 C 0.45819 0.36635 0.78725 0.0
C256 C 0.4537 0.36146 0.77149 0.0
C257 C 0.46132 0.36954 0.72183 0.0
C258 C 0.44671 0.36115 0.71853 0.0
C259 C 0.4509 0.37477 0.70944 0.0
C260 C 0.4592 0.37578 0.71462 0.0
C261 C 0.44456 0.36745 0.71134 0.0
C262 C 0.45499 0.36222 0.72378 0.0
C263 C 0.47005 0.37096 0.72727 0.0
O264 O 0.48564 0.38122 0.74945 0.0
O265 O 0.489 0.36627 0.7488 0.0
O266 O 0.47349 0.3636 0.73152 0.0
O267 O 0.47031 0.37858 0.73245 0.0
H268 H 0.49621 0.36813 0.73216 0.0
H269 H 0.50955 0.37221 0.72229 0.0
H270 H 0.52012 0.3909 0.74385 0.0
H271 H 0.50671 0.38672 0.7538 0.0
H272 H 0.47036 0.37559 0.788 0.0
H273 H 0.47288 0.37588 0.77104 0.0
H274 H 0.44653 0.35703 0.7838 0.0
H275 H 0.44896 0.35758 0.76691 0.0
H276 H 0.44191 0.35548 0.72017 0.0
H277 H 0.44949 0.37965 0.70386 0.0
H278 H 0.46399 0.38147 0.713 0.0
H279 H 0.45642 0.35735 0.72937 0.0
C280 C 0.87402 0.2342 0.99094 0.0
C281 C 0.87526 0.22462 0.98926 0.0
C282 C 0.88086 0.22253 0.00521 0.0
C283 C 0.87867 0.21884 0.99631 0.0
C284 C 0.87946 0.23213 0.00693 0.0
C285 C 0.87609 0.23793 0.99982 0.0
U286 U 0.86286 0.236 0.9672 0.0
O287 O 0.85223 0.24548 0.96139 0.0
O288 O 0.86621 0.2446 0.95499 0.0
C289 C 0.85804 0.24886 0.95513 0.0
C290 C 0.87054 0.24023 0.98341 0.0
C291 C 0.8585 0.25909 0.95451 0.0
C292 C 0.86417 0.27417 0.96018 0.0
C293 C 0.86348 0.26446 0.96116 0.0
C294 C 0.85478 0.27321 0.94599 0.0
C295 C 0.85987 0.27865 0.95255 0.0
C296 C 0.85411 0.26352 0.94698 0.0
C297 C 0.85663 0.21285 0.95499 0.0
C298 C 0.85273 0.21141 0.93847 0.0
C299 C 0.85132 0.19796 0.94859 0.0
C300 C 0.85433 0.20341 0.9562 0.0
C301 C 0.85058 0.20187 0.93962 0.0
C302 C 0.85572 0.21687 0.94612 0.0
C303 C 0.86026 0.21827 0.96301 0.0
O304 O 0.87535 0.23973 0.9756 0.0
O305 O 0.86138 0.23992 0.98204 0.0
O306 O 0.85404 0.22329 0.96754 0.0
O307 O 0.86823 0.22275 0.96159 0.0
H308 H 0.8736 0.2216 0.98246 0.0
H309 H 0.87952 0.21146 0.99482 0.0
H310 H 0.88113 0.23517 0.0137 0.0
H311 H 0.87515 0.24531 0.00124 0.0
H312 H 0.86805 0.27818 0.9654 0.0
H313 H 0.86689 0.26114 0.96704 0.0
H314 H 0.8515 0.2764 0.93997 0.0
H315 H 0.85027 0.25946 0.94176 0.0
H316 H 0.85215 0.21464 0.93167 0.0
H317 H 0.84984 0.19062 0.94969 0.0
H318 H 0.85502 0.2002 0.96301 0.0
H319 H 0.85743 0.22418 0.94508 0.0
C320 C 0.24344 0.02578 0.36234 0.0
C321 C 0.24147 0.03533 0.36346 0.0
C322 C 0.22473 0.03216 0.3615 0.0
C323 C 0.2322 0.03848 0.36309 0.0
C324 C 0.22674 0.02262 0.36024 0.0
C325 C 0.23604 0.01945 0.36068 0.0
U326 U 0.26937 0.0312 0.36093 0.0
O327 O 0.28134 0.0269 0.36962 0.0
O328 O 0.28114 0.0235 0.35461 0.0
C329 C 0.28549 0.02251 0.36268 0.0
C330 C 0.25321 0.02249 0.36275 0.0
C331 C 0.28893 0.0131 0.36478 0.0
C332 C 0.28667 0.99753 0.37111 0.0
C333 C 0.28303 0.00625 0.36864 0.0
C334 C 0.30206 0.0024 0.36569 0.0
C335 C 0.29626 0.99553 0.36972 0.0
C336 C 0.29842 0.01109 0.36325 0.0
C337 C 0.277 0.05641 0.35619 0.0
C338 C 0.28633 0.06936 0.36249 0.0
C339 C 0.28892 0.06397 0.34663 0.0
C340 C 0.28184 0.05723 0.34768 0.0
C341 C 0.29131 0.07006 0.35405 0.0
C342 C 0.27924 0.06265 0.36353 0.0
C343 C 0.2696 0.04919 0.35748 0.0
O344 O 0.25779 0.02283 0.3548 0.0
O345 O 0.25817 0.02566 0.36991 0.0
O346 O 0.26888 0.04576 0.36596 0.0
O347 O 0.26881 0.04275 0.35089 0.0
H348 H 0.24712 0.04034 0.36463 0.0
H349 H 0.23089 0.04589 0.36395 0.0
H350 H 0.22112 0.01759 0.35906 0.0
H351 H 0.23744 0.01207 0.35975 0.0
H352 H 0.282 0.99236 0.37411 0.0
H353 H 0.27566 0.00769 0.36985 0.0
H354 H 0.3095 0.00116 0.36466 0.0
H355 H 0.30308 0.01632 0.36032 0.0
H356 H 0.28805 0.07388 0.36838 0.0
H357 H 0.29249 0.06442 0.33998 0.0
H358 H 0.28021 0.05264 0.34182 0.0
H359 H 0.27556 0.06227 0.37014 0.0
C360 C 0.22886 0.01034 0.63092 0.0
C361 C 0.21925 0.01203 0.62953 0.0
C362 C 0.21641 0.99543 0.62675 0.0
C363 C 0.21308 0.00465 0.62744 0.0
C364 C 0.22609 0.9938 0.62804 0.0
C365 C 0.23227 0.0012 0.63012 0.0
U366 U 0.23194 0.03554 0.63799 0.0
O367 O 0.24124 0.04235 0.6484 0.0
O368 O 0.24197 0.04637 0.63362 0.0
C369 C 0.24571 0.04722 0.64203 0.0
C370 C 0.23524 0.01808 0.63345 0.0
C371 C 0.25602 0.04684 0.64247 0.0
C372 C 0.27088 0.04009 0.63763 0.0
C373 C 0.26103 0.04006 0.63742 0.0
C374 C 0.27077 0.05347 0.64813 0.0
C375 C 0.27585 0.04684 0.64294 0.0
C376 C 0.26094 0.05347 0.64788 0.0
C377 C 0.2095 0.05026 0.6403 0.0
C378 C 0.20043 0.06012 0.65083 0.0
C379 C 0.20271 0.06481 0.63477 0.0
C380 C 0.20797 0.05675 0.63312 0.0
C381 C 0.19881 0.06655 0.64362 0.0
C382 C 0.20569 0.05206 0.64918 0.0
C383 C 0.21449 0.04139 0.63838 0.0
O384 O 0.23554 0.02494 0.6274 0.0
O385 O 0.23455 0.02101 0.64216 0.0
O386 O 0.21863 0.0374 0.64556 0.0
O387 O 0.21954 0.04106 0.63071 0.0
H388 H 0.2165 0.01905 0.63013 0.0
H389 H 0.20571 0.00618 0.62636 0.0
H390 H 0.22887 0.98677 0.62766 0.0
H391 H 0.23967 0.99979 0.63122 0.0
H392 H 0.2746 0.03483 0.63363 0.0
H393 H 0.25734 0.03483 0.63326 0.0
H394 H 0.27439 0.05882 0.65221 0.0
H395 H 0.25717 0.05874 0.65182 0.0
H396 H 0.19758 0.06129 0.65775 0.0
H397 H 0.20145 0.06951 0.62901 0.0
H398 H 0.21067 0.05553 0.62615 0.0
H399 H 0.20665 0.04716 0.65484 0.0
C400 C 0.22832 0.99123 0.86969 0.0
C401 C 0.2187 0.98962 0.87118 0.0
C402 C 0.21622 0.00627 0.87369 0.0
C403 C 0.21271 0.99705 0.87318 0.0
C404 C 0.2259 0.00784 0.87229 0.0
C405 C 0.2319 0.00037 0.87029 0.0
U406 U 0.23068 0.96582 0.86348 0.0
O407 O 0.23943 0.95849 0.85317 0.0
O408 O 0.24065 0.95508 0.86807 0.0
C409 C 0.24399 0.9538 0.85961 0.0
C410 C 0.23449 0.9834 0.8673 0.0
C411 C 0.25429 0.95396 0.85891 0.0
C412 C 0.26921 0.96234 0.85889 0.0
C413 C 0.25937 0.96239 0.85936 0.0
C414 C 0.26891 0.94544 0.8575 0.0
C415 C 0.2741 0.95385 0.85798 0.0
C416 C 0.2591 0.94551 0.85795 0.0
C417 C 0.20783 0.95126 0.86226 0.0
C418 C 0.20018 0.93984 0.85197 0.0
C419 C 0.19906 0.93819 0.86876 0.0
C420 C 0.20448 0.94629 0.87001 0.0
C421 C 0.19678 0.93492 0.85973 0.0
C422 C 0.20564 0.94793 0.85321 0.0
C423 C 0.21309 0.96013 0.86373 0.0
O424 O 0.23487 0.97676 0.8736 0.0
O425 O 0.23348 0.98016 0.85872 0.0
O426 O 0.21705 0.96387 0.85634 0.0
O427 O 0.21844 0.96062 0.87126 0.0
H428 H 0.21581 0.98259 0.87074 0.0
H429 H 0.20533 0.99558 0.87436 0.0
H430 H 0.22881 0.01485 0.87253 0.0
H431 H 0.23931 0.00173 0.86912 0.0
H432 H 0.27298 0.96894 0.8592 0.0
H433 H 0.25574 0.96899 0.86011 0.0
H434 H 0.27243 0.93877 0.85698 0.0
H435 H 0.25526 0.93894 0.85765 0.0
H436 H 0.19858 0.93746 0.84492 0.0
H437 H 0.19641 0.93464 0.87489 0.0
H438 H 0.20591 0.94875 0.87707 0.0
H439 H 0.20804 0.95163 0.84708 0.0
C440 C 0.24301 0.97697 0.13258 0.0
C441 C 0.24061 0.96752 0.13122 0.0
C442 C 0.22411 0.97104 0.13389 0.0
C443 C 0.23124 0.96459 0.13183 0.0
C444 C 0.22655 0.9805 0.1353 0.0
C445 C 0.23594 0.98344 0.13462 0.0
U446 U 0.26882 0.97107 0.13401 0.0
O447 O 0.28083 0.97526 0.12537 0.0
O448 O 0.28083 0.97863 0.14039 0.0
C449 C 0.28512 0.97962 0.13233 0.0
C450 C 0.2529 0.98002 0.13213 0.0
C451 C 0.28863 0.98906 0.13027 0.0
C452 C 0.28647 0.00459 0.12388 0.0
C453 C 0.28279 0.99583 0.12626 0.0
C454 C 0.30178 0.99993 0.12971 0.0
C455 C 0.29603 0.00672 0.12552 0.0
C456 C 0.2981 0.99119 0.13205 0.0
C457 C 0.27593 0.94583 0.13884 0.0
C458 C 0.28528 0.93308 0.13252 0.0
C459 C 0.28758 0.93808 0.14859 0.0
C460 C 0.28058 0.94481 0.14748 0.0
C461 C 0.29008 0.93219 0.14109 0.0
C462 C 0.27826 0.93978 0.13142 0.0
C463 C 0.26866 0.95309 0.1375 0.0
O464 O 0.25755 0.97962 0.14009 0.0
O465 O 0.25767 0.97671 0.125 0.0
O466 O 0.26793 0.9565 0.12902 0.0
O467 O 0.26806 0.95955 0.14407 0.0
H468 H 0.246 0.9624 0.12976 0.0
H469 H 0.22961 0.95724 0.13087 0.0
H470 H 0.2212 0.98563 0.13685 0.0
H471 H 0.23768 0.99075 0.13573 0.0
H472 H 0.28185 0.00969 0.12075 0.0
H473 H 0.27543 0.99429 0.12486 0.0
H474 H 0.30919 0.00128 0.13095 0.0
H475 H 0.3027 0.98602 0.13512 0.0
H476 H 0.28708 0.92872 0.12657 0.0
H477 H 0.29102 0.93747 0.15534 0.0
H478 H 0.27886 0.94923 0.1534 0.0
H479 H 0.27474 0.94031 0.12471 0.0
C480 C 0.36965 0.24096 0.0323 0.0
C481 C 0.36925 0.23859 0.0418 0.0
C482 C 0.36883 0.22203 0.03767 0.0
C483 C 0.36888 0.22922 0.04446 0.0
C484 C 0.36918 0.22447 0.02815 0.0
C485 C 0.36959 0.23386 0.0255 0.0
U486 U 0.36713 0.26645 0.03871 0.0
O487 O 0.37573 0.27876 0.03529 0.0
O488 O 0.36085 0.2782 0.03107 0.0
C489 C 0.36888 0.28278 0.03064 0.0
C490 C 0.37002 0.25081 0.02952 0.0
C491 C 0.37141 0.28641 0.02141 0.0
C492 C 0.3781 0.28439 0.00593 0.0
C493 C 0.37539 0.28064 0.01453 0.0
C494 C 0.37271 0.29964 0.01099 0.0
C495 C 0.37683 0.29396 0.00408 0.0
C496 C 0.37003 0.2959 0.01956 0.0
C497 C 0.36046 0.27303 0.06351 0.0
C498 C 0.35852 0.28933 0.06792 0.0
C499 C 0.3569 0.27721 0.07958 0.0
C500 C 0.35873 0.27041 0.07276 0.0
C501 C 0.35679 0.28676 0.07724 0.0
C502 C 0.36035 0.28252 0.06112 0.0
C503 C 0.36247 0.26586 0.05642 0.0
O504 O 0.36188 0.25512 0.02953 0.0
O505 O 0.37683 0.25577 0.03342 0.0
O506 O 0.37123 0.26566 0.05354 0.0
O507 O 0.3563 0.26521 0.04956 0.0
H508 H 0.36927 0.24399 0.04715 0.0
H509 H 0.36877 0.22761 0.05184 0.0
H510 H 0.36902 0.21913 0.02274 0.0
H511 H 0.36982 0.23558 0.01814 0.0
H512 H 0.38118 0.27981 0.00073 0.0
H513 H 0.37647 0.27327 0.01585 0.0
H514 H 0.37177 0.30706 0.00986 0.0
H515 H 0.36699 0.30045 0.02482 0.0
H516 H 0.35837 0.29659 0.06587 0.0
H517 H 0.35572 0.27501 0.0867 0.0
H518 H 0.35883 0.26311 0.07472 0.0
H519 H 0.36168 0.28465 0.05399 0.0
C520 C 0.9996 0.8778 0.24266 0.0
C521 C 0.00041 0.87331 0.23395 0.0
C522 C 0.01451 0.88242 0.23053 0.0
C523 C 0.00782 0.87555 0.22797 0.0
C524 C 0.0137 0.88686 0.23931 0.0
C525 C 0.00631 0.88456 0.24532 0.0
U526 U 0.97406 0.87099 0.24492 0.0
O527 O 0.96652 0.86194 0.25475 0.0
O528 O 0.96274 0.87677 0.25364 0.0
C529 C 0.96147 0.86886 0.2581 0.0
C530 C 0.99147 0.87592 0.24872 0.0
C531 C 0.96079 0.86961 0.26835 0.0
C532 C 0.9666 0.86647 0.28405 0.0
C533 C 0.96775 0.86604 0.27433 0.0
C534 C 0.95166 0.87424 0.2819 0.0
C535 C 0.95852 0.87056 0.28793 0.0
C536 C 0.95278 0.87375 0.27222 0.0
C537 C 0.96012 0.8662 0.2223 0.0
C538 C 0.95079 0.85513 0.21306 0.0
C539 C 0.94504 0.87081 0.2157 0.0
C540 C 0.95309 0.87294 0.22096 0.0
C541 C 0.94381 0.8619 0.21163 0.0
C542 C 0.95887 0.85727 0.21831 0.0
C543 C 0.96894 0.86855 0.22741 0.0
O544 O 0.98459 0.88197 0.24796 0.0
O545 O 0.98851 0.86718 0.24888 0.0
O546 O 0.97262 0.86186 0.2325 0.0
O547 O 0.96929 0.87678 0.23156 0.0
H548 H 0.99526 0.86813 0.2317 0.0
H549 H 0.0083 0.87187 0.22134 0.0
H550 H 0.01863 0.89227 0.24146 0.0
H551 H 0.00573 0.88818 0.25198 0.0
H552 H 0.97205 0.86366 0.28853 0.0
H553 H 0.97403 0.86285 0.27151 0.0
H554 H 0.94529 0.87731 0.28466 0.0
H555 H 0.94731 0.8765 0.26772 0.0
H556 H 0.95003 0.84817 0.2101 0.0
H557 H 0.9399 0.87626 0.2146 0.0
H558 H 0.95385 0.87993 0.22384 0.0
H559 H 0.9642 0.85195 0.21915 0.0
C560 C 0.12537 0.76319 0.53781 0.0
C561 C 0.12441 0.76551 0.5473 0.0
C562 C 0.12727 0.78193 0.54387 0.0
C563 C 0.12529 0.77478 0.55029 0.0
C564 C 0.12817 0.77957 0.53434 0.0
C565 C 0.12723 0.77026 0.53133 0.0
U566 U 0.12718 0.73788 0.54418 0.0
O567 O 0.11851 0.72559 0.54056 0.0
O568 O 0.13353 0.72583 0.53702 0.0
C569 C 0.12546 0.72135 0.53625 0.0
C570 C 0.12481 0.75335 0.5348 0.0
C571 C 0.12324 0.71757 0.52693 0.0
C572 C 0.11713 0.71934 0.51114 0.0
C573 C 0.11919 0.72315 0.51997 0.0
C574 C 0.12323 0.70439 0.51615 0.0
C575 C 0.11917 0.70992 0.50913 0.0
C576 C 0.12524 0.70819 0.52497 0.0
C577 C 0.13343 0.73206 0.56928 0.0
C578 C 0.1341 0.71592 0.57433 0.0
C579 C 0.13867 0.72841 0.58501 0.0
C580 C 0.13669 0.73499 0.57809 0.0
C581 C 0.1374 0.7188 0.5832 0.0
C582 C 0.13214 0.72249 0.56742 0.0
C583 C 0.13153 0.73899 0.56202 0.0
O584 O 0.13285 0.74887 0.53506 0.0
O585 O 0.1178 0.74854 0.53836 0.0
O586 O 0.12282 0.73913 0.55887 0.0
O587 O 0.13782 0.73938 0.55533 0.0
H588 H 0.12303 0.76014 0.55242 0.0
H589 H 0.12436 0.77634 0.55765 0.0
H590 H 0.12979 0.78489 0.52923 0.0
H591 H 0.12807 0.76857 0.52399 0.0
H592 H 0.11409 0.72379 0.50584 0.0
H593 H 0.11764 0.73043 0.52138 0.0
H594 H 0.12477 0.69709 0.51486 0.0
H595 H 0.12835 0.70379 0.53028 0.0
H596 H 0.13293 0.70858 0.57275 0.0
H597 H 0.14132 0.73086 0.59171 0.0
H598 H 0.13777 0.74235 0.57961 0.0
H599 H 0.12963 0.72013 0.56063 0.0
C600 C 0.99007 0.6315 0.74478 0.0
C601 C 0.98058 0.63376 0.74341 0.0
C602 C 0.97885 0.63691 0.76007 0.0
C603 C 0.97503 0.63647 0.75097 0.0
C604 C 0.98841 0.63471 0.76138 0.0
C605 C 0.99397 0.63202 0.75379 0.0
U606 U 0.99112 0.62306 0.71983 0.0
O607 O 0.00061 0.62653 0.70828 0.0
O608 O 0.99946 0.61203 0.71308 0.0
C609 C 0.00386 0.61797 0.70763 0.0
C610 C 0.99578 0.62835 0.73684 0.0
C611 C 0.01414 0.61715 0.70746 0.0
C612 C 0.02957 0.62037 0.71419 0.0
C613 C 0.01976 0.62099 0.71464 0.0
C614 C 0.0282 0.61192 0.69947 0.0
C615 C 0.0339 0.61586 0.70657 0.0
C616 C 0.0184 0.61257 0.69992 0.0
C617 C 0.96793 0.62066 0.70646 0.0
C618 C 0.96709 0.61858 0.68959 0.0
C619 C 0.95303 0.61679 0.69896 0.0
C620 C 0.95828 0.61875 0.70704 0.0
C621 C 0.95737 0.61675 0.69014 0.0
C622 C 0.97234 0.62048 0.6977 0.0
C623 C 0.97328 0.62293 0.71501 0.0
O624 O 0.99451 0.61954 0.73442 0.0
O625 O 0.9959 0.63403 0.72966 0.0
O626 O 0.97867 0.63041 0.71456 0.0
O627 O 0.97741 0.61582 0.71906 0.0
H628 H 0.97744 0.63337 0.73649 0.0
H629 H 0.96774 0.63825 0.74968 0.0
H630 H 0.99154 0.63486 0.7683 0.0
H631 H 0.00128 0.63024 0.75496 0.0
H632 H 0.03377 0.62338 0.71981 0.0
H633 H 0.01656 0.62451 0.72054 0.0
H634 H 0.0313 0.60851 0.69345 0.0
H635 H 0.01416 0.60959 0.69431 0.0
H636 H 0.97064 0.61849 0.68291 0.0
H637 H 0.94555 0.6155 0.69959 0.0
H638 H 0.95478 0.61885 0.71376 0.0
H639 H 0.97982 0.62188 0.69713 0.0
C640 C 0.11959 0.24489 0.47417 0.0
C641 C 0.11534 0.2461 0.46537 0.0
C642 C 0.12492 0.25997 0.46272 0.0
C643 C 0.11793 0.2536 0.45973 0.0
C644 C 0.12914 0.25878 0.47155 0.0
C645 C 0.12647 0.25131 0.47724 0.0
U646 U 0.11339 0.21925 0.47561 0.0
O647 O 0.11821 0.20824 0.48509 0.0
O648 O 0.10318 0.21163 0.48425 0.0
C649 C 0.10976 0.20688 0.48856 0.0
C650 C 0.11731 0.23669 0.47991 0.0
C651 C 0.10915 0.20681 0.49881 0.0
C652 C 0.11328 0.21322 0.5141 0.0
C653 C 0.11382 0.21357 0.50434 0.0
C654 C 0.10323 0.1995 0.51287 0.0
C655 C 0.10799 0.20617 0.51847 0.0
C656 C 0.10382 0.19983 0.50314 0.0
C657 C 0.11167 0.20544 0.4527 0.0
C658 C 0.11125 0.18847 0.45195 0.0
C659 C 0.10856 0.1975 0.43793 0.0
C660 C 0.10969 0.20576 0.44311 0.0
C661 C 0.10943 0.18874 0.44227 0.0
C662 C 0.11234 0.19675 0.45713 0.0
C663 C 0.11323 0.2142 0.45792 0.0
O664 O 0.10865 0.23344 0.47908 0.0
O665 O 0.12369 0.23008 0.47986 0.0
O666 O 0.12091 0.21451 0.46309 0.0
O667 O 0.10583 0.21761 0.46219 0.0
H668 H 0.11012 0.24115 0.46277 0.0
H669 H 0.11466 0.25426 0.45291 0.0
H670 H 0.13451 0.26361 0.47404 0.0
H671 H 0.12987 0.25046 0.48398 0.0
H672 H 0.11695 0.2185 0.51823 0.0
H673 H 0.11792 0.21907 0.5011 0.0
H674 H 0.09921 0.19391 0.51602 0.0
H675 H 0.10017 0.19456 0.49897 0.0
H676 H 0.11206 0.18186 0.4555 0.0
H677 H 0.10699 0.19798 0.43053 0.0
H678 H 0.10909 0.21242 0.43959 0.0
H679 H 0.11385 0.19637 0.46456 0.0
C680 C 0.47691 0.37921 0.22845 0.0
C681 C 0.47475 0.38183 0.21925 0.0
C682 C 0.45805 0.38205 0.22298 0.0
C683 C 0.46541 0.38323 0.21654 0.0
C684 C 0.46029 0.37954 0.23224 0.0
C685 C 0.46965 0.37813 0.23494 0.0
U686 U 0.50273 0.37931 0.22241 0.0
O687 O 0.51531 0.38319 0.2306 0.0
O688 O 0.51378 0.36893 0.22498 0.0
C689 C 0.51877 0.3747 0.23025 0.0
C690 C 0.4867 0.37743 0.2312 0.0
C691 C 0.52209 0.37092 0.23918 0.0
C692 C 0.51951 0.36662 0.25537 0.0
C693 C 0.51608 0.37005 0.24687 0.0
C694 C 0.53494 0.36478 0.24848 0.0
C695 C 0.529 0.36397 0.25627 0.0
C696 C 0.53151 0.36822 0.24002 0.0
C697 C 0.51064 0.38752 0.1987 0.0
C698 C 0.52699 0.3857 0.1943 0.0
C699 C 0.51638 0.39439 0.18434 0.0
C700 C 0.50903 0.3927 0.19059 0.0
C701 C 0.52546 0.39091 0.18612 0.0
C702 C 0.51966 0.38405 0.20054 0.0
C703 C 0.50296 0.38581 0.20531 0.0
O704 O 0.49074 0.37055 0.22662 0.0
O705 O 0.49208 0.38491 0.23202 0.0
O706 O 0.50307 0.39123 0.21278 0.0
O707 O 0.5014 0.37697 0.20724 0.0
H708 H 0.48029 0.38268 0.21415 0.0
H709 H 0.46394 0.38503 0.20934 0.0
H710 H 0.45481 0.3787 0.2374 0.0
H711 H 0.47121 0.37613 0.24207 0.0
H712 H 0.51474 0.366 0.26121 0.0
H713 H 0.50876 0.37208 0.24631 0.0
H714 H 0.54231 0.36294 0.24896 0.0
H715 H 0.53625 0.36887 0.23414 0.0
H716 H 0.53383 0.38278 0.19582 0.0
H717 H 0.51499 0.39852 0.17817 0.0
H718 H 0.50211 0.39547 0.18911 0.0
H719 H 0.52102 0.38004 0.2068 0.0
C720 C 0.37743 0.75894 0.97311 0.0
C721 C 0.3764 0.76023 0.96344 0.0
C722 C 0.37277 0.74369 0.9613 0.0
C723 C 0.37408 0.75269 0.95759 0.0
C724 C 0.37383 0.74244 0.97101 0.0
C725 C 0.37614 0.75001 0.97686 0.0
U726 U 0.38462 0.78419 0.97546 0.0
O727 O 0.3796 0.79542 0.98475 0.0
O728 O 0.39452 0.79149 0.98492 0.0
C729 C 0.38783 0.79643 0.98888 0.0
C730 C 0.37981 0.76691 0.97922 0.0
C731 C 0.38772 0.79676 0.99922 0.0
C732 C 0.39382 0.79207 0.01442 0.0
C733 C 0.39371 0.79118 0.00466 0.0
C734 C 0.38181 0.80396 0.01346 0.0
C735 C 0.3879 0.79851 0.01892 0.0
C736 C 0.38175 0.80311 0.00373 0.0
C737 C 0.38808 0.79784 0.95288 0.0
C738 C 0.38954 0.81476 0.95244 0.0
C739 C 0.39185 0.80558 0.93833 0.0
C740 C 0.39017 0.79739 0.94333 0.0
C741 C 0.39145 0.81437 0.9428 0.0
C742 C 0.38788 0.80655 0.95745 0.0
C743 C 0.38593 0.78918 0.9579 0.0
O744 O 0.38862 0.76975 0.97881 0.0
O745 O 0.37376 0.77381 0.97897 0.0
O746 O 0.37798 0.78918 0.96255 0.0
O747 O 0.39296 0.78555 0.96261 0.0
H748 H 0.37737 0.76709 0.96043 0.0
H749 H 0.37319 0.75393 0.95018 0.0
H750 H 0.373 0.73559 0.97408 0.0
H751 H 0.37693 0.7489 0.98431 0.0
H752 H 0.39854 0.78774 0.01845 0.0
H753 H 0.3984 0.7862 0.0014 0.0
H754 H 0.37726 0.80908 0.01671 0.0
H755 H 0.37713 0.80755 0.99969 0.0
H756 H 0.38909 0.82141 0.95608 0.0
H757 H 0.39347 0.80502 0.93095 0.0
H758 H 0.3904 0.79071 0.93972 0.0
H759 H 0.3863 0.807 0.96484 0.0
C760 C 0.01643 0.37962 0.7748 0.0
C761 C 0.01892 0.38156 0.78412 0.0
C762 C 0.03547 0.38229 0.77987 0.0
C763 C 0.02835 0.38287 0.78664 0.0
C764 C 0.03291 0.38044 0.7705 0.0
C765 C 0.02346 0.37911 0.76799 0.0
U766 U 0.99084 0.37943 0.78165 0.0
O767 O 0.97811 0.38401 0.77422 0.0
O768 O 0.97944 0.36938 0.77854 0.0
C769 C 0.97448 0.37553 0.77388 0.0
C770 C 0.00653 0.37805 0.7722 0.0
C771 C 0.97102 0.37242 0.76468 0.0
C772 C 0.97357 0.3689 0.74824 0.0
C773 C 0.97707 0.37176 0.75699 0.0
C774 C 0.95799 0.36723 0.75486 0.0
C775 C 0.96398 0.36662 0.74708 0.0
C776 C 0.96149 0.37011 0.76357 0.0
C777 C 0.98435 0.38621 0.80648 0.0
C778 C 0.968 0.38639 0.81132 0.0
C779 C 0.98038 0.39018 0.8225 0.0
C780 C 0.98712 0.38881 0.81555 0.0
C781 C 0.97074 0.38898 0.82047 0.0
C782 C 0.97476 0.38501 0.80439 0.0
C783 C 0.99148 0.38474 0.79925 0.0
O784 O 0.00248 0.37091 0.77633 0.0
O785 O 0.00129 0.38558 0.77216 0.0
O786 O 0.99121 0.39064 0.79226 0.0
O787 O 0.99254 0.37601 0.79653 0.0
H788 H 0.01356 0.38197 0.78947 0.0
H789 H 0.03007 0.38415 0.79393 0.0
H790 H 0.03821 0.38007 0.76509 0.0
H791 H 0.02165 0.37765 0.76075 0.0
H792 H 0.97838 0.3684 0.74241 0.0
H793 H 0.98448 0.37348 0.75775 0.0
H794 H 0.95055 0.36567 0.75417 0.0
H795 H 0.95673 0.3706 0.76944 0.0
H796 H 0.96065 0.3853 0.80956 0.0
H797 H 0.9827 0.39228 0.82944 0.0
H798 H 0.9945 0.38979 0.81726 0.0
H799 H 0.97251 0.38298 0.7974 0.0
C800 C 0.37553 0.24089 0.52459 0.0
C801 C 0.37468 0.2395 0.53424 0.0
C802 C 0.37086 0.25592 0.53653 0.0
C803 C 0.37235 0.24693 0.54016 0.0
C804 C 0.37169 0.25726 0.52682 0.0
C805 C 0.37401 0.2498 0.52089 0.0
U806 U 0.38322 0.21594 0.52228 0.0
O807 O 0.37849 0.20455 0.51291 0.0
O808 O 0.39332 0.20899 0.513 0.0
C809 C 0.38676 0.20384 0.5089 0.0
C810 C 0.37805 0.23304 0.51845 0.0
C811 C 0.38668 0.20364 0.49857 0.0
C812 C 0.39242 0.20903 0.48352 0.0
C813 C 0.39232 0.20973 0.49329 0.0
C814 C 0.38111 0.19631 0.48415 0.0
C815 C 0.38684 0.20229 0.47885 0.0
C816 C 0.38107 0.19696 0.4939 0.0
C817 C 0.38694 0.20252 0.54497 0.0
C818 C 0.38944 0.18575 0.54539 0.0
C819 C 0.39037 0.19492 0.5597 0.0
C820 C 0.38845 0.20301 0.55465 0.0
C821 C 0.3908 0.18618 0.55515 0.0
C822 C 0.38753 0.19386 0.54034 0.0
C823 C 0.38458 0.21105 0.53988 0.0
O824 O 0.38691 0.23051 0.51894 0.0
O825 O 0.37214 0.22593 0.51861 0.0
O826 O 0.37666 0.21071 0.53509 0.0
O827 O 0.39153 0.21494 0.53527 0.0
H828 H 0.37582 0.23265 0.53721 0.0
H829 H 0.37164 0.24561 0.54757 0.0
H830 H 0.3707 0.26412 0.52381 0.0
H831 H 0.37466 0.25098 0.51345 0.0
H832 H 0.39686 0.21377 0.47961 0.0
H833 H 0.39671 0.21498 0.49668 0.0
H834 H 0.37684 0.19095 0.48077 0.0
H835 H 0.37672 0.19214 0.49782 0.0
H836 H 0.38963 0.17912 0.54169 0.0
H837 H 0.39155 0.19553 0.56717 0.0
H838 H 0.38807 0.20966 0.55831 0.0
H839 H 0.38639 0.19337 0.53285 0.0
C840 C 0.47723 0.62076 0.26898 0.0
C841 C 0.4748 0.61374 0.27535 0.0
C842 C 0.45827 0.6179 0.27399 0.0
C843 C 0.4654 0.61228 0.27779 0.0
C844 C 0.46073 0.62488 0.26755 0.0
C845 C 0.47014 0.62628 0.26506 0.0
U846 U 0.50285 0.6205 0.27627 0.0
O847 O 0.51572 0.61701 0.26862 0.0
O848 O 0.51404 0.63109 0.27463 0.0
C849 C 0.51918 0.62554 0.26941 0.0
C850 C 0.48715 0.62274 0.26685 0.0
C851 C 0.52301 0.62963 0.26082 0.0
C852 C 0.52321 0.6312 0.24391 0.0
C853 C 0.51895 0.62781 0.25201 0.0
C854 C 0.53543 0.63856 0.25337 0.0
C855 C 0.5316 0.63649 0.24448 0.0
C856 C 0.53118 0.63514 0.26144 0.0
C857 C 0.50997 0.61129 0.29984 0.0
C858 C 0.52626 0.61295 0.3048 0.0
C859 C 0.51529 0.60408 0.31423 0.0
C860 C 0.5081 0.60594 0.30779 0.0
C861 C 0.52446 0.60757 0.31281 0.0
C862 C 0.51909 0.61476 0.29837 0.0
C863 C 0.50247 0.61323 0.29304 0.0
O864 O 0.49103 0.6294 0.27199 0.0
O865 O 0.49257 0.61539 0.26583 0.0
O866 O 0.50274 0.60815 0.28535 0.0
O867 O 0.50102 0.62214 0.29145 0.0
H868 H 0.48019 0.60949 0.27856 0.0
H869 H 0.46375 0.60695 0.28287 0.0
H870 H 0.45538 0.62927 0.26448 0.0
H871 H 0.4719 0.63177 0.26018 0.0
H872 H 0.52012 0.62942 0.23718 0.0
H873 H 0.51261 0.6236 0.25139 0.0
H874 H 0.54177 0.64276 0.25408 0.0
H875 H 0.53439 0.63665 0.26819 0.0
H876 H 0.53318 0.61588 0.30356 0.0
H877 H 0.5137 0.59984 0.32027 0.0
H878 H 0.5011 0.60317 0.30899 0.0
H879 H 0.52064 0.61891 0.29226 0.0
C880 C 0.11505 0.77454 0.99409 0.0
C881 C 0.11838 0.78344 0.99161 0.0
C882 C 0.11407 0.78047 0.97535 0.0
C883 C 0.11795 0.78635 0.98232 0.0
C884 C 0.11066 0.77159 0.97787 0.0
C885 C 0.11118 0.76864 0.98717 0.0
U886 U 0.11443 0.78041 0.01994 0.0
O887 O 0.10767 0.7732 0.03172 0.0
O888 O 0.12297 0.77551 0.03172 0.0
C889 C 0.11575 0.77159 0.0359 0.0
C890 C 0.11534 0.77148 0.00389 0.0
C891 C 0.11721 0.76203 0.03932 0.0
C892 C 0.12495 0.74695 0.03846 0.0
C893 C 0.12298 0.75566 0.03455 0.0
C894 C 0.1151 0.75073 0.05172 0.0
C895 C 0.12113 0.74444 0.04715 0.0
C896 C 0.11318 0.75945 0.04784 0.0
C897 C 0.11187 0.80543 0.02802 0.0
C898 C 0.1101 0.80881 0.04458 0.0
C899 C 0.11364 0.82135 0.03382 0.0
C900 C 0.11359 0.81493 0.02638 0.0
C901 C 0.11199 0.81834 0.04303 0.0
C902 C 0.11009 0.80241 0.03715 0.0
C903 C 0.1124 0.79862 0.0203 0.0
O904 O 0.12283 0.77414 0.0087 0.0
O905 O 0.10745 0.77253 0.00853 0.0
O906 O 0.10527 0.79273 0.01963 0.0
O907 O 0.12061 0.79455 0.0194 0.0
H908 H 0.12127 0.78816 0.99686 0.0
H909 H 0.12049 0.79328 0.98061 0.0
H910 H 0.10766 0.76691 0.97264 0.0
H911 H 0.10852 0.76177 0.98897 0.0
H912 H 0.12954 0.74221 0.03473 0.0
H913 H 0.12612 0.75751 0.02792 0.0
H914 H 0.11214 0.74908 0.05847 0.0
H915 H 0.10874 0.76428 0.05163 0.0
H916 H 0.10866 0.80627 0.05154 0.0
H917 H 0.11523 0.82861 0.0324 0.0
H918 H 0.11504 0.81736 0.01938 0.0
H919 H 0.10879 0.79508 0.03855 0.0
C920 C 0.73984 0.98627 0.62503 0.0
C921 C 0.73976 0.97688 0.6221 0.0
C922 C 0.75483 0.97437 0.62983 0.0
C923 C 0.74719 0.971 0.62445 0.0
C924 C 0.7549 0.98381 0.63271 0.0
C925 C 0.74745 0.98971 0.63032 0.0
U926 U 0.71442 0.98819 0.61795 0.0
O927 O 0.70295 0.99691 0.62335 0.0
O928 O 0.70695 0.99775 0.60856 0.0
C929 C 0.70172 0.00116 0.61532 0.0
C930 C 0.73174 0.99227 0.62299 0.0
C931 C 0.70117 0.01139 0.61582 0.0
C932 C 0.70849 0.02669 0.61764 0.0
C933 C 0.70923 0.01694 0.61724 0.0
C934 C 0.69163 0.02536 0.61525 0.0
C935 C 0.69967 0.03102 0.61663 0.0
C936 C 0.69239 0.01565 0.61485 0.0
C937 C 0.70087 0.96555 0.61333 0.0
C938 C 0.6838 0.96478 0.61263 0.0
C939 C 0.69303 0.95124 0.60831 0.0
C940 C 0.7013 0.95628 0.61017 0.0
C941 C 0.68419 0.9554 0.60964 0.0
C942 C 0.69209 0.96984 0.61443 0.0
C943 C 0.70962 0.97058 0.61572 0.0
O944 O 0.72888 0.99222 0.61422 0.0
O945 O 0.72479 0.99156 0.62898 0.0
O946 O 0.70965 0.97489 0.62387 0.0
O947 O 0.71326 0.97563 0.60899 0.0
H948 H 0.73386 0.97406 0.61812 0.0
H949 H 0.74685 0.96374 0.62225 0.0
H950 H 0.7607 0.98662 0.63682 0.0
H951 H 0.74759 0.99693 0.63268 0.0
H952 H 0.71483 0.03084 0.61863 0.0
H953 H 0.71608 0.01374 0.618 0.0
H954 H 0.68472 0.02844 0.61462 0.0
H955 H 0.68609 0.01144 0.61379 0.0
H956 H 0.6771 0.9682 0.61362 0.0
H957 H 0.69355 0.944 0.60612 0.0
H958 H 0.70803 0.95288 0.60929 0.0
H959 H 0.69164 0.97703 0.61681 0.0
C960 C 0.75895 0.9813 0.37464 0.0
C961 C 0.75975 0.97156 0.37526 0.0
C962 C 0.74396 0.96958 0.36882 0.0
C963 C 0.75233 0.96575 0.37238 0.0
C964 C 0.7432 0.97937 0.36821 0.0
C965 C 0.75064 0.98518 0.37112 0.0
U966 U 0.78371 0.98348 0.38387 0.0
O967 O 0.79551 0.99263 0.38002 0.0
O968 O 0.79008 0.99297 0.39439 0.0
C969 C 0.79579 0.99677 0.38827 0.0
C970 C 0.76682 0.98735 0.37761 0.0
C971 C 0.79616 0.00706 0.38823 0.0
C972 C 0.7929 0.02197 0.38089 0.0
C973 C 0.79182 0.01225 0.38112 0.0
C974 C 0.80232 0.02146 0.39506 0.0
C975 C 0.79825 0.02667 0.3878 0.0
C976 C 0.8013 0.01174 0.39524 0.0
C977 C 0.79714 0.961 0.38852 0.0
C978 C 0.8122 0.96073 0.39663 0.0
C979 C 0.80667 0.947 0.38815 0.0
C980 C 0.7985 0.95174 0.38561 0.0
C981 C 0.81363 0.95142 0.39371 0.0
C982 C 0.80404 0.96549 0.39403 0.0
C983 C 0.7886 0.96592 0.38556 0.0
O984 O 0.76892 0.98699 0.38656 0.0
O985 O 0.77426 0.98697 0.37219 0.0
O986 O 0.78936 0.97056 0.37771 0.0
O987 O 0.7842 0.97061 0.39215 0.0
H988 H 0.76615 0.96845 0.37793 0.0
H989 H 0.75322 0.95825 0.3728 0.0
H990 H 0.73682 0.98253 0.36558 0.0
H991 H 0.74992 0.9927 0.37061 0.0
H992 H 0.7896 0.02582 0.37527 0.0
H993 H 0.78775 0.00878 0.37567 0.0
H994 H 0.80657 0.02485 0.40042 0.0
H995 H 0.8047 0.00785 0.40078 0.0
H996 H 0.81736 0.96432 0.40099 0.0
H997 H 0.8076 0.9399 0.38563 0.0
H998 H 0.79327 0.94821 0.38128 0.0
H999 H 0.80312 0.97266 0.3963 0.0
C1000 C 0.77802 0.99028 0.11623 0.0
C1001 C 0.78501 0.98746 0.10993 0.0
C1002 C 0.78331 0.97135 0.11504 0.0
C1003 C 0.7876 0.97807 0.10931 0.0
C1004 C 0.77629 0.9742 0.12132 0.0
C1005 C 0.77365 0.98359 0.12189 0.0
U1006 U 0.78494 0.01572 0.11403 0.0
O1007 O 0.77706 0.02791 0.10905 0.0
O1008 O 0.78265 0.02773 0.1234 0.0
C1009 C 0.77746 0.03215 0.11723 0.0
C1010 C 0.77561 0.00021 0.11724 0.0
C1011 C 0.76851 0.03583 0.12071 0.0
C1012 C 0.75351 0.03377 0.12851 0.0
C1013 C 0.76188 0.03002 0.12505 0.0
C1014 C 0.7583 0.04912 0.12317 0.0
C1015 C 0.75164 0.04338 0.12762 0.0
C1016 C 0.76665 0.04537 0.11975 0.0
C1017 C 0.8093 0.02204 0.1054 0.0
C1018 C 0.81536 0.03791 0.10679 0.0
C1019 C 0.82397 0.02632 0.09788 0.0
C1020 C 0.81706 0.01964 0.09991 0.0
C1021 C 0.82323 0.03553 0.10135 0.0
C1022 C 0.80845 0.03123 0.10876 0.0
C1023 C 0.80218 0.01493 0.10765 0.0
O1024 O 0.78037 0.00476 0.12376 0.0
O1025 O 0.77487 0.00488 0.10938 0.0
O1026 O 0.79472 0.01476 0.10218 0.0
O1027 O 0.80011 0.01429 0.11657 0.0
H1028 H 0.78857 0.99254 0.10559 0.0
H1029 H 0.79313 0.97612 0.10451 0.0
H1030 H 0.77284 0.96916 0.12579 0.0
H1031 H 0.76828 0.98566 0.12683 0.0
H1032 H 0.74848 0.02916 0.13183 0.0
H1033 H 0.76321 0.02261 0.1258 0.0
H1034 H 0.75715 0.05656 0.1225 0.0
H1035 H 0.77172 0.04994 0.11643 0.0
H1036 H 0.81462 0.04488 0.10968 0.0
H1037 H 0.82984 0.02429 0.09355 0.0
H1038 H 0.81779 0.01258 0.09721 0.0
H1039 H 0.80247 0.03321 0.113 0.0
C1040 C 0.71511 0.98412 0.88026 0.0
C1041 C 0.70592 0.98156 0.88275 0.0
C1042 C 0.70993 0.96509 0.88127 0.0
C1043 C 0.70334 0.97214 0.88324 0.0
C1044 C 0.71918 0.96772 0.87891 0.0
C1045 C 0.72174 0.97716 0.87841 0.0
U1046 U 0.70861 0.0096 0.88248 0.0
O1047 O 0.7167 0.02188 0.88742 0.0
O1048 O 0.71113 0.02142 0.87307 0.0
C1049 C 0.71658 0.02584 0.87914 0.0
C1050 C 0.71771 0.99401 0.87938 0.0
C1051 C 0.72568 0.02941 0.87557 0.0
C1052 C 0.73512 0.03529 0.86269 0.0
C1053 C 0.72675 0.0314 0.86601 0.0
C1054 C 0.74156 0.03534 0.8784 0.0
C1055 C 0.74261 0.03736 0.86885 0.0
C1056 C 0.73319 0.03144 0.88173 0.0
C1057 C 0.68425 0.01619 0.89083 0.0
C1058 C 0.68033 0.03215 0.8951 0.0
C1059 C 0.66791 0.02101 0.89137 0.0
C1060 C 0.67465 0.01409 0.88983 0.0
C1061 C 0.67069 0.03013 0.89397 0.0
C1062 C 0.68705 0.02526 0.89349 0.0
C1063 C 0.69127 0.00902 0.88862 0.0
O1064 O 0.71314 0.99852 0.87282 0.0
O1065 O 0.71832 0.99871 0.88731 0.0
O1066 O 0.69867 0.0088 0.89418 0.0
O1067 O 0.69341 0.00829 0.87972 0.0
H1068 H 0.7007 0.98687 0.88418 0.0
H1069 H 0.69613 0.97038 0.88495 0.0
H1070 H 0.72445 0.96247 0.87747 0.0
H1071 H 0.72887 0.97903 0.8765 0.0
H1072 H 0.73573 0.03668 0.85528 0.0
H1073 H 0.72107 0.03004 0.86108 0.0
H1074 H 0.74713 0.03699 0.88336 0.0
H1075 H 0.73255 0.03016 0.88915 0.0
H1076 H 0.68268 0.03915 0.89697 0.0
H1077 H 0.66053 0.01924 0.89049 0.0
H1078 H 0.67237 0.00713 0.88774 0.0
H1079 H 0.69445 0.02705 0.89418 0.0
C1080 C 0.61858 0.74539 0.97327 0.0
C1081 C 0.6175 0.74464 0.96354 0.0
C1082 C 0.62269 0.76077 0.96176 0.0
C1083 C 0.61951 0.75226 0.95783 0.0
C1084 C 0.6237 0.7615 0.97154 0.0
C1085 C 0.62165 0.75386 0.97725 0.0
U1086 U 0.61378 0.71957 0.97504 0.0
O1087 O 0.61974 0.70892 0.98435 0.0
O1088 O 0.60449 0.71138 0.98412 0.0
C1089 C 0.61157 0.70717 0.98826 0.0
C1090 C 0.6169 0.73721 0.97918 0.0
C1091 C 0.61156 0.70712 0.99858 0.0
C1092 C 0.60575 0.71273 0.01357 0.0
C1093 C 0.60588 0.71323 0.0038 0.0
C1094 C 0.61714 0.70021 0.01305 0.0
C1095 C 0.61135 0.70619 0.01829 0.0
C1096 C 0.61721 0.70065 0.00329 0.0
C1097 C 0.61181 0.70569 0.95214 0.0
C1098 C 0.61197 0.68872 0.95127 0.0
C1099 C 0.60839 0.69775 0.93744 0.0
C1100 C 0.60944 0.70601 0.94263 0.0
C1101 C 0.60973 0.689 0.94166 0.0
C1102 C 0.61299 0.697 0.95646 0.0
C1103 C 0.61315 0.71447 0.95737 0.0
O1104 O 0.60841 0.73355 0.97854 0.0
O1105 O 0.62359 0.73092 0.97891 0.0
O1106 O 0.62101 0.71517 0.96222 0.0
O1107 O 0.60576 0.71748 0.96196 0.0
H1108 H 0.61521 0.7381 0.96034 0.0
H1109 H 0.61881 0.75141 0.95033 0.0
H1110 H 0.62606 0.76799 0.97477 0.0
H1111 H 0.62256 0.75453 0.98476 0.0
H1112 H 0.60128 0.71747 0.01744 0.0
H1113 H 0.6015 0.71833 0.00036 0.0
H1114 H 0.62144 0.69502 0.01648 0.0
H1115 H 0.62161 0.69586 0.99941 0.0
H1116 H 0.61314 0.68212 0.95472 0.0
H1117 H 0.60649 0.69822 0.93011 0.0
H1118 H 0.60845 0.71266 0.9392 0.0
H1119 H 0.6148 0.69663 0.96382 0.0
C1120 C 0.97785 0.12331 0.77054 0.0
C1121 C 0.97503 0.12722 0.77911 0.0
C1122 C 0.95881 0.12255 0.776 0.0
C1123 C 0.9656 0.1269 0.78178 0.0
C1124 C 0.96165 0.11856 0.76746 0.0
C1125 C 0.97109 0.11898 0.76473 0.0
U1126 U 0.00358 0.12002 0.77661 0.0
O1127 O 0.01598 0.12881 0.77385 0.0
O1128 O 0.01542 0.11434 0.76858 0.0
C1129 C 0.02003 0.12236 0.7687 0.0
C1130 C 0.98783 0.12352 0.76772 0.0
C1131 C 0.02372 0.12559 0.75971 0.0
C1132 C 0.02198 0.12841 0.74305 0.0
C1133 C 0.01827 0.12519 0.75149 0.0
C1134 C 0.03654 0.13259 0.75101 0.0
C1135 C 0.03115 0.13217 0.74274 0.0
C1136 C 0.03285 0.12932 0.75941 0.0
C1137 C 0.01028 0.11231 0.801 0.0
C1138 C 0.02661 0.10921 0.80488 0.0
C1139 C 0.01504 0.11049 0.81721 0.0
C1140 C 0.00802 0.11207 0.81052 0.0
C1141 C 0.02442 0.1091 0.81446 0.0
C1142 C 0.0196 0.11084 0.79821 0.0
C1143 C 0.00299 0.11452 0.79406 0.0
O1144 O 0.99306 0.13005 0.77171 0.0
O1145 O 0.992 0.11534 0.76731 0.0
O1146 O 0.00236 0.10873 0.78689 0.0
O1147 O 0.00267 0.12335 0.79162 0.0
H1148 H 0.9801 0.13049 0.78381 0.0
H1149 H 0.96365 0.12989 0.78847 0.0
H1150 H 0.95655 0.11518 0.76287 0.0
H1151 H 0.97313 0.11588 0.75811 0.0
H1152 H 0.01764 0.12808 0.7368 0.0
H1153 H 0.01116 0.1224 0.75161 0.0
H1154 H 0.04366 0.13532 0.75098 0.0
H1155 H 0.03714 0.12969 0.7657 0.0
H1156 H 0.03379 0.10831 0.80255 0.0
H1157 H 0.01313 0.11037 0.82453 0.0
H1158 H 0.00086 0.11322 0.81278 0.0
H1159 H 0.02148 0.1111 0.79088 0.0
C1160 C 0.87717 0.26053 0.47206 0.0
C1161 C 0.87644 0.26184 0.46238 0.0
C1162 C 0.87274 0.24533 0.46013 0.0
C1163 C 0.87422 0.25431 0.45646 0.0
C1164 C 0.8735 0.24407 0.46986 0.0
C1165 C 0.8757 0.25162 0.47578 0.0
U1166 U 0.88438 0.28581 0.4749 0.0
O1167 O 0.87925 0.29684 0.48437 0.0
O1168 O 0.89416 0.29287 0.48465 0.0
C1169 C 0.88743 0.29774 0.48863 0.0
C1170 C 0.87946 0.26847 0.47826 0.0
C1171 C 0.88719 0.29783 0.49897 0.0
C1172 C 0.89324 0.29295 0.51413 0.0
C1173 C 0.89322 0.29224 0.50436 0.0
C1174 C 0.88105 0.30467 0.5133 0.0
C1175 C 0.88719 0.29923 0.51869 0.0
C1176 C 0.88108 0.30401 0.50355 0.0
C1177 C 0.88844 0.30008 0.45289 0.0
C1178 C 0.89001 0.317 0.45318 0.0
C1179 C 0.89323 0.30834 0.43892 0.0
C1180 C 0.89113 0.29998 0.44349 0.0
C1181 C 0.89262 0.31694 0.4437 0.0
C1182 C 0.88797 0.30862 0.45775 0.0
C1183 C 0.88607 0.29125 0.45751 0.0
O1184 O 0.88827 0.27129 0.47804 0.0
O1185 O 0.87342 0.27538 0.47797 0.0
O1186 O 0.87802 0.29115 0.46199 0.0
O1187 O 0.89296 0.28738 0.46223 0.0
H1188 H 0.87754 0.2687 0.4594 0.0
H1189 H 0.87357 0.25556 0.44903 0.0
H1190 H 0.87253 0.23722 0.4729 0.0
H1191 H 0.87627 0.2505 0.48325 0.0
H1192 H 0.898 0.28862 0.51811 0.0
H1193 H 0.89801 0.2874 0.50105 0.0
H1194 H 0.87641 0.30967 0.51659 0.0
H1195 H 0.87643 0.30846 0.49956 0.0
H1196 H 0.88959 0.32351 0.45707 0.0
H1197 H 0.89512 0.30807 0.4316 0.0
H1198 H 0.89154 0.29343 0.43964 0.0
H1199 H 0.88597 0.30881 0.46505 0.0
C1200 C 0.4955 0.87548 0.75992 0.0
C1201 C 0.49544 0.87282 0.76934 0.0
C1202 C 0.48023 0.88023 0.77147 0.0
C1203 C 0.48786 0.87514 0.77505 0.0
C1204 C 0.48029 0.88282 0.76199 0.0
C1205 C 0.48788 0.88045 0.75626 0.0
U1206 U 0.52118 0.86947 0.75844 0.0
O1207 O 0.52904 0.86006 0.74917 0.0
O1208 O 0.5325 0.87505 0.74959 0.0
C1209 C 0.53392 0.86693 0.74548 0.0
C1210 C 0.50376 0.87356 0.75409 0.0
C1211 C 0.53429 0.8671 0.73521 0.0
C1212 C 0.52708 0.86467 0.71991 0.0
C1213 C 0.52642 0.8647 0.72968 0.0
C1214 C 0.54338 0.86965 0.72114 0.0
C1215 C 0.53558 0.86712 0.71554 0.0
C1216 C 0.54274 0.86962 0.73088 0.0
C1217 C 0.53466 0.86631 0.78127 0.0
C1218 C 0.5515 0.86352 0.78149 0.0
C1219 C 0.54285 0.86426 0.79604 0.0
C1220 C 0.53453 0.86584 0.79104 0.0
C1221 C 0.55144 0.86313 0.79133 0.0
C1222 C 0.54317 0.8651 0.7765 0.0
C1223 C 0.52591 0.8682 0.77615 0.0
O1224 O 0.51049 0.87988 0.75474 0.0
O1225 O 0.50689 0.86494 0.75442 0.0
O1226 O 0.52247 0.86114 0.77125 0.0
O1227 O 0.52579 0.87614 0.7716 0.0
H1228 H 0.50134 0.86909 0.77232 0.0
H1229 H 0.48809 0.87317 0.78235 0.0
H1230 H 0.47449 0.8867 0.75902 0.0
H1231 H 0.48785 0.8826 0.74901 0.0
H1232 H 0.52093 0.86277 0.71578 0.0
H1233 H 0.51981 0.86281 0.73291 0.0
H1234 H 0.55006 0.87145 0.71799 0.0
H1235 H 0.54888 0.87148 0.73504 0.0
H1236 H 0.558 0.86277 0.77766 0.0
H1237 H 0.54253 0.86386 0.80359 0.0
H1238 H 0.52801 0.86673 0.79482 0.0
H1239 H 0.54337 0.86546 0.76894 0.0
C1240 C 0.98098 0.1333 0.22526 0.0
C1241 C 0.97283 0.13857 0.22369 0.0
C1242 C 0.97353 0.13502 0.20702 0.0
C1243 C 0.96917 0.13946 0.21465 0.0
C1244 C 0.98179 0.12987 0.20863 0.0
C1245 C 0.98547 0.12902 0.21767 0.0
U1246 U 0.9763 0.13291 0.2512 0.0
O1247 O 0.97999 0.12268 0.26196 0.0
O1248 O 0.98494 0.13722 0.26336 0.0
C1249 C 0.98529 0.12868 0.26666 0.0
C1250 C 0.98443 0.13174 0.23483 0.0
C1251 C 0.99463 0.12539 0.26973 0.0
C1252 C 0.0071 0.11381 0.26974 0.0
C1253 C 0.99869 0.11725 0.266 0.0
C1254 C 0.00769 0.12679 0.28072 0.0
C1255 C 0.01162 0.11848 0.27723 0.0
C1256 C 0.99927 0.13018 0.27702 0.0
C1257 C 0.95181 0.13907 0.25986 0.0
C1258 C 0.94423 0.13312 0.27382 0.0
C1259 C 0.93939 0.14796 0.26737 0.0
C1260 C 0.94603 0.14698 0.26024 0.0
C1261 C 0.93837 0.14099 0.27417 0.0
C1262 C 0.95092 0.1322 0.26677 0.0
C1263 C 0.95866 0.13807 0.25221 0.0
O1264 O 0.985 0.13923 0.24022 0.0
O1265 O 0.98061 0.12452 0.23902 0.0
O1266 O 0.96125 0.12947 0.25024 0.0
O1267 O 0.96571 0.14407 0.25232 0.0
H1268 H 0.96922 0.14187 0.22948 0.0
H1269 H 0.96289 0.14358 0.21366 0.0
H1270 H 0.98526 0.12625 0.20294 0.0
H1271 H 0.99171 0.12485 0.21878 0.0
H1272 H 0.01001 0.10745 0.26684 0.0
H1273 H 0.99529 0.11342 0.26034 0.0
H1274 H 0.01093 0.13048 0.28656 0.0
H1275 H 0.99624 0.13644 0.28005 0.0
H1276 H 0.94369 0.12771 0.27905 0.0
H1277 H 0.93494 0.15408 0.26747 0.0
H1278 H 0.94661 0.15237 0.25499 0.0
H1279 H 0.95537 0.12608 0.26672 0.0
C1280 C 0.49915 0.12643 0.73945 0.0
C1281 C 0.4996 0.12846 0.72988 0.0
C1282 C 0.48371 0.12237 0.72761 0.0
C1283 C 0.49194 0.12647 0.72402 0.0
C1284 C 0.48326 0.12044 0.73724 0.0
C1285 C 0.49094 0.12247 0.74311 0.0
U1286 U 0.52505 0.13169 0.74144 0.0
O1287 O 0.53329 0.14056 0.7511 0.0
O1288 O 0.5361 0.12548 0.75023 0.0
C1289 C 0.53783 0.13341 0.75465 0.0
C1290 C 0.50744 0.12798 0.74544 0.0
C1291 C 0.53823 0.13286 0.76493 0.0
C1292 C 0.53247 0.13708 0.78039 0.0
C1293 C 0.53162 0.1374 0.77064 0.0
C1294 C 0.54635 0.12746 0.77885 0.0
C1295 C 0.53988 0.13214 0.78459 0.0
C1296 C 0.54555 0.12785 0.76912 0.0
C1297 C 0.53871 0.13512 0.71889 0.0
C1298 C 0.55572 0.13683 0.71886 0.0
C1299 C 0.54692 0.138 0.70435 0.0
C1300 C 0.53854 0.1365 0.70921 0.0
C1301 C 0.55562 0.13813 0.70911 0.0
C1302 C 0.54733 0.13534 0.72371 0.0
C1303 C 0.52988 0.13335 0.72384 0.0
O1304 O 0.51391 0.1215 0.74472 0.0
O1305 O 0.51094 0.13652 0.74537 0.0
O1306 O 0.52674 0.14036 0.72891 0.0
O1307 O 0.52937 0.12528 0.72814 0.0
H1308 H 0.50594 0.13143 0.72691 0.0
H1309 H 0.49258 0.1279 0.71662 0.0
H1310 H 0.477 0.11734 0.74022 0.0
H1311 H 0.49051 0.12082 0.75048 0.0
H1312 H 0.52734 0.14069 0.78464 0.0
H1313 H 0.52586 0.14126 0.76758 0.0
H1314 H 0.5522 0.12369 0.78187 0.0
H1315 H 0.55072 0.12431 0.76485 0.0
H1316 H 0.5623 0.13678 0.72272 0.0
H1317 H 0.54657 0.13913 0.69688 0.0
H1318 H 0.53193 0.13639 0.70539 0.0
H1319 H 0.54757 0.13428 0.7312 0.0
C1320 C 0.12517 0.23728 0.9635 0.0
C1321 C 0.12597 0.23505 0.95397 0.0
C1322 C 0.12806 0.21861 0.95771 0.0
C1323 C 0.12734 0.22582 0.95111 0.0
C1324 C 0.12729 0.22089 0.96728 0.0
C1325 C 0.12585 0.23016 0.97015 0.0
U1326 U 0.1261 0.26265 0.9572 0.0
O1327 O 0.11619 0.27417 0.95956 0.0
O1328 O 0.1307 0.27524 0.9649 0.0
C1329 C 0.12232 0.27908 0.96451 0.0
C1330 C 0.12375 0.24704 0.9664 0.0
C1331 C 0.11881 0.28311 0.97328 0.0
C1332 C 0.11589 0.28232 0.98998 0.0
C1333 C 0.11893 0.27809 0.98167 0.0
C1334 C 0.11242 0.2965 0.9815 0.0
C1335 C 0.11271 0.29162 0.98999 0.0
C1336 C 0.11546 0.29228 0.97323 0.0
C1337 C 0.13438 0.26907 0.93296 0.0
C1338 C 0.13325 0.28507 0.92754 0.0
C1339 C 0.14161 0.27355 0.91832 0.0
C1340 C 0.13958 0.26675 0.925 0.0
C1341 C 0.13845 0.28279 0.9195 0.0
C1342 C 0.13126 0.27827 0.93422 0.0
C1343 C 0.13235 0.26192 0.93999 0.0
O1344 O 0.13147 0.25213 0.96701 0.0
O1345 O 0.11686 0.25131 0.96201 0.0
O1346 O 0.12342 0.26092 0.94213 0.0
O1347 O 0.13793 0.2621 0.94735 0.0
H1348 H 0.12549 0.24046 0.94873 0.0
H1349 H 0.12771 0.22433 0.94368 0.0
H1350 H 0.1279 0.21554 0.97256 0.0
H1351 H 0.12531 0.23178 0.97754 0.0
H1352 H 0.11626 0.2784 0.99642 0.0
H1353 H 0.12149 0.27097 0.98181 0.0
H1354 H 0.10984 0.3036 0.98122 0.0
H1355 H 0.11527 0.29623 0.96679 0.0
H1356 H 0.1306 0.29207 0.92862 0.0
H1357 H 0.14574 0.27159 0.91228 0.0
H1358 H 0.1421 0.25969 0.92396 0.0
H1359 H 0.12725 0.28019 0.94037 0.0
C1360 C 0.37367 0.73339 0.49099 0.0
C1361 C 0.37372 0.7237 0.48939 0.0
C1362 C 0.38032 0.72118 0.5049 0.0
C1363 C 0.37702 0.71766 0.49626 0.0
C1364 C 0.38012 0.73089 0.50654 0.0
C1365 C 0.37684 0.73696 0.49961 0.0
U1366 U 0.36307 0.73577 0.46712 0.0
O1367 O 0.35242 0.74525 0.46132 0.0
O1368 O 0.36655 0.74471 0.4552 0.0
C1369 C 0.35832 0.74884 0.45525 0.0
C1370 C 0.37038 0.73965 0.48358 0.0
C1371 C 0.35855 0.75909 0.45476 0.0
C1372 C 0.36469 0.7742 0.45985 0.0
C1373 C 0.36428 0.76447 0.46079 0.0
C1374 C 0.35351 0.77324 0.447 0.0
C1375 C 0.35935 0.77869 0.4529 0.0
C1376 C 0.35313 0.76354 0.44793 0.0
C1377 C 0.35722 0.71283 0.45431 0.0
C1378 C 0.35385 0.71159 0.43766 0.0
C1379 C 0.35174 0.69812 0.44764 0.0
C1380 C 0.35464 0.70344 0.45537 0.0
C1381 C 0.3514 0.7021 0.43867 0.0
C1382 C 0.35671 0.71693 0.44543 0.0
C1383 C 0.36068 0.71812 0.46248 0.0
O1384 O 0.37537 0.73935 0.47587 0.0
O1385 O 0.36125 0.73938 0.48199 0.0
O1386 O 0.35434 0.72298 0.46703 0.0
O1387 O 0.36864 0.72269 0.4613 0.0
H1388 H 0.37123 0.72082 0.48278 0.0
H1389 H 0.37692 0.71021 0.49483 0.0
H1390 H 0.38266 0.73381 0.5131 0.0
H1391 H 0.37684 0.74443 0.50096 0.0
H1392 H 0.36918 0.77821 0.46456 0.0
H1393 H 0.36849 0.76114 0.46614 0.0
H1394 H 0.34941 0.77645 0.4415 0.0
H1395 H 0.34869 0.75948 0.4432 0.0
H1396 H 0.35357 0.71487 0.43086 0.0
H1397 H 0.35003 0.69081 0.44864 0.0
H1398 H 0.35501 0.70018 0.46218 0.0
H1399 H 0.35863 0.7242 0.4445 0.0
C1400 C 0.74366 0.52516 0.86095 0.0
C1401 C 0.74189 0.53469 0.85965 0.0
C1402 C 0.72501 0.53163 0.85963 0.0
C1403 C 0.73265 0.5379 0.859 0.0
C1404 C 0.72684 0.52205 0.86081 0.0
C1405 C 0.73611 0.51885 0.86148 0.0
U1406 U 0.76957 0.5307 0.86072 0.0
O1407 O 0.78116 0.52644 0.86994 0.0
O1408 O 0.78167 0.52309 0.85493 0.0
C1409 C 0.78564 0.5221 0.86318 0.0
C1410 C 0.75339 0.52188 0.86185 0.0
C1411 C 0.78903 0.51268 0.86538 0.0
C1412 C 0.78665 0.49713 0.87171 0.0
C1413 C 0.78307 0.50587 0.86921 0.0
C1414 C 0.80209 0.50191 0.86636 0.0
C1415 C 0.79623 0.49508 0.87036 0.0
C1416 C 0.79852 0.51062 0.8639 0.0
C1417 C 0.77726 0.55596 0.85626 0.0
C1418 C 0.7871 0.56823 0.86316 0.0
C1419 C 0.78865 0.56434 0.84674 0.0
C1420 C 0.78157 0.55757 0.84758 0.0
C1421 C 0.79154 0.56971 0.85454 0.0
C1422 C 0.78002 0.56147 0.86401 0.0
C1423 C 0.76985 0.54868 0.85724 0.0
O1424 O 0.75835 0.52221 0.85412 0.0
O1425 O 0.75797 0.52516 0.8692 0.0
O1426 O 0.76874 0.54525 0.86568 0.0
O1427 O 0.76943 0.54223 0.85064 0.0
H1428 H 0.74766 0.53966 0.85918 0.0
H1429 H 0.73149 0.5453 0.85796 0.0
H1430 H 0.72111 0.51706 0.8614 0.0
H1431 H 0.73737 0.51146 0.86249 0.0
H1432 H 0.78194 0.49199 0.87469 0.0
H1433 H 0.7757 0.50736 0.87038 0.0
H1434 H 0.80952 0.50062 0.86536 0.0
H1435 H 0.80322 0.51582 0.86098 0.0
H1436 H 0.78921 0.57218 0.86933 0.0
H1437 H 0.79182 0.56542 0.83996 0.0
H1438 H 0.77951 0.55358 0.84143 0.0
H1439 H 0.77677 0.5605 0.87077 0.0
C1440 C 0.72832 0.51105 0.1296 0.0
C1441 C 0.71919 0.51291 0.12636 0.0
C1442 C 0.71599 0.49624 0.12469 0.0
C1443 C 0.7131 0.50559 0.12389 0.0
C1444 C 0.7252 0.49441 0.12784 0.0
C1445 C 0.73131 0.50177 0.13028 0.0
U1446 U 0.7308 0.53602 0.1376 0.0
O1447 O 0.73952 0.5426 0.14865 0.0
O1448 O 0.74083 0.54716 0.13407 0.0
C1449 C 0.74416 0.54777 0.14265 0.0
C1450 C 0.7345 0.51876 0.13269 0.0
C1451 C 0.75447 0.54772 0.14359 0.0
C1452 C 0.76991 0.54283 0.1383 0.0
C1453 C 0.76009 0.54225 0.13768 0.0
C1454 C 0.76857 0.55407 0.15099 0.0
C1455 C 0.77426 0.54885 0.14488 0.0
C1456 C 0.75877 0.55352 0.15032 0.0
C1457 C 0.70807 0.55038 0.13928 0.0
C1458 C 0.69905 0.5602 0.14989 0.0
C1459 C 0.70077 0.56466 0.13369 0.0
C1460 C 0.70616 0.5567 0.13203 0.0
C1461 C 0.69708 0.56646 0.14262 0.0
C1462 C 0.70446 0.55224 0.14824 0.0
C1463 C 0.71326 0.54164 0.13733 0.0
O1464 O 0.73509 0.52582 0.12688 0.0
O1465 O 0.73337 0.52139 0.14144 0.0
O1466 O 0.71711 0.53746 0.14456 0.0
O1467 O 0.71868 0.54163 0.12991 0.0
H1468 H 0.71673 0.52005 0.12584 0.0
H1469 H 0.70612 0.50726 0.12136 0.0
H1470 H 0.72761 0.4873 0.12867 0.0
H1471 H 0.73831 0.50021 0.13284 0.0
H1472 H 0.77407 0.53877 0.13344 0.0
H1473 H 0.7569 0.53769 0.13245 0.0
H1474 H 0.77168 0.55863 0.15626 0.0
H1475 H 0.75454 0.55774 0.15499 0.0
H1476 H 0.69635 0.56143 0.15687 0.0
H1477 H 0.69924 0.56924 0.1279 0.0
H1478 H 0.70869 0.55541 0.12501 0.0
H1479 H 0.7057 0.54747 0.15395 0.0
C1480 C 0.72745 0.49004 0.37237 0.0
C1481 C 0.71795 0.48836 0.37443 0.0
C1482 C 0.7152 0.50509 0.37584 0.0
C1483 C 0.7119 0.49581 0.37619 0.0
C1484 C 0.72475 0.50673 0.37378 0.0
C1485 C 0.73082 0.49925 0.37206 0.0
U1486 U 0.73013 0.46463 0.3662 0.0
O1487 O 0.73968 0.4572 0.35671 0.0
O1488 O 0.73954 0.45379 0.37167 0.0
C1489 C 0.74359 0.45245 0.36353 0.0
C1490 C 0.73374 0.48217 0.37036 0.0
C1491 C 0.75392 0.45228 0.3637 0.0
C1492 C 0.76917 0.45986 0.36201 0.0
C1493 C 0.75933 0.46031 0.36191 0.0
C1494 C 0.76824 0.4434 0.36582 0.0
C1495 C 0.77373 0.45138 0.36398 0.0
C1496 C 0.75844 0.44385 0.36567 0.0
C1497 C 0.70741 0.45018 0.36299 0.0
C1498 C 0.69807 0.44041 0.35239 0.0
C1499 C 0.7007 0.43547 0.36834 0.0
C1500 C 0.70603 0.44355 0.37007 0.0
C1501 C 0.69659 0.43384 0.3595 0.0
C1502 C 0.70339 0.4485 0.35412 0.0
C1503 C 0.71253 0.45905 0.36492 0.0
O1504 O 0.73363 0.47549 0.37663 0.0
O1505 O 0.73335 0.47898 0.36171 0.0
O1506 O 0.71716 0.4627 0.35788 0.0
O1507 O 0.71719 0.45961 0.37289 0.0
H1508 H 0.71522 0.48128 0.37467 0.0
H1509 H 0.70464 0.49427 0.37789 0.0
H1510 H 0.7275 0.51379 0.37333 0.0
H1511 H 0.73813 0.50066 0.37042 0.0
H1512 H 0.77322 0.46614 0.36064 0.0
H1513 H 0.75595 0.46691 0.36044 0.0
H1514 H 0.77153 0.43674 0.36723 0.0
H1515 H 0.75437 0.43758 0.36706 0.0
H1516 H 0.69508 0.43932 0.34548 0.0
H1517 H 0.69956 0.43065 0.37403 0.0
H1518 H 0.70892 0.44465 0.37702 0.0
H1519 H 0.70425 0.45351 0.34855 0.0
C1520 C 0.74316 0.47681 0.6311 0.0
C1521 C 0.7406 0.46768 0.62841 0.0
C1522 C 0.72419 0.47095 0.63183 0.0
C1523 C 0.7312 0.4648 0.62871 0.0
C1524 C 0.72678 0.48007 0.63459 0.0
C1525 C 0.7362 0.48299 0.63419 0.0
U1526 U 0.76869 0.47047 0.63384 0.0
O1527 O 0.78115 0.47378 0.62545 0.0
O1528 O 0.78075 0.47792 0.64028 0.0
C1529 C 0.78542 0.4782 0.63238 0.0
C1530 C 0.75312 0.47976 0.63103 0.0
C1531 C 0.78977 0.48719 0.62996 0.0
C1532 C 0.78886 0.50308 0.62413 0.0
C1533 C 0.78439 0.49485 0.62709 0.0
C1534 C 0.80405 0.49604 0.62707 0.0
C1535 C 0.79875 0.50368 0.62394 0.0
C1536 C 0.7996 0.48788 0.63004 0.0
C1537 C 0.7748 0.4452 0.63955 0.0
C1538 C 0.78357 0.43178 0.63383 0.0
C1539 C 0.78661 0.43785 0.64942 0.0
C1540 C 0.77974 0.44467 0.64808 0.0
C1541 C 0.78869 0.43139 0.64227 0.0
C1542 C 0.77668 0.43858 0.63251 0.0
C1543 C 0.76778 0.45263 0.63786 0.0
O1544 O 0.75741 0.47952 0.6392 0.0
O1545 O 0.75818 0.47624 0.6242 0.0
O1546 O 0.76738 0.45581 0.62926 0.0
O1547 O 0.76723 0.4593 0.64422 0.0
H1548 H 0.74587 0.46273 0.62614 0.0
H1549 H 0.72945 0.45768 0.6267 0.0
H1550 H 0.72152 0.48496 0.63701 0.0
H1551 H 0.73806 0.49004 0.63637 0.0
H1552 H 0.7846 0.50884 0.62173 0.0
H1553 H 0.77677 0.4944 0.62696 0.0
H1554 H 0.81167 0.49635 0.62716 0.0
H1555 H 0.80385 0.48203 0.63225 0.0
H1556 H 0.78505 0.42699 0.62813 0.0
H1557 H 0.79029 0.43764 0.65607 0.0
H1558 H 0.77839 0.44958 0.65372 0.0
H1559 H 0.77293 0.43874 0.6259 0.0
C1560 C 0.49135 0.13046 0.24494 0.0
C1561 C 0.48152 0.13111 0.24435 0.0
C1562 C 0.48084 0.13592 0.2607 0.0
C1563 C 0.47631 0.13383 0.25216 0.0
C1564 C 0.49072 0.13528 0.26124 0.0
C1565 C 0.49592 0.13257 0.2534 0.0
U1566 U 0.49172 0.12237 0.21979 0.0
O1567 O 0.50078 0.12636 0.20804 0.0
O1568 O 0.5002 0.11175 0.21259 0.0
C1569 C 0.50426 0.11791 0.20714 0.0
C1570 C 0.49679 0.12757 0.23673 0.0
C1571 C 0.51455 0.11743 0.20668 0.0
C1572 C 0.52999 0.11915 0.21389 0.0
C1573 C 0.52017 0.11952 0.21452 0.0
C1574 C 0.52861 0.11455 0.19758 0.0
C1575 C 0.53432 0.11668 0.2054 0.0
C1576 C 0.51881 0.11493 0.19823 0.0
C1577 C 0.46842 0.11943 0.20688 0.0
C1578 C 0.46753 0.11754 0.19 0.0
C1579 C 0.45357 0.11528 0.19941 0.0
C1580 C 0.45882 0.11727 0.20749 0.0
C1581 C 0.45786 0.11547 0.19057 0.0
C1582 C 0.47278 0.11947 0.19809 0.0
C1583 C 0.47378 0.12173 0.2154 0.0
O1584 O 0.49567 0.11876 0.23421 0.0
O1585 O 0.49643 0.13335 0.22964 0.0
O1586 O 0.4789 0.12941 0.21501 0.0
O1587 O 0.47824 0.11471 0.21925 0.0
H1588 H 0.47787 0.12947 0.23785 0.0
H1589 H 0.46872 0.13412 0.25155 0.0
H1590 H 0.49442 0.13693 0.26768 0.0
H1591 H 0.50351 0.13212 0.25395 0.0
H1592 H 0.53418 0.12074 0.22006 0.0
H1593 H 0.51697 0.12146 0.22111 0.0
H1594 H 0.53171 0.11277 0.19091 0.0
H1595 H 0.51456 0.11333 0.1921 0.0
H1596 H 0.47104 0.11763 0.1833 0.0
H1597 H 0.44612 0.11379 0.20006 0.0
H1598 H 0.45536 0.1172 0.21423 0.0
H1599 H 0.48022 0.12106 0.1975 0.0
C1600 C 0.97659 0.87776 0.7276 0.0
C1601 C 0.97469 0.8823 0.71915 0.0
C1602 C 0.95786 0.88006 0.72145 0.0
C1603 C 0.96541 0.88347 0.71611 0.0
C1604 C 0.95981 0.87561 0.72999 0.0
C1605 C 0.96911 0.87446 0.73303 0.0
U1606 U 0.00238 0.87874 0.72192 0.0
O1607 O 0.0148 0.88297 0.73021 0.0
O1608 O 0.0138 0.86874 0.72439 0.0
C1609 C 0.01857 0.87461 0.72974 0.0
C1610 C 0.98636 0.87619 0.73055 0.0
C1611 C 0.02202 0.8708 0.73861 0.0
C1612 C 0.01944 0.86549 0.75449 0.0
C1613 C 0.01592 0.86907 0.74609 0.0
C1614 C 0.03514 0.86531 0.74795 0.0
C1615 C 0.0291 0.86357 0.75551 0.0
C1616 C 0.03162 0.86889 0.73959 0.0
C1617 C 0.0098 0.88744 0.69811 0.0
C1618 C 0.02629 0.89009 0.69459 0.0
C1619 C 0.01476 0.88945 0.68203 0.0
C1620 C 0.00762 0.88795 0.68856 0.0
C1621 C 0.02417 0.89049 0.68498 0.0
C1622 C 0.01916 0.88853 0.70109 0.0
C1623 C 0.00234 0.88536 0.70486 0.0
O1624 O 0.99067 0.86951 0.72593 0.0
O1625 O 0.99152 0.8838 0.73158 0.0
O1626 O 0.00225 0.89072 0.71238 0.0
O1627 O 0.0012 0.87645 0.70672 0.0
H1628 H 0.98039 0.88489 0.71486 0.0
H1629 H 0.96416 0.88705 0.70958 0.0
H1630 H 0.95417 0.87282 0.73421 0.0
H1631 H 0.97047 0.87089 0.73955 0.0
H1632 H 0.0146 0.86416 0.76016 0.0
H1633 H 0.00847 0.87048 0.74542 0.0
H1634 H 0.04262 0.86406 0.74855 0.0
H1635 H 0.03642 0.87022 0.73388 0.0
H1636 H 0.03349 0.89072 0.69706 0.0
H1637 H 0.01291 0.88979 0.67468 0.0
H1638 H 0.00043 0.88709 0.68614 0.0
H1639 H 0.02098 0.88805 0.70845 0.0
C1640 C 0.51705 0.87794 0.27609 0.0
C1641 C 0.51933 0.87999 0.28545 0.0
C1642 C 0.53602 0.87985 0.28172 0.0
C1643 C 0.52872 0.88093 0.28824 0.0
C1644 C 0.53369 0.87792 0.27231 0.0
C1645 C 0.52427 0.87696 0.26953 0.0
U1646 U 0.49135 0.87855 0.2824 0.0
O1647 O 0.47891 0.88352 0.27475 0.0
O1648 O 0.4797 0.86885 0.27908 0.0
C1649 C 0.47501 0.87516 0.27436 0.0
C1650 C 0.50718 0.8767 0.27325 0.0
C1651 C 0.47156 0.87215 0.26512 0.0
C1652 C 0.47416 0.86855 0.2487 0.0
C1653 C 0.47765 0.87135 0.25747 0.0
C1654 C 0.45849 0.86724 0.25521 0.0
C1655 C 0.46452 0.86647 0.24748 0.0
C1656 C 0.46199 0.87005 0.26394 0.0
C1657 C 0.48468 0.8854 0.30717 0.0
C1658 C 0.46829 0.88628 0.31176 0.0
C1659 C 0.48063 0.88896 0.32326 0.0
C1660 C 0.48742 0.8875 0.31638 0.0
C1661 C 0.47098 0.88835 0.32104 0.0
C1662 C 0.47508 0.8848 0.30488 0.0
C1663 C 0.49186 0.88376 0.30003 0.0
O1664 O 0.5028 0.86967 0.27725 0.0
O1665 O 0.50218 0.8844 0.27313 0.0
O1666 O 0.49187 0.8897 0.29306 0.0
O1667 O 0.4927 0.87501 0.29728 0.0
H1668 H 0.51382 0.88082 0.2906 0.0
H1669 H 0.53028 0.88255 0.29551 0.0
H1670 H 0.53914 0.87697 0.26714 0.0
H1671 H 0.52262 0.87536 0.26228 0.0
H1672 H 0.479 0.86794 0.24291 0.0
H1673 H 0.48509 0.87291 0.25829 0.0
H1674 H 0.45102 0.86583 0.25448 0.0
H1675 H 0.45719 0.87065 0.26978 0.0
H1676 H 0.46092 0.88564 0.30984 0.0
H1677 H 0.48293 0.89065 0.33032 0.0
H1678 H 0.49481 0.888 0.31824 0.0
H1679 H 0.47286 0.88315 0.29779 0.0
C1680 C 0.87846 0.74328 0.02458 0.0
C1681 C 0.87715 0.7421 0.03422 0.0
C1682 C 0.87421 0.75876 0.0361 0.0
C1683 C 0.87502 0.74976 0.03992 0.0
C1684 C 0.87555 0.75989 0.02642 0.0
C1685 C 0.87765 0.7522 0.02071 0.0
U1686 U 0.88467 0.71782 0.02263 0.0
O1687 O 0.8794 0.70669 0.01322 0.0
O1688 O 0.89448 0.71022 0.01354 0.0
C1689 C 0.88768 0.70545 0.00936 0.0
C1690 C 0.88065 0.73519 0.01862 0.0
C1691 C 0.88777 0.70516 0.99903 0.0
C1692 C 0.89398 0.71016 0.98403 0.0
C1693 C 0.89375 0.71096 0.99379 0.0
C1694 C 0.88212 0.69795 0.9846 0.0
C1695 C 0.88819 0.70362 0.97934 0.0
C1696 C 0.88194 0.69869 0.99434 0.0
C1697 C 0.88712 0.7041 0.04524 0.0
C1698 C 0.88893 0.68723 0.04531 0.0
C1699 C 0.88956 0.696 0.05988 0.0
C1700 C 0.88819 0.70429 0.05498 0.0
C1701 C 0.88986 0.68736 0.05512 0.0
C1702 C 0.88758 0.69554 0.04041 0.0
C1703 C 0.88539 0.71284 0.04024 0.0
O1704 O 0.88932 0.73213 0.01935 0.0
O1705 O 0.87431 0.72845 0.01872 0.0
O1706 O 0.87754 0.71303 0.03533 0.0
O1707 O 0.89265 0.71632 0.03577 0.0
H1708 H 0.87773 0.73524 0.03732 0.0
H1709 H 0.87391 0.74861 0.04731 0.0
H1710 H 0.8751 0.76673 0.02327 0.0
H1711 H 0.87868 0.75322 0.01328 0.0
H1712 H 0.89868 0.71467 0.98015 0.0
H1713 H 0.89831 0.71605 0.99721 0.0
H1714 H 0.87767 0.69274 0.9812 0.0
H1715 H 0.87732 0.6941 0.99823 0.0
H1716 H 0.88903 0.68069 0.04144 0.0
H1717 H 0.8904 0.69636 0.06741 0.0
H1718 H 0.8879 0.71086 0.0588 0.0
H1719 H 0.88677 0.69528 0.03287 0.0
C1720 C 0.61212 0.27412 0.49521 0.0
C1721 C 0.60599 0.28143 0.49297 0.0
C1722 C 0.60944 0.27939 0.47643 0.0
C1723 C 0.60462 0.284 0.48366 0.0
C1724 C 0.61563 0.2721 0.47871 0.0
C1725 C 0.61692 0.26947 0.48803 0.0
U1726 U 0.61298 0.28075 0.52089 0.0
O1727 O 0.6229 0.27707 0.53208 0.0
O1728 O 0.60793 0.27336 0.53337 0.0
C1729 C 0.61645 0.27263 0.53693 0.0
C1730 C 0.61373 0.27149 0.50502 0.0
C1731 C 0.619 0.26343 0.54081 0.0
C1732 C 0.6306 0.25144 0.54415 0.0
C1733 C 0.6279 0.25947 0.53932 0.0
C1734 C 0.61541 0.25096 0.55172 0.0
C1735 C 0.62446 0.24722 0.55057 0.0
C1736 C 0.61273 0.259 0.54693 0.0
C1737 C 0.60805 0.30546 0.52869 0.0
C1738 C 0.60643 0.30898 0.54524 0.0
C1739 C 0.60954 0.32148 0.53432 0.0
C1740 C 0.60951 0.31499 0.52694 0.0
C1741 C 0.60812 0.31853 0.54358 0.0
C1742 C 0.60646 0.30251 0.53788 0.0
C1743 C 0.60881 0.29858 0.52105 0.0
O1744 O 0.62117 0.27536 0.50901 0.0
O1745 O 0.60624 0.27158 0.51038 0.0
O1746 O 0.6024 0.29191 0.52096 0.0
O1747 O 0.61737 0.29547 0.51963 0.0
H1748 H 0.6023 0.2852 0.49842 0.0
H1749 H 0.59993 0.28974 0.48213 0.0
H1750 H 0.6194 0.2684 0.47328 0.0
H1751 H 0.62172 0.26384 0.48965 0.0
H1752 H 0.63765 0.24879 0.54316 0.0
H1753 H 0.63292 0.26274 0.53469 0.0
H1754 H 0.61045 0.2478 0.5565 0.0
H1755 H 0.60585 0.26192 0.54824 0.0
H1756 H 0.60516 0.30648 0.55226 0.0
H1757 H 0.61097 0.32875 0.5328 0.0
H1758 H 0.61084 0.31737 0.51989 0.0
H1759 H 0.60538 0.29517 0.53939 0.0
C1760 C 0.23929 0.48516 0.12615 0.0
C1761 C 0.2379 0.47549 0.1251 0.0
C1762 C 0.25305 0.47256 0.13249 0.0
C1763 C 0.24471 0.46925 0.12822 0.0
C1764 C 0.25449 0.48227 0.13339 0.0
C1765 C 0.24763 0.48853 0.13026 0.0
U1766 U 0.2148 0.48816 0.11693 0.0
O1767 O 0.20326 0.49737 0.12117 0.0
O1768 O 0.20859 0.49788 0.10679 0.0
C1769 C 0.20294 0.50158 0.11303 0.0
C1770 C 0.23182 0.49159 0.12329 0.0
C1771 C 0.20277 0.51183 0.11343 0.0
C1772 C 0.20915 0.52669 0.11892 0.0
C1773 C 0.20974 0.51695 0.11826 0.0
C1774 C 0.19474 0.52626 0.10977 0.0
C1775 C 0.2016 0.53146 0.11474 0.0
C1776 C 0.19533 0.51654 0.10913 0.0
C1777 C 0.20077 0.4658 0.11191 0.0
C1778 C 0.18377 0.46537 0.11005 0.0
C1779 C 0.19293 0.45146 0.107 0.0
C1780 C 0.20118 0.45639 0.1092 0.0
C1781 C 0.18412 0.45586 0.10753 0.0
C1782 C 0.19204 0.47032 0.11219 0.0
C1783 C 0.20946 0.47068 0.11478 0.0
O1784 O 0.22971 0.49138 0.11432 0.0
O1785 O 0.22435 0.49146 0.12867 0.0
O1786 O 0.20901 0.47522 0.12279 0.0
O1787 O 0.21376 0.47542 0.10821 0.0
H1788 H 0.23149 0.47277 0.12193 0.0
H1789 H 0.24345 0.46183 0.12727 0.0
H1790 H 0.26081 0.48503 0.1367 0.0
H1791 H 0.24879 0.49598 0.13116 0.0
H1792 H 0.21459 0.5305 0.12272 0.0
H1793 H 0.21556 0.5134 0.12159 0.0
H1794 H 0.18877 0.52969 0.10658 0.0
H1795 H 0.18988 0.51268 0.1054 0.0
H1796 H 0.1771 0.46897 0.11042 0.0
H1797 H 0.19343 0.44411 0.10519 0.0
H1798 H 0.20786 0.4528 0.10896 0.0
H1799 H 0.19161 0.47762 0.11423 0.0
C1800 C 0.28172 0.51026 0.88129 0.0
C1801 C 0.29064 0.512 0.88518 0.0
C1802 C 0.28932 0.52852 0.88151 0.0
C1803 C 0.29439 0.52103 0.88532 0.0
C1804 C 0.28029 0.52678 0.87775 0.0
C1805 C 0.27653 0.51769 0.87762 0.0
U1806 U 0.28675 0.48489 0.88434 0.0
O1807 O 0.27867 0.47321 0.89023 0.0
O1808 O 0.28352 0.47249 0.87568 0.0
C1809 C 0.27855 0.46851 0.88229 0.0
C1810 C 0.27815 0.50061 0.88074 0.0
C1811 C 0.2694 0.46464 0.87935 0.0
C1812 C 0.25285 0.46639 0.87544 0.0
C1813 C 0.26148 0.47033 0.87824 0.0
C1814 C 0.26006 0.4511 0.87479 0.0
C1815 C 0.25204 0.45671 0.87372 0.0
C1816 C 0.26864 0.45503 0.87759 0.0
C1817 C 0.31156 0.47879 0.89232 0.0
C1818 C 0.31658 0.46268 0.89384 0.0
C1819 C 0.32763 0.47534 0.89686 0.0
C1820 C 0.32061 0.48183 0.89488 0.0
C1821 C 0.32572 0.46569 0.8963 0.0
C1822 C 0.30955 0.46918 0.89185 0.0
C1823 C 0.30437 0.48569 0.88991 0.0
O1824 O 0.28211 0.49545 0.87424 0.0
O1825 O 0.2775 0.49633 0.88883 0.0
O1826 O 0.29723 0.48622 0.89568 0.0
O1827 O 0.30182 0.48573 0.88107 0.0
H1828 H 0.29475 0.50633 0.88804 0.0
H1829 H 0.30128 0.52214 0.88843 0.0
H1830 H 0.27624 0.53239 0.87471 0.0
H1831 H 0.26964 0.51645 0.87454 0.0
H1832 H 0.24679 0.47089 0.87474 0.0
H1833 H 0.26197 0.47779 0.87956 0.0
H1834 H 0.25975 0.44366 0.87335 0.0
H1835 H 0.27472 0.45056 0.87836 0.0
H1836 H 0.3149 0.4553 0.89324 0.0
H1837 H 0.33456 0.47789 0.89886 0.0
H1838 H 0.32225 0.48923 0.89529 0.0
H1839 H 0.30259 0.46673 0.88984 0.0
C1840 C 0.28071 0.49026 0.62021 0.0
C1841 C 0.29028 0.48869 0.61851 0.0
C1842 C 0.28789 0.47194 0.62031 0.0
C1843 C 0.29384 0.47963 0.61856 0.0
C1844 C 0.27827 0.47354 0.62194 0.0
C1845 C 0.27471 0.48265 0.62191 0.0
U1846 U 0.28554 0.51575 0.61654 0.0
O1847 O 0.28156 0.5283 0.62447 0.0
O1848 O 0.27732 0.52681 0.60972 0.0
C1849 C 0.27665 0.53174 0.61749 0.0
C1850 C 0.27711 0.49985 0.62017 0.0
C1851 C 0.26721 0.53509 0.61984 0.0
C1852 C 0.25255 0.53372 0.62841 0.0
C1853 C 0.26125 0.53003 0.62578 0.0
C1854 C 0.25558 0.5474 0.61896 0.0
C1855 C 0.24967 0.5425 0.6251 0.0
C1856 C 0.26427 0.54373 0.61637 0.0
C1857 C 0.31041 0.5229 0.60984 0.0
C1858 C 0.31436 0.53887 0.60567 0.0
C1859 C 0.32676 0.5277 0.60859 0.0
C1860 C 0.32001 0.5208 0.61035 0.0
C1861 C 0.32401 0.53682 0.60626 0.0
C1862 C 0.30761 0.53197 0.60749 0.0
C1863 C 0.30342 0.51566 0.61207 0.0
O1864 O 0.28068 0.50535 0.62671 0.0
O1865 O 0.27686 0.50377 0.61189 0.0
O1866 O 0.29659 0.5145 0.60592 0.0
O1867 O 0.30045 0.51577 0.62076 0.0
H1868 H 0.295 0.49449 0.61713 0.0
H1869 H 0.30123 0.47864 0.6171 0.0
H1870 H 0.27354 0.46776 0.62336 0.0
H1871 H 0.2673 0.48376 0.62323 0.0
H1872 H 0.24811 0.52975 0.63308 0.0
H1873 H 0.26339 0.52332 0.62848 0.0
H1874 H 0.25363 0.55422 0.61638 0.0
H1875 H 0.2688 0.54773 0.6118 0.0
H1876 H 0.31202 0.54586 0.60401 0.0
H1877 H 0.33414 0.52588 0.609 0.0
H1878 H 0.32228 0.51382 0.61218 0.0
H1879 H 0.30021 0.53373 0.60715 0.0
C1880 C 0.2342 0.51372 0.37169 0.0
C1881 C 0.23303 0.52343 0.37119 0.0
C1882 C 0.24947 0.52542 0.36691 0.0
C1883 C 0.24057 0.52922 0.3688 0.0
C1884 C 0.2506 0.51565 0.36738 0.0
C1885 C 0.24301 0.50985 0.36975 0.0
U1886 U 0.20993 0.51198 0.38166 0.0
O1887 O 0.19739 0.50396 0.37729 0.0
O1888 O 0.20333 0.50211 0.39137 0.0
C1889 C 0.19705 0.49928 0.38516 0.0
C1890 C 0.22625 0.50773 0.37439 0.0
C1891 C 0.19585 0.48912 0.38413 0.0
C1892 C 0.20212 0.47358 0.38145 0.0
C1893 C 0.20353 0.48324 0.38248 0.0
C1894 C 0.18537 0.47568 0.38366 0.0
C1895 C 0.19301 0.46971 0.38198 0.0
C1896 C 0.18679 0.48529 0.38472 0.0
C1897 C 0.19819 0.5347 0.38891 0.0
C1898 C 0.18194 0.535 0.39403 0.0
C1899 C 0.19089 0.54944 0.39296 0.0
C1900 C 0.19873 0.54442 0.38996 0.0
C1901 C 0.18238 0.5448 0.39495 0.0
C1902 C 0.18979 0.52999 0.39103 0.0
C1903 C 0.20632 0.5296 0.38526 0.0
O1904 O 0.22461 0.50746 0.38343 0.0
O1905 O 0.21857 0.50882 0.36935 0.0
O1906 O 0.20502 0.52571 0.37699 0.0
O1907 O 0.21057 0.5241 0.39124 0.0
H1908 H 0.22626 0.52655 0.37268 0.0
H1909 H 0.2394 0.53668 0.36836 0.0
H1910 H 0.25738 0.51251 0.36608 0.0
H1911 H 0.24404 0.50237 0.37015 0.0
H1912 H 0.20813 0.46917 0.38009 0.0
H1913 H 0.21058 0.48611 0.38196 0.0
H1914 H 0.17828 0.47291 0.38424 0.0
H1915 H 0.18079 0.48975 0.38601 0.0
H1916 H 0.17551 0.53122 0.39559 0.0
H1917 H 0.19143 0.55698 0.39345 0.0
H1918 H 0.20516 0.54815 0.3883 0.0
H1919 H 0.18929 0.52246 0.39026 0.0
P1920 P 0.10024 0.35527 0.10491 0.0
H1921 H 0.09171 0.34247 0.11821 0.0
H1922 H 0.07888 0.34431 0.12928 0.0
H1923 H 0.07219 0.37107 0.11715 0.0
H1924 H 0.08525 0.36924 0.1062 0.0
H1925 H 0.11331 0.35247 0.08977 0.0
H1926 H 0.11203 0.34475 0.07453 0.0
H1927 H 0.08275 0.33854 0.07982 0.0
H1928 H 0.0841 0.3463 0.09514 0.0
H1929 H 0.10973 0.367 0.1187 0.0
H1930 H 0.10148 0.36911 0.08972 0.0
O1931 O 0.10788 0.34865 0.11074 0.0
H1932 H 0.11732 0.38237 0.1179 0.0
H1933 H 0.10916 0.38445 0.08884 0.0
C1934 C 0.08956 0.35583 0.11157 0.0
C1935 C 0.08739 0.34867 0.11784 0.0
C1936 C 0.07998 0.3497 0.12412 0.0
C1937 C 0.07456 0.3579 0.12419 0.0
C1938 C 0.07634 0.36475 0.1174 0.0
C1939 C 0.08378 0.3637 0.11111 0.0
C1940 C 0.09878 0.35007 0.09351 0.0
C1941 C 0.10658 0.34954 0.0876 0.0
C1942 C 0.10583 0.34516 0.07888 0.0
C1943 C 0.09727 0.3411 0.07594 0.0
C1944 C 0.08944 0.34159 0.08191 0.0
C1945 C 0.09019 0.34606 0.09064 0.0
C1946 C 0.10529 0.36681 0.10422 0.0
C1947 C 0.10955 0.37078 0.11217 0.0
C1948 C 0.11382 0.37959 0.11172 0.0
C1949 C 0.11389 0.38457 0.10329 0.0
C1950 C 0.10933 0.3807 0.09539 0.0
C1951 C 0.10497 0.37192 0.09589 0.0
P1952 P 0.92366 0.87939 0.41555 0.0
H1953 H 0.93453 0.86704 0.42751 0.0
H1954 H 0.93008 0.854 0.43757 0.0
H1955 H 0.90141 0.85585 0.42752 0.0
H1956 H 0.90596 0.86871 0.41736 0.0
H1957 H 0.93598 0.89027 0.40375 0.0
H1958 H 0.94163 0.88807 0.3878 0.0
H1959 H 0.92751 0.86124 0.38634 0.0
H1960 H 0.92199 0.86344 0.40243 0.0
H1961 H 0.91598 0.89496 0.42639 0.0
H1962 H 0.90881 0.87957 0.40127 0.0
O1963 O 0.93159 0.88534 0.42191 0.0
H1964 H 0.90224 0.9049 0.42416 0.0
H1965 H 0.89491 0.88925 0.39913 0.0
C1966 C 0.92054 0.86898 0.42187 0.0
C1967 C 0.92731 0.86456 0.4274 0.0
C1968 C 0.92475 0.85714 0.43317 0.0
C1969 C 0.91535 0.85398 0.43346 0.0
C1970 C 0.90871 0.85808 0.42746 0.0
C1971 C 0.91129 0.86551 0.42169 0.0
C1972 C 0.92872 0.87695 0.40431 0.0
C1973 C 0.93425 0.88383 0.40006 0.0
C1974 C 0.9374 0.88261 0.39091 0.0
C1975 C 0.93498 0.8745 0.38579 0.0
C1976 C 0.92958 0.86751 0.39015 0.0
C1977 C 0.92642 0.86876 0.39933 0.0
C1978 C 0.91351 0.88666 0.4139 0.0
C1979 C 0.91145 0.89373 0.42039 0.0
C1980 C 0.90354 0.89936 0.41914 0.0
C1981 C 0.89748 0.89792 0.41143 0.0
C1982 C 0.89952 0.89069 0.40503 0.0
C1983 C 0.90745 0.88512 0.40626 0.0
P1984 P 0.42179 0.62579 0.58662 0.0
H1985 H 0.43192 0.63805 0.57393 0.0
H1986 H 0.42715 0.65158 0.56477 0.0
H1987 H 0.39937 0.65003 0.57684 0.0
H1988 H 0.40427 0.63659 0.58612 0.0
H1989 H 0.43289 0.61428 0.59899 0.0
H1990 H 0.44026 0.61711 0.61422 0.0
H1991 H 0.43072 0.64574 0.61364 0.0
H1992 H 0.42313 0.64274 0.5985 0.0
H1993 H 0.41104 0.6136 0.57408 0.0
H1994 H 0.41016 0.62189 0.60313 0.0
O1995 O 0.42934 0.61994 0.57989 0.0
H1996 H 0.39768 0.60302 0.5765 0.0
H1997 H 0.3968 0.61137 0.60559 0.0
C1998 C 0.41838 0.6362 0.58052 0.0
C1999 C 0.42481 0.64065 0.57463 0.0
C2000 C 0.42207 0.64836 0.56937 0.0
C2001 C 0.41284 0.65181 0.56997 0.0
C2002 C 0.40653 0.64757 0.57623 0.0
C2003 C 0.4093 0.63984 0.58148 0.0
C2004 C 0.4276 0.62833 0.59756 0.0
C2005 C 0.43247 0.62118 0.60211 0.0
C2006 C 0.43671 0.62283 0.61081 0.0
C2007 C 0.43616 0.63168 0.61513 0.0
C2008 C 0.43123 0.63883 0.61054 0.0
C2009 C 0.42695 0.63715 0.60184 0.0
C2010 C 0.41172 0.61836 0.58846 0.0
C2011 C 0.40796 0.61314 0.58097 0.0
C2012 C 0.40029 0.60715 0.58235 0.0
C2013 C 0.39624 0.6063 0.59126 0.0
C2014 C 0.39988 0.61175 0.59869 0.0
C2015 C 0.40752 0.61778 0.59729 0.0
P2016 P 0.60388 0.1434 0.89601 0.0
H2017 H 0.59771 0.15507 0.8805 0.0
H2018 H 0.58496 0.15338 0.86914 0.0
H2019 H 0.57437 0.12943 0.88417 0.0
H2020 H 0.58733 0.1311 0.89545 0.0
H2021 H 0.61463 0.143 0.91336 0.0
H2022 H 0.61286 0.15102 0.92837 0.0
H2023 H 0.58713 0.16356 0.91846 0.0
H2024 H 0.58891 0.15542 0.90343 0.0
H2025 H 0.6148 0.13231 0.883 0.0
H2026 H 0.60225 0.1285 0.91011 0.0
O2027 O 0.61207 0.15002 0.89093 0.0
H2028 H 0.62092 0.11638 0.88348 0.0
H2029 H 0.60855 0.1126 0.91072 0.0
C2030 C 0.59355 0.1431 0.8887 0.0
C2031 C 0.59258 0.14953 0.88143 0.0
C2032 C 0.58522 0.14859 0.87497 0.0
C2033 C 0.57867 0.14121 0.87569 0.0
C2034 C 0.57938 0.1351 0.88333 0.0
C2035 C 0.58675 0.13606 0.8898 0.0
C2036 C 0.60176 0.1484 0.90738 0.0
C2037 C 0.60848 0.14728 0.91449 0.0
C2038 C 0.60746 0.15188 0.92307 0.0
C2039 C 0.59981 0.15786 0.92461 0.0
C2040 C 0.59309 0.15898 0.91746 0.0
C2041 C 0.59406 0.15429 0.9089 0.0
C2042 C 0.60835 0.13168 0.89665 0.0
C2043 C 0.61343 0.12806 0.88909 0.0
C2044 C 0.61686 0.11895 0.88934 0.0
C2045 C 0.61526 0.11329 0.89717 0.0
C2046 C 0.60999 0.11687 0.90467 0.0
C2047 C 0.60644 0.12596 0.90434 0.0
P2048 P 0.10314 0.64574 0.39357 0.0
H2049 H 0.09496 0.6575 0.37922 0.0
H2050 H 0.08127 0.6555 0.36907 0.0
H2051 H 0.07283 0.63118 0.38483 0.0
H2052 H 0.08676 0.63315 0.39485 0.0
H2053 H 0.11727 0.65798 0.40188 0.0
H2054 H 0.11795 0.6669 0.41644 0.0
H2055 H 0.0896 0.65802 0.42288 0.0
H2056 H 0.08893 0.64916 0.40809 0.0
H2057 H 0.10571 0.6292 0.38203 0.0
H2058 H 0.10916 0.63672 0.41115 0.0
O2059 O 0.11102 0.65015 0.38618 0.0
H2060 H 0.11239 0.61384 0.38513 0.0
H2061 H 0.1157 0.62133 0.41432 0.0
C2062 C 0.09198 0.64534 0.38761 0.0
C2063 C 0.09008 0.65183 0.38059 0.0
C2064 C 0.08218 0.65071 0.37482 0.0
C2065 C 0.07599 0.6431 0.37604 0.0
C2066 C 0.07756 0.63701 0.38358 0.0
C2067 C 0.08549 0.63814 0.38934 0.0
C2068 C 0.10299 0.65307 0.40383 0.0
C2069 C 0.11113 0.65807 0.40633 0.0
C2070 C 0.11155 0.66309 0.41472 0.0
C2071 C 0.10385 0.66312 0.42084 0.0
C2072 C 0.09561 0.6582 0.41826 0.0
C2073 C 0.09521 0.65315 0.40982 0.0
C2074 C 0.10695 0.6341 0.39633 0.0
C2075 C 0.10776 0.62748 0.38912 0.0
C2076 C 0.11153 0.61868 0.39092 0.0
C2077 C 0.1146 0.61636 0.39997 0.0
C2078 C 0.1135 0.62294 0.40725 0.0
C2079 C 0.10972 0.63174 0.40544 0.0
P2080 P 0.59922 0.85521 0.60616 0.0
H2081 H 0.58964 0.84211 0.61843 0.0
H2082 H 0.57645 0.84389 0.62915 0.0
H2083 H 0.5718 0.87181 0.61883 0.0
H2084 H 0.5851 0.87 0.60818 0.0
H2085 H 0.61126 0.85493 0.58983 0.0
H2086 H 0.61006 0.84708 0.57466 0.0
H2087 H 0.58278 0.83606 0.58219 0.0
H2088 H 0.58399 0.84405 0.5974 0.0
H2089 H 0.61054 0.86553 0.61976 0.0
H2090 H 0.59946 0.87016 0.59205 0.0
O2091 O 0.6065 0.84813 0.61189 0.0
H2092 H 0.61842 0.88077 0.61943 0.0
H2093 H 0.60747 0.88539 0.59161 0.0
C2094 C 0.58848 0.85601 0.6127 0.0
C2095 C 0.5857 0.84857 0.61839 0.0
C2096 C 0.5781 0.84957 0.62446 0.0
C2097 C 0.57314 0.85804 0.62492 0.0
C2098 C 0.57559 0.86527 0.61875 0.0
C2099 C 0.58317 0.86423 0.61265 0.0
C2100 C 0.59761 0.8503 0.59463 0.0
C2101 C 0.60491 0.85102 0.58814 0.0
C2102 C 0.60422 0.84652 0.57947 0.0
C2103 C 0.59629 0.84102 0.57721 0.0
C2104 C 0.58897 0.84027 0.58375 0.0
C2105 C 0.58963 0.84488 0.59241 0.0
C2106 C 0.60469 0.86659 0.60581 0.0
C2107 C 0.60984 0.86982 0.61359 0.0
C2108 C 0.61426 0.87856 0.61343 0.0
C2109 C 0.61361 0.88422 0.60547 0.0
C2110 C 0.6082 0.88109 0.59778 0.0
C2111 C 0.60366 0.87239 0.59801 0.0
P2112 P 0.42366 0.37735 0.91472 0.0
H2113 H 0.43227 0.36523 0.92867 0.0
H2114 H 0.42617 0.35221 0.93784 0.0
H2115 H 0.39958 0.35401 0.92314 0.0
H2116 H 0.40568 0.36718 0.91416 0.0
H2117 H 0.4404 0.38327 0.90453 0.0
H2118 H 0.44576 0.38027 0.88861 0.0
H2119 H 0.42235 0.36126 0.8842 0.0
H2120 H 0.41693 0.36445 0.90009 0.0
H2121 H 0.40949 0.38462 0.92748 0.0
H2122 H 0.41748 0.38868 0.89872 0.0
O2123 O 0.43212 0.38248 0.92112 0.0
H2124 H 0.39689 0.39606 0.92565 0.0
H2125 H 0.40487 0.39995 0.8968 0.0
C2126 C 0.41936 0.36728 0.92089 0.0
C2127 C 0.42513 0.3628 0.92741 0.0
C2128 C 0.42166 0.35531 0.9326 0.0
C2129 C 0.41235 0.3521 0.93128 0.0
C2130 C 0.40671 0.35641 0.92445 0.0
C2131 C 0.4102 0.36391 0.91929 0.0
C2132 C 0.42836 0.37396 0.90355 0.0
C2133 C 0.43653 0.37831 0.90021 0.0
C2134 C 0.43959 0.37657 0.89109 0.0
C2135 C 0.43449 0.37051 0.88512 0.0
C2136 C 0.4264 0.36602 0.88859 0.0
C2137 C 0.42334 0.36777 0.89771 0.0
C2138 C 0.41432 0.38567 0.91321 0.0
C2139 C 0.40848 0.38791 0.92075 0.0
C2140 C 0.40127 0.39443 0.91969 0.0
C2141 C 0.39985 0.39889 0.91107 0.0
C2142 C 0.40582 0.3967 0.90356 0.0
C2143 C 0.41301 0.39018 0.90463 0.0
P2144 P 0.92132 0.12527 0.08442 0.0
H2145 H 0.93199 0.13952 0.07466 0.0
H2146 H 0.92744 0.15361 0.06624 0.0
H2147 H 0.89839 0.14866 0.07361 0.0
H2148 H 0.90302 0.13467 0.08213 0.0
H2149 H 0.93534 0.11518 0.09512 0.0
H2150 H 0.942 0.11742 0.11075 0.0
H2151 H 0.92487 0.14201 0.11454 0.0
H2152 H 0.91842 0.13983 0.09874 0.0
H2153 H 0.91465 0.10944 0.07308 0.0
H2154 H 0.90634 0.12374 0.09834 0.0
O2155 O 0.92939 0.12019 0.07767 0.0
H2156 H 0.90173 0.0983 0.07496 0.0
H2157 H 0.8932 0.11282 0.10013 0.0
C2158 C 0.91783 0.13595 0.07885 0.0
C2159 C 0.92465 0.14149 0.07448 0.0
C2160 C 0.92203 0.14952 0.06965 0.0
C2161 C 0.91253 0.1522 0.06916 0.0
C2162 C 0.90576 0.14681 0.07388 0.0
C2163 C 0.9084 0.13876 0.07871 0.0
C2164 C 0.92654 0.12744 0.09572 0.0
C2165 C 0.93312 0.12113 0.09927 0.0
C2166 C 0.93684 0.12236 0.10825 0.0
C2167 C 0.93396 0.12989 0.11392 0.0
C2168 C 0.92735 0.13622 0.11032 0.0
C2169 C 0.92364 0.13498 0.10129 0.0
C2170 C 0.91155 0.1173 0.08567 0.0
C2171 C 0.91002 0.1102 0.07902 0.0
C2172 C 0.90256 0.10387 0.08006 0.0
C2173 C 0.89643 0.10461 0.08773 0.0
C2174 C 0.89788 0.11191 0.09425 0.0
C2175 C 0.90538 0.1182 0.09322 0.0
P2176 P 0.09996 0.07895 0.36641 0.0
H2177 H 0.09468 0.06828 0.34971 0.0
H2178 H 0.08571 0.07225 0.33563 0.0
H2179 H 0.08329 0.10071 0.34571 0.0
H2180 H 0.09248 0.09679 0.35948 0.0
H2181 H 0.11228 0.0688 0.37884 0.0
H2182 H 0.12821 0.06267 0.37721 0.0
H2183 H 0.12894 0.07229 0.34866 0.0
H2184 H 0.11299 0.07846 0.35036 0.0
H2185 H 0.08738 0.08707 0.3803 0.0
H2186 H 0.11493 0.09291 0.3692 0.0
O2187 O 0.0932 0.07094 0.37156 0.0
H2188 H 0.08859 0.10094 0.39035 0.0
H2189 H 0.11634 0.1066 0.37942 0.0
C2190 C 0.09427 0.08222 0.35564 0.0
C2191 C 0.09232 0.0754 0.34879 0.0
C2192 C 0.08714 0.07767 0.34079 0.0
C2193 C 0.08373 0.0868 0.33953 0.0
C2194 C 0.08591 0.09365 0.34634 0.0
C2195 C 0.09113 0.09138 0.3543 0.0
C2196 C 0.1114 0.07393 0.36469 0.0
C2197 C 0.11584 0.0695 0.3722 0.0
C2198 C 0.12496 0.06607 0.37128 0.0
C2199 C 0.12982 0.067 0.3628 0.0
C2200 C 0.12532 0.07137 0.35523 0.0
C2201 C 0.1162 0.0749 0.3562 0.0
C2202 C 0.10115 0.08886 0.37417 0.0
C2203 C 0.09375 0.09126 0.38014 0.0
C2204 C 0.09447 0.09918 0.3859 0.0
C2205 C 0.10259 0.10487 0.38575 0.0
C2206 C 0.10996 0.10244 0.37967 0.0
C2207 C 0.10921 0.09455 0.37389 0.0
P2208 P 0.13732 0.88876 0.61679 0.0
H2209 H 0.15049 0.8765 0.60724 0.0
H2210 H 0.14871 0.86593 0.59383 0.0
H2211 H 0.12084 0.87676 0.58875 0.0
H2212 H 0.12266 0.88727 0.60224 0.0
H2213 H 0.14238 0.90261 0.63079 0.0
H2214 H 0.15132 0.91722 0.63028 0.0
H2215 H 0.15463 0.9138 0.60041 0.0
H2216 H 0.1457 0.89909 0.60101 0.0
H2217 H 0.12405 0.87534 0.62427 0.0
H2218 H 0.12481 0.90503 0.61926 0.0
O2219 O 0.14339 0.88225 0.6243 0.0
H2220 H 0.10829 0.87678 0.63087 0.0
H2221 H 0.10907 0.90653 0.62594 0.0
C2222 C 0.13662 0.88246 0.60586 0.0
C2223 C 0.14406 0.8767 0.60315 0.0
C2224 C 0.14305 0.87071 0.59543 0.0
C2225 C 0.13458 0.87042 0.5903 0.0
C2226 C 0.12738 0.87671 0.59267 0.0
C2227 C 0.12842 0.88272 0.60037 0.0
C2228 C 0.14337 0.8998 0.61595 0.0
C2229 C 0.14496 0.90505 0.62412 0.0
C2230 C 0.15003 0.91342 0.6238 0.0
C2231 C 0.15366 0.91668 0.61529 0.0
C2232 C 0.15198 0.91143 0.60708 0.0
C2233 C 0.14684 0.90305 0.60741 0.0
C2234 C 0.12567 0.89009 0.62147 0.0
C2235 C 0.12083 0.88217 0.62462 0.0
C2236 C 0.1118 0.88299 0.62832 0.0
C2237 C 0.10747 0.89178 0.62896 0.0
C2238 C 0.11229 0.8997 0.62565 0.0
C2239 C 0.1213 0.89884 0.62184 0.0
P2240 P 0.40306 0.92425 0.86935 0.0
H2241 H 0.41815 0.93204 0.85785 0.0
H2242 H 0.4261 0.92625 0.84387 0.0
H2243 H 0.40738 0.90231 0.84308 0.0
H2244 H 0.39957 0.90808 0.85716 0.0
H2245 H 0.38966 0.93226 0.88227 0.0
H2246 H 0.37367 0.93817 0.88038 0.0
H2247 H 0.37517 0.93288 0.85062 0.0
H2248 H 0.39121 0.92711 0.85255 0.0
H2249 H 0.41633 0.91551 0.8822 0.0
H2250 H 0.3878 0.91083 0.87276 0.0
O2251 O 0.40992 0.93229 0.87452 0.0
H2252 H 0.41534 0.90153 0.89193 0.0
H2253 H 0.38665 0.89705 0.88262 0.0
C2254 C 0.40839 0.9204 0.85862 0.0
C2255 C 0.41574 0.92557 0.85465 0.0
C2256 C 0.42023 0.92228 0.84661 0.0
C2257 C 0.41742 0.91378 0.84239 0.0
C2258 C 0.40982 0.90879 0.84625 0.0
C2259 C 0.40534 0.91209 0.85428 0.0
C2260 C 0.3916 0.92923 0.86757 0.0
C2261 C 0.38657 0.93246 0.87533 0.0
C2262 C 0.37741 0.93577 0.87425 0.0
C2263 C 0.37313 0.93594 0.86536 0.0
C2264 C 0.3783 0.93291 0.85755 0.0
C2265 C 0.38746 0.92956 0.85865 0.0
C2266 C 0.40208 0.91431 0.87693 0.0
C2267 C 0.40981 0.91155 0.88234 0.0
C2268 C 0.40922 0.90357 0.88791 0.0
C2269 C 0.4009 0.89818 0.88809 0.0
C2270 C 0.39319 0.90098 0.88259 0.0
C2271 C 0.3938 0.90894 0.87702 0.0
P2272 P 0.3801 0.09813 0.0829 0.0
H2273 H 0.36836 0.08381 0.07385 0.0
H2274 H 0.35502 0.07452 0.0793 0.0
H2275 H 0.35531 0.09 0.10539 0.0
H2276 H 0.36878 0.09915 0.09993 0.0
H2277 H 0.39179 0.11115 0.07272 0.0
H2278 H 0.38899 0.12661 0.06621 0.0
H2279 H 0.35997 0.12498 0.075 0.0
H2280 H 0.36293 0.10962 0.08174 0.0
H2281 H 0.39178 0.08517 0.09329 0.0
H2282 H 0.38492 0.11448 0.09469 0.0
O2283 O 0.3857 0.09156 0.07504 0.0
H2284 H 0.40207 0.08705 0.107 0.0
H2285 H 0.39517 0.1164 0.10835 0.0
C2286 C 0.36967 0.09201 0.08657 0.0
C2287 C 0.36552 0.08523 0.08072 0.0
C2288 C 0.35784 0.07997 0.08383 0.0
C2289 C 0.35414 0.08145 0.09282 0.0
C2290 C 0.3581 0.08856 0.0985 0.0
C2291 C 0.36577 0.09381 0.09538 0.0
C2292 C 0.37756 0.10921 0.07761 0.0
C2293 C 0.38481 0.1141 0.07317 0.0
C2294 C 0.38318 0.12292 0.06941 0.0
C2295 C 0.37423 0.12704 0.07003 0.0
C2296 C 0.36696 0.12207 0.07448 0.0
C2297 C 0.36862 0.11324 0.07828 0.0
C2298 C 0.38776 0.09971 0.09286 0.0
C2299 C 0.39254 0.09202 0.09652 0.0
C2300 C 0.39836 0.09309 0.10438 0.0
C2301 C 0.39948 0.10189 0.10871 0.0
C2302 C 0.39458 0.10957 0.10507 0.0
C2303 C 0.38871 0.10847 0.09725 0.0
P2304 P 0.12008 0.89448 0.15247 0.0
H2305 H 0.13276 0.90515 0.16466 0.0
H2306 H 0.14317 0.91848 0.16191 0.0
H2307 H 0.13207 0.9208 0.13383 0.0
H2308 H 0.12169 0.9074 0.13662 0.0
H2309 H 0.10294 0.88319 0.15274 0.0
H2310 H 0.08833 0.8845 0.16151 0.0
H2311 H 0.09803 0.9107 0.17342 0.0
H2312 H 0.11263 0.90942 0.16449 0.0
H2313 H 0.13253 0.88132 0.14324 0.0
H2314 H 0.10594 0.89439 0.13731 0.0
O2315 O 0.12618 0.88783 0.15984 0.0
H2316 H 0.13154 0.8727 0.12848 0.0
H2317 H 0.10469 0.88551 0.12264 0.0
C2318 C 0.12662 0.90516 0.15078 0.0
C2319 C 0.13249 0.90859 0.15795 0.0
C2320 C 0.1384 0.91626 0.15638 0.0
C2321 C 0.13852 0.92064 0.14761 0.0
C2322 C 0.13224 0.91747 0.14061 0.0
C2323 C 0.1263 0.90983 0.1422 0.0
C2324 C 0.10876 0.89635 0.15772 0.0
C2325 C 0.10182 0.88937 0.157 0.0
C2326 C 0.09347 0.89011 0.16204 0.0
C2327 C 0.09201 0.89773 0.1681 0.0
C2328 C 0.09896 0.90476 0.16879 0.0
C2329 C 0.10728 0.90406 0.16364 0.0
C2330 C 0.11917 0.88825 0.1415 0.0
C2331 C 0.12641 0.88224 0.1388 0.0
C2332 C 0.12581 0.87728 0.13037 0.0
C2333 C 0.11795 0.87827 0.12443 0.0
C2334 C 0.11084 0.88458 0.12702 0.0
C2335 C 0.11149 0.88958 0.13546 0.0
P2336 P 0.37862 0.90434 0.41576 0.0
H2337 H 0.36653 0.91838 0.42435 0.0
H2338 H 0.35369 0.92787 0.41826 0.0
H2339 H 0.35561 0.91346 0.39164 0.0
H2340 H 0.36862 0.90415 0.39775 0.0
H2341 H 0.38481 0.89386 0.43207 0.0
H2342 H 0.38106 0.87823 0.43773 0.0
H2343 H 0.36094 0.87459 0.41517 0.0
H2344 H 0.3649 0.89019 0.40945 0.0
H2345 H 0.38661 0.91716 0.40218 0.0
H2346 H 0.38948 0.88805 0.40926 0.0
O2347 O 0.38381 0.91066 0.42421 0.0
H2348 H 0.3984 0.91532 0.38991 0.0
H2349 H 0.40112 0.88613 0.39696 0.0
C2350 C 0.36864 0.91071 0.41144 0.0
C2351 C 0.36417 0.91725 0.41721 0.0
C2352 C 0.35677 0.92262 0.41373 0.0
C2353 C 0.35365 0.92148 0.40443 0.0
C2354 C 0.35794 0.91464 0.39878 0.0
C2355 C 0.36535 0.90929 0.40227 0.0
C2356 C 0.37499 0.89326 0.42045 0.0
C2357 C 0.37948 0.88976 0.42843 0.0
C2358 C 0.37731 0.88082 0.43167 0.0
C2359 C 0.37067 0.87516 0.42693 0.0
C2360 C 0.36614 0.87873 0.41895 0.0
C2361 C 0.36833 0.88769 0.41572 0.0
C2362 C 0.38706 0.90273 0.40655 0.0
C2363 C 0.38971 0.91036 0.40103 0.0
C2364 C 0.39642 0.90928 0.39401 0.0
C2365 C 0.40068 0.90056 0.39244 0.0
C2366 C 0.39804 0.89295 0.39804 0.0
C2367 C 0.39131 0.89404 0.40505 0.0
P2368 P 0.40449 0.07778 0.63003 0.0
H2369 H 0.41771 0.06944 0.64323 0.0
H2370 H 0.42611 0.07568 0.65691 0.0
H2371 H 0.4118 0.10204 0.65363 0.0
H2372 H 0.40361 0.0958 0.63984 0.0
H2373 H 0.39379 0.06237 0.62165 0.0
H2374 H 0.37801 0.05615 0.62445 0.0
H2375 H 0.37432 0.07642 0.6467 0.0
H2376 H 0.39019 0.08238 0.64403 0.0
H2377 H 0.41798 0.08741 0.61822 0.0
H2378 H 0.38831 0.08915 0.62415 0.0
O2379 O 0.41127 0.06959 0.6252 0.0
H2380 H 0.41674 0.10099 0.60799 0.0
H2381 H 0.38698 0.10256 0.61384 0.0
C2382 C 0.41021 0.08222 0.64042 0.0
C2383 C 0.4164 0.07656 0.64546 0.0
C2384 C 0.42113 0.08012 0.65333 0.0
C2385 C 0.41968 0.08939 0.65633 0.0
C2386 C 0.41322 0.09493 0.65141 0.0
C2387 C 0.40851 0.09137 0.64353 0.0
C2388 C 0.39323 0.07271 0.63274 0.0
C2389 C 0.38964 0.06536 0.62723 0.0
C2390 C 0.38057 0.06187 0.62878 0.0
C2391 C 0.37488 0.06578 0.6358 0.0
C2392 C 0.37856 0.07313 0.64135 0.0
C2393 C 0.38765 0.07657 0.63982 0.0
C2394 C 0.40323 0.08718 0.62184 0.0
C2395 C 0.41117 0.09062 0.61719 0.0
C2396 C 0.41045 0.09836 0.61134 0.0
C2397 C 0.40176 0.10285 0.61009 0.0
C2398 C 0.3938 0.09932 0.61472 0.0
C2399 C 0.39454 0.09159 0.62057 0.0
P2400 P 0.13723 0.11189 0.88452 0.0
H2401 H 0.15082 0.12325 0.89494 0.0
H2402 H 0.14917 0.13392 0.90826 0.0
H2403 H 0.12034 0.12482 0.9116 0.0
H2404 H 0.12205 0.11417 0.89827 0.0
H2405 H 0.14191 0.09808 0.87048 0.0
H2406 H 0.15098 0.08367 0.87086 0.0
H2407 H 0.15519 0.08723 0.90064 0.0
H2408 H 0.14612 0.10174 0.90018 0.0
H2409 H 0.12419 0.12507 0.87641 0.0
H2410 H 0.12458 0.09553 0.88217 0.0
O2411 O 0.14334 0.11858 0.87719 0.0
H2412 H 0.10846 0.12342 0.86954 0.0
H2413 H 0.10886 0.09381 0.87523 0.0
C2414 C 0.1365 0.11811 0.89548 0.0
C2415 C 0.14421 0.12343 0.89865 0.0
C2416 C 0.14327 0.12948 0.90631 0.0
C2417 C 0.13458 0.1303 0.9109 0.0
C2418 C 0.12707 0.12445 0.9081 0.0
C2419 C 0.12804 0.11835 0.90048 0.0
C2420 C 0.14331 0.10094 0.88529 0.0
C2421 C 0.1447 0.09571 0.87711 0.0
C2422 C 0.14985 0.08745 0.87735 0.0
C2423 C 0.15378 0.08428 0.88579 0.0
C2424 C 0.1523 0.08952 0.89402 0.0
C2425 C 0.14709 0.09779 0.89378 0.0
C2426 C 0.12563 0.1104 0.87959 0.0
C2427 C 0.1209 0.11823 0.87616 0.0
C2428 C 0.11189 0.11728 0.87231 0.0
C2429 C 0.10745 0.10848 0.87182 0.0
C2430 C 0.11216 0.10066 0.87541 0.0
C2431 C 0.12115 0.10163 0.87936 0.0
P2432 P 0.87911 0.40459 0.91596 0.0
H2433 H 0.86695 0.41858 0.92453 0.0
H2434 H 0.85385 0.42775 0.91851 0.0
H2435 H 0.8554 0.41281 0.89217 0.0
H2436 H 0.86867 0.40381 0.8982 0.0
H2437 H 0.88424 0.39528 0.93337 0.0
H2438 H 0.88093 0.3797 0.93939 0.0
H2439 H 0.86388 0.37359 0.91494 0.0
H2440 H 0.86709 0.38929 0.90905 0.0
H2441 H 0.88597 0.41709 0.90147 0.0
H2442 H 0.89097 0.38875 0.91025 0.0
O2443 O 0.8843 0.41114 0.92423 0.0
H2444 H 0.89767 0.41528 0.88911 0.0
H2445 H 0.9025 0.38685 0.89784 0.0
C2446 C 0.86889 0.41066 0.91174 0.0
C2447 C 0.86445 0.41726 0.91747 0.0
C2448 C 0.8569 0.42244 0.91404 0.0
C2449 C 0.85361 0.42107 0.90482 0.0
C2450 C 0.85787 0.41416 0.89923 0.0
C2451 C 0.86542 0.40898 0.90268 0.0
C2452 C 0.87578 0.39349 0.92083 0.0
C2453 C 0.87966 0.39065 0.92937 0.0
C2454 C 0.87783 0.3817 0.93277 0.0
C2455 C 0.87215 0.37538 0.92764 0.0
C2456 C 0.86816 0.37832 0.91913 0.0
C2457 C 0.87 0.38729 0.91575 0.0
C2458 C 0.88745 0.40301 0.90666 0.0
C2459 C 0.8895 0.41044 0.90066 0.0
C2460 C 0.89617 0.40939 0.89359 0.0
C2461 C 0.90099 0.40091 0.89246 0.0
C2462 C 0.89897 0.3935 0.89856 0.0
C2463 C 0.89229 0.39456 0.90562 0.0
P2464 P 0.90293 0.57874 0.12984 0.0
H2465 H 0.9164 0.57005 0.14256 0.0
H2466 H 0.92551 0.57609 0.15589 0.0
H2467 H 0.91226 0.60301 0.15273 0.0
H2468 H 0.90334 0.59696 0.13932 0.0
H2469 H 0.89056 0.56473 0.12131 0.0
H2470 H 0.87463 0.55936 0.12496 0.0
H2471 H 0.87453 0.57737 0.14938 0.0
H2472 H 0.89037 0.5828 0.14559 0.0
H2473 H 0.91603 0.58833 0.11759 0.0
H2474 H 0.88655 0.59002 0.12439 0.0
O2475 O 0.90915 0.5703 0.1247 0.0
H2476 H 0.91442 0.6018 0.10726 0.0
H2477 H 0.88483 0.60326 0.11393 0.0
C2478 C 0.90938 0.58312 0.13984 0.0
C2479 C 0.91549 0.57726 0.14474 0.0
C2480 C 0.92063 0.5807 0.1524 0.0
C2481 C 0.91967 0.59006 0.15534 0.0
C2482 C 0.91331 0.59583 0.15054 0.0
C2483 C 0.90819 0.59237 0.14288 0.0
C2484 C 0.89171 0.57402 0.13327 0.0
C2485 C 0.88716 0.56739 0.12753 0.0
C2486 C 0.87807 0.56432 0.12964 0.0
C2487 C 0.87332 0.56792 0.13747 0.0
C2488 C 0.87797 0.57451 0.14325 0.0
C2489 C 0.88706 0.57756 0.14114 0.0
C2490 C 0.9014 0.58809 0.12164 0.0
C2491 C 0.90918 0.59151 0.11673 0.0
C2492 C 0.90824 0.59918 0.11081 0.0
C2493 C 0.89949 0.60361 0.10976 0.0
C2494 C 0.89169 0.6001 0.11466 0.0
C2495 C 0.89265 0.59244 0.12059 0.0
P2496 P 0.63642 0.61064 0.38398 0.0
H2497 H 0.6499 0.62261 0.39383 0.0
H2498 H 0.64822 0.63394 0.40659 0.0
H2499 H 0.61927 0.62527 0.41007 0.0
H2500 H 0.62099 0.61399 0.39728 0.0
H2501 H 0.63801 0.59437 0.37197 0.0
H2502 H 0.64689 0.57992 0.37318 0.0
H2503 H 0.65613 0.58803 0.40097 0.0
H2504 H 0.6473 0.60261 0.39961 0.0
H2505 H 0.62614 0.62146 0.37014 0.0
H2506 H 0.62137 0.59674 0.38655 0.0
O2507 O 0.64316 0.61649 0.37647 0.0
H2508 H 0.61063 0.61963 0.36296 0.0
H2509 H 0.60566 0.59498 0.37959 0.0
C2510 C 0.63553 0.61762 0.39447 0.0
C2511 C 0.64324 0.62306 0.39744 0.0
C2512 C 0.64228 0.62948 0.40478 0.0
C2513 C 0.63357 0.63058 0.40927 0.0
C2514 C 0.62602 0.62469 0.40664 0.0
C2515 C 0.62701 0.61823 0.39933 0.0
C2516 C 0.64188 0.59949 0.38574 0.0
C2517 C 0.6418 0.59296 0.37839 0.0
C2518 C 0.64687 0.58468 0.37911 0.0
C2519 C 0.6522 0.58279 0.38719 0.0
C2520 C 0.65215 0.5893 0.39462 0.0
C2521 C 0.64704 0.59761 0.39389 0.0
C2522 C 0.62496 0.60913 0.37872 0.0
C2523 C 0.62174 0.61562 0.37219 0.0
C2524 C 0.61282 0.61461 0.36816 0.0
C2525 C 0.60688 0.60715 0.37069 0.0
C2526 C 0.6101 0.60072 0.37737 0.0
C2527 C 0.61907 0.60172 0.38137 0.0
P2528 P 0.904 0.42478 0.368 0.0
H2529 H 0.91778 0.43289 0.3552 0.0
H2530 H 0.92602 0.42654 0.34163 0.0
H2531 H 0.91015 0.40078 0.34402 0.0
H2532 H 0.90212 0.40712 0.35772 0.0
H2533 H 0.89153 0.43612 0.37929 0.0
H2534 H 0.87522 0.44103 0.37727 0.0
H2535 H 0.87459 0.42805 0.34985 0.0
H2536 H 0.89081 0.42299 0.35204 0.0
H2537 H 0.91824 0.41613 0.37974 0.0
H2538 H 0.88857 0.41251 0.37415 0.0
O2539 O 0.91063 0.43337 0.37256 0.0
H2540 H 0.91778 0.40292 0.39054 0.0
H2541 H 0.88806 0.39934 0.38487 0.0
C2542 C 0.90949 0.4204 0.35755 0.0
C2543 C 0.91607 0.42588 0.35278 0.0
C2544 C 0.92072 0.42226 0.34498 0.0
C2545 C 0.9188 0.41311 0.34177 0.0
C2546 C 0.91193 0.40778 0.34641 0.0
C2547 C 0.90731 0.4114 0.35422 0.0
C2548 C 0.89241 0.42929 0.36579 0.0
C2549 C 0.88791 0.43446 0.37279 0.0
C2550 C 0.8786 0.43729 0.37161 0.0
C2551 C 0.87359 0.43495 0.36339 0.0
C2552 C 0.8782 0.42989 0.35631 0.0
C2553 C 0.88752 0.42705 0.35752 0.0
C2554 C 0.90341 0.41543 0.37631 0.0
C2555 C 0.91161 0.41255 0.38092 0.0
C2556 C 0.91135 0.40497 0.38702 0.0
C2557 C 0.90287 0.40013 0.3886 0.0
C2558 C 0.89466 0.40303 0.38394 0.0
C2559 C 0.89495 0.41057 0.3778 0.0
P2560 P 0.60067 0.5791 0.86587 0.0
H2561 H 0.58486 0.57059 0.85562 0.0
H2562 H 0.57591 0.57548 0.84191 0.0
H2563 H 0.59462 0.59918 0.83872 0.0
H2564 H 0.60347 0.59428 0.85256 0.0
H2565 H 0.61595 0.57511 0.8787 0.0
H2566 H 0.6318 0.56899 0.87656 0.0
H2567 H 0.62676 0.56675 0.84679 0.0
H2568 H 0.61084 0.57283 0.849 0.0
H2569 H 0.58777 0.5871 0.87956 0.0
H2570 H 0.61485 0.59396 0.86794 0.0
O2571 O 0.59444 0.57093 0.87142 0.0
H2572 H 0.5885 0.6012 0.88935 0.0
H2573 H 0.6158 0.60787 0.87788 0.0
C2574 C 0.59474 0.58216 0.85518 0.0
C2575 C 0.58708 0.5768 0.85194 0.0
C2576 C 0.58201 0.57958 0.84405 0.0
C2577 C 0.58451 0.58776 0.83924 0.0
C2578 C 0.59242 0.59293 0.84234 0.0
C2579 C 0.5975 0.59012 0.85023 0.0
C2580 C 0.61229 0.57457 0.864 0.0
C2581 C 0.61828 0.57334 0.8717 0.0
C2582 C 0.62734 0.56988 0.87047 0.0
C2583 C 0.63057 0.56747 0.86149 0.0
C2584 C 0.62446 0.56852 0.85379 0.0
C2585 C 0.61539 0.57205 0.85504 0.0
C2586 C 0.60135 0.58938 0.8732 0.0
C2587 C 0.59392 0.59159 0.8792 0.0
C2588 C 0.59437 0.59963 0.88482 0.0
C2589 C 0.60224 0.60564 0.88447 0.0
C2590 C 0.6096 0.60345 0.87829 0.0
C2591 C 0.60912 0.59544 0.87266 0.0
P2592 P 0.90209 0.64226 0.86617 0.0
H2593 H 0.92231 0.64335 0.86315 0.0
H2594 H 0.93178 0.64631 0.84929 0.0
H2595 H 0.90647 0.652 0.83347 0.0
H2596 H 0.89703 0.6489 0.84737 0.0
H2597 H 0.88803 0.64458 0.88063 0.0
H2598 H 0.88544 0.65659 0.89248 0.0
H2599 H 0.90856 0.67277 0.88139 0.0
H2600 H 0.91111 0.66064 0.86946 0.0
H2601 H 0.89691 0.62272 0.86288 0.0
H2602 H 0.88361 0.64963 0.86086 0.0
O2603 O 0.90826 0.63449 0.87227 0.0
H2604 H 0.88203 0.61502 0.85889 0.0
H2605 H 0.86868 0.64198 0.85669 0.0
C2606 C 0.90896 0.64569 0.85623 0.0
C2607 C 0.9188 0.6453 0.85672 0.0
C2608 C 0.92422 0.64707 0.8488 0.0
C2609 C 0.91987 0.6493 0.84024 0.0
C2610 C 0.91001 0.65013 0.83991 0.0
C2611 C 0.90461 0.64839 0.84787 0.0
C2612 C 0.8996 0.65183 0.87401 0.0
C2613 C 0.8924 0.65082 0.88058 0.0
C2614 C 0.89092 0.65771 0.88736 0.0
C2615 C 0.89674 0.66568 0.88782 0.0
C2616 C 0.90396 0.6667 0.8812 0.0
C2617 C 0.90538 0.65981 0.87434 0.0
C2618 C 0.89129 0.63672 0.86238 0.0
C2619 C 0.89079 0.62697 0.86151 0.0
C2620 C 0.88228 0.62258 0.85915 0.0
C2621 C 0.87413 0.62788 0.85754 0.0
C2622 C 0.87478 0.6377 0.85805 0.0
C2623 C 0.8833 0.64208 0.8604 0.0
P2624 P 0.09724 0.14718 0.63079 0.0
H2625 H 0.07723 0.1451 0.63495 0.0
H2626 H 0.0683 0.14682 0.64937 0.0
H2627 H 0.09325 0.15722 0.66353 0.0
H2628 H 0.10218 0.1554 0.64905 0.0
H2629 H 0.11211 0.15105 0.61742 0.0
H2630 H 0.11441 0.16347 0.6061 0.0
H2631 H 0.08975 0.1775 0.61657 0.0
H2632 H 0.08751 0.165 0.628 0.0
H2633 H 0.10179 0.12753 0.63324 0.0
H2634 H 0.11585 0.15414 0.63677 0.0
O2635 O 0.09107 0.13975 0.62405 0.0
H2636 H 0.11617 0.11949 0.63776 0.0
H2637 H 0.1303 0.14614 0.64147 0.0
C2638 C 0.09041 0.14992 0.64099 0.0
C2639 C 0.08076 0.14785 0.64112 0.0
C2640 C 0.07564 0.1489 0.64937 0.0
C2641 C 0.08009 0.15206 0.65763 0.0
C2642 C 0.08967 0.15461 0.65732 0.0
C2643 C 0.09477 0.1536 0.64905 0.0
C2644 C 0.09979 0.15723 0.62374 0.0
C2645 C 0.10737 0.15694 0.61751 0.0
C2646 C 0.10868 0.16406 0.61102 0.0
C2647 C 0.1023 0.17151 0.61049 0.0
C2648 C 0.09478 0.17186 0.61684 0.0
C2649 C 0.09353 0.16475 0.62341 0.0
C2650 C 0.10784 0.14141 0.63444 0.0
C2651 C 0.10799 0.13164 0.635 0.0
C2652 C 0.1162 0.12706 0.63768 0.0
C2653 C 0.1244 0.13217 0.63995 0.0
C2654 C 0.12414 0.142 0.63963 0.0
C2655 C 0.1159 0.14657 0.63696 0.0
P2656 P 0.5952 0.35116 0.36933 0.0
H2657 H 0.57494 0.34969 0.36643 0.0
H2658 H 0.56519 0.34794 0.35238 0.0
H2659 H 0.5903 0.34533 0.33565 0.0
H2660 H 0.59996 0.34682 0.34977 0.0
H2661 H 0.6092 0.34777 0.38377 0.0
H2662 H 0.6114 0.33508 0.39482 0.0
H2663 H 0.58856 0.31973 0.38163 0.0
H2664 H 0.58637 0.33252 0.37058 0.0
H2665 H 0.59965 0.37088 0.3669 0.0
H2666 H 0.61398 0.34456 0.36399 0.0
O2667 O 0.58909 0.35839 0.37618 0.0
H2668 H 0.61406 0.37921 0.36283 0.0
H2669 H 0.62847 0.35285 0.35973 0.0
C2670 C 0.58816 0.3486 0.35911 0.0
C2671 C 0.57833 0.34865 0.35975 0.0
C2672 C 0.57277 0.3477 0.3517 0.0
C2673 C 0.57696 0.34666 0.34286 0.0
C2674 C 0.58683 0.34609 0.34234 0.0
C2675 C 0.59238 0.34702 0.35041 0.0
C2676 C 0.59777 0.34101 0.37622 0.0
C2677 C 0.60483 0.34156 0.38308 0.0
C2678 C 0.60609 0.33429 0.3894 0.0
C2679 C 0.60018 0.32637 0.38909 0.0
C2680 C 0.5932 0.32575 0.38207 0.0
C2681 C 0.59199 0.33303 0.3757 0.0
C2682 C 0.60583 0.35713 0.36598 0.0
C2683 C 0.60592 0.36689 0.36537 0.0
C2684 C 0.61415 0.37164 0.36294 0.0
C2685 C 0.62244 0.3667 0.36098 0.0
C2686 C 0.62224 0.35687 0.36134 0.0
C2687 C 0.61398 0.35212 0.36376 0.0
P2688 P 0.40048 0.86052 0.13235 0.0
H2689 H 0.42058 0.85828 0.13556 0.0
H2690 H 0.42994 0.85563 0.14967 0.0
H2691 H 0.40439 0.85311 0.16574 0.0
H2692 H 0.3951 0.8555 0.15157 0.0
H2693 H 0.38653 0.85796 0.11762 0.0
H2694 H 0.3841 0.84594 0.10571 0.0
H2695 H 0.4071 0.83009 0.11729 0.0
H2696 H 0.4095 0.84223 0.12931 0.0
H2697 H 0.39531 0.88011 0.13487 0.0
H2698 H 0.38193 0.85313 0.13749 0.0
O2699 O 0.40686 0.86825 0.12638 0.0
H2700 H 0.38043 0.88776 0.13837 0.0
H2701 H 0.36701 0.86072 0.14122 0.0
C2702 C 0.40716 0.85729 0.14255 0.0
C2703 C 0.417 0.85706 0.14211 0.0
C2704 C 0.42234 0.85559 0.1502 0.0
C2705 C 0.41793 0.85431 0.15888 0.0
C2706 C 0.40803 0.85404 0.15918 0.0
C2707 C 0.40269 0.85548 0.15107 0.0
C2708 C 0.39803 0.85089 0.12451 0.0
C2709 C 0.3909 0.85179 0.11778 0.0
C2710 C 0.38951 0.8449 0.11096 0.0
C2711 C 0.39535 0.83701 0.1106 0.0
C2712 C 0.40249 0.83609 0.11739 0.0
C2713 C 0.40382 0.84299 0.1243 0.0
C2714 C 0.38965 0.86607 0.13572 0.0
C2715 C 0.38917 0.87583 0.13626 0.0
C2716 C 0.38067 0.88019 0.13835 0.0
C2717 C 0.3725 0.87486 0.14001 0.0
C2718 C 0.37312 0.86504 0.1398 0.0
C2719 C 0.38164 0.86069 0.13771 0.0
P2720 P 0.89926 0.36044 0.63238 0.0
H2721 H 0.91943 0.35857 0.63543 0.0
H2722 H 0.92895 0.35594 0.64945 0.0
H2723 H 0.90357 0.3528 0.66567 0.0
H2724 H 0.89413 0.35516 0.6516 0.0
H2725 H 0.88512 0.35767 0.61787 0.0
H2726 H 0.88274 0.34564 0.60594 0.0
H2727 H 0.90616 0.33015 0.61719 0.0
H2728 H 0.90851 0.34229 0.6292 0.0
H2729 H 0.89386 0.37998 0.63475 0.0
H2730 H 0.8809 0.35285 0.63791 0.0
O2731 O 0.9055 0.36822 0.62633 0.0
H2732 H 0.87897 0.38746 0.63847 0.0
H2733 H 0.86598 0.36029 0.64191 0.0
C2734 C 0.90608 0.35726 0.64251 0.0
C2735 C 0.91593 0.35722 0.64199 0.0
C2736 C 0.92136 0.35576 0.65002 0.0
C2737 C 0.91703 0.35431 0.65872 0.0
C2738 C 0.90714 0.35386 0.65909 0.0
C2739 C 0.90172 0.35529 0.65104 0.0
C2740 C 0.89683 0.35077 0.62458 0.0
C2741 C 0.8896 0.35157 0.61795 0.0
C2742 C 0.88823 0.34467 0.61112 0.0
C2743 C 0.89421 0.33689 0.61067 0.0
C2744 C 0.90144 0.33606 0.61737 0.0
C2745 C 0.90275 0.34296 0.62427 0.0
C2746 C 0.88842 0.36587 0.63587 0.0
C2747 C 0.88781 0.37563 0.63631 0.0
C2748 C 0.87929 0.3799 0.63853 0.0
C2749 C 0.87124 0.37448 0.64044 0.0
C2750 C 0.87199 0.36468 0.64031 0.0
C2751 C 0.88052 0.36041 0.63806 0.0
P2752 P 0.40201 0.14191 0.3657 0.0
H2753 H 0.42202 0.14603 0.36465 0.0
H2754 H 0.43264 0.14871 0.35155 0.0
H2755 H 0.40898 0.14725 0.33243 0.0
H2756 H 0.3984 0.1449 0.34559 0.0
H2757 H 0.3878 0.14395 0.38 0.0
H2758 H 0.38478 0.15593 0.39175 0.0
H2759 H 0.40735 0.17281 0.3806 0.0
H2760 H 0.41034 0.16072 0.36877 0.0
H2761 H 0.3966 0.12234 0.3629 0.0
H2762 H 0.38396 0.14939 0.35927 0.0
O2763 O 0.40788 0.13416 0.37212 0.0
H2764 H 0.38174 0.11477 0.35865 0.0
H2765 H 0.36905 0.14186 0.35479 0.0
C2766 C 0.40945 0.14514 0.35609 0.0
C2767 C 0.41912 0.14642 0.35764 0.0
C2768 C 0.42518 0.14788 0.35014 0.0
C2769 C 0.42169 0.14806 0.34091 0.0
C2770 C 0.41192 0.14721 0.33944 0.0
C2771 C 0.40585 0.1458 0.34697 0.0
C2772 C 0.39918 0.1515 0.37339 0.0
C2773 C 0.39197 0.15032 0.37992 0.0
C2774 C 0.39023 0.1572 0.38664 0.0
C2775 C 0.39578 0.16536 0.38707 0.0
C2776 C 0.40297 0.16658 0.38045 0.0
C2777 C 0.40465 0.1597 0.37365 0.0
C2778 C 0.3913 0.13641 0.3616 0.0
C2779 C 0.39064 0.12665 0.36111 0.0
C2780 C 0.38214 0.12233 0.35859 0.0
C2781 C 0.37417 0.12771 0.35644 0.0
C2782 C 0.375 0.13752 0.35657 0.0
C2783 C 0.38352 0.14183 0.35909 0.0
P2784 P 0.59567 0.64777 0.13087 0.0
H2785 H 0.57647 0.64337 0.13667 0.0
H2786 H 0.56817 0.64573 0.15134 0.0
H2787 H 0.59189 0.66151 0.16228 0.0
H2788 H 0.60024 0.65902 0.14752 0.0
H2789 H 0.61056 0.65048 0.11732 0.0
H2790 H 0.61366 0.6626 0.10589 0.0
H2791 H 0.59016 0.67845 0.11643 0.0
H2792 H 0.58708 0.66618 0.12794 0.0
H2793 H 0.5998 0.62798 0.13325 0.0
H2794 H 0.61427 0.65432 0.13722 0.0
O2795 O 0.58927 0.64046 0.12421 0.0
H2796 H 0.61403 0.61965 0.13774 0.0
H2797 H 0.62855 0.64603 0.14188 0.0
C2798 C 0.589 0.65095 0.14105 0.0
C2799 C 0.57985 0.64747 0.14216 0.0
C2800 C 0.57507 0.64887 0.15055 0.0
C2801 C 0.57938 0.65376 0.15801 0.0
C2802 C 0.58842 0.6576 0.15671 0.0
C2803 C 0.59318 0.65622 0.14827 0.0
C2804 C 0.59875 0.65755 0.12365 0.0
C2805 C 0.60624 0.65669 0.11738 0.0
C2806 C 0.60801 0.66364 0.11083 0.0
C2807 C 0.60221 0.67154 0.1103 0.0
C2808 C 0.59475 0.67245 0.11668 0.0
C2809 C 0.59303 0.66548 0.1233 0.0
C2810 C 0.60606 0.64174 0.13469 0.0
C2811 C 0.60604 0.63197 0.13512 0.0
C2812 C 0.61417 0.62722 0.13778 0.0
C2813 C 0.62245 0.63217 0.14012 0.0
C2814 C 0.62233 0.64201 0.13998 0.0
C2815 C 0.61418 0.64675 0.13734 0.0
P2816 P 0.09463 0.85234 0.86824 0.0
H2817 H 0.07476 0.84804 0.8655 0.0
H2818 H 0.06518 0.84533 0.85146 0.0
H2819 H 0.09031 0.8462 0.83457 0.0
H2820 H 0.09982 0.84864 0.84864 0.0
H2821 H 0.10664 0.85185 0.88457 0.0
H2822 H 0.11025 0.83981 0.89596 0.0
H2823 H 0.09252 0.82022 0.88072 0.0
H2824 H 0.08888 0.83242 0.8693 0.0
H2825 H 0.09858 0.87189 0.86401 0.0
H2826 H 0.11386 0.84596 0.86458 0.0
O2827 O 0.08806 0.85985 0.87431 0.0
H2828 H 0.11306 0.88033 0.86029 0.0
H2829 H 0.12841 0.85435 0.86077 0.0
C2830 C 0.08796 0.84873 0.85809 0.0
C2831 C 0.07821 0.8475 0.85878 0.0
C2832 C 0.07274 0.84601 0.85074 0.0
C2833 C 0.07696 0.84571 0.84186 0.0
C2834 C 0.08682 0.84636 0.84129 0.0
C2835 C 0.09228 0.84783 0.84934 0.0
C2836 C 0.0976 0.84299 0.87604 0.0
C2837 C 0.10362 0.84493 0.8836 0.0
C2838 C 0.10572 0.83801 0.89009 0.0
C2839 C 0.10174 0.82902 0.8892 0.0
C2840 C 0.09567 0.82709 0.8816 0.0
C2841 C 0.09362 0.83404 0.87505 0.0
C2842 C 0.10522 0.85836 0.86482 0.0
C2843 C 0.10506 0.86801 0.8633 0.0
C2844 C 0.11333 0.87282 0.86109 0.0
C2845 C 0.1219 0.86802 0.86031 0.0
C2846 C 0.12195 0.85826 0.86148 0.0
C2847 C 0.11365 0.85347 0.86365 0.0
P2848 P 0.8334 0.87712 0.67294 0.0
H2849 H 0.84181 0.87241 0.69099 0.0
H2850 H 0.85756 0.87471 0.69753 0.0
H2851 H 0.86576 0.88963 0.67266 0.0
H2852 H 0.84996 0.88716 0.66611 0.0
H2853 H 0.81889 0.87922 0.65868 0.0
H2854 H 0.81054 0.89273 0.65258 0.0
H2855 H 0.82703 0.91091 0.67068 0.0
H2856 H 0.83525 0.89729 0.67689 0.0
H2857 H 0.83141 0.85676 0.67279 0.0
H2858 H 0.83982 0.8783 0.65358 0.0
O2859 O 0.8262 0.87284 0.68104 0.0
H2860 H 0.83405 0.84487 0.66072 0.0
H2861 H 0.84262 0.86646 0.64151 0.0
C2862 C 0.84469 0.87972 0.67812 0.0
C2863 C 0.84695 0.87629 0.687 0.0
C2864 C 0.85596 0.87764 0.69075 0.0
C2865 C 0.86292 0.88238 0.68563 0.0
C2866 C 0.86059 0.88588 0.67675 0.0
C2867 C 0.85155 0.88453 0.67302 0.0
C2868 C 0.82787 0.88727 0.66804 0.0
C2869 C 0.82081 0.88613 0.66124 0.0
C2870 C 0.81606 0.89387 0.65774 0.0
C2871 C 0.81818 0.90292 0.66107 0.0
C2872 C 0.82521 0.90403 0.66798 0.0
C2873 C 0.82998 0.89626 0.67147 0.0
C2874 C 0.83522 0.86841 0.664 0.0
C2875 C 0.83379 0.85893 0.66596 0.0
C2876 C 0.83538 0.85214 0.65907 0.0
C2877 C 0.83849 0.85472 0.65013 0.0
C2878 C 0.84006 0.86425 0.64826 0.0
C2879 C 0.83849 0.87102 0.65517 0.0
P2880 P 0.8662 0.13777 0.38393 0.0
H2881 H 0.86362 0.1416 0.40371 0.0
H2882 H 0.86119 0.15602 0.41261 0.0
H2883 H 0.85952 0.17147 0.3868 0.0
H2884 H 0.86204 0.15699 0.37794 0.0
H2885 H 0.86484 0.11942 0.37538 0.0
H2886 H 0.85249 0.10748 0.37496 0.0
H2887 H 0.83407 0.12601 0.39018 0.0
H2888 H 0.84651 0.13794 0.39059 0.0
H2889 H 0.8843 0.14521 0.37813 0.0
H2890 H 0.85832 0.13659 0.36481 0.0
O2891 O 0.87471 0.13253 0.38997 0.0
H2892 H 0.89136 0.1478 0.3628 0.0
H2893 H 0.86535 0.13912 0.34944 0.0
C2894 C 0.86318 0.14827 0.3902 0.0
C2895 C 0.86264 0.14809 0.39997 0.0
C2896 C 0.86118 0.15633 0.40504 0.0
C2897 C 0.86024 0.16491 0.40041 0.0
C2898 C 0.86038 0.16499 0.39057 0.0
C2899 C 0.86179 0.15671 0.3855 0.0
C2900 C 0.85659 0.12955 0.38299 0.0
C2901 C 0.8581 0.12095 0.37852 0.0
C2902 C 0.85101 0.11416 0.37824 0.0
C2903 C 0.84229 0.11581 0.38251 0.0
C2904 C 0.84074 0.12451 0.38688 0.0
C2905 C 0.84784 0.13135 0.38709 0.0
C2906 C 0.87089 0.14047 0.37259 0.0
C2907 C 0.88011 0.14392 0.3719 0.0
C2908 C 0.8841 0.14547 0.36314 0.0
C2909 C 0.87893 0.14358 0.35492 0.0
C2910 C 0.86954 0.1405 0.35566 0.0
C2911 C 0.86553 0.13903 0.36444 0.0
P2912 P 0.66392 0.12784 0.17726 0.0
H2913 H 0.65497 0.12803 0.19567 0.0
H2914 H 0.63888 0.12485 0.20068 0.0
H2915 H 0.63124 0.11732 0.17228 0.0
H2916 H 0.64743 0.12032 0.16737 0.0
H2917 H 0.68194 0.12717 0.16801 0.0
H2918 H 0.69173 0.11438 0.16237 0.0
H2919 H 0.67087 0.09444 0.17167 0.0
H2920 H 0.66104 0.10732 0.17722 0.0
H2921 H 0.66288 0.14821 0.17769 0.0
H2922 H 0.66143 0.12618 0.15697 0.0
O2923 O 0.66989 0.13272 0.18615 0.0
H2924 H 0.66056 0.15985 0.16548 0.0
H2925 H 0.65888 0.13773 0.14473 0.0
C2926 C 0.65236 0.12447 0.18113 0.0
C2927 C 0.64987 0.1256 0.19054 0.0
C2928 C 0.64064 0.12383 0.19339 0.0
C2929 C 0.63375 0.12092 0.18687 0.0
C2930 C 0.63638 0.11949 0.1775 0.0
C2931 C 0.64562 0.12125 0.17466 0.0
C2932 C 0.67075 0.1182 0.17294 0.0
C2933 C 0.67946 0.12005 0.1688 0.0
C2934 C 0.68507 0.11272 0.16564 0.0
C2935 C 0.68209 0.10339 0.16661 0.0
C2936 C 0.67331 0.10156 0.17074 0.0
C2937 C 0.6677 0.10892 0.17393 0.0
C2938 C 0.66252 0.13637 0.1682 0.0
C2939 C 0.66211 0.14589 0.1705 0.0
C2940 C 0.6607 0.15253 0.16351 0.0
C2941 C 0.65957 0.14973 0.15411 0.0
C2942 C 0.6599 0.14014 0.15187 0.0
C2943 C 0.66132 0.13352 0.15886 0.0
P2944 P 0.66098 0.84235 0.86536 0.0
H2945 H 0.68052 0.84895 0.86582 0.0
H2946 H 0.68767 0.86412 0.86957 0.0
H2947 H 0.66014 0.8753 0.87547 0.0
H2948 H 0.65306 0.86006 0.87186 0.0
H2949 H 0.65203 0.82422 0.86724 0.0
H2950 H 0.64693 0.81514 0.88072 0.0
H2951 H 0.65696 0.83713 0.89922 0.0
H2952 H 0.66221 0.84608 0.88572 0.0
H2953 H 0.65876 0.84427 0.84515 0.0
H2954 H 0.64104 0.84523 0.8695 0.0
O2955 O 0.6687 0.83594 0.85939 0.0
H2956 H 0.6451 0.84727 0.83514 0.0
H2957 H 0.62733 0.84806 0.85956 0.0
C2958 C 0.66625 0.85344 0.8684 0.0
C2959 C 0.67602 0.85467 0.86791 0.0
C2960 C 0.6801 0.86335 0.87003 0.0
C2961 C 0.67447 0.87094 0.87275 0.0
C2962 C 0.66468 0.86959 0.87346 0.0
C2963 C 0.66062 0.8609 0.87132 0.0
C2964 C 0.65747 0.83581 0.87547 0.0
C2965 C 0.65314 0.82707 0.87421 0.0
C2966 C 0.65017 0.82192 0.88192 0.0
C2967 C 0.65149 0.82544 0.89105 0.0
C2968 C 0.65591 0.8342 0.89229 0.0
C2969 C 0.65888 0.83935 0.88455 0.0
C2970 C 0.65087 0.84434 0.85803 0.0
C2971 C 0.65191 0.84503 0.84832 0.0
C2972 C 0.64409 0.84672 0.84261 0.0
C2973 C 0.63511 0.84785 0.84654 0.0
C2974 C 0.63415 0.84729 0.85631 0.0
C2975 C 0.64197 0.84559 0.862 0.0
P2976 P 0.855 0.1043 0.85234 0.0
H2977 H 0.85195 0.08444 0.84869 0.0
H2978 H 0.83768 0.07493 0.84701 0.0
H2979 H 0.82084 0.09996 0.84832 0.0
H2980 H 0.83515 0.10941 0.84971 0.0
H2981 H 0.87046 0.11736 0.85016 0.0
H2982 H 0.88089 0.12094 0.83719 0.0
H2983 H 0.86533 0.10162 0.81949 0.0
H2984 H 0.85487 0.09804 0.83258 0.0
H2985 H 0.85133 0.10685 0.87218 0.0
H2986 H 0.8512 0.12388 0.84743 0.0
O2987 O 0.86194 0.09768 0.85897 0.0
H2988 H 0.84741 0.12051 0.88171 0.0
H2989 H 0.84729 0.13762 0.85694 0.0
C2990 C 0.84459 0.0976 0.84954 0.0
C2991 C 0.84519 0.08788 0.84849 0.0
C2992 C 0.83702 0.08245 0.84758 0.0
C2993 C 0.8281 0.08666 0.8477 0.0
C2994 C 0.82759 0.09648 0.84817 0.0
C2995 C 0.83577 0.1019 0.84904 0.0
C2996 C 0.86177 0.10759 0.84228 0.0
C2997 C 0.86916 0.11404 0.84343 0.0
C2998 C 0.87511 0.1161 0.836 0.0
C2999 C 0.87389 0.11163 0.82728 0.0
C3000 C 0.86645 0.10517 0.82612 0.0
C3001 C 0.86043 0.10316 0.83359 0.0
C3002 C 0.85183 0.11442 0.85916 0.0
C3003 C 0.85047 0.11354 0.8688 0.0
C3004 C 0.84815 0.12134 0.87423 0.0
C3005 C 0.8471 0.13016 0.87008 0.0
C3006 C 0.8482 0.13095 0.86035 0.0
C3007 C 0.85045 0.12311 0.85492 0.0
P3008 P 0.66686 0.15719 0.63795 0.0
H3009 H 0.68577 0.14997 0.63478 0.0
H3010 H 0.69158 0.13455 0.6302 0.0
H3011 H 0.66292 0.12455 0.62737 0.0
H3012 H 0.65718 0.14001 0.63181 0.0
H3013 H 0.66595 0.1774 0.63729 0.0
H3014 H 0.6611 0.18832 0.62519 0.0
H3015 H 0.65634 0.16519 0.60606 0.0
H3016 H 0.6614 0.1543 0.61819 0.0
H3017 H 0.66431 0.15318 0.65777 0.0
H3018 H 0.64669 0.15697 0.63344 0.0
O3019 O 0.6752 0.16211 0.64467 0.0
H3020 H 0.65032 0.15048 0.6673 0.0
H3021 H 0.63269 0.15442 0.64293 0.0
C3022 C 0.67106 0.14606 0.63381 0.0
C3023 C 0.68074 0.14446 0.63314 0.0
C3024 C 0.68405 0.13564 0.63055 0.0
C3025 C 0.67772 0.12829 0.62852 0.0
C3026 C 0.66799 0.13006 0.62884 0.0
C3027 C 0.6647 0.13888 0.63145 0.0
C3028 C 0.6642 0.16507 0.62858 0.0
C3029 C 0.66401 0.17469 0.63044 0.0
C3030 C 0.66114 0.18092 0.62354 0.0
C3031 C 0.65829 0.17763 0.61466 0.0
C3032 C 0.6586 0.16796 0.61278 0.0
C3033 C 0.66148 0.16172 0.61972 0.0
C3034 C 0.65652 0.15546 0.64495 0.0
C3035 C 0.65742 0.15353 0.6545 0.0
C3036 C 0.64942 0.15201 0.65995 0.0
C3037 C 0.64039 0.15229 0.65589 0.0
C3038 C 0.63955 0.1541 0.64626 0.0
C3039 C 0.64755 0.15565 0.64084 0.0
P3040 P 0.66199 0.87341 0.32524 0.0
H3041 H 0.65476 0.87536 0.30616 0.0
H3042 H 0.63903 0.87832 0.29989 0.0
H3043 H 0.62838 0.88095 0.32804 0.0
H3044 H 0.64416 0.87811 0.33424 0.0
H3045 H 0.6813 0.87549 0.33149 0.0
H3046 H 0.69066 0.88887 0.33695 0.0
H3047 H 0.66657 0.9068 0.33333 0.0
H3048 H 0.65721 0.89334 0.328 0.0
H3049 H 0.65993 0.85315 0.32547 0.0
H3050 H 0.66026 0.87578 0.34557 0.0
O3051 O 0.6682 0.86821 0.31683 0.0
H3052 H 0.65732 0.84196 0.33803 0.0
H3053 H 0.65744 0.86466 0.35818 0.0
C3054 C 0.65058 0.87636 0.32066 0.0
C3055 C 0.64905 0.87661 0.31098 0.0
C3056 C 0.64004 0.87827 0.3074 0.0
C3057 C 0.63243 0.87978 0.31347 0.0
C3058 C 0.63409 0.87987 0.32318 0.0
C3059 C 0.6431 0.87818 0.32674 0.0
C3060 C 0.66861 0.88344 0.32926 0.0
C3061 C 0.67805 0.88231 0.33185 0.0
C3062 C 0.68339 0.88997 0.33493 0.0
C3063 C 0.67938 0.89892 0.3355 0.0
C3064 C 0.66985 0.89999 0.33302 0.0
C3065 C 0.66451 0.8923 0.32992 0.0
C3066 C 0.66048 0.86525 0.33463 0.0
C3067 C 0.6595 0.85569 0.33261 0.0
C3068 C 0.65792 0.84932 0.33979 0.0
C3069 C 0.65719 0.85241 0.34913 0.0
C3070 C 0.65813 0.86203 0.3511 0.0
C3071 C 0.65972 0.8684 0.3439 0.0
P3072 P 0.8604 0.86724 0.11066 0.0
H3073 H 0.86025 0.86311 0.09067 0.0
H3074 H 0.8593 0.84849 0.08177 0.0
H3075 H 0.85497 0.8333 0.10742 0.0
H3076 H 0.85603 0.84797 0.11629 0.0
H3077 H 0.85608 0.88248 0.12342 0.0
H3078 H 0.84268 0.89296 0.12467 0.0
H3079 H 0.82806 0.87699 0.10322 0.0
H3080 H 0.84158 0.86658 0.10194 0.0
H3081 H 0.88026 0.86556 0.11524 0.0
H3082 H 0.85381 0.86276 0.12959 0.0
O3083 O 0.86741 0.87414 0.10438 0.0
H3084 H 0.88871 0.86221 0.1297 0.0
H3085 H 0.86223 0.85919 0.14413 0.0
C3086 C 0.85844 0.85658 0.10415 0.0
C3087 C 0.85902 0.85664 0.09437 0.0
C3088 C 0.85841 0.84828 0.08928 0.0
C3089 C 0.85715 0.83972 0.0939 0.0
C3090 C 0.8561 0.83976 0.10368 0.0
C3091 C 0.85669 0.84814 0.10876 0.0
C3092 C 0.84977 0.87366 0.11272 0.0
C3093 C 0.84989 0.88108 0.11916 0.0
C3094 C 0.8422 0.88707 0.11988 0.0
C3095 C 0.83428 0.88581 0.11405 0.0
C3096 C 0.83408 0.87818 0.10777 0.0
C3097 C 0.84178 0.87218 0.10708 0.0
C3098 C 0.86644 0.86464 0.12142 0.0
C3099 C 0.87627 0.86423 0.12152 0.0
C3100 C 0.88109 0.8622 0.12979 0.0
C3101 C 0.87615 0.86044 0.13809 0.0
C3102 C 0.86625 0.86066 0.1379 0.0
C3103 C 0.86143 0.86269 0.1296 0.0
P3104 P 0.16416 0.65685 0.13476 0.0
H3105 H 0.18169 0.64784 0.14035 0.0
H3106 H 0.18826 0.63247 0.13697 0.0
H3107 H 0.16436 0.62609 0.11913 0.0
H3108 H 0.15797 0.64161 0.12237 0.0
H3109 H 0.14906 0.67041 0.13299 0.0
H3110 H 0.14301 0.67936 0.11986 0.0
H3111 H 0.16334 0.66636 0.10165 0.0
H3112 H 0.16944 0.65743 0.1149 0.0
H3113 H 0.16269 0.6587 0.15515 0.0
H3114 H 0.14524 0.64921 0.13216 0.0
O3115 O 0.17221 0.66372 0.13994 0.0
H3116 H 0.14992 0.65539 0.16607 0.0
H3117 H 0.13238 0.64605 0.14296 0.0
C3118 C 0.16941 0.6459 0.1315 0.0
C3119 C 0.17794 0.64319 0.1356 0.0
C3120 C 0.18165 0.63436 0.13372 0.0
C3121 C 0.17683 0.62803 0.12779 0.0
C3122 C 0.16832 0.63083 0.12362 0.0
C3123 C 0.16463 0.63969 0.12549 0.0
C3124 C 0.1595 0.66303 0.12486 0.0
C3125 C 0.15212 0.66935 0.12614 0.0
C3126 C 0.14865 0.67447 0.11862 0.0
C3127 C 0.15261 0.67348 0.10968 0.0
C3128 C 0.16014 0.66727 0.10845 0.0
C3129 C 0.16358 0.6621 0.116 0.0
C3130 C 0.15485 0.65432 0.14285 0.0
C3131 C 0.15609 0.65594 0.15245 0.0
C3132 C 0.14877 0.65408 0.15868 0.0
C3133 C 0.14011 0.6505 0.15539 0.0
C3134 C 0.13899 0.64871 0.14575 0.0
C3135 C 0.14631 0.65057 0.13955 0.0
P3136 P 0.16 0.37418 0.82574 0.0
H3137 H 0.15366 0.3776 0.80658 0.0
H3138 H 0.13826 0.38126 0.79989 0.0
H3139 H 0.12653 0.38259 0.82769 0.0
H3140 H 0.142 0.37906 0.83432 0.0
H3141 H 0.18023 0.37712 0.82648 0.0
H3142 H 0.19012 0.3899 0.83232 0.0
H3143 H 0.16524 0.4056 0.83942 0.0
H3144 H 0.15539 0.39262 0.83379 0.0
H3145 H 0.14721 0.35837 0.82758 0.0
H3146 H 0.16843 0.37217 0.84454 0.0
O3147 O 0.16582 0.36836 0.81746 0.0
H3148 H 0.14453 0.34706 0.84003 0.0
H3149 H 0.16574 0.36092 0.85703 0.0
C3150 C 0.14891 0.37789 0.82093 0.0
C3151 C 0.14779 0.37874 0.81123 0.0
C3152 C 0.13897 0.3808 0.80742 0.0
C3153 C 0.13114 0.38211 0.81325 0.0
C3154 C 0.13242 0.38167 0.823 0.0
C3155 C 0.14124 0.3796 0.8268 0.0
C3156 C 0.16709 0.384 0.82951 0.0
C3157 C 0.1769 0.38336 0.82919 0.0
C3158 C 0.18255 0.3907 0.83251 0.0
C3159 C 0.17849 0.39884 0.83625 0.0
C3160 C 0.16861 0.39942 0.83662 0.0
C3161 C 0.16296 0.39203 0.83332 0.0
C3162 C 0.1579 0.3662 0.83518 0.0
C3163 C 0.15122 0.35902 0.83402 0.0
C3164 C 0.14968 0.35258 0.84115 0.0
C3165 C 0.15488 0.35313 0.84953 0.0
C3166 C 0.16165 0.36028 0.85063 0.0
C3167 C 0.16315 0.36676 0.84351 0.0
P3168 P 0.36214 0.3641 0.61003 0.0
H3169 H 0.35823 0.35934 0.59066 0.0
H3170 H 0.3556 0.34445 0.58259 0.0
H3171 H 0.35486 0.33038 0.60923 0.0
H3172 H 0.35762 0.34533 0.61724 0.0
H3173 H 0.36274 0.38415 0.6071 0.0
H3174 H 0.35077 0.39624 0.60742 0.0
H3175 H 0.32953 0.37538 0.61336 0.0
H3176 H 0.34168 0.36321 0.61306 0.0
H3177 H 0.37823 0.35389 0.61696 0.0
H3178 H 0.35574 0.37021 0.62874 0.0
O3179 O 0.37115 0.36813 0.60377 0.0
H3180 H 0.38546 0.35259 0.63243 0.0
H3181 H 0.36283 0.3688 0.64427 0.0
C3182 C 0.35831 0.3534 0.60451 0.0
C3183 C 0.35734 0.35307 0.59476 0.0
C3184 C 0.35578 0.34455 0.59017 0.0
C3185 C 0.35513 0.3362 0.59526 0.0
C3186 C 0.3555 0.33666 0.6051 0.0
C3187 C 0.35706 0.34521 0.60969 0.0
C3188 C 0.35305 0.37278 0.60985 0.0
C3189 C 0.35549 0.38214 0.60834 0.0
C3190 C 0.34863 0.38904 0.6085 0.0
C3191 C 0.33918 0.38674 0.61028 0.0
C3192 C 0.33675 0.37735 0.61194 0.0
C3193 C 0.34366 0.3704 0.61172 0.0
C3194 C 0.36653 0.36223 0.62169 0.0
C3195 C 0.37478 0.35707 0.62292 0.0
C3196 C 0.37886 0.35628 0.63178 0.0
C3197 C 0.37474 0.36064 0.63959 0.0
C3198 C 0.36624 0.36548 0.63837 0.0
C3199 C 0.36216 0.36626 0.62949 0.0
P3200 P 0.16245 0.62685 0.67546 0.0
H3201 H 0.15304 0.63172 0.69292 0.0
H3202 H 0.13723 0.62856 0.69875 0.0
H3203 H 0.13112 0.6121 0.67393 0.0
H3204 H 0.14705 0.6151 0.66828 0.0
H3205 H 0.17575 0.62584 0.66004 0.0
H3206 H 0.18445 0.613 0.65299 0.0
H3207 H 0.1716 0.59375 0.67232 0.0
H3208 H 0.16287 0.60672 0.67939 0.0
H3209 H 0.16503 0.64722 0.67578 0.0
H3210 H 0.15465 0.62612 0.65656 0.0
O3211 O 0.16939 0.63111 0.68395 0.0
H3212 H 0.16203 0.65929 0.66412 0.0
H3213 H 0.15149 0.63814 0.64492 0.0
C3214 C 0.15125 0.62352 0.68024 0.0
C3215 C 0.14835 0.62729 0.68882 0.0
C3216 C 0.13927 0.62555 0.6921 0.0
C3217 C 0.13288 0.6201 0.6868 0.0
C3218 C 0.13589 0.61621 0.67826 0.0
C3219 C 0.14499 0.61795 0.675 0.0
C3220 C 0.16843 0.61719 0.67004 0.0
C3221 C 0.17465 0.61884 0.66266 0.0
C3222 C 0.17963 0.61149 0.65863 0.0
C3223 C 0.17862 0.60234 0.66201 0.0
C3224 C 0.17251 0.60072 0.66955 0.0
C3225 C 0.16747 0.60811 0.67354 0.0
C3226 C 0.16021 0.63577 0.66696 0.0
C3227 C 0.16211 0.64519 0.66905 0.0
C3228 C 0.16033 0.65208 0.6624 0.0
C3229 C 0.15658 0.64966 0.65357 0.0
C3230 C 0.15454 0.64022 0.65159 0.0
C3231 C 0.15629 0.63335 0.65825 0.0
P3232 P 0.33421 0.37604 0.17391 0.0
H3233 H 0.34066 0.37742 0.19334 0.0
H3234 H 0.35608 0.38049 0.20038 0.0
H3235 H 0.36778 0.38468 0.17288 0.0
H3236 H 0.35226 0.38177 0.1659 0.0
H3237 H 0.31661 0.37726 0.16378 0.0
H3238 H 0.30709 0.39037 0.15851 0.0
H3239 H 0.32779 0.4097 0.16986 0.0
H3240 H 0.33736 0.3965 0.175 0.0
H3241 H 0.33585 0.35574 0.17339 0.0
H3242 H 0.33741 0.37847 0.15382 0.0
O3243 O 0.32761 0.37074 0.18193 0.0
H3244 H 0.33879 0.34457 0.16073 0.0
H3245 H 0.34019 0.36733 0.14107 0.0
C3246 C 0.34537 0.37921 0.17909 0.0
C3247 C 0.34653 0.37905 0.18882 0.0
C3248 C 0.35536 0.38077 0.19284 0.0
C3249 C 0.36319 0.38271 0.18718 0.0
C3250 C 0.3619 0.38324 0.17744 0.0
C3251 C 0.35304 0.38152 0.17343 0.0
C3252 C 0.32769 0.38591 0.16972 0.0
C3253 C 0.31912 0.38433 0.16508 0.0
C3254 C 0.31366 0.39183 0.16213 0.0
C3255 C 0.31665 0.40108 0.16382 0.0
C3256 C 0.32533 0.40265 0.16838 0.0
C3257 C 0.3308 0.39511 0.17135 0.0
C3258 C 0.33621 0.36789 0.1645 0.0
C3259 C 0.33673 0.35831 0.16634 0.0
C3260 C 0.33838 0.35193 0.15909 0.0
C3261 C 0.33964 0.35505 0.14987 0.0
C3262 C 0.3393 0.36471 0.1481 0.0
C3263 C 0.33763 0.37107 0.15536 0.0
P3264 P 0.63771 0.3897 0.11614 0.0
H3265 H 0.65091 0.37742 0.10665 0.0
H3266 H 0.649 0.36605 0.09391 0.0
H3267 H 0.62032 0.37507 0.08987 0.0
H3268 H 0.62227 0.38639 0.10264 0.0
H3269 H 0.63873 0.40653 0.12752 0.0
H3270 H 0.64739 0.42119 0.12597 0.0
H3271 H 0.65739 0.41219 0.09888 0.0
H3272 H 0.64877 0.39743 0.10056 0.0
H3273 H 0.62793 0.37874 0.1302 0.0
H3274 H 0.62237 0.40309 0.11353 0.0
O3275 O 0.64473 0.38418 0.12365 0.0
H3276 H 0.61251 0.38016 0.13746 0.0
H3277 H 0.60677 0.40443 0.12058 0.0
C3278 C 0.63667 0.38257 0.10574 0.0
C3279 C 0.64425 0.37703 0.10294 0.0
C3280 C 0.64317 0.37059 0.09561 0.0
C3281 C 0.63447 0.36959 0.09096 0.0
C3282 C 0.62706 0.37557 0.09343 0.0
C3283 C 0.62817 0.38205 0.10073 0.0
C3284 C 0.64296 0.40097 0.11409 0.0
C3285 C 0.64262 0.40779 0.12116 0.0
C3286 C 0.64757 0.41619 0.12025 0.0
C3287 C 0.65306 0.41789 0.11228 0.0
C3288 C 0.65327 0.41107 0.10513 0.0
C3289 C 0.64828 0.40266 0.10605 0.0
C3290 C 0.62635 0.39093 0.12149 0.0
C3291 C 0.62338 0.38441 0.12812 0.0
C3292 C 0.61451 0.38518 0.13219 0.0
C3293 C 0.60839 0.39241 0.12961 0.0
C3294 C 0.61136 0.39887 0.12284 0.0
C3295 C 0.62027 0.39811 0.11879 0.0
P3296 P 0.88019 0.59902 0.58208 0.0
H3297 H 0.86862 0.5858 0.5714 0.0
H3298 H 0.85581 0.57526 0.57584 0.0
H3299 H 0.85631 0.587 0.60379 0.0
H3300 H 0.86898 0.59766 0.59922 0.0
H3301 H 0.89144 0.61179 0.57115 0.0
H3302 H 0.88835 0.62705 0.56434 0.0
H3303 H 0.85977 0.62577 0.57451 0.0
H3304 H 0.86305 0.61057 0.58155 0.0
H3305 H 0.89094 0.58616 0.59347 0.0
H3306 H 0.88501 0.6157 0.59348 0.0
O3307 O 0.88645 0.59278 0.57446 0.0
H3308 H 0.90085 0.58826 0.6074 0.0
H3309 H 0.89488 0.61784 0.60739 0.0
C3310 C 0.86989 0.59232 0.58505 0.0
C3311 C 0.86589 0.58617 0.57845 0.0
C3312 C 0.8586 0.58013 0.58101 0.0
C3313 C 0.85515 0.58018 0.59021 0.0
C3314 C 0.85879 0.58679 0.59664 0.0
C3315 C 0.86609 0.59284 0.59406 0.0
C3316 C 0.87743 0.61 0.57669 0.0
C3317 C 0.88448 0.61476 0.57183 0.0
C3318 C 0.88269 0.62347 0.5679 0.0
C3319 C 0.87378 0.62761 0.56878 0.0
C3320 C 0.86672 0.62281 0.57374 0.0
C3321 C 0.86856 0.61408 0.5777 0.0
C3322 C 0.88737 0.60078 0.59236 0.0
C3323 C 0.89179 0.5931 0.59647 0.0
C3324 C 0.8974 0.5943 0.60445 0.0
C3325 C 0.89868 0.60323 0.60846 0.0
C3326 C 0.89414 0.6109 0.60437 0.0
C3327 C 0.88848 0.60968 0.59642 0.0
P3328 P 0.6194 0.39532 0.65229 0.0
H3329 H 0.63386 0.40479 0.66349 0.0
H3330 H 0.64447 0.41781 0.66023 0.0
H3331 H 0.63018 0.42228 0.63389 0.0
H3332 H 0.61965 0.40911 0.63716 0.0
H3333 H 0.60186 0.38463 0.65263 0.0
H3334 H 0.58752 0.38621 0.66177 0.0
H3335 H 0.59841 0.41175 0.67413 0.0
H3336 H 0.61274 0.41021 0.66481 0.0
H3337 H 0.63139 0.38193 0.64281 0.0
H3338 H 0.605 0.39559 0.63735 0.0
O3339 O 0.62546 0.38849 0.65954 0.0
H3340 H 0.62993 0.3733 0.62811 0.0
H3341 H 0.60326 0.38669 0.62274 0.0
C3342 C 0.62613 0.40585 0.65047 0.0
C3343 C 0.63294 0.40863 0.65706 0.0
C3344 C 0.63896 0.41614 0.65521 0.0
C3345 C 0.63824 0.42103 0.64675 0.0
C3346 C 0.63103 0.41854 0.6404 0.0
C3347 C 0.62499 0.41103 0.64227 0.0
C3348 C 0.60825 0.39746 0.65779 0.0
C3349 C 0.60105 0.39074 0.65705 0.0
C3350 C 0.59285 0.39164 0.66231 0.0
C3351 C 0.59181 0.39914 0.66862 0.0
C3352 C 0.59902 0.40591 0.66931 0.0
C3353 C 0.60717 0.40507 0.66393 0.0
C3354 C 0.61816 0.38916 0.64131 0.0
C3355 C 0.62521 0.38298 0.63849 0.0
C3356 C 0.62434 0.37802 0.63008 0.0
C3357 C 0.61638 0.37915 0.6243 0.0
C3358 C 0.60948 0.38563 0.62701 0.0
C3359 C 0.61041 0.39065 0.63541 0.0
P3360 P 0.36635 0.63559 0.8865 0.0
H3361 H 0.36473 0.64003 0.90619 0.0
H3362 H 0.3619 0.65455 0.91477 0.0
H3363 H 0.35789 0.66899 0.88862 0.0
H3364 H 0.36068 0.65436 0.88007 0.0
H3365 H 0.36509 0.61678 0.89417 0.0
H3366 H 0.3525 0.60517 0.89449 0.0
H3367 H 0.33391 0.62444 0.88054 0.0
H3368 H 0.34669 0.63611 0.8802 0.0
H3369 H 0.37941 0.64889 0.87822 0.0
H3370 H 0.36176 0.62603 0.8687 0.0
O3371 O 0.37567 0.63125 0.89208 0.0
H3372 H 0.38615 0.65014 0.86259 0.0
H3373 H 0.36836 0.62734 0.85306 0.0
C3374 C 0.36316 0.64618 0.89252 0.0
C3375 C 0.36316 0.6463 0.90231 0.0
C3376 C 0.36148 0.6546 0.9072 0.0
C3377 C 0.35975 0.66294 0.90237 0.0
C3378 C 0.35934 0.6627 0.89253 0.0
C3379 C 0.36095 0.65435 0.88764 0.0
C3380 C 0.3568 0.62731 0.88718 0.0
C3381 C 0.35829 0.61857 0.89125 0.0
C3382 C 0.35106 0.61194 0.89148 0.0
C3383 C 0.34218 0.61391 0.8876 0.0
C3384 C 0.34068 0.62271 0.88356 0.0
C3385 C 0.34794 0.62939 0.88339 0.0
C3386 C 0.36995 0.6375 0.87461 0.0
C3387 C 0.3768 0.64431 0.87271 0.0
C3388 C 0.38064 0.64503 0.86376 0.0
C3389 C 0.37779 0.63883 0.85658 0.0
C3390 C 0.37075 0.63216 0.85846 0.0
C3391 C 0.3669 0.63147 0.8674 0.0
P3392 P 0.16316 0.34085 0.36521 0.0
H3393 H 0.18127 0.3504 0.36779 0.0
H3394 H 0.18552 0.36674 0.37081 0.0
H3395 H 0.15602 0.37372 0.37244 0.0
H3396 H 0.15185 0.35744 0.36918 0.0
H3397 H 0.16591 0.32117 0.36937 0.0
H3398 H 0.1619 0.31156 0.38281 0.0
H3399 H 0.15084 0.33592 0.39693 0.0
H3400 H 0.1552 0.34553 0.38359 0.0
H3401 H 0.16076 0.34307 0.34509 0.0
H3402 H 0.14293 0.33897 0.36903 0.0
O3403 O 0.17204 0.33603 0.35934 0.0
H3404 H 0.14685 0.34376 0.33495 0.0
H3405 H 0.12903 0.33986 0.35903 0.0
C3406 C 0.16625 0.35276 0.36807 0.0
C3407 C 0.17572 0.35546 0.3688 0.0
C3408 C 0.17814 0.3648 0.3706 0.0
C3409 C 0.17111 0.37157 0.37178 0.0
C3410 C 0.16161 0.36873 0.37136 0.0
C3411 C 0.15921 0.35941 0.36953 0.0
C3412 C 0.16101 0.33408 0.37554 0.0
C3413 C 0.16278 0.32447 0.37543 0.0
C3414 C 0.16038 0.31896 0.38309 0.0
C3415 C 0.156 0.32295 0.39096 0.0
C3416 C 0.15433 0.33264 0.39107 0.0
C3417 C 0.15681 0.33815 0.38342 0.0
C3418 C 0.1529 0.34076 0.35777 0.0
C3419 C 0.15386 0.34223 0.34815 0.0
C3420 C 0.1459 0.34271 0.34238 0.0
C3421 C 0.13682 0.34182 0.34617 0.0
C3422 C 0.13591 0.34039 0.35585 0.0
C3423 C 0.14388 0.33989 0.36159 0.0
P3424 P 0.35516 0.60423 0.35187 0.0
H3425 H 0.35198 0.58416 0.35002 0.0
H3426 H 0.33766 0.57464 0.34908 0.0
H3427 H 0.32098 0.59975 0.3477 0.0
H3428 H 0.33536 0.60924 0.34874 0.0
H3429 H 0.37073 0.61694 0.34845 0.0
H3430 H 0.38102 0.61926 0.33506 0.0
H3431 H 0.36448 0.59929 0.31903 0.0
H3432 H 0.35421 0.59697 0.33251 0.0
H3433 H 0.35103 0.60726 0.37149 0.0
H3434 H 0.3521 0.62387 0.34648 0.0
O3435 O 0.36231 0.59795 0.35862 0.0
H3436 H 0.34725 0.62117 0.3807 0.0
H3437 H 0.34836 0.63789 0.35568 0.0
C3438 C 0.3447 0.59738 0.34967 0.0
C3439 C 0.34524 0.58761 0.34942 0.0
C3440 C 0.33705 0.58218 0.34881 0.0
C3441 C 0.32817 0.58645 0.34843 0.0
C3442 C 0.32771 0.59627 0.34816 0.0
C3443 C 0.33592 0.60169 0.34873 0.0
C3444 C 0.3616 0.60692 0.34143 0.0
C3445 C 0.36918 0.61323 0.34198 0.0
C3446 C 0.37505 0.61457 0.33431 0.0
C3447 C 0.37354 0.60949 0.32597 0.0
C3448 C 0.36584 0.60328 0.32538 0.0
C3449 C 0.35992 0.60199 0.33306 0.0
C3450 C 0.35212 0.61459 0.35838 0.0
C3451 C 0.35047 0.61392 0.36799 0.0
C3452 C 0.34822 0.62186 0.37322 0.0
C3453 C 0.34755 0.63064 0.36891 0.0
C3454 C 0.34896 0.63124 0.35921 0.0
C3455 C 0.35112 0.62325 0.35395 0.0
C3456 C 0.17471 0.4438 0.09859 0.0
C3457 C 0.17535 0.45037 0.10594 0.0
C3458 C 0.16679 0.43802 0.09764 0.0
C3459 C 0.14835 0.42748 0.11186 0.0
H3460 H 0.13724 0.42044 0.08796 0.0
C3461 C 0.11842 0.40032 0.10978 0.0
C3462 C 0.11913 0.39354 0.10266 0.0
C3463 C 0.12406 0.40836 0.10965 0.0
C3464 C 0.1403 0.42229 0.09469 0.0
H3465 H 0.16804 0.4562 0.11789 0.0
H3466 H 0.15418 0.44615 0.11618 0.0
H3467 H 0.14943 0.43256 0.08863 0.0
H3468 H 0.12614 0.38996 0.08972 0.0
H3469 H 0.13613 0.40386 0.08957 0.0
H3470 H 0.13954 0.41703 0.11791 0.0
C3471 C 0.15984 0.44545 0.1112 0.0
C3472 C 0.14727 0.42924 0.09506 0.0
C3473 C 0.16774 0.45126 0.11212 0.0
C3474 C 0.12537 0.39511 0.09525 0.0
C3475 C 0.13108 0.4031 0.09516 0.0
C3476 C 0.14144 0.4205 0.11148 0.0
C3477 C 0.15935 0.43866 0.10404 0.0
C3478 C 0.15143 0.43184 0.10364 0.0
C3479 C 0.13063 0.40974 0.10246 0.0
C3480 C 0.13741 0.41772 0.10288 0.0
H3481 H 0.18042 0.44302 0.09367 0.0
H3482 H 0.16664 0.43282 0.09209 0.0
H3483 H 0.15153 0.42922 0.11856 0.0
H3484 H 0.11356 0.39935 0.11551 0.0
H3485 H 0.12338 0.41341 0.11528 0.0
C3486 C 0.83114 0.95098 0.39638 0.0
C3487 C 0.82237 0.94636 0.39631 0.0
C3488 C 0.83937 0.94615 0.39855 0.0
C3489 C 0.84803 0.92433 0.4095 0.0
H3490 H 0.87044 0.92953 0.39506 0.0
C3491 C 0.88362 0.90679 0.41771 0.0
C3492 C 0.88908 0.90392 0.41004 0.0
C3493 C 0.87567 0.91234 0.41637 0.0
C3494 C 0.86423 0.92794 0.39912 0.0
H3495 H 0.81539 0.93306 0.39872 0.0
H3496 H 0.82975 0.92458 0.40219 0.0
H3497 H 0.85616 0.93834 0.39209 0.0
H3498 H 0.89051 0.90479 0.39497 0.0
H3499 H 0.8765 0.91418 0.39262 0.0
H3500 H 0.85599 0.91368 0.41628 0.0
C3501 C 0.83027 0.93198 0.4007 0.0
C3502 C 0.85607 0.93309 0.3975 0.0
C3503 C 0.82203 0.93682 0.39858 0.0
C3504 C 0.88641 0.90677 0.40102 0.0
C3505 C 0.87844 0.91227 0.39969 0.0
C3506 C 0.85618 0.91914 0.41109 0.0
C3507 C 0.83905 0.93656 0.40067 0.0
C3508 C 0.84784 0.93131 0.40264 0.0
C3509 C 0.87295 0.91512 0.40734 0.0
C3510 C 0.86437 0.92084 0.40587 0.0
H3511 H 0.83168 0.95831 0.39459 0.0
H3512 H 0.846 0.94993 0.39858 0.0
H3513 H 0.84187 0.92285 0.41368 0.0
H3514 H 0.8854 0.90465 0.42474 0.0
H3515 H 0.87168 0.91449 0.42244 0.0
C3516 C 0.33025 0.55043 0.59712 0.0
C3517 C 0.33119 0.54421 0.60462 0.0
C3518 C 0.33703 0.55738 0.5956 0.0
C3519 C 0.35571 0.57091 0.60761 0.0
H3520 H 0.36504 0.57525 0.58257 0.0
C3521 C 0.38842 0.59386 0.60079 0.0
C3522 C 0.3884 0.59959 0.59285 0.0
C3523 C 0.3812 0.58736 0.60219 0.0
C3524 C 0.36242 0.57423 0.58959 0.0
H3525 H 0.33992 0.54048 0.61649 0.0
H3526 H 0.35178 0.55256 0.61381 0.0
H3527 H 0.35285 0.56346 0.58505 0.0
H3528 H 0.3807 0.60311 0.58025 0.0
H3529 H 0.36801 0.59184 0.58275 0.0
H3530 H 0.36522 0.5817 0.61216 0.0
C3531 C 0.34578 0.55209 0.60912 0.0
C3532 C 0.35544 0.56746 0.59101 0.0
C3533 C 0.33904 0.54511 0.6106 0.0
C3534 C 0.38096 0.59872 0.58638 0.0
C3535 C 0.3737 0.59224 0.5878 0.0
C3536 C 0.36264 0.57772 0.60619 0.0
C3537 C 0.34486 0.5583 0.60161 0.0
C3538 C 0.35206 0.56568 0.60004 0.0
C3539 C 0.37375 0.58645 0.59571 0.0
C3540 C 0.36614 0.57942 0.59717 0.0
H3541 H 0.32431 0.54986 0.59236 0.0
H3542 H 0.33609 0.5621 0.58979 0.0
H3543 H 0.35314 0.56981 0.61463 0.0
H3544 H 0.39414 0.59425 0.60582 0.0
H3545 H 0.38156 0.5829 0.60827 0.0
C3546 C 0.65647 0.03874 0.88835 0.0
C3547 C 0.66361 0.03762 0.89508 0.0
C3548 C 0.65022 0.04621 0.88898 0.0
C3549 C 0.64048 0.06385 0.90506 0.0
H3550 H 0.63738 0.07852 0.88257 0.0
C3551 C 0.62443 0.1009 0.90541 0.0
C3552 C 0.61928 0.10378 0.89754 0.0
C3553 C 0.62894 0.09224 0.90541 0.0
C3554 C 0.63799 0.07442 0.88888 0.0
H3555 H 0.66959 0.04324 0.90794 0.0
H3556 H 0.65864 0.05631 0.90907 0.0
H3557 H 0.64675 0.06437 0.88208 0.0
H3558 H 0.61438 0.09969 0.88372 0.0
H3559 H 0.622 0.08448 0.8838 0.0
H3560 H 0.6317 0.07389 0.91186 0.0
C3561 C 0.65789 0.0514 0.9033 0.0
C3562 C 0.6434 0.06632 0.8886 0.0
C3563 C 0.6642 0.04397 0.90262 0.0
C3564 C 0.61842 0.09769 0.88982 0.0
C3565 C 0.62283 0.089 0.88987 0.0
C3566 C 0.63498 0.07193 0.90533 0.0
C3567 C 0.65093 0.05267 0.89641 0.0
C3568 C 0.64477 0.06099 0.89669 0.0
C3569 C 0.62832 0.08624 0.89758 0.0
C3570 C 0.63373 0.07736 0.89726 0.0
H3571 H 0.65589 0.034 0.88242 0.0
H3572 H 0.64488 0.04698 0.88361 0.0
H3573 H 0.64135 0.05982 0.91138 0.0
H3574 H 0.62527 0.1055 0.91142 0.0
H3575 H 0.6332 0.09043 0.91143 0.0
C3576 C 0.16509 0.54805 0.39353 0.0
C3577 C 0.1739 0.55025 0.39752 0.0
C3578 C 0.15731 0.55374 0.3952 0.0
C3579 C 0.14842 0.57296 0.41034 0.0
H3580 H 0.13452 0.57985 0.38805 0.0
C3581 C 0.12781 0.60728 0.40711 0.0
C3582 C 0.11957 0.60742 0.40162 0.0
C3583 C 0.13312 0.59914 0.40782 0.0
C3584 C 0.13818 0.57788 0.39439 0.0
H3585 H 0.18133 0.55986 0.40681 0.0
H3586 H 0.16783 0.56989 0.40957 0.0
H3587 H 0.14625 0.5676 0.38714 0.0
H3588 H 0.11014 0.59894 0.39305 0.0
H3589 H 0.11942 0.5847 0.39429 0.0
H3590 H 0.14053 0.58349 0.41752 0.0
C3591 C 0.16689 0.56373 0.40521 0.0
C3592 C 0.14492 0.57084 0.39387 0.0
C3593 C 0.17466 0.55805 0.40353 0.0
C3594 C 0.11654 0.5991 0.3972 0.0
C3595 C 0.12185 0.59095 0.39791 0.0
C3596 C 0.14167 0.58001 0.41087 0.0
C3597 C 0.15817 0.56175 0.4009 0.0
C3598 C 0.15026 0.56843 0.40179 0.0
C3599 C 0.13031 0.59093 0.40306 0.0
C3600 C 0.13661 0.58269 0.40285 0.0
H3601 H 0.16427 0.54213 0.38882 0.0
H3602 H 0.15066 0.55196 0.39187 0.0
H3603 H 0.15231 0.57117 0.41661 0.0
H3604 H 0.13041 0.61359 0.4105 0.0
H3605 H 0.13966 0.59941 0.41173 0.0
C3606 C 0.66826 0.9502 0.61505 0.0
C3607 C 0.67544 0.94981 0.60834 0.0
C3608 C 0.66038 0.94434 0.61428 0.0
C3609 C 0.64682 0.92917 0.598 0.0
H3610 H 0.64074 0.91534 0.6204 0.0
C3611 C 0.62455 0.89524 0.59733 0.0
C3612 C 0.61892 0.89316 0.60509 0.0
C3613 C 0.63036 0.90317 0.59739 0.0
C3614 C 0.64218 0.91925 0.61412 0.0
H3615 H 0.67978 0.94328 0.59534 0.0
H3616 H 0.66603 0.933 0.59402 0.0
H3617 H 0.65278 0.92747 0.62106 0.0
H3618 H 0.61452 0.89801 0.61876 0.0
H3619 H 0.62446 0.91198 0.6188 0.0
H3620 H 0.63624 0.92091 0.59104 0.0
C3621 C 0.66649 0.93786 0.59987 0.0
C3622 C 0.64912 0.9262 0.6145 0.0
C3623 C 0.67441 0.94367 0.60067 0.0
C3624 C 0.61889 0.89938 0.61274 0.0
C3625 C 0.62462 0.90736 0.61277 0.0
C3626 C 0.63981 0.92226 0.59763 0.0
C3627 C 0.65949 0.938 0.60676 0.0
C3628 C 0.6516 0.93115 0.60643 0.0
C3629 C 0.6306 0.90924 0.60519 0.0
C3630 C 0.63749 0.91712 0.60566 0.0
H3631 H 0.66888 0.95481 0.62107 0.0
H3632 H 0.65505 0.94466 0.61966 0.0
H3633 H 0.64852 0.93295 0.59169 0.0
H3634 H 0.62477 0.89052 0.59138 0.0
H3635 H 0.63494 0.90431 0.59148 0.0
C3636 C 0.3424 0.46031 0.89459 0.0
C3637 C 0.33329 0.4588 0.89808 0.0
C3638 C 0.34951 0.4538 0.89614 0.0
C3639 C 0.35637 0.43436 0.91153 0.0
H3640 H 0.37326 0.42819 0.89121 0.0
C3641 C 0.38325 0.40421 0.9137 0.0
C3642 C 0.3922 0.40583 0.90989 0.0
C3643 C 0.37601 0.41065 0.91241 0.0
C3644 C 0.36867 0.42991 0.89699 0.0
H3645 H 0.32456 0.44931 0.90607 0.0
H3646 H 0.33695 0.43787 0.90867 0.0
H3647 H 0.36071 0.43942 0.88868 0.0
H3648 H 0.40064 0.41561 0.90195 0.0
H3649 H 0.38803 0.42685 0.89972 0.0
H3650 H 0.36435 0.42484 0.91984 0.0
C3651 C 0.3386 0.44413 0.90478 0.0
C3652 C 0.36148 0.43635 0.89554 0.0
C3653 C 0.33147 0.45064 0.90321 0.0
C3654 C 0.39378 0.41408 0.90484 0.0
C3655 C 0.38655 0.42052 0.90356 0.0
C3656 C 0.36358 0.42792 0.91299 0.0
C3657 C 0.34769 0.44563 0.90124 0.0
C3658 C 0.35526 0.43868 0.90279 0.0
C3659 C 0.37756 0.41886 0.90728 0.0
C3660 C 0.36983 0.42564 0.90574 0.0
H3661 H 0.34401 0.46647 0.89053 0.0
H3662 H 0.35646 0.45522 0.89341 0.0
H3663 H 0.35178 0.43609 0.91729 0.0
H3664 H 0.38177 0.39786 0.91752 0.0
H3665 H 0.36913 0.4091 0.91527 0.0
C3666 C 0.84026 0.04007 0.09955 0.0
C3667 C 0.83071 0.0426 0.09945 0.0
C3668 C 0.8473 0.04674 0.09802 0.0
C3669 C 0.85135 0.07049 0.08847 0.0
H3670 H 0.87426 0.0693 0.10326 0.0
C3671 C 0.88353 0.09424 0.08124 0.0
C3672 C 0.88866 0.09771 0.08898 0.0
C3673 C 0.87641 0.08757 0.08241 0.0
C3674 C 0.86787 0.0698 0.09913 0.0
H3675 H 0.82111 0.05415 0.09746 0.0
H3676 H 0.83338 0.06584 0.09508 0.0
H3677 H 0.86192 0.05769 0.10554 0.0
H3678 H 0.89027 0.09683 0.10405 0.0
H3679 H 0.87767 0.08545 0.10612 0.0
H3680 H 0.85718 0.08278 0.08227 0.0
C3681 C 0.83543 0.05865 0.09622 0.0
C3682 C 0.86084 0.06305 0.10034 0.0
C3683 C 0.82839 0.05197 0.0977 0.0
C3684 C 0.88641 0.0944 0.09794 0.0
C3685 C 0.87926 0.08777 0.09911 0.0
C3686 C 0.85836 0.07727 0.08729 0.0
C3687 C 0.84498 0.05614 0.09639 0.0
C3688 C 0.85249 0.0633 0.09503 0.0
C3689 C 0.8742 0.08423 0.09136 0.0
C3690 C 0.86672 0.07701 0.09261 0.0
H3691 H 0.84232 0.03294 0.10097 0.0
H3692 H 0.85457 0.04452 0.09808 0.0
H3693 H 0.84505 0.07085 0.08418 0.0
H3694 H 0.88499 0.09671 0.07425 0.0
H3695 H 0.87273 0.08494 0.07627 0.0
C3696 C 0.10403 0.17204 0.44024 0.0
C3697 C 0.10865 0.17996 0.43666 0.0
C3698 C 0.1034 0.16377 0.43496 0.0
C3699 C 0.11441 0.1515 0.41492 0.0
H3700 H 0.09128 0.13695 0.41473 0.0
C3701 C 0.10745 0.12162 0.3884 0.0
C3702 C 0.10333 0.11336 0.3918 0.0
C3703 C 0.10815 0.12959 0.39408 0.0
C3704 C 0.09782 0.14089 0.41479 0.0
H3705 H 0.11633 0.18532 0.42476 0.0
H3706 H 0.115 0.17105 0.41548 0.0
H3707 H 0.09238 0.15116 0.42425 0.0
H3708 H 0.0968 0.10701 0.4039 0.0
H3709 H 0.09794 0.12098 0.41377 0.0
H3710 H 0.11981 0.14129 0.40537 0.0
C3711 C 0.11197 0.17117 0.42241 0.0
C3712 C 0.09846 0.14903 0.42025 0.0
C3713 C 0.11261 0.17941 0.42769 0.0
C3714 C 0.09989 0.11329 0.40101 0.0
C3715 C 0.10055 0.12129 0.40667 0.0
C3716 C 0.11376 0.1434 0.40943 0.0
C3717 C 0.10738 0.16323 0.42599 0.0
C3718 C 0.10675 0.15446 0.42035 0.0
C3719 C 0.10471 0.12952 0.40327 0.0
C3720 C 0.10545 0.13803 0.40927 0.0
H3721 H 0.10082 0.17224 0.44708 0.0
H3722 H 0.0999 0.15777 0.43797 0.0
H3723 H 0.12097 0.15541 0.41497 0.0
H3724 H 0.11001 0.12198 0.3813 0.0
H3725 H 0.11126 0.13587 0.39121 0.0
C3726 C 0.03206 0.88597 0.66998 0.0
C3727 C 0.03183 0.89163 0.67805 0.0
C3728 C 0.03959 0.88659 0.66377 0.0
C3729 C 0.05938 0.90165 0.65648 0.0
H3730 H 0.07075 0.87823 0.6489 0.0
C3731 C 0.09638 0.89964 0.64005 0.0
C3732 C 0.09807 0.89265 0.63331 0.0
C3733 C 0.08777 0.9 0.6447 0.0
C3734 C 0.06758 0.88484 0.6508 0.0
H3735 H 0.03913 0.90261 0.68577 0.0
H3736 H 0.05232 0.90366 0.67494 0.0
H3737 H 0.0566 0.87804 0.6584 0.0
H3738 H 0.09191 0.88086 0.62583 0.0
H3739 H 0.0768 0.88159 0.6338 0.0
H3740 H 0.07038 0.90845 0.64889 0.0
C3741 C 0.04666 0.89877 0.67341 0.0
C3742 C 0.05947 0.88472 0.65626 0.0
C3743 C 0.03916 0.8981 0.67965 0.0
C3744 C 0.09085 0.88623 0.63109 0.0
C3745 C 0.08221 0.88664 0.63569 0.0
C3746 C 0.06747 0.90177 0.65095 0.0
C3747 C 0.04702 0.89292 0.66547 0.0
C3748 C 0.05533 0.89312 0.65923 0.0
C3749 C 0.08062 0.89342 0.64267 0.0
C3750 C 0.07172 0.89336 0.64811 0.0
H3751 H 0.02655 0.88086 0.66859 0.0
H3752 H 0.03963 0.88205 0.65766 0.0
H3753 H 0.05628 0.90823 0.65858 0.0
H3754 H 0.10185 0.90462 0.64197 0.0
H3755 H 0.08685 0.90524 0.65012 0.0
C3756 C 0.38878 0.82387 0.92835 0.0
C3757 C 0.39275 0.82309 0.93734 0.0
C3758 C 0.38984 0.83208 0.92324 0.0
C3759 C 0.4044 0.8535 0.92146 0.0
H3760 H 0.3831 0.86244 0.90709 0.0
C3761 C 0.4042 0.88942 0.90293 0.0
C3762 C 0.40028 0.88962 0.89387 0.0
C3763 C 0.40344 0.88139 0.9084 0.0
C3764 C 0.38914 0.85999 0.91099 0.0
H3765 H 0.40104 0.83034 0.94796 0.0
H3766 H 0.40272 0.84477 0.9391 0.0
H3767 H 0.38145 0.84834 0.91638 0.0
H3768 H 0.39275 0.88141 0.88339 0.0
H3769 H 0.39138 0.86746 0.89295 0.0
H3770 H 0.41206 0.86521 0.91607 0.0
C3771 C 0.39888 0.83897 0.93597 0.0
C3772 C 0.3882 0.8519 0.91632 0.0
C3773 C 0.39782 0.83074 0.94109 0.0
C3774 C 0.39568 0.88157 0.8904 0.0
C3775 C 0.3949 0.87356 0.89587 0.0
C3776 C 0.40533 0.86163 0.91615 0.0
C3777 C 0.39486 0.83974 0.927 0.0
C3778 C 0.39583 0.84851 0.92156 0.0
C3779 C 0.39873 0.8734 0.90495 0.0
C3780 C 0.39773 0.86492 0.9108 0.0
H3781 H 0.38473 0.81817 0.92529 0.0
H3782 H 0.38676 0.83238 0.9163 0.0
H3783 H 0.41045 0.85103 0.92534 0.0
H3784 H 0.40769 0.89554 0.90586 0.0
H3785 H 0.40638 0.88151 0.91541 0.0
C3786 C 0.45328 0.11951 0.17413 0.0
C3787 C 0.45221 0.11372 0.18196 0.0
C3788 C 0.44776 0.11806 0.16612 0.0
C3789 C 0.43348 0.10037 0.1536 0.0
H3790 H 0.42187 0.12184 0.14198 0.0
C3791 C 0.40549 0.09656 0.12431 0.0
C3792 C 0.40571 0.10307 0.117 0.0
C3793 C 0.41128 0.09775 0.13217 0.0
C3794 C 0.42516 0.11578 0.14505 0.0
H3795 H 0.44467 0.10176 0.18745 0.0
H3796 H 0.43499 0.09925 0.17345 0.0
H3797 H 0.43188 0.12407 0.15572 0.0
H3798 H 0.41233 0.1158 0.1121 0.0
H3799 H 0.42253 0.11782 0.12574 0.0
H3800 H 0.42685 0.09209 0.14289 0.0
C3801 C 0.44012 0.10489 0.17352 0.0
C3802 C 0.43088 0.11706 0.15294 0.0
C3803 C 0.44559 0.10638 0.18156 0.0
C3804 C 0.4119 0.11075 0.11769 0.0
C3805 C 0.41773 0.1119 0.12552 0.0
C3806 C 0.42781 0.09909 0.14567 0.0
C3807 C 0.4411 0.11076 0.16574 0.0
C3808 C 0.43509 0.10937 0.15731 0.0
C3809 C 0.41747 0.10545 0.13288 0.0
C3810 C 0.42356 0.10678 0.1413 0.0
H3811 H 0.45827 0.12527 0.17426 0.0
H3812 H 0.44873 0.12265 0.16021 0.0
H3813 H 0.43673 0.09433 0.15676 0.0
H3814 H 0.4007 0.09064 0.12403 0.0
H3815 H 0.41078 0.09272 0.13777 0.0
C3816 C 0.10887 0.83412 0.05031 0.0
C3817 C 0.11253 0.82504 0.05104 0.0
C3818 C 0.10948 0.84039 0.05786 0.0
C3819 C 0.12266 0.84458 0.07998 0.0
H3820 H 0.1015 0.8603 0.08641 0.0
C3821 C 0.1201 0.86324 0.11556 0.0
C3822 C 0.11715 0.87261 0.11568 0.0
C3823 C 0.11955 0.85791 0.10735 0.0
C3824 C 0.1075 0.85603 0.08463 0.0
H3825 H 0.11981 0.81549 0.06027 0.0
H3826 H 0.12063 0.82627 0.07347 0.0
H3827 H 0.10052 0.8501 0.07263 0.0
H3828 H 0.11126 0.88368 0.10722 0.0
H3829 H 0.1102 0.87428 0.09288 0.0
H3830 H 0.12957 0.85036 0.09205 0.0
C3831 C 0.11739 0.82862 0.06703 0.0
C3832 C 0.10696 0.8502 0.07673 0.0
C3833 C 0.1168 0.82238 0.05949 0.0
C3834 C 0.1135 0.87646 0.1074 0.0
C3835 C 0.1129 0.8711 0.09918 0.0
C3836 C 0.12318 0.85036 0.08788 0.0
C3837 C 0.11378 0.83771 0.06631 0.0
C3838 C 0.11449 0.84431 0.07438 0.0
C3839 C 0.116 0.86178 0.09906 0.0
C3840 C 0.11557 0.85606 0.09036 0.0
H3841 H 0.10546 0.83637 0.04392 0.0
H3842 H 0.10669 0.84736 0.05705 0.0
H3843 H 0.12868 0.8403 0.07826 0.0
H3844 H 0.12274 0.85997 0.12184 0.0
H3845 H 0.12182 0.8507 0.10753 0.0
C3846 C 0.46495 0.8859 0.33731 0.0
C3847 C 0.46376 0.88977 0.32838 0.0
C3848 C 0.45812 0.88715 0.3442 0.0
C3849 C 0.4383 0.90226 0.35094 0.0
H3850 H 0.43126 0.88127 0.36646 0.0
C3851 C 0.40675 0.9036 0.37626 0.0
C3852 C 0.40791 0.89943 0.38506 0.0
C3853 C 0.41354 0.90248 0.36931 0.0
C3854 C 0.43322 0.88723 0.36226 0.0
H3855 H 0.45452 0.89811 0.31972 0.0
H3856 H 0.44254 0.90018 0.33171 0.0
H3857 H 0.44316 0.87923 0.35443 0.0
H3858 H 0.41723 0.89097 0.39351 0.0
H3859 H 0.42908 0.88904 0.38141 0.0
H3860 H 0.42838 0.91027 0.3588 0.0
C3861 C 0.44879 0.89623 0.3334 0.0
C3862 C 0.44004 0.88606 0.35536 0.0
C3863 C 0.45561 0.89496 0.32651 0.0
C3864 C 0.41604 0.89415 0.38676 0.0
C3865 C 0.42284 0.89304 0.37982 0.0
C3866 C 0.43148 0.90344 0.35786 0.0
C3867 C 0.44996 0.89231 0.34232 0.0
C3868 C 0.44267 0.89356 0.34963 0.0
C3869 C 0.42166 0.89718 0.371 0.0
C3870 C 0.42887 0.89594 0.36361 0.0
H3871 H 0.47111 0.88179 0.33895 0.0
H3872 H 0.45929 0.88412 0.35102 0.0
H3873 H 0.44026 0.90821 0.34672 0.0
H3874 H 0.4005 0.90761 0.37469 0.0
H3875 H 0.41235 0.90565 0.36256 0.0
C3876 C 0.38806 0.17633 0.56933 0.0
C3877 C 0.39243 0.17754 0.56062 0.0
C3878 C 0.38956 0.16825 0.57452 0.0
C3879 C 0.39692 0.1437 0.57237 0.0
H3880 H 0.40034 0.14581 0.59924 0.0
C3881 C 0.40581 0.11194 0.59565 0.0
C3882 C 0.40104 0.11135 0.60422 0.0
C3883 C 0.40517 0.11999 0.5902 0.0
C3884 C 0.3993 0.14509 0.59175 0.0
H3885 H 0.40184 0.17117 0.55056 0.0
H3886 H 0.40442 0.15701 0.55963 0.0
H3887 H 0.39851 0.15989 0.58996 0.0
H3888 H 0.39196 0.11881 0.61382 0.0
H3889 H 0.39068 0.13273 0.60424 0.0
H3890 H 0.39763 0.12887 0.57419 0.0
C3891 C 0.39977 0.16231 0.56239 0.0
C3892 C 0.39826 0.15316 0.58643 0.0
C3893 C 0.39829 0.17042 0.5572 0.0
C3894 C 0.39563 0.11898 0.60721 0.0
C3895 C 0.39499 0.12702 0.60177 0.0
C3896 C 0.39795 0.13561 0.5777 0.0
C3897 C 0.39544 0.16115 0.57113 0.0
C3898 C 0.39697 0.15256 0.57669 0.0
C3899 C 0.39977 0.12763 0.59321 0.0
C3900 C 0.39906 0.13621 0.58747 0.0
H3901 H 0.38335 0.18159 0.57209 0.0
H3902 H 0.38597 0.1675 0.58114 0.0
H3903 H 0.39583 0.143 0.56489 0.0
H3904 H 0.40998 0.10615 0.59312 0.0
H3905 H 0.40899 0.12026 0.58367 0.0
C3906 C 0.03914 0.10134 0.82022 0.0
C3907 C 0.032 0.10795 0.82155 0.0
C3908 C 0.04661 0.10071 0.82659 0.0
C3909 C 0.05972 0.11503 0.84359 0.0
H3910 H 0.07016 0.0914 0.8516 0.0
C3911 C 0.09092 0.11394 0.86932 0.0
C3912 C 0.09805 0.10748 0.86735 0.0
C3913 C 0.08229 0.11344 0.8646 0.0
C3914 C 0.06738 0.09806 0.84937 0.0
H3915 H 0.027 0.119 0.8307 0.0
H3916 H 0.04 0.11786 0.84186 0.0
H3917 H 0.05608 0.09151 0.8417 0.0
H3918 H 0.1017 0.09533 0.85902 0.0
H3919 H 0.08671 0.09454 0.85063 0.0
H3920 H 0.0711 0.12161 0.85099 0.0
C3921 C 0.03985 0.11319 0.83585 0.0
C3922 C 0.05931 0.09811 0.84371 0.0
C3923 C 0.03236 0.11378 0.82951 0.0
C3924 C 0.09629 0.10035 0.86074 0.0
C3925 C 0.08769 0.09989 0.85595 0.0
C3926 C 0.06781 0.11498 0.84918 0.0
C3927 C 0.04711 0.10673 0.8344 0.0
C3928 C 0.05542 0.1066 0.84074 0.0
C3929 C 0.08063 0.10652 0.85772 0.0
C3930 C 0.07177 0.1065 0.85211 0.0
H3931 H 0.039 0.09669 0.81419 0.0
H3932 H 0.05213 0.0957 0.82525 0.0
H3933 H 0.057 0.12168 0.84128 0.0
H3934 H 0.09203 0.11942 0.87449 0.0
H3935 H 0.07695 0.11853 0.86629 0.0
C3936 C 0.96511 0.38699 0.83696 0.0
C3937 C 0.96357 0.39036 0.82787 0.0
C3938 C 0.95834 0.3882 0.8439 0.0
C3939 C 0.9378 0.40254 0.85025 0.0
H3940 H 0.93226 0.38206 0.86699 0.0
C3941 C 0.9066 0.40338 0.87602 0.0
C3942 C 0.90817 0.3998 0.88502 0.0
C3943 C 0.91334 0.40229 0.86902 0.0
C3944 C 0.93379 0.38789 0.86244 0.0
H3945 H 0.95374 0.39776 0.819 0.0
H3946 H 0.94185 0.39976 0.83109 0.0
H3947 H 0.94405 0.38006 0.85485 0.0
H3948 H 0.91815 0.39245 0.89377 0.0
H3949 H 0.9299 0.39056 0.88157 0.0
H3950 H 0.92754 0.41037 0.85785 0.0
C3951 C 0.94834 0.39624 0.83286 0.0
C3952 C 0.94056 0.38674 0.85548 0.0
C3953 C 0.9551 0.395 0.8259 0.0
C3954 C 0.91665 0.39515 0.88687 0.0
C3955 C 0.92339 0.39406 0.87987 0.0
C3956 C 0.93103 0.40369 0.85722 0.0
C3957 C 0.94987 0.39283 0.84193 0.0
C3958 C 0.94265 0.39406 0.84931 0.0
C3959 C 0.92181 0.3976 0.87086 0.0
C3960 C 0.92896 0.39638 0.86341 0.0
H3961 H 0.97152 0.3833 0.83868 0.0
H3962 H 0.95979 0.38559 0.85085 0.0
H3963 H 0.93934 0.40836 0.84569 0.0
H3964 H 0.90008 0.40689 0.87433 0.0
H3965 H 0.91184 0.40499 0.86211 0.0
C3966 C 0.88616 0.67721 0.06888 0.0
C3967 C 0.89095 0.67851 0.0604 0.0
C3968 C 0.88711 0.66891 0.07385 0.0
C3969 C 0.90259 0.64849 0.07673 0.0
H3970 H 0.88065 0.63774 0.08866 0.0
C3971 C 0.90316 0.61252 0.0951 0.0
C3972 C 0.89853 0.61199 0.10375 0.0
C3973 C 0.90226 0.62044 0.0895 0.0
C3974 C 0.88686 0.64069 0.08544 0.0
H3975 H 0.90055 0.6721 0.05056 0.0
H3976 H 0.90206 0.65751 0.05916 0.0
H3977 H 0.87902 0.65187 0.07942 0.0
H3978 H 0.88947 0.61947 0.11336 0.0
H3979 H 0.88785 0.63322 0.10358 0.0
H3980 H 0.91042 0.63728 0.08279 0.0
C3981 C 0.89765 0.66297 0.062 0.0
C3982 C 0.88593 0.6488 0.08015 0.0
C3983 C 0.8967 0.67129 0.05702 0.0
C3984 C 0.89299 0.61957 0.10666 0.0
C3985 C 0.89206 0.62746 0.10106 0.0
C3986 C 0.90351 0.64036 0.08202 0.0
C3987 C 0.89284 0.66168 0.07047 0.0
C3988 C 0.8938 0.65285 0.0758 0.0
C3989 C 0.89667 0.62799 0.09241 0.0
C3990 C 0.89567 0.63642 0.0865 0.0
H3991 H 0.88158 0.68258 0.07163 0.0
H3992 H 0.8834 0.6682 0.08041 0.0
H3993 H 0.90882 0.65149 0.07357 0.0
H3994 H 0.90739 0.60676 0.09259 0.0
H3995 H 0.90582 0.6206 0.08282 0.0
C3996 C 0.54133 0.60396 0.31655 0.0
C3997 C 0.53214 0.60575 0.31966 0.0
C3998 C 0.5487 0.60286 0.32294 0.0
C3999 C 0.55551 0.60901 0.34716 0.0
H4000 H 0.57639 0.59254 0.34186 0.0
C4001 C 0.59191 0.61396 0.36437 0.0
C4002 C 0.59742 0.60606 0.36627 0.0
C4003 C 0.58331 0.61304 0.35966 0.0
C4004 C 0.57057 0.59708 0.34355 0.0
H4005 H 0.52348 0.60753 0.33198 0.0
H4006 H 0.5363 0.60536 0.34315 0.0
H4007 H 0.56248 0.59203 0.33188 0.0
H4008 H 0.59805 0.59096 0.36492 0.0
H4009 H 0.5829 0.58933 0.35695 0.0
H4010 H 0.56355 0.61398 0.3589 0.0
C4011 C 0.53783 0.60497 0.33574 0.0
C4012 C 0.56263 0.59688 0.33774 0.0
C4013 C 0.53045 0.60611 0.32934 0.0
C4014 C 0.59396 0.59719 0.36362 0.0
C4015 C 0.58533 0.59626 0.35895 0.0
C4016 C 0.56342 0.60917 0.35301 0.0
C4017 C 0.54707 0.60346 0.33262 0.0
C4018 C 0.55508 0.60298 0.33935 0.0
C4019 C 0.57996 0.60419 0.35679 0.0
C4020 C 0.57114 0.60335 0.35116 0.0
H4021 H 0.54286 0.60348 0.30915 0.0
H4022 H 0.55573 0.60182 0.32026 0.0
H4023 H 0.54987 0.61386 0.34859 0.0
H4024 H 0.59428 0.62089 0.36644 0.0
H4025 H 0.57944 0.61932 0.35804 0.0
C4026 C 0.90214 0.32662 0.43259 0.0
C4027 C 0.8945 0.32584 0.43874 0.0
C4028 C 0.90369 0.33487 0.42765 0.0
C4029 C 0.89739 0.36003 0.4271 0.0
H4030 H 0.90462 0.35795 0.40105 0.0
C4031 C 0.89514 0.3908 0.40126 0.0
C4032 C 0.90258 0.39195 0.39492 0.0
C4033 C 0.89471 0.38295 0.40699 0.0
C4034 C 0.90272 0.35866 0.40835 0.0
H4035 H 0.8825 0.3331 0.44452 0.0
H4036 H 0.88513 0.34746 0.43583 0.0
H4037 H 0.90285 0.34386 0.41035 0.0
H4038 H 0.91541 0.38576 0.38966 0.0
H4039 H 0.91468 0.37206 0.39973 0.0
H4040 H 0.89708 0.37484 0.425 0.0
C4041 C 0.89004 0.34177 0.43495 0.0
C4042 C 0.90172 0.35058 0.41369 0.0
C4043 C 0.88852 0.33353 0.43993 0.0
C4044 C 0.90963 0.38511 0.39452 0.0
C4045 C 0.90917 0.37723 0.40022 0.0
C4046 C 0.89835 0.36811 0.42173 0.0
C4047 C 0.89761 0.34252 0.4287 0.0
C4048 C 0.89899 0.35116 0.42312 0.0
C4049 C 0.90167 0.37604 0.40648 0.0
C4050 C 0.90097 0.3675 0.41229 0.0
H4051 H 0.90696 0.32086 0.43163 0.0
H4052 H 0.90969 0.33527 0.42302 0.0
H4053 H 0.89544 0.36075 0.43438 0.0
H4054 H 0.88965 0.39599 0.40179 0.0
H4055 H 0.8888 0.3822 0.41169 0.0
C4056 C 0.61251 0.67986 0.92688 0.0
C4057 C 0.60894 0.68024 0.93602 0.0
C4058 C 0.61177 0.67168 0.92153 0.0
C4059 C 0.59848 0.6494 0.91964 0.0
H4060 H 0.61923 0.64218 0.9037 0.0
C4061 C 0.59966 0.61394 0.89981 0.0
C4062 C 0.6028 0.61415 0.8905 0.0
C4063 C 0.60034 0.6219 0.90552 0.0
C4064 C 0.61334 0.64415 0.90805 0.0
H4065 H 0.60174 0.67226 0.94669 0.0
H4066 H 0.60065 0.65789 0.93744 0.0
H4067 H 0.62065 0.65615 0.91347 0.0
H4068 H 0.60891 0.62301 0.87985 0.0
H4069 H 0.61018 0.63685 0.88984 0.0
H4070 H 0.59121 0.63733 0.91422 0.0
C4071 C 0.60392 0.66399 0.93436 0.0
C4072 C 0.61415 0.65216 0.91365 0.0
C4073 C 0.60464 0.6722 0.93971 0.0
C4074 C 0.60659 0.62254 0.88703 0.0
C4075 C 0.6073 0.63048 0.89275 0.0
C4076 C 0.5977 0.64135 0.91406 0.0
C4077 C 0.60748 0.66363 0.9252 0.0
C4078 C 0.6067 0.65493 0.91946 0.0
C4079 C 0.60422 0.63024 0.90207 0.0
C4080 C 0.6051 0.63867 0.90816 0.0
H4081 H 0.61598 0.68588 0.92386 0.0
H4082 H 0.61448 0.6717 0.91447 0.0
H4083 H 0.59256 0.65139 0.92393 0.0
H4084 H 0.59683 0.60757 0.90276 0.0
H4085 H 0.598 0.62147 0.91271 0.0
C4086 C 0.80739 0.57459 0.84852 0.0
C4087 C 0.79931 0.57667 0.85375 0.0
C4088 C 0.81489 0.58094 0.84813 0.0
C4089 C 0.82558 0.60048 0.86137 0.0
H4090 H 0.83981 0.60432 0.83865 0.0
C4091 C 0.85675 0.62637 0.86024 0.0
C4092 C 0.86494 0.62314 0.85581 0.0
C4093 C 0.84825 0.62147 0.85927 0.0
C4094 C 0.83594 0.60327 0.84506 0.0
H4095 H 0.79264 0.58722 0.86239 0.0
H4096 H 0.80575 0.59829 0.86174 0.0
H4097 H 0.82582 0.59431 0.83829 0.0
H4098 H 0.8705 0.61247 0.84656 0.0
H4099 H 0.85572 0.60383 0.84501 0.0
H4100 H 0.83576 0.60929 0.86819 0.0
C4101 C 0.80634 0.59168 0.85806 0.0
C4102 C 0.82793 0.59754 0.84486 0.0
C4103 C 0.79883 0.58533 0.85843 0.0
C4104 C 0.86435 0.61508 0.85015 0.0
C4105 C 0.85585 0.61018 0.84918 0.0
C4106 C 0.83358 0.6062 0.86158 0.0
C4107 C 0.81449 0.58952 0.85298 0.0
C4108 C 0.82271 0.59601 0.85303 0.0
C4109 C 0.84774 0.61324 0.85385 0.0
C4110 C 0.83891 0.6076 0.85345 0.0
H4111 H 0.80804 0.56793 0.84493 0.0
H4112 H 0.82112 0.579 0.84427 0.0
H4113 H 0.8218 0.59933 0.86783 0.0
H4114 H 0.85697 0.63251 0.86471 0.0
H4115 H 0.84211 0.62408 0.86286 0.0
C4116 C 0.1948 0.08344 0.64109 0.0
C4117 C 0.19263 0.07476 0.64512 0.0
C4118 C 0.18856 0.09091 0.64182 0.0
C4119 C 0.16759 0.09943 0.65461 0.0
H4120 H 0.16216 0.11219 0.63139 0.0
C4121 C 0.13305 0.11917 0.64787 0.0
C4122 C 0.13325 0.12721 0.64227 0.0
C4123 C 0.14121 0.11397 0.64932 0.0
C4124 C 0.1637 0.10885 0.63799 0.0
H4125 H 0.18226 0.06721 0.65326 0.0
H4126 H 0.1714 0.08023 0.65454 0.0
H4127 H 0.17488 0.10093 0.63198 0.0
H4128 H 0.14225 0.13626 0.63409 0.0
H4129 H 0.15653 0.12727 0.63676 0.0
H4130 H 0.15623 0.1072 0.66054 0.0
C4131 C 0.17799 0.0813 0.65092 0.0
C4132 C 0.171 0.10238 0.63833 0.0
C4133 C 0.18422 0.07383 0.65018 0.0
C4134 C 0.14187 0.13014 0.63847 0.0
C4135 C 0.15003 0.12493 0.63992 0.0
C4136 C 0.16028 0.10592 0.65428 0.0
C4137 C 0.18001 0.08988 0.64661 0.0
C4138 C 0.17292 0.09746 0.64659 0.0
C4139 C 0.14975 0.11669 0.64521 0.0
C4140 C 0.15814 0.11057 0.64591 0.0
H4141 H 0.2013 0.08443 0.63728 0.0
H4142 H 0.19038 0.09748 0.63855 0.0
H4143 H 0.16898 0.09587 0.66112 0.0
H4144 H 0.12655 0.11681 0.651 0.0
H4145 H 0.14072 0.10762 0.65336 0.0
C4146 C 0.68195 0.42641 0.3528 0.0
C4147 C 0.69039 0.42555 0.35789 0.0
C4148 C 0.67575 0.41884 0.35188 0.0
C4149 C 0.66884 0.39744 0.36401 0.0
H4150 H 0.65433 0.39256 0.34142 0.0
C4151 C 0.63987 0.3691 0.36296 0.0
C4152 C 0.63129 0.37185 0.35892 0.0
C4153 C 0.64802 0.37449 0.36176 0.0
C4154 C 0.6583 0.39385 0.34779 0.0
H4155 H 0.69913 0.4159 0.36564 0.0
H4156 H 0.68825 0.40269 0.3641 0.0
H4157 H 0.66698 0.40419 0.34126 0.0
H4158 H 0.62467 0.38213 0.35001 0.0
H4159 H 0.63879 0.39164 0.34811 0.0
H4160 H 0.66001 0.38735 0.37064 0.0
C4161 C 0.68639 0.40927 0.36092 0.0
C4162 C 0.66555 0.40051 0.34769 0.0
C4163 C 0.69261 0.41685 0.36181 0.0
C4164 C 0.63114 0.3799 0.35333 0.0
C4165 C 0.63927 0.38529 0.35215 0.0
C4166 C 0.66158 0.39081 0.36411 0.0
C4167 C 0.67782 0.41023 0.35606 0.0
C4168 C 0.67079 0.4025 0.35585 0.0
C4169 C 0.64776 0.38275 0.35649 0.0
C4170 C 0.65611 0.38906 0.35605 0.0
H4171 H 0.67994 0.43304 0.34981 0.0
H4172 H 0.66915 0.41984 0.34822 0.0
H4173 H 0.67266 0.39889 0.37044 0.0
H4174 H 0.64023 0.36297 0.36734 0.0
H4175 H 0.65448 0.37228 0.3651 0.0
C4176 C 0.29714 0.9164 0.13795 0.0
C4177 C 0.29782 0.92532 0.14212 0.0
C4178 C 0.30462 0.91013 0.13854 0.0
C4179 C 0.32653 0.90511 0.15166 0.0
H4180 H 0.3338 0.89239 0.1288 0.0
C4181 C 0.3628 0.8878 0.14691 0.0
C4182 C 0.36332 0.87955 0.14154 0.0
C4183 C 0.35431 0.89261 0.14772 0.0
C4184 C 0.33178 0.89575 0.13529 0.0
H4185 H 0.30692 0.9346 0.15023 0.0
H4186 H 0.31993 0.92365 0.15128 0.0
H4187 H 0.31985 0.90218 0.12887 0.0
H4188 H 0.35524 0.86976 0.13298 0.0
H4189 H 0.34039 0.87803 0.13457 0.0
H4190 H 0.33853 0.89876 0.15806 0.0
C4191 C 0.31356 0.92147 0.14766 0.0
C4192 C 0.32378 0.90138 0.13533 0.0
C4193 C 0.30609 0.92774 0.14705 0.0
C4194 C 0.35508 0.87606 0.13724 0.0
C4195 C 0.34659 0.88086 0.13805 0.0
C4196 C 0.33452 0.89946 0.15164 0.0
C4197 C 0.31295 0.91263 0.14332 0.0
C4198 C 0.32112 0.9062 0.14348 0.0
C4199 C 0.34613 0.88928 0.14318 0.0
C4200 C 0.3373 0.8948 0.14342 0.0
H4201 H 0.29082 0.91425 0.13424 0.0
H4202 H 0.30389 0.90332 0.13524 0.0
H4203 H 0.32458 0.90863 0.1581 0.0
H4204 H 0.36899 0.89061 0.15042 0.0
H4205 H 0.35424 0.89911 0.15166 0.0
C4206 C 0.79548 0.41535 0.63981 0.0
C4207 C 0.79638 0.42448 0.64345 0.0
C4208 C 0.80295 0.40907 0.64043 0.0
C4209 C 0.82534 0.40454 0.65286 0.0
H4210 H 0.83185 0.39111 0.63017 0.0
C4211 C 0.86157 0.38742 0.6474 0.0
C4212 C 0.86204 0.37907 0.64217 0.0
C4213 C 0.85305 0.39213 0.64838 0.0
C4214 C 0.83005 0.39466 0.63662 0.0
H4215 H 0.80586 0.4341 0.65069 0.0
H4216 H 0.81882 0.42312 0.65184 0.0
H4217 H 0.81783 0.40079 0.63044 0.0
H4218 H 0.85383 0.36902 0.63406 0.0
H4219 H 0.83893 0.3771 0.63598 0.0
H4220 H 0.83761 0.39848 0.65903 0.0
C4221 C 0.8123 0.42079 0.64859 0.0
C4222 C 0.82201 0.40023 0.63677 0.0
C4223 C 0.80485 0.42709 0.64794 0.0
C4224 C 0.85372 0.37539 0.6382 0.0
C4225 C 0.84519 0.38009 0.6392 0.0
C4226 C 0.83336 0.39893 0.65273 0.0
C4227 C 0.81147 0.41175 0.64474 0.0
C4228 C 0.81963 0.40532 0.64485 0.0
C4229 C 0.84478 0.3886 0.64417 0.0
C4230 C 0.83588 0.39402 0.64457 0.0
H4231 H 0.789 0.41306 0.63646 0.0
H4232 H 0.80205 0.40211 0.63751 0.0
H4233 H 0.82361 0.40828 0.65923 0.0
H4234 H 0.86782 0.39038 0.65067 0.0
H4235 H 0.85302 0.39871 0.65219 0.0
C4236 C 0.29839 0.08599 0.357 0.0
C4237 C 0.2991 0.07698 0.35308 0.0
C4238 C 0.30591 0.09232 0.35647 0.0
C4239 C 0.32804 0.09722 0.34384 0.0
H4240 H 0.33504 0.11051 0.36661 0.0
C4241 C 0.36442 0.11473 0.34933 0.0
C4242 C 0.36495 0.12307 0.35458 0.0
C4243 C 0.35587 0.10991 0.34832 0.0
C4244 C 0.3331 0.10699 0.36013 0.0
H4245 H 0.30829 0.06759 0.34547 0.0
H4246 H 0.32136 0.07863 0.34451 0.0
H4247 H 0.32102 0.10063 0.36637 0.0
H4248 H 0.35682 0.13303 0.36266 0.0
H4249 H 0.34189 0.12476 0.3607 0.0
H4250 H 0.3402 0.1035 0.33764 0.0
C4251 C 0.31494 0.08085 0.34789 0.0
C4252 C 0.32506 0.10132 0.36001 0.0
C4253 C 0.30744 0.07451 0.34844 0.0
C4254 C 0.35666 0.12666 0.35851 0.0
C4255 C 0.34812 0.12186 0.35749 0.0
C4256 C 0.33608 0.10293 0.34396 0.0
C4257 C 0.3143 0.08978 0.35198 0.0
C4258 C 0.3225 0.09628 0.35189 0.0
C4259 C 0.34765 0.11334 0.35252 0.0
C4260 C 0.33876 0.1078 0.35214 0.0
H4261 H 0.29201 0.08818 0.36047 0.0
H4262 H 0.30515 0.0992 0.35957 0.0
H4263 H 0.32618 0.09354 0.33744 0.0
H4264 H 0.37064 0.11183 0.34611 0.0
H4265 H 0.35579 0.10334 0.34451 0.0
C4266 C 0.6825 0.57357 0.14939 0.0
C4267 C 0.6908 0.57458 0.14417 0.0
C4268 C 0.67617 0.58095 0.15019 0.0
C4269 C 0.66877 0.60198 0.13766 0.0
H4270 H 0.65424 0.60665 0.16007 0.0
C4271 C 0.63986 0.62995 0.13846 0.0
C4272 C 0.63124 0.62705 0.14229 0.0
C4273 C 0.64798 0.62463 0.13975 0.0
C4274 C 0.65822 0.60541 0.15375 0.0
H4275 H 0.69917 0.58431 0.1361 0.0
H4276 H 0.68812 0.59722 0.13751 0.0
H4277 H 0.66704 0.59535 0.16045 0.0
H4278 H 0.62449 0.61657 0.15088 0.0
H4279 H 0.6386 0.6072 0.15298 0.0
H4280 H 0.65983 0.61183 0.13089 0.0
C4281 C 0.68644 0.59065 0.14084 0.0
C4282 C 0.66555 0.59894 0.15397 0.0
C4283 C 0.69277 0.58326 0.14004 0.0
C4284 C 0.631 0.61892 0.14774 0.0
C4285 C 0.63911 0.61361 0.14903 0.0
C4286 C 0.66145 0.60844 0.13744 0.0
C4287 C 0.67799 0.58953 0.14579 0.0
C4288 C 0.67081 0.59704 0.14588 0.0
C4289 C 0.64765 0.61631 0.1449 0.0
C4290 C 0.65599 0.61012 0.14544 0.0
H4291 H 0.68071 0.56694 0.15255 0.0
H4292 H 0.66967 0.57981 0.15394 0.0
H4293 H 0.67257 0.60058 0.13126 0.0
H4294 H 0.64028 0.63615 0.13418 0.0
H4295 H 0.65447 0.62696 0.13657 0.0
C4296 C 0.18311 0.9268 0.85191 0.0
C4297 C 0.19052 0.92665 0.85846 0.0
C4298 C 0.17673 0.91935 0.85125 0.0
C4299 C 0.16716 0.90017 0.86542 0.0
H4300 H 0.15574 0.89226 0.84193 0.0
C4301 C 0.13891 0.87118 0.86401 0.0
C4302 C 0.13081 0.87327 0.85876 0.0
C4303 C 0.14703 0.87667 0.86323 0.0
C4304 C 0.15885 0.89442 0.84854 0.0
H4305 H 0.19733 0.91834 0.86912 0.0
H4306 H 0.18624 0.90527 0.86792 0.0
H4307 H 0.16858 0.90369 0.8419 0.0
H4308 H 0.12503 0.88246 0.84823 0.0
H4309 H 0.13918 0.89212 0.84694 0.0
H4310 H 0.15735 0.89103 0.87208 0.0
C4311 C 0.18524 0.91125 0.86343 0.0
C4312 C 0.1662 0.90097 0.84853 0.0
C4313 C 0.1916 0.91873 0.86411 0.0
C4314 C 0.13113 0.88074 0.85245 0.0
C4315 C 0.13926 0.88621 0.85164 0.0
C4316 C 0.15985 0.89361 0.86543 0.0
C4317 C 0.17763 0.91154 0.8571 0.0
C4318 C 0.17035 0.90402 0.85698 0.0
C4319 C 0.14725 0.88435 0.85715 0.0
C4320 C 0.15552 0.89074 0.85701 0.0
H4321 H 0.18202 0.93286 0.84754 0.0
H4322 H 0.17089 0.91987 0.84639 0.0
H4323 H 0.17008 0.90247 0.87207 0.0
H4324 H 0.13887 0.86552 0.86899 0.0
H4325 H 0.15311 0.87499 0.86749 0.0
C4326 C 0.85549 0.79082 0.59485 0.0
C4327 C 0.85254 0.79245 0.5856 0.0
C4328 C 0.85387 0.79744 0.60189 0.0
C4329 C 0.83909 0.81782 0.60775 0.0
H4330 H 0.85877 0.82319 0.62595 0.0
C4331 C 0.8372 0.84906 0.63349 0.0
C4332 C 0.84009 0.84752 0.64277 0.0
C4333 C 0.83866 0.84228 0.62658 0.0
C4334 C 0.85317 0.8217 0.62099 0.0
H4335 H 0.84543 0.80228 0.57655 0.0
H4336 H 0.84278 0.81391 0.58879 0.0
H4337 H 0.86138 0.81145 0.6138 0.0
H4338 H 0.8469 0.83767 0.65202 0.0
H4339 H 0.84933 0.82577 0.63997 0.0
H4340 H 0.83089 0.8281 0.61492 0.0
C4341 C 0.84626 0.80747 0.59062 0.0
C4342 C 0.85466 0.81497 0.61402 0.0
C4343 C 0.84789 0.80084 0.58358 0.0
C4344 C 0.8445 0.83904 0.64496 0.0
C4345 C 0.84599 0.83226 0.63804 0.0
C4346 C 0.8376 0.82456 0.61471 0.0
C4347 C 0.84926 0.80585 0.59985 0.0
C4348 C 0.84764 0.81296 0.60731 0.0
C4349 C 0.84307 0.8338 0.62877 0.0
C4350 C 0.84463 0.82659 0.6214 0.0
H4351 H 0.85918 0.78447 0.59663 0.0
H4352 H 0.85618 0.79593 0.60894 0.0
H4353 H 0.83348 0.81634 0.60278 0.0
H4354 H 0.8337 0.85548 0.63159 0.0
H4355 H 0.83641 0.84372 0.61948 0.0
C4356 C 0.92538 0.13421 0.28377 0.0
C4357 C 0.93122 0.14185 0.28163 0.0
C4358 C 0.91891 0.13482 0.29105 0.0
C4359 C 0.90684 0.15168 0.30687 0.0
H4360 H 0.90395 0.12975 0.32239 0.0
C4361 C 0.8895 0.15181 0.34356 0.0
C4362 C 0.88354 0.14424 0.34566 0.0
C4363 C 0.89452 0.15195 0.33517 0.0
C4364 C 0.90459 0.1359 0.31805 0.0
H4365 H 0.93481 0.15615 0.28534 0.0
H4366 H 0.92366 0.15717 0.29824 0.0
H4367 H 0.91433 0.12917 0.30895 0.0
H4368 H 0.87801 0.13098 0.34053 0.0
H4369 H 0.88676 0.13123 0.3259 0.0
H4370 H 0.89727 0.15845 0.31624 0.0
C4371 C 0.92392 0.15076 0.29417 0.0
C4372 C 0.91053 0.13557 0.31032 0.0
C4373 C 0.93034 0.15018 0.2868 0.0
C4374 C 0.88249 0.13695 0.33908 0.0
C4375 C 0.88757 0.13705 0.33075 0.0
C4376 C 0.90096 0.15203 0.31468 0.0
C4377 C 0.91819 0.14305 0.29645 0.0
C4378 C 0.91173 0.14345 0.30461 0.0
C4379 C 0.89375 0.14447 0.32877 0.0
C4380 C 0.89977 0.14413 0.32034 0.0
H4381 H 0.92581 0.12776 0.27978 0.0
H4382 H 0.91446 0.12882 0.29244 0.0
H4383 H 0.90749 0.15784 0.30256 0.0
H4384 H 0.89039 0.15756 0.34847 0.0
H4385 H 0.89927 0.15774 0.33386 0.0
C4386 C 0.63952 0.21161 0.09869 0.0
C4387 C 0.64339 0.2107 0.0897 0.0
C4388 C 0.6415 0.20505 0.1056 0.0
C4389 C 0.64976 0.18085 0.10885 0.0
H4390 H 0.65414 0.18916 0.13441 0.0
C4391 C 0.66229 0.15587 0.13792 0.0
C4392 C 0.65795 0.15677 0.14669 0.0
C4393 C 0.66071 0.16247 0.13093 0.0
C4394 C 0.65284 0.18672 0.12732 0.0
H4395 H 0.65249 0.20226 0.08097 0.0
H4396 H 0.65598 0.19082 0.09305 0.0
H4397 H 0.65107 0.20064 0.12227 0.0
H4398 H 0.64844 0.16526 0.15493 0.0
H4399 H 0.64573 0.17678 0.14276 0.0
H4400 H 0.65154 0.16692 0.11392 0.0
C4401 C 0.65129 0.19653 0.09471 0.0
C4402 C 0.65108 0.1933 0.12037 0.0
C4403 C 0.64929 0.20309 0.08779 0.0
C4404 C 0.65202 0.16444 0.14831 0.0
C4405 C 0.65046 0.17104 0.14133 0.0
C4406 C 0.65154 0.17427 0.11581 0.0
C4407 C 0.64741 0.19743 0.1037 0.0
C4408 C 0.64947 0.19044 0.11106 0.0
C4409 C 0.65478 0.17013 0.13256 0.0
C4410 C 0.65306 0.17713 0.12513 0.0
H4411 H 0.63482 0.21731 0.10034 0.0
H4412 H 0.63827 0.20587 0.11239 0.0
H4413 H 0.64842 0.17839 0.10178 0.0
H4414 H 0.66701 0.15013 0.13648 0.0
H4415 H 0.66425 0.16164 0.12428 0.0
C4416 C 0.567 0.85516 0.79356 0.0
C4417 C 0.5603 0.86164 0.79667 0.0
C4418 C 0.5753 0.85374 0.79864 0.0
C4419 C 0.59077 0.86485 0.81649 0.0
H4420 H 0.59985 0.83963 0.82011 0.0
C4421 C 0.61998 0.85617 0.84318 0.0
C4422 C 0.62678 0.8496 0.84049 0.0
C4423 C 0.61208 0.85773 0.83755 0.0
C4424 C 0.59747 0.84672 0.81907 0.0
H4425 H 0.55716 0.87184 0.8075 0.0
H4426 H 0.57152 0.86925 0.81645 0.0
H4427 H 0.58568 0.84217 0.81078 0.0
H4428 H 0.63059 0.83948 0.82981 0.0
H4429 H 0.61686 0.84231 0.81992 0.0
H4430 H 0.60252 0.8694 0.82483 0.0
C4431 C 0.57041 0.86531 0.81003 0.0
C4432 C 0.58935 0.84818 0.81372 0.0
C4433 C 0.56212 0.86671 0.80496 0.0
C4434 C 0.62552 0.84465 0.83203 0.0
C4435 C 0.61761 0.8462 0.82642 0.0
C4436 C 0.59888 0.86339 0.82184 0.0
C4437 C 0.5771 0.8588 0.80694 0.0
C4438 C 0.58588 0.85726 0.81241 0.0
C4439 C 0.61078 0.85274 0.82912 0.0
C4440 C 0.6023 0.85431 0.82323 0.0
H4441 H 0.56578 0.85108 0.78725 0.0
H4442 H 0.58035 0.84874 0.79602 0.0
H4443 H 0.58837 0.87195 0.81549 0.0
H4444 H 0.62079 0.86016 0.8496 0.0
H4445 H 0.60691 0.86275 0.83989 0.0
C4446 C 0.84094 0.18899 0.93225 0.0
C4447 C 0.848 0.19586 0.93147 0.0
C4448 C 0.83919 0.18267 0.92493 0.0
C4449 C 0.84369 0.17794 0.89978 0.0
H4450 H 0.84194 0.15203 0.90738 0.0
C4451 C 0.8504 0.14682 0.8747 0.0
C4452 C 0.84525 0.13851 0.87599 0.0
C4453 C 0.84935 0.15437 0.88086 0.0
C4454 C 0.84223 0.15923 0.90511 0.0
H4455 H 0.85856 0.20168 0.92226 0.0
H4456 H 0.85553 0.19065 0.90948 0.0
H4457 H 0.84249 0.1643 0.9192 0.0
H4458 H 0.83454 0.13182 0.88439 0.0
H4459 H 0.83261 0.14503 0.89508 0.0
H4460 H 0.84362 0.1728 0.88566 0.0
C4461 C 0.85126 0.19021 0.91572 0.0
C4462 C 0.84255 0.16628 0.91191 0.0
C4463 C 0.853 0.19653 0.92304 0.0
C4464 C 0.83872 0.13807 0.88332 0.0
C4465 C 0.83764 0.14563 0.88945 0.0
C4466 C 0.84335 0.17087 0.89296 0.0
C4467 C 0.84448 0.18308 0.91666 0.0
C4468 C 0.8434 0.17571 0.90934 0.0
C4469 C 0.84309 0.1538 0.88842 0.0
C4470 C 0.84272 0.16142 0.89555 0.0
H4471 H 0.83684 0.1884 0.93859 0.0
H4472 H 0.83379 0.17737 0.9258 0.0
H4473 H 0.84423 0.18515 0.89757 0.0
H4474 H 0.85555 0.14733 0.86916 0.0
H4475 H 0.85374 0.16051 0.87992 0.0
C4476 C 0.56585 0.13517 0.69514 0.0
C4477 C 0.56454 0.13951 0.7039 0.0
C4478 C 0.5742 0.13647 0.69021 0.0
C4479 C 0.59468 0.15238 0.68827 0.0
H4480 H 0.60572 0.13146 0.67497 0.0
C4481 C 0.63112 0.15472 0.6706 0.0
C4482 C 0.63187 0.15067 0.66165 0.0
C4483 C 0.62305 0.15329 0.67597 0.0
C4484 C 0.60268 0.13739 0.67858 0.0
H4485 H 0.571 0.14867 0.71429 0.0
H4486 H 0.58567 0.15078 0.70576 0.0
H4487 H 0.5914 0.12909 0.68399 0.0
H4488 H 0.62482 0.14181 0.65138 0.0
H4489 H 0.6107 0.13941 0.66069 0.0
H4490 H 0.60596 0.16068 0.68285 0.0
C4491 C 0.58018 0.14645 0.70267 0.0
C4492 C 0.59447 0.13604 0.68374 0.0
C4493 C 0.57181 0.14516 0.70761 0.0
C4494 C 0.62441 0.14511 0.65821 0.0
C4495 C 0.61636 0.14364 0.66359 0.0
C4496 C 0.6029 0.15373 0.68312 0.0
C4497 C 0.58147 0.14212 0.69391 0.0
C4498 C 0.59034 0.14353 0.68861 0.0
C4499 C 0.61558 0.14774 0.67252 0.0
C4500 C 0.60696 0.14626 0.67818 0.0
H4501 H 0.56044 0.13069 0.69213 0.0
H4502 H 0.57492 0.13312 0.68344 0.0
H4503 H 0.59161 0.15833 0.69183 0.0
H4504 H 0.63671 0.15911 0.67342 0.0
H4505 H 0.6227 0.15647 0.68286 0.0
C4506 C 0.63717 0.79053 0.40449 0.0
C4507 C 0.64154 0.79108 0.41333 0.0
C4508 C 0.63884 0.79739 0.39779 0.0
C4509 C 0.65583 0.81568 0.39109 0.0
H4510 H 0.63499 0.82492 0.37626 0.0
C4511 C 0.65997 0.84649 0.36543 0.0
C4512 C 0.65534 0.84563 0.35674 0.0
C4513 C 0.65825 0.84006 0.37254 0.0
C4514 C 0.64091 0.82235 0.38027 0.0
H4515 H 0.65116 0.79921 0.42203 0.0
H4516 H 0.65399 0.81126 0.41035 0.0
H4517 H 0.63209 0.81326 0.38826 0.0
H4518 H 0.64515 0.83741 0.3488 0.0
H4519 H 0.64232 0.82609 0.36111 0.0
H4520 H 0.66466 0.82471 0.38305 0.0
C4521 C 0.64932 0.80549 0.40859 0.0
C4522 C 0.63924 0.81567 0.38715 0.0
C4523 C 0.64762 0.79864 0.41531 0.0
C4524 C 0.64892 0.83822 0.35536 0.0
C4525 C 0.64721 0.83179 0.36246 0.0
C4526 C 0.6575 0.82235 0.38419 0.0
C4527 C 0.64493 0.80495 0.39976 0.0
C4528 C 0.64669 0.81222 0.39261 0.0
C4529 C 0.65186 0.83263 0.37114 0.0
C4530 C 0.65006 0.82573 0.37866 0.0
H4531 H 0.63237 0.78485 0.40278 0.0
H4532 H 0.63542 0.79672 0.39103 0.0
H4533 H 0.66174 0.81308 0.3951 0.0
H4534 H 0.66502 0.85208 0.36669 0.0
H4535 H 0.66188 0.84097 0.37918 0.0
C4536 C 0.93653 0.85477 0.19717 0.0
C4537 C 0.9355 0.85988 0.20554 0.0
C4538 C 0.92891 0.85353 0.19106 0.0
C4539 C 0.90701 0.86489 0.18417 0.0
H4540 H 0.90265 0.84201 0.17003 0.0
C4541 C 0.87854 0.86284 0.15538 0.0
C4542 C 0.88138 0.85866 0.14693 0.0
C4543 C 0.88398 0.86189 0.1635 0.0
C4544 C 0.9038 0.84846 0.1739 0.0
H4545 H 0.92552 0.86729 0.21425 0.0
H4546 H 0.91225 0.86521 0.2035 0.0
H4547 H 0.91441 0.84232 0.18256 0.0
H4548 H 0.89186 0.84977 0.14051 0.0
H4549 H 0.90147 0.84832 0.15455 0.0
H4550 H 0.89668 0.87115 0.17534 0.0
C4551 C 0.91899 0.86226 0.20164 0.0
C4552 C 0.91052 0.84863 0.18108 0.0
C4553 C 0.9266 0.86347 0.20778 0.0
C4554 C 0.88956 0.8532 0.14687 0.0
C4555 C 0.89501 0.85227 0.15497 0.0
C4556 C 0.90032 0.86474 0.17697 0.0
C4557 C 0.9201 0.8574 0.19314 0.0
C4558 C 0.91231 0.8569 0.18618 0.0
C4559 C 0.89239 0.85675 0.16334 0.0
C4560 C 0.89875 0.85657 0.17163 0.0
H4561 H 0.94331 0.85202 0.19515 0.0
H4562 H 0.93003 0.84986 0.1845 0.0
H4563 H 0.90831 0.87141 0.18789 0.0
H4564 H 0.8723 0.86713 0.15566 0.0
H4565 H 0.88169 0.86532 0.16986 0.0
C4566 C 0.06852 0.63165 0.19847 0.0
C4567 C 0.06582 0.63796 0.20553 0.0
C4568 C 0.07699 0.63288 0.19373 0.0
C4569 C 0.09444 0.65089 0.18762 0.0
H4570 H 0.11006 0.62961 0.18147 0.0
C4571 C 0.13024 0.65518 0.16916 0.0
C4572 C 0.1322 0.64878 0.16193 0.0
C4573 C 0.12256 0.65376 0.17506 0.0
C4574 C 0.10573 0.63562 0.18306 0.0
H4575 H 0.06992 0.65052 0.21316 0.0
H4576 H 0.08479 0.65263 0.20492 0.0
H4577 H 0.09586 0.62733 0.19071 0.0
H4578 H 0.12777 0.63571 0.15542 0.0
H4579 H 0.11427 0.63334 0.16556 0.0
H4580 H 0.10422 0.65916 0.17986 0.0
C4581 C 0.0803 0.64676 0.20302 0.0
C4582 C 0.0976 0.63431 0.18836 0.0
C4583 C 0.07184 0.6455 0.2078 0.0
C4584 C 0.12639 0.64084 0.16084 0.0
C4585 C 0.11871 0.63942 0.16674 0.0
C4586 C 0.10255 0.6522 0.1823 0.0
C4587 C 0.08296 0.64048 0.19591 0.0
C4588 C 0.09182 0.64192 0.19063 0.0
C4589 C 0.11666 0.6459 0.17388 0.0
C4590 C 0.10826 0.64456 0.17989 0.0
H4591 H 0.06409 0.62571 0.19664 0.0
H4592 H 0.07879 0.62797 0.18822 0.0
H4593 H 0.09007 0.65688 0.18914 0.0
H4594 H 0.13451 0.66141 0.17014 0.0
H4595 H 0.12124 0.65883 0.18056 0.0
C4596 C 0.14008 0.28779 0.90277 0.0
C4597 C 0.14051 0.29002 0.91236 0.0
C4598 C 0.14185 0.29462 0.89605 0.0
C4599 C 0.15286 0.31795 0.8929 0.0
H4600 H 0.13735 0.31831 0.87051 0.0
C4601 C 0.161 0.34212 0.86169 0.0
C4602 C 0.15333 0.34617 0.85703 0.0
C4603 C 0.15953 0.33535 0.86854 0.0
C4604 C 0.14169 0.31837 0.87676 0.0
H4605 H 0.14334 0.30116 0.92239 0.0
H4606 H 0.14617 0.31312 0.91069 0.0
H4607 H 0.13456 0.30643 0.88228 0.0
H4608 H 0.13811 0.34651 0.85608 0.0
H4609 H 0.13553 0.33479 0.86809 0.0
H4610 H 0.15982 0.33005 0.88748 0.0
C4611 C 0.14457 0.30606 0.90835 0.0
C4612 C 0.14018 0.31147 0.88346 0.0
C4613 C 0.14283 0.29923 0.91507 0.0
C4614 C 0.14417 0.3434 0.85945 0.0
C4615 C 0.14269 0.33667 0.86632 0.0
C4616 C 0.15435 0.32487 0.88621 0.0
C4617 C 0.14407 0.30385 0.89876 0.0
C4618 C 0.14574 0.31117 0.89161 0.0
C4619 C 0.15036 0.33251 0.87091 0.0
C4620 C 0.14878 0.32516 0.87805 0.0
H4621 H 0.13822 0.2808 0.90042 0.0
H4622 H 0.14152 0.29264 0.88873 0.0
H4623 H 0.15734 0.31787 0.89905 0.0
H4624 H 0.16815 0.34402 0.8599 0.0
H4625 H 0.1656 0.33219 0.87184 0.0
C4626 C 0.43314 0.35765 0.70198 0.0
C4627 C 0.43581 0.36639 0.70571 0.0
C4628 C 0.42533 0.35684 0.69602 0.0
C4629 C 0.41111 0.37124 0.68007 0.0
H4630 H 0.39465 0.34951 0.67922 0.0
C4631 C 0.38039 0.36909 0.654 0.0
C4632 C 0.37974 0.36076 0.64875 0.0
C4633 C 0.38606 0.3696 0.662 0.0
C4634 C 0.39921 0.35561 0.67937 0.0
H4635 H 0.43209 0.38103 0.70662 0.0
H4636 H 0.41838 0.37963 0.69637 0.0
H4637 H 0.40677 0.35077 0.69139 0.0
H4638 H 0.38408 0.34627 0.64812 0.0
H4639 H 0.39411 0.34719 0.66202 0.0
H4640 H 0.40368 0.37603 0.66802 0.0
C4641 C 0.42246 0.37343 0.69781 0.0
C4642 C 0.40616 0.35632 0.68632 0.0
C4643 C 0.4303 0.37424 0.7037 0.0
C4644 C 0.38453 0.35282 0.65195 0.0
C4645 C 0.3902 0.35333 0.65996 0.0
C4646 C 0.40416 0.37054 0.67317 0.0
C4647 C 0.41999 0.36476 0.69374 0.0
C4648 C 0.41224 0.36413 0.68671 0.0
C4649 C 0.39122 0.36179 0.66494 0.0
C4650 C 0.39817 0.36269 0.67269 0.0
H4651 H 0.43731 0.35149 0.70337 0.0
H4652 H 0.4237 0.35008 0.69294 0.0
H4653 H 0.41579 0.37725 0.68002 0.0
H4654 H 0.37686 0.37536 0.6517 0.0
H4655 H 0.3866 0.37619 0.66576 0.0
C4656 C 0.14402 0.70336 0.58818 0.0
C4657 C 0.13955 0.71179 0.59053 0.0
C4658 C 0.14597 0.69674 0.59505 0.0
C4659 C 0.14901 0.69402 0.62052 0.0
H4660 H 0.14426 0.6678 0.61507 0.0
C4661 C 0.15079 0.66553 0.64894 0.0
C4662 C 0.15483 0.65694 0.64643 0.0
C4663 C 0.14902 0.67231 0.64217 0.0
C4664 C 0.14574 0.67508 0.61667 0.0
H4665 H 0.13354 0.71982 0.60193 0.0
H4666 H 0.13698 0.70828 0.61392 0.0
H4667 H 0.14103 0.67947 0.60316 0.0
H4668 H 0.1604 0.64881 0.63488 0.0
H4669 H 0.15736 0.66063 0.62308 0.0
H4670 H 0.15374 0.68963 0.63403 0.0
C4671 C 0.13908 0.70685 0.60678 0.0
C4672 C 0.14388 0.68177 0.60985 0.0
C4673 C 0.13712 0.71346 0.59991 0.0
C4674 C 0.15713 0.6553 0.63701 0.0
C4675 C 0.15538 0.66207 0.63025 0.0
C4676 C 0.15089 0.68733 0.62735 0.0
C4677 C 0.14351 0.6984 0.60442 0.0
C4678 C 0.1455 0.69131 0.61169 0.0
C4679 C 0.15127 0.67064 0.63274 0.0
C4680 C 0.14928 0.67778 0.6255 0.0
H4681 H 0.14614 0.70192 0.58105 0.0
H4682 H 0.14952 0.69037 0.59303 0.0
H4683 H 0.15045 0.70131 0.62212 0.0
H4684 H 0.14883 0.66696 0.65612 0.0
H4685 H 0.14573 0.67878 0.6443 0.0
C4686 C 0.36007 0.30241 0.08472 0.0
C4687 C 0.3549 0.29399 0.0845 0.0
C4688 C 0.35835 0.30919 0.09159 0.0
C4689 C 0.34041 0.31691 0.10857 0.0
H4690 H 0.36148 0.32973 0.12047 0.0
C4691 C 0.33617 0.33981 0.14168 0.0
C4692 C 0.3413 0.34825 0.14216 0.0
C4693 C 0.33776 0.33337 0.13447 0.0
C4694 C 0.35551 0.32629 0.11714 0.0
H4695 H 0.34377 0.28616 0.09128 0.0
H4696 H 0.3409 0.29789 0.10337 0.0
H4697 H 0.36438 0.31815 0.10823 0.0
H4698 H 0.35216 0.35649 0.13545 0.0
H4699 H 0.35484 0.3453 0.12278 0.0
H4700 H 0.33154 0.32501 0.11752 0.0
C4701 C 0.34623 0.2993 0.09817 0.0
C4702 C 0.35717 0.31966 0.11012 0.0
C4703 C 0.34795 0.29253 0.0913 0.0
C4704 C 0.34803 0.3501 0.13524 0.0
C4705 C 0.34964 0.34364 0.12804 0.0
C4706 C 0.33875 0.32353 0.1156 0.0
C4707 C 0.35141 0.30771 0.0984 0.0
C4708 C 0.34964 0.31487 0.10577 0.0
C4709 C 0.34452 0.3352 0.12758 0.0
C4710 C 0.34628 0.32828 0.11998 0.0
H4711 H 0.36554 0.30373 0.07965 0.0
H4712 H 0.36241 0.31562 0.09151 0.0
H4713 H 0.33444 0.31346 0.10526 0.0
H4714 H 0.33086 0.33822 0.14684 0.0
H4715 H 0.33377 0.32689 0.13438 0.0
C4716 C 0.54244 0.39445 0.18285 0.0
C4717 C 0.5333 0.39259 0.17949 0.0
C4718 C 0.54993 0.39551 0.17666 0.0
C4719 C 0.55713 0.38924 0.15269 0.0
H4720 H 0.57783 0.40622 0.15828 0.0
C4721 C 0.59364 0.38517 0.13601 0.0
C4722 C 0.59898 0.39322 0.13405 0.0
C4723 C 0.58506 0.38586 0.14067 0.0
C4724 C 0.57206 0.40153 0.15652 0.0
H4725 H 0.52484 0.39058 0.16694 0.0
H4726 H 0.53788 0.39269 0.15613 0.0
H4727 H 0.56383 0.40648 0.16799 0.0
H4728 H 0.59935 0.40835 0.13528 0.0
H4729 H 0.58424 0.40956 0.14318 0.0
H4730 H 0.56532 0.38437 0.14115 0.0
C4731 C 0.53928 0.39317 0.16357 0.0
C4732 C 0.56408 0.4016 0.16217 0.0
C4733 C 0.53178 0.39207 0.16977 0.0
C4734 C 0.59539 0.40201 0.13662 0.0
C4735 C 0.58678 0.4027 0.14126 0.0
C4736 C 0.5651 0.38921 0.14701 0.0
C4737 C 0.54847 0.3948 0.16695 0.0
C4738 C 0.55658 0.39533 0.16044 0.0
C4739 C 0.58157 0.39462 0.14344 0.0
C4740 C 0.57274 0.39524 0.14895 0.0
H4741 H 0.54384 0.39504 0.19029 0.0
H4742 H 0.55692 0.39665 0.17953 0.0
H4743 H 0.55154 0.38427 0.15118 0.0
H4744 H 0.59612 0.37831 0.13399 0.0
H4745 H 0.58131 0.37947 0.14232 0.0
C4746 C 0.95296 0.62064 0.67361 0.0
C4747 C 0.95171 0.61501 0.68153 0.0
C4748 C 0.9474 0.61924 0.66562 0.0
C4749 C 0.9325 0.60179 0.65343 0.0
H4750 H 0.92161 0.62342 0.64141 0.0
C4751 C 0.90431 0.59828 0.62433 0.0
C4752 C 0.9048 0.60454 0.61683 0.0
C4753 C 0.9101 0.5995 0.63219 0.0
C4754 C 0.92469 0.61731 0.6446 0.0
H4755 H 0.94381 0.60336 0.6872 0.0
H4756 H 0.93407 0.60093 0.67324 0.0
H4757 H 0.93175 0.62557 0.65507 0.0
H4758 H 0.91186 0.6169 0.61159 0.0
H4759 H 0.92206 0.61898 0.62523 0.0
H4760 H 0.92552 0.59352 0.64292 0.0
C4761 C 0.93936 0.60642 0.67322 0.0
C4762 C 0.9305 0.61854 0.65244 0.0
C4763 C 0.94488 0.60786 0.68123 0.0
C4764 C 0.91123 0.61204 0.61733 0.0
C4765 C 0.91706 0.61324 0.62516 0.0
C4766 C 0.92674 0.60055 0.64555 0.0
C4767 C 0.94051 0.61214 0.66535 0.0
C4768 C 0.93445 0.6108 0.65695 0.0
C4769 C 0.91656 0.60699 0.63269 0.0
C4770 C 0.92275 0.6083 0.64105 0.0
H4771 H 0.95811 0.62626 0.67365 0.0
H4772 H 0.94851 0.6237 0.65963 0.0
H4773 H 0.93555 0.5957 0.65669 0.0
H4774 H 0.89934 0.59251 0.62419 0.0
H4775 H 0.90942 0.59465 0.63792 0.0
C4776 C 0.61326 0.32273 0.55991 0.0
C4777 C 0.60877 0.32529 0.55153 0.0
C4778 C 0.61402 0.32905 0.56737 0.0
C4779 C 0.60389 0.35077 0.5771 0.0
H4780 H 0.62689 0.35097 0.59185 0.0
C4781 C 0.61148 0.37728 0.60739 0.0
C4782 C 0.61527 0.37343 0.61561 0.0
C4783 C 0.61061 0.37186 0.59923 0.0
C4784 C 0.6204 0.35096 0.58783 0.0
H4785 H 0.60149 0.33654 0.54448 0.0
H4786 H 0.60303 0.34766 0.55746 0.0
H4787 H 0.6256 0.34079 0.57817 0.0
H4788 H 0.62078 0.36074 0.62174 0.0
H4789 H 0.6194 0.35139 0.60752 0.0
H4790 H 0.59874 0.36101 0.58682 0.0
C4791 C 0.60586 0.3407 0.55828 0.0
C4792 C 0.61965 0.34511 0.58 0.0
C4793 C 0.60507 0.33436 0.55081 0.0
C4794 C 0.61805 0.36402 0.61549 0.0
C4795 C 0.61724 0.35863 0.60735 0.0
C4796 C 0.60467 0.35668 0.58493 0.0
C4797 C 0.61038 0.33813 0.56664 0.0
C4798 C 0.61133 0.34482 0.57462 0.0
C4799 C 0.61356 0.3625 0.59911 0.0
C4800 C 0.61289 0.35672 0.59046 0.0
H4801 H 0.61631 0.31587 0.56068 0.0
H4802 H 0.61742 0.32677 0.57374 0.0
H4803 H 0.59736 0.35067 0.57317 0.0
H4804 H 0.60936 0.38453 0.6072 0.0
H4805 H 0.60781 0.37504 0.59296 0.0
C4806 C 0.4278 0.62909 0.78787 0.0
C4807 C 0.43036 0.63733 0.78322 0.0
C4808 C 0.42151 0.62936 0.79532 0.0
C4809 C 0.40354 0.64414 0.80692 0.0
H4810 H 0.40908 0.62831 0.82812 0.0
C4811 C 0.38511 0.64727 0.84302 0.0
C4812 C 0.38269 0.63884 0.84743 0.0
C4813 C 0.39035 0.6472 0.83476 0.0
C4814 C 0.40737 0.6327 0.82221 0.0
H4815 H 0.42826 0.6523 0.78266 0.0
H4816 H 0.41737 0.65282 0.79581 0.0
H4817 H 0.41934 0.62802 0.81457 0.0
H4818 H 0.38378 0.62374 0.84655 0.0
H4819 H 0.39281 0.62363 0.83213 0.0
H4820 H 0.39164 0.64893 0.81473 0.0
C4821 C 0.4201 0.64612 0.79359 0.0
C4822 C 0.41325 0.63252 0.81443 0.0
C4823 C 0.42636 0.64583 0.78607 0.0
C4824 C 0.38544 0.63035 0.84329 0.0
C4825 C 0.39071 0.63029 0.83508 0.0
C4826 C 0.39768 0.64436 0.81476 0.0
C4827 C 0.41768 0.63789 0.79837 0.0
C4828 C 0.41139 0.63819 0.80666 0.0
C4829 C 0.39334 0.63871 0.8308 0.0
C4830 C 0.39952 0.63859 0.82246 0.0
H4831 H 0.43065 0.62241 0.78572 0.0
H4832 H 0.41964 0.62286 0.7987 0.0
H4833 H 0.40184 0.64853 0.80102 0.0
H4834 H 0.38303 0.65392 0.84601 0.0
H4835 H 0.39231 0.65381 0.83164 0.0
C4836 C 0.06949 0.35875 0.29517 0.0
C4837 C 0.06119 0.35371 0.29703 0.0
C4838 C 0.07774 0.357 0.30022 0.0
C4839 C 0.08614 0.34691 0.32244 0.0
H4840 H 0.11039 0.34729 0.31014 0.0
C4841 C 0.12045 0.33678 0.34154 0.0
C4842 C 0.12832 0.34261 0.34012 0.0
C4843 C 0.11234 0.33774 0.33606 0.0
C4844 C 0.10367 0.34723 0.31369 0.0
H4845 H 0.0551 0.34274 0.30549 0.0
H4846 H 0.06951 0.33964 0.31427 0.0
H4847 H 0.09608 0.34962 0.30097 0.0
H4848 H 0.1338 0.35402 0.33181 0.0
H4849 H 0.11967 0.35563 0.32221 0.0
H4850 H 0.09374 0.34453 0.33516 0.0
C4851 C 0.0696 0.34507 0.30902 0.0
C4852 C 0.09547 0.34858 0.30844 0.0
C4853 C 0.06135 0.34683 0.30399 0.0
C4854 C 0.12792 0.34932 0.333 0.0
C4855 C 0.11982 0.35025 0.3275 0.0
C4856 C 0.09434 0.34554 0.32769 0.0
C4857 C 0.07789 0.35016 0.30723 0.0
C4858 C 0.08661 0.34848 0.31276 0.0
C4859 C 0.11192 0.34451 0.32901 0.0
C4860 C 0.1032 0.34573 0.32338 0.0
H4861 H 0.06957 0.36419 0.28995 0.0
H4862 H 0.08395 0.36116 0.29876 0.0
H4863 H 0.07945 0.34694 0.32603 0.0
H4864 H 0.12057 0.33144 0.34686 0.0
H4865 H 0.10642 0.33311 0.3373 0.0
C4866 C 0.3542 0.69676 0.42215 0.0
C4867 C 0.34891 0.69621 0.43041 0.0
C4868 C 0.3525 0.69054 0.41474 0.0
C4869 C 0.3431 0.66692 0.41051 0.0
H4870 H 0.34522 0.6735 0.38435 0.0
C4871 C 0.33899 0.63895 0.38177 0.0
C4872 C 0.34577 0.63912 0.37466 0.0
C4873 C 0.33801 0.64657 0.38785 0.0
C4874 C 0.34465 0.67155 0.39163 0.0
H4875 H 0.33729 0.68907 0.43712 0.0
H4876 H 0.3343 0.67822 0.42418 0.0
H4877 H 0.34594 0.68577 0.39634 0.0
H4878 H 0.3566 0.64752 0.36813 0.0
H4879 H 0.35498 0.6608 0.3788 0.0
H4880 H 0.34207 0.65272 0.40589 0.0
C4881 C 0.3399 0.68334 0.42351 0.0
C4882 C 0.34506 0.67858 0.39849 0.0
C4883 C 0.34161 0.68956 0.43092 0.0
C4884 C 0.35127 0.64723 0.3735 0.0
C4885 C 0.35032 0.65484 0.37961 0.0
C4886 C 0.34271 0.65991 0.40367 0.0
C4887 C 0.34546 0.68362 0.41542 0.0
C4888 C 0.34437 0.67632 0.40802 0.0
C4889 C 0.34382 0.65452 0.38699 0.0
C4890 C 0.34357 0.66212 0.39415 0.0
H4891 H 0.35994 0.70175 0.42158 0.0
H4892 H 0.35698 0.69088 0.40864 0.0
H4893 H 0.34273 0.66491 0.41779 0.0
H4894 H 0.33454 0.63286 0.38273 0.0
H4895 H 0.33279 0.64617 0.39333 0.0
C4896 C 0.11259 0.30571 0.00052 0.0
C4897 C 0.10992 0.29637 0.99883 0.0
C4898 C 0.10991 0.3103 0.00872 0.0
C4899 C 0.10241 0.30616 0.03291 0.0
H4900 H 0.09502 0.33219 0.03173 0.0
C4901 C 0.09237 0.32732 0.066 0.0
C4902 C 0.09669 0.33616 0.06679 0.0
C4903 C 0.09263 0.32232 0.05755 0.0
C4904 C 0.0971 0.32493 0.03218 0.0
H4905 H 0.10232 0.28451 0.00448 0.0
H4906 H 0.09765 0.29254 0.01888 0.0
H4907 H 0.09816 0.32357 0.01731 0.0
H4908 H 0.10427 0.34689 0.05923 0.0
H4909 H 0.1048 0.33817 0.04455 0.0
H4910 H 0.10153 0.30759 0.0478 0.0
C4911 C 0.10188 0.29628 0.01384 0.0
C4912 C 0.09891 0.32 0.02392 0.0
C4913 C 0.10457 0.29168 0.00561 0.0
C4914 C 0.10096 0.34005 0.05887 0.0
C4915 C 0.10118 0.33509 0.05043 0.0
C4916 C 0.1006 0.3111 0.04118 0.0
C4917 C 0.10449 0.30566 0.01546 0.0
C4918 C 0.10177 0.31061 0.0242 0.0
C4919 C 0.09715 0.32611 0.0497 0.0
C4920 C 0.0981 0.3206 0.04091 0.0
H4921 H 0.11689 0.30947 0.99555 0.0
H4922 H 0.11223 0.31745 0.00984 0.0
H4923 H 0.10468 0.29897 0.03336 0.0
H4924 H 0.08907 0.32412 0.07201 0.0
H4925 H 0.08938 0.31546 0.05719 0.0
C4926 C 0.95348 0.8789 0.30253 0.0
C4927 C 0.95707 0.87084 0.29821 0.0
C4928 C 0.95147 0.87899 0.31207 0.0
C4929 C 0.95598 0.86674 0.33436 0.0
H4930 H 0.93287 0.87891 0.34182 0.0
C4931 C 0.94107 0.86514 0.37213 0.0
C4932 C 0.93769 0.87362 0.3758 0.0
C4933 C 0.94358 0.86443 0.36269 0.0
C4934 C 0.93939 0.87555 0.33987 0.0
H4935 H 0.96155 0.85658 0.30057 0.0
H4936 H 0.95798 0.85672 0.31727 0.0
H4937 H 0.93719 0.87845 0.32539 0.0
H4938 H 0.93416 0.88793 0.37241 0.0
H4939 H 0.93863 0.88672 0.35605 0.0
H4940 H 0.95812 0.86383 0.34891 0.0
C4941 C 0.95681 0.86301 0.31328 0.0
C4942 C 0.94188 0.8753 0.33044 0.0
C4943 C 0.95886 0.86293 0.30372 0.0
C4944 C 0.93684 0.88134 0.36984 0.0
C4945 C 0.93931 0.88061 0.36043 0.0
C4946 C 0.95346 0.86696 0.34382 0.0
C4947 C 0.95296 0.87101 0.31754 0.0
C4948 C 0.95025 0.87099 0.32758 0.0
C4949 C 0.94268 0.87215 0.35673 0.0
C4950 C 0.94519 0.87147 0.34668 0.0
H4951 H 0.95219 0.88516 0.2985 0.0
H4952 H 0.94871 0.88534 0.31516 0.0
H4953 H 0.96251 0.86342 0.3324 0.0
H4954 H 0.94185 0.85909 0.37657 0.0
H4955 H 0.94611 0.8578 0.36003 0.0
C4956 C 0.38156 0.71566 0.52154 0.0
C4957 C 0.384 0.71467 0.51207 0.0
C4958 C 0.38469 0.70919 0.52815 0.0
C4959 C 0.39341 0.68495 0.52977 0.0
H4960 H 0.40183 0.69251 0.55457 0.0
C4961 C 0.41232 0.6595 0.55429 0.0
C4962 C 0.40969 0.65947 0.56375 0.0
C4963 C 0.40912 0.66646 0.54829 0.0
C4964 C 0.3994 0.69028 0.5477 0.0
H4965 H 0.392 0.70637 0.5022 0.0
H4966 H 0.39749 0.69517 0.51369 0.0
H4967 H 0.39644 0.70433 0.54354 0.0
H4968 H 0.40177 0.66687 0.57437 0.0
H4969 H 0.3961 0.67903 0.56383 0.0
H4970 H 0.39641 0.67094 0.53388 0.0
C4971 C 0.39297 0.70079 0.516 0.0
C4972 C 0.39631 0.69705 0.54139 0.0
C4973 C 0.38983 0.70722 0.50941 0.0
C4974 C 0.40386 0.66665 0.5671 0.0
C4975 C 0.40069 0.67366 0.56109 0.0
C4976 C 0.39652 0.67821 0.53606 0.0
C4977 C 0.39034 0.70161 0.52543 0.0
C4978 C 0.39336 0.69447 0.53231 0.0
C4979 C 0.40322 0.67359 0.55159 0.0
C4980 C 0.39963 0.68079 0.54507 0.0
H4981 H 0.37702 0.72129 0.52379 0.0
H4982 H 0.38247 0.70999 0.53535 0.0
H4983 H 0.39099 0.68268 0.52292 0.0
H4984 H 0.4167 0.65401 0.55145 0.0
H4985 H 0.4113 0.66626 0.54104 0.0
C4986 C 0.54051 0.14052 0.80006 0.0
C4987 C 0.54115 0.13215 0.7949 0.0
C4988 C 0.54268 0.14071 0.80961 0.0
C4989 C 0.55685 0.12785 0.8268 0.0
H4990 H 0.54476 0.14425 0.84473 0.0
C4991 C 0.57025 0.13031 0.86462 0.0
C4992 C 0.57175 0.13944 0.86803 0.0
C4993 C 0.56485 0.12873 0.85655 0.0
C4994 C 0.54821 0.13965 0.83979 0.0
H4995 H 0.54399 0.11731 0.7958 0.0
H4996 H 0.54766 0.11761 0.81249 0.0
H4997 H 0.53827 0.14267 0.82892 0.0
H4998 H 0.56821 0.15402 0.86602 0.0
H4999 H 0.55894 0.15128 0.85183 0.0
H5000 H 0.56689 0.12497 0.83755 0.0
C5001 C 0.54571 0.12408 0.80912 0.0
C5002 C 0.54451 0.13875 0.83073 0.0
C5003 C 0.54359 0.1239 0.79957 0.0
C5004 C 0.5673 0.14691 0.86349 0.0
C5005 C 0.5619 0.14533 0.85542 0.0
C5006 C 0.56052 0.12873 0.83583 0.0
C5007 C 0.5455 0.13253 0.81422 0.0
C5008 C 0.54886 0.13293 0.82409 0.0
C5009 C 0.56084 0.13624 0.85171 0.0
C5010 C 0.55633 0.13472 0.84241 0.0
H5011 H 0.53873 0.147 0.79663 0.0
H5012 H 0.54255 0.14736 0.81328 0.0
H5013 H 0.5605 0.12345 0.82183 0.0
H5014 H 0.57362 0.1244 0.86789 0.0
H5015 H 0.56406 0.12163 0.85395 0.0
C5016 C 0.12381 0.70001 0.49542 0.0
C5017 C 0.11719 0.70585 0.49973 0.0
C5018 C 0.12192 0.69597 0.48668 0.0
C5019 C 0.10255 0.6891 0.47087 0.0
H5020 H 0.12249 0.68775 0.45251 0.0
C5021 C 0.09728 0.67363 0.43339 0.0
C5022 C 0.10463 0.66805 0.42999 0.0
C5023 C 0.09834 0.67862 0.4418 0.0
C5024 C 0.11687 0.688 0.45759 0.0
H5025 H 0.10338 0.71204 0.49827 0.0
H5026 H 0.1001 0.70503 0.48291 0.0
H5027 H 0.12526 0.69598 0.46725 0.0
H5028 H 0.11865 0.66293 0.43301 0.0
H5029 H 0.12048 0.67155 0.44763 0.0
H5030 H 0.0942 0.681 0.46121 0.0
C5031 C 0.10673 0.70354 0.48634 0.0
C5032 C 0.11846 0.69272 0.46603 0.0
C5033 C 0.10865 0.70763 0.49508 0.0
C5034 C 0.11294 0.66734 0.43532 0.0
C5035 C 0.11399 0.6723 0.4437 0.0
C5036 C 0.10096 0.68435 0.4624 0.0
C5037 C 0.11336 0.69767 0.48205 0.0
C5038 C 0.11138 0.6932 0.47283 0.0
C5039 C 0.10677 0.6781 0.44698 0.0
C5040 C 0.10816 0.68362 0.45573 0.0
H5041 H 0.13049 0.69858 0.49878 0.0
H5042 H 0.12713 0.6914 0.48362 0.0
H5043 H 0.09698 0.68929 0.476 0.0
H5044 H 0.09081 0.67435 0.42941 0.0
H5045 H 0.09266 0.68306 0.44413 0.0
C5046 C 0.54133 0.87391 0.70048 0.0
C5047 C 0.53648 0.86679 0.7052 0.0
C5048 C 0.54293 0.87321 0.69088 0.0
C5049 C 0.54582 0.85552 0.67257 0.0
H5050 H 0.5458 0.87692 0.65608 0.0
C5051 C 0.55983 0.85245 0.63502 0.0
C5052 C 0.56612 0.85959 0.63242 0.0
C5053 C 0.55415 0.8535 0.64292 0.0
C5054 C 0.54586 0.87088 0.6606 0.0
H5055 H 0.52923 0.85349 0.70349 0.0
H5056 H 0.53199 0.85229 0.68667 0.0
H5057 H 0.53957 0.87847 0.6719 0.0
H5058 H 0.57113 0.87355 0.63591 0.0
H5059 H 0.56132 0.87536 0.64965 0.0
H5060 H 0.55243 0.848 0.66146 0.0
C5061 C 0.5346 0.85838 0.69043 0.0
C5062 C 0.54229 0.87177 0.66965 0.0
C5063 C 0.53296 0.85911 0.70004 0.0
C5064 C 0.56627 0.86797 0.63763 0.0
C5065 C 0.56063 0.869 0.64553 0.0
C5066 C 0.54942 0.85463 0.66354 0.0
C5067 C 0.53974 0.86535 0.68577 0.0
C5068 C 0.54242 0.86415 0.6758 0.0
C5069 C 0.55467 0.8617 0.6484 0.0
C5070 C 0.54968 0.86236 0.65751 0.0
H5071 H 0.54403 0.87996 0.70426 0.0
H5072 H 0.54699 0.87866 0.68752 0.0
H5073 H 0.54613 0.84955 0.67717 0.0
H5074 H 0.55945 0.84597 0.63107 0.0
H5075 H 0.54951 0.8478 0.64484 0.0
C5076 C 0.37461 0.30494 0.99065 0.0
C5077 C 0.38005 0.29813 0.99515 0.0
C5078 C 0.37798 0.30945 0.9827 0.0
C5079 C 0.40023 0.31561 0.97118 0.0
H5080 H 0.38376 0.32313 0.95091 0.0
C5081 C 0.41396 0.3369 0.93989 0.0
C5082 C 0.40844 0.34459 0.93729 0.0
C5083 C 0.41045 0.33019 0.94604 0.0
C5084 C 0.38844 0.32111 0.95654 0.0
H5085 H 0.3932 0.29053 0.99467 0.0
H5086 H 0.39901 0.2983 0.98068 0.0
H5087 H 0.37767 0.31309 0.96324 0.0
H5088 H 0.39486 0.35119 0.93909 0.0
H5089 H 0.38875 0.33949 0.94977 0.0
H5090 H 0.41094 0.32375 0.96459 0.0
C5091 C 0.39218 0.30023 0.98338 0.0
C5092 C 0.38495 0.31537 0.96361 0.0
C5093 C 0.38881 0.2957 0.99133 0.0
C5094 C 0.39925 0.34528 0.94082 0.0
C5095 C 0.39574 0.33857 0.94695 0.0
C5096 C 0.40372 0.32134 0.96411 0.0
C5097 C 0.38687 0.30726 0.97905 0.0
C5098 C 0.39076 0.31266 0.97109 0.0
C5099 C 0.40134 0.33101 0.94973 0.0
C5100 C 0.39782 0.32428 0.95679 0.0
H5101 H 0.36779 0.30687 0.99334 0.0
H5102 H 0.37374 0.31488 0.9796 0.0
H5103 H 0.40487 0.31378 0.97691 0.0
H5104 H 0.42101 0.33608 0.93718 0.0
H5105 H 0.41489 0.32438 0.94794 0.0
C5106 C 0.97497 0.13621 0.18951 0.0
C5107 C 0.96928 0.13545 0.19749 0.0
C5108 C 0.97095 0.13621 0.18055 0.0
C5109 C 0.94935 0.12887 0.16788 0.0
H5110 H 0.95943 0.14433 0.14811 0.0
C5111 C 0.93901 0.12308 0.12927 0.0
C5112 C 0.93772 0.13097 0.12361 0.0
C5113 C 0.94266 0.12401 0.13832 0.0
C5114 C 0.95647 0.14003 0.15357 0.0
H5115 H 0.95486 0.13414 0.20225 0.0
H5116 H 0.94786 0.13442 0.18669 0.0
H5117 H 0.96608 0.14554 0.16385 0.0
H5118 H 0.93925 0.14605 0.12308 0.0
H5119 H 0.94543 0.14771 0.13898 0.0
H5120 H 0.93965 0.12347 0.15768 0.0
C5121 C 0.95545 0.13487 0.18734 0.0
C5122 C 0.96036 0.14065 0.16257 0.0
C5123 C 0.95946 0.13484 0.19628 0.0
C5124 C 0.94009 0.13984 0.12727 0.0
C5125 C 0.94374 0.14077 0.13635 0.0
C5126 C 0.94546 0.12827 0.1589 0.0
C5127 C 0.96114 0.13546 0.17936 0.0
C5128 C 0.95688 0.13504 0.16983 0.0
C5129 C 0.94507 0.13287 0.14198 0.0
C5130 C 0.94901 0.13379 0.15161 0.0
H5131 H 0.98255 0.13679 0.19018 0.0
H5132 H 0.97556 0.13659 0.17456 0.0
H5133 H 0.94656 0.12436 0.17326 0.0
H5134 H 0.93714 0.11615 0.12673 0.0
H5135 H 0.9437 0.11776 0.14241 0.0
C5136 C 0.02765 0.12021 0.2846 0.0
C5137 C 0.02007 0.11444 0.28179 0.0
C5138 C 0.03521 0.11653 0.28964 0.0
C5139 C 0.04067 0.09742 0.30564 0.0
H5140 H 0.06662 0.10478 0.30155 0.0
C5141 C 0.07054 0.08271 0.32839 0.0
C5142 C 0.07749 0.08909 0.33147 0.0
C5143 C 0.06414 0.08515 0.32138 0.0
C5144 C 0.0594 0.10271 0.30283 0.0
H5145 H 0.01461 0.10025 0.2819 0.0
H5146 H 0.02784 0.09382 0.29063 0.0
H5147 H 0.05433 0.1103 0.29097 0.0
H5148 H 0.0834 0.10292 0.32923 0.0
H5149 H 0.07205 0.10729 0.31725 0.0
H5150 H 0.04561 0.09008 0.31763 0.0
C5151 C 0.0279 0.1012 0.28898 0.0
C5152 C 0.05237 0.10586 0.29676 0.0
C5153 C 0.02037 0.10486 0.28389 0.0
C5154 C 0.07805 0.09787 0.32714 0.0
C5155 C 0.07161 0.10034 0.32017 0.0
C5156 C 0.04767 0.09433 0.31174 0.0
C5157 C 0.03534 0.10702 0.29203 0.0
C5158 C 0.04292 0.1033 0.29813 0.0
C5159 C 0.06447 0.09406 0.3173 0.0
C5160 C 0.05713 0.09697 0.31046 0.0
H5161 H 0.02766 0.1276 0.28301 0.0
H5162 H 0.0408 0.12121 0.29194 0.0
H5163 H 0.03343 0.09545 0.30698 0.0
H5164 H 0.06983 0.07591 0.33161 0.0
H5165 H 0.05884 0.08008 0.31925 0.0
C5166 C 0.13296 0.79364 0.55581 0.0
C5167 C 0.12842 0.79175 0.54723 0.0
C5168 C 0.13346 0.80273 0.55938 0.0
C5169 C 0.13241 0.82753 0.55354 0.0
H5170 H 0.12473 0.83035 0.5794 0.0
C5171 C 0.14005 0.86012 0.57708 0.0
C5172 C 0.13291 0.8629 0.58325 0.0
C5173 C 0.1389 0.85214 0.57144 0.0
C5174 C 0.12681 0.8297 0.57214 0.0
H5175 H 0.12118 0.79806 0.53548 0.0
H5176 H 0.12224 0.81405 0.54168 0.0
H5177 H 0.12425 0.81495 0.572 0.0
H5178 H 0.1188 0.85969 0.58805 0.0
H5179 H 0.11679 0.84585 0.5782 0.0
H5180 H 0.13513 0.84233 0.55378 0.0
C5181 C 0.12535 0.80841 0.54564 0.0
C5182 C 0.12662 0.82087 0.56794 0.0
C5183 C 0.12476 0.79927 0.54209 0.0
C5184 C 0.12441 0.8578 0.58332 0.0
C5185 C 0.12329 0.84981 0.57775 0.0
C5186 C 0.13272 0.83639 0.55779 0.0
C5187 C 0.12953 0.81019 0.55441 0.0
C5188 C 0.12948 0.81968 0.55863 0.0
C5189 C 0.13061 0.84676 0.57194 0.0
C5190 C 0.12993 0.83754 0.56715 0.0
H5191 H 0.13608 0.78807 0.55984 0.0
H5192 H 0.13688 0.80393 0.56608 0.0
H5193 H 0.13467 0.82678 0.54635 0.0
H5194 H 0.14664 0.86396 0.57681 0.0
H5195 H 0.14467 0.84993 0.56705 0.0
C5196 C 0.4688 0.87686 0.78434 0.0
C5197 C 0.47245 0.88311 0.77773 0.0
C5198 C 0.46199 0.87977 0.79072 0.0
C5199 C 0.44471 0.8985 0.79568 0.0
H5200 H 0.44821 0.89062 0.82135 0.0
C5201 C 0.42579 0.91581 0.82708 0.0
C5202 C 0.42266 0.90993 0.83428 0.0
C5203 C 0.43117 0.91223 0.81973 0.0
C5204 C 0.44704 0.89278 0.8142 0.0
H5205 H 0.47171 0.89729 0.77254 0.0
H5206 H 0.45988 0.90241 0.78373 0.0
H5207 H 0.45876 0.88489 0.8093 0.0
H5208 H 0.42265 0.89567 0.83933 0.0
H5209 H 0.43189 0.88942 0.82644 0.0
H5210 H 0.43306 0.90653 0.80066 0.0
C5211 C 0.46217 0.8952 0.78389 0.0
C5212 C 0.45309 0.88949 0.80728 0.0
C5213 C 0.46896 0.89227 0.77748 0.0
C5214 C 0.42487 0.90037 0.83385 0.0
C5215 C 0.43026 0.89681 0.82653 0.0
C5216 C 0.43866 0.90182 0.80262 0.0
C5217 C 0.45871 0.88902 0.79068 0.0
C5218 C 0.45202 0.89232 0.79794 0.0
C5219 C 0.43357 0.90272 0.81943 0.0
C5220 C 0.43978 0.89902 0.81197 0.0
H5221 H 0.47124 0.86971 0.78461 0.0
H5222 H 0.45934 0.87478 0.79573 0.0
H5223 H 0.44362 0.90073 0.78854 0.0
H5224 H 0.42412 0.92318 0.82715 0.0
H5225 H 0.43367 0.91698 0.81441 0.0
C5226 C 0.36295 0.20924 0.04814 0.0
C5227 C 0.36851 0.21205 0.04055 0.0
C5228 C 0.36291 0.19994 0.05107 0.0
C5229 C 0.36825 0.17589 0.04336 0.0
H5230 H 0.37056 0.17107 0.06992 0.0
C5231 C 0.37683 0.13932 0.0578 0.0
C5232 C 0.37261 0.13655 0.06622 0.0
C5233 C 0.37571 0.1484 0.05447 0.0
C5234 C 0.36975 0.17227 0.06249 0.0
H5235 H 0.37837 0.20723 0.03005 0.0
H5236 H 0.3782 0.19098 0.0351 0.0
H5237 H 0.3697 0.18712 0.06445 0.0
H5238 H 0.3638 0.14119 0.07767 0.0
H5239 H 0.36162 0.15694 0.07172 0.0
H5240 H 0.36829 0.16105 0.04139 0.0
C5241 C 0.37381 0.19598 0.03874 0.0
C5242 C 0.36928 0.18148 0.05936 0.0
C5243 C 0.3739 0.20529 0.03584 0.0
C5244 C 0.36708 0.14305 0.07112 0.0
C5245 C 0.36593 0.15213 0.06777 0.0
C5246 C 0.36867 0.16667 0.0465 0.0
C5247 C 0.36838 0.19322 0.04644 0.0
C5248 C 0.36858 0.1834 0.04975 0.0
C5249 C 0.37031 0.15495 0.05944 0.0
C5250 C 0.36949 0.16474 0.0561 0.0
H5251 H 0.35858 0.21421 0.05182 0.0
H5252 H 0.35853 0.198 0.05693 0.0
H5253 H 0.36758 0.17715 0.03592 0.0
H5254 H 0.38103 0.13447 0.05378 0.0
H5255 H 0.37927 0.15034 0.04809 0.0
C5256 C 0.03132 0.88708 0.22734 0.0
C5257 C 0.02221 0.88501 0.22398 0.0
C5258 C 0.03856 0.88935 0.22115 0.0
C5259 C 0.04577 0.88598 0.1968 0.0
H5260 H 0.06312 0.90646 0.20188 0.0
C5261 C 0.07464 0.89571 0.17047 0.0
C5262 C 0.08356 0.89795 0.17415 0.0
C5263 C 0.06683 0.89505 0.17633 0.0
C5264 C 0.0584 0.90066 0.2004 0.0
H5265 H 0.01354 0.88405 0.21145 0.0
H5266 H 0.0262 0.88781 0.20068 0.0
H5267 H 0.05022 0.9034 0.21266 0.0
H5268 H 0.09129 0.9014 0.18684 0.0
H5269 H 0.07773 0.90009 0.19711 0.0
H5270 H 0.05404 0.88303 0.18471 0.0
C5271 C 0.02775 0.88758 0.2081 0.0
C5272 C 0.051 0.89892 0.20657 0.0
C5273 C 0.0205 0.88538 0.21429 0.0
C5274 C 0.08447 0.89978 0.18378 0.0
C5275 C 0.07668 0.89903 0.18967 0.0
C5276 C 0.05321 0.88766 0.19068 0.0
C5277 C 0.03686 0.88954 0.21146 0.0
C5278 C 0.04462 0.89155 0.20484 0.0
C5279 C 0.06778 0.89652 0.18604 0.0
C5280 C 0.05965 0.89501 0.1924 0.0
H5281 H 0.03293 0.88675 0.23474 0.0
H5282 H 0.04554 0.89073 0.22393 0.0
H5283 H 0.04105 0.88017 0.19535 0.0
H5284 H 0.07371 0.89437 0.16305 0.0
H5285 H 0.06006 0.89331 0.17325 0.0
C5286 C 0.35198 0.79422 0.4495 0.0
C5287 C 0.36005 0.78897 0.45155 0.0
C5288 C 0.35272 0.80376 0.44756 0.0
C5289 C 0.36859 0.82434 0.44973 0.0
H5290 H 0.35402 0.83351 0.42874 0.0
C5291 C 0.36812 0.86344 0.43971 0.0
C5292 C 0.36873 0.86547 0.43012 0.0
C5293 C 0.36666 0.85426 0.4427 0.0
C5294 C 0.35816 0.83105 0.4346 0.0
H5295 H 0.37521 0.78966 0.45329 0.0
H5296 H 0.37649 0.8063 0.44988 0.0
H5297 H 0.35238 0.81725 0.43343 0.0
H5298 H 0.36835 0.8594 0.41617 0.0
H5299 H 0.36577 0.84342 0.42138 0.0
H5300 H 0.37456 0.8381 0.45073 0.0
C5301 C 0.36958 0.80307 0.4499 0.0
C5302 C 0.35714 0.82176 0.43736 0.0
C5303 C 0.36884 0.79353 0.45185 0.0
C5304 C 0.36775 0.85811 0.4236 0.0
C5305 C 0.36628 0.84894 0.42659 0.0
C5306 C 0.3696 0.83365 0.44698 0.0
C5307 C 0.36154 0.80827 0.4476 0.0
C5308 C 0.36238 0.81827 0.44493 0.0
C5309 C 0.36576 0.8469 0.43618 0.0
C5310 C 0.36444 0.8371 0.43933 0.0
H5311 H 0.34508 0.79096 0.44937 0.0
H5312 H 0.34636 0.80759 0.44599 0.0
H5313 H 0.37267 0.8219 0.45564 0.0
H5314 H 0.36871 0.86896 0.44492 0.0
H5315 H 0.36615 0.85294 0.45013 0.0
C5316 C 0.47123 0.11109 0.72202 0.0
C5317 C 0.47581 0.11978 0.72122 0.0
C5318 C 0.46434 0.10833 0.71552 0.0
C5319 C 0.457 0.11273 0.69125 0.0
H5320 H 0.43455 0.09889 0.6981 0.0
C5321 C 0.42882 0.10251 0.66391 0.0
C5322 C 0.42516 0.09337 0.66433 0.0
C5323 C 0.43435 0.10613 0.6712 0.0
C5324 C 0.44082 0.10268 0.69608 0.0
H5325 H 0.47642 0.1326 0.71324 0.0
H5326 H 0.4644 0.1278 0.70191 0.0
H5327 H 0.44529 0.1046 0.71031 0.0
H5328 H 0.42422 0.08097 0.67292 0.0
H5329 H 0.43405 0.08722 0.68557 0.0
H5330 H 0.45265 0.11073 0.67704 0.0
C5331 C 0.46626 0.12304 0.70746 0.0
C5332 C 0.44697 0.10596 0.70307 0.0
C5333 C 0.47314 0.12578 0.71395 0.0
C5334 C 0.42702 0.088 0.67232 0.0
C5335 C 0.43256 0.09162 0.67962 0.0
C5336 C 0.45087 0.10946 0.68428 0.0
C5337 C 0.46189 0.11421 0.70807 0.0
C5338 C 0.45514 0.111 0.70073 0.0
C5339 C 0.43638 0.1007 0.6791 0.0
C5340 C 0.44272 0.10437 0.68659 0.0
H5341 H 0.4732 0.10626 0.72748 0.0
H5342 H 0.46119 0.10145 0.71614 0.0
H5343 H 0.46332 0.11643 0.68919 0.0
H5344 H 0.42761 0.10681 0.65782 0.0
H5345 H 0.43708 0.11319 0.67063 0.0
C5346 C 0.13522 0.20688 0.94677 0.0
C5347 C 0.12947 0.20879 0.95452 0.0
C5348 C 0.13586 0.19782 0.94314 0.0
C5349 C 0.13258 0.17296 0.94796 0.0
H5350 H 0.12786 0.17107 0.92125 0.0
C5351 C 0.14 0.14025 0.92454 0.0
C5352 C 0.1331 0.13797 0.91779 0.0
C5353 C 0.1391 0.14827 0.93014 0.0
C5354 C 0.12913 0.17147 0.92872 0.0
H5355 H 0.1202 0.20253 0.96477 0.0
H5356 H 0.1215 0.18662 0.9585 0.0
H5357 H 0.12765 0.18634 0.92893 0.0
H5358 H 0.1197 0.14214 0.91185 0.0
H5359 H 0.11815 0.15609 0.92159 0.0
H5360 H 0.1342 0.15803 0.94766 0.0
C5361 C 0.12546 0.1922 0.95524 0.0
C5362 C 0.1291 0.18022 0.93309 0.0
C5363 C 0.12474 0.20131 0.95883 0.0
C5364 C 0.1251 0.14364 0.91704 0.0
C5365 C 0.12425 0.15168 0.92255 0.0
C5366 C 0.13276 0.16418 0.94353 0.0
C5367 C 0.13085 0.19043 0.94722 0.0
C5368 C 0.13085 0.18106 0.94274 0.0
C5369 C 0.13134 0.15419 0.929 0.0
C5370 C 0.131 0.16337 0.93387 0.0
H5371 H 0.13917 0.21241 0.94342 0.0
H5372 H 0.14019 0.19661 0.93704 0.0
H5373 H 0.13397 0.17343 0.9554 0.0
H5374 H 0.14621 0.13597 0.92531 0.0
H5375 H 0.14468 0.15007 0.93503 0.0
C5376 C 0.29789 0.0196 0.11381 0.0
C5377 C 0.30016 0.0158 0.12257 0.0
C5378 C 0.3024 0.0277 0.11069 0.0
C5379 C 0.31705 0.04792 0.11857 0.0
H5380 H 0.32628 0.04725 0.0931 0.0
C5381 C 0.34696 0.07192 0.10564 0.0
C5382 C 0.34654 0.07528 0.09643 0.0
C5383 C 0.34024 0.06556 0.10885 0.0
C5384 C 0.32363 0.04764 0.10018 0.0
H5385 H 0.30863 0.01779 0.1351 0.0
H5386 H 0.31661 0.03182 0.12961 0.0
H5387 H 0.31634 0.03457 0.0987 0.0
H5388 H 0.33848 0.07488 0.08351 0.0
H5389 H 0.32672 0.06376 0.08912 0.0
H5390 H 0.32452 0.06091 0.12009 0.0
C5391 C 0.3113 0.02858 0.12516 0.0
C5392 C 0.31792 0.04036 0.10339 0.0
C5393 C 0.30681 0.02047 0.12827 0.0
C5394 C 0.33909 0.07231 0.09059 0.0
C5395 C 0.33235 0.06595 0.09381 0.0
C5396 C 0.32276 0.0552 0.11535 0.0
C5397 C 0.30927 0.03221 0.11627 0.0
C5398 C 0.31467 0.04035 0.11266 0.0
C5399 C 0.33292 0.0624 0.10294 0.0
C5400 C 0.32623 0.05508 0.10616 0.0
H5401 H 0.29285 0.01613 0.10922 0.0
H5402 H 0.30059 0.03038 0.10385 0.0
H5403 H 0.31455 0.04819 0.1257 0.0
H5404 H 0.35269 0.07394 0.11028 0.0
H5405 H 0.34098 0.06287 0.11587 0.0
C5406 C 0.807 0.48144 0.86792 0.0
C5407 C 0.80025 0.48601 0.87341 0.0
C5408 C 0.81142 0.47338 0.87115 0.0
C5409 C 0.81749 0.46157 0.89311 0.0
H5410 H 0.82471 0.44131 0.87651 0.0
C5411 C 0.83841 0.42985 0.90646 0.0
C5412 C 0.8461 0.42714 0.90094 0.0
C5413 C 0.83175 0.43613 0.90302 0.0
C5414 C 0.82278 0.44693 0.88123 0.0
H5415 H 0.79263 0.48553 0.8865 0.0
H5416 H 0.80022 0.47135 0.89207 0.0
H5417 H 0.81481 0.45386 0.87061 0.0
H5418 H 0.85272 0.42882 0.88742 0.0
H5419 H 0.84111 0.43971 0.88142 0.0
H5420 H 0.82559 0.45474 0.90367 0.0
C5421 C 0.80219 0.47408 0.88531 0.0
C5422 C 0.81711 0.45413 0.87785 0.0
C5423 C 0.79776 0.48214 0.88207 0.0
C5424 C 0.84682 0.43064 0.89181 0.0
C5425 C 0.84015 0.4369 0.88837 0.0
C5426 C 0.82315 0.45437 0.89649 0.0
C5427 C 0.80919 0.46968 0.87995 0.0
C5428 C 0.81452 0.46161 0.88371 0.0
C5429 C 0.83261 0.43982 0.89398 0.0
C5430 C 0.82597 0.44704 0.89055 0.0
H5431 H 0.80899 0.48416 0.86116 0.0
H5432 H 0.81683 0.47023 0.86687 0.0
H5433 H 0.81576 0.46729 0.89779 0.0
H5434 H 0.83756 0.42717 0.91347 0.0
H5435 H 0.82594 0.43812 0.90747 0.0
C5436 C 0.78874 0.55889 0.14653 0.0
C5437 C 0.78468 0.54999 0.14514 0.0
C5438 C 0.79849 0.56008 0.14654 0.0
C5439 C 0.82019 0.54946 0.13781 0.0
H5440 H 0.83221 0.56638 0.15561 0.0
C5441 C 0.86045 0.5558 0.13827 0.0
C5442 C 0.86342 0.56515 0.13936 0.0
C5443 C 0.85104 0.5533 0.1397 0.0
C5444 C 0.82895 0.56169 0.15055 0.0
H5445 H 0.78776 0.53532 0.14282 0.0
H5446 H 0.80484 0.53743 0.14273 0.0
H5447 H 0.81539 0.56317 0.15679 0.0
H5448 H 0.85882 0.57919 0.14273 0.0
H5449 H 0.84245 0.57485 0.14519 0.0
H5450 H 0.83371 0.54813 0.13144 0.0
C5451 C 0.80042 0.54349 0.14376 0.0
C5452 C 0.81932 0.55984 0.15123 0.0
C5453 C 0.79064 0.54229 0.14379 0.0
C5454 C 0.8568 0.57191 0.142 0.0
C5455 C 0.8474 0.56941 0.14341 0.0
C5456 C 0.82983 0.55133 0.13711 0.0
C5457 C 0.80445 0.5524 0.14511 0.0
C5458 C 0.81481 0.55381 0.1448 0.0
C5459 C 0.84439 0.56009 0.14224 0.0
C5460 C 0.8343 0.55757 0.14339 0.0
H5461 H 0.78437 0.56501 0.14739 0.0
H5462 H 0.80137 0.56706 0.14743 0.0
H5463 H 0.8169 0.54486 0.13269 0.0
H5464 H 0.86541 0.55041 0.13635 0.0
H5465 H 0.84898 0.54604 0.13886 0.0
C5466 C 0.71156 0.52097 0.38259 0.0
C5467 C 0.70865 0.51301 0.37749 0.0
C5468 C 0.70535 0.52837 0.38415 0.0
C5469 C 0.68324 0.53857 0.37505 0.0
H5470 H 0.68301 0.55165 0.39891 0.0
C5471 C 0.65496 0.56579 0.3837 0.0
C5472 C 0.65819 0.57431 0.38754 0.0
C5473 C 0.66092 0.55808 0.38312 0.0
C5474 C 0.68304 0.5481 0.3922 0.0
H5475 H 0.69692 0.50665 0.36994 0.0
H5476 H 0.68606 0.51937 0.37289 0.0
H5477 H 0.69389 0.53871 0.3965 0.0
H5478 H 0.67017 0.5813 0.39405 0.0
H5479 H 0.68055 0.56781 0.39312 0.0
H5480 H 0.67239 0.54792 0.37076 0.0
C5481 C 0.69317 0.51998 0.37559 0.0
C5482 C 0.68929 0.5407 0.3908 0.0
C5483 C 0.69938 0.51262 0.374 0.0
C5484 C 0.66742 0.57482 0.39115 0.0
C5485 C 0.67338 0.56709 0.3906 0.0
C5486 C 0.67698 0.54592 0.37647 0.0
C5487 C 0.69608 0.52796 0.38066 0.0
C5488 C 0.68946 0.53585 0.3822 0.0
C5489 C 0.67025 0.5587 0.3864 0.0
C5490 C 0.6768 0.55077 0.38505 0.0
H5491 H 0.71861 0.52147 0.38547 0.0
H5492 H 0.70785 0.53445 0.388 0.0
H5493 H 0.68331 0.53512 0.36828 0.0
H5494 H 0.64784 0.5651 0.38102 0.0
H5495 H 0.65826 0.55165 0.38001 0.0
C5496 C 0.21037 0.9614 0.12824 0.0
C5497 C 0.2142 0.96781 0.13475 0.0
C5498 C 0.20125 0.9579 0.12934 0.0
C5499 C 0.18384 0.9532 0.14748 0.0
H5500 H 0.16699 0.94891 0.12642 0.0
C5501 C 0.14796 0.93489 0.15227 0.0
C5502 C 0.14567 0.92796 0.14559 0.0
C5503 C 0.15538 0.94115 0.15073 0.0
C5504 C 0.17163 0.95002 0.13237 0.0
H5505 H 0.21139 0.97571 0.14742 0.0
H5506 H 0.19541 0.96959 0.14934 0.0
H5507 H 0.18181 0.9573 0.1241 0.0
H5508 H 0.14929 0.92229 0.13198 0.0
H5509 H 0.16226 0.93311 0.12933 0.0
H5510 H 0.17387 0.94566 0.1557 0.0
C5511 C 0.1995 0.96726 0.14341 0.0
C5512 C 0.18011 0.95483 0.13104 0.0
C5513 C 0.20862 0.97082 0.14226 0.0
C5514 C 0.15077 0.92764 0.13721 0.0
C5515 C 0.15822 0.93385 0.13568 0.0
C5516 C 0.17539 0.94834 0.1488 0.0
C5517 C 0.19576 0.96069 0.13701 0.0
C5518 C 0.18637 0.95635 0.13855 0.0
C5519 C 0.16073 0.94059 0.14249 0.0
C5520 C 0.16925 0.94655 0.14124 0.0
H5521 H 0.21447 0.95903 0.12233 0.0
H5522 H 0.1986 0.95278 0.12434 0.0
H5523 H 0.18857 0.95415 0.15339 0.0
H5524 H 0.14407 0.93539 0.15875 0.0
H5525 H 0.15701 0.94635 0.15605 0.0
C5526 C 0.20093 0.98734 0.62931 0.0
C5527 C 0.20976 0.98755 0.62492 0.0
C5528 C 0.19468 0.97992 0.62771 0.0
C5529 C 0.18917 0.96048 0.61132 0.0
H5530 H 0.17566 0.95053 0.63257 0.0
C5531 C 0.16789 0.92571 0.61009 0.0
C5532 C 0.15945 0.92537 0.61515 0.0
C5533 C 0.17377 0.93358 0.61068 0.0
C5534 C 0.17928 0.95331 0.62653 0.0
H5535 H 0.21887 0.98016 0.61529 0.0
H5536 H 0.20801 0.96708 0.61265 0.0
H5537 H 0.18651 0.96359 0.63484 0.0
H5538 H 0.15029 0.9332 0.62436 0.0
H5539 H 0.16051 0.94693 0.62536 0.0
H5540 H 0.18195 0.95011 0.60304 0.0
C5541 C 0.2059 0.97273 0.61725 0.0
C5542 C 0.18551 0.96079 0.62784 0.0
C5543 C 0.21216 0.98017 0.61885 0.0
C5544 C 0.15684 0.93319 0.62052 0.0
C5545 C 0.1627 0.94104 0.6211 0.0
C5546 C 0.18293 0.95297 0.61002 0.0
C5547 C 0.1971 0.9725 0.62171 0.0
C5548 C 0.19052 0.96449 0.62025 0.0
C5549 C 0.17132 0.94127 0.61634 0.0
C5550 C 0.17789 0.94932 0.61761 0.0
H5551 H 0.19889 0.99286 0.6341 0.0
H5552 H 0.18792 0.98002 0.63117 0.0
H5553 H 0.19284 0.96324 0.60531 0.0
H5554 H 0.17014 0.91976 0.60596 0.0
H5555 H 0.1804 0.9335 0.60698 0.0
C5556 C 0.7895 0.45492 0.35691 0.0
C5557 C 0.78416 0.45076 0.36402 0.0
C5558 C 0.79927 0.45376 0.35664 0.0
C5559 C 0.81777 0.43782 0.36499 0.0
H5560 H 0.83482 0.45778 0.35789 0.0
C5561 C 0.85702 0.43089 0.35861 0.0
C5562 C 0.86347 0.43739 0.36244 0.0
C5563 C 0.84742 0.43289 0.35828 0.0
C5564 C 0.83015 0.45215 0.35993 0.0
H5565 H 0.78491 0.44254 0.37667 0.0
H5566 H 0.80191 0.44058 0.37625 0.0
H5567 H 0.81794 0.46079 0.3588 0.0
H5568 H 0.8649 0.45123 0.3686 0.0
H5569 H 0.84811 0.45464 0.36822 0.0
H5570 H 0.82994 0.42923 0.36634 0.0
C5571 C 0.79855 0.44454 0.37075 0.0
C5572 C 0.82048 0.45385 0.36036 0.0
C5573 C 0.78881 0.44568 0.371 0.0
C5574 C 0.86011 0.44603 0.36571 0.0
C5575 C 0.85049 0.44803 0.3654 0.0
C5576 C 0.82742 0.43612 0.36456 0.0
C5577 C 0.80389 0.44844 0.36348 0.0
C5578 C 0.81418 0.4467 0.36294 0.0
C5579 C 0.84402 0.44143 0.3618 0.0
C5580 C 0.83373 0.44326 0.36204 0.0
H5581 H 0.78611 0.45881 0.35138 0.0
H5582 H 0.80316 0.45678 0.3509 0.0
H5583 H 0.81311 0.43212 0.36686 0.0
H5584 H 0.85935 0.42413 0.3561 0.0
H5585 H 0.84264 0.42771 0.35534 0.0
C5586 C 0.71275 0.54339 0.86398 0.0
C5587 C 0.7152 0.53514 0.8592 0.0
C5588 C 0.70358 0.5468 0.86352 0.0
C5589 C 0.67904 0.53972 0.85828 0.0
H5590 H 0.67525 0.56648 0.85666 0.0
C5591 C 0.64204 0.55617 0.85442 0.0
C5592 C 0.64028 0.56391 0.86025 0.0
C5593 C 0.65116 0.55263 0.85358 0.0
C5594 C 0.67619 0.55899 0.85717 0.0
H5595 H 0.70992 0.52401 0.85018 0.0
H5596 H 0.69388 0.52999 0.84935 0.0
H5597 H 0.69117 0.56028 0.85655 0.0
H5598 H 0.64672 0.57418 0.86955 0.0
H5599 H 0.66258 0.56798 0.86816 0.0
H5600 H 0.66402 0.53846 0.85894 0.0
C5601 C 0.69904 0.53376 0.85354 0.0
C5602 C 0.68532 0.55544 0.85713 0.0
C5603 C 0.70823 0.53034 0.85401 0.0
C5604 C 0.64784 0.56814 0.86508 0.0
C5605 C 0.65695 0.56465 0.86421 0.0
C5606 C 0.66989 0.54328 0.8583 0.0
C5607 C 0.69661 0.54206 0.85827 0.0
C5608 C 0.68686 0.54577 0.85781 0.0
C5609 C 0.65871 0.55682 0.85849 0.0
C5610 C 0.66837 0.55297 0.85786 0.0
H5611 H 0.7179 0.54717 0.86818 0.0
H5612 H 0.70191 0.5531 0.86741 0.0
H5613 H 0.67998 0.53224 0.85891 0.0
H5614 H 0.63635 0.55272 0.85065 0.0
H5615 H 0.65232 0.54664 0.84907 0.0
C5616 C 0.88045 0.70119 0.96369 0.0
C5617 C 0.8887 0.70238 0.96904 0.0
C5618 C 0.88095 0.69914 0.95413 0.0
C5619 C 0.89711 0.69847 0.93373 0.0
H5620 H 0.88034 0.67859 0.92532 0.0
C5621 C 0.90348 0.6757 0.90074 0.0
C5622 C 0.89561 0.6725 0.89562 0.0
C5623 C 0.90232 0.681 0.90891 0.0
C5624 C 0.88496 0.68427 0.92748 0.0
H5625 H 0.90394 0.70264 0.96851 0.0
H5626 H 0.90483 0.69894 0.95186 0.0
H5627 H 0.87887 0.68481 0.94108 0.0
H5628 H 0.88039 0.67294 0.89464 0.0
H5629 H 0.87836 0.68224 0.90886 0.0
H5630 H 0.90337 0.69768 0.92013 0.0
C5631 C 0.89796 0.69974 0.955 0.0
C5632 C 0.88412 0.68785 0.93654 0.0
C5633 C 0.89746 0.70184 0.96455 0.0
C5634 C 0.88658 0.67517 0.89853 0.0
C5635 C 0.88543 0.68047 0.90668 0.0
C5636 C 0.89797 0.69486 0.92464 0.0
C5637 C 0.88971 0.69818 0.94971 0.0
C5638 C 0.89024 0.69493 0.93982 0.0
C5639 C 0.89327 0.68322 0.91211 0.0
C5640 C 0.89196 0.68765 0.92145 0.0
H5641 H 0.8736 0.70173 0.96692 0.0
H5642 H 0.87445 0.69818 0.95024 0.0
H5643 H 0.90186 0.704 0.93599 0.0
H5644 H 0.91052 0.67368 0.89871 0.0
H5645 H 0.90851 0.68293 0.91296 0.0
C5646 C 0.04045 0.14391 0.7336 0.0
C5647 C 0.03521 0.13555 0.73382 0.0
C5648 C 0.04474 0.14683 0.72534 0.0
C5649 C 0.04483 0.14296 0.69961 0.0
H5650 H 0.0703 0.15273 0.70163 0.0
C5651 C 0.06551 0.15488 0.66711 0.0
C5652 C 0.07493 0.15199 0.66664 0.0
C5653 C 0.06043 0.15398 0.67541 0.0
C5654 C 0.0632 0.14999 0.70094 0.0
H5655 H 0.03026 0.12374 0.72551 0.0
H5656 H 0.03783 0.12876 0.71112 0.0
H5657 H 0.06169 0.14879 0.71575 0.0
H5658 H 0.08643 0.14599 0.67456 0.0
H5659 H 0.07761 0.1444 0.68899 0.0
H5660 H 0.04649 0.1438 0.68478 0.0
C5661 C 0.0385 0.13316 0.71729 0.0
C5662 C 0.05822 0.14784 0.70905 0.0
C5663 C 0.03417 0.13027 0.72554 0.0
C5664 C 0.07924 0.14843 0.67473 0.0
C5665 C 0.07416 0.14751 0.68301 0.0
C5666 C 0.04983 0.14509 0.6915 0.0
C5667 C 0.04392 0.14143 0.71711 0.0
C5668 C 0.049 0.1442 0.70848 0.0
C5669 C 0.06466 0.15016 0.68342 0.0
C5670 C 0.05912 0.14853 0.69206 0.0
H5671 H 0.04124 0.14821 0.73983 0.0
H5672 H 0.04871 0.15332 0.72542 0.0
H5673 H 0.03771 0.14029 0.69893 0.0
H5674 H 0.06203 0.15776 0.66103 0.0
H5675 H 0.05317 0.15624 0.67554 0.0
C5676 C 0.5991 0.28421 0.46307 0.0
C5677 C 0.60814 0.28234 0.46658 0.0
C5678 C 0.59789 0.28756 0.454 0.0
C5679 C 0.61006 0.29079 0.43123 0.0
H5680 H 0.59196 0.31073 0.42829 0.0
C5681 C 0.6096 0.31632 0.39998 0.0
C5682 C 0.60081 0.31924 0.39657 0.0
C5683 C 0.61019 0.31055 0.4078 0.0
C5684 C 0.59694 0.30506 0.42894 0.0
H5685 H 0.623 0.28237 0.46327 0.0
H5686 H 0.62093 0.28837 0.44747 0.0
H5687 H 0.59358 0.3031 0.44333 0.0
H5688 H 0.58572 0.31809 0.3985 0.0
H5689 H 0.58674 0.30792 0.41207 0.0
H5690 H 0.61358 0.293 0.41685 0.0
C5691 C 0.61474 0.28709 0.45166 0.0
C5692 C 0.59786 0.30068 0.43758 0.0
C5693 C 0.61594 0.28367 0.46073 0.0
C5694 C 0.5926 0.31592 0.4009 0.0
C5695 C 0.59319 0.31018 0.40874 0.0
C5696 C 0.60916 0.29522 0.42258 0.0
C5697 C 0.60571 0.2892 0.44823 0.0
C5698 C 0.60447 0.29352 0.43886 0.0
C5699 C 0.60199 0.3076 0.4124 0.0
C5700 C 0.60262 0.30245 0.42136 0.0
H5701 H 0.59294 0.2831 0.46737 0.0
H5702 H 0.59082 0.28891 0.45152 0.0
H5703 H 0.61513 0.28521 0.43193 0.0
H5704 H 0.61605 0.31869 0.39673 0.0
H5705 H 0.61708 0.30872 0.41047 0.0
C5706 C 0.46361 0.86836 0.23003 0.0
C5707 C 0.46069 0.8637 0.23815 0.0
C5708 C 0.45957 0.86615 0.22134 0.0
C5709 C 0.438 0.85595 0.21096 0.0
H5710 H 0.45263 0.85584 0.18815 0.0
C5711 C 0.42102 0.84786 0.17495 0.0
C5712 C 0.42359 0.85387 0.16765 0.0
C5713 C 0.42601 0.84798 0.18342 0.0
C5714 C 0.44844 0.8559 0.19446 0.0
H5715 H 0.45153 0.85279 0.24342 0.0
H5716 H 0.44449 0.84893 0.22827 0.0
H5717 H 0.46056 0.85803 0.20321 0.0
H5718 H 0.43346 0.86472 0.16356 0.0
H5719 H 0.44214 0.8649 0.17827 0.0
H5720 H 0.42586 0.85397 0.20222 0.0
C5721 C 0.44978 0.85441 0.22865 0.0
C5722 C 0.45298 0.85716 0.20308 0.0
C5723 C 0.45381 0.85662 0.23733 0.0
C5724 C 0.43139 0.85986 0.16896 0.0
C5725 C 0.43637 0.85998 0.17741 0.0
C5726 C 0.43346 0.85469 0.20234 0.0
C5727 C 0.45252 0.85923 0.22057 0.0
C5728 C 0.4478 0.85731 0.21143 0.0
C5729 C 0.43368 0.85412 0.18478 0.0
C5730 C 0.43861 0.85476 0.19397 0.0
H5731 H 0.4688 0.87393 0.23043 0.0
H5732 H 0.46176 0.87009 0.21528 0.0
H5733 H 0.43377 0.85617 0.21724 0.0
H5734 H 0.41513 0.84307 0.17413 0.0
H5735 H 0.42383 0.84329 0.18892 0.0
C5736 C 0.87922 0.30137 0.53417 0.0
C5737 C 0.88755 0.30045 0.52902 0.0
C5738 C 0.87956 0.3034 0.54375 0.0
C5739 C 0.89549 0.30446 0.56453 0.0
H5740 H 0.87828 0.32376 0.57269 0.0
C5741 C 0.9012 0.3272 0.59778 0.0
C5742 C 0.89324 0.33012 0.60278 0.0
C5743 C 0.90018 0.32194 0.58954 0.0
C5744 C 0.88303 0.31824 0.5706 0.0
H5745 H 0.90278 0.3007 0.52991 0.0
H5746 H 0.9034 0.30436 0.54659 0.0
H5747 H 0.87707 0.31758 0.55686 0.0
H5748 H 0.87802 0.32922 0.60345 0.0
H5749 H 0.87625 0.31999 0.58911 0.0
H5750 H 0.90161 0.30537 0.57825 0.0
C5751 C 0.89659 0.30336 0.54328 0.0
C5752 C 0.88233 0.31469 0.5615 0.0
C5753 C 0.89624 0.30127 0.53371 0.0
C5754 C 0.88428 0.32721 0.59965 0.0
C5755 C 0.88327 0.32194 0.59144 0.0
C5756 C 0.8962 0.30804 0.57365 0.0
C5757 C 0.88825 0.30462 0.54838 0.0
C5758 C 0.88861 0.30783 0.55831 0.0
C5759 C 0.89119 0.31947 0.58614 0.0
C5760 C 0.89003 0.31505 0.57675 0.0
H5761 H 0.87242 0.30062 0.53078 0.0
H5762 H 0.873 0.30414 0.54749 0.0
H5763 H 0.90035 0.29909 0.56233 0.0
H5764 H 0.90819 0.3294 0.59995 0.0
H5765 H 0.90643 0.32022 0.58559 0.0
C5766 C 0.46752 0.14463 0.26821 0.0
C5767 C 0.47525 0.13861 0.26905 0.0
C5768 C 0.46204 0.14685 0.27599 0.0
C5769 C 0.46203 0.14655 0.30193 0.0
H5770 H 0.4349 0.14611 0.29889 0.0
C5771 C 0.43669 0.14339 0.33303 0.0
C5772 C 0.42826 0.14848 0.33285 0.0
C5773 C 0.44265 0.14329 0.3253 0.0
C5774 C 0.44246 0.14641 0.29984 0.0
H5775 H 0.48328 0.1302 0.27876 0.0
H5776 H 0.47371 0.13403 0.29233 0.0
H5777 H 0.44491 0.14387 0.28529 0.0
H5778 H 0.41963 0.15769 0.32446 0.0
H5779 H 0.43004 0.15747 0.31091 0.0
H5780 H 0.45957 0.14892 0.31651 0.0
C5781 C 0.47197 0.13717 0.28567 0.0
C5782 C 0.44821 0.14512 0.29204 0.0
C5783 C 0.47746 0.13497 0.2779 0.0
C5784 C 0.42601 0.1536 0.32479 0.0
C5785 C 0.43197 0.15348 0.31703 0.0
C5786 C 0.45629 0.14783 0.30973 0.0
C5787 C 0.46415 0.14308 0.2848 0.0
C5788 C 0.45806 0.14505 0.29301 0.0
C5789 C 0.44032 0.14826 0.31718 0.0
C5790 C 0.44643 0.14765 0.30879 0.0
H5791 H 0.46573 0.14768 0.26152 0.0
H5792 H 0.45615 0.15153 0.2751 0.0
H5793 H 0.4696 0.14671 0.30289 0.0
H5794 H 0.43856 0.13922 0.33903 0.0
H5795 H 0.44894 0.13907 0.32559 0.0
C5796 C 0.60221 0.7051 0.03321 0.0
C5797 C 0.61093 0.70532 0.02862 0.0
C5798 C 0.60176 0.70341 0.04281 0.0
C5799 C 0.61551 0.69223 0.06153 0.0
H5800 H 0.59644 0.70286 0.07767 0.0
C5801 C 0.61261 0.68096 0.09977 0.0
C5802 C 0.60352 0.67829 0.10256 0.0
C5803 C 0.61393 0.68607 0.09159 0.0
C5804 C 0.6018 0.69983 0.07324 0.0
H5805 H 0.62603 0.70449 0.03057 0.0
H5806 H 0.62528 0.70168 0.04736 0.0
H5807 H 0.59808 0.70851 0.06166 0.0
H5808 H 0.58866 0.67932 0.09921 0.0
H5809 H 0.59097 0.68824 0.08494 0.0
H5810 H 0.61912 0.68345 0.073 0.0
C5811 C 0.61876 0.70257 0.04351 0.0
C5812 C 0.60273 0.70305 0.06406 0.0
C5813 C 0.6192 0.7042 0.0339 0.0
C5814 C 0.59575 0.68134 0.0973 0.0
C5815 C 0.59707 0.68645 0.08911 0.0
C5816 C 0.61461 0.68906 0.07069 0.0
C5817 C 0.61003 0.70196 0.04806 0.0
C5818 C 0.60951 0.69919 0.05806 0.0
C5819 C 0.6062 0.68862 0.08601 0.0
C5820 C 0.60766 0.69272 0.07661 0.0
H5821 H 0.59571 0.70585 0.0293 0.0
H5822 H 0.59491 0.70286 0.04604 0.0
H5823 H 0.62068 0.68896 0.05707 0.0
H5824 H 0.61873 0.67886 0.10377 0.0
H5825 H 0.62104 0.68779 0.08948 0.0
C5826 C 0.02997 0.86367 0.77308 0.0
C5827 C 0.03297 0.85998 0.76447 0.0
C5828 C 0.0341 0.86075 0.78146 0.0
C5829 C 0.05601 0.85056 0.79051 0.0
H5830 H 0.04162 0.84751 0.81326 0.0
C5831 C 0.07381 0.8403 0.82532 0.0
C5832 C 0.07107 0.8455 0.83322 0.0
C5833 C 0.06866 0.84081 0.81696 0.0
C5834 C 0.04575 0.84838 0.80697 0.0
H5835 H 0.04234 0.84999 0.75795 0.0
H5836 H 0.04953 0.8449 0.77255 0.0
H5837 H 0.03348 0.85075 0.79857 0.0
H5838 H 0.06071 0.85523 0.83854 0.0
H5839 H 0.05177 0.85609 0.82404 0.0
H5840 H 0.06829 0.84838 0.79892 0.0
C5841 C 0.04411 0.85018 0.77282 0.0
C5842 C 0.04108 0.85024 0.79856 0.0
C5843 C 0.03999 0.8531 0.76445 0.0
C5844 C 0.06293 0.851 0.83265 0.0
C5845 C 0.05779 0.8515 0.82432 0.0
C5846 C 0.06068 0.8487 0.79892 0.0
C5847 C 0.04131 0.85406 0.78141 0.0
C5848 C 0.04617 0.85147 0.79025 0.0
C5849 C 0.06066 0.84652 0.81633 0.0
C5850 C 0.05561 0.84771 0.80728 0.0
H5851 H 0.02466 0.86906 0.77334 0.0
H5852 H 0.03185 0.86397 0.78795 0.0
H5853 H 0.06016 0.8516 0.78427 0.0
H5854 H 0.07997 0.8359 0.82556 0.0
H5855 H 0.07098 0.83677 0.81097 0.0
C5856 C 0.94069 0.88328 0.72416 0.0
C5857 C 0.94802 0.88099 0.718 0.0
C5858 C 0.93144 0.88409 0.72087 0.0
C5859 C 0.91758 0.88769 0.69921 0.0
H5860 H 0.89717 0.87673 0.71339 0.0
C5861 C 0.88045 0.88183 0.6836 0.0
C5862 C 0.87265 0.88331 0.68942 0.0
C5863 C 0.88959 0.88222 0.68724 0.0
C5864 C 0.90277 0.87995 0.70941 0.0
H5865 H 0.95131 0.87759 0.70357 0.0
H5866 H 0.93522 0.87903 0.69785 0.0
H5867 H 0.9132 0.87612 0.71951 0.0
H5868 H 0.86838 0.88666 0.70359 0.0
H5869 H 0.88434 0.88736 0.70994 0.0
H5870 H 0.90716 0.89146 0.68908 0.0
C5871 C 0.93664 0.88036 0.7052 0.0
C5872 C 0.91196 0.87959 0.71292 0.0
C5873 C 0.94587 0.87953 0.70848 0.0
C5874 C 0.87422 0.88535 0.69894 0.0
C5875 C 0.88337 0.88575 0.70259 0.0
C5876 C 0.90839 0.88805 0.69571 0.0
C5877 C 0.92931 0.88265 0.71135 0.0
C5878 C 0.91948 0.88339 0.70782 0.0
C5879 C 0.89116 0.88411 0.69679 0.0
C5880 C 0.90088 0.88412 0.70072 0.0
H5881 H 0.94212 0.88456 0.73151 0.0
H5882 H 0.92597 0.88597 0.72577 0.0
H5883 H 0.92319 0.89082 0.69519 0.0
H5884 H 0.87948 0.8801 0.67627 0.0
H5885 H 0.89542 0.88078 0.68261 0.0
C5886 C 0.86376 0.23053 0.45637 0.0
C5887 C 0.87046 0.23731 0.4538 0.0
C5888 C 0.86166 0.22299 0.45042 0.0
C5889 C 0.86329 0.21513 0.42578 0.0
H5890 H 0.86157 0.19028 0.43631 0.0
C5891 C 0.86517 0.18156 0.40325 0.0
C5892 C 0.85974 0.17377 0.40587 0.0
C5893 C 0.86545 0.18961 0.40885 0.0
C5894 C 0.86187 0.19718 0.43326 0.0
H5895 H 0.8803 0.24136 0.44299 0.0
H5896 H 0.87662 0.22824 0.43262 0.0
H5897 H 0.86407 0.20372 0.44662 0.0
H5898 H 0.84999 0.16849 0.4162 0.0
H5899 H 0.8504 0.18258 0.42595 0.0
H5900 H 0.86118 0.20858 0.41241 0.0
C5901 C 0.87287 0.22884 0.43917 0.0
C5902 C 0.86332 0.20489 0.43918 0.0
C5903 C 0.87499 0.23636 0.44513 0.0
C5904 C 0.85434 0.17433 0.41407 0.0
C5905 C 0.8546 0.18239 0.41966 0.0
C5906 C 0.86182 0.20742 0.41986 0.0
C5907 C 0.8662 0.22205 0.44175 0.0
C5908 C 0.86415 0.21393 0.4355 0.0
C5909 C 0.86028 0.19007 0.4172 0.0
C5910 C 0.86119 0.19834 0.42352 0.0
H5911 H 0.86003 0.23112 0.46293 0.0
H5912 H 0.8564 0.21793 0.45256 0.0
H5913 H 0.86376 0.22203 0.42275 0.0
H5914 H 0.86952 0.18131 0.39706 0.0
H5915 H 0.87 0.19533 0.40681 0.0
C5916 C 0.55031 0.12357 0.20877 0.0
C5917 C 0.54475 0.11651 0.20459 0.0
C5918 C 0.56007 0.12368 0.20759 0.0
C5919 C 0.58024 0.10896 0.2005 0.0
H5920 H 0.59204 0.13284 0.19519 0.0
C5921 C 0.61817 0.11244 0.18622 0.0
C5922 C 0.62376 0.11983 0.18974 0.0
C5923 C 0.60866 0.11173 0.18861 0.0
C5924 C 0.58889 0.12613 0.19678 0.0
H5925 H 0.54513 0.10385 0.19615 0.0
H5926 H 0.56212 0.10415 0.19393 0.0
H5927 H 0.57526 0.13215 0.19842 0.0
H5928 H 0.62373 0.13225 0.19856 0.0
H5929 H 0.60722 0.13091 0.20285 0.0
H5930 H 0.59389 0.10295 0.19874 0.0
C5931 C 0.55895 0.10957 0.19818 0.0
C5932 C 0.57926 0.12574 0.19865 0.0
C5933 C 0.5492 0.10945 0.19937 0.0
C5934 C 0.61966 0.12641 0.19581 0.0
C5935 C 0.61016 0.12571 0.19818 0.0
C5936 C 0.58989 0.10936 0.19862 0.0
C5937 C 0.5645 0.11674 0.2022 0.0
C5938 C 0.57481 0.11715 0.2005 0.0
C5939 C 0.60452 0.11841 0.19454 0.0
C5940 C 0.59431 0.11795 0.19672 0.0
H5941 H 0.54711 0.12915 0.21278 0.0
H5942 H 0.56415 0.12924 0.21088 0.0
H5943 H 0.57706 0.10225 0.20202 0.0
H5944 H 0.62113 0.10722 0.1816 0.0
H5945 H 0.60449 0.10607 0.18563 0.0
C5946 C 0.63341 0.77402 0.95727 0.0
C5947 C 0.62519 0.76872 0.9556 0.0
C5948 C 0.63609 0.78109 0.95111 0.0
C5949 C 0.62718 0.79614 0.93207 0.0
H5950 H 0.65333 0.79688 0.92448 0.0
C5951 C 0.63959 0.81517 0.89892 0.0
C5952 C 0.64826 0.81994 0.89922 0.0
C5953 C 0.63668 0.80972 0.90645 0.0
C5954 C 0.64603 0.79688 0.92663 0.0
H5955 H 0.61315 0.76694 0.94636 0.0
H5956 H 0.61789 0.77916 0.93554 0.0
H5957 H 0.64837 0.78601 0.93656 0.0
H5958 H 0.66065 0.82281 0.90773 0.0
H5959 H 0.65551 0.8134 0.92095 0.0
H5960 H 0.62482 0.80691 0.92203 0.0
C5961 C 0.62224 0.7779 0.94164 0.0
C5962 C 0.64318 0.79064 0.93356 0.0
C5963 C 0.61958 0.77082 0.94778 0.0
C5964 C 0.6539 0.81927 0.9073 0.0
C5965 C 0.651 0.8138 0.91484 0.0
C5966 C 0.63002 0.80238 0.92515 0.0
C5967 C 0.63058 0.78304 0.94317 0.0
C5968 C 0.6337 0.79012 0.93628 0.0
C5969 C 0.64238 0.80891 0.91447 0.0
C5970 C 0.63946 0.80274 0.92226 0.0
H5971 H 0.63793 0.77253 0.9632 0.0
H5972 H 0.6425 0.78499 0.95254 0.0
H5973 H 0.61985 0.79602 0.93411 0.0
H5974 H 0.63502 0.81564 0.89285 0.0
H5975 H 0.63005 0.80598 0.90589 0.0
C5976 C 0.94452 0.12999 0.7829 0.0
C5977 C 0.94887 0.12206 0.77906 0.0
C5978 C 0.93548 0.12937 0.78661 0.0
C5979 C 0.91413 0.11419 0.788 0.0
H5980 H 0.91094 0.12715 0.81168 0.0
C5981 C 0.88455 0.10584 0.81456 0.0
C5982 C 0.88077 0.11334 0.81968 0.0
C5983 C 0.89196 0.10734 0.80833 0.0
C5984 C 0.91164 0.12361 0.805 0.0
H5985 H 0.94705 0.10733 0.77582 0.0
H5986 H 0.93129 0.10619 0.78247 0.0
H5987 H 0.92556 0.12895 0.80319 0.0
H5988 H 0.8813 0.12837 0.82178 0.0
H5989 H 0.8942 0.13097 0.81091 0.0
H5990 H 0.90023 0.10865 0.79004 0.0
C5991 C 0.93481 0.11293 0.78247 0.0
C5992 C 0.92003 0.12465 0.80011 0.0
C5993 C 0.94384 0.11357 0.77869 0.0
C5994 C 0.88419 0.12242 0.81806 0.0
C5995 C 0.89158 0.12391 0.81184 0.0
C5996 C 0.90571 0.11312 0.79294 0.0
C5997 C 0.93059 0.12078 0.78665 0.0
C5998 C 0.92142 0.11993 0.79156 0.0
C5999 C 0.89573 0.11636 0.8071 0.0
C6000 C 0.90439 0.1178 0.80152 0.0
H6001 H 0.94818 0.13666 0.78313 0.0
H6002 H 0.93237 0.13561 0.78956 0.0
H6003 H 0.91492 0.11054 0.78139 0.0
H6004 H 0.88212 0.09875 0.81571 0.0
H6005 H 0.89504 0.10136 0.80483 0.0
C6006 C 0.63337 0.23223 0.55296 0.0
C6007 C 0.6277 0.23942 0.55657 0.0
C6008 C 0.63677 0.22519 0.55882 0.0
C6009 C 0.64189 0.22069 0.5837 0.0
H6010 H 0.642 0.19456 0.57624 0.0
C6011 C 0.64883 0.19164 0.61021 0.0
C6012 C 0.65476 0.18428 0.60754 0.0
C6013 C 0.64569 0.1981 0.60365 0.0
C6014 C 0.64211 0.20185 0.57838 0.0
H6015 H 0.6212 0.24482 0.56919 0.0
H6016 H 0.62694 0.23251 0.57929 0.0
H6017 H 0.63619 0.20633 0.56535 0.0
H6018 H 0.66192 0.17784 0.59581 0.0
H6019 H 0.6564 0.18915 0.5843 0.0
H6020 H 0.64777 0.21626 0.59671 0.0
C6021 C 0.62884 0.23234 0.57196 0.0
C6022 C 0.63879 0.20858 0.57214 0.0
C6023 C 0.62543 0.23934 0.56613 0.0
C6024 C 0.65731 0.1834 0.59808 0.0
C6025 C 0.65415 0.18987 0.59149 0.0
C6026 C 0.6452 0.21398 0.58991 0.0
C6027 C 0.63463 0.22524 0.56841 0.0
C6028 C 0.63853 0.21807 0.57479 0.0
C6029 C 0.64838 0.19735 0.59423 0.0
C6030 C 0.64525 0.20447 0.58738 0.0
H6031 H 0.63519 0.23205 0.54562 0.0
H6032 H 0.64125 0.21984 0.55587 0.0
H6033 H 0.642 0.22796 0.58588 0.0
H6034 H 0.64655 0.1924 0.61739 0.0
H6035 H 0.64109 0.20365 0.60595 0.0
C6036 C 0.54896 0.87642 0.29317 0.0
C6037 C 0.54601 0.88057 0.28478 0.0
C6038 C 0.55835 0.87704 0.29607 0.0
C6039 C 0.58236 0.88141 0.28727 0.0
H6040 H 0.58823 0.88456 0.31364 0.0
C6041 C 0.61948 0.87504 0.30237 0.0
C6042 C 0.62273 0.88086 0.30969 0.0
C6043 C 0.61024 0.87571 0.29908 0.0
C6044 C 0.58673 0.88379 0.30624 0.0
H6045 H 0.5506 0.88875 0.27293 0.0
H6046 H 0.567 0.88989 0.27802 0.0
H6047 H 0.57188 0.88461 0.30844 0.0
H6048 H 0.6189 0.89214 0.31911 0.0
H6049 H 0.60276 0.89337 0.31331 0.0
H6050 H 0.59723 0.88073 0.28506 0.0
C6051 C 0.56207 0.88602 0.28229 0.0
C6052 C 0.57734 0.88369 0.30327 0.0
C6053 C 0.55268 0.88538 0.27936 0.0
C6054 C 0.61656 0.88747 0.31354 0.0
C6055 C 0.60732 0.88816 0.31023 0.0
C6056 C 0.59176 0.88153 0.29024 0.0
C6057 C 0.56502 0.88186 0.29068 0.0
C6058 C 0.57504 0.8824 0.29376 0.0
C6059 C 0.60402 0.88224 0.30301 0.0
C6060 C 0.59405 0.88262 0.29977 0.0
H6061 H 0.54404 0.87253 0.29742 0.0
H6062 H 0.56041 0.87359 0.30248 0.0
H6063 H 0.58085 0.88033 0.27991 0.0
H6064 H 0.62401 0.86977 0.29935 0.0
H6065 H 0.6079 0.87092 0.29363 0.0
C6066 C 0.86581 0.77388 0.0392 0.0
C6067 C 0.87203 0.76691 0.04222 0.0
C6068 C 0.86374 0.78151 0.045 0.0
C6069 C 0.87297 0.79475 0.06544 0.0
H6070 H 0.84758 0.80444 0.06671 0.0
C6071 C 0.86289 0.82328 0.09204 0.0
C6072 C 0.8576 0.83077 0.08857 0.0
C6073 C 0.8641 0.81518 0.08667 0.0
C6074 C 0.85472 0.80185 0.06637 0.0
H6075 H 0.88103 0.76255 0.05367 0.0
H6076 H 0.87725 0.7757 0.06384 0.0
H6077 H 0.85088 0.79096 0.05669 0.0
H6078 H 0.84909 0.83547 0.0769 0.0
H6079 H 0.85128 0.82135 0.06748 0.0
H6080 H 0.87681 0.80562 0.07511 0.0
C6081 C 0.87405 0.77535 0.05696 0.0
C6082 C 0.85662 0.79414 0.06062 0.0
C6083 C 0.87612 0.76774 0.05116 0.0
C6084 C 0.85328 0.82985 0.07973 0.0
C6085 C 0.85446 0.82173 0.07437 0.0
C6086 C 0.87107 0.80242 0.07121 0.0
C6087 C 0.86785 0.78234 0.05394 0.0
C6088 C 0.86577 0.7905 0.06008 0.0
C6089 C 0.86003 0.81437 0.07771 0.0
C6090 C 0.86193 0.80607 0.07174 0.0
H6091 H 0.86245 0.77341 0.03239 0.0
H6092 H 0.85902 0.78682 0.04242 0.0
H6093 H 0.88013 0.79224 0.06507 0.0
H6094 H 0.86638 0.82379 0.09878 0.0
H6095 H 0.86832 0.80958 0.08949 0.0
C6096 C 0.70092 0.95172 0.88832 0.0
C6097 C 0.70705 0.95508 0.88141 0.0
C6098 C 0.69787 0.94241 0.88816 0.0
C6099 C 0.70335 0.91905 0.87842 0.0
H6100 H 0.67679 0.91417 0.88233 0.0
C6101 C 0.68577 0.8838 0.86867 0.0
C6102 C 0.67874 0.88029 0.87458 0.0
C6103 C 0.68958 0.89273 0.87017 0.0
C6104 C 0.68425 0.91538 0.88137 0.0
H6105 H 0.7148 0.95125 0.86894 0.0
H6106 H 0.70951 0.93501 0.86871 0.0
H6107 H 0.68286 0.93008 0.88382 0.0
H6108 H 0.67038 0.8833 0.88687 0.0
H6109 H 0.67705 0.89887 0.88951 0.0
H6110 H 0.70472 0.90435 0.87589 0.0
C6111 C 0.70716 0.93955 0.87431 0.0
C6112 C 0.68773 0.92451 0.88222 0.0
C6113 C 0.7102 0.94886 0.87445 0.0
C6114 C 0.67569 0.88586 0.88211 0.0
C6115 C 0.67951 0.89478 0.88362 0.0
C6116 C 0.69987 0.90991 0.87759 0.0
C6117 C 0.70089 0.93624 0.88112 0.0
C6118 C 0.6973 0.92646 0.88067 0.0
C6119 C 0.68646 0.89835 0.87763 0.0
C6120 C 0.69026 0.90798 0.87897 0.0
H6121 H 0.69849 0.95628 0.89387 0.0
H6122 H 0.69315 0.94003 0.89359 0.0
H6123 H 0.71078 0.9203 0.87733 0.0
H6124 H 0.68818 0.87975 0.86273 0.0
H6125 H 0.6948 0.89531 0.86532 0.0
C6126 C 0.2023 0.5461 0.12453 0.0
C6127 C 0.20062 0.54175 0.11583 0.0
C6128 C 0.20067 0.55566 0.12575 0.0
C6129 C 0.19715 0.57781 0.11296 0.0
H6130 H 0.18379 0.5852 0.13536 0.0
C6131 C 0.17993 0.61412 0.11739 0.0
C6132 C 0.18048 0.61842 0.12626 0.0
C6133 C 0.18307 0.60496 0.11607 0.0
C6134 C 0.18764 0.58329 0.12913 0.0
H6135 H 0.19627 0.54411 0.10148 0.0
H6136 H 0.19329 0.56075 0.10364 0.0
H6137 H 0.18826 0.56895 0.13317 0.0
H6138 H 0.18477 0.61643 0.14069 0.0
H6139 H 0.19042 0.60056 0.13835 0.0
H6140 H 0.19645 0.59217 0.10889 0.0
C6141 C 0.19592 0.55679 0.10952 0.0
C6142 C 0.19021 0.57396 0.12787 0.0
C6143 C 0.19753 0.54723 0.1083 0.0
C6144 C 0.18434 0.61338 0.13374 0.0
C6145 C 0.18747 0.60423 0.13243 0.0
C6146 C 0.19459 0.58715 0.11422 0.0
C6147 C 0.19733 0.56109 0.11829 0.0
C6148 C 0.19496 0.5711 0.11975 0.0
C6149 C 0.18681 0.59988 0.12359 0.0
C6150 C 0.18976 0.59 0.12231 0.0
H6151 H 0.20461 0.54207 0.13049 0.0
H6152 H 0.20194 0.55878 0.13258 0.0
H6153 H 0.20091 0.57585 0.10668 0.0
H6154 H 0.17709 0.61784 0.11145 0.0
H6155 H 0.18237 0.60179 0.10919 0.0
C6156 C 0.2402 0.44362 0.87416 0.0
C6157 C 0.24294 0.4524 0.87071 0.0
C6158 C 0.23206 0.43918 0.87083 0.0
C6159 C 0.21629 0.43858 0.85027 0.0
H6160 H 0.20145 0.42236 0.8661 0.0
C6161 C 0.19296 0.40897 0.83532 0.0
C6162 C 0.18458 0.40655 0.83993 0.0
C6163 C 0.19904 0.41574 0.83908 0.0
C6164 C 0.2054 0.42696 0.86158 0.0
H6165 H 0.23907 0.46353 0.86126 0.0
H6166 H 0.22469 0.45587 0.8556 0.0
H6167 H 0.21363 0.43227 0.87305 0.0
H6168 H 0.17595 0.40958 0.85203 0.0
H6169 H 0.18644 0.42159 0.85846 0.0
H6170 H 0.20801 0.43334 0.83881 0.0
C6171 C 0.22895 0.45235 0.86077 0.0
C6172 C 0.21249 0.43256 0.86556 0.0
C6173 C 0.23714 0.45679 0.86409 0.0
C6174 C 0.1823 0.4113 0.84825 0.0
C6175 C 0.18838 0.41811 0.852 0.0
C6176 C 0.20917 0.43302 0.84629 0.0
C6177 C 0.22639 0.44342 0.864 0.0
C6178 C 0.21816 0.43828 0.85993 0.0
C6179 C 0.1969 0.42032 0.84753 0.0
C6180 C 0.20377 0.42698 0.85187 0.0
H6181 H 0.24442 0.4401 0.87938 0.0
H6182 H 0.23038 0.43227 0.87341 0.0
H6183 H 0.22056 0.44284 0.84569 0.0
H6184 H 0.19487 0.40556 0.82882 0.0
H6185 H 0.20558 0.41716 0.83549 0.0
C6186 C 0.28705 0.45491 0.61579 0.0
C6187 C 0.29181 0.46234 0.62031 0.0
C6188 C 0.29122 0.44609 0.61506 0.0
C6189 C 0.31467 0.43568 0.6145 0.0
H6190 H 0.30165 0.41199 0.61759 0.0
C6191 C 0.33219 0.40141 0.60394 0.0
C6192 C 0.33204 0.39426 0.61062 0.0
C6193 C 0.32632 0.40913 0.60484 0.0
C6194 C 0.30537 0.41856 0.61672 0.0
H6195 H 0.30439 0.46617 0.62815 0.0
H6196 H 0.31167 0.45086 0.62683 0.0
H6197 H 0.29325 0.42668 0.62036 0.0
H6198 H 0.32525 0.38937 0.62322 0.0
H6199 H 0.31494 0.40292 0.62481 0.0
H6200 H 0.32679 0.42768 0.61096 0.0
C6201 C 0.3048 0.45188 0.62369 0.0
C6202 C 0.30055 0.42695 0.61825 0.0
C6203 C 0.30063 0.46066 0.62443 0.0
C6204 C 0.3255 0.39475 0.61795 0.0
C6205 C 0.3196 0.40251 0.61885 0.0
C6206 C 0.31944 0.42734 0.61292 0.0
C6207 C 0.30025 0.44457 0.61881 0.0
C6208 C 0.30519 0.43559 0.6172 0.0
C6209 C 0.32015 0.4099 0.61245 0.0
C6210 C 0.31486 0.41869 0.614 0.0
H6211 H 0.28026 0.456 0.6125 0.0
H6212 H 0.28757 0.4406 0.61122 0.0
H6213 H 0.31841 0.44222 0.61351 0.0
H6214 H 0.33702 0.40113 0.59811 0.0
H6215 H 0.32676 0.41462 0.59968 0.0
C6216 C 0.75094 0.04908 0.85879 0.0
C6217 C 0.75137 0.04185 0.86538 0.0
C6218 C 0.75916 0.05352 0.85575 0.0
C6219 C 0.78504 0.05084 0.85463 0.0
H6220 H 0.78507 0.07789 0.853 0.0
C6221 C 0.81913 0.07282 0.85371 0.0
C6222 C 0.8194 0.08084 0.84808 0.0
C6223 C 0.8108 0.06771 0.85472 0.0
C6224 C 0.78515 0.07033 0.85326 0.0
H6225 H 0.76081 0.03348 0.8738 0.0
H6226 H 0.77512 0.04135 0.86865 0.0
H6227 H 0.77058 0.06964 0.85689 0.0
H6228 H 0.81116 0.08956 0.83883 0.0
H6229 H 0.79658 0.08061 0.84061 0.0
H6230 H 0.79966 0.05155 0.85115 0.0
C6231 C 0.76844 0.04352 0.86575 0.0
C6232 C 0.77684 0.0656 0.85551 0.0
C6233 C 0.76022 0.03909 0.86879 0.0
C6234 C 0.81117 0.08349 0.84332 0.0
C6235 C 0.80282 0.07837 0.84434 0.0
C6236 C 0.79335 0.05558 0.85239 0.0
C6237 C 0.768 0.05083 0.85924 0.0
C6238 C 0.77671 0.0558 0.85633 0.0
C6239 C 0.80252 0.07048 0.85014 0.0
C6240 C 0.79353 0.06539 0.85179 0.0
H6241 H 0.74424 0.05144 0.85609 0.0
H6242 H 0.75858 0.05906 0.85067 0.0
H6243 H 0.78514 0.04329 0.85504 0.0
H6244 H 0.82528 0.07067 0.85763 0.0
H6245 H 0.81079 0.06176 0.85936 0.0
C6246 C 0.79981 0.04255 0.39529 0.0
C6247 C 0.80005 0.03689 0.38722 0.0
C6248 C 0.80242 0.05198 0.39489 0.0
C6249 C 0.80745 0.07149 0.37847 0.0
H6250 H 0.82403 0.08002 0.39846 0.0
C6251 C 0.8334 0.10248 0.37498 0.0
C6252 C 0.8351 0.10823 0.38285 0.0
C6253 C 0.82747 0.09468 0.3756 0.0
C6254 C 0.81927 0.07783 0.3929 0.0
H6255 H 0.80299 0.03673 0.37236 0.0
H6256 H 0.80765 0.05313 0.37167 0.0
H6257 H 0.81664 0.06469 0.39941 0.0
H6258 H 0.83161 0.11049 0.39743 0.0
H6259 H 0.82117 0.09692 0.39849 0.0
H6260 H 0.81039 0.08456 0.37183 0.0
C6261 C 0.80528 0.05035 0.37828 0.0
C6262 C 0.81502 0.06902 0.39345 0.0
C6263 C 0.80263 0.04094 0.37868 0.0
C6264 C 0.83041 0.10624 0.39123 0.0
C6265 C 0.8245 0.09841 0.39186 0.0
C6266 C 0.81175 0.0803 0.37791 0.0
C6267 C 0.80538 0.05595 0.38642 0.0
C6268 C 0.80917 0.06568 0.38618 0.0
C6269 C 0.82313 0.09243 0.38411 0.0
C6270 C 0.81781 0.08351 0.38506 0.0
H6271 H 0.79772 0.03966 0.40194 0.0
H6272 H 0.80223 0.05613 0.40125 0.0
H6273 H 0.80287 0.0692 0.37281 0.0
H6274 H 0.83684 0.1039 0.3684 0.0
H6275 H 0.82662 0.09019 0.36952 0.0
C6276 C 0.23831 0.54657 0.63786 0.0
C6277 C 0.24077 0.5468 0.62835 0.0
C6278 C 0.23047 0.55146 0.64109 0.0
C6279 C 0.21604 0.57174 0.63496 0.0
H6280 H 0.19972 0.56285 0.65467 0.0
C6281 C 0.18526 0.59396 0.6481 0.0
C6282 C 0.1842 0.59464 0.65785 0.0
C6283 C 0.19118 0.58725 0.64418 0.0
C6284 C 0.20425 0.56544 0.6492 0.0
H6285 H 0.23661 0.55186 0.6147 0.0
H6286 H 0.2229 0.56035 0.62032 0.0
H6287 H 0.21181 0.55255 0.64833 0.0
H6288 H 0.18831 0.58863 0.67112 0.0
H6289 H 0.19871 0.57695 0.66428 0.0
H6290 H 0.20867 0.58467 0.63593 0.0
C6291 C 0.22715 0.55656 0.62531 0.0
C6292 C 0.21118 0.55955 0.64557 0.0
C6293 C 0.23499 0.55169 0.62209 0.0
C6294 C 0.18892 0.58823 0.66358 0.0
C6295 C 0.19487 0.58153 0.65965 0.0
C6296 C 0.20915 0.57762 0.63859 0.0
C6297 C 0.22491 0.55667 0.63488 0.0
C6298 C 0.21719 0.56266 0.63844 0.0
C6299 C 0.1962 0.58108 0.64992 0.0
C6300 C 0.2032 0.57458 0.64579 0.0
H6301 H 0.24267 0.54295 0.64288 0.0
H6302 H 0.229 0.55147 0.64852 0.0
H6303 H 0.22067 0.57444 0.62961 0.0
H6304 H 0.18158 0.5987 0.6435 0.0
H6305 H 0.19189 0.58697 0.63665 0.0
C6306 C 0.25706 0.45777 0.14085 0.0
C6307 C 0.26007 0.46582 0.13612 0.0
C6308 C 0.26354 0.45117 0.14393 0.0
C6309 C 0.28865 0.44758 0.14956 0.0
H6310 H 0.28202 0.42147 0.1458 0.0
C6311 C 0.31445 0.41701 0.15677 0.0
C6312 C 0.31059 0.40901 0.16098 0.0
C6313 C 0.30861 0.42426 0.15378 0.0
C6314 C 0.28394 0.42872 0.147 0.0
H6315 H 0.27231 0.47334 0.13109 0.0
H6316 H 0.28369 0.46177 0.13649 0.0
H6317 H 0.27129 0.43354 0.14054 0.0
H6318 H 0.29763 0.40256 0.16573 0.0
H6319 H 0.2875 0.41516 0.16055 0.0
H6320 H 0.30132 0.4427 0.15605 0.0
C6321 C 0.27628 0.46062 0.13786 0.0
C6322 C 0.27779 0.43565 0.14398 0.0
C6323 C 0.26977 0.46724 0.13476 0.0
C6324 C 0.30081 0.40853 0.16233 0.0
C6325 C 0.295 0.41576 0.15935 0.0
C6326 C 0.29482 0.44063 0.1526 0.0
C6327 C 0.27322 0.45245 0.14237 0.0
C6328 C 0.28001 0.44516 0.14531 0.0
C6329 C 0.2988 0.42366 0.15494 0.0
C6330 C 0.29248 0.43112 0.15144 0.0
H6331 H 0.24966 0.45656 0.14221 0.0
H6332 H 0.26096 0.44507 0.14758 0.0
H6333 H 0.29053 0.45485 0.15075 0.0
H6334 H 0.32195 0.41756 0.15558 0.0
H6335 H 0.31176 0.43023 0.15034 0.0
C6336 C 0.60971 0.79046 0.50896 0.0
C6337 C 0.61291 0.7957 0.50131 0.0
C6338 C 0.60646 0.79494 0.51705 0.0
C6339 C 0.59819 0.81797 0.52597 0.0
H6340 H 0.60599 0.80832 0.55005 0.0
C6341 C 0.59872 0.84002 0.55989 0.0
C6342 C 0.59597 0.83573 0.56825 0.0
C6343 C 0.59932 0.83483 0.55161 0.0
C6344 C 0.60363 0.81102 0.54338 0.0
H6345 H 0.61493 0.80978 0.4961 0.0
H6346 H 0.60961 0.81755 0.51025 0.0
H6347 H 0.60993 0.79976 0.53581 0.0
H6348 H 0.59148 0.82267 0.57446 0.0
H6349 H 0.59254 0.81357 0.55994 0.0
H6350 H 0.59217 0.8294 0.53357 0.0
C6351 C 0.60947 0.80998 0.50999 0.0
C6352 C 0.60587 0.80611 0.53522 0.0
C6353 C 0.61267 0.80551 0.5019 0.0
C6354 C 0.59356 0.82618 0.5681 0.0
C6355 C 0.59424 0.82096 0.55982 0.0
C6356 C 0.596 0.82291 0.53413 0.0
C6357 C 0.60635 0.80476 0.51768 0.0
C6358 C 0.60331 0.80959 0.5264 0.0
C6359 C 0.59726 0.8252 0.55152 0.0
C6360 C 0.59881 0.81956 0.54292 0.0
H6361 H 0.60985 0.78289 0.50876 0.0
H6362 H 0.60403 0.7907 0.5228 0.0
H6363 H 0.59593 0.82075 0.51931 0.0
H6364 H 0.60055 0.84739 0.55979 0.0
H6365 H 0.60174 0.83828 0.54534 0.0
C6366 C 0.46352 0.36625 0.80409 0.0
C6367 C 0.4562 0.36661 0.79745 0.0
C6368 C 0.46155 0.36656 0.81367 0.0
C6369 C 0.44308 0.37385 0.83028 0.0
H6370 H 0.45591 0.35749 0.84761 0.0
C6371 C 0.43041 0.36936 0.86806 0.0
C6372 C 0.43727 0.36934 0.87518 0.0
C6373 C 0.43301 0.36884 0.85867 0.0
C6374 C 0.45234 0.36217 0.84287 0.0
H6375 H 0.44107 0.36772 0.79569 0.0
H6376 H 0.43764 0.36806 0.81232 0.0
H6377 H 0.46002 0.35709 0.83103 0.0
H6378 H 0.45225 0.3685 0.878 0.0
H6379 H 0.45681 0.36771 0.86156 0.0
H6380 H 0.43539 0.37891 0.84206 0.0
C6381 C 0.44491 0.36762 0.81015 0.0
C6382 C 0.4547 0.36195 0.83338 0.0
C6383 C 0.44688 0.3673 0.8006 0.0
C6384 C 0.4468 0.36862 0.87268 0.0
C6385 C 0.4494 0.36807 0.86327 0.0
C6386 C 0.44073 0.37407 0.83974 0.0
C6387 C 0.45222 0.36729 0.81681 0.0
C6388 C 0.45003 0.36774 0.82696 0.0
C6389 C 0.44254 0.3683 0.85616 0.0
C6390 C 0.44526 0.36817 0.84613 0.0
H6391 H 0.47078 0.36565 0.80189 0.0
H6392 H 0.46734 0.36637 0.81862 0.0
H6393 H 0.43949 0.37854 0.82556 0.0
H6394 H 0.42302 0.37002 0.86973 0.0
H6395 H 0.42753 0.3689 0.85337 0.0
C6396 C 0.89158 0.20974 0.01046 0.0
C6397 C 0.88462 0.21634 0.01262 0.0
C6398 C 0.8949 0.20364 0.01729 0.0
C6399 C 0.88815 0.19253 0.0393 0.0
H6400 H 0.91469 0.18656 0.04085 0.0
C6401 C 0.90285 0.16665 0.06663 0.0
C6402 C 0.90967 0.16034 0.06342 0.0
C6403 C 0.90002 0.17414 0.06107 0.0
C6404 C 0.90724 0.18809 0.04046 0.0
H6405 H 0.87574 0.22176 0.02365 0.0
H6406 H 0.88158 0.21108 0.03562 0.0
H6407 H 0.90937 0.1985 0.03 0.0
H6408 H 0.91877 0.15687 0.05179 0.0
H6409 H 0.91381 0.16985 0.04208 0.0
H6410 H 0.88599 0.18197 0.04961 0.0
C6411 C 0.88443 0.21062 0.02862 0.0
C6412 C 0.9042 0.19495 0.03425 0.0
C6413 C 0.88114 0.21679 0.0218 0.0
C6414 C 0.91362 0.16171 0.05455 0.0
C6415 C 0.91078 0.16916 0.04898 0.0
C6416 C 0.89119 0.18563 0.04549 0.0
C6417 C 0.89132 0.20396 0.02642 0.0
C6418 C 0.89461 0.19716 0.03351 0.0
C6419 C 0.90393 0.17547 0.05215 0.0
C6420 C 0.90076 0.18324 0.04605 0.0
H6421 H 0.89446 0.20929 0.00348 0.0
H6422 H 0.90014 0.19853 0.01534 0.0
H6423 H 0.8807 0.19401 0.03883 0.0
H6424 H 0.89974 0.16584 0.07348 0.0
H6425 H 0.89481 0.17893 0.06378 0.0
C6426 C 0.03807 0.64083 0.30088 0.0
C6427 C 0.03893 0.63244 0.29579 0.0
C6428 C 0.0399 0.64108 0.31051 0.0
C6429 C 0.05373 0.62843 0.32805 0.0
H6430 H 0.04121 0.64487 0.34565 0.0
C6431 C 0.06729 0.63176 0.36563 0.0
C6432 C 0.06866 0.64099 0.36884 0.0
C6433 C 0.0617 0.6299 0.35775 0.0
C6434 C 0.04478 0.64025 0.34081 0.0
H6435 H 0.04173 0.61762 0.29687 0.0
H6436 H 0.04482 0.61801 0.31367 0.0
H6437 H 0.03497 0.64307 0.32975 0.0
H6438 H 0.06457 0.6554 0.36674 0.0
H6439 H 0.05504 0.65219 0.35284 0.0
H6440 H 0.06368 0.6258 0.33893 0.0
C6441 C 0.04296 0.62445 0.31021 0.0
C6442 C 0.04121 0.63923 0.3317 0.0
C6443 C 0.04119 0.62422 0.30059 0.0
C6444 C 0.06379 0.64823 0.36435 0.0
C6445 C 0.05824 0.64637 0.35644 0.0
C6446 C 0.05727 0.62944 0.33712 0.0
C6447 C 0.04258 0.63292 0.31524 0.0
C6448 C 0.04573 0.6334 0.32518 0.0
C6449 C 0.0574 0.63722 0.35286 0.0
C6450 C 0.05293 0.63546 0.34358 0.0
H6451 H 0.03642 0.6473 0.29736 0.0
H6452 H 0.03965 0.64774 0.31414 0.0
H6453 H 0.05751 0.62403 0.32317 0.0
H6454 H 0.07096 0.626 0.36886 0.0
H6455 H 0.06106 0.62274 0.35528 0.0
C6456 C 0.61321 0.19374 0.00063 0.0
C6457 C 0.61413 0.20352 0.00106 0.0
C6458 C 0.61022 0.18928 0.9924 0.0
C6459 C 0.60871 0.19284 0.96689 0.0
H6460 H 0.59341 0.17031 0.96771 0.0
C6461 C 0.59746 0.17293 0.93334 0.0
C6462 C 0.59923 0.16328 0.93348 0.0
C6463 C 0.5979 0.17823 0.9416 0.0
C6464 C 0.59769 0.17659 0.96738 0.0
H6465 H 0.61249 0.21631 0.99318 0.0
H6466 H 0.60703 0.20854 0.97887 0.0
H6467 H 0.5967 0.17901 0.98212 0.0
H6468 H 0.60239 0.15152 0.94241 0.0
H6469 H 0.60315 0.16076 0.95683 0.0
H6470 H 0.60975 0.19037 0.95215 0.0
C6471 C 0.60877 0.2043 0.98487 0.0
C6472 C 0.59961 0.18156 0.97563 0.0
C6473 C 0.6118 0.20876 0.99311 0.0
C6474 C 0.60107 0.15897 0.94209 0.0
C6475 C 0.60143 0.16424 0.95035 0.0
C6476 C 0.60674 0.18791 0.95863 0.0
C6477 C 0.60802 0.1945 0.9844 0.0
C6478 C 0.60529 0.18966 0.97552 0.0
C6479 C 0.60002 0.17395 0.95017 0.0
C6480 C 0.60134 0.17964 0.95881 0.0
H6481 H 0.61479 0.18949 0.00666 0.0
H6482 H 0.60985 0.18172 0.99227 0.0
H6483 H 0.61321 0.19897 0.96655 0.0
H6484 H 0.59609 0.17646 0.9268 0.0
H6485 H 0.59671 0.18569 0.94127 0.0
C6486 C 0.0349 0.36513 0.20016 0.0
C6487 C 0.04188 0.36298 0.20682 0.0
C6488 C 0.03702 0.36518 0.1906 0.0
C6489 C 0.05713 0.36789 0.17482 0.0
H6490 H 0.04138 0.35571 0.15606 0.0
C6491 C 0.06779 0.36852 0.13641 0.0
C6492 C 0.06792 0.3597 0.132 0.0
C6493 C 0.06292 0.36983 0.14477 0.0
C6494 C 0.04582 0.35917 0.16122 0.0
H6495 H 0.0564 0.3587 0.20858 0.0
H6496 H 0.06009 0.35891 0.19201 0.0
H6497 H 0.0364 0.35595 0.17245 0.0
H6498 H 0.06233 0.34557 0.13249 0.0
H6499 H 0.05397 0.34781 0.1472 0.0
H6500 H 0.0667 0.37087 0.16377 0.0
C6501 C 0.05304 0.36074 0.19417 0.0
C6502 C 0.04294 0.35936 0.17058 0.0
C6503 C 0.05093 0.36064 0.20368 0.0
C6504 C 0.0625 0.35241 0.1358 0.0
C6505 C 0.05763 0.35372 0.14418 0.0
C6506 C 0.05997 0.36775 0.1655 0.0
C6507 C 0.04616 0.36312 0.18754 0.0
C6508 C 0.04868 0.36356 0.17749 0.0
C6509 C 0.05807 0.36236 0.14892 0.0
C6510 C 0.05443 0.36327 0.15861 0.0
H6511 H 0.02788 0.36701 0.20235 0.0
H6512 H 0.03159 0.36706 0.18563 0.0
H6513 H 0.06164 0.37129 0.17998 0.0
H6514 H 0.07193 0.37429 0.13374 0.0
H6515 H 0.06326 0.37662 0.14818 0.0
C6516 C 0.89081 0.8086 0.50114 0.0
C6517 C 0.88387 0.80168 0.49974 0.0
C6518 C 0.8944 0.81359 0.4936 0.0
C6519 C 0.89665 0.81362 0.46782 0.0
H6520 H 0.9002 0.84026 0.47184 0.0
C6521 C 0.90569 0.83997 0.43825 0.0
C6522 C 0.91235 0.84697 0.4405 0.0
C6523 C 0.90238 0.83389 0.44514 0.0
C6524 C 0.89935 0.83282 0.47063 0.0
H6525 H 0.87544 0.79437 0.48929 0.0
H6526 H 0.88168 0.80317 0.47605 0.0
H6527 H 0.89409 0.83067 0.48441 0.0
H6528 H 0.92081 0.85299 0.45174 0.0
H6529 H 0.91516 0.84233 0.46366 0.0
H6530 H 0.90189 0.81586 0.45396 0.0
C6531 C 0.8844 0.80468 0.483 0.0
C6532 C 0.89585 0.82731 0.47784 0.0
C6533 C 0.88081 0.79964 0.49057 0.0
C6534 C 0.91577 0.84761 0.44973 0.0
C6535 C 0.91244 0.84158 0.4566 0.0
C6536 C 0.90015 0.81916 0.46057 0.0
C6537 C 0.89112 0.81182 0.48446 0.0
C6538 C 0.89456 0.81763 0.47658 0.0
C6539 C 0.9056 0.83474 0.45442 0.0
C6540 C 0.90164 0.82881 0.46194 0.0
H6541 H 0.89347 0.81019 0.50809 0.0
H6542 H 0.89974 0.81887 0.49495 0.0
H6543 H 0.89579 0.80618 0.46664 0.0
H6544 H 0.90298 0.83925 0.43118 0.0
H6545 H 0.89709 0.82871 0.44325 0.0
C6546 C 0.47555 0.63109 0.69141 0.0
C6547 C 0.47114 0.63602 0.6987 0.0
C6548 C 0.47206 0.63153 0.68226 0.0
C6549 C 0.45033 0.63611 0.66909 0.0
H6550 H 0.46702 0.63799 0.64782 0.0
C6551 C 0.43595 0.63864 0.63136 0.0
C6552 C 0.44057 0.63332 0.62448 0.0
C6553 C 0.4399 0.63977 0.64028 0.0
C6554 C 0.46226 0.63737 0.65368 0.0
H6555 H 0.45979 0.64556 0.70198 0.0
H6556 H 0.45367 0.64623 0.68603 0.0
H6557 H 0.47355 0.63842 0.66364 0.0
H6558 H 0.45313 0.6253 0.62154 0.0
H6559 H 0.45985 0.62704 0.63715 0.0
H6560 H 0.43906 0.63486 0.65918 0.0
C6561 C 0.45975 0.64193 0.68743 0.0
C6562 C 0.46601 0.63764 0.66274 0.0
C6563 C 0.46326 0.64153 0.69657 0.0
C6564 C 0.44931 0.62933 0.6267 0.0
C6565 C 0.45323 0.63044 0.63563 0.0
C6566 C 0.44659 0.6358 0.66003 0.0
C6567 C 0.46407 0.63688 0.68018 0.0
C6568 C 0.46009 0.63696 0.67055 0.0
C6569 C 0.44854 0.6356 0.64256 0.0
C6570 C 0.45251 0.63637 0.65221 0.0
H6571 H 0.48154 0.62667 0.69281 0.0
H6572 H 0.47548 0.62746 0.67685 0.0
H6573 H 0.44559 0.63544 0.67496 0.0
H6574 H 0.42918 0.64175 0.62992 0.0
H6575 H 0.43614 0.6439 0.64541 0.0
C6576 C 0.52597 0.6238 0.78926 0.0
C6577 C 0.52057 0.61789 0.78341 0.0
C6578 C 0.53392 0.62042 0.7939 0.0
C6579 C 0.54371 0.59847 0.80273 0.0
H6580 H 0.56612 0.61355 0.80706 0.0
C6581 C 0.57478 0.58483 0.82475 0.0
C6582 C 0.57859 0.59114 0.83137 0.0
C6583 C 0.5686 0.58793 0.81779 0.0
C6584 C 0.55989 0.60927 0.80595 0.0
H6585 H 0.51945 0.60385 0.77764 0.0
H6586 H 0.53342 0.598 0.78563 0.0
H6587 H 0.55372 0.6193 0.79675 0.0
H6588 H 0.579 0.60568 0.83578 0.0
H6589 H 0.56823 0.61107 0.82369 0.0
H6590 H 0.54975 0.58855 0.81208 0.0
C6591 C 0.53144 0.60522 0.7867 0.0
C6592 C 0.55279 0.61257 0.80004 0.0
C6593 C 0.52349 0.60861 0.78204 0.0
C6594 C 0.5763 0.60065 0.83071 0.0
C6595 C 0.57012 0.60375 0.82377 0.0
C6596 C 0.5508 0.59519 0.80864 0.0
C6597 C 0.53665 0.61105 0.79281 0.0
C6598 C 0.54456 0.60726 0.79846 0.0
C6599 C 0.56609 0.59741 0.81731 0.0
C6600 C 0.55892 0.6006 0.81043 0.0
H6601 H 0.52397 0.63101 0.79038 0.0
H6602 H 0.53773 0.62508 0.79861 0.0
H6603 H 0.53741 0.59427 0.80178 0.0
H6604 H 0.57652 0.57747 0.82498 0.0
H6605 H 0.56575 0.58288 0.81283 0.0
C6606 C 0.62468 0.29811 0.04318 0.0
C6607 C 0.62899 0.29064 0.04786 0.0
C6608 C 0.62522 0.30721 0.04685 0.0
C6609 C 0.62785 0.31936 0.06923 0.0
H6610 H 0.63421 0.34132 0.05476 0.0
C6611 C 0.62477 0.35615 0.08494 0.0
C6612 C 0.6329 0.36175 0.08425 0.0
C6613 C 0.62377 0.34804 0.07952 0.0
C6614 C 0.63241 0.33524 0.05886 0.0
H6615 H 0.63774 0.28701 0.05978 0.0
H6616 H 0.63848 0.30278 0.06625 0.0
H6617 H 0.63386 0.32587 0.04715 0.0
H6618 H 0.64611 0.36352 0.07694 0.0
H6619 H 0.64435 0.34929 0.06744 0.0
H6620 H 0.62644 0.32862 0.08094 0.0
C6621 C 0.63458 0.30158 0.05981 0.0
C6622 C 0.63216 0.32643 0.05451 0.0
C6623 C 0.63411 0.29254 0.05611 0.0
C6624 C 0.63981 0.3593 0.07768 0.0
C6625 C 0.63877 0.3512 0.07219 0.0
C6626 C 0.62798 0.32814 0.07354 0.0
C6627 C 0.63002 0.30898 0.0553 0.0
C6628 C 0.62998 0.3184 0.05969 0.0
C6629 C 0.63085 0.34537 0.07325 0.0
C6630 C 0.63032 0.33616 0.06843 0.0
H6631 H 0.62062 0.2969 0.03684 0.0
H6632 H 0.62162 0.31279 0.04326 0.0
H6633 H 0.62606 0.3133 0.07337 0.0
H6634 H 0.61936 0.35779 0.08999 0.0
H6635 H 0.61756 0.34372 0.08041 0.0
C6636 C 0.9712 0.37472 0.2856 0.0
C6637 C 0.97445 0.38058 0.27845 0.0
C6638 C 0.96443 0.37785 0.29192 0.0
C6639 C 0.94633 0.39596 0.29581 0.0
H6640 H 0.95103 0.39064 0.32197 0.0
C6641 C 0.92663 0.41441 0.32608 0.0
C6642 C 0.92424 0.40901 0.3339 0.0
C6643 C 0.93217 0.41066 0.31893 0.0
C6644 C 0.94952 0.39208 0.31469 0.0
H6645 H 0.97299 0.39427 0.27221 0.0
H6646 H 0.96115 0.39974 0.28323 0.0
H6647 H 0.96161 0.38453 0.31014 0.0
H6648 H 0.92574 0.39538 0.34028 0.0
H6649 H 0.93518 0.38879 0.32775 0.0
H6650 H 0.93426 0.40359 0.30042 0.0
C6651 C 0.96378 0.39268 0.2839 0.0
C6652 C 0.9556 0.38857 0.3079 0.0
C6653 C 0.97055 0.38954 0.27757 0.0
C6654 C 0.92736 0.39972 0.33432 0.0
C6655 C 0.93288 0.39597 0.32718 0.0
C6656 C 0.94023 0.39947 0.30262 0.0
C6657 C 0.96075 0.38692 0.29123 0.0
C6658 C 0.95409 0.39048 0.29838 0.0
C6659 C 0.93544 0.40142 0.31946 0.0
C6660 C 0.94177 0.39758 0.31215 0.0
H6661 H 0.97394 0.36772 0.28636 0.0
H6662 H 0.96211 0.37318 0.29737 0.0
H6663 H 0.94491 0.39747 0.28853 0.0
H6664 H 0.92426 0.42156 0.32549 0.0
H6665 H 0.93407 0.41508 0.31312 0.0
C6666 C 0.87247 0.7058 0.53388 0.0
C6667 C 0.8672 0.71239 0.53893 0.0
C6668 C 0.87252 0.6964 0.5365 0.0
C6669 C 0.85981 0.67887 0.55092 0.0
H6670 H 0.88365 0.66589 0.55001 0.0
C6671 C 0.86672 0.6437 0.56958 0.0
C6672 C 0.87199 0.63698 0.56469 0.0
C6673 C 0.86555 0.65268 0.56595 0.0
C6674 C 0.87691 0.66938 0.55021 0.0
H6675 H 0.85758 0.71415 0.55053 0.0
H6676 H 0.85792 0.69787 0.55529 0.0
H6677 H 0.88272 0.68193 0.54457 0.0
H6678 H 0.87979 0.63433 0.55194 0.0
H6679 H 0.87784 0.65001 0.54571 0.0
H6680 H 0.85409 0.66632 0.55678 0.0
C6681 C 0.86193 0.69992 0.54922 0.0
C6682 C 0.87637 0.67858 0.54706 0.0
C6683 C 0.86184 0.7093 0.54656 0.0
C6684 C 0.87586 0.63939 0.55599 0.0
C6685 C 0.87473 0.64836 0.5524 0.0
C6686 C 0.86038 0.66968 0.55413 0.0
C6687 C 0.86734 0.69336 0.54427 0.0
C6688 C 0.86782 0.68346 0.54739 0.0
C6689 C 0.86965 0.65514 0.55739 0.0
C6690 C 0.86894 0.66484 0.55382 0.0
H6691 H 0.87676 0.70792 0.52801 0.0
H6692 H 0.87666 0.69153 0.53244 0.0
H6693 H 0.85307 0.68236 0.55115 0.0
H6694 H 0.86374 0.64213 0.57634 0.0
H6695 H 0.86167 0.65778 0.57 0.0
C6696 C 0.52877 0.37743 0.72126 0.0
C6697 C 0.52387 0.3844 0.72616 0.0
C6698 C 0.53596 0.37982 0.71509 0.0
C6699 C 0.5522 0.3991 0.70853 0.0
H6700 H 0.55432 0.38447 0.6857 0.0
C6701 C 0.58482 0.40086 0.68458 0.0
C6702 C 0.58356 0.39943 0.67492 0.0
C6703 C 0.57721 0.40002 0.69069 0.0
C6704 C 0.55377 0.38873 0.69197 0.0
H6705 H 0.52272 0.39933 0.72851 0.0
H6706 H 0.5352 0.40353 0.71761 0.0
H6707 H 0.54174 0.38106 0.69658 0.0
H6708 H 0.57329 0.39654 0.66401 0.0
H6709 H 0.55995 0.39532 0.67461 0.0
H6710 H 0.56412 0.40692 0.70376 0.0
C6711 C 0.53359 0.39621 0.71865 0.0
C6712 C 0.54663 0.38666 0.6983 0.0
C6713 C 0.52643 0.3938 0.72489 0.0
C6714 C 0.57447 0.39756 0.67144 0.0
C6715 C 0.56685 0.39681 0.67753 0.0
C6716 C 0.55932 0.40121 0.70215 0.0
C6717 C 0.53839 0.38924 0.7136 0.0
C6718 C 0.54581 0.39174 0.70672 0.0
C6719 C 0.56816 0.39781 0.68726 0.0
C6720 C 0.56025 0.396 0.69382 0.0
H6721 H 0.52704 0.37011 0.72221 0.0
H6722 H 0.53964 0.37425 0.71151 0.0
H6723 H 0.55183 0.40312 0.71497 0.0
H6724 H 0.59177 0.4022 0.68747 0.0
H6725 H 0.57853 0.40072 0.69813 0.0
C6726 C 0.85329 0.29426 0.94802 0.0
C6727 C 0.86091 0.2889 0.9512 0.0
C6728 C 0.85442 0.30378 0.94619 0.0
C6729 C 0.87272 0.32111 0.94031 0.0
H6730 H 0.85338 0.33915 0.94633 0.0
C6731 C 0.87824 0.36065 0.93485 0.0
C6732 C 0.87071 0.36566 0.93098 0.0
C6733 C 0.877 0.35143 0.93778 0.0
C6734 C 0.8588 0.33418 0.94452 0.0
H6735 H 0.87569 0.28943 0.95507 0.0
H6736 H 0.87763 0.30608 0.95204 0.0
H6737 H 0.85131 0.32283 0.95082 0.0
H6738 H 0.85589 0.36494 0.9273 0.0
H6739 H 0.85374 0.34878 0.93228 0.0
H6740 H 0.88018 0.33241 0.93395 0.0
C6741 C 0.87079 0.30288 0.95086 0.0
C6742 C 0.85762 0.32483 0.9471 0.0
C6743 C 0.86965 0.29335 0.95271 0.0
C6744 C 0.86186 0.36125 0.93018 0.0
C6745 C 0.86061 0.35202 0.93312 0.0
C6746 C 0.87389 0.33044 0.93773 0.0
C6747 C 0.86322 0.30818 0.94747 0.0
C6748 C 0.86456 0.31818 0.945 0.0
C6749 C 0.86818 0.34699 0.93691 0.0
C6750 C 0.86694 0.33709 0.93979 0.0
H6751 H 0.84644 0.29107 0.9469 0.0
H6752 H 0.84846 0.30763 0.94352 0.0
H6753 H 0.87812 0.31614 0.93843 0.0
H6754 H 0.88518 0.36379 0.93547 0.0
H6755 H 0.88295 0.34779 0.94076 0.0
C6756 C 0.97389 0.62566 0.2128 0.0
C6757 C 0.97621 0.61979 0.22029 0.0
C6758 C 0.96711 0.62291 0.2062 0.0
C6759 C 0.94742 0.60629 0.20186 0.0
H6760 H 0.95362 0.61035 0.17583 0.0
C6761 C 0.92714 0.58851 0.17124 0.0
C6762 C 0.92545 0.59386 0.16321 0.0
C6763 C 0.93284 0.592 0.17849 0.0
C6764 C 0.95171 0.60927 0.18306 0.0
H6765 H 0.97309 0.6065 0.22683 0.0
H6766 H 0.96125 0.6017 0.2153 0.0
H6767 H 0.9643 0.61596 0.18803 0.0
H6768 H 0.92841 0.60712 0.15652 0.0
H6769 H 0.93818 0.61327 0.16923 0.0
H6770 H 0.93486 0.59951 0.19686 0.0
C6771 C 0.9646 0.60848 0.21459 0.0
C6772 C 0.95784 0.6125 0.19006 0.0
C6773 C 0.97139 0.61123 0.2212 0.0
C6774 C 0.92949 0.60284 0.16265 0.0
C6775 C 0.93518 0.60633 0.16989 0.0
C6776 C 0.94128 0.60306 0.19485 0.0
C6777 C 0.96249 0.61423 0.20694 0.0
C6778 C 0.95578 0.61102 0.19955 0.0
C6779 C 0.93698 0.60093 0.17786 0.0
C6780 C 0.94337 0.6045 0.18536 0.0
H6781 H 0.97736 0.63237 0.212 0.0
H6782 H 0.96551 0.62758 0.20049 0.0
H6783 H 0.94558 0.60514 0.20911 0.0
H6784 H 0.92405 0.58161 0.17194 0.0
H6785 H 0.93415 0.58763 0.1845 0.0
C6786 C 0.63388 0.7075 0.44488 0.0
C6787 C 0.62873 0.7092 0.45309 0.0
C6788 C 0.63435 0.69852 0.44104 0.0
C6789 C 0.63179 0.67353 0.44595 0.0
H6790 H 0.62631 0.67165 0.41939 0.0
C6791 C 0.63906 0.64081 0.42266 0.0
C6792 C 0.63215 0.63843 0.41596 0.0
C6793 C 0.63816 0.6489 0.42816 0.0
C6794 C 0.62779 0.67204 0.42682 0.0
H6795 H 0.6203 0.70265 0.46386 0.0
H6796 H 0.62129 0.68688 0.4572 0.0
H6797 H 0.62601 0.68688 0.42713 0.0
H6798 H 0.61875 0.64253 0.40997 0.0
H6799 H 0.61718 0.65658 0.41957 0.0
H6800 H 0.63366 0.65865 0.44557 0.0
C6801 C 0.62493 0.69256 0.45376 0.0
C6802 C 0.62771 0.68077 0.43123 0.0
C6803 C 0.62439 0.70159 0.45757 0.0
C6804 C 0.62415 0.64411 0.41512 0.0
C6805 C 0.6233 0.65221 0.42055 0.0
C6806 C 0.63198 0.66478 0.4415 0.0
C6807 C 0.62977 0.69098 0.44536 0.0
C6808 C 0.62974 0.68162 0.44083 0.0
C6809 C 0.63038 0.65479 0.42698 0.0
C6810 C 0.62997 0.66396 0.43188 0.0
H6811 H 0.63753 0.71313 0.44137 0.0
H6812 H 0.63827 0.69746 0.43465 0.0
H6813 H 0.63341 0.67401 0.45336 0.0
H6814 H 0.64526 0.63653 0.4235 0.0
H6815 H 0.64375 0.65074 0.43303 0.0
C6816 C 0.80088 0.52114 0.62277 0.0
C6817 C 0.80363 0.51206 0.6202 0.0
C6818 C 0.8059 0.52894 0.61957 0.0
C6819 C 0.82933 0.53529 0.6103 0.0
H6820 H 0.81719 0.55808 0.60224 0.0
C6821 C 0.84957 0.56354 0.59046 0.0
C6822 C 0.84835 0.57289 0.59328 0.0
C6823 C 0.84367 0.55651 0.5938 0.0
C6824 C 0.82067 0.55179 0.60456 0.0
H6825 H 0.81346 0.50406 0.61187 0.0
H6826 H 0.82212 0.51757 0.60624 0.0
H6827 H 0.80762 0.54505 0.60798 0.0
H6828 H 0.83976 0.5822 0.60163 0.0
H6829 H 0.82942 0.56983 0.60752 0.0
H6830 H 0.84234 0.54194 0.60681 0.0
C6831 C 0.81627 0.51871 0.61094 0.0
C6832 C 0.8152 0.54433 0.60785 0.0
C6833 C 0.8113 0.51095 0.61415 0.0
C6834 C 0.84092 0.57506 0.59938 0.0
C6835 C 0.83496 0.568 0.60269 0.0
C6836 C 0.83477 0.5427 0.60698 0.0
C6837 C 0.81375 0.52779 0.61372 0.0
C6838 C 0.81947 0.53595 0.61064 0.0
C6839 C 0.83638 0.55862 0.60005 0.0
C6840 C 0.8305 0.55098 0.60396 0.0
H6841 H 0.79501 0.5222 0.62746 0.0
H6842 H 0.8038 0.53584 0.62189 0.0
H6843 H 0.83287 0.52904 0.61261 0.0
H6844 H 0.85529 0.5616 0.58587 0.0
H6845 H 0.84486 0.54937 0.59153 0.0
C6846 C 0.29789 0.98262 0.38145 0.0
C6847 C 0.30036 0.98651 0.37279 0.0
C6848 C 0.30238 0.9746 0.38471 0.0
C6849 C 0.31751 0.95478 0.37728 0.0
H6850 H 0.32574 0.95535 0.40319 0.0
C6851 C 0.34713 0.93131 0.39146 0.0
C6852 C 0.34626 0.92768 0.40053 0.0
C6853 C 0.34053 0.93761 0.38799 0.0
C6854 C 0.32337 0.95499 0.39598 0.0
H6855 H 0.30915 0.98473 0.36057 0.0
H6856 H 0.31711 0.97088 0.36632 0.0
H6857 H 0.3159 0.96786 0.39726 0.0
H6858 H 0.33753 0.9276 0.41293 0.0
H6859 H 0.32603 0.93865 0.40689 0.0
H6860 H 0.3252 0.94201 0.37598 0.0
C6861 C 0.31166 0.97397 0.37058 0.0
C6862 C 0.31771 0.96217 0.39257 0.0
C6863 C 0.30717 0.98199 0.36732 0.0
C6864 C 0.3385 0.93037 0.40597 0.0
C6865 C 0.33191 0.9367 0.40251 0.0
C6866 C 0.32319 0.94761 0.38069 0.0
C6867 C 0.30944 0.97026 0.37938 0.0
C6868 C 0.31481 0.96222 0.38315 0.0
C6869 C 0.3329 0.94048 0.39352 0.0
C6870 C 0.32629 0.9477 0.39005 0.0
H6871 H 0.29272 0.98596 0.38587 0.0
H6872 H 0.30041 0.97186 0.39146 0.0
H6873 H 0.31528 0.95452 0.37003 0.0
H6874 H 0.35309 0.92951 0.38713 0.0
H6875 H 0.34159 0.9405 0.38109 0.0
C6876 C 0.29116 0.04631 0.63433 0.0
C6877 C 0.28629 0.04721 0.64281 0.0
C6878 C 0.30095 0.04728 0.6341 0.0
C6879 C 0.32068 0.05785 0.64747 0.0
H6880 H 0.33592 0.04321 0.63046 0.0
C6881 C 0.36114 0.06176 0.64608 0.0
C6882 C 0.36503 0.06248 0.63709 0.0
C6883 C 0.35174 0.05908 0.64723 0.0
C6884 C 0.33175 0.04738 0.63521 0.0
H6885 H 0.28789 0.04946 0.65775 0.0
H6886 H 0.30499 0.05106 0.65737 0.0
H6887 H 0.31912 0.03984 0.63174 0.0
H6888 H 0.36203 0.0609 0.62225 0.0
H6889 H 0.3457 0.05612 0.62427 0.0
H6890 H 0.3333 0.06542 0.6509 0.0
C6891 C 0.30123 0.0498 0.65086 0.0
C6892 C 0.32212 0.04546 0.63594 0.0
C6893 C 0.29144 0.04887 0.65109 0.0
C6894 C 0.35933 0.06027 0.62928 0.0
C6895 C 0.34996 0.05754 0.63044 0.0
C6896 C 0.33031 0.05973 0.64678 0.0
C6897 C 0.3061 0.04914 0.64235 0.0
C6898 C 0.31644 0.05075 0.64199 0.0
C6899 C 0.34603 0.05699 0.63941 0.0
C6900 C 0.33593 0.05459 0.64056 0.0
H6901 H 0.28738 0.04516 0.62782 0.0
H6902 H 0.30444 0.04688 0.6274 0.0
H6903 H 0.3165 0.06217 0.65209 0.0
H6904 H 0.36536 0.06326 0.65225 0.0
H6905 H 0.34894 0.0586 0.65424 0.0
C6906 C 0.21238 0.02164 0.88143 0.0
C6907 C 0.20973 0.01419 0.87546 0.0
C6908 C 0.20623 0.02908 0.88304 0.0
C6909 C 0.18562 0.04084 0.87272 0.0
H6910 H 0.18272 0.0515 0.89755 0.0
C6911 C 0.15697 0.06785 0.8805 0.0
C6912 C 0.15966 0.07574 0.88584 0.0
C6913 C 0.16289 0.06014 0.87981 0.0
C6914 C 0.18352 0.04864 0.89057 0.0
H6915 H 0.19859 0.0088 0.86645 0.0
H6916 H 0.18784 0.02164 0.8694 0.0
H6917 H 0.19357 0.03853 0.89513 0.0
H6918 H 0.17057 0.08158 0.89484 0.0
H6919 H 0.18093 0.06808 0.89363 0.0
H6920 H 0.17562 0.05093 0.86813 0.0
C6921 C 0.19469 0.02179 0.87277 0.0
C6922 C 0.18974 0.04122 0.88917 0.0
C6923 C 0.20081 0.01436 0.87117 0.0
C6924 C 0.16826 0.07558 0.89075 0.0
C6925 C 0.1742 0.06785 0.89005 0.0
C6926 C 0.17941 0.04823 0.87411 0.0
C6927 C 0.19733 0.02925 0.8787 0.0
C6928 C 0.19083 0.03721 0.88023 0.0
C6929 C 0.17166 0.06011 0.88443 0.0
C6930 C 0.17825 0.0522 0.88305 0.0
H6931 H 0.21916 0.02168 0.88491 0.0
H6932 H 0.20852 0.03476 0.88758 0.0
H6933 H 0.18643 0.03804 0.86571 0.0
H6934 H 0.15031 0.06769 0.87678 0.0
H6935 H 0.16063 0.0542 0.87559 0.0
C6936 C 0.70894 0.46932 0.64047 0.0
C6937 C 0.71428 0.46767 0.63239 0.0
C6938 C 0.69992 0.46545 0.64133 0.0
C6939 C 0.68559 0.44581 0.63203 0.0
H6940 H 0.6652 0.4581 0.64506 0.0
C6941 C 0.64938 0.42818 0.63525 0.0
C6942 C 0.64548 0.42814 0.64427 0.0
C6943 C 0.65699 0.43402 0.63319 0.0
C6944 C 0.67085 0.45457 0.64144 0.0
H6945 H 0.71416 0.46117 0.61865 0.0
H6946 H 0.69838 0.45456 0.62005 0.0
H6947 H 0.67999 0.46652 0.64251 0.0
H6948 H 0.6462 0.43459 0.65803 0.0
H6949 H 0.65959 0.44472 0.65446 0.0
H6950 H 0.67653 0.43385 0.63103 0.0
C6951 C 0.70124 0.45861 0.62585 0.0
C6952 C 0.67932 0.45938 0.63998 0.0
C6953 C 0.71027 0.46242 0.62503 0.0
C6954 C 0.64911 0.43438 0.65105 0.0
C6955 C 0.65673 0.44025 0.64898 0.0
C6956 C 0.67712 0.44103 0.63344 0.0
C6957 C 0.69602 0.4599 0.63409 0.0
C6958 C 0.68682 0.45503 0.6353 0.0
C6959 C 0.6609 0.43996 0.64009 0.0
C6960 C 0.66967 0.44533 0.6382 0.0
H6961 H 0.71189 0.47328 0.64629 0.0
H6962 H 0.69615 0.46651 0.64781 0.0
H6963 H 0.69126 0.44215 0.62858 0.0
H6964 H 0.64682 0.42341 0.62988 0.0
H6965 H 0.65997 0.43374 0.62623 0.0
C6966 C 0.71235 0.48029 0.11795 0.0
C6967 C 0.70931 0.48845 0.12253 0.0
C6968 C 0.70605 0.47293 0.1161 0.0
C6969 C 0.68328 0.46322 0.12397 0.0
H6970 H 0.68424 0.44906 0.10075 0.0
C6971 C 0.65552 0.43509 0.11507 0.0
C6972 C 0.65897 0.42648 0.11179 0.0
C6973 C 0.66139 0.44295 0.11557 0.0
C6974 C 0.68393 0.45292 0.10729 0.0
H6975 H 0.69724 0.49523 0.12881 0.0
H6976 H 0.68625 0.48255 0.12537 0.0
H6977 H 0.69509 0.46217 0.10329 0.0
H6978 H 0.67123 0.41948 0.10619 0.0
H6979 H 0.68146 0.43323 0.10701 0.0
H6980 H 0.67216 0.45397 0.12799 0.0
C6981 C 0.69352 0.48177 0.12329 0.0
C6982 C 0.69016 0.46042 0.10876 0.0
C6983 C 0.69981 0.4891 0.12516 0.0
C6984 C 0.66831 0.42603 0.10865 0.0
C6985 C 0.67419 0.4339 0.10914 0.0
C6986 C 0.67705 0.45576 0.12249 0.0
C6987 C 0.69657 0.47356 0.1188 0.0
C6988 C 0.68991 0.46565 0.11713 0.0
C6989 C 0.67084 0.4424 0.11278 0.0
C6990 C 0.6773 0.45051 0.11414 0.0
H6991 H 0.71959 0.4796 0.11574 0.0
H6992 H 0.70866 0.46668 0.1127 0.0
H6993 H 0.68301 0.46697 0.13057 0.0
H6994 H 0.64831 0.43572 0.11738 0.0
H6995 H 0.65856 0.44945 0.11824 0.0
C6996 C 0.28929 0.94737 0.8519 0.0
C6997 C 0.28456 0.95367 0.8578 0.0
C6998 C 0.29908 0.94667 0.85223 0.0
C6999 C 0.31911 0.95113 0.86817 0.0
H7000 H 0.33386 0.94552 0.84612 0.0
C7001 C 0.35638 0.93597 0.87072 0.0
C7002 C 0.3632 0.93896 0.86431 0.0
C7003 C 0.34701 0.93865 0.86973 0.0
C7004 C 0.32987 0.94719 0.85233 0.0
H7005 H 0.28648 0.96438 0.86848 0.0
H7006 H 0.30359 0.96334 0.86888 0.0
H7007 H 0.31718 0.94907 0.84446 0.0
H7008 H 0.36555 0.94722 0.85189 0.0
H7009 H 0.34915 0.95198 0.85018 0.0
H7010 H 0.33181 0.94936 0.87604 0.0
C7011 C 0.2997 0.95881 0.86411 0.0
C7012 C 0.32028 0.94912 0.85139 0.0
C7013 C 0.28989 0.95949 0.8638 0.0
C7014 C 0.36044 0.94472 0.85688 0.0
C7015 C 0.35104 0.94744 0.8559 0.0
C7016 C 0.3287 0.94923 0.86911 0.0
C7017 C 0.30441 0.95229 0.85844 0.0
C7018 C 0.31475 0.95098 0.85932 0.0
C7019 C 0.34421 0.94442 0.86231 0.0
C7020 C 0.33417 0.9471 0.86122 0.0
H7021 H 0.28541 0.94288 0.84709 0.0
H7022 H 0.30245 0.94151 0.84782 0.0
H7023 H 0.31507 0.95244 0.87444 0.0
H7024 H 0.35825 0.93138 0.87642 0.0
H7025 H 0.34191 0.93603 0.87468 0.0
C7026 C 0.21176 0.04203 0.36796 0.0
C7027 C 0.21488 0.03556 0.36124 0.0
C7028 C 0.20257 0.04541 0.36765 0.0
C7029 C 0.17886 0.04045 0.35771 0.0
H7030 H 0.17458 0.0664 0.36436 0.0
C7031 C 0.14246 0.05833 0.35417 0.0
C7032 C 0.13962 0.0636 0.36199 0.0
C7033 C 0.15166 0.05496 0.35357 0.0
C7034 C 0.17566 0.05913 0.36253 0.0
H7035 H 0.21083 0.02758 0.34889 0.0
H7036 H 0.19479 0.03359 0.34825 0.0
H7037 H 0.19057 0.06038 0.36422 0.0
H7038 H 0.14425 0.06967 0.37519 0.0
H7039 H 0.1603 0.06382 0.37414 0.0
H7040 H 0.1639 0.03927 0.35596 0.0
C7041 C 0.1994 0.03593 0.35387 0.0
C7042 C 0.18482 0.05566 0.36248 0.0
C7043 C 0.20859 0.03249 0.35423 0.0
C7044 C 0.14621 0.06555 0.36912 0.0
C7045 C 0.15542 0.06227 0.36848 0.0
C7046 C 0.16969 0.04395 0.35769 0.0
C7047 C 0.19628 0.04247 0.36056 0.0
C7048 C 0.18654 0.04624 0.36019 0.0
C7049 C 0.15824 0.05691 0.36073 0.0
C7050 C 0.16799 0.0533 0.36021 0.0
H7051 H 0.2164 0.04441 0.37354 0.0
H7052 H 0.20037 0.05027 0.37304 0.0
H7053 H 0.17989 0.03314 0.35601 0.0
H7054 H 0.13751 0.05669 0.34859 0.0
H7055 H 0.15366 0.05089 0.34749 0.0
C7056 C 0.39594 0.20104 0.46391 0.0
C7057 C 0.38724 0.20117 0.46853 0.0
C7058 C 0.39637 0.19907 0.45433 0.0
C7059 C 0.38274 0.18684 0.43593 0.0
H7060 H 0.40141 0.19755 0.41941 0.0
C7061 C 0.38535 0.17449 0.39783 0.0
C7062 C 0.39445 0.17215 0.39486 0.0
C7063 C 0.38404 0.17974 0.406 0.0
C7064 C 0.39617 0.19448 0.42395 0.0
H7065 H 0.37214 0.19991 0.46664 0.0
H7066 H 0.37287 0.19659 0.4499 0.0
H7067 H 0.39983 0.20367 0.43533 0.0
H7068 H 0.40933 0.17387 0.39788 0.0
H7069 H 0.40706 0.18301 0.41215 0.0
H7070 H 0.37919 0.17754 0.42467 0.0
C7071 C 0.37938 0.19778 0.45371 0.0
C7072 C 0.39527 0.19798 0.43307 0.0
C7073 C 0.37896 0.19969 0.4633 0.0
C7074 C 0.40223 0.17562 0.39994 0.0
C7075 C 0.40093 0.18087 0.40812 0.0
C7076 C 0.38362 0.18337 0.42683 0.0
C7077 C 0.38811 0.19723 0.44915 0.0
C7078 C 0.38862 0.19411 0.43921 0.0
C7079 C 0.39181 0.18274 0.41139 0.0
C7080 C 0.39041 0.18707 0.42076 0.0
H7081 H 0.40245 0.20207 0.46778 0.0
H7082 H 0.40322 0.19859 0.45108 0.0
H7083 H 0.37767 0.18355 0.44051 0.0
H7084 H 0.37921 0.17205 0.39397 0.0
H7085 H 0.37694 0.18123 0.40822 0.0
C7086 C 0.54644 0.63898 0.23539 0.0
C7087 C 0.53657 0.63949 0.23587 0.0
C7088 C 0.55116 0.64148 0.22724 0.0
C7089 C 0.54854 0.65439 0.20502 0.0
H7090 H 0.56904 0.63848 0.19707 0.0
C7091 C 0.56499 0.65549 0.16801 0.0
C7092 C 0.57475 0.65414 0.1673 0.0
C7093 C 0.56048 0.65471 0.17664 0.0
C7094 C 0.56343 0.64308 0.19925 0.0
H7095 H 0.52396 0.64321 0.22818 0.0
H7096 H 0.5322 0.64737 0.21385 0.0
H7097 H 0.56081 0.63505 0.21151 0.0
H7098 H 0.58748 0.65122 0.17517 0.0
H7099 H 0.57965 0.65003 0.19023 0.0
H7100 H 0.55111 0.66233 0.19263 0.0
C7101 C 0.53629 0.64514 0.21984 0.0
C7102 C 0.5587 0.64111 0.20754 0.0
C7103 C 0.53155 0.64265 0.22802 0.0
C7104 C 0.57996 0.65238 0.17547 0.0
C7105 C 0.57546 0.65158 0.18409 0.0
C7106 C 0.55327 0.65635 0.1967 0.0
C7107 C 0.54615 0.64451 0.21933 0.0
C7108 C 0.55119 0.64673 0.21053 0.0
C7109 C 0.56565 0.65253 0.18474 0.0
C7110 C 0.56077 0.65071 0.19372 0.0
H7111 H 0.55053 0.63646 0.24125 0.0
H7112 H 0.55876 0.64102 0.22714 0.0
H7113 H 0.54287 0.65892 0.20718 0.0
H7114 H 0.56079 0.65696 0.16185 0.0
H7115 H 0.55291 0.65545 0.1769 0.0
C7116 C 0.12114 0.7883 0.96142 0.0
C7117 C 0.11345 0.78373 0.96554 0.0
C7118 C 0.12038 0.79195 0.95242 0.0
C7119 C 0.10563 0.79163 0.9308 0.0
H7120 H 0.11679 0.81617 0.92736 0.0
C7121 C 0.09632 0.81649 0.9002 0.0
C7122 C 0.10367 0.82192 0.89648 0.0
C7123 C 0.09795 0.81071 0.90789 0.0
C7124 C 0.11375 0.80925 0.92815 0.0
H7125 H 0.099 0.77922 0.9634 0.0
H7126 H 0.09761 0.78574 0.94773 0.0
H7127 H 0.1188 0.80824 0.94219 0.0
H7128 H 0.1186 0.82501 0.89746 0.0
H7129 H 0.12143 0.81496 0.91086 0.0
H7130 H 0.10037 0.79284 0.91676 0.0
C7131 C 0.10429 0.78636 0.95138 0.0
C7132 C 0.11491 0.80469 0.93666 0.0
C7133 C 0.10507 0.78264 0.96037 0.0
C7134 C 0.11276 0.82107 0.9003 0.0
C7135 C 0.11438 0.81531 0.90797 0.0
C7136 C 0.10442 0.79624 0.92227 0.0
C7137 C 0.11189 0.79119 0.94735 0.0
C7138 C 0.11086 0.79583 0.93812 0.0
C7139 C 0.10695 0.81026 0.91201 0.0
C7140 C 0.10846 0.80511 0.92087 0.0
H7141 H 0.12774 0.78909 0.96518 0.0
H7142 H 0.12645 0.79543 0.94946 0.0
H7143 H 0.1025 0.78477 0.93164 0.0
H7144 H 0.08923 0.81704 0.89747 0.0
H7145 H 0.09207 0.80694 0.91089 0.0
C7146 C 0.9629 0.36858 0.72965 0.0
C7147 C 0.96013 0.36382 0.73776 0.0
C7148 C 0.95885 0.36634 0.72098 0.0
C7149 C 0.93742 0.35579 0.71067 0.0
H7150 H 0.95191 0.35613 0.68777 0.0
C7151 C 0.92036 0.34773 0.6747 0.0
C7152 C 0.92277 0.35388 0.66745 0.0
C7153 C 0.9254 0.34785 0.68313 0.0
C7154 C 0.94776 0.35605 0.6941 0.0
H7155 H 0.95122 0.35271 0.74304 0.0
H7156 H 0.94417 0.34879 0.7279 0.0
H7157 H 0.95989 0.35834 0.7028 0.0
H7158 H 0.93242 0.36494 0.66341 0.0
H7159 H 0.94119 0.36512 0.67806 0.0
H7160 H 0.92527 0.35366 0.70198 0.0
C7161 C 0.94935 0.35437 0.72828 0.0
C7162 C 0.95233 0.35733 0.70271 0.0
C7163 C 0.95339 0.35662 0.73695 0.0
C7164 C 0.93047 0.35999 0.66876 0.0
C7165 C 0.93551 0.3601 0.67718 0.0
C7166 C 0.93285 0.35451 0.70207 0.0
C7167 C 0.95195 0.35928 0.72021 0.0
C7168 C 0.9472 0.35732 0.71109 0.0
C7169 C 0.93297 0.35411 0.68451 0.0
C7170 C 0.93795 0.35475 0.69367 0.0
H7171 H 0.96799 0.37425 0.73005 0.0
H7172 H 0.96092 0.37035 0.71493 0.0
H7173 H 0.93324 0.35588 0.71697 0.0
H7174 H 0.91455 0.34285 0.67386 0.0
H7175 H 0.92335 0.34306 0.6886 0.0
C7176 C 0.38001 0.80099 0.03439 0.0
C7177 C 0.38831 0.79989 0.02922 0.0
C7178 C 0.38041 0.80316 0.04393 0.0
C7179 C 0.39638 0.80425 0.06467 0.0
H7180 H 0.37945 0.82387 0.07262 0.0
C7181 C 0.40228 0.82714 0.09782 0.0
C7182 C 0.39433 0.83021 0.10275 0.0
C7183 C 0.40124 0.82185 0.0896 0.0
C7184 C 0.38412 0.81827 0.07059 0.0
H7185 H 0.40355 0.79993 0.03007 0.0
H7186 H 0.40426 0.80381 0.0467 0.0
H7187 H 0.37817 0.81756 0.05685 0.0
H7188 H 0.3791 0.82954 0.10333 0.0
H7189 H 0.37728 0.82025 0.08904 0.0
H7190 H 0.40249 0.8052 0.0784 0.0
C7191 C 0.39743 0.80286 0.04342 0.0
C7192 C 0.38338 0.81464 0.06153 0.0
C7193 C 0.39703 0.80065 0.03388 0.0
C7194 C 0.38535 0.82742 0.09958 0.0
C7195 C 0.38431 0.82212 0.09139 0.0
C7196 C 0.39713 0.80791 0.07376 0.0
C7197 C 0.38913 0.80432 0.04853 0.0
C7198 C 0.38956 0.80765 0.05841 0.0
C7199 C 0.39223 0.8195 0.08616 0.0
C7200 C 0.39106 0.81503 0.07679 0.0
H7201 H 0.37319 0.80029 0.03102 0.0
H7202 H 0.37388 0.80404 0.04769 0.0
H7203 H 0.40117 0.79879 0.06254 0.0
H7204 H 0.40929 0.82925 0.10002 0.0
H7205 H 0.40748 0.82001 0.0857 0.0
C7206 C 0.97627 0.6452 0.77544 0.0
C7207 C 0.97281 0.63946 0.76815 0.0
C7208 C 0.97057 0.64749 0.78306 0.0
C7209 C 0.94569 0.64847 0.79047 0.0
H7210 H 0.95607 0.64661 0.81552 0.0
C7211 C 0.92245 0.64582 0.82324 0.0
C7212 C 0.92557 0.65009 0.83159 0.0
C7213 C 0.92816 0.64576 0.81531 0.0
C7214 C 0.95309 0.64732 0.80858 0.0
H7215 H 0.96066 0.6315 0.76326 0.0
H7216 H 0.95074 0.63553 0.77649 0.0
H7217 H 0.96622 0.64414 0.80206 0.0
H7218 H 0.93697 0.65802 0.83805 0.0
H7219 H 0.94692 0.65797 0.82419 0.0
H7220 H 0.93253 0.65154 0.79697 0.0
C7221 C 0.95781 0.6384 0.77624 0.0
C7222 C 0.95892 0.64589 0.80086 0.0
C7223 C 0.9635 0.63609 0.76866 0.0
C7224 C 0.93442 0.65456 0.83176 0.0
C7225 C 0.94013 0.65451 0.82382 0.0
C7226 C 0.93987 0.64992 0.79818 0.0
C7227 C 0.96127 0.64411 0.78354 0.0
C7228 C 0.95525 0.64631 0.79172 0.0
C7229 C 0.93712 0.64998 0.81555 0.0
C7230 C 0.94346 0.64923 0.80733 0.0
H7231 H 0.98336 0.64802 0.77522 0.0
H7232 H 0.97341 0.65199 0.78853 0.0
H7233 H 0.94269 0.64899 0.78351 0.0
H7234 H 0.91574 0.64218 0.82291 0.0
H7235 H 0.92568 0.64208 0.80912 0.0
C7236 C 0.09912 0.20336 0.53332 0.0
C7237 C 0.10762 0.20552 0.52883 0.0
C7238 C 0.09891 0.20193 0.54298 0.0
C7239 C 0.11417 0.19422 0.56204 0.0
H7240 H 0.0933 0.20167 0.57772 0.0
C7241 C 0.11189 0.18188 0.60008 0.0
C7242 C 0.10307 0.17832 0.60274 0.0
C7243 C 0.11279 0.18718 0.59195 0.0
C7244 C 0.09916 0.19951 0.57343 0.0
H7245 H 0.12252 0.20815 0.53098 0.0
H7246 H 0.12215 0.20571 0.54787 0.0
H7247 H 0.09424 0.20735 0.56168 0.0
H7248 H 0.08823 0.17783 0.59918 0.0
H7249 H 0.08979 0.18696 0.58498 0.0
H7250 H 0.11892 0.1861 0.57359 0.0
C7251 C 0.11565 0.20507 0.5439 0.0
C7252 C 0.09971 0.20277 0.56425 0.0
C7253 C 0.11585 0.20654 0.53425 0.0
C7254 C 0.0951 0.18056 0.59737 0.0
C7255 C 0.096 0.18582 0.58922 0.0
C7256 C 0.11361 0.19093 0.57119 0.0
C7257 C 0.1072 0.20259 0.54835 0.0
C7258 C 0.10713 0.20002 0.5584 0.0
C7259 C 0.1049 0.18898 0.58628 0.0
C7260 C 0.10601 0.19339 0.57695 0.0
H7261 H 0.09264 0.20264 0.52935 0.0
H7262 H 0.0923 0.19996 0.54617 0.0
H7263 H 0.1199 0.19185 0.55768 0.0
H7264 H 0.11814 0.18037 0.60416 0.0
H7265 H 0.11971 0.18967 0.59 0.0
C7266 C 0.53038 0.36507 0.27377 0.0
C7267 C 0.53281 0.36062 0.26534 0.0
C7268 C 0.53449 0.36235 0.28222 0.0
C7269 C 0.55571 0.35092 0.29144 0.0
H7270 H 0.54172 0.35053 0.31463 0.0
C7271 C 0.57321 0.34097 0.32652 0.0
C7272 C 0.57111 0.34678 0.3342 0.0
C7273 C 0.56804 0.34159 0.3182 0.0
C7274 C 0.54573 0.35066 0.30822 0.0
H7275 H 0.54116 0.34951 0.25924 0.0
H7276 H 0.54832 0.34476 0.27398 0.0
H7277 H 0.53351 0.35356 0.29993 0.0
H7278 H 0.56189 0.35779 0.33912 0.0
H7279 H 0.55289 0.35883 0.32466 0.0
H7280 H 0.56796 0.3482 0.29972 0.0
C7281 C 0.54336 0.35048 0.27404 0.0
C7282 C 0.54103 0.3524 0.2998 0.0
C7283 C 0.53925 0.3532 0.26559 0.0
C7284 C 0.5636 0.35308 0.33341 0.0
C7285 C 0.55843 0.35369 0.32511 0.0
C7286 C 0.56042 0.34919 0.29985 0.0
C7287 C 0.54112 0.3551 0.28244 0.0
C7288 C 0.54598 0.35266 0.29132 0.0
C7289 C 0.56064 0.34802 0.31737 0.0
C7290 C 0.55551 0.34915 0.30836 0.0
H7291 H 0.52553 0.37088 0.27381 0.0
H7292 H 0.5327 0.36614 0.28855 0.0
H7293 H 0.55977 0.35121 0.28505 0.0
H7294 H 0.57888 0.33596 0.32694 0.0
H7295 H 0.56984 0.33703 0.3124 0.0
C7296 C 0.44108 0.37699 0.2231 0.0
C7297 C 0.44808 0.38319 0.21998 0.0
C7298 C 0.43179 0.3778 0.21997 0.0
C7299 C 0.41775 0.387 0.20045 0.0
H7300 H 0.39681 0.38321 0.21729 0.0
C7301 C 0.37908 0.39058 0.18821 0.0
C7302 C 0.37273 0.38374 0.19141 0.0
C7303 C 0.38815 0.39127 0.19201 0.0
C7304 C 0.40258 0.38421 0.21248 0.0
H7305 H 0.45072 0.39532 0.21132 0.0
H7306 H 0.4345 0.39669 0.20582 0.0
H7307 H 0.41287 0.38302 0.2234 0.0
H7308 H 0.37101 0.37222 0.20103 0.0
H7309 H 0.3868 0.3734 0.20761 0.0
H7310 H 0.40749 0.38802 0.18949 0.0
C7311 C 0.43624 0.39112 0.2106 0.0
C7312 C 0.41178 0.38411 0.21599 0.0
C7313 C 0.44553 0.39032 0.21375 0.0
C7314 C 0.37565 0.37767 0.19853 0.0
C7315 C 0.38472 0.37836 0.20231 0.0
C7316 C 0.40855 0.38707 0.19693 0.0
C7317 C 0.42928 0.38483 0.21363 0.0
C7318 C 0.41948 0.38541 0.20999 0.0
C7319 C 0.3911 0.38513 0.19907 0.0
C7320 C 0.40085 0.38559 0.20289 0.0
H7321 H 0.44282 0.37132 0.22777 0.0
H7322 H 0.42662 0.37276 0.22233 0.0
H7323 H 0.42353 0.3879 0.19562 0.0
H7324 H 0.377 0.39543 0.18281 0.0
H7325 H 0.39285 0.39665 0.18945 0.0
C7326 C 0.36381 0.72882 0.9578 0.0
C7327 C 0.37037 0.73566 0.95503 0.0
C7328 C 0.36158 0.72127 0.9519 0.0
C7329 C 0.36242 0.71345 0.92721 0.0
H7330 H 0.36151 0.68859 0.93778 0.0
C7331 C 0.36402 0.67984 0.90465 0.0
C7332 C 0.35901 0.6719 0.90761 0.0
C7333 C 0.36427 0.68795 0.91016 0.0
C7334 C 0.36157 0.69549 0.93472 0.0
H7335 H 0.3798 0.73982 0.94391 0.0
H7336 H 0.37586 0.7267 0.93361 0.0
H7337 H 0.36417 0.70205 0.948 0.0
H7338 H 0.34988 0.66644 0.91839 0.0
H7339 H 0.35019 0.68065 0.92794 0.0
H7340 H 0.35989 0.70688 0.91392 0.0
C7341 C 0.37235 0.72725 0.94029 0.0
C7342 C 0.36311 0.70321 0.94059 0.0
C7343 C 0.3746 0.73478 0.9462 0.0
C7344 C 0.35392 0.6724 0.916 0.0
C7345 C 0.35412 0.68053 0.92148 0.0
C7346 C 0.36083 0.70573 0.92134 0.0
C7347 C 0.36583 0.7204 0.94308 0.0
C7348 C 0.36367 0.71227 0.93689 0.0
C7349 C 0.35947 0.68834 0.91873 0.0
C7350 C 0.36049 0.69664 0.92501 0.0
H7351 H 0.3603 0.72936 0.96449 0.0
H7352 H 0.35645 0.71616 0.9542 0.0
H7353 H 0.36266 0.72036 0.92417 0.0
H7354 H 0.36812 0.67963 0.89829 0.0
H7355 H 0.36855 0.69379 0.90787 0.0
C7356 C 0.04878 0.60731 0.70266 0.0
C7357 C 0.04432 0.61547 0.70585 0.0
C7358 C 0.05853 0.60712 0.70147 0.0
C7359 C 0.08065 0.61964 0.70779 0.0
H7360 H 0.09004 0.60806 0.68511 0.0
C7361 C 0.11809 0.62638 0.69393 0.0
C7362 C 0.123 0.61885 0.68995 0.0
C7363 C 0.10869 0.62537 0.69655 0.0
C7364 C 0.08755 0.6112 0.69154 0.0
H7365 H 0.04664 0.62981 0.71036 0.0
H7366 H 0.06364 0.62951 0.70824 0.0
H7367 H 0.07328 0.60737 0.68852 0.0
H7368 H 0.12191 0.60425 0.68583 0.0
H7369 H 0.10545 0.6025 0.69038 0.0
H7370 H 0.09493 0.6236 0.71072 0.0
C7371 C 0.05962 0.6232 0.7068 0.0
C7372 C 0.07794 0.61081 0.69351 0.0
C7373 C 0.04987 0.62338 0.70801 0.0
C7374 C 0.1183 0.61023 0.68876 0.0
C7375 C 0.10888 0.60922 0.69137 0.0
C7376 C 0.09027 0.62004 0.70582 0.0
C7377 C 0.06406 0.6151 0.70342 0.0
C7378 C 0.07435 0.6151 0.70161 0.0
C7379 C 0.10395 0.6168 0.69524 0.0
C7380 C 0.09382 0.61591 0.69763 0.0
H7381 H 0.04472 0.60105 0.70108 0.0
H7382 H 0.06174 0.60072 0.699 0.0
H7383 H 0.07815 0.62288 0.71417 0.0
H7384 H 0.12144 0.63316 0.69479 0.0
H7385 H 0.10506 0.63139 0.69937 0.0
C7386 C 0.12135 0.2729 0.45153 0.0
C7387 C 0.128 0.2676 0.45645 0.0
C7388 C 0.12425 0.27962 0.4451 0.0
C7389 C 0.14506 0.29332 0.43716 0.0
H7390 H 0.13082 0.2945 0.414 0.0
C7391 C 0.15362 0.32012 0.40816 0.0
C7392 C 0.15288 0.31696 0.39884 0.0
C7393 C 0.15049 0.31452 0.41552 0.0
C7394 C 0.13493 0.29422 0.42039 0.0
H7395 H 0.14291 0.26529 0.45861 0.0
H7396 H 0.14799 0.27689 0.44726 0.0
H7397 H 0.12567 0.28406 0.42628 0.0
H7398 H 0.14817 0.30544 0.38998 0.0
H7399 H 0.14306 0.29559 0.40277 0.0
H7400 H 0.15454 0.30322 0.43108 0.0
C7401 C 0.14053 0.276 0.44849 0.0
C7402 C 0.13189 0.28832 0.42751 0.0
C7403 C 0.13762 0.26933 0.45498 0.0
C7404 C 0.14898 0.30806 0.39707 0.0
C7405 C 0.14591 0.30245 0.40441 0.0
C7406 C 0.14814 0.29919 0.43001 0.0
C7407 C 0.13387 0.28114 0.44337 0.0
C7408 C 0.13694 0.28775 0.43598 0.0
C7409 C 0.14657 0.30563 0.41373 0.0
C7410 C 0.14315 0.29965 0.4215 0.0
H7411 H 0.11388 0.2718 0.45262 0.0
H7412 H 0.11893 0.28358 0.44144 0.0
H7413 H 0.14907 0.29314 0.44363 0.0
H7414 H 0.15666 0.3269 0.4098 0.0
H7415 H 0.15103 0.31723 0.4226 0.0
C7416 C 0.443 0.62456 0.27957 0.0
C7417 C 0.44839 0.61673 0.2771 0.0
C7418 C 0.43399 0.62343 0.28327 0.0
C7419 C 0.41962 0.60603 0.29579 0.0
H7420 H 0.39951 0.62368 0.29138 0.0
C7421 C 0.38379 0.60204 0.31382 0.0
C7422 C 0.38046 0.61017 0.31824 0.0
C7423 C 0.39116 0.60255 0.30741 0.0
C7424 C 0.40507 0.61871 0.29269 0.0
H7425 H 0.44838 0.6016 0.27612 0.0
H7426 H 0.43258 0.59963 0.28243 0.0
H7427 H 0.41415 0.62503 0.28261 0.0
H7428 H 0.38188 0.62526 0.319 0.0
H7429 H 0.39481 0.62614 0.30787 0.0
H7430 H 0.41061 0.5998 0.30595 0.0
C7431 C 0.4354 0.60664 0.28173 0.0
C7432 C 0.41346 0.61949 0.28768 0.0
C7433 C 0.44444 0.60776 0.27809 0.0
C7434 C 0.38436 0.61886 0.31578 0.0
C7435 C 0.39171 0.61937 0.30933 0.0
C7436 C 0.41122 0.60523 0.30075 0.0
C7437 C 0.43013 0.61445 0.28454 0.0
C7438 C 0.4209 0.61323 0.28927 0.0
C7439 C 0.39534 0.61119 0.30525 0.0
C7440 C 0.4039 0.61163 0.29935 0.0
H7441 H 0.4459 0.63155 0.27899 0.0
H7442 H 0.4302 0.62961 0.28547 0.0
H7443 H 0.42523 0.6012 0.29733 0.0
H7444 H 0.38099 0.59523 0.31562 0.0
H7445 H 0.39373 0.59613 0.3043 0.0
C7446 C 0.11708 0.73023 0.05655 0.0
C7447 C 0.12382 0.73557 0.05176 0.0
C7448 C 0.11977 0.72244 0.06172 0.0
C7449 C 0.13936 0.70585 0.06584 0.0
H7450 H 0.1284 0.70417 0.09055 0.0
C7451 C 0.15526 0.68365 0.09567 0.0
C7452 C 0.14901 0.67917 0.10179 0.0
C7453 C 0.15187 0.68963 0.08874 0.0
C7454 C 0.13143 0.70443 0.08362 0.0
H7455 H 0.13864 0.73675 0.04843 0.0
H7456 H 0.14336 0.72317 0.05748 0.0
H7457 H 0.12299 0.71612 0.07985 0.0
H7458 H 0.13429 0.67705 0.10512 0.0
H7459 H 0.12838 0.68743 0.09303 0.0
H7460 H 0.14793 0.69422 0.06974 0.0
C7461 C 0.13597 0.72493 0.05715 0.0
C7462 C 0.12832 0.71129 0.07747 0.0
C7463 C 0.13326 0.73272 0.05196 0.0
C7464 C 0.13929 0.68053 0.10062 0.0
C7465 C 0.13591 0.68649 0.0937 0.0
C7466 C 0.14248 0.69897 0.07202 0.0
C7467 C 0.12928 0.71981 0.06224 0.0
C7468 C 0.13228 0.71213 0.06853 0.0
C7469 C 0.14216 0.69124 0.08779 0.0
C7470 C 0.13859 0.69822 0.081 0.0
H7471 H 0.10972 0.73216 0.05641 0.0
H7472 H 0.11442 0.71853 0.06541 0.0
H7473 H 0.14248 0.70624 0.05896 0.0
H7474 H 0.16279 0.68281 0.09645 0.0
H7475 H 0.15689 0.69325 0.08437 0.0
C7476 C 0.05246 0.37764 0.77873 0.0
C7477 C 0.04553 0.38343 0.78263 0.0
C7478 C 0.06185 0.37843 0.78161 0.0
C7479 C 0.07643 0.38641 0.80149 0.0
H7480 H 0.09689 0.38445 0.78377 0.0
C7481 C 0.1153 0.38986 0.81313 0.0
C7482 C 0.1216 0.38344 0.80917 0.0
C7483 C 0.10616 0.3907 0.80956 0.0
C7484 C 0.09125 0.38494 0.78882 0.0
H7485 H 0.04314 0.39483 0.79242 0.0
H7486 H 0.05951 0.39615 0.7975 0.0
H7487 H 0.08065 0.38433 0.77812 0.0
H7488 H 0.12324 0.37285 0.79837 0.0
H7489 H 0.10733 0.37427 0.79218 0.0
H7490 H 0.08699 0.38683 0.81221 0.0
C7491 C 0.05764 0.39091 0.79229 0.0
C7492 C 0.08195 0.38487 0.78558 0.0
C7493 C 0.04826 0.39014 0.78938 0.0
C7494 C 0.11861 0.37798 0.80148 0.0
C7495 C 0.10948 0.3788 0.79793 0.0
C7496 C 0.08572 0.38644 0.80474 0.0
C7497 C 0.06453 0.38502 0.78849 0.0
C7498 C 0.07443 0.38553 0.79188 0.0
C7499 C 0.10311 0.38512 0.80196 0.0
C7500 C 0.09325 0.38562 0.79845 0.0
H7501 H 0.0506 0.3723 0.77362 0.0
H7502 H 0.06696 0.3737 0.77864 0.0
H7503 H 0.07079 0.3868 0.80654 0.0
H7504 H 0.11743 0.39424 0.81899 0.0
H7505 H 0.10149 0.39574 0.81274 0.0
C7506 C 0.36185 0.27053 0.54035 0.0
C7507 C 0.36859 0.26385 0.54289 0.0
C7508 C 0.35976 0.27798 0.54637 0.0
C7509 C 0.36971 0.29148 0.56625 0.0
H7510 H 0.34406 0.3 0.56942 0.0
C7511 C 0.36077 0.31973 0.59339 0.0
C7512 C 0.355 0.32704 0.59027 0.0
C7513 C 0.36167 0.31156 0.58808 0.0
C7514 C 0.35126 0.29773 0.56856 0.0
H7515 H 0.37846 0.25981 0.55374 0.0
H7516 H 0.37466 0.27264 0.5643 0.0
H7517 H 0.34724 0.28671 0.55908 0.0
H7518 H 0.34525 0.33125 0.57939 0.0
H7519 H 0.34694 0.317 0.57005 0.0
H7520 H 0.37375 0.30249 0.57566 0.0
C7521 C 0.37106 0.27219 0.55762 0.0
C7522 C 0.35309 0.29014 0.56262 0.0
C7523 C 0.37316 0.26477 0.5516 0.0
C7524 C 0.34983 0.32579 0.58193 0.0
C7525 C 0.35073 0.3176 0.57662 0.0
C7526 C 0.36788 0.29904 0.57218 0.0
C7527 C 0.36436 0.27891 0.55506 0.0
C7528 C 0.36234 0.28693 0.5614 0.0
C7529 C 0.35685 0.31049 0.57953 0.0
C7530 C 0.35864 0.30225 0.57341 0.0
H7531 H 0.35814 0.26997 0.53373 0.0
H7532 H 0.35463 0.28308 0.54415 0.0
H7533 H 0.37693 0.28931 0.56533 0.0
H7534 H 0.36492 0.32048 0.59973 0.0
H7535 H 0.36633 0.30614 0.59058 0.0
C7536 C 0.19728 0.45299 0.38515 0.0
C7537 C 0.19138 0.45951 0.38077 0.0
C7538 C 0.19541 0.4434 0.38436 0.0
C7539 C 0.17596 0.42687 0.37898 0.0
H7540 H 0.19593 0.40886 0.37553 0.0
C7541 C 0.16841 0.38859 0.36869 0.0
C7542 C 0.17363 0.3816 0.37317 0.0
C7543 C 0.17077 0.39801 0.3699 0.0
C7544 C 0.19029 0.4138 0.3766 0.0
H7545 H 0.17915 0.46104 0.37179 0.0
H7546 H 0.17593 0.44436 0.37035 0.0
H7547 H 0.19981 0.42547 0.37697 0.0
H7548 H 0.18541 0.37907 0.38252 0.0
H7549 H 0.18957 0.39556 0.38458 0.0
H7550 H 0.16644 0.41523 0.37854 0.0
C7551 C 0.18187 0.44665 0.37459 0.0
C7552 C 0.19251 0.42331 0.37742 0.0
C7553 C 0.18372 0.45621 0.3754 0.0
C7554 C 0.18131 0.38427 0.37887 0.0
C7555 C 0.18369 0.39371 0.38006 0.0
C7556 C 0.17375 0.41738 0.37813 0.0
C7557 C 0.18762 0.44012 0.37915 0.0
C7558 C 0.18536 0.42997 0.37854 0.0
C7559 C 0.17843 0.40069 0.3756 0.0
C7560 C 0.18087 0.41074 0.37685 0.0
H7561 H 0.20319 0.45532 0.38941 0.0
H7562 H 0.19993 0.43857 0.38802 0.0
H7563 H 0.17029 0.43178 0.38004 0.0
H7564 H 0.16258 0.38678 0.3641 0.0
H7565 H 0.16668 0.40321 0.36623 0.0
C7566 C 0.70387 0.04663 0.62378 0.0
C7567 C 0.69878 0.04136 0.6171 0.0
C7568 C 0.7026 0.0563 0.62454 0.0
C7569 C 0.69298 0.07682 0.61199 0.0
H7570 H 0.6908 0.08732 0.63697 0.0
C7571 C 0.67696 0.11316 0.61946 0.0
C7572 C 0.68121 0.11872 0.62647 0.0
C7573 C 0.67992 0.10398 0.61792 0.0
C7574 C 0.69152 0.08453 0.62994 0.0
H7575 H 0.68862 0.04219 0.60576 0.0
H7576 H 0.68623 0.05897 0.60724 0.0
H7577 H 0.6946 0.07085 0.63499 0.0
H7578 H 0.69196 0.11902 0.63731 0.0
H7579 H 0.69721 0.10305 0.63453 0.0
H7580 H 0.68972 0.0905 0.60697 0.0
C7581 C 0.69128 0.05567 0.61184 0.0
C7582 C 0.69371 0.07508 0.62881 0.0
C7583 C 0.69256 0.04602 0.61107 0.0
C7584 C 0.6886 0.11495 0.63179 0.0
C7585 C 0.69154 0.10577 0.63027 0.0
C7586 C 0.69077 0.08627 0.61313 0.0
C7587 C 0.69621 0.06091 0.61865 0.0
C7588 C 0.6944 0.07109 0.61982 0.0
C7589 C 0.68718 0.10014 0.62338 0.0
C7590 C 0.68994 0.09021 0.62212 0.0
H7591 H 0.70867 0.04327 0.62858 0.0
H7592 H 0.7066 0.06015 0.62979 0.0
H7593 H 0.6936 0.07401 0.60497 0.0
H7594 H 0.6713 0.11589 0.61519 0.0
H7595 H 0.67637 0.0998 0.61261 0.0
C7596 C 0.73123 0.96516 0.35728 0.0
C7597 C 0.73616 0.96334 0.36562 0.0
C7598 C 0.72425 0.95899 0.35403 0.0
C7599 C 0.70868 0.93948 0.36134 0.0
H7600 H 0.70889 0.93295 0.33497 0.0
C7601 C 0.68153 0.91378 0.34483 0.0
C7602 C 0.68517 0.90707 0.33861 0.0
C7603 C 0.68713 0.92128 0.34795 0.0
C7604 C 0.70875 0.93468 0.34236 0.0
H7605 H 0.73736 0.95376 0.37725 0.0
H7606 H 0.72533 0.94292 0.37149 0.0
H7607 H 0.71975 0.94485 0.34096 0.0
H7608 H 0.69746 0.90314 0.3306 0.0
H7609 H 0.70724 0.91609 0.33615 0.0
H7610 H 0.69789 0.92908 0.36279 0.0
C7611 C 0.7268 0.94916 0.36749 0.0
C7612 C 0.7149 0.94158 0.34577 0.0
C7613 C 0.73378 0.95532 0.37074 0.0
C7614 C 0.69447 0.90812 0.33548 0.0
C7615 C 0.70005 0.91561 0.33857 0.0
C7616 C 0.70251 0.93259 0.35792 0.0
C7617 C 0.72202 0.95086 0.35905 0.0
C7618 C 0.71502 0.94398 0.35533 0.0
C7619 C 0.69646 0.92226 0.34488 0.0
C7620 C 0.70256 0.93002 0.34841 0.0
H7621 H 0.73294 0.97124 0.35314 0.0
H7622 H 0.72063 0.96056 0.34755 0.0
H7623 H 0.70852 0.94124 0.36872 0.0
H7624 H 0.67441 0.91314 0.34743 0.0
H7625 H 0.68413 0.92632 0.35275 0.0
C7626 C 0.78823 0.95654 0.12294 0.0
C7627 C 0.78644 0.96147 0.11466 0.0
C7628 C 0.79193 0.94751 0.12258 0.0
C7629 C 0.80573 0.93228 0.10698 0.0
H7630 H 0.79936 0.9131 0.12493 0.0
C7631 C 0.82307 0.89618 0.10546 0.0
C7632 C 0.8267 0.89292 0.11399 0.0
C7633 C 0.81685 0.9037 0.10529 0.0
C7634 C 0.80122 0.9184 0.11989 0.0
H7635 H 0.78666 0.96063 0.09952 0.0
H7636 H 0.79299 0.94484 0.09888 0.0
H7637 H 0.79081 0.92787 0.12503 0.0
H7638 H 0.8262 0.89464 0.12906 0.0
H7639 H 0.81543 0.90785 0.12876 0.0
H7640 H 0.81621 0.92291 0.10192 0.0
C7641 C 0.79175 0.94802 0.10566 0.0
C7642 C 0.79634 0.92686 0.11996 0.0
C7643 C 0.78811 0.95706 0.10602 0.0
C7644 C 0.82361 0.89706 0.12237 0.0
C7645 C 0.81737 0.90457 0.1222 0.0
C7646 C 0.81057 0.92382 0.10689 0.0
C7647 C 0.79388 0.94319 0.11394 0.0
C7648 C 0.7986 0.93394 0.11355 0.0
C7649 C 0.8141 0.90812 0.11364 0.0
C7650 C 0.80844 0.91682 0.1134 0.0
H7651 H 0.7871 0.95979 0.1297 0.0
H7652 H 0.79359 0.94406 0.12909 0.0
H7653 H 0.8078 0.93763 0.10207 0.0
H7654 H 0.82536 0.89321 0.09887 0.0
H7655 H 0.81436 0.9062 0.09859 0.0
C7656 C 0.25873 0.54027 0.36933 0.0
C7657 C 0.25754 0.53167 0.36462 0.0
C7658 C 0.2662 0.54622 0.36714 0.0
C7659 C 0.28369 0.55135 0.34873 0.0
H7660 H 0.29642 0.56468 0.36891 0.0
C7661 C 0.31863 0.57212 0.34421 0.0
C7662 C 0.31946 0.58068 0.34906 0.0
C7663 C 0.31081 0.5663 0.34557 0.0
C7664 C 0.29287 0.56109 0.36318 0.0
H7665 H 0.26331 0.52262 0.35388 0.0
H7666 H 0.27653 0.53292 0.35023 0.0
H7667 H 0.28353 0.55403 0.37246 0.0
H7668 H 0.31264 0.58992 0.35899 0.0
H7669 H 0.29896 0.57984 0.36124 0.0
H7670 H 0.29317 0.55837 0.33948 0.0
C7671 C 0.27158 0.53511 0.35553 0.0
C7672 C 0.28547 0.55498 0.36522 0.0
C7673 C 0.26406 0.52915 0.3577 0.0
C7674 C 0.31217 0.58342 0.35507 0.0
C7675 C 0.30439 0.57759 0.35646 0.0
C7676 C 0.29114 0.55744 0.3467 0.0
C7677 C 0.27274 0.54372 0.36023 0.0
C7678 C 0.28075 0.55007 0.35802 0.0
C7679 C 0.30369 0.5689 0.35185 0.0
C7680 C 0.29577 0.56242 0.35391 0.0
H7681 H 0.25391 0.54238 0.37478 0.0
H7682 H 0.26681 0.55284 0.37083 0.0
H7683 H 0.28014 0.54776 0.34301 0.0
H7684 H 0.32409 0.56985 0.33947 0.0
H7685 H 0.31049 0.55963 0.34194 0.0
C7686 C 0.28832 0.54599 0.88372 0.0
C7687 C 0.2936 0.53803 0.88139 0.0
C7688 C 0.29263 0.55482 0.88425 0.0
C7689 C 0.31588 0.56541 0.88842 0.0
H7690 H 0.305 0.58807 0.87847 0.0
C7691 C 0.33335 0.60093 0.89538 0.0
C7692 C 0.33473 0.60658 0.8875 0.0
C7693 C 0.32723 0.59326 0.89497 0.0
C7694 C 0.30811 0.58179 0.88128 0.0
H7695 H 0.3074 0.5332 0.87722 0.0
H7696 H 0.3149 0.54852 0.8782 0.0
H7697 H 0.29656 0.57315 0.87664 0.0
H7698 H 0.3304 0.60887 0.87314 0.0
H7699 H 0.3197 0.59543 0.8724 0.0
H7700 H 0.32749 0.57391 0.89292 0.0
C7701 C 0.30748 0.54793 0.87981 0.0
C7702 C 0.30326 0.57328 0.88029 0.0
C7703 C 0.30318 0.53915 0.87926 0.0
C7704 C 0.32945 0.60469 0.87935 0.0
C7705 C 0.32332 0.59699 0.87893 0.0
C7706 C 0.32068 0.57389 0.88946 0.0
C7707 C 0.30231 0.55583 0.88248 0.0
C7708 C 0.30716 0.56498 0.88376 0.0
C7709 C 0.32235 0.59105 0.88666 0.0
C7710 C 0.3169 0.58217 0.88586 0.0
H7711 H 0.28093 0.54535 0.88544 0.0
H7712 H 0.28847 0.56078 0.88636 0.0
H7713 H 0.31902 0.55916 0.89128 0.0
H7714 H 0.33717 0.60233 0.90183 0.0
H7715 H 0.32649 0.58894 0.9011 0.0
C7716 C 0.73975 0.045 0.14048 0.0
C7717 C 0.74294 0.04753 0.13155 0.0
C7718 C 0.73208 0.04954 0.14451 0.0
C7719 C 0.71193 0.06513 0.13922 0.0
H7720 H 0.71539 0.07332 0.16494 0.0
C7721 C 0.68447 0.08797 0.15839 0.0
C7722 C 0.68822 0.09565 0.1634 0.0
C7723 C 0.69038 0.08095 0.15499 0.0
C7724 C 0.71431 0.07108 0.15775 0.0
H7725 H 0.74025 0.05647 0.11967 0.0
H7726 H 0.727 0.06451 0.12675 0.0
H7727 H 0.72695 0.06306 0.15777 0.0
H7728 H 0.70106 0.10178 0.16907 0.0
H7729 H 0.71135 0.08966 0.16303 0.0
H7730 H 0.69949 0.0735 0.13909 0.0
C7731 C 0.73038 0.05898 0.13063 0.0
C7732 C 0.72088 0.06511 0.15367 0.0
C7733 C 0.73805 0.05445 0.12661 0.0
C7734 C 0.69796 0.09602 0.16513 0.0
C7735 C 0.70385 0.08901 0.16177 0.0
C7736 C 0.70535 0.07111 0.14331 0.0
C7737 C 0.7274 0.0567 0.1397 0.0
C7738 C 0.71987 0.06221 0.1443 0.0
C7739 C 0.70015 0.08143 0.15658 0.0
C7740 C 0.70657 0.07431 0.15256 0.0
H7741 H 0.7434 0.03973 0.14449 0.0
H7742 H 0.72989 0.04754 0.15146 0.0
H7743 H 0.71088 0.06293 0.13202 0.0
H7744 H 0.677 0.08751 0.15691 0.0
H7745 H 0.68731 0.07516 0.15109 0.0
C7746 C 0.76602 0.96803 0.64184 0.0
C7747 C 0.7625 0.96795 0.63263 0.0
C7748 C 0.77277 0.96154 0.64464 0.0
C7749 C 0.78187 0.93826 0.63819 0.0
H7750 H 0.80207 0.94466 0.6555 0.0
C7751 C 0.81048 0.91172 0.64799 0.0
C7752 C 0.81286 0.9111 0.65753 0.0
C7753 C 0.80497 0.91907 0.64473 0.0
C7754 C 0.79642 0.94276 0.65071 0.0
H7755 H 0.76363 0.96127 0.61902 0.0
H7756 H 0.77546 0.95 0.62386 0.0
H7757 H 0.79135 0.95681 0.65015 0.0
H7758 H 0.8114 0.91782 0.67109 0.0
H7759 H 0.8018 0.93067 0.66539 0.0
H7760 H 0.78689 0.92421 0.63879 0.0
C7761 C 0.77285 0.95494 0.62899 0.0
C7762 C 0.79027 0.94971 0.64765 0.0
C7763 C 0.76608 0.96141 0.62621 0.0
C7764 C 0.8098 0.91815 0.66368 0.0
C7765 C 0.80429 0.92551 0.66042 0.0
C7766 C 0.78802 0.93132 0.64123 0.0
C7767 C 0.77618 0.95483 0.63827 0.0
C7768 C 0.78291 0.94754 0.64137 0.0
C7769 C 0.8017 0.92599 0.65093 0.0
C7770 C 0.79535 0.93347 0.64754 0.0
H7771 H 0.76333 0.97291 0.64698 0.0
H7772 H 0.7751 0.96158 0.65186 0.0
H7773 H 0.77617 0.93629 0.6335 0.0
H7774 H 0.81287 0.9065 0.64303 0.0
H7775 H 0.80325 0.91933 0.63735 0.0
loop_
_geom_bond_atom_site_label_1
_geom_bond_atom_site_label_2
_geom_bond_distance
_geom_bond_site_symmetry_2
_ccdc_geom_bond_type
C0 C1 1.264 . S
C0 C5 1.479 . S
C0 C10 1.465 1_655 S
C1 C0 1.264 . S
C1 C3 1.339 . S
C1 H28 0.931 . S
C2 C3 1.395 . S
C2 C4 1.320 . S
C3 C1 1.339 . S
C3 C2 1.395 . S
C3 H29 0.929 . S
C4 C2 1.320 . S
C4 C5 1.405 . S
C4 H30 0.930 . S
C5 C0 1.479 . S
C5 C4 1.405 . S
C5 H31 0.931 . S
U6 O7 2.454 . S
U6 O8 2.458 . S
U6 C9 2.984 . S
U6 C10 2.847 . S
U6 C23 2.882 . S
U6 O24 2.441 . S
U6 O25 2.420 . S
U6 O26 2.455 . S
U6 O27 2.449 . S
O7 U6 2.454 . S
O7 C9 1.353 . S
O8 U6 2.458 . S
O8 C9 1.286 . S
C9 U6 2.984 . S
C9 O7 1.353 . S
C9 O8 1.286 . S
C9 C11 1.363 . S
C10 C0 1.465 1_455 S
C10 U6 2.847 . S
C10 O24 1.249 . S
C10 O25 1.202 . S
C11 C9 1.363 . S
C11 C13 1.408 . S
C11 C16 1.342 . S
C12 C13 1.310 . S
C12 C15 1.461 . S
C12 H32 0.932 . S
C13 C11 1.408 . S
C13 C12 1.310 . S
C13 H33 0.930 . S
C14 C15 1.474 . S
C14 C16 1.285 . S
C14 H34 0.929 . S
C15 C12 1.461 . S
C15 C14 1.474 . S
C16 C11 1.342 . S
C16 C14 1.285 . S
C16 H35 0.930 . S
C17 C20 1.424 . S
C17 C22 1.245 . S
C17 C23 1.428 . S
C18 C21 1.260 . S
C18 C22 1.477 . S
C18 H36 0.932 . S
C19 C20 1.384 . S
C19 C21 1.479 . S
C19 H37 0.929 . S
C20 C17 1.424 . S
C20 C19 1.384 . S
C20 H38 0.928 . S
C21 C18 1.260 . S
C21 C19 1.479 . S
C22 C17 1.245 . S
C22 C18 1.477 . S
C22 H39 0.932 . S
C23 U6 2.882 . S
C23 C17 1.428 . S
C23 O26 1.301 . S
C23 O27 1.282 . S
O24 U6 2.441 . S
O24 C10 1.249 . S
O25 U6 2.420 . S
O25 C10 1.202 . S
O26 U6 2.455 . S
O26 C23 1.301 . S
O27 U6 2.449 . S
O27 C23 1.282 . S
H28 C1 0.931 . S
H29 C3 0.929 . S
H30 C4 0.930 . S
H31 C5 0.931 . S
H32 C12 0.932 . S
H33 C13 0.930 . S
H34 C14 0.929 . S
H35 C16 0.930 . S
H36 C18 0.932 . S
H37 C19 0.929 . S
H38 C20 0.928 . S
H39 C22 0.932 . S
C40 C41 1.264 . S
C40 C45 1.479 . S
C40 C50 1.465 . S
C41 C40 1.264 . S
C41 C43 1.339 . S
C41 H68 0.931 . S
C42 C43 1.395 . S
C42 C44 1.320 . S
C43 C41 1.339 . S
C43 C42 1.395 . S
C43 H69 0.929 . S
C44 C42 1.320 . S
C44 C45 1.405 . S
C44 H70 0.930 . S
C45 C40 1.479 . S
C45 C44 1.405 . S
C45 H71 0.931 . S
U46 O47 2.454 . S
U46 O48 2.458 . S
U46 C49 2.984 . S
U46 C50 2.847 . S
U46 C63 2.882 . S
U46 O64 2.441 . S
U46 O65 2.420 . S
U46 O66 2.455 . S
U46 O67 2.449 . S
O47 U46 2.454 . S
O47 C49 1.353 . S
O48 U46 2.458 . S
O48 C49 1.286 . S
C49 U46 2.984 . S
C49 O47 1.353 . S
C49 O48 1.286 . S
C49 C51 1.363 . S
C50 C40 1.465 . S
C50 U46 2.847 . S
C50 O64 1.249 . S
C50 O65 1.202 . S
C51 C49 1.363 . S
C51 C53 1.408 . S
C51 C56 1.342 . S
C52 C53 1.310 . S
C52 C55 1.461 . S
C52 H72 0.932 . S
C53 C51 1.408 . S
C53 C52 1.310 . S
C53 H73 0.930 . S
C54 C55 1.474 . S
C54 C56 1.285 . S
C54 H74 0.929 . S
C55 C52 1.461 . S
C55 C54 1.474 . S
C56 C51 1.342 . S
C56 C54 1.285 . S
C56 H75 0.930 . S
C57 C60 1.424 . S
C57 C62 1.245 . S
C57 C63 1.428 . S
C58 C61 1.260 . S
C58 C62 1.477 . S
C58 H76 0.932 . S
C59 C60 1.384 . S
C59 C61 1.479 . S
C59 H77 0.929 . S
C60 C57 1.424 . S
C60 C59 1.384 . S
C60 H78 0.928 . S
C61 C58 1.260 . S
C61 C59 1.479 . S
C62 C57 1.245 . S
C62 C58 1.477 . S
C62 H79 0.932 . S
C63 U46 2.882 . S
C63 C57 1.428 . S
C63 O66 1.301 . S
C63 O67 1.282 . S
O64 U46 2.441 . S
O64 C50 1.249 . S
O65 U46 2.420 . S
O65 C50 1.202 . S
O66 U46 2.455 . S
O66 C63 1.301 . S
O67 U46 2.449 . S
O67 C63 1.282 . S
H68 C41 0.931 . S
H69 C43 0.929 . S
H70 C44 0.930 . S
H71 C45 0.931 . S
H72 C52 0.932 . S
H73 C53 0.930 . S
H74 C54 0.929 . S
H75 C56 0.930 . S
H76 C58 0.932 . S
H77 C59 0.929 . S
H78 C60 0.928 . S
H79 C62 0.932 . S
C80 C81 1.264 . S
C80 C85 1.479 . S
C80 C90 1.465 . S
C81 C80 1.264 . S
C81 C83 1.339 . S
C81 H108 0.931 . S
C82 C83 1.395 . S
C82 C84 1.320 . S
C83 C81 1.339 . S
C83 C82 1.395 . S
C83 H109 0.929 . S
C84 C82 1.320 . S
C84 C85 1.405 . S
C84 H110 0.930 . S
C85 C80 1.479 . S
C85 C84 1.405 . S
C85 H111 0.931 . S
U86 O87 2.454 . S
U86 O88 2.458 . S
U86 C89 2.984 . S
U86 C90 2.847 . S
U86 C103 2.882 . S
U86 O104 2.441 . S
U86 O105 2.420 . S
U86 O106 2.455 . S
U86 O107 2.449 . S
O87 U86 2.454 . S
O87 C89 1.353 . S
O88 U86 2.458 . S
O88 C89 1.286 . S
C89 U86 2.984 . S
C89 O87 1.353 . S
C89 O88 1.286 . S
C89 C91 1.363 . S
C90 C80 1.465 . S
C90 U86 2.847 . S
C90 O104 1.249 . S
C90 O105 1.202 . S
C91 C89 1.363 . S
C91 C93 1.408 . S
C91 C96 1.342 . S
C92 C93 1.310 . S
C92 C95 1.461 . S
C92 H112 0.932 . S
C93 C91 1.408 . S
C93 C92 1.310 . S
C93 H113 0.930 . S
C94 C95 1.474 . S
C94 C96 1.285 . S
C94 H114 0.929 . S
C95 C92 1.461 . S
C95 C94 1.474 . S
C96 C91 1.342 . S
C96 C94 1.285 . S
C96 H115 0.930 . S
C97 C100 1.424 . S
C97 C102 1.245 . S
C97 C103 1.428 . S
C98 C101 1.260 . S
C98 C102 1.477 . S
C98 H116 0.932 . S
C99 C100 1.384 . S
C99 C101 1.479 . S
C99 H117 0.929 . S
C100 C97 1.424 . S
C100 C99 1.384 . S
C100 H118 0.928 . S
C101 C98 1.260 . S
C101 C99 1.479 . S
C102 C97 1.245 . S
C102 C98 1.477 . S
C102 H119 0.932 . S
C103 U86 2.882 . S
C103 C97 1.428 . S
C103 O106 1.301 . S
C103 O107 1.282 . S
O104 U86 2.441 . S
O104 C90 1.249 . S
O105 U86 2.420 . S
O105 C90 1.202 . S
O106 U86 2.455 . S
O106 C103 1.301 . S
O107 U86 2.449 . S
O107 C103 1.282 . S
H108 C81 0.931 . S
H109 C83 0.929 . S
H110 C84 0.930 . S
H111 C85 0.931 . S
H112 C92 0.932 . S
H113 C93 0.930 . S
H114 C94 0.929 . S
H115 C96 0.930 . S
H116 C98 0.932 . S
H117 C99 0.929 . S
H118 C100 0.928 . S
H119 C102 0.932 . S
C120 C121 1.264 . S
C120 C125 1.479 . S
C120 C130 1.465 . S
C121 C120 1.264 . S
C121 C123 1.339 . S
C121 H148 0.931 . S
C122 C123 1.395 . S
C122 C124 1.320 . S
C123 C121 1.339 . S
C123 C122 1.395 . S
C123 H149 0.929 . S
C124 C122 1.320 . S
C124 C125 1.405 . S
C124 H150 0.930 . S
C125 C120 1.479 . S
C125 C124 1.405 . S
C125 H151 0.931 . S
U126 O127 2.454 . S
U126 O128 2.458 . S
U126 C129 2.984 . S
U126 C130 2.847 . S
U126 C143 2.882 . S
U126 O144 2.441 . S
U126 O145 2.420 . S
U126 O146 2.455 . S
U126 O147 2.449 . S
O127 U126 2.454 . S
O127 C129 1.353 . S
O128 U126 2.458 . S
O128 C129 1.286 . S
C129 U126 2.984 . S
C129 O127 1.353 . S
C129 O128 1.286 . S
C129 C131 1.363 . S
C130 C120 1.465 . S
C130 U126 2.847 . S
C130 O144 1.249 . S
C130 O145 1.202 . S
C131 C129 1.363 . S
C131 C133 1.408 . S
C131 C136 1.342 . S
C132 C133 1.310 1_556 S
C132 C135 1.461 . S
C132 H152 0.932 . S
C133 C131 1.408 . S
C133 C132 1.310 1_554 S
C133 H153 0.930 . S
C134 C135 1.474 1_554 S
C134 C136 1.285 . S
C134 H154 0.929 . S
C135 C132 1.461 . S
C135 C134 1.474 1_556 S
C136 C131 1.342 . S
C136 C134 1.285 . S
C136 H155 0.930 . S
C137 C140 1.424 . S
C137 C142 1.245 . S
C137 C143 1.428 . S
C138 C141 1.260 . S
C138 C142 1.477 . S
C138 H156 0.932 . S
C139 C140 1.384 . S
C139 C141 1.479 . S
C139 H157 0.929 . S
C140 C137 1.424 . S
C140 C139 1.384 . S
C140 H158 0.928 . S
C141 C138 1.260 . S
C141 C139 1.479 . S
C142 C137 1.245 . S
C142 C138 1.477 . S
C142 H159 0.932 . S
C143 U126 2.882 . S
C143 C137 1.428 . S
C143 O146 1.301 . S
C143 O147 1.282 . S
O144 U126 2.441 . S
O144 C130 1.249 . S
O145 U126 2.420 . S
O145 C130 1.202 . S
O146 U126 2.455 . S
O146 C143 1.301 . S
O147 U126 2.449 . S
O147 C143 1.282 . S
H148 C121 0.931 . S
H149 C123 0.929 . S
H150 C124 0.930 . S
H151 C125 0.931 . S
H152 C132 0.932 . S
H153 C133 0.930 . S
H154 C134 0.929 . S
H155 C136 0.930 . S
H156 C138 0.932 . S
H157 C139 0.929 . S
H158 C140 0.928 . S
H159 C142 0.932 . S
C160 C161 1.264 . S
C160 C165 1.479 . S
C160 C170 1.465 1_655 S
C161 C160 1.264 . S
C161 C163 1.339 . S
C161 H188 0.873 1_655 S
C162 C163 1.395 . S
C162 C164 1.320 . S
C163 C161 1.339 . S
C163 C162 1.395 . S
C163 H189 0.929 . S
C164 C162 1.320 . S
C164 C165 1.405 . S
C164 H190 0.930 . S
C165 C160 1.479 . S
C165 C164 1.405 . S
C165 H191 0.931 . S
U166 O167 2.454 . S
U166 O168 2.458 . S
U166 C169 2.984 . S
U166 C170 2.847 . S
U166 C183 2.882 . S
U166 O184 2.441 . S
U166 O185 2.420 . S
U166 O186 2.455 . S
U166 O187 2.449 . S
O167 U166 2.454 . S
O167 C169 1.353 . S
O168 U166 2.458 . S
O168 C169 1.286 . S
C169 U166 2.984 . S
C169 O167 1.353 . S
C169 O168 1.286 . S
C169 C171 1.363 . S
C170 C160 1.465 1_455 S
C170 U166 2.847 . S
C170 O184 1.249 . S
C170 O185 1.202 . S
C171 C169 1.363 . S
C171 C173 1.408 . S
C171 C176 1.342 . S
C172 C173 1.310 . S
C172 C175 1.461 . S
C172 H192 0.932 . S
C173 C171 1.408 . S
C173 C172 1.310 . S
C173 H193 0.930 . S
C174 C175 1.474 . S
C174 C176 1.285 . S
C174 H194 0.929 . S
C175 C172 1.461 . S
C175 C174 1.474 . S
C176 C171 1.342 . S
C176 C174 1.285 . S
C176 H195 0.930 . S
C177 C180 1.424 . S
C177 C182 1.245 . S
C177 C183 1.428 . S
C178 C181 1.260 . S
C178 C182 1.477 . S
C178 H196 0.932 . S
C179 C180 1.384 . S
C179 C181 1.479 . S
C179 H197 0.929 . S
C180 C177 1.424 . S
C180 C179 1.384 . S
C180 H198 0.928 . S
C181 C178 1.260 . S
C181 C179 1.479 . S
C182 C177 1.245 . S
C182 C178 1.477 . S
C182 H199 0.932 . S
C183 U166 2.882 . S
C183 C177 1.428 . S
C183 O186 1.301 . S
C183 O187 1.282 . S
O184 U166 2.441 . S
O184 C170 1.249 . S
O185 U166 2.420 . S
O185 C170 1.202 . S
O186 U166 2.455 . S
O186 C183 1.301 . S
O187 U166 2.449 . S
O187 C183 1.282 . S
H188 C161 0.873 1_455 S
H189 C163 0.929 . S
H190 C164 0.930 . S
H191 C165 0.931 . S
H192 C172 0.932 . S
H193 C173 0.930 . S
H194 C174 0.929 . S
H195 C176 0.930 . S
H196 C178 0.932 . S
H197 C179 0.929 . S
H198 C180 0.928 . S
H199 C182 0.932 . S
C200 C201 1.264 . S
C200 C205 1.479 . S
C200 C210 1.465 . S
C201 C200 1.264 . S
C201 C203 1.339 . S
C201 H228 0.931 . S
C202 C203 1.395 . S
C202 C204 1.320 . S
C203 C201 1.339 . S
C203 C202 1.395 . S
C203 H229 0.929 . S
C204 C202 1.320 . S
C204 C205 1.405 . S
C204 H230 0.930 . S
C205 C200 1.479 . S
C205 C204 1.405 . S
C205 H231 0.931 . S
U206 O207 2.454 . S
U206 O208 2.458 . S
U206 C209 2.984 . S
U206 C210 2.847 . S
U206 C223 2.882 . S
U206 O224 2.441 . S
U206 O225 2.420 . S
U206 O226 2.455 . S
U206 O227 2.449 . S
O207 U206 2.454 . S
O207 C209 1.353 . S
O208 U206 2.458 . S
O208 C209 1.286 . S
C209 U206 2.984 . S
C209 O207 1.353 . S
C209 O208 1.286 . S
C209 C211 1.363 . S
C210 C200 1.465 . S
C210 U206 2.847 . S
C210 O224 1.249 . S
C210 O225 1.202 . S
C211 C209 1.363 . S
C211 C213 1.408 . S
C211 C216 1.342 . S
C212 C213 1.310 . S
C212 C215 1.461 . S
C212 H232 0.932 . S
C213 C211 1.408 . S
C213 C212 1.310 . S
C213 H233 0.930 . S
C214 C215 1.474 . S
C214 C216 1.285 . S
C214 H234 0.929 . S
C215 C212 1.461 . S
C215 C214 1.474 . S
C216 C211 1.342 . S
C216 C214 1.285 . S
C216 H235 0.930 . S
C217 C220 1.424 . S
C217 C222 1.245 . S
C217 C223 1.428 . S
C218 C221 1.260 . S
C218 C222 1.477 . S
C218 H236 0.932 . S
C219 C220 1.384 . S
C219 C221 1.479 . S
C219 H237 0.929 . S
C220 C217 1.424 . S
C220 C219 1.384 . S
C220 H238 0.928 . S
C221 C218 1.260 . S
C221 C219 1.479 . S
C222 C217 1.245 . S
C222 C218 1.477 . S
C222 H239 0.932 . S
C223 U206 2.882 . S
C223 C217 1.428 . S
C223 O226 1.301 . S
C223 O227 1.282 . S
O224 U206 2.441 . S
O224 C210 1.249 . S
O225 U206 2.420 . S
O225 C210 1.202 . S
O226 U206 2.455 . S
O226 C223 1.301 . S
O227 U206 2.449 . S
O227 C223 1.282 . S
H228 C201 0.931 . S
H229 C203 0.929 . S
H230 C204 0.930 . S
H231 C205 0.931 . S
H232 C212 0.932 . S
H233 C213 0.930 . S
H234 C214 0.929 . S
H235 C216 0.930 . S
H236 C218 0.932 . S
H237 C219 0.929 . S
H238 C220 0.928 . S
H239 C222 0.932 . S
C240 C241 1.264 . S
C240 C245 1.479 . S
C240 C250 1.465 . S
C241 C240 1.264 . S
C241 C243 1.339 . S
C241 H268 0.931 . S
C242 C243 1.395 . S
C242 C244 1.320 . S
C243 C241 1.339 . S
C243 C242 1.395 . S
C243 H269 0.929 . S
C244 C242 1.320 . S
C244 C245 1.405 . S
C244 H270 0.930 . S
C245 C240 1.479 . S
C245 C244 1.405 . S
C245 H271 0.931 . S
U246 O247 2.454 . S
U246 O248 2.458 . S
U246 C249 2.984 . S
U246 C250 2.847 . S
U246 C263 2.882 . S
U246 O264 2.441 . S
U246 O265 2.420 . S
U246 O266 2.455 . S
U246 O267 2.449 . S
O247 U246 2.454 . S
O247 C249 1.353 . S
O248 U246 2.458 . S
O248 C249 1.286 . S
C249 U246 2.984 . S
C249 O247 1.353 . S
C249 O248 1.286 . S
C249 C251 1.363 . S
C250 C240 1.465 . S
C250 U246 2.847 . S
C250 O264 1.249 . S
C250 O265 1.202 . S
C251 C249 1.363 . S
C251 C253 1.408 . S
C251 C256 1.342 . S
C252 C253 1.310 . S
C252 C255 1.461 . S
C252 H272 0.932 . S
C253 C251 1.408 . S
C253 C252 1.310 . S
C253 H273 0.930 . S
C254 C255 1.474 . S
C254 C256 1.285 . S
C254 H274 0.929 . S
C255 C252 1.461 . S
C255 C254 1.474 . S
C256 C251 1.342 . S
C256 C254 1.285 . S
C256 H275 0.930 . S
C257 C260 1.424 . S
C257 C262 1.245 . S
C257 C263 1.428 . S
C258 C261 1.260 . S
C258 C262 1.477 . S
C258 H276 0.932 . S
C259 C260 1.384 . S
C259 C261 1.479 . S
C259 H277 0.929 . S
C260 C257 1.424 . S
C260 C259 1.384 . S
C260 H278 0.928 . S
C261 C258 1.260 . S
C261 C259 1.479 . S
C262 C257 1.245 . S
C262 C258 1.477 . S
C262 H279 0.932 . S
C263 U246 2.882 . S
C263 C257 1.428 . S
C263 O266 1.301 . S
C263 O267 1.282 . S
O264 U246 2.441 . S
O264 C250 1.249 . S
O265 U246 2.420 . S
O265 C250 1.202 . S
O266 U246 2.455 . S
O266 C263 1.301 . S
O267 U246 2.449 . S
O267 C263 1.282 . S
H268 C241 0.931 . S
H269 C243 0.929 . S
H270 C244 0.930 . S
H271 C245 0.931 . S
H272 C252 0.932 . S
H273 C253 0.930 . S
H274 C254 0.929 . S
H275 C256 0.930 . S
H276 C258 0.932 . S
H277 C259 0.929 . S
H278 C260 0.928 . S
H279 C262 0.932 . S
C280 C281 1.264 . S
C280 C285 1.479 1_556 S
C280 C290 1.465 . S
C281 C280 1.264 . S
C281 C283 1.339 1_556 S
C281 H308 0.931 . S
C282 C283 1.395 . S
C282 C284 1.320 . S
C283 C281 1.339 1_554 S
C283 C282 1.395 . S
C283 H309 0.929 . S
C284 C282 1.320 . S
C284 C285 1.405 . S
C284 H310 0.930 . S
C285 C280 1.479 1_554 S
C285 C284 1.405 . S
C285 H311 0.931 . S
U286 O287 2.454 . S
U286 O288 2.458 . S
U286 C289 2.984 . S
U286 C290 2.847 . S
U286 C303 2.882 . S
U286 O304 2.441 . S
U286 O305 2.420 . S
U286 O306 2.455 . S
U286 O307 2.449 . S
O287 U286 2.454 . S
O287 C289 1.353 . S
O288 U286 2.458 . S
O288 C289 1.286 . S
C289 U286 2.984 . S
C289 O287 1.353 . S
C289 O288 1.286 . S
C289 C291 1.363 . S
C290 C280 1.465 . S
C290 U286 2.847 . S
C290 O304 1.249 . S
C290 O305 1.202 . S
C291 C289 1.363 . S
C291 C293 1.408 . S
C291 C296 1.342 . S
C292 C293 1.310 . S
C292 C295 1.461 . S
C292 H312 0.932 . S
C293 C291 1.408 . S
C293 C292 1.310 . S
C293 H313 0.930 . S
C294 C295 1.474 . S
C294 C296 1.285 . S
C294 H314 0.929 . S
C295 C292 1.461 . S
C295 C294 1.474 . S
C296 C291 1.342 . S
C296 C294 1.285 . S
C296 H315 0.930 . S
C297 C300 1.424 . S
C297 C302 1.245 . S
C297 C303 1.428 . S
C298 C301 1.260 . S
C298 C302 1.477 . S
C298 H316 0.932 . S
C299 C300 1.384 . S
C299 C301 1.479 . S
C299 H317 0.929 . S
C300 C297 1.424 . S
C300 C299 1.384 . S
C300 H318 0.928 . S
C301 C298 1.260 . S
C301 C299 1.479 . S
C302 C297 1.245 . S
C302 C298 1.477 . S
C302 H319 0.932 . S
C303 U286 2.882 . S
C303 C297 1.428 . S
C303 O306 1.301 . S
C303 O307 1.282 . S
O304 U286 2.441 . S
O304 C290 1.249 . S
O305 U286 2.420 . S
O305 C290 1.202 . S
O306 U286 2.455 . S
O306 C303 1.301 . S
O307 U286 2.449 . S
O307 C303 1.282 . S
H308 C281 0.931 . S
H309 C283 0.929 . S
H310 C284 0.930 . S
H311 C285 0.931 . S
H312 C292 0.932 . S
H313 C293 0.930 . S
H314 C294 0.929 . S
H315 C296 0.930 . S
H316 C298 0.932 . S
H317 C299 0.929 . S
H318 C300 0.928 . S
H319 C302 0.932 . S
C320 C321 1.264 . S
C320 C325 1.479 . S
C320 C330 1.465 . S
C321 C320 1.264 . S
C321 C323 1.339 . S
C321 H348 0.931 . S
C322 C323 1.395 . S
C322 C324 1.320 . S
C323 C321 1.339 . S
C323 C322 1.395 . S
C323 H349 0.929 . S
C324 C322 1.320 . S
C324 C325 1.405 . S
C324 H350 0.930 . S
C325 C320 1.479 . S
C325 C324 1.405 . S
C325 H351 0.931 . S
U326 O327 2.454 . S
U326 O328 2.458 . S
U326 C329 2.984 . S
U326 C330 2.847 . S
U326 C343 2.882 . S
U326 O344 2.441 . S
U326 O345 2.420 . S
U326 O346 2.455 . S
U326 O347 2.449 . S
O327 U326 2.454 . S
O327 C329 1.353 . S
O328 U326 2.458 . S
O328 C329 1.286 . S
C329 U326 2.984 . S
C329 O327 1.353 . S
C329 O328 1.286 . S
C329 C331 1.363 . S
C330 C320 1.465 . S
C330 U326 2.847 . S
C330 O344 1.249 . S
C330 O345 1.202 . S
C331 C329 1.363 . S
C331 C333 1.408 1_545 S
C331 C336 1.342 . S
C332 C333 1.310 . S
C332 C335 1.461 . S
C332 H352 0.932 . S
C333 C331 1.408 1_565 S
C333 C332 1.310 . S
C333 H353 0.930 . S
C334 C335 1.474 . S
C334 C336 1.285 1_565 S
C334 H354 0.929 . S
C335 C332 1.461 . S
C335 C334 1.474 . S
C336 C331 1.342 . S
C336 C334 1.285 1_545 S
C336 H355 0.930 . S
C337 C340 1.424 . S
C337 C342 1.245 . S
C337 C343 1.428 . S
C338 C341 1.260 . S
C338 C342 1.477 . S
C338 H356 0.932 . S
C339 C340 1.384 . S
C339 C341 1.479 . S
C339 H357 0.929 . S
C340 C337 1.424 . S
C340 C339 1.384 . S
C340 H358 0.928 . S
C341 C338 1.260 . S
C341 C339 1.479 . S
C342 C337 1.245 . S
C342 C338 1.477 . S
C342 H359 0.932 . S
C343 U326 2.882 . S
C343 C337 1.428 . S
C343 O346 1.301 . S
C343 O347 1.282 . S
O344 U326 2.441 . S
O344 C330 1.249 . S
O345 U326 2.420 . S
O345 C330 1.202 . S
O346 U326 2.455 . S
O346 C343 1.301 . S
O347 U326 2.449 . S
O347 C343 1.282 . S
H348 C321 0.931 . S
H349 C323 0.929 . S
H350 C324 0.930 . S
H351 C325 0.931 . S
H352 C332 0.932 . S
H353 C333 0.930 . S
H354 C334 0.929 . S
H355 C336 0.930 . S
H356 C338 0.932 . S
H357 C339 0.929 . S
H358 C340 0.928 . S
H359 C342 0.932 . S
C360 C361 1.264 . S
C360 C365 1.479 1_545 S
C360 C370 1.465 . S
C361 C360 1.264 . S
C361 C363 1.339 1_545 S
C361 H388 0.931 . S
C362 C363 1.395 . S
C362 C364 1.320 . S
C363 C361 1.339 1_565 S
C363 C362 1.395 . S
C363 H389 0.929 . S
C364 C362 1.320 . S
C364 C365 1.405 . S
C364 H390 0.930 . S
C365 C360 1.479 1_565 S
C365 C364 1.405 . S
C365 H391 0.931 . S
U366 O367 2.454 . S
U366 O368 2.458 . S
U366 C369 2.984 . S
U366 C370 2.847 . S
U366 C383 2.882 . S
U366 O384 2.441 . S
U366 O385 2.420 . S
U366 O386 2.455 . S
U366 O387 2.449 . S
O367 U366 2.454 . S
O367 C369 1.353 . S
O368 U366 2.458 . S
O368 C369 1.286 . S
C369 U366 2.984 . S
C369 O367 1.353 . S
C369 O368 1.286 . S
C369 C371 1.363 . S
C370 C360 1.465 . S
C370 U366 2.847 . S
C370 O384 1.249 . S
C370 O385 1.202 . S
C371 C369 1.363 . S
C371 C373 1.408 . S
C371 C376 1.342 . S
C372 C373 1.310 . S
C372 C375 1.461 . S
C372 H392 0.932 . S
C373 C371 1.408 . S
C373 C372 1.310 . S
C373 H393 0.930 . S
C374 C375 1.474 . S
C374 C376 1.285 . S
C374 H394 0.929 . S
C375 C372 1.461 . S
C375 C374 1.474 . S
C376 C371 1.342 . S
C376 C374 1.285 . S
C376 H395 0.930 . S
C377 C380 1.424 . S
C377 C382 1.245 . S
C377 C383 1.428 . S
C378 C381 1.260 . S
C378 C382 1.477 . S
C378 H396 0.932 . S
C379 C380 1.384 . S
C379 C381 1.479 . S
C379 H397 0.929 . S
C380 C377 1.424 . S
C380 C379 1.384 . S
C380 H398 0.928 . S
C381 C378 1.260 . S
C381 C379 1.479 . S
C382 C377 1.245 . S
C382 C378 1.477 . S
C382 H399 0.932 . S
C383 U366 2.882 . S
C383 C377 1.428 . S
C383 O386 1.301 . S
C383 O387 1.282 . S
O384 U366 2.441 . S
O384 C370 1.249 . S
O385 U366 2.420 . S
O385 C370 1.202 . S
O386 U366 2.455 . S
O386 C383 1.301 . S
O387 U366 2.449 . S
O387 C383 1.282 . S
H388 C361 0.931 . S
H389 C363 0.929 . S
H390 C364 0.930 . S
H391 C365 0.931 . S
H392 C372 0.932 . S
H393 C373 0.930 . S
H394 C374 0.929 . S
H395 C376 0.930 . S
H396 C378 0.932 . S
H397 C379 0.929 . S
H398 C380 0.928 . S
H399 C382 0.932 . S
C400 C401 1.264 . S
C400 C405 1.479 1_565 S
C400 C410 1.465 . S
C401 C400 1.264 . S
C401 C403 1.339 1_565 S
C401 H428 0.931 . S
C402 C403 1.395 . S
C402 C404 1.320 . S
C403 C401 1.339 1_545 S
C403 C402 1.395 . S
C403 H429 0.929 . S
C404 C402 1.320 . S
C404 C405 1.405 . S
C404 H430 0.930 . S
C405 C400 1.479 1_545 S
C405 C404 1.405 . S
C405 H431 0.931 . S
U406 O407 2.454 . S
U406 O408 2.458 . S
U406 C409 2.984 . S
U406 C410 2.847 . S
U406 C423 2.882 . S
U406 O424 2.441 . S
U406 O425 2.420 . S
U406 O426 2.455 . S
U406 O427 2.449 . S
O407 U406 2.454 . S
O407 C409 1.353 . S
O408 U406 2.458 . S
O408 C409 1.286 . S
C409 U406 2.984 . S
C409 O407 1.353 . S
C409 O408 1.286 . S
C409 C411 1.363 . S
C410 C400 1.465 . S
C410 U406 2.847 . S
C410 O424 1.249 . S
C410 O425 1.202 . S
C411 C409 1.363 . S
C411 C413 1.408 . S
C411 C416 1.342 . S
C412 C413 1.310 . S
C412 C415 1.461 . S
C412 H432 0.932 . S
C413 C411 1.408 . S
C413 C412 1.310 . S
C413 H433 0.930 . S
C414 C415 1.474 . S
C414 C416 1.285 . S
C414 H434 0.929 . S
C415 C412 1.461 . S
C415 C414 1.474 . S
C416 C411 1.342 . S
C416 C414 1.285 . S
C416 H435 0.930 . S
C417 C420 1.424 . S
C417 C422 1.245 . S
C417 C423 1.428 . S
C418 C421 1.260 . S
C418 C422 1.477 . S
C418 H436 0.932 . S
C419 C420 1.384 . S
C419 C421 1.479 . S
C419 H437 0.929 . S
C420 C417 1.424 . S
C420 C419 1.384 . S
C420 H438 0.928 . S
C421 C418 1.260 . S
C421 C419 1.479 . S
C422 C417 1.245 . S
C422 C418 1.477 . S
C422 H439 0.932 . S
C423 U406 2.882 . S
C423 C417 1.428 . S
C423 O426 1.301 . S
C423 O427 1.282 . S
O424 U406 2.441 . S
O424 C410 1.249 . S
O425 U406 2.420 . S
O425 C410 1.202 . S
O426 U406 2.455 . S
O426 C423 1.301 . S
O427 U406 2.449 . S
O427 C423 1.282 . S
H428 C401 0.931 . S
H429 C403 0.929 . S
H430 C404 0.930 . S
H431 C405 0.931 . S
H432 C412 0.932 . S
H433 C413 0.930 . S
H434 C414 0.929 . S
H435 C416 0.930 . S
H436 C418 0.932 . S
H437 C419 0.929 . S
H438 C420 0.928 . S
H439 C422 0.932 . S
C440 C441 1.264 . S
C440 C445 1.479 . S
C440 C450 1.465 . S
C441 C440 1.264 . S
C441 C443 1.339 . S
C441 H468 0.931 . S
C442 C443 1.395 . S
C442 C444 1.320 . S
C443 C441 1.339 . S
C443 C442 1.395 . S
C443 H469 0.929 . S
C444 C442 1.320 . S
C444 C445 1.405 . S
C444 H470 0.930 . S
C445 C440 1.479 . S
C445 C444 1.405 . S
C445 H471 0.931 . S
U446 O447 2.454 . S
U446 O448 2.458 . S
U446 C449 2.984 . S
U446 C450 2.847 . S
U446 C463 2.882 . S
U446 O464 2.441 . S
U446 O465 2.420 . S
U446 O466 2.455 . S
U446 O467 2.449 . S
O447 U446 2.454 . S
O447 C449 1.353 . S
O448 U446 2.458 . S
O448 C449 1.286 . S
C449 U446 2.984 . S
C449 O447 1.353 . S
C449 O448 1.286 . S
C449 C451 1.363 . S
C450 C440 1.465 . S
C450 U446 2.847 . S
C450 O464 1.249 . S
C450 O465 1.202 . S
C451 C449 1.363 . S
C451 C453 1.408 1_565 S
C451 C456 1.342 . S
C452 C453 1.310 . S
C452 C455 1.461 . S
C452 H472 0.932 . S
C453 C451 1.408 1_545 S
C453 C452 1.310 . S
C453 H473 0.930 . S
C454 C455 1.474 . S
C454 C456 1.285 1_545 S
C454 H474 0.929 . S
C455 C452 1.461 . S
C455 C454 1.474 . S
C456 C451 1.342 . S
C456 C454 1.285 1_565 S
C456 H475 0.930 . S
C457 C460 1.424 . S
C457 C462 1.245 . S
C457 C463 1.428 . S
C458 C461 1.260 . S
C458 C462 1.477 . S
C458 H476 0.932 . S
C459 C460 1.384 . S
C459 C461 1.479 . S
C459 H477 0.929 . S
C460 C457 1.424 . S
C460 C459 1.384 . S
C460 H478 0.928 . S
C461 C458 1.260 . S
C461 C459 1.479 . S
C462 C457 1.245 . S
C462 C458 1.477 . S
C462 H479 0.932 . S
C463 U446 2.882 . S
C463 C457 1.428 . S
C463 O466 1.301 . S
C463 O467 1.282 . S
O464 U446 2.441 . S
O464 C450 1.249 . S
O465 U446 2.420 . S
O465 C450 1.202 . S
O466 U446 2.455 . S
O466 C463 1.301 . S
O467 U446 2.449 . S
O467 C463 1.282 . S
H468 C441 0.931 . S
H469 C443 0.929 . S
H470 C444 0.930 . S
H471 C445 0.931 . S
H472 C452 0.932 . S
H473 C453 0.930 . S
H474 C454 0.929 . S
H475 C456 0.930 . S
H476 C458 0.932 . S
H477 C459 0.929 . S
H478 C460 0.928 . S
H479 C462 0.932 . S
C480 C481 1.264 . S
C480 C485 1.479 . S
C480 C490 1.465 . S
C481 C480 1.264 . S
C481 C483 1.339 . S
C481 H508 0.931 . S
C482 C483 1.395 . S
C482 C484 1.320 . S
C483 C481 1.339 . S
C483 C482 1.395 . S
C483 H509 0.929 . S
C484 C482 1.320 . S
C484 C485 1.405 . S
C484 H510 0.930 . S
C485 C480 1.479 . S
C485 C484 1.405 . S
C485 H511 0.931 . S
U486 O487 2.454 . S
U486 O488 2.458 . S
U486 C489 2.984 . S
U486 C490 2.847 . S
U486 C503 2.882 . S
U486 O504 2.441 . S
U486 O505 2.420 . S
U486 O506 2.455 . S
U486 O507 2.449 . S
O487 U486 2.454 . S
O487 C489 1.353 . S
O488 U486 2.458 . S
O488 C489 1.286 . S
C489 U486 2.984 . S
C489 O487 1.353 . S
C489 O488 1.286 . S
C489 C491 1.363 . S
C490 C480 1.465 . S
C490 U486 2.847 . S
C490 O504 1.249 . S
C490 O505 1.202 . S
C491 C489 1.363 . S
C491 C493 1.408 1_554 S
C491 C496 1.342 . S
C492 C493 1.310 . S
C492 C495 1.461 . S
C492 H512 0.932 . S
C493 C491 1.408 1_556 S
C493 C492 1.310 . S
C493 H513 0.948 . S
C494 C495 1.474 . S
C494 C496 1.285 1_556 S
C494 H514 0.929 . S
C495 C492 1.461 . S
C495 C494 1.474 . S
C496 C491 1.342 . S
C496 C494 1.285 1_554 S
C496 H515 0.930 . S
C497 C500 1.424 . S
C497 C502 1.245 . S
C497 C503 1.428 . S
C498 C501 1.260 . S
C498 C502 1.477 . S
C498 H516 0.932 . S
C499 C500 1.384 . S
C499 C501 1.479 . S
C499 H517 0.929 . S
C500 C497 1.424 . S
C500 C499 1.384 . S
C500 H518 0.928 . S
C501 C498 1.260 . S
C501 C499 1.479 . S
C502 C497 1.245 . S
C502 C498 1.477 . S
C502 H519 0.932 . S
C503 U486 2.882 . S
C503 C497 1.428 . S
C503 O506 1.301 . S
C503 O507 1.282 . S
O504 U486 2.441 . S
O504 C490 1.249 . S
O505 U486 2.420 . S
O505 C490 1.202 . S
O506 U486 2.455 . S
O506 C503 1.301 . S
O507 U486 2.449 . S
O507 C503 1.282 . S
H508 C481 0.931 . S
H509 C483 0.929 . S
H510 C484 0.930 . S
H511 C485 0.931 . S
H512 C492 0.932 . S
H513 C493 0.948 . S
H514 C494 0.929 . S
H515 C496 0.930 . S
H516 C498 0.932 . S
H517 C499 0.929 . S
H518 C500 0.928 . S
H519 C502 0.932 . S
C520 C521 1.264 . S
C520 C525 1.479 . S
C520 C530 1.465 1_455 S
C521 C520 1.264 . S
C521 C523 1.339 . S
C521 H548 0.931 . S
C522 C523 1.395 . S
C522 C524 1.320 . S
C523 C521 1.339 . S
C523 C522 1.395 . S
C523 H549 0.929 . S
C524 C522 1.320 . S
C524 C525 1.405 . S
C524 H550 0.930 . S
C525 C520 1.479 . S
C525 C524 1.405 . S
C525 H551 0.931 . S
U526 O527 2.454 . S
U526 O528 2.458 . S
U526 C529 2.984 . S
U526 C530 2.847 . S
U526 C543 2.882 . S
U526 O544 2.441 . S
U526 O545 2.420 . S
U526 O546 2.455 . S
U526 O547 2.449 . S
O527 U526 2.454 . S
O527 C529 1.353 . S
O528 U526 2.458 . S
O528 C529 1.286 . S
C529 U526 2.984 . S
C529 O527 1.353 . S
C529 O528 1.286 . S
C529 C531 1.363 . S
C530 C520 1.465 1_655 S
C530 U526 2.847 . S
C530 O544 1.249 . S
C530 O545 1.202 . S
C531 C529 1.363 . S
C531 C533 1.408 . S
C531 C536 1.342 . S
C532 C533 1.310 . S
C532 C535 1.461 . S
C532 H552 0.932 . S
C533 C531 1.408 . S
C533 C532 1.310 . S
C533 H553 0.930 . S
C534 C535 1.474 . S
C534 C536 1.285 . S
C534 H554 0.929 . S
C535 C532 1.461 . S
C535 C534 1.474 . S
C536 C531 1.342 . S
C536 C534 1.285 . S
C536 H555 0.930 . S
C537 C540 1.424 . S
C537 C542 1.245 . S
C537 C543 1.428 . S
C538 C541 1.260 . S
C538 C542 1.477 . S
C538 H556 0.932 . S
C539 C540 1.384 . S
C539 C541 1.479 . S
C539 H557 0.929 . S
C540 C537 1.424 . S
C540 C539 1.384 . S
C540 H558 0.928 . S
C541 C538 1.260 . S
C541 C539 1.479 . S
C542 C537 1.245 . S
C542 C538 1.477 . S
C542 H559 0.932 . S
C543 U526 2.882 . S
C543 C537 1.428 . S
C543 O546 1.301 . S
C543 O547 1.282 . S
O544 U526 2.441 . S
O544 C530 1.249 . S
O545 U526 2.420 . S
O545 C530 1.202 . S
O546 U526 2.455 . S
O546 C543 1.301 . S
O547 U526 2.449 . S
O547 C543 1.282 . S
H548 C521 0.931 . S
H549 C523 0.929 . S
H550 C524 0.930 . S
H551 C525 0.931 . S
H552 C532 0.932 . S
H553 C533 0.930 . S
H554 C534 0.929 . S
H555 C536 0.930 . S
H556 C538 0.932 . S
H557 C539 0.929 . S
H558 C540 0.928 . S
H559 C542 0.932 . S
C560 C561 1.264 . S
C560 C565 1.479 . S
C560 C570 1.465 . S
C561 C560 1.264 . S
C561 C563 1.339 . S
C561 H588 0.931 . S
C562 C563 1.395 . S
C562 C564 1.320 . S
C563 C561 1.339 . S
C563 C562 1.395 . S
C563 H589 0.929 . S
C564 C562 1.320 . S
C564 C565 1.405 . S
C564 H590 0.930 . S
C565 C560 1.479 . S
C565 C564 1.405 . S
C565 H591 0.931 . S
U566 O567 2.454 . S
U566 O568 2.458 . S
U566 C569 2.984 . S
U566 C570 2.847 . S
U566 C583 2.882 . S
U566 O584 2.441 . S
U566 O585 2.420 . S
U566 O586 2.455 . S
U566 O587 2.449 . S
O567 U566 2.454 . S
O567 C569 1.353 . S
O568 U566 2.458 . S
O568 C569 1.286 . S
C569 U566 2.984 . S
C569 O567 1.353 . S
C569 O568 1.286 . S
C569 C571 1.363 . S
C570 C560 1.465 . S
C570 U566 2.847 . S
C570 O584 1.249 . S
C570 O585 1.202 . S
C571 C569 1.363 . S
C571 C573 1.408 . S
C571 C576 1.342 . S
C572 C573 1.310 . S
C572 C575 1.461 . S
C572 H592 0.932 . S
C573 C571 1.408 . S
C573 C572 1.310 . S
C573 H593 0.930 . S
C574 C575 1.474 . S
C574 C576 1.285 . S
C574 H594 0.929 . S
C575 C572 1.461 . S
C575 C574 1.474 . S
C576 C571 1.342 . S
C576 C574 1.285 . S
C576 H595 0.930 . S
C577 C580 1.424 . S
C577 C582 1.245 . S
C577 C583 1.428 . S
C578 C581 1.260 . S
C578 C582 1.477 . S
C578 H596 0.932 . S
C579 C580 1.384 . S
C579 C581 1.479 . S
C579 H597 0.929 . S
C580 C577 1.424 . S
C580 C579 1.384 . S
C580 H598 0.928 . S
C581 C578 1.260 . S
C581 C579 1.479 . S
C582 C577 1.245 . S
C582 C578 1.477 . S
C582 H599 0.932 . S
C583 U566 2.882 . S
C583 C577 1.428 . S
C583 O586 1.301 . S
C583 O587 1.282 . S
O584 U566 2.441 . S
O584 C570 1.249 . S
O585 U566 2.420 . S
O585 C570 1.202 . S
O586 U566 2.455 . S
O586 C583 1.301 . S
O587 U566 2.449 . S
O587 C583 1.282 . S
H588 C561 0.931 . S
H589 C563 0.929 . S
H590 C564 0.930 . S
H591 C565 0.931 . S
H592 C572 0.932 . S
H593 C573 0.930 . S
H594 C574 0.929 . S
H595 C576 0.930 . S
H596 C578 0.932 . S
H597 C579 0.929 . S
H598 C580 0.928 . S
H599 C582 0.932 . S
C600 C601 1.264 . S
C600 C605 1.479 . S
C600 C610 1.465 . S
C601 C600 1.264 . S
C601 C603 1.339 . S
C601 H628 0.931 . S
C602 C603 1.395 . S
C602 C604 1.320 . S
C603 C601 1.339 . S
C603 C602 1.395 . S
C603 H629 0.929 . S
C604 C602 1.320 . S
C604 C605 1.405 . S
C604 H630 0.930 . S
C605 C600 1.479 . S
C605 C604 1.405 . S
C605 H631 0.931 . S
U606 O607 2.454 1_655 S
U606 O608 2.458 1_655 S
U606 C609 2.984 1_655 S
U606 C610 2.847 . S
U606 C623 2.882 . S
U606 O624 2.441 . S
U606 O625 2.420 . S
U606 O626 2.455 . S
U606 O627 2.449 . S
O607 U606 2.454 1_455 S
O607 C609 1.353 . S
O608 U606 2.458 1_455 S
O608 C609 1.286 . S
C609 U606 2.984 1_455 S
C609 O607 1.353 . S
C609 O608 1.286 . S
C609 C611 1.363 . S
C610 C600 1.465 . S
C610 U606 2.847 . S
C610 O624 1.249 . S
C610 O625 1.202 . S
C611 C609 1.363 . S
C611 C613 1.408 . S
C611 C616 1.342 . S
C612 C613 1.310 . S
C612 C615 1.461 . S
C612 H632 0.932 . S
C613 C611 1.408 . S
C613 C612 1.310 . S
C613 H633 0.930 . S
C614 C615 1.474 . S
C614 C616 1.285 . S
C614 H634 0.929 . S
C615 C612 1.461 . S
C615 C614 1.474 . S
C616 C611 1.342 . S
C616 C614 1.285 . S
C616 H635 0.930 . S
C617 C620 1.424 . S
C617 C622 1.245 . S
C617 C623 1.428 . S
C618 C621 1.260 . S
C618 C622 1.477 . S
C618 H636 0.932 . S
C619 C620 1.384 . S
C619 C621 1.479 . S
C619 H637 0.929 . S
C620 C617 1.424 . S
C620 C619 1.384 . S
C620 H638 0.928 . S
C621 C618 1.260 . S
C621 C619 1.479 . S
C622 C617 1.245 . S
C622 C618 1.477 . S
C622 H639 0.932 . S
C623 U606 2.882 . S
C623 C617 1.428 . S
C623 O626 1.301 . S
C623 O627 1.282 . S
O624 U606 2.441 . S
O624 C610 1.249 . S
O625 U606 2.420 . S
O625 C610 1.202 . S
O626 U606 2.455 . S
O626 C623 1.301 . S
O627 U606 2.449 . S
O627 C623 1.282 . S
H628 C601 0.931 . S
H629 C603 0.929 . S
H630 C604 0.930 . S
H631 C605 0.931 . S
H632 C612 0.932 . S
H633 C613 0.930 . S
H634 C614 0.929 . S
H635 C616 0.930 . S
H636 C618 0.932 . S
H637 C619 0.929 . S
H638 C620 0.928 . S
H639 C622 0.932 . S
C640 C641 1.264 . S
C640 C645 1.479 . S
C640 C650 1.465 . S
C641 C640 1.264 . S
C641 C643 1.339 . S
C641 H668 0.931 . S
C642 C643 1.395 . S
C642 C644 1.320 . S
C643 C641 1.339 . S
C643 C642 1.395 . S
C643 H669 0.929 . S
C644 C642 1.320 . S
C644 C645 1.405 . S
C644 H670 0.930 . S
C645 C640 1.479 . S
C645 C644 1.405 . S
C645 H671 0.931 . S
U646 O647 2.454 . S
U646 O648 2.458 . S
U646 C649 2.984 . S
U646 C650 2.847 . S
U646 C663 2.882 . S
U646 O664 2.441 . S
U646 O665 2.420 . S
U646 O666 2.455 . S
U646 O667 2.449 . S
O647 U646 2.454 . S
O647 C649 1.353 . S
O648 U646 2.458 . S
O648 C649 1.286 . S
C649 U646 2.984 . S
C649 O647 1.353 . S
C649 O648 1.286 . S
C649 C651 1.363 . S
C650 C640 1.465 . S
C650 U646 2.847 . S
C650 O664 1.249 . S
C650 O665 1.202 . S
C651 C649 1.363 . S
C651 C653 1.408 . S
C651 C656 1.342 . S
C652 C653 1.310 . S
C652 C655 1.461 . S
C652 H672 0.932 . S
C653 C651 1.408 . S
C653 C652 1.310 . S
C653 H673 0.930 . S
C654 C655 1.474 . S
C654 C656 1.285 . S
C654 H674 0.929 . S
C655 C652 1.461 . S
C655 C654 1.474 . S
C656 C651 1.342 . S
C656 C654 1.285 . S
C656 H675 0.930 . S
C657 C660 1.424 . S
C657 C662 1.245 . S
C657 C663 1.428 . S
C658 C661 1.260 . S
C658 C662 1.477 . S
C658 H676 0.932 . S
C659 C660 1.384 . S
C659 C661 1.479 . S
C659 H677 0.929 . S
C660 C657 1.424 . S
C660 C659 1.384 . S
C660 H678 0.928 . S
C661 C658 1.260 . S
C661 C659 1.479 . S
C662 C657 1.245 . S
C662 C658 1.477 . S
C662 H679 0.932 . S
C663 U646 2.882 . S
C663 C657 1.428 . S
C663 O666 1.301 . S
C663 O667 1.282 . S
O664 U646 2.441 . S
O664 C650 1.249 . S
O665 U646 2.420 . S
O665 C650 1.202 . S
O666 U646 2.455 . S
O666 C663 1.301 . S
O667 U646 2.449 . S
O667 C663 1.282 . S
H668 C641 0.931 . S
H669 C643 0.929 . S
H670 C644 0.930 . S
H671 C645 0.931 . S
H672 C652 0.932 . S
H673 C653 0.930 . S
H674 C654 0.929 . S
H675 C656 0.930 . S
H676 C658 0.932 . S
H677 C659 0.929 . S
H678 C660 0.928 . S
H679 C662 0.932 . S
C680 C681 1.264 . S
C680 C685 1.479 . S
C680 C690 1.465 . S
C681 C680 1.264 . S
C681 C683 1.339 . S
C681 H708 0.931 . S
C682 C683 1.395 . S
C682 C684 1.320 . S
C683 C681 1.339 . S
C683 C682 1.395 . S
C683 H709 0.929 . S
C684 C682 1.320 . S
C684 C685 1.405 . S
C684 H710 0.930 . S
C685 C680 1.479 . S
C685 C684 1.405 . S
C685 H711 0.931 . S
U686 O687 2.454 . S
U686 O688 2.458 . S
U686 C689 2.984 . S
U686 C690 2.847 . S
U686 C703 2.882 . S
U686 O704 2.441 . S
U686 O705 2.420 . S
U686 O706 2.455 . S
U686 O707 2.449 . S
O687 U686 2.454 . S
O687 C689 1.353 . S
O688 U686 2.458 . S
O688 C689 1.286 . S
C689 U686 2.984 . S
C689 O687 1.353 . S
C689 O688 1.286 . S
C689 C691 1.363 . S
C690 C680 1.465 . S
C690 U686 2.847 . S
C690 O704 1.249 . S
C690 O705 1.202 . S
C691 C689 1.363 . S
C691 C693 1.408 . S
C691 C696 1.342 . S
C692 C693 1.310 . S
C692 C695 1.461 . S
C692 H712 0.932 . S
C693 C691 1.408 . S
C693 C692 1.310 . S
C693 H713 0.930 . S
C694 C695 1.474 . S
C694 C696 1.285 . S
C694 H714 0.929 . S
C695 C692 1.461 . S
C695 C694 1.474 . S
C696 C691 1.342 . S
C696 C694 1.285 . S
C696 H715 0.930 . S
C697 C700 1.424 . S
C697 C702 1.245 . S
C697 C703 1.428 . S
C698 C701 1.260 . S
C698 C702 1.477 . S
C698 H716 0.932 . S
C699 C700 1.384 . S
C699 C701 1.479 . S
C699 H717 0.929 . S
C700 C697 1.424 . S
C700 C699 1.384 . S
C700 H718 0.928 . S
C701 C698 1.260 . S
C701 C699 1.479 . S
C702 C697 1.245 . S
C702 C698 1.477 . S
C702 H719 0.932 . S
C703 U686 2.882 . S
C703 C697 1.428 . S
C703 O706 1.301 . S
C703 O707 1.282 . S
O704 U686 2.441 . S
O704 C690 1.249 . S
O705 U686 2.420 . S
O705 C690 1.202 . S
O706 U686 2.455 . S
O706 C703 1.301 . S
O707 U686 2.449 . S
O707 C703 1.282 . S
H708 C681 0.931 . S
H709 C683 0.929 . S
H710 C684 0.930 . S
H711 C685 0.931 . S
H712 C692 0.932 . S
H713 C693 0.930 . S
H714 C694 0.929 . S
H715 C696 0.930 . S
H716 C698 0.932 . S
H717 C699 0.929 . S
H718 C700 0.928 . S
H719 C702 0.932 . S
C720 C721 1.264 . S
C720 C725 1.479 . S
C720 C730 1.465 . S
C721 C720 1.264 . S
C721 C723 1.339 . S
C721 H748 0.931 . S
C722 C723 1.395 . S
C722 C724 1.320 . S
C723 C721 1.339 . S
C723 C722 1.395 . S
C723 H749 0.929 . S
C724 C722 1.320 . S
C724 C725 1.405 . S
C724 H750 0.930 . S
C725 C720 1.479 . S
C725 C724 1.405 . S
C725 H751 0.931 . S
U726 O727 2.454 . S
U726 O728 2.458 . S
U726 C729 2.984 . S
U726 C730 2.847 . S
U726 C743 2.882 . S
U726 O744 2.441 . S
U726 O745 2.420 . S
U726 O746 2.455 . S
U726 O747 2.449 . S
O727 U726 2.454 . S
O727 C729 1.353 . S
O728 U726 2.458 . S
O728 C729 1.286 . S
C729 U726 2.984 . S
C729 O727 1.353 . S
C729 O728 1.286 . S
C729 C731 1.363 1_556 S
C730 C720 1.465 . S
C730 U726 2.847 . S
C730 O744 1.249 . S
C730 O745 1.202 . S
C731 C729 1.363 1_554 S
C731 C733 1.408 . S
C731 C736 1.342 . S
C732 C733 1.310 . S
C732 C735 1.461 . S
C732 H752 0.932 . S
C733 C731 1.408 . S
C733 C732 1.310 . S
C733 H753 0.930 . S
C734 C735 1.474 . S
C734 C736 1.285 . S
C734 H754 0.929 . S
C735 C732 1.461 . S
C735 C734 1.474 . S
C736 C731 1.342 . S
C736 C734 1.285 . S
C736 H755 0.930 . S
C737 C740 1.424 . S
C737 C742 1.245 . S
C737 C743 1.428 . S
C738 C741 1.260 . S
C738 C742 1.477 . S
C738 H756 0.932 . S
C739 C740 1.384 . S
C739 C741 1.479 . S
C739 H757 0.929 . S
C740 C737 1.424 . S
C740 C739 1.384 . S
C740 H758 0.928 . S
C741 C738 1.260 . S
C741 C739 1.479 . S
C742 C737 1.245 . S
C742 C738 1.477 . S
C742 H759 0.932 . S
C743 U726 2.882 . S
C743 C737 1.428 . S
C743 O746 1.301 . S
C743 O747 1.282 . S
O744 U726 2.441 . S
O744 C730 1.249 . S
O745 U726 2.420 . S
O745 C730 1.202 . S
O746 U726 2.455 . S
O746 C743 1.301 . S
O747 U726 2.449 . S
O747 C743 1.282 . S
H748 C721 0.931 . S
H749 C723 0.929 . S
H750 C724 0.930 . S
H751 C725 0.931 . S
H752 C732 0.932 . S
H753 C733 0.930 . S
H754 C734 0.929 . S
H755 C736 0.930 . S
H756 C738 0.932 . S
H757 C739 0.929 . S
H758 C740 0.928 . S
H759 C742 0.932 . S
C760 C761 1.264 . S
C760 C765 1.479 . S
C760 C770 1.465 . S
C761 C760 1.264 . S
C761 C763 1.339 . S
C761 H788 0.931 . S
C762 C763 1.395 . S
C762 C764 1.320 . S
C763 C761 1.339 . S
C763 C762 1.395 . S
C763 H789 0.929 . S
C764 C762 1.320 . S
C764 C765 1.405 . S
C764 H790 0.930 . S
C765 C760 1.479 . S
C765 C764 1.405 . S
C765 H791 0.931 . S
U766 O767 2.454 . S
U766 O768 2.458 . S
U766 C769 2.984 . S
U766 C770 2.847 1_655 S
U766 C783 2.882 . S
U766 O784 2.441 1_655 S
U766 O785 2.420 1_655 S
U766 O786 2.455 . S
U766 O787 2.449 . S
O767 U766 2.454 . S
O767 C769 1.353 . S
O768 U766 2.458 . S
O768 C769 1.286 . S
C769 U766 2.984 . S
C769 O767 1.353 . S
C769 O768 1.286 . S
C769 C771 1.363 . S
C770 C760 1.465 . S
C770 U766 2.847 1_455 S
C770 O784 1.249 . S
C770 O785 1.202 . S
C771 C769 1.363 . S
C771 C773 1.408 . S
C771 C776 1.342 . S
C772 C773 1.310 . S
C772 C775 1.461 . S
C772 H792 0.932 . S
C773 C771 1.408 . S
C773 C772 1.310 . S
C773 H793 0.930 . S
C774 C775 1.474 . S
C774 C776 1.285 . S
C774 H794 0.929 . S
C775 C772 1.461 . S
C775 C774 1.474 . S
C776 C771 1.342 . S
C776 C774 1.285 . S
C776 H795 0.930 . S
C777 C780 1.424 . S
C777 C782 1.245 . S
C777 C783 1.428 . S
C778 C781 1.260 . S
C778 C782 1.477 . S
C778 H796 0.932 . S
C779 C780 1.384 . S
C779 C781 1.479 . S
C779 H797 0.929 . S
C780 C777 1.424 . S
C780 C779 1.384 . S
C780 H798 0.928 . S
C781 C778 1.260 . S
C781 C779 1.479 . S
C782 C777 1.245 . S
C782 C778 1.477 . S
C782 H799 0.932 . S
C783 U766 2.882 . S
C783 C777 1.428 . S
C783 O786 1.301 . S
C783 O787 1.282 . S
O784 U766 2.441 1_455 S
O784 C770 1.249 . S
O785 U766 2.420 1_455 S
O785 C770 1.202 . S
O786 U766 2.455 . S
O786 C783 1.301 . S
O787 U766 2.449 . S
O787 C783 1.282 . S
H788 C761 0.931 . S
H789 C763 0.929 . S
H790 C764 0.930 . S
H791 C765 0.931 . S
H792 C772 0.932 . S
H793 C773 0.930 . S
H794 C774 0.929 . S
H795 C776 0.930 . S
H796 C778 0.932 . S
H797 C779 0.929 . S
H798 C780 0.928 . S
H799 C782 0.932 . S
C800 C801 1.264 . S
C800 C805 1.479 . S
C800 C810 1.465 . S
C801 C800 1.264 . S
C801 C803 1.339 . S
C801 H828 0.931 . S
C802 C803 1.395 . S
C802 C804 1.320 . S
C803 C801 1.339 . S
C803 C802 1.395 . S
C803 H829 0.929 . S
C804 C802 1.320 . S
C804 C805 1.405 . S
C804 H830 0.930 . S
C805 C800 1.479 . S
C805 C804 1.405 . S
C805 H831 0.931 . S
U806 O807 2.454 . S
U806 O808 2.458 . S
U806 C809 2.984 . S
U806 C810 2.847 . S
U806 C823 2.882 . S
U806 O824 2.441 . S
U806 O825 2.420 . S
U806 O826 2.455 . S
U806 O827 2.449 . S
O807 U806 2.454 . S
O807 C809 1.353 . S
O808 U806 2.458 . S
O808 C809 1.286 . S
C809 U806 2.984 . S
C809 O807 1.353 . S
C809 O808 1.286 . S
C809 C811 1.363 . S
C810 C800 1.465 . S
C810 U806 2.847 . S
C810 O824 1.249 . S
C810 O825 1.202 . S
C811 C809 1.363 . S
C811 C813 1.408 . S
C811 C816 1.342 . S
C812 C813 1.310 . S
C812 C815 1.461 . S
C812 H832 0.932 . S
C813 C811 1.408 . S
C813 C812 1.310 . S
C813 H833 0.930 . S
C814 C815 1.474 . S
C814 C816 1.285 . S
C814 H834 0.929 . S
C815 C812 1.461 . S
C815 C814 1.474 . S
C816 C811 1.342 . S
C816 C814 1.285 . S
C816 H835 0.930 . S
C817 C820 1.424 . S
C817 C822 1.245 . S
C817 C823 1.428 . S
C818 C821 1.260 . S
C818 C822 1.477 . S
C818 H836 0.932 . S
C819 C820 1.384 . S
C819 C821 1.479 . S
C819 H837 0.929 . S
C820 C817 1.424 . S
C820 C819 1.384 . S
C820 H838 0.928 . S
C821 C818 1.260 . S
C821 C819 1.479 . S
C822 C817 1.245 . S
C822 C818 1.477 . S
C822 H839 0.932 . S
C823 U806 2.882 . S
C823 C817 1.428 . S
C823 O826 1.301 . S
C823 O827 1.282 . S
O824 U806 2.441 . S
O824 C810 1.249 . S
O825 U806 2.420 . S
O825 C810 1.202 . S
O826 U806 2.455 . S
O826 C823 1.301 . S
O827 U806 2.449 . S
O827 C823 1.282 . S
H828 C801 0.931 . S
H829 C803 0.929 . S
H830 C804 0.930 . S
H831 C805 0.931 . S
H832 C812 0.932 . S
H833 C813 0.930 . S
H834 C814 0.929 . S
H835 C816 0.930 . S
H836 C818 0.932 . S
H837 C819 0.929 . S
H838 C820 0.928 . S
H839 C822 0.932 . S
C840 C841 1.264 . S
C840 C845 1.479 . S
C840 C850 1.465 . S
C841 C840 1.264 . S
C841 C843 1.339 . S
C841 H868 0.931 . S
C842 C843 1.395 . S
C842 C844 1.320 . S
C843 C841 1.339 . S
C843 C842 1.395 . S
C843 H869 0.929 . S
C844 C842 1.320 . S
C844 C845 1.405 . S
C844 H870 0.930 . S
C845 C840 1.479 . S
C845 C844 1.405 . S
C845 H871 0.931 . S
U846 O847 2.454 . S
U846 O848 2.458 . S
U846 C849 2.984 . S
U846 C850 2.847 . S
U846 C863 2.882 . S
U846 O864 2.441 . S
U846 O865 2.420 . S
U846 O866 2.455 . S
U846 O867 2.449 . S
O847 U846 2.454 . S
O847 C849 1.353 . S
O848 U846 2.458 . S
O848 C849 1.286 . S
C849 U846 2.984 . S
C849 O847 1.353 . S
C849 O848 1.286 . S
C849 C851 1.363 . S
C850 C840 1.465 . S
C850 U846 2.847 . S
C850 O864 1.249 . S
C850 O865 1.202 . S
C851 C849 1.363 . S
C851 C853 1.408 . S
C851 C856 1.342 . S
C852 C853 1.310 . S
C852 C855 1.461 . S
C852 H872 0.932 . S
C853 C851 1.408 . S
C853 C852 1.310 . S
C853 H873 0.930 . S
C854 C855 1.474 . S
C854 C856 1.285 . S
C854 H874 0.929 . S
C855 C852 1.461 . S
C855 C854 1.474 . S
C856 C851 1.342 . S
C856 C854 1.285 . S
C856 H875 0.930 . S
C857 C860 1.424 . S
C857 C862 1.245 . S
C857 C863 1.428 . S
C858 C861 1.260 . S
C858 C862 1.477 . S
C858 H876 0.932 . S
C859 C860 1.384 . S
C859 C861 1.479 . S
C859 H877 0.929 . S
C860 C857 1.424 . S
C860 C859 1.384 . S
C860 H878 0.928 . S
C861 C858 1.260 . S
C861 C859 1.479 . S
C862 C857 1.245 . S
C862 C858 1.477 . S
C862 H879 0.932 . S
C863 U846 2.882 . S
C863 C857 1.428 . S
C863 O866 1.301 . S
C863 O867 1.282 . S
O864 U846 2.441 . S
O864 C850 1.249 . S
O865 U846 2.420 . S
O865 C850 1.202 . S
O866 U846 2.455 . S
O866 C863 1.301 . S
O867 U846 2.449 . S
O867 C863 1.282 . S
H868 C841 0.931 . S
H869 C843 0.929 . S
H870 C844 0.930 . S
H871 C845 0.931 . S
H872 C852 0.932 . S
H873 C853 0.930 . S
H874 C854 0.929 . S
H875 C856 0.930 . S
H876 C858 0.932 . S
H877 C859 0.929 . S
H878 C860 0.928 . S
H879 C862 0.932 . S
C880 C881 1.264 . S
C880 C885 1.479 . S
C880 C890 1.465 1_556 S
C881 C880 1.264 . S
C881 C883 1.339 . S
C881 H908 0.931 . S
C882 C883 1.395 . S
C882 C884 1.320 . S
C883 C881 1.339 . S
C883 C882 1.395 . S
C883 H909 0.929 . S
C884 C882 1.320 . S
C884 C885 1.405 . S
C884 H910 0.930 . S
C885 C880 1.479 . S
C885 C884 1.405 . S
C885 H911 0.931 . S
U886 O887 2.454 . S
U886 O888 2.458 . S
U886 C889 2.984 . S
U886 C890 2.847 . S
U886 C903 2.882 . S
U886 O904 2.441 . S
U886 O905 2.420 . S
U886 O906 2.455 . S
U886 O907 2.449 . S
O887 U886 2.454 . S
O887 C889 1.353 . S
O888 U886 2.458 . S
O888 C889 1.286 . S
C889 U886 2.984 . S
C889 O887 1.353 . S
C889 O888 1.286 . S
C889 C891 1.363 . S
C890 C880 1.465 1_554 S
C890 U886 2.847 . S
C890 O904 1.249 . S
C890 O905 1.202 . S
C891 C889 1.363 . S
C891 C893 1.408 . S
C891 C896 1.342 . S
C892 C893 1.310 . S
C892 C895 1.461 . S
C892 H912 0.932 . S
C893 C891 1.408 . S
C893 C892 1.310 . S
C893 H913 0.930 . S
C894 C895 1.474 . S
C894 C896 1.285 . S
C894 H914 0.929 . S
C895 C892 1.461 . S
C895 C894 1.474 . S
C896 C891 1.342 . S
C896 C894 1.285 . S
C896 H915 0.930 . S
C897 C900 1.424 . S
C897 C902 1.245 . S
C897 C903 1.428 . S
C898 C901 1.260 . S
C898 C902 1.477 . S
C898 H916 0.932 . S
C899 C900 1.384 . S
C899 C901 1.479 . S
C899 H917 0.929 . S
C900 C897 1.424 . S
C900 C899 1.384 . S
C900 H918 0.928 . S
C901 C898 1.260 . S
C901 C899 1.479 . S
C902 C897 1.245 . S
C902 C898 1.477 . S
C902 H919 0.932 . S
C903 U886 2.882 . S
C903 C897 1.428 . S
C903 O906 1.301 . S
C903 O907 1.282 . S
O904 U886 2.441 . S
O904 C890 1.249 . S
O905 U886 2.420 . S
O905 C890 1.202 . S
O906 U886 2.455 . S
O906 C903 1.301 . S
O907 U886 2.449 . S
O907 C903 1.282 . S
H908 C881 0.931 . S
H909 C883 0.929 . S
H910 C884 0.930 . S
H911 C885 0.931 . S
H912 C892 0.932 . S
H913 C893 0.930 . S
H914 C894 0.929 . S
H915 C896 0.930 . S
H916 C898 0.932 . S
H917 C899 0.929 . S
H918 C900 0.928 . S
H919 C902 0.932 . S
C920 C921 1.264 . S
C920 C925 1.479 . S
C920 C930 1.465 . S
C921 C920 1.264 . S
C921 C923 1.339 . S
C921 H948 0.931 . S
C922 C923 1.395 . S
C922 C924 1.320 . S
C923 C921 1.339 . S
C923 C922 1.395 . S
C923 H949 0.929 . S
C924 C922 1.320 . S
C924 C925 1.405 . S
C924 H950 0.930 . S
C925 C920 1.479 . S
C925 C924 1.405 . S
C925 H951 0.931 . S
U926 O927 2.454 1_565 S
U926 O928 2.458 1_565 S
U926 C929 2.984 1_565 S
U926 C930 2.847 . S
U926 C943 2.882 . S
U926 O944 2.441 . S
U926 O945 2.420 . S
U926 O946 2.455 . S
U926 O947 2.449 . S
O927 U926 2.454 1_545 S
O927 C929 1.353 . S
O928 U926 2.458 1_545 S
O928 C929 1.286 . S
C929 U926 2.984 1_545 S
C929 O927 1.353 . S
C929 O928 1.286 . S
C929 C931 1.363 . S
C930 C920 1.465 . S
C930 U926 2.847 . S
C930 O944 1.249 . S
C930 O945 1.202 . S
C931 C929 1.363 . S
C931 C933 1.408 . S
C931 C936 1.342 . S
C932 C933 1.310 . S
C932 C935 1.461 . S
C932 H952 0.932 . S
C933 C931 1.408 . S
C933 C932 1.310 . S
C933 H953 0.930 . S
C934 C935 1.474 . S
C934 C936 1.285 . S
C934 H954 0.929 . S
C935 C932 1.461 . S
C935 C934 1.474 . S
C936 C931 1.342 . S
C936 C934 1.285 . S
C936 H955 0.930 . S
C937 C940 1.424 . S
C937 C942 1.245 . S
C937 C943 1.428 . S
C938 C941 1.260 . S
C938 C942 1.477 . S
C938 H956 0.932 . S
C939 C940 1.384 . S
C939 C941 1.479 . S
C939 H957 0.929 . S
C940 C937 1.424 . S
C940 C939 1.384 . S
C940 H958 0.928 . S
C941 C938 1.260 . S
C941 C939 1.479 . S
C942 C937 1.245 . S
C942 C938 1.477 . S
C942 H959 0.932 . S
C943 U926 2.882 . S
C943 C937 1.428 . S
C943 O946 1.301 . S
C943 O947 1.282 . S
O944 U926 2.441 . S
O944 C930 1.249 . S
O945 U926 2.420 . S
O945 C930 1.202 . S
O946 U926 2.455 . S
O946 C943 1.301 . S
O947 U926 2.449 . S
O947 C943 1.282 . S
H948 C921 0.931 . S
H949 C923 0.929 . S
H950 C924 0.930 . S
H951 C925 0.931 . S
H952 C932 0.932 . S
H953 C933 0.930 . S
H954 C934 0.929 . S
H955 C936 0.930 . S
H956 C938 0.932 . S
H957 C939 0.929 . S
H958 C940 0.928 . S
H959 C942 0.932 . S
C960 C961 1.264 . S
C960 C965 1.479 . S
C960 C970 1.465 . S
C961 C960 1.264 . S
C961 C963 1.339 . S
C961 H988 0.931 . S
C962 C963 1.395 . S
C962 C964 1.320 . S
C963 C961 1.339 . S
C963 C962 1.395 . S
C963 H989 0.929 . S
C964 C962 1.320 . S
C964 C965 1.405 . S
C964 H990 0.930 . S
C965 C960 1.479 . S
C965 C964 1.405 . S
C965 H991 0.931 . S
U966 O967 2.454 1_565 S
U966 O968 2.458 1_565 S
U966 C969 2.984 1_565 S
U966 C970 2.847 . S
U966 C983 2.882 . S
U966 O984 2.441 . S
U966 O985 2.420 . S
U966 O986 2.455 . S
U966 O987 2.449 . S
O967 U966 2.454 1_545 S
O967 C969 1.353 . S
O968 U966 2.458 1_545 S
O968 C969 1.286 . S
C969 U966 2.984 1_545 S
C969 O967 1.353 . S
C969 O968 1.286 . S
C969 C971 1.363 . S
C970 C960 1.465 . S
C970 U966 2.847 . S
C970 O984 1.249 . S
C970 O985 1.202 . S
C971 C969 1.363 . S
C971 C973 1.408 . S
C971 C976 1.342 . S
C972 C973 1.310 . S
C972 C975 1.461 . S
C972 H992 0.932 . S
C973 C971 1.408 . S
C973 C972 1.310 . S
C973 H993 0.930 . S
C974 C975 1.474 . S
C974 C976 1.285 . S
C974 H994 0.929 . S
C975 C972 1.461 . S
C975 C974 1.474 . S
C976 C971 1.342 . S
C976 C974 1.285 . S
C976 H995 0.930 . S
C977 C980 1.424 . S
C977 C982 1.245 . S
C977 C983 1.428 . S
C978 C981 1.260 . S
C978 C982 1.477 . S
C978 H996 0.932 . S
C979 C980 1.384 . S
C979 C981 1.479 . S
C979 H997 0.929 . S
C980 C977 1.424 . S
C980 C979 1.384 . S
C980 H998 0.928 . S
C981 C978 1.260 . S
C981 C979 1.479 . S
C982 C977 1.245 . S
C982 C978 1.477 . S
C982 H999 0.932 . S
C983 U966 2.882 . S
C983 C977 1.428 . S
C983 O986 1.301 . S
C983 O987 1.282 . S
O984 U966 2.441 . S
O984 C970 1.249 . S
O985 U966 2.420 . S
O985 C970 1.202 . S
O986 U966 2.455 . S
O986 C983 1.301 . S
O987 U966 2.449 . S
O987 C983 1.282 . S
H988 C961 0.931 . S
H989 C963 0.929 . S
H990 C964 0.930 . S
H991 C965 0.931 . S
H992 C972 0.932 . S
H993 C973 0.930 . S
H994 C974 0.929 . S
H995 C976 0.930 . S
H996 C978 0.932 . S
H997 C979 0.929 . S
H998 C980 0.928 . S
H999 C982 0.932 . S
C1000 C1001 1.264 . S
C1000 C1005 1.479 . S
C1000 C1010 1.465 . S
C1001 C1000 1.264 . S
C1001 C1003 1.339 . S
C1001 H1028 0.931 . S
C1002 C1003 1.395 . S
C1002 C1004 1.320 . S
C1003 C1001 1.339 . S
C1003 C1002 1.395 . S
C1003 H1029 0.929 . S
C1004 C1002 1.320 . S
C1004 C1005 1.405 . S
C1004 H1030 0.930 . S
C1005 C1000 1.479 . S
C1005 C1004 1.405 . S
C1005 H1031 0.931 . S
U1006 O1007 2.454 . S
U1006 O1008 2.458 . S
U1006 C1009 2.984 . S
U1006 C1010 2.847 1_545 S
U1006 C1023 2.882 . S
U1006 O1024 2.441 1_545 S
U1006 O1025 2.420 1_545 S
U1006 O1026 2.455 . S
U1006 O1027 2.449 . S
O1007 U1006 2.454 . S
O1007 C1009 1.353 . S
O1008 U1006 2.458 . S
O1008 C1009 1.286 . S
C1009 U1006 2.984 . S
C1009 O1007 1.353 . S
C1009 O1008 1.286 . S
C1009 C1011 1.363 . S
C1010 C1000 1.465 . S
C1010 U1006 2.847 1_565 S
C1010 O1024 1.249 . S
C1010 O1025 1.202 . S
C1011 C1009 1.363 . S
C1011 C1013 1.408 . S
C1011 C1016 1.342 . S
C1012 C1013 1.310 . S
C1012 C1015 1.461 . S
C1012 H1032 0.932 . S
C1013 C1011 1.408 . S
C1013 C1012 1.310 . S
C1013 H1033 0.930 . S
C1014 C1015 1.474 . S
C1014 C1016 1.285 . S
C1014 H1034 0.929 . S
C1015 C1012 1.461 . S
C1015 C1014 1.474 . S
C1016 C1011 1.342 . S
C1016 C1014 1.285 . S
C1016 H1035 0.930 . S
C1017 C1020 1.424 . S
C1017 C1022 1.245 . S
C1017 C1023 1.428 . S
C1018 C1021 1.260 . S
C1018 C1022 1.477 . S
C1018 H1036 0.932 . S
C1019 C1020 1.384 . S
C1019 C1021 1.479 . S
C1019 H1037 0.929 . S
C1020 C1017 1.424 . S
C1020 C1019 1.384 . S
C1020 H1038 0.928 . S
C1021 C1018 1.260 . S
C1021 C1019 1.479 . S
C1022 C1017 1.245 . S
C1022 C1018 1.477 . S
C1022 H1039 0.932 . S
C1023 U1006 2.882 . S
C1023 C1017 1.428 . S
C1023 O1026 1.301 . S
C1023 O1027 1.282 . S
O1024 U1006 2.441 1_565 S
O1024 C1010 1.249 . S
O1025 U1006 2.420 1_565 S
O1025 C1010 1.202 . S
O1026 U1006 2.455 . S
O1026 C1023 1.301 . S
O1027 U1006 2.449 . S
O1027 C1023 1.282 . S
H1028 C1001 0.931 . S
H1029 C1003 0.929 . S
H1030 C1004 0.930 . S
H1031 C1005 0.931 . S
H1032 C1012 0.932 . S
H1033 C1013 0.930 . S
H1034 C1014 0.929 . S
H1035 C1016 0.930 . S
H1036 C1018 0.932 . S
H1037 C1019 0.929 . S
H1038 C1020 0.928 . S
H1039 C1022 0.932 . S
C1040 C1041 1.264 . S
C1040 C1045 1.479 . S
C1040 C1050 1.465 . S
C1041 C1040 1.264 . S
C1041 C1043 1.339 . S
C1041 H1068 0.931 . S
C1042 C1043 1.395 . S
C1042 C1044 1.320 . S
C1043 C1041 1.339 . S
C1043 C1042 1.395 . S
C1043 H1069 0.929 . S
C1044 C1042 1.320 . S
C1044 C1045 1.405 . S
C1044 H1070 0.930 . S
C1045 C1040 1.479 . S
C1045 C1044 1.405 . S
C1045 H1071 0.931 . S
U1046 O1047 2.454 . S
U1046 O1048 2.458 . S
U1046 C1049 2.984 . S
U1046 C1050 2.847 1_545 S
U1046 C1063 2.882 . S
U1046 O1064 2.441 1_545 S
U1046 O1065 2.420 1_545 S
U1046 O1066 2.455 . S
U1046 O1067 2.449 . S
O1047 U1046 2.454 . S
O1047 C1049 1.353 . S
O1048 U1046 2.458 . S
O1048 C1049 1.286 . S
C1049 U1046 2.984 . S
C1049 O1047 1.353 . S
C1049 O1048 1.286 . S
C1049 C1051 1.363 . S
C1050 C1040 1.465 . S
C1050 U1046 2.847 1_565 S
C1050 O1064 1.249 . S
C1050 O1065 1.202 . S
C1051 C1049 1.363 . S
C1051 C1053 1.408 . S
C1051 C1056 1.342 . S
C1052 C1053 1.310 . S
C1052 C1055 1.461 . S
C1052 H1072 0.932 . S
C1053 C1051 1.408 . S
C1053 C1052 1.310 . S
C1053 H1073 0.930 . S
C1054 C1055 1.474 . S
C1054 C1056 1.285 . S
C1054 H1074 0.929 . S
C1055 C1052 1.461 . S
C1055 C1054 1.474 . S
C1056 C1051 1.342 . S
C1056 C1054 1.285 . S
C1056 H1075 0.930 . S
C1057 C1060 1.424 . S
C1057 C1062 1.245 . S
C1057 C1063 1.428 . S
C1058 C1061 1.260 . S
C1058 C1062 1.477 . S
C1058 H1076 0.932 . S
C1059 C1060 1.384 . S
C1059 C1061 1.479 . S
C1059 H1077 0.929 . S
C1060 C1057 1.424 . S
C1060 C1059 1.384 . S
C1060 H1078 0.928 . S
C1061 C1058 1.260 . S
C1061 C1059 1.479 . S
C1062 C1057 1.245 . S
C1062 C1058 1.477 . S
C1062 H1079 0.932 . S
C1063 U1046 2.882 . S
C1063 C1057 1.428 . S
C1063 O1066 1.301 . S
C1063 O1067 1.282 . S
O1064 U1046 2.441 1_565 S
O1064 C1050 1.249 . S
O1065 U1046 2.420 1_565 S
O1065 C1050 1.202 . S
O1066 U1046 2.455 . S
O1066 C1063 1.301 . S
O1067 U1046 2.449 . S
O1067 C1063 1.282 . S
H1068 C1041 0.931 . S
H1069 C1043 0.929 . S
H1070 C1044 0.930 . S
H1071 C1045 0.931 . S
H1072 C1052 0.932 . S
H1073 C1053 0.930 . S
H1074 C1054 0.929 . S
H1075 C1056 0.930 . S
H1076 C1058 0.932 . S
H1077 C1059 0.929 . S
H1078 C1060 0.928 . S
H1079 C1062 0.932 . S
C1080 C1081 1.264 . S
C1080 C1085 1.479 . S
C1080 C1090 1.465 . S
C1081 C1080 1.264 . S
C1081 C1083 1.339 . S
C1081 H1108 0.931 . S
C1082 C1083 1.395 . S
C1082 C1084 1.320 . S
C1083 C1081 1.339 . S
C1083 C1082 1.395 . S
C1083 H1109 0.929 . S
C1084 C1082 1.320 . S
C1084 C1085 1.405 . S
C1084 H1110 0.930 . S
C1085 C1080 1.479 . S
C1085 C1084 1.405 . S
C1085 H1111 0.931 . S
U1086 O1087 2.454 . S
U1086 O1088 2.458 . S
U1086 C1089 3.036 . S
U1086 C1090 2.847 . S
U1086 C1103 2.882 . S
U1086 O1104 2.441 . S
U1086 O1105 2.420 . S
U1086 O1106 2.455 . S
U1086 O1107 2.449 . S
O1087 U1086 2.454 . S
O1087 C1089 1.380 . S
O1088 U1086 2.458 . S
O1088 C1089 1.322 . S
C1089 U1086 3.036 . S
C1089 O1087 1.380 . S
C1089 O1088 1.322 . S
C1089 C1091 1.311 1_556 S
C1090 C1080 1.465 . S
C1090 U1086 2.847 . S
C1090 O1104 1.249 . S
C1090 O1105 1.202 . S
C1091 C1089 1.311 1_554 S
C1091 C1093 1.408 . S
C1091 C1096 1.342 . S
C1092 C1093 1.310 . S
C1092 C1095 1.461 . S
C1092 H1112 0.932 . S
C1093 C1091 1.408 . S
C1093 C1092 1.310 . S
C1093 H1113 0.930 . S
C1094 C1095 1.474 . S
C1094 C1096 1.285 . S
C1094 H1114 0.929 . S
C1095 C1092 1.461 . S
C1095 C1094 1.474 . S
C1096 C1091 1.342 . S
C1096 C1094 1.285 . S
C1096 H1115 0.930 . S
C1097 C1100 1.424 . S
C1097 C1102 1.245 . S
C1097 C1103 1.428 . S
C1098 C1101 1.260 . S
C1098 C1102 1.477 . S
C1098 H1116 0.932 . S
C1099 C1100 1.384 . S
C1099 C1101 1.479 . S
C1099 H1117 0.929 . S
C1100 C1097 1.424 . S
C1100 C1099 1.384 . S
C1100 H1118 0.928 . S
C1101 C1098 1.260 . S
C1101 C1099 1.479 . S
C1102 C1097 1.245 . S
C1102 C1098 1.477 . S
C1102 H1119 0.932 . S
C1103 U1086 2.882 . S
C1103 C1097 1.428 . S
C1103 O1106 1.301 . S
C1103 O1107 1.282 . S
O1104 U1086 2.441 . S
O1104 C1090 1.249 . S
O1105 U1086 2.420 . S
O1105 C1090 1.202 . S
O1106 U1086 2.455 . S
O1106 C1103 1.301 . S
O1107 U1086 2.449 . S
O1107 C1103 1.282 . S
H1108 C1081 0.931 . S
H1109 C1083 0.929 . S
H1110 C1084 0.930 . S
H1111 C1085 0.931 . S
H1112 C1092 0.932 . S
H1113 C1093 0.930 . S
H1114 C1094 0.929 . S
H1115 C1096 0.930 . S
H1116 C1098 0.932 . S
H1117 C1099 0.929 . S
H1118 C1100 0.928 . S
H1119 C1102 0.932 . S
C1120 C1121 1.264 . S
C1120 C1125 1.479 . S
C1120 C1130 1.465 . S
C1121 C1120 1.264 . S
C1121 C1123 1.339 . S
C1121 H1148 0.931 . S
C1122 C1123 1.395 . S
C1122 C1124 1.320 . S
C1123 C1121 1.339 . S
C1123 C1122 1.395 . S
C1123 H1149 0.929 . S
C1124 C1122 1.320 . S
C1124 C1125 1.405 . S
C1124 H1150 0.930 . S
C1125 C1120 1.479 . S
C1125 C1124 1.405 . S
C1125 H1151 0.931 . S
U1126 O1127 2.454 . S
U1126 O1128 2.458 . S
U1126 C1129 2.984 . S
U1126 C1130 2.847 1_455 S
U1126 C1143 2.882 . S
U1126 O1144 2.441 1_455 S
U1126 O1145 2.420 1_455 S
U1126 O1146 2.455 . S
U1126 O1147 2.449 . S
O1127 U1126 2.454 . S
O1127 C1129 1.353 . S
O1128 U1126 2.458 . S
O1128 C1129 1.286 . S
C1129 U1126 2.984 . S
C1129 O1127 1.353 . S
C1129 O1128 1.286 . S
C1129 C1131 1.363 . S
C1130 C1120 1.465 . S
C1130 U1126 2.847 1_655 S
C1130 O1144 1.249 . S
C1130 O1145 1.202 . S
C1131 C1129 1.363 . S
C1131 C1133 1.408 . S
C1131 C1136 1.342 . S
C1132 C1133 1.310 . S
C1132 C1135 1.461 . S
C1132 H1152 0.932 . S
C1133 C1131 1.408 . S
C1133 C1132 1.310 . S
C1133 H1153 0.930 . S
C1134 C1135 1.474 . S
C1134 C1136 1.285 . S
C1134 H1154 0.929 . S
C1135 C1132 1.461 . S
C1135 C1134 1.474 . S
C1136 C1131 1.342 . S
C1136 C1134 1.285 . S
C1136 H1155 0.930 . S
C1137 C1140 1.424 . S
C1137 C1142 1.245 . S
C1137 C1143 1.428 . S
C1138 C1141 1.260 . S
C1138 C1142 1.477 . S
C1138 H1156 0.932 . S
C1139 C1140 1.384 . S
C1139 C1141 1.479 . S
C1139 H1157 0.929 . S
C1140 C1137 1.424 . S
C1140 C1139 1.384 . S
C1140 H1158 0.928 . S
C1141 C1138 1.260 . S
C1141 C1139 1.479 . S
C1142 C1137 1.245 . S
C1142 C1138 1.477 . S
C1142 H1159 0.932 . S
C1143 U1126 2.882 . S
C1143 C1137 1.428 . S
C1143 O1146 1.301 . S
C1143 O1147 1.282 . S
O1144 U1126 2.441 1_655 S
O1144 C1130 1.249 . S
O1145 U1126 2.420 1_655 S
O1145 C1130 1.202 . S
O1146 U1126 2.455 . S
O1146 C1143 1.301 . S
O1147 U1126 2.449 . S
O1147 C1143 1.282 . S
H1148 C1121 0.931 . S
H1149 C1123 0.929 . S
H1150 C1124 0.930 . S
H1151 C1125 0.931 . S
H1152 C1132 0.932 . S
H1153 C1133 0.930 . S
H1154 C1134 0.929 . S
H1155 C1136 0.930 . S
H1156 C1138 0.932 . S
H1157 C1139 0.929 . S
H1158 C1140 0.928 . S
H1159 C1142 0.932 . S
C1160 C1161 1.264 . S
C1160 C1165 1.479 . S
C1160 C1170 1.465 . S
C1161 C1160 1.264 . S
C1161 C1163 1.339 . S
C1161 H1188 0.931 . S
C1162 C1163 1.395 . S
C1162 C1164 1.320 . S
C1163 C1161 1.339 . S
C1163 C1162 1.395 . S
C1163 H1189 0.929 . S
C1164 C1162 1.320 . S
C1164 C1165 1.405 . S
C1164 H1190 0.930 . S
C1165 C1160 1.479 . S
C1165 C1164 1.405 . S
C1165 H1191 0.931 . S
U1166 O1167 2.454 . S
U1166 O1168 2.458 . S
U1166 C1169 2.984 . S
U1166 C1170 2.847 . S
U1166 C1183 2.882 . S
U1166 O1184 2.441 . S
U1166 O1185 2.420 . S
U1166 O1186 2.455 . S
U1166 O1187 2.449 . S
O1167 U1166 2.454 . S
O1167 C1169 1.353 . S
O1168 U1166 2.458 . S
O1168 C1169 1.286 . S
C1169 U1166 2.984 . S
C1169 O1167 1.353 . S
C1169 O1168 1.286 . S
C1169 C1171 1.363 . S
C1170 C1160 1.465 . S
C1170 U1166 2.847 . S
C1170 O1184 1.249 . S
C1170 O1185 1.202 . S
C1171 C1169 1.363 . S
C1171 C1173 1.408 . S
C1171 C1176 1.342 . S
C1172 C1173 1.310 . S
C1172 C1175 1.461 . S
C1172 H1192 0.932 . S
C1173 C1171 1.408 . S
C1173 C1172 1.310 . S
C1173 H1193 0.930 . S
C1174 C1175 1.474 . S
C1174 C1176 1.285 . S
C1174 H1194 0.929 . S
C1175 C1172 1.461 . S
C1175 C1174 1.474 . S
C1176 C1171 1.342 . S
C1176 C1174 1.285 . S
C1176 H1195 0.930 . S
C1177 C1180 1.424 . S
C1177 C1182 1.245 . S
C1177 C1183 1.428 . S
C1178 C1181 1.260 . S
C1178 C1182 1.477 . S
C1178 H1196 0.932 . S
C1179 C1180 1.384 . S
C1179 C1181 1.479 . S
C1179 H1197 0.929 . S
C1180 C1177 1.424 . S
C1180 C1179 1.384 . S
C1180 H1198 0.928 . S
C1181 C1178 1.260 . S
C1181 C1179 1.479 . S
C1182 C1177 1.245 . S
C1182 C1178 1.477 . S
C1182 H1199 0.932 . S
C1183 U1166 2.882 . S
C1183 C1177 1.428 . S
C1183 O1186 1.301 . S
C1183 O1187 1.282 . S
O1184 U1166 2.441 . S
O1184 C1170 1.249 . S
O1185 U1166 2.420 . S
O1185 C1170 1.202 . S
O1186 U1166 2.455 . S
O1186 C1183 1.301 . S
O1187 U1166 2.449 . S
O1187 C1183 1.282 . S
H1188 C1161 0.931 . S
H1189 C1163 0.929 . S
H1190 C1164 0.930 . S
H1191 C1165 0.931 . S
H1192 C1172 0.932 . S
H1193 C1173 0.930 . S
H1194 C1174 0.929 . S
H1195 C1176 0.930 . S
H1196 C1178 0.932 . S
H1197 C1179 0.929 . S
H1198 C1180 0.928 . S
H1199 C1182 0.932 . S
C1200 C1201 1.264 . S
C1200 C1205 1.479 . S
C1200 C1210 1.465 . S
C1201 C1200 1.264 . S
C1201 C1203 1.339 . S
C1201 H1228 0.931 . S
C1202 C1203 1.395 . S
C1202 C1204 1.320 . S
C1203 C1201 1.339 . S
C1203 C1202 1.395 . S
C1203 H1229 0.929 . S
C1204 C1202 1.320 . S
C1204 C1205 1.405 . S
C1204 H1230 0.930 . S
C1205 C1200 1.479 . S
C1205 C1204 1.405 . S
C1205 H1231 0.931 . S
U1206 O1207 2.454 . S
U1206 O1208 2.458 . S
U1206 C1209 2.984 . S
U1206 C1210 2.847 . S
U1206 C1223 2.882 . S
U1206 O1224 2.441 . S
U1206 O1225 2.420 . S
U1206 O1226 2.455 . S
U1206 O1227 2.449 . S
O1207 U1206 2.454 . S
O1207 C1209 1.353 . S
O1208 U1206 2.458 . S
O1208 C1209 1.286 . S
C1209 U1206 2.984 . S
C1209 O1207 1.353 . S
C1209 O1208 1.286 . S
C1209 C1211 1.363 . S
C1210 C1200 1.465 . S
C1210 U1206 2.847 . S
C1210 O1224 1.249 . S
C1210 O1225 1.202 . S
C1211 C1209 1.363 . S
C1211 C1213 1.408 . S
C1211 C1216 1.342 . S
C1212 C1213 1.310 . S
C1212 C1215 1.461 . S
C1212 H1232 0.932 . S
C1213 C1211 1.408 . S
C1213 C1212 1.310 . S
C1213 H1233 0.930 . S
C1214 C1215 1.474 . S
C1214 C1216 1.285 . S
C1214 H1234 0.929 . S
C1215 C1212 1.461 . S
C1215 C1214 1.474 . S
C1216 C1211 1.342 . S
C1216 C1214 1.285 . S
C1216 H1235 0.930 . S
C1217 C1220 1.424 . S
C1217 C1222 1.245 . S
C1217 C1223 1.428 . S
C1218 C1221 1.260 . S
C1218 C1222 1.477 . S
C1218 H1236 0.932 . S
C1219 C1220 1.384 . S
C1219 C1221 1.479 . S
C1219 H1237 0.929 . S
C1220 C1217 1.424 . S
C1220 C1219 1.384 . S
C1220 H1238 0.928 . S
C1221 C1218 1.260 . S
C1221 C1219 1.479 . S
C1222 C1217 1.245 . S
C1222 C1218 1.477 . S
C1222 H1239 0.932 . S
C1223 U1206 2.882 . S
C1223 C1217 1.428 . S
C1223 O1226 1.301 . S
C1223 O1227 1.282 . S
O1224 U1206 2.441 . S
O1224 C1210 1.249 . S
O1225 U1206 2.420 . S
O1225 C1210 1.202 . S
O1226 U1206 2.455 . S
O1226 C1223 1.301 . S
O1227 U1206 2.449 . S
O1227 C1223 1.282 . S
H1228 C1201 0.931 . S
H1229 C1203 0.929 . S
H1230 C1204 0.930 . S
H1231 C1205 0.931 . S
H1232 C1212 0.932 . S
H1233 C1213 0.930 . S
H1234 C1214 0.929 . S
H1235 C1216 0.930 . S
H1236 C1218 0.932 . S
H1237 C1219 0.929 . S
H1238 C1220 0.928 . S
H1239 C1222 0.932 . S
C1240 C1241 1.264 . S
C1240 C1245 1.479 . S
C1240 C1250 1.465 . S
C1241 C1240 1.264 . S
C1241 C1243 1.339 . S
C1241 H1268 0.931 . S
C1242 C1243 1.395 . S
C1242 C1244 1.320 . S
C1243 C1241 1.339 . S
C1243 C1242 1.395 . S
C1243 H1269 0.929 . S
C1244 C1242 1.320 . S
C1244 C1245 1.405 . S
C1244 H1270 0.930 . S
C1245 C1240 1.479 . S
C1245 C1244 1.405 . S
C1245 H1271 0.931 . S
U1246 O1247 2.454 . S
U1246 O1248 2.458 . S
U1246 C1249 2.984 . S
U1246 C1250 2.847 . S
U1246 C1263 2.882 . S
U1246 O1264 2.441 . S
U1246 O1265 2.420 . S
U1246 O1266 2.455 . S
U1246 O1267 2.449 . S
O1247 U1246 2.454 . S
O1247 C1249 1.353 . S
O1248 U1246 2.458 . S
O1248 C1249 1.286 . S
C1249 U1246 2.984 . S
C1249 O1247 1.353 . S
C1249 O1248 1.286 . S
C1249 C1251 1.363 1_655 S
C1250 C1240 1.465 . S
C1250 U1246 2.847 . S
C1250 O1264 1.249 . S
C1250 O1265 1.202 . S
C1251 C1249 1.363 1_455 S
C1251 C1253 1.408 . S
C1251 C1256 1.342 . S
C1252 C1253 1.310 . S
C1252 C1255 1.461 . S
C1252 H1272 0.932 . S
C1253 C1251 1.408 . S
C1253 C1252 1.310 . S
C1253 H1273 0.930 . S
C1254 C1255 1.474 . S
C1254 C1256 1.285 . S
C1254 H1274 0.929 . S
C1255 C1252 1.461 . S
C1255 C1254 1.474 . S
C1256 C1251 1.342 . S
C1256 C1254 1.285 . S
C1256 H1275 0.930 . S
C1257 C1260 1.424 . S
C1257 C1262 1.245 . S
C1257 C1263 1.428 . S
C1258 C1261 1.260 . S
C1258 C1262 1.477 . S
C1258 H1276 0.932 . S
C1259 C1260 1.384 . S
C1259 C1261 1.479 . S
C1259 H1277 0.929 . S
C1260 C1257 1.424 . S
C1260 C1259 1.384 . S
C1260 H1278 0.928 . S
C1261 C1258 1.260 . S
C1261 C1259 1.479 . S
C1262 C1257 1.245 . S
C1262 C1258 1.477 . S
C1262 H1279 0.932 . S
C1263 U1246 2.882 . S
C1263 C1257 1.428 . S
C1263 O1266 1.301 . S
C1263 O1267 1.282 . S
O1264 U1246 2.441 . S
O1264 C1250 1.249 . S
O1265 U1246 2.420 . S
O1265 C1250 1.202 . S
O1266 U1246 2.455 . S
O1266 C1263 1.301 . S
O1267 U1246 2.449 . S
O1267 C1263 1.282 . S
H1268 C1241 0.931 . S
H1269 C1243 0.929 . S
H1270 C1244 0.930 . S
H1271 C1245 0.931 . S
H1272 C1252 0.932 . S
H1273 C1253 0.930 . S
H1274 C1254 0.929 . S
H1275 C1256 0.930 . S
H1276 C1258 0.932 . S
H1277 C1259 0.929 . S
H1278 C1260 0.928 . S
H1279 C1262 0.932 . S
C1280 C1281 1.264 . S
C1280 C1285 1.479 . S
C1280 C1290 1.465 . S
C1281 C1280 1.264 . S
C1281 C1283 1.339 . S
C1281 H1308 0.931 . S
C1282 C1283 1.395 . S
C1282 C1284 1.320 . S
C1283 C1281 1.339 . S
C1283 C1282 1.395 . S
C1283 H1309 0.929 . S
C1284 C1282 1.320 . S
C1284 C1285 1.405 . S
C1284 H1310 0.930 . S
C1285 C1280 1.479 . S
C1285 C1284 1.405 . S
C1285 H1311 0.931 . S
U1286 O1287 2.454 . S
U1286 O1288 2.458 . S
U1286 C1289 2.984 . S
U1286 C1290 2.847 . S
U1286 C1303 2.882 . S
U1286 O1304 2.441 . S
U1286 O1305 2.420 . S
U1286 O1306 2.455 . S
U1286 O1307 2.449 . S
O1287 U1286 2.454 . S
O1287 C1289 1.353 . S
O1288 U1286 2.458 . S
O1288 C1289 1.286 . S
C1289 U1286 2.984 . S
C1289 O1287 1.353 . S
C1289 O1288 1.286 . S
C1289 C1291 1.363 . S
C1290 C1280 1.465 . S
C1290 U1286 2.847 . S
C1290 O1304 1.249 . S
C1290 O1305 1.202 . S
C1291 C1289 1.363 . S
C1291 C1293 1.408 . S
C1291 C1296 1.342 . S
C1292 C1293 1.310 . S
C1292 C1295 1.461 . S
C1292 H1312 0.932 . S
C1293 C1291 1.408 . S
C1293 C1292 1.310 . S
C1293 H1313 0.930 . S
C1294 C1295 1.474 . S
C1294 C1296 1.285 . S
C1294 H1314 0.929 . S
C1295 C1292 1.461 . S
C1295 C1294 1.474 . S
C1296 C1291 1.342 . S
C1296 C1294 1.285 . S
C1296 H1315 0.930 . S
C1297 C1300 1.424 . S
C1297 C1302 1.245 . S
C1297 C1303 1.428 . S
C1298 C1301 1.260 . S
C1298 C1302 1.477 . S
C1298 H1316 0.932 . S
C1299 C1300 1.384 . S
C1299 C1301 1.479 . S
C1299 H1317 0.929 . S
C1300 C1297 1.424 . S
C1300 C1299 1.384 . S
C1300 H1318 0.928 . S
C1301 C1298 1.260 . S
C1301 C1299 1.479 . S
C1302 C1297 1.245 . S
C1302 C1298 1.477 . S
C1302 H1319 0.932 . S
C1303 U1286 2.882 . S
C1303 C1297 1.428 . S
C1303 O1306 1.301 . S
C1303 O1307 1.282 . S
O1304 U1286 2.441 . S
O1304 C1290 1.249 . S
O1305 U1286 2.420 . S
O1305 C1290 1.202 . S
O1306 U1286 2.455 . S
O1306 C1303 1.301 . S
O1307 U1286 2.449 . S
O1307 C1303 1.282 . S
H1308 C1281 0.931 . S
H1309 C1283 0.929 . S
H1310 C1284 0.930 . S
H1311 C1285 0.931 . S
H1312 C1292 0.932 . S
H1313 C1293 0.930 . S
H1314 C1294 0.929 . S
H1315 C1296 0.930 . S
H1316 C1298 0.932 . S
H1317 C1299 0.929 . S
H1318 C1300 0.928 . S
H1319 C1302 0.932 . S
C1320 C1321 1.264 . S
C1320 C1325 1.479 . S
C1320 C1330 1.465 . S
C1321 C1320 1.264 . S
C1321 C1323 1.339 . S
C1321 H1348 0.931 . S
C1322 C1323 1.395 . S
C1322 C1324 1.320 . S
C1323 C1321 1.339 . S
C1323 C1322 1.395 . S
C1323 H1349 0.929 . S
C1324 C1322 1.320 . S
C1324 C1325 1.405 . S
C1324 H1350 0.930 . S
C1325 C1320 1.479 . S
C1325 C1324 1.405 . S
C1325 H1351 0.931 . S
U1326 O1327 2.454 . S
U1326 O1328 2.458 . S
U1326 C1329 2.984 . S
U1326 C1330 2.847 . S
U1326 C1343 2.882 . S
U1326 O1344 2.441 . S
U1326 O1345 2.420 . S
U1326 O1346 2.455 . S
U1326 O1347 2.449 . S
O1327 U1326 2.454 . S
O1327 C1329 1.353 . S
O1328 U1326 2.458 . S
O1328 C1329 1.286 . S
C1329 U1326 2.984 . S
C1329 O1327 1.353 . S
C1329 O1328 1.286 . S
C1329 C1331 1.363 . S
C1330 C1320 1.465 . S
C1330 U1326 2.847 . S
C1330 O1344 1.249 . S
C1330 O1345 1.202 . S
C1331 C1329 1.363 . S
C1331 C1333 1.408 . S
C1331 C1336 1.342 . S
C1332 C1333 1.310 1_554 S
C1332 C1335 1.461 . S
C1332 H1352 0.932 . S
C1333 C1331 1.408 . S
C1333 C1332 1.310 1_556 S
C1333 H1353 0.930 . S
C1334 C1335 1.474 1_556 S
C1334 C1336 1.285 . S
C1334 H1354 0.939 . S
C1335 C1332 1.461 . S
C1335 C1334 1.474 1_554 S
C1336 C1331 1.342 . S
C1336 C1334 1.285 . S
C1336 H1355 0.930 . S
C1337 C1340 1.424 . S
C1337 C1342 1.245 . S
C1337 C1343 1.428 . S
C1338 C1341 1.260 . S
C1338 C1342 1.477 . S
C1338 H1356 0.932 . S
C1339 C1340 1.384 . S
C1339 C1341 1.479 . S
C1339 H1357 0.929 . S
C1340 C1337 1.424 . S
C1340 C1339 1.384 . S
C1340 H1358 0.928 . S
C1341 C1338 1.260 . S
C1341 C1339 1.479 . S
C1342 C1337 1.245 . S
C1342 C1338 1.477 . S
C1342 H1359 0.932 . S
C1343 U1326 2.882 . S
C1343 C1337 1.428 . S
C1343 O1346 1.301 . S
C1343 O1347 1.282 . S
O1344 U1326 2.441 . S
O1344 C1330 1.249 . S
O1345 U1326 2.420 . S
O1345 C1330 1.202 . S
O1346 U1326 2.455 . S
O1346 C1343 1.301 . S
O1347 U1326 2.449 . S
O1347 C1343 1.282 . S
H1348 C1321 0.931 . S
H1349 C1323 0.929 . S
H1350 C1324 0.930 . S
H1351 C1325 0.931 . S
H1352 C1332 0.932 . S
H1353 C1333 0.930 . S
H1354 C1334 0.939 . S
H1355 C1336 0.930 . S
H1356 C1338 0.932 . S
H1357 C1339 0.929 . S
H1358 C1340 0.928 . S
H1359 C1342 0.932 . S
C1360 C1361 1.264 . S
C1360 C1365 1.479 . S
C1360 C1370 1.465 . S
C1361 C1360 1.264 . S
C1361 C1363 1.339 . S
C1361 H1388 0.931 . S
C1362 C1363 1.395 . S
C1362 C1364 1.320 . S
C1363 C1361 1.339 . S
C1363 C1362 1.395 . S
C1363 H1389 0.929 . S
C1364 C1362 1.320 . S
C1364 C1365 1.405 . S
C1364 H1390 0.930 . S
C1365 C1360 1.479 . S
C1365 C1364 1.405 . S
C1365 H1391 0.931 . S
U1366 O1367 2.454 . S
U1366 O1368 2.458 . S
U1366 C1369 2.984 . S
U1366 C1370 2.847 . S
U1366 C1383 2.882 . S
U1366 O1384 2.441 . S
U1366 O1385 2.420 . S
U1366 O1386 2.455 . S
U1366 O1387 2.449 . S
O1367 U1366 2.454 . S
O1367 C1369 1.353 . S
O1368 U1366 2.458 . S
O1368 C1369 1.286 . S
C1369 U1366 2.984 . S
C1369 O1367 1.353 . S
C1369 O1368 1.286 . S
C1369 C1371 1.363 . S
C1370 C1360 1.465 . S
C1370 U1366 2.847 . S
C1370 O1384 1.249 . S
C1370 O1385 1.202 . S
C1371 C1369 1.363 . S
C1371 C1373 1.408 . S
C1371 C1376 1.342 . S
C1372 C1373 1.310 . S
C1372 C1375 1.461 . S
C1372 H1392 0.932 . S
C1373 C1371 1.408 . S
C1373 C1372 1.310 . S
C1373 H1393 0.930 . S
C1374 C1375 1.474 . S
C1374 C1376 1.285 . S
C1374 H1394 0.929 . S
C1375 C1372 1.461 . S
C1375 C1374 1.474 . S
C1376 C1371 1.342 . S
C1376 C1374 1.285 . S
C1376 H1395 0.930 . S
C1377 C1380 1.424 . S
C1377 C1382 1.245 . S
C1377 C1383 1.428 . S
C1378 C1381 1.260 . S
C1378 C1382 1.477 . S
C1378 H1396 0.932 . S
C1379 C1380 1.384 . S
C1379 C1381 1.479 . S
C1379 H1397 0.929 . S
C1380 C1377 1.424 . S
C1380 C1379 1.384 . S
C1380 H1398 0.928 . S
C1381 C1378 1.260 . S
C1381 C1379 1.479 . S
C1382 C1377 1.245 . S
C1382 C1378 1.477 . S
C1382 H1399 0.932 . S
C1383 U1366 2.882 . S
C1383 C1377 1.428 . S
C1383 O1386 1.301 . S
C1383 O1387 1.282 . S
O1384 U1366 2.441 . S
O1384 C1370 1.249 . S
O1385 U1366 2.420 . S
O1385 C1370 1.202 . S
O1386 U1366 2.455 . S
O1386 C1383 1.301 . S
O1387 U1366 2.449 . S
O1387 C1383 1.282 . S
H1388 C1361 0.931 . S
H1389 C1363 0.929 . S
H1390 C1364 0.930 . S
H1391 C1365 0.931 . S
H1392 C1372 0.932 . S
H1393 C1373 0.930 . S
H1394 C1374 0.929 . S
H1395 C1376 0.930 . S
H1396 C1378 0.932 . S
H1397 C1379 0.929 . S
H1398 C1380 0.928 . S
H1399 C1382 0.932 . S
C1400 C1401 1.264 . S
C1400 C1405 1.479 . S
C1400 C1410 1.465 . S
C1401 C1400 1.264 . S
C1401 C1403 1.339 . S
C1401 H1428 0.931 . S
C1402 C1403 1.395 . S
C1402 C1404 1.320 . S
C1403 C1401 1.339 . S
C1403 C1402 1.395 . S
C1403 H1429 0.929 . S
C1404 C1402 1.320 . S
C1404 C1405 1.405 . S
C1404 H1430 0.930 . S
C1405 C1400 1.479 . S
C1405 C1404 1.405 . S
C1405 H1431 0.931 . S
U1406 O1407 2.454 . S
U1406 O1408 2.458 . S
U1406 C1409 2.984 . S
U1406 C1410 2.847 . S
U1406 C1423 2.882 . S
U1406 O1424 2.441 . S
U1406 O1425 2.420 . S
U1406 O1426 2.455 . S
U1406 O1427 2.449 . S
O1407 U1406 2.454 . S
O1407 C1409 1.353 . S
O1408 U1406 2.458 . S
O1408 C1409 1.286 . S
C1409 U1406 2.984 . S
C1409 O1407 1.353 . S
C1409 O1408 1.286 . S
C1409 C1411 1.363 . S
C1410 C1400 1.465 . S
C1410 U1406 2.847 . S
C1410 O1424 1.249 . S
C1410 O1425 1.202 . S
C1411 C1409 1.363 . S
C1411 C1413 1.408 . S
C1411 C1416 1.342 . S
C1412 C1413 1.310 . S
C1412 C1415 1.461 . S
C1412 H1432 0.932 . S
C1413 C1411 1.408 . S
C1413 C1412 1.310 . S
C1413 H1433 0.930 . S
C1414 C1415 1.474 . S
C1414 C1416 1.285 . S
C1414 H1434 0.929 . S
C1415 C1412 1.461 . S
C1415 C1414 1.474 . S
C1416 C1411 1.342 . S
C1416 C1414 1.285 . S
C1416 H1435 0.930 . S
C1417 C1420 1.424 . S
C1417 C1422 1.245 . S
C1417 C1423 1.428 . S
C1418 C1421 1.260 . S
C1418 C1422 1.477 . S
C1418 H1436 0.932 . S
C1419 C1420 1.384 . S
C1419 C1421 1.479 . S
C1419 H1437 0.929 . S
C1420 C1417 1.424 . S
C1420 C1419 1.384 . S
C1420 H1438 0.928 . S
C1421 C1418 1.260 . S
C1421 C1419 1.479 . S
C1422 C1417 1.245 . S
C1422 C1418 1.477 . S
C1422 H1439 0.932 . S
C1423 U1406 2.882 . S
C1423 C1417 1.428 . S
C1423 O1426 1.301 . S
C1423 O1427 1.282 . S
O1424 U1406 2.441 . S
O1424 C1410 1.249 . S
O1425 U1406 2.420 . S
O1425 C1410 1.202 . S
O1426 U1406 2.455 . S
O1426 C1423 1.301 . S
O1427 U1406 2.449 . S
O1427 C1423 1.282 . S
H1428 C1401 0.931 . S
H1429 C1403 0.929 . S
H1430 C1404 0.930 . S
H1431 C1405 0.931 . S
H1432 C1412 0.932 . S
H1433 C1413 0.930 . S
H1434 C1414 0.929 . S
H1435 C1416 0.930 . S
H1436 C1418 0.932 . S
H1437 C1419 0.929 . S
H1438 C1420 0.928 . S
H1439 C1422 0.932 . S
C1440 C1441 1.264 . S
C1440 C1445 1.479 . S
C1440 C1450 1.465 . S
C1441 C1440 1.264 . S
C1441 C1443 1.339 . S
C1441 H1468 0.931 . S
C1442 C1443 1.395 . S
C1442 C1444 1.320 . S
C1443 C1441 1.339 . S
C1443 C1442 1.395 . S
C1443 H1469 0.929 . S
C1444 C1442 1.320 . S
C1444 C1445 1.405 . S
C1444 H1470 0.930 . S
C1445 C1440 1.479 . S
C1445 C1444 1.405 . S
C1445 H1471 0.931 . S
U1446 O1447 2.454 . S
U1446 O1448 2.458 . S
U1446 C1449 2.984 . S
U1446 C1450 2.847 . S
U1446 C1463 2.882 . S
U1446 O1464 2.441 . S
U1446 O1465 2.420 . S
U1446 O1466 2.455 . S
U1446 O1467 2.449 . S
O1447 U1446 2.454 . S
O1447 C1449 1.353 . S
O1448 U1446 2.458 . S
O1448 C1449 1.286 . S
C1449 U1446 2.984 . S
C1449 O1447 1.353 . S
C1449 O1448 1.286 . S
C1449 C1451 1.363 . S
C1450 C1440 1.465 . S
C1450 U1446 2.847 . S
C1450 O1464 1.249 . S
C1450 O1465 1.202 . S
C1451 C1449 1.363 . S
C1451 C1453 1.408 . S
C1451 C1456 1.342 . S
C1452 C1453 1.310 . S
C1452 C1455 1.461 . S
C1452 H1472 0.932 . S
C1453 C1451 1.408 . S
C1453 C1452 1.310 . S
C1453 H1473 0.930 . S
C1454 C1455 1.474 . S
C1454 C1456 1.285 . S
C1454 H1474 0.929 . S
C1455 C1452 1.461 . S
C1455 C1454 1.474 . S
C1456 C1451 1.342 . S
C1456 C1454 1.285 . S
C1456 H1475 0.930 . S
C1457 C1460 1.424 . S
C1457 C1462 1.245 . S
C1457 C1463 1.428 . S
C1458 C1461 1.260 . S
C1458 C1462 1.477 . S
C1458 H1476 0.932 . S
C1459 C1460 1.384 . S
C1459 C1461 1.479 . S
C1459 H1477 0.929 . S
C1460 C1457 1.424 . S
C1460 C1459 1.384 . S
C1460 H1478 0.928 . S
C1461 C1458 1.260 . S
C1461 C1459 1.479 . S
C1462 C1457 1.245 . S
C1462 C1458 1.477 . S
C1462 H1479 0.932 . S
C1463 U1446 2.882 . S
C1463 C1457 1.428 . S
C1463 O1466 1.301 . S
C1463 O1467 1.282 . S
O1464 U1446 2.441 . S
O1464 C1450 1.249 . S
O1465 U1446 2.420 . S
O1465 C1450 1.202 . S
O1466 U1446 2.455 . S
O1466 C1463 1.301 . S
O1467 U1446 2.449 . S
O1467 C1463 1.282 . S
H1468 C1441 0.931 . S
H1469 C1443 0.929 . S
H1470 C1444 0.930 . S
H1471 C1445 0.931 . S
H1472 C1452 0.932 . S
H1473 C1453 0.930 . S
H1474 C1454 0.929 . S
H1475 C1456 0.930 . S
H1476 C1458 0.932 . S
H1477 C1459 0.929 . S
H1478 C1460 0.928 . S
H1479 C1462 0.932 . S
C1480 C1481 1.264 . S
C1480 C1485 1.479 . S
C1480 C1490 1.465 . S
C1481 C1480 1.264 . S
C1481 C1483 1.339 . S
C1481 H1508 0.931 . S
C1482 C1483 1.395 . S
C1482 C1484 1.320 . S
C1483 C1481 1.339 . S
C1483 C1482 1.395 . S
C1483 H1509 0.929 . S
C1484 C1482 1.320 . S
C1484 C1485 1.405 . S
C1484 H1510 0.930 . S
C1485 C1480 1.479 . S
C1485 C1484 1.405 . S
C1485 H1511 0.931 . S
U1486 O1487 2.454 . S
U1486 O1488 2.458 . S
U1486 C1489 2.984 . S
U1486 C1490 2.847 . S
U1486 C1503 2.882 . S
U1486 O1504 2.441 . S
U1486 O1505 2.420 . S
U1486 O1506 2.455 . S
U1486 O1507 2.449 . S
O1487 U1486 2.454 . S
O1487 C1489 1.353 . S
O1488 U1486 2.458 . S
O1488 C1489 1.286 . S
C1489 U1486 2.984 . S
C1489 O1487 1.353 . S
C1489 O1488 1.286 . S
C1489 C1491 1.363 . S
C1490 C1480 1.465 . S
C1490 U1486 2.847 . S
C1490 O1504 1.249 . S
C1490 O1505 1.202 . S
C1491 C1489 1.363 . S
C1491 C1493 1.408 . S
C1491 C1496 1.342 . S
C1492 C1493 1.310 . S
C1492 C1495 1.461 . S
C1492 H1512 0.932 . S
C1493 C1491 1.408 . S
C1493 C1492 1.310 . S
C1493 H1513 0.930 . S
C1494 C1495 1.474 . S
C1494 C1496 1.285 . S
C1494 H1514 0.929 . S
C1495 C1492 1.461 . S
C1495 C1494 1.474 . S
C1496 C1491 1.342 . S
C1496 C1494 1.285 . S
C1496 H1515 0.930 . S
C1497 C1500 1.424 . S
C1497 C1502 1.245 . S
C1497 C1503 1.428 . S
C1498 C1501 1.260 . S
C1498 C1502 1.477 . S
C1498 H1516 0.932 . S
C1499 C1500 1.384 . S
C1499 C1501 1.479 . S
C1499 H1517 0.929 . S
C1500 C1497 1.424 . S
C1500 C1499 1.384 . S
C1500 H1518 0.928 . S
C1501 C1498 1.260 . S
C1501 C1499 1.479 . S
C1502 C1497 1.245 . S
C1502 C1498 1.477 . S
C1502 H1519 0.932 . S
C1503 U1486 2.882 . S
C1503 C1497 1.428 . S
C1503 O1506 1.301 . S
C1503 O1507 1.282 . S
O1504 U1486 2.441 . S
O1504 C1490 1.249 . S
O1505 U1486 2.420 . S
O1505 C1490 1.202 . S
O1506 U1486 2.455 . S
O1506 C1503 1.301 . S
O1507 U1486 2.449 . S
O1507 C1503 1.282 . S
H1508 C1481 0.931 . S
H1509 C1483 0.929 . S
H1510 C1484 0.930 . S
H1511 C1485 0.931 . S
H1512 C1492 0.932 . S
H1513 C1493 0.930 . S
H1514 C1494 0.929 . S
H1515 C1496 0.930 . S
H1516 C1498 0.932 . S
H1517 C1499 0.929 . S
H1518 C1500 0.928 . S
H1519 C1502 0.932 . S
C1520 C1521 1.264 . S
C1520 C1525 1.479 . S
C1520 C1530 1.465 . S
C1521 C1520 1.264 . S
C1521 C1523 1.339 . S
C1521 H1548 0.931 . S
C1522 C1523 1.395 . S
C1522 C1524 1.320 . S
C1523 C1521 1.339 . S
C1523 C1522 1.395 . S
C1523 H1549 0.929 . S
C1524 C1522 1.320 . S
C1524 C1525 1.405 . S
C1524 H1550 0.930 . S
C1525 C1520 1.479 . S
C1525 C1524 1.405 . S
C1525 H1551 0.931 . S
U1526 O1527 2.454 . S
U1526 O1528 2.458 . S
U1526 C1529 2.984 . S
U1526 C1530 2.847 . S
U1526 C1543 2.882 . S
U1526 O1544 2.441 . S
U1526 O1545 2.420 . S
U1526 O1546 2.455 . S
U1526 O1547 2.449 . S
O1527 U1526 2.454 . S
O1527 C1529 1.353 . S
O1528 U1526 2.458 . S
O1528 C1529 1.286 . S
C1529 U1526 2.984 . S
C1529 O1527 1.353 . S
C1529 O1528 1.286 . S
C1529 C1531 1.363 . S
C1530 C1520 1.465 . S
C1530 U1526 2.847 . S
C1530 O1544 1.249 . S
C1530 O1545 1.202 . S
C1531 C1529 1.363 . S
C1531 C1533 1.408 . S
C1531 C1536 1.342 . S
C1532 C1533 1.310 . S
C1532 C1535 1.461 . S
C1532 H1552 0.932 . S
C1533 C1531 1.408 . S
C1533 C1532 1.310 . S
C1533 H1553 0.930 . S
C1534 C1535 1.474 . S
C1534 C1536 1.285 . S
C1534 H1554 0.929 . S
C1535 C1532 1.461 . S
C1535 C1534 1.474 . S
C1536 C1531 1.342 . S
C1536 C1534 1.285 . S
C1536 H1555 0.930 . S
C1537 C1540 1.424 . S
C1537 C1542 1.245 . S
C1537 C1543 1.428 . S
C1538 C1541 1.260 . S
C1538 C1542 1.477 . S
C1538 H1556 0.932 . S
C1539 C1540 1.384 . S
C1539 C1541 1.479 . S
C1539 H1557 0.929 . S
C1540 C1537 1.424 . S
C1540 C1539 1.384 . S
C1540 H1558 0.928 . S
C1541 C1538 1.260 . S
C1541 C1539 1.479 . S
C1542 C1537 1.245 . S
C1542 C1538 1.477 . S
C1542 H1559 0.932 . S
C1543 U1526 2.882 . S
C1543 C1537 1.428 . S
C1543 O1546 1.301 . S
C1543 O1547 1.282 . S
O1544 U1526 2.441 . S
O1544 C1530 1.249 . S
O1545 U1526 2.420 . S
O1545 C1530 1.202 . S
O1546 U1526 2.455 . S
O1546 C1543 1.301 . S
O1547 U1526 2.449 . S
O1547 C1543 1.282 . S
H1548 C1521 0.931 . S
H1549 C1523 0.929 . S
H1550 C1524 0.930 . S
H1551 C1525 0.931 . S
H1552 C1532 0.932 . S
H1553 C1533 0.930 . S
H1554 C1534 0.929 . S
H1555 C1536 0.930 . S
H1556 C1538 0.932 . S
H1557 C1539 0.929 . S
H1558 C1540 0.928 . S
H1559 C1542 0.932 . S
C1560 C1561 1.264 . S
C1560 C1565 1.479 . S
C1560 C1570 1.465 . S
C1561 C1560 1.264 . S
C1561 C1563 1.339 . S
C1561 H1588 0.931 . S
C1562 C1563 1.395 . S
C1562 C1564 1.320 . S
C1563 C1561 1.339 . S
C1563 C1562 1.395 . S
C1563 H1589 0.929 . S
C1564 C1562 1.320 . S
C1564 C1565 1.405 . S
C1564 H1590 0.930 . S
C1565 C1560 1.479 . S
C1565 C1564 1.405 . S
C1565 H1591 0.931 . S
U1566 O1567 2.454 . S
U1566 O1568 2.458 . S
U1566 C1569 2.984 . S
U1566 C1570 2.847 . S
U1566 C1583 2.882 . S
U1566 O1584 2.441 . S
U1566 O1585 2.420 . S
U1566 O1586 2.455 . S
U1566 O1587 2.449 . S
O1567 U1566 2.454 . S
O1567 C1569 1.353 . S
O1568 U1566 2.458 . S
O1568 C1569 1.286 . S
C1569 U1566 2.984 . S
C1569 O1567 1.353 . S
C1569 O1568 1.286 . S
C1569 C1571 1.363 . S
C1570 C1560 1.465 . S
C1570 U1566 2.847 . S
C1570 O1584 1.249 . S
C1570 O1585 1.202 . S
C1571 C1569 1.363 . S
C1571 C1573 1.408 . S
C1571 C1576 1.342 . S
C1572 C1573 1.310 . S
C1572 C1575 1.461 . S
C1572 H1592 0.932 . S
C1573 C1571 1.408 . S
C1573 C1572 1.310 . S
C1573 H1593 0.930 . S
C1574 C1575 1.474 . S
C1574 C1576 1.285 . S
C1574 H1594 0.929 . S
C1575 C1572 1.461 . S
C1575 C1574 1.474 . S
C1576 C1571 1.342 . S
C1576 C1574 1.285 . S
C1576 H1595 0.930 . S
C1577 C1580 1.424 . S
C1577 C1582 1.245 . S
C1577 C1583 1.428 . S
C1578 C1581 1.260 . S
C1578 C1582 1.477 . S
C1578 H1596 0.932 . S
C1579 C1580 1.384 . S
C1579 C1581 1.479 . S
C1579 H1597 0.929 . S
C1580 C1577 1.424 . S
C1580 C1579 1.384 . S
C1580 H1598 0.928 . S
C1581 C1578 1.260 . S
C1581 C1579 1.479 . S
C1582 C1577 1.245 . S
C1582 C1578 1.477 . S
C1582 H1599 0.932 . S
C1583 U1566 2.882 . S
C1583 C1577 1.428 . S
C1583 O1586 1.301 . S
C1583 O1587 1.282 . S
O1584 U1566 2.441 . S
O1584 C1570 1.249 . S
O1585 U1566 2.420 . S
O1585 C1570 1.202 . S
O1586 U1566 2.455 . S
O1586 C1583 1.301 . S
O1587 U1566 2.449 . S
O1587 C1583 1.282 . S
H1588 C1561 0.931 . S
H1589 C1563 0.929 . S
H1590 C1564 0.930 . S
H1591 C1565 0.931 . S
H1592 C1572 0.932 . S
H1593 C1573 0.930 . S
H1594 C1574 0.929 . S
H1595 C1576 0.930 . S
H1596 C1578 0.932 . S
H1597 C1579 0.929 . S
H1598 C1580 0.928 . S
H1599 C1582 0.932 . S
C1600 C1601 1.264 . S
C1600 C1605 1.479 . S
C1600 C1610 1.465 . S
C1601 C1600 1.264 . S
C1601 C1603 1.339 . S
C1601 H1628 0.931 . S
C1602 C1603 1.395 . S
C1602 C1604 1.320 . S
C1603 C1601 1.339 . S
C1603 C1602 1.395 . S
C1603 H1629 0.929 . S
C1604 C1602 1.320 . S
C1604 C1605 1.405 . S
C1604 H1630 0.930 . S
C1605 C1600 1.479 . S
C1605 C1604 1.405 . S
C1605 H1631 0.931 . S
U1606 O1607 2.454 . S
U1606 O1608 2.458 . S
U1606 C1609 2.984 . S
U1606 C1610 2.847 1_455 S
U1606 C1623 2.882 . S
U1606 O1624 2.441 1_455 S
U1606 O1625 2.420 1_455 S
U1606 O1626 2.455 . S
U1606 O1627 2.449 . S
O1607 U1606 2.454 . S
O1607 C1609 1.353 . S
O1608 U1606 2.458 . S
O1608 C1609 1.286 . S
C1609 U1606 2.984 . S
C1609 O1607 1.353 . S
C1609 O1608 1.286 . S
C1609 C1611 1.363 . S
C1610 C1600 1.465 . S
C1610 U1606 2.847 1_655 S
C1610 O1624 1.249 . S
C1610 O1625 1.202 . S
C1611 C1609 1.363 . S
C1611 C1613 1.408 . S
C1611 C1616 1.342 . S
C1612 C1613 1.310 . S
C1612 C1615 1.461 . S
C1612 H1632 0.932 . S
C1613 C1611 1.408 . S
C1613 C1612 1.310 . S
C1613 H1633 0.930 . S
C1614 C1615 1.474 . S
C1614 C1616 1.285 . S
C1614 H1634 0.929 . S
C1615 C1612 1.461 . S
C1615 C1614 1.474 . S
C1616 C1611 1.342 . S
C1616 C1614 1.285 . S
C1616 H1635 0.930 . S
C1617 C1620 1.424 . S
C1617 C1622 1.245 . S
C1617 C1623 1.428 . S
C1618 C1621 1.260 . S
C1618 C1622 1.477 . S
C1618 H1636 0.932 . S
C1619 C1620 1.384 . S
C1619 C1621 1.479 . S
C1619 H1637 0.929 . S
C1620 C1617 1.424 . S
C1620 C1619 1.384 . S
C1620 H1638 0.928 . S
C1621 C1618 1.260 . S
C1621 C1619 1.479 . S
C1622 C1617 1.245 . S
C1622 C1618 1.477 . S
C1622 H1639 0.932 . S
C1623 U1606 2.882 . S
C1623 C1617 1.428 . S
C1623 O1626 1.301 . S
C1623 O1627 1.282 . S
O1624 U1606 2.441 1_655 S
O1624 C1610 1.249 . S
O1625 U1606 2.420 1_655 S
O1625 C1610 1.202 . S
O1626 U1606 2.455 . S
O1626 C1623 1.301 . S
O1627 U1606 2.449 . S
O1627 C1623 1.282 . S
H1628 C1601 0.931 . S
H1629 C1603 0.929 . S
H1630 C1604 0.930 . S
H1631 C1605 0.931 . S
H1632 C1612 0.932 . S
H1633 C1613 0.930 . S
H1634 C1614 0.929 . S
H1635 C1616 0.930 . S
H1636 C1618 0.932 . S
H1637 C1619 0.929 . S
H1638 C1620 0.928 . S
H1639 C1622 0.932 . S
C1640 C1641 1.264 . S
C1640 C1645 1.479 . S
C1640 C1650 1.465 . S
C1641 C1640 1.264 . S
C1641 C1643 1.339 . S
C1641 H1668 0.931 . S
C1642 C1643 1.395 . S
C1642 C1644 1.320 . S
C1643 C1641 1.339 . S
C1643 C1642 1.395 . S
C1643 H1669 0.929 . S
C1644 C1642 1.320 . S
C1644 C1645 1.405 . S
C1644 H1670 0.930 . S
C1645 C1640 1.479 . S
C1645 C1644 1.405 . S
C1645 H1671 0.931 . S
U1646 O1647 2.454 . S
U1646 O1648 2.458 . S
U1646 C1649 2.984 . S
U1646 C1650 2.847 . S
U1646 C1663 2.882 . S
U1646 O1664 2.441 . S
U1646 O1665 2.420 . S
U1646 O1666 2.455 . S
U1646 O1667 2.449 . S
O1647 U1646 2.454 . S
O1647 C1649 1.353 . S
O1648 U1646 2.458 . S
O1648 C1649 1.286 . S
C1649 U1646 2.984 . S
C1649 O1647 1.353 . S
C1649 O1648 1.286 . S
C1649 C1651 1.363 . S
C1650 C1640 1.465 . S
C1650 U1646 2.847 . S
C1650 O1664 1.249 . S
C1650 O1665 1.202 . S
C1651 C1649 1.363 . S
C1651 C1653 1.408 . S
C1651 C1656 1.342 . S
C1652 C1653 1.310 . S
C1652 C1655 1.461 . S
C1652 H1672 0.932 . S
C1653 C1651 1.408 . S
C1653 C1652 1.310 . S
C1653 H1673 0.930 . S
C1654 C1655 1.474 . S
C1654 C1656 1.285 . S
C1654 H1674 0.929 . S
C1655 C1652 1.461 . S
C1655 C1654 1.474 . S
C1656 C1651 1.342 . S
C1656 C1654 1.285 . S
C1656 H1675 0.930 . S
C1657 C1660 1.424 . S
C1657 C1662 1.245 . S
C1657 C1663 1.428 . S
C1658 C1661 1.260 . S
C1658 C1662 1.477 . S
C1658 H1676 0.932 . S
C1659 C1660 1.384 . S
C1659 C1661 1.479 . S
C1659 H1677 0.929 . S
C1660 C1657 1.424 . S
C1660 C1659 1.384 . S
C1660 H1678 0.928 . S
C1661 C1658 1.260 . S
C1661 C1659 1.479 . S
C1662 C1657 1.245 . S
C1662 C1658 1.477 . S
C1662 H1679 0.932 . S
C1663 U1646 2.882 . S
C1663 C1657 1.428 . S
C1663 O1666 1.301 . S
C1663 O1667 1.282 . S
O1664 U1646 2.441 . S
O1664 C1650 1.249 . S
O1665 U1646 2.420 . S
O1665 C1650 1.202 . S
O1666 U1646 2.455 . S
O1666 C1663 1.301 . S
O1667 U1646 2.449 . S
O1667 C1663 1.282 . S
H1668 C1641 0.931 . S
H1669 C1643 0.929 . S
H1670 C1644 0.930 . S
H1671 C1645 0.931 . S
H1672 C1652 0.932 . S
H1673 C1653 0.930 . S
H1674 C1654 0.929 . S
H1675 C1656 0.930 . S
H1676 C1658 0.932 . S
H1677 C1659 0.929 . S
H1678 C1660 0.928 . S
H1679 C1662 0.932 . S
C1680 C1681 1.264 . S
C1680 C1685 1.479 . S
C1680 C1690 1.465 . S
C1681 C1680 1.264 . S
C1681 C1683 1.339 . S
C1681 H1708 0.931 . S
C1682 C1683 1.395 . S
C1682 C1684 1.320 . S
C1683 C1681 1.339 . S
C1683 C1682 1.395 . S
C1683 H1709 0.929 . S
C1684 C1682 1.320 . S
C1684 C1685 1.405 . S
C1684 H1710 0.930 . S
C1685 C1680 1.479 . S
C1685 C1684 1.405 . S
C1685 H1711 0.931 . S
U1686 O1687 2.454 . S
U1686 O1688 2.458 . S
U1686 C1689 2.971 . S
U1686 C1690 2.847 . S
U1686 C1703 2.882 . S
U1686 O1704 2.441 . S
U1686 O1705 2.420 . S
U1686 O1706 2.455 . S
U1686 O1707 2.449 . S
O1687 U1686 2.454 . S
O1687 C1689 1.347 . S
O1688 U1686 2.458 . S
O1688 C1689 1.276 . S
C1689 U1686 2.971 . S
C1689 O1687 1.347 . S
C1689 O1688 1.276 . S
C1689 C1691 1.376 1_554 S
C1690 C1680 1.465 . S
C1690 U1686 2.847 . S
C1690 O1704 1.249 . S
C1690 O1705 1.202 . S
C1691 C1689 1.376 1_556 S
C1691 C1693 1.408 . S
C1691 C1696 1.342 . S
C1692 C1693 1.310 . S
C1692 C1695 1.461 . S
C1692 H1712 0.932 . S
C1693 C1691 1.408 . S
C1693 C1692 1.310 . S
C1693 H1713 0.930 . S
C1694 C1695 1.474 . S
C1694 C1696 1.285 . S
C1694 H1714 0.929 . S
C1695 C1692 1.461 . S
C1695 C1694 1.474 . S
C1696 C1691 1.342 . S
C1696 C1694 1.285 . S
C1696 H1715 0.930 . S
C1697 C1700 1.424 . S
C1697 C1702 1.245 . S
C1697 C1703 1.428 . S
C1698 C1701 1.260 . S
C1698 C1702 1.477 . S
C1698 H1716 0.932 . S
C1699 C1700 1.384 . S
C1699 C1701 1.479 . S
C1699 H1717 0.929 . S
C1700 C1697 1.424 . S
C1700 C1699 1.384 . S
C1700 H1718 0.928 . S
C1701 C1698 1.260 . S
C1701 C1699 1.479 . S
C1702 C1697 1.245 . S
C1702 C1698 1.477 . S
C1702 H1719 0.932 . S
C1703 U1686 2.882 . S
C1703 C1697 1.428 . S
C1703 O1706 1.301 . S
C1703 O1707 1.282 . S
O1704 U1686 2.441 . S
O1704 C1690 1.249 . S
O1705 U1686 2.420 . S
O1705 C1690 1.202 . S
O1706 U1686 2.455 . S
O1706 C1703 1.301 . S
O1707 U1686 2.449 . S
O1707 C1703 1.282 . S
H1708 C1681 0.931 . S
H1709 C1683 0.929 . S
H1710 C1684 0.930 . S
H1711 C1685 0.931 . S
H1712 C1692 0.932 . S
H1713 C1693 0.930 . S
H1714 C1694 0.929 . S
H1715 C1696 0.930 . S
H1716 C1698 0.932 . S
H1717 C1699 0.929 . S
H1718 C1700 0.928 . S
H1719 C1702 0.932 . S
C1720 C1721 1.264 . S
C1720 C1725 1.479 . S
C1720 C1730 1.465 . S
C1721 C1720 1.264 . S
C1721 C1723 1.339 . S
C1721 H1748 0.931 . S
C1722 C1723 1.395 . S
C1722 C1724 1.320 . S
C1723 C1721 1.339 . S
C1723 C1722 1.395 . S
C1723 H1749 0.929 . S
C1724 C1722 1.320 . S
C1724 C1725 1.405 . S
C1724 H1750 0.930 . S
C1725 C1720 1.479 . S
C1725 C1724 1.405 . S
C1725 H1751 0.931 . S
U1726 O1727 2.454 . S
U1726 O1728 2.458 . S
U1726 C1729 2.984 . S
U1726 C1730 2.847 . S
U1726 C1743 2.882 . S
U1726 O1744 2.441 . S
U1726 O1745 2.420 . S
U1726 O1746 2.455 . S
U1726 O1747 2.449 . S
O1727 U1726 2.454 . S
O1727 C1729 1.353 . S
O1728 U1726 2.458 . S
O1728 C1729 1.286 . S
C1729 U1726 2.984 . S
C1729 O1727 1.353 . S
C1729 O1728 1.286 . S
C1729 C1731 1.363 . S
C1730 C1720 1.465 . S
C1730 U1726 2.847 . S
C1730 O1744 1.249 . S
C1730 O1745 1.202 . S
C1731 C1729 1.363 . S
C1731 C1733 1.408 . S
C1731 C1736 1.342 . S
C1732 C1733 1.310 . S
C1732 C1735 1.461 . S
C1732 H1752 0.932 . S
C1733 C1731 1.408 . S
C1733 C1732 1.310 . S
C1733 H1753 0.930 . S
C1734 C1735 1.474 . S
C1734 C1736 1.285 . S
C1734 H1754 0.929 . S
C1735 C1732 1.461 . S
C1735 C1734 1.474 . S
C1736 C1731 1.342 . S
C1736 C1734 1.285 . S
C1736 H1755 0.930 . S
C1737 C1740 1.424 . S
C1737 C1742 1.245 . S
C1737 C1743 1.428 . S
C1738 C1741 1.260 . S
C1738 C1742 1.477 . S
C1738 H1756 0.932 . S
C1739 C1740 1.384 . S
C1739 C1741 1.479 . S
C1739 H1757 0.929 . S
C1740 C1737 1.424 . S
C1740 C1739 1.384 . S
C1740 H1758 0.928 . S
C1741 C1738 1.260 . S
C1741 C1739 1.479 . S
C1742 C1737 1.245 . S
C1742 C1738 1.477 . S
C1742 H1759 0.932 . S
C1743 U1726 2.882 . S
C1743 C1737 1.428 . S
C1743 O1746 1.301 . S
C1743 O1747 1.282 . S
O1744 U1726 2.441 . S
O1744 C1730 1.249 . S
O1745 U1726 2.420 . S
O1745 C1730 1.202 . S
O1746 U1726 2.455 . S
O1746 C1743 1.301 . S
O1747 U1726 2.449 . S
O1747 C1743 1.282 . S
H1748 C1721 0.931 . S
H1749 C1723 0.929 . S
H1750 C1724 0.930 . S
H1751 C1725 0.931 . S
H1752 C1732 0.932 . S
H1753 C1733 0.930 . S
H1754 C1734 0.929 . S
H1755 C1736 0.930 . S
H1756 C1738 0.932 . S
H1757 C1739 0.929 . S
H1758 C1740 0.928 . S
H1759 C1742 0.932 . S
C1760 C1761 1.264 . S
C1760 C1765 1.479 . S
C1760 C1770 1.465 . S
C1761 C1760 1.264 . S
C1761 C1763 1.339 . S
C1761 H1788 0.931 . S
C1762 C1763 1.395 . S
C1762 C1764 1.320 . S
C1763 C1761 1.339 . S
C1763 C1762 1.395 . S
C1763 H1789 0.929 . S
C1764 C1762 1.320 . S
C1764 C1765 1.405 . S
C1764 H1790 0.930 . S
C1765 C1760 1.479 . S
C1765 C1764 1.405 . S
C1765 H1791 0.931 . S
U1766 O1767 2.454 . S
U1766 O1768 2.458 . S
U1766 C1769 2.984 . S
U1766 C1770 2.847 . S
U1766 C1783 2.882 . S
U1766 O1784 2.441 . S
U1766 O1785 2.420 . S
U1766 O1786 2.455 . S
U1766 O1787 2.449 . S
O1767 U1766 2.454 . S
O1767 C1769 1.353 . S
O1768 U1766 2.458 . S
O1768 C1769 1.286 . S
C1769 U1766 2.984 . S
C1769 O1767 1.353 . S
C1769 O1768 1.286 . S
C1769 C1771 1.363 . S
C1770 C1760 1.465 . S
C1770 U1766 2.847 . S
C1770 O1784 1.249 . S
C1770 O1785 1.202 . S
C1771 C1769 1.363 . S
C1771 C1773 1.408 . S
C1771 C1776 1.342 . S
C1772 C1773 1.310 . S
C1772 C1775 1.461 . S
C1772 H1792 0.932 . S
C1773 C1771 1.408 . S
C1773 C1772 1.310 . S
C1773 H1793 0.930 . S
C1774 C1775 1.474 . S
C1774 C1776 1.285 . S
C1774 H1794 0.929 . S
C1775 C1772 1.461 . S
C1775 C1774 1.474 . S
C1776 C1771 1.342 . S
C1776 C1774 1.285 . S
C1776 H1795 0.930 . S
C1777 C1780 1.424 . S
C1777 C1782 1.245 . S
C1777 C1783 1.428 . S
C1778 C1781 1.260 . S
C1778 C1782 1.477 . S
C1778 H1796 0.932 . S
C1779 C1780 1.384 . S
C1779 C1781 1.479 . S
C1779 H1797 0.929 . S
C1780 C1777 1.424 . S
C1780 C1779 1.384 . S
C1780 H1798 0.928 . S
C1781 C1778 1.260 . S
C1781 C1779 1.479 . S
C1782 C1777 1.245 . S
C1782 C1778 1.477 . S
C1782 H1799 0.932 . S
C1783 U1766 2.882 . S
C1783 C1777 1.428 . S
C1783 O1786 1.301 . S
C1783 O1787 1.282 . S
O1784 U1766 2.441 . S
O1784 C1770 1.249 . S
O1785 U1766 2.420 . S
O1785 C1770 1.202 . S
O1786 U1766 2.455 . S
O1786 C1783 1.301 . S
O1787 U1766 2.449 . S
O1787 C1783 1.282 . S
H1788 C1761 0.931 . S
H1789 C1763 0.929 . S
H1790 C1764 0.930 . S
H1791 C1765 0.931 . S
H1792 C1772 0.932 . S
H1793 C1773 0.930 . S
H1794 C1774 0.929 . S
H1795 C1776 0.930 . S
H1796 C1778 0.932 . S
H1797 C1779 0.929 . S
H1798 C1780 0.928 . S
H1799 C1782 0.932 . S
C1800 C1801 1.264 . S
C1800 C1805 1.479 . S
C1800 C1810 1.465 . S
C1801 C1800 1.264 . S
C1801 C1803 1.339 . S
C1801 H1828 0.931 . S
C1802 C1803 1.395 . S
C1802 C1804 1.320 . S
C1803 C1801 1.339 . S
C1803 C1802 1.395 . S
C1803 H1829 0.929 . S
C1804 C1802 1.320 . S
C1804 C1805 1.405 . S
C1804 H1830 0.930 . S
C1805 C1800 1.479 . S
C1805 C1804 1.405 . S
C1805 H1831 0.931 . S
U1806 O1807 2.454 . S
U1806 O1808 2.458 . S
U1806 C1809 2.984 . S
U1806 C1810 2.847 . S
U1806 C1823 2.882 . S
U1806 O1824 2.441 . S
U1806 O1825 2.420 . S
U1806 O1826 2.455 . S
U1806 O1827 2.449 . S
O1807 U1806 2.454 . S
O1807 C1809 1.353 . S
O1808 U1806 2.458 . S
O1808 C1809 1.286 . S
C1809 U1806 2.984 . S
C1809 O1807 1.353 . S
C1809 O1808 1.286 . S
C1809 C1811 1.363 . S
C1810 C1800 1.465 . S
C1810 U1806 2.847 . S
C1810 O1824 1.249 . S
C1810 O1825 1.202 . S
C1811 C1809 1.363 . S
C1811 C1813 1.408 . S
C1811 C1816 1.342 . S
C1812 C1813 1.310 . S
C1812 C1815 1.461 . S
C1812 H1832 0.932 . S
C1813 C1811 1.408 . S
C1813 C1812 1.310 . S
C1813 H1833 0.930 . S
C1814 C1815 1.474 . S
C1814 C1816 1.285 . S
C1814 H1834 0.929 . S
C1815 C1812 1.461 . S
C1815 C1814 1.474 . S
C1816 C1811 1.342 . S
C1816 C1814 1.285 . S
C1816 H1835 0.930 . S
C1817 C1820 1.424 . S
C1817 C1822 1.245 . S
C1817 C1823 1.428 . S
C1818 C1821 1.260 . S
C1818 C1822 1.477 . S
C1818 H1836 0.932 . S
C1819 C1820 1.384 . S
C1819 C1821 1.479 . S
C1819 H1837 0.929 . S
C1820 C1817 1.424 . S
C1820 C1819 1.384 . S
C1820 H1838 0.928 . S
C1821 C1818 1.260 . S
C1821 C1819 1.479 . S
C1822 C1817 1.245 . S
C1822 C1818 1.477 . S
C1822 H1839 0.932 . S
C1823 U1806 2.882 . S
C1823 C1817 1.428 . S
C1823 O1826 1.301 . S
C1823 O1827 1.282 . S
O1824 U1806 2.441 . S
O1824 C1810 1.249 . S
O1825 U1806 2.420 . S
O1825 C1810 1.202 . S
O1826 U1806 2.455 . S
O1826 C1823 1.301 . S
O1827 U1806 2.449 . S
O1827 C1823 1.282 . S
H1828 C1801 0.931 . S
H1829 C1803 0.929 . S
H1830 C1804 0.930 . S
H1831 C1805 0.931 . S
H1832 C1812 0.932 . S
H1833 C1813 0.930 . S
H1834 C1814 0.929 . S
H1835 C1816 0.930 . S
H1836 C1818 0.932 . S
H1837 C1819 0.929 . S
H1838 C1820 0.928 . S
H1839 C1822 0.932 . S
C1840 C1841 1.264 . S
C1840 C1845 1.479 . S
C1840 C1850 1.465 . S
C1841 C1840 1.264 . S
C1841 C1843 1.339 . S
C1841 H1868 0.931 . S
C1842 C1843 1.395 . S
C1842 C1844 1.320 . S
C1843 C1841 1.339 . S
C1843 C1842 1.395 . S
C1843 H1869 0.929 . S
C1844 C1842 1.320 . S
C1844 C1845 1.405 . S
C1844 H1870 0.930 . S
C1845 C1840 1.479 . S
C1845 C1844 1.405 . S
C1845 H1871 0.931 . S
U1846 O1847 2.454 . S
U1846 O1848 2.458 . S
U1846 C1849 2.984 . S
U1846 C1850 2.847 . S
U1846 C1863 2.882 . S
U1846 O1864 2.441 . S
U1846 O1865 2.420 . S
U1846 O1866 2.455 . S
U1846 O1867 2.449 . S
O1847 U1846 2.454 . S
O1847 C1849 1.353 . S
O1848 U1846 2.458 . S
O1848 C1849 1.286 . S
C1849 U1846 2.984 . S
C1849 O1847 1.353 . S
C1849 O1848 1.286 . S
C1849 C1851 1.363 . S
C1850 C1840 1.465 . S
C1850 U1846 2.847 . S
C1850 O1864 1.249 . S
C1850 O1865 1.202 . S
C1851 C1849 1.363 . S
C1851 C1853 1.408 . S
C1851 C1856 1.342 . S
C1852 C1853 1.310 . S
C1852 C1855 1.461 . S
C1852 H1872 0.932 . S
C1853 C1851 1.408 . S
C1853 C1852 1.310 . S
C1853 H1873 0.930 . S
C1854 C1855 1.474 . S
C1854 C1856 1.285 . S
C1854 H1874 0.929 . S
C1855 C1852 1.461 . S
C1855 C1854 1.474 . S
C1856 C1851 1.342 . S
C1856 C1854 1.285 . S
C1856 H1875 0.930 . S
C1857 C1860 1.424 . S
C1857 C1862 1.245 . S
C1857 C1863 1.428 . S
C1858 C1861 1.260 . S
C1858 C1862 1.477 . S
C1858 H1876 0.932 . S
C1859 C1860 1.384 . S
C1859 C1861 1.479 . S
C1859 H1877 0.929 . S
C1860 C1857 1.424 . S
C1860 C1859 1.384 . S
C1860 H1878 0.928 . S
C1861 C1858 1.260 . S
C1861 C1859 1.479 . S
C1862 C1857 1.245 . S
C1862 C1858 1.477 . S
C1862 H1879 0.932 . S
C1863 U1846 2.882 . S
C1863 C1857 1.428 . S
C1863 O1866 1.301 . S
C1863 O1867 1.282 . S
O1864 U1846 2.441 . S
O1864 C1850 1.249 . S
O1865 U1846 2.420 . S
O1865 C1850 1.202 . S
O1866 U1846 2.455 . S
O1866 C1863 1.301 . S
O1867 U1846 2.449 . S
O1867 C1863 1.282 . S
H1868 C1841 0.931 . S
H1869 C1843 0.929 . S
H1870 C1844 0.930 . S
H1871 C1845 0.931 . S
H1872 C1852 0.932 . S
H1873 C1853 0.930 . S
H1874 C1854 0.929 . S
H1875 C1856 0.930 . S
H1876 C1858 0.932 . S
H1877 C1859 0.929 . S
H1878 C1860 0.928 . S
H1879 C1862 0.932 . S
C1880 C1881 1.264 . S
C1880 C1885 1.479 . S
C1880 C1890 1.465 . S
C1881 C1880 1.264 . S
C1881 C1883 1.339 . S
C1881 H1908 0.931 . S
C1882 C1883 1.395 . S
C1882 C1884 1.320 . S
C1883 C1881 1.339 . S
C1883 C1882 1.395 . S
C1883 H1909 0.929 . S
C1884 C1882 1.320 . S
C1884 C1885 1.405 . S
C1884 H1910 0.930 . S
C1885 C1880 1.479 . S
C1885 C1884 1.405 . S
C1885 H1911 0.931 . S
U1886 O1887 2.454 . S
U1886 O1888 2.458 . S
U1886 C1889 2.984 . S
U1886 C1890 2.847 . S
U1886 C1903 2.882 . S
U1886 O1904 2.441 . S
U1886 O1905 2.420 . S
U1886 O1906 2.455 . S
U1886 O1907 2.449 . S
O1887 U1886 2.454 . S
O1887 C1889 1.353 . S
O1888 U1886 2.458 . S
O1888 C1889 1.286 . S
C1889 U1886 2.984 . S
C1889 O1887 1.353 . S
C1889 O1888 1.286 . S
C1889 C1891 1.363 . S
C1890 C1880 1.465 . S
C1890 U1886 2.847 . S
C1890 O1904 1.249 . S
C1890 O1905 1.202 . S
C1891 C1889 1.363 . S
C1891 C1893 1.408 . S
C1891 C1896 1.342 . S
C1892 C1893 1.310 . S
C1892 C1895 1.461 . S
C1892 H1912 0.932 . S
C1893 C1891 1.408 . S
C1893 C1892 1.310 . S
C1893 H1913 0.930 . S
C1894 C1895 1.474 . S
C1894 C1896 1.285 . S
C1894 H1914 0.929 . S
C1895 C1892 1.461 . S
C1895 C1894 1.474 . S
C1896 C1891 1.342 . S
C1896 C1894 1.285 . S
C1896 H1915 0.930 . S
C1897 C1900 1.424 . S
C1897 C1902 1.245 . S
C1897 C1903 1.428 . S
C1898 C1901 1.260 . S
C1898 C1902 1.477 . S
C1898 H1916 0.932 . S
C1899 C1900 1.384 . S
C1899 C1901 1.479 . S
C1899 H1917 0.929 . S
C1900 C1897 1.424 . S
C1900 C1899 1.384 . S
C1900 H1918 0.928 . S
C1901 C1898 1.260 . S
C1901 C1899 1.479 . S
C1902 C1897 1.245 . S
C1902 C1898 1.477 . S
C1902 H1919 0.932 . S
C1903 U1886 2.882 . S
C1903 C1897 1.428 . S
C1903 O1906 1.301 . S
C1903 O1907 1.282 . S
O1904 U1886 2.441 . S
O1904 C1890 1.249 . S
O1905 U1886 2.420 . S
O1905 C1890 1.202 . S
O1906 U1886 2.455 . S
O1906 C1903 1.301 . S
O1907 U1886 2.449 . S
O1907 C1903 1.282 . S
H1908 C1881 0.931 . S
H1909 C1883 0.929 . S
H1910 C1884 0.930 . S
H1911 C1885 0.931 . S
H1912 C1892 0.932 . S
H1913 C1893 0.930 . S
H1914 C1894 0.929 . S
H1915 C1896 0.930 . S
H1916 C1898 0.932 . S
H1917 C1899 0.929 . S
H1918 C1900 0.928 . S
H1919 C1902 0.932 . S
P1920 O1931 1.490 . S
P1920 C1934 1.812 . S
P1920 C1940 1.803 . S
P1920 C1946 1.819 . S
H1921 C1935 0.941 . S
H1922 C1936 0.939 . S
H1923 C1938 0.940 . S
H1924 C1939 0.940 . S
H1925 C1941 0.939 . S
H1926 C1942 0.942 . S
H1927 C1944 0.940 . S
H1928 C1945 0.939 . S
H1929 C1947 0.941 . S
H1930 C1951 0.939 . S
O1931 P1920 1.490 . S
H1932 C1948 0.939 . S
H1933 C1950 0.940 . S
C1934 P1920 1.812 . S
C1934 C1935 1.389 . S
C1934 C1939 1.391 . S
C1935 H1921 0.941 . S
C1935 C1934 1.389 . S
C1935 C1936 1.397 . S
C1936 H1922 0.939 . S
C1936 C1935 1.397 . S
C1936 C1937 1.378 . S
C1937 C1936 1.378 . S
C1937 C1938 1.378 . S
C1938 H1923 0.940 . S
C1938 C1937 1.378 . S
C1938 C1939 1.396 . S
C1939 H1924 0.940 . S
C1939 C1934 1.391 . S
C1939 C1938 1.396 . S
C1940 P1920 1.803 . S
C1940 C1941 1.378 . S
C1940 C1945 1.400 . S
C1941 H1925 0.939 . S
C1941 C1940 1.378 . S
C1941 C1942 1.361 . S
C1942 H1926 0.942 . S
C1942 C1941 1.361 . S
C1942 C1943 1.369 . S
C1943 C1942 1.369 . S
C1943 C1944 1.404 . S
C1944 H1927 0.940 . S
C1944 C1943 1.404 . S
C1944 C1945 1.389 . S
C1945 H1928 0.939 . S
C1945 C1940 1.400 . S
C1945 C1944 1.389 . S
C1946 P1920 1.819 . S
C1946 C1947 1.391 . S
C1946 C1951 1.391 . S
C1947 H1929 0.941 . S
C1947 C1946 1.391 . S
C1947 C1948 1.396 . S
C1948 H1932 0.939 . S
C1948 C1947 1.396 . S
C1948 C1949 1.397 . S
C1949 C1948 1.397 . S
C1949 C1950 1.385 . S
C1950 H1933 0.940 . S
C1950 C1949 1.385 . S
C1950 C1951 1.388 . S
C1951 H1930 0.939 . S
C1951 C1946 1.391 . S
C1951 C1950 1.388 . S
P1952 O1963 1.490 . S
P1952 C1966 1.812 . S
P1952 C1972 1.803 . S
P1952 C1978 1.819 . S
H1953 C1967 0.941 . S
H1954 C1968 0.939 . S
H1955 C1970 0.940 . S
H1956 C1971 0.940 . S
H1957 C1973 0.939 . S
H1958 C1974 0.942 . S
H1959 C1976 0.940 . S
H1960 C1977 0.939 . S
H1961 C1979 0.941 . S
H1962 C1983 0.939 . S
O1963 P1952 1.490 . S
H1964 C1980 0.939 . S
H1965 C1982 0.940 . S
C1966 P1952 1.812 . S
C1966 C1967 1.389 . S
C1966 C1971 1.391 . S
C1967 H1953 0.941 . S
C1967 C1966 1.389 . S
C1967 C1968 1.397 . S
C1968 H1954 0.939 . S
C1968 C1967 1.397 . S
C1968 C1969 1.378 . S
C1969 C1968 1.378 . S
C1969 C1970 1.378 . S
C1970 H1955 0.940 . S
C1970 C1969 1.378 . S
C1970 C1971 1.396 . S
C1971 H1956 0.940 . S
C1971 C1966 1.391 . S
C1971 C1970 1.396 . S
C1972 P1952 1.803 . S
C1972 C1973 1.378 . S
C1972 C1977 1.400 . S
C1973 H1957 0.939 . S
C1973 C1972 1.378 . S
C1973 C1974 1.361 . S
C1974 H1958 0.942 . S
C1974 C1973 1.361 . S
C1974 C1975 1.369 . S
C1975 C1974 1.369 . S
C1975 C1976 1.404 . S
C1976 H1959 0.940 . S
C1976 C1975 1.404 . S
C1976 C1977 1.389 . S
C1977 H1960 0.939 . S
C1977 C1972 1.400 . S
C1977 C1976 1.389 . S
C1978 P1952 1.819 . S
C1978 C1979 1.391 . S
C1978 C1983 1.391 . S
C1979 H1961 0.941 . S
C1979 C1978 1.391 . S
C1979 C1980 1.396 . S
C1980 H1964 0.939 . S
C1980 C1979 1.396 . S
C1980 C1981 1.397 . S
C1981 C1980 1.397 . S
C1981 C1982 1.385 . S
C1982 H1965 0.940 . S
C1982 C1981 1.385 . S
C1982 C1983 1.388 . S
C1983 H1962 0.939 . S
C1983 C1978 1.391 . S
C1983 C1982 1.388 . S
P1984 O1995 1.490 . S
P1984 C1998 1.812 . S
P1984 C2004 1.803 . S
P1984 C2010 1.819 . S
H1985 C1999 0.941 . S
H1986 C2000 0.939 . S
H1987 C2002 0.940 . S
H1988 C2003 0.940 . S
H1989 C2005 0.939 . S
H1990 C2006 0.942 . S
H1991 C2008 0.940 . S
H1992 C2009 0.939 . S
H1993 C2011 0.941 . S
H1994 C2015 0.939 . S
O1995 P1984 1.490 . S
H1996 C2012 0.939 . S
H1997 C2014 0.940 . S
C1998 P1984 1.812 . S
C1998 C1999 1.389 . S
C1998 C2003 1.391 . S
C1999 H1985 0.941 . S
C1999 C1998 1.389 . S
C1999 C2000 1.397 . S
C2000 H1986 0.939 . S
C2000 C1999 1.397 . S
C2000 C2001 1.378 . S
C2001 C2000 1.378 . S
C2001 C2002 1.378 . S
C2002 H1987 0.940 . S
C2002 C2001 1.378 . S
C2002 C2003 1.396 . S
C2003 H1988 0.940 . S
C2003 C1998 1.391 . S
C2003 C2002 1.396 . S
C2004 P1984 1.803 . S
C2004 C2005 1.378 . S
C2004 C2009 1.400 . S
C2005 H1989 0.939 . S
C2005 C2004 1.378 . S
C2005 C2006 1.361 . S
C2006 H1990 0.942 . S
C2006 C2005 1.361 . S
C2006 C2007 1.369 . S
C2007 C2006 1.369 . S
C2007 C2008 1.404 . S
C2008 H1991 0.940 . S
C2008 C2007 1.404 . S
C2008 C2009 1.389 . S
C2009 H1992 0.939 . S
C2009 C2004 1.400 . S
C2009 C2008 1.389 . S
C2010 P1984 1.819 . S
C2010 C2011 1.391 . S
C2010 C2015 1.391 . S
C2011 H1993 0.941 . S
C2011 C2010 1.391 . S
C2011 C2012 1.396 . S
C2012 H1996 0.939 . S
C2012 C2011 1.396 . S
C2012 C2013 1.397 . S
C2013 C2012 1.397 . S
C2013 C2014 1.385 . S
C2014 H1997 0.940 . S
C2014 C2013 1.385 . S
C2014 C2015 1.388 . S
C2015 H1994 0.939 . S
C2015 C2010 1.391 . S
C2015 C2014 1.388 . S
P2016 O2027 1.490 . S
P2016 C2030 1.812 . S
P2016 C2036 1.803 . S
P2016 C2042 1.819 . S
H2017 C2031 0.941 . S
H2018 C2032 0.939 . S
H2019 C2034 0.940 . S
H2020 C2035 0.940 . S
H2021 C2037 0.939 . S
H2022 C2038 0.942 . S
H2023 C2040 0.940 . S
H2024 C2041 0.939 . S
H2025 C2043 0.941 . S
H2026 C2047 0.939 . S
O2027 P2016 1.490 . S
H2028 C2044 0.939 . S
H2029 C2046 0.940 . S
C2030 P2016 1.812 . S
C2030 C2031 1.389 . S
C2030 C2035 1.391 . S
C2031 H2017 0.941 . S
C2031 C2030 1.389 . S
C2031 C2032 1.397 . S
C2032 H2018 0.939 . S
C2032 C2031 1.397 . S
C2032 C2033 1.378 . S
C2033 C2032 1.378 . S
C2033 C2034 1.378 . S
C2034 H2019 0.940 . S
C2034 C2033 1.378 . S
C2034 C2035 1.396 . S
C2035 H2020 0.940 . S
C2035 C2030 1.391 . S
C2035 C2034 1.396 . S
C2036 P2016 1.803 . S
C2036 C2037 1.378 . S
C2036 C2041 1.400 . S
C2037 H2021 0.939 . S
C2037 C2036 1.378 . S
C2037 C2038 1.361 . S
C2038 H2022 0.942 . S
C2038 C2037 1.361 . S
C2038 C2039 1.369 . S
C2039 C2038 1.369 . S
C2039 C2040 1.404 . S
C2040 H2023 0.940 . S
C2040 C2039 1.404 . S
C2040 C2041 1.389 . S
C2041 H2024 0.939 . S
C2041 C2036 1.400 . S
C2041 C2040 1.389 . S
C2042 P2016 1.819 . S
C2042 C2043 1.391 . S
C2042 C2047 1.391 . S
C2043 H2025 0.941 . S
C2043 C2042 1.391 . S
C2043 C2044 1.396 . S
C2044 H2028 0.939 . S
C2044 C2043 1.396 . S
C2044 C2045 1.397 . S
C2045 C2044 1.397 . S
C2045 C2046 1.385 . S
C2046 H2029 0.940 . S
C2046 C2045 1.385 . S
C2046 C2047 1.388 . S
C2047 H2026 0.939 . S
C2047 C2042 1.391 . S
C2047 C2046 1.388 . S
P2048 O2059 1.490 . S
P2048 C2062 1.812 . S
P2048 C2068 1.803 . S
P2048 C2074 1.819 . S
H2049 C2063 0.941 . S
H2050 C2064 0.939 . S
H2051 C2066 0.940 . S
H2052 C2067 0.940 . S
H2053 C2069 0.939 . S
H2054 C2070 0.942 . S
H2055 C2072 0.940 . S
H2056 C2073 0.939 . S
H2057 C2075 0.941 . S
H2058 C2079 0.939 . S
O2059 P2048 1.490 . S
H2060 C2076 0.939 . S
H2061 C2078 0.940 . S
C2062 P2048 1.812 . S
C2062 C2063 1.389 . S
C2062 C2067 1.391 . S
C2063 H2049 0.941 . S
C2063 C2062 1.389 . S
C2063 C2064 1.397 . S
C2064 H2050 0.939 . S
C2064 C2063 1.397 . S
C2064 C2065 1.378 . S
C2065 C2064 1.378 . S
C2065 C2066 1.378 . S
C2066 H2051 0.940 . S
C2066 C2065 1.378 . S
C2066 C2067 1.396 . S
C2067 H2052 0.940 . S
C2067 C2062 1.391 . S
C2067 C2066 1.396 . S
C2068 P2048 1.803 . S
C2068 C2069 1.378 . S
C2068 C2073 1.400 . S
C2069 H2053 0.939 . S
C2069 C2068 1.378 . S
C2069 C2070 1.361 . S
C2070 H2054 0.942 . S
C2070 C2069 1.361 . S
C2070 C2071 1.369 . S
C2071 C2070 1.369 . S
C2071 C2072 1.404 . S
C2072 H2055 0.940 . S
C2072 C2071 1.404 . S
C2072 C2073 1.389 . S
C2073 H2056 0.939 . S
C2073 C2068 1.400 . S
C2073 C2072 1.389 . S
C2074 P2048 1.819 . S
C2074 C2075 1.391 . S
C2074 C2079 1.391 . S
C2075 H2057 0.941 . S
C2075 C2074 1.391 . S
C2075 C2076 1.396 . S
C2076 H2060 0.939 . S
C2076 C2075 1.396 . S
C2076 C2077 1.397 . S
C2077 C2076 1.397 . S
C2077 C2078 1.385 . S
C2078 H2061 0.940 . S
C2078 C2077 1.385 . S
C2078 C2079 1.388 . S
C2079 H2058 0.939 . S
C2079 C2074 1.391 . S
C2079 C2078 1.388 . S
P2080 O2091 1.490 . S
P2080 C2094 1.812 . S
P2080 C2100 1.803 . S
P2080 C2106 1.819 . S
H2081 C2095 0.941 . S
H2082 C2096 0.939 . S
H2083 C2098 0.940 . S
H2084 C2099 0.940 . S
H2085 C2101 0.939 . S
H2086 C2102 0.942 . S
H2087 C2104 0.940 . S
H2088 C2105 0.939 . S
H2089 C2107 0.941 . S
H2090 C2111 0.939 . S
O2091 P2080 1.490 . S
H2092 C2108 0.939 . S
H2093 C2110 0.940 . S
C2094 P2080 1.812 . S
C2094 C2095 1.389 . S
C2094 C2099 1.391 . S
C2095 H2081 0.941 . S
C2095 C2094 1.389 . S
C2095 C2096 1.397 . S
C2096 H2082 0.939 . S
C2096 C2095 1.397 . S
C2096 C2097 1.378 . S
C2097 C2096 1.378 . S
C2097 C2098 1.378 . S
C2098 H2083 0.940 . S
C2098 C2097 1.378 . S
C2098 C2099 1.396 . S
C2099 H2084 0.940 . S
C2099 C2094 1.391 . S
C2099 C2098 1.396 . S
C2100 P2080 1.803 . S
C2100 C2101 1.378 . S
C2100 C2105 1.400 . S
C2101 H2085 0.939 . S
C2101 C2100 1.378 . S
C2101 C2102 1.361 . S
C2102 H2086 0.942 . S
C2102 C2101 1.361 . S
C2102 C2103 1.369 . S
C2103 C2102 1.369 . S
C2103 C2104 1.404 . S
C2104 H2087 0.940 . S
C2104 C2103 1.404 . S
C2104 C2105 1.389 . S
C2105 H2088 0.939 . S
C2105 C2100 1.400 . S
C2105 C2104 1.389 . S
C2106 P2080 1.819 . S
C2106 C2107 1.391 . S
C2106 C2111 1.391 . S
C2107 H2089 0.941 . S
C2107 C2106 1.391 . S
C2107 C2108 1.396 . S
C2108 H2092 0.939 . S
C2108 C2107 1.396 . S
C2108 C2109 1.397 . S
C2109 C2108 1.397 . S
C2109 C2110 1.385 . S
C2110 H2093 0.940 . S
C2110 C2109 1.385 . S
C2110 C2111 1.388 . S
C2111 H2090 0.939 . S
C2111 C2106 1.391 . S
C2111 C2110 1.388 . S
P2112 O2123 1.490 . S
P2112 C2126 1.812 . S
P2112 C2132 1.803 . S
P2112 C2138 1.819 . S
H2113 C2127 0.941 . S
H2114 C2128 0.939 . S
H2115 C2130 0.940 . S
H2116 C2131 0.940 . S
H2117 C2133 0.939 . S
H2118 C2134 0.942 . S
H2119 C2136 0.940 . S
H2120 C2137 0.939 . S
H2121 C2139 0.941 . S
H2122 C2143 0.939 . S
O2123 P2112 1.490 . S
H2124 C2140 0.939 . S
H2125 C2142 0.940 . S
C2126 P2112 1.812 . S
C2126 C2127 1.389 . S
C2126 C2131 1.391 . S
C2127 H2113 0.941 . S
C2127 C2126 1.389 . S
C2127 C2128 1.397 . S
C2128 H2114 0.939 . S
C2128 C2127 1.397 . S
C2128 C2129 1.378 . S
C2129 C2128 1.378 . S
C2129 C2130 1.378 . S
C2130 H2115 0.940 . S
C2130 C2129 1.378 . S
C2130 C2131 1.396 . S
C2131 H2116 0.940 . S
C2131 C2126 1.391 . S
C2131 C2130 1.396 . S
C2132 P2112 1.803 . S
C2132 C2133 1.378 . S
C2132 C2137 1.400 . S
C2133 H2117 0.939 . S
C2133 C2132 1.378 . S
C2133 C2134 1.361 . S
C2134 H2118 0.942 . S
C2134 C2133 1.361 . S
C2134 C2135 1.369 . S
C2135 C2134 1.369 . S
C2135 C2136 1.404 . S
C2136 H2119 0.940 . S
C2136 C2135 1.404 . S
C2136 C2137 1.389 . S
C2137 H2120 0.939 . S
C2137 C2132 1.400 . S
C2137 C2136 1.389 . S
C2138 P2112 1.819 . S
C2138 C2139 1.391 . S
C2138 C2143 1.391 . S
C2139 H2121 0.941 . S
C2139 C2138 1.391 . S
C2139 C2140 1.396 . S
C2140 H2124 0.939 . S
C2140 C2139 1.396 . S
C2140 C2141 1.397 . S
C2141 C2140 1.397 . S
C2141 C2142 1.385 . S
C2142 H2125 0.940 . S
C2142 C2141 1.385 . S
C2142 C2143 1.388 . S
C2143 H2122 0.939 . S
C2143 C2138 1.391 . S
C2143 C2142 1.388 . S
P2144 O2155 1.490 . S
P2144 C2158 1.812 . S
P2144 C2164 1.803 . S
P2144 C2170 1.819 . S
H2145 C2159 0.941 . S
H2146 C2160 0.939 . S
H2147 C2162 0.940 . S
H2148 C2163 0.940 . S
H2149 C2165 0.939 . S
H2150 C2166 0.942 . S
H2151 C2168 0.940 . S
H2152 C2169 0.939 . S
H2153 C2171 0.941 . S
H2154 C2175 0.939 . S
O2155 P2144 1.490 . S
H2156 C2172 0.939 . S
H2157 C2174 0.940 . S
C2158 P2144 1.812 . S
C2158 C2159 1.389 . S
C2158 C2163 1.391 . S
C2159 H2145 0.941 . S
C2159 C2158 1.389 . S
C2159 C2160 1.397 . S
C2160 H2146 0.939 . S
C2160 C2159 1.397 . S
C2160 C2161 1.378 . S
C2161 C2160 1.378 . S
C2161 C2162 1.378 . S
C2162 H2147 0.940 . S
C2162 C2161 1.378 . S
C2162 C2163 1.396 . S
C2163 H2148 0.940 . S
C2163 C2158 1.391 . S
C2163 C2162 1.396 . S
C2164 P2144 1.803 . S
C2164 C2165 1.378 . S
C2164 C2169 1.400 . S
C2165 H2149 0.939 . S
C2165 C2164 1.378 . S
C2165 C2166 1.361 . S
C2166 H2150 0.942 . S
C2166 C2165 1.361 . S
C2166 C2167 1.369 . S
C2167 C2166 1.369 . S
C2167 C2168 1.404 . S
C2168 H2151 0.940 . S
C2168 C2167 1.404 . S
C2168 C2169 1.389 . S
C2169 H2152 0.939 . S
C2169 C2164 1.400 . S
C2169 C2168 1.389 . S
C2170 P2144 1.819 . S
C2170 C2171 1.391 . S
C2170 C2175 1.391 . S
C2171 H2153 0.941 . S
C2171 C2170 1.391 . S
C2171 C2172 1.396 . S
C2172 H2156 0.939 . S
C2172 C2171 1.396 . S
C2172 C2173 1.397 . S
C2173 C2172 1.397 . S
C2173 C2174 1.385 . S
C2174 H2157 0.940 . S
C2174 C2173 1.385 . S
C2174 C2175 1.388 . S
C2175 H2154 0.939 . S
C2175 C2170 1.391 . S
C2175 C2174 1.388 . S
P2176 O2187 1.490 . S
P2176 C2190 1.812 . S
P2176 C2196 1.803 . S
P2176 C2202 1.819 . S
H2177 C2191 0.941 . S
H2178 C2192 0.939 . S
H2179 C2194 0.940 . S
H2180 C2195 0.940 . S
H2181 C2197 0.939 . S
H2182 C2198 0.942 . S
H2183 C2200 0.940 . S
H2184 C2201 0.939 . S
H2185 C2203 0.941 . S
H2186 C2207 0.939 . S
O2187 P2176 1.490 . S
H2188 C2204 0.939 . S
H2189 C2206 0.940 . S
C2190 P2176 1.812 . S
C2190 C2191 1.389 . S
C2190 C2195 1.391 . S
C2191 H2177 0.941 . S
C2191 C2190 1.389 . S
C2191 C2192 1.397 . S
C2192 H2178 0.939 . S
C2192 C2191 1.397 . S
C2192 C2193 1.378 . S
C2193 C2192 1.378 . S
C2193 C2194 1.378 . S
C2194 H2179 0.940 . S
C2194 C2193 1.378 . S
C2194 C2195 1.396 . S
C2195 H2180 0.940 . S
C2195 C2190 1.391 . S
C2195 C2194 1.396 . S
C2196 P2176 1.803 . S
C2196 C2197 1.378 . S
C2196 C2201 1.400 . S
C2197 H2181 0.939 . S
C2197 C2196 1.378 . S
C2197 C2198 1.361 . S
C2198 H2182 0.942 . S
C2198 C2197 1.361 . S
C2198 C2199 1.369 . S
C2199 C2198 1.369 . S
C2199 C2200 1.404 . S
C2200 H2183 0.940 . S
C2200 C2199 1.404 . S
C2200 C2201 1.389 . S
C2201 H2184 0.939 . S
C2201 C2196 1.400 . S
C2201 C2200 1.389 . S
C2202 P2176 1.819 . S
C2202 C2203 1.391 . S
C2202 C2207 1.391 . S
C2203 H2185 0.941 . S
C2203 C2202 1.391 . S
C2203 C2204 1.396 . S
C2204 H2188 0.939 . S
C2204 C2203 1.396 . S
C2204 C2205 1.397 . S
C2205 C2204 1.397 . S
C2205 C2206 1.385 . S
C2206 H2189 0.940 . S
C2206 C2205 1.385 . S
C2206 C2207 1.388 . S
C2207 H2186 0.939 . S
C2207 C2202 1.391 . S
C2207 C2206 1.388 . S
P2208 O2219 1.490 . S
P2208 C2222 1.812 . S
P2208 C2228 1.803 . S
P2208 C2234 1.819 . S
H2209 C2223 0.941 . S
H2210 C2224 0.939 . S
H2211 C2226 0.940 . S
H2212 C2227 0.940 . S
H2213 C2229 0.939 . S
H2214 C2230 0.942 . S
H2215 C2232 0.940 . S
H2216 C2233 0.939 . S
H2217 C2235 0.941 . S
H2218 C2239 0.939 . S
O2219 P2208 1.490 . S
H2220 C2236 0.939 . S
H2221 C2238 0.940 . S
C2222 P2208 1.812 . S
C2222 C2223 1.389 . S
C2222 C2227 1.391 . S
C2223 H2209 0.941 . S
C2223 C2222 1.389 . S
C2223 C2224 1.397 . S
C2224 H2210 0.939 . S
C2224 C2223 1.397 . S
C2224 C2225 1.378 . S
C2225 C2224 1.378 . S
C2225 C2226 1.378 . S
C2226 H2211 0.940 . S
C2226 C2225 1.378 . S
C2226 C2227 1.396 . S
C2227 H2212 0.940 . S
C2227 C2222 1.391 . S
C2227 C2226 1.396 . S
C2228 P2208 1.803 . S
C2228 C2229 1.378 . S
C2228 C2233 1.400 . S
C2229 H2213 0.939 . S
C2229 C2228 1.378 . S
C2229 C2230 1.361 . S
C2230 H2214 0.942 . S
C2230 C2229 1.361 . S
C2230 C2231 1.369 . S
C2231 C2230 1.369 . S
C2231 C2232 1.404 . S
C2232 H2215 0.940 . S
C2232 C2231 1.404 . S
C2232 C2233 1.389 . S
C2233 H2216 0.939 . S
C2233 C2228 1.400 . S
C2233 C2232 1.389 . S
C2234 P2208 1.819 . S
C2234 C2235 1.391 . S
C2234 C2239 1.391 . S
C2235 H2217 0.941 . S
C2235 C2234 1.391 . S
C2235 C2236 1.396 . S
C2236 H2220 0.939 . S
C2236 C2235 1.396 . S
C2236 C2237 1.397 . S
C2237 C2236 1.397 . S
C2237 C2238 1.385 . S
C2238 H2221 0.940 . S
C2238 C2237 1.385 . S
C2238 C2239 1.388 . S
C2239 H2218 0.939 . S
C2239 C2234 1.391 . S
C2239 C2238 1.388 . S
P2240 O2251 1.490 . S
P2240 C2254 1.812 . S
P2240 C2260 1.803 . S
P2240 C2266 1.819 . S
H2241 C2255 0.941 . S
H2242 C2256 0.939 . S
H2243 C2258 0.940 . S
H2244 C2259 0.940 . S
H2245 C2261 0.939 . S
H2246 C2262 0.942 . S
H2247 C2264 0.940 . S
H2248 C2265 0.939 . S
H2249 C2267 0.941 . S
H2250 C2271 0.939 . S
O2251 P2240 1.490 . S
H2252 C2268 0.939 . S
H2253 C2270 0.940 . S
C2254 P2240 1.812 . S
C2254 C2255 1.389 . S
C2254 C2259 1.391 . S
C2255 H2241 0.941 . S
C2255 C2254 1.389 . S
C2255 C2256 1.397 . S
C2256 H2242 0.939 . S
C2256 C2255 1.397 . S
C2256 C2257 1.378 . S
C2257 C2256 1.378 . S
C2257 C2258 1.378 . S
C2258 H2243 0.940 . S
C2258 C2257 1.378 . S
C2258 C2259 1.396 . S
C2259 H2244 0.940 . S
C2259 C2254 1.391 . S
C2259 C2258 1.396 . S
C2260 P2240 1.803 . S
C2260 C2261 1.378 . S
C2260 C2265 1.400 . S
C2261 H2245 0.939 . S
C2261 C2260 1.378 . S
C2261 C2262 1.361 . S
C2262 H2246 0.942 . S
C2262 C2261 1.361 . S
C2262 C2263 1.369 . S
C2263 C2262 1.369 . S
C2263 C2264 1.404 . S
C2264 H2247 0.940 . S
C2264 C2263 1.404 . S
C2264 C2265 1.389 . S
C2265 H2248 0.939 . S
C2265 C2260 1.400 . S
C2265 C2264 1.389 . S
C2266 P2240 1.819 . S
C2266 C2267 1.391 . S
C2266 C2271 1.391 . S
C2267 H2249 0.941 . S
C2267 C2266 1.391 . S
C2267 C2268 1.396 . S
C2268 H2252 0.939 . S
C2268 C2267 1.396 . S
C2268 C2269 1.397 . S
C2269 C2268 1.397 . S
C2269 C2270 1.385 . S
C2270 H2253 0.940 . S
C2270 C2269 1.385 . S
C2270 C2271 1.388 . S
C2271 H2250 0.939 . S
C2271 C2266 1.391 . S
C2271 C2270 1.388 . S
P2272 O2283 1.490 . S
P2272 C2286 1.812 . S
P2272 C2292 1.803 . S
P2272 C2298 1.819 . S
H2273 C2287 0.941 . S
H2274 C2288 0.939 . S
H2275 C2290 0.940 . S
H2276 C2291 0.940 . S
H2277 C2293 0.939 . S
H2278 C2294 0.942 . S
H2279 C2296 0.940 . S
H2280 C2297 0.939 . S
H2281 C2299 0.941 . S
H2282 C2303 0.939 . S
O2283 P2272 1.490 . S
H2284 C2300 0.939 . S
H2285 C2302 0.940 . S
C2286 P2272 1.812 . S
C2286 C2287 1.389 . S
C2286 C2291 1.391 . S
C2287 H2273 0.941 . S
C2287 C2286 1.389 . S
C2287 C2288 1.397 . S
C2288 H2274 0.939 . S
C2288 C2287 1.397 . S
C2288 C2289 1.378 . S
C2289 C2288 1.378 . S
C2289 C2290 1.378 . S
C2290 H2275 0.940 . S
C2290 C2289 1.378 . S
C2290 C2291 1.396 . S
C2291 H2276 0.940 . S
C2291 C2286 1.391 . S
C2291 C2290 1.396 . S
C2292 P2272 1.803 . S
C2292 C2293 1.378 . S
C2292 C2297 1.400 . S
C2293 H2277 0.939 . S
C2293 C2292 1.378 . S
C2293 C2294 1.361 . S
C2294 H2278 0.942 . S
C2294 C2293 1.361 . S
C2294 C2295 1.369 . S
C2295 C2294 1.369 . S
C2295 C2296 1.404 . S
C2296 H2279 0.940 . S
C2296 C2295 1.404 . S
C2296 C2297 1.389 . S
C2297 H2280 0.939 . S
C2297 C2292 1.400 . S
C2297 C2296 1.389 . S
C2298 P2272 1.819 . S
C2298 C2299 1.391 . S
C2298 C2303 1.391 . S
C2299 H2281 0.941 . S
C2299 C2298 1.391 . S
C2299 C2300 1.396 . S
C2300 H2284 0.939 . S
C2300 C2299 1.396 . S
C2300 C2301 1.397 . S
C2301 C2300 1.397 . S
C2301 C2302 1.385 . S
C2302 H2285 0.940 . S
C2302 C2301 1.385 . S
C2302 C2303 1.388 . S
C2303 H2282 0.939 . S
C2303 C2298 1.391 . S
C2303 C2302 1.388 . S
P2304 O2315 1.490 . S
P2304 C2318 1.812 . S
P2304 C2324 1.803 . S
P2304 C2330 1.819 . S
H2305 C2319 0.941 . S
H2306 C2320 0.939 . S
H2307 C2322 0.940 . S
H2308 C2323 0.940 . S
H2309 C2325 0.939 . S
H2310 C2326 0.942 . S
H2311 C2328 0.940 . S
H2312 C2329 0.939 . S
H2313 C2331 0.941 . S
H2314 C2335 0.939 . S
O2315 P2304 1.490 . S
H2316 C2332 0.939 . S
H2317 C2334 0.940 . S
C2318 P2304 1.812 . S
C2318 C2319 1.389 . S
C2318 C2323 1.391 . S
C2319 H2305 0.941 . S
C2319 C2318 1.389 . S
C2319 C2320 1.397 . S
C2320 H2306 0.939 . S
C2320 C2319 1.397 . S
C2320 C2321 1.378 . S
C2321 C2320 1.378 . S
C2321 C2322 1.378 . S
C2322 H2307 0.940 . S
C2322 C2321 1.378 . S
C2322 C2323 1.396 . S
C2323 H2308 0.940 . S
C2323 C2318 1.391 . S
C2323 C2322 1.396 . S
C2324 P2304 1.803 . S
C2324 C2325 1.378 . S
C2324 C2329 1.400 . S
C2325 H2309 0.939 . S
C2325 C2324 1.378 . S
C2325 C2326 1.361 . S
C2326 H2310 0.942 . S
C2326 C2325 1.361 . S
C2326 C2327 1.369 . S
C2327 C2326 1.369 . S
C2327 C2328 1.404 . S
C2328 H2311 0.940 . S
C2328 C2327 1.404 . S
C2328 C2329 1.389 . S
C2329 H2312 0.939 . S
C2329 C2324 1.400 . S
C2329 C2328 1.389 . S
C2330 P2304 1.819 . S
C2330 C2331 1.391 . S
C2330 C2335 1.391 . S
C2331 H2313 0.941 . S
C2331 C2330 1.391 . S
C2331 C2332 1.396 . S
C2332 H2316 0.939 . S
C2332 C2331 1.396 . S
C2332 C2333 1.397 . S
C2333 C2332 1.397 . S
C2333 C2334 1.385 . S
C2334 H2317 0.940 . S
C2334 C2333 1.385 . S
C2334 C2335 1.388 . S
C2335 H2314 0.939 . S
C2335 C2330 1.391 . S
C2335 C2334 1.388 . S
P2336 O2347 1.490 . S
P2336 C2350 1.812 . S
P2336 C2356 1.803 . S
P2336 C2362 1.819 . S
H2337 C2351 0.941 . S
H2338 C2352 0.939 . S
H2339 C2354 0.940 . S
H2340 C2355 0.940 . S
H2341 C2357 0.939 . S
H2342 C2358 0.942 . S
H2343 C2360 0.940 . S
H2344 C2361 0.939 . S
H2345 C2363 0.941 . S
H2346 C2367 0.939 . S
O2347 P2336 1.490 . S
H2348 C2364 0.939 . S
H2349 C2366 0.940 . S
C2350 P2336 1.812 . S
C2350 C2351 1.389 . S
C2350 C2355 1.391 . S
C2351 H2337 0.941 . S
C2351 C2350 1.389 . S
C2351 C2352 1.397 . S
C2352 H2338 0.939 . S
C2352 C2351 1.397 . S
C2352 C2353 1.378 . S
C2353 C2352 1.378 . S
C2353 C2354 1.378 . S
C2354 H2339 0.940 . S
C2354 C2353 1.378 . S
C2354 C2355 1.396 . S
C2355 H2340 0.940 . S
C2355 C2350 1.391 . S
C2355 C2354 1.396 . S
C2356 P2336 1.803 . S
C2356 C2357 1.378 . S
C2356 C2361 1.400 . S
C2357 H2341 0.939 . S
C2357 C2356 1.378 . S
C2357 C2358 1.361 . S
C2358 H2342 0.942 . S
C2358 C2357 1.361 . S
C2358 C2359 1.369 . S
C2359 C2358 1.369 . S
C2359 C2360 1.404 . S
C2360 H2343 0.940 . S
C2360 C2359 1.404 . S
C2360 C2361 1.389 . S
C2361 H2344 0.939 . S
C2361 C2356 1.400 . S
C2361 C2360 1.389 . S
C2362 P2336 1.819 . S
C2362 C2363 1.391 . S
C2362 C2367 1.391 . S
C2363 H2345 0.941 . S
C2363 C2362 1.391 . S
C2363 C2364 1.396 . S
C2364 H2348 0.939 . S
C2364 C2363 1.396 . S
C2364 C2365 1.397 . S
C2365 C2364 1.397 . S
C2365 C2366 1.385 . S
C2366 H2349 0.940 . S
C2366 C2365 1.385 . S
C2366 C2367 1.388 . S
C2367 H2346 0.939 . S
C2367 C2362 1.391 . S
C2367 C2366 1.388 . S
P2368 O2379 1.490 . S
P2368 C2382 1.812 . S
P2368 C2388 1.803 . S
P2368 C2394 1.819 . S
H2369 C2383 0.941 . S
H2370 C2384 0.939 . S
H2371 C2386 0.940 . S
H2372 C2387 0.940 . S
H2373 C2389 0.939 . S
H2374 C2390 0.942 . S
H2375 C2392 0.940 . S
H2376 C2393 0.939 . S
H2377 C2395 0.941 . S
H2378 C2399 0.939 . S
O2379 P2368 1.490 . S
H2380 C2396 0.939 . S
H2381 C2398 0.940 . S
C2382 P2368 1.812 . S
C2382 C2383 1.389 . S
C2382 C2387 1.391 . S
C2383 H2369 0.941 . S
C2383 C2382 1.389 . S
C2383 C2384 1.397 . S
C2384 H2370 0.939 . S
C2384 C2383 1.397 . S
C2384 C2385 1.378 . S
C2385 C2384 1.378 . S
C2385 C2386 1.378 . S
C2386 H2371 0.940 . S
C2386 C2385 1.378 . S
C2386 C2387 1.396 . S
C2387 H2372 0.940 . S
C2387 C2382 1.391 . S
C2387 C2386 1.396 . S
C2388 P2368 1.803 . S
C2388 C2389 1.378 . S
C2388 C2393 1.400 . S
C2389 H2373 0.939 . S
C2389 C2388 1.378 . S
C2389 C2390 1.361 . S
C2390 H2374 0.942 . S
C2390 C2389 1.361 . S
C2390 C2391 1.369 . S
C2391 C2390 1.369 . S
C2391 C2392 1.404 . S
C2392 H2375 0.940 . S
C2392 C2391 1.404 . S
C2392 C2393 1.389 . S
C2393 H2376 0.939 . S
C2393 C2388 1.400 . S
C2393 C2392 1.389 . S
C2394 P2368 1.819 . S
C2394 C2395 1.391 . S
C2394 C2399 1.391 . S
C2395 H2377 0.941 . S
C2395 C2394 1.391 . S
C2395 C2396 1.396 . S
C2396 H2380 0.939 . S
C2396 C2395 1.396 . S
C2396 C2397 1.397 . S
C2397 C2396 1.397 . S
C2397 C2398 1.385 . S
C2398 H2381 0.940 . S
C2398 C2397 1.385 . S
C2398 C2399 1.388 . S
C2399 H2378 0.939 . S
C2399 C2394 1.391 . S
C2399 C2398 1.388 . S
P2400 O2411 1.490 . S
P2400 C2414 1.812 . S
P2400 C2420 1.803 . S
P2400 C2426 1.819 . S
H2401 C2415 0.941 . S
H2402 C2416 0.939 . S
H2403 C2418 0.940 . S
H2404 C2419 0.940 . S
H2405 C2421 0.939 . S
H2406 C2422 0.942 . S
H2407 C2424 0.940 . S
H2408 C2425 0.939 . S
H2409 C2427 0.941 . S
H2410 C2431 0.939 . S
O2411 P2400 1.490 . S
H2412 C2428 0.939 . S
H2413 C2430 0.940 . S
C2414 P2400 1.812 . S
C2414 C2415 1.389 . S
C2414 C2419 1.391 . S
C2415 H2401 0.941 . S
C2415 C2414 1.389 . S
C2415 C2416 1.397 . S
C2416 H2402 0.939 . S
C2416 C2415 1.397 . S
C2416 C2417 1.378 . S
C2417 C2416 1.378 . S
C2417 C2418 1.378 . S
C2418 H2403 0.940 . S
C2418 C2417 1.378 . S
C2418 C2419 1.396 . S
C2419 H2404 0.940 . S
C2419 C2414 1.391 . S
C2419 C2418 1.396 . S
C2420 P2400 1.803 . S
C2420 C2421 1.378 . S
C2420 C2425 1.400 . S
C2421 H2405 0.939 . S
C2421 C2420 1.378 . S
C2421 C2422 1.361 . S
C2422 H2406 0.942 . S
C2422 C2421 1.361 . S
C2422 C2423 1.369 . S
C2423 C2422 1.369 . S
C2423 C2424 1.404 . S
C2424 H2407 0.940 . S
C2424 C2423 1.404 . S
C2424 C2425 1.389 . S
C2425 H2408 0.939 . S
C2425 C2420 1.400 . S
C2425 C2424 1.389 . S
C2426 P2400 1.819 . S
C2426 C2427 1.391 . S
C2426 C2431 1.391 . S
C2427 H2409 0.941 . S
C2427 C2426 1.391 . S
C2427 C2428 1.396 . S
C2428 H2412 0.939 . S
C2428 C2427 1.396 . S
C2428 C2429 1.397 . S
C2429 C2428 1.397 . S
C2429 C2430 1.385 . S
C2430 H2413 0.940 . S
C2430 C2429 1.385 . S
C2430 C2431 1.388 . S
C2431 H2410 0.939 . S
C2431 C2426 1.391 . S
C2431 C2430 1.388 . S
P2432 O2443 1.490 . S
P2432 C2446 1.812 . S
P2432 C2452 1.803 . S
P2432 C2458 1.819 . S
H2433 C2447 0.941 . S
H2434 C2448 0.939 . S
H2435 C2450 0.940 . S
H2436 C2451 0.940 . S
H2437 C2453 0.939 . S
H2438 C2454 0.942 . S
H2439 C2456 0.940 . S
H2440 C2457 0.939 . S
H2441 C2459 0.941 . S
H2442 C2463 0.939 . S
O2443 P2432 1.490 . S
H2444 C2460 0.939 . S
H2445 C2462 0.940 . S
C2446 P2432 1.812 . S
C2446 C2447 1.389 . S
C2446 C2451 1.391 . S
C2447 H2433 0.941 . S
C2447 C2446 1.389 . S
C2447 C2448 1.397 . S
C2448 H2434 0.939 . S
C2448 C2447 1.397 . S
C2448 C2449 1.378 . S
C2449 C2448 1.378 . S
C2449 C2450 1.378 . S
C2450 H2435 0.940 . S
C2450 C2449 1.378 . S
C2450 C2451 1.396 . S
C2451 H2436 0.940 . S
C2451 C2446 1.391 . S
C2451 C2450 1.396 . S
C2452 P2432 1.803 . S
C2452 C2453 1.378 . S
C2452 C2457 1.400 . S
C2453 H2437 0.939 . S
C2453 C2452 1.378 . S
C2453 C2454 1.361 . S
C2454 H2438 0.942 . S
C2454 C2453 1.361 . S
C2454 C2455 1.369 . S
C2455 C2454 1.369 . S
C2455 C2456 1.404 . S
C2456 H2439 0.940 . S
C2456 C2455 1.404 . S
C2456 C2457 1.389 . S
C2457 H2440 0.939 . S
C2457 C2452 1.400 . S
C2457 C2456 1.389 . S
C2458 P2432 1.819 . S
C2458 C2459 1.391 . S
C2458 C2463 1.391 . S
C2459 H2441 0.941 . S
C2459 C2458 1.391 . S
C2459 C2460 1.396 . S
C2460 H2444 0.939 . S
C2460 C2459 1.396 . S
C2460 C2461 1.397 . S
C2461 C2460 1.397 . S
C2461 C2462 1.385 . S
C2462 H2445 0.940 . S
C2462 C2461 1.385 . S
C2462 C2463 1.388 . S
C2463 H2442 0.939 . S
C2463 C2458 1.391 . S
C2463 C2462 1.388 . S
P2464 O2475 1.490 . S
P2464 C2478 1.812 . S
P2464 C2484 1.803 . S
P2464 C2490 1.819 . S
H2465 C2479 0.941 . S
H2466 C2480 0.939 . S
H2467 C2482 0.940 . S
H2468 C2483 0.940 . S
H2469 C2485 0.939 . S
H2470 C2486 0.942 . S
H2471 C2488 0.940 . S
H2472 C2489 0.939 . S
H2473 C2491 0.941 . S
H2474 C2495 0.939 . S
O2475 P2464 1.490 . S
H2476 C2492 0.939 . S
H2477 C2494 0.940 . S
C2478 P2464 1.812 . S
C2478 C2479 1.389 . S
C2478 C2483 1.391 . S
C2479 H2465 0.941 . S
C2479 C2478 1.389 . S
C2479 C2480 1.397 . S
C2480 H2466 0.939 . S
C2480 C2479 1.397 . S
C2480 C2481 1.378 . S
C2481 C2480 1.378 . S
C2481 C2482 1.378 . S
C2482 H2467 0.940 . S
C2482 C2481 1.378 . S
C2482 C2483 1.396 . S
C2483 H2468 0.940 . S
C2483 C2478 1.391 . S
C2483 C2482 1.396 . S
C2484 P2464 1.803 . S
C2484 C2485 1.378 . S
C2484 C2489 1.400 . S
C2485 H2469 0.939 . S
C2485 C2484 1.378 . S
C2485 C2486 1.361 . S
C2486 H2470 0.942 . S
C2486 C2485 1.361 . S
C2486 C2487 1.369 . S
C2487 C2486 1.369 . S
C2487 C2488 1.404 . S
C2488 H2471 0.940 . S
C2488 C2487 1.404 . S
C2488 C2489 1.389 . S
C2489 H2472 0.939 . S
C2489 C2484 1.400 . S
C2489 C2488 1.389 . S
C2490 P2464 1.819 . S
C2490 C2491 1.391 . S
C2490 C2495 1.391 . S
C2491 H2473 0.941 . S
C2491 C2490 1.391 . S
C2491 C2492 1.396 . S
C2492 H2476 0.939 . S
C2492 C2491 1.396 . S
C2492 C2493 1.397 . S
C2493 C2492 1.397 . S
C2493 C2494 1.385 . S
C2494 H2477 0.940 . S
C2494 C2493 1.385 . S
C2494 C2495 1.388 . S
C2495 H2474 0.939 . S
C2495 C2490 1.391 . S
C2495 C2494 1.388 . S
P2496 O2507 1.490 . S
P2496 C2510 1.812 . S
P2496 C2516 1.803 . S
P2496 C2522 1.819 . S
H2497 C2511 0.941 . S
H2498 C2512 0.939 . S
H2499 C2514 0.940 . S
H2500 C2515 0.940 . S
H2501 C2517 0.939 . S
H2502 C2518 0.942 . S
H2503 C2520 0.940 . S
H2504 C2521 0.939 . S
H2505 C2523 0.941 . S
H2506 C2527 0.939 . S
O2507 P2496 1.490 . S
H2508 C2524 0.939 . S
H2509 C2526 0.940 . S
C2510 P2496 1.812 . S
C2510 C2511 1.389 . S
C2510 C2515 1.391 . S
C2511 H2497 0.941 . S
C2511 C2510 1.389 . S
C2511 C2512 1.397 . S
C2512 H2498 0.939 . S
C2512 C2511 1.397 . S
C2512 C2513 1.378 . S
C2513 C2512 1.378 . S
C2513 C2514 1.378 . S
C2514 H2499 0.940 . S
C2514 C2513 1.378 . S
C2514 C2515 1.396 . S
C2515 H2500 0.940 . S
C2515 C2510 1.391 . S
C2515 C2514 1.396 . S
C2516 P2496 1.803 . S
C2516 C2517 1.378 . S
C2516 C2521 1.400 . S
C2517 H2501 0.939 . S
C2517 C2516 1.378 . S
C2517 C2518 1.361 . S
C2518 H2502 0.942 . S
C2518 C2517 1.361 . S
C2518 C2519 1.369 . S
C2519 C2518 1.369 . S
C2519 C2520 1.404 . S
C2520 H2503 0.940 . S
C2520 C2519 1.404 . S
C2520 C2521 1.389 . S
C2521 H2504 0.939 . S
C2521 C2516 1.400 . S
C2521 C2520 1.389 . S
C2522 P2496 1.819 . S
C2522 C2523 1.391 . S
C2522 C2527 1.391 . S
C2523 H2505 0.941 . S
C2523 C2522 1.391 . S
C2523 C2524 1.396 . S
C2524 H2508 0.939 . S
C2524 C2523 1.396 . S
C2524 C2525 1.397 . S
C2525 C2524 1.397 . S
C2525 C2526 1.385 . S
C2526 H2509 0.940 . S
C2526 C2525 1.385 . S
C2526 C2527 1.388 . S
C2527 H2506 0.939 . S
C2527 C2522 1.391 . S
C2527 C2526 1.388 . S
P2528 O2539 1.490 . S
P2528 C2542 1.812 . S
P2528 C2548 1.803 . S
P2528 C2554 1.819 . S
H2529 C2543 0.941 . S
H2530 C2544 0.939 . S
H2531 C2546 0.940 . S
H2532 C2547 0.940 . S
H2533 C2549 0.939 . S
H2534 C2550 0.942 . S
H2535 C2552 0.940 . S
H2536 C2553 0.939 . S
H2537 C2555 0.941 . S
H2538 C2559 0.939 . S
O2539 P2528 1.490 . S
H2540 C2556 0.939 . S
H2541 C2558 0.940 . S
C2542 P2528 1.812 . S
C2542 C2543 1.389 . S
C2542 C2547 1.391 . S
C2543 H2529 0.941 . S
C2543 C2542 1.389 . S
C2543 C2544 1.397 . S
C2544 H2530 0.939 . S
C2544 C2543 1.397 . S
C2544 C2545 1.378 . S
C2545 C2544 1.378 . S
C2545 C2546 1.378 . S
C2546 H2531 0.940 . S
C2546 C2545 1.378 . S
C2546 C2547 1.396 . S
C2547 H2532 0.940 . S
C2547 C2542 1.391 . S
C2547 C2546 1.396 . S
C2548 P2528 1.803 . S
C2548 C2549 1.378 . S
C2548 C2553 1.400 . S
C2549 H2533 0.939 . S
C2549 C2548 1.378 . S
C2549 C2550 1.361 . S
C2550 H2534 0.942 . S
C2550 C2549 1.361 . S
C2550 C2551 1.369 . S
C2551 C2550 1.369 . S
C2551 C2552 1.404 . S
C2552 H2535 0.940 . S
C2552 C2551 1.404 . S
C2552 C2553 1.389 . S
C2553 H2536 0.939 . S
C2553 C2548 1.400 . S
C2553 C2552 1.389 . S
C2554 P2528 1.819 . S
C2554 C2555 1.391 . S
C2554 C2559 1.391 . S
C2555 H2537 0.941 . S
C2555 C2554 1.391 . S
C2555 C2556 1.396 . S
C2556 H2540 0.939 . S
C2556 C2555 1.396 . S
C2556 C2557 1.397 . S
C2557 C2556 1.397 . S
C2557 C2558 1.385 . S
C2558 H2541 0.940 . S
C2558 C2557 1.385 . S
C2558 C2559 1.388 . S
C2559 H2538 0.939 . S
C2559 C2554 1.391 . S
C2559 C2558 1.388 . S
P2560 O2571 1.490 . S
P2560 C2574 1.812 . S
P2560 C2580 1.803 . S
P2560 C2586 1.819 . S
H2561 C2575 0.941 . S
H2562 C2576 0.939 . S
H2563 C2578 0.940 . S
H2564 C2579 0.940 . S
H2565 C2581 0.939 . S
H2566 C2582 0.942 . S
H2567 C2584 0.940 . S
H2568 C2585 0.939 . S
H2569 C2587 0.941 . S
H2570 C2591 0.939 . S
O2571 P2560 1.490 . S
H2572 C2588 0.939 . S
H2573 C2590 0.940 . S
C2574 P2560 1.812 . S
C2574 C2575 1.389 . S
C2574 C2579 1.391 . S
C2575 H2561 0.941 . S
C2575 C2574 1.389 . S
C2575 C2576 1.397 . S
C2576 H2562 0.939 . S
C2576 C2575 1.397 . S
C2576 C2577 1.378 . S
C2577 C2576 1.378 . S
C2577 C2578 1.378 . S
C2578 H2563 0.940 . S
C2578 C2577 1.378 . S
C2578 C2579 1.396 . S
C2579 H2564 0.940 . S
C2579 C2574 1.391 . S
C2579 C2578 1.396 . S
C2580 P2560 1.803 . S
C2580 C2581 1.378 . S
C2580 C2585 1.400 . S
C2581 H2565 0.939 . S
C2581 C2580 1.378 . S
C2581 C2582 1.361 . S
C2582 H2566 0.942 . S
C2582 C2581 1.361 . S
C2582 C2583 1.369 . S
C2583 C2582 1.369 . S
C2583 C2584 1.404 . S
C2584 H2567 0.940 . S
C2584 C2583 1.404 . S
C2584 C2585 1.389 . S
C2585 H2568 0.939 . S
C2585 C2580 1.400 . S
C2585 C2584 1.389 . S
C2586 P2560 1.819 . S
C2586 C2587 1.391 . S
C2586 C2591 1.391 . S
C2587 H2569 0.941 . S
C2587 C2586 1.391 . S
C2587 C2588 1.396 . S
C2588 H2572 0.939 . S
C2588 C2587 1.396 . S
C2588 C2589 1.397 . S
C2589 C2588 1.397 . S
C2589 C2590 1.385 . S
C2590 H2573 0.940 . S
C2590 C2589 1.385 . S
C2590 C2591 1.388 . S
C2591 H2570 0.939 . S
C2591 C2586 1.391 . S
C2591 C2590 1.388 . S
P2592 O2603 1.490 . S
P2592 C2606 1.812 . S
P2592 C2612 1.803 . S
P2592 C2618 1.819 . S
H2593 C2607 0.941 . S
H2594 C2608 0.939 . S
H2595 C2610 0.940 . S
H2596 C2611 0.940 . S
H2597 C2613 0.939 . S
H2598 C2614 0.942 . S
H2599 C2616 0.940 . S
H2600 C2617 0.939 . S
H2601 C2619 0.941 . S
H2602 C2623 0.939 . S
O2603 P2592 1.490 . S
H2604 C2620 0.939 . S
H2605 C2622 0.940 . S
C2606 P2592 1.812 . S
C2606 C2607 1.389 . S
C2606 C2611 1.391 . S
C2607 H2593 0.941 . S
C2607 C2606 1.389 . S
C2607 C2608 1.397 . S
C2608 H2594 0.939 . S
C2608 C2607 1.397 . S
C2608 C2609 1.378 . S
C2609 C2608 1.378 . S
C2609 C2610 1.378 . S
C2610 H2595 0.940 . S
C2610 C2609 1.378 . S
C2610 C2611 1.396 . S
C2611 H2596 0.940 . S
C2611 C2606 1.391 . S
C2611 C2610 1.396 . S
C2612 P2592 1.803 . S
C2612 C2613 1.378 . S
C2612 C2617 1.400 . S
C2613 H2597 0.939 . S
C2613 C2612 1.378 . S
C2613 C2614 1.361 . S
C2614 H2598 0.942 . S
C2614 C2613 1.361 . S
C2614 C2615 1.369 . S
C2615 C2614 1.369 . S
C2615 C2616 1.404 . S
C2616 H2599 0.940 . S
C2616 C2615 1.404 . S
C2616 C2617 1.389 . S
C2617 H2600 0.939 . S
C2617 C2612 1.400 . S
C2617 C2616 1.389 . S
C2618 P2592 1.819 . S
C2618 C2619 1.391 . S
C2618 C2623 1.391 . S
C2619 H2601 0.941 . S
C2619 C2618 1.391 . S
C2619 C2620 1.396 . S
C2620 H2604 0.939 . S
C2620 C2619 1.396 . S
C2620 C2621 1.397 . S
C2621 C2620 1.397 . S
C2621 C2622 1.385 . S
C2622 H2605 0.940 . S
C2622 C2621 1.385 . S
C2622 C2623 1.388 . S
C2623 H2602 0.939 . S
C2623 C2618 1.391 . S
C2623 C2622 1.388 . S
P2624 O2635 1.490 . S
P2624 C2638 1.812 . S
P2624 C2644 1.803 . S
P2624 C2650 1.819 . S
H2625 C2639 0.941 . S
H2626 C2640 0.939 . S
H2627 C2642 0.940 . S
H2628 C2643 0.940 . S
H2629 C2645 0.939 . S
H2630 C2646 0.942 . S
H2631 C2648 0.940 . S
H2632 C2649 0.939 . S
H2633 C2651 0.941 . S
H2634 C2655 0.939 . S
O2635 P2624 1.490 . S
H2636 C2652 0.939 . S
H2637 C2654 0.940 . S
C2638 P2624 1.812 . S
C2638 C2639 1.389 . S
C2638 C2643 1.391 . S
C2639 H2625 0.941 . S
C2639 C2638 1.389 . S
C2639 C2640 1.397 . S
C2640 H2626 0.939 . S
C2640 C2639 1.397 . S
C2640 C2641 1.378 . S
C2641 C2640 1.378 . S
C2641 C2642 1.378 . S
C2642 H2627 0.940 . S
C2642 C2641 1.378 . S
C2642 C2643 1.396 . S
C2643 H2628 0.940 . S
C2643 C2638 1.391 . S
C2643 C2642 1.396 . S
C2644 P2624 1.803 . S
C2644 C2645 1.378 . S
C2644 C2649 1.400 . S
C2645 H2629 0.939 . S
C2645 C2644 1.378 . S
C2645 C2646 1.361 . S
C2646 H2630 0.942 . S
C2646 C2645 1.361 . S
C2646 C2647 1.369 . S
C2647 C2646 1.369 . S
C2647 C2648 1.404 . S
C2648 H2631 0.940 . S
C2648 C2647 1.404 . S
C2648 C2649 1.389 . S
C2649 H2632 0.939 . S
C2649 C2644 1.400 . S
C2649 C2648 1.389 . S
C2650 P2624 1.819 . S
C2650 C2651 1.391 . S
C2650 C2655 1.391 . S
C2651 H2633 0.941 . S
C2651 C2650 1.391 . S
C2651 C2652 1.396 . S
C2652 H2636 0.939 . S
C2652 C2651 1.396 . S
C2652 C2653 1.397 . S
C2653 C2652 1.397 . S
C2653 C2654 1.385 . S
C2654 H2637 0.940 . S
C2654 C2653 1.385 . S
C2654 C2655 1.388 . S
C2655 H2634 0.939 . S
C2655 C2650 1.391 . S
C2655 C2654 1.388 . S
P2656 O2667 1.490 . S
P2656 C2670 1.812 . S
P2656 C2676 1.803 . S
P2656 C2682 1.819 . S
H2657 C2671 0.941 . S
H2658 C2672 0.939 . S
H2659 C2674 0.940 . S
H2660 C2675 0.940 . S
H2661 C2677 0.939 . S
H2662 C2678 0.942 . S
H2663 C2680 0.940 . S
H2664 C2681 0.939 . S
H2665 C2683 0.941 . S
H2666 C2687 0.939 . S
O2667 P2656 1.490 . S
H2668 C2684 0.939 . S
H2669 C2686 0.940 . S
C2670 P2656 1.812 . S
C2670 C2671 1.389 . S
C2670 C2675 1.391 . S
C2671 H2657 0.941 . S
C2671 C2670 1.389 . S
C2671 C2672 1.397 . S
C2672 H2658 0.939 . S
C2672 C2671 1.397 . S
C2672 C2673 1.378 . S
C2673 C2672 1.378 . S
C2673 C2674 1.378 . S
C2674 H2659 0.940 . S
C2674 C2673 1.378 . S
C2674 C2675 1.396 . S
C2675 H2660 0.940 . S
C2675 C2670 1.391 . S
C2675 C2674 1.396 . S
C2676 P2656 1.803 . S
C2676 C2677 1.378 . S
C2676 C2681 1.400 . S
C2677 H2661 0.939 . S
C2677 C2676 1.378 . S
C2677 C2678 1.361 . S
C2678 H2662 0.942 . S
C2678 C2677 1.361 . S
C2678 C2679 1.369 . S
C2679 C2678 1.369 . S
C2679 C2680 1.404 . S
C2680 H2663 0.940 . S
C2680 C2679 1.404 . S
C2680 C2681 1.389 . S
C2681 H2664 0.939 . S
C2681 C2676 1.400 . S
C2681 C2680 1.389 . S
C2682 P2656 1.819 . S
C2682 C2683 1.391 . S
C2682 C2687 1.391 . S
C2683 H2665 0.941 . S
C2683 C2682 1.391 . S
C2683 C2684 1.396 . S
C2684 H2668 0.939 . S
C2684 C2683 1.396 . S
C2684 C2685 1.397 . S
C2685 C2684 1.397 . S
C2685 C2686 1.385 . S
C2686 H2669 0.940 . S
C2686 C2685 1.385 . S
C2686 C2687 1.388 . S
C2687 H2666 0.939 . S
C2687 C2682 1.391 . S
C2687 C2686 1.388 . S
P2688 O2699 1.490 . S
P2688 C2702 1.812 . S
P2688 C2708 1.803 . S
P2688 C2714 1.819 . S
H2689 C2703 0.941 . S
H2690 C2704 0.939 . S
H2691 C2706 0.940 . S
H2692 C2707 0.940 . S
H2693 C2709 0.939 . S
H2694 C2710 0.942 . S
H2695 C2712 0.940 . S
H2696 C2713 0.939 . S
H2697 C2715 0.941 . S
H2698 C2719 0.939 . S
O2699 P2688 1.490 . S
H2700 C2716 0.939 . S
H2701 C2718 0.940 . S
C2702 P2688 1.812 . S
C2702 C2703 1.389 . S
C2702 C2707 1.391 . S
C2703 H2689 0.941 . S
C2703 C2702 1.389 . S
C2703 C2704 1.397 . S
C2704 H2690 0.939 . S
C2704 C2703 1.397 . S
C2704 C2705 1.378 . S
C2705 C2704 1.378 . S
C2705 C2706 1.378 . S
C2706 H2691 0.940 . S
C2706 C2705 1.378 . S
C2706 C2707 1.396 . S
C2707 H2692 0.940 . S
C2707 C2702 1.391 . S
C2707 C2706 1.396 . S
C2708 P2688 1.803 . S
C2708 C2709 1.378 . S
C2708 C2713 1.400 . S
C2709 H2693 0.939 . S
C2709 C2708 1.378 . S
C2709 C2710 1.361 . S
C2710 H2694 0.942 . S
C2710 C2709 1.361 . S
C2710 C2711 1.369 . S
C2711 C2710 1.369 . S
C2711 C2712 1.404 . S
C2712 H2695 0.940 . S
C2712 C2711 1.404 . S
C2712 C2713 1.389 . S
C2713 H2696 0.939 . S
C2713 C2708 1.400 . S
C2713 C2712 1.389 . S
C2714 P2688 1.819 . S
C2714 C2715 1.391 . S
C2714 C2719 1.391 . S
C2715 H2697 0.941 . S
C2715 C2714 1.391 . S
C2715 C2716 1.396 . S
C2716 H2700 0.939 . S
C2716 C2715 1.396 . S
C2716 C2717 1.397 . S
C2717 C2716 1.397 . S
C2717 C2718 1.385 . S
C2718 H2701 0.940 . S
C2718 C2717 1.385 . S
C2718 C2719 1.388 . S
C2719 H2698 0.939 . S
C2719 C2714 1.391 . S
C2719 C2718 1.388 . S
P2720 O2731 1.490 . S
P2720 C2734 1.812 . S
P2720 C2740 1.803 . S
P2720 C2746 1.819 . S
H2721 C2735 0.941 . S
H2722 C2736 0.939 . S
H2723 C2738 0.940 . S
H2724 C2739 0.940 . S
H2725 C2741 0.939 . S
H2726 C2742 0.942 . S
H2727 C2744 0.940 . S
H2728 C2745 0.939 . S
H2729 C2747 0.941 . S
H2730 C2751 0.939 . S
O2731 P2720 1.490 . S
H2732 C2748 0.939 . S
H2733 C2750 0.940 . S
C2734 P2720 1.812 . S
C2734 C2735 1.389 . S
C2734 C2739 1.391 . S
C2735 H2721 0.941 . S
C2735 C2734 1.389 . S
C2735 C2736 1.397 . S
C2736 H2722 0.939 . S
C2736 C2735 1.397 . S
C2736 C2737 1.378 . S
C2737 C2736 1.378 . S
C2737 C2738 1.378 . S
C2738 H2723 0.940 . S
C2738 C2737 1.378 . S
C2738 C2739 1.396 . S
C2739 H2724 0.940 . S
C2739 C2734 1.391 . S
C2739 C2738 1.396 . S
C2740 P2720 1.803 . S
C2740 C2741 1.378 . S
C2740 C2745 1.400 . S
C2741 H2725 0.939 . S
C2741 C2740 1.378 . S
C2741 C2742 1.361 . S
C2742 H2726 0.942 . S
C2742 C2741 1.361 . S
C2742 C2743 1.369 . S
C2743 C2742 1.369 . S
C2743 C2744 1.404 . S
C2744 H2727 0.940 . S
C2744 C2743 1.404 . S
C2744 C2745 1.389 . S
C2745 H2728 0.939 . S
C2745 C2740 1.400 . S
C2745 C2744 1.389 . S
C2746 P2720 1.819 . S
C2746 C2747 1.391 . S
C2746 C2751 1.391 . S
C2747 H2729 0.941 . S
C2747 C2746 1.391 . S
C2747 C2748 1.396 . S
C2748 H2732 0.939 . S
C2748 C2747 1.396 . S
C2748 C2749 1.397 . S
C2749 C2748 1.397 . S
C2749 C2750 1.385 . S
C2750 H2733 0.940 . S
C2750 C2749 1.385 . S
C2750 C2751 1.388 . S
C2751 H2730 0.939 . S
C2751 C2746 1.391 . S
C2751 C2750 1.388 . S
P2752 O2763 1.490 . S
P2752 C2766 1.812 . S
P2752 C2772 1.803 . S
P2752 C2778 1.819 . S
H2753 C2767 0.941 . S
H2754 C2768 0.939 . S
H2755 C2770 0.940 . S
H2756 C2771 0.940 . S
H2757 C2773 0.939 . S
H2758 C2774 0.942 . S
H2759 C2776 0.940 . S
H2760 C2777 0.939 . S
H2761 C2779 0.941 . S
H2762 C2783 0.939 . S
O2763 P2752 1.490 . S
H2764 C2780 0.939 . S
H2765 C2782 0.940 . S
C2766 P2752 1.812 . S
C2766 C2767 1.389 . S
C2766 C2771 1.391 . S
C2767 H2753 0.941 . S
C2767 C2766 1.389 . S
C2767 C2768 1.397 . S
C2768 H2754 0.939 . S
C2768 C2767 1.397 . S
C2768 C2769 1.378 . S
C2769 C2768 1.378 . S
C2769 C2770 1.378 . S
C2770 H2755 0.940 . S
C2770 C2769 1.378 . S
C2770 C2771 1.396 . S
C2771 H2756 0.940 . S
C2771 C2766 1.391 . S
C2771 C2770 1.396 . S
C2772 P2752 1.803 . S
C2772 C2773 1.378 . S
C2772 C2777 1.400 . S
C2773 H2757 0.939 . S
C2773 C2772 1.378 . S
C2773 C2774 1.361 . S
C2774 H2758 0.942 . S
C2774 C2773 1.361 . S
C2774 C2775 1.369 . S
C2775 C2774 1.369 . S
C2775 C2776 1.404 . S
C2776 H2759 0.940 . S
C2776 C2775 1.404 . S
C2776 C2777 1.389 . S
C2777 H2760 0.939 . S
C2777 C2772 1.400 . S
C2777 C2776 1.389 . S
C2778 P2752 1.819 . S
C2778 C2779 1.391 . S
C2778 C2783 1.391 . S
C2779 H2761 0.941 . S
C2779 C2778 1.391 . S
C2779 C2780 1.396 . S
C2780 H2764 0.939 . S
C2780 C2779 1.396 . S
C2780 C2781 1.397 . S
C2781 C2780 1.397 . S
C2781 C2782 1.385 . S
C2782 H2765 0.940 . S
C2782 C2781 1.385 . S
C2782 C2783 1.388 . S
C2783 H2762 0.939 . S
C2783 C2778 1.391 . S
C2783 C2782 1.388 . S
P2784 O2795 1.490 . S
P2784 C2798 1.812 . S
P2784 C2804 1.803 . S
P2784 C2810 1.819 . S
H2785 C2799 0.941 . S
H2786 C2800 0.939 . S
H2787 C2802 0.940 . S
H2788 C2803 0.940 . S
H2789 C2805 0.939 . S
H2790 C2806 0.942 . S
H2791 C2808 0.940 . S
H2792 C2809 0.939 . S
H2793 C2811 0.941 . S
H2794 C2815 0.939 . S
O2795 P2784 1.490 . S
H2796 C2812 0.939 . S
H2797 C2814 0.940 . S
C2798 P2784 1.812 . S
C2798 C2799 1.389 . S
C2798 C2803 1.391 . S
C2799 H2785 0.941 . S
C2799 C2798 1.389 . S
C2799 C2800 1.397 . S
C2800 H2786 0.939 . S
C2800 C2799 1.397 . S
C2800 C2801 1.378 . S
C2801 C2800 1.378 . S
C2801 C2802 1.378 . S
C2802 H2787 0.940 . S
C2802 C2801 1.378 . S
C2802 C2803 1.396 . S
C2803 H2788 0.940 . S
C2803 C2798 1.391 . S
C2803 C2802 1.396 . S
C2804 P2784 1.803 . S
C2804 C2805 1.378 . S
C2804 C2809 1.400 . S
C2805 H2789 0.939 . S
C2805 C2804 1.378 . S
C2805 C2806 1.361 . S
C2806 H2790 0.942 . S
C2806 C2805 1.361 . S
C2806 C2807 1.369 . S
C2807 C2806 1.369 . S
C2807 C2808 1.404 . S
C2808 H2791 0.940 . S
C2808 C2807 1.404 . S
C2808 C2809 1.389 . S
C2809 H2792 0.939 . S
C2809 C2804 1.400 . S
C2809 C2808 1.389 . S
C2810 P2784 1.819 . S
C2810 C2811 1.391 . S
C2810 C2815 1.391 . S
C2811 H2793 0.941 . S
C2811 C2810 1.391 . S
C2811 C2812 1.396 . S
C2812 H2796 0.939 . S
C2812 C2811 1.396 . S
C2812 C2813 1.397 . S
C2813 C2812 1.397 . S
C2813 C2814 1.385 . S
C2814 H2797 0.940 . S
C2814 C2813 1.385 . S
C2814 C2815 1.388 . S
C2815 H2794 0.939 . S
C2815 C2810 1.391 . S
C2815 C2814 1.388 . S
P2816 O2827 1.490 . S
P2816 C2830 1.812 . S
P2816 C2836 1.803 . S
P2816 C2842 1.819 . S
H2817 C2831 0.941 . S
H2818 C2832 0.939 . S
H2819 C2834 0.940 . S
H2820 C2835 0.940 . S
H2821 C2837 0.939 . S
H2822 C2838 0.942 . S
H2823 C2840 0.940 . S
H2824 C2841 0.939 . S
H2825 C2843 0.941 . S
H2826 C2847 0.939 . S
O2827 P2816 1.490 . S
H2828 C2844 0.939 . S
H2829 C2846 0.940 . S
C2830 P2816 1.812 . S
C2830 C2831 1.389 . S
C2830 C2835 1.391 . S
C2831 H2817 0.941 . S
C2831 C2830 1.389 . S
C2831 C2832 1.397 . S
C2832 H2818 0.939 . S
C2832 C2831 1.397 . S
C2832 C2833 1.378 . S
C2833 C2832 1.378 . S
C2833 C2834 1.378 . S
C2834 H2819 0.940 . S
C2834 C2833 1.378 . S
C2834 C2835 1.396 . S
C2835 H2820 0.940 . S
C2835 C2830 1.391 . S
C2835 C2834 1.396 . S
C2836 P2816 1.803 . S
C2836 C2837 1.378 . S
C2836 C2841 1.400 . S
C2837 H2821 0.939 . S
C2837 C2836 1.378 . S
C2837 C2838 1.361 . S
C2838 H2822 0.942 . S
C2838 C2837 1.361 . S
C2838 C2839 1.369 . S
C2839 C2838 1.369 . S
C2839 C2840 1.404 . S
C2840 H2823 0.940 . S
C2840 C2839 1.404 . S
C2840 C2841 1.389 . S
C2841 H2824 0.939 . S
C2841 C2836 1.400 . S
C2841 C2840 1.389 . S
C2842 P2816 1.819 . S
C2842 C2843 1.391 . S
C2842 C2847 1.391 . S
C2843 H2825 0.941 . S
C2843 C2842 1.391 . S
C2843 C2844 1.396 . S
C2844 H2828 0.939 . S
C2844 C2843 1.396 . S
C2844 C2845 1.397 . S
C2845 C2844 1.397 . S
C2845 C2846 1.385 . S
C2846 H2829 0.940 . S
C2846 C2845 1.385 . S
C2846 C2847 1.388 . S
C2847 H2826 0.939 . S
C2847 C2842 1.391 . S
C2847 C2846 1.388 . S
P2848 O2859 1.490 . S
P2848 C2862 1.812 . S
P2848 C2868 1.803 . S
P2848 C2874 1.819 . S
H2849 C2863 0.941 . S
H2850 C2864 0.939 . S
H2851 C2866 0.940 . S
H2852 C2867 0.940 . S
H2853 C2869 0.939 . S
H2854 C2870 0.942 . S
H2855 C2872 0.940 . S
H2856 C2873 0.939 . S
H2857 C2875 0.941 . S
H2858 C2879 0.939 . S
O2859 P2848 1.490 . S
H2860 C2876 0.939 . S
H2861 C2878 0.940 . S
C2862 P2848 1.812 . S
C2862 C2863 1.389 . S
C2862 C2867 1.391 . S
C2863 H2849 0.941 . S
C2863 C2862 1.389 . S
C2863 C2864 1.397 . S
C2864 H2850 0.939 . S
C2864 C2863 1.397 . S
C2864 C2865 1.378 . S
C2865 C2864 1.378 . S
C2865 C2866 1.378 . S
C2866 H2851 0.940 . S
C2866 C2865 1.378 . S
C2866 C2867 1.396 . S
C2867 H2852 0.940 . S
C2867 C2862 1.391 . S
C2867 C2866 1.396 . S
C2868 P2848 1.803 . S
C2868 C2869 1.378 . S
C2868 C2873 1.400 . S
C2869 H2853 0.939 . S
C2869 C2868 1.378 . S
C2869 C2870 1.361 . S
C2870 H2854 0.942 . S
C2870 C2869 1.361 . S
C2870 C2871 1.369 . S
C2871 C2870 1.369 . S
C2871 C2872 1.404 . S
C2872 H2855 0.940 . S
C2872 C2871 1.404 . S
C2872 C2873 1.389 . S
C2873 H2856 0.939 . S
C2873 C2868 1.400 . S
C2873 C2872 1.389 . S
C2874 P2848 1.819 . S
C2874 C2875 1.391 . S
C2874 C2879 1.391 . S
C2875 H2857 0.941 . S
C2875 C2874 1.391 . S
C2875 C2876 1.396 . S
C2876 H2860 0.939 . S
C2876 C2875 1.396 . S
C2876 C2877 1.397 . S
C2877 C2876 1.397 . S
C2877 C2878 1.385 . S
C2878 H2861 0.940 . S
C2878 C2877 1.385 . S
C2878 C2879 1.388 . S
C2879 H2858 0.939 . S
C2879 C2874 1.391 . S
C2879 C2878 1.388 . S
P2880 O2891 1.490 . S
P2880 C2894 1.812 . S
P2880 C2900 1.803 . S
P2880 C2906 1.819 . S
H2881 C2895 0.941 . S
H2882 C2896 0.939 . S
H2883 C2898 0.940 . S
H2884 C2899 0.940 . S
H2885 C2901 0.939 . S
H2886 C2902 0.942 . S
H2887 C2904 0.940 . S
H2888 C2905 0.939 . S
H2889 C2907 0.941 . S
H2890 C2911 0.939 . S
O2891 P2880 1.490 . S
H2892 C2908 0.939 . S
H2893 C2910 0.940 . S
C2894 P2880 1.812 . S
C2894 C2895 1.389 . S
C2894 C2899 1.391 . S
C2895 H2881 0.941 . S
C2895 C2894 1.389 . S
C2895 C2896 1.397 . S
C2896 H2882 0.939 . S
C2896 C2895 1.397 . S
C2896 C2897 1.378 . S
C2897 C2896 1.378 . S
C2897 C2898 1.378 . S
C2898 H2883 0.940 . S
C2898 C2897 1.378 . S
C2898 C2899 1.396 . S
C2899 H2884 0.940 . S
C2899 C2894 1.391 . S
C2899 C2898 1.396 . S
C2900 P2880 1.803 . S
C2900 C2901 1.378 . S
C2900 C2905 1.400 . S
C2901 H2885 0.939 . S
C2901 C2900 1.378 . S
C2901 C2902 1.361 . S
C2902 H2886 0.942 . S
C2902 C2901 1.361 . S
C2902 C2903 1.369 . S
C2903 C2902 1.369 . S
C2903 C2904 1.404 . S
C2904 H2887 0.940 . S
C2904 C2903 1.404 . S
C2904 C2905 1.389 . S
C2905 H2888 0.939 . S
C2905 C2900 1.400 . S
C2905 C2904 1.389 . S
C2906 P2880 1.819 . S
C2906 C2907 1.391 . S
C2906 C2911 1.391 . S
C2907 H2889 0.941 . S
C2907 C2906 1.391 . S
C2907 C2908 1.396 . S
C2908 H2892 0.939 . S
C2908 C2907 1.396 . S
C2908 C2909 1.397 . S
C2909 C2908 1.397 . S
C2909 C2910 1.385 . S
C2910 H2893 0.940 . S
C2910 C2909 1.385 . S
C2910 C2911 1.388 . S
C2911 H2890 0.939 . S
C2911 C2906 1.391 . S
C2911 C2910 1.388 . S
P2912 O2923 1.490 . S
P2912 C2926 1.812 . S
P2912 C2932 1.803 . S
P2912 C2938 1.819 . S
H2913 C2927 0.941 . S
H2914 C2928 0.939 . S
H2915 C2930 0.940 . S
H2916 C2931 0.940 . S
H2917 C2933 0.939 . S
H2918 C2934 0.942 . S
H2919 C2936 0.940 . S
H2920 C2937 0.939 . S
H2921 C2939 0.941 . S
H2922 C2943 0.939 . S
O2923 P2912 1.490 . S
H2924 C2940 0.939 . S
H2925 C2942 0.940 . S
C2926 P2912 1.812 . S
C2926 C2927 1.389 . S
C2926 C2931 1.391 . S
C2927 H2913 0.941 . S
C2927 C2926 1.389 . S
C2927 C2928 1.397 . S
C2928 H2914 0.939 . S
C2928 C2927 1.397 . S
C2928 C2929 1.378 . S
C2929 C2928 1.378 . S
C2929 C2930 1.378 . S
C2930 H2915 0.940 . S
C2930 C2929 1.378 . S
C2930 C2931 1.396 . S
C2931 H2916 0.940 . S
C2931 C2926 1.391 . S
C2931 C2930 1.396 . S
C2932 P2912 1.803 . S
C2932 C2933 1.378 . S
C2932 C2937 1.400 . S
C2933 H2917 0.939 . S
C2933 C2932 1.378 . S
C2933 C2934 1.361 . S
C2934 H2918 0.942 . S
C2934 C2933 1.361 . S
C2934 C2935 1.369 . S
C2935 C2934 1.369 . S
C2935 C2936 1.404 . S
C2936 H2919 0.940 . S
C2936 C2935 1.404 . S
C2936 C2937 1.389 . S
C2937 H2920 0.939 . S
C2937 C2932 1.400 . S
C2937 C2936 1.389 . S
C2938 P2912 1.819 . S
C2938 C2939 1.391 . S
C2938 C2943 1.391 . S
C2939 H2921 0.941 . S
C2939 C2938 1.391 . S
C2939 C2940 1.396 . S
C2940 H2924 0.939 . S
C2940 C2939 1.396 . S
C2940 C2941 1.397 . S
C2941 C2940 1.397 . S
C2941 C2942 1.385 . S
C2942 H2925 0.940 . S
C2942 C2941 1.385 . S
C2942 C2943 1.388 . S
C2943 H2922 0.939 . S
C2943 C2938 1.391 . S
C2943 C2942 1.388 . S
P2944 O2955 1.490 . S
P2944 C2958 1.812 . S
P2944 C2964 1.803 . S
P2944 C2970 1.819 . S
H2945 C2959 0.941 . S
H2946 C2960 0.939 . S
H2947 C2962 0.940 . S
H2948 C2963 0.940 . S
H2949 C2965 0.939 . S
H2950 C2966 0.942 . S
H2951 C2968 0.940 . S
H2952 C2969 0.939 . S
H2953 C2971 0.941 . S
H2954 C2975 0.939 . S
O2955 P2944 1.490 . S
H2956 C2972 0.939 . S
H2957 C2974 0.940 . S
C2958 P2944 1.812 . S
C2958 C2959 1.389 . S
C2958 C2963 1.391 . S
C2959 H2945 0.941 . S
C2959 C2958 1.389 . S
C2959 C2960 1.397 . S
C2960 H2946 0.939 . S
C2960 C2959 1.397 . S
C2960 C2961 1.378 . S
C2961 C2960 1.378 . S
C2961 C2962 1.378 . S
C2962 H2947 0.940 . S
C2962 C2961 1.378 . S
C2962 C2963 1.396 . S
C2963 H2948 0.940 . S
C2963 C2958 1.391 . S
C2963 C2962 1.396 . S
C2964 P2944 1.803 . S
C2964 C2965 1.378 . S
C2964 C2969 1.400 . S
C2965 H2949 0.939 . S
C2965 C2964 1.378 . S
C2965 C2966 1.361 . S
C2966 H2950 0.942 . S
C2966 C2965 1.361 . S
C2966 C2967 1.369 . S
C2967 C2966 1.369 . S
C2967 C2968 1.404 . S
C2968 H2951 0.940 . S
C2968 C2967 1.404 . S
C2968 C2969 1.389 . S
C2969 H2952 0.939 . S
C2969 C2964 1.400 . S
C2969 C2968 1.389 . S
C2970 P2944 1.819 . S
C2970 C2971 1.391 . S
C2970 C2975 1.391 . S
C2971 H2953 0.941 . S
C2971 C2970 1.391 . S
C2971 C2972 1.396 . S
C2972 H2956 0.939 . S
C2972 C2971 1.396 . S
C2972 C2973 1.397 . S
C2973 C2972 1.397 . S
C2973 C2974 1.385 . S
C2974 H2957 0.940 . S
C2974 C2973 1.385 . S
C2974 C2975 1.388 . S
C2975 H2954 0.939 . S
C2975 C2970 1.391 . S
C2975 C2974 1.388 . S
P2976 O2987 1.490 . S
P2976 C2990 1.812 . S
P2976 C2996 1.803 . S
P2976 C3002 1.819 . S
H2977 C2991 0.941 . S
H2978 C2992 0.939 . S
H2979 C2994 0.940 . S
H2980 C2995 0.940 . S
H2981 C2997 0.939 . S
H2982 C2998 0.942 . S
H2983 C3000 0.940 . S
H2984 C3001 0.939 . S
H2985 C3003 0.941 . S
H2986 C3007 0.939 . S
O2987 P2976 1.490 . S
H2988 C3004 0.939 . S
H2989 C3006 0.940 . S
C2990 P2976 1.812 . S
C2990 C2991 1.389 . S
C2990 C2995 1.391 . S
C2991 H2977 0.941 . S
C2991 C2990 1.389 . S
C2991 C2992 1.397 . S
C2992 H2978 0.939 . S
C2992 C2991 1.397 . S
C2992 C2993 1.378 . S
C2993 C2992 1.378 . S
C2993 C2994 1.378 . S
C2994 H2979 0.940 . S
C2994 C2993 1.378 . S
C2994 C2995 1.396 . S
C2995 H2980 0.940 . S
C2995 C2990 1.391 . S
C2995 C2994 1.396 . S
C2996 P2976 1.803 . S
C2996 C2997 1.378 . S
C2996 C3001 1.400 . S
C2997 H2981 0.939 . S
C2997 C2996 1.378 . S
C2997 C2998 1.361 . S
C2998 H2982 0.942 . S
C2998 C2997 1.361 . S
C2998 C2999 1.369 . S
C2999 C2998 1.369 . S
C2999 C3000 1.404 . S
C3000 H2983 0.940 . S
C3000 C2999 1.404 . S
C3000 C3001 1.389 . S
C3001 H2984 0.939 . S
C3001 C2996 1.400 . S
C3001 C3000 1.389 . S
C3002 P2976 1.819 . S
C3002 C3003 1.391 . S
C3002 C3007 1.391 . S
C3003 H2985 0.941 . S
C3003 C3002 1.391 . S
C3003 C3004 1.396 . S
C3004 H2988 0.939 . S
C3004 C3003 1.396 . S
C3004 C3005 1.397 . S
C3005 C3004 1.397 . S
C3005 C3006 1.385 . S
C3006 H2989 0.940 . S
C3006 C3005 1.385 . S
C3006 C3007 1.388 . S
C3007 H2986 0.939 . S
C3007 C3002 1.391 . S
C3007 C3006 1.388 . S
P3008 O3019 1.490 . S
P3008 C3022 1.812 . S
P3008 C3028 1.803 . S
P3008 C3034 1.819 . S
H3009 C3023 0.941 . S
H3010 C3024 0.939 . S
H3011 C3026 0.940 . S
H3012 C3027 0.940 . S
H3013 C3029 0.939 . S
H3014 C3030 0.942 . S
H3015 C3032 0.940 . S
H3016 C3033 0.939 . S
H3017 C3035 0.941 . S
H3018 C3039 0.939 . S
O3019 P3008 1.490 . S
H3020 C3036 0.939 . S
H3021 C3038 0.940 . S
C3022 P3008 1.812 . S
C3022 C3023 1.389 . S
C3022 C3027 1.391 . S
C3023 H3009 0.941 . S
C3023 C3022 1.389 . S
C3023 C3024 1.397 . S
C3024 H3010 0.939 . S
C3024 C3023 1.397 . S
C3024 C3025 1.378 . S
C3025 C3024 1.378 . S
C3025 C3026 1.378 . S
C3026 H3011 0.940 . S
C3026 C3025 1.378 . S
C3026 C3027 1.396 . S
C3027 H3012 0.940 . S
C3027 C3022 1.391 . S
C3027 C3026 1.396 . S
C3028 P3008 1.803 . S
C3028 C3029 1.378 . S
C3028 C3033 1.400 . S
C3029 H3013 0.939 . S
C3029 C3028 1.378 . S
C3029 C3030 1.361 . S
C3030 H3014 0.942 . S
C3030 C3029 1.361 . S
C3030 C3031 1.369 . S
C3031 C3030 1.369 . S
C3031 C3032 1.404 . S
C3032 H3015 0.940 . S
C3032 C3031 1.404 . S
C3032 C3033 1.389 . S
C3033 H3016 0.939 . S
C3033 C3028 1.400 . S
C3033 C3032 1.389 . S
C3034 P3008 1.819 . S
C3034 C3035 1.391 . S
C3034 C3039 1.391 . S
C3035 H3017 0.941 . S
C3035 C3034 1.391 . S
C3035 C3036 1.396 . S
C3036 H3020 0.939 . S
C3036 C3035 1.396 . S
C3036 C3037 1.397 . S
C3037 C3036 1.397 . S
C3037 C3038 1.385 . S
C3038 H3021 0.940 . S
C3038 C3037 1.385 . S
C3038 C3039 1.388 . S
C3039 H3018 0.939 . S
C3039 C3034 1.391 . S
C3039 C3038 1.388 . S
P3040 O3051 1.490 . S
P3040 C3054 1.812 . S
P3040 C3060 1.803 . S
P3040 C3066 1.819 . S
H3041 C3055 0.941 . S
H3042 C3056 0.939 . S
H3043 C3058 0.940 . S
H3044 C3059 0.940 . S
H3045 C3061 0.939 . S
H3046 C3062 0.942 . S
H3047 C3064 0.940 . S
H3048 C3065 0.939 . S
H3049 C3067 0.941 . S
H3050 C3071 0.939 . S
O3051 P3040 1.490 . S
H3052 C3068 0.939 . S
H3053 C3070 0.940 . S
C3054 P3040 1.812 . S
C3054 C3055 1.389 . S
C3054 C3059 1.391 . S
C3055 H3041 0.941 . S
C3055 C3054 1.389 . S
C3055 C3056 1.397 . S
C3056 H3042 0.939 . S
C3056 C3055 1.397 . S
C3056 C3057 1.378 . S
C3057 C3056 1.378 . S
C3057 C3058 1.378 . S
C3058 H3043 0.940 . S
C3058 C3057 1.378 . S
C3058 C3059 1.396 . S
C3059 H3044 0.940 . S
C3059 C3054 1.391 . S
C3059 C3058 1.396 . S
C3060 P3040 1.803 . S
C3060 C3061 1.378 . S
C3060 C3065 1.400 . S
C3061 H3045 0.939 . S
C3061 C3060 1.378 . S
C3061 C3062 1.361 . S
C3062 H3046 0.942 . S
C3062 C3061 1.361 . S
C3062 C3063 1.369 . S
C3063 C3062 1.369 . S
C3063 C3064 1.404 . S
C3064 H3047 0.940 . S
C3064 C3063 1.404 . S
C3064 C3065 1.389 . S
C3065 H3048 0.939 . S
C3065 C3060 1.400 . S
C3065 C3064 1.389 . S
C3066 P3040 1.819 . S
C3066 C3067 1.391 . S
C3066 C3071 1.391 . S
C3067 H3049 0.941 . S
C3067 C3066 1.391 . S
C3067 C3068 1.396 . S
C3068 H3052 0.939 . S
C3068 C3067 1.396 . S
C3068 C3069 1.397 . S
C3069 C3068 1.397 . S
C3069 C3070 1.385 . S
C3070 H3053 0.940 . S
C3070 C3069 1.385 . S
C3070 C3071 1.388 . S
C3071 H3050 0.939 . S
C3071 C3066 1.391 . S
C3071 C3070 1.388 . S
P3072 O3083 1.490 . S
P3072 C3086 1.812 . S
P3072 C3092 1.803 . S
P3072 C3098 1.819 . S
H3073 C3087 0.941 . S
H3074 C3088 0.939 . S
H3075 C3090 0.940 . S
H3076 C3091 0.940 . S
H3077 C3093 0.939 . S
H3078 C3094 0.942 . S
H3079 C3096 0.940 . S
H3080 C3097 0.939 . S
H3081 C3099 0.941 . S
H3082 C3103 0.939 . S
O3083 P3072 1.490 . S
H3084 C3100 0.939 . S
H3085 C3102 0.940 . S
C3086 P3072 1.812 . S
C3086 C3087 1.389 . S
C3086 C3091 1.391 . S
C3087 H3073 0.941 . S
C3087 C3086 1.389 . S
C3087 C3088 1.397 . S
C3088 H3074 0.939 . S
C3088 C3087 1.397 . S
C3088 C3089 1.378 . S
C3089 C3088 1.378 . S
C3089 C3090 1.378 . S
C3090 H3075 0.940 . S
C3090 C3089 1.378 . S
C3090 C3091 1.396 . S
C3091 H3076 0.940 . S
C3091 C3086 1.391 . S
C3091 C3090 1.396 . S
C3092 P3072 1.803 . S
C3092 C3093 1.378 . S
C3092 C3097 1.400 . S
C3093 H3077 0.939 . S
C3093 C3092 1.378 . S
C3093 C3094 1.361 . S
C3094 H3078 0.942 . S
C3094 C3093 1.361 . S
C3094 C3095 1.369 . S
C3095 C3094 1.369 . S
C3095 C3096 1.404 . S
C3096 H3079 0.940 . S
C3096 C3095 1.404 . S
C3096 C3097 1.389 . S
C3097 H3080 0.939 . S
C3097 C3092 1.400 . S
C3097 C3096 1.389 . S
C3098 P3072 1.819 . S
C3098 C3099 1.391 . S
C3098 C3103 1.391 . S
C3099 H3081 0.941 . S
C3099 C3098 1.391 . S
C3099 C3100 1.396 . S
C3100 H3084 0.939 . S
C3100 C3099 1.396 . S
C3100 C3101 1.397 . S
C3101 C3100 1.397 . S
C3101 C3102 1.385 . S
C3102 H3085 0.940 . S
C3102 C3101 1.385 . S
C3102 C3103 1.388 . S
C3103 H3082 0.939 . S
C3103 C3098 1.391 . S
C3103 C3102 1.388 . S
P3104 O3115 1.490 . S
P3104 C3118 1.812 . S
P3104 C3124 1.803 . S
P3104 C3130 1.819 . S
H3105 C3119 0.941 . S
H3106 C3120 0.939 . S
H3107 C3122 0.940 . S
H3108 C3123 0.940 . S
H3109 C3125 0.939 . S
H3110 C3126 0.942 . S
H3111 C3128 0.940 . S
H3112 C3129 0.939 . S
H3113 C3131 0.941 . S
H3114 C3135 0.939 . S
O3115 P3104 1.490 . S
H3116 C3132 0.939 . S
H3117 C3134 0.940 . S
C3118 P3104 1.812 . S
C3118 C3119 1.389 . S
C3118 C3123 1.391 . S
C3119 H3105 0.941 . S
C3119 C3118 1.389 . S
C3119 C3120 1.397 . S
C3120 H3106 0.939 . S
C3120 C3119 1.397 . S
C3120 C3121 1.378 . S
C3121 C3120 1.378 . S
C3121 C3122 1.378 . S
C3122 H3107 0.940 . S
C3122 C3121 1.378 . S
C3122 C3123 1.396 . S
C3123 H3108 0.940 . S
C3123 C3118 1.391 . S
C3123 C3122 1.396 . S
C3124 P3104 1.803 . S
C3124 C3125 1.378 . S
C3124 C3129 1.400 . S
C3125 H3109 0.939 . S
C3125 C3124 1.378 . S
C3125 C3126 1.361 . S
C3126 H3110 0.942 . S
C3126 C3125 1.361 . S
C3126 C3127 1.369 . S
C3127 C3126 1.369 . S
C3127 C3128 1.404 . S
C3128 H3111 0.940 . S
C3128 C3127 1.404 . S
C3128 C3129 1.389 . S
C3129 H3112 0.939 . S
C3129 C3124 1.400 . S
C3129 C3128 1.389 . S
C3130 P3104 1.819 . S
C3130 C3131 1.391 . S
C3130 C3135 1.391 . S
C3131 H3113 0.941 . S
C3131 C3130 1.391 . S
C3131 C3132 1.396 . S
C3132 H3116 0.939 . S
C3132 C3131 1.396 . S
C3132 C3133 1.397 . S
C3133 C3132 1.397 . S
C3133 C3134 1.385 . S
C3134 H3117 0.940 . S
C3134 C3133 1.385 . S
C3134 C3135 1.388 . S
C3135 H3114 0.939 . S
C3135 C3130 1.391 . S
C3135 C3134 1.388 . S
P3136 O3147 1.490 . S
P3136 C3150 1.812 . S
P3136 C3156 1.803 . S
P3136 C3162 1.819 . S
H3137 C3151 0.941 . S
H3138 C3152 0.939 . S
H3139 C3154 0.940 . S
H3140 C3155 0.940 . S
H3141 C3157 0.939 . S
H3142 C3158 0.942 . S
H3143 C3160 0.940 . S
H3144 C3161 0.939 . S
H3145 C3163 0.941 . S
H3146 C3167 0.939 . S
O3147 P3136 1.490 . S
H3148 C3164 0.939 . S
H3149 C3166 0.940 . S
C3150 P3136 1.812 . S
C3150 C3151 1.389 . S
C3150 C3155 1.391 . S
C3151 H3137 0.941 . S
C3151 C3150 1.389 . S
C3151 C3152 1.397 . S
C3152 H3138 0.939 . S
C3152 C3151 1.397 . S
C3152 C3153 1.378 . S
C3153 C3152 1.378 . S
C3153 C3154 1.378 . S
C3154 H3139 0.940 . S
C3154 C3153 1.378 . S
C3154 C3155 1.396 . S
C3155 H3140 0.940 . S
C3155 C3150 1.391 . S
C3155 C3154 1.396 . S
C3156 P3136 1.803 . S
C3156 C3157 1.378 . S
C3156 C3161 1.400 . S
C3157 H3141 0.939 . S
C3157 C3156 1.378 . S
C3157 C3158 1.361 . S
C3158 H3142 0.942 . S
C3158 C3157 1.361 . S
C3158 C3159 1.369 . S
C3159 C3158 1.369 . S
C3159 C3160 1.404 . S
C3160 H3143 0.940 . S
C3160 C3159 1.404 . S
C3160 C3161 1.389 . S
C3161 H3144 0.939 . S
C3161 C3156 1.400 . S
C3161 C3160 1.389 . S
C3162 P3136 1.819 . S
C3162 C3163 1.391 . S
C3162 C3167 1.391 . S
C3163 H3145 0.941 . S
C3163 C3162 1.391 . S
C3163 C3164 1.396 . S
C3164 H3148 0.939 . S
C3164 C3163 1.396 . S
C3164 C3165 1.397 . S
C3165 C3164 1.397 . S
C3165 C3166 1.385 . S
C3166 H3149 0.940 . S
C3166 C3165 1.385 . S
C3166 C3167 1.388 . S
C3167 H3146 0.939 . S
C3167 C3162 1.391 . S
C3167 C3166 1.388 . S
P3168 O3179 1.490 . S
P3168 C3182 1.812 . S
P3168 C3188 1.803 . S
P3168 C3194 1.819 . S
H3169 C3183 0.941 . S
H3170 C3184 0.939 . S
H3171 C3186 0.940 . S
H3172 C3187 0.940 . S
H3173 C3189 0.939 . S
H3174 C3190 0.942 . S
H3175 C3192 0.940 . S
H3176 C3193 0.939 . S
H3177 C3195 0.941 . S
H3178 C3199 0.939 . S
O3179 P3168 1.490 . S
H3180 C3196 0.939 . S
H3181 C3198 0.940 . S
C3182 P3168 1.812 . S
C3182 C3183 1.389 . S
C3182 C3187 1.391 . S
C3183 H3169 0.941 . S
C3183 C3182 1.389 . S
C3183 C3184 1.397 . S
C3184 H3170 0.939 . S
C3184 C3183 1.397 . S
C3184 C3185 1.378 . S
C3185 C3184 1.378 . S
C3185 C3186 1.378 . S
C3186 H3171 0.940 . S
C3186 C3185 1.378 . S
C3186 C3187 1.396 . S
C3187 H3172 0.940 . S
C3187 C3182 1.391 . S
C3187 C3186 1.396 . S
C3188 P3168 1.803 . S
C3188 C3189 1.378 . S
C3188 C3193 1.400 . S
C3189 H3173 0.939 . S
C3189 C3188 1.378 . S
C3189 C3190 1.361 . S
C3190 H3174 0.942 . S
C3190 C3189 1.361 . S
C3190 C3191 1.369 . S
C3191 C3190 1.369 . S
C3191 C3192 1.404 . S
C3192 H3175 0.940 . S
C3192 C3191 1.404 . S
C3192 C3193 1.389 . S
C3193 H3176 0.939 . S
C3193 C3188 1.400 . S
C3193 C3192 1.389 . S
C3194 P3168 1.819 . S
C3194 C3195 1.391 . S
C3194 C3199 1.391 . S
C3195 H3177 0.941 . S
C3195 C3194 1.391 . S
C3195 C3196 1.396 . S
C3196 H3180 0.939 . S
C3196 C3195 1.396 . S
C3196 C3197 1.397 . S
C3197 C3196 1.397 . S
C3197 C3198 1.385 . S
C3198 H3181 0.940 . S
C3198 C3197 1.385 . S
C3198 C3199 1.388 . S
C3199 H3178 0.939 . S
C3199 C3194 1.391 . S
C3199 C3198 1.388 . S
P3200 O3211 1.490 . S
P3200 C3214 1.812 . S
P3200 C3220 1.803 . S
P3200 C3226 1.819 . S
H3201 C3215 0.941 . S
H3202 C3216 0.939 . S
H3203 C3218 0.940 . S
H3204 C3219 0.940 . S
H3205 C3221 0.939 . S
H3206 C3222 0.942 . S
H3207 C3224 0.940 . S
H3208 C3225 0.939 . S
H3209 C3227 0.941 . S
H3210 C3231 0.939 . S
O3211 P3200 1.490 . S
H3212 C3228 0.939 . S
H3213 C3230 0.940 . S
C3214 P3200 1.812 . S
C3214 C3215 1.389 . S
C3214 C3219 1.391 . S
C3215 H3201 0.941 . S
C3215 C3214 1.389 . S
C3215 C3216 1.397 . S
C3216 H3202 0.939 . S
C3216 C3215 1.397 . S
C3216 C3217 1.378 . S
C3217 C3216 1.378 . S
C3217 C3218 1.378 . S
C3218 H3203 0.940 . S
C3218 C3217 1.378 . S
C3218 C3219 1.396 . S
C3219 H3204 0.940 . S
C3219 C3214 1.391 . S
C3219 C3218 1.396 . S
C3220 P3200 1.803 . S
C3220 C3221 1.378 . S
C3220 C3225 1.400 . S
C3221 H3205 0.939 . S
C3221 C3220 1.378 . S
C3221 C3222 1.361 . S
C3222 H3206 0.942 . S
C3222 C3221 1.361 . S
C3222 C3223 1.369 . S
C3223 C3222 1.369 . S
C3223 C3224 1.404 . S
C3224 H3207 0.940 . S
C3224 C3223 1.404 . S
C3224 C3225 1.389 . S
C3225 H3208 0.939 . S
C3225 C3220 1.400 . S
C3225 C3224 1.389 . S
C3226 P3200 1.819 . S
C3226 C3227 1.391 . S
C3226 C3231 1.391 . S
C3227 H3209 0.941 . S
C3227 C3226 1.391 . S
C3227 C3228 1.396 . S
C3228 H3212 0.939 . S
C3228 C3227 1.396 . S
C3228 C3229 1.397 . S
C3229 C3228 1.397 . S
C3229 C3230 1.385 . S
C3230 H3213 0.940 . S
C3230 C3229 1.385 . S
C3230 C3231 1.388 . S
C3231 H3210 0.939 . S
C3231 C3226 1.391 . S
C3231 C3230 1.388 . S
P3232 O3243 1.490 . S
P3232 C3246 1.812 . S
P3232 C3252 1.803 . S
P3232 C3258 1.819 . S
H3233 C3247 0.941 . S
H3234 C3248 0.939 . S
H3235 C3250 0.940 . S
H3236 C3251 0.940 . S
H3237 C3253 0.939 . S
H3238 C3254 0.942 . S
H3239 C3256 0.940 . S
H3240 C3257 0.939 . S
H3241 C3259 0.941 . S
H3242 C3263 0.939 . S
O3243 P3232 1.490 . S
H3244 C3260 0.939 . S
H3245 C3262 0.940 . S
C3246 P3232 1.812 . S
C3246 C3247 1.389 . S
C3246 C3251 1.391 . S
C3247 H3233 0.941 . S
C3247 C3246 1.389 . S
C3247 C3248 1.397 . S
C3248 H3234 0.939 . S
C3248 C3247 1.397 . S
C3248 C3249 1.378 . S
C3249 C3248 1.378 . S
C3249 C3250 1.378 . S
C3250 H3235 0.940 . S
C3250 C3249 1.378 . S
C3250 C3251 1.396 . S
C3251 H3236 0.940 . S
C3251 C3246 1.391 . S
C3251 C3250 1.396 . S
C3252 P3232 1.803 . S
C3252 C3253 1.378 . S
C3252 C3257 1.400 . S
C3253 H3237 0.939 . S
C3253 C3252 1.378 . S
C3253 C3254 1.361 . S
C3254 H3238 0.942 . S
C3254 C3253 1.361 . S
C3254 C3255 1.369 . S
C3255 C3254 1.369 . S
C3255 C3256 1.404 . S
C3256 H3239 0.940 . S
C3256 C3255 1.404 . S
C3256 C3257 1.389 . S
C3257 H3240 0.939 . S
C3257 C3252 1.400 . S
C3257 C3256 1.389 . S
C3258 P3232 1.819 . S
C3258 C3259 1.391 . S
C3258 C3263 1.391 . S
C3259 H3241 0.941 . S
C3259 C3258 1.391 . S
C3259 C3260 1.396 . S
C3260 H3244 0.939 . S
C3260 C3259 1.396 . S
C3260 C3261 1.397 . S
C3261 C3260 1.397 . S
C3261 C3262 1.385 . S
C3262 H3245 0.940 . S
C3262 C3261 1.385 . S
C3262 C3263 1.388 . S
C3263 H3242 0.939 . S
C3263 C3258 1.391 . S
C3263 C3262 1.388 . S
P3264 O3275 1.490 . S
P3264 C3278 1.812 . S
P3264 C3284 1.803 . S
P3264 C3290 1.819 . S
H3265 C3279 0.941 . S
H3266 C3280 0.939 . S
H3267 C3282 0.940 . S
H3268 C3283 0.940 . S
H3269 C3285 0.939 . S
H3270 C3286 0.942 . S
H3271 C3288 0.940 . S
H3272 C3289 0.939 . S
H3273 C3291 0.941 . S
H3274 C3295 0.939 . S
O3275 P3264 1.490 . S
H3276 C3292 0.939 . S
H3277 C3294 0.940 . S
C3278 P3264 1.812 . S
C3278 C3279 1.389 . S
C3278 C3283 1.391 . S
C3279 H3265 0.941 . S
C3279 C3278 1.389 . S
C3279 C3280 1.397 . S
C3280 H3266 0.939 . S
C3280 C3279 1.397 . S
C3280 C3281 1.378 . S
C3281 C3280 1.378 . S
C3281 C3282 1.378 . S
C3282 H3267 0.940 . S
C3282 C3281 1.378 . S
C3282 C3283 1.396 . S
C3283 H3268 0.940 . S
C3283 C3278 1.391 . S
C3283 C3282 1.396 . S
C3284 P3264 1.803 . S
C3284 C3285 1.378 . S
C3284 C3289 1.400 . S
C3285 H3269 0.939 . S
C3285 C3284 1.378 . S
C3285 C3286 1.361 . S
C3286 H3270 0.942 . S
C3286 C3285 1.361 . S
C3286 C3287 1.369 . S
C3287 C3286 1.369 . S
C3287 C3288 1.404 . S
C3288 H3271 0.940 . S
C3288 C3287 1.404 . S
C3288 C3289 1.389 . S
C3289 H3272 0.939 . S
C3289 C3284 1.400 . S
C3289 C3288 1.389 . S
C3290 P3264 1.819 . S
C3290 C3291 1.391 . S
C3290 C3295 1.391 . S
C3291 H3273 0.941 . S
C3291 C3290 1.391 . S
C3291 C3292 1.396 . S
C3292 H3276 0.939 . S
C3292 C3291 1.396 . S
C3292 C3293 1.397 . S
C3293 C3292 1.397 . S
C3293 C3294 1.385 . S
C3294 H3277 0.940 . S
C3294 C3293 1.385 . S
C3294 C3295 1.388 . S
C3295 H3274 0.939 . S
C3295 C3290 1.391 . S
C3295 C3294 1.388 . S
P3296 O3307 1.490 . S
P3296 C3310 1.812 . S
P3296 C3316 1.803 . S
P3296 C3322 1.819 . S
H3297 C3311 0.941 . S
H3298 C3312 0.939 . S
H3299 C3314 0.940 . S
H3300 C3315 0.940 . S
H3301 C3317 0.939 . S
H3302 C3318 0.942 . S
H3303 C3320 0.940 . S
H3304 C3321 0.939 . S
H3305 C3323 0.941 . S
H3306 C3327 0.939 . S
O3307 P3296 1.490 . S
H3308 C3324 0.939 . S
H3309 C3326 0.940 . S
C3310 P3296 1.812 . S
C3310 C3311 1.389 . S
C3310 C3315 1.391 . S
C3311 H3297 0.941 . S
C3311 C3310 1.389 . S
C3311 C3312 1.397 . S
C3312 H3298 0.939 . S
C3312 C3311 1.397 . S
C3312 C3313 1.378 . S
C3313 C3312 1.378 . S
C3313 C3314 1.378 . S
C3314 H3299 0.940 . S
C3314 C3313 1.378 . S
C3314 C3315 1.396 . S
C3315 H3300 0.940 . S
C3315 C3310 1.391 . S
C3315 C3314 1.396 . S
C3316 P3296 1.803 . S
C3316 C3317 1.378 . S
C3316 C3321 1.400 . S
C3317 H3301 0.939 . S
C3317 C3316 1.378 . S
C3317 C3318 1.361 . S
C3318 H3302 0.942 . S
C3318 C3317 1.361 . S
C3318 C3319 1.369 . S
C3319 C3318 1.369 . S
C3319 C3320 1.404 . S
C3320 H3303 0.940 . S
C3320 C3319 1.404 . S
C3320 C3321 1.389 . S
C3321 H3304 0.939 . S
C3321 C3316 1.400 . S
C3321 C3320 1.389 . S
C3322 P3296 1.819 . S
C3322 C3323 1.391 . S
C3322 C3327 1.391 . S
C3323 H3305 0.941 . S
C3323 C3322 1.391 . S
C3323 C3324 1.396 . S
C3324 H3308 0.939 . S
C3324 C3323 1.396 . S
C3324 C3325 1.397 . S
C3325 C3324 1.397 . S
C3325 C3326 1.385 . S
C3326 H3309 0.940 . S
C3326 C3325 1.385 . S
C3326 C3327 1.388 . S
C3327 H3306 0.939 . S
C3327 C3322 1.391 . S
C3327 C3326 1.388 . S
P3328 O3339 1.490 . S
P3328 C3342 1.812 . S
P3328 C3348 1.803 . S
P3328 C3354 1.819 . S
H3329 C3343 0.941 . S
H3330 C3344 0.939 . S
H3331 C3346 0.940 . S
H3332 C3347 0.940 . S
H3333 C3349 0.939 . S
H3334 C3350 0.942 . S
H3335 C3352 0.940 . S
H3336 C3353 0.939 . S
H3337 C3355 0.941 . S
H3338 C3359 0.939 . S
O3339 P3328 1.490 . S
H3340 C3356 0.939 . S
H3341 C3358 0.940 . S
C3342 P3328 1.812 . S
C3342 C3343 1.389 . S
C3342 C3347 1.391 . S
C3343 H3329 0.941 . S
C3343 C3342 1.389 . S
C3343 C3344 1.397 . S
C3344 H3330 0.939 . S
C3344 C3343 1.397 . S
C3344 C3345 1.378 . S
C3345 C3344 1.378 . S
C3345 C3346 1.378 . S
C3346 H3331 0.940 . S
C3346 C3345 1.378 . S
C3346 C3347 1.396 . S
C3347 H3332 0.940 . S
C3347 C3342 1.391 . S
C3347 C3346 1.396 . S
C3348 P3328 1.803 . S
C3348 C3349 1.378 . S
C3348 C3353 1.400 . S
C3349 H3333 0.939 . S
C3349 C3348 1.378 . S
C3349 C3350 1.361 . S
C3350 H3334 0.942 . S
C3350 C3349 1.361 . S
C3350 C3351 1.369 . S
C3351 C3350 1.369 . S
C3351 C3352 1.404 . S
C3352 H3335 0.940 . S
C3352 C3351 1.404 . S
C3352 C3353 1.389 . S
C3353 H3336 0.939 . S
C3353 C3348 1.400 . S
C3353 C3352 1.389 . S
C3354 P3328 1.819 . S
C3354 C3355 1.391 . S
C3354 C3359 1.391 . S
C3355 H3337 0.941 . S
C3355 C3354 1.391 . S
C3355 C3356 1.396 . S
C3356 H3340 0.939 . S
C3356 C3355 1.396 . S
C3356 C3357 1.397 . S
C3357 C3356 1.397 . S
C3357 C3358 1.385 . S
C3358 H3341 0.940 . S
C3358 C3357 1.385 . S
C3358 C3359 1.388 . S
C3359 H3338 0.939 . S
C3359 C3354 1.391 . S
C3359 C3358 1.388 . S
P3360 O3371 1.490 . S
P3360 C3374 1.812 . S
P3360 C3380 1.803 . S
P3360 C3386 1.819 . S
H3361 C3375 0.941 . S
H3362 C3376 0.939 . S
H3363 C3378 0.940 . S
H3364 C3379 0.940 . S
H3365 C3381 0.939 . S
H3366 C3382 0.942 . S
H3367 C3384 0.940 . S
H3368 C3385 0.939 . S
H3369 C3387 0.941 . S
H3370 C3391 0.939 . S
O3371 P3360 1.490 . S
H3372 C3388 0.939 . S
H3373 C3390 0.940 . S
C3374 P3360 1.812 . S
C3374 C3375 1.389 . S
C3374 C3379 1.391 . S
C3375 H3361 0.941 . S
C3375 C3374 1.389 . S
C3375 C3376 1.397 . S
C3376 H3362 0.939 . S
C3376 C3375 1.397 . S
C3376 C3377 1.378 . S
C3377 C3376 1.378 . S
C3377 C3378 1.378 . S
C3378 H3363 0.940 . S
C3378 C3377 1.378 . S
C3378 C3379 1.396 . S
C3379 H3364 0.940 . S
C3379 C3374 1.391 . S
C3379 C3378 1.396 . S
C3380 P3360 1.803 . S
C3380 C3381 1.378 . S
C3380 C3385 1.400 . S
C3381 H3365 0.939 . S
C3381 C3380 1.378 . S
C3381 C3382 1.361 . S
C3382 H3366 0.942 . S
C3382 C3381 1.361 . S
C3382 C3383 1.369 . S
C3383 C3382 1.369 . S
C3383 C3384 1.404 . S
C3384 H3367 0.940 . S
C3384 C3383 1.404 . S
C3384 C3385 1.389 . S
C3385 H3368 0.939 . S
C3385 C3380 1.400 . S
C3385 C3384 1.389 . S
C3386 P3360 1.819 . S
C3386 C3387 1.391 . S
C3386 C3391 1.391 . S
C3387 H3369 0.941 . S
C3387 C3386 1.391 . S
C3387 C3388 1.396 . S
C3388 H3372 0.939 . S
C3388 C3387 1.396 . S
C3388 C3389 1.397 . S
C3389 C3388 1.397 . S
C3389 C3390 1.385 . S
C3390 H3373 0.940 . S
C3390 C3389 1.385 . S
C3390 C3391 1.388 . S
C3391 H3370 0.939 . S
C3391 C3386 1.391 . S
C3391 C3390 1.388 . S
P3392 O3403 1.490 . S
P3392 C3406 1.812 . S
P3392 C3412 1.803 . S
P3392 C3418 1.819 . S
H3393 C3407 0.941 . S
H3394 C3408 0.939 . S
H3395 C3410 0.940 . S
H3396 C3411 0.940 . S
H3397 C3413 0.939 . S
H3398 C3414 0.942 . S
H3399 C3416 0.940 . S
H3400 C3417 0.939 . S
H3401 C3419 0.941 . S
H3402 C3423 0.939 . S
O3403 P3392 1.490 . S
H3404 C3420 0.939 . S
H3405 C3422 0.940 . S
C3406 P3392 1.812 . S
C3406 C3407 1.389 . S
C3406 C3411 1.391 . S
C3407 H3393 0.941 . S
C3407 C3406 1.389 . S
C3407 C3408 1.397 . S
C3408 H3394 0.939 . S
C3408 C3407 1.397 . S
C3408 C3409 1.378 . S
C3409 C3408 1.378 . S
C3409 C3410 1.378 . S
C3410 H3395 0.940 . S
C3410 C3409 1.378 . S
C3410 C3411 1.396 . S
C3411 H3396 0.940 . S
C3411 C3406 1.391 . S
C3411 C3410 1.396 . S
C3412 P3392 1.803 . S
C3412 C3413 1.378 . S
C3412 C3417 1.400 . S
C3413 H3397 0.939 . S
C3413 C3412 1.378 . S
C3413 C3414 1.361 . S
C3414 H3398 0.942 . S
C3414 C3413 1.361 . S
C3414 C3415 1.369 . S
C3415 C3414 1.369 . S
C3415 C3416 1.404 . S
C3416 H3399 0.940 . S
C3416 C3415 1.404 . S
C3416 C3417 1.389 . S
C3417 H3400 0.939 . S
C3417 C3412 1.400 . S
C3417 C3416 1.389 . S
C3418 P3392 1.819 . S
C3418 C3419 1.391 . S
C3418 C3423 1.391 . S
C3419 H3401 0.941 . S
C3419 C3418 1.391 . S
C3419 C3420 1.396 . S
C3420 H3404 0.939 . S
C3420 C3419 1.396 . S
C3420 C3421 1.397 . S
C3421 C3420 1.397 . S
C3421 C3422 1.385 . S
C3422 H3405 0.940 . S
C3422 C3421 1.385 . S
C3422 C3423 1.388 . S
C3423 H3402 0.939 . S
C3423 C3418 1.391 . S
C3423 C3422 1.388 . S
P3424 O3435 1.490 . S
P3424 C3438 1.812 . S
P3424 C3444 1.803 . S
P3424 C3450 1.819 . S
H3425 C3439 0.941 . S
H3426 C3440 0.939 . S
H3427 C3442 0.940 . S
H3428 C3443 0.940 . S
H3429 C3445 0.939 . S
H3430 C3446 0.942 . S
H3431 C3448 0.940 . S
H3432 C3449 0.939 . S
H3433 C3451 0.941 . S
H3434 C3455 0.939 . S
O3435 P3424 1.490 . S
H3436 C3452 0.939 . S
H3437 C3454 0.940 . S
C3438 P3424 1.812 . S
C3438 C3439 1.389 . S
C3438 C3443 1.391 . S
C3439 H3425 0.941 . S
C3439 C3438 1.389 . S
C3439 C3440 1.397 . S
C3440 H3426 0.939 . S
C3440 C3439 1.397 . S
C3440 C3441 1.378 . S
C3441 C3440 1.378 . S
C3441 C3442 1.378 . S
C3442 H3427 0.940 . S
C3442 C3441 1.378 . S
C3442 C3443 1.396 . S
C3443 H3428 0.940 . S
C3443 C3438 1.391 . S
C3443 C3442 1.396 . S
C3444 P3424 1.803 . S
C3444 C3445 1.378 . S
C3444 C3449 1.400 . S
C3445 H3429 0.939 . S
C3445 C3444 1.378 . S
C3445 C3446 1.361 . S
C3446 H3430 0.942 . S
C3446 C3445 1.361 . S
C3446 C3447 1.369 . S
C3447 C3446 1.369 . S
C3447 C3448 1.404 . S
C3448 H3431 0.940 . S
C3448 C3447 1.404 . S
C3448 C3449 1.389 . S
C3449 H3432 0.939 . S
C3449 C3444 1.400 . S
C3449 C3448 1.389 . S
C3450 P3424 1.819 . S
C3450 C3451 1.391 . S
C3450 C3455 1.391 . S
C3451 H3433 0.941 . S
C3451 C3450 1.391 . S
C3451 C3452 1.396 . S
C3452 H3436 0.939 . S
C3452 C3451 1.396 . S
C3452 C3453 1.397 . S
C3453 C3452 1.397 . S
C3453 C3454 1.385 . S
C3454 H3437 0.940 . S
C3454 C3453 1.385 . S
C3454 C3455 1.388 . S
C3455 H3434 0.939 . S
C3455 C3450 1.391 . S
C3455 C3454 1.388 . S
C3456 C3457 1.349 . S
C3456 C3458 1.327 . S
C3456 H3481 0.950 . S
C3457 C3456 1.349 . S
C3457 C3473 1.349 . S
C3458 C3456 1.327 . S
C3458 C3477 1.429 . S
C3458 H3482 0.950 . S
C3459 C3476 1.574 . S
C3459 C3478 1.368 . S
C3459 H3483 0.949 . S
H3460 C3464 0.949 . S
C3461 C3462 1.349 . S
C3461 C3463 1.327 . S
C3461 H3484 0.950 . S
C3462 C3461 1.349 . S
C3462 C3474 1.349 . S
C3463 C3461 1.327 . S
C3463 C3479 1.429 . S
C3463 H3485 0.950 . S
C3464 H3460 0.949 . S
C3464 C3472 1.574 . S
C3464 C3480 1.368 . S
H3465 C3473 0.950 . S
H3466 C3471 0.950 . S
H3467 C3472 0.949 . S
H3468 C3474 0.950 . S
H3469 C3475 0.950 . S
H3470 C3476 0.949 . S
C3471 H3466 0.950 . S
C3471 C3473 1.327 . S
C3471 C3477 1.429 . S
C3472 C3464 1.574 . S
C3472 H3467 0.949 . S
C3472 C3478 1.368 . S
C3473 C3457 1.349 . S
C3473 H3465 0.950 . S
C3473 C3471 1.327 . S
C3474 C3462 1.349 . S
C3474 H3468 0.950 . S
C3474 C3475 1.327 . S
C3475 H3469 0.950 . S
C3475 C3474 1.327 . S
C3475 C3479 1.429 . S
C3476 C3459 1.574 . S
C3476 H3470 0.949 . S
C3476 C3480 1.368 . S
C3477 C3458 1.429 . S
C3477 C3471 1.429 . S
C3477 C3478 1.523 . S
C3478 C3459 1.368 . S
C3478 C3472 1.368 . S
C3478 C3477 1.523 . S
C3479 C3463 1.429 . S
C3479 C3475 1.429 . S
C3479 C3480 1.523 . S
C3480 C3464 1.368 . S
C3480 C3476 1.368 . S
C3480 C3479 1.523 . S
H3481 C3456 0.950 . S
H3482 C3458 0.950 . S
H3483 C3459 0.949 . S
H3484 C3461 0.950 . S
H3485 C3463 0.950 . S
C3486 C3487 1.349 . S
C3486 C3488 1.327 . S
C3486 H3511 0.950 . S
C3487 C3486 1.349 . S
C3487 C3503 1.349 . S
C3488 C3486 1.327 . S
C3488 C3507 1.429 . S
C3488 H3512 0.950 . S
C3489 C3506 1.574 . S
C3489 C3508 1.368 . S
C3489 H3513 0.949 . S
H3490 C3494 0.949 . S
C3491 C3492 1.349 . S
C3491 C3493 1.327 . S
C3491 H3514 0.950 . S
C3492 C3491 1.349 . S
C3492 C3504 1.349 . S
C3493 C3491 1.327 . S
C3493 C3509 1.429 . S
C3493 H3515 0.950 . S
C3494 H3490 0.949 . S
C3494 C3502 1.574 . S
C3494 C3510 1.368 . S
H3495 C3503 0.950 . S
H3496 C3501 0.950 . S
H3497 C3502 0.949 . S
H3498 C3504 0.950 . S
H3499 C3505 0.950 . S
H3500 C3506 0.949 . S
C3501 H3496 0.950 . S
C3501 C3503 1.327 . S
C3501 C3507 1.429 . S
C3502 C3494 1.574 . S
C3502 H3497 0.949 . S
C3502 C3508 1.368 . S
C3503 C3487 1.349 . S
C3503 H3495 0.950 . S
C3503 C3501 1.327 . S
C3504 C3492 1.349 . S
C3504 H3498 0.950 . S
C3504 C3505 1.327 . S
C3505 H3499 0.950 . S
C3505 C3504 1.327 . S
C3505 C3509 1.429 . S
C3506 C3489 1.574 . S
C3506 H3500 0.949 . S
C3506 C3510 1.368 . S
C3507 C3488 1.429 . S
C3507 C3501 1.429 . S
C3507 C3508 1.523 . S
C3508 C3489 1.368 . S
C3508 C3502 1.368 . S
C3508 C3507 1.523 . S
C3509 C3493 1.429 . S
C3509 C3505 1.429 . S
C3509 C3510 1.523 . S
C3510 C3494 1.368 . S
C3510 C3506 1.368 . S
C3510 C3509 1.523 . S
H3511 C3486 0.950 . S
H3512 C3488 0.950 . S
H3513 C3489 0.949 . S
H3514 C3491 0.950 . S
H3515 C3493 0.950 . S
C3516 C3517 1.349 . S
C3516 C3518 1.327 . S
C3516 H3541 0.950 . S
C3517 C3516 1.349 . S
C3517 C3533 1.349 . S
C3518 C3516 1.327 . S
C3518 C3537 1.429 . S
C3518 H3542 0.950 . S
C3519 C3536 1.574 . S
C3519 C3538 1.368 . S
C3519 H3543 0.949 . S
H3520 C3524 0.949 . S
C3521 C3522 1.349 . S
C3521 C3523 1.327 . S
C3521 H3544 0.950 . S
C3522 C3521 1.349 . S
C3522 C3534 1.349 . S
C3523 C3521 1.327 . S
C3523 C3539 1.429 . S
C3523 H3545 0.950 . S
C3524 H3520 0.949 . S
C3524 C3532 1.574 . S
C3524 C3540 1.368 . S
H3525 C3533 0.950 . S
H3526 C3531 0.950 . S
H3527 C3532 0.949 . S
H3528 C3534 0.950 . S
H3529 C3535 0.950 . S
H3530 C3536 0.949 . S
C3531 H3526 0.950 . S
C3531 C3533 1.327 . S
C3531 C3537 1.429 . S
C3532 C3524 1.574 . S
C3532 H3527 0.949 . S
C3532 C3538 1.368 . S
C3533 C3517 1.349 . S
C3533 H3525 0.950 . S
C3533 C3531 1.327 . S
C3534 C3522 1.349 . S
C3534 H3528 0.950 . S
C3534 C3535 1.327 . S
C3535 H3529 0.950 . S
C3535 C3534 1.327 . S
C3535 C3539 1.429 . S
C3536 C3519 1.574 . S
C3536 H3530 0.949 . S
C3536 C3540 1.368 . S
C3537 C3518 1.429 . S
C3537 C3531 1.429 . S
C3537 C3538 1.523 . S
C3538 C3519 1.368 . S
C3538 C3532 1.368 . S
C3538 C3537 1.523 . S
C3539 C3523 1.429 . S
C3539 C3535 1.429 . S
C3539 C3540 1.523 . S
C3540 C3524 1.368 . S
C3540 C3536 1.368 . S
C3540 C3539 1.523 . S
H3541 C3516 0.950 . S
H3542 C3518 0.950 . S
H3543 C3519 0.949 . S
H3544 C3521 0.950 . S
H3545 C3523 0.950 . S
C3546 C3547 1.349 . S
C3546 C3548 1.327 . S
C3546 H3571 0.950 . S
C3547 C3546 1.349 . S
C3547 C3563 1.349 . S
C3548 C3546 1.327 . S
C3548 C3567 1.429 . S
C3548 H3572 0.950 . S
C3549 C3566 1.574 . S
C3549 C3568 1.368 . S
C3549 H3573 0.949 . S
H3550 C3554 0.949 . S
C3551 C3552 1.349 . S
C3551 C3553 1.327 . S
C3551 H3574 0.950 . S
C3552 C3551 1.349 . S
C3552 C3564 1.349 . S
C3553 C3551 1.327 . S
C3553 C3569 1.429 . S
C3553 H3575 0.950 . S
C3554 H3550 0.949 . S
C3554 C3562 1.574 . S
C3554 C3570 1.368 . S
H3555 C3563 0.950 . S
H3556 C3561 0.950 . S
H3557 C3562 0.949 . S
H3558 C3564 0.950 . S
H3559 C3565 0.950 . S
H3560 C3566 0.949 . S
C3561 H3556 0.950 . S
C3561 C3563 1.327 . S
C3561 C3567 1.429 . S
C3562 C3554 1.574 . S
C3562 H3557 0.949 . S
C3562 C3568 1.368 . S
C3563 C3547 1.349 . S
C3563 H3555 0.950 . S
C3563 C3561 1.327 . S
C3564 C3552 1.349 . S
C3564 H3558 0.950 . S
C3564 C3565 1.327 . S
C3565 H3559 0.950 . S
C3565 C3564 1.327 . S
C3565 C3569 1.429 . S
C3566 C3549 1.574 . S
C3566 H3560 0.949 . S
C3566 C3570 1.368 . S
C3567 C3548 1.429 . S
C3567 C3561 1.429 . S
C3567 C3568 1.523 . S
C3568 C3549 1.368 . S
C3568 C3562 1.368 . S
C3568 C3567 1.523 . S
C3569 C3553 1.429 . S
C3569 C3565 1.429 . S
C3569 C3570 1.523 . S
C3570 C3554 1.368 . S
C3570 C3566 1.368 . S
C3570 C3569 1.523 . S
H3571 C3546 0.950 . S
H3572 C3548 0.950 . S
H3573 C3549 0.949 . S
H3574 C3551 0.950 . S
H3575 C3553 0.950 . S
C3576 C3577 1.349 . S
C3576 C3578 1.327 . S
C3576 H3601 0.950 . S
C3577 C3576 1.349 . S
C3577 C3593 1.349 . S
C3578 C3576 1.327 . S
C3578 C3597 1.429 . S
C3578 H3602 0.950 . S
C3579 C3596 1.574 . S
C3579 C3598 1.368 . S
C3579 H3603 0.949 . S
H3580 C3584 0.949 . S
C3581 C3582 1.349 . S
C3581 C3583 1.327 . S
C3581 H3604 0.950 . S
C3582 C3581 1.349 . S
C3582 C3594 1.349 . S
C3583 C3581 1.327 . S
C3583 C3599 1.429 . S
C3583 H3605 0.950 . S
C3584 H3580 0.949 . S
C3584 C3592 1.574 . S
C3584 C3600 1.368 . S
H3585 C3593 0.950 . S
H3586 C3591 0.950 . S
H3587 C3592 0.949 . S
H3588 C3594 0.950 . S
H3589 C3595 0.950 . S
H3590 C3596 0.949 . S
C3591 H3586 0.950 . S
C3591 C3593 1.327 . S
C3591 C3597 1.429 . S
C3592 C3584 1.574 . S
C3592 H3587 0.949 . S
C3592 C3598 1.368 . S
C3593 C3577 1.349 . S
C3593 H3585 0.950 . S
C3593 C3591 1.327 . S
C3594 C3582 1.349 . S
C3594 H3588 0.950 . S
C3594 C3595 1.327 . S
C3595 H3589 0.950 . S
C3595 C3594 1.327 . S
C3595 C3599 1.429 . S
C3596 C3579 1.574 . S
C3596 H3590 0.949 . S
C3596 C3600 1.368 . S
C3597 C3578 1.429 . S
C3597 C3591 1.429 . S
C3597 C3598 1.523 . S
C3598 C3579 1.368 . S
C3598 C3592 1.368 . S
C3598 C3597 1.523 . S
C3599 C3583 1.429 . S
C3599 C3595 1.429 . S
C3599 C3600 1.523 . S
C3600 C3584 1.368 . S
C3600 C3596 1.368 . S
C3600 C3599 1.523 . S
H3601 C3576 0.950 . S
H3602 C3578 0.950 . S
H3603 C3579 0.949 . S
H3604 C3581 0.950 . S
H3605 C3583 0.950 . S
C3606 C3607 1.349 . S
C3606 C3608 1.327 . S
C3606 H3631 0.950 . S
C3607 C3606 1.349 . S
C3607 C3623 1.349 . S
C3608 C3606 1.327 . S
C3608 C3627 1.429 . S
C3608 H3632 0.950 . S
C3609 C3626 1.574 . S
C3609 C3628 1.368 . S
C3609 H3633 0.949 . S
H3610 C3614 0.949 . S
C3611 C3612 1.349 . S
C3611 C3613 1.327 . S
C3611 H3634 0.950 . S
C3612 C3611 1.349 . S
C3612 C3624 1.349 . S
C3613 C3611 1.327 . S
C3613 C3629 1.429 . S
C3613 H3635 0.950 . S
C3614 H3610 0.949 . S
C3614 C3622 1.574 . S
C3614 C3630 1.368 . S
H3615 C3623 0.950 . S
H3616 C3621 0.950 . S
H3617 C3622 0.949 . S
H3618 C3624 0.950 . S
H3619 C3625 0.950 . S
H3620 C3626 0.949 . S
C3621 H3616 0.950 . S
C3621 C3623 1.327 . S
C3621 C3627 1.429 . S
C3622 C3614 1.574 . S
C3622 H3617 0.949 . S
C3622 C3628 1.368 . S
C3623 C3607 1.349 . S
C3623 H3615 0.950 . S
C3623 C3621 1.327 . S
C3624 C3612 1.349 . S
C3624 H3618 0.950 . S
C3624 C3625 1.327 . S
C3625 H3619 0.950 . S
C3625 C3624 1.327 . S
C3625 C3629 1.429 . S
C3626 C3609 1.574 . S
C3626 H3620 0.949 . S
C3626 C3630 1.368 . S
C3627 C3608 1.429 . S
C3627 C3621 1.429 . S
C3627 C3628 1.523 . S
C3628 C3609 1.368 . S
C3628 C3622 1.368 . S
C3628 C3627 1.523 . S
C3629 C3613 1.429 . S
C3629 C3625 1.429 . S
C3629 C3630 1.523 . S
C3630 C3614 1.368 . S
C3630 C3626 1.368 . S
C3630 C3629 1.523 . S
H3631 C3606 0.950 . S
H3632 C3608 0.950 . S
H3633 C3609 0.949 . S
H3634 C3611 0.950 . S
H3635 C3613 0.950 . S
C3636 C3637 1.349 . S
C3636 C3638 1.327 . S
C3636 H3661 0.950 . S
C3637 C3636 1.349 . S
C3637 C3653 1.349 . S
C3638 C3636 1.327 . S
C3638 C3657 1.429 . S
C3638 H3662 0.950 . S
C3639 C3656 1.574 . S
C3639 C3658 1.368 . S
C3639 H3663 0.949 . S
H3640 C3644 0.949 . S
C3641 C3642 1.349 . S
C3641 C3643 1.327 . S
C3641 H3664 0.950 . S
C3642 C3641 1.349 . S
C3642 C3654 1.349 . S
C3643 C3641 1.327 . S
C3643 C3659 1.429 . S
C3643 H3665 0.950 . S
C3644 H3640 0.949 . S
C3644 C3652 1.574 . S
C3644 C3660 1.368 . S
H3645 C3653 0.950 . S
H3646 C3651 0.950 . S
H3647 C3652 0.949 . S
H3648 C3654 0.950 . S
H3649 C3655 0.950 . S
H3650 C3656 0.949 . S
C3651 H3646 0.950 . S
C3651 C3653 1.327 . S
C3651 C3657 1.429 . S
C3652 C3644 1.574 . S
C3652 H3647 0.949 . S
C3652 C3658 1.368 . S
C3653 C3637 1.349 . S
C3653 H3645 0.950 . S
C3653 C3651 1.327 . S
C3654 C3642 1.349 . S
C3654 H3648 0.950 . S
C3654 C3655 1.327 . S
C3655 H3649 0.950 . S
C3655 C3654 1.327 . S
C3655 C3659 1.429 . S
C3656 C3639 1.574 . S
C3656 H3650 0.949 . S
C3656 C3660 1.368 . S
C3657 C3638 1.429 . S
C3657 C3651 1.429 . S
C3657 C3658 1.523 . S
C3658 C3639 1.368 . S
C3658 C3652 1.368 . S
C3658 C3657 1.523 . S
C3659 C3643 1.429 . S
C3659 C3655 1.429 . S
C3659 C3660 1.523 . S
C3660 C3644 1.368 . S
C3660 C3656 1.368 . S
C3660 C3659 1.523 . S
H3661 C3636 0.950 . S
H3662 C3638 0.950 . S
H3663 C3639 0.949 . S
H3664 C3641 0.950 . S
H3665 C3643 0.950 . S
C3666 C3667 1.349 . S
C3666 C3668 1.327 . S
C3666 H3691 0.950 . S
C3667 C3666 1.349 . S
C3667 C3683 1.349 . S
C3668 C3666 1.327 . S
C3668 C3687 1.429 . S
C3668 H3692 0.950 . S
C3669 C3686 1.574 . S
C3669 C3688 1.368 . S
C3669 H3693 0.949 . S
H3670 C3674 0.949 . S
C3671 C3672 1.349 . S
C3671 C3673 1.327 . S
C3671 H3694 0.950 . S
C3672 C3671 1.349 . S
C3672 C3684 1.349 . S
C3673 C3671 1.327 . S
C3673 C3689 1.429 . S
C3673 H3695 0.950 . S
C3674 H3670 0.949 . S
C3674 C3682 1.574 . S
C3674 C3690 1.368 . S
H3675 C3683 0.950 . S
H3676 C3681 0.950 . S
H3677 C3682 0.949 . S
H3678 C3684 0.950 . S
H3679 C3685 0.950 . S
H3680 C3686 0.949 . S
C3681 H3676 0.950 . S
C3681 C3683 1.327 . S
C3681 C3687 1.429 . S
C3682 C3674 1.574 . S
C3682 H3677 0.949 . S
C3682 C3688 1.368 . S
C3683 C3667 1.349 . S
C3683 H3675 0.950 . S
C3683 C3681 1.327 . S
C3684 C3672 1.349 . S
C3684 H3678 0.950 . S
C3684 C3685 1.327 . S
C3685 H3679 0.950 . S
C3685 C3684 1.327 . S
C3685 C3689 1.429 . S
C3686 C3669 1.574 . S
C3686 H3680 0.949 . S
C3686 C3690 1.368 . S
C3687 C3668 1.429 . S
C3687 C3681 1.429 . S
C3687 C3688 1.523 . S
C3688 C3669 1.368 . S
C3688 C3682 1.368 . S
C3688 C3687 1.523 . S
C3689 C3673 1.429 . S
C3689 C3685 1.429 . S
C3689 C3690 1.523 . S
C3690 C3674 1.368 . S
C3690 C3686 1.368 . S
C3690 C3689 1.523 . S
H3691 C3666 0.950 . S
H3692 C3668 0.950 . S
H3693 C3669 0.949 . S
H3694 C3671 0.950 . S
H3695 C3673 0.950 . S
C3696 C3697 1.349 . S
C3696 C3698 1.327 . S
C3696 H3721 0.950 . S
C3697 C3696 1.349 . S
C3697 C3713 1.349 . S
C3698 C3696 1.327 . S
C3698 C3717 1.429 . S
C3698 H3722 0.950 . S
C3699 C3716 1.574 . S
C3699 C3718 1.368 . S
C3699 H3723 0.949 . S
H3700 C3704 0.949 . S
C3701 C3702 1.349 . S
C3701 C3703 1.327 . S
C3701 H3724 0.950 . S
C3702 C3701 1.349 . S
C3702 C3714 1.349 . S
C3703 C3701 1.327 . S
C3703 C3719 1.429 . S
C3703 H3725 0.950 . S
C3704 H3700 0.949 . S
C3704 C3712 1.574 . S
C3704 C3720 1.368 . S
H3705 C3713 0.950 . S
H3706 C3711 0.950 . S
H3707 C3712 0.949 . S
H3708 C3714 0.950 . S
H3709 C3715 0.950 . S
H3710 C3716 0.949 . S
C3711 H3706 0.950 . S
C3711 C3713 1.327 . S
C3711 C3717 1.429 . S
C3712 C3704 1.574 . S
C3712 H3707 0.949 . S
C3712 C3718 1.368 . S
C3713 C3697 1.349 . S
C3713 H3705 0.950 . S
C3713 C3711 1.327 . S
C3714 C3702 1.349 . S
C3714 H3708 0.950 . S
C3714 C3715 1.327 . S
C3715 H3709 0.950 . S
C3715 C3714 1.327 . S
C3715 C3719 1.429 . S
C3716 C3699 1.574 . S
C3716 H3710 0.949 . S
C3716 C3720 1.368 . S
C3717 C3698 1.429 . S
C3717 C3711 1.429 . S
C3717 C3718 1.523 . S
C3718 C3699 1.368 . S
C3718 C3712 1.368 . S
C3718 C3717 1.523 . S
C3719 C3703 1.429 . S
C3719 C3715 1.429 . S
C3719 C3720 1.523 . S
C3720 C3704 1.368 . S
C3720 C3716 1.368 . S
C3720 C3719 1.523 . S
H3721 C3696 0.950 . S
H3722 C3698 0.950 . S
H3723 C3699 0.949 . S
H3724 C3701 0.950 . S
H3725 C3703 0.950 . S
C3726 C3727 1.349 . S
C3726 C3728 1.327 . S
C3726 H3751 0.950 . S
C3727 C3726 1.349 . S
C3727 C3743 1.349 . S
C3728 C3726 1.327 . S
C3728 C3747 1.429 . S
C3728 H3752 0.950 . S
C3729 C3746 1.574 . S
C3729 C3748 1.368 . S
C3729 H3753 0.949 . S
H3730 C3734 0.949 . S
C3731 C3732 1.349 . S
C3731 C3733 1.327 . S
C3731 H3754 0.950 . S
C3732 C3731 1.349 . S
C3732 C3744 1.349 . S
C3733 C3731 1.327 . S
C3733 C3749 1.429 . S
C3733 H3755 0.950 . S
C3734 H3730 0.949 . S
C3734 C3742 1.574 . S
C3734 C3750 1.368 . S
H3735 C3743 0.950 . S
H3736 C3741 0.950 . S
H3737 C3742 0.949 . S
H3738 C3744 0.950 . S
H3739 C3745 0.950 . S
H3740 C3746 0.949 . S
C3741 H3736 0.950 . S
C3741 C3743 1.327 . S
C3741 C3747 1.429 . S
C3742 C3734 1.574 . S
C3742 H3737 0.949 . S
C3742 C3748 1.368 . S
C3743 C3727 1.349 . S
C3743 H3735 0.950 . S
C3743 C3741 1.327 . S
C3744 C3732 1.349 . S
C3744 H3738 0.950 . S
C3744 C3745 1.327 . S
C3745 H3739 0.950 . S
C3745 C3744 1.327 . S
C3745 C3749 1.429 . S
C3746 C3729 1.574 . S
C3746 H3740 0.949 . S
C3746 C3750 1.368 . S
C3747 C3728 1.429 . S
C3747 C3741 1.429 . S
C3747 C3748 1.523 . S
C3748 C3729 1.368 . S
C3748 C3742 1.368 . S
C3748 C3747 1.523 . S
C3749 C3733 1.429 . S
C3749 C3745 1.429 . S
C3749 C3750 1.523 . S
C3750 C3734 1.368 . S
C3750 C3746 1.368 . S
C3750 C3749 1.523 . S
H3751 C3726 0.950 . S
H3752 C3728 0.950 . S
H3753 C3729 0.949 . S
H3754 C3731 0.950 . S
H3755 C3733 0.950 . S
C3756 C3757 1.349 . S
C3756 C3758 1.327 . S
C3756 H3781 0.950 . S
C3757 C3756 1.349 . S
C3757 C3773 1.349 . S
C3758 C3756 1.327 . S
C3758 C3777 1.429 . S
C3758 H3782 0.950 . S
C3759 C3776 1.574 . S
C3759 C3778 1.368 . S
C3759 H3783 0.949 . S
H3760 C3764 0.949 . S
C3761 C3762 1.349 . S
C3761 C3763 1.327 . S
C3761 H3784 0.950 . S
C3762 C3761 1.349 . S
C3762 C3774 1.349 . S
C3763 C3761 1.327 . S
C3763 C3779 1.429 . S
C3763 H3785 0.950 . S
C3764 H3760 0.949 . S
C3764 C3772 1.574 . S
C3764 C3780 1.368 . S
H3765 C3773 0.950 . S
H3766 C3771 0.950 . S
H3767 C3772 0.949 . S
H3768 C3774 0.950 . S
H3769 C3775 0.950 . S
H3770 C3776 0.949 . S
C3771 H3766 0.950 . S
C3771 C3773 1.327 . S
C3771 C3777 1.429 . S
C3772 C3764 1.574 . S
C3772 H3767 0.949 . S
C3772 C3778 1.368 . S
C3773 C3757 1.349 . S
C3773 H3765 0.950 . S
C3773 C3771 1.327 . S
C3774 C3762 1.349 . S
C3774 H3768 0.950 . S
C3774 C3775 1.327 . S
C3775 H3769 0.950 . S
C3775 C3774 1.327 . S
C3775 C3779 1.429 . S
C3776 C3759 1.574 . S
C3776 H3770 0.949 . S
C3776 C3780 1.368 . S
C3777 C3758 1.429 . S
C3777 C3771 1.429 . S
C3777 C3778 1.523 . S
C3778 C3759 1.368 . S
C3778 C3772 1.368 . S
C3778 C3777 1.523 . S
C3779 C3763 1.429 . S
C3779 C3775 1.429 . S
C3779 C3780 1.523 . S
C3780 C3764 1.368 . S
C3780 C3776 1.368 . S
C3780 C3779 1.523 . S
H3781 C3756 0.950 . S
H3782 C3758 0.950 . S
H3783 C3759 0.949 . S
H3784 C3761 0.950 . S
H3785 C3763 0.950 . S
C3786 C3787 1.349 . S
C3786 C3788 1.327 . S
C3786 H3811 0.950 . S
C3787 C3786 1.349 . S
C3787 C3803 1.349 . S
C3788 C3786 1.327 . S
C3788 C3807 1.429 . S
C3788 H3812 0.950 . S
C3789 C3806 1.574 . S
C3789 C3808 1.368 . S
C3789 H3813 0.949 . S
H3790 C3794 0.949 . S
C3791 C3792 1.349 . S
C3791 C3793 1.327 . S
C3791 H3814 0.950 . S
C3792 C3791 1.349 . S
C3792 C3804 1.349 . S
C3793 C3791 1.327 . S
C3793 C3809 1.429 . S
C3793 H3815 0.950 . S
C3794 H3790 0.949 . S
C3794 C3802 1.574 . S
C3794 C3810 1.368 . S
H3795 C3803 0.950 . S
H3796 C3801 0.950 . S
H3797 C3802 0.949 . S
H3798 C3804 0.950 . S
H3799 C3805 0.950 . S
H3800 C3806 0.949 . S
C3801 H3796 0.950 . S
C3801 C3803 1.327 . S
C3801 C3807 1.429 . S
C3802 C3794 1.574 . S
C3802 H3797 0.949 . S
C3802 C3808 1.368 . S
C3803 C3787 1.349 . S
C3803 H3795 0.950 . S
C3803 C3801 1.327 . S
C3804 C3792 1.349 . S
C3804 H3798 0.950 . S
C3804 C3805 1.327 . S
C3805 H3799 0.950 . S
C3805 C3804 1.327 . S
C3805 C3809 1.429 . S
C3806 C3789 1.574 . S
C3806 H3800 0.949 . S
C3806 C3810 1.368 . S
C3807 C3788 1.429 . S
C3807 C3801 1.429 . S
C3807 C3808 1.523 . S
C3808 C3789 1.368 . S
C3808 C3802 1.368 . S
C3808 C3807 1.523 . S
C3809 C3793 1.429 . S
C3809 C3805 1.429 . S
C3809 C3810 1.523 . S
C3810 C3794 1.368 . S
C3810 C3806 1.368 . S
C3810 C3809 1.523 . S
H3811 C3786 0.950 . S
H3812 C3788 0.950 . S
H3813 C3789 0.949 . S
H3814 C3791 0.950 . S
H3815 C3793 0.950 . S
C3816 C3817 1.349 . S
C3816 C3818 1.327 . S
C3816 H3841 0.950 . S
C3817 C3816 1.349 . S
C3817 C3833 1.349 . S
C3818 C3816 1.327 . S
C3818 C3837 1.429 . S
C3818 H3842 0.950 . S
C3819 C3836 1.574 . S
C3819 C3838 1.368 . S
C3819 H3843 0.949 . S
H3820 C3824 0.949 . S
C3821 C3822 1.349 . S
C3821 C3823 1.327 . S
C3821 H3844 0.950 . S
C3822 C3821 1.349 . S
C3822 C3834 1.349 . S
C3823 C3821 1.327 . S
C3823 C3839 1.429 . S
C3823 H3845 0.950 . S
C3824 H3820 0.949 . S
C3824 C3832 1.574 . S
C3824 C3840 1.368 . S
H3825 C3833 0.950 . S
H3826 C3831 0.950 . S
H3827 C3832 0.949 . S
H3828 C3834 0.950 . S
H3829 C3835 0.950 . S
H3830 C3836 0.949 . S
C3831 H3826 0.950 . S
C3831 C3833 1.327 . S
C3831 C3837 1.429 . S
C3832 C3824 1.574 . S
C3832 H3827 0.949 . S
C3832 C3838 1.368 . S
C3833 C3817 1.349 . S
C3833 H3825 0.950 . S
C3833 C3831 1.327 . S
C3834 C3822 1.349 . S
C3834 H3828 0.950 . S
C3834 C3835 1.327 . S
C3835 H3829 0.950 . S
C3835 C3834 1.327 . S
C3835 C3839 1.429 . S
C3836 C3819 1.574 . S
C3836 H3830 0.949 . S
C3836 C3840 1.368 . S
C3837 C3818 1.429 . S
C3837 C3831 1.429 . S
C3837 C3838 1.523 . S
C3838 C3819 1.368 . S
C3838 C3832 1.368 . S
C3838 C3837 1.523 . S
C3839 C3823 1.429 . S
C3839 C3835 1.429 . S
C3839 C3840 1.523 . S
C3840 C3824 1.368 . S
C3840 C3836 1.368 . S
C3840 C3839 1.523 . S
H3841 C3816 0.950 . S
H3842 C3818 0.950 . S
H3843 C3819 0.949 . S
H3844 C3821 0.950 . S
H3845 C3823 0.950 . S
C3846 C3847 1.349 . S
C3846 C3848 1.327 . S
C3846 H3871 0.950 . S
C3847 C3846 1.349 . S
C3847 C3863 1.349 . S
C3848 C3846 1.327 . S
C3848 C3867 1.429 . S
C3848 H3872 0.950 . S
C3849 C3866 1.574 . S
C3849 C3868 1.368 . S
C3849 H3873 0.949 . S
H3850 C3854 0.949 . S
C3851 C3852 1.349 . S
C3851 C3853 1.327 . S
C3851 H3874 0.950 . S
C3852 C3851 1.349 . S
C3852 C3864 1.349 . S
C3853 C3851 1.327 . S
C3853 C3869 1.429 . S
C3853 H3875 0.950 . S
C3854 H3850 0.949 . S
C3854 C3862 1.574 . S
C3854 C3870 1.368 . S
H3855 C3863 0.950 . S
H3856 C3861 0.950 . S
H3857 C3862 0.949 . S
H3858 C3864 0.950 . S
H3859 C3865 0.950 . S
H3860 C3866 0.949 . S
C3861 H3856 0.950 . S
C3861 C3863 1.327 . S
C3861 C3867 1.429 . S
C3862 C3854 1.574 . S
C3862 H3857 0.949 . S
C3862 C3868 1.368 . S
C3863 C3847 1.349 . S
C3863 H3855 0.950 . S
C3863 C3861 1.327 . S
C3864 C3852 1.349 . S
C3864 H3858 0.950 . S
C3864 C3865 1.327 . S
C3865 H3859 0.950 . S
C3865 C3864 1.327 . S
C3865 C3869 1.429 . S
C3866 C3849 1.574 . S
C3866 H3860 0.949 . S
C3866 C3870 1.368 . S
C3867 C3848 1.429 . S
C3867 C3861 1.429 . S
C3867 C3868 1.523 . S
C3868 C3849 1.368 . S
C3868 C3862 1.368 . S
C3868 C3867 1.523 . S
C3869 C3853 1.429 . S
C3869 C3865 1.429 . S
C3869 C3870 1.523 . S
C3870 C3854 1.368 . S
C3870 C3866 1.368 . S
C3870 C3869 1.523 . S
H3871 C3846 0.950 . S
H3872 C3848 0.950 . S
H3873 C3849 0.949 . S
H3874 C3851 0.950 . S
H3875 C3853 0.950 . S
C3876 C3877 1.349 . S
C3876 C3878 1.327 . S
C3876 H3901 0.950 . S
C3877 C3876 1.349 . S
C3877 C3893 1.349 . S
C3878 C3876 1.327 . S
C3878 C3897 1.429 . S
C3878 H3902 0.950 . S
C3879 C3896 1.574 . S
C3879 C3898 1.368 . S
C3879 H3903 0.949 . S
H3880 C3884 0.949 . S
C3881 C3882 1.349 . S
C3881 C3883 1.327 . S
C3881 H3904 0.950 . S
C3882 C3881 1.349 . S
C3882 C3894 1.349 . S
C3883 C3881 1.327 . S
C3883 C3899 1.429 . S
C3883 H3905 0.950 . S
C3884 H3880 0.949 . S
C3884 C3892 1.574 . S
C3884 C3900 1.368 . S
H3885 C3893 0.950 . S
H3886 C3891 0.950 . S
H3887 C3892 0.949 . S
H3888 C3894 0.950 . S
H3889 C3895 0.950 . S
H3890 C3896 0.949 . S
C3891 H3886 0.950 . S
C3891 C3893 1.327 . S
C3891 C3897 1.429 . S
C3892 C3884 1.574 . S
C3892 H3887 0.949 . S
C3892 C3898 1.368 . S
C3893 C3877 1.349 . S
C3893 H3885 0.950 . S
C3893 C3891 1.327 . S
C3894 C3882 1.349 . S
C3894 H3888 0.950 . S
C3894 C3895 1.327 . S
C3895 H3889 0.950 . S
C3895 C3894 1.327 . S
C3895 C3899 1.429 . S
C3896 C3879 1.574 . S
C3896 H3890 0.949 . S
C3896 C3900 1.368 . S
C3897 C3878 1.429 . S
C3897 C3891 1.429 . S
C3897 C3898 1.523 . S
C3898 C3879 1.368 . S
C3898 C3892 1.368 . S
C3898 C3897 1.523 . S
C3899 C3883 1.429 . S
C3899 C3895 1.429 . S
C3899 C3900 1.523 . S
C3900 C3884 1.368 . S
C3900 C3896 1.368 . S
C3900 C3899 1.523 . S
H3901 C3876 0.950 . S
H3902 C3878 0.950 . S
H3903 C3879 0.949 . S
H3904 C3881 0.950 . S
H3905 C3883 0.950 . S
C3906 C3907 1.349 . S
C3906 C3908 1.327 . S
C3906 H3931 0.950 . S
C3907 C3906 1.349 . S
C3907 C3923 1.349 . S
C3908 C3906 1.327 . S
C3908 C3927 1.429 . S
C3908 H3932 0.950 . S
C3909 C3926 1.574 . S
C3909 C3928 1.368 . S
C3909 H3933 0.949 . S
H3910 C3914 0.949 . S
C3911 C3912 1.349 . S
C3911 C3913 1.327 . S
C3911 H3934 0.950 . S
C3912 C3911 1.349 . S
C3912 C3924 1.349 . S
C3913 C3911 1.327 . S
C3913 C3929 1.429 . S
C3913 H3935 0.950 . S
C3914 H3910 0.949 . S
C3914 C3922 1.574 . S
C3914 C3930 1.368 . S
H3915 C3923 0.950 . S
H3916 C3921 0.950 . S
H3917 C3922 0.949 . S
H3918 C3924 0.950 . S
H3919 C3925 0.950 . S
H3920 C3926 0.949 . S
C3921 H3916 0.950 . S
C3921 C3923 1.327 . S
C3921 C3927 1.429 . S
C3922 C3914 1.574 . S
C3922 H3917 0.949 . S
C3922 C3928 1.368 . S
C3923 C3907 1.349 . S
C3923 H3915 0.950 . S
C3923 C3921 1.327 . S
C3924 C3912 1.349 . S
C3924 H3918 0.950 . S
C3924 C3925 1.327 . S
C3925 H3919 0.950 . S
C3925 C3924 1.327 . S
C3925 C3929 1.429 . S
C3926 C3909 1.574 . S
C3926 H3920 0.949 . S
C3926 C3930 1.368 . S
C3927 C3908 1.429 . S
C3927 C3921 1.429 . S
C3927 C3928 1.523 . S
C3928 C3909 1.368 . S
C3928 C3922 1.368 . S
C3928 C3927 1.523 . S
C3929 C3913 1.429 . S
C3929 C3925 1.429 . S
C3929 C3930 1.523 . S
C3930 C3914 1.368 . S
C3930 C3926 1.368 . S
C3930 C3929 1.523 . S
H3931 C3906 0.950 . S
H3932 C3908 0.950 . S
H3933 C3909 0.949 . S
H3934 C3911 0.950 . S
H3935 C3913 0.950 . S
C3936 C3937 1.349 . S
C3936 C3938 1.327 . S
C3936 H3961 0.950 . S
C3937 C3936 1.349 . S
C3937 C3953 1.349 . S
C3938 C3936 1.327 . S
C3938 C3957 1.429 . S
C3938 H3962 0.950 . S
C3939 C3956 1.574 . S
C3939 C3958 1.368 . S
C3939 H3963 0.949 . S
H3940 C3944 0.949 . S
C3941 C3942 1.349 . S
C3941 C3943 1.327 . S
C3941 H3964 0.950 . S
C3942 C3941 1.349 . S
C3942 C3954 1.349 . S
C3943 C3941 1.327 . S
C3943 C3959 1.429 . S
C3943 H3965 0.950 . S
C3944 H3940 0.949 . S
C3944 C3952 1.574 . S
C3944 C3960 1.368 . S
H3945 C3953 0.950 . S
H3946 C3951 0.950 . S
H3947 C3952 0.949 . S
H3948 C3954 0.950 . S
H3949 C3955 0.950 . S
H3950 C3956 0.949 . S
C3951 H3946 0.950 . S
C3951 C3953 1.327 . S
C3951 C3957 1.429 . S
C3952 C3944 1.574 . S
C3952 H3947 0.949 . S
C3952 C3958 1.368 . S
C3953 C3937 1.349 . S
C3953 H3945 0.950 . S
C3953 C3951 1.327 . S
C3954 C3942 1.349 . S
C3954 H3948 0.950 . S
C3954 C3955 1.327 . S
C3955 H3949 0.950 . S
C3955 C3954 1.327 . S
C3955 C3959 1.429 . S
C3956 C3939 1.574 . S
C3956 H3950 0.949 . S
C3956 C3960 1.368 . S
C3957 C3938 1.429 . S
C3957 C3951 1.429 . S
C3957 C3958 1.523 . S
C3958 C3939 1.368 . S
C3958 C3952 1.368 . S
C3958 C3957 1.523 . S
C3959 C3943 1.429 . S
C3959 C3955 1.429 . S
C3959 C3960 1.523 . S
C3960 C3944 1.368 . S
C3960 C3956 1.368 . S
C3960 C3959 1.523 . S
H3961 C3936 0.950 . S
H3962 C3938 0.950 . S
H3963 C3939 0.949 . S
H3964 C3941 0.950 . S
H3965 C3943 0.950 . S
C3966 C3967 1.349 . S
C3966 C3968 1.327 . S
C3966 H3991 0.950 . S
C3967 C3966 1.349 . S
C3967 C3983 1.349 . S
C3968 C3966 1.327 . S
C3968 C3987 1.429 . S
C3968 H3992 0.950 . S
C3969 C3986 1.574 . S
C3969 C3988 1.368 . S
C3969 H3993 0.949 . S
H3970 C3974 0.949 . S
C3971 C3972 1.349 . S
C3971 C3973 1.327 . S
C3971 H3994 0.950 . S
C3972 C3971 1.349 . S
C3972 C3984 1.349 . S
C3973 C3971 1.327 . S
C3973 C3989 1.429 . S
C3973 H3995 0.950 . S
C3974 H3970 0.949 . S
C3974 C3982 1.574 . S
C3974 C3990 1.368 . S
H3975 C3983 0.950 . S
H3976 C3981 0.950 . S
H3977 C3982 0.949 . S
H3978 C3984 0.950 . S
H3979 C3985 0.950 . S
H3980 C3986 0.949 . S
C3981 H3976 0.950 . S
C3981 C3983 1.327 . S
C3981 C3987 1.429 . S
C3982 C3974 1.574 . S
C3982 H3977 0.949 . S
C3982 C3988 1.368 . S
C3983 C3967 1.349 . S
C3983 H3975 0.950 . S
C3983 C3981 1.327 . S
C3984 C3972 1.349 . S
C3984 H3978 0.950 . S
C3984 C3985 1.327 . S
C3985 H3979 0.950 . S
C3985 C3984 1.327 . S
C3985 C3989 1.429 . S
C3986 C3969 1.574 . S
C3986 H3980 0.949 . S
C3986 C3990 1.368 . S
C3987 C3968 1.429 . S
C3987 C3981 1.429 . S
C3987 C3988 1.523 . S
C3988 C3969 1.368 . S
C3988 C3982 1.368 . S
C3988 C3987 1.523 . S
C3989 C3973 1.429 . S
C3989 C3985 1.429 . S
C3989 C3990 1.523 . S
C3990 C3974 1.368 . S
C3990 C3986 1.368 . S
C3990 C3989 1.523 . S
H3991 C3966 0.950 . S
H3992 C3968 0.950 . S
H3993 C3969 0.949 . S
H3994 C3971 0.950 . S
H3995 C3973 0.950 . S
C3996 C3997 1.349 . S
C3996 C3998 1.327 . S
C3996 H4021 0.950 . S
C3997 C3996 1.349 . S
C3997 C4013 1.349 . S
C3998 C3996 1.327 . S
C3998 C4017 1.429 . S
C3998 H4022 0.950 . S
C3999 C4016 1.574 . S
C3999 C4018 1.368 . S
C3999 H4023 0.949 . S
H4000 C4004 0.949 . S
C4001 C4002 1.349 . S
C4001 C4003 1.327 . S
C4001 H4024 0.950 . S
C4002 C4001 1.349 . S
C4002 C4014 1.349 . S
C4003 C4001 1.327 . S
C4003 C4019 1.429 . S
C4003 H4025 0.950 . S
C4004 H4000 0.949 . S
C4004 C4012 1.574 . S
C4004 C4020 1.368 . S
H4005 C4013 0.950 . S
H4006 C4011 0.950 . S
H4007 C4012 0.949 . S
H4008 C4014 0.950 . S
H4009 C4015 0.950 . S
H4010 C4016 0.949 . S
C4011 H4006 0.950 . S
C4011 C4013 1.327 . S
C4011 C4017 1.429 . S
C4012 C4004 1.574 . S
C4012 H4007 0.949 . S
C4012 C4018 1.368 . S
C4013 C3997 1.349 . S
C4013 H4005 0.950 . S
C4013 C4011 1.327 . S
C4014 C4002 1.349 . S
C4014 H4008 0.950 . S
C4014 C4015 1.327 . S
C4015 H4009 0.950 . S
C4015 C4014 1.327 . S
C4015 C4019 1.429 . S
C4016 C3999 1.574 . S
C4016 H4010 0.949 . S
C4016 C4020 1.368 . S
C4017 C3998 1.429 . S
C4017 C4011 1.429 . S
C4017 C4018 1.523 . S
C4018 C3999 1.368 . S
C4018 C4012 1.368 . S
C4018 C4017 1.523 . S
C4019 C4003 1.429 . S
C4019 C4015 1.429 . S
C4019 C4020 1.523 . S
C4020 C4004 1.368 . S
C4020 C4016 1.368 . S
C4020 C4019 1.523 . S
H4021 C3996 0.950 . S
H4022 C3998 0.950 . S
H4023 C3999 0.949 . S
H4024 C4001 0.950 . S
H4025 C4003 0.950 . S
C4026 C4027 1.349 . S
C4026 C4028 1.327 . S
C4026 H4051 0.950 . S
C4027 C4026 1.349 . S
C4027 C4043 1.349 . S
C4028 C4026 1.327 . S
C4028 C4047 1.429 . S
C4028 H4052 0.950 . S
C4029 C4046 1.574 . S
C4029 C4048 1.368 . S
C4029 H4053 0.949 . S
H4030 C4034 0.949 . S
C4031 C4032 1.349 . S
C4031 C4033 1.327 . S
C4031 H4054 0.950 . S
C4032 C4031 1.349 . S
C4032 C4044 1.349 . S
C4033 C4031 1.327 . S
C4033 C4049 1.429 . S
C4033 H4055 0.950 . S
C4034 H4030 0.949 . S
C4034 C4042 1.574 . S
C4034 C4050 1.368 . S
H4035 C4043 0.950 . S
H4036 C4041 0.950 . S
H4037 C4042 0.949 . S
H4038 C4044 0.950 . S
H4039 C4045 0.950 . S
H4040 C4046 0.949 . S
C4041 H4036 0.950 . S
C4041 C4043 1.327 . S
C4041 C4047 1.429 . S
C4042 C4034 1.574 . S
C4042 H4037 0.949 . S
C4042 C4048 1.368 . S
C4043 C4027 1.349 . S
C4043 H4035 0.950 . S
C4043 C4041 1.327 . S
C4044 C4032 1.349 . S
C4044 H4038 0.950 . S
C4044 C4045 1.327 . S
C4045 H4039 0.950 . S
C4045 C4044 1.327 . S
C4045 C4049 1.429 . S
C4046 C4029 1.574 . S
C4046 H4040 0.949 . S
C4046 C4050 1.368 . S
C4047 C4028 1.429 . S
C4047 C4041 1.429 . S
C4047 C4048 1.523 . S
C4048 C4029 1.368 . S
C4048 C4042 1.368 . S
C4048 C4047 1.523 . S
C4049 C4033 1.429 . S
C4049 C4045 1.429 . S
C4049 C4050 1.523 . S
C4050 C4034 1.368 . S
C4050 C4046 1.368 . S
C4050 C4049 1.523 . S
H4051 C4026 0.950 . S
H4052 C4028 0.950 . S
H4053 C4029 0.949 . S
H4054 C4031 0.950 . S
H4055 C4033 0.950 . S
C4056 C4057 1.349 . S
C4056 C4058 1.327 . S
C4056 H4081 0.950 . S
C4057 C4056 1.349 . S
C4057 C4073 1.349 . S
C4058 C4056 1.327 . S
C4058 C4077 1.429 . S
C4058 H4082 0.950 . S
C4059 C4076 1.574 . S
C4059 C4078 1.368 . S
C4059 H4083 0.949 . S
H4060 C4064 0.949 . S
C4061 C4062 1.349 . S
C4061 C4063 1.327 . S
C4061 H4084 0.950 . S
C4062 C4061 1.349 . S
C4062 C4074 1.349 . S
C4063 C4061 1.327 . S
C4063 C4079 1.429 . S
C4063 H4085 0.950 . S
C4064 H4060 0.949 . S
C4064 C4072 1.574 . S
C4064 C4080 1.368 . S
H4065 C4073 0.950 . S
H4066 C4071 0.950 . S
H4067 C4072 0.949 . S
H4068 C4074 0.950 . S
H4069 C4075 0.950 . S
H4070 C4076 0.949 . S
C4071 H4066 0.950 . S
C4071 C4073 1.327 . S
C4071 C4077 1.429 . S
C4072 C4064 1.574 . S
C4072 H4067 0.949 . S
C4072 C4078 1.368 . S
C4073 C4057 1.349 . S
C4073 H4065 0.950 . S
C4073 C4071 1.327 . S
C4074 C4062 1.349 . S
C4074 H4068 0.950 . S
C4074 C4075 1.327 . S
C4075 H4069 0.950 . S
C4075 C4074 1.327 . S
C4075 C4079 1.429 . S
C4076 C4059 1.574 . S
C4076 H4070 0.949 . S
C4076 C4080 1.368 . S
C4077 C4058 1.429 . S
C4077 C4071 1.429 . S
C4077 C4078 1.523 . S
C4078 C4059 1.368 . S
C4078 C4072 1.368 . S
C4078 C4077 1.523 . S
C4079 C4063 1.429 . S
C4079 C4075 1.429 . S
C4079 C4080 1.523 . S
C4080 C4064 1.368 . S
C4080 C4076 1.368 . S
C4080 C4079 1.523 . S
H4081 C4056 0.950 . S
H4082 C4058 0.950 . S
H4083 C4059 0.949 . S
H4084 C4061 0.950 . S
H4085 C4063 0.950 . S
C4086 C4087 1.349 . S
C4086 C4088 1.327 . S
C4086 H4111 0.950 . S
C4087 C4086 1.349 . S
C4087 C4103 1.349 . S
C4088 C4086 1.327 . S
C4088 C4107 1.429 . S
C4088 H4112 0.950 . S
C4089 C4106 1.574 . S
C4089 C4108 1.368 . S
C4089 H4113 0.949 . S
H4090 C4094 0.949 . S
C4091 C4092 1.349 . S
C4091 C4093 1.327 . S
C4091 H4114 0.950 . S
C4092 C4091 1.349 . S
C4092 C4104 1.349 . S
C4093 C4091 1.327 . S
C4093 C4109 1.429 . S
C4093 H4115 0.950 . S
C4094 H4090 0.949 . S
C4094 C4102 1.574 . S
C4094 C4110 1.368 . S
H4095 C4103 0.950 . S
H4096 C4101 0.950 . S
H4097 C4102 0.949 . S
H4098 C4104 0.950 . S
H4099 C4105 0.950 . S
H4100 C4106 0.949 . S
C4101 H4096 0.950 . S
C4101 C4103 1.327 . S
C4101 C4107 1.429 . S
C4102 C4094 1.574 . S
C4102 H4097 0.949 . S
C4102 C4108 1.368 . S
C4103 C4087 1.349 . S
C4103 H4095 0.950 . S
C4103 C4101 1.327 . S
C4104 C4092 1.349 . S
C4104 H4098 0.950 . S
C4104 C4105 1.327 . S
C4105 H4099 0.950 . S
C4105 C4104 1.327 . S
C4105 C4109 1.429 . S
C4106 C4089 1.574 . S
C4106 H4100 0.949 . S
C4106 C4110 1.368 . S
C4107 C4088 1.429 . S
C4107 C4101 1.429 . S
C4107 C4108 1.523 . S
C4108 C4089 1.368 . S
C4108 C4102 1.368 . S
C4108 C4107 1.523 . S
C4109 C4093 1.429 . S
C4109 C4105 1.429 . S
C4109 C4110 1.523 . S
C4110 C4094 1.368 . S
C4110 C4106 1.368 . S
C4110 C4109 1.523 . S
H4111 C4086 0.950 . S
H4112 C4088 0.950 . S
H4113 C4089 0.949 . S
H4114 C4091 0.950 . S
H4115 C4093 0.950 . S
C4116 C4117 1.349 . S
C4116 C4118 1.327 . S
C4116 H4141 0.950 . S
C4117 C4116 1.349 . S
C4117 C4133 1.349 . S
C4118 C4116 1.327 . S
C4118 C4137 1.429 . S
C4118 H4142 0.950 . S
C4119 C4136 1.574 . S
C4119 C4138 1.368 . S
C4119 H4143 0.949 . S
H4120 C4124 0.949 . S
C4121 C4122 1.349 . S
C4121 C4123 1.327 . S
C4121 H4144 0.950 . S
C4122 C4121 1.349 . S
C4122 C4134 1.349 . S
C4123 C4121 1.327 . S
C4123 C4139 1.429 . S
C4123 H4145 0.950 . S
C4124 H4120 0.949 . S
C4124 C4132 1.574 . S
C4124 C4140 1.368 . S
H4125 C4133 0.950 . S
H4126 C4131 0.950 . S
H4127 C4132 0.949 . S
H4128 C4134 0.950 . S
H4129 C4135 0.950 . S
H4130 C4136 0.949 . S
C4131 H4126 0.950 . S
C4131 C4133 1.327 . S
C4131 C4137 1.429 . S
C4132 C4124 1.574 . S
C4132 H4127 0.949 . S
C4132 C4138 1.368 . S
C4133 C4117 1.349 . S
C4133 H4125 0.950 . S
C4133 C4131 1.327 . S
C4134 C4122 1.349 . S
C4134 H4128 0.950 . S
C4134 C4135 1.327 . S
C4135 H4129 0.950 . S
C4135 C4134 1.327 . S
C4135 C4139 1.429 . S
C4136 C4119 1.574 . S
C4136 H4130 0.949 . S
C4136 C4140 1.368 . S
C4137 C4118 1.429 . S
C4137 C4131 1.429 . S
C4137 C4138 1.523 . S
C4138 C4119 1.368 . S
C4138 C4132 1.368 . S
C4138 C4137 1.523 . S
C4139 C4123 1.429 . S
C4139 C4135 1.429 . S
C4139 C4140 1.523 . S
C4140 C4124 1.368 . S
C4140 C4136 1.368 . S
C4140 C4139 1.523 . S
H4141 C4116 0.950 . S
H4142 C4118 0.950 . S
H4143 C4119 0.949 . S
H4144 C4121 0.950 . S
H4145 C4123 0.950 . S
C4146 C4147 1.349 . S
C4146 C4148 1.327 . S
C4146 H4171 0.950 . S
C4147 C4146 1.349 . S
C4147 C4163 1.349 . S
C4148 C4146 1.327 . S
C4148 C4167 1.429 . S
C4148 H4172 0.950 . S
C4149 C4166 1.574 . S
C4149 C4168 1.368 . S
C4149 H4173 0.949 . S
H4150 C4154 0.949 . S
C4151 C4152 1.349 . S
C4151 C4153 1.327 . S
C4151 H4174 0.950 . S
C4152 C4151 1.349 . S
C4152 C4164 1.349 . S
C4153 C4151 1.327 . S
C4153 C4169 1.429 . S
C4153 H4175 0.950 . S
C4154 H4150 0.949 . S
C4154 C4162 1.574 . S
C4154 C4170 1.368 . S
H4155 C4163 0.950 . S
H4156 C4161 0.950 . S
H4157 C4162 0.949 . S
H4158 C4164 0.950 . S
H4159 C4165 0.950 . S
H4160 C4166 0.949 . S
C4161 H4156 0.950 . S
C4161 C4163 1.327 . S
C4161 C4167 1.429 . S
C4162 C4154 1.574 . S
C4162 H4157 0.949 . S
C4162 C4168 1.368 . S
C4163 C4147 1.349 . S
C4163 H4155 0.950 . S
C4163 C4161 1.327 . S
C4164 C4152 1.349 . S
C4164 H4158 0.950 . S
C4164 C4165 1.327 . S
C4165 H4159 0.950 . S
C4165 C4164 1.327 . S
C4165 C4169 1.429 . S
C4166 C4149 1.574 . S
C4166 H4160 0.949 . S
C4166 C4170 1.368 . S
C4167 C4148 1.429 . S
C4167 C4161 1.429 . S
C4167 C4168 1.523 . S
C4168 C4149 1.368 . S
C4168 C4162 1.368 . S
C4168 C4167 1.523 . S
C4169 C4153 1.429 . S
C4169 C4165 1.429 . S
C4169 C4170 1.523 . S
C4170 C4154 1.368 . S
C4170 C4166 1.368 . S
C4170 C4169 1.523 . S
H4171 C4146 0.950 . S
H4172 C4148 0.950 . S
H4173 C4149 0.949 . S
H4174 C4151 0.950 . S
H4175 C4153 0.950 . S
C4176 C4177 1.349 . S
C4176 C4178 1.327 . S
C4176 H4201 0.950 . S
C4177 C4176 1.349 . S
C4177 C4193 1.349 . S
C4178 C4176 1.327 . S
C4178 C4197 1.429 . S
C4178 H4202 0.950 . S
C4179 C4196 1.574 . S
C4179 C4198 1.368 . S
C4179 H4203 0.949 . S
H4180 C4184 0.949 . S
C4181 C4182 1.349 . S
C4181 C4183 1.327 . S
C4181 H4204 0.950 . S
C4182 C4181 1.349 . S
C4182 C4194 1.349 . S
C4183 C4181 1.327 . S
C4183 C4199 1.429 . S
C4183 H4205 0.950 . S
C4184 H4180 0.949 . S
C4184 C4192 1.574 . S
C4184 C4200 1.368 . S
H4185 C4193 0.950 . S
H4186 C4191 0.950 . S
H4187 C4192 0.949 . S
H4188 C4194 0.950 . S
H4189 C4195 0.950 . S
H4190 C4196 0.949 . S
C4191 H4186 0.950 . S
C4191 C4193 1.327 . S
C4191 C4197 1.429 . S
C4192 C4184 1.574 . S
C4192 H4187 0.949 . S
C4192 C4198 1.368 . S
C4193 C4177 1.349 . S
C4193 H4185 0.950 . S
C4193 C4191 1.327 . S
C4194 C4182 1.349 . S
C4194 H4188 0.950 . S
C4194 C4195 1.327 . S
C4195 H4189 0.950 . S
C4195 C4194 1.327 . S
C4195 C4199 1.429 . S
C4196 C4179 1.574 . S
C4196 H4190 0.949 . S
C4196 C4200 1.368 . S
C4197 C4178 1.429 . S
C4197 C4191 1.429 . S
C4197 C4198 1.523 . S
C4198 C4179 1.368 . S
C4198 C4192 1.368 . S
C4198 C4197 1.523 . S
C4199 C4183 1.429 . S
C4199 C4195 1.429 . S
C4199 C4200 1.523 . S
C4200 C4184 1.368 . S
C4200 C4196 1.368 . S
C4200 C4199 1.523 . S
H4201 C4176 0.950 . S
H4202 C4178 0.950 . S
H4203 C4179 0.949 . S
H4204 C4181 0.950 . S
H4205 C4183 0.950 . S
C4206 C4207 1.349 . S
C4206 C4208 1.327 . S
C4206 H4231 0.950 . S
C4207 C4206 1.349 . S
C4207 C4223 1.349 . S
C4208 C4206 1.327 . S
C4208 C4227 1.429 . S
C4208 H4232 0.950 . S
C4209 C4226 1.574 . S
C4209 C4228 1.368 . S
C4209 H4233 0.949 . S
H4210 C4214 0.949 . S
C4211 C4212 1.349 . S
C4211 C4213 1.327 . S
C4211 H4234 0.950 . S
C4212 C4211 1.349 . S
C4212 C4224 1.349 . S
C4213 C4211 1.327 . S
C4213 C4229 1.429 . S
C4213 H4235 0.950 . S
C4214 H4210 0.949 . S
C4214 C4222 1.574 . S
C4214 C4230 1.368 . S
H4215 C4223 0.950 . S
H4216 C4221 0.950 . S
H4217 C4222 0.949 . S
H4218 C4224 0.950 . S
H4219 C4225 0.950 . S
H4220 C4226 0.949 . S
C4221 H4216 0.950 . S
C4221 C4223 1.327 . S
C4221 C4227 1.429 . S
C4222 C4214 1.574 . S
C4222 H4217 0.949 . S
C4222 C4228 1.368 . S
C4223 C4207 1.349 . S
C4223 H4215 0.950 . S
C4223 C4221 1.327 . S
C4224 C4212 1.349 . S
C4224 H4218 0.950 . S
C4224 C4225 1.327 . S
C4225 H4219 0.950 . S
C4225 C4224 1.327 . S
C4225 C4229 1.429 . S
C4226 C4209 1.574 . S
C4226 H4220 0.949 . S
C4226 C4230 1.368 . S
C4227 C4208 1.429 . S
C4227 C4221 1.429 . S
C4227 C4228 1.523 . S
C4228 C4209 1.368 . S
C4228 C4222 1.368 . S
C4228 C4227 1.523 . S
C4229 C4213 1.429 . S
C4229 C4225 1.429 . S
C4229 C4230 1.523 . S
C4230 C4214 1.368 . S
C4230 C4226 1.368 . S
C4230 C4229 1.523 . S
H4231 C4206 0.950 . S
H4232 C4208 0.950 . S
H4233 C4209 0.949 . S
H4234 C4211 0.950 . S
H4235 C4213 0.950 . S
C4236 C4237 1.349 . S
C4236 C4238 1.327 . S
C4236 H4261 0.950 . S
C4237 C4236 1.349 . S
C4237 C4253 1.349 . S
C4238 C4236 1.327 . S
C4238 C4257 1.429 . S
C4238 H4262 0.950 . S
C4239 C4256 1.574 . S
C4239 C4258 1.368 . S
C4239 H4263 0.949 . S
H4240 C4244 0.949 . S
C4241 C4242 1.349 . S
C4241 C4243 1.327 . S
C4241 H4264 0.950 . S
C4242 C4241 1.349 . S
C4242 C4254 1.349 . S
C4243 C4241 1.327 . S
C4243 C4259 1.429 . S
C4243 H4265 0.950 . S
C4244 H4240 0.949 . S
C4244 C4252 1.574 . S
C4244 C4260 1.368 . S
H4245 C4253 0.950 . S
H4246 C4251 0.950 . S
H4247 C4252 0.949 . S
H4248 C4254 0.950 . S
H4249 C4255 0.950 . S
H4250 C4256 0.949 . S
C4251 H4246 0.950 . S
C4251 C4253 1.327 . S
C4251 C4257 1.429 . S
C4252 C4244 1.574 . S
C4252 H4247 0.949 . S
C4252 C4258 1.368 . S
C4253 C4237 1.349 . S
C4253 H4245 0.950 . S
C4253 C4251 1.327 . S
C4254 C4242 1.349 . S
C4254 H4248 0.950 . S
C4254 C4255 1.327 . S
C4255 H4249 0.950 . S
C4255 C4254 1.327 . S
C4255 C4259 1.429 . S
C4256 C4239 1.574 . S
C4256 H4250 0.949 . S
C4256 C4260 1.368 . S
C4257 C4238 1.429 . S
C4257 C4251 1.429 . S
C4257 C4258 1.523 . S
C4258 C4239 1.368 . S
C4258 C4252 1.368 . S
C4258 C4257 1.523 . S
C4259 C4243 1.429 . S
C4259 C4255 1.429 . S
C4259 C4260 1.523 . S
C4260 C4244 1.368 . S
C4260 C4256 1.368 . S
C4260 C4259 1.523 . S
H4261 C4236 0.950 . S
H4262 C4238 0.950 . S
H4263 C4239 0.949 . S
H4264 C4241 0.950 . S
H4265 C4243 0.950 . S
C4266 C4267 1.349 . S
C4266 C4268 1.327 . S
C4266 H4291 0.950 . S
C4267 C4266 1.349 . S
C4267 C4283 1.349 . S
C4268 C4266 1.327 . S
C4268 C4287 1.429 . S
C4268 H4292 0.950 . S
C4269 C4286 1.574 . S
C4269 C4288 1.368 . S
C4269 H4293 0.949 . S
H4270 C4274 0.949 . S
C4271 C4272 1.349 . S
C4271 C4273 1.327 . S
C4271 H4294 0.950 . S
C4272 C4271 1.349 . S
C4272 C4284 1.349 . S
C4273 C4271 1.327 . S
C4273 C4289 1.429 . S
C4273 H4295 0.950 . S
C4274 H4270 0.949 . S
C4274 C4282 1.574 . S
C4274 C4290 1.368 . S
H4275 C4283 0.950 . S
H4276 C4281 0.950 . S
H4277 C4282 0.949 . S
H4278 C4284 0.950 . S
H4279 C4285 0.950 . S
H4280 C4286 0.949 . S
C4281 H4276 0.950 . S
C4281 C4283 1.327 . S
C4281 C4287 1.429 . S
C4282 C4274 1.574 . S
C4282 H4277 0.949 . S
C4282 C4288 1.368 . S
C4283 C4267 1.349 . S
C4283 H4275 0.950 . S
C4283 C4281 1.327 . S
C4284 C4272 1.349 . S
C4284 H4278 0.950 . S
C4284 C4285 1.327 . S
C4285 H4279 0.950 . S
C4285 C4284 1.327 . S
C4285 C4289 1.429 . S
C4286 C4269 1.574 . S
C4286 H4280 0.949 . S
C4286 C4290 1.368 . S
C4287 C4268 1.429 . S
C4287 C4281 1.429 . S
C4287 C4288 1.523 . S
C4288 C4269 1.368 . S
C4288 C4282 1.368 . S
C4288 C4287 1.523 . S
C4289 C4273 1.429 . S
C4289 C4285 1.429 . S
C4289 C4290 1.523 . S
C4290 C4274 1.368 . S
C4290 C4286 1.368 . S
C4290 C4289 1.523 . S
H4291 C4266 0.950 . S
H4292 C4268 0.950 . S
H4293 C4269 0.949 . S
H4294 C4271 0.950 . S
H4295 C4273 0.950 . S
C4296 C4297 1.349 . S
C4296 C4298 1.327 . S
C4296 H4321 0.950 . S
C4297 C4296 1.349 . S
C4297 C4313 1.349 . S
C4298 C4296 1.327 . S
C4298 C4317 1.429 . S
C4298 H4322 0.950 . S
C4299 C4316 1.574 . S
C4299 C4318 1.368 . S
C4299 H4323 0.949 . S
H4300 C4304 0.949 . S
C4301 C4302 1.349 . S
C4301 C4303 1.327 . S
C4301 H4324 0.950 . S
C4302 C4301 1.349 . S
C4302 C4314 1.349 . S
C4303 C4301 1.327 . S
C4303 C4319 1.429 . S
C4303 H4325 0.950 . S
C4304 H4300 0.949 . S
C4304 C4312 1.574 . S
C4304 C4320 1.368 . S
H4305 C4313 0.950 . S
H4306 C4311 0.950 . S
H4307 C4312 0.949 . S
H4308 C4314 0.950 . S
H4309 C4315 0.950 . S
H4310 C4316 0.949 . S
C4311 H4306 0.950 . S
C4311 C4313 1.327 . S
C4311 C4317 1.429 . S
C4312 C4304 1.574 . S
C4312 H4307 0.949 . S
C4312 C4318 1.368 . S
C4313 C4297 1.349 . S
C4313 H4305 0.950 . S
C4313 C4311 1.327 . S
C4314 C4302 1.349 . S
C4314 H4308 0.950 . S
C4314 C4315 1.327 . S
C4315 H4309 0.950 . S
C4315 C4314 1.327 . S
C4315 C4319 1.429 . S
C4316 C4299 1.574 . S
C4316 H4310 0.949 . S
C4316 C4320 1.368 . S
C4317 C4298 1.429 . S
C4317 C4311 1.429 . S
C4317 C4318 1.523 . S
C4318 C4299 1.368 . S
C4318 C4312 1.368 . S
C4318 C4317 1.523 . S
C4319 C4303 1.429 . S
C4319 C4315 1.429 . S
C4319 C4320 1.523 . S
C4320 C4304 1.368 . S
C4320 C4316 1.368 . S
C4320 C4319 1.523 . S
H4321 C4296 0.950 . S
H4322 C4298 0.950 . S
H4323 C4299 0.949 . S
H4324 C4301 0.950 . S
H4325 C4303 0.950 . S
C4326 C4327 1.349 . S
C4326 C4328 1.327 . S
C4326 H4351 0.950 . S
C4327 C4326 1.349 . S
C4327 C4343 1.349 . S
C4328 C4326 1.327 . S
C4328 C4347 1.429 . S
C4328 H4352 0.950 . S
C4329 C4346 1.574 . S
C4329 C4348 1.368 . S
C4329 H4353 0.949 . S
H4330 C4334 0.949 . S
C4331 C4332 1.349 . S
C4331 C4333 1.327 . S
C4331 H4354 0.950 . S
C4332 C4331 1.349 . S
C4332 C4344 1.349 . S
C4333 C4331 1.327 . S
C4333 C4349 1.429 . S
C4333 H4355 0.950 . S
C4334 H4330 0.949 . S
C4334 C4342 1.574 . S
C4334 C4350 1.368 . S
H4335 C4343 0.950 . S
H4336 C4341 0.950 . S
H4337 C4342 0.949 . S
H4338 C4344 0.950 . S
H4339 C4345 0.950 . S
H4340 C4346 0.949 . S
C4341 H4336 0.950 . S
C4341 C4343 1.327 . S
C4341 C4347 1.429 . S
C4342 C4334 1.574 . S
C4342 H4337 0.949 . S
C4342 C4348 1.368 . S
C4343 C4327 1.349 . S
C4343 H4335 0.950 . S
C4343 C4341 1.327 . S
C4344 C4332 1.349 . S
C4344 H4338 0.950 . S
C4344 C4345 1.327 . S
C4345 H4339 0.950 . S
C4345 C4344 1.327 . S
C4345 C4349 1.429 . S
C4346 C4329 1.574 . S
C4346 H4340 0.949 . S
C4346 C4350 1.368 . S
C4347 C4328 1.429 . S
C4347 C4341 1.429 . S
C4347 C4348 1.523 . S
C4348 C4329 1.368 . S
C4348 C4342 1.368 . S
C4348 C4347 1.523 . S
C4349 C4333 1.429 . S
C4349 C4345 1.429 . S
C4349 C4350 1.523 . S
C4350 C4334 1.368 . S
C4350 C4346 1.368 . S
C4350 C4349 1.523 . S
H4351 C4326 0.950 . S
H4352 C4328 0.950 . S
H4353 C4329 0.949 . S
H4354 C4331 0.950 . S
H4355 C4333 0.950 . S
C4356 C4357 1.349 . S
C4356 C4358 1.327 . S
C4356 H4381 0.950 . S
C4357 C4356 1.349 . S
C4357 C4373 1.349 . S
C4358 C4356 1.327 . S
C4358 C4377 1.429 . S
C4358 H4382 0.950 . S
C4359 C4376 1.574 . S
C4359 C4378 1.368 . S
C4359 H4383 0.949 . S
H4360 C4364 0.949 . S
C4361 C4362 1.349 . S
C4361 C4363 1.327 . S
C4361 H4384 0.950 . S
C4362 C4361 1.349 . S
C4362 C4374 1.349 . S
C4363 C4361 1.327 . S
C4363 C4379 1.429 . S
C4363 H4385 0.950 . S
C4364 H4360 0.949 . S
C4364 C4372 1.574 . S
C4364 C4380 1.368 . S
H4365 C4373 0.950 . S
H4366 C4371 0.950 . S
H4367 C4372 0.949 . S
H4368 C4374 0.950 . S
H4369 C4375 0.950 . S
H4370 C4376 0.949 . S
C4371 H4366 0.950 . S
C4371 C4373 1.327 . S
C4371 C4377 1.429 . S
C4372 C4364 1.574 . S
C4372 H4367 0.949 . S
C4372 C4378 1.368 . S
C4373 C4357 1.349 . S
C4373 H4365 0.950 . S
C4373 C4371 1.327 . S
C4374 C4362 1.349 . S
C4374 H4368 0.950 . S
C4374 C4375 1.327 . S
C4375 H4369 0.950 . S
C4375 C4374 1.327 . S
C4375 C4379 1.429 . S
C4376 C4359 1.574 . S
C4376 H4370 0.949 . S
C4376 C4380 1.368 . S
C4377 C4358 1.429 . S
C4377 C4371 1.429 . S
C4377 C4378 1.523 . S
C4378 C4359 1.368 . S
C4378 C4372 1.368 . S
C4378 C4377 1.523 . S
C4379 C4363 1.429 . S
C4379 C4375 1.429 . S
C4379 C4380 1.523 . S
C4380 C4364 1.368 . S
C4380 C4376 1.368 . S
C4380 C4379 1.523 . S
H4381 C4356 0.950 . S
H4382 C4358 0.950 . S
H4383 C4359 0.949 . S
H4384 C4361 0.950 . S
H4385 C4363 0.950 . S
C4386 C4387 1.349 . S
C4386 C4388 1.327 . S
C4386 H4411 0.950 . S
C4387 C4386 1.349 . S
C4387 C4403 1.349 . S
C4388 C4386 1.327 . S
C4388 C4407 1.429 . S
C4388 H4412 0.950 . S
C4389 C4406 1.574 . S
C4389 C4408 1.368 . S
C4389 H4413 0.949 . S
H4390 C4394 0.949 . S
C4391 C4392 1.349 . S
C4391 C4393 1.327 . S
C4391 H4414 0.950 . S
C4392 C4391 1.349 . S
C4392 C4404 1.349 . S
C4393 C4391 1.327 . S
C4393 C4409 1.429 . S
C4393 H4415 0.950 . S
C4394 H4390 0.949 . S
C4394 C4402 1.574 . S
C4394 C4410 1.368 . S
H4395 C4403 0.950 . S
H4396 C4401 0.950 . S
H4397 C4402 0.949 . S
H4398 C4404 0.950 . S
H4399 C4405 0.950 . S
H4400 C4406 0.949 . S
C4401 H4396 0.950 . S
C4401 C4403 1.327 . S
C4401 C4407 1.429 . S
C4402 C4394 1.574 . S
C4402 H4397 0.949 . S
C4402 C4408 1.368 . S
C4403 C4387 1.349 . S
C4403 H4395 0.950 . S
C4403 C4401 1.327 . S
C4404 C4392 1.349 . S
C4404 H4398 0.950 . S
C4404 C4405 1.327 . S
C4405 H4399 0.950 . S
C4405 C4404 1.327 . S
C4405 C4409 1.429 . S
C4406 C4389 1.574 . S
C4406 H4400 0.949 . S
C4406 C4410 1.368 . S
C4407 C4388 1.429 . S
C4407 C4401 1.429 . S
C4407 C4408 1.523 . S
C4408 C4389 1.368 . S
C4408 C4402 1.368 . S
C4408 C4407 1.523 . S
C4409 C4393 1.429 . S
C4409 C4405 1.429 . S
C4409 C4410 1.523 . S
C4410 C4394 1.368 . S
C4410 C4406 1.368 . S
C4410 C4409 1.523 . S
H4411 C4386 0.950 . S
H4412 C4388 0.950 . S
H4413 C4389 0.949 . S
H4414 C4391 0.950 . S
H4415 C4393 0.950 . S
C4416 C4417 1.349 . S
C4416 C4418 1.327 . S
C4416 H4441 0.950 . S
C4417 C4416 1.349 . S
C4417 C4433 1.349 . S
C4418 C4416 1.327 . S
C4418 C4437 1.429 . S
C4418 H4442 0.950 . S
C4419 C4436 1.574 . S
C4419 C4438 1.368 . S
C4419 H4443 0.949 . S
H4420 C4424 0.949 . S
C4421 C4422 1.349 . S
C4421 C4423 1.327 . S
C4421 H4444 0.950 . S
C4422 C4421 1.349 . S
C4422 C4434 1.349 . S
C4423 C4421 1.327 . S
C4423 C4439 1.429 . S
C4423 H4445 0.950 . S
C4424 H4420 0.949 . S
C4424 C4432 1.574 . S
C4424 C4440 1.368 . S
H4425 C4433 0.950 . S
H4426 C4431 0.950 . S
H4427 C4432 0.949 . S
H4428 C4434 0.950 . S
H4429 C4435 0.950 . S
H4430 C4436 0.949 . S
C4431 H4426 0.950 . S
C4431 C4433 1.327 . S
C4431 C4437 1.429 . S
C4432 C4424 1.574 . S
C4432 H4427 0.949 . S
C4432 C4438 1.368 . S
C4433 C4417 1.349 . S
C4433 H4425 0.950 . S
C4433 C4431 1.327 . S
C4434 C4422 1.349 . S
C4434 H4428 0.950 . S
C4434 C4435 1.327 . S
C4435 H4429 0.950 . S
C4435 C4434 1.327 . S
C4435 C4439 1.429 . S
C4436 C4419 1.574 . S
C4436 H4430 0.949 . S
C4436 C4440 1.368 . S
C4437 C4418 1.429 . S
C4437 C4431 1.429 . S
C4437 C4438 1.523 . S
C4438 C4419 1.368 . S
C4438 C4432 1.368 . S
C4438 C4437 1.523 . S
C4439 C4423 1.429 . S
C4439 C4435 1.429 . S
C4439 C4440 1.523 . S
C4440 C4424 1.368 . S
C4440 C4436 1.368 . S
C4440 C4439 1.523 . S
H4441 C4416 0.950 . S
H4442 C4418 0.950 . S
H4443 C4419 0.949 . S
H4444 C4421 0.950 . S
H4445 C4423 0.950 . S
C4446 C4447 1.349 . S
C4446 C4448 1.327 . S
C4446 H4471 0.950 . S
C4447 C4446 1.349 . S
C4447 C4463 1.349 . S
C4448 C4446 1.327 . S
C4448 C4467 1.429 . S
C4448 H4472 0.950 . S
C4449 C4466 1.574 . S
C4449 C4468 1.368 . S
C4449 H4473 0.949 . S
H4450 C4454 0.949 . S
C4451 C4452 1.349 . S
C4451 C4453 1.327 . S
C4451 H4474 0.950 . S
C4452 C4451 1.349 . S
C4452 C4464 1.349 . S
C4453 C4451 1.327 . S
C4453 C4469 1.429 . S
C4453 H4475 0.950 . S
C4454 H4450 0.949 . S
C4454 C4462 1.574 . S
C4454 C4470 1.368 . S
H4455 C4463 0.950 . S
H4456 C4461 0.950 . S
H4457 C4462 0.949 . S
H4458 C4464 0.950 . S
H4459 C4465 0.950 . S
H4460 C4466 0.949 . S
C4461 H4456 0.950 . S
C4461 C4463 1.327 . S
C4461 C4467 1.429 . S
C4462 C4454 1.574 . S
C4462 H4457 0.949 . S
C4462 C4468 1.368 . S
C4463 C4447 1.349 . S
C4463 H4455 0.950 . S
C4463 C4461 1.327 . S
C4464 C4452 1.349 . S
C4464 H4458 0.950 . S
C4464 C4465 1.327 . S
C4465 H4459 0.950 . S
C4465 C4464 1.327 . S
C4465 C4469 1.429 . S
C4466 C4449 1.574 . S
C4466 H4460 0.949 . S
C4466 C4470 1.368 . S
C4467 C4448 1.429 . S
C4467 C4461 1.429 . S
C4467 C4468 1.523 . S
C4468 C4449 1.368 . S
C4468 C4462 1.368 . S
C4468 C4467 1.523 . S
C4469 C4453 1.429 . S
C4469 C4465 1.429 . S
C4469 C4470 1.523 . S
C4470 C4454 1.368 . S
C4470 C4466 1.368 . S
C4470 C4469 1.523 . S
H4471 C4446 0.950 . S
H4472 C4448 0.950 . S
H4473 C4449 0.949 . S
H4474 C4451 0.950 . S
H4475 C4453 0.950 . S
C4476 C4477 1.349 . S
C4476 C4478 1.327 . S
C4476 H4501 0.950 . S
C4477 C4476 1.349 . S
C4477 C4493 1.349 . S
C4478 C4476 1.327 . S
C4478 C4497 1.429 . S
C4478 H4502 0.950 . S
C4479 C4496 1.574 . S
C4479 C4498 1.368 . S
C4479 H4503 0.949 . S
H4480 C4484 0.949 . S
C4481 C4482 1.349 . S
C4481 C4483 1.327 . S
C4481 H4504 0.950 . S
C4482 C4481 1.349 . S
C4482 C4494 1.349 . S
C4483 C4481 1.327 . S
C4483 C4499 1.429 . S
C4483 H4505 0.950 . S
C4484 H4480 0.949 . S
C4484 C4492 1.574 . S
C4484 C4500 1.368 . S
H4485 C4493 0.950 . S
H4486 C4491 0.950 . S
H4487 C4492 0.949 . S
H4488 C4494 0.950 . S
H4489 C4495 0.950 . S
H4490 C4496 0.949 . S
C4491 H4486 0.950 . S
C4491 C4493 1.327 . S
C4491 C4497 1.429 . S
C4492 C4484 1.574 . S
C4492 H4487 0.949 . S
C4492 C4498 1.368 . S
C4493 C4477 1.349 . S
C4493 H4485 0.950 . S
C4493 C4491 1.327 . S
C4494 C4482 1.349 . S
C4494 H4488 0.950 . S
C4494 C4495 1.327 . S
C4495 H4489 0.950 . S
C4495 C4494 1.327 . S
C4495 C4499 1.429 . S
C4496 C4479 1.574 . S
C4496 H4490 0.949 . S
C4496 C4500 1.368 . S
C4497 C4478 1.429 . S
C4497 C4491 1.429 . S
C4497 C4498 1.523 . S
C4498 C4479 1.368 . S
C4498 C4492 1.368 . S
C4498 C4497 1.523 . S
C4499 C4483 1.429 . S
C4499 C4495 1.429 . S
C4499 C4500 1.523 . S
C4500 C4484 1.368 . S
C4500 C4496 1.368 . S
C4500 C4499 1.523 . S
H4501 C4476 0.950 . S
H4502 C4478 0.950 . S
H4503 C4479 0.949 . S
H4504 C4481 0.950 . S
H4505 C4483 0.950 . S
C4506 C4507 1.349 . S
C4506 C4508 1.327 . S
C4506 H4531 0.950 . S
C4507 C4506 1.349 . S
C4507 C4523 1.349 . S
C4508 C4506 1.327 . S
C4508 C4527 1.429 . S
C4508 H4532 0.950 . S
C4509 C4526 1.574 . S
C4509 C4528 1.368 . S
C4509 H4533 0.949 . S
H4510 C4514 0.949 . S
C4511 C4512 1.349 . S
C4511 C4513 1.327 . S
C4511 H4534 0.950 . S
C4512 C4511 1.349 . S
C4512 C4524 1.349 . S
C4513 C4511 1.327 . S
C4513 C4529 1.429 . S
C4513 H4535 0.950 . S
C4514 H4510 0.949 . S
C4514 C4522 1.574 . S
C4514 C4530 1.368 . S
H4515 C4523 0.950 . S
H4516 C4521 0.950 . S
H4517 C4522 0.949 . S
H4518 C4524 0.950 . S
H4519 C4525 0.950 . S
H4520 C4526 0.949 . S
C4521 H4516 0.950 . S
C4521 C4523 1.327 . S
C4521 C4527 1.429 . S
C4522 C4514 1.574 . S
C4522 H4517 0.949 . S
C4522 C4528 1.368 . S
C4523 C4507 1.349 . S
C4523 H4515 0.950 . S
C4523 C4521 1.327 . S
C4524 C4512 1.349 . S
C4524 H4518 0.950 . S
C4524 C4525 1.327 . S
C4525 H4519 0.950 . S
C4525 C4524 1.327 . S
C4525 C4529 1.429 . S
C4526 C4509 1.574 . S
C4526 H4520 0.949 . S
C4526 C4530 1.368 . S
C4527 C4508 1.429 . S
C4527 C4521 1.429 . S
C4527 C4528 1.523 . S
C4528 C4509 1.368 . S
C4528 C4522 1.368 . S
C4528 C4527 1.523 . S
C4529 C4513 1.429 . S
C4529 C4525 1.429 . S
C4529 C4530 1.523 . S
C4530 C4514 1.368 . S
C4530 C4526 1.368 . S
C4530 C4529 1.523 . S
H4531 C4506 0.950 . S
H4532 C4508 0.950 . S
H4533 C4509 0.949 . S
H4534 C4511 0.950 . S
H4535 C4513 0.950 . S
C4536 C4537 1.349 . S
C4536 C4538 1.327 . S
C4536 H4561 0.950 . S
C4537 C4536 1.349 . S
C4537 C4553 1.349 . S
C4538 C4536 1.327 . S
C4538 C4557 1.429 . S
C4538 H4562 0.950 . S
C4539 C4556 1.574 . S
C4539 C4558 1.368 . S
C4539 H4563 0.949 . S
H4540 C4544 0.949 . S
C4541 C4542 1.349 . S
C4541 C4543 1.327 . S
C4541 H4564 0.950 . S
C4542 C4541 1.349 . S
C4542 C4554 1.349 . S
C4543 C4541 1.327 . S
C4543 C4559 1.429 . S
C4543 H4565 0.950 . S
C4544 H4540 0.949 . S
C4544 C4552 1.574 . S
C4544 C4560 1.368 . S
H4545 C4553 0.950 . S
H4546 C4551 0.950 . S
H4547 C4552 0.949 . S
H4548 C4554 0.950 . S
H4549 C4555 0.950 . S
H4550 C4556 0.949 . S
C4551 H4546 0.950 . S
C4551 C4553 1.327 . S
C4551 C4557 1.429 . S
C4552 C4544 1.574 . S
C4552 H4547 0.949 . S
C4552 C4558 1.368 . S
C4553 C4537 1.349 . S
C4553 H4545 0.950 . S
C4553 C4551 1.327 . S
C4554 C4542 1.349 . S
C4554 H4548 0.950 . S
C4554 C4555 1.327 . S
C4555 H4549 0.950 . S
C4555 C4554 1.327 . S
C4555 C4559 1.429 . S
C4556 C4539 1.574 . S
C4556 H4550 0.949 . S
C4556 C4560 1.368 . S
C4557 C4538 1.429 . S
C4557 C4551 1.429 . S
C4557 C4558 1.523 . S
C4558 C4539 1.368 . S
C4558 C4552 1.368 . S
C4558 C4557 1.523 . S
C4559 C4543 1.429 . S
C4559 C4555 1.429 . S
C4559 C4560 1.523 . S
C4560 C4544 1.368 . S
C4560 C4556 1.368 . S
C4560 C4559 1.523 . S
H4561 C4536 0.950 . S
H4562 C4538 0.950 . S
H4563 C4539 0.949 . S
H4564 C4541 0.950 . S
H4565 C4543 0.950 . S
C4566 C4567 1.349 . S
C4566 C4568 1.327 . S
C4566 H4591 0.950 . S
C4567 C4566 1.349 . S
C4567 C4583 1.349 . S
C4568 C4566 1.327 . S
C4568 C4587 1.429 . S
C4568 H4592 0.950 . S
C4569 C4586 1.574 . S
C4569 C4588 1.368 . S
C4569 H4593 0.949 . S
H4570 C4574 0.949 . S
C4571 C4572 1.349 . S
C4571 C4573 1.327 . S
C4571 H4594 0.950 . S
C4572 C4571 1.349 . S
C4572 C4584 1.349 . S
C4573 C4571 1.327 . S
C4573 C4589 1.429 . S
C4573 H4595 0.950 . S
C4574 H4570 0.949 . S
C4574 C4582 1.574 . S
C4574 C4590 1.368 . S
H4575 C4583 0.950 . S
H4576 C4581 0.950 . S
H4577 C4582 0.949 . S
H4578 C4584 0.950 . S
H4579 C4585 0.950 . S
H4580 C4586 0.949 . S
C4581 H4576 0.950 . S
C4581 C4583 1.327 . S
C4581 C4587 1.429 . S
C4582 C4574 1.574 . S
C4582 H4577 0.949 . S
C4582 C4588 1.368 . S
C4583 C4567 1.349 . S
C4583 H4575 0.950 . S
C4583 C4581 1.327 . S
C4584 C4572 1.349 . S
C4584 H4578 0.950 . S
C4584 C4585 1.327 . S
C4585 H4579 0.950 . S
C4585 C4584 1.327 . S
C4585 C4589 1.429 . S
C4586 C4569 1.574 . S
C4586 H4580 0.949 . S
C4586 C4590 1.368 . S
C4587 C4568 1.429 . S
C4587 C4581 1.429 . S
C4587 C4588 1.523 . S
C4588 C4569 1.368 . S
C4588 C4582 1.368 . S
C4588 C4587 1.523 . S
C4589 C4573 1.429 . S
C4589 C4585 1.429 . S
C4589 C4590 1.523 . S
C4590 C4574 1.368 . S
C4590 C4586 1.368 . S
C4590 C4589 1.523 . S
H4591 C4566 0.950 . S
H4592 C4568 0.950 . S
H4593 C4569 0.949 . S
H4594 C4571 0.950 . S
H4595 C4573 0.950 . S
C4596 C4597 1.349 . S
C4596 C4598 1.327 . S
C4596 H4621 0.950 . S
C4597 C4596 1.349 . S
C4597 C4613 1.349 . S
C4598 C4596 1.327 . S
C4598 C4617 1.429 . S
C4598 H4622 0.950 . S
C4599 C4616 1.574 . S
C4599 C4618 1.368 . S
C4599 H4623 0.949 . S
H4600 C4604 0.949 . S
C4601 C4602 1.349 . S
C4601 C4603 1.327 . S
C4601 H4624 0.950 . S
C4602 C4601 1.349 . S
C4602 C4614 1.349 . S
C4603 C4601 1.327 . S
C4603 C4619 1.429 . S
C4603 H4625 0.950 . S
C4604 H4600 0.949 . S
C4604 C4612 1.574 . S
C4604 C4620 1.368 . S
H4605 C4613 0.950 . S
H4606 C4611 0.950 . S
H4607 C4612 0.949 . S
H4608 C4614 0.950 . S
H4609 C4615 0.950 . S
H4610 C4616 0.949 . S
C4611 H4606 0.950 . S
C4611 C4613 1.327 . S
C4611 C4617 1.429 . S
C4612 C4604 1.574 . S
C4612 H4607 0.949 . S
C4612 C4618 1.368 . S
C4613 C4597 1.349 . S
C4613 H4605 0.950 . S
C4613 C4611 1.327 . S
C4614 C4602 1.349 . S
C4614 H4608 0.950 . S
C4614 C4615 1.327 . S
C4615 H4609 0.950 . S
C4615 C4614 1.327 . S
C4615 C4619 1.429 . S
C4616 C4599 1.574 . S
C4616 H4610 0.949 . S
C4616 C4620 1.368 . S
C4617 C4598 1.429 . S
C4617 C4611 1.429 . S
C4617 C4618 1.523 . S
C4618 C4599 1.368 . S
C4618 C4612 1.368 . S
C4618 C4617 1.523 . S
C4619 C4603 1.429 . S
C4619 C4615 1.429 . S
C4619 C4620 1.523 . S
C4620 C4604 1.368 . S
C4620 C4616 1.368 . S
C4620 C4619 1.523 . S
H4621 C4596 0.950 . S
H4622 C4598 0.950 . S
H4623 C4599 0.949 . S
H4624 C4601 0.950 . S
H4625 C4603 0.950 . S
C4626 C4627 1.349 . S
C4626 C4628 1.327 . S
C4626 H4651 0.950 . S
C4627 C4626 1.349 . S
C4627 C4643 1.349 . S
C4628 C4626 1.327 . S
C4628 C4647 1.429 . S
C4628 H4652 0.950 . S
C4629 C4646 1.574 . S
C4629 C4648 1.368 . S
C4629 H4653 0.949 . S
H4630 C4634 0.949 . S
C4631 C4632 1.349 . S
C4631 C4633 1.327 . S
C4631 H4654 0.950 . S
C4632 C4631 1.349 . S
C4632 C4644 1.349 . S
C4633 C4631 1.327 . S
C4633 C4649 1.429 . S
C4633 H4655 0.950 . S
C4634 H4630 0.949 . S
C4634 C4642 1.574 . S
C4634 C4650 1.368 . S
H4635 C4643 0.950 . S
H4636 C4641 0.950 . S
H4637 C4642 0.949 . S
H4638 C4644 0.950 . S
H4639 C4645 0.950 . S
H4640 C4646 0.949 . S
C4641 H4636 0.950 . S
C4641 C4643 1.327 . S
C4641 C4647 1.429 . S
C4642 C4634 1.574 . S
C4642 H4637 0.949 . S
C4642 C4648 1.368 . S
C4643 C4627 1.349 . S
C4643 H4635 0.950 . S
C4643 C4641 1.327 . S
C4644 C4632 1.349 . S
C4644 H4638 0.950 . S
C4644 C4645 1.327 . S
C4645 H4639 0.950 . S
C4645 C4644 1.327 . S
C4645 C4649 1.429 . S
C4646 C4629 1.574 . S
C4646 H4640 0.949 . S
C4646 C4650 1.368 . S
C4647 C4628 1.429 . S
C4647 C4641 1.429 . S
C4647 C4648 1.523 . S
C4648 C4629 1.368 . S
C4648 C4642 1.368 . S
C4648 C4647 1.523 . S
C4649 C4633 1.429 . S
C4649 C4645 1.429 . S
C4649 C4650 1.523 . S
C4650 C4634 1.368 . S
C4650 C4646 1.368 . S
C4650 C4649 1.523 . S
H4651 C4626 0.950 . S
H4652 C4628 0.950 . S
H4653 C4629 0.949 . S
H4654 C4631 0.950 . S
H4655 C4633 0.950 . S
C4656 C4657 1.349 . S
C4656 C4658 1.327 . S
C4656 H4681 0.950 . S
C4657 C4656 1.349 . S
C4657 C4673 1.349 . S
C4658 C4656 1.327 . S
C4658 C4677 1.429 . S
C4658 H4682 0.950 . S
C4659 C4676 1.574 . S
C4659 C4678 1.368 . S
C4659 H4683 0.949 . S
H4660 C4664 0.949 . S
C4661 C4662 1.349 . S
C4661 C4663 1.327 . S
C4661 H4684 0.950 . S
C4662 C4661 1.349 . S
C4662 C4674 1.349 . S
C4663 C4661 1.327 . S
C4663 C4679 1.429 . S
C4663 H4685 0.950 . S
C4664 H4660 0.949 . S
C4664 C4672 1.574 . S
C4664 C4680 1.368 . S
H4665 C4673 0.950 . S
H4666 C4671 0.950 . S
H4667 C4672 0.949 . S
H4668 C4674 0.950 . S
H4669 C4675 0.950 . S
H4670 C4676 0.949 . S
C4671 H4666 0.950 . S
C4671 C4673 1.327 . S
C4671 C4677 1.429 . S
C4672 C4664 1.574 . S
C4672 H4667 0.949 . S
C4672 C4678 1.368 . S
C4673 C4657 1.349 . S
C4673 H4665 0.950 . S
C4673 C4671 1.327 . S
C4674 C4662 1.349 . S
C4674 H4668 0.950 . S
C4674 C4675 1.327 . S
C4675 H4669 0.950 . S
C4675 C4674 1.327 . S
C4675 C4679 1.429 . S
C4676 C4659 1.574 . S
C4676 H4670 0.949 . S
C4676 C4680 1.368 . S
C4677 C4658 1.429 . S
C4677 C4671 1.429 . S
C4677 C4678 1.523 . S
C4678 C4659 1.368 . S
C4678 C4672 1.368 . S
C4678 C4677 1.523 . S
C4679 C4663 1.429 . S
C4679 C4675 1.429 . S
C4679 C4680 1.523 . S
C4680 C4664 1.368 . S
C4680 C4676 1.368 . S
C4680 C4679 1.523 . S
H4681 C4656 0.950 . S
H4682 C4658 0.950 . S
H4683 C4659 0.949 . S
H4684 C4661 0.950 . S
H4685 C4663 0.950 . S
C4686 C4687 1.349 . S
C4686 C4688 1.327 . S
C4686 H4711 0.950 . S
C4687 C4686 1.349 . S
C4687 C4703 1.349 . S
C4688 C4686 1.327 . S
C4688 C4707 1.429 . S
C4688 H4712 0.950 . S
C4689 C4706 1.574 . S
C4689 C4708 1.368 . S
C4689 H4713 0.949 . S
H4690 C4694 0.949 . S
C4691 C4692 1.349 . S
C4691 C4693 1.327 . S
C4691 H4714 0.950 . S
C4692 C4691 1.349 . S
C4692 C4704 1.349 . S
C4693 C4691 1.327 . S
C4693 C4709 1.429 . S
C4693 H4715 0.950 . S
C4694 H4690 0.949 . S
C4694 C4702 1.574 . S
C4694 C4710 1.368 . S
H4695 C4703 0.950 . S
H4696 C4701 0.950 . S
H4697 C4702 0.949 . S
H4698 C4704 0.950 . S
H4699 C4705 0.950 . S
H4700 C4706 0.949 . S
C4701 H4696 0.950 . S
C4701 C4703 1.327 . S
C4701 C4707 1.429 . S
C4702 C4694 1.574 . S
C4702 H4697 0.949 . S
C4702 C4708 1.368 . S
C4703 C4687 1.349 . S
C4703 H4695 0.950 . S
C4703 C4701 1.327 . S
C4704 C4692 1.349 . S
C4704 H4698 0.950 . S
C4704 C4705 1.327 . S
C4705 H4699 0.950 . S
C4705 C4704 1.327 . S
C4705 C4709 1.429 . S
C4706 C4689 1.574 . S
C4706 H4700 0.949 . S
C4706 C4710 1.368 . S
C4707 C4688 1.429 . S
C4707 C4701 1.429 . S
C4707 C4708 1.523 . S
C4708 C4689 1.368 . S
C4708 C4702 1.368 . S
C4708 C4707 1.523 . S
C4709 C4693 1.429 . S
C4709 C4705 1.429 . S
C4709 C4710 1.523 . S
C4710 C4694 1.368 . S
C4710 C4706 1.368 . S
C4710 C4709 1.523 . S
H4711 C4686 0.950 . S
H4712 C4688 0.950 . S
H4713 C4689 0.949 . S
H4714 C4691 0.950 . S
H4715 C4693 0.950 . S
C4716 C4717 1.349 . S
C4716 C4718 1.327 . S
C4716 H4741 0.950 . S
C4717 C4716 1.349 . S
C4717 C4733 1.349 . S
C4718 C4716 1.327 . S
C4718 C4737 1.429 . S
C4718 H4742 0.950 . S
C4719 C4736 1.574 . S
C4719 C4738 1.368 . S
C4719 H4743 0.949 . S
H4720 C4724 0.949 . S
C4721 C4722 1.349 . S
C4721 C4723 1.327 . S
C4721 H4744 0.950 . S
C4722 C4721 1.349 . S
C4722 C4734 1.349 . S
C4723 C4721 1.327 . S
C4723 C4739 1.429 . S
C4723 H4745 0.950 . S
C4724 H4720 0.949 . S
C4724 C4732 1.574 . S
C4724 C4740 1.368 . S
H4725 C4733 0.950 . S
H4726 C4731 0.950 . S
H4727 C4732 0.949 . S
H4728 C4734 0.950 . S
H4729 C4735 0.950 . S
H4730 C4736 0.949 . S
C4731 H4726 0.950 . S
C4731 C4733 1.327 . S
C4731 C4737 1.429 . S
C4732 C4724 1.574 . S
C4732 H4727 0.949 . S
C4732 C4738 1.368 . S
C4733 C4717 1.349 . S
C4733 H4725 0.950 . S
C4733 C4731 1.327 . S
C4734 C4722 1.349 . S
C4734 H4728 0.950 . S
C4734 C4735 1.327 . S
C4735 H4729 0.950 . S
C4735 C4734 1.327 . S
C4735 C4739 1.429 . S
C4736 C4719 1.574 . S
C4736 H4730 0.949 . S
C4736 C4740 1.368 . S
C4737 C4718 1.429 . S
C4737 C4731 1.429 . S
C4737 C4738 1.523 . S
C4738 C4719 1.368 . S
C4738 C4732 1.368 . S
C4738 C4737 1.523 . S
C4739 C4723 1.429 . S
C4739 C4735 1.429 . S
C4739 C4740 1.523 . S
C4740 C4724 1.368 . S
C4740 C4736 1.368 . S
C4740 C4739 1.523 . S
H4741 C4716 0.950 . S
H4742 C4718 0.950 . S
H4743 C4719 0.949 . S
H4744 C4721 0.950 . S
H4745 C4723 0.950 . S
C4746 C4747 1.349 . S
C4746 C4748 1.327 . S
C4746 H4771 0.950 . S
C4747 C4746 1.349 . S
C4747 C4763 1.349 . S
C4748 C4746 1.327 . S
C4748 C4767 1.429 . S
C4748 H4772 0.950 . S
C4749 C4766 1.574 . S
C4749 C4768 1.368 . S
C4749 H4773 0.949 . S
H4750 C4754 0.949 . S
C4751 C4752 1.349 . S
C4751 C4753 1.327 . S
C4751 H4774 0.950 . S
C4752 C4751 1.349 . S
C4752 C4764 1.349 . S
C4753 C4751 1.327 . S
C4753 C4769 1.429 . S
C4753 H4775 0.950 . S
C4754 H4750 0.949 . S
C4754 C4762 1.574 . S
C4754 C4770 1.368 . S
H4755 C4763 0.950 . S
H4756 C4761 0.950 . S
H4757 C4762 0.949 . S
H4758 C4764 0.950 . S
H4759 C4765 0.950 . S
H4760 C4766 0.949 . S
C4761 H4756 0.950 . S
C4761 C4763 1.327 . S
C4761 C4767 1.429 . S
C4762 C4754 1.574 . S
C4762 H4757 0.949 . S
C4762 C4768 1.368 . S
C4763 C4747 1.349 . S
C4763 H4755 0.950 . S
C4763 C4761 1.327 . S
C4764 C4752 1.349 . S
C4764 H4758 0.950 . S
C4764 C4765 1.327 . S
C4765 H4759 0.950 . S
C4765 C4764 1.327 . S
C4765 C4769 1.429 . S
C4766 C4749 1.574 . S
C4766 H4760 0.949 . S
C4766 C4770 1.368 . S
C4767 C4748 1.429 . S
C4767 C4761 1.429 . S
C4767 C4768 1.523 . S
C4768 C4749 1.368 . S
C4768 C4762 1.368 . S
C4768 C4767 1.523 . S
C4769 C4753 1.429 . S
C4769 C4765 1.429 . S
C4769 C4770 1.523 . S
C4770 C4754 1.368 . S
C4770 C4766 1.368 . S
C4770 C4769 1.523 . S
H4771 C4746 0.950 . S
H4772 C4748 0.950 . S
H4773 C4749 0.949 . S
H4774 C4751 0.950 . S
H4775 C4753 0.950 . S
C4776 C4777 1.349 . S
C4776 C4778 1.327 . S
C4776 H4801 0.950 . S
C4777 C4776 1.349 . S
C4777 C4793 1.349 . S
C4778 C4776 1.327 . S
C4778 C4797 1.429 . S
C4778 H4802 0.950 . S
C4779 C4796 1.574 . S
C4779 C4798 1.368 . S
C4779 H4803 0.949 . S
H4780 C4784 0.949 . S
C4781 C4782 1.349 . S
C4781 C4783 1.327 . S
C4781 H4804 0.950 . S
C4782 C4781 1.349 . S
C4782 C4794 1.349 . S
C4783 C4781 1.327 . S
C4783 C4799 1.429 . S
C4783 H4805 0.950 . S
C4784 H4780 0.949 . S
C4784 C4792 1.574 . S
C4784 C4800 1.368 . S
H4785 C4793 0.950 . S
H4786 C4791 0.950 . S
H4787 C4792 0.949 . S
H4788 C4794 0.950 . S
H4789 C4795 0.950 . S
H4790 C4796 0.949 . S
C4791 H4786 0.950 . S
C4791 C4793 1.327 . S
C4791 C4797 1.429 . S
C4792 C4784 1.574 . S
C4792 H4787 0.949 . S
C4792 C4798 1.368 . S
C4793 C4777 1.349 . S
C4793 H4785 0.950 . S
C4793 C4791 1.327 . S
C4794 C4782 1.349 . S
C4794 H4788 0.950 . S
C4794 C4795 1.327 . S
C4795 H4789 0.950 . S
C4795 C4794 1.327 . S
C4795 C4799 1.429 . S
C4796 C4779 1.574 . S
C4796 H4790 0.949 . S
C4796 C4800 1.368 . S
C4797 C4778 1.429 . S
C4797 C4791 1.429 . S
C4797 C4798 1.523 . S
C4798 C4779 1.368 . S
C4798 C4792 1.368 . S
C4798 C4797 1.523 . S
C4799 C4783 1.429 . S
C4799 C4795 1.429 . S
C4799 C4800 1.523 . S
C4800 C4784 1.368 . S
C4800 C4796 1.368 . S
C4800 C4799 1.523 . S
H4801 C4776 0.950 . S
H4802 C4778 0.950 . S
H4803 C4779 0.949 . S
H4804 C4781 0.950 . S
H4805 C4783 0.950 . S
C4806 C4807 1.349 . S
C4806 C4808 1.327 . S
C4806 H4831 0.950 . S
C4807 C4806 1.349 . S
C4807 C4823 1.349 . S
C4808 C4806 1.327 . S
C4808 C4827 1.429 . S
C4808 H4832 0.950 . S
C4809 C4826 1.574 . S
C4809 C4828 1.368 . S
C4809 H4833 0.949 . S
H4810 C4814 0.949 . S
C4811 C4812 1.349 . S
C4811 C4813 1.327 . S
C4811 H4834 0.950 . S
C4812 C4811 1.349 . S
C4812 C4824 1.349 . S
C4813 C4811 1.327 . S
C4813 C4829 1.429 . S
C4813 H4835 0.950 . S
C4814 H4810 0.949 . S
C4814 C4822 1.574 . S
C4814 C4830 1.368 . S
H4815 C4823 0.950 . S
H4816 C4821 0.950 . S
H4817 C4822 0.949 . S
H4818 C4824 0.950 . S
H4819 C4825 0.950 . S
H4820 C4826 0.949 . S
C4821 H4816 0.950 . S
C4821 C4823 1.327 . S
C4821 C4827 1.429 . S
C4822 C4814 1.574 . S
C4822 H4817 0.949 . S
C4822 C4828 1.368 . S
C4823 C4807 1.349 . S
C4823 H4815 0.950 . S
C4823 C4821 1.327 . S
C4824 C4812 1.349 . S
C4824 H4818 0.950 . S
C4824 C4825 1.327 . S
C4825 H4819 0.950 . S
C4825 C4824 1.327 . S
C4825 C4829 1.429 . S
C4826 C4809 1.574 . S
C4826 H4820 0.949 . S
C4826 C4830 1.368 . S
C4827 C4808 1.429 . S
C4827 C4821 1.429 . S
C4827 C4828 1.523 . S
C4828 C4809 1.368 . S
C4828 C4822 1.368 . S
C4828 C4827 1.523 . S
C4829 C4813 1.429 . S
C4829 C4825 1.429 . S
C4829 C4830 1.523 . S
C4830 C4814 1.368 . S
C4830 C4826 1.368 . S
C4830 C4829 1.523 . S
H4831 C4806 0.950 . S
H4832 C4808 0.950 . S
H4833 C4809 0.949 . S
H4834 C4811 0.950 . S
H4835 C4813 0.950 . S
C4836 C4837 1.349 . S
C4836 C4838 1.327 . S
C4836 H4861 0.950 . S
C4837 C4836 1.349 . S
C4837 C4853 1.349 . S
C4838 C4836 1.327 . S
C4838 C4857 1.429 . S
C4838 H4862 0.950 . S
C4839 C4856 1.574 . S
C4839 C4858 1.368 . S
C4839 H4863 0.949 . S
H4840 C4844 0.949 . S
C4841 C4842 1.349 . S
C4841 C4843 1.327 . S
C4841 H4864 0.950 . S
C4842 C4841 1.349 . S
C4842 C4854 1.349 . S
C4843 C4841 1.327 . S
C4843 C4859 1.429 . S
C4843 H4865 0.950 . S
C4844 H4840 0.949 . S
C4844 C4852 1.574 . S
C4844 C4860 1.368 . S
H4845 C4853 0.950 . S
H4846 C4851 0.950 . S
H4847 C4852 0.949 . S
H4848 C4854 0.950 . S
H4849 C4855 0.950 . S
H4850 C4856 0.949 . S
C4851 H4846 0.950 . S
C4851 C4853 1.327 . S
C4851 C4857 1.429 . S
C4852 C4844 1.574 . S
C4852 H4847 0.949 . S
C4852 C4858 1.368 . S
C4853 C4837 1.349 . S
C4853 H4845 0.950 . S
C4853 C4851 1.327 . S
C4854 C4842 1.349 . S
C4854 H4848 0.950 . S
C4854 C4855 1.327 . S
C4855 H4849 0.950 . S
C4855 C4854 1.327 . S
C4855 C4859 1.429 . S
C4856 C4839 1.574 . S
C4856 H4850 0.949 . S
C4856 C4860 1.368 . S
C4857 C4838 1.429 . S
C4857 C4851 1.429 . S
C4857 C4858 1.523 . S
C4858 C4839 1.368 . S
C4858 C4852 1.368 . S
C4858 C4857 1.523 . S
C4859 C4843 1.429 . S
C4859 C4855 1.429 . S
C4859 C4860 1.523 . S
C4860 C4844 1.368 . S
C4860 C4856 1.368 . S
C4860 C4859 1.523 . S
H4861 C4836 0.950 . S
H4862 C4838 0.950 . S
H4863 C4839 0.949 . S
H4864 C4841 0.950 . S
H4865 C4843 0.950 . S
C4866 C4867 1.349 . S
C4866 C4868 1.327 . S
C4866 H4891 0.950 . S
C4867 C4866 1.349 . S
C4867 C4883 1.349 . S
C4868 C4866 1.327 . S
C4868 C4887 1.429 . S
C4868 H4892 0.950 . S
C4869 C4886 1.574 . S
C4869 C4888 1.368 . S
C4869 H4893 0.949 . S
H4870 C4874 0.949 . S
C4871 C4872 1.349 . S
C4871 C4873 1.327 . S
C4871 H4894 0.950 . S
C4872 C4871 1.349 . S
C4872 C4884 1.349 . S
C4873 C4871 1.327 . S
C4873 C4889 1.429 . S
C4873 H4895 0.950 . S
C4874 H4870 0.949 . S
C4874 C4882 1.574 . S
C4874 C4890 1.368 . S
H4875 C4883 0.950 . S
H4876 C4881 0.950 . S
H4877 C4882 0.949 . S
H4878 C4884 0.950 . S
H4879 C4885 0.950 . S
H4880 C4886 0.949 . S
C4881 H4876 0.950 . S
C4881 C4883 1.327 . S
C4881 C4887 1.429 . S
C4882 C4874 1.574 . S
C4882 H4877 0.949 . S
C4882 C4888 1.368 . S
C4883 C4867 1.349 . S
C4883 H4875 0.950 . S
C4883 C4881 1.327 . S
C4884 C4872 1.349 . S
C4884 H4878 0.950 . S
C4884 C4885 1.327 . S
C4885 H4879 0.950 . S
C4885 C4884 1.327 . S
C4885 C4889 1.429 . S
C4886 C4869 1.574 . S
C4886 H4880 0.949 . S
C4886 C4890 1.368 . S
C4887 C4868 1.429 . S
C4887 C4881 1.429 . S
C4887 C4888 1.523 . S
C4888 C4869 1.368 . S
C4888 C4882 1.368 . S
C4888 C4887 1.523 . S
C4889 C4873 1.429 . S
C4889 C4885 1.429 . S
C4889 C4890 1.523 . S
C4890 C4874 1.368 . S
C4890 C4886 1.368 . S
C4890 C4889 1.523 . S
H4891 C4866 0.950 . S
H4892 C4868 0.950 . S
H4893 C4869 0.949 . S
H4894 C4871 0.950 . S
H4895 C4873 0.950 . S
C4896 C4897 1.349 . S
C4896 C4898 1.327 . S
C4896 H4921 0.950 . S
C4897 C4896 1.349 . S
C4897 C4913 1.349 . S
C4898 C4896 1.327 . S
C4898 C4917 1.429 . S
C4898 H4922 0.950 . S
C4899 C4916 1.574 . S
C4899 C4918 1.368 . S
C4899 H4923 0.949 . S
H4900 C4904 0.949 . S
C4901 C4902 1.349 . S
C4901 C4903 1.327 . S
C4901 H4924 0.950 . S
C4902 C4901 1.349 . S
C4902 C4914 1.349 . S
C4903 C4901 1.327 . S
C4903 C4919 1.429 . S
C4903 H4925 0.950 . S
C4904 H4900 0.949 . S
C4904 C4912 1.574 . S
C4904 C4920 1.368 . S
H4905 C4913 0.950 . S
H4906 C4911 0.950 . S
H4907 C4912 0.949 . S
H4908 C4914 0.950 . S
H4909 C4915 0.950 . S
H4910 C4916 0.949 . S
C4911 H4906 0.950 . S
C4911 C4913 1.327 . S
C4911 C4917 1.429 . S
C4912 C4904 1.574 . S
C4912 H4907 0.949 . S
C4912 C4918 1.368 . S
C4913 C4897 1.349 . S
C4913 H4905 0.950 . S
C4913 C4911 1.327 . S
C4914 C4902 1.349 . S
C4914 H4908 0.950 . S
C4914 C4915 1.327 . S
C4915 H4909 0.950 . S
C4915 C4914 1.327 . S
C4915 C4919 1.429 . S
C4916 C4899 1.574 . S
C4916 H4910 0.949 . S
C4916 C4920 1.368 . S
C4917 C4898 1.429 . S
C4917 C4911 1.429 . S
C4917 C4918 1.523 . S
C4918 C4899 1.368 . S
C4918 C4912 1.368 . S
C4918 C4917 1.523 . S
C4919 C4903 1.429 . S
C4919 C4915 1.429 . S
C4919 C4920 1.523 . S
C4920 C4904 1.368 . S
C4920 C4916 1.368 . S
C4920 C4919 1.523 . S
H4921 C4896 0.950 . S
H4922 C4898 0.950 . S
H4923 C4899 0.949 . S
H4924 C4901 0.950 . S
H4925 C4903 0.950 . S
C4926 C4927 1.349 . S
C4926 C4928 1.327 . S
C4926 H4951 0.950 . S
C4927 C4926 1.349 . S
C4927 C4943 1.349 . S
C4928 C4926 1.327 . S
C4928 C4947 1.429 . S
C4928 H4952 0.950 . S
C4929 C4946 1.574 . S
C4929 C4948 1.368 . S
C4929 H4953 0.949 . S
H4930 C4934 0.949 . S
C4931 C4932 1.349 . S
C4931 C4933 1.327 . S
C4931 H4954 0.950 . S
C4932 C4931 1.349 . S
C4932 C4944 1.349 . S
C4933 C4931 1.327 . S
C4933 C4949 1.429 . S
C4933 H4955 0.950 . S
C4934 H4930 0.949 . S
C4934 C4942 1.574 . S
C4934 C4950 1.368 . S
H4935 C4943 0.950 . S
H4936 C4941 0.950 . S
H4937 C4942 0.949 . S
H4938 C4944 0.950 . S
H4939 C4945 0.950 . S
H4940 C4946 0.949 . S
C4941 H4936 0.950 . S
C4941 C4943 1.327 . S
C4941 C4947 1.429 . S
C4942 C4934 1.574 . S
C4942 H4937 0.949 . S
C4942 C4948 1.368 . S
C4943 C4927 1.349 . S
C4943 H4935 0.950 . S
C4943 C4941 1.327 . S
C4944 C4932 1.349 . S
C4944 H4938 0.950 . S
C4944 C4945 1.327 . S
C4945 H4939 0.950 . S
C4945 C4944 1.327 . S
C4945 C4949 1.429 . S
C4946 C4929 1.574 . S
C4946 H4940 0.949 . S
C4946 C4950 1.368 . S
C4947 C4928 1.429 . S
C4947 C4941 1.429 . S
C4947 C4948 1.523 . S
C4948 C4929 1.368 . S
C4948 C4942 1.368 . S
C4948 C4947 1.523 . S
C4949 C4933 1.429 . S
C4949 C4945 1.429 . S
C4949 C4950 1.523 . S
C4950 C4934 1.368 . S
C4950 C4946 1.368 . S
C4950 C4949 1.523 . S
H4951 C4926 0.950 . S
H4952 C4928 0.950 . S
H4953 C4929 0.949 . S
H4954 C4931 0.950 . S
H4955 C4933 0.950 . S
C4956 C4957 1.349 . S
C4956 C4958 1.327 . S
C4956 H4981 0.950 . S
C4957 C4956 1.349 . S
C4957 C4973 1.349 . S
C4958 C4956 1.327 . S
C4958 C4977 1.429 . S
C4958 H4982 0.950 . S
C4959 C4976 1.574 . S
C4959 C4978 1.368 . S
C4959 H4983 0.949 . S
H4960 C4964 0.949 . S
C4961 C4962 1.349 . S
C4961 C4963 1.327 . S
C4961 H4984 0.950 . S
C4962 C4961 1.349 . S
C4962 C4974 1.349 . S
C4963 C4961 1.327 . S
C4963 C4979 1.429 . S
C4963 H4985 0.950 . S
C4964 H4960 0.949 . S
C4964 C4972 1.574 . S
C4964 C4980 1.368 . S
H4965 C4973 0.950 . S
H4966 C4971 0.950 . S
H4967 C4972 0.949 . S
H4968 C4974 0.950 . S
H4969 C4975 0.950 . S
H4970 C4976 0.949 . S
C4971 H4966 0.950 . S
C4971 C4973 1.327 . S
C4971 C4977 1.429 . S
C4972 C4964 1.574 . S
C4972 H4967 0.949 . S
C4972 C4978 1.368 . S
C4973 C4957 1.349 . S
C4973 H4965 0.950 . S
C4973 C4971 1.327 . S
C4974 C4962 1.349 . S
C4974 H4968 0.950 . S
C4974 C4975 1.327 . S
C4975 H4969 0.950 . S
C4975 C4974 1.327 . S
C4975 C4979 1.429 . S
C4976 C4959 1.574 . S
C4976 H4970 0.949 . S
C4976 C4980 1.368 . S
C4977 C4958 1.429 . S
C4977 C4971 1.429 . S
C4977 C4978 1.523 . S
C4978 C4959 1.368 . S
C4978 C4972 1.368 . S
C4978 C4977 1.523 . S
C4979 C4963 1.429 . S
C4979 C4975 1.429 . S
C4979 C4980 1.523 . S
C4980 C4964 1.368 . S
C4980 C4976 1.368 . S
C4980 C4979 1.523 . S
H4981 C4956 0.950 . S
H4982 C4958 0.950 . S
H4983 C4959 0.949 . S
H4984 C4961 0.950 . S
H4985 C4963 0.950 . S
C4986 C4987 1.349 . S
C4986 C4988 1.327 . S
C4986 H5011 0.950 . S
C4987 C4986 1.349 . S
C4987 C5003 1.349 . S
C4988 C4986 1.327 . S
C4988 C5007 1.429 . S
C4988 H5012 0.950 . S
C4989 C5006 1.574 . S
C4989 C5008 1.368 . S
C4989 H5013 0.949 . S
H4990 C4994 0.949 . S
C4991 C4992 1.349 . S
C4991 C4993 1.327 . S
C4991 H5014 0.950 . S
C4992 C4991 1.349 . S
C4992 C5004 1.349 . S
C4993 C4991 1.327 . S
C4993 C5009 1.429 . S
C4993 H5015 0.950 . S
C4994 H4990 0.949 . S
C4994 C5002 1.574 . S
C4994 C5010 1.368 . S
H4995 C5003 0.950 . S
H4996 C5001 0.950 . S
H4997 C5002 0.949 . S
H4998 C5004 0.950 . S
H4999 C5005 0.950 . S
H5000 C5006 0.949 . S
C5001 H4996 0.950 . S
C5001 C5003 1.327 . S
C5001 C5007 1.429 . S
C5002 C4994 1.574 . S
C5002 H4997 0.949 . S
C5002 C5008 1.368 . S
C5003 C4987 1.349 . S
C5003 H4995 0.950 . S
C5003 C5001 1.327 . S
C5004 C4992 1.349 . S
C5004 H4998 0.950 . S
C5004 C5005 1.327 . S
C5005 H4999 0.950 . S
C5005 C5004 1.327 . S
C5005 C5009 1.429 . S
C5006 C4989 1.574 . S
C5006 H5000 0.949 . S
C5006 C5010 1.368 . S
C5007 C4988 1.429 . S
C5007 C5001 1.429 . S
C5007 C5008 1.523 . S
C5008 C4989 1.368 . S
C5008 C5002 1.368 . S
C5008 C5007 1.523 . S
C5009 C4993 1.429 . S
C5009 C5005 1.429 . S
C5009 C5010 1.523 . S
C5010 C4994 1.368 . S
C5010 C5006 1.368 . S
C5010 C5009 1.523 . S
H5011 C4986 0.950 . S
H5012 C4988 0.950 . S
H5013 C4989 0.949 . S
H5014 C4991 0.950 . S
H5015 C4993 0.950 . S
C5016 C5017 1.349 . S
C5016 C5018 1.327 . S
C5016 H5041 0.950 . S
C5017 C5016 1.349 . S
C5017 C5033 1.349 . S
C5018 C5016 1.327 . S
C5018 C5037 1.429 . S
C5018 H5042 0.950 . S
C5019 C5036 1.574 . S
C5019 C5038 1.368 . S
C5019 H5043 0.949 . S
H5020 C5024 0.949 . S
C5021 C5022 1.349 . S
C5021 C5023 1.327 . S
C5021 H5044 0.950 . S
C5022 C5021 1.349 . S
C5022 C5034 1.349 . S
C5023 C5021 1.327 . S
C5023 C5039 1.429 . S
C5023 H5045 0.950 . S
C5024 H5020 0.949 . S
C5024 C5032 1.574 . S
C5024 C5040 1.368 . S
H5025 C5033 0.950 . S
H5026 C5031 0.950 . S
H5027 C5032 0.949 . S
H5028 C5034 0.950 . S
H5029 C5035 0.950 . S
H5030 C5036 0.949 . S
C5031 H5026 0.950 . S
C5031 C5033 1.327 . S
C5031 C5037 1.429 . S
C5032 C5024 1.574 . S
C5032 H5027 0.949 . S
C5032 C5038 1.368 . S
C5033 C5017 1.349 . S
C5033 H5025 0.950 . S
C5033 C5031 1.327 . S
C5034 C5022 1.349 . S
C5034 H5028 0.950 . S
C5034 C5035 1.327 . S
C5035 H5029 0.950 . S
C5035 C5034 1.327 . S
C5035 C5039 1.429 . S
C5036 C5019 1.574 . S
C5036 H5030 0.949 . S
C5036 C5040 1.368 . S
C5037 C5018 1.429 . S
C5037 C5031 1.429 . S
C5037 C5038 1.523 . S
C5038 C5019 1.368 . S
C5038 C5032 1.368 . S
C5038 C5037 1.523 . S
C5039 C5023 1.429 . S
C5039 C5035 1.429 . S
C5039 C5040 1.523 . S
C5040 C5024 1.368 . S
C5040 C5036 1.368 . S
C5040 C5039 1.523 . S
H5041 C5016 0.950 . S
H5042 C5018 0.950 . S
H5043 C5019 0.949 . S
H5044 C5021 0.950 . S
H5045 C5023 0.950 . S
C5046 C5047 1.349 . S
C5046 C5048 1.327 . S
C5046 H5071 0.950 . S
C5047 C5046 1.349 . S
C5047 C5063 1.349 . S
C5048 C5046 1.327 . S
C5048 C5067 1.429 . S
C5048 H5072 0.950 . S
C5049 C5066 1.574 . S
C5049 C5068 1.368 . S
C5049 H5073 0.949 . S
H5050 C5054 0.949 . S
C5051 C5052 1.349 . S
C5051 C5053 1.327 . S
C5051 H5074 0.950 . S
C5052 C5051 1.349 . S
C5052 C5064 1.349 . S
C5053 C5051 1.327 . S
C5053 C5069 1.429 . S
C5053 H5075 0.950 . S
C5054 H5050 0.949 . S
C5054 C5062 1.574 . S
C5054 C5070 1.368 . S
H5055 C5063 0.950 . S
H5056 C5061 0.950 . S
H5057 C5062 0.949 . S
H5058 C5064 0.950 . S
H5059 C5065 0.950 . S
H5060 C5066 0.949 . S
C5061 H5056 0.950 . S
C5061 C5063 1.327 . S
C5061 C5067 1.429 . S
C5062 C5054 1.574 . S
C5062 H5057 0.949 . S
C5062 C5068 1.368 . S
C5063 C5047 1.349 . S
C5063 H5055 0.950 . S
C5063 C5061 1.327 . S
C5064 C5052 1.349 . S
C5064 H5058 0.950 . S
C5064 C5065 1.327 . S
C5065 H5059 0.950 . S
C5065 C5064 1.327 . S
C5065 C5069 1.429 . S
C5066 C5049 1.574 . S
C5066 H5060 0.949 . S
C5066 C5070 1.368 . S
C5067 C5048 1.429 . S
C5067 C5061 1.429 . S
C5067 C5068 1.523 . S
C5068 C5049 1.368 . S
C5068 C5062 1.368 . S
C5068 C5067 1.523 . S
C5069 C5053 1.429 . S
C5069 C5065 1.429 . S
C5069 C5070 1.523 . S
C5070 C5054 1.368 . S
C5070 C5066 1.368 . S
C5070 C5069 1.523 . S
H5071 C5046 0.950 . S
H5072 C5048 0.950 . S
H5073 C5049 0.949 . S
H5074 C5051 0.950 . S
H5075 C5053 0.950 . S
C5076 C5077 1.349 . S
C5076 C5078 1.327 . S
C5076 H5101 0.950 . S
C5077 C5076 1.349 . S
C5077 C5093 1.349 . S
C5078 C5076 1.327 . S
C5078 C5097 1.429 . S
C5078 H5102 0.950 . S
C5079 C5096 1.574 . S
C5079 C5098 1.368 . S
C5079 H5103 0.949 . S
H5080 C5084 0.949 . S
C5081 C5082 1.349 . S
C5081 C5083 1.327 . S
C5081 H5104 0.950 . S
C5082 C5081 1.349 . S
C5082 C5094 1.349 . S
C5083 C5081 1.327 . S
C5083 C5099 1.429 . S
C5083 H5105 0.950 . S
C5084 H5080 0.949 . S
C5084 C5092 1.574 . S
C5084 C5100 1.368 . S
H5085 C5093 0.950 . S
H5086 C5091 0.950 . S
H5087 C5092 0.949 . S
H5088 C5094 0.950 . S
H5089 C5095 0.950 . S
H5090 C5096 0.949 . S
C5091 H5086 0.950 . S
C5091 C5093 1.327 . S
C5091 C5097 1.429 . S
C5092 C5084 1.574 . S
C5092 H5087 0.949 . S
C5092 C5098 1.368 . S
C5093 C5077 1.349 . S
C5093 H5085 0.950 . S
C5093 C5091 1.327 . S
C5094 C5082 1.349 . S
C5094 H5088 0.950 . S
C5094 C5095 1.327 . S
C5095 H5089 0.950 . S
C5095 C5094 1.327 . S
C5095 C5099 1.429 . S
C5096 C5079 1.574 . S
C5096 H5090 0.949 . S
C5096 C5100 1.368 . S
C5097 C5078 1.429 . S
C5097 C5091 1.429 . S
C5097 C5098 1.523 . S
C5098 C5079 1.368 . S
C5098 C5092 1.368 . S
C5098 C5097 1.523 . S
C5099 C5083 1.429 . S
C5099 C5095 1.429 . S
C5099 C5100 1.523 . S
C5100 C5084 1.368 . S
C5100 C5096 1.368 . S
C5100 C5099 1.523 . S
H5101 C5076 0.950 . S
H5102 C5078 0.950 . S
H5103 C5079 0.949 . S
H5104 C5081 0.950 . S
H5105 C5083 0.950 . S
C5106 C5107 1.349 . S
C5106 C5108 1.327 . S
C5106 H5131 0.950 . S
C5107 C5106 1.349 . S
C5107 C5123 1.349 . S
C5108 C5106 1.327 . S
C5108 C5127 1.429 . S
C5108 H5132 0.950 . S
C5109 C5126 1.574 . S
C5109 C5128 1.368 . S
C5109 H5133 0.949 . S
H5110 C5114 0.949 . S
C5111 C5112 1.349 . S
C5111 C5113 1.327 . S
C5111 H5134 0.950 . S
C5112 C5111 1.349 . S
C5112 C5124 1.349 . S
C5113 C5111 1.327 . S
C5113 C5129 1.429 . S
C5113 H5135 0.950 . S
C5114 H5110 0.949 . S
C5114 C5122 1.574 . S
C5114 C5130 1.368 . S
H5115 C5123 0.950 . S
H5116 C5121 0.950 . S
H5117 C5122 0.949 . S
H5118 C5124 0.950 . S
H5119 C5125 0.950 . S
H5120 C5126 0.949 . S
C5121 H5116 0.950 . S
C5121 C5123 1.327 . S
C5121 C5127 1.429 . S
C5122 C5114 1.574 . S
C5122 H5117 0.949 . S
C5122 C5128 1.368 . S
C5123 C5107 1.349 . S
C5123 H5115 0.950 . S
C5123 C5121 1.327 . S
C5124 C5112 1.349 . S
C5124 H5118 0.950 . S
C5124 C5125 1.327 . S
C5125 H5119 0.950 . S
C5125 C5124 1.327 . S
C5125 C5129 1.429 . S
C5126 C5109 1.574 . S
C5126 H5120 0.949 . S
C5126 C5130 1.368 . S
C5127 C5108 1.429 . S
C5127 C5121 1.429 . S
C5127 C5128 1.523 . S
C5128 C5109 1.368 . S
C5128 C5122 1.368 . S
C5128 C5127 1.523 . S
C5129 C5113 1.429 . S
C5129 C5125 1.429 . S
C5129 C5130 1.523 . S
C5130 C5114 1.368 . S
C5130 C5126 1.368 . S
C5130 C5129 1.523 . S
H5131 C5106 0.950 . S
H5132 C5108 0.950 . S
H5133 C5109 0.949 . S
H5134 C5111 0.950 . S
H5135 C5113 0.950 . S
C5136 C5137 1.349 . S
C5136 C5138 1.327 . S
C5136 H5161 0.950 . S
C5137 C5136 1.349 . S
C5137 C5153 1.349 . S
C5138 C5136 1.327 . S
C5138 C5157 1.429 . S
C5138 H5162 0.950 . S
C5139 C5156 1.574 . S
C5139 C5158 1.368 . S
C5139 H5163 0.949 . S
H5140 C5144 0.949 . S
C5141 C5142 1.349 . S
C5141 C5143 1.327 . S
C5141 H5164 0.950 . S
C5142 C5141 1.349 . S
C5142 C5154 1.349 . S
C5143 C5141 1.327 . S
C5143 C5159 1.429 . S
C5143 H5165 0.950 . S
C5144 H5140 0.949 . S
C5144 C5152 1.574 . S
C5144 C5160 1.368 . S
H5145 C5153 0.950 . S
H5146 C5151 0.950 . S
H5147 C5152 0.949 . S
H5148 C5154 0.950 . S
H5149 C5155 0.950 . S
H5150 C5156 0.949 . S
C5151 H5146 0.950 . S
C5151 C5153 1.327 . S
C5151 C5157 1.429 . S
C5152 C5144 1.574 . S
C5152 H5147 0.949 . S
C5152 C5158 1.368 . S
C5153 C5137 1.349 . S
C5153 H5145 0.950 . S
C5153 C5151 1.327 . S
C5154 C5142 1.349 . S
C5154 H5148 0.950 . S
C5154 C5155 1.327 . S
C5155 H5149 0.950 . S
C5155 C5154 1.327 . S
C5155 C5159 1.429 . S
C5156 C5139 1.574 . S
C5156 H5150 0.949 . S
C5156 C5160 1.368 . S
C5157 C5138 1.429 . S
C5157 C5151 1.429 . S
C5157 C5158 1.523 . S
C5158 C5139 1.368 . S
C5158 C5152 1.368 . S
C5158 C5157 1.523 . S
C5159 C5143 1.429 . S
C5159 C5155 1.429 . S
C5159 C5160 1.523 . S
C5160 C5144 1.368 . S
C5160 C5156 1.368 . S
C5160 C5159 1.523 . S
H5161 C5136 0.950 . S
H5162 C5138 0.950 . S
H5163 C5139 0.949 . S
H5164 C5141 0.950 . S
H5165 C5143 0.950 . S
C5166 C5167 1.349 . S
C5166 C5168 1.327 . S
C5166 H5191 0.950 . S
C5167 C5166 1.349 . S
C5167 C5183 1.349 . S
C5168 C5166 1.327 . S
C5168 C5187 1.429 . S
C5168 H5192 0.950 . S
C5169 C5186 1.574 . S
C5169 C5188 1.368 . S
C5169 H5193 0.949 . S
H5170 C5174 0.949 . S
C5171 C5172 1.349 . S
C5171 C5173 1.327 . S
C5171 H5194 0.950 . S
C5172 C5171 1.349 . S
C5172 C5184 1.349 . S
C5173 C5171 1.327 . S
C5173 C5189 1.429 . S
C5173 H5195 0.950 . S
C5174 H5170 0.949 . S
C5174 C5182 1.574 . S
C5174 C5190 1.368 . S
H5175 C5183 0.950 . S
H5176 C5181 0.950 . S
H5177 C5182 0.949 . S
H5178 C5184 0.950 . S
H5179 C5185 0.950 . S
H5180 C5186 0.949 . S
C5181 H5176 0.950 . S
C5181 C5183 1.327 . S
C5181 C5187 1.429 . S
C5182 C5174 1.574 . S
C5182 H5177 0.949 . S
C5182 C5188 1.368 . S
C5183 C5167 1.349 . S
C5183 H5175 0.950 . S
C5183 C5181 1.327 . S
C5184 C5172 1.349 . S
C5184 H5178 0.950 . S
C5184 C5185 1.327 . S
C5185 H5179 0.950 . S
C5185 C5184 1.327 . S
C5185 C5189 1.429 . S
C5186 C5169 1.574 . S
C5186 H5180 0.949 . S
C5186 C5190 1.368 . S
C5187 C5168 1.429 . S
C5187 C5181 1.429 . S
C5187 C5188 1.523 . S
C5188 C5169 1.368 . S
C5188 C5182 1.368 . S
C5188 C5187 1.523 . S
C5189 C5173 1.429 . S
C5189 C5185 1.429 . S
C5189 C5190 1.523 . S
C5190 C5174 1.368 . S
C5190 C5186 1.368 . S
C5190 C5189 1.523 . S
H5191 C5166 0.950 . S
H5192 C5168 0.950 . S
H5193 C5169 0.949 . S
H5194 C5171 0.950 . S
H5195 C5173 0.950 . S
C5196 C5197 1.349 . S
C5196 C5198 1.327 . S
C5196 H5221 0.950 . S
C5197 C5196 1.349 . S
C5197 C5213 1.349 . S
C5198 C5196 1.327 . S
C5198 C5217 1.429 . S
C5198 H5222 0.950 . S
C5199 C5216 1.574 . S
C5199 C5218 1.368 . S
C5199 H5223 0.949 . S
H5200 C5204 0.949 . S
C5201 C5202 1.349 . S
C5201 C5203 1.327 . S
C5201 H5224 0.950 . S
C5202 C5201 1.349 . S
C5202 C5214 1.349 . S
C5203 C5201 1.327 . S
C5203 C5219 1.429 . S
C5203 H5225 0.950 . S
C5204 H5200 0.949 . S
C5204 C5212 1.574 . S
C5204 C5220 1.368 . S
H5205 C5213 0.950 . S
H5206 C5211 0.950 . S
H5207 C5212 0.949 . S
H5208 C5214 0.950 . S
H5209 C5215 0.950 . S
H5210 C5216 0.949 . S
C5211 H5206 0.950 . S
C5211 C5213 1.327 . S
C5211 C5217 1.429 . S
C5212 C5204 1.574 . S
C5212 H5207 0.949 . S
C5212 C5218 1.368 . S
C5213 C5197 1.349 . S
C5213 H5205 0.950 . S
C5213 C5211 1.327 . S
C5214 C5202 1.349 . S
C5214 H5208 0.950 . S
C5214 C5215 1.327 . S
C5215 H5209 0.950 . S
C5215 C5214 1.327 . S
C5215 C5219 1.429 . S
C5216 C5199 1.574 . S
C5216 H5210 0.949 . S
C5216 C5220 1.368 . S
C5217 C5198 1.429 . S
C5217 C5211 1.429 . S
C5217 C5218 1.523 . S
C5218 C5199 1.368 . S
C5218 C5212 1.368 . S
C5218 C5217 1.523 . S
C5219 C5203 1.429 . S
C5219 C5215 1.429 . S
C5219 C5220 1.523 . S
C5220 C5204 1.368 . S
C5220 C5216 1.368 . S
C5220 C5219 1.523 . S
H5221 C5196 0.950 . S
H5222 C5198 0.950 . S
H5223 C5199 0.949 . S
H5224 C5201 0.950 . S
H5225 C5203 0.950 . S
C5226 C5227 1.349 . S
C5226 C5228 1.327 . S
C5226 H5251 0.950 . S
C5227 C5226 1.349 . S
C5227 C5243 1.349 . S
C5228 C5226 1.327 . S
C5228 C5247 1.429 . S
C5228 H5252 0.950 . S
C5229 C5246 1.574 . S
C5229 C5248 1.368 . S
C5229 H5253 0.949 . S
H5230 C5234 0.949 . S
C5231 C5232 1.349 . S
C5231 C5233 1.327 . S
C5231 H5254 0.950 . S
C5232 C5231 1.349 . S
C5232 C5244 1.349 . S
C5233 C5231 1.327 . S
C5233 C5249 1.429 . S
C5233 H5255 0.950 . S
C5234 H5230 0.949 . S
C5234 C5242 1.574 . S
C5234 C5250 1.368 . S
H5235 C5243 0.950 . S
H5236 C5241 0.950 . S
H5237 C5242 0.949 . S
H5238 C5244 0.950 . S
H5239 C5245 0.950 . S
H5240 C5246 0.949 . S
C5241 H5236 0.950 . S
C5241 C5243 1.327 . S
C5241 C5247 1.429 . S
C5242 C5234 1.574 . S
C5242 H5237 0.949 . S
C5242 C5248 1.368 . S
C5243 C5227 1.349 . S
C5243 H5235 0.950 . S
C5243 C5241 1.327 . S
C5244 C5232 1.349 . S
C5244 H5238 0.950 . S
C5244 C5245 1.327 . S
C5245 H5239 0.950 . S
C5245 C5244 1.327 . S
C5245 C5249 1.429 . S
C5246 C5229 1.574 . S
C5246 H5240 0.949 . S
C5246 C5250 1.368 . S
C5247 C5228 1.429 . S
C5247 C5241 1.429 . S
C5247 C5248 1.523 . S
C5248 C5229 1.368 . S
C5248 C5242 1.368 . S
C5248 C5247 1.523 . S
C5249 C5233 1.429 . S
C5249 C5245 1.429 . S
C5249 C5250 1.523 . S
C5250 C5234 1.368 . S
C5250 C5246 1.368 . S
C5250 C5249 1.523 . S
H5251 C5226 0.950 . S
H5252 C5228 0.950 . S
H5253 C5229 0.949 . S
H5254 C5231 0.950 . S
H5255 C5233 0.950 . S
C5256 C5257 1.349 . S
C5256 C5258 1.327 . S
C5256 H5281 0.950 . S
C5257 C5256 1.349 . S
C5257 C5273 1.349 . S
C5258 C5256 1.327 . S
C5258 C5277 1.429 . S
C5258 H5282 0.950 . S
C5259 C5276 1.574 . S
C5259 C5278 1.368 . S
C5259 H5283 0.949 . S
H5260 C5264 0.949 . S
C5261 C5262 1.349 . S
C5261 C5263 1.327 . S
C5261 H5284 0.950 . S
C5262 C5261 1.349 . S
C5262 C5274 1.349 . S
C5263 C5261 1.327 . S
C5263 C5279 1.429 . S
C5263 H5285 0.950 . S
C5264 H5260 0.949 . S
C5264 C5272 1.574 . S
C5264 C5280 1.368 . S
H5265 C5273 0.950 . S
H5266 C5271 0.950 . S
H5267 C5272 0.949 . S
H5268 C5274 0.950 . S
H5269 C5275 0.950 . S
H5270 C5276 0.949 . S
C5271 H5266 0.950 . S
C5271 C5273 1.327 . S
C5271 C5277 1.429 . S
C5272 C5264 1.574 . S
C5272 H5267 0.949 . S
C5272 C5278 1.368 . S
C5273 C5257 1.349 . S
C5273 H5265 0.950 . S
C5273 C5271 1.327 . S
C5274 C5262 1.349 . S
C5274 H5268 0.950 . S
C5274 C5275 1.327 . S
C5275 H5269 0.950 . S
C5275 C5274 1.327 . S
C5275 C5279 1.429 . S
C5276 C5259 1.574 . S
C5276 H5270 0.949 . S
C5276 C5280 1.368 . S
C5277 C5258 1.429 . S
C5277 C5271 1.429 . S
C5277 C5278 1.523 . S
C5278 C5259 1.368 . S
C5278 C5272 1.368 . S
C5278 C5277 1.523 . S
C5279 C5263 1.429 . S
C5279 C5275 1.429 . S
C5279 C5280 1.523 . S
C5280 C5264 1.368 . S
C5280 C5276 1.368 . S
C5280 C5279 1.523 . S
H5281 C5256 0.950 . S
H5282 C5258 0.950 . S
H5283 C5259 0.949 . S
H5284 C5261 0.950 . S
H5285 C5263 0.950 . S
C5286 C5287 1.349 . S
C5286 C5288 1.327 . S
C5286 H5311 0.950 . S
C5287 C5286 1.349 . S
C5287 C5303 1.349 . S
C5288 C5286 1.327 . S
C5288 C5307 1.429 . S
C5288 H5312 0.950 . S
C5289 C5306 1.574 . S
C5289 C5308 1.368 . S
C5289 H5313 0.949 . S
H5290 C5294 0.949 . S
C5291 C5292 1.349 . S
C5291 C5293 1.327 . S
C5291 H5314 0.950 . S
C5292 C5291 1.349 . S
C5292 C5304 1.349 . S
C5293 C5291 1.327 . S
C5293 C5309 1.429 . S
C5293 H5315 0.950 . S
C5294 H5290 0.949 . S
C5294 C5302 1.574 . S
C5294 C5310 1.368 . S
H5295 C5303 0.950 . S
H5296 C5301 0.950 . S
H5297 C5302 0.949 . S
H5298 C5304 0.950 . S
H5299 C5305 0.950 . S
H5300 C5306 0.949 . S
C5301 H5296 0.950 . S
C5301 C5303 1.327 . S
C5301 C5307 1.429 . S
C5302 C5294 1.574 . S
C5302 H5297 0.949 . S
C5302 C5308 1.368 . S
C5303 C5287 1.349 . S
C5303 H5295 0.950 . S
C5303 C5301 1.327 . S
C5304 C5292 1.349 . S
C5304 H5298 0.950 . S
C5304 C5305 1.327 . S
C5305 H5299 0.950 . S
C5305 C5304 1.327 . S
C5305 C5309 1.429 . S
C5306 C5289 1.574 . S
C5306 H5300 0.949 . S
C5306 C5310 1.368 . S
C5307 C5288 1.429 . S
C5307 C5301 1.429 . S
C5307 C5308 1.523 . S
C5308 C5289 1.368 . S
C5308 C5302 1.368 . S
C5308 C5307 1.523 . S
C5309 C5293 1.429 . S
C5309 C5305 1.429 . S
C5309 C5310 1.523 . S
C5310 C5294 1.368 . S
C5310 C5306 1.368 . S
C5310 C5309 1.523 . S
H5311 C5286 0.950 . S
H5312 C5288 0.950 . S
H5313 C5289 0.949 . S
H5314 C5291 0.950 . S
H5315 C5293 0.950 . S
C5316 C5317 1.349 . S
C5316 C5318 1.327 . S
C5316 H5341 0.950 . S
C5317 C5316 1.349 . S
C5317 C5333 1.349 . S
C5318 C5316 1.327 . S
C5318 C5337 1.429 . S
C5318 H5342 0.950 . S
C5319 C5336 1.574 . S
C5319 C5338 1.368 . S
C5319 H5343 0.949 . S
H5320 C5324 0.949 . S
C5321 C5322 1.349 . S
C5321 C5323 1.327 . S
C5321 H5344 0.950 . S
C5322 C5321 1.349 . S
C5322 C5334 1.349 . S
C5323 C5321 1.327 . S
C5323 C5339 1.429 . S
C5323 H5345 0.950 . S
C5324 H5320 0.949 . S
C5324 C5332 1.574 . S
C5324 C5340 1.368 . S
H5325 C5333 0.950 . S
H5326 C5331 0.950 . S
H5327 C5332 0.949 . S
H5328 C5334 0.950 . S
H5329 C5335 0.950 . S
H5330 C5336 0.949 . S
C5331 H5326 0.950 . S
C5331 C5333 1.327 . S
C5331 C5337 1.429 . S
C5332 C5324 1.574 . S
C5332 H5327 0.949 . S
C5332 C5338 1.368 . S
C5333 C5317 1.349 . S
C5333 H5325 0.950 . S
C5333 C5331 1.327 . S
C5334 C5322 1.349 . S
C5334 H5328 0.950 . S
C5334 C5335 1.327 . S
C5335 H5329 0.950 . S
C5335 C5334 1.327 . S
C5335 C5339 1.429 . S
C5336 C5319 1.574 . S
C5336 H5330 0.949 . S
C5336 C5340 1.368 . S
C5337 C5318 1.429 . S
C5337 C5331 1.429 . S
C5337 C5338 1.523 . S
C5338 C5319 1.368 . S
C5338 C5332 1.368 . S
C5338 C5337 1.523 . S
C5339 C5323 1.429 . S
C5339 C5335 1.429 . S
C5339 C5340 1.523 . S
C5340 C5324 1.368 . S
C5340 C5336 1.368 . S
C5340 C5339 1.523 . S
H5341 C5316 0.950 . S
H5342 C5318 0.950 . S
H5343 C5319 0.949 . S
H5344 C5321 0.950 . S
H5345 C5323 0.950 . S
C5346 C5347 1.349 . S
C5346 C5348 1.327 . S
C5346 H5371 0.950 . S
C5347 C5346 1.349 . S
C5347 C5363 1.349 . S
C5348 C5346 1.327 . S
C5348 C5367 1.429 . S
C5348 H5372 0.950 . S
C5349 C5366 1.574 . S
C5349 C5368 1.368 . S
C5349 H5373 0.949 . S
H5350 C5354 0.949 . S
C5351 C5352 1.349 . S
C5351 C5353 1.327 . S
C5351 H5374 0.950 . S
C5352 C5351 1.349 . S
C5352 C5364 1.349 . S
C5353 C5351 1.327 . S
C5353 C5369 1.429 . S
C5353 H5375 0.950 . S
C5354 H5350 0.949 . S
C5354 C5362 1.574 . S
C5354 C5370 1.368 . S
H5355 C5363 0.950 . S
H5356 C5361 0.950 . S
H5357 C5362 0.949 . S
H5358 C5364 0.950 . S
H5359 C5365 0.950 . S
H5360 C5366 0.949 . S
C5361 H5356 0.950 . S
C5361 C5363 1.327 . S
C5361 C5367 1.429 . S
C5362 C5354 1.574 . S
C5362 H5357 0.949 . S
C5362 C5368 1.368 . S
C5363 C5347 1.349 . S
C5363 H5355 0.950 . S
C5363 C5361 1.327 . S
C5364 C5352 1.349 . S
C5364 H5358 0.950 . S
C5364 C5365 1.327 . S
C5365 H5359 0.950 . S
C5365 C5364 1.327 . S
C5365 C5369 1.429 . S
C5366 C5349 1.574 . S
C5366 H5360 0.949 . S
C5366 C5370 1.368 . S
C5367 C5348 1.429 . S
C5367 C5361 1.429 . S
C5367 C5368 1.523 . S
C5368 C5349 1.368 . S
C5368 C5362 1.368 . S
C5368 C5367 1.523 . S
C5369 C5353 1.429 . S
C5369 C5365 1.429 . S
C5369 C5370 1.523 . S
C5370 C5354 1.368 . S
C5370 C5366 1.368 . S
C5370 C5369 1.523 . S
H5371 C5346 0.950 . S
H5372 C5348 0.950 . S
H5373 C5349 0.949 . S
H5374 C5351 0.950 . S
H5375 C5353 0.950 . S
C5376 C5377 1.349 . S
C5376 C5378 1.327 . S
C5376 H5401 0.950 . S
C5377 C5376 1.349 . S
C5377 C5393 1.349 . S
C5378 C5376 1.327 . S
C5378 C5397 1.429 . S
C5378 H5402 0.950 . S
C5379 C5396 1.574 . S
C5379 C5398 1.368 . S
C5379 H5403 0.949 . S
H5380 C5384 0.949 . S
C5381 C5382 1.349 . S
C5381 C5383 1.327 . S
C5381 H5404 0.950 . S
C5382 C5381 1.349 . S
C5382 C5394 1.349 . S
C5383 C5381 1.327 . S
C5383 C5399 1.429 . S
C5383 H5405 0.950 . S
C5384 H5380 0.949 . S
C5384 C5392 1.574 . S
C5384 C5400 1.368 . S
H5385 C5393 0.950 . S
H5386 C5391 0.950 . S
H5387 C5392 0.949 . S
H5388 C5394 0.950 . S
H5389 C5395 0.950 . S
H5390 C5396 0.949 . S
C5391 H5386 0.950 . S
C5391 C5393 1.327 . S
C5391 C5397 1.429 . S
C5392 C5384 1.574 . S
C5392 H5387 0.949 . S
C5392 C5398 1.368 . S
C5393 C5377 1.349 . S
C5393 H5385 0.950 . S
C5393 C5391 1.327 . S
C5394 C5382 1.349 . S
C5394 H5388 0.950 . S
C5394 C5395 1.327 . S
C5395 H5389 0.950 . S
C5395 C5394 1.327 . S
C5395 C5399 1.429 . S
C5396 C5379 1.574 . S
C5396 H5390 0.949 . S
C5396 C5400 1.368 . S
C5397 C5378 1.429 . S
C5397 C5391 1.429 . S
C5397 C5398 1.523 . S
C5398 C5379 1.368 . S
C5398 C5392 1.368 . S
C5398 C5397 1.523 . S
C5399 C5383 1.429 . S
C5399 C5395 1.429 . S
C5399 C5400 1.523 . S
C5400 C5384 1.368 . S
C5400 C5396 1.368 . S
C5400 C5399 1.523 . S
H5401 C5376 0.950 . S
H5402 C5378 0.950 . S
H5403 C5379 0.949 . S
H5404 C5381 0.950 . S
H5405 C5383 0.950 . S
C5406 C5407 1.349 . S
C5406 C5408 1.327 . S
C5406 H5431 0.950 . S
C5407 C5406 1.349 . S
C5407 C5423 1.349 . S
C5408 C5406 1.327 . S
C5408 C5427 1.429 . S
C5408 H5432 0.950 . S
C5409 C5426 1.574 . S
C5409 C5428 1.368 . S
C5409 H5433 0.949 . S
H5410 C5414 0.949 . S
C5411 C5412 1.349 . S
C5411 C5413 1.327 . S
C5411 H5434 0.950 . S
C5412 C5411 1.349 . S
C5412 C5424 1.349 . S
C5413 C5411 1.327 . S
C5413 C5429 1.429 . S
C5413 H5435 0.950 . S
C5414 H5410 0.949 . S
C5414 C5422 1.574 . S
C5414 C5430 1.368 . S
H5415 C5423 0.950 . S
H5416 C5421 0.950 . S
H5417 C5422 0.949 . S
H5418 C5424 0.950 . S
H5419 C5425 0.950 . S
H5420 C5426 0.949 . S
C5421 H5416 0.950 . S
C5421 C5423 1.327 . S
C5421 C5427 1.429 . S
C5422 C5414 1.574 . S
C5422 H5417 0.949 . S
C5422 C5428 1.368 . S
C5423 C5407 1.349 . S
C5423 H5415 0.950 . S
C5423 C5421 1.327 . S
C5424 C5412 1.349 . S
C5424 H5418 0.950 . S
C5424 C5425 1.327 . S
C5425 H5419 0.950 . S
C5425 C5424 1.327 . S
C5425 C5429 1.429 . S
C5426 C5409 1.574 . S
C5426 H5420 0.949 . S
C5426 C5430 1.368 . S
C5427 C5408 1.429 . S
C5427 C5421 1.429 . S
C5427 C5428 1.523 . S
C5428 C5409 1.368 . S
C5428 C5422 1.368 . S
C5428 C5427 1.523 . S
C5429 C5413 1.429 . S
C5429 C5425 1.429 . S
C5429 C5430 1.523 . S
C5430 C5414 1.368 . S
C5430 C5426 1.368 . S
C5430 C5429 1.523 . S
H5431 C5406 0.950 . S
H5432 C5408 0.950 . S
H5433 C5409 0.949 . S
H5434 C5411 0.950 . S
H5435 C5413 0.950 . S
C5436 C5437 1.349 . S
C5436 C5438 1.327 . S
C5436 H5461 0.950 . S
C5437 C5436 1.349 . S
C5437 C5453 1.349 . S
C5438 C5436 1.327 . S
C5438 C5457 1.429 . S
C5438 H5462 0.950 . S
C5439 C5456 1.574 . S
C5439 C5458 1.368 . S
C5439 H5463 0.949 . S
H5440 C5444 0.949 . S
C5441 C5442 1.349 . S
C5441 C5443 1.327 . S
C5441 H5464 0.950 . S
C5442 C5441 1.349 . S
C5442 C5454 1.349 . S
C5443 C5441 1.327 . S
C5443 C5459 1.429 . S
C5443 H5465 0.950 . S
C5444 H5440 0.949 . S
C5444 C5452 1.574 . S
C5444 C5460 1.368 . S
H5445 C5453 0.950 . S
H5446 C5451 0.950 . S
H5447 C5452 0.949 . S
H5448 C5454 0.950 . S
H5449 C5455 0.950 . S
H5450 C5456 0.949 . S
C5451 H5446 0.950 . S
C5451 C5453 1.327 . S
C5451 C5457 1.429 . S
C5452 C5444 1.574 . S
C5452 H5447 0.949 . S
C5452 C5458 1.368 . S
C5453 C5437 1.349 . S
C5453 H5445 0.950 . S
C5453 C5451 1.327 . S
C5454 C5442 1.349 . S
C5454 H5448 0.950 . S
C5454 C5455 1.327 . S
C5455 H5449 0.950 . S
C5455 C5454 1.327 . S
C5455 C5459 1.429 . S
C5456 C5439 1.574 . S
C5456 H5450 0.949 . S
C5456 C5460 1.368 . S
C5457 C5438 1.429 . S
C5457 C5451 1.429 . S
C5457 C5458 1.523 . S
C5458 C5439 1.368 . S
C5458 C5452 1.368 . S
C5458 C5457 1.523 . S
C5459 C5443 1.429 . S
C5459 C5455 1.429 . S
C5459 C5460 1.523 . S
C5460 C5444 1.368 . S
C5460 C5456 1.368 . S
C5460 C5459 1.523 . S
H5461 C5436 0.950 . S
H5462 C5438 0.950 . S
H5463 C5439 0.949 . S
H5464 C5441 0.950 . S
H5465 C5443 0.950 . S
C5466 C5467 1.349 . S
C5466 C5468 1.327 . S
C5466 H5491 0.950 . S
C5467 C5466 1.349 . S
C5467 C5483 1.349 . S
C5468 C5466 1.327 . S
C5468 C5487 1.429 . S
C5468 H5492 0.950 . S
C5469 C5486 1.574 . S
C5469 C5488 1.368 . S
C5469 H5493 0.949 . S
H5470 C5474 0.949 . S
C5471 C5472 1.349 . S
C5471 C5473 1.327 . S
C5471 H5494 0.950 . S
C5472 C5471 1.349 . S
C5472 C5484 1.349 . S
C5473 C5471 1.327 . S
C5473 C5489 1.429 . S
C5473 H5495 0.950 . S
C5474 H5470 0.949 . S
C5474 C5482 1.574 . S
C5474 C5490 1.368 . S
H5475 C5483 0.950 . S
H5476 C5481 0.950 . S
H5477 C5482 0.949 . S
H5478 C5484 0.950 . S
H5479 C5485 0.950 . S
H5480 C5486 0.949 . S
C5481 H5476 0.950 . S
C5481 C5483 1.327 . S
C5481 C5487 1.429 . S
C5482 C5474 1.574 . S
C5482 H5477 0.949 . S
C5482 C5488 1.368 . S
C5483 C5467 1.349 . S
C5483 H5475 0.950 . S
C5483 C5481 1.327 . S
C5484 C5472 1.349 . S
C5484 H5478 0.950 . S
C5484 C5485 1.327 . S
C5485 H5479 0.950 . S
C5485 C5484 1.327 . S
C5485 C5489 1.429 . S
C5486 C5469 1.574 . S
C5486 H5480 0.949 . S
C5486 C5490 1.368 . S
C5487 C5468 1.429 . S
C5487 C5481 1.429 . S
C5487 C5488 1.523 . S
C5488 C5469 1.368 . S
C5488 C5482 1.368 . S
C5488 C5487 1.523 . S
C5489 C5473 1.429 . S
C5489 C5485 1.429 . S
C5489 C5490 1.523 . S
C5490 C5474 1.368 . S
C5490 C5486 1.368 . S
C5490 C5489 1.523 . S
H5491 C5466 0.950 . S
H5492 C5468 0.950 . S
H5493 C5469 0.949 . S
H5494 C5471 0.950 . S
H5495 C5473 0.950 . S
C5496 C5497 1.349 . S
C5496 C5498 1.327 . S
C5496 H5521 0.950 . S
C5497 C5496 1.349 . S
C5497 C5513 1.349 . S
C5498 C5496 1.327 . S
C5498 C5517 1.429 . S
C5498 H5522 0.950 . S
C5499 C5516 1.574 . S
C5499 C5518 1.368 . S
C5499 H5523 0.949 . S
H5500 C5504 0.949 . S
C5501 C5502 1.349 . S
C5501 C5503 1.327 . S
C5501 H5524 0.950 . S
C5502 C5501 1.349 . S
C5502 C5514 1.349 . S
C5503 C5501 1.327 . S
C5503 C5519 1.429 . S
C5503 H5525 0.950 . S
C5504 H5500 0.949 . S
C5504 C5512 1.574 . S
C5504 C5520 1.368 . S
H5505 C5513 0.950 . S
H5506 C5511 0.950 . S
H5507 C5512 0.949 . S
H5508 C5514 0.950 . S
H5509 C5515 0.950 . S
H5510 C5516 0.949 . S
C5511 H5506 0.950 . S
C5511 C5513 1.327 . S
C5511 C5517 1.429 . S
C5512 C5504 1.574 . S
C5512 H5507 0.949 . S
C5512 C5518 1.368 . S
C5513 C5497 1.349 . S
C5513 H5505 0.950 . S
C5513 C5511 1.327 . S
C5514 C5502 1.349 . S
C5514 H5508 0.950 . S
C5514 C5515 1.327 . S
C5515 H5509 0.950 . S
C5515 C5514 1.327 . S
C5515 C5519 1.429 . S
C5516 C5499 1.574 . S
C5516 H5510 0.949 . S
C5516 C5520 1.368 . S
C5517 C5498 1.429 . S
C5517 C5511 1.429 . S
C5517 C5518 1.523 . S
C5518 C5499 1.368 . S
C5518 C5512 1.368 . S
C5518 C5517 1.523 . S
C5519 C5503 1.429 . S
C5519 C5515 1.429 . S
C5519 C5520 1.523 . S
C5520 C5504 1.368 . S
C5520 C5516 1.368 . S
C5520 C5519 1.523 . S
H5521 C5496 0.950 . S
H5522 C5498 0.950 . S
H5523 C5499 0.949 . S
H5524 C5501 0.950 . S
H5525 C5503 0.950 . S
C5526 C5527 1.349 . S
C5526 C5528 1.327 . S
C5526 H5551 0.950 . S
C5527 C5526 1.349 . S
C5527 C5543 1.349 . S
C5528 C5526 1.327 . S
C5528 C5547 1.429 . S
C5528 H5552 0.950 . S
C5529 C5546 1.574 . S
C5529 C5548 1.368 . S
C5529 H5553 0.949 . S
H5530 C5534 0.949 . S
C5531 C5532 1.349 . S
C5531 C5533 1.327 . S
C5531 H5554 0.950 . S
C5532 C5531 1.349 . S
C5532 C5544 1.349 . S
C5533 C5531 1.327 . S
C5533 C5549 1.429 . S
C5533 H5555 0.950 . S
C5534 H5530 0.949 . S
C5534 C5542 1.574 . S
C5534 C5550 1.368 . S
H5535 C5543 0.950 . S
H5536 C5541 0.950 . S
H5537 C5542 0.949 . S
H5538 C5544 0.950 . S
H5539 C5545 0.950 . S
H5540 C5546 0.949 . S
C5541 H5536 0.950 . S
C5541 C5543 1.327 . S
C5541 C5547 1.429 . S
C5542 C5534 1.574 . S
C5542 H5537 0.949 . S
C5542 C5548 1.368 . S
C5543 C5527 1.349 . S
C5543 H5535 0.950 . S
C5543 C5541 1.327 . S
C5544 C5532 1.349 . S
C5544 H5538 0.950 . S
C5544 C5545 1.327 . S
C5545 H5539 0.950 . S
C5545 C5544 1.327 . S
C5545 C5549 1.429 . S
C5546 C5529 1.574 . S
C5546 H5540 0.949 . S
C5546 C5550 1.368 . S
C5547 C5528 1.429 . S
C5547 C5541 1.429 . S
C5547 C5548 1.523 . S
C5548 C5529 1.368 . S
C5548 C5542 1.368 . S
C5548 C5547 1.523 . S
C5549 C5533 1.429 . S
C5549 C5545 1.429 . S
C5549 C5550 1.523 . S
C5550 C5534 1.368 . S
C5550 C5546 1.368 . S
C5550 C5549 1.523 . S
H5551 C5526 0.950 . S
H5552 C5528 0.950 . S
H5553 C5529 0.949 . S
H5554 C5531 0.950 . S
H5555 C5533 0.950 . S
C5556 C5557 1.349 . S
C5556 C5558 1.327 . S
C5556 H5581 0.950 . S
C5557 C5556 1.349 . S
C5557 C5573 1.349 . S
C5558 C5556 1.327 . S
C5558 C5577 1.429 . S
C5558 H5582 0.950 . S
C5559 C5576 1.574 . S
C5559 C5578 1.368 . S
C5559 H5583 0.949 . S
H5560 C5564 0.949 . S
C5561 C5562 1.349 . S
C5561 C5563 1.327 . S
C5561 H5584 0.950 . S
C5562 C5561 1.349 . S
C5562 C5574 1.349 . S
C5563 C5561 1.327 . S
C5563 C5579 1.429 . S
C5563 H5585 0.950 . S
C5564 H5560 0.949 . S
C5564 C5572 1.574 . S
C5564 C5580 1.368 . S
H5565 C5573 0.950 . S
H5566 C5571 0.950 . S
H5567 C5572 0.949 . S
H5568 C5574 0.950 . S
H5569 C5575 0.950 . S
H5570 C5576 0.949 . S
C5571 H5566 0.950 . S
C5571 C5573 1.327 . S
C5571 C5577 1.429 . S
C5572 C5564 1.574 . S
C5572 H5567 0.949 . S
C5572 C5578 1.368 . S
C5573 C5557 1.349 . S
C5573 H5565 0.950 . S
C5573 C5571 1.327 . S
C5574 C5562 1.349 . S
C5574 H5568 0.950 . S
C5574 C5575 1.327 . S
C5575 H5569 0.950 . S
C5575 C5574 1.327 . S
C5575 C5579 1.429 . S
C5576 C5559 1.574 . S
C5576 H5570 0.949 . S
C5576 C5580 1.368 . S
C5577 C5558 1.429 . S
C5577 C5571 1.429 . S
C5577 C5578 1.523 . S
C5578 C5559 1.368 . S
C5578 C5572 1.368 . S
C5578 C5577 1.523 . S
C5579 C5563 1.429 . S
C5579 C5575 1.429 . S
C5579 C5580 1.523 . S
C5580 C5564 1.368 . S
C5580 C5576 1.368 . S
C5580 C5579 1.523 . S
H5581 C5556 0.950 . S
H5582 C5558 0.950 . S
H5583 C5559 0.949 . S
H5584 C5561 0.950 . S
H5585 C5563 0.950 . S
C5586 C5587 1.349 . S
C5586 C5588 1.327 . S
C5586 H5611 0.950 . S
C5587 C5586 1.349 . S
C5587 C5603 1.349 . S
C5588 C5586 1.327 . S
C5588 C5607 1.429 . S
C5588 H5612 0.950 . S
C5589 C5606 1.574 . S
C5589 C5608 1.368 . S
C5589 H5613 0.949 . S
H5590 C5594 0.949 . S
C5591 C5592 1.349 . S
C5591 C5593 1.327 . S
C5591 H5614 0.950 . S
C5592 C5591 1.349 . S
C5592 C5604 1.349 . S
C5593 C5591 1.327 . S
C5593 C5609 1.429 . S
C5593 H5615 0.950 . S
C5594 H5590 0.949 . S
C5594 C5602 1.574 . S
C5594 C5610 1.368 . S
H5595 C5603 0.950 . S
H5596 C5601 0.950 . S
H5597 C5602 0.949 . S
H5598 C5604 0.950 . S
H5599 C5605 0.950 . S
H5600 C5606 0.949 . S
C5601 H5596 0.950 . S
C5601 C5603 1.327 . S
C5601 C5607 1.429 . S
C5602 C5594 1.574 . S
C5602 H5597 0.949 . S
C5602 C5608 1.368 . S
C5603 C5587 1.349 . S
C5603 H5595 0.950 . S
C5603 C5601 1.327 . S
C5604 C5592 1.349 . S
C5604 H5598 0.950 . S
C5604 C5605 1.327 . S
C5605 H5599 0.950 . S
C5605 C5604 1.327 . S
C5605 C5609 1.429 . S
C5606 C5589 1.574 . S
C5606 H5600 0.949 . S
C5606 C5610 1.368 . S
C5607 C5588 1.429 . S
C5607 C5601 1.429 . S
C5607 C5608 1.523 . S
C5608 C5589 1.368 . S
C5608 C5602 1.368 . S
C5608 C5607 1.523 . S
C5609 C5593 1.429 . S
C5609 C5605 1.429 . S
C5609 C5610 1.523 . S
C5610 C5594 1.368 . S
C5610 C5606 1.368 . S
C5610 C5609 1.523 . S
H5611 C5586 0.950 . S
H5612 C5588 0.950 . S
H5613 C5589 0.949 . S
H5614 C5591 0.950 . S
H5615 C5593 0.950 . S
C5616 C5617 1.349 . S
C5616 C5618 1.327 . S
C5616 H5641 0.950 . S
C5617 C5616 1.349 . S
C5617 C5633 1.349 . S
C5618 C5616 1.327 . S
C5618 C5637 1.429 . S
C5618 H5642 0.950 . S
C5619 C5636 1.574 . S
C5619 C5638 1.368 . S
C5619 H5643 0.949 . S
H5620 C5624 0.949 . S
C5621 C5622 1.349 . S
C5621 C5623 1.327 . S
C5621 H5644 0.950 . S
C5622 C5621 1.349 . S
C5622 C5634 1.349 . S
C5623 C5621 1.327 . S
C5623 C5639 1.429 . S
C5623 H5645 0.950 . S
C5624 H5620 0.949 . S
C5624 C5632 1.574 . S
C5624 C5640 1.368 . S
H5625 C5633 0.950 . S
H5626 C5631 0.950 . S
H5627 C5632 0.949 . S
H5628 C5634 0.950 . S
H5629 C5635 0.950 . S
H5630 C5636 0.949 . S
C5631 H5626 0.950 . S
C5631 C5633 1.327 . S
C5631 C5637 1.429 . S
C5632 C5624 1.574 . S
C5632 H5627 0.949 . S
C5632 C5638 1.368 . S
C5633 C5617 1.349 . S
C5633 H5625 0.950 . S
C5633 C5631 1.327 . S
C5634 C5622 1.349 . S
C5634 H5628 0.950 . S
C5634 C5635 1.327 . S
C5635 H5629 0.950 . S
C5635 C5634 1.327 . S
C5635 C5639 1.429 . S
C5636 C5619 1.574 . S
C5636 H5630 0.949 . S
C5636 C5640 1.368 . S
C5637 C5618 1.429 . S
C5637 C5631 1.429 . S
C5637 C5638 1.523 . S
C5638 C5619 1.368 . S
C5638 C5632 1.368 . S
C5638 C5637 1.523 . S
C5639 C5623 1.429 . S
C5639 C5635 1.429 . S
C5639 C5640 1.523 . S
C5640 C5624 1.368 . S
C5640 C5636 1.368 . S
C5640 C5639 1.523 . S
H5641 C5616 0.950 . S
H5642 C5618 0.950 . S
H5643 C5619 0.949 . S
H5644 C5621 0.950 . S
H5645 C5623 0.950 . S
C5646 C5647 1.349 . S
C5646 C5648 1.327 . S
C5646 H5671 0.950 . S
C5647 C5646 1.349 . S
C5647 C5663 1.349 . S
C5648 C5646 1.327 . S
C5648 C5667 1.429 . S
C5648 H5672 0.950 . S
C5649 C5666 1.574 . S
C5649 C5668 1.368 . S
C5649 H5673 0.949 . S
H5650 C5654 0.949 . S
C5651 C5652 1.349 . S
C5651 C5653 1.327 . S
C5651 H5674 0.950 . S
C5652 C5651 1.349 . S
C5652 C5664 1.349 . S
C5653 C5651 1.327 . S
C5653 C5669 1.429 . S
C5653 H5675 0.950 . S
C5654 H5650 0.949 . S
C5654 C5662 1.574 . S
C5654 C5670 1.368 . S
H5655 C5663 0.950 . S
H5656 C5661 0.950 . S
H5657 C5662 0.949 . S
H5658 C5664 0.950 . S
H5659 C5665 0.950 . S
H5660 C5666 0.949 . S
C5661 H5656 0.950 . S
C5661 C5663 1.327 . S
C5661 C5667 1.429 . S
C5662 C5654 1.574 . S
C5662 H5657 0.949 . S
C5662 C5668 1.368 . S
C5663 C5647 1.349 . S
C5663 H5655 0.950 . S
C5663 C5661 1.327 . S
C5664 C5652 1.349 . S
C5664 H5658 0.950 . S
C5664 C5665 1.327 . S
C5665 H5659 0.950 . S
C5665 C5664 1.327 . S
C5665 C5669 1.429 . S
C5666 C5649 1.574 . S
C5666 H5660 0.949 . S
C5666 C5670 1.368 . S
C5667 C5648 1.429 . S
C5667 C5661 1.429 . S
C5667 C5668 1.523 . S
C5668 C5649 1.368 . S
C5668 C5662 1.368 . S
C5668 C5667 1.523 . S
C5669 C5653 1.429 . S
C5669 C5665 1.429 . S
C5669 C5670 1.523 . S
C5670 C5654 1.368 . S
C5670 C5666 1.368 . S
C5670 C5669 1.523 . S
H5671 C5646 0.950 . S
H5672 C5648 0.950 . S
H5673 C5649 0.949 . S
H5674 C5651 0.950 . S
H5675 C5653 0.950 . S
C5676 C5677 1.349 . S
C5676 C5678 1.327 . S
C5676 H5701 0.950 . S
C5677 C5676 1.349 . S
C5677 C5693 1.349 . S
C5678 C5676 1.327 . S
C5678 C5697 1.429 . S
C5678 H5702 0.950 . S
C5679 C5696 1.574 . S
C5679 C5698 1.368 . S
C5679 H5703 0.949 . S
H5680 C5684 0.949 . S
C5681 C5682 1.349 . S
C5681 C5683 1.327 . S
C5681 H5704 0.950 . S
C5682 C5681 1.349 . S
C5682 C5694 1.349 . S
C5683 C5681 1.327 . S
C5683 C5699 1.429 . S
C5683 H5705 0.950 . S
C5684 H5680 0.949 . S
C5684 C5692 1.574 . S
C5684 C5700 1.368 . S
H5685 C5693 0.950 . S
H5686 C5691 0.950 . S
H5687 C5692 0.949 . S
H5688 C5694 0.950 . S
H5689 C5695 0.950 . S
H5690 C5696 0.949 . S
C5691 H5686 0.950 . S
C5691 C5693 1.327 . S
C5691 C5697 1.429 . S
C5692 C5684 1.574 . S
C5692 H5687 0.949 . S
C5692 C5698 1.368 . S
C5693 C5677 1.349 . S
C5693 H5685 0.950 . S
C5693 C5691 1.327 . S
C5694 C5682 1.349 . S
C5694 H5688 0.950 . S
C5694 C5695 1.327 . S
C5695 H5689 0.950 . S
C5695 C5694 1.327 . S
C5695 C5699 1.429 . S
C5696 C5679 1.574 . S
C5696 H5690 0.949 . S
C5696 C5700 1.368 . S
C5697 C5678 1.429 . S
C5697 C5691 1.429 . S
C5697 C5698 1.523 . S
C5698 C5679 1.368 . S
C5698 C5692 1.368 . S
C5698 C5697 1.523 . S
C5699 C5683 1.429 . S
C5699 C5695 1.429 . S
C5699 C5700 1.523 . S
C5700 C5684 1.368 . S
C5700 C5696 1.368 . S
C5700 C5699 1.523 . S
H5701 C5676 0.950 . S
H5702 C5678 0.950 . S
H5703 C5679 0.949 . S
H5704 C5681 0.950 . S
H5705 C5683 0.950 . S
C5706 C5707 1.349 . S
C5706 C5708 1.327 . S
C5706 H5731 0.950 . S
C5707 C5706 1.349 . S
C5707 C5723 1.349 . S
C5708 C5706 1.327 . S
C5708 C5727 1.429 . S
C5708 H5732 0.950 . S
C5709 C5726 1.574 . S
C5709 C5728 1.368 . S
C5709 H5733 0.949 . S
H5710 C5714 0.949 . S
C5711 C5712 1.349 . S
C5711 C5713 1.327 . S
C5711 H5734 0.950 . S
C5712 C5711 1.349 . S
C5712 C5724 1.349 . S
C5713 C5711 1.327 . S
C5713 C5729 1.429 . S
C5713 H5735 0.950 . S
C5714 H5710 0.949 . S
C5714 C5722 1.574 . S
C5714 C5730 1.368 . S
H5715 C5723 0.950 . S
H5716 C5721 0.950 . S
H5717 C5722 0.949 . S
H5718 C5724 0.950 . S
H5719 C5725 0.950 . S
H5720 C5726 0.949 . S
C5721 H5716 0.950 . S
C5721 C5723 1.327 . S
C5721 C5727 1.429 . S
C5722 C5714 1.574 . S
C5722 H5717 0.949 . S
C5722 C5728 1.368 . S
C5723 C5707 1.349 . S
C5723 H5715 0.950 . S
C5723 C5721 1.327 . S
C5724 C5712 1.349 . S
C5724 H5718 0.950 . S
C5724 C5725 1.327 . S
C5725 H5719 0.950 . S
C5725 C5724 1.327 . S
C5725 C5729 1.429 . S
C5726 C5709 1.574 . S
C5726 H5720 0.949 . S
C5726 C5730 1.368 . S
C5727 C5708 1.429 . S
C5727 C5721 1.429 . S
C5727 C5728 1.523 . S
C5728 C5709 1.368 . S
C5728 C5722 1.368 . S
C5728 C5727 1.523 . S
C5729 C5713 1.429 . S
C5729 C5725 1.429 . S
C5729 C5730 1.523 . S
C5730 C5714 1.368 . S
C5730 C5726 1.368 . S
C5730 C5729 1.523 . S
H5731 C5706 0.950 . S
H5732 C5708 0.950 . S
H5733 C5709 0.949 . S
H5734 C5711 0.950 . S
H5735 C5713 0.950 . S
C5736 C5737 1.349 . S
C5736 C5738 1.327 . S
C5736 H5761 0.950 . S
C5737 C5736 1.349 . S
C5737 C5753 1.349 . S
C5738 C5736 1.327 . S
C5738 C5757 1.429 . S
C5738 H5762 0.950 . S
C5739 C5756 1.574 . S
C5739 C5758 1.368 . S
C5739 H5763 0.949 . S
H5740 C5744 0.949 . S
C5741 C5742 1.349 . S
C5741 C5743 1.327 . S
C5741 H5764 0.950 . S
C5742 C5741 1.349 . S
C5742 C5754 1.349 . S
C5743 C5741 1.327 . S
C5743 C5759 1.429 . S
C5743 H5765 0.950 . S
C5744 H5740 0.949 . S
C5744 C5752 1.574 . S
C5744 C5760 1.368 . S
H5745 C5753 0.950 . S
H5746 C5751 0.950 . S
H5747 C5752 0.949 . S
H5748 C5754 0.950 . S
H5749 C5755 0.950 . S
H5750 C5756 0.949 . S
C5751 H5746 0.950 . S
C5751 C5753 1.327 . S
C5751 C5757 1.429 . S
C5752 C5744 1.574 . S
C5752 H5747 0.949 . S
C5752 C5758 1.368 . S
C5753 C5737 1.349 . S
C5753 H5745 0.950 . S
C5753 C5751 1.327 . S
C5754 C5742 1.349 . S
C5754 H5748 0.950 . S
C5754 C5755 1.327 . S
C5755 H5749 0.950 . S
C5755 C5754 1.327 . S
C5755 C5759 1.429 . S
C5756 C5739 1.574 . S
C5756 H5750 0.949 . S
C5756 C5760 1.368 . S
C5757 C5738 1.429 . S
C5757 C5751 1.429 . S
C5757 C5758 1.523 . S
C5758 C5739 1.368 . S
C5758 C5752 1.368 . S
C5758 C5757 1.523 . S
C5759 C5743 1.429 . S
C5759 C5755 1.429 . S
C5759 C5760 1.523 . S
C5760 C5744 1.368 . S
C5760 C5756 1.368 . S
C5760 C5759 1.523 . S
H5761 C5736 0.950 . S
H5762 C5738 0.950 . S
H5763 C5739 0.949 . S
H5764 C5741 0.950 . S
H5765 C5743 0.950 . S
C5766 C5767 1.349 . S
C5766 C5768 1.327 . S
C5766 H5791 0.950 . S
C5767 C5766 1.349 . S
C5767 C5783 1.349 . S
C5768 C5766 1.327 . S
C5768 C5787 1.429 . S
C5768 H5792 0.950 . S
C5769 C5786 1.574 . S
C5769 C5788 1.368 . S
C5769 H5793 0.949 . S
H5770 C5774 0.949 . S
C5771 C5772 1.349 . S
C5771 C5773 1.327 . S
C5771 H5794 0.950 . S
C5772 C5771 1.349 . S
C5772 C5784 1.349 . S
C5773 C5771 1.327 . S
C5773 C5789 1.429 . S
C5773 H5795 0.950 . S
C5774 H5770 0.949 . S
C5774 C5782 1.574 . S
C5774 C5790 1.368 . S
H5775 C5783 0.950 . S
H5776 C5781 0.950 . S
H5777 C5782 0.949 . S
H5778 C5784 0.950 . S
H5779 C5785 0.950 . S
H5780 C5786 0.949 . S
C5781 H5776 0.950 . S
C5781 C5783 1.327 . S
C5781 C5787 1.429 . S
C5782 C5774 1.574 . S
C5782 H5777 0.949 . S
C5782 C5788 1.368 . S
C5783 C5767 1.349 . S
C5783 H5775 0.950 . S
C5783 C5781 1.327 . S
C5784 C5772 1.349 . S
C5784 H5778 0.950 . S
C5784 C5785 1.327 . S
C5785 H5779 0.950 . S
C5785 C5784 1.327 . S
C5785 C5789 1.429 . S
C5786 C5769 1.574 . S
C5786 H5780 0.949 . S
C5786 C5790 1.368 . S
C5787 C5768 1.429 . S
C5787 C5781 1.429 . S
C5787 C5788 1.523 . S
C5788 C5769 1.368 . S
C5788 C5782 1.368 . S
C5788 C5787 1.523 . S
C5789 C5773 1.429 . S
C5789 C5785 1.429 . S
C5789 C5790 1.523 . S
C5790 C5774 1.368 . S
C5790 C5786 1.368 . S
C5790 C5789 1.523 . S
H5791 C5766 0.950 . S
H5792 C5768 0.950 . S
H5793 C5769 0.949 . S
H5794 C5771 0.950 . S
H5795 C5773 0.950 . S
C5796 C5797 1.349 . S
C5796 C5798 1.327 . S
C5796 H5821 0.950 . S
C5797 C5796 1.349 . S
C5797 C5813 1.349 . S
C5798 C5796 1.327 . S
C5798 C5817 1.429 . S
C5798 H5822 0.950 . S
C5799 C5816 1.574 . S
C5799 C5818 1.368 . S
C5799 H5823 0.949 . S
H5800 C5804 0.949 . S
C5801 C5802 1.349 . S
C5801 C5803 1.327 . S
C5801 H5824 0.950 . S
C5802 C5801 1.349 . S
C5802 C5814 1.349 . S
C5803 C5801 1.327 . S
C5803 C5819 1.429 . S
C5803 H5825 0.950 . S
C5804 H5800 0.949 . S
C5804 C5812 1.574 . S
C5804 C5820 1.368 . S
H5805 C5813 0.950 . S
H5806 C5811 0.950 . S
H5807 C5812 0.949 . S
H5808 C5814 0.950 . S
H5809 C5815 0.950 . S
H5810 C5816 0.949 . S
C5811 H5806 0.950 . S
C5811 C5813 1.327 . S
C5811 C5817 1.429 . S
C5812 C5804 1.574 . S
C5812 H5807 0.949 . S
C5812 C5818 1.368 . S
C5813 C5797 1.349 . S
C5813 H5805 0.950 . S
C5813 C5811 1.327 . S
C5814 C5802 1.349 . S
C5814 H5808 0.950 . S
C5814 C5815 1.327 . S
C5815 H5809 0.950 . S
C5815 C5814 1.327 . S
C5815 C5819 1.429 . S
C5816 C5799 1.574 . S
C5816 H5810 0.949 . S
C5816 C5820 1.368 . S
C5817 C5798 1.429 . S
C5817 C5811 1.429 . S
C5817 C5818 1.523 . S
C5818 C5799 1.368 . S
C5818 C5812 1.368 . S
C5818 C5817 1.523 . S
C5819 C5803 1.429 . S
C5819 C5815 1.429 . S
C5819 C5820 1.523 . S
C5820 C5804 1.368 . S
C5820 C5816 1.368 . S
C5820 C5819 1.523 . S
H5821 C5796 0.950 . S
H5822 C5798 0.950 . S
H5823 C5799 0.949 . S
H5824 C5801 0.950 . S
H5825 C5803 0.950 . S
C5826 C5827 1.349 . S
C5826 C5828 1.327 . S
C5826 H5851 0.950 . S
C5827 C5826 1.349 . S
C5827 C5843 1.349 . S
C5828 C5826 1.327 . S
C5828 C5847 1.429 . S
C5828 H5852 0.950 . S
C5829 C5846 1.574 . S
C5829 C5848 1.368 . S
C5829 H5853 0.949 . S
H5830 C5834 0.949 . S
C5831 C5832 1.349 . S
C5831 C5833 1.327 . S
C5831 H5854 0.950 . S
C5832 C5831 1.349 . S
C5832 C5844 1.349 . S
C5833 C5831 1.327 . S
C5833 C5849 1.429 . S
C5833 H5855 0.950 . S
C5834 H5830 0.949 . S
C5834 C5842 1.574 . S
C5834 C5850 1.368 . S
H5835 C5843 0.950 . S
H5836 C5841 0.950 . S
H5837 C5842 0.949 . S
H5838 C5844 0.950 . S
H5839 C5845 0.950 . S
H5840 C5846 0.949 . S
C5841 H5836 0.950 . S
C5841 C5843 1.327 . S
C5841 C5847 1.429 . S
C5842 C5834 1.574 . S
C5842 H5837 0.949 . S
C5842 C5848 1.368 . S
C5843 C5827 1.349 . S
C5843 H5835 0.950 . S
C5843 C5841 1.327 . S
C5844 C5832 1.349 . S
C5844 H5838 0.950 . S
C5844 C5845 1.327 . S
C5845 H5839 0.950 . S
C5845 C5844 1.327 . S
C5845 C5849 1.429 . S
C5846 C5829 1.574 . S
C5846 H5840 0.949 . S
C5846 C5850 1.368 . S
C5847 C5828 1.429 . S
C5847 C5841 1.429 . S
C5847 C5848 1.523 . S
C5848 C5829 1.368 . S
C5848 C5842 1.368 . S
C5848 C5847 1.523 . S
C5849 C5833 1.429 . S
C5849 C5845 1.429 . S
C5849 C5850 1.523 . S
C5850 C5834 1.368 . S
C5850 C5846 1.368 . S
C5850 C5849 1.523 . S
H5851 C5826 0.950 . S
H5852 C5828 0.950 . S
H5853 C5829 0.949 . S
H5854 C5831 0.950 . S
H5855 C5833 0.950 . S
C5856 C5857 1.349 . S
C5856 C5858 1.327 . S
C5856 H5881 0.950 . S
C5857 C5856 1.349 . S
C5857 C5873 1.349 . S
C5858 C5856 1.327 . S
C5858 C5877 1.429 . S
C5858 H5882 0.950 . S
C5859 C5876 1.574 . S
C5859 C5878 1.368 . S
C5859 H5883 0.949 . S
H5860 C5864 0.949 . S
C5861 C5862 1.349 . S
C5861 C5863 1.327 . S
C5861 H5884 0.950 . S
C5862 C5861 1.349 . S
C5862 C5874 1.349 . S
C5863 C5861 1.327 . S
C5863 C5879 1.429 . S
C5863 H5885 0.950 . S
C5864 H5860 0.949 . S
C5864 C5872 1.574 . S
C5864 C5880 1.368 . S
H5865 C5873 0.950 . S
H5866 C5871 0.950 . S
H5867 C5872 0.949 . S
H5868 C5874 0.950 . S
H5869 C5875 0.950 . S
H5870 C5876 0.949 . S
C5871 H5866 0.950 . S
C5871 C5873 1.327 . S
C5871 C5877 1.429 . S
C5872 C5864 1.574 . S
C5872 H5867 0.949 . S
C5872 C5878 1.368 . S
C5873 C5857 1.349 . S
C5873 H5865 0.950 . S
C5873 C5871 1.327 . S
C5874 C5862 1.349 . S
C5874 H5868 0.950 . S
C5874 C5875 1.327 . S
C5875 H5869 0.950 . S
C5875 C5874 1.327 . S
C5875 C5879 1.429 . S
C5876 C5859 1.574 . S
C5876 H5870 0.949 . S
C5876 C5880 1.368 . S
C5877 C5858 1.429 . S
C5877 C5871 1.429 . S
C5877 C5878 1.523 . S
C5878 C5859 1.368 . S
C5878 C5872 1.368 . S
C5878 C5877 1.523 . S
C5879 C5863 1.429 . S
C5879 C5875 1.429 . S
C5879 C5880 1.523 . S
C5880 C5864 1.368 . S
C5880 C5876 1.368 . S
C5880 C5879 1.523 . S
H5881 C5856 0.950 . S
H5882 C5858 0.950 . S
H5883 C5859 0.949 . S
H5884 C5861 0.950 . S
H5885 C5863 0.950 . S
C5886 C5887 1.349 . S
C5886 C5888 1.327 . S
C5886 H5911 0.950 . S
C5887 C5886 1.349 . S
C5887 C5903 1.349 . S
C5888 C5886 1.327 . S
C5888 C5907 1.429 . S
C5888 H5912 0.950 . S
C5889 C5906 1.574 . S
C5889 C5908 1.368 . S
C5889 H5913 0.949 . S
H5890 C5894 0.949 . S
C5891 C5892 1.349 . S
C5891 C5893 1.327 . S
C5891 H5914 0.950 . S
C5892 C5891 1.349 . S
C5892 C5904 1.349 . S
C5893 C5891 1.327 . S
C5893 C5909 1.429 . S
C5893 H5915 0.950 . S
C5894 H5890 0.949 . S
C5894 C5902 1.574 . S
C5894 C5910 1.368 . S
H5895 C5903 0.950 . S
H5896 C5901 0.950 . S
H5897 C5902 0.949 . S
H5898 C5904 0.950 . S
H5899 C5905 0.950 . S
H5900 C5906 0.949 . S
C5901 H5896 0.950 . S
C5901 C5903 1.327 . S
C5901 C5907 1.429 . S
C5902 C5894 1.574 . S
C5902 H5897 0.949 . S
C5902 C5908 1.368 . S
C5903 C5887 1.349 . S
C5903 H5895 0.950 . S
C5903 C5901 1.327 . S
C5904 C5892 1.349 . S
C5904 H5898 0.950 . S
C5904 C5905 1.327 . S
C5905 H5899 0.950 . S
C5905 C5904 1.327 . S
C5905 C5909 1.429 . S
C5906 C5889 1.574 . S
C5906 H5900 0.949 . S
C5906 C5910 1.368 . S
C5907 C5888 1.429 . S
C5907 C5901 1.429 . S
C5907 C5908 1.523 . S
C5908 C5889 1.368 . S
C5908 C5902 1.368 . S
C5908 C5907 1.523 . S
C5909 C5893 1.429 . S
C5909 C5905 1.429 . S
C5909 C5910 1.523 . S
C5910 C5894 1.368 . S
C5910 C5906 1.368 . S
C5910 C5909 1.523 . S
H5911 C5886 0.950 . S
H5912 C5888 0.950 . S
H5913 C5889 0.949 . S
H5914 C5891 0.950 . S
H5915 C5893 0.950 . S
C5916 C5917 1.349 . S
C5916 C5918 1.327 . S
C5916 H5941 0.950 . S
C5917 C5916 1.349 . S
C5917 C5933 1.349 . S
C5918 C5916 1.327 . S
C5918 C5937 1.429 . S
C5918 H5942 0.950 . S
C5919 C5936 1.574 . S
C5919 C5938 1.368 . S
C5919 H5943 0.949 . S
H5920 C5924 0.949 . S
C5921 C5922 1.349 . S
C5921 C5923 1.327 . S
C5921 H5944 0.950 . S
C5922 C5921 1.349 . S
C5922 C5934 1.349 . S
C5923 C5921 1.327 . S
C5923 C5939 1.429 . S
C5923 H5945 0.950 . S
C5924 H5920 0.949 . S
C5924 C5932 1.574 . S
C5924 C5940 1.368 . S
H5925 C5933 0.950 . S
H5926 C5931 0.950 . S
H5927 C5932 0.949 . S
H5928 C5934 0.950 . S
H5929 C5935 0.950 . S
H5930 C5936 0.949 . S
C5931 H5926 0.950 . S
C5931 C5933 1.327 . S
C5931 C5937 1.429 . S
C5932 C5924 1.574 . S
C5932 H5927 0.949 . S
C5932 C5938 1.368 . S
C5933 C5917 1.349 . S
C5933 H5925 0.950 . S
C5933 C5931 1.327 . S
C5934 C5922 1.349 . S
C5934 H5928 0.950 . S
C5934 C5935 1.327 . S
C5935 H5929 0.950 . S
C5935 C5934 1.327 . S
C5935 C5939 1.429 . S
C5936 C5919 1.574 . S
C5936 H5930 0.949 . S
C5936 C5940 1.368 . S
C5937 C5918 1.429 . S
C5937 C5931 1.429 . S
C5937 C5938 1.523 . S
C5938 C5919 1.368 . S
C5938 C5932 1.368 . S
C5938 C5937 1.523 . S
C5939 C5923 1.429 . S
C5939 C5935 1.429 . S
C5939 C5940 1.523 . S
C5940 C5924 1.368 . S
C5940 C5936 1.368 . S
C5940 C5939 1.523 . S
H5941 C5916 0.950 . S
H5942 C5918 0.950 . S
H5943 C5919 0.949 . S
H5944 C5921 0.950 . S
H5945 C5923 0.950 . S
C5946 C5947 1.349 . S
C5946 C5948 1.327 . S
C5946 H5971 0.950 . S
C5947 C5946 1.349 . S
C5947 C5963 1.349 . S
C5948 C5946 1.327 . S
C5948 C5967 1.429 . S
C5948 H5972 0.950 . S
C5949 C5966 1.574 . S
C5949 C5968 1.368 . S
C5949 H5973 0.949 . S
H5950 C5954 0.949 . S
C5951 C5952 1.349 . S
C5951 C5953 1.327 . S
C5951 H5974 0.950 . S
C5952 C5951 1.349 . S
C5952 C5964 1.349 . S
C5953 C5951 1.327 . S
C5953 C5969 1.429 . S
C5953 H5975 0.950 . S
C5954 H5950 0.949 . S
C5954 C5962 1.574 . S
C5954 C5970 1.368 . S
H5955 C5963 0.950 . S
H5956 C5961 0.950 . S
H5957 C5962 0.949 . S
H5958 C5964 0.950 . S
H5959 C5965 0.950 . S
H5960 C5966 0.949 . S
C5961 H5956 0.950 . S
C5961 C5963 1.327 . S
C5961 C5967 1.429 . S
C5962 C5954 1.574 . S
C5962 H5957 0.949 . S
C5962 C5968 1.368 . S
C5963 C5947 1.349 . S
C5963 H5955 0.950 . S
C5963 C5961 1.327 . S
C5964 C5952 1.349 . S
C5964 H5958 0.950 . S
C5964 C5965 1.327 . S
C5965 H5959 0.950 . S
C5965 C5964 1.327 . S
C5965 C5969 1.429 . S
C5966 C5949 1.574 . S
C5966 H5960 0.949 . S
C5966 C5970 1.368 . S
C5967 C5948 1.429 . S
C5967 C5961 1.429 . S
C5967 C5968 1.523 . S
C5968 C5949 1.368 . S
C5968 C5962 1.368 . S
C5968 C5967 1.523 . S
C5969 C5953 1.429 . S
C5969 C5965 1.429 . S
C5969 C5970 1.523 . S
C5970 C5954 1.368 . S
C5970 C5966 1.368 . S
C5970 C5969 1.523 . S
H5971 C5946 0.950 . S
H5972 C5948 0.950 . S
H5973 C5949 0.949 . S
H5974 C5951 0.950 . S
H5975 C5953 0.950 . S
C5976 C5977 1.349 . S
C5976 C5978 1.327 . S
C5976 H6001 0.950 . S
C5977 C5976 1.349 . S
C5977 C5993 1.349 . S
C5978 C5976 1.327 . S
C5978 C5997 1.429 . S
C5978 H6002 0.950 . S
C5979 C5996 1.574 . S
C5979 C5998 1.368 . S
C5979 H6003 0.949 . S
H5980 C5984 0.949 . S
C5981 C5982 1.349 . S
C5981 C5983 1.327 . S
C5981 H6004 0.950 . S
C5982 C5981 1.349 . S
C5982 C5994 1.349 . S
C5983 C5981 1.327 . S
C5983 C5999 1.429 . S
C5983 H6005 0.950 . S
C5984 H5980 0.949 . S
C5984 C5992 1.574 . S
C5984 C6000 1.368 . S
H5985 C5993 0.950 . S
H5986 C5991 0.950 . S
H5987 C5992 0.949 . S
H5988 C5994 0.950 . S
H5989 C5995 0.950 . S
H5990 C5996 0.949 . S
C5991 H5986 0.950 . S
C5991 C5993 1.327 . S
C5991 C5997 1.429 . S
C5992 C5984 1.574 . S
C5992 H5987 0.949 . S
C5992 C5998 1.368 . S
C5993 C5977 1.349 . S
C5993 H5985 0.950 . S
C5993 C5991 1.327 . S
C5994 C5982 1.349 . S
C5994 H5988 0.950 . S
C5994 C5995 1.327 . S
C5995 H5989 0.950 . S
C5995 C5994 1.327 . S
C5995 C5999 1.429 . S
C5996 C5979 1.574 . S
C5996 H5990 0.949 . S
C5996 C6000 1.368 . S
C5997 C5978 1.429 . S
C5997 C5991 1.429 . S
C5997 C5998 1.523 . S
C5998 C5979 1.368 . S
C5998 C5992 1.368 . S
C5998 C5997 1.523 . S
C5999 C5983 1.429 . S
C5999 C5995 1.429 . S
C5999 C6000 1.523 . S
C6000 C5984 1.368 . S
C6000 C5996 1.368 . S
C6000 C5999 1.523 . S
H6001 C5976 0.950 . S
H6002 C5978 0.950 . S
H6003 C5979 0.949 . S
H6004 C5981 0.950 . S
H6005 C5983 0.950 . S
C6006 C6007 1.349 . S
C6006 C6008 1.327 . S
C6006 H6031 0.950 . S
C6007 C6006 1.349 . S
C6007 C6023 1.349 . S
C6008 C6006 1.327 . S
C6008 C6027 1.429 . S
C6008 H6032 0.950 . S
C6009 C6026 1.574 . S
C6009 C6028 1.368 . S
C6009 H6033 0.949 . S
H6010 C6014 0.949 . S
C6011 C6012 1.349 . S
C6011 C6013 1.327 . S
C6011 H6034 0.950 . S
C6012 C6011 1.349 . S
C6012 C6024 1.349 . S
C6013 C6011 1.327 . S
C6013 C6029 1.429 . S
C6013 H6035 0.950 . S
C6014 H6010 0.949 . S
C6014 C6022 1.574 . S
C6014 C6030 1.368 . S
H6015 C6023 0.950 . S
H6016 C6021 0.950 . S
H6017 C6022 0.949 . S
H6018 C6024 0.950 . S
H6019 C6025 0.950 . S
H6020 C6026 0.949 . S
C6021 H6016 0.950 . S
C6021 C6023 1.327 . S
C6021 C6027 1.429 . S
C6022 C6014 1.574 . S
C6022 H6017 0.949 . S
C6022 C6028 1.368 . S
C6023 C6007 1.349 . S
C6023 H6015 0.950 . S
C6023 C6021 1.327 . S
C6024 C6012 1.349 . S
C6024 H6018 0.950 . S
C6024 C6025 1.327 . S
C6025 H6019 0.950 . S
C6025 C6024 1.327 . S
C6025 C6029 1.429 . S
C6026 C6009 1.574 . S
C6026 H6020 0.949 . S
C6026 C6030 1.368 . S
C6027 C6008 1.429 . S
C6027 C6021 1.429 . S
C6027 C6028 1.523 . S
C6028 C6009 1.368 . S
C6028 C6022 1.368 . S
C6028 C6027 1.523 . S
C6029 C6013 1.429 . S
C6029 C6025 1.429 . S
C6029 C6030 1.523 . S
C6030 C6014 1.368 . S
C6030 C6026 1.368 . S
C6030 C6029 1.523 . S
H6031 C6006 0.950 . S
H6032 C6008 0.950 . S
H6033 C6009 0.949 . S
H6034 C6011 0.950 . S
H6035 C6013 0.950 . S
C6036 C6037 1.349 . S
C6036 C6038 1.327 . S
C6036 H6061 0.950 . S
C6037 C6036 1.349 . S
C6037 C6053 1.349 . S
C6038 C6036 1.327 . S
C6038 C6057 1.429 . S
C6038 H6062 0.950 . S
C6039 C6056 1.574 . S
C6039 C6058 1.368 . S
C6039 H6063 0.949 . S
H6040 C6044 0.949 . S
C6041 C6042 1.349 . S
C6041 C6043 1.327 . S
C6041 H6064 0.950 . S
C6042 C6041 1.349 . S
C6042 C6054 1.349 . S
C6043 C6041 1.327 . S
C6043 C6059 1.429 . S
C6043 H6065 0.950 . S
C6044 H6040 0.949 . S
C6044 C6052 1.574 . S
C6044 C6060 1.368 . S
H6045 C6053 0.950 . S
H6046 C6051 0.950 . S
H6047 C6052 0.949 . S
H6048 C6054 0.950 . S
H6049 C6055 0.950 . S
H6050 C6056 0.949 . S
C6051 H6046 0.950 . S
C6051 C6053 1.327 . S
C6051 C6057 1.429 . S
C6052 C6044 1.574 . S
C6052 H6047 0.949 . S
C6052 C6058 1.368 . S
C6053 C6037 1.349 . S
C6053 H6045 0.950 . S
C6053 C6051 1.327 . S
C6054 C6042 1.349 . S
C6054 H6048 0.950 . S
C6054 C6055 1.327 . S
C6055 H6049 0.950 . S
C6055 C6054 1.327 . S
C6055 C6059 1.429 . S
C6056 C6039 1.574 . S
C6056 H6050 0.949 . S
C6056 C6060 1.368 . S
C6057 C6038 1.429 . S
C6057 C6051 1.429 . S
C6057 C6058 1.523 . S
C6058 C6039 1.368 . S
C6058 C6052 1.368 . S
C6058 C6057 1.523 . S
C6059 C6043 1.429 . S
C6059 C6055 1.429 . S
C6059 C6060 1.523 . S
C6060 C6044 1.368 . S
C6060 C6056 1.368 . S
C6060 C6059 1.523 . S
H6061 C6036 0.950 . S
H6062 C6038 0.950 . S
H6063 C6039 0.949 . S
H6064 C6041 0.950 . S
H6065 C6043 0.950 . S
C6066 C6067 1.349 . S
C6066 C6068 1.327 . S
C6066 H6091 0.950 . S
C6067 C6066 1.349 . S
C6067 C6083 1.349 . S
C6068 C6066 1.327 . S
C6068 C6087 1.429 . S
C6068 H6092 0.950 . S
C6069 C6086 1.574 . S
C6069 C6088 1.368 . S
C6069 H6093 0.949 . S
H6070 C6074 0.949 . S
C6071 C6072 1.349 . S
C6071 C6073 1.327 . S
C6071 H6094 0.950 . S
C6072 C6071 1.349 . S
C6072 C6084 1.349 . S
C6073 C6071 1.327 . S
C6073 C6089 1.429 . S
C6073 H6095 0.950 . S
C6074 H6070 0.949 . S
C6074 C6082 1.574 . S
C6074 C6090 1.368 . S
H6075 C6083 0.950 . S
H6076 C6081 0.950 . S
H6077 C6082 0.949 . S
H6078 C6084 0.950 . S
H6079 C6085 0.950 . S
H6080 C6086 0.949 . S
C6081 H6076 0.950 . S
C6081 C6083 1.327 . S
C6081 C6087 1.429 . S
C6082 C6074 1.574 . S
C6082 H6077 0.949 . S
C6082 C6088 1.368 . S
C6083 C6067 1.349 . S
C6083 H6075 0.950 . S
C6083 C6081 1.327 . S
C6084 C6072 1.349 . S
C6084 H6078 0.950 . S
C6084 C6085 1.327 . S
C6085 H6079 0.950 . S
C6085 C6084 1.327 . S
C6085 C6089 1.429 . S
C6086 C6069 1.574 . S
C6086 H6080 0.949 . S
C6086 C6090 1.368 . S
C6087 C6068 1.429 . S
C6087 C6081 1.429 . S
C6087 C6088 1.523 . S
C6088 C6069 1.368 . S
C6088 C6082 1.368 . S
C6088 C6087 1.523 . S
C6089 C6073 1.429 . S
C6089 C6085 1.429 . S
C6089 C6090 1.523 . S
C6090 C6074 1.368 . S
C6090 C6086 1.368 . S
C6090 C6089 1.523 . S
H6091 C6066 0.950 . S
H6092 C6068 0.950 . S
H6093 C6069 0.949 . S
H6094 C6071 0.950 . S
H6095 C6073 0.950 . S
C6096 C6097 1.349 . S
C6096 C6098 1.327 . S
C6096 H6121 0.950 . S
C6097 C6096 1.349 . S
C6097 C6113 1.349 . S
C6098 C6096 1.327 . S
C6098 C6117 1.429 . S
C6098 H6122 0.950 . S
C6099 C6116 1.574 . S
C6099 C6118 1.368 . S
C6099 H6123 0.949 . S
H6100 C6104 0.949 . S
C6101 C6102 1.349 . S
C6101 C6103 1.327 . S
C6101 H6124 0.950 . S
C6102 C6101 1.349 . S
C6102 C6114 1.349 . S
C6103 C6101 1.327 . S
C6103 C6119 1.429 . S
C6103 H6125 0.950 . S
C6104 H6100 0.949 . S
C6104 C6112 1.574 . S
C6104 C6120 1.368 . S
H6105 C6113 0.950 . S
H6106 C6111 0.950 . S
H6107 C6112 0.949 . S
H6108 C6114 0.950 . S
H6109 C6115 0.950 . S
H6110 C6116 0.949 . S
C6111 H6106 0.950 . S
C6111 C6113 1.327 . S
C6111 C6117 1.429 . S
C6112 C6104 1.574 . S
C6112 H6107 0.949 . S
C6112 C6118 1.368 . S
C6113 C6097 1.349 . S
C6113 H6105 0.950 . S
C6113 C6111 1.327 . S
C6114 C6102 1.349 . S
C6114 H6108 0.950 . S
C6114 C6115 1.327 . S
C6115 H6109 0.950 . S
C6115 C6114 1.327 . S
C6115 C6119 1.429 . S
C6116 C6099 1.574 . S
C6116 H6110 0.949 . S
C6116 C6120 1.368 . S
C6117 C6098 1.429 . S
C6117 C6111 1.429 . S
C6117 C6118 1.523 . S
C6118 C6099 1.368 . S
C6118 C6112 1.368 . S
C6118 C6117 1.523 . S
C6119 C6103 1.429 . S
C6119 C6115 1.429 . S
C6119 C6120 1.523 . S
C6120 C6104 1.368 . S
C6120 C6116 1.368 . S
C6120 C6119 1.523 . S
H6121 C6096 0.950 . S
H6122 C6098 0.950 . S
H6123 C6099 0.949 . S
H6124 C6101 0.950 . S
H6125 C6103 0.950 . S
C6126 C6127 1.349 . S
C6126 C6128 1.327 . S
C6126 H6151 0.950 . S
C6127 C6126 1.349 . S
C6127 C6143 1.349 . S
C6128 C6126 1.327 . S
C6128 C6147 1.429 . S
C6128 H6152 0.950 . S
C6129 C6146 1.574 . S
C6129 C6148 1.368 . S
C6129 H6153 0.949 . S
H6130 C6134 0.949 . S
C6131 C6132 1.349 . S
C6131 C6133 1.327 . S
C6131 H6154 0.950 . S
C6132 C6131 1.349 . S
C6132 C6144 1.349 . S
C6133 C6131 1.327 . S
C6133 C6149 1.429 . S
C6133 H6155 0.950 . S
C6134 H6130 0.949 . S
C6134 C6142 1.574 . S
C6134 C6150 1.368 . S
H6135 C6143 0.950 . S
H6136 C6141 0.950 . S
H6137 C6142 0.949 . S
H6138 C6144 0.950 . S
H6139 C6145 0.950 . S
H6140 C6146 0.949 . S
C6141 H6136 0.950 . S
C6141 C6143 1.327 . S
C6141 C6147 1.429 . S
C6142 C6134 1.574 . S
C6142 H6137 0.949 . S
C6142 C6148 1.368 . S
C6143 C6127 1.349 . S
C6143 H6135 0.950 . S
C6143 C6141 1.327 . S
C6144 C6132 1.349 . S
C6144 H6138 0.950 . S
C6144 C6145 1.327 . S
C6145 H6139 0.950 . S
C6145 C6144 1.327 . S
C6145 C6149 1.429 . S
C6146 C6129 1.574 . S
C6146 H6140 0.949 . S
C6146 C6150 1.368 . S
C6147 C6128 1.429 . S
C6147 C6141 1.429 . S
C6147 C6148 1.523 . S
C6148 C6129 1.368 . S
C6148 C6142 1.368 . S
C6148 C6147 1.523 . S
C6149 C6133 1.429 . S
C6149 C6145 1.429 . S
C6149 C6150 1.523 . S
C6150 C6134 1.368 . S
C6150 C6146 1.368 . S
C6150 C6149 1.523 . S
H6151 C6126 0.950 . S
H6152 C6128 0.950 . S
H6153 C6129 0.949 . S
H6154 C6131 0.950 . S
H6155 C6133 0.950 . S
C6156 C6157 1.349 . S
C6156 C6158 1.327 . S
C6156 H6181 0.950 . S
C6157 C6156 1.349 . S
C6157 C6173 1.349 . S
C6158 C6156 1.327 . S
C6158 C6177 1.429 . S
C6158 H6182 0.950 . S
C6159 C6176 1.574 . S
C6159 C6178 1.368 . S
C6159 H6183 0.949 . S
H6160 C6164 0.949 . S
C6161 C6162 1.349 . S
C6161 C6163 1.327 . S
C6161 H6184 0.950 . S
C6162 C6161 1.349 . S
C6162 C6174 1.349 . S
C6163 C6161 1.327 . S
C6163 C6179 1.429 . S
C6163 H6185 0.950 . S
C6164 H6160 0.949 . S
C6164 C6172 1.574 . S
C6164 C6180 1.368 . S
H6165 C6173 0.950 . S
H6166 C6171 0.950 . S
H6167 C6172 0.949 . S
H6168 C6174 0.950 . S
H6169 C6175 0.950 . S
H6170 C6176 0.949 . S
C6171 H6166 0.950 . S
C6171 C6173 1.327 . S
C6171 C6177 1.429 . S
C6172 C6164 1.574 . S
C6172 H6167 0.949 . S
C6172 C6178 1.368 . S
C6173 C6157 1.349 . S
C6173 H6165 0.950 . S
C6173 C6171 1.327 . S
C6174 C6162 1.349 . S
C6174 H6168 0.950 . S
C6174 C6175 1.327 . S
C6175 H6169 0.950 . S
C6175 C6174 1.327 . S
C6175 C6179 1.429 . S
C6176 C6159 1.574 . S
C6176 H6170 0.949 . S
C6176 C6180 1.368 . S
C6177 C6158 1.429 . S
C6177 C6171 1.429 . S
C6177 C6178 1.523 . S
C6178 C6159 1.368 . S
C6178 C6172 1.368 . S
C6178 C6177 1.523 . S
C6179 C6163 1.429 . S
C6179 C6175 1.429 . S
C6179 C6180 1.523 . S
C6180 C6164 1.368 . S
C6180 C6176 1.368 . S
C6180 C6179 1.523 . S
H6181 C6156 0.950 . S
H6182 C6158 0.950 . S
H6183 C6159 0.949 . S
H6184 C6161 0.950 . S
H6185 C6163 0.950 . S
C6186 C6187 1.349 . S
C6186 C6188 1.327 . S
C6186 H6211 0.950 . S
C6187 C6186 1.349 . S
C6187 C6203 1.349 . S
C6188 C6186 1.327 . S
C6188 C6207 1.429 . S
C6188 H6212 0.950 . S
C6189 C6206 1.574 . S
C6189 C6208 1.368 . S
C6189 H6213 0.949 . S
H6190 C6194 0.949 . S
C6191 C6192 1.349 . S
C6191 C6193 1.327 . S
C6191 H6214 0.950 . S
C6192 C6191 1.349 . S
C6192 C6204 1.349 . S
C6193 C6191 1.327 . S
C6193 C6209 1.429 . S
C6193 H6215 0.950 . S
C6194 H6190 0.949 . S
C6194 C6202 1.574 . S
C6194 C6210 1.368 . S
H6195 C6203 0.950 . S
H6196 C6201 0.950 . S
H6197 C6202 0.949 . S
H6198 C6204 0.950 . S
H6199 C6205 0.950 . S
H6200 C6206 0.949 . S
C6201 H6196 0.950 . S
C6201 C6203 1.327 . S
C6201 C6207 1.429 . S
C6202 C6194 1.574 . S
C6202 H6197 0.949 . S
C6202 C6208 1.368 . S
C6203 C6187 1.349 . S
C6203 H6195 0.950 . S
C6203 C6201 1.327 . S
C6204 C6192 1.349 . S
C6204 H6198 0.950 . S
C6204 C6205 1.327 . S
C6205 H6199 0.950 . S
C6205 C6204 1.327 . S
C6205 C6209 1.429 . S
C6206 C6189 1.574 . S
C6206 H6200 0.949 . S
C6206 C6210 1.368 . S
C6207 C6188 1.429 . S
C6207 C6201 1.429 . S
C6207 C6208 1.523 . S
C6208 C6189 1.368 . S
C6208 C6202 1.368 . S
C6208 C6207 1.523 . S
C6209 C6193 1.429 . S
C6209 C6205 1.429 . S
C6209 C6210 1.523 . S
C6210 C6194 1.368 . S
C6210 C6206 1.368 . S
C6210 C6209 1.523 . S
H6211 C6186 0.950 . S
H6212 C6188 0.950 . S
H6213 C6189 0.949 . S
H6214 C6191 0.950 . S
H6215 C6193 0.950 . S
C6216 C6217 1.349 . S
C6216 C6218 1.327 . S
C6216 H6241 0.950 . S
C6217 C6216 1.349 . S
C6217 C6233 1.349 . S
C6218 C6216 1.327 . S
C6218 C6237 1.429 . S
C6218 H6242 0.950 . S
C6219 C6236 1.574 . S
C6219 C6238 1.368 . S
C6219 H6243 0.949 . S
H6220 C6224 0.949 . S
C6221 C6222 1.349 . S
C6221 C6223 1.327 . S
C6221 H6244 0.950 . S
C6222 C6221 1.349 . S
C6222 C6234 1.349 . S
C6223 C6221 1.327 . S
C6223 C6239 1.429 . S
C6223 H6245 0.950 . S
C6224 H6220 0.949 . S
C6224 C6232 1.574 . S
C6224 C6240 1.368 . S
H6225 C6233 0.950 . S
H6226 C6231 0.950 . S
H6227 C6232 0.949 . S
H6228 C6234 0.950 . S
H6229 C6235 0.950 . S
H6230 C6236 0.949 . S
C6231 H6226 0.950 . S
C6231 C6233 1.327 . S
C6231 C6237 1.429 . S
C6232 C6224 1.574 . S
C6232 H6227 0.949 . S
C6232 C6238 1.368 . S
C6233 C6217 1.349 . S
C6233 H6225 0.950 . S
C6233 C6231 1.327 . S
C6234 C6222 1.349 . S
C6234 H6228 0.950 . S
C6234 C6235 1.327 . S
C6235 H6229 0.950 . S
C6235 C6234 1.327 . S
C6235 C6239 1.429 . S
C6236 C6219 1.574 . S
C6236 H6230 0.949 . S
C6236 C6240 1.368 . S
C6237 C6218 1.429 . S
C6237 C6231 1.429 . S
C6237 C6238 1.523 . S
C6238 C6219 1.368 . S
C6238 C6232 1.368 . S
C6238 C6237 1.523 . S
C6239 C6223 1.429 . S
C6239 C6235 1.429 . S
C6239 C6240 1.523 . S
C6240 C6224 1.368 . S
C6240 C6236 1.368 . S
C6240 C6239 1.523 . S
H6241 C6216 0.950 . S
H6242 C6218 0.950 . S
H6243 C6219 0.949 . S
H6244 C6221 0.950 . S
H6245 C6223 0.950 . S
C6246 C6247 1.349 . S
C6246 C6248 1.327 . S
C6246 H6271 0.950 . S
C6247 C6246 1.349 . S
C6247 C6263 1.349 . S
C6248 C6246 1.327 . S
C6248 C6267 1.429 . S
C6248 H6272 0.950 . S
C6249 C6266 1.574 . S
C6249 C6268 1.368 . S
C6249 H6273 0.949 . S
H6250 C6254 0.949 . S
C6251 C6252 1.349 . S
C6251 C6253 1.327 . S
C6251 H6274 0.950 . S
C6252 C6251 1.349 . S
C6252 C6264 1.349 . S
C6253 C6251 1.327 . S
C6253 C6269 1.429 . S
C6253 H6275 0.950 . S
C6254 H6250 0.949 . S
C6254 C6262 1.574 . S
C6254 C6270 1.368 . S
H6255 C6263 0.950 . S
H6256 C6261 0.950 . S
H6257 C6262 0.949 . S
H6258 C6264 0.950 . S
H6259 C6265 0.950 . S
H6260 C6266 0.949 . S
C6261 H6256 0.950 . S
C6261 C6263 1.327 . S
C6261 C6267 1.429 . S
C6262 C6254 1.574 . S
C6262 H6257 0.949 . S
C6262 C6268 1.368 . S
C6263 C6247 1.349 . S
C6263 H6255 0.950 . S
C6263 C6261 1.327 . S
C6264 C6252 1.349 . S
C6264 H6258 0.950 . S
C6264 C6265 1.327 . S
C6265 H6259 0.950 . S
C6265 C6264 1.327 . S
C6265 C6269 1.429 . S
C6266 C6249 1.574 . S
C6266 H6260 0.949 . S
C6266 C6270 1.368 . S
C6267 C6248 1.429 . S
C6267 C6261 1.429 . S
C6267 C6268 1.523 . S
C6268 C6249 1.368 . S
C6268 C6262 1.368 . S
C6268 C6267 1.523 . S
C6269 C6253 1.429 . S
C6269 C6265 1.429 . S
C6269 C6270 1.523 . S
C6270 C6254 1.368 . S
C6270 C6266 1.368 . S
C6270 C6269 1.523 . S
H6271 C6246 0.950 . S
H6272 C6248 0.950 . S
H6273 C6249 0.949 . S
H6274 C6251 0.950 . S
H6275 C6253 0.950 . S
C6276 C6277 1.349 . S
C6276 C6278 1.327 . S
C6276 H6301 0.950 . S
C6277 C6276 1.349 . S
C6277 C6293 1.349 . S
C6278 C6276 1.327 . S
C6278 C6297 1.429 . S
C6278 H6302 0.950 . S
C6279 C6296 1.574 . S
C6279 C6298 1.368 . S
C6279 H6303 0.949 . S
H6280 C6284 0.949 . S
C6281 C6282 1.349 . S
C6281 C6283 1.327 . S
C6281 H6304 0.950 . S
C6282 C6281 1.349 . S
C6282 C6294 1.349 . S
C6283 C6281 1.327 . S
C6283 C6299 1.429 . S
C6283 H6305 0.950 . S
C6284 H6280 0.949 . S
C6284 C6292 1.574 . S
C6284 C6300 1.368 . S
H6285 C6293 0.950 . S
H6286 C6291 0.950 . S
H6287 C6292 0.949 . S
H6288 C6294 0.950 . S
H6289 C6295 0.950 . S
H6290 C6296 0.949 . S
C6291 H6286 0.950 . S
C6291 C6293 1.327 . S
C6291 C6297 1.429 . S
C6292 C6284 1.574 . S
C6292 H6287 0.949 . S
C6292 C6298 1.368 . S
C6293 C6277 1.349 . S
C6293 H6285 0.950 . S
C6293 C6291 1.327 . S
C6294 C6282 1.349 . S
C6294 H6288 0.950 . S
C6294 C6295 1.327 . S
C6295 H6289 0.950 . S
C6295 C6294 1.327 . S
C6295 C6299 1.429 . S
C6296 C6279 1.574 . S
C6296 H6290 0.949 . S
C6296 C6300 1.368 . S
C6297 C6278 1.429 . S
C6297 C6291 1.429 . S
C6297 C6298 1.523 . S
C6298 C6279 1.368 . S
C6298 C6292 1.368 . S
C6298 C6297 1.523 . S
C6299 C6283 1.429 . S
C6299 C6295 1.429 . S
C6299 C6300 1.523 . S
C6300 C6284 1.368 . S
C6300 C6296 1.368 . S
C6300 C6299 1.523 . S
H6301 C6276 0.950 . S
H6302 C6278 0.950 . S
H6303 C6279 0.949 . S
H6304 C6281 0.950 . S
H6305 C6283 0.950 . S
C6306 C6307 1.349 . S
C6306 C6308 1.327 . S
C6306 H6331 0.950 . S
C6307 C6306 1.349 . S
C6307 C6323 1.349 . S
C6308 C6306 1.327 . S
C6308 C6327 1.429 . S
C6308 H6332 0.950 . S
C6309 C6326 1.574 . S
C6309 C6328 1.368 . S
C6309 H6333 0.949 . S
H6310 C6314 0.949 . S
C6311 C6312 1.349 . S
C6311 C6313 1.327 . S
C6311 H6334 0.950 . S
C6312 C6311 1.349 . S
C6312 C6324 1.349 . S
C6313 C6311 1.327 . S
C6313 C6329 1.429 . S
C6313 H6335 0.950 . S
C6314 H6310 0.949 . S
C6314 C6322 1.574 . S
C6314 C6330 1.368 . S
H6315 C6323 0.950 . S
H6316 C6321 0.950 . S
H6317 C6322 0.949 . S
H6318 C6324 0.950 . S
H6319 C6325 0.950 . S
H6320 C6326 0.949 . S
C6321 H6316 0.950 . S
C6321 C6323 1.327 . S
C6321 C6327 1.429 . S
C6322 C6314 1.574 . S
C6322 H6317 0.949 . S
C6322 C6328 1.368 . S
C6323 C6307 1.349 . S
C6323 H6315 0.950 . S
C6323 C6321 1.327 . S
C6324 C6312 1.349 . S
C6324 H6318 0.950 . S
C6324 C6325 1.327 . S
C6325 H6319 0.950 . S
C6325 C6324 1.327 . S
C6325 C6329 1.429 . S
C6326 C6309 1.574 . S
C6326 H6320 0.949 . S
C6326 C6330 1.368 . S
C6327 C6308 1.429 . S
C6327 C6321 1.429 . S
C6327 C6328 1.523 . S
C6328 C6309 1.368 . S
C6328 C6322 1.368 . S
C6328 C6327 1.523 . S
C6329 C6313 1.429 . S
C6329 C6325 1.429 . S
C6329 C6330 1.523 . S
C6330 C6314 1.368 . S
C6330 C6326 1.368 . S
C6330 C6329 1.523 . S
H6331 C6306 0.950 . S
H6332 C6308 0.950 . S
H6333 C6309 0.949 . S
H6334 C6311 0.950 . S
H6335 C6313 0.950 . S
C6336 C6337 1.349 . S
C6336 C6338 1.327 . S
C6336 H6361 0.950 . S
C6337 C6336 1.349 . S
C6337 C6353 1.349 . S
C6338 C6336 1.327 . S
C6338 C6357 1.429 . S
C6338 H6362 0.950 . S
C6339 C6356 1.574 . S
C6339 C6358 1.368 . S
C6339 H6363 0.949 . S
H6340 C6344 0.949 . S
C6341 C6342 1.349 . S
C6341 C6343 1.327 . S
C6341 H6364 0.950 . S
C6342 C6341 1.349 . S
C6342 C6354 1.349 . S
C6343 C6341 1.327 . S
C6343 C6359 1.429 . S
C6343 H6365 0.950 . S
C6344 H6340 0.949 . S
C6344 C6352 1.574 . S
C6344 C6360 1.368 . S
H6345 C6353 0.950 . S
H6346 C6351 0.950 . S
H6347 C6352 0.949 . S
H6348 C6354 0.950 . S
H6349 C6355 0.950 . S
H6350 C6356 0.949 . S
C6351 H6346 0.950 . S
C6351 C6353 1.327 . S
C6351 C6357 1.429 . S
C6352 C6344 1.574 . S
C6352 H6347 0.949 . S
C6352 C6358 1.368 . S
C6353 C6337 1.349 . S
C6353 H6345 0.950 . S
C6353 C6351 1.327 . S
C6354 C6342 1.349 . S
C6354 H6348 0.950 . S
C6354 C6355 1.327 . S
C6355 H6349 0.950 . S
C6355 C6354 1.327 . S
C6355 C6359 1.429 . S
C6356 C6339 1.574 . S
C6356 H6350 0.949 . S
C6356 C6360 1.368 . S
C6357 C6338 1.429 . S
C6357 C6351 1.429 . S
C6357 C6358 1.523 . S
C6358 C6339 1.368 . S
C6358 C6352 1.368 . S
C6358 C6357 1.523 . S
C6359 C6343 1.429 . S
C6359 C6355 1.429 . S
C6359 C6360 1.523 . S
C6360 C6344 1.368 . S
C6360 C6356 1.368 . S
C6360 C6359 1.523 . S
H6361 C6336 0.950 . S
H6362 C6338 0.950 . S
H6363 C6339 0.949 . S
H6364 C6341 0.950 . S
H6365 C6343 0.950 . S
C6366 C6367 1.349 . S
C6366 C6368 1.327 . S
C6366 H6391 0.950 . S
C6367 C6366 1.349 . S
C6367 C6383 1.349 . S
C6368 C6366 1.327 . S
C6368 C6387 1.429 . S
C6368 H6392 0.950 . S
C6369 C6386 1.574 . S
C6369 C6388 1.368 . S
C6369 H6393 0.949 . S
H6370 C6374 0.949 . S
C6371 C6372 1.349 . S
C6371 C6373 1.327 . S
C6371 H6394 0.950 . S
C6372 C6371 1.349 . S
C6372 C6384 1.349 . S
C6373 C6371 1.327 . S
C6373 C6389 1.429 . S
C6373 H6395 0.950 . S
C6374 H6370 0.949 . S
C6374 C6382 1.574 . S
C6374 C6390 1.368 . S
H6375 C6383 0.950 . S
H6376 C6381 0.950 . S
H6377 C6382 0.949 . S
H6378 C6384 0.950 . S
H6379 C6385 0.950 . S
H6380 C6386 0.949 . S
C6381 H6376 0.950 . S
C6381 C6383 1.327 . S
C6381 C6387 1.429 . S
C6382 C6374 1.574 . S
C6382 H6377 0.949 . S
C6382 C6388 1.368 . S
C6383 C6367 1.349 . S
C6383 H6375 0.950 . S
C6383 C6381 1.327 . S
C6384 C6372 1.349 . S
C6384 H6378 0.950 . S
C6384 C6385 1.327 . S
C6385 H6379 0.950 . S
C6385 C6384 1.327 . S
C6385 C6389 1.429 . S
C6386 C6369 1.574 . S
C6386 H6380 0.949 . S
C6386 C6390 1.368 . S
C6387 C6368 1.429 . S
C6387 C6381 1.429 . S
C6387 C6388 1.523 . S
C6388 C6369 1.368 . S
C6388 C6382 1.368 . S
C6388 C6387 1.523 . S
C6389 C6373 1.429 . S
C6389 C6385 1.429 . S
C6389 C6390 1.523 . S
C6390 C6374 1.368 . S
C6390 C6386 1.368 . S
C6390 C6389 1.523 . S
H6391 C6366 0.950 . S
H6392 C6368 0.950 . S
H6393 C6369 0.949 . S
H6394 C6371 0.950 . S
H6395 C6373 0.950 . S
C6396 C6397 1.349 . S
C6396 C6398 1.327 . S
C6396 H6421 0.950 . S
C6397 C6396 1.349 . S
C6397 C6413 1.349 . S
C6398 C6396 1.327 . S
C6398 C6417 1.429 . S
C6398 H6422 0.950 . S
C6399 C6416 1.574 . S
C6399 C6418 1.368 . S
C6399 H6423 0.949 . S
H6400 C6404 0.949 . S
C6401 C6402 1.349 . S
C6401 C6403 1.327 . S
C6401 H6424 0.950 . S
C6402 C6401 1.349 . S
C6402 C6414 1.349 . S
C6403 C6401 1.327 . S
C6403 C6419 1.429 . S
C6403 H6425 0.950 . S
C6404 H6400 0.949 . S
C6404 C6412 1.574 . S
C6404 C6420 1.368 . S
H6405 C6413 0.950 . S
H6406 C6411 0.950 . S
H6407 C6412 0.949 . S
H6408 C6414 0.950 . S
H6409 C6415 0.950 . S
H6410 C6416 0.949 . S
C6411 H6406 0.950 . S
C6411 C6413 1.327 . S
C6411 C6417 1.429 . S
C6412 C6404 1.574 . S
C6412 H6407 0.949 . S
C6412 C6418 1.368 . S
C6413 C6397 1.349 . S
C6413 H6405 0.950 . S
C6413 C6411 1.327 . S
C6414 C6402 1.349 . S
C6414 H6408 0.950 . S
C6414 C6415 1.327 . S
C6415 H6409 0.950 . S
C6415 C6414 1.327 . S
C6415 C6419 1.429 . S
C6416 C6399 1.574 . S
C6416 H6410 0.949 . S
C6416 C6420 1.368 . S
C6417 C6398 1.429 . S
C6417 C6411 1.429 . S
C6417 C6418 1.523 . S
C6418 C6399 1.368 . S
C6418 C6412 1.368 . S
C6418 C6417 1.523 . S
C6419 C6403 1.429 . S
C6419 C6415 1.429 . S
C6419 C6420 1.523 . S
C6420 C6404 1.368 . S
C6420 C6416 1.368 . S
C6420 C6419 1.523 . S
H6421 C6396 0.950 . S
H6422 C6398 0.950 . S
H6423 C6399 0.949 . S
H6424 C6401 0.950 . S
H6425 C6403 0.950 . S
C6426 C6427 1.349 . S
C6426 C6428 1.327 . S
C6426 H6451 0.950 . S
C6427 C6426 1.349 . S
C6427 C6443 1.349 . S
C6428 C6426 1.327 . S
C6428 C6447 1.429 . S
C6428 H6452 0.950 . S
C6429 C6446 1.574 . S
C6429 C6448 1.368 . S
C6429 H6453 0.949 . S
H6430 C6434 0.949 . S
C6431 C6432 1.349 . S
C6431 C6433 1.327 . S
C6431 H6454 0.950 . S
C6432 C6431 1.349 . S
C6432 C6444 1.349 . S
C6433 C6431 1.327 . S
C6433 C6449 1.429 . S
C6433 H6455 0.950 . S
C6434 H6430 0.949 . S
C6434 C6442 1.574 . S
C6434 C6450 1.368 . S
H6435 C6443 0.950 . S
H6436 C6441 0.950 . S
H6437 C6442 0.949 . S
H6438 C6444 0.950 . S
H6439 C6445 0.950 . S
H6440 C6446 0.949 . S
C6441 H6436 0.950 . S
C6441 C6443 1.327 . S
C6441 C6447 1.429 . S
C6442 C6434 1.574 . S
C6442 H6437 0.949 . S
C6442 C6448 1.368 . S
C6443 C6427 1.349 . S
C6443 H6435 0.950 . S
C6443 C6441 1.327 . S
C6444 C6432 1.349 . S
C6444 H6438 0.950 . S
C6444 C6445 1.327 . S
C6445 H6439 0.950 . S
C6445 C6444 1.327 . S
C6445 C6449 1.429 . S
C6446 C6429 1.574 . S
C6446 H6440 0.949 . S
C6446 C6450 1.368 . S
C6447 C6428 1.429 . S
C6447 C6441 1.429 . S
C6447 C6448 1.523 . S
C6448 C6429 1.368 . S
C6448 C6442 1.368 . S
C6448 C6447 1.523 . S
C6449 C6433 1.429 . S
C6449 C6445 1.429 . S
C6449 C6450 1.523 . S
C6450 C6434 1.368 . S
C6450 C6446 1.368 . S
C6450 C6449 1.523 . S
H6451 C6426 0.950 . S
H6452 C6428 0.950 . S
H6453 C6429 0.949 . S
H6454 C6431 0.950 . S
H6455 C6433 0.950 . S
C6456 C6457 1.349 . S
C6456 C6458 1.327 . S
C6456 H6481 0.950 . S
C6457 C6456 1.349 . S
C6457 C6473 1.349 . S
C6458 C6456 1.327 . S
C6458 C6477 1.429 . S
C6458 H6482 0.950 . S
C6459 C6476 1.574 . S
C6459 C6478 1.368 . S
C6459 H6483 0.949 . S
H6460 C6464 0.949 . S
C6461 C6462 1.349 . S
C6461 C6463 1.327 . S
C6461 H6484 0.950 . S
C6462 C6461 1.349 . S
C6462 C6474 1.349 . S
C6463 C6461 1.327 . S
C6463 C6479 1.429 . S
C6463 H6485 0.950 . S
C6464 H6460 0.949 . S
C6464 C6472 1.574 . S
C6464 C6480 1.368 . S
H6465 C6473 0.950 . S
H6466 C6471 0.950 . S
H6467 C6472 0.949 . S
H6468 C6474 0.950 . S
H6469 C6475 0.950 . S
H6470 C6476 0.949 . S
C6471 H6466 0.950 . S
C6471 C6473 1.327 . S
C6471 C6477 1.429 . S
C6472 C6464 1.574 . S
C6472 H6467 0.949 . S
C6472 C6478 1.368 . S
C6473 C6457 1.349 . S
C6473 H6465 0.950 . S
C6473 C6471 1.327 . S
C6474 C6462 1.349 . S
C6474 H6468 0.950 . S
C6474 C6475 1.327 . S
C6475 H6469 0.950 . S
C6475 C6474 1.327 . S
C6475 C6479 1.429 . S
C6476 C6459 1.574 . S
C6476 H6470 0.949 . S
C6476 C6480 1.368 . S
C6477 C6458 1.429 . S
C6477 C6471 1.429 . S
C6477 C6478 1.523 . S
C6478 C6459 1.368 . S
C6478 C6472 1.368 . S
C6478 C6477 1.523 . S
C6479 C6463 1.429 . S
C6479 C6475 1.429 . S
C6479 C6480 1.523 . S
C6480 C6464 1.368 . S
C6480 C6476 1.368 . S
C6480 C6479 1.523 . S
H6481 C6456 0.950 . S
H6482 C6458 0.950 . S
H6483 C6459 0.949 . S
H6484 C6461 0.950 . S
H6485 C6463 0.950 . S
C6486 C6487 1.349 . S
C6486 C6488 1.327 . S
C6486 H6511 0.950 . S
C6487 C6486 1.349 . S
C6487 C6503 1.349 . S
C6488 C6486 1.327 . S
C6488 C6507 1.429 . S
C6488 H6512 0.950 . S
C6489 C6506 1.574 . S
C6489 C6508 1.368 . S
C6489 H6513 0.949 . S
H6490 C6494 0.949 . S
C6491 C6492 1.349 . S
C6491 C6493 1.327 . S
C6491 H6514 0.950 . S
C6492 C6491 1.349 . S
C6492 C6504 1.349 . S
C6493 C6491 1.327 . S
C6493 C6509 1.429 . S
C6493 H6515 0.950 . S
C6494 H6490 0.949 . S
C6494 C6502 1.574 . S
C6494 C6510 1.368 . S
H6495 C6503 0.950 . S
H6496 C6501 0.950 . S
H6497 C6502 0.949 . S
H6498 C6504 0.950 . S
H6499 C6505 0.950 . S
H6500 C6506 0.949 . S
C6501 H6496 0.950 . S
C6501 C6503 1.327 . S
C6501 C6507 1.429 . S
C6502 C6494 1.574 . S
C6502 H6497 0.949 . S
C6502 C6508 1.368 . S
C6503 C6487 1.349 . S
C6503 H6495 0.950 . S
C6503 C6501 1.327 . S
C6504 C6492 1.349 . S
C6504 H6498 0.950 . S
C6504 C6505 1.327 . S
C6505 H6499 0.950 . S
C6505 C6504 1.327 . S
C6505 C6509 1.429 . S
C6506 C6489 1.574 . S
C6506 H6500 0.949 . S
C6506 C6510 1.368 . S
C6507 C6488 1.429 . S
C6507 C6501 1.429 . S
C6507 C6508 1.523 . S
C6508 C6489 1.368 . S
C6508 C6502 1.368 . S
C6508 C6507 1.523 . S
C6509 C6493 1.429 . S
C6509 C6505 1.429 . S
C6509 C6510 1.523 . S
C6510 C6494 1.368 . S
C6510 C6506 1.368 . S
C6510 C6509 1.523 . S
H6511 C6486 0.950 . S
H6512 C6488 0.950 . S
H6513 C6489 0.949 . S
H6514 C6491 0.950 . S
H6515 C6493 0.950 . S
C6516 C6517 1.349 . S
C6516 C6518 1.327 . S
C6516 H6541 0.950 . S
C6517 C6516 1.349 . S
C6517 C6533 1.349 . S
C6518 C6516 1.327 . S
C6518 C6537 1.429 . S
C6518 H6542 0.950 . S
C6519 C6536 1.574 . S
C6519 C6538 1.368 . S
C6519 H6543 0.949 . S
H6520 C6524 0.949 . S
C6521 C6522 1.349 . S
C6521 C6523 1.327 . S
C6521 H6544 0.950 . S
C6522 C6521 1.349 . S
C6522 C6534 1.349 . S
C6523 C6521 1.327 . S
C6523 C6539 1.429 . S
C6523 H6545 0.950 . S
C6524 H6520 0.949 . S
C6524 C6532 1.574 . S
C6524 C6540 1.368 . S
H6525 C6533 0.950 . S
H6526 C6531 0.950 . S
H6527 C6532 0.949 . S
H6528 C6534 0.950 . S
H6529 C6535 0.950 . S
H6530 C6536 0.949 . S
C6531 H6526 0.950 . S
C6531 C6533 1.327 . S
C6531 C6537 1.429 . S
C6532 C6524 1.574 . S
C6532 H6527 0.949 . S
C6532 C6538 1.368 . S
C6533 C6517 1.349 . S
C6533 H6525 0.950 . S
C6533 C6531 1.327 . S
C6534 C6522 1.349 . S
C6534 H6528 0.950 . S
C6534 C6535 1.327 . S
C6535 H6529 0.950 . S
C6535 C6534 1.327 . S
C6535 C6539 1.429 . S
C6536 C6519 1.574 . S
C6536 H6530 0.949 . S
C6536 C6540 1.368 . S
C6537 C6518 1.429 . S
C6537 C6531 1.429 . S
C6537 C6538 1.523 . S
C6538 C6519 1.368 . S
C6538 C6532 1.368 . S
C6538 C6537 1.523 . S
C6539 C6523 1.429 . S
C6539 C6535 1.429 . S
C6539 C6540 1.523 . S
C6540 C6524 1.368 . S
C6540 C6536 1.368 . S
C6540 C6539 1.523 . S
H6541 C6516 0.950 . S
H6542 C6518 0.950 . S
H6543 C6519 0.949 . S
H6544 C6521 0.950 . S
H6545 C6523 0.950 . S
C6546 C6547 1.349 . S
C6546 C6548 1.327 . S
C6546 H6571 0.950 . S
C6547 C6546 1.349 . S
C6547 C6563 1.349 . S
C6548 C6546 1.327 . S
C6548 C6567 1.429 . S
C6548 H6572 0.950 . S
C6549 C6566 1.574 . S
C6549 C6568 1.368 . S
C6549 H6573 0.949 . S
H6550 C6554 0.949 . S
C6551 C6552 1.349 . S
C6551 C6553 1.327 . S
C6551 H6574 0.950 . S
C6552 C6551 1.349 . S
C6552 C6564 1.349 . S
C6553 C6551 1.327 . S
C6553 C6569 1.429 . S
C6553 H6575 0.950 . S
C6554 H6550 0.949 . S
C6554 C6562 1.574 . S
C6554 C6570 1.368 . S
H6555 C6563 0.950 . S
H6556 C6561 0.950 . S
H6557 C6562 0.949 . S
H6558 C6564 0.950 . S
H6559 C6565 0.950 . S
H6560 C6566 0.949 . S
C6561 H6556 0.950 . S
C6561 C6563 1.327 . S
C6561 C6567 1.429 . S
C6562 C6554 1.574 . S
C6562 H6557 0.949 . S
C6562 C6568 1.368 . S
C6563 C6547 1.349 . S
C6563 H6555 0.950 . S
C6563 C6561 1.327 . S
C6564 C6552 1.349 . S
C6564 H6558 0.950 . S
C6564 C6565 1.327 . S
C6565 H6559 0.950 . S
C6565 C6564 1.327 . S
C6565 C6569 1.429 . S
C6566 C6549 1.574 . S
C6566 H6560 0.949 . S
C6566 C6570 1.368 . S
C6567 C6548 1.429 . S
C6567 C6561 1.429 . S
C6567 C6568 1.523 . S
C6568 C6549 1.368 . S
C6568 C6562 1.368 . S
C6568 C6567 1.523 . S
C6569 C6553 1.429 . S
C6569 C6565 1.429 . S
C6569 C6570 1.523 . S
C6570 C6554 1.368 . S
C6570 C6566 1.368 . S
C6570 C6569 1.523 . S
H6571 C6546 0.950 . S
H6572 C6548 0.950 . S
H6573 C6549 0.949 . S
H6574 C6551 0.950 . S
H6575 C6553 0.950 . S
C6576 C6577 1.349 . S
C6576 C6578 1.327 . S
C6576 H6601 0.950 . S
C6577 C6576 1.349 . S
C6577 C6593 1.349 . S
C6578 C6576 1.327 . S
C6578 C6597 1.429 . S
C6578 H6602 0.950 . S
C6579 C6596 1.574 . S
C6579 C6598 1.368 . S
C6579 H6603 0.949 . S
H6580 C6584 0.949 . S
C6581 C6582 1.349 . S
C6581 C6583 1.327 . S
C6581 H6604 0.950 . S
C6582 C6581 1.349 . S
C6582 C6594 1.349 . S
C6583 C6581 1.327 . S
C6583 C6599 1.429 . S
C6583 H6605 0.950 . S
C6584 H6580 0.949 . S
C6584 C6592 1.574 . S
C6584 C6600 1.368 . S
H6585 C6593 0.950 . S
H6586 C6591 0.950 . S
H6587 C6592 0.949 . S
H6588 C6594 0.950 . S
H6589 C6595 0.950 . S
H6590 C6596 0.949 . S
C6591 H6586 0.950 . S
C6591 C6593 1.327 . S
C6591 C6597 1.429 . S
C6592 C6584 1.574 . S
C6592 H6587 0.949 . S
C6592 C6598 1.368 . S
C6593 C6577 1.349 . S
C6593 H6585 0.950 . S
C6593 C6591 1.327 . S
C6594 C6582 1.349 . S
C6594 H6588 0.950 . S
C6594 C6595 1.327 . S
C6595 H6589 0.950 . S
C6595 C6594 1.327 . S
C6595 C6599 1.429 . S
C6596 C6579 1.574 . S
C6596 H6590 0.949 . S
C6596 C6600 1.368 . S
C6597 C6578 1.429 . S
C6597 C6591 1.429 . S
C6597 C6598 1.523 . S
C6598 C6579 1.368 . S
C6598 C6592 1.368 . S
C6598 C6597 1.523 . S
C6599 C6583 1.429 . S
C6599 C6595 1.429 . S
C6599 C6600 1.523 . S
C6600 C6584 1.368 . S
C6600 C6596 1.368 . S
C6600 C6599 1.523 . S
H6601 C6576 0.950 . S
H6602 C6578 0.950 . S
H6603 C6579 0.949 . S
H6604 C6581 0.950 . S
H6605 C6583 0.950 . S
C6606 C6607 1.349 . S
C6606 C6608 1.327 . S
C6606 H6631 0.950 . S
C6607 C6606 1.349 . S
C6607 C6623 1.349 . S
C6608 C6606 1.327 . S
C6608 C6627 1.429 . S
C6608 H6632 0.950 . S
C6609 C6626 1.574 . S
C6609 C6628 1.368 . S
C6609 H6633 0.949 . S
H6610 C6614 0.949 . S
C6611 C6612 1.349 . S
C6611 C6613 1.327 . S
C6611 H6634 0.950 . S
C6612 C6611 1.349 . S
C6612 C6624 1.349 . S
C6613 C6611 1.327 . S
C6613 C6629 1.429 . S
C6613 H6635 0.950 . S
C6614 H6610 0.949 . S
C6614 C6622 1.574 . S
C6614 C6630 1.368 . S
H6615 C6623 0.950 . S
H6616 C6621 0.950 . S
H6617 C6622 0.949 . S
H6618 C6624 0.950 . S
H6619 C6625 0.950 . S
H6620 C6626 0.949 . S
C6621 H6616 0.950 . S
C6621 C6623 1.327 . S
C6621 C6627 1.429 . S
C6622 C6614 1.574 . S
C6622 H6617 0.949 . S
C6622 C6628 1.368 . S
C6623 C6607 1.349 . S
C6623 H6615 0.950 . S
C6623 C6621 1.327 . S
C6624 C6612 1.349 . S
C6624 H6618 0.950 . S
C6624 C6625 1.327 . S
C6625 H6619 0.950 . S
C6625 C6624 1.327 . S
C6625 C6629 1.429 . S
C6626 C6609 1.574 . S
C6626 H6620 0.949 . S
C6626 C6630 1.368 . S
C6627 C6608 1.429 . S
C6627 C6621 1.429 . S
C6627 C6628 1.523 . S
C6628 C6609 1.368 . S
C6628 C6622 1.368 . S
C6628 C6627 1.523 . S
C6629 C6613 1.429 . S
C6629 C6625 1.429 . S
C6629 C6630 1.523 . S
C6630 C6614 1.368 . S
C6630 C6626 1.368 . S
C6630 C6629 1.523 . S
H6631 C6606 0.950 . S
H6632 C6608 0.950 . S
H6633 C6609 0.949 . S
H6634 C6611 0.950 . S
H6635 C6613 0.950 . S
C6636 C6637 1.349 . S
C6636 C6638 1.327 . S
C6636 H6661 0.950 . S
C6637 C6636 1.349 . S
C6637 C6653 1.349 . S
C6638 C6636 1.327 . S
C6638 C6657 1.429 . S
C6638 H6662 0.950 . S
C6639 C6656 1.574 . S
C6639 C6658 1.368 . S
C6639 H6663 0.949 . S
H6640 C6644 0.949 . S
C6641 C6642 1.349 . S
C6641 C6643 1.327 . S
C6641 H6664 0.950 . S
C6642 C6641 1.349 . S
C6642 C6654 1.349 . S
C6643 C6641 1.327 . S
C6643 C6659 1.429 . S
C6643 H6665 0.950 . S
C6644 H6640 0.949 . S
C6644 C6652 1.574 . S
C6644 C6660 1.368 . S
H6645 C6653 0.950 . S
H6646 C6651 0.950 . S
H6647 C6652 0.949 . S
H6648 C6654 0.950 . S
H6649 C6655 0.950 . S
H6650 C6656 0.949 . S
C6651 H6646 0.950 . S
C6651 C6653 1.327 . S
C6651 C6657 1.429 . S
C6652 C6644 1.574 . S
C6652 H6647 0.949 . S
C6652 C6658 1.368 . S
C6653 C6637 1.349 . S
C6653 H6645 0.950 . S
C6653 C6651 1.327 . S
C6654 C6642 1.349 . S
C6654 H6648 0.950 . S
C6654 C6655 1.327 . S
C6655 H6649 0.950 . S
C6655 C6654 1.327 . S
C6655 C6659 1.429 . S
C6656 C6639 1.574 . S
C6656 H6650 0.949 . S
C6656 C6660 1.368 . S
C6657 C6638 1.429 . S
C6657 C6651 1.429 . S
C6657 C6658 1.523 . S
C6658 C6639 1.368 . S
C6658 C6652 1.368 . S
C6658 C6657 1.523 . S
C6659 C6643 1.429 . S
C6659 C6655 1.429 . S
C6659 C6660 1.523 . S
C6660 C6644 1.368 . S
C6660 C6656 1.368 . S
C6660 C6659 1.523 . S
H6661 C6636 0.950 . S
H6662 C6638 0.950 . S
H6663 C6639 0.949 . S
H6664 C6641 0.950 . S
H6665 C6643 0.950 . S
C6666 C6667 1.349 . S
C6666 C6668 1.327 . S
C6666 H6691 0.950 . S
C6667 C6666 1.349 . S
C6667 C6683 1.349 . S
C6668 C6666 1.327 . S
C6668 C6687 1.429 . S
C6668 H6692 0.950 . S
C6669 C6686 1.574 . S
C6669 C6688 1.368 . S
C6669 H6693 0.949 . S
H6670 C6674 0.949 . S
C6671 C6672 1.349 . S
C6671 C6673 1.327 . S
C6671 H6694 0.950 . S
C6672 C6671 1.349 . S
C6672 C6684 1.349 . S
C6673 C6671 1.327 . S
C6673 C6689 1.429 . S
C6673 H6695 0.950 . S
C6674 H6670 0.949 . S
C6674 C6682 1.574 . S
C6674 C6690 1.368 . S
H6675 C6683 0.950 . S
H6676 C6681 0.950 . S
H6677 C6682 0.949 . S
H6678 C6684 0.950 . S
H6679 C6685 0.950 . S
H6680 C6686 0.949 . S
C6681 H6676 0.950 . S
C6681 C6683 1.327 . S
C6681 C6687 1.429 . S
C6682 C6674 1.574 . S
C6682 H6677 0.949 . S
C6682 C6688 1.368 . S
C6683 C6667 1.349 . S
C6683 H6675 0.950 . S
C6683 C6681 1.327 . S
C6684 C6672 1.349 . S
C6684 H6678 0.950 . S
C6684 C6685 1.327 . S
C6685 H6679 0.950 . S
C6685 C6684 1.327 . S
C6685 C6689 1.429 . S
C6686 C6669 1.574 . S
C6686 H6680 0.949 . S
C6686 C6690 1.368 . S
C6687 C6668 1.429 . S
C6687 C6681 1.429 . S
C6687 C6688 1.523 . S
C6688 C6669 1.368 . S
C6688 C6682 1.368 . S
C6688 C6687 1.523 . S
C6689 C6673 1.429 . S
C6689 C6685 1.429 . S
C6689 C6690 1.523 . S
C6690 C6674 1.368 . S
C6690 C6686 1.368 . S
C6690 C6689 1.523 . S
H6691 C6666 0.950 . S
H6692 C6668 0.950 . S
H6693 C6669 0.949 . S
H6694 C6671 0.950 . S
H6695 C6673 0.950 . S
C6696 C6697 1.349 . S
C6696 C6698 1.327 . S
C6696 H6721 0.950 . S
C6697 C6696 1.349 . S
C6697 C6713 1.349 . S
C6698 C6696 1.327 . S
C6698 C6717 1.429 . S
C6698 H6722 0.950 . S
C6699 C6716 1.574 . S
C6699 C6718 1.368 . S
C6699 H6723 0.949 . S
H6700 C6704 0.949 . S
C6701 C6702 1.349 . S
C6701 C6703 1.327 . S
C6701 H6724 0.950 . S
C6702 C6701 1.349 . S
C6702 C6714 1.349 . S
C6703 C6701 1.327 . S
C6703 C6719 1.429 . S
C6703 H6725 0.950 . S
C6704 H6700 0.949 . S
C6704 C6712 1.574 . S
C6704 C6720 1.368 . S
H6705 C6713 0.950 . S
H6706 C6711 0.950 . S
H6707 C6712 0.949 . S
H6708 C6714 0.950 . S
H6709 C6715 0.950 . S
H6710 C6716 0.949 . S
C6711 H6706 0.950 . S
C6711 C6713 1.327 . S
C6711 C6717 1.429 . S
C6712 C6704 1.574 . S
C6712 H6707 0.949 . S
C6712 C6718 1.368 . S
C6713 C6697 1.349 . S
C6713 H6705 0.950 . S
C6713 C6711 1.327 . S
C6714 C6702 1.349 . S
C6714 H6708 0.950 . S
C6714 C6715 1.327 . S
C6715 H6709 0.950 . S
C6715 C6714 1.327 . S
C6715 C6719 1.429 . S
C6716 C6699 1.574 . S
C6716 H6710 0.949 . S
C6716 C6720 1.368 . S
C6717 C6698 1.429 . S
C6717 C6711 1.429 . S
C6717 C6718 1.523 . S
C6718 C6699 1.368 . S
C6718 C6712 1.368 . S
C6718 C6717 1.523 . S
C6719 C6703 1.429 . S
C6719 C6715 1.429 . S
C6719 C6720 1.523 . S
C6720 C6704 1.368 . S
C6720 C6716 1.368 . S
C6720 C6719 1.523 . S
H6721 C6696 0.950 . S
H6722 C6698 0.950 . S
H6723 C6699 0.949 . S
H6724 C6701 0.950 . S
H6725 C6703 0.950 . S
C6726 C6727 1.349 . S
C6726 C6728 1.327 . S
C6726 H6751 0.950 . S
C6727 C6726 1.349 . S
C6727 C6743 1.349 . S
C6728 C6726 1.327 . S
C6728 C6747 1.429 . S
C6728 H6752 0.950 . S
C6729 C6746 1.574 . S
C6729 C6748 1.368 . S
C6729 H6753 0.949 . S
H6730 C6734 0.949 . S
C6731 C6732 1.349 . S
C6731 C6733 1.327 . S
C6731 H6754 0.950 . S
C6732 C6731 1.349 . S
C6732 C6744 1.349 . S
C6733 C6731 1.327 . S
C6733 C6749 1.429 . S
C6733 H6755 0.950 . S
C6734 H6730 0.949 . S
C6734 C6742 1.574 . S
C6734 C6750 1.368 . S
H6735 C6743 0.950 . S
H6736 C6741 0.950 . S
H6737 C6742 0.949 . S
H6738 C6744 0.950 . S
H6739 C6745 0.950 . S
H6740 C6746 0.949 . S
C6741 H6736 0.950 . S
C6741 C6743 1.327 . S
C6741 C6747 1.429 . S
C6742 C6734 1.574 . S
C6742 H6737 0.949 . S
C6742 C6748 1.368 . S
C6743 C6727 1.349 . S
C6743 H6735 0.950 . S
C6743 C6741 1.327 . S
C6744 C6732 1.349 . S
C6744 H6738 0.950 . S
C6744 C6745 1.327 . S
C6745 H6739 0.950 . S
C6745 C6744 1.327 . S
C6745 C6749 1.429 . S
C6746 C6729 1.574 . S
C6746 H6740 0.949 . S
C6746 C6750 1.368 . S
C6747 C6728 1.429 . S
C6747 C6741 1.429 . S
C6747 C6748 1.523 . S
C6748 C6729 1.368 . S
C6748 C6742 1.368 . S
C6748 C6747 1.523 . S
C6749 C6733 1.429 . S
C6749 C6745 1.429 . S
C6749 C6750 1.523 . S
C6750 C6734 1.368 . S
C6750 C6746 1.368 . S
C6750 C6749 1.523 . S
H6751 C6726 0.950 . S
H6752 C6728 0.950 . S
H6753 C6729 0.949 . S
H6754 C6731 0.950 . S
H6755 C6733 0.950 . S
C6756 C6757 1.349 . S
C6756 C6758 1.327 . S
C6756 H6781 0.950 . S
C6757 C6756 1.349 . S
C6757 C6773 1.349 . S
C6758 C6756 1.327 . S
C6758 C6777 1.429 . S
C6758 H6782 0.950 . S
C6759 C6776 1.574 . S
C6759 C6778 1.368 . S
C6759 H6783 0.949 . S
H6760 C6764 0.949 . S
C6761 C6762 1.349 . S
C6761 C6763 1.327 . S
C6761 H6784 0.950 . S
C6762 C6761 1.349 . S
C6762 C6774 1.349 . S
C6763 C6761 1.327 . S
C6763 C6779 1.429 . S
C6763 H6785 0.950 . S
C6764 H6760 0.949 . S
C6764 C6772 1.574 . S
C6764 C6780 1.368 . S
H6765 C6773 0.950 . S
H6766 C6771 0.950 . S
H6767 C6772 0.949 . S
H6768 C6774 0.950 . S
H6769 C6775 0.950 . S
H6770 C6776 0.949 . S
C6771 H6766 0.950 . S
C6771 C6773 1.327 . S
C6771 C6777 1.429 . S
C6772 C6764 1.574 . S
C6772 H6767 0.949 . S
C6772 C6778 1.368 . S
C6773 C6757 1.349 . S
C6773 H6765 0.950 . S
C6773 C6771 1.327 . S
C6774 C6762 1.349 . S
C6774 H6768 0.950 . S
C6774 C6775 1.327 . S
C6775 H6769 0.950 . S
C6775 C6774 1.327 . S
C6775 C6779 1.429 . S
C6776 C6759 1.574 . S
C6776 H6770 0.949 . S
C6776 C6780 1.368 . S
C6777 C6758 1.429 . S
C6777 C6771 1.429 . S
C6777 C6778 1.523 . S
C6778 C6759 1.368 . S
C6778 C6772 1.368 . S
C6778 C6777 1.523 . S
C6779 C6763 1.429 . S
C6779 C6775 1.429 . S
C6779 C6780 1.523 . S
C6780 C6764 1.368 . S
C6780 C6776 1.368 . S
C6780 C6779 1.523 . S
H6781 C6756 0.950 . S
H6782 C6758 0.950 . S
H6783 C6759 0.949 . S
H6784 C6761 0.950 . S
H6785 C6763 0.950 . S
C6786 C6787 1.349 . S
C6786 C6788 1.327 . S
C6786 H6811 0.950 . S
C6787 C6786 1.349 . S
C6787 C6803 1.349 . S
C6788 C6786 1.327 . S
C6788 C6807 1.429 . S
C6788 H6812 0.950 . S
C6789 C6806 1.574 . S
C6789 C6808 1.368 . S
C6789 H6813 0.949 . S
H6790 C6794 0.949 . S
C6791 C6792 1.349 . S
C6791 C6793 1.327 . S
C6791 H6814 0.950 . S
C6792 C6791 1.349 . S
C6792 C6804 1.349 . S
C6793 C6791 1.327 . S
C6793 C6809 1.429 . S
C6793 H6815 0.950 . S
C6794 H6790 0.949 . S
C6794 C6802 1.574 . S
C6794 C6810 1.368 . S
H6795 C6803 0.950 . S
H6796 C6801 0.950 . S
H6797 C6802 0.949 . S
H6798 C6804 0.950 . S
H6799 C6805 0.950 . S
H6800 C6806 0.949 . S
C6801 H6796 0.950 . S
C6801 C6803 1.327 . S
C6801 C6807 1.429 . S
C6802 C6794 1.574 . S
C6802 H6797 0.949 . S
C6802 C6808 1.368 . S
C6803 C6787 1.349 . S
C6803 H6795 0.950 . S
C6803 C6801 1.327 . S
C6804 C6792 1.349 . S
C6804 H6798 0.950 . S
C6804 C6805 1.327 . S
C6805 H6799 0.950 . S
C6805 C6804 1.327 . S
C6805 C6809 1.429 . S
C6806 C6789 1.574 . S
C6806 H6800 0.949 . S
C6806 C6810 1.368 . S
C6807 C6788 1.429 . S
C6807 C6801 1.429 . S
C6807 C6808 1.523 . S
C6808 C6789 1.368 . S
C6808 C6802 1.368 . S
C6808 C6807 1.523 . S
C6809 C6793 1.429 . S
C6809 C6805 1.429 . S
C6809 C6810 1.523 . S
C6810 C6794 1.368 . S
C6810 C6806 1.368 . S
C6810 C6809 1.523 . S
H6811 C6786 0.950 . S
H6812 C6788 0.950 . S
H6813 C6789 0.949 . S
H6814 C6791 0.950 . S
H6815 C6793 0.950 . S
C6816 C6817 1.349 . S
C6816 C6818 1.327 . S
C6816 H6841 0.950 . S
C6817 C6816 1.349 . S
C6817 C6833 1.349 . S
C6818 C6816 1.327 . S
C6818 C6837 1.429 . S
C6818 H6842 0.950 . S
C6819 C6836 1.574 . S
C6819 C6838 1.368 . S
C6819 H6843 0.949 . S
H6820 C6824 0.949 . S
C6821 C6822 1.349 . S
C6821 C6823 1.327 . S
C6821 H6844 0.950 . S
C6822 C6821 1.349 . S
C6822 C6834 1.349 . S
C6823 C6821 1.327 . S
C6823 C6839 1.429 . S
C6823 H6845 0.950 . S
C6824 H6820 0.949 . S
C6824 C6832 1.574 . S
C6824 C6840 1.368 . S
H6825 C6833 0.950 . S
H6826 C6831 0.950 . S
H6827 C6832 0.949 . S
H6828 C6834 0.950 . S
H6829 C6835 0.950 . S
H6830 C6836 0.949 . S
C6831 H6826 0.950 . S
C6831 C6833 1.327 . S
C6831 C6837 1.429 . S
C6832 C6824 1.574 . S
C6832 H6827 0.949 . S
C6832 C6838 1.368 . S
C6833 C6817 1.349 . S
C6833 H6825 0.950 . S
C6833 C6831 1.327 . S
C6834 C6822 1.349 . S
C6834 H6828 0.950 . S
C6834 C6835 1.327 . S
C6835 H6829 0.950 . S
C6835 C6834 1.327 . S
C6835 C6839 1.429 . S
C6836 C6819 1.574 . S
C6836 H6830 0.949 . S
C6836 C6840 1.368 . S
C6837 C6818 1.429 . S
C6837 C6831 1.429 . S
C6837 C6838 1.523 . S
C6838 C6819 1.368 . S
C6838 C6832 1.368 . S
C6838 C6837 1.523 . S
C6839 C6823 1.429 . S
C6839 C6835 1.429 . S
C6839 C6840 1.523 . S
C6840 C6824 1.368 . S
C6840 C6836 1.368 . S
C6840 C6839 1.523 . S
H6841 C6816 0.950 . S
H6842 C6818 0.950 . S
H6843 C6819 0.949 . S
H6844 C6821 0.950 . S
H6845 C6823 0.950 . S
C6846 C6847 1.349 . S
C6846 C6848 1.327 . S
C6846 H6871 0.950 . S
C6847 C6846 1.349 . S
C6847 C6863 1.349 . S
C6848 C6846 1.327 . S
C6848 C6867 1.429 . S
C6848 H6872 0.950 . S
C6849 C6866 1.574 . S
C6849 C6868 1.368 . S
C6849 H6873 0.949 . S
H6850 C6854 0.949 . S
C6851 C6852 1.349 . S
C6851 C6853 1.327 . S
C6851 H6874 0.950 . S
C6852 C6851 1.349 . S
C6852 C6864 1.349 . S
C6853 C6851 1.327 . S
C6853 C6869 1.429 . S
C6853 H6875 0.950 . S
C6854 H6850 0.949 . S
C6854 C6862 1.574 . S
C6854 C6870 1.368 . S
H6855 C6863 0.950 . S
H6856 C6861 0.950 . S
H6857 C6862 0.949 . S
H6858 C6864 0.950 . S
H6859 C6865 0.950 . S
H6860 C6866 0.949 . S
C6861 H6856 0.950 . S
C6861 C6863 1.327 . S
C6861 C6867 1.429 . S
C6862 C6854 1.574 . S
C6862 H6857 0.949 . S
C6862 C6868 1.368 . S
C6863 C6847 1.349 . S
C6863 H6855 0.950 . S
C6863 C6861 1.327 . S
C6864 C6852 1.349 . S
C6864 H6858 0.950 . S
C6864 C6865 1.327 . S
C6865 H6859 0.950 . S
C6865 C6864 1.327 . S
C6865 C6869 1.429 . S
C6866 C6849 1.574 . S
C6866 H6860 0.949 . S
C6866 C6870 1.368 . S
C6867 C6848 1.429 . S
C6867 C6861 1.429 . S
C6867 C6868 1.523 . S
C6868 C6849 1.368 . S
C6868 C6862 1.368 . S
C6868 C6867 1.523 . S
C6869 C6853 1.429 . S
C6869 C6865 1.429 . S
C6869 C6870 1.523 . S
C6870 C6854 1.368 . S
C6870 C6866 1.368 . S
C6870 C6869 1.523 . S
H6871 C6846 0.950 . S
H6872 C6848 0.950 . S
H6873 C6849 0.949 . S
H6874 C6851 0.950 . S
H6875 C6853 0.950 . S
C6876 C6877 1.349 . S
C6876 C6878 1.327 . S
C6876 H6901 0.950 . S
C6877 C6876 1.349 . S
C6877 C6893 1.349 . S
C6878 C6876 1.327 . S
C6878 C6897 1.429 . S
C6878 H6902 0.950 . S
C6879 C6896 1.574 . S
C6879 C6898 1.368 . S
C6879 H6903 0.949 . S
H6880 C6884 0.949 . S
C6881 C6882 1.349 . S
C6881 C6883 1.327 . S
C6881 H6904 0.950 . S
C6882 C6881 1.349 . S
C6882 C6894 1.349 . S
C6883 C6881 1.327 . S
C6883 C6899 1.429 . S
C6883 H6905 0.950 . S
C6884 H6880 0.949 . S
C6884 C6892 1.574 . S
C6884 C6900 1.368 . S
H6885 C6893 0.950 . S
H6886 C6891 0.950 . S
H6887 C6892 0.949 . S
H6888 C6894 0.950 . S
H6889 C6895 0.950 . S
H6890 C6896 0.949 . S
C6891 H6886 0.950 . S
C6891 C6893 1.327 . S
C6891 C6897 1.429 . S
C6892 C6884 1.574 . S
C6892 H6887 0.949 . S
C6892 C6898 1.368 . S
C6893 C6877 1.349 . S
C6893 H6885 0.950 . S
C6893 C6891 1.327 . S
C6894 C6882 1.349 . S
C6894 H6888 0.950 . S
C6894 C6895 1.327 . S
C6895 H6889 0.950 . S
C6895 C6894 1.327 . S
C6895 C6899 1.429 . S
C6896 C6879 1.574 . S
C6896 H6890 0.949 . S
C6896 C6900 1.368 . S
C6897 C6878 1.429 . S
C6897 C6891 1.429 . S
C6897 C6898 1.523 . S
C6898 C6879 1.368 . S
C6898 C6892 1.368 . S
C6898 C6897 1.523 . S
C6899 C6883 1.429 . S
C6899 C6895 1.429 . S
C6899 C6900 1.523 . S
C6900 C6884 1.368 . S
C6900 C6896 1.368 . S
C6900 C6899 1.523 . S
H6901 C6876 0.950 . S
H6902 C6878 0.950 . S
H6903 C6879 0.949 . S
H6904 C6881 0.950 . S
H6905 C6883 0.950 . S
C6906 C6907 1.349 . S
C6906 C6908 1.327 . S
C6906 H6931 0.950 . S
C6907 C6906 1.349 . S
C6907 C6923 1.349 . S
C6908 C6906 1.327 . S
C6908 C6927 1.429 . S
C6908 H6932 0.950 . S
C6909 C6926 1.574 . S
C6909 C6928 1.368 . S
C6909 H6933 0.949 . S
H6910 C6914 0.949 . S
C6911 C6912 1.349 . S
C6911 C6913 1.327 . S
C6911 H6934 0.950 . S
C6912 C6911 1.349 . S
C6912 C6924 1.349 . S
C6913 C6911 1.327 . S
C6913 C6929 1.429 . S
C6913 H6935 0.950 . S
C6914 H6910 0.949 . S
C6914 C6922 1.574 . S
C6914 C6930 1.368 . S
H6915 C6923 0.950 . S
H6916 C6921 0.950 . S
H6917 C6922 0.949 . S
H6918 C6924 0.950 . S
H6919 C6925 0.950 . S
H6920 C6926 0.949 . S
C6921 H6916 0.950 . S
C6921 C6923 1.327 . S
C6921 C6927 1.429 . S
C6922 C6914 1.574 . S
C6922 H6917 0.949 . S
C6922 C6928 1.368 . S
C6923 C6907 1.349 . S
C6923 H6915 0.950 . S
C6923 C6921 1.327 . S
C6924 C6912 1.349 . S
C6924 H6918 0.950 . S
C6924 C6925 1.327 . S
C6925 H6919 0.950 . S
C6925 C6924 1.327 . S
C6925 C6929 1.429 . S
C6926 C6909 1.574 . S
C6926 H6920 0.949 . S
C6926 C6930 1.368 . S
C6927 C6908 1.429 . S
C6927 C6921 1.429 . S
C6927 C6928 1.523 . S
C6928 C6909 1.368 . S
C6928 C6922 1.368 . S
C6928 C6927 1.523 . S
C6929 C6913 1.429 . S
C6929 C6925 1.429 . S
C6929 C6930 1.523 . S
C6930 C6914 1.368 . S
C6930 C6926 1.368 . S
C6930 C6929 1.523 . S
H6931 C6906 0.950 . S
H6932 C6908 0.950 . S
H6933 C6909 0.949 . S
H6934 C6911 0.950 . S
H6935 C6913 0.950 . S
C6936 C6937 1.349 . S
C6936 C6938 1.327 . S
C6936 H6961 0.950 . S
C6937 C6936 1.349 . S
C6937 C6953 1.349 . S
C6938 C6936 1.327 . S
C6938 C6957 1.429 . S
C6938 H6962 0.950 . S
C6939 C6956 1.574 . S
C6939 C6958 1.368 . S
C6939 H6963 0.949 . S
H6940 C6944 0.949 . S
C6941 C6942 1.349 . S
C6941 C6943 1.327 . S
C6941 H6964 0.950 . S
C6942 C6941 1.349 . S
C6942 C6954 1.349 . S
C6943 C6941 1.327 . S
C6943 C6959 1.429 . S
C6943 H6965 0.950 . S
C6944 H6940 0.949 . S
C6944 C6952 1.574 . S
C6944 C6960 1.368 . S
H6945 C6953 0.950 . S
H6946 C6951 0.950 . S
H6947 C6952 0.949 . S
H6948 C6954 0.950 . S
H6949 C6955 0.950 . S
H6950 C6956 0.949 . S
C6951 H6946 0.950 . S
C6951 C6953 1.327 . S
C6951 C6957 1.429 . S
C6952 C6944 1.574 . S
C6952 H6947 0.949 . S
C6952 C6958 1.368 . S
C6953 C6937 1.349 . S
C6953 H6945 0.950 . S
C6953 C6951 1.327 . S
C6954 C6942 1.349 . S
C6954 H6948 0.950 . S
C6954 C6955 1.327 . S
C6955 H6949 0.950 . S
C6955 C6954 1.327 . S
C6955 C6959 1.429 . S
C6956 C6939 1.574 . S
C6956 H6950 0.949 . S
C6956 C6960 1.368 . S
C6957 C6938 1.429 . S
C6957 C6951 1.429 . S
C6957 C6958 1.523 . S
C6958 C6939 1.368 . S
C6958 C6952 1.368 . S
C6958 C6957 1.523 . S
C6959 C6943 1.429 . S
C6959 C6955 1.429 . S
C6959 C6960 1.523 . S
C6960 C6944 1.368 . S
C6960 C6956 1.368 . S
C6960 C6959 1.523 . S
H6961 C6936 0.950 . S
H6962 C6938 0.950 . S
H6963 C6939 0.949 . S
H6964 C6941 0.950 . S
H6965 C6943 0.950 . S
C6966 C6967 1.349 . S
C6966 C6968 1.327 . S
C6966 H6991 0.950 . S
C6967 C6966 1.349 . S
C6967 C6983 1.349 . S
C6968 C6966 1.327 . S
C6968 C6987 1.429 . S
C6968 H6992 0.950 . S
C6969 C6986 1.574 . S
C6969 C6988 1.368 . S
C6969 H6993 0.949 . S
H6970 C6974 0.949 . S
C6971 C6972 1.349 . S
C6971 C6973 1.327 . S
C6971 H6994 0.950 . S
C6972 C6971 1.349 . S
C6972 C6984 1.349 . S
C6973 C6971 1.327 . S
C6973 C6989 1.429 . S
C6973 H6995 0.950 . S
C6974 H6970 0.949 . S
C6974 C6982 1.574 . S
C6974 C6990 1.368 . S
H6975 C6983 0.950 . S
H6976 C6981 0.950 . S
H6977 C6982 0.949 . S
H6978 C6984 0.950 . S
H6979 C6985 0.950 . S
H6980 C6986 0.949 . S
C6981 H6976 0.950 . S
C6981 C6983 1.327 . S
C6981 C6987 1.429 . S
C6982 C6974 1.574 . S
C6982 H6977 0.949 . S
C6982 C6988 1.368 . S
C6983 C6967 1.349 . S
C6983 H6975 0.950 . S
C6983 C6981 1.327 . S
C6984 C6972 1.349 . S
C6984 H6978 0.950 . S
C6984 C6985 1.327 . S
C6985 H6979 0.950 . S
C6985 C6984 1.327 . S
C6985 C6989 1.429 . S
C6986 C6969 1.574 . S
C6986 H6980 0.949 . S
C6986 C6990 1.368 . S
C6987 C6968 1.429 . S
C6987 C6981 1.429 . S
C6987 C6988 1.523 . S
C6988 C6969 1.368 . S
C6988 C6982 1.368 . S
C6988 C6987 1.523 . S
C6989 C6973 1.429 . S
C6989 C6985 1.429 . S
C6989 C6990 1.523 . S
C6990 C6974 1.368 . S
C6990 C6986 1.368 . S
C6990 C6989 1.523 . S
H6991 C6966 0.950 . S
H6992 C6968 0.950 . S
H6993 C6969 0.949 . S
H6994 C6971 0.950 . S
H6995 C6973 0.950 . S
C6996 C6997 1.349 . S
C6996 C6998 1.327 . S
C6996 H7021 0.950 . S
C6997 C6996 1.349 . S
C6997 C7013 1.349 . S
C6998 C6996 1.327 . S
C6998 C7017 1.429 . S
C6998 H7022 0.950 . S
C6999 C7016 1.574 . S
C6999 C7018 1.368 . S
C6999 H7023 0.949 . S
H7000 C7004 0.949 . S
C7001 C7002 1.349 . S
C7001 C7003 1.327 . S
C7001 H7024 0.950 . S
C7002 C7001 1.349 . S
C7002 C7014 1.349 . S
C7003 C7001 1.327 . S
C7003 C7019 1.429 . S
C7003 H7025 0.950 . S
C7004 H7000 0.949 . S
C7004 C7012 1.574 . S
C7004 C7020 1.368 . S
H7005 C7013 0.950 . S
H7006 C7011 0.950 . S
H7007 C7012 0.949 . S
H7008 C7014 0.950 . S
H7009 C7015 0.950 . S
H7010 C7016 0.949 . S
C7011 H7006 0.950 . S
C7011 C7013 1.327 . S
C7011 C7017 1.429 . S
C7012 C7004 1.574 . S
C7012 H7007 0.949 . S
C7012 C7018 1.368 . S
C7013 C6997 1.349 . S
C7013 H7005 0.950 . S
C7013 C7011 1.327 . S
C7014 C7002 1.349 . S
C7014 H7008 0.950 . S
C7014 C7015 1.327 . S
C7015 H7009 0.950 . S
C7015 C7014 1.327 . S
C7015 C7019 1.429 . S
C7016 C6999 1.574 . S
C7016 H7010 0.949 . S
C7016 C7020 1.368 . S
C7017 C6998 1.429 . S
C7017 C7011 1.429 . S
C7017 C7018 1.523 . S
C7018 C6999 1.368 . S
C7018 C7012 1.368 . S
C7018 C7017 1.523 . S
C7019 C7003 1.429 . S
C7019 C7015 1.429 . S
C7019 C7020 1.523 . S
C7020 C7004 1.368 . S
C7020 C7016 1.368 . S
C7020 C7019 1.523 . S
H7021 C6996 0.950 . S
H7022 C6998 0.950 . S
H7023 C6999 0.949 . S
H7024 C7001 0.950 . S
H7025 C7003 0.950 . S
C7026 C7027 1.349 . S
C7026 C7028 1.327 . S
C7026 H7051 0.950 . S
C7027 C7026 1.349 . S
C7027 C7043 1.349 . S
C7028 C7026 1.327 . S
C7028 C7047 1.429 . S
C7028 H7052 0.950 . S
C7029 C7046 1.574 . S
C7029 C7048 1.368 . S
C7029 H7053 0.949 . S
H7030 C7034 0.949 . S
C7031 C7032 1.349 . S
C7031 C7033 1.327 . S
C7031 H7054 0.950 . S
C7032 C7031 1.349 . S
C7032 C7044 1.349 . S
C7033 C7031 1.327 . S
C7033 C7049 1.429 . S
C7033 H7055 0.950 . S
C7034 H7030 0.949 . S
C7034 C7042 1.574 . S
C7034 C7050 1.368 . S
H7035 C7043 0.950 . S
H7036 C7041 0.950 . S
H7037 C7042 0.949 . S
H7038 C7044 0.950 . S
H7039 C7045 0.950 . S
H7040 C7046 0.949 . S
C7041 H7036 0.950 . S
C7041 C7043 1.327 . S
C7041 C7047 1.429 . S
C7042 C7034 1.574 . S
C7042 H7037 0.949 . S
C7042 C7048 1.368 . S
C7043 C7027 1.349 . S
C7043 H7035 0.950 . S
C7043 C7041 1.327 . S
C7044 C7032 1.349 . S
C7044 H7038 0.950 . S
C7044 C7045 1.327 . S
C7045 H7039 0.950 . S
C7045 C7044 1.327 . S
C7045 C7049 1.429 . S
C7046 C7029 1.574 . S
C7046 H7040 0.949 . S
C7046 C7050 1.368 . S
C7047 C7028 1.429 . S
C7047 C7041 1.429 . S
C7047 C7048 1.523 . S
C7048 C7029 1.368 . S
C7048 C7042 1.368 . S
C7048 C7047 1.523 . S
C7049 C7033 1.429 . S
C7049 C7045 1.429 . S
C7049 C7050 1.523 . S
C7050 C7034 1.368 . S
C7050 C7046 1.368 . S
C7050 C7049 1.523 . S
H7051 C7026 0.950 . S
H7052 C7028 0.950 . S
H7053 C7029 0.949 . S
H7054 C7031 0.950 . S
H7055 C7033 0.950 . S
C7056 C7057 1.349 . S
C7056 C7058 1.327 . S
C7056 H7081 0.950 . S
C7057 C7056 1.349 . S
C7057 C7073 1.349 . S
C7058 C7056 1.327 . S
C7058 C7077 1.429 . S
C7058 H7082 0.950 . S
C7059 C7076 1.574 . S
C7059 C7078 1.368 . S
C7059 H7083 0.949 . S
H7060 C7064 0.949 . S
C7061 C7062 1.349 . S
C7061 C7063 1.327 . S
C7061 H7084 0.950 . S
C7062 C7061 1.349 . S
C7062 C7074 1.349 . S
C7063 C7061 1.327 . S
C7063 C7079 1.429 . S
C7063 H7085 0.950 . S
C7064 H7060 0.949 . S
C7064 C7072 1.574 . S
C7064 C7080 1.368 . S
H7065 C7073 0.950 . S
H7066 C7071 0.950 . S
H7067 C7072 0.949 . S
H7068 C7074 0.950 . S
H7069 C7075 0.950 . S
H7070 C7076 0.949 . S
C7071 H7066 0.950 . S
C7071 C7073 1.327 . S
C7071 C7077 1.429 . S
C7072 C7064 1.574 . S
C7072 H7067 0.949 . S
C7072 C7078 1.368 . S
C7073 C7057 1.349 . S
C7073 H7065 0.950 . S
C7073 C7071 1.327 . S
C7074 C7062 1.349 . S
C7074 H7068 0.950 . S
C7074 C7075 1.327 . S
C7075 H7069 0.950 . S
C7075 C7074 1.327 . S
C7075 C7079 1.429 . S
C7076 C7059 1.574 . S
C7076 H7070 0.949 . S
C7076 C7080 1.368 . S
C7077 C7058 1.429 . S
C7077 C7071 1.429 . S
C7077 C7078 1.523 . S
C7078 C7059 1.368 . S
C7078 C7072 1.368 . S
C7078 C7077 1.523 . S
C7079 C7063 1.429 . S
C7079 C7075 1.429 . S
C7079 C7080 1.523 . S
C7080 C7064 1.368 . S
C7080 C7076 1.368 . S
C7080 C7079 1.523 . S
H7081 C7056 0.950 . S
H7082 C7058 0.950 . S
H7083 C7059 0.949 . S
H7084 C7061 0.950 . S
H7085 C7063 0.950 . S
C7086 C7087 1.349 . S
C7086 C7088 1.327 . S
C7086 H7111 0.950 . S
C7087 C7086 1.349 . S
C7087 C7103 1.349 . S
C7088 C7086 1.327 . S
C7088 C7107 1.429 . S
C7088 H7112 0.950 . S
C7089 C7106 1.574 . S
C7089 C7108 1.368 . S
C7089 H7113 0.949 . S
H7090 C7094 0.949 . S
C7091 C7092 1.349 . S
C7091 C7093 1.327 . S
C7091 H7114 0.950 . S
C7092 C7091 1.349 . S
C7092 C7104 1.349 . S
C7093 C7091 1.327 . S
C7093 C7109 1.429 . S
C7093 H7115 0.950 . S
C7094 H7090 0.949 . S
C7094 C7102 1.574 . S
C7094 C7110 1.368 . S
H7095 C7103 0.950 . S
H7096 C7101 0.950 . S
H7097 C7102 0.949 . S
H7098 C7104 0.950 . S
H7099 C7105 0.950 . S
H7100 C7106 0.949 . S
C7101 H7096 0.950 . S
C7101 C7103 1.327 . S
C7101 C7107 1.429 . S
C7102 C7094 1.574 . S
C7102 H7097 0.949 . S
C7102 C7108 1.368 . S
C7103 C7087 1.349 . S
C7103 H7095 0.950 . S
C7103 C7101 1.327 . S
C7104 C7092 1.349 . S
C7104 H7098 0.950 . S
C7104 C7105 1.327 . S
C7105 H7099 0.950 . S
C7105 C7104 1.327 . S
C7105 C7109 1.429 . S
C7106 C7089 1.574 . S
C7106 H7100 0.949 . S
C7106 C7110 1.368 . S
C7107 C7088 1.429 . S
C7107 C7101 1.429 . S
C7107 C7108 1.523 . S
C7108 C7089 1.368 . S
C7108 C7102 1.368 . S
C7108 C7107 1.523 . S
C7109 C7093 1.429 . S
C7109 C7105 1.429 . S
C7109 C7110 1.523 . S
C7110 C7094 1.368 . S
C7110 C7106 1.368 . S
C7110 C7109 1.523 . S
H7111 C7086 0.950 . S
H7112 C7088 0.950 . S
H7113 C7089 0.949 . S
H7114 C7091 0.950 . S
H7115 C7093 0.950 . S
C7116 C7117 1.349 . S
C7116 C7118 1.327 . S
C7116 H7141 0.950 . S
C7117 C7116 1.349 . S
C7117 C7133 1.349 . S
C7118 C7116 1.327 . S
C7118 C7137 1.429 . S
C7118 H7142 0.950 . S
C7119 C7136 1.574 . S
C7119 C7138 1.368 . S
C7119 H7143 0.949 . S
H7120 C7124 0.949 . S
C7121 C7122 1.349 . S
C7121 C7123 1.327 . S
C7121 H7144 0.950 . S
C7122 C7121 1.349 . S
C7122 C7134 1.349 . S
C7123 C7121 1.327 . S
C7123 C7139 1.429 . S
C7123 H7145 0.950 . S
C7124 H7120 0.949 . S
C7124 C7132 1.574 . S
C7124 C7140 1.368 . S
H7125 C7133 0.950 . S
H7126 C7131 0.950 . S
H7127 C7132 0.949 . S
H7128 C7134 0.950 . S
H7129 C7135 0.950 . S
H7130 C7136 0.949 . S
C7131 H7126 0.950 . S
C7131 C7133 1.327 . S
C7131 C7137 1.429 . S
C7132 C7124 1.574 . S
C7132 H7127 0.949 . S
C7132 C7138 1.368 . S
C7133 C7117 1.349 . S
C7133 H7125 0.950 . S
C7133 C7131 1.327 . S
C7134 C7122 1.349 . S
C7134 H7128 0.950 . S
C7134 C7135 1.327 . S
C7135 H7129 0.950 . S
C7135 C7134 1.327 . S
C7135 C7139 1.429 . S
C7136 C7119 1.574 . S
C7136 H7130 0.949 . S
C7136 C7140 1.368 . S
C7137 C7118 1.429 . S
C7137 C7131 1.429 . S
C7137 C7138 1.523 . S
C7138 C7119 1.368 . S
C7138 C7132 1.368 . S
C7138 C7137 1.523 . S
C7139 C7123 1.429 . S
C7139 C7135 1.429 . S
C7139 C7140 1.523 . S
C7140 C7124 1.368 . S
C7140 C7136 1.368 . S
C7140 C7139 1.523 . S
H7141 C7116 0.950 . S
H7142 C7118 0.950 . S
H7143 C7119 0.949 . S
H7144 C7121 0.950 . S
H7145 C7123 0.950 . S
C7146 C7147 1.349 . S
C7146 C7148 1.327 . S
C7146 H7171 0.950 . S
C7147 C7146 1.349 . S
C7147 C7163 1.349 . S
C7148 C7146 1.327 . S
C7148 C7167 1.429 . S
C7148 H7172 0.950 . S
C7149 C7166 1.574 . S
C7149 C7168 1.368 . S
C7149 H7173 0.949 . S
H7150 C7154 0.949 . S
C7151 C7152 1.349 . S
C7151 C7153 1.327 . S
C7151 H7174 0.950 . S
C7152 C7151 1.349 . S
C7152 C7164 1.349 . S
C7153 C7151 1.327 . S
C7153 C7169 1.429 . S
C7153 H7175 0.950 . S
C7154 H7150 0.949 . S
C7154 C7162 1.574 . S
C7154 C7170 1.368 . S
H7155 C7163 0.950 . S
H7156 C7161 0.950 . S
H7157 C7162 0.949 . S
H7158 C7164 0.950 . S
H7159 C7165 0.950 . S
H7160 C7166 0.949 . S
C7161 H7156 0.950 . S
C7161 C7163 1.327 . S
C7161 C7167 1.429 . S
C7162 C7154 1.574 . S
C7162 H7157 0.949 . S
C7162 C7168 1.368 . S
C7163 C7147 1.349 . S
C7163 H7155 0.950 . S
C7163 C7161 1.327 . S
C7164 C7152 1.349 . S
C7164 H7158 0.950 . S
C7164 C7165 1.327 . S
C7165 H7159 0.950 . S
C7165 C7164 1.327 . S
C7165 C7169 1.429 . S
C7166 C7149 1.574 . S
C7166 H7160 0.949 . S
C7166 C7170 1.368 . S
C7167 C7148 1.429 . S
C7167 C7161 1.429 . S
C7167 C7168 1.523 . S
C7168 C7149 1.368 . S
C7168 C7162 1.368 . S
C7168 C7167 1.523 . S
C7169 C7153 1.429 . S
C7169 C7165 1.429 . S
C7169 C7170 1.523 . S
C7170 C7154 1.368 . S
C7170 C7166 1.368 . S
C7170 C7169 1.523 . S
H7171 C7146 0.950 . S
H7172 C7148 0.950 . S
H7173 C7149 0.949 . S
H7174 C7151 0.950 . S
H7175 C7153 0.950 . S
C7176 C7177 1.349 . S
C7176 C7178 1.327 . S
C7176 H7201 0.950 . S
C7177 C7176 1.349 . S
C7177 C7193 1.349 . S
C7178 C7176 1.327 . S
C7178 C7197 1.429 . S
C7178 H7202 0.950 . S
C7179 C7196 1.574 . S
C7179 C7198 1.368 . S
C7179 H7203 0.949 . S
H7180 C7184 0.949 . S
C7181 C7182 1.349 . S
C7181 C7183 1.327 . S
C7181 H7204 0.950 . S
C7182 C7181 1.349 . S
C7182 C7194 1.349 . S
C7183 C7181 1.327 . S
C7183 C7199 1.429 . S
C7183 H7205 0.950 . S
C7184 H7180 0.949 . S
C7184 C7192 1.574 . S
C7184 C7200 1.368 . S
H7185 C7193 0.950 . S
H7186 C7191 0.950 . S
H7187 C7192 0.949 . S
H7188 C7194 0.950 . S
H7189 C7195 0.950 . S
H7190 C7196 0.949 . S
C7191 H7186 0.950 . S
C7191 C7193 1.327 . S
C7191 C7197 1.429 . S
C7192 C7184 1.574 . S
C7192 H7187 0.949 . S
C7192 C7198 1.368 . S
C7193 C7177 1.349 . S
C7193 H7185 0.950 . S
C7193 C7191 1.327 . S
C7194 C7182 1.349 . S
C7194 H7188 0.950 . S
C7194 C7195 1.327 . S
C7195 H7189 0.950 . S
C7195 C7194 1.327 . S
C7195 C7199 1.429 . S
C7196 C7179 1.574 . S
C7196 H7190 0.949 . S
C7196 C7200 1.368 . S
C7197 C7178 1.429 . S
C7197 C7191 1.429 . S
C7197 C7198 1.523 . S
C7198 C7179 1.368 . S
C7198 C7192 1.368 . S
C7198 C7197 1.523 . S
C7199 C7183 1.429 . S
C7199 C7195 1.429 . S
C7199 C7200 1.523 . S
C7200 C7184 1.368 . S
C7200 C7196 1.368 . S
C7200 C7199 1.523 . S
H7201 C7176 0.950 . S
H7202 C7178 0.950 . S
H7203 C7179 0.949 . S
H7204 C7181 0.950 . S
H7205 C7183 0.950 . S
C7206 C7207 1.349 . S
C7206 C7208 1.327 . S
C7206 H7231 0.950 . S
C7207 C7206 1.349 . S
C7207 C7223 1.349 . S
C7208 C7206 1.327 . S
C7208 C7227 1.429 . S
C7208 H7232 0.950 . S
C7209 C7226 1.574 . S
C7209 C7228 1.368 . S
C7209 H7233 0.949 . S
H7210 C7214 0.949 . S
C7211 C7212 1.349 . S
C7211 C7213 1.327 . S
C7211 H7234 0.950 . S
C7212 C7211 1.349 . S
C7212 C7224 1.349 . S
C7213 C7211 1.327 . S
C7213 C7229 1.429 . S
C7213 H7235 0.950 . S
C7214 H7210 0.949 . S
C7214 C7222 1.574 . S
C7214 C7230 1.368 . S
H7215 C7223 0.950 . S
H7216 C7221 0.950 . S
H7217 C7222 0.949 . S
H7218 C7224 0.950 . S
H7219 C7225 0.950 . S
H7220 C7226 0.949 . S
C7221 H7216 0.950 . S
C7221 C7223 1.327 . S
C7221 C7227 1.429 . S
C7222 C7214 1.574 . S
C7222 H7217 0.949 . S
C7222 C7228 1.368 . S
C7223 C7207 1.349 . S
C7223 H7215 0.950 . S
C7223 C7221 1.327 . S
C7224 C7212 1.349 . S
C7224 H7218 0.950 . S
C7224 C7225 1.327 . S
C7225 H7219 0.950 . S
C7225 C7224 1.327 . S
C7225 C7229 1.429 . S
C7226 C7209 1.574 . S
C7226 H7220 0.949 . S
C7226 C7230 1.368 . S
C7227 C7208 1.429 . S
C7227 C7221 1.429 . S
C7227 C7228 1.523 . S
C7228 C7209 1.368 . S
C7228 C7222 1.368 . S
C7228 C7227 1.523 . S
C7229 C7213 1.429 . S
C7229 C7225 1.429 . S
C7229 C7230 1.523 . S
C7230 C7214 1.368 . S
C7230 C7226 1.368 . S
C7230 C7229 1.523 . S
H7231 C7206 0.950 . S
H7232 C7208 0.950 . S
H7233 C7209 0.949 . S
H7234 C7211 0.950 . S
H7235 C7213 0.950 . S
C7236 C7237 1.349 . S
C7236 C7238 1.327 . S
C7236 H7261 0.950 . S
C7237 C7236 1.349 . S
C7237 C7253 1.349 . S
C7238 C7236 1.327 . S
C7238 C7257 1.429 . S
C7238 H7262 0.950 . S
C7239 C7256 1.574 . S
C7239 C7258 1.368 . S
C7239 H7263 0.949 . S
H7240 C7244 0.949 . S
C7241 C7242 1.349 . S
C7241 C7243 1.327 . S
C7241 H7264 0.950 . S
C7242 C7241 1.349 . S
C7242 C7254 1.349 . S
C7243 C7241 1.327 . S
C7243 C7259 1.429 . S
C7243 H7265 0.950 . S
C7244 H7240 0.949 . S
C7244 C7252 1.574 . S
C7244 C7260 1.368 . S
H7245 C7253 0.950 . S
H7246 C7251 0.950 . S
H7247 C7252 0.949 . S
H7248 C7254 0.950 . S
H7249 C7255 0.950 . S
H7250 C7256 0.949 . S
C7251 H7246 0.950 . S
C7251 C7253 1.327 . S
C7251 C7257 1.429 . S
C7252 C7244 1.574 . S
C7252 H7247 0.949 . S
C7252 C7258 1.368 . S
C7253 C7237 1.349 . S
C7253 H7245 0.950 . S
C7253 C7251 1.327 . S
C7254 C7242 1.349 . S
C7254 H7248 0.950 . S
C7254 C7255 1.327 . S
C7255 H7249 0.950 . S
C7255 C7254 1.327 . S
C7255 C7259 1.429 . S
C7256 C7239 1.574 . S
C7256 H7250 0.949 . S
C7256 C7260 1.368 . S
C7257 C7238 1.429 . S
C7257 C7251 1.429 . S
C7257 C7258 1.523 . S
C7258 C7239 1.368 . S
C7258 C7252 1.368 . S
C7258 C7257 1.523 . S
C7259 C7243 1.429 . S
C7259 C7255 1.429 . S
C7259 C7260 1.523 . S
C7260 C7244 1.368 . S
C7260 C7256 1.368 . S
C7260 C7259 1.523 . S
H7261 C7236 0.950 . S
H7262 C7238 0.950 . S
H7263 C7239 0.949 . S
H7264 C7241 0.950 . S
H7265 C7243 0.950 . S
C7266 C7267 1.349 . S
C7266 C7268 1.327 . S
C7266 H7291 0.950 . S
C7267 C7266 1.349 . S
C7267 C7283 1.349 . S
C7268 C7266 1.327 . S
C7268 C7287 1.429 . S
C7268 H7292 0.950 . S
C7269 C7286 1.574 . S
C7269 C7288 1.368 . S
C7269 H7293 0.949 . S
H7270 C7274 0.949 . S
C7271 C7272 1.349 . S
C7271 C7273 1.327 . S
C7271 H7294 0.950 . S
C7272 C7271 1.349 . S
C7272 C7284 1.349 . S
C7273 C7271 1.327 . S
C7273 C7289 1.429 . S
C7273 H7295 0.950 . S
C7274 H7270 0.949 . S
C7274 C7282 1.574 . S
C7274 C7290 1.368 . S
H7275 C7283 0.950 . S
H7276 C7281 0.950 . S
H7277 C7282 0.949 . S
H7278 C7284 0.950 . S
H7279 C7285 0.950 . S
H7280 C7286 0.949 . S
C7281 H7276 0.950 . S
C7281 C7283 1.327 . S
C7281 C7287 1.429 . S
C7282 C7274 1.574 . S
C7282 H7277 0.949 . S
C7282 C7288 1.368 . S
C7283 C7267 1.349 . S
C7283 H7275 0.950 . S
C7283 C7281 1.327 . S
C7284 C7272 1.349 . S
C7284 H7278 0.950 . S
C7284 C7285 1.327 . S
C7285 H7279 0.950 . S
C7285 C7284 1.327 . S
C7285 C7289 1.429 . S
C7286 C7269 1.574 . S
C7286 H7280 0.949 . S
C7286 C7290 1.368 . S
C7287 C7268 1.429 . S
C7287 C7281 1.429 . S
C7287 C7288 1.523 . S
C7288 C7269 1.368 . S
C7288 C7282 1.368 . S
C7288 C7287 1.523 . S
C7289 C7273 1.429 . S
C7289 C7285 1.429 . S
C7289 C7290 1.523 . S
C7290 C7274 1.368 . S
C7290 C7286 1.368 . S
C7290 C7289 1.523 . S
H7291 C7266 0.950 . S
H7292 C7268 0.950 . S
H7293 C7269 0.949 . S
H7294 C7271 0.950 . S
H7295 C7273 0.950 . S
C7296 C7297 1.349 . S
C7296 C7298 1.327 . S
C7296 H7321 0.950 . S
C7297 C7296 1.349 . S
C7297 C7313 1.349 . S
C7298 C7296 1.327 . S
C7298 C7317 1.429 . S
C7298 H7322 0.950 . S
C7299 C7316 1.574 . S
C7299 C7318 1.368 . S
C7299 H7323 0.949 . S
H7300 C7304 0.949 . S
C7301 C7302 1.349 . S
C7301 C7303 1.327 . S
C7301 H7324 0.950 . S
C7302 C7301 1.349 . S
C7302 C7314 1.349 . S
C7303 C7301 1.327 . S
C7303 C7319 1.429 . S
C7303 H7325 0.950 . S
C7304 H7300 0.949 . S
C7304 C7312 1.574 . S
C7304 C7320 1.368 . S
H7305 C7313 0.950 . S
H7306 C7311 0.950 . S
H7307 C7312 0.949 . S
H7308 C7314 0.950 . S
H7309 C7315 0.950 . S
H7310 C7316 0.949 . S
C7311 H7306 0.950 . S
C7311 C7313 1.327 . S
C7311 C7317 1.429 . S
C7312 C7304 1.574 . S
C7312 H7307 0.949 . S
C7312 C7318 1.368 . S
C7313 C7297 1.349 . S
C7313 H7305 0.950 . S
C7313 C7311 1.327 . S
C7314 C7302 1.349 . S
C7314 H7308 0.950 . S
C7314 C7315 1.327 . S
C7315 H7309 0.950 . S
C7315 C7314 1.327 . S
C7315 C7319 1.429 . S
C7316 C7299 1.574 . S
C7316 H7310 0.949 . S
C7316 C7320 1.368 . S
C7317 C7298 1.429 . S
C7317 C7311 1.429 . S
C7317 C7318 1.523 . S
C7318 C7299 1.368 . S
C7318 C7312 1.368 . S
C7318 C7317 1.523 . S
C7319 C7303 1.429 . S
C7319 C7315 1.429 . S
C7319 C7320 1.523 . S
C7320 C7304 1.368 . S
C7320 C7316 1.368 . S
C7320 C7319 1.523 . S
H7321 C7296 0.950 . S
H7322 C7298 0.950 . S
H7323 C7299 0.949 . S
H7324 C7301 0.950 . S
H7325 C7303 0.950 . S
C7326 C7327 1.349 . S
C7326 C7328 1.327 . S
C7326 H7351 0.950 . S
C7327 C7326 1.349 . S
C7327 C7343 1.349 . S
C7328 C7326 1.327 . S
C7328 C7347 1.429 . S
C7328 H7352 0.950 . S
C7329 C7346 1.574 . S
C7329 C7348 1.368 . S
C7329 H7353 0.949 . S
H7330 C7334 0.949 . S
C7331 C7332 1.349 . S
C7331 C7333 1.327 . S
C7331 H7354 0.950 . S
C7332 C7331 1.349 . S
C7332 C7344 1.349 . S
C7333 C7331 1.327 . S
C7333 C7349 1.429 . S
C7333 H7355 0.950 . S
C7334 H7330 0.949 . S
C7334 C7342 1.574 . S
C7334 C7350 1.368 . S
H7335 C7343 0.950 . S
H7336 C7341 0.950 . S
H7337 C7342 0.949 . S
H7338 C7344 0.950 . S
H7339 C7345 0.950 . S
H7340 C7346 0.949 . S
C7341 H7336 0.950 . S
C7341 C7343 1.327 . S
C7341 C7347 1.429 . S
C7342 C7334 1.574 . S
C7342 H7337 0.949 . S
C7342 C7348 1.368 . S
C7343 C7327 1.349 . S
C7343 H7335 0.950 . S
C7343 C7341 1.327 . S
C7344 C7332 1.349 . S
C7344 H7338 0.950 . S
C7344 C7345 1.327 . S
C7345 H7339 0.950 . S
C7345 C7344 1.327 . S
C7345 C7349 1.429 . S
C7346 C7329 1.574 . S
C7346 H7340 0.949 . S
C7346 C7350 1.368 . S
C7347 C7328 1.429 . S
C7347 C7341 1.429 . S
C7347 C7348 1.523 . S
C7348 C7329 1.368 . S
C7348 C7342 1.368 . S
C7348 C7347 1.523 . S
C7349 C7333 1.429 . S
C7349 C7345 1.429 . S
C7349 C7350 1.523 . S
C7350 C7334 1.368 . S
C7350 C7346 1.368 . S
C7350 C7349 1.523 . S
H7351 C7326 0.950 . S
H7352 C7328 0.950 . S
H7353 C7329 0.949 . S
H7354 C7331 0.950 . S
H7355 C7333 0.950 . S
C7356 C7357 1.349 . S
C7356 C7358 1.327 . S
C7356 H7381 0.950 . S
C7357 C7356 1.349 . S
C7357 C7373 1.349 . S
C7358 C7356 1.327 . S
C7358 C7377 1.429 . S
C7358 H7382 0.950 . S
C7359 C7376 1.574 . S
C7359 C7378 1.368 . S
C7359 H7383 0.949 . S
H7360 C7364 0.949 . S
C7361 C7362 1.349 . S
C7361 C7363 1.327 . S
C7361 H7384 0.950 . S
C7362 C7361 1.349 . S
C7362 C7374 1.349 . S
C7363 C7361 1.327 . S
C7363 C7379 1.429 . S
C7363 H7385 0.950 . S
C7364 H7360 0.949 . S
C7364 C7372 1.574 . S
C7364 C7380 1.368 . S
H7365 C7373 0.950 . S
H7366 C7371 0.950 . S
H7367 C7372 0.949 . S
H7368 C7374 0.950 . S
H7369 C7375 0.950 . S
H7370 C7376 0.949 . S
C7371 H7366 0.950 . S
C7371 C7373 1.327 . S
C7371 C7377 1.429 . S
C7372 C7364 1.574 . S
C7372 H7367 0.949 . S
C7372 C7378 1.368 . S
C7373 C7357 1.349 . S
C7373 H7365 0.950 . S
C7373 C7371 1.327 . S
C7374 C7362 1.349 . S
C7374 H7368 0.950 . S
C7374 C7375 1.327 . S
C7375 H7369 0.950 . S
C7375 C7374 1.327 . S
C7375 C7379 1.429 . S
C7376 C7359 1.574 . S
C7376 H7370 0.949 . S
C7376 C7380 1.368 . S
C7377 C7358 1.429 . S
C7377 C7371 1.429 . S
C7377 C7378 1.523 . S
C7378 C7359 1.368 . S
C7378 C7372 1.368 . S
C7378 C7377 1.523 . S
C7379 C7363 1.429 . S
C7379 C7375 1.429 . S
C7379 C7380 1.523 . S
C7380 C7364 1.368 . S
C7380 C7376 1.368 . S
C7380 C7379 1.523 . S
H7381 C7356 0.950 . S
H7382 C7358 0.950 . S
H7383 C7359 0.949 . S
H7384 C7361 0.950 . S
H7385 C7363 0.950 . S
C7386 C7387 1.349 . S
C7386 C7388 1.327 . S
C7386 H7411 0.950 . S
C7387 C7386 1.349 . S
C7387 C7403 1.349 . S
C7388 C7386 1.327 . S
C7388 C7407 1.429 . S
C7388 H7412 0.950 . S
C7389 C7406 1.574 . S
C7389 C7408 1.368 . S
C7389 H7413 0.949 . S
H7390 C7394 0.949 . S
C7391 C7392 1.349 . S
C7391 C7393 1.327 . S
C7391 H7414 0.950 . S
C7392 C7391 1.349 . S
C7392 C7404 1.349 . S
C7393 C7391 1.327 . S
C7393 C7409 1.429 . S
C7393 H7415 0.950 . S
C7394 H7390 0.949 . S
C7394 C7402 1.574 . S
C7394 C7410 1.368 . S
H7395 C7403 0.950 . S
H7396 C7401 0.950 . S
H7397 C7402 0.949 . S
H7398 C7404 0.950 . S
H7399 C7405 0.950 . S
H7400 C7406 0.949 . S
C7401 H7396 0.950 . S
C7401 C7403 1.327 . S
C7401 C7407 1.429 . S
C7402 C7394 1.574 . S
C7402 H7397 0.949 . S
C7402 C7408 1.368 . S
C7403 C7387 1.349 . S
C7403 H7395 0.950 . S
C7403 C7401 1.327 . S
C7404 C7392 1.349 . S
C7404 H7398 0.950 . S
C7404 C7405 1.327 . S
C7405 H7399 0.950 . S
C7405 C7404 1.327 . S
C7405 C7409 1.429 . S
C7406 C7389 1.574 . S
C7406 H7400 0.949 . S
C7406 C7410 1.368 . S
C7407 C7388 1.429 . S
C7407 C7401 1.429 . S
C7407 C7408 1.523 . S
C7408 C7389 1.368 . S
C7408 C7402 1.368 . S
C7408 C7407 1.523 . S
C7409 C7393 1.429 . S
C7409 C7405 1.429 . S
C7409 C7410 1.523 . S
C7410 C7394 1.368 . S
C7410 C7406 1.368 . S
C7410 C7409 1.523 . S
H7411 C7386 0.950 . S
H7412 C7388 0.950 . S
H7413 C7389 0.949 . S
H7414 C7391 0.950 . S
H7415 C7393 0.950 . S
C7416 C7417 1.349 . S
C7416 C7418 1.327 . S
C7416 H7441 0.950 . S
C7417 C7416 1.349 . S
C7417 C7433 1.349 . S
C7418 C7416 1.327 . S
C7418 C7437 1.429 . S
C7418 H7442 0.950 . S
C7419 C7436 1.574 . S
C7419 C7438 1.368 . S
C7419 H7443 0.949 . S
H7420 C7424 0.949 . S
C7421 C7422 1.349 . S
C7421 C7423 1.327 . S
C7421 H7444 0.950 . S
C7422 C7421 1.349 . S
C7422 C7434 1.349 . S
C7423 C7421 1.327 . S
C7423 C7439 1.429 . S
C7423 H7445 0.950 . S
C7424 H7420 0.949 . S
C7424 C7432 1.574 . S
C7424 C7440 1.368 . S
H7425 C7433 0.950 . S
H7426 C7431 0.950 . S
H7427 C7432 0.949 . S
H7428 C7434 0.950 . S
H7429 C7435 0.950 . S
H7430 C7436 0.949 . S
C7431 H7426 0.950 . S
C7431 C7433 1.327 . S
C7431 C7437 1.429 . S
C7432 C7424 1.574 . S
C7432 H7427 0.949 . S
C7432 C7438 1.368 . S
C7433 C7417 1.349 . S
C7433 H7425 0.950 . S
C7433 C7431 1.327 . S
C7434 C7422 1.349 . S
C7434 H7428 0.950 . S
C7434 C7435 1.327 . S
C7435 H7429 0.950 . S
C7435 C7434 1.327 . S
C7435 C7439 1.429 . S
C7436 C7419 1.574 . S
C7436 H7430 0.949 . S
C7436 C7440 1.368 . S
C7437 C7418 1.429 . S
C7437 C7431 1.429 . S
C7437 C7438 1.523 . S
C7438 C7419 1.368 . S
C7438 C7432 1.368 . S
C7438 C7437 1.523 . S
C7439 C7423 1.429 . S
C7439 C7435 1.429 . S
C7439 C7440 1.523 . S
C7440 C7424 1.368 . S
C7440 C7436 1.368 . S
C7440 C7439 1.523 . S
H7441 C7416 0.950 . S
H7442 C7418 0.950 . S
H7443 C7419 0.949 . S
H7444 C7421 0.950 . S
H7445 C7423 0.950 . S
C7446 C7447 1.349 . S
C7446 C7448 1.327 . S
C7446 H7471 0.950 . S
C7447 C7446 1.349 . S
C7447 C7463 1.349 . S
C7448 C7446 1.327 . S
C7448 C7467 1.429 . S
C7448 H7472 0.950 . S
C7449 C7466 1.574 . S
C7449 C7468 1.368 . S
C7449 H7473 0.949 . S
H7450 C7454 0.949 . S
C7451 C7452 1.349 . S
C7451 C7453 1.327 . S
C7451 H7474 0.950 . S
C7452 C7451 1.349 . S
C7452 C7464 1.349 . S
C7453 C7451 1.327 . S
C7453 C7469 1.429 . S
C7453 H7475 0.950 . S
C7454 H7450 0.949 . S
C7454 C7462 1.574 . S
C7454 C7470 1.368 . S
H7455 C7463 0.950 . S
H7456 C7461 0.950 . S
H7457 C7462 0.949 . S
H7458 C7464 0.950 . S
H7459 C7465 0.950 . S
H7460 C7466 0.949 . S
C7461 H7456 0.950 . S
C7461 C7463 1.327 . S
C7461 C7467 1.429 . S
C7462 C7454 1.574 . S
C7462 H7457 0.949 . S
C7462 C7468 1.368 . S
C7463 C7447 1.349 . S
C7463 H7455 0.950 . S
C7463 C7461 1.327 . S
C7464 C7452 1.349 . S
C7464 H7458 0.950 . S
C7464 C7465 1.327 . S
C7465 H7459 0.950 . S
C7465 C7464 1.327 . S
C7465 C7469 1.429 . S
C7466 C7449 1.574 . S
C7466 H7460 0.949 . S
C7466 C7470 1.368 . S
C7467 C7448 1.429 . S
C7467 C7461 1.429 . S
C7467 C7468 1.523 . S
C7468 C7449 1.368 . S
C7468 C7462 1.368 . S
C7468 C7467 1.523 . S
C7469 C7453 1.429 . S
C7469 C7465 1.429 . S
C7469 C7470 1.523 . S
C7470 C7454 1.368 . S
C7470 C7466 1.368 . S
C7470 C7469 1.523 . S
H7471 C7446 0.950 . S
H7472 C7448 0.950 . S
H7473 C7449 0.949 . S
H7474 C7451 0.950 . S
H7475 C7453 0.950 . S
C7476 C7477 1.349 . S
C7476 C7478 1.327 . S
C7476 H7501 0.950 . S
C7477 C7476 1.349 . S
C7477 C7493 1.349 . S
C7478 C7476 1.327 . S
C7478 C7497 1.429 . S
C7478 H7502 0.950 . S
C7479 C7496 1.574 . S
C7479 C7498 1.368 . S
C7479 H7503 0.949 . S
H7480 C7484 0.949 . S
C7481 C7482 1.349 . S
C7481 C7483 1.327 . S
C7481 H7504 0.950 . S
C7482 C7481 1.349 . S
C7482 C7494 1.349 . S
C7483 C7481 1.327 . S
C7483 C7499 1.429 . S
C7483 H7505 0.950 . S
C7484 H7480 0.949 . S
C7484 C7492 1.574 . S
C7484 C7500 1.368 . S
H7485 C7493 0.950 . S
H7486 C7491 0.950 . S
H7487 C7492 0.949 . S
H7488 C7494 0.950 . S
H7489 C7495 0.950 . S
H7490 C7496 0.949 . S
C7491 H7486 0.950 . S
C7491 C7493 1.327 . S
C7491 C7497 1.429 . S
C7492 C7484 1.574 . S
C7492 H7487 0.949 . S
C7492 C7498 1.368 . S
C7493 C7477 1.349 . S
C7493 H7485 0.950 . S
C7493 C7491 1.327 . S
C7494 C7482 1.349 . S
C7494 H7488 0.950 . S
C7494 C7495 1.327 . S
C7495 H7489 0.950 . S
C7495 C7494 1.327 . S
C7495 C7499 1.429 . S
C7496 C7479 1.574 . S
C7496 H7490 0.949 . S
C7496 C7500 1.368 . S
C7497 C7478 1.429 . S
C7497 C7491 1.429 . S
C7497 C7498 1.523 . S
C7498 C7479 1.368 . S
C7498 C7492 1.368 . S
C7498 C7497 1.523 . S
C7499 C7483 1.429 . S
C7499 C7495 1.429 . S
C7499 C7500 1.523 . S
C7500 C7484 1.368 . S
C7500 C7496 1.368 . S
C7500 C7499 1.523 . S
H7501 C7476 0.950 . S
H7502 C7478 0.950 . S
H7503 C7479 0.949 . S
H7504 C7481 0.950 . S
H7505 C7483 0.950 . S
C7506 C7507 1.349 . S
C7506 C7508 1.327 . S
C7506 H7531 0.950 . S
C7507 C7506 1.349 . S
C7507 C7523 1.349 . S
C7508 C7506 1.327 . S
C7508 C7527 1.429 . S
C7508 H7532 0.950 . S
C7509 C7526 1.574 . S
C7509 C7528 1.368 . S
C7509 H7533 0.949 . S
H7510 C7514 0.949 . S
C7511 C7512 1.349 . S
C7511 C7513 1.327 . S
C7511 H7534 0.950 . S
C7512 C7511 1.349 . S
C7512 C7524 1.349 . S
C7513 C7511 1.327 . S
C7513 C7529 1.429 . S
C7513 H7535 0.950 . S
C7514 H7510 0.949 . S
C7514 C7522 1.574 . S
C7514 C7530 1.368 . S
H7515 C7523 0.950 . S
H7516 C7521 0.950 . S
H7517 C7522 0.949 . S
H7518 C7524 0.950 . S
H7519 C7525 0.950 . S
H7520 C7526 0.949 . S
C7521 H7516 0.950 . S
C7521 C7523 1.327 . S
C7521 C7527 1.429 . S
C7522 C7514 1.574 . S
C7522 H7517 0.949 . S
C7522 C7528 1.368 . S
C7523 C7507 1.349 . S
C7523 H7515 0.950 . S
C7523 C7521 1.327 . S
C7524 C7512 1.349 . S
C7524 H7518 0.950 . S
C7524 C7525 1.327 . S
C7525 H7519 0.950 . S
C7525 C7524 1.327 . S
C7525 C7529 1.429 . S
C7526 C7509 1.574 . S
C7526 H7520 0.949 . S
C7526 C7530 1.368 . S
C7527 C7508 1.429 . S
C7527 C7521 1.429 . S
C7527 C7528 1.523 . S
C7528 C7509 1.368 . S
C7528 C7522 1.368 . S
C7528 C7527 1.523 . S
C7529 C7513 1.429 . S
C7529 C7525 1.429 . S
C7529 C7530 1.523 . S
C7530 C7514 1.368 . S
C7530 C7526 1.368 . S
C7530 C7529 1.523 . S
H7531 C7506 0.950 . S
H7532 C7508 0.950 . S
H7533 C7509 0.949 . S
H7534 C7511 0.950 . S
H7535 C7513 0.950 . S
C7536 C7537 1.349 . S
C7536 C7538 1.327 . S
C7536 H7561 0.950 . S
C7537 C7536 1.349 . S
C7537 C7553 1.349 . S
C7538 C7536 1.327 . S
C7538 C7557 1.429 . S
C7538 H7562 0.950 . S
C7539 C7556 1.574 . S
C7539 C7558 1.368 . S
C7539 H7563 0.949 . S
H7540 C7544 0.949 . S
C7541 C7542 1.349 . S
C7541 C7543 1.327 . S
C7541 H7564 0.950 . S
C7542 C7541 1.349 . S
C7542 C7554 1.349 . S
C7543 C7541 1.327 . S
C7543 C7559 1.429 . S
C7543 H7565 0.950 . S
C7544 H7540 0.949 . S
C7544 C7552 1.574 . S
C7544 C7560 1.368 . S
H7545 C7553 0.950 . S
H7546 C7551 0.950 . S
H7547 C7552 0.949 . S
H7548 C7554 0.950 . S
H7549 C7555 0.950 . S
H7550 C7556 0.949 . S
C7551 H7546 0.950 . S
C7551 C7553 1.327 . S
C7551 C7557 1.429 . S
C7552 C7544 1.574 . S
C7552 H7547 0.949 . S
C7552 C7558 1.368 . S
C7553 C7537 1.349 . S
C7553 H7545 0.950 . S
C7553 C7551 1.327 . S
C7554 C7542 1.349 . S
C7554 H7548 0.950 . S
C7554 C7555 1.327 . S
C7555 H7549 0.950 . S
C7555 C7554 1.327 . S
C7555 C7559 1.429 . S
C7556 C7539 1.574 . S
C7556 H7550 0.949 . S
C7556 C7560 1.368 . S
C7557 C7538 1.429 . S
C7557 C7551 1.429 . S
C7557 C7558 1.523 . S
C7558 C7539 1.368 . S
C7558 C7552 1.368 . S
C7558 C7557 1.523 . S
C7559 C7543 1.429 . S
C7559 C7555 1.429 . S
C7559 C7560 1.523 . S
C7560 C7544 1.368 . S
C7560 C7556 1.368 . S
C7560 C7559 1.523 . S
H7561 C7536 0.950 . S
H7562 C7538 0.950 . S
H7563 C7539 0.949 . S
H7564 C7541 0.950 . S
H7565 C7543 0.950 . S
C7566 C7567 1.349 . S
C7566 C7568 1.327 . S
C7566 H7591 0.950 . S
C7567 C7566 1.349 . S
C7567 C7583 1.349 . S
C7568 C7566 1.327 . S
C7568 C7587 1.429 . S
C7568 H7592 0.950 . S
C7569 C7586 1.574 . S
C7569 C7588 1.368 . S
C7569 H7593 0.949 . S
H7570 C7574 0.949 . S
C7571 C7572 1.349 . S
C7571 C7573 1.327 . S
C7571 H7594 0.950 . S
C7572 C7571 1.349 . S
C7572 C7584 1.349 . S
C7573 C7571 1.327 . S
C7573 C7589 1.429 . S
C7573 H7595 0.950 . S
C7574 H7570 0.949 . S
C7574 C7582 1.574 . S
C7574 C7590 1.368 . S
H7575 C7583 0.950 . S
H7576 C7581 0.950 . S
H7577 C7582 0.949 . S
H7578 C7584 0.950 . S
H7579 C7585 0.950 . S
H7580 C7586 0.949 . S
C7581 H7576 0.950 . S
C7581 C7583 1.327 . S
C7581 C7587 1.429 . S
C7582 C7574 1.574 . S
C7582 H7577 0.949 . S
C7582 C7588 1.368 . S
C7583 C7567 1.349 . S
C7583 H7575 0.950 . S
C7583 C7581 1.327 . S
C7584 C7572 1.349 . S
C7584 H7578 0.950 . S
C7584 C7585 1.327 . S
C7585 H7579 0.950 . S
C7585 C7584 1.327 . S
C7585 C7589 1.429 . S
C7586 C7569 1.574 . S
C7586 H7580 0.949 . S
C7586 C7590 1.368 . S
C7587 C7568 1.429 . S
C7587 C7581 1.429 . S
C7587 C7588 1.523 . S
C7588 C7569 1.368 . S
C7588 C7582 1.368 . S
C7588 C7587 1.523 . S
C7589 C7573 1.429 . S
C7589 C7585 1.429 . S
C7589 C7590 1.523 . S
C7590 C7574 1.368 . S
C7590 C7586 1.368 . S
C7590 C7589 1.523 . S
H7591 C7566 0.950 . S
H7592 C7568 0.950 . S
H7593 C7569 0.949 . S
H7594 C7571 0.950 . S
H7595 C7573 0.950 . S
C7596 C7597 1.349 . S
C7596 C7598 1.327 . S
C7596 H7621 0.950 . S
C7597 C7596 1.349 . S
C7597 C7613 1.349 . S
C7598 C7596 1.327 . S
C7598 C7617 1.429 . S
C7598 H7622 0.950 . S
C7599 C7616 1.574 . S
C7599 C7618 1.368 . S
C7599 H7623 0.949 . S
H7600 C7604 0.949 . S
C7601 C7602 1.349 . S
C7601 C7603 1.327 . S
C7601 H7624 0.950 . S
C7602 C7601 1.349 . S
C7602 C7614 1.349 . S
C7603 C7601 1.327 . S
C7603 C7619 1.429 . S
C7603 H7625 0.950 . S
C7604 H7600 0.949 . S
C7604 C7612 1.574 . S
C7604 C7620 1.368 . S
H7605 C7613 0.950 . S
H7606 C7611 0.950 . S
H7607 C7612 0.949 . S
H7608 C7614 0.950 . S
H7609 C7615 0.950 . S
H7610 C7616 0.949 . S
C7611 H7606 0.950 . S
C7611 C7613 1.327 . S
C7611 C7617 1.429 . S
C7612 C7604 1.574 . S
C7612 H7607 0.949 . S
C7612 C7618 1.368 . S
C7613 C7597 1.349 . S
C7613 H7605 0.950 . S
C7613 C7611 1.327 . S
C7614 C7602 1.349 . S
C7614 H7608 0.950 . S
C7614 C7615 1.327 . S
C7615 H7609 0.950 . S
C7615 C7614 1.327 . S
C7615 C7619 1.429 . S
C7616 C7599 1.574 . S
C7616 H7610 0.949 . S
C7616 C7620 1.368 . S
C7617 C7598 1.429 . S
C7617 C7611 1.429 . S
C7617 C7618 1.523 . S
C7618 C7599 1.368 . S
C7618 C7612 1.368 . S
C7618 C7617 1.523 . S
C7619 C7603 1.429 . S
C7619 C7615 1.429 . S
C7619 C7620 1.523 . S
C7620 C7604 1.368 . S
C7620 C7616 1.368 . S
C7620 C7619 1.523 . S
H7621 C7596 0.950 . S
H7622 C7598 0.950 . S
H7623 C7599 0.949 . S
H7624 C7601 0.950 . S
H7625 C7603 0.950 . S
C7626 C7627 1.349 . S
C7626 C7628 1.327 . S
C7626 H7651 0.950 . S
C7627 C7626 1.349 . S
C7627 C7643 1.349 . S
C7628 C7626 1.327 . S
C7628 C7647 1.429 . S
C7628 H7652 0.950 . S
C7629 C7646 1.574 . S
C7629 C7648 1.368 . S
C7629 H7653 0.949 . S
H7630 C7634 0.949 . S
C7631 C7632 1.349 . S
C7631 C7633 1.327 . S
C7631 H7654 0.950 . S
C7632 C7631 1.349 . S
C7632 C7644 1.349 . S
C7633 C7631 1.327 . S
C7633 C7649 1.429 . S
C7633 H7655 0.950 . S
C7634 H7630 0.949 . S
C7634 C7642 1.574 . S
C7634 C7650 1.368 . S
H7635 C7643 0.950 . S
H7636 C7641 0.950 . S
H7637 C7642 0.949 . S
H7638 C7644 0.950 . S
H7639 C7645 0.950 . S
H7640 C7646 0.949 . S
C7641 H7636 0.950 . S
C7641 C7643 1.327 . S
C7641 C7647 1.429 . S
C7642 C7634 1.574 . S
C7642 H7637 0.949 . S
C7642 C7648 1.368 . S
C7643 C7627 1.349 . S
C7643 H7635 0.950 . S
C7643 C7641 1.327 . S
C7644 C7632 1.349 . S
C7644 H7638 0.950 . S
C7644 C7645 1.327 . S
C7645 H7639 0.950 . S
C7645 C7644 1.327 . S
C7645 C7649 1.429 . S
C7646 C7629 1.574 . S
C7646 H7640 0.949 . S
C7646 C7650 1.368 . S
C7647 C7628 1.429 . S
C7647 C7641 1.429 . S
C7647 C7648 1.523 . S
C7648 C7629 1.368 . S
C7648 C7642 1.368 . S
C7648 C7647 1.523 . S
C7649 C7633 1.429 . S
C7649 C7645 1.429 . S
C7649 C7650 1.523 . S
C7650 C7634 1.368 . S
C7650 C7646 1.368 . S
C7650 C7649 1.523 . S
H7651 C7626 0.950 . S
H7652 C7628 0.950 . S
H7653 C7629 0.949 . S
H7654 C7631 0.950 . S
H7655 C7633 0.950 . S
C7656 C7657 1.349 . S
C7656 C7658 1.327 . S
C7656 H7681 0.950 . S
C7657 C7656 1.349 . S
C7657 C7673 1.349 . S
C7658 C7656 1.327 . S
C7658 C7677 1.429 . S
C7658 H7682 0.950 . S
C7659 C7676 1.574 . S
C7659 C7678 1.368 . S
C7659 H7683 0.949 . S
H7660 C7664 0.949 . S
C7661 C7662 1.349 . S
C7661 C7663 1.327 . S
C7661 H7684 0.950 . S
C7662 C7661 1.349 . S
C7662 C7674 1.349 . S
C7663 C7661 1.327 . S
C7663 C7679 1.429 . S
C7663 H7685 0.950 . S
C7664 H7660 0.949 . S
C7664 C7672 1.574 . S
C7664 C7680 1.368 . S
H7665 C7673 0.950 . S
H7666 C7671 0.950 . S
H7667 C7672 0.949 . S
H7668 C7674 0.950 . S
H7669 C7675 0.950 . S
H7670 C7676 0.949 . S
C7671 H7666 0.950 . S
C7671 C7673 1.327 . S
C7671 C7677 1.429 . S
C7672 C7664 1.574 . S
C7672 H7667 0.949 . S
C7672 C7678 1.368 . S
C7673 C7657 1.349 . S
C7673 H7665 0.950 . S
C7673 C7671 1.327 . S
C7674 C7662 1.349 . S
C7674 H7668 0.950 . S
C7674 C7675 1.327 . S
C7675 H7669 0.950 . S
C7675 C7674 1.327 . S
C7675 C7679 1.429 . S
C7676 C7659 1.574 . S
C7676 H7670 0.949 . S
C7676 C7680 1.368 . S
C7677 C7658 1.429 . S
C7677 C7671 1.429 . S
C7677 C7678 1.523 . S
C7678 C7659 1.368 . S
C7678 C7672 1.368 . S
C7678 C7677 1.523 . S
C7679 C7663 1.429 . S
C7679 C7675 1.429 . S
C7679 C7680 1.523 . S
C7680 C7664 1.368 . S
C7680 C7676 1.368 . S
C7680 C7679 1.523 . S
H7681 C7656 0.950 . S
H7682 C7658 0.950 . S
H7683 C7659 0.949 . S
H7684 C7661 0.950 . S
H7685 C7663 0.950 . S
C7686 C7687 1.349 . S
C7686 C7688 1.327 . S
C7686 H7711 0.950 . S
C7687 C7686 1.349 . S
C7687 C7703 1.349 . S
C7688 C7686 1.327 . S
C7688 C7707 1.429 . S
C7688 H7712 0.950 . S
C7689 C7706 1.574 . S
C7689 C7708 1.368 . S
C7689 H7713 0.949 . S
H7690 C7694 0.949 . S
C7691 C7692 1.349 . S
C7691 C7693 1.327 . S
C7691 H7714 0.950 . S
C7692 C7691 1.349 . S
C7692 C7704 1.349 . S
C7693 C7691 1.327 . S
C7693 C7709 1.429 . S
C7693 H7715 0.950 . S
C7694 H7690 0.949 . S
C7694 C7702 1.574 . S
C7694 C7710 1.368 . S
H7695 C7703 0.950 . S
H7696 C7701 0.950 . S
H7697 C7702 0.949 . S
H7698 C7704 0.950 . S
H7699 C7705 0.950 . S
H7700 C7706 0.949 . S
C7701 H7696 0.950 . S
C7701 C7703 1.327 . S
C7701 C7707 1.429 . S
C7702 C7694 1.574 . S
C7702 H7697 0.949 . S
C7702 C7708 1.368 . S
C7703 C7687 1.349 . S
C7703 H7695 0.950 . S
C7703 C7701 1.327 . S
C7704 C7692 1.349 . S
C7704 H7698 0.950 . S
C7704 C7705 1.327 . S
C7705 H7699 0.950 . S
C7705 C7704 1.327 . S
C7705 C7709 1.429 . S
C7706 C7689 1.574 . S
C7706 H7700 0.949 . S
C7706 C7710 1.368 . S
C7707 C7688 1.429 . S
C7707 C7701 1.429 . S
C7707 C7708 1.523 . S
C7708 C7689 1.368 . S
C7708 C7702 1.368 . S
C7708 C7707 1.523 . S
C7709 C7693 1.429 . S
C7709 C7705 1.429 . S
C7709 C7710 1.523 . S
C7710 C7694 1.368 . S
C7710 C7706 1.368 . S
C7710 C7709 1.523 . S
H7711 C7686 0.950 . S
H7712 C7688 0.950 . S
H7713 C7689 0.949 . S
H7714 C7691 0.950 . S
H7715 C7693 0.950 . S
C7716 C7717 1.349 . S
C7716 C7718 1.327 . S
C7716 H7741 0.950 . S
C7717 C7716 1.349 . S
C7717 C7733 1.349 . S
C7718 C7716 1.327 . S
C7718 C7737 1.429 . S
C7718 H7742 0.950 . S
C7719 C7736 1.574 . S
C7719 C7738 1.368 . S
C7719 H7743 0.949 . S
H7720 C7724 0.949 . S
C7721 C7722 1.349 . S
C7721 C7723 1.327 . S
C7721 H7744 0.950 . S
C7722 C7721 1.349 . S
C7722 C7734 1.349 . S
C7723 C7721 1.327 . S
C7723 C7739 1.429 . S
C7723 H7745 0.950 . S
C7724 H7720 0.949 . S
C7724 C7732 1.574 . S
C7724 C7740 1.368 . S
H7725 C7733 0.950 . S
H7726 C7731 0.950 . S
H7727 C7732 0.949 . S
H7728 C7734 0.950 . S
H7729 C7735 0.950 . S
H7730 C7736 0.949 . S
C7731 H7726 0.950 . S
C7731 C7733 1.327 . S
C7731 C7737 1.429 . S
C7732 C7724 1.574 . S
C7732 H7727 0.949 . S
C7732 C7738 1.368 . S
C7733 C7717 1.349 . S
C7733 H7725 0.950 . S
C7733 C7731 1.327 . S
C7734 C7722 1.349 . S
C7734 H7728 0.950 . S
C7734 C7735 1.327 . S
C7735 H7729 0.950 . S
C7735 C7734 1.327 . S
C7735 C7739 1.429 . S
C7736 C7719 1.574 . S
C7736 H7730 0.949 . S
C7736 C7740 1.368 . S
C7737 C7718 1.429 . S
C7737 C7731 1.429 . S
C7737 C7738 1.523 . S
C7738 C7719 1.368 . S
C7738 C7732 1.368 . S
C7738 C7737 1.523 . S
C7739 C7723 1.429 . S
C7739 C7735 1.429 . S
C7739 C7740 1.523 . S
C7740 C7724 1.368 . S
C7740 C7736 1.368 . S
C7740 C7739 1.523 . S
H7741 C7716 0.950 . S
H7742 C7718 0.950 . S
H7743 C7719 0.949 . S
H7744 C7721 0.950 . S
H7745 C7723 0.950 . S
C7746 C7747 1.349 . S
C7746 C7748 1.327 . S
C7746 H7771 0.950 . S
C7747 C7746 1.349 . S
C7747 C7763 1.349 . S
C7748 C7746 1.327 . S
C7748 C7767 1.429 . S
C7748 H7772 0.950 . S
C7749 C7766 1.574 . S
C7749 C7768 1.368 . S
C7749 H7773 0.949 . S
H7750 C7754 0.949 . S
C7751 C7752 1.349 . S
C7751 C7753 1.327 . S
C7751 H7774 0.950 . S
C7752 C7751 1.349 . S
C7752 C7764 1.349 . S
C7753 C7751 1.327 . S
C7753 C7769 1.429 . S
C7753 H7775 0.950 . S
C7754 H7750 0.949 . S
C7754 C7762 1.574 . S
C7754 C7770 1.368 . S
H7755 C7763 0.950 . S
H7756 C7761 0.950 . S
H7757 C7762 0.949 . S
H7758 C7764 0.950 . S
H7759 C7765 0.950 . S
H7760 C7766 0.949 . S
C7761 H7756 0.950 . S
C7761 C7763 1.327 . S
C7761 C7767 1.429 . S
C7762 C7754 1.574 . S
C7762 H7757 0.949 . S
C7762 C7768 1.368 . S
C7763 C7747 1.349 . S
C7763 H7755 0.950 . S
C7763 C7761 1.327 . S
C7764 C7752 1.349 . S
C7764 H7758 0.950 . S
C7764 C7765 1.327 . S
C7765 H7759 0.950 . S
C7765 C7764 1.327 . S
C7765 C7769 1.429 . S
C7766 C7749 1.574 . S
C7766 H7760 0.949 . S
C7766 C7770 1.368 . S
C7767 C7748 1.429 . S
C7767 C7761 1.429 . S
C7767 C7768 1.523 . S
C7768 C7749 1.368 . S
C7768 C7762 1.368 . S
C7768 C7767 1.523 . S
C7769 C7753 1.429 . S
C7769 C7765 1.429 . S
C7769 C7770 1.523 . S
C7770 C7754 1.368 . S
C7770 C7766 1.368 . S
C7770 C7769 1.523 . S
H7771 C7746 0.950 . S
H7772 C7748 0.950 . S
H7773 C7749 0.949 . S
H7774 C7751 0.950 . S
H7775 C7753 0.950 . S
C3457 C1781 1.619 . S
C3462 C1949 1.556 . S
C3487 C981 1.652 . S
C3492 C1981 1.706 . S
C3522 C2013 1.686 . S
C3517 C1861 1.688 . S
C3547 C1061 1.703 . S
C3552 C2045 1.589 . S
C3577 C1901 1.648 . S
C3582 C2077 1.588 . S
C3607 C941 1.617 . S
C3612 C2109 1.554 . S
C3637 C1821 1.710 . S
C3642 C2141 1.709 . S
C3667 C1021 1.690 . S
C3672 C2173 1.688 . S
C3697 C661 1.579 . S
C3702 C2205 1.616 . S
C3727 C1621 1.687 . S
C3732 C2237 1.581 . S
C3757 C741 1.614 . S
C3762 C2269 1.659 . S
C3787 C1581 1.654 . S
C3792 C2301 1.697 . S
C3817 C901 1.608 . S
C3822 C2333 1.504 . S
C3852 C2365 1.711 . S
C3847 C1661 1.714 . S
C3882 C2397 1.680 . S
C3877 C821 1.636 . S
C3907 C1141 1.686 . S
C3912 C2429 1.581 . S
C3942 C2461 1.703 . S
C3937 C781 1.706 . S
C3972 C2493 1.683 . S
C3967 C1701 1.639 . S
C3997 C861 1.694 . S
C4002 C2525 1.589 . S
C4027 C1181 1.607 . S
C4032 C2557 1.651 . S
C4062 C2589 1.623 . S
C4057 C1101 1.586 . S
C4087 C1421 1.600 . S
C4092 C2621 1.544 . S
C4122 C2653 1.530 . S
C4117 C381 1.628 . S
C4152 C2685 1.526 . S
C4147 C1501 1.621 . S
C4182 C2717 1.563 . S
C4177 C461 1.623 . S
C4212 C2749 1.554 . S
C4207 C1541 1.615 . S
C4237 C341 1.604 . S
C4242 C2781 1.548 . S
C4272 C2813 1.538 . S
C4267 C1461 1.636 . S
C4297 C421 1.616 . S
C4302 C2845 1.521 . S
C4332 C2877 1.666 . S
C4327 C61 1.624 . S
C4362 C2909 1.654 . S
C4357 C1261 1.708 . S
C4387 C141 1.629 . S
C4392 C2941 1.669 . S
C4422 C2973 1.674 . S
C4417 C1221 1.686 . S
C4452 C3005 1.591 . S
C4447 C301 1.692 . S
C4477 C1301 1.701 . S
C4482 C3037 1.690 . S
C4512 C3069 1.676 . S
C4507 C221 1.637 . S
C4542 C3101 1.598 . S
C4537 C541 1.698 . S
C4567 C181 1.693 . S
C4572 C3133 1.682 . S
C4602 C3165 1.672 . S
C4597 C1341 1.634 . S
C4627 C261 1.706 . S
C4632 C3197 1.606 . S
C4662 C3229 1.678 . S
C4657 C581 1.637 . S
C4687 C501 1.616 . S
C4692 C3261 1.658 . S
C4717 C701 1.689 . S
C4722 C3293 1.583 . S
C4752 C3325 1.694 . S
C4747 C621 1.652 . S
C4777 C1741 1.605 . S
C4782 C3357 1.500 . S
C4807 C101 1.695 . S
C4812 C3389 1.642 . S
C4842 C3421 1.689 . S
C4837 C21 1.700 . S
C4872 C3453 1.595 . S
C4867 C1381 1.696 . S
C4897 C1335 1.949 . S
C4902 C1943 1.830 . S
C4927 C535 1.511 . S
C4932 C1975 1.520 . S
C4957 C1362 2.080 . S
C4962 C2001 2.086 . S
C4992 C2033 1.428 . S
C4987 C1295 1.499 . S
C5017 C575 1.961 . S
C5022 C2071 1.841 . S
C5047 C1215 1.479 . S
C5052 C2097 1.414 . S
C5082 C2129 2.066 . S
C5077 C495 2.009 . S
C5107 C1242 1.527 . S
C5112 C2167 1.564 . S
C5137 C1255 1.891 . S
C5142 C2193 1.946 . S
C5172 C2225 1.455 . S
C5167 C562 1.489 . S
C5197 C1202 1.886 . S
C5202 C2257 1.892 . S
C5232 C2295 1.547 . S
C5227 C482 1.507 . S
C5257 C522 1.924 . S
C5262 C2327 1.759 . S
C5287 C1375 1.591 . S
C5292 C2359 1.605 . S
C5322 C2385 1.898 . S
C5317 C1282 1.893 . S
C5352 C2417 1.454 . S
C5347 C1322 1.490 . S
C5377 C455 1.866 . S
C5382 C2289 1.915 . S
C5407 C1415 1.901 . S
C5412 C2449 1.953 . S
C5437 C1455 1.508 . S
C5442 C2487 1.515 . S
C5472 C2519 1.760 . S
C5467 C1482 1.915 . S
C5502 C2321 1.417 . S
C5497 C442 1.465 . S
C5527 C362 1.931 . S
C5532 C2231 1.774 . S
C5557 C1495 1.497 . S
C5562 C2551 1.504 . S
C5592 C2583 1.501 . S
C5587 C1402 1.470 . S
C5622 C2615 1.455 . S
C5617 C1695 1.529 . S
C5647 C1135 1.862 . S
C5652 C2641 1.751 . S
C5682 C2679 1.357 . S
C5677 C1722 1.436 . S
C5712 C2705 1.776 . S
C5707 C1655 1.889 . S
C5737 C1175 1.521 . S
C5742 C2743 1.446 . S
C5767 C1562 1.845 . S
C5772 C2769 1.767 . S
C5797 C1095 1.458 . S
C5802 C2807 1.384 . S
C5832 C2833 1.719 . S
C5827 C1615 1.826 . S
C5862 C2865 1.495 . S
C5857 C1602 1.496 . S
C5887 C1162 1.903 . S
C5892 C2897 1.825 . S
C5922 C2929 1.528 . S
C5917 C1575 1.515 . S
C5947 C1082 1.824 . S
C5952 C2967 1.897 . S
C5982 C2999 1.421 . S
C5977 C1122 1.503 . S
C6007 C1735 1.842 . S
C6012 C3031 1.884 . S
C6042 C3057 1.533 . S
C6037 C1642 1.533 . S
C6067 C1682 1.876 . S
C6072 C3089 1.802 . S
C6097 C1042 1.542 . S
C6102 C2961 1.541 . S
C6127 C1775 1.486 . S
C6132 C3121 1.500 . S
C6157 C1815 2.042 . S
C6162 C3159 2.095 . S
C6192 C3191 1.506 . S
C6187 C1842 1.589 . S
C6217 C1055 1.947 . S
C6222 C2993 1.833 . S
C6247 C975 1.599 . S
C6252 C2903 1.532 . S
C6282 C3223 2.100 . S
C6277 C1855 2.046 . S
C6307 C1762 1.892 . S
C6312 C3255 1.973 . S
C6342 C2103 1.837 . S
C6337 C215 1.956 . S
C6372 C2135 1.533 . S
C6367 C255 1.524 . S
C6402 C2161 2.079 . S
C6397 C282 2.073 . S
C6432 C2065 1.418 . S
C6427 C175 1.486 . S
C6462 C2039 1.864 . S
C6457 C135 1.987 . S
C6487 C15 1.480 . S
C6492 C1937 1.415 . S
C6517 C55 1.983 . S
C6522 C1969 2.041 . S
C6547 C82 1.526 . S
C6552 C2007 1.562 . S
C6577 C95 1.871 . S
C6582 C2577 1.926 . S
C6607 C122 1.494 . S
C6612 C3281 1.460 . S
C6637 C2 1.906 . S
C6642 C2545 1.911 . S
C6667 C42 1.501 . S
C6672 C3319 1.542 . S
C6697 C242 1.919 . S
C6702 C3351 1.753 . S
C6732 C2455 1.595 . S
C6727 C295 1.581 . S
C6757 C162 1.897 . S
C6762 C2481 1.903 . S
C6787 C202 1.499 . S
C6792 C2513 1.464 . S
C6822 C3313 1.909 . S
C6817 C1535 1.859 . S
C6847 C335 1.909 . S
C6852 C2353 1.961 . S
C6877 C375 1.499 . S
C6882 C2391 1.507 . S
C6907 C402 1.906 . S
C6912 C2423 1.752 . S
C6942 C3345 1.408 . S
C6937 C1522 1.456 . S
C6972 C3287 1.780 . S
C6967 C1442 1.936 . S
C7002 C2263 1.491 . S
C6997 C415 1.485 . S
C7027 C322 1.482 . S
C7032 C2199 1.513 . S
C7057 C815 1.534 . S
C7062 C2775 1.460 . S
C7087 C855 1.862 . S
C7092 C2801 1.752 . S
C7117 C882 1.430 . S
C7122 C2839 1.352 . S
C7147 C775 1.888 . S
C7152 C2737 1.774 . S
C7182 C2711 1.448 . S
C7177 C735 1.522 . S
C7212 C2609 1.762 . S
C7207 C602 1.840 . S
C7242 C2647 1.382 . S
C7237 C655 1.456 . S
C7267 C695 1.831 . S
C7272 C2673 1.724 . S
C7302 C3249 1.497 . S
C7297 C682 1.498 . S
C7327 C722 1.901 . S
C7332 C3377 1.825 . S
C7357 C615 1.513 . S
C7362 C3217 1.526 . S
C7392 C3415 1.899 . S
C7387 C642 1.826 . S
C7417 C842 1.521 . S
C7422 C3447 1.438 . S
C7452 C3127 1.873 . S
C7447 C895 1.832 . S
C7477 C762 1.516 . S
C7482 C3153 1.515 . S
C7507 C802 1.886 . S
C7512 C3185 1.811 . S
C7537 C1895 1.532 . S
C7542 C3409 1.549 . S
C7572 C3025 1.504 . S
C7567 C935 1.490 . S
C7597 C962 2.003 . S
C7602 C3063 2.100 . S
C7627 C1002 1.585 . S
C7632 C3095 1.502 . S
C7657 C1882 1.914 . S
C7662 C3441 1.840 . S
C7687 C1802 1.613 . S
C7692 C3383 1.525 . S
C7722 C2935 2.100 . S
C7717 C1015 2.047 . S
C7752 C2871 1.972 . S
C7747 C922 1.891 . S
