# Generated by pormake.
# Topology anh, (6,3)-cn, num edge types: 1
# Building blocks:
#     Node 0, Type 0, BuildingBlock: CUWYAW_clean_sbu_0, # of connection points: 6
#     Node 1, Type 0, BuildingBlock: CUWYAW_clean_sbu_0, # of connection points: 6
#     Node 2, Type 0, BuildingBlock: CUWYAW_clean_sbu_0, # of connection points: 6
#     Node 3, Type 1, BuildingBlock: BETDAH_clean_linker_0, # of connection points: 3
#     Node 4, Type 1, BuildingBlock: BETDAH_clean_linker_0, # of connection points: 3
#     Node 5, Type 1, BuildingBlock: BETDAH_clean_linker_0, # of connection points: 3
#     Node 6, Type 1, BuildingBlock: BETDAH_clean_linker_0, # of connection points: 3
#     Node 7, Type 1, BuildingBlock: BETDAH_clean_linker_0, # of connection points: 3
#     Node 8, Type 1, BuildingBlock: BETDAH_clean_linker_0, # of connection points: 3
#     Edge 9, Type (0, 1), BuildingBlock: MIFKUJ_clean_linker_0, # of connection points: 2
#     Edge 10, Type (0, 1), BuildingBlock: MIFKUJ_clean_linker_0, # of connection points: 2
#     Edge 11, Type (0, 1), BuildingBlock: MIFKUJ_clean_linker_0, # of connection points: 2
#     Edge 12, Type (0, 1), BuildingBlock: MIFKUJ_clean_linker_0, # of connection points: 2
#     Edge 13, Type (0, 1), BuildingBlock: MIFKUJ_clean_linker_0, # of connection points: 2
#     Edge 14, Type (0, 1), BuildingBlock: MIFKUJ_clean_linker_0, # of connection points: 2
#     Edge 15, Type (0, 1), BuildingBlock: MIFKUJ_clean_linker_0, # of connection points: 2
#     Edge 16, Type (0, 1), BuildingBlock: MIFKUJ_clean_linker_0, # of connection points: 2
#     Edge 17, Type (0, 1), BuildingBlock: MIFKUJ_clean_linker_0, # of connection points: 2
#     Edge 18, Type (0, 1), BuildingBlock: MIFKUJ_clean_linker_0, # of connection points: 2
#     Edge 19, Type (0, 1), BuildingBlock: MIFKUJ_clean_linker_0, # of connection points: 2
#     Edge 20, Type (0, 1), BuildingBlock: MIFKUJ_clean_linker_0, # of connection points: 2
#     Edge 21, Type (0, 1), BuildingBlock: MIFKUJ_clean_linker_0, # of connection points: 2
#     Edge 22, Type (0, 1), BuildingBlock: MIFKUJ_clean_linker_0, # of connection points: 2
#     Edge 23, Type (0, 1), BuildingBlock: MIFKUJ_clean_linker_0, # of connection points: 2
#     Edge 24, Type (0, 1), BuildingBlock: MIFKUJ_clean_linker_0, # of connection points: 2
#     Edge 25, Type (0, 1), BuildingBlock: MIFKUJ_clean_linker_0, # of connection points: 2
#     Edge 26, Type (0, 1), BuildingBlock: MIFKUJ_clean_linker_0, # of connection points: 2
# Relax obj value: 0.185
# Max RMSD: 0.145
# Mean RMSD: 0.110
data_MOF--net-anh--node1-CUWYAW_clean_sbu_0--node2-BETDAH_clean_linker_0--edge1-MIFKUJ_clean_linker_0
_symmetry_space_group_name_H-M    P1
_symmetry_Int_Tables_number       1
_symmetry_cell_setting            triclinic
loop_
_symmetry_equiv_pos_as_xyz
'x, y, z'
_cell_length_a     42.379537
_cell_length_b     42.12737
_cell_length_c     64.402617
_cell_angle_alpha  92.34357
_cell_angle_beta   91.883508
_cell_angle_gamma 120.16075
loop_
_atom_site_label
_atom_site_type_symbol
_atom_site_fract_x
_atom_site_fract_y
_atom_site_fract_z
_atom_type_partial_charge
C0 C 0.99865 0.4814 0.13434 0.0
Eu1 Eu 1.03269 0.54314 0.1563 0.0
C2 C 0.95911 0.4566 0.13246 0.0
C3 C 0.93925 0.45045 0.15031 0.0
C4 C 0.90175 0.43599 0.14844 0.0
C5 C 0.88328 0.42739 0.12872 0.0
C6 C 0.90281 0.43187 0.11082 0.0
C7 C 0.94063 0.4466 0.1127 0.0
C8 C 1.03523 0.55677 0.19896 0.0
C9 C 0.98157 0.58511 0.15953 0.0
C10 C 0.10608 0.69141 0.19189 0.0
Eu11 Eu 0.07485 0.63003 0.16952 0.0
C12 C 0.13873 0.72562 0.18796 0.0
C13 C 0.15052 0.73099 0.16767 0.0
C14 C 0.1837 0.76124 0.16376 0.0
C15 C 0.20577 0.78643 0.18013 0.0
C16 C 0.1936 0.78159 0.20044 0.0
C17 C 0.1601 0.7511 0.20435 0.0
C18 C 0.06976 0.61659 0.12767 0.0
C19 C 0.12652 0.5896 0.15953 0.0
O20 O 1.00873 0.51303 0.12656 0.0
O21 O 1.01518 0.48479 0.15259 0.0
O22 O 1.0184 0.52397 0.18966 0.0
O23 O 0.04824 0.57889 0.18488 0.0
O24 O 0.98325 0.55481 0.15369 0.0
O25 O 1.01255 0.61548 0.16739 0.0
O26 O 0.11203 0.66437 0.19549 0.0
O27 O 0.07813 0.68178 0.17861 0.0
O28 O 0.08724 0.64994 0.13626 0.0
O29 O 0.05827 0.59482 0.14186 0.0
O30 O 0.12551 0.62013 0.16603 0.0
O31 O 0.09457 0.55798 0.15491 0.0
H32 H 0.95283 0.45856 0.16575 0.0
H33 H 0.88727 0.43185 0.16253 0.0
H34 H 0.88902 0.42504 0.09546 0.0
H35 H 0.9557 0.45204 0.09875 0.0
H36 H 0.13447 0.71134 0.15488 0.0
H37 H 0.1923 0.7647 0.14794 0.0
H38 H 0.21046 0.80067 0.21331 0.0
H39 H 0.15139 0.74687 0.22013 0.0
C40 C 0.50326 0.11785 0.47724 0.0
Eu41 Eu 0.53245 0.0821 0.49267 0.0
C42 C 0.51355 0.15639 0.47812 0.0
C43 C 0.52824 0.17829 0.49676 0.0
C44 C 0.54135 0.21581 0.49697 0.0
C45 C 0.5405 0.232 0.47849 0.0
C46 C 0.52568 0.20997 0.45985 0.0
C47 C 0.51217 0.17227 0.4597 0.0
C48 C 0.5444 0.07897 0.53451 0.0
C49 C 0.62507 0.13788 0.49362 0.0
C50 C 0.59794 1.00984 0.51797 0.0
Eu51 Eu 0.57437 0.04878 0.50071 0.0
C52 C 0.5839 0.97046 0.51508 0.0
C53 C 0.56863 0.95205 0.49552 0.0
C54 C 0.55587 0.91461 0.49253 0.0
C55 C 0.55769 0.89498 0.50916 0.0
C56 C 0.57038 0.91304 0.52912 0.0
C57 C 0.58366 0.95069 0.53202 0.0
C58 C 0.56371 0.0514 0.45966 0.0
C59 C 0.48164 0.9918 0.49249 0.0
O60 O 0.52532 0.11047 0.4672 0.0
O61 O 0.49372 0.10137 0.49463 0.0
O62 O 0.51364 0.0726 0.52576 0.0
O63 O 0.5679 0.0881 0.521 0.0
O64 O 0.59196 0.13378 0.48921 0.0
O65 O 0.62553 0.10843 0.50029 0.0
O66 O 0.57596 1.01867 0.52697 0.0
O67 O 0.61246 0.02863 0.50179 0.0
O68 O 0.59387 0.05581 0.46823 0.0
O69 O 0.53976 0.04311 0.47277 0.0
O70 O 0.5139 0.99554 0.49908 0.0
O71 O 0.48241 1.02242 0.48732 0.0
H72 H 0.53011 0.16656 0.5111 0.0
H73 H 0.55204 0.23211 0.51163 0.0
H74 H 0.52509 0.22193 0.44538 0.0
H75 H 0.50148 0.15563 0.44514 0.0
H76 H 0.56742 0.96678 0.48239 0.0
H77 H 0.54644 0.90159 0.47697 0.0
H78 H 0.57124 0.89831 0.54232 0.0
H79 H 0.59419 0.96442 0.54737 0.0
C80 C 0.68005 0.58557 0.81472 0.0
Eu81 Eu 0.61518 0.55512 0.82834 0.0
C82 C 0.71179 0.58138 0.81782 0.0
C83 C 0.7182 0.569 0.83651 0.0
C84 C 0.74461 0.55865 0.83789 0.0
C85 C 0.76419 0.56001 0.82048 0.0
C86 C 0.75831 0.57325 0.802 0.0
C87 C 0.73227 0.58403 0.80071 0.0
C88 C 0.59875 0.54494 0.86924 0.0
C89 C 0.57618 0.46177 0.82567 0.0
C90 C 0.46736 0.48653 0.83237 0.0
Eu91 Eu 0.5358 0.51205 0.8266 0.0
C92 C 0.44585 0.50492 0.8318 0.0
C93 C 0.41744 0.49307 0.81639 0.0
C94 C 0.39908 0.51241 0.81403 0.0
C95 C 0.40844 0.54358 0.82727 0.0
C96 C 0.43698 0.5556 0.84266 0.0
C97 C 0.45582 0.53658 0.8448 0.0
C98 C 0.56349 0.52121 0.78897 0.0
C99 C 0.57425 0.6051 0.82467 0.0
O100 O 0.65179 0.55645 0.80545 0.0
O101 O 0.67167 0.60008 0.83047 0.0
O102 O 0.63151 0.56247 0.86282 0.0
O103 O 0.57569 0.5329 0.85369 0.0
O104 O 0.60668 0.49471 0.82502 0.0
O105 O 0.54479 0.46151 0.82793 0.0
O106 O 0.4921 0.4967 0.84778 0.0
O107 O 0.47927 0.48323 0.81446 0.0
O108 O 0.53685 0.49015 0.79424 0.0
O109 O 0.57374 0.54562 0.8037 0.0
O110 O 0.54345 0.57215 0.82502 0.0
O111 O 0.60595 0.6054 0.82577 0.0
H112 H 0.70189 0.566 0.84969 0.0
H113 H 0.74878 0.54832 0.85224 0.0
H114 H 0.7735 0.57478 0.7885 0.0
H115 H 0.72703 0.59295 0.7861 0.0
H116 H 0.40969 0.46903 0.80603 0.0
H117 H 0.3767 0.5022 0.8023 0.0
H118 H 0.44436 0.57939 0.85314 0.0
H119 H 0.4782 0.54679 0.85655 0.0
H120 H 0.51829 0.05531 0.23387 0.0
H121 H 0.63444 0.10447 0.24668 0.0
H122 H 0.58979 0.0772 0.18373 0.0
C123 C 0.54549 0.06609 0.22838 0.0
C124 C 0.55018 0.06423 0.20693 0.0
C125 C 0.57565 0.08047 0.24294 0.0
C126 C 0.61061 0.09219 0.23584 0.0
C127 C 0.61545 0.09075 0.21457 0.0
C128 C 0.58537 0.07708 0.20022 0.0
N129 N 0.65106 0.10826 0.20745 0.0
C130 C 0.65983 0.1369 0.1948 0.0
H131 H 0.62835 0.55797 0.56812 0.0
H132 H 0.69853 0.673 0.58663 0.0
H133 H 0.69191 0.63359 0.52315 0.0
C134 C 0.6478 0.58579 0.56434 0.0
C135 C 0.65879 0.59254 0.54397 0.0
C136 C 0.66249 0.6145 0.57996 0.0
C137 C 0.6882 0.65024 0.57495 0.0
C138 C 0.69834 0.65718 0.55443 0.0
C139 C 0.68423 0.62813 0.53907 0.0
N140 N 0.71737 0.69377 0.54858 0.0
C141 C 0.69882 0.70422 0.53497 0.0
H142 H 1.00861 0.50001 0.90625 0.0
H143 H 0.04985 0.43135 0.92679 0.0
H144 H 1.02542 0.43167 0.86166 0.0
C145 C 1.01731 0.4804 0.90248 0.0
C146 C 1.01514 0.46738 0.88174 0.0
C147 C 1.02993 0.46774 0.91873 0.0
C148 C 0.0393 0.44074 0.91438 0.0
C149 C 0.03805 0.42815 0.89378 0.0
C150 C 1.02583 0.44135 0.87756 0.0
N151 N 0.05304 0.40552 0.88922 0.0
C152 C 0.07833 0.41583 0.87414 0.0
H153 H 0.12152 0.64298 0.42678 0.0
H154 H 1.02285 0.53834 0.43158 0.0
H155 H 0.08908 0.60133 0.4871 0.0
C156 C 0.10299 0.62181 0.4364 0.0
C157 C 0.11123 0.6276 0.45813 0.0
C158 C 0.0721 0.59003 0.42654 0.0
C159 C 0.0464 0.56255 0.439 0.0
C160 C 0.05103 0.56547 0.46096 0.0
C161 C 0.08444 0.59832 0.47034 0.0
N162 N 1.0236 0.53665 0.47376 0.0
C163 C 0.98853 0.50219 0.46958 0.0
H164 H 0.57736 0.10968 0.75853 0.0
H165 H 0.5749 1.0068 0.76331 0.0
H166 H 0.57969 0.07086 0.81918 0.0
C167 C 0.5764 0.08905 0.7684 0.0
C168 C 0.57737 0.09552 0.79015 0.0
C169 C 0.57483 0.05749 0.7586 0.0
C170 C 0.5761 0.03081 0.77092 0.0
C171 C 0.57806 0.03446 0.79292 0.0
C172 C 0.57874 0.06748 0.80238 0.0
N173 N 0.57884 1.00608 0.80571 0.0
C174 C 0.57813 0.9712 0.80143 0.0
H175 H 0.62589 0.57553 0.09453 0.0
H176 H 0.52699 0.58084 0.09802 0.0
H177 H 0.59058 0.58958 0.15448 0.0
C178 C 0.60692 0.57872 0.10403 0.0
C179 C 0.61418 0.58287 0.12581 0.0
C180 C 0.57655 0.57855 0.09384 0.0
C181 C 0.55016 0.5812 0.10587 0.0
C182 C 0.55373 0.58511 0.1279 0.0
C183 C 0.58675 0.58646 0.13768 0.0
N184 N 0.5257 0.58782 0.14033 0.0
C185 C 0.4909 0.58723 0.13608 0.0
H186 H 0.14143 0.53138 0.15196 0.0
H187 H 0.19871 0.53124 0.14789 0.0
H188 H 0.25911 0.64911 0.15692 0.0
H189 H 0.20141 0.64919 0.16103 0.0
H190 H 0.29843 0.63612 0.13089 0.0
H191 H 0.25634 0.57732 0.19431 0.0
H192 H 0.21242 0.53156 0.21683 0.0
H193 H 0.20686 0.44406 0.17731 0.0
H194 H 0.25046 0.48932 0.15441 0.0
H195 H 0.47743 0.64683 0.13764 0.0
H196 H 0.42084 0.6484 0.14163 0.0
H197 H 0.3602 0.53043 0.14154 0.0
H198 H 0.41736 0.52919 0.1382 0.0
H199 H 0.3206 0.54393 0.16312 0.0
H200 H 0.36043 0.60157 0.09893 0.0
H201 H 0.40204 0.64658 0.07523 0.0
H202 H 0.41026 0.73517 0.11494 0.0
H203 H 0.36892 0.69067 0.13896 0.0
C204 C 0.16662 0.55766 0.15327 0.0
C205 C 0.16457 0.59024 0.15715 0.0
C206 C 0.20058 0.55757 0.15102 0.0
C207 C 0.23598 0.59012 0.1523 0.0
C208 C 0.2339 0.62285 0.15579 0.0
C209 C 0.19986 0.6229 0.15829 0.0
C210 C 0.27387 0.58996 0.14996 0.0
C211 C 0.30284 0.61595 0.13835 0.0
C212 C 0.28224 0.5639 0.15877 0.0
C213 C 0.2564 0.53667 0.17256 0.0
C214 C 0.24561 0.5483 0.19037 0.0
C215 C 0.22079 0.52247 0.2032 0.0
C216 C 0.2068 0.48492 0.19847 0.0
C217 C 0.21769 0.47315 0.18094 0.0
C218 C 0.24249 0.49888 0.16804 0.0
C219 C 0.45221 0.62083 0.13815 0.0
C220 C 0.45399 0.5878 0.13704 0.0
C221 C 0.41855 0.62166 0.14035 0.0
C222 C 0.38318 0.58948 0.1415 0.0
C223 C 0.38521 0.55647 0.14067 0.0
C224 C 0.41894 0.55567 0.13853 0.0
C225 C 0.34539 0.59006 0.14393 0.0
C226 C 0.31635 0.56413 0.15561 0.0
C227 C 0.33685 0.61605 0.13506 0.0
C228 C 0.36196 0.64285 0.12084 0.0
C229 C 0.37133 0.63067 0.10267 0.0
C230 C 0.39481 0.65608 0.08917 0.0
C231 C 0.40888 0.69372 0.09361 0.0
C232 C 0.39941 0.70602 0.11154 0.0
C233 C 0.37594 0.68072 0.12509 0.0
H234 H 0.42705 0.71334 0.08314 0.0
H235 H 0.18756 0.46495 0.20842 0.0
H236 H 0.63803 0.21007 0.48703 0.0
H237 H 0.69471 0.26819 0.48369 0.0
H238 H 0.75621 0.21276 0.48939 0.0
H239 H 0.69938 0.15503 0.49413 0.0
H240 H 0.80394 0.27256 0.50217 0.0
H241 H 0.73485 0.265 0.43808 0.0
H242 H 0.68229 0.25976 0.41717 0.0
H243 H 0.68974 0.35122 0.45356 0.0
H244 H 0.7427 0.35739 0.47442 0.0
H245 H 0.97423 0.42924 0.47118 0.0
H246 H 0.91677 0.37135 0.47441 0.0
H247 H 0.85821 0.43019 0.47496 0.0
H248 H 0.91586 0.48802 0.4711 0.0
H249 H 0.80932 0.36948 0.45909 0.0
H250 H 0.88067 0.37985 0.52135 0.0
H251 H 0.93366 0.38618 0.54222 0.0
H252 H 0.92157 0.28921 0.50978 0.0
H253 H 0.86863 0.28245 0.48864 0.0
C254 C 0.66341 0.2097 0.48757 0.0
C255 C 0.6621 0.17579 0.49096 0.0
C256 C 0.69703 0.24402 0.48523 0.0
C257 C 0.73253 0.24752 0.4854 0.0
C258 C 0.73101 0.21344 0.48892 0.0
C259 C 0.69745 0.17926 0.49164 0.0
C260 C 0.77029 0.2854 0.48252 0.0
C261 C 0.80435 0.29299 0.49233 0.0
C262 C 0.77406 0.31504 0.47036 0.0
C263 C 0.74237 0.31136 0.45791 0.0
C264 C 0.72515 0.28387 0.44163 0.0
C265 C 0.69536 0.28078 0.42978 0.0
C266 C 0.68251 0.30493 0.43414 0.0
C267 C 0.69966 0.33248 0.45022 0.0
C268 C 0.72966 0.33591 0.46199 0.0
C269 C 0.94929 0.43033 0.47185 0.0
C270 C 0.95152 0.46512 0.47057 0.0
C271 C 0.9154 0.39626 0.47409 0.0
C272 C 0.88063 0.39391 0.47562 0.0
C273 C 0.88296 0.42883 0.47403 0.0
C274 C 0.91689 0.46292 0.47174 0.0
C275 C 0.84283 0.35629 0.47853 0.0
C276 C 0.80883 0.34885 0.4688 0.0
C277 C 0.83913 0.32678 0.49074 0.0
C278 C 0.87097 0.33088 0.50329 0.0
C279 C 0.88947 0.36001 0.5186 0.0
C280 C 0.91944 0.36364 0.53049 0.0
C281 C 0.93104 0.33818 0.52729 0.0
C282 C 0.9126 0.30895 0.51223 0.0
C283 C 0.88258 0.30517 0.50031 0.0
H284 H 0.95425 0.34104 0.5365 0.0
H285 H 0.65937 0.30239 0.425 0.0
H286 H 0.51509 0.61945 0.82115 0.0
H287 H 0.51512 0.67727 0.81743 0.0
H288 H 0.63254 0.73622 0.8183 0.0
H289 H 0.63242 0.67849 0.82258 0.0
H290 H 0.62219 0.78454 0.83459 0.0
H291 H 0.55834 0.71487 0.77094 0.0
H292 H 0.51059 0.66127 0.74938 0.0
H293 H 0.42724 0.67154 0.77986 0.0
H294 H 0.47454 0.72515 0.80166 0.0
H295 H 0.63651 0.95704 0.8044 0.0
H296 H 0.63644 0.89911 0.80753 0.0
H297 H 0.51891 0.83991 0.80513 0.0
H298 H 0.51921 0.89803 0.80136 0.0
H299 H 0.52935 0.79142 0.78948 0.0
H300 H 0.59415 0.86158 0.85327 0.0
H301 H 0.64239 0.91349 0.87564 0.0
H302 H 0.72473 0.90149 0.8451 0.0
H303 H 0.67697 0.84967 0.82248 0.0
C304 C 0.5412 0.64449 0.82053 0.0
C305 C 0.57374 0.64237 0.82224 0.0
C306 C 0.54127 0.67858 0.81809 0.0
C307 C 0.57388 0.71354 0.81693 0.0
C308 C 0.60636 0.71129 0.81893 0.0
C309 C 0.60628 0.67726 0.82139 0.0
C310 C 0.57448 0.75157 0.81403 0.0
C311 C 0.60185 0.78544 0.82438 0.0
C312 C 0.54835 0.75557 0.80122 0.0
C313 C 0.51993 0.72376 0.78803 0.0
C314 C 0.52982 0.7056 0.77307 0.0
C315 C 0.50285 0.67526 0.7608 0.0
C316 C 0.46591 0.66296 0.76328 0.0
C317 C 0.45586 0.68109 0.77797 0.0
C318 C 0.48273 0.7115 0.79025 0.0
C319 C 0.61036 0.93186 0.80439 0.0
C320 C 0.57789 0.93401 0.80232 0.0
C321 C 0.61025 0.8977 0.80658 0.0
C322 C 0.57761 0.86263 0.80725 0.0
C323 C 0.54513 0.86491 0.80487 0.0
C324 C 0.54526 0.89909 0.80264 0.0
C325 C 0.57708 0.82454 0.8101 0.0
C326 C 0.54972 0.79061 0.7997 0.0
C327 C 0.60332 0.8205 0.82284 0.0
C328 C 0.63204 0.85209 0.83604 0.0
C329 C 0.62257 0.87024 0.85123 0.0
C330 C 0.64981 0.89958 0.86398 0.0
C331 C 0.6866 0.91086 0.86174 0.0
C332 C 0.69623 0.89278 0.84678 0.0
C333 C 0.6691 0.86342 0.83401 0.0
H334 H 0.70765 0.93355 0.87164 0.0
H335 H 0.44506 0.63941 0.75381 0.0
H336 H 0.91143 0.53163 0.14051 0.0
H337 H 0.85364 0.53174 0.13647 0.0
H338 H 0.90412 0.63874 0.16866 0.0
H339 H 0.96206 0.63857 0.17273 0.0
H340 H 0.83743 0.61029 0.17948 0.0
H341 H 0.87173 0.6117 0.10945 0.0
H342 H 0.88918 0.59091 0.07775 0.0
H343 H 0.79008 0.48618 0.07658 0.0
H344 H 0.77221 0.50626 0.1084 0.0
H345 H 0.67672 0.63191 0.15418 0.0
H346 H 0.73565 0.63447 0.16047 0.0
H347 H 0.69641 0.53557 0.12102 0.0
H348 H 0.63856 0.53385 0.11436 0.0
H349 H 0.75942 0.56253 0.11406 0.0
H350 H 0.72612 0.56055 0.1853 0.0
H351 H 0.70952 0.58192 0.21715 0.0
H352 H 0.8066 0.68786 0.21611 0.0
H353 H 0.82363 0.66716 0.18418 0.0
C354 C 0.9109 0.55558 0.14681 0.0
C355 C 0.94365 0.58512 0.15706 0.0
C356 C 0.8768 0.55581 0.14427 0.0
C357 C 0.87204 0.58557 0.15177 0.0
C358 C 0.90468 0.61485 0.16232 0.0
C359 C 0.93891 0.61478 0.16468 0.0
C360 C 0.83421 0.58609 0.14885 0.0
C361 C 0.82097 0.59998 0.16491 0.0
C362 C 0.81001 0.57267 0.13032 0.0
C363 C 0.82085 0.56033 0.11142 0.0
C364 C 0.85381 0.58414 0.10252 0.0
C365 C 0.86374 0.57251 0.08451 0.0
C366 C 0.8408 0.53721 0.07519 0.0
C367 C 0.80785 0.51349 0.08384 0.0
C368 C 0.7978 0.52498 0.10185 0.0
C369 C 0.67983 0.60995 0.14713 0.0
C370 C 0.65029 0.58218 0.13382 0.0
C371 C 0.71473 0.61136 0.15081 0.0
C372 C 0.72322 0.58492 0.14171 0.0
C373 C 0.69335 0.55713 0.12866 0.0
C374 C 0.65889 0.55591 0.1249 0.0
C375 C 0.7619 0.58593 0.14485 0.0
C376 C 0.77551 0.57251 0.12874 0.0
C377 C 0.78635 0.59973 0.16336 0.0
C378 C 0.77589 0.61245 0.18225 0.0
C379 C 0.74376 0.58847 0.1918 0.0
C380 C 0.73432 0.60045 0.20987 0.0
C381 C 0.75693 0.63626 0.21861 0.0
C382 C 0.78907 0.66016 0.2093 0.0
C383 C 0.79864 0.64832 0.19123 0.0
H384 H 0.74959 0.64546 0.23261 0.0
H385 H 0.84852 0.52826 0.06124 0.0
H386 H 0.46265 0.92026 0.50543 0.0
H387 H 0.40409 0.86208 0.50232 0.0
H388 H 0.35449 0.91478 0.46981 0.0
H389 H 0.41251 0.97322 0.47404 0.0
H390 H 0.30084 0.8687 0.48459 0.0
H391 H 0.37923 0.83376 0.4503 0.0
H392 H 0.43202 0.82475 0.44639 0.0
H393 H 0.40344 0.76004 0.49976 0.0
H394 H 0.35055 0.7688 0.50403 0.0
H395 H 0.13629 0.69973 0.44679 0.0
H396 H 0.19508 0.75622 0.4529 0.0
H397 H 0.23268 0.70117 0.49282 0.0
H398 H 0.17325 0.64342 0.48605 0.0
H399 H 0.292 0.74725 0.47557 0.0
H400 H 0.21096 0.78062 0.50794 0.0
H401 H 0.15705 0.78824 0.50988 0.0
H402 H 0.1909 0.85628 0.45792 0.0
H403 H 0.2449 0.84889 0.4556 0.0
C404 C 0.43952 0.91988 0.49752 0.0
C405 C 0.44427 0.95333 0.49005 0.0
C406 C 0.40499 0.88541 0.49538 0.0
C407 C 0.37235 0.88112 0.48514 0.0
C408 C 0.37737 0.91482 0.47781 0.0
C409 C 0.41166 0.94929 0.4802 0.0
C410 C 0.33375 0.84313 0.48239 0.0
C411 C 0.29979 0.84256 0.48231 0.0
C412 C 0.32909 0.8068 0.47978 0.0
C413 C 0.36116 0.80215 0.47756 0.0
C414 C 0.38436 0.8178 0.46126 0.0
C415 C 0.41424 0.81269 0.45897 0.0
C416 C 0.42101 0.79179 0.4728 0.0
C417 C 0.39809 0.77616 0.48905 0.0
C418 C 0.36815 0.78114 0.49139 0.0
C419 C 0.15647 0.69907 0.45722 0.0
C420 C 0.14763 0.66511 0.46597 0.0
C421 C 0.19117 0.73259 0.46095 0.0
C422 C 0.22062 0.73566 0.47391 0.0
C423 C 0.21198 0.70175 0.48282 0.0
C424 C 0.17688 0.66791 0.4791 0.0
C425 C 0.25941 0.7731 0.47757 0.0
C426 C 0.29328 0.77352 0.47782 0.0
C427 C 0.26404 0.80936 0.4801 0.0
C428 C 0.23175 0.81394 0.4815 0.0
C429 C 0.20679 0.79707 0.49688 0.0
C430 C 0.17625 0.80138 0.49805 0.0
C431 C 0.17051 0.82266 0.484 0.0
C432 C 0.19537 0.83979 0.46879 0.0
C433 C 0.22597 0.83561 0.46756 0.0
H434 H 0.14683 0.82592 0.48493 0.0
H435 H 0.44386 0.78748 0.47086 0.0
H436 H 0.52831 0.39558 0.80213 0.0
H437 H 0.52961 0.33925 0.79603 0.0
H438 H 0.62468 0.38155 0.83855 0.0
H439 H 0.62584 0.44031 0.84218 0.0
H440 H 0.63247 0.33567 0.82529 0.0
H441 H 0.49932 0.28322 0.83455 0.0
H442 H 0.43788 0.27412 0.82602 0.0
H443 H 0.44719 0.25239 0.76144 0.0
H444 H 0.50853 0.26122 0.76964 0.0
H445 H 0.6143 0.15083 0.82473 0.0
H446 H 0.61487 0.20902 0.83242 0.0
H447 H 0.53956 0.18371 0.77952 0.0
H448 H 0.53714 0.12548 0.77288 0.0
H449 H 0.52218 0.21946 0.79967 0.0
H450 H 0.65217 0.26395 0.792 0.0
H451 H 0.71198 0.26987 0.80135 0.0
H452 H 0.7068 0.30354 0.86438 0.0
H453 H 0.64701 0.29782 0.85539 0.0
C454 C 0.54965 0.39324 0.81038 0.0
C455 C 0.57666 0.42424 0.82297 0.0
C456 C 0.54997 0.35923 0.80726 0.0
C457 C 0.57603 0.35185 0.81748 0.0
C458 C 0.60327 0.38338 0.83008 0.0
C459 C 0.60393 0.41815 0.83241 0.0
C460 C 0.57579 0.31323 0.81492 0.0
C461 C 0.60762 0.31067 0.81992 0.0
C462 C 0.54488 0.27798 0.80755 0.0
C463 C 0.50853 0.27337 0.80266 0.0
C464 C 0.48823 0.27665 0.81854 0.0
C465 C 0.45345 0.27148 0.81377 0.0
C466 C 0.43872 0.26284 0.7932 0.0
C467 C 0.45866 0.25917 0.77736 0.0
C468 C 0.49336 0.26418 0.78205 0.0
C469 C 0.59731 0.15707 0.81479 0.0
C470 C 0.57591 0.13145 0.7978 0.0
C471 C 0.5982 0.19178 0.81899 0.0
C472 C 0.5781 0.20393 0.80641 0.0
C473 C 0.55602 0.17756 0.78996 0.0
C474 C 0.55489 0.14316 0.78593 0.0
C475 C 0.57861 0.24225 0.80996 0.0
C476 C 0.54689 0.24466 0.80509 0.0
C477 C 0.60941 0.27704 0.81768 0.0
C478 C 0.64505 0.28011 0.82307 0.0
C479 C 0.66376 0.27245 0.80787 0.0
C480 C 0.69765 0.27582 0.8131 0.0
C481 C 0.71311 0.28695 0.83346 0.0
C482 C 0.69474 0.29479 0.84864 0.0
C483 C 0.66092 0.2916 0.84347 0.0
H484 H 0.73938 0.28961 0.83747 0.0
H485 H 0.41182 0.25889 0.78954 0.0
H486 H 0.50469 0.83845 0.48311 0.0
H487 H 0.50158 0.77977 0.47301 0.0
H488 H 0.59468 0.81003 0.51541 0.0
H489 H 0.59869 0.86814 0.52499 0.0
H490 H 0.5826 0.78142 0.4623 0.0
H491 H 0.54567 0.74105 0.545 0.0
H492 H 0.50088 0.74039 0.56878 0.0
H493 H 0.42322 0.71312 0.517 0.0
H494 H 0.46757 0.71364 0.49293 0.0
H495 H 0.70196 0.76787 0.52736 0.0
H496 H 0.65347 0.77464 0.5101 0.0
H497 H 0.58721 0.65673 0.49901 0.0
H498 H 0.63596 0.64996 0.51636 0.0
H499 H 0.55189 0.69521 0.5185 0.0
H500 H 0.60986 0.69548 0.45591 0.0
H501 H 0.66432 0.71053 0.43642 0.0
H502 H 0.70551 0.82583 0.45002 0.0
H503 H 0.65142 0.81148 0.46965 0.0
C504 C 0.52419 0.83222 0.49033 0.0
C505 C 0.55167 0.85762 0.505 0.0
C506 C 0.5224 0.79896 0.48451 0.0
C507 C 0.54799 0.79107 0.49347 0.0
C508 C 0.57468 0.81591 0.50844 0.0
C509 C 0.57659 0.84887 0.51412 0.0
C510 C 0.54869 0.75741 0.48782 0.0
C511 C 0.57452 0.76091 0.47373 0.0
C512 C 0.53747 0.73052 0.50255 0.0
C513 C 0.50966 0.72663 0.51723 0.0
C514 C 0.51877 0.73412 0.53875 0.0
C515 C 0.49357 0.73411 0.55225 0.0
C516 C 0.45915 0.7265 0.54442 0.0
C517 C 0.44982 0.71884 0.52306 0.0
C518 C 0.47496 0.719 0.50949 0.0
C519 C 0.67737 0.74359 0.52082 0.0
C520 C 0.67258 0.70858 0.52272 0.0
C521 C 0.64974 0.74735 0.51105 0.0
C522 C 0.61707 0.71612 0.50309 0.0
C523 C 0.61236 0.68103 0.50491 0.0
C524 C 0.64017 0.67729 0.51465 0.0
C525 C 0.58779 0.72123 0.49387 0.0
C526 C 0.55738 0.71255 0.50553 0.0
C527 C 0.59474 0.74335 0.47678 0.0
C528 C 0.62635 0.75236 0.46402 0.0
C529 C 0.63044 0.72404 0.45461 0.0
C530 C 0.66128 0.73246 0.44359 0.0
C531 C 0.68829 0.76912 0.44192 0.0
C532 C 0.68445 0.79745 0.45121 0.0
C533 C 0.6536 0.7892 0.46218 0.0
H534 H 0.71225 0.77557 0.43348 0.0
H535 H 0.43977 0.72669 0.55488 0.0
H536 H 0.76688 0.50991 0.79386 0.0
H537 H 0.81313 0.49106 0.79453 0.0
H538 H 0.86654 0.56293 0.84971 0.0
H539 H 0.8203 0.58154 0.84923 0.0
H540 H 0.91204 0.57021 0.81433 0.0
H541 H 0.81966 0.47996 0.85718 0.0
H542 H 0.75707 0.43018 0.86256 0.0
H543 H 0.76303 0.36438 0.81184 0.0
H544 H 0.82555 0.41408 0.80597 0.0
H545 H 1.02266 0.53561 0.8785 0.0
H546 H 0.98506 0.55017 0.85649 0.0
H547 H 0.94005 0.44456 0.82236 0.0
H548 H 0.97411 0.42786 0.84614 0.0
H549 H 0.88825 0.44855 0.83525 0.0
H550 H 0.98786 0.53464 0.79832 0.0
H551 H 0.04947 0.58561 0.79221 0.0
H552 H 1.03092 0.66001 0.83031 0.0
H553 H 0.96943 0.60952 0.83683 0.0
C554 C 0.78855 0.52153 0.8061 0.0
C555 C 0.79054 0.54727 0.82143 0.0
C556 C 0.81469 0.51075 0.80647 0.0
C557 C 0.84308 0.52598 0.82204 0.0
C558 C 0.84476 0.55125 0.83752 0.0
C559 C 0.81841 0.56163 0.83732 0.0
C560 C 0.87163 0.51618 0.8223 0.0
C561 C 0.90723 0.54367 0.81884 0.0
C562 C 0.8644 0.48097 0.8272 0.0
C563 C 0.82702 0.45096 0.83091 0.0
C564 C 0.80749 0.45504 0.84704 0.0
C565 C 0.77207 0.42681 0.85021 0.0
C566 C 0.75601 0.39424 0.83747 0.0
C567 C 0.77546 0.38969 0.82164 0.0
C568 C 0.81088 0.41788 0.81838 0.0
C569 C 1.00481 0.51538 0.86632 0.0
C570 C 1.00031 0.47994 0.86476 0.0
C571 C 0.984 0.52423 0.85324 0.0
C572 C 0.95951 0.49844 0.83767 0.0
C573 C 0.9585 0.4648 0.83438 0.0
C574 C 0.97831 0.45538 0.84798 0.0
C575 C 0.93001 0.50338 0.82831 0.0
C576 C 0.89371 0.47486 0.82996 0.0
C577 C 0.9367 0.53776 0.82168 0.0
C578 C 0.97399 0.56818 0.81807 0.0
C579 C 0.99701 0.5618 0.80551 0.0
C580 C 1.0319 0.59065 0.80194 0.0
C581 C 0.0441 0.62601 0.81086 0.0
C582 C 1.02143 0.63263 0.82337 0.0
C583 C 0.98651 0.60392 0.82695 0.0
H584 H 0.07111 0.64829 0.80808 0.0
H585 H 0.72852 0.37255 0.83987 0.0
H586 H 0.25636 0.78318 0.15675 0.0
H587 H 0.31598 0.83423 0.14906 0.0
H588 H 0.29631 0.90897 0.18675 0.0
H589 H 0.236 0.8582 0.19388 0.0
H590 H 0.32736 0.93802 0.15069 0.0
H591 H 0.345 0.87476 0.20691 0.0
H592 H 0.34074 0.82135 0.2238 0.0
H593 H 0.40206 0.80721 0.1762 0.0
H594 H 0.40626 0.8603 0.15886 0.0
H595 H 0.48747 0.06819 0.20714 0.0
H596 H 0.42993 1.02651 0.1876 0.0
H597 H 0.4836 0.98075 0.15173 0.0
H598 H 0.54052 1.02042 0.172 0.0
H599 H 0.43644 0.93313 0.17606 0.0
H600 H 0.43108 1.01131 0.12636 0.0
H601 H 0.43479 0.06688 0.11274 0.0
H602 H 0.35126 0.05709 0.1524 0.0
H603 H 0.34732 1.00176 0.16643 0.0
C604 C 0.26461 0.81063 0.16314 0.0
C605 C 0.24182 0.81701 0.17589 0.0
C606 C 0.29856 0.83959 0.15878 0.0
C607 C 0.31023 0.8751 0.16735 0.0
C608 C 0.28741 0.88163 0.1799 0.0
C609 C 0.25336 0.85269 0.1842 0.0
C610 C 0.34725 0.90522 0.16448 0.0
C611 C 0.35143 0.93724 0.15617 0.0
C612 C 0.37825 0.90327 0.17112 0.0
C613 C 0.37544 0.87111 0.18141 0.0
C614 C 0.35723 0.86001 0.19992 0.0
C615 C 0.3549 0.82986 0.2096 0.0
C616 C 0.37098 0.8108 0.20103 0.0
C617 C 0.38951 0.82192 0.18278 0.0
C618 C 0.39187 0.85203 0.17302 0.0
C619 C 0.48718 0.04972 0.19484 0.0
C620 C 0.51824 0.0467 0.19166 0.0
C621 C 0.45444 1.02652 0.18331 0.0
C622 C 0.45256 1.00041 0.16832 0.0
C623 C 0.48463 1.0008 0.16324 0.0
C624 C 0.51718 1.02352 0.17495 0.0
C625 C 0.417 0.96705 0.16291 0.0
C626 C 0.41281 0.93398 0.16977 0.0
C627 C 0.38607 0.96853 0.15549 0.0
C628 C 0.38904 1.00241 0.1475 0.0
C629 C 0.41375 1.0212 0.13232 0.0
C630 C 0.41581 0.05261 0.12449 0.0
C631 C 0.3933 0.06552 0.13171 0.0
C632 C 0.36867 0.04706 0.1468 0.0
C633 C 0.36646 1.01562 0.15466 0.0
H634 H 0.3949 0.08981 0.1256 0.0
H635 H 0.36919 0.7875 0.20856 0.0
H636 H 0.50932 0.26655 0.45901 0.0
H637 H 0.52862 0.33191 0.46306 0.0
H638 H 0.62054 0.35167 0.5037 0.0
H639 H 0.6024 0.28672 0.49911 0.0
H640 H 0.57036 0.37383 0.52006 0.0
H641 H 0.64216 0.3837 0.46167 0.0
H642 H 0.64958 0.36479 0.42628 0.0
H643 H 0.57463 0.3957 0.40095 0.0
H644 H 0.56629 0.41426 0.43627 0.0
H645 H 0.69715 0.5691 0.52188 0.0
H646 H 0.67215 0.50998 0.50176 0.0
H647 H 0.56267 0.48837 0.51023 0.0
H648 H 0.58763 0.54701 0.53099 0.0
H649 H 0.61644 0.46651 0.4668 0.0
H650 H 0.53039 0.42829 0.53139 0.0
H651 H 0.52693 0.44554 0.56805 0.0
H652 H 0.63691 0.46961 0.58184 0.0
H653 H 0.64105 0.45298 0.54518 0.0
C654 C 0.53416 0.28501 0.46836 0.0
C655 C 0.5542 0.2717 0.47895 0.0
C656 C 0.54496 0.32212 0.47072 0.0
C657 C 0.57568 0.34602 0.48376 0.0
C658 C 0.59655 0.33319 0.49371 0.0
C659 C 0.58608 0.29624 0.49116 0.0
C660 C 0.58468 0.38401 0.48823 0.0
C661 C 0.58008 0.394 0.50837 0.0
C662 C 0.59738 0.40993 0.4729 0.0
C663 C 0.60339 0.40013 0.45161 0.0
C664 C 0.62711 0.3863 0.44856 0.0
C665 C 0.6315 0.37564 0.42852 0.0
C666 C 0.61254 0.37898 0.41138 0.0
C667 C 0.58929 0.39313 0.41425 0.0
C668 C 0.58475 0.40377 0.43427 0.0
C669 C 0.66782 0.55219 0.51882 0.0
C670 C 0.64412 0.5619 0.52807 0.0
C671 C 0.65362 0.51869 0.50728 0.0
C672 C 0.6157 0.495 0.50478 0.0
C673 C 0.59203 0.50641 0.51221 0.0
C674 C 0.60621 0.53963 0.52405 0.0
C675 C 0.60164 0.45614 0.49857 0.0
C676 C 0.60563 0.44598 0.47824 0.0
C677 C 0.58856 0.42985 0.51373 0.0
C678 C 0.58609 0.43973 0.53566 0.0
C679 C 0.55379 0.43734 0.54229 0.0
C680 C 0.55175 0.44708 0.56302 0.0
C681 C 0.58172 0.45876 0.57725 0.0
C682 C 0.61379 0.46072 0.57078 0.0
C683 C 0.61603 0.45127 0.55004 0.0
H684 H 0.58007 0.46622 0.5933 0.0
H685 H 0.61591 0.37066 0.39588 0.0
H686 H 0.37699 0.5553 0.86015 0.0
H687 H 0.32043 0.55654 0.8582 0.0
H688 H 0.32753 0.56726 0.79188 0.0
H689 H 0.38424 0.56507 0.79375 0.0
H690 H 0.28294 0.58783 0.84501 0.0
H691 H 0.2565 0.5069 0.77011 0.0
H692 H 0.28009 0.47406 0.74884 0.0
H693 H 0.30969 0.43939 0.80432 0.0
H694 H 0.2866 0.47236 0.82584 0.0
H695 H 0.09086 0.47494 0.85372 0.0
H696 H 0.14555 0.51411 0.83524 0.0
H697 H 0.18535 0.43951 0.8463 0.0
H698 H 0.13041 0.40017 0.86446 0.0
H699 H 0.20156 0.46505 0.8089 0.0
H700 H 0.20658 0.51373 0.87945 0.0
H701 H 0.18902 0.54072 0.90836 0.0
H702 H 0.20835 0.6314 0.87206 0.0
H703 H 0.22539 0.60453 0.84277 0.0
C704 C 0.36757 0.55985 0.84532 0.0
C705 C 0.38424 0.55916 0.82701 0.0
C706 C 0.33517 0.56063 0.8442 0.0
C707 C 0.3193 0.5609 0.82478 0.0
C708 C 0.33906 0.56627 0.80693 0.0
C709 C 0.37135 0.56502 0.80801 0.0
C710 C 0.27946 0.54615 0.82308 0.0
C711 C 0.26476 0.56163 0.83654 0.0
C712 C 0.256 0.51162 0.81232 0.0
C713 C 0.27007 0.49212 0.79948 0.0
C714 C 0.26808 0.49226 0.7777 0.0
C715 C 0.28142 0.47372 0.76563 0.0
C716 C 0.29643 0.4547 0.77523 0.0
C717 C 0.29811 0.45416 0.79691 0.0
C718 C 0.28503 0.47285 0.80904 0.0
C719 C 0.11088 0.46648 0.85161 0.0
C720 C 0.10678 0.43467 0.86024 0.0
C721 C 0.14209 0.48893 0.84119 0.0
C722 C 0.16954 0.47983 0.83955 0.0
C723 C 0.16432 0.44687 0.84728 0.0
C724 C 0.13311 0.42445 0.85764 0.0
C725 C 0.20532 0.5058 0.83173 0.0
C726 C 0.21903 0.49237 0.81635 0.0
C727 C 0.22815 0.54144 0.8415 0.0
C728 C 0.21639 0.55669 0.85876 0.0
C729 C 0.20647 0.53909 0.8775 0.0
C730 C 0.19675 0.55444 0.89399 0.0
C731 C 0.19734 0.58763 0.892 0.0
C732 C 0.20767 0.60556 0.87353 0.0
C733 C 0.21726 0.59024 0.85697 0.0
H734 H 0.18997 0.59956 0.90481 0.0
H735 H 0.30671 0.44035 0.76586 0.0
H736 H 0.84303 0.44995 0.15041 0.0
H737 H 0.77963 0.40954 0.1586 0.0
H738 H 0.77001 0.32786 0.1122 0.0
H739 H 0.83348 0.36744 0.10443 0.0
H740 H 0.70165 0.32182 0.12106 0.0
H741 H 0.81043 0.3292 0.1548 0.0
H742 H 0.87043 0.35913 0.17437 0.0
H743 H 0.82723 0.3949 0.2236 0.0
H744 H 0.76698 0.36541 0.20415 0.0
H745 H 0.67526 0.15473 0.15499 0.0
H746 H 0.68463 0.21163 0.14039 0.0
H747 H 0.65599 0.24323 0.19823 0.0
H748 H 0.64659 0.18644 0.21271 0.0
H749 H 0.72816 0.28551 0.18883 0.0
H750 H 0.61183 0.24649 0.15701 0.0
H751 H 0.55405 0.20785 0.136 0.0
H752 H 0.61349 0.22204 0.08113 0.0
H753 H 0.67167 0.26029 0.10182 0.0
C754 C 0.82686 0.42395 0.1414 0.0
C755 C 0.8433 0.41101 0.1274 0.0
C756 C 0.79061 0.40115 0.14593 0.0
C757 C 0.7707 0.36558 0.13631 0.0
C758 C 0.78516 0.35529 0.11979 0.0
C759 C 0.82151 0.3779 0.1154 0.0
C760 C 0.7408 0.33623 0.14694 0.0
C761 C 0.70694 0.31387 0.136 0.0
C762 C 0.74795 0.32649 0.16658 0.0
C763 C 0.78455 0.346 0.17779 0.0
C764 C 0.81393 0.34401 0.16963 0.0
C765 C 0.84789 0.36066 0.18076 0.0
C766 C 0.85272 0.37914 0.20016 0.0
C767 C 0.82353 0.38085 0.2085 0.0
C768 C 0.78948 0.36421 0.19742 0.0
C769 C 0.67029 0.17362 0.16429 0.0
C770 C 0.66157 0.16752 0.18503 0.0
C771 C 0.67484 0.20558 0.15588 0.0
C772 C 0.67073 0.23142 0.16825 0.0
C773 C 0.65883 0.22341 0.18842 0.0
C774 C 0.6542 0.19149 0.19676 0.0
C775 C 0.68925 0.26985 0.16258 0.0
C776 C 0.7215 0.29407 0.17445 0.0
C777 C 0.681 0.2803 0.14351 0.0
C778 C 0.64619 0.25624 0.13103 0.0
C779 C 0.61264 0.24106 0.14051 0.0
C780 C 0.57979 0.21929 0.12863 0.0
C781 C 0.5801 0.21249 0.10725 0.0
C782 C 0.61328 0.22736 0.0977 0.0
C783 C 0.64621 0.24915 0.10949 0.0
H784 H 0.55462 0.19571 0.09807 0.0
H785 H 0.87902 0.39197 0.20877 0.0
H786 H 0.11839 0.64983 0.09805 0.0
H787 H 0.11165 0.62836 0.06113 0.0
H788 H 1.00355 0.5386 0.07033 0.0
H789 H 1.00931 0.56151 0.10668 0.0
H790 H 0.0723 0.52963 0.05229 0.0
H791 H 0.98824 0.57812 0.04512 0.0
H792 H 0.97333 0.62759 0.04834 0.0
H793 H 0.06288 0.69491 0.01137 0.0
H794 H 0.07862 0.64596 0.00822 0.0
H795 H 1.00309 0.43289 0.95418 0.0
H796 H 1.0104 0.46148 0.98926 0.0
H797 H 0.07684 0.56889 0.96609 0.0
H798 H 0.06825 0.54037 0.93094 0.0
H799 H 1.03264 0.57223 0.99135 0.0
H800 H 0.11428 0.52544 -0.00544 0.0
H801 H 0.13276 0.47874 0.99019 0.0
H802 H 0.05554 0.41286 0.03386 0.0
H803 H 1.03623 0.45896 0.03827 0.0
C804 C 0.09308 0.62583 0.09203 0.0
C805 C 0.06492 0.60611 0.10527 0.0
C806 C 0.08929 0.61363 0.07106 0.0
C807 C 0.05728 0.58174 0.06322 0.0
C808 C 1.0286 0.56302 0.07625 0.0
C809 C 1.03219 0.57555 0.09704 0.0
C810 C 0.05456 0.56636 0.04185 0.0
C811 C 0.06334 0.53862 0.03892 0.0
C812 C 0.04403 0.57909 0.02453 0.0
C813 C 1.03499 0.60869 0.02677 0.0
C814 C 1.0051 0.60369 0.03797 0.0
C815 C 0.99639 0.63157 0.0397 0.0
C816 C 1.01726 0.66445 0.03015 0.0
C817 C 0.04682 0.66949 0.01882 0.0
C818 C 0.05564 0.64169 0.01707 0.0
C819 C 1.01933 0.46256 0.9567 0.0
C820 C 1.03515 0.48451 0.94002 0.0
C821 C 1.02362 0.47889 0.97669 0.0
C822 C 0.04462 0.51735 0.98037 0.0
C823 C 0.06047 0.53922 0.96364 0.0
C824 C 0.05565 0.52295 0.94362 0.0
C825 C 0.04982 0.53481 0.00162 0.0
C826 C 0.04174 0.56314 0.0046 0.0
C827 C 0.06167 0.52304 0.01897 0.0
C828 C 0.07363 0.49553 0.01663 0.0
C829 C 0.10111 0.5009 0.00315 0.0
C830 C 0.11174 0.47455 0.00067 0.0
C831 C 0.09529 0.44282 0.01171 0.0
C832 C 0.06825 0.43745 0.02531 0.0
C833 C 0.05748 0.4637 0.02783 0.0
H834 H 0.10353 0.42243 0.00975 0.0
H835 H 1.01043 0.68597 0.03147 0.0
H836 H 0.60797 0.05614 0.42918 0.0
H837 H 0.60303 0.06803 0.39291 0.0
H838 H 0.50407 0.07016 0.40369 0.0
H839 H 0.50747 0.05521 0.43986 0.0
H840 H 0.49706 0.04072 0.36699 0.0
H841 H 0.58807 0.15089 0.40082 0.0
H842 H 0.64173 0.19179 0.42439 0.0
H843 H 0.71048 0.17082 0.38548 0.0
H844 H 0.65706 0.1288 0.36202 0.0
H845 H 0.53149 0.10199 0.26169 0.0
H846 H 0.52361 0.10649 0.29907 0.0
H847 H 0.60145 0.07142 0.31226 0.0
H848 H 0.60887 0.06607 0.27517 0.0
H849 H 0.61224 0.13342 0.33788 0.0
H850 H 0.5101 1.01093 0.30956 0.0
H851 H 0.45457 0.97512 0.2862 0.0
H852 H 0.40517 0.0316 0.31525 0.0
H853 H 0.46062 0.06804 0.33861 0.0
C854 C 0.58497 0.05881 0.42379 0.0
C855 C 0.55854 0.05558 0.43741 0.0
C856 C 0.58234 0.066 0.4031 0.0
C857 C 0.55398 0.07151 0.39573 0.0
C858 C 0.52655 0.06666 0.40909 0.0
C859 C 0.52864 0.05838 0.42976 0.0
C860 C 0.55362 0.08227 0.37408 0.0
C861 C 0.52207 0.06156 0.36077 0.0
C862 C 0.5858 0.11036 0.36593 0.0
C863 C 0.6184 0.13652 0.37965 0.0
C864 C 0.61458 0.15484 0.39731 0.0
C865 C 0.64498 0.1782 0.41069 0.0
C866 C 0.67951 0.18396 0.40642 0.0
C867 C 0.68371 0.16637 0.38875 0.0
C868 C 0.65336 0.14274 0.37541 0.0
C869 C 0.5467 0.09498 0.27258 0.0
C870 C 0.57078 0.08358 0.26548 0.0
C871 C 0.54236 0.09786 0.29388 0.0
C872 C 0.56203 0.08936 0.30834 0.0
C873 C 0.58631 0.07844 0.30131 0.0
C874 C 0.59054 0.07542 0.28011 0.0
C875 C 0.55672 0.09003 0.33087 0.0
C876 C 0.58712 0.11328 0.34435 0.0
C877 C 0.52322 0.06533 0.33921 0.0
C878 C 0.48952 0.04231 0.32572 0.0
C879 C 0.4874 1.01571 0.31093 0.0
C880 C 0.45597 0.99535 0.29768 0.0
C881 C 0.42638 1.00112 0.29922 0.0
C882 C 0.4281 0.02716 0.31407 0.0
C883 C 0.4595 0.04764 0.32733 0.0
H884 H 0.40212 0.9854 0.28891 0.0
H885 H 0.703 0.20203 0.4168 0.0
H886 H 0.5177 0.48911 0.75442 0.0
H887 H 0.53023 0.50579 0.71855 0.0
H888 H 0.64178 0.58688 0.73858 0.0
H889 H 0.62751 0.57367 0.77461 0.0
H890 H 0.62348 0.61515 0.71265 0.0
H891 H 0.60594 0.49128 0.71052 0.0
H892 H 0.57203 0.4243 0.71436 0.0
H893 H 0.4858 0.41218 0.67192 0.0
H894 H 0.51902 0.47909 0.66799 0.0
H895 H 0.7049 0.63653 0.61617 0.0
H896 H 0.68477 0.62105 0.65138 0.0
H897 H 0.57237 0.56024 0.62698 0.0
H898 H 0.59249 0.5751 0.59169 0.0
H899 H 0.58641 0.52178 0.65362 0.0
H900 H 0.60809 0.64553 0.6538 0.0
H901 H 0.64475 0.71185 0.64853 0.0
H902 H 0.72677 0.72326 0.69403 0.0
H903 H 0.69079 0.65694 0.69941 0.0
C904 C 0.54491 0.5104 0.75107 0.0
C905 C 0.57195 0.52957 0.76721 0.0
C906 C 0.55223 0.51967 0.73049 0.0
C907 C 0.58737 0.54687 0.72554 0.0
C908 C 0.61444 0.56571 0.7418 0.0
C909 C 0.60651 0.55778 0.76245 0.0
C910 C 0.5959 0.55697 0.70368 0.0
C911 C 0.6158 0.59454 0.69988 0.0
C912 C 0.58477 0.53038 0.68664 0.0
C913 C 0.56479 0.49021 0.68914 0.0
C914 C 0.57964 0.47434 0.70212 0.0
C915 C 0.56056 0.43639 0.70429 0.0
C916 C 0.52674 0.41402 0.69344 0.0
C917 C 0.51196 0.42953 0.68034 0.0
C918 C 0.53091 0.46744 0.67813 0.0
C919 C 0.6759 0.62025 0.6184 0.0
C920 C 0.65024 0.60699 0.60131 0.0
C921 C 0.66442 0.61147 0.63847 0.0
C922 C 0.62704 0.58987 0.6418 0.0
C923 C 0.60133 0.57693 0.62473 0.0
C924 C 0.61283 0.5854 0.60464 0.0
C925 C 0.61492 0.57958 0.663 0.0
C926 C 0.59409 0.54214 0.66655 0.0
C927 C 0.62557 0.60618 0.67983 0.0
C928 C 0.64681 0.64623 0.67694 0.0
C929 C 0.634 0.66216 0.66263 0.0
C930 C 0.65466 0.69976 0.65963 0.0
C931 C 0.68808 0.72175 0.67092 0.0
C932 C 0.70087 0.70621 0.6853 0.0
C933 C 0.68032 0.66864 0.68836 0.0
H934 H 0.70406 0.75083 0.66855 0.0
H935 H 0.51202 0.38465 0.69514 0.0
H936 H 0.60216 0.07796 0.5551 0.0
H937 H 0.61035 0.07192 0.59251 0.0
H938 H 0.51095 0.07255 0.60338 0.0
H939 H 0.50173 0.07681 0.56601 0.0
H940 H 0.58159 0.12359 0.63232 0.0
H941 H 0.49925 0.99709 0.60437 0.0
H942 H 0.48429 0.94479 0.5794 0.0
H943 H 0.5809 0.94452 0.60141 0.0
H944 H 0.59673 0.99726 0.62631 0.0
H945 H 0.53055 0.07012 0.73247 0.0
H946 H 0.52982 0.07213 0.69473 0.0
H947 H 0.60906 0.03675 0.69269 0.0
H948 H 0.61044 0.0353 0.73095 0.0
H949 H 0.55663 1.00462 0.65884 0.0
H950 H 0.63828 0.12405 0.68803 0.0
H951 H 0.66043 0.17915 0.71199 0.0
H952 H 0.5759 0.19702 0.68693 0.0
H953 H 0.55278 0.14157 0.66304 0.0
C954 C 0.58198 0.0767 0.56544 0.0
C955 C 0.55111 0.07762 0.55742 0.0
C956 C 0.58674 0.0733 0.58687 0.0
C957 C 0.56127 0.07173 0.6009 0.0
C958 C 0.53103 0.07371 0.59298 0.0
C959 C 0.52577 0.0761 0.57154 0.0
C960 C 0.56555 0.06741 0.62374 0.0
C961 C 0.57579 0.09749 0.6381 0.0
C962 C 0.55956 0.03385 0.63141 0.0
C963 C 0.54938 1.00136 0.61702 0.0
C964 C 0.51743 0.98604 0.60378 0.0
C965 C 0.50878 0.9563 0.58966 0.0
C966 C 0.53171 0.94143 0.58876 0.0
C967 C 0.5632 0.95612 0.60209 0.0
C968 C 0.57201 0.98591 0.61623 0.0
C969 C 0.54794 0.06272 0.72412 0.0
C970 C 0.57114 0.05325 0.73505 0.0
C971 C 0.5474 0.0638 0.70238 0.0
C972 C 0.56986 0.05529 0.69063 0.0
C973 C 0.59154 0.04367 0.70126 0.0
C974 C 0.59224 0.04274 0.72321 0.0
C975 C 0.57158 0.06059 0.66755 0.0
C976 C 0.56261 0.03081 0.65313 0.0
C977 C 0.57964 0.09476 0.65973 0.0
C978 C 0.59357 0.12842 0.67386 0.0
C979 C 0.62421 0.13955 0.68773 0.0
C980 C 0.63697 0.17086 0.70129 0.0
C981 C 0.61952 0.19152 0.70102 0.0
C982 C 0.58935 0.18095 0.68713 0.0
C983 C 0.57641 0.14958 0.67356 0.0
H984 H 0.62943 0.21576 0.71153 0.0
H985 H 0.52504 0.91848 0.57776 0.0
H986 H 0.64807 0.57065 0.90258 0.0
H987 H 0.63786 0.57263 0.93948 0.0
H988 H 0.52164 0.5192 0.92496 0.0
H989 H 0.53201 0.51777 0.88753 0.0
H990 H 0.54005 0.57184 0.95517 0.0
H991 H 0.56213 0.47289 0.94691 0.0
H992 H 0.593 0.43925 0.93576 0.0
H993 H 0.68925 0.51547 0.97361 0.0
H994 H 0.65917 0.54995 0.98475 0.0
H995 H 0.51445 0.54002 0.06663 0.0
H996 H 0.51157 0.53132 0.02842 0.0
H997 H 0.62861 0.60023 0.02909 0.0
H998 H 0.63163 0.61051 0.06675 0.0
H999 H 0.60173 0.53195 0.00581 0.0
H1000 H 0.57672 0.632 0.01221 0.0
H1001 H 0.54194 0.66131 0.02378 0.0
H1002 H 0.44534 0.57591 0.98989 0.0
H1003 H 0.47944 0.54575 0.97838 0.0
C1004 C 0.62021 0.55904 0.90713 0.0
C1005 C 0.59088 0.54377 0.8919 0.0
C1006 C 0.61435 0.56008 0.92842 0.0
C1007 C 0.57886 0.54559 0.93541 0.0
C1008 C 0.54935 0.5305 0.92022 0.0
C1009 C 0.55526 0.52946 0.89875 0.0
C1010 C 0.57326 0.54672 0.95849 0.0
C1011 C 0.55305 0.56245 0.96615 0.0
C1012 C 0.59012 0.53472 0.97321 0.0
C1013 C 0.60848 0.51421 0.96652 0.0
C1014 C 0.58999 0.48268 0.95272 0.0
C1015 C 0.60733 0.46343 0.94643 0.0
C1016 C 0.64309 0.47527 0.95393 0.0
C1017 C 0.66157 0.50636 0.96779 0.0
C1018 C 0.64437 0.52576 0.97411 0.0
C1019 C 0.53955 0.55391 0.05866 0.0
C1020 C 0.57336 0.57549 0.07018 0.0
C1021 C 0.53788 0.5487 0.03672 0.0
C1022 C 0.56996 0.56472 0.02568 0.0
C1023 C 0.60345 0.58704 0.03707 0.0
C1024 C 0.6051 0.59271 0.05881 0.0
C1025 C 0.56937 0.55785 0.00243 0.0
C1026 C 0.58848 0.54099 -0.00523 0.0
C1027 C 0.55094 0.56817 0.9878 0.0
C1028 C 0.53051 0.58637 -0.00535 0.0
C1029 C 0.54797 0.61926 0.00739 0.0
C1030 C 0.5284 0.63608 0.0139 0.0
C1031 C 0.49142 0.62042 0.00763 0.0
C1032 C 0.47397 0.58796 -0.00523 0.0
C1033 C 0.4934 0.57101 0.98824 0.0
H1034 H 0.47632 0.63348 0.01269 0.0
H1035 H 0.65646 0.46031 0.94905 0.0
H1036 H 0.09004 0.61561 0.22327 0.0
H1037 H 0.09613 0.62476 0.26153 0.0
H1038 H 0.99243 0.5254 0.26517 0.0
H1039 H 0.98678 0.51577 0.22708 0.0
H1040 H 1.00654 0.59138 0.29375 0.0
H1041 H 0.06144 0.51739 0.27245 0.0
H1042 H 0.10545 0.50851 0.25253 0.0
H1043 H 0.19435 0.60735 0.28289 0.0
H1044 H 0.15076 0.61711 0.30275 0.0
H1045 H 1.008 0.55664 0.4007 0.0
H1046 H 1.0015 0.55268 0.36274 0.0
H1047 H 0.11883 0.61375 0.36029 0.0
H1048 H 0.1255 0.61418 0.39779 0.0
H1049 H 0.09941 0.57142 0.33018 0.0
H1050 H 0.05524 0.6498 0.35147 0.0
H1051 H 1.01859 0.6707 0.37037 0.0
H1052 H 0.92006 0.58171 0.34005 0.0
H1053 H 0.95611 0.55995 0.32117 0.0
C1054 C 0.06823 0.59616 0.23218 0.0
C1055 C 0.03778 0.56512 0.22201 0.0
C1056 C 0.07181 0.60127 0.25412 0.0
C1057 C 0.04468 0.57582 0.26641 0.0
C1058 C 1.01367 0.54558 0.25619 0.0
C1059 C 1.01052 0.54005 0.23435 0.0
C1060 C 0.04952 0.57909 0.28984 0.0
C1061 C 1.02659 0.58668 0.30176 0.0
C1062 C 0.0767 0.57463 0.30046 0.0
C1063 C 0.10284 0.56814 0.28894 0.0
C1064 C 0.09035 0.53734 0.27478 0.0
C1065 C 0.11522 0.53214 0.26351 0.0
C1066 C 0.15267 0.5574 0.2664 0.0
C1067 C 0.16533 0.58783 0.28064 0.0
C1068 C 0.14057 0.59319 0.29192 0.0
C1069 C 1.03254 0.56873 0.39217 0.0
C1070 C 0.06735 0.58634 0.40288 0.0
C1071 C 1.02876 0.56709 0.37023 0.0
C1072 C 0.05961 0.58386 0.35814 0.0
C1073 C 0.09429 0.6007 0.36881 0.0
C1074 C 0.09808 0.6015 0.39061 0.0
C1075 C 0.05608 0.58346 0.33456 0.0
C1076 C 0.0793 0.57636 0.32246 0.0
C1077 C 1.03022 0.59006 0.32382 0.0
C1078 C 1.00835 0.603 0.33508 0.0
C1079 C 1.02573 0.63452 0.34894 0.0
C1080 C 1.00507 0.64654 0.35964 0.0
C1081 C 0.96701 0.62748 0.35646 0.0
C1082 C 0.94954 0.59641 0.34253 0.0
C1083 C 0.97008 0.58422 0.33181 0.0
H1084 H 0.95106 0.63682 0.36475 0.0
H1085 H 0.17187 0.55335 0.25764 0.0
loop_
_geom_bond_atom_site_label_1
_geom_bond_atom_site_label_2
_geom_bond_distance
_geom_bond_site_symmetry_2
_ccdc_geom_bond_type
C0 Eu1 2.835 . S
C0 C2 1.500 . S
C0 O20 1.257 . S
C0 O21 1.260 . S
Eu1 C0 2.835 . S
Eu1 O20 2.473 . S
Eu1 O21 2.480 . S
Eu1 O22 2.430 1_655 S
Eu1 O23 2.670 1_655 S
Eu1 O24 2.394 . S
Eu1 O29 2.355 1_655 S
Eu1 O31 2.374 1_655 S
C2 C0 1.500 . S
C2 C3 1.377 . S
C2 C7 1.377 . S
C3 C2 1.377 . S
C3 C4 1.395 . S
C3 H32 0.931 . S
C4 C3 1.395 . S
C4 C5 1.383 . S
C4 H33 0.931 . S
C5 C4 1.383 . S
C5 C6 1.394 . S
C6 C5 1.394 . S
C6 C7 1.378 . S
C6 H34 0.931 . S
C7 C2 1.377 . S
C7 C6 1.378 . S
C7 H35 0.931 . S
C8 O22 1.259 . S
C8 O23 1.270 . S
C9 O24 1.251 . S
C9 O25 1.251 . S
C10 Eu11 2.835 . S
C10 C12 1.500 . S
C10 O26 1.257 . S
C10 O27 1.260 . S
Eu11 C10 2.835 . S
Eu11 O23 2.355 . S
Eu11 O25 2.374 1_455 S
Eu11 O26 2.473 . S
Eu11 O27 2.480 . S
Eu11 O28 2.430 . S
Eu11 O29 2.670 . S
Eu11 O30 2.394 . S
C12 C10 1.500 . S
C12 C13 1.377 . S
C12 C17 1.377 . S
C13 C12 1.377 . S
C13 C14 1.395 . S
C13 H36 0.931 . S
C14 C13 1.395 . S
C14 C15 1.383 . S
C14 H37 0.931 . S
C15 C14 1.383 . S
C15 C16 1.394 . S
C16 C15 1.394 . S
C16 C17 1.378 . S
C16 H38 0.931 . S
C17 C12 1.377 . S
C17 C16 1.378 . S
C17 H39 0.931 . S
C18 O28 1.259 . S
C18 O29 1.270 . S
C19 O30 1.251 . S
C19 O31 1.251 . S
O20 C0 1.257 . S
O20 Eu1 2.473 . S
O21 C0 1.260 . S
O21 Eu1 2.480 . S
O22 Eu1 2.430 1_455 S
O22 C8 1.259 . S
O23 Eu1 2.670 1_455 S
O23 C8 1.270 . S
O23 Eu11 2.355 . S
O24 Eu1 2.394 . S
O24 C9 1.251 . S
O25 C9 1.251 . S
O25 Eu11 2.374 1_655 S
O26 C10 1.257 . S
O26 Eu11 2.473 . S
O27 C10 1.260 . S
O27 Eu11 2.480 . S
O28 Eu11 2.430 . S
O28 C18 1.259 . S
O29 Eu1 2.355 1_455 S
O29 Eu11 2.670 . S
O29 C18 1.270 . S
O30 Eu11 2.394 . S
O30 C19 1.251 . S
O31 Eu1 2.374 1_455 S
O31 C19 1.251 . S
H32 C3 0.931 . S
H33 C4 0.931 . S
H34 C6 0.931 . S
H35 C7 0.931 . S
H36 C13 0.931 . S
H37 C14 0.931 . S
H38 C16 0.931 . S
H39 C17 0.931 . S
C40 Eu41 2.835 . S
C40 C42 1.500 . S
C40 O60 1.257 . S
C40 O61 1.260 . S
Eu41 C40 2.835 . S
Eu41 O60 2.473 . S
Eu41 O61 2.480 . S
Eu41 O62 2.430 . S
Eu41 O63 2.670 . S
Eu41 O64 2.394 . S
Eu41 O69 2.355 . S
Eu41 O71 2.374 . S
C42 C40 1.500 . S
C42 C43 1.377 . S
C42 C47 1.377 . S
C43 C42 1.377 . S
C43 C44 1.395 . S
C43 H72 0.931 . S
C44 C43 1.395 . S
C44 C45 1.383 . S
C44 H73 0.931 . S
C45 C44 1.383 . S
C45 C46 1.394 . S
C46 C45 1.394 . S
C46 C47 1.378 . S
C46 H74 0.931 . S
C47 C42 1.377 . S
C47 C46 1.378 . S
C47 H75 0.931 . S
C48 O62 1.259 . S
C48 O63 1.270 . S
C49 O64 1.251 . S
C49 O65 1.251 . S
C50 Eu51 2.835 1_565 S
C50 C52 1.500 . S
C50 O66 1.257 . S
C50 O67 1.260 . S
Eu51 C50 2.835 1_545 S
Eu51 O63 2.355 . S
Eu51 O65 2.374 . S
Eu51 O66 2.473 1_545 S
Eu51 O67 2.480 1_545 S
Eu51 O68 2.430 . S
Eu51 O69 2.670 . S
Eu51 O70 2.394 1_545 S
C52 C50 1.500 . S
C52 C53 1.377 . S
C52 C57 1.377 . S
C53 C52 1.377 . S
C53 C54 1.395 . S
C53 H76 0.931 . S
C54 C53 1.395 . S
C54 C55 1.383 . S
C54 H77 0.931 . S
C55 C54 1.383 . S
C55 C56 1.394 . S
C56 C55 1.394 . S
C56 C57 1.378 . S
C56 H78 0.931 . S
C57 C52 1.377 . S
C57 C56 1.378 . S
C57 H79 0.931 . S
C58 O68 1.259 . S
C58 O69 1.270 . S
C59 O70 1.251 . S
C59 O71 1.251 1_565 S
O60 C40 1.257 . S
O60 Eu41 2.473 . S
O61 C40 1.260 . S
O61 Eu41 2.480 . S
O62 Eu41 2.430 . S
O62 C48 1.259 . S
O63 Eu41 2.670 . S
O63 C48 1.270 . S
O63 Eu51 2.355 . S
O64 Eu41 2.394 . S
O64 C49 1.251 . S
O65 C49 1.251 . S
O65 Eu51 2.374 . S
O66 C50 1.257 . S
O66 Eu51 2.473 1_565 S
O67 C50 1.260 . S
O67 Eu51 2.480 1_565 S
O68 Eu51 2.430 . S
O68 C58 1.259 . S
O69 Eu41 2.355 . S
O69 Eu51 2.670 . S
O69 C58 1.270 . S
O70 Eu51 2.394 1_565 S
O70 C59 1.251 . S
O71 Eu41 2.374 . S
O71 C59 1.251 1_545 S
H72 C43 0.931 . S
H73 C44 0.931 . S
H74 C46 0.931 . S
H75 C47 0.931 . S
H76 C53 0.931 . S
H77 C54 0.931 . S
H78 C56 0.931 . S
H79 C57 0.931 . S
C80 Eu81 2.835 . S
C80 C82 1.500 . S
C80 O100 1.257 . S
C80 O101 1.260 . S
Eu81 C80 2.835 . S
Eu81 O100 2.473 . S
Eu81 O101 2.480 . S
Eu81 O102 2.430 . S
Eu81 O103 2.670 . S
Eu81 O104 2.394 . S
Eu81 O109 2.355 . S
Eu81 O111 2.374 . S
C82 C80 1.500 . S
C82 C83 1.377 . S
C82 C87 1.377 . S
C83 C82 1.377 . S
C83 C84 1.395 . S
C83 H112 0.931 . S
C84 C83 1.395 . S
C84 C85 1.383 . S
C84 H113 0.931 . S
C85 C84 1.383 . S
C85 C86 1.394 . S
C86 C85 1.394 . S
C86 C87 1.378 . S
C86 H114 0.931 . S
C87 C82 1.377 . S
C87 C86 1.378 . S
C87 H115 0.931 . S
C88 O102 1.259 . S
C88 O103 1.270 . S
C89 O104 1.251 . S
C89 O105 1.251 . S
C90 Eu91 2.835 . S
C90 C92 1.500 . S
C90 O106 1.257 . S
C90 O107 1.260 . S
Eu91 C90 2.835 . S
Eu91 O103 2.355 . S
Eu91 O105 2.374 . S
Eu91 O106 2.473 . S
Eu91 O107 2.480 . S
Eu91 O108 2.430 . S
Eu91 O109 2.670 . S
Eu91 O110 2.394 . S
C92 C90 1.500 . S
C92 C93 1.377 . S
C92 C97 1.377 . S
C93 C92 1.377 . S
C93 C94 1.395 . S
C93 H116 0.931 . S
C94 C93 1.395 . S
C94 C95 1.383 . S
C94 H117 0.931 . S
C95 C94 1.383 . S
C95 C96 1.394 . S
C96 C95 1.394 . S
C96 C97 1.378 . S
C96 H118 0.931 . S
C97 C92 1.377 . S
C97 C96 1.378 . S
C97 H119 0.931 . S
C98 O108 1.259 . S
C98 O109 1.270 . S
C99 O110 1.251 . S
C99 O111 1.251 . S
O100 C80 1.257 . S
O100 Eu81 2.473 . S
O101 C80 1.260 . S
O101 Eu81 2.480 . S
O102 Eu81 2.430 . S
O102 C88 1.259 . S
O103 Eu81 2.670 . S
O103 C88 1.270 . S
O103 Eu91 2.355 . S
O104 Eu81 2.394 . S
O104 C89 1.251 . S
O105 C89 1.251 . S
O105 Eu91 2.374 . S
O106 C90 1.257 . S
O106 Eu91 2.473 . S
O107 C90 1.260 . S
O107 Eu91 2.480 . S
O108 Eu91 2.430 . S
O108 C98 1.259 . S
O109 Eu81 2.355 . S
O109 Eu91 2.670 . S
O109 C98 1.270 . S
O110 Eu91 2.394 . S
O110 C99 1.251 . S
O111 Eu81 2.374 . S
O111 C99 1.251 . S
H112 C83 0.931 . S
H113 C84 0.931 . S
H114 C86 0.931 . S
H115 C87 0.931 . S
H116 C93 0.931 . S
H117 C94 0.931 . S
H118 C96 0.931 . S
H119 C97 0.931 . S
H120 C123 0.929 . S
H121 C126 0.929 . S
H122 C128 0.930 . S
C123 H120 0.929 . S
C123 C124 1.398 . S
C123 C125 1.396 . S
C124 C123 1.398 . S
C124 C128 1.407 . S
C125 C123 1.396 . S
C125 C126 1.394 . S
C126 H121 0.929 . S
C126 C125 1.394 . S
C126 C127 1.382 . S
C127 C126 1.382 . S
C127 C128 1.392 . S
C127 N129 1.420 . S
C128 H122 0.930 . S
C128 C124 1.407 . S
C128 C127 1.392 . S
N129 C127 1.420 . S
N129 C130 1.244 . S
C130 N129 1.244 . S
H131 C134 0.929 . S
H132 C137 0.929 . S
H133 C139 0.930 . S
C134 H131 0.929 . S
C134 C135 1.398 . S
C134 C136 1.396 . S
C135 C134 1.398 . S
C135 C139 1.407 . S
C136 C134 1.396 . S
C136 C137 1.394 . S
C137 H132 0.929 . S
C137 C136 1.394 . S
C137 C138 1.382 . S
C138 C137 1.382 . S
C138 C139 1.392 . S
C138 N140 1.420 . S
C139 H133 0.930 . S
C139 C135 1.407 . S
C139 C138 1.392 . S
N140 C138 1.420 . S
N140 C141 1.244 . S
C141 N140 1.244 . S
H142 C145 0.929 . S
H143 C148 0.929 . S
H144 C150 0.930 . S
C145 H142 0.929 . S
C145 C146 1.398 . S
C145 C147 1.396 1_655 S
C146 C145 1.398 . S
C146 C150 1.407 . S
C147 C145 1.396 1_455 S
C147 C148 1.394 . S
C148 H143 0.929 . S
C148 C147 1.394 . S
C148 C149 1.382 . S
C149 C148 1.382 . S
C149 C150 1.392 1_455 S
C149 N151 1.420 . S
C150 H144 0.930 . S
C150 C146 1.407 . S
C150 C149 1.392 1_655 S
N151 C149 1.420 . S
N151 C152 1.244 . S
C152 N151 1.244 . S
H153 C156 0.929 . S
H154 C159 0.929 1_655 S
H155 C161 0.930 . S
C156 H153 0.929 . S
C156 C157 1.398 . S
C156 C158 1.396 . S
C157 C156 1.398 . S
C157 C161 1.407 . S
C158 C156 1.396 . S
C158 C159 1.394 . S
C159 H154 0.929 1_455 S
C159 C158 1.394 . S
C159 C160 1.382 . S
C160 C159 1.382 . S
C160 C161 1.392 . S
C160 N162 1.425 . S
C161 H155 0.930 . S
C161 C157 1.407 . S
C161 C160 1.392 . S
N162 C160 1.425 . S
N162 C163 1.228 1_455 S
C163 N162 1.228 1_655 S
H164 C167 0.929 . S
H165 C170 0.929 1_565 S
H166 C172 0.930 . S
C167 H164 0.929 . S
C167 C168 1.398 . S
C167 C169 1.396 . S
C168 C167 1.398 . S
C168 C172 1.407 . S
C169 C167 1.396 . S
C169 C170 1.394 . S
C170 H165 0.929 1_545 S
C170 C169 1.394 . S
C170 C171 1.382 . S
C171 C170 1.382 . S
C171 C172 1.392 . S
C171 N173 1.420 1_545 S
C172 H166 0.930 . S
C172 C168 1.407 . S
C172 C171 1.392 . S
N173 C171 1.420 1_565 S
N173 C174 1.244 . S
C174 N173 1.244 . S
H175 C178 0.929 . S
H176 C181 0.929 . S
H177 C183 0.930 . S
C178 H175 0.929 . S
C178 C179 1.398 . S
C178 C180 1.396 . S
C179 C178 1.398 . S
C179 C183 1.407 . S
C180 C178 1.396 . S
C180 C181 1.394 . S
C181 H176 0.929 . S
C181 C180 1.394 . S
C181 C182 1.382 . S
C182 C181 1.382 . S
C182 C183 1.392 . S
C182 N184 1.420 . S
C183 H177 0.930 . S
C183 C179 1.407 . S
C183 C182 1.392 . S
N184 C182 1.420 . S
N184 C185 1.244 . S
C185 N184 1.244 . S
H186 C204 0.951 . S
H187 C206 0.951 . S
H188 C208 0.950 . S
H189 C209 0.950 . S
H190 C211 0.950 . S
H191 C214 0.950 . S
H192 C215 0.950 . S
H193 C217 0.950 . S
H194 C218 0.950 . S
H195 C219 0.951 . S
H196 C221 0.951 . S
H197 C223 0.950 . S
H198 C224 0.950 . S
H199 C226 0.950 . S
H200 C229 0.950 . S
H201 C230 0.950 . S
H202 C232 0.950 . S
H203 C233 0.950 . S
C204 H186 0.951 . S
C204 C205 1.366 . S
C204 C206 1.388 . S
C205 C204 1.366 . S
C205 C209 1.385 . S
C206 H187 0.951 . S
C206 C204 1.388 . S
C206 C207 1.366 . S
C207 C206 1.366 . S
C207 C208 1.414 . S
C207 C210 1.499 . S
C208 H188 0.950 . S
C208 C207 1.414 . S
C208 C209 1.374 . S
C209 H189 0.950 . S
C209 C205 1.385 . S
C209 C208 1.374 . S
C210 C207 1.499 . S
C210 C211 1.373 . S
C210 C212 1.389 . S
C211 H190 0.950 . S
C211 C210 1.373 . S
C211 C227 1.377 . S
C212 C210 1.389 . S
C212 C213 1.524 . S
C212 C226 1.377 . S
C213 C212 1.524 . S
C213 C214 1.397 . S
C213 C218 1.363 . S
C214 H191 0.950 . S
C214 C213 1.397 . S
C214 C215 1.334 . S
C215 H192 0.950 . S
C215 C214 1.334 . S
C215 C216 1.287 . S
C216 C215 1.287 . S
C216 C217 1.524 . S
C216 H235 0.913 . S
C217 H193 0.950 . S
C217 C216 1.524 . S
C217 C218 1.415 . S
C218 H194 0.950 . S
C218 C213 1.363 . S
C218 C217 1.415 . S
C219 H195 0.951 . S
C219 C220 1.366 . S
C219 C221 1.388 . S
C220 C219 1.366 . S
C220 C224 1.385 . S
C221 H196 0.951 . S
C221 C219 1.388 . S
C221 C222 1.366 . S
C222 C221 1.366 . S
C222 C223 1.414 . S
C222 C225 1.499 . S
C223 H197 0.950 . S
C223 C222 1.414 . S
C223 C224 1.374 . S
C224 H198 0.950 . S
C224 C220 1.385 . S
C224 C223 1.374 . S
C225 C222 1.499 . S
C225 C226 1.373 . S
C225 C227 1.389 . S
C226 H199 0.950 . S
C226 C212 1.377 . S
C226 C225 1.373 . S
C227 C211 1.377 . S
C227 C225 1.389 . S
C227 C228 1.524 . S
C228 C227 1.524 . S
C228 C229 1.397 . S
C228 C233 1.363 . S
C229 H200 0.950 . S
C229 C228 1.397 . S
C229 C230 1.334 . S
C230 H201 0.950 . S
C230 C229 1.334 . S
C230 C231 1.287 . S
C231 C230 1.287 . S
C231 C232 1.524 . S
C231 H234 0.999 . S
C232 H202 0.950 . S
C232 C231 1.524 . S
C232 C233 1.415 . S
C233 H203 0.950 . S
C233 C228 1.363 . S
C233 C232 1.415 . S
H234 C231 0.999 . S
H235 C216 0.913 . S
H236 C254 0.951 . S
H237 C256 0.951 . S
H238 C258 0.950 . S
H239 C259 0.950 . S
H240 C261 0.950 . S
H241 C264 0.950 . S
H242 C265 0.950 . S
H243 C267 0.950 . S
H244 C268 0.950 . S
H245 C269 0.951 . S
H246 C271 0.951 . S
H247 C273 0.950 . S
H248 C274 0.950 . S
H249 C276 0.950 . S
H250 C279 0.950 . S
H251 C280 0.950 . S
H252 C282 0.950 . S
H253 C283 0.950 . S
C254 H236 0.951 . S
C254 C255 1.366 . S
C254 C256 1.388 . S
C255 C254 1.366 . S
C255 C259 1.385 . S
C256 H237 0.951 . S
C256 C254 1.388 . S
C256 C257 1.366 . S
C257 C256 1.366 . S
C257 C258 1.414 . S
C257 C260 1.499 . S
C258 H238 0.950 . S
C258 C257 1.414 . S
C258 C259 1.374 . S
C259 H239 0.950 . S
C259 C255 1.385 . S
C259 C258 1.374 . S
C260 C257 1.499 . S
C260 C261 1.373 . S
C260 C262 1.389 . S
C261 H240 0.950 . S
C261 C260 1.373 . S
C261 C277 1.377 . S
C262 C260 1.389 . S
C262 C263 1.524 . S
C262 C276 1.377 . S
C263 C262 1.524 . S
C263 C264 1.397 . S
C263 C268 1.363 . S
C264 H241 0.950 . S
C264 C263 1.397 . S
C264 C265 1.334 . S
C265 H242 0.950 . S
C265 C264 1.334 . S
C265 C266 1.287 . S
C266 C265 1.287 . S
C266 C267 1.524 . S
C266 H285 0.913 . S
C267 H243 0.950 . S
C267 C266 1.524 . S
C267 C268 1.415 . S
C268 H244 0.950 . S
C268 C263 1.363 . S
C268 C267 1.415 . S
C269 H245 0.951 . S
C269 C270 1.366 . S
C269 C271 1.388 . S
C270 C269 1.366 . S
C270 C274 1.385 . S
C271 H246 0.951 . S
C271 C269 1.388 . S
C271 C272 1.366 . S
C272 C271 1.366 . S
C272 C273 1.414 . S
C272 C275 1.499 . S
C273 H247 0.950 . S
C273 C272 1.414 . S
C273 C274 1.374 . S
C274 H248 0.950 . S
C274 C270 1.385 . S
C274 C273 1.374 . S
C275 C272 1.499 . S
C275 C276 1.373 . S
C275 C277 1.389 . S
C276 H249 0.950 . S
C276 C262 1.377 . S
C276 C275 1.373 . S
C277 C261 1.377 . S
C277 C275 1.389 . S
C277 C278 1.524 . S
C278 C277 1.524 . S
C278 C279 1.397 . S
C278 C283 1.363 . S
C279 H250 0.950 . S
C279 C278 1.397 . S
C279 C280 1.334 . S
C280 H251 0.950 . S
C280 C279 1.334 . S
C280 C281 1.287 . S
C281 C280 1.287 . S
C281 C282 1.524 . S
C281 H284 0.999 . S
C282 H252 0.950 . S
C282 C281 1.524 . S
C282 C283 1.415 . S
C283 H253 0.950 . S
C283 C278 1.363 . S
C283 C282 1.415 . S
H284 C281 0.999 . S
H285 C266 0.913 . S
H286 C304 0.951 . S
H287 C306 0.951 . S
H288 C308 0.950 . S
H289 C309 0.950 . S
H290 C311 0.950 . S
H291 C314 0.950 . S
H292 C315 0.950 . S
H293 C317 0.950 . S
H294 C318 0.950 . S
H295 C319 0.951 . S
H296 C321 0.951 . S
H297 C323 0.950 . S
H298 C324 0.950 . S
H299 C326 0.950 . S
H300 C329 0.950 . S
H301 C330 0.950 . S
H302 C332 0.950 . S
H303 C333 0.950 . S
C304 H286 0.951 . S
C304 C305 1.366 . S
C304 C306 1.388 . S
C305 C304 1.366 . S
C305 C309 1.385 . S
C306 H287 0.951 . S
C306 C304 1.388 . S
C306 C307 1.366 . S
C307 C306 1.366 . S
C307 C308 1.414 . S
C307 C310 1.499 . S
C308 H288 0.950 . S
C308 C307 1.414 . S
C308 C309 1.374 . S
C309 H289 0.950 . S
C309 C305 1.385 . S
C309 C308 1.374 . S
C310 C307 1.499 . S
C310 C311 1.373 . S
C310 C312 1.389 . S
C311 H290 0.950 . S
C311 C310 1.373 . S
C311 C327 1.377 . S
C312 C310 1.389 . S
C312 C313 1.524 . S
C312 C326 1.377 . S
C313 C312 1.524 . S
C313 C314 1.397 . S
C313 C318 1.363 . S
C314 H291 0.950 . S
C314 C313 1.397 . S
C314 C315 1.334 . S
C315 H292 0.950 . S
C315 C314 1.334 . S
C315 C316 1.287 . S
C316 C315 1.287 . S
C316 C317 1.524 . S
C316 H335 0.913 . S
C317 H293 0.950 . S
C317 C316 1.524 . S
C317 C318 1.415 . S
C318 H294 0.950 . S
C318 C313 1.363 . S
C318 C317 1.415 . S
C319 H295 0.951 . S
C319 C320 1.366 . S
C319 C321 1.388 . S
C320 C319 1.366 . S
C320 C324 1.385 . S
C321 H296 0.951 . S
C321 C319 1.388 . S
C321 C322 1.366 . S
C322 C321 1.366 . S
C322 C323 1.414 . S
C322 C325 1.499 . S
C323 H297 0.950 . S
C323 C322 1.414 . S
C323 C324 1.374 . S
C324 H298 0.950 . S
C324 C320 1.385 . S
C324 C323 1.374 . S
C325 C322 1.499 . S
C325 C326 1.373 . S
C325 C327 1.389 . S
C326 H299 0.950 . S
C326 C312 1.377 . S
C326 C325 1.373 . S
C327 C311 1.377 . S
C327 C325 1.389 . S
C327 C328 1.524 . S
C328 C327 1.524 . S
C328 C329 1.397 . S
C328 C333 1.363 . S
C329 H300 0.950 . S
C329 C328 1.397 . S
C329 C330 1.334 . S
C330 H301 0.950 . S
C330 C329 1.334 . S
C330 C331 1.287 . S
C331 C330 1.287 . S
C331 C332 1.524 . S
C331 H334 0.999 . S
C332 H302 0.950 . S
C332 C331 1.524 . S
C332 C333 1.415 . S
C333 H303 0.950 . S
C333 C328 1.363 . S
C333 C332 1.415 . S
H334 C331 0.999 . S
H335 C316 0.913 . S
H336 C354 0.951 . S
H337 C356 0.951 . S
H338 C358 0.950 . S
H339 C359 0.950 . S
H340 C361 0.950 . S
H341 C364 0.950 . S
H342 C365 0.950 . S
H343 C367 0.950 . S
H344 C368 0.950 . S
H345 C369 0.951 . S
H346 C371 0.951 . S
H347 C373 0.950 . S
H348 C374 0.950 . S
H349 C376 0.950 . S
H350 C379 0.950 . S
H351 C380 0.950 . S
H352 C382 0.950 . S
H353 C383 0.950 . S
C354 H336 0.951 . S
C354 C355 1.366 . S
C354 C356 1.388 . S
C355 C354 1.366 . S
C355 C359 1.385 . S
C356 H337 0.951 . S
C356 C354 1.388 . S
C356 C357 1.366 . S
C357 C356 1.366 . S
C357 C358 1.414 . S
C357 C360 1.499 . S
C358 H338 0.950 . S
C358 C357 1.414 . S
C358 C359 1.374 . S
C359 H339 0.950 . S
C359 C355 1.385 . S
C359 C358 1.374 . S
C360 C357 1.499 . S
C360 C361 1.373 . S
C360 C362 1.389 . S
C361 H340 0.950 . S
C361 C360 1.373 . S
C361 C377 1.377 . S
C362 C360 1.389 . S
C362 C363 1.524 . S
C362 C376 1.377 . S
C363 C362 1.524 . S
C363 C364 1.397 . S
C363 C368 1.363 . S
C364 H341 0.950 . S
C364 C363 1.397 . S
C364 C365 1.334 . S
C365 H342 0.950 . S
C365 C364 1.334 . S
C365 C366 1.287 . S
C366 C365 1.287 . S
C366 C367 1.524 . S
C366 H385 0.913 . S
C367 H343 0.950 . S
C367 C366 1.524 . S
C367 C368 1.415 . S
C368 H344 0.950 . S
C368 C363 1.363 . S
C368 C367 1.415 . S
C369 H345 0.951 . S
C369 C370 1.366 . S
C369 C371 1.388 . S
C370 C369 1.366 . S
C370 C374 1.385 . S
C371 H346 0.951 . S
C371 C369 1.388 . S
C371 C372 1.366 . S
C372 C371 1.366 . S
C372 C373 1.414 . S
C372 C375 1.499 . S
C373 H347 0.950 . S
C373 C372 1.414 . S
C373 C374 1.374 . S
C374 H348 0.950 . S
C374 C370 1.385 . S
C374 C373 1.374 . S
C375 C372 1.499 . S
C375 C376 1.373 . S
C375 C377 1.389 . S
C376 H349 0.950 . S
C376 C362 1.377 . S
C376 C375 1.373 . S
C377 C361 1.377 . S
C377 C375 1.389 . S
C377 C378 1.524 . S
C378 C377 1.524 . S
C378 C379 1.397 . S
C378 C383 1.363 . S
C379 H350 0.950 . S
C379 C378 1.397 . S
C379 C380 1.334 . S
C380 H351 0.950 . S
C380 C379 1.334 . S
C380 C381 1.287 . S
C381 C380 1.287 . S
C381 C382 1.524 . S
C381 H384 0.999 . S
C382 H352 0.950 . S
C382 C381 1.524 . S
C382 C383 1.415 . S
C383 H353 0.950 . S
C383 C378 1.363 . S
C383 C382 1.415 . S
H384 C381 0.999 . S
H385 C366 0.913 . S
H386 C404 0.951 . S
H387 C406 0.951 . S
H388 C408 0.950 . S
H389 C409 0.950 . S
H390 C411 0.950 . S
H391 C414 0.950 . S
H392 C415 0.950 . S
H393 C417 0.950 . S
H394 C418 0.950 . S
H395 C419 0.951 . S
H396 C421 0.951 . S
H397 C423 0.950 . S
H398 C424 0.950 . S
H399 C426 0.950 . S
H400 C429 0.950 . S
H401 C430 0.950 . S
H402 C432 0.950 . S
H403 C433 0.950 . S
C404 H386 0.951 . S
C404 C405 1.366 . S
C404 C406 1.388 . S
C405 C404 1.366 . S
C405 C409 1.385 . S
C406 H387 0.951 . S
C406 C404 1.388 . S
C406 C407 1.366 . S
C407 C406 1.366 . S
C407 C408 1.414 . S
C407 C410 1.499 . S
C408 H388 0.950 . S
C408 C407 1.414 . S
C408 C409 1.374 . S
C409 H389 0.950 . S
C409 C405 1.385 . S
C409 C408 1.374 . S
C410 C407 1.499 . S
C410 C411 1.373 . S
C410 C412 1.389 . S
C411 H390 0.950 . S
C411 C410 1.373 . S
C411 C427 1.377 . S
C412 C410 1.389 . S
C412 C413 1.524 . S
C412 C426 1.377 . S
C413 C412 1.524 . S
C413 C414 1.397 . S
C413 C418 1.363 . S
C414 H391 0.950 . S
C414 C413 1.397 . S
C414 C415 1.334 . S
C415 H392 0.950 . S
C415 C414 1.334 . S
C415 C416 1.287 . S
C416 C415 1.287 . S
C416 C417 1.524 . S
C416 H435 0.913 . S
C417 H393 0.950 . S
C417 C416 1.524 . S
C417 C418 1.415 . S
C418 H394 0.950 . S
C418 C413 1.363 . S
C418 C417 1.415 . S
C419 H395 0.951 . S
C419 C420 1.366 . S
C419 C421 1.388 . S
C420 C419 1.366 . S
C420 C424 1.385 . S
C421 H396 0.951 . S
C421 C419 1.388 . S
C421 C422 1.366 . S
C422 C421 1.366 . S
C422 C423 1.414 . S
C422 C425 1.499 . S
C423 H397 0.950 . S
C423 C422 1.414 . S
C423 C424 1.374 . S
C424 H398 0.950 . S
C424 C420 1.385 . S
C424 C423 1.374 . S
C425 C422 1.499 . S
C425 C426 1.373 . S
C425 C427 1.389 . S
C426 H399 0.950 . S
C426 C412 1.377 . S
C426 C425 1.373 . S
C427 C411 1.377 . S
C427 C425 1.389 . S
C427 C428 1.524 . S
C428 C427 1.524 . S
C428 C429 1.397 . S
C428 C433 1.363 . S
C429 H400 0.950 . S
C429 C428 1.397 . S
C429 C430 1.334 . S
C430 H401 0.950 . S
C430 C429 1.334 . S
C430 C431 1.287 . S
C431 C430 1.287 . S
C431 C432 1.524 . S
C431 H434 0.999 . S
C432 H402 0.950 . S
C432 C431 1.524 . S
C432 C433 1.415 . S
C433 H403 0.950 . S
C433 C428 1.363 . S
C433 C432 1.415 . S
H434 C431 0.999 . S
H435 C416 0.913 . S
H436 C454 0.951 . S
H437 C456 0.951 . S
H438 C458 0.950 . S
H439 C459 0.950 . S
H440 C461 0.950 . S
H441 C464 0.950 . S
H442 C465 0.950 . S
H443 C467 0.950 . S
H444 C468 0.950 . S
H445 C469 0.951 . S
H446 C471 0.951 . S
H447 C473 0.950 . S
H448 C474 0.950 . S
H449 C476 0.950 . S
H450 C479 0.950 . S
H451 C480 0.950 . S
H452 C482 0.950 . S
H453 C483 0.950 . S
C454 H436 0.951 . S
C454 C455 1.366 . S
C454 C456 1.388 . S
C455 C454 1.366 . S
C455 C459 1.385 . S
C456 H437 0.951 . S
C456 C454 1.388 . S
C456 C457 1.366 . S
C457 C456 1.366 . S
C457 C458 1.414 . S
C457 C460 1.499 . S
C458 H438 0.950 . S
C458 C457 1.414 . S
C458 C459 1.374 . S
C459 H439 0.950 . S
C459 C455 1.385 . S
C459 C458 1.374 . S
C460 C457 1.499 . S
C460 C461 1.373 . S
C460 C462 1.389 . S
C461 H440 0.950 . S
C461 C460 1.373 . S
C461 C477 1.377 . S
C462 C460 1.389 . S
C462 C463 1.524 . S
C462 C476 1.377 . S
C463 C462 1.524 . S
C463 C464 1.397 . S
C463 C468 1.363 . S
C464 H441 0.950 . S
C464 C463 1.397 . S
C464 C465 1.334 . S
C465 H442 0.950 . S
C465 C464 1.334 . S
C465 C466 1.287 . S
C466 C465 1.287 . S
C466 C467 1.524 . S
C466 H485 0.913 . S
C467 H443 0.950 . S
C467 C466 1.524 . S
C467 C468 1.415 . S
C468 H444 0.950 . S
C468 C463 1.363 . S
C468 C467 1.415 . S
C469 H445 0.951 . S
C469 C470 1.366 . S
C469 C471 1.388 . S
C470 C469 1.366 . S
C470 C474 1.385 . S
C471 H446 0.951 . S
C471 C469 1.388 . S
C471 C472 1.366 . S
C472 C471 1.366 . S
C472 C473 1.414 . S
C472 C475 1.499 . S
C473 H447 0.950 . S
C473 C472 1.414 . S
C473 C474 1.374 . S
C474 H448 0.950 . S
C474 C470 1.385 . S
C474 C473 1.374 . S
C475 C472 1.499 . S
C475 C476 1.373 . S
C475 C477 1.389 . S
C476 H449 0.950 . S
C476 C462 1.377 . S
C476 C475 1.373 . S
C477 C461 1.377 . S
C477 C475 1.389 . S
C477 C478 1.524 . S
C478 C477 1.524 . S
C478 C479 1.397 . S
C478 C483 1.363 . S
C479 H450 0.950 . S
C479 C478 1.397 . S
C479 C480 1.334 . S
C480 H451 0.950 . S
C480 C479 1.334 . S
C480 C481 1.287 . S
C481 C480 1.287 . S
C481 C482 1.524 . S
C481 H484 0.999 . S
C482 H452 0.950 . S
C482 C481 1.524 . S
C482 C483 1.415 . S
C483 H453 0.950 . S
C483 C478 1.363 . S
C483 C482 1.415 . S
H484 C481 0.999 . S
H485 C466 0.913 . S
H486 C504 0.951 . S
H487 C506 0.951 . S
H488 C508 0.950 . S
H489 C509 0.950 . S
H490 C511 0.950 . S
H491 C514 0.950 . S
H492 C515 0.950 . S
H493 C517 0.950 . S
H494 C518 0.950 . S
H495 C519 0.951 . S
H496 C521 0.951 . S
H497 C523 0.950 . S
H498 C524 0.950 . S
H499 C526 0.950 . S
H500 C529 0.950 . S
H501 C530 0.950 . S
H502 C532 0.950 . S
H503 C533 0.950 . S
C504 H486 0.951 . S
C504 C505 1.366 . S
C504 C506 1.388 . S
C505 C504 1.366 . S
C505 C509 1.385 . S
C506 H487 0.951 . S
C506 C504 1.388 . S
C506 C507 1.366 . S
C507 C506 1.366 . S
C507 C508 1.414 . S
C507 C510 1.499 . S
C508 H488 0.950 . S
C508 C507 1.414 . S
C508 C509 1.374 . S
C509 H489 0.950 . S
C509 C505 1.385 . S
C509 C508 1.374 . S
C510 C507 1.499 . S
C510 C511 1.373 . S
C510 C512 1.389 . S
C511 H490 0.950 . S
C511 C510 1.373 . S
C511 C527 1.377 . S
C512 C510 1.389 . S
C512 C513 1.524 . S
C512 C526 1.377 . S
C513 C512 1.524 . S
C513 C514 1.397 . S
C513 C518 1.363 . S
C514 H491 0.950 . S
C514 C513 1.397 . S
C514 C515 1.334 . S
C515 H492 0.950 . S
C515 C514 1.334 . S
C515 C516 1.287 . S
C516 C515 1.287 . S
C516 C517 1.524 . S
C516 H535 0.913 . S
C517 H493 0.950 . S
C517 C516 1.524 . S
C517 C518 1.415 . S
C518 H494 0.950 . S
C518 C513 1.363 . S
C518 C517 1.415 . S
C519 H495 0.951 . S
C519 C520 1.366 . S
C519 C521 1.388 . S
C520 C519 1.366 . S
C520 C524 1.385 . S
C521 H496 0.951 . S
C521 C519 1.388 . S
C521 C522 1.366 . S
C522 C521 1.366 . S
C522 C523 1.414 . S
C522 C525 1.499 . S
C523 H497 0.950 . S
C523 C522 1.414 . S
C523 C524 1.374 . S
C524 H498 0.950 . S
C524 C520 1.385 . S
C524 C523 1.374 . S
C525 C522 1.499 . S
C525 C526 1.373 . S
C525 C527 1.389 . S
C526 H499 0.950 . S
C526 C512 1.377 . S
C526 C525 1.373 . S
C527 C511 1.377 . S
C527 C525 1.389 . S
C527 C528 1.524 . S
C528 C527 1.524 . S
C528 C529 1.397 . S
C528 C533 1.363 . S
C529 H500 0.950 . S
C529 C528 1.397 . S
C529 C530 1.334 . S
C530 H501 0.950 . S
C530 C529 1.334 . S
C530 C531 1.287 . S
C531 C530 1.287 . S
C531 C532 1.524 . S
C531 H534 0.999 . S
C532 H502 0.950 . S
C532 C531 1.524 . S
C532 C533 1.415 . S
C533 H503 0.950 . S
C533 C528 1.363 . S
C533 C532 1.415 . S
H534 C531 0.999 . S
H535 C516 0.913 . S
H536 C554 0.951 . S
H537 C556 0.951 . S
H538 C558 0.950 . S
H539 C559 0.950 . S
H540 C561 0.950 . S
H541 C564 0.950 . S
H542 C565 0.950 . S
H543 C567 0.950 . S
H544 C568 0.950 . S
H545 C569 0.951 . S
H546 C571 0.951 . S
H547 C573 0.950 . S
H548 C574 0.950 . S
H549 C576 0.950 . S
H550 C579 0.950 . S
H551 C580 0.950 . S
H552 C582 0.950 . S
H553 C583 0.950 . S
C554 H536 0.951 . S
C554 C555 1.366 . S
C554 C556 1.388 . S
C555 C554 1.366 . S
C555 C559 1.385 . S
C556 H537 0.951 . S
C556 C554 1.388 . S
C556 C557 1.366 . S
C557 C556 1.366 . S
C557 C558 1.414 . S
C557 C560 1.499 . S
C558 H538 0.950 . S
C558 C557 1.414 . S
C558 C559 1.374 . S
C559 H539 0.950 . S
C559 C555 1.385 . S
C559 C558 1.374 . S
C560 C557 1.499 . S
C560 C561 1.373 . S
C560 C562 1.389 . S
C561 H540 0.950 . S
C561 C560 1.373 . S
C561 C577 1.377 . S
C562 C560 1.389 . S
C562 C563 1.524 . S
C562 C576 1.377 . S
C563 C562 1.524 . S
C563 C564 1.397 . S
C563 C568 1.363 . S
C564 H541 0.950 . S
C564 C563 1.397 . S
C564 C565 1.334 . S
C565 H542 0.950 . S
C565 C564 1.334 . S
C565 C566 1.287 . S
C566 C565 1.287 . S
C566 C567 1.524 . S
C566 H585 0.913 . S
C567 H543 0.950 . S
C567 C566 1.524 . S
C567 C568 1.415 . S
C568 H544 0.950 . S
C568 C563 1.363 . S
C568 C567 1.415 . S
C569 H545 0.951 . S
C569 C570 1.366 . S
C569 C571 1.388 . S
C570 C569 1.366 . S
C570 C574 1.385 . S
C571 H546 0.951 . S
C571 C569 1.388 . S
C571 C572 1.366 . S
C572 C571 1.366 . S
C572 C573 1.414 . S
C572 C575 1.499 . S
C573 H547 0.950 . S
C573 C572 1.414 . S
C573 C574 1.374 . S
C574 H548 0.950 . S
C574 C570 1.385 . S
C574 C573 1.374 . S
C575 C572 1.499 . S
C575 C576 1.373 . S
C575 C577 1.389 . S
C576 H549 0.950 . S
C576 C562 1.377 . S
C576 C575 1.373 . S
C577 C561 1.377 . S
C577 C575 1.389 . S
C577 C578 1.524 . S
C578 C577 1.524 . S
C578 C579 1.397 . S
C578 C583 1.363 . S
C579 H550 0.950 . S
C579 C578 1.397 . S
C579 C580 1.334 . S
C580 H551 0.950 . S
C580 C579 1.334 . S
C580 C581 1.287 . S
C581 C580 1.287 . S
C581 C582 1.524 . S
C581 H584 0.999 1_655 S
C582 H552 0.950 . S
C582 C581 1.524 . S
C582 C583 1.415 . S
C583 H553 0.950 . S
C583 C578 1.363 . S
C583 C582 1.415 . S
H584 C581 0.999 1_455 S
H585 C566 0.913 . S
H586 C604 0.951 . S
H587 C606 0.951 . S
H588 C608 0.950 . S
H589 C609 0.950 . S
H590 C611 0.950 . S
H591 C614 0.950 . S
H592 C615 0.950 . S
H593 C617 0.950 . S
H594 C618 0.950 . S
H595 C619 0.951 . S
H596 C621 0.951 . S
H597 C623 0.950 . S
H598 C624 0.950 . S
H599 C626 0.950 . S
H600 C629 0.950 . S
H601 C630 0.950 . S
H602 C632 0.950 1_545 S
H603 C633 0.950 . S
C604 H586 0.951 . S
C604 C605 1.366 . S
C604 C606 1.388 . S
C605 C604 1.366 . S
C605 C609 1.385 . S
C606 H587 0.951 . S
C606 C604 1.388 . S
C606 C607 1.366 . S
C607 C606 1.366 . S
C607 C608 1.414 . S
C607 C610 1.499 . S
C608 H588 0.950 . S
C608 C607 1.414 . S
C608 C609 1.374 . S
C609 H589 0.950 . S
C609 C605 1.385 . S
C609 C608 1.374 . S
C610 C607 1.499 . S
C610 C611 1.373 . S
C610 C612 1.389 . S
C611 H590 0.950 . S
C611 C610 1.373 . S
C611 C627 1.377 . S
C612 C610 1.389 . S
C612 C613 1.524 . S
C612 C626 1.377 . S
C613 C612 1.524 . S
C613 C614 1.397 . S
C613 C618 1.363 . S
C614 H591 0.950 . S
C614 C613 1.397 . S
C614 C615 1.334 . S
C615 H592 0.950 . S
C615 C614 1.334 . S
C615 C616 1.287 . S
C616 C615 1.287 . S
C616 C617 1.524 . S
C616 H635 0.913 . S
C617 H593 0.950 . S
C617 C616 1.524 . S
C617 C618 1.415 . S
C618 H594 0.950 . S
C618 C613 1.363 . S
C618 C617 1.415 . S
C619 H595 0.951 . S
C619 C620 1.366 . S
C619 C621 1.388 1_545 S
C620 C619 1.366 . S
C620 C624 1.385 . S
C621 H596 0.951 . S
C621 C619 1.388 1_565 S
C621 C622 1.366 . S
C622 C621 1.366 . S
C622 C623 1.414 . S
C622 C625 1.499 . S
C623 H597 0.950 . S
C623 C622 1.414 . S
C623 C624 1.374 1_565 S
C624 H598 0.950 . S
C624 C620 1.385 . S
C624 C623 1.374 1_545 S
C625 C622 1.499 . S
C625 C626 1.373 . S
C625 C627 1.389 . S
C626 H599 0.950 . S
C626 C612 1.377 . S
C626 C625 1.373 . S
C627 C611 1.377 . S
C627 C625 1.389 . S
C627 C628 1.524 . S
C628 C627 1.524 . S
C628 C629 1.397 . S
C628 C633 1.363 . S
C629 H600 0.950 . S
C629 C628 1.397 . S
C629 C630 1.334 1_565 S
C630 H601 0.950 . S
C630 C629 1.334 1_545 S
C630 C631 1.287 . S
C631 C630 1.287 . S
C631 C632 1.524 1_545 S
C631 H634 0.999 . S
C632 H602 0.950 1_565 S
C632 C631 1.524 1_565 S
C632 C633 1.415 . S
C633 H603 0.950 . S
C633 C628 1.363 . S
C633 C632 1.415 . S
H634 C631 0.999 . S
H635 C616 0.913 . S
H636 C654 0.951 . S
H637 C656 0.951 . S
H638 C658 0.950 . S
H639 C659 0.950 . S
H640 C661 0.950 . S
H641 C664 0.950 . S
H642 C665 0.950 . S
H643 C667 0.950 . S
H644 C668 0.950 . S
H645 C669 0.951 . S
H646 C671 0.951 . S
H647 C673 0.950 . S
H648 C674 0.950 . S
H649 C676 0.950 . S
H650 C679 0.950 . S
H651 C680 0.950 . S
H652 C682 0.950 . S
H653 C683 0.950 . S
C654 H636 0.951 . S
C654 C655 1.366 . S
C654 C656 1.388 . S
C655 C654 1.366 . S
C655 C659 1.385 . S
C656 H637 0.951 . S
C656 C654 1.388 . S
C656 C657 1.366 . S
C657 C656 1.366 . S
C657 C658 1.414 . S
C657 C660 1.499 . S
C658 H638 0.950 . S
C658 C657 1.414 . S
C658 C659 1.374 . S
C659 H639 0.950 . S
C659 C655 1.385 . S
C659 C658 1.374 . S
C660 C657 1.499 . S
C660 C661 1.373 . S
C660 C662 1.389 . S
C661 H640 0.950 . S
C661 C660 1.373 . S
C661 C677 1.377 . S
C662 C660 1.389 . S
C662 C663 1.524 . S
C662 C676 1.377 . S
C663 C662 1.524 . S
C663 C664 1.397 . S
C663 C668 1.363 . S
C664 H641 0.950 . S
C664 C663 1.397 . S
C664 C665 1.334 . S
C665 H642 0.950 . S
C665 C664 1.334 . S
C665 C666 1.287 . S
C666 C665 1.287 . S
C666 C667 1.524 . S
C666 H685 0.913 . S
C667 H643 0.950 . S
C667 C666 1.524 . S
C667 C668 1.415 . S
C668 H644 0.950 . S
C668 C663 1.363 . S
C668 C667 1.415 . S
C669 H645 0.951 . S
C669 C670 1.366 . S
C669 C671 1.388 . S
C670 C669 1.366 . S
C670 C674 1.385 . S
C671 H646 0.951 . S
C671 C669 1.388 . S
C671 C672 1.366 . S
C672 C671 1.366 . S
C672 C673 1.414 . S
C672 C675 1.499 . S
C673 H647 0.950 . S
C673 C672 1.414 . S
C673 C674 1.374 . S
C674 H648 0.950 . S
C674 C670 1.385 . S
C674 C673 1.374 . S
C675 C672 1.499 . S
C675 C676 1.373 . S
C675 C677 1.389 . S
C676 H649 0.950 . S
C676 C662 1.377 . S
C676 C675 1.373 . S
C677 C661 1.377 . S
C677 C675 1.389 . S
C677 C678 1.524 . S
C678 C677 1.524 . S
C678 C679 1.397 . S
C678 C683 1.363 . S
C679 H650 0.950 . S
C679 C678 1.397 . S
C679 C680 1.334 . S
C680 H651 0.950 . S
C680 C679 1.334 . S
C680 C681 1.287 . S
C681 C680 1.287 . S
C681 C682 1.524 . S
C681 H684 0.999 . S
C682 H652 0.950 . S
C682 C681 1.524 . S
C682 C683 1.415 . S
C683 H653 0.950 . S
C683 C678 1.363 . S
C683 C682 1.415 . S
H684 C681 0.999 . S
H685 C666 0.913 . S
H686 C704 0.951 . S
H687 C706 0.951 . S
H688 C708 0.950 . S
H689 C709 0.950 . S
H690 C711 0.950 . S
H691 C714 0.950 . S
H692 C715 0.950 . S
H693 C717 0.950 . S
H694 C718 0.950 . S
H695 C719 0.951 . S
H696 C721 0.951 . S
H697 C723 0.950 . S
H698 C724 0.950 . S
H699 C726 0.950 . S
H700 C729 0.950 . S
H701 C730 0.950 . S
H702 C732 0.950 . S
H703 C733 0.950 . S
C704 H686 0.951 . S
C704 C705 1.366 . S
C704 C706 1.388 . S
C705 C704 1.366 . S
C705 C709 1.385 . S
C706 H687 0.951 . S
C706 C704 1.388 . S
C706 C707 1.366 . S
C707 C706 1.366 . S
C707 C708 1.414 . S
C707 C710 1.499 . S
C708 H688 0.950 . S
C708 C707 1.414 . S
C708 C709 1.374 . S
C709 H689 0.950 . S
C709 C705 1.385 . S
C709 C708 1.374 . S
C710 C707 1.499 . S
C710 C711 1.373 . S
C710 C712 1.389 . S
C711 H690 0.950 . S
C711 C710 1.373 . S
C711 C727 1.377 . S
C712 C710 1.389 . S
C712 C713 1.524 . S
C712 C726 1.377 . S
C713 C712 1.524 . S
C713 C714 1.397 . S
C713 C718 1.363 . S
C714 H691 0.950 . S
C714 C713 1.397 . S
C714 C715 1.334 . S
C715 H692 0.950 . S
C715 C714 1.334 . S
C715 C716 1.287 . S
C716 C715 1.287 . S
C716 C717 1.524 . S
C716 H735 0.913 . S
C717 H693 0.950 . S
C717 C716 1.524 . S
C717 C718 1.415 . S
C718 H694 0.950 . S
C718 C713 1.363 . S
C718 C717 1.415 . S
C719 H695 0.951 . S
C719 C720 1.366 . S
C719 C721 1.388 . S
C720 C719 1.366 . S
C720 C724 1.385 . S
C721 H696 0.951 . S
C721 C719 1.388 . S
C721 C722 1.366 . S
C722 C721 1.366 . S
C722 C723 1.414 . S
C722 C725 1.499 . S
C723 H697 0.950 . S
C723 C722 1.414 . S
C723 C724 1.374 . S
C724 H698 0.950 . S
C724 C720 1.385 . S
C724 C723 1.374 . S
C725 C722 1.499 . S
C725 C726 1.373 . S
C725 C727 1.389 . S
C726 H699 0.950 . S
C726 C712 1.377 . S
C726 C725 1.373 . S
C727 C711 1.377 . S
C727 C725 1.389 . S
C727 C728 1.524 . S
C728 C727 1.524 . S
C728 C729 1.397 . S
C728 C733 1.363 . S
C729 H700 0.950 . S
C729 C728 1.397 . S
C729 C730 1.334 . S
C730 H701 0.950 . S
C730 C729 1.334 . S
C730 C731 1.287 . S
C731 C730 1.287 . S
C731 C732 1.524 . S
C731 H734 0.999 . S
C732 H702 0.950 . S
C732 C731 1.524 . S
C732 C733 1.415 . S
C733 H703 0.950 . S
C733 C728 1.363 . S
C733 C732 1.415 . S
H734 C731 0.999 . S
H735 C716 0.913 . S
H736 C754 0.951 . S
H737 C756 0.951 . S
H738 C758 0.950 . S
H739 C759 0.950 . S
H740 C761 0.950 . S
H741 C764 0.950 . S
H742 C765 0.950 . S
H743 C767 0.950 . S
H744 C768 0.950 . S
H745 C769 0.951 . S
H746 C771 0.951 . S
H747 C773 0.950 . S
H748 C774 0.950 . S
H749 C776 0.950 . S
H750 C779 0.950 . S
H751 C780 0.950 . S
H752 C782 0.950 . S
H753 C783 0.950 . S
C754 H736 0.951 . S
C754 C755 1.366 . S
C754 C756 1.388 . S
C755 C754 1.366 . S
C755 C759 1.385 . S
C756 H737 0.951 . S
C756 C754 1.388 . S
C756 C757 1.366 . S
C757 C756 1.366 . S
C757 C758 1.414 . S
C757 C760 1.499 . S
C758 H738 0.950 . S
C758 C757 1.414 . S
C758 C759 1.374 . S
C759 H739 0.950 . S
C759 C755 1.385 . S
C759 C758 1.374 . S
C760 C757 1.499 . S
C760 C761 1.373 . S
C760 C762 1.389 . S
C761 H740 0.950 . S
C761 C760 1.373 . S
C761 C777 1.377 . S
C762 C760 1.389 . S
C762 C763 1.524 . S
C762 C776 1.377 . S
C763 C762 1.524 . S
C763 C764 1.397 . S
C763 C768 1.363 . S
C764 H741 0.950 . S
C764 C763 1.397 . S
C764 C765 1.334 . S
C765 H742 0.950 . S
C765 C764 1.334 . S
C765 C766 1.287 . S
C766 C765 1.287 . S
C766 C767 1.524 . S
C766 H785 0.913 . S
C767 H743 0.950 . S
C767 C766 1.524 . S
C767 C768 1.415 . S
C768 H744 0.950 . S
C768 C763 1.363 . S
C768 C767 1.415 . S
C769 H745 0.951 . S
C769 C770 1.366 . S
C769 C771 1.388 . S
C770 C769 1.366 . S
C770 C774 1.385 . S
C771 H746 0.951 . S
C771 C769 1.388 . S
C771 C772 1.366 . S
C772 C771 1.366 . S
C772 C773 1.414 . S
C772 C775 1.499 . S
C773 H747 0.950 . S
C773 C772 1.414 . S
C773 C774 1.374 . S
C774 H748 0.950 . S
C774 C770 1.385 . S
C774 C773 1.374 . S
C775 C772 1.499 . S
C775 C776 1.373 . S
C775 C777 1.389 . S
C776 H749 0.950 . S
C776 C762 1.377 . S
C776 C775 1.373 . S
C777 C761 1.377 . S
C777 C775 1.389 . S
C777 C778 1.524 . S
C778 C777 1.524 . S
C778 C779 1.397 . S
C778 C783 1.363 . S
C779 H750 0.950 . S
C779 C778 1.397 . S
C779 C780 1.334 . S
C780 H751 0.950 . S
C780 C779 1.334 . S
C780 C781 1.287 . S
C781 C780 1.287 . S
C781 C782 1.524 . S
C781 H784 0.999 . S
C782 H752 0.950 . S
C782 C781 1.524 . S
C782 C783 1.415 . S
C783 H753 0.950 . S
C783 C778 1.363 . S
C783 C782 1.415 . S
H784 C781 0.999 . S
H785 C766 0.913 . S
H786 C804 0.951 . S
H787 C806 0.951 . S
H788 C808 0.950 . S
H789 C809 0.950 . S
H790 C811 0.950 . S
H791 C814 0.950 . S
H792 C815 0.950 . S
H793 C817 0.950 . S
H794 C818 0.950 . S
H795 C819 0.951 . S
H796 C821 0.951 . S
H797 C823 0.950 . S
H798 C824 0.950 . S
H799 C826 0.957 . S
H800 C829 0.950 . S
H801 C830 0.950 . S
H802 C832 0.950 . S
H803 C833 0.950 1_655 S
C804 H786 0.951 . S
C804 C805 1.366 . S
C804 C806 1.388 . S
C805 C804 1.366 . S
C805 C809 1.385 1_455 S
C806 H787 0.951 . S
C806 C804 1.388 . S
C806 C807 1.366 . S
C807 C806 1.366 . S
C807 C808 1.414 1_455 S
C807 C810 1.499 . S
C808 H788 0.950 . S
C808 C807 1.414 1_655 S
C808 C809 1.374 . S
C809 H789 0.950 . S
C809 C805 1.385 1_655 S
C809 C808 1.374 . S
C810 C807 1.499 . S
C810 C811 1.373 . S
C810 C812 1.389 . S
C811 H790 0.950 . S
C811 C810 1.373 . S
C811 C827 1.377 . S
C812 C810 1.389 . S
C812 C813 1.524 1_455 S
C812 C826 1.368 1_554 S
C813 C812 1.524 1_655 S
C813 C814 1.397 . S
C813 C818 1.363 1_655 S
C814 H791 0.950 . S
C814 C813 1.397 . S
C814 C815 1.334 . S
C815 H792 0.950 . S
C815 C814 1.334 . S
C815 C816 1.287 . S
C816 C815 1.287 . S
C816 C817 1.524 1_655 S
C816 H835 0.913 . S
C817 H793 0.950 . S
C817 C816 1.524 1_455 S
C817 C818 1.415 . S
C818 H794 0.950 . S
C818 C813 1.363 1_455 S
C818 C817 1.415 . S
C819 H795 0.951 . S
C819 C820 1.366 1_655 S
C819 C821 1.388 . S
C820 C819 1.366 1_455 S
C820 C824 1.385 . S
C821 H796 0.951 . S
C821 C819 1.388 . S
C821 C822 1.366 1_655 S
C822 C821 1.366 1_455 S
C822 C823 1.414 . S
C822 C825 1.499 . S
C823 H797 0.950 . S
C823 C822 1.414 . S
C823 C824 1.374 . S
C824 H798 0.950 . S
C824 C820 1.385 . S
C824 C823 1.374 . S
C825 C822 1.499 . S
C825 C826 1.375 . S
C825 C827 1.389 1_556 S
C826 H799 0.957 . S
C826 C812 1.368 1_556 S
C826 C825 1.375 . S
C827 C811 1.377 . S
C827 C825 1.389 1_554 S
C827 C828 1.524 . S
C828 C827 1.524 . S
C828 C829 1.397 1_554 S
C828 C833 1.363 . S
C829 H800 0.950 . S
C829 C828 1.397 1_556 S
C829 C830 1.334 . S
C830 H801 0.950 . S
C830 C829 1.334 . S
C830 C831 1.310 . S
C831 C830 1.310 . S
C831 C832 1.497 1_556 S
C831 H834 1.007 . S
C832 H802 0.950 . S
C832 C831 1.497 1_554 S
C832 C833 1.415 . S
C833 H803 0.950 1_455 S
C833 C828 1.363 . S
C833 C832 1.415 . S
H834 C831 1.007 . S
H835 C816 0.913 . S
H836 C854 0.951 . S
H837 C856 0.951 . S
H838 C858 0.950 . S
H839 C859 0.950 . S
H840 C861 0.950 . S
H841 C864 0.950 . S
H842 C865 0.950 . S
H843 C867 0.950 . S
H844 C868 0.950 . S
H845 C869 0.951 . S
H846 C871 0.951 . S
H847 C873 0.950 . S
H848 C874 0.950 . S
H849 C876 0.950 . S
H850 C879 0.950 . S
H851 C880 0.950 . S
H852 C882 0.950 . S
H853 C883 0.950 . S
C854 H836 0.951 . S
C854 C855 1.366 . S
C854 C856 1.388 . S
C855 C854 1.366 . S
C855 C859 1.385 . S
C856 H837 0.951 . S
C856 C854 1.388 . S
C856 C857 1.366 . S
C857 C856 1.366 . S
C857 C858 1.414 . S
C857 C860 1.499 . S
C858 H838 0.950 . S
C858 C857 1.414 . S
C858 C859 1.374 . S
C859 H839 0.950 . S
C859 C855 1.385 . S
C859 C858 1.374 . S
C860 C857 1.499 . S
C860 C861 1.373 . S
C860 C862 1.389 . S
C861 H840 0.950 . S
C861 C860 1.373 . S
C861 C877 1.377 . S
C862 C860 1.389 . S
C862 C863 1.524 . S
C862 C876 1.377 . S
C863 C862 1.524 . S
C863 C864 1.397 . S
C863 C868 1.363 . S
C864 H841 0.950 . S
C864 C863 1.397 . S
C864 C865 1.334 . S
C865 H842 0.950 . S
C865 C864 1.334 . S
C865 C866 1.287 . S
C866 C865 1.287 . S
C866 C867 1.524 . S
C866 H885 0.913 . S
C867 H843 0.950 . S
C867 C866 1.524 . S
C867 C868 1.415 . S
C868 H844 0.950 . S
C868 C863 1.363 . S
C868 C867 1.415 . S
C869 H845 0.951 . S
C869 C870 1.366 . S
C869 C871 1.388 . S
C870 C869 1.366 . S
C870 C874 1.385 . S
C871 H846 0.951 . S
C871 C869 1.388 . S
C871 C872 1.366 . S
C872 C871 1.366 . S
C872 C873 1.414 . S
C872 C875 1.499 . S
C873 H847 0.950 . S
C873 C872 1.414 . S
C873 C874 1.374 . S
C874 H848 0.950 . S
C874 C870 1.385 . S
C874 C873 1.374 . S
C875 C872 1.499 . S
C875 C876 1.373 . S
C875 C877 1.389 . S
C876 H849 0.950 . S
C876 C862 1.377 . S
C876 C875 1.373 . S
C877 C861 1.377 . S
C877 C875 1.389 . S
C877 C878 1.524 . S
C878 C877 1.524 . S
C878 C879 1.397 1_545 S
C878 C883 1.363 . S
C879 H850 0.950 . S
C879 C878 1.397 1_565 S
C879 C880 1.334 . S
C880 H851 0.950 . S
C880 C879 1.334 . S
C880 C881 1.287 . S
C881 C880 1.287 . S
C881 C882 1.524 1_565 S
C881 H884 0.999 . S
C882 H852 0.950 . S
C882 C881 1.524 1_545 S
C882 C883 1.415 . S
C883 H853 0.950 . S
C883 C878 1.363 . S
C883 C882 1.415 . S
H884 C881 0.999 . S
H885 C866 0.913 . S
H886 C904 0.951 . S
H887 C906 0.951 . S
H888 C908 0.950 . S
H889 C909 0.950 . S
H890 C911 0.950 . S
H891 C914 0.950 . S
H892 C915 0.950 . S
H893 C917 0.950 . S
H894 C918 0.950 . S
H895 C919 0.951 . S
H896 C921 0.951 . S
H897 C923 0.950 . S
H898 C924 0.950 . S
H899 C926 0.950 . S
H900 C929 0.950 . S
H901 C930 0.950 . S
H902 C932 0.950 . S
H903 C933 0.950 . S
C904 H886 0.951 . S
C904 C905 1.366 . S
C904 C906 1.388 . S
C905 C904 1.366 . S
C905 C909 1.385 . S
C906 H887 0.951 . S
C906 C904 1.388 . S
C906 C907 1.366 . S
C907 C906 1.366 . S
C907 C908 1.414 . S
C907 C910 1.499 . S
C908 H888 0.950 . S
C908 C907 1.414 . S
C908 C909 1.374 . S
C909 H889 0.950 . S
C909 C905 1.385 . S
C909 C908 1.374 . S
C910 C907 1.499 . S
C910 C911 1.373 . S
C910 C912 1.389 . S
C911 H890 0.950 . S
C911 C910 1.373 . S
C911 C927 1.377 . S
C912 C910 1.389 . S
C912 C913 1.524 . S
C912 C926 1.377 . S
C913 C912 1.524 . S
C913 C914 1.397 . S
C913 C918 1.363 . S
C914 H891 0.950 . S
C914 C913 1.397 . S
C914 C915 1.334 . S
C915 H892 0.950 . S
C915 C914 1.334 . S
C915 C916 1.287 . S
C916 C915 1.287 . S
C916 C917 1.524 . S
C916 H935 0.913 . S
C917 H893 0.950 . S
C917 C916 1.524 . S
C917 C918 1.415 . S
C918 H894 0.950 . S
C918 C913 1.363 . S
C918 C917 1.415 . S
C919 H895 0.951 . S
C919 C920 1.366 . S
C919 C921 1.388 . S
C920 C919 1.366 . S
C920 C924 1.385 . S
C921 H896 0.951 . S
C921 C919 1.388 . S
C921 C922 1.366 . S
C922 C921 1.366 . S
C922 C923 1.414 . S
C922 C925 1.499 . S
C923 H897 0.950 . S
C923 C922 1.414 . S
C923 C924 1.374 . S
C924 H898 0.950 . S
C924 C920 1.385 . S
C924 C923 1.374 . S
C925 C922 1.499 . S
C925 C926 1.373 . S
C925 C927 1.389 . S
C926 H899 0.950 . S
C926 C912 1.377 . S
C926 C925 1.373 . S
C927 C911 1.377 . S
C927 C925 1.389 . S
C927 C928 1.524 . S
C928 C927 1.524 . S
C928 C929 1.397 . S
C928 C933 1.363 . S
C929 H900 0.950 . S
C929 C928 1.397 . S
C929 C930 1.334 . S
C930 H901 0.950 . S
C930 C929 1.334 . S
C930 C931 1.287 . S
C931 C930 1.287 . S
C931 C932 1.524 . S
C931 H934 0.999 . S
C932 H902 0.950 . S
C932 C931 1.524 . S
C932 C933 1.415 . S
C933 H903 0.950 . S
C933 C928 1.363 . S
C933 C932 1.415 . S
H934 C931 0.999 . S
H935 C916 0.913 . S
H936 C954 0.951 . S
H937 C956 0.951 . S
H938 C958 0.950 . S
H939 C959 0.950 . S
H940 C961 0.950 . S
H941 C964 0.950 . S
H942 C965 0.950 . S
H943 C967 0.950 . S
H944 C968 0.950 . S
H945 C969 0.951 . S
H946 C971 0.951 . S
H947 C973 0.950 . S
H948 C974 0.950 1_565 S
H949 C976 0.950 1_565 S
H950 C979 0.950 . S
H951 C980 0.950 . S
H952 C982 0.950 . S
H953 C983 0.950 . S
C954 H936 0.951 . S
C954 C955 1.366 . S
C954 C956 1.388 . S
C955 C954 1.366 . S
C955 C959 1.385 . S
C956 H937 0.951 . S
C956 C954 1.388 . S
C956 C957 1.366 . S
C957 C956 1.366 . S
C957 C958 1.414 . S
C957 C960 1.499 . S
C958 H938 0.950 . S
C958 C957 1.414 . S
C958 C959 1.374 . S
C959 H939 0.950 . S
C959 C955 1.385 . S
C959 C958 1.374 . S
C960 C957 1.499 . S
C960 C961 1.373 . S
C960 C962 1.389 . S
C961 H940 0.950 . S
C961 C960 1.373 . S
C961 C977 1.377 . S
C962 C960 1.389 . S
C962 C963 1.524 1_545 S
C962 C976 1.377 . S
C963 C962 1.524 1_565 S
C963 C964 1.397 . S
C963 C968 1.363 . S
C964 H941 0.950 . S
C964 C963 1.397 . S
C964 C965 1.334 . S
C965 H942 0.950 . S
C965 C964 1.334 . S
C965 C966 1.287 . S
C966 C965 1.287 . S
C966 C967 1.524 . S
C966 H985 0.913 . S
C967 H943 0.950 . S
C967 C966 1.524 . S
C967 C968 1.415 . S
C968 H944 0.950 . S
C968 C963 1.363 . S
C968 C967 1.415 . S
C969 H945 0.951 . S
C969 C970 1.366 . S
C969 C971 1.388 . S
C970 C969 1.366 . S
C970 C974 1.385 . S
C971 H946 0.951 . S
C971 C969 1.388 . S
C971 C972 1.366 . S
C972 C971 1.366 . S
C972 C973 1.414 . S
C972 C975 1.499 . S
C973 H947 0.950 . S
C973 C972 1.414 . S
C973 C974 1.374 . S
C974 H948 0.950 1_545 S
C974 C970 1.385 . S
C974 C973 1.374 . S
C975 C972 1.499 . S
C975 C976 1.373 . S
C975 C977 1.389 . S
C976 H949 0.950 1_545 S
C976 C962 1.377 . S
C976 C975 1.373 . S
C977 C961 1.377 . S
C977 C975 1.389 . S
C977 C978 1.524 . S
C978 C977 1.524 . S
C978 C979 1.397 . S
C978 C983 1.363 . S
C979 H950 0.950 . S
C979 C978 1.397 . S
C979 C980 1.334 . S
C980 H951 0.950 . S
C980 C979 1.334 . S
C980 C981 1.287 . S
C981 C980 1.287 . S
C981 C982 1.524 . S
C981 H984 0.999 . S
C982 H952 0.950 . S
C982 C981 1.524 . S
C982 C983 1.415 . S
C983 H953 0.950 . S
C983 C978 1.363 . S
C983 C982 1.415 . S
H984 C981 0.999 . S
H985 C966 0.913 . S
H986 C1004 0.951 . S
H987 C1006 0.951 . S
H988 C1008 0.950 . S
H989 C1009 0.950 . S
H990 C1011 0.950 . S
H991 C1014 0.950 . S
H992 C1015 0.950 . S
H993 C1017 0.950 . S
H994 C1018 0.950 . S
H995 C1019 0.951 . S
H996 C1021 0.951 . S
H997 C1023 0.950 . S
H998 C1024 0.950 . S
H999 C1026 0.950 1_554 S
H1000 C1029 0.950 . S
H1001 C1030 0.950 . S
H1002 C1032 0.950 . S
H1003 C1033 0.950 . S
C1004 H986 0.951 . S
C1004 C1005 1.366 . S
C1004 C1006 1.388 . S
C1005 C1004 1.366 . S
C1005 C1009 1.385 . S
C1006 H987 0.951 . S
C1006 C1004 1.388 . S
C1006 C1007 1.366 . S
C1007 C1006 1.366 . S
C1007 C1008 1.414 . S
C1007 C1010 1.499 . S
C1008 H988 0.950 . S
C1008 C1007 1.414 . S
C1008 C1009 1.374 . S
C1009 H989 0.950 . S
C1009 C1005 1.385 . S
C1009 C1008 1.374 . S
C1010 C1007 1.499 . S
C1010 C1011 1.373 . S
C1010 C1012 1.389 . S
C1011 H990 0.950 . S
C1011 C1010 1.373 . S
C1011 C1027 1.377 . S
C1012 C1010 1.389 . S
C1012 C1013 1.524 . S
C1012 C1026 1.377 . S
C1013 C1012 1.524 . S
C1013 C1014 1.397 . S
C1013 C1018 1.363 . S
C1014 H991 0.950 . S
C1014 C1013 1.397 . S
C1014 C1015 1.334 . S
C1015 H992 0.950 . S
C1015 C1014 1.334 . S
C1015 C1016 1.287 . S
C1016 C1015 1.287 . S
C1016 C1017 1.524 . S
C1016 H1035 0.913 . S
C1017 H993 0.950 . S
C1017 C1016 1.524 . S
C1017 C1018 1.415 . S
C1018 H994 0.950 . S
C1018 C1013 1.363 . S
C1018 C1017 1.415 . S
C1019 H995 0.951 . S
C1019 C1020 1.366 . S
C1019 C1021 1.388 . S
C1020 C1019 1.366 . S
C1020 C1024 1.385 . S
C1021 H996 0.951 . S
C1021 C1019 1.388 . S
C1021 C1022 1.366 . S
C1022 C1021 1.366 . S
C1022 C1023 1.414 . S
C1022 C1025 1.499 . S
C1023 H997 0.950 . S
C1023 C1022 1.414 . S
C1023 C1024 1.374 . S
C1024 H998 0.950 . S
C1024 C1020 1.385 . S
C1024 C1023 1.374 . S
C1025 C1022 1.499 . S
C1025 C1026 1.373 1_554 S
C1025 C1027 1.389 1_554 S
C1026 H999 0.950 1_556 S
C1026 C1012 1.377 . S
C1026 C1025 1.373 1_556 S
C1027 C1011 1.377 . S
C1027 C1025 1.389 1_556 S
C1027 C1028 1.524 . S
C1028 C1027 1.524 . S
C1028 C1029 1.397 1_556 S
C1028 C1033 1.363 . S
C1029 H1000 0.950 . S
C1029 C1028 1.397 1_554 S
C1029 C1030 1.334 . S
C1030 H1001 0.950 . S
C1030 C1029 1.334 . S
C1030 C1031 1.287 . S
C1031 C1030 1.287 . S
C1031 C1032 1.524 1_554 S
C1031 H1034 0.999 . S
C1032 H1002 0.950 . S
C1032 C1031 1.524 1_556 S
C1032 C1033 1.415 . S
C1033 H1003 0.950 . S
C1033 C1028 1.363 . S
C1033 C1032 1.415 . S
H1034 C1031 0.999 . S
H1035 C1016 0.913 . S
H1036 C1054 0.951 . S
H1037 C1056 0.951 . S
H1038 C1058 0.950 . S
H1039 C1059 0.950 . S
H1040 C1061 0.950 1_655 S
H1041 C1064 0.950 . S
H1042 C1065 0.950 . S
H1043 C1067 0.950 . S
H1044 C1068 0.950 . S
H1045 C1069 0.951 1_655 S
H1046 C1071 0.951 1_655 S
H1047 C1073 0.950 . S
H1048 C1074 0.950 . S
H1049 C1076 0.950 . S
H1050 C1079 0.950 1_455 S
H1051 C1080 0.950 . S
H1052 C1082 0.950 . S
H1053 C1083 0.950 . S
C1054 H1036 0.951 . S
C1054 C1055 1.366 . S
C1054 C1056 1.388 . S
C1055 C1054 1.366 . S
C1055 C1059 1.385 1_455 S
C1056 H1037 0.951 . S
C1056 C1054 1.388 . S
C1056 C1057 1.366 . S
C1057 C1056 1.366 . S
C1057 C1058 1.414 1_455 S
C1057 C1060 1.499 . S
C1058 H1038 0.950 . S
C1058 C1057 1.414 1_655 S
C1058 C1059 1.374 . S
C1059 H1039 0.950 . S
C1059 C1055 1.385 1_655 S
C1059 C1058 1.374 . S
C1060 C1057 1.499 . S
C1060 C1061 1.373 . S
C1060 C1062 1.389 . S
C1061 H1040 0.950 1_455 S
C1061 C1060 1.373 . S
C1061 C1077 1.377 . S
C1062 C1060 1.389 . S
C1062 C1063 1.524 . S
C1062 C1076 1.377 . S
C1063 C1062 1.524 . S
C1063 C1064 1.397 . S
C1063 C1068 1.363 . S
C1064 H1041 0.950 . S
C1064 C1063 1.397 . S
C1064 C1065 1.334 . S
C1065 H1042 0.950 . S
C1065 C1064 1.334 . S
C1065 C1066 1.287 . S
C1066 C1065 1.287 . S
C1066 C1067 1.524 . S
C1066 H1085 0.913 . S
C1067 H1043 0.950 . S
C1067 C1066 1.524 . S
C1067 C1068 1.415 . S
C1068 H1044 0.950 . S
C1068 C1063 1.363 . S
C1068 C1067 1.415 . S
C1069 H1045 0.951 1_455 S
C1069 C1070 1.366 . S
C1069 C1071 1.388 . S
C1070 C1069 1.366 . S
C1070 C1074 1.385 . S
C1071 H1046 0.951 1_455 S
C1071 C1069 1.388 . S
C1071 C1072 1.366 . S
C1072 C1071 1.366 . S
C1072 C1073 1.414 . S
C1072 C1075 1.499 . S
C1073 H1047 0.950 . S
C1073 C1072 1.414 . S
C1073 C1074 1.374 . S
C1074 H1048 0.950 . S
C1074 C1070 1.385 . S
C1074 C1073 1.374 . S
C1075 C1072 1.499 . S
C1075 C1076 1.373 . S
C1075 C1077 1.389 . S
C1076 H1049 0.950 . S
C1076 C1062 1.377 . S
C1076 C1075 1.373 . S
C1077 C1061 1.377 . S
C1077 C1075 1.389 . S
C1077 C1078 1.524 1_455 S
C1078 C1077 1.524 1_655 S
C1078 C1079 1.397 . S
C1078 C1083 1.363 . S
C1079 H1050 0.950 1_655 S
C1079 C1078 1.397 . S
C1079 C1080 1.334 . S
C1080 H1051 0.950 . S
C1080 C1079 1.334 . S
C1080 C1081 1.287 . S
C1081 C1080 1.287 . S
C1081 C1082 1.524 . S
C1081 H1084 0.999 . S
C1082 H1052 0.950 . S
C1082 C1081 1.524 . S
C1082 C1083 1.415 . S
C1083 H1053 0.950 . S
C1083 C1078 1.363 . S
C1083 C1082 1.415 . S
H1084 C1081 0.999 . S
H1085 C1066 0.913 . S
C205 C19 3.020 . S
C220 C185 2.986 . S
C255 C49 3.116 . S
C270 C163 3.050 . S
C305 C99 3.002 . S
C320 C174 2.963 . S
C355 C9 2.939 . S
C370 C179 2.899 . S
C420 C157 2.832 . S
C405 C59 2.856 . S
C470 C168 2.907 . S
C455 C89 2.946 . S
C505 C55 0.437 . S
C520 C141 0.468 . S
C555 C85 0.265 . S
C570 C146 0.183 . S
C605 C15 0.129 . S
C620 C124 0.248 . S
C670 C135 0.198 . S
C655 C45 0.264 . S
C720 C152 0.404 . S
C705 C95 0.343 . S
C755 C5 0.345 . S
C770 C130 0.289 . S
C820 C147 1.316 . S
C805 C18 1.300 . S
C855 C58 1.208 . S
C870 C125 1.253 . S
C905 C98 1.257 . S
C920 C136 1.285 . S
C970 C169 1.719 . S
C955 C48 1.675 . S
C1020 C180 1.747 . S
C1005 C88 1.684 . S
C1055 C8 1.683 . S
C1070 C158 1.794 . S
