# Generated by pormake.
# Topology ctn, (3,4)-cn, num edge types: 1
# Building blocks:
#     Node 0, Type 0, BuildingBlock: BETDIP_clean_linker_0, # of connection points: 3
#     Node 1, Type 0, BuildingBlock: BETDIP_clean_linker_0, # of connection points: 3
#     Node 2, Type 0, BuildingBlock: BETDIP_clean_linker_0, # of connection points: 3
#     Node 3, Type 0, BuildingBlock: BETDIP_clean_linker_0, # of connection points: 3
#     Node 4, Type 0, BuildingBlock: BETDIP_clean_linker_0, # of connection points: 3
#     Node 5, Type 0, BuildingBlock: BETDIP_clean_linker_0, # of connection points: 3
#     Node 6, Type 0, BuildingBlock: BETDIP_clean_linker_0, # of connection points: 3
#     Node 7, Type 0, BuildingBlock: BETDIP_clean_linker_0, # of connection points: 3
#     Node 8, Type 0, BuildingBlock: BETDIP_clean_linker_0, # of connection points: 3
#     Node 9, Type 0, BuildingBlock: BETDIP_clean_linker_0, # of connection points: 3
#     Node 10, Type 0, BuildingBlock: BETDIP_clean_linker_0, # of connection points: 3
#     Node 11, Type 0, BuildingBlock: BETDIP_clean_linker_0, # of connection points: 3
#     Node 12, Type 0, BuildingBlock: BETDIP_clean_linker_0, # of connection points: 3
#     Node 13, Type 0, BuildingBlock: BETDIP_clean_linker_0, # of connection points: 3
#     Node 14, Type 0, BuildingBlock: BETDIP_clean_linker_0, # of connection points: 3
#     Node 15, Type 0, BuildingBlock: BETDIP_clean_linker_0, # of connection points: 3
#     Node 16, Type 1, BuildingBlock: UXUYUI_clean_sbu_0, # of connection points: 4
#     Node 17, Type 1, BuildingBlock: UXUYUI_clean_sbu_0, # of connection points: 4
#     Node 18, Type 1, BuildingBlock: UXUYUI_clean_sbu_0, # of connection points: 4
#     Node 19, Type 1, BuildingBlock: UXUYUI_clean_sbu_0, # of connection points: 4
#     Node 20, Type 1, BuildingBlock: UXUYUI_clean_sbu_0, # of connection points: 4
#     Node 21, Type 1, BuildingBlock: UXUYUI_clean_sbu_0, # of connection points: 4
#     Node 22, Type 1, BuildingBlock: UXUYUI_clean_sbu_0, # of connection points: 4
#     Node 23, Type 1, BuildingBlock: UXUYUI_clean_sbu_0, # of connection points: 4
#     Node 24, Type 1, BuildingBlock: UXUYUI_clean_sbu_0, # of connection points: 4
#     Node 25, Type 1, BuildingBlock: UXUYUI_clean_sbu_0, # of connection points: 4
#     Node 26, Type 1, BuildingBlock: UXUYUI_clean_sbu_0, # of connection points: 4
#     Node 27, Type 1, BuildingBlock: UXUYUI_clean_sbu_0, # of connection points: 4
#     Edge 28, Type (0, 1), BuildingBlock: UVAHIK_clean_linker_0, # of connection points: 2
#     Edge 29, Type (0, 1), BuildingBlock: UVAHIK_clean_linker_0, # of connection points: 2
#     Edge 30, Type (0, 1), BuildingBlock: UVAHIK_clean_linker_0, # of connection points: 2
#     Edge 31, Type (0, 1), BuildingBlock: UVAHIK_clean_linker_0, # of connection points: 2
#     Edge 32, Type (0, 1), BuildingBlock: UVAHIK_clean_linker_0, # of connection points: 2
#     Edge 33, Type (0, 1), BuildingBlock: UVAHIK_clean_linker_0, # of connection points: 2
#     Edge 34, Type (0, 1), BuildingBlock: UVAHIK_clean_linker_0, # of connection points: 2
#     Edge 35, Type (0, 1), BuildingBlock: UVAHIK_clean_linker_0, # of connection points: 2
#     Edge 36, Type (0, 1), BuildingBlock: UVAHIK_clean_linker_0, # of connection points: 2
#     Edge 37, Type (0, 1), BuildingBlock: UVAHIK_clean_linker_0, # of connection points: 2
#     Edge 38, Type (0, 1), BuildingBlock: UVAHIK_clean_linker_0, # of connection points: 2
#     Edge 39, Type (0, 1), BuildingBlock: UVAHIK_clean_linker_0, # of connection points: 2
#     Edge 40, Type (0, 1), BuildingBlock: UVAHIK_clean_linker_0, # of connection points: 2
#     Edge 41, Type (0, 1), BuildingBlock: UVAHIK_clean_linker_0, # of connection points: 2
#     Edge 42, Type (0, 1), BuildingBlock: UVAHIK_clean_linker_0, # of connection points: 2
#     Edge 43, Type (0, 1), BuildingBlock: UVAHIK_clean_linker_0, # of connection points: 2
#     Edge 44, Type (0, 1), BuildingBlock: UVAHIK_clean_linker_0, # of connection points: 2
#     Edge 45, Type (0, 1), BuildingBlock: UVAHIK_clean_linker_0, # of connection points: 2
#     Edge 46, Type (0, 1), BuildingBlock: UVAHIK_clean_linker_0, # of connection points: 2
#     Edge 47, Type (0, 1), BuildingBlock: UVAHIK_clean_linker_0, # of connection points: 2
#     Edge 48, Type (0, 1), BuildingBlock: UVAHIK_clean_linker_0, # of connection points: 2
#     Edge 49, Type (0, 1), BuildingBlock: UVAHIK_clean_linker_0, # of connection points: 2
#     Edge 50, Type (0, 1), BuildingBlock: UVAHIK_clean_linker_0, # of connection points: 2
#     Edge 51, Type (0, 1), BuildingBlock: UVAHIK_clean_linker_0, # of connection points: 2
#     Edge 52, Type (0, 1), BuildingBlock: UVAHIK_clean_linker_0, # of connection points: 2
#     Edge 53, Type (0, 1), BuildingBlock: UVAHIK_clean_linker_0, # of connection points: 2
#     Edge 54, Type (0, 1), BuildingBlock: UVAHIK_clean_linker_0, # of connection points: 2
#     Edge 55, Type (0, 1), BuildingBlock: UVAHIK_clean_linker_0, # of connection points: 2
#     Edge 56, Type (0, 1), BuildingBlock: UVAHIK_clean_linker_0, # of connection points: 2
#     Edge 57, Type (0, 1), BuildingBlock: UVAHIK_clean_linker_0, # of connection points: 2
#     Edge 58, Type (0, 1), BuildingBlock: UVAHIK_clean_linker_0, # of connection points: 2
#     Edge 59, Type (0, 1), BuildingBlock: UVAHIK_clean_linker_0, # of connection points: 2
#     Edge 60, Type (0, 1), BuildingBlock: UVAHIK_clean_linker_0, # of connection points: 2
#     Edge 61, Type (0, 1), BuildingBlock: UVAHIK_clean_linker_0, # of connection points: 2
#     Edge 62, Type (0, 1), BuildingBlock: UVAHIK_clean_linker_0, # of connection points: 2
#     Edge 63, Type (0, 1), BuildingBlock: UVAHIK_clean_linker_0, # of connection points: 2
#     Edge 64, Type (0, 1), BuildingBlock: UVAHIK_clean_linker_0, # of connection points: 2
#     Edge 65, Type (0, 1), BuildingBlock: UVAHIK_clean_linker_0, # of connection points: 2
#     Edge 66, Type (0, 1), BuildingBlock: UVAHIK_clean_linker_0, # of connection points: 2
#     Edge 67, Type (0, 1), BuildingBlock: UVAHIK_clean_linker_0, # of connection points: 2
#     Edge 68, Type (0, 1), BuildingBlock: UVAHIK_clean_linker_0, # of connection points: 2
#     Edge 69, Type (0, 1), BuildingBlock: UVAHIK_clean_linker_0, # of connection points: 2
#     Edge 70, Type (0, 1), BuildingBlock: UVAHIK_clean_linker_0, # of connection points: 2
#     Edge 71, Type (0, 1), BuildingBlock: UVAHIK_clean_linker_0, # of connection points: 2
#     Edge 72, Type (0, 1), BuildingBlock: UVAHIK_clean_linker_0, # of connection points: 2
#     Edge 73, Type (0, 1), BuildingBlock: UVAHIK_clean_linker_0, # of connection points: 2
#     Edge 74, Type (0, 1), BuildingBlock: UVAHIK_clean_linker_0, # of connection points: 2
#     Edge 75, Type (0, 1), BuildingBlock: UVAHIK_clean_linker_0, # of connection points: 2
# Relax obj value: 0.067
# Max RMSD: 0.193
# Mean RMSD: 0.117
data_MOF--net-ctn--node1-UXUYUI_clean_sbu_0--node2-BETDIP_clean_linker_0--edge1-UVAHIK_clean_linker_0
_symmetry_space_group_name_H-M    P1
_symmetry_Int_Tables_number       1
_symmetry_cell_setting            triclinic
loop_
_symmetry_equiv_pos_as_xyz
'x, y, z'
_cell_length_a     81.19195
_cell_length_b     81.477547
_cell_length_c     89.049323
_cell_angle_alpha  93.401444
_cell_angle_beta   93.602535
_cell_angle_gamma 92.866223
loop_
_atom_site_label
_atom_site_type_symbol
_atom_site_fract_x
_atom_site_fract_y
_atom_site_fract_z
_atom_type_partial_charge
H0 H 0.03455 0.0586 0.05387 0.0
H1 H 0.07467 0.04247 0.02856 0.0
H2 H 0.06264 0.01794 0.06801 0.0
H3 H 0.07629 0.06889 0.02284 0.0
C4 C 0.06348 0.07207 0.02142 0.0
C5 C 0.04451 0.05039 0.05246 0.0
C6 C 0.04724 0.03802 0.06259 0.0
C7 C 0.05461 0.05244 0.04045 0.0
C8 C 0.06724 0.04155 0.03818 0.0
C9 C 0.07003 0.029 0.04799 0.0
C10 C 0.06006 0.02732 0.06018 0.0
N11 N 0.05157 0.06534 0.03072 0.0
H12 H 0.26508 0.70731 0.20206 0.0
H13 H 0.31084 0.73481 0.21536 0.0
H14 H 0.29771 0.69101 0.2374 0.0
H15 H 0.29907 0.75503 0.20382 0.0
C16 C 0.29102 0.74917 0.19465 0.0
C17 C 0.27638 0.70904 0.20926 0.0
C18 C 0.28011 0.69759 0.21996 0.0
C19 C 0.28728 0.72257 0.20753 0.0
C20 C 0.30212 0.72461 0.21667 0.0
C21 C 0.30587 0.71338 0.22762 0.0
C22 C 0.29483 0.69985 0.22912 0.0
N23 N 0.28321 0.73338 0.19606 0.0
H24 H 0.95665 0.48476 0.01332 0.0
H25 H 0.99749 0.46763 0.03995 0.0
H26 H 0.96933 0.50654 0.0581 0.0
H27 H 0.00678 0.46325 0.01536 0.0
C28 C 0.99547 0.45707 0.01019 0.0
C29 C 0.96436 0.48548 0.02375 0.0
C30 C 0.96145 0.49707 0.03548 0.0
C31 C 0.97755 0.47515 0.02512 0.0
C32 C 0.98767 0.47604 0.03856 0.0
C33 C 0.98467 0.48723 0.05056 0.0
C34 C 0.97161 0.49779 0.04891 0.0
N35 N 0.97996 0.46352 0.01304 0.0
H36 H 0.72054 0.77905 0.2001 0.0
H37 H 0.73676 0.82076 0.23019 0.0
H38 H 0.76361 0.80933 0.19138 0.0
H39 H 0.72521 0.80562 0.24732 0.0
C40 C 0.71438 0.79932 0.24139 0.0
C41 C 0.72933 0.78932 0.2032 0.0
C42 C 0.74222 0.79301 0.19388 0.0
C43 C 0.72755 0.79887 0.21657 0.0
C44 C 0.73836 0.81276 0.22031 0.0
C45 C 0.75136 0.81648 0.21123 0.0
C46 C 0.75339 0.80645 0.19822 0.0
N47 N 0.71461 0.79438 0.22582 0.0
H48 H 0.03521 0.96363 0.45464 0.0
H49 H 0.07449 0.98187 0.48681 0.0
H50 H 0.0682 0.00386 0.44435 0.0
H51 H 0.05599 0.97172 0.50318 0.0
C52 C 0.05201 0.96001 0.49728 0.0
C53 C 0.04573 0.97215 0.45768 0.0
C54 C 0.05043 0.98408 0.44776 0.0
C55 C 0.05418 0.97138 0.47181 0.0
C56 C 0.06773 0.98251 0.47601 0.0
C57 C 0.07269 0.99444 0.46622 0.0
C58 C 0.06404 0.99504 0.45212 0.0
N59 N 0.04903 0.95899 0.48135 0.0
H60 H 0.22623 0.73604 0.79921 0.0
H61 H 0.24781 0.69935 0.7712 0.0
H62 H 0.27033 0.71348 0.81526 0.0
H63 H 0.23112 0.70694 0.75299 0.0
C64 C 0.2214 0.71398 0.75755 0.0
C65 C 0.23597 0.72764 0.7975 0.0
C66 C 0.24833 0.72602 0.80901 0.0
C67 C 0.23578 0.71838 0.78375 0.0
C68 C 0.24803 0.70704 0.78152 0.0
C69 C 0.26045 0.70512 0.79292 0.0
C70 C 0.26054 0.71467 0.80661 0.0
N71 N 0.2228 0.72067 0.77271 0.0
H72 H 0.99781 0.55824 0.46387 0.0
H73 H 0.9658 0.51583 0.44961 0.0
H74 H 0.95527 0.54662 0.48835 0.0
H75 H 0.98756 0.50701 0.43842 0.0
C76 C 0.99427 0.51793 0.43512 0.0
C77 C 0.98707 0.55025 0.46548 0.0
C78 C 0.97673 0.55419 0.47707 0.0
C79 C 0.98347 0.53625 0.45573 0.0
C80 C 0.96922 0.52616 0.45755 0.0
C81 C 0.95894 0.52969 0.46934 0.0
C82 C 0.96285 0.5438 0.47904 0.0
N83 N 0.99406 0.53309 0.44386 0.0
H84 H 0.79538 0.80564 0.76821 0.0
H85 H 0.81682 0.77242 0.79855 0.0
H86 H 0.77241 0.79605 0.80929 0.0
H87 H 0.84067 0.78362 0.78844 0.0
C88 C 0.83657 0.78287 0.77655 0.0
C89 C 0.79497 0.79934 0.77857 0.0
C90 C 0.78245 0.80234 0.78842 0.0
C91 C 0.80752 0.78884 0.78227 0.0
C92 C 0.80726 0.78073 0.79576 0.0
C93 C 0.79462 0.78325 0.80563 0.0
C94 C 0.78234 0.79417 0.80189 0.0
N95 N 0.82013 0.78658 0.7721 0.0
H96 H 0.29397 0.30573 0.26861 0.0
H97 H 0.31349 0.27082 0.2984 0.0
H98 H 0.27143 0.2977 0.31021 0.0
H99 H 0.33727 0.27764 0.28758 0.0
C100 C 0.33344 0.2793 0.27588 0.0
C101 C 0.2934 0.29942 0.27896 0.0
C102 C 0.28121 0.30304 0.28898 0.0
C103 C 0.30538 0.28823 0.28246 0.0
C104 C 0.30476 0.28004 0.2959 0.0
C105 C 0.29245 0.28329 0.30594 0.0
C106 C 0.28082 0.29493 0.30244 0.0
N107 N 0.31773 0.28545 0.27211 0.0
H108 H 0.452 0.98104 0.51673 0.0
H109 H 0.49012 0.96229 0.54551 0.0
H110 H 0.46938 0.00808 0.55827 0.0
H111 H 0.47983 0.9381 0.53459 0.0
C112 C 0.47726 0.9408 0.5229 0.0
C113 C 0.4601 0.98242 0.52692 0.0
C114 C 0.45926 0.99615 0.53713 0.0
C115 C 0.47095 0.97003 0.52994 0.0
C116 C 0.48144 0.97161 0.54317 0.0
C117 C 0.4808 0.9852 0.55353 0.0
C118 C 0.46966 0.99741 0.55044 0.0
N119 N 0.47119 0.95628 0.51936 0.0
H120 H 0.21941 0.27901 0.70137 0.0
H121 H 0.23591 0.32041 0.73163 0.0
H122 H 0.26063 0.31082 0.69112 0.0
H123 H 0.22469 0.30556 0.74888 0.0
C124 C 0.21411 0.29868 0.74311 0.0
C125 C 0.22798 0.2895 0.70427 0.0
C126 C 0.24006 0.29388 0.69436 0.0
C127 C 0.22673 0.29862 0.71795 0.0
C128 C 0.23733 0.3127 0.72154 0.0
C129 C 0.24947 0.3173 0.7118 0.0
C130 C 0.25088 0.30768 0.69837 0.0
N131 N 0.21433 0.29358 0.72757 0.0
H132 H 0.76822 0.20598 0.70151 0.0
H133 H 0.81315 0.23513 0.71378 0.0
H134 H 0.80216 0.19127 0.73661 0.0
H135 H 0.7987 0.25544 0.70405 0.0
C136 C 0.79137 0.24927 0.69455 0.0
C137 C 0.77959 0.20813 0.70855 0.0
C138 C 0.78403 0.19686 0.71923 0.0
C139 C 0.7898 0.22212 0.70671 0.0
C140 C 0.80479 0.22476 0.71555 0.0
C141 C 0.80942 0.21363 0.72633 0.0
C142 C 0.79892 0.19973 0.72809 0.0
N143 N 0.78495 0.23283 0.6954 0.0
H144 H 0.5327 0.56021 0.55284 0.0
H145 H 0.57166 0.5436 0.52638 0.0
H146 H 0.56161 0.52015 0.56695 0.0
H147 H 0.57398 0.57086 0.52204 0.0
C148 C 0.5611 0.57366 0.52015 0.0
C149 C 0.54262 0.552 0.55124 0.0
C150 C 0.5458 0.53985 0.5615 0.0
C151 C 0.55226 0.55382 0.53889 0.0
C152 C 0.56475 0.54287 0.53634 0.0
C153 C 0.56811 0.53059 0.54634 0.0
C154 C 0.55865 0.52923 0.55894 0.0
N155 N 0.54902 0.56662 0.5291 0.0
H156 H 0.53506 0.46253 0.95587 0.0
H157 H 0.57589 0.48064 0.98647 0.0
H158 H 0.56326 0.50664 0.94713 0.0
H159 H 0.57711 0.45352 0.9906 0.0
C160 C 0.56418 0.44945 0.99071 0.0
C161 C 0.54513 0.47157 0.95898 0.0
C162 C 0.54779 0.48498 0.95006 0.0
C163 C 0.55541 0.46969 0.97193 0.0
C164 C 0.56831 0.48157 0.97615 0.0
C165 C 0.57119 0.49503 0.96732 0.0
C166 C 0.56085 0.4966 0.95429 0.0
N167 N 0.55223 0.45594 0.98065 0.0
H168 H 0.72561 0.23558 0.30165 0.0
H169 H 0.74623 0.19939 0.27251 0.0
H170 H 0.76985 0.21241 0.31641 0.0
H171 H 0.73078 0.20955 0.25446 0.0
C172 C 0.72047 0.21526 0.25946 0.0
C173 C 0.73529 0.2272 0.2996 0.0
C174 C 0.74799 0.22542 0.31077 0.0
C175 C 0.73469 0.21817 0.28572 0.0
C176 C 0.7467 0.20669 0.28307 0.0
C177 C 0.75938 0.20442 0.29416 0.0
C178 C 0.76003 0.21399 0.3079 0.0
N179 N 0.72152 0.22075 0.27496 0.0
H180 H 0.49793 0.05732 0.96254 0.0
H181 H 0.46866 0.01253 0.95024 0.0
H182 H 0.45507 0.04501 0.98656 0.0
H183 H 0.49166 0.00459 0.93996 0.0
C184 C 0.49721 0.01571 0.93583 0.0
C185 C 0.48755 0.04898 0.9644 0.0
C186 C 0.47681 0.053 0.97567 0.0
C187 C 0.48492 0.03433 0.95533 0.0
C188 C 0.47125 0.02361 0.95748 0.0
C189 C 0.46038 0.02747 0.96867 0.0
C190 C 0.46323 0.04218 0.9777 0.0
N191 N 0.49583 0.03121 0.94373 0.0
Li192 Li 0.27302 0.88597 0.00116 0.0
Li193 Li 0.25957 0.86583 0.01633 0.0
Li194 Li 0.25375 0.86537 0.989 0.0
Li195 Li 0.24362 0.88702 0.00582 0.0
C196 C 0.27975 0.84793 0.99313 0.0
N197 N 0.28757 0.81916 0.97779 0.0
C198 C 0.2772 0.83279 0.99946 0.0
C199 C 0.28632 0.84843 0.97901 0.0
C200 C 0.28125 0.81839 0.99154 0.0
C201 C 0.29016 0.83375 0.97142 0.0
C202 C 0.26823 0.89106 0.03531 0.0
C203 C 0.26301 0.88928 0.06154 0.0
N204 N 0.2795 0.89157 0.06527 0.0
C205 C 0.28513 0.89344 0.03939 0.0
C206 C 0.25706 0.88903 0.04646 0.0
C207 C 0.29058 0.89365 0.05461 0.0
C208 C 0.29321 0.91527 0.00461 0.0
N209 N 0.29265 0.89926 0.99927 0.0
C210 C 0.31945 0.90284 0.98993 0.0
C211 C 0.30548 0.89286 0.99223 0.0
C212 C 0.32029 0.91949 0.99512 0.0
C213 C 0.30702 0.92566 0.00269 0.0
H214 H 0.2828 0.92001 0.01015 0.0
H215 H 0.30478 0.88006 0.98825 0.0
C216 C 0.24949 0.8453 0.03907 0.0
N217 N 0.26274 0.85289 0.03328 0.0
C218 C 0.2516 0.83646 0.05195 0.0
C219 C 0.28099 0.84312 0.05246 0.0
C220 C 0.27832 0.85176 0.03953 0.0
C221 C 0.2675 0.8354 0.05889 0.0
H222 H 0.23727 0.84622 0.03378 0.0
H223 H 0.28864 0.85775 0.03454 0.0
C224 C 0.2601 0.90274 0.97979 0.0
N225 N 0.27353 0.93032 0.96748 0.0
C226 C 0.255 0.91836 0.9841 0.0
C227 C 0.27199 0.90115 0.96917 0.0
C228 C 0.26193 0.93215 0.97774 0.0
C229 C 0.27866 0.91524 0.96311 0.0
C230 C 0.22121 0.86214 0.00522 0.0
C231 C 0.2113 0.85773 0.99205 0.0
C232 C 0.2138 0.8663 0.01859 0.0
C233 C 0.19412 0.85763 0.99246 0.0
C234 C 0.19658 0.86609 0.01852 0.0
N235 N 0.18718 0.8618 0.00557 0.0
C236 C 0.24445 0.83514 0.97267 0.0
C237 C 0.25124 0.85717 0.95757 0.0
C238 C 0.24264 0.82414 0.95997 0.0
N239 N 0.24896 0.85124 0.97127 0.0
C240 C 0.24963 0.84661 0.94459 0.0
C241 C 0.24549 0.82978 0.94569 0.0
H242 H 0.24266 0.83079 0.98373 0.0
H243 H 0.25473 0.87003 0.95677 0.0
C244 C 0.22759 0.91196 0.02161 0.0
N245 N 0.22616 0.90134 0.00917 0.0
C246 C 0.21498 0.92245 0.02464 0.0
C247 C 0.19967 0.911 0.00194 0.0
C248 C 0.21271 0.90092 0.99921 0.0
C249 C 0.20073 0.92192 0.01481 0.0
H250 H 0.23855 0.9123 0.02917 0.0
H251 H 0.21209 0.89267 0.98921 0.0
O252 O 0.27552 0.86214 0.00056 0.0
O253 O 0.26268 0.89044 0.02045 0.0
O254 O 0.25376 0.88912 0.98618 0.0
O255 O 0.23805 0.86245 0.00502 0.0
H256 H 0.272 0.83212 0.0103 0.0
H257 H 0.28805 0.85998 0.97377 0.0
H258 H 0.27929 0.80659 0.99628 0.0
H259 H 0.29509 0.83395 0.96042 0.0
H260 H 0.25452 0.8876 0.07028 0.0
H261 H 0.29396 0.89489 0.03091 0.0
H262 H 0.24396 0.88706 0.04348 0.0
H263 H 0.30362 0.8954 0.05793 0.0
H264 H 0.32952 0.89759 0.98421 0.0
H265 H 0.30717 0.93846 0.00677 0.0
H266 H 0.24085 0.83079 0.05658 0.0
H267 H 0.29348 0.84239 0.05731 0.0
H268 H 0.24589 0.91987 0.99235 0.0
H269 H 0.27634 0.8892 0.96592 0.0
H270 H 0.25814 0.94432 0.98101 0.0
H271 H 0.28799 0.9142 0.955 0.0
H272 H 0.2168 0.85456 0.98159 0.0
H273 H 0.22127 0.86992 0.02885 0.0
H274 H 0.18631 0.8543 0.98234 0.0
H275 H 0.19069 0.86941 0.02875 0.0
H276 H 0.23916 0.81134 0.96135 0.0
H277 H 0.25214 0.85151 0.93388 0.0
H278 H 0.21624 0.9307 0.03468 0.0
H279 H 0.18897 0.91043 0.99399 0.0
Li280 Li 0.11983 0.49473 0.26166 0.0
Li281 Li 0.13968 0.47736 0.2499 0.0
Li282 Li 0.141 0.50733 0.2477 0.0
Li283 Li 0.11899 0.48951 0.23425 0.0
C284 C 0.15769 0.50264 0.27347 0.0
N285 N 0.18599 0.5186 0.28728 0.0
C286 C 0.17262 0.49479 0.27392 0.0
C287 C 0.15715 0.51858 0.2801 0.0
C288 C 0.18679 0.50307 0.28096 0.0
C289 C 0.17159 0.52645 0.287 0.0
C290 C 0.11358 0.4574 0.25246 0.0
C291 C 0.11474 0.42869 0.24452 0.0
N292 N 0.11166 0.42458 0.2587 0.0
C293 C 0.11036 0.4529 0.26694 0.0
C294 C 0.1157 0.44522 0.24113 0.0
C295 C 0.10945 0.43623 0.26987 0.0
C296 C 0.09042 0.49239 0.277 0.0
N297 N 0.10666 0.49753 0.27849 0.0
C298 C 0.10426 0.50676 0.30418 0.0
C299 C 0.1137 0.50453 0.29173 0.0
C300 C 0.08744 0.50159 0.30301 0.0
C301 C 0.08052 0.4943 0.2892 0.0
H302 H 0.08518 0.48679 0.26633 0.0
H303 H 0.12667 0.5083 0.29267 0.0
C304 C 0.162 0.45341 0.24123 0.0
N305 N 0.15258 0.45873 0.25244 0.0
C306 C 0.17191 0.44007 0.24317 0.0
C307 C 0.16214 0.43789 0.26811 0.0
C308 C 0.15258 0.45138 0.26575 0.0
C309 C 0.17204 0.43214 0.25675 0.0
H310 H 0.16196 0.45963 0.23085 0.0
H311 H 0.14529 0.45615 0.27461 0.0
C312 C 0.10442 0.51915 0.25088 0.0
N313 N 0.07816 0.53505 0.2622 0.0
C314 C 0.08828 0.51473 0.24518 0.0
C315 C 0.10723 0.53172 0.26227 0.0
C316 C 0.07516 0.52292 0.25105 0.0
C317 C 0.09378 0.53958 0.26787 0.0
C318 C 0.14402 0.48888 0.21666 0.0
C319 C 0.14844 0.50304 0.20941 0.0
C320 C 0.13985 0.47413 0.20813 0.0
C321 C 0.14845 0.50224 0.19369 0.0
C322 C 0.13997 0.47385 0.19244 0.0
N323 N 0.14422 0.48779 0.1856 0.0
C324 C 0.1717 0.52532 0.24627 0.0
C325 C 0.1479 0.54079 0.24328 0.0
C326 C 0.18196 0.53925 0.24456 0.0
N327 N 0.15503 0.5264 0.24582 0.0
C328 C 0.15767 0.55496 0.24122 0.0
C329 C 0.17499 0.55437 0.2419 0.0
H330 H 0.17702 0.51361 0.24794 0.0
H331 H 0.1346 0.54121 0.24256 0.0
C332 C 0.09462 0.47402 0.21273 0.0
N333 N 0.10509 0.48744 0.21619 0.0
C334 C 0.08455 0.47293 0.19934 0.0
C335 C 0.09628 0.49946 0.19343 0.0
C336 C 0.1059 0.50015 0.207 0.0
C337 C 0.08543 0.48572 0.18947 0.0
H338 H 0.09406 0.46421 0.22036 0.0
H339 H 0.11408 0.51083 0.21024 0.0
O340 O 0.1437 0.49477 0.26657 0.0
O341 O 0.11479 0.47366 0.24943 0.0
O342 O 0.11738 0.51099 0.24558 0.0
O343 O 0.14362 0.48948 0.23202 0.0
H344 H 0.17332 0.48249 0.26883 0.0
H345 H 0.14575 0.52493 0.27969 0.0
H346 H 0.19844 0.49716 0.28136 0.0
H347 H 0.17137 0.53883 0.29207 0.0
H348 H 0.11646 0.41913 0.23589 0.0
H349 H 0.10878 0.46217 0.27586 0.0
H350 H 0.11825 0.4485 0.22988 0.0
H351 H 0.10706 0.43257 0.28104 0.0
H352 H 0.11013 0.5122 0.31468 0.0
H353 H 0.06758 0.49025 0.28779 0.0
H354 H 0.17935 0.43597 0.23413 0.0
H355 H 0.16212 0.43228 0.27883 0.0
H356 H 0.08588 0.50496 0.23643 0.0
H357 H 0.11965 0.53521 0.26687 0.0
H358 H 0.0626 0.51958 0.2468 0.0
H359 H 0.09576 0.54925 0.27676 0.0
H360 H 0.15169 0.51457 0.21581 0.0
H361 H 0.13637 0.46307 0.21357 0.0
H362 H 0.15175 0.51312 0.18792 0.0
H363 H 0.13665 0.46255 0.18569 0.0
H364 H 0.19521 0.53814 0.24537 0.0
H365 H 0.15165 0.56615 0.23881 0.0
H366 H 0.07632 0.46214 0.19665 0.0
H367 H 0.09711 0.50968 0.18622 0.0
Li368 Li 0.76047 0.64468 0.99564 0.0
Li369 Li 0.77478 0.66711 0.01142 0.0
Li370 Li 0.77826 0.66524 0.98398 0.0
Li371 Li 0.79099 0.64633 0.00047 0.0
C372 C 0.7451 0.67201 0.98447 0.0
N373 N 0.72012 0.67892 0.96365 0.0
C374 C 0.7361 0.68601 0.98678 0.0
C375 C 0.74139 0.66151 0.97158 0.0
C376 C 0.72352 0.6893 0.97612 0.0
C377 C 0.72872 0.66522 0.96119 0.0
C378 C 0.77095 0.64234 0.02964 0.0
C379 C 0.78111 0.64302 0.05572 0.0
N380 N 0.76531 0.64123 0.05985 0.0
C381 C 0.75483 0.64027 0.03413 0.0
C382 C 0.78422 0.64352 0.0405 0.0
C383 C 0.75223 0.63983 0.04946 0.0
C384 C 0.74242 0.61458 0.98835 0.0
N385 N 0.74111 0.63049 0.99338 0.0
C386 C 0.71215 0.6258 0.99585 0.0
C387 C 0.7264 0.63624 0.99717 0.0
C388 C 0.71306 0.60928 0.99059 0.0
C389 C 0.72848 0.60372 0.98679 0.0
H390 H 0.75433 0.61032 0.98563 0.0
H391 H 0.72578 0.64891 0.00139 0.0
C392 C 0.7844 0.6911 0.03553 0.0
N393 N 0.77175 0.6813 0.02867 0.0
C394 C 0.78205 0.7006 0.04873 0.0
C395 C 0.75361 0.69003 0.04733 0.0
C396 C 0.75647 0.6809 0.03409 0.0
C397 C 0.76654 0.69997 0.05494 0.0
H398 H 0.79633 0.69152 0.03081 0.0
H399 H 0.74657 0.67318 0.02825 0.0
C400 C 0.78766 0.63462 0.9704 0.0
N401 N 0.80796 0.62199 0.94929 0.0
C402 C 0.80169 0.6438 0.96676 0.0
C403 C 0.78393 0.61902 0.96327 0.0
C404 C 0.8118 0.63721 0.95607 0.0
C405 C 0.79436 0.61284 0.95264 0.0
C406 C 0.81178 0.6738 0.00408 0.0
C407 C 0.82178 0.68018 0.99335 0.0
C408 C 0.81886 0.6706 0.01825 0.0
C409 C 0.83873 0.68301 0.99692 0.0
C410 C 0.83585 0.67358 0.02138 0.0
N411 N 0.84536 0.67966 0.01073 0.0
C412 C 0.78588 0.69337 0.96802 0.0
C413 C 0.77531 0.67001 0.95264 0.0
C414 C 0.7875 0.70249 0.95534 0.0
N415 N 0.78001 0.67741 0.96644 0.0
C416 C 0.77667 0.67866 0.93968 0.0
C417 C 0.78293 0.69512 0.9409 0.0
H418 H 0.78944 0.69896 0.97915 0.0
H419 H 0.77049 0.65735 0.95169 0.0
C420 C 0.80591 0.61917 0.01182 0.0
N421 N 0.80912 0.63254 0.00383 0.0
C422 C 0.81812 0.60809 0.01466 0.0
C423 C 0.8368 0.62468 0.00096 0.0
C424 C 0.82416 0.63536 0.99826 0.0
C425 C 0.83382 0.61081 0.00923 0.0
H426 H 0.79378 0.61705 0.01593 0.0
H427 H 0.82639 0.64581 0.99164 0.0
O428 O 0.7575 0.66872 0.9948 0.0
O429 O 0.77373 0.64307 0.01469 0.0
O430 O 0.77764 0.64081 0.98091 0.0
O431 O 0.79516 0.6709 0.00077 0.0
H432 H 0.73884 0.69426 0.99671 0.0
H433 H 0.74821 0.65061 0.96961 0.0
H434 H 0.71645 0.7001 0.97776 0.0
H435 H 0.72573 0.6572 0.95116 0.0
H436 H 0.79126 0.64402 0.06425 0.0
H437 H 0.74442 0.63924 0.02588 0.0
H438 H 0.79679 0.64473 0.03722 0.0
H439 H 0.7398 0.6384 0.0531 0.0
H440 H 0.70061 0.63056 0.99916 0.0
H441 H 0.72976 0.59115 0.98255 0.0
H442 H 0.79228 0.70838 0.05396 0.0
H443 H 0.74149 0.68899 0.05171 0.0
H444 H 0.80476 0.65587 0.97215 0.0
H445 H 0.7731 0.61175 0.96589 0.0
H446 H 0.82272 0.64419 0.95319 0.0
H447 H 0.79162 0.60077 0.94704 0.0
H448 H 0.81654 0.68286 0.98236 0.0
H449 H 0.81131 0.6658 0.02672 0.0
H450 H 0.84661 0.68786 0.98869 0.0
H451 H 0.84149 0.67106 0.03228 0.0
H452 H 0.79252 0.71509 0.95682 0.0
H453 H 0.77271 0.67255 0.92883 0.0
H454 H 0.81534 0.59759 0.02115 0.0
H455 H 0.84867 0.62707 0.99638 0.0
Li456 Li 0.90557 0.03347 0.25356 0.0
Li457 Li 0.92534 0.01494 0.26424 0.0
Li458 Li 0.92472 0.02074 0.23755 0.0
Li459 Li 0.90266 0.00361 0.24744 0.0
C460 C 0.93248 0.0523 0.26025 0.0
N461 N 0.93583 0.08496 0.27076 0.0
C462 C 0.9366 0.05645 0.27553 0.0
C463 C 0.93015 0.06475 0.25031 0.0
C464 C 0.93823 0.07304 0.28062 0.0
C465 C 0.93186 0.08119 0.25585 0.0
C466 C 0.88796 0.00864 0.27308 0.0
C467 C 0.8737 0.98518 0.28269 0.0
N468 N 0.85992 0.99391 0.28366 0.0
C469 C 0.87365 0.01738 0.27419 0.0
C470 C 0.888 0.99241 0.27739 0.0
C471 C 0.85961 0.00971 0.27957 0.0
C472 C 0.88345 0.05787 0.24623 0.0
N473 N 0.89344 0.05251 0.25753 0.0
C474 C 0.88457 0.07321 0.27493 0.0
C475 C 0.89416 0.05985 0.27169 0.0
C476 C 0.87394 0.07886 0.26352 0.0
C477 C 0.87355 0.07109 0.24898 0.0
H478 H 0.88291 0.05166 0.23513 0.0
H479 H 0.90191 0.05506 0.28056 0.0
C480 C 0.95554 0.01648 0.28229 0.0
N481 N 0.93939 0.01099 0.28149 0.0
C482 C 0.96598 0.01355 0.29482 0.0
C483 C 0.94304 0.99917 0.30531 0.0
C484 C 0.93302 0.00257 0.2927 0.0
C485 C 0.95973 0.00473 0.3065 0.0
H486 H 0.96027 0.02315 0.27319 0.0
H487 H 0.92014 0.9985 0.29188 0.0
C488 C 0.89856 0.02255 0.21854 0.0
N489 N 0.89625 0.02383 0.18755 0.0
C490 C 0.89296 0.00861 0.20938 0.0
C491 C 0.90285 0.03718 0.21194 0.0
C492 C 0.8919 0.0095 0.19374 0.0
C493 C 0.90165 0.03756 0.19625 0.0
C494 C 0.93901 0.99027 0.25122 0.0
C495 C 0.955 0.99468 0.24739 0.0
C496 C 0.93648 0.97734 0.26059 0.0
C497 C 0.96824 0.98608 0.25309 0.0
C498 C 0.95004 0.96907 0.26607 0.0
N499 N 0.96551 0.97358 0.26224 0.0
C500 C 0.9484 0.03606 0.21977 0.0
C501 C 0.93562 0.01079 0.2093 0.0
C502 C 0.95753 0.03759 0.20708 0.0
N503 N 0.9376 0.02289 0.22055 0.0
C504 C 0.94427 0.01196 0.19632 0.0
C505 C 0.95536 0.02551 0.19509 0.0
H506 H 0.94992 0.04537 0.22898 0.0
H507 H 0.9272 0.00028 0.21038 0.0
C508 C 0.87085 0.98764 0.24267 0.0
N509 N 0.88731 0.98534 0.24273 0.0
C510 C 0.85942 0.97423 0.24014 0.0
C511 C 0.88207 0.95654 0.23664 0.0
C512 C 0.89307 0.97025 0.23957 0.0
C513 C 0.86496 0.95835 0.23714 0.0
H514 H 0.86661 0.99985 0.24494 0.0
H515 H 0.90622 0.96885 0.23933 0.0
O516 O 0.93058 0.03613 0.25508 0.0
O517 O 0.90182 0.01592 0.26777 0.0
O518 O 0.89998 0.02185 0.23387 0.0
O519 O 0.92597 0.99887 0.24615 0.0
H520 H 0.93832 0.04697 0.2834 0.0
H521 H 0.92687 0.06174 0.23847 0.0
H522 H 0.94134 0.07643 0.29242 0.0
H523 H 0.92999 0.09095 0.2483 0.0
H524 H 0.87352 0.97259 0.28593 0.0
H525 H 0.87332 0.0299 0.27085 0.0
H526 H 0.89882 0.98532 0.27631 0.0
H527 H 0.84845 0.01632 0.28045 0.0
H528 H 0.88504 0.0787 0.28633 0.0
H529 H 0.86559 0.07513 0.23986 0.0
H530 H 0.97882 0.01798 0.29532 0.0
H531 H 0.93771 0.99253 0.31418 0.0
H532 H 0.88961 0.99718 0.21429 0.0
H533 H 0.90725 0.04807 0.21886 0.0
H534 H 0.88766 0.99879 0.18651 0.0
H535 H 0.90505 0.04876 0.19099 0.0
H536 H 0.95719 0.00474 0.24025 0.0
H537 H 0.92419 0.97389 0.26377 0.0
H538 H 0.98069 0.9894 0.25028 0.0
H539 H 0.94828 0.95911 0.27343 0.0
H540 H 0.96598 0.04822 0.20653 0.0
H541 H 0.94245 0.00228 0.1874 0.0
H542 H 0.84643 0.97633 0.24084 0.0
H543 H 0.88699 0.9447 0.23396 0.0
Li544 Li 0.27483 0.16796 0.5125 0.0
Li545 Li 0.26112 0.14506 0.49682 0.0
Li546 Li 0.29158 0.14779 0.50156 0.0
Li547 Li 0.2783 0.16626 0.48503 0.0
C548 C 0.27155 0.14335 0.53077 0.0
N549 N 0.26546 0.14261 0.56092 0.0
C550 C 0.25542 0.14056 0.53504 0.0
C551 C 0.28461 0.14548 0.54182 0.0
C552 C 0.25259 0.14031 0.55034 0.0
C553 C 0.28127 0.14515 0.557 0.0
C554 C 0.24492 0.17211 0.48562 0.0
C555 C 0.22853 0.16511 0.46238 0.0
N556 N 0.21976 0.17869 0.46486 0.0
C557 C 0.23577 0.18599 0.48794 0.0
C558 C 0.2413 0.16156 0.47275 0.0
C559 C 0.22309 0.18911 0.47731 0.0
C560 C 0.28383 0.19229 0.53642 0.0
N561 N 0.27142 0.18212 0.52965 0.0
C562 C 0.25303 0.19061 0.54819 0.0
C563 C 0.25614 0.18138 0.53507 0.0
C564 C 0.26569 0.20101 0.55567 0.0
C565 C 0.28122 0.20191 0.54948 0.0
H566 H 0.29576 0.19292 0.53172 0.0
H567 H 0.24643 0.17335 0.52931 0.0
C568 C 0.24408 0.11421 0.49051 0.0
N569 N 0.24216 0.13027 0.49467 0.0
C570 C 0.23043 0.10297 0.48895 0.0
C571 C 0.21314 0.12498 0.4963 0.0
C572 C 0.22711 0.13579 0.4977 0.0
C573 C 0.21467 0.10832 0.49182 0.0
H574 H 0.25624 0.11013 0.48849 0.0
H575 H 0.226 0.14856 0.50134 0.0
C576 C 0.31173 0.17544 0.50472 0.0
N577 N 0.34539 0.18156 0.51057 0.0
C578 C 0.32137 0.18163 0.49365 0.0
C579 C 0.3192 0.17257 0.51883 0.0
C580 C 0.33837 0.1846 0.49681 0.0
C581 C 0.33623 0.17568 0.52155 0.0
C582 C 0.2886 0.13528 0.47193 0.0
C583 C 0.30188 0.14478 0.46719 0.0
C584 C 0.28592 0.11889 0.4664 0.0
C585 C 0.3123 0.13772 0.45701 0.0
C586 C 0.29662 0.11227 0.45623 0.0
N587 N 0.30948 0.12174 0.45179 0.0
C588 C 0.30767 0.12146 0.51326 0.0
C589 C 0.32482 0.13742 0.49849 0.0
C590 C 0.32019 0.11064 0.51582 0.0
N591 N 0.31017 0.13456 0.50477 0.0
C592 C 0.33774 0.12698 0.50085 0.0
C593 C 0.33546 0.11332 0.50955 0.0
H594 H 0.29585 0.11929 0.51795 0.0
H595 H 0.32649 0.14767 0.49151 0.0
C596 C 0.28504 0.19454 0.46902 0.0
N597 N 0.27954 0.17846 0.46749 0.0
C598 C 0.28637 0.20366 0.45631 0.0
C599 C 0.27597 0.1796 0.44074 0.0
C600 C 0.27491 0.17095 0.45373 0.0
C601 C 0.28187 0.19618 0.44189 0.0
H602 H 0.28856 0.20021 0.48013 0.0
H603 H 0.27042 0.15818 0.45283 0.0
O604 O 0.27454 0.14393 0.51586 0.0
O605 O 0.25744 0.16899 0.49589 0.0
O606 O 0.29506 0.17245 0.50182 0.0
O607 O 0.27833 0.14194 0.48199 0.0
H608 H 0.24518 0.13882 0.52665 0.0
H609 H 0.29719 0.14731 0.53872 0.0
H610 H 0.24015 0.13831 0.55381 0.0
H611 H 0.29125 0.14687 0.56568 0.0
H612 H 0.2256 0.15706 0.45237 0.0
H613 H 0.23845 0.19427 0.49785 0.0
H614 H 0.24826 0.15076 0.47076 0.0
H615 H 0.21589 0.19982 0.47896 0.0
H616 H 0.24092 0.18932 0.55256 0.0
H617 H 0.29125 0.21002 0.55461 0.0
H618 H 0.23219 0.09028 0.48537 0.0
H619 H 0.2013 0.12959 0.49892 0.0
H620 H 0.31583 0.18406 0.4827 0.0
H621 H 0.31193 0.16792 0.52755 0.0
H622 H 0.34598 0.1893 0.48832 0.0
H623 H 0.34217 0.17341 0.53239 0.0
H624 H 0.30423 0.15742 0.47143 0.0
H625 H 0.2757 0.11134 0.46989 0.0
H626 H 0.32266 0.14493 0.45331 0.0
H627 H 0.29469 0.09959 0.45187 0.0
H628 H 0.31796 0.10032 0.52268 0.0
H629 H 0.34925 0.12935 0.49564 0.0
H630 H 0.29114 0.21635 0.45775 0.0
H631 H 0.27207 0.1734 0.42992 0.0
Li632 Li 0.42538 0.51518 0.76475 0.0
Li633 Li 0.40483 0.53301 0.75202 0.0
Li634 Li 0.40256 0.50335 0.74789 0.0
Li635 Li 0.42347 0.51884 0.73648 0.0
C636 C 0.38823 0.50988 0.77335 0.0
N637 N 0.3607 0.49518 0.78475 0.0
C638 C 0.37243 0.51429 0.76854 0.0
C639 C 0.39006 0.49808 0.78401 0.0
C640 C 0.35866 0.50668 0.77443 0.0
C641 C 0.37597 0.49077 0.78963 0.0
C642 C 0.43261 0.55176 0.75817 0.0
C643 C 0.43277 0.58054 0.75316 0.0
N644 N 0.43797 0.58459 0.76779 0.0
C645 C 0.4381 0.5562 0.77312 0.0
C646 C 0.43007 0.56402 0.74807 0.0
C647 C 0.44069 0.57286 0.77778 0.0
C648 C 0.45399 0.50653 0.78195 0.0
N649 N 0.43881 0.51277 0.78257 0.0
C650 C 0.44171 0.51535 0.80947 0.0
C651 C 0.4326 0.51726 0.79593 0.0
C652 C 0.4573 0.50865 0.80924 0.0
C653 C 0.46346 0.50424 0.79524 0.0
H654 H 0.45864 0.50317 0.77113 0.0
H655 H 0.42052 0.52227 0.79605 0.0
C656 C 0.3809 0.55595 0.74496 0.0
N657 N 0.39255 0.55202 0.75559 0.0
C658 C 0.37096 0.56914 0.74778 0.0
C659 C 0.38519 0.574 0.77243 0.0
C660 C 0.39474 0.56062 0.76919 0.0
C661 C 0.37301 0.57832 0.76169 0.0
H662 H 0.37904 0.54862 0.73442 0.0
H663 H 0.40368 0.55686 0.77764 0.0
C664 C 0.42624 0.48175 0.74524 0.0
N665 N 0.42571 0.44788 0.74052 0.0
C666 C 0.41941 0.47409 0.73165 0.0
C667 C 0.43284 0.47218 0.75642 0.0
C668 C 0.41923 0.45696 0.72949 0.0
C669 C 0.43246 0.45508 0.75382 0.0
C670 C 0.39783 0.52208 0.71781 0.0
C671 C 0.39327 0.50875 0.70751 0.0
C672 C 0.40138 0.53759 0.71251 0.0
C673 C 0.39249 0.51115 0.69208 0.0
C674 C 0.40049 0.53948 0.69699 0.0
N675 N 0.39611 0.52633 0.68718 0.0
C676 C 0.37282 0.48635 0.7365 0.0
C677 C 0.38853 0.47158 0.75393 0.0
C678 C 0.36084 0.47338 0.73442 0.0
N679 N 0.38653 0.48507 0.74584 0.0
C680 C 0.3769 0.45829 0.75215 0.0
C681 C 0.36291 0.459 0.74214 0.0
H682 H 0.37112 0.4975 0.73074 0.0
H683 H 0.39917 0.47111 0.76177 0.0
C684 C 0.44781 0.53378 0.7194 0.0
N685 N 0.4366 0.52081 0.71941 0.0
C686 C 0.45713 0.53595 0.70691 0.0
C687 C 0.44327 0.51132 0.6947 0.0
C688 C 0.43443 0.50951 0.70749 0.0
C689 C 0.45474 0.52472 0.69428 0.0
H690 H 0.44948 0.54251 0.72905 0.0
H691 H 0.42567 0.49917 0.70777 0.0
O692 O 0.40182 0.51686 0.76741 0.0
O693 O 0.4298 0.53551 0.75346 0.0
O694 O 0.42654 0.49852 0.74759 0.0
O695 O 0.3989 0.51996 0.73297 0.0
H696 H 0.37082 0.52333 0.76022 0.0
H697 H 0.40221 0.49445 0.78774 0.0
H698 H 0.34635 0.50989 0.77075 0.0
H699 H 0.37718 0.48154 0.79782 0.0
H700 H 0.43075 0.59015 0.74548 0.0
H701 H 0.44026 0.54691 0.78108 0.0
H702 H 0.426 0.56083 0.73643 0.0
H703 H 0.44485 0.57647 0.78933 0.0
H704 H 0.43647 0.51879 0.82002 0.0
H705 H 0.4755 0.49919 0.79459 0.0
H706 H 0.36171 0.57207 0.73919 0.0
H707 H 0.38695 0.58057 0.7834 0.0
H708 H 0.41389 0.48123 0.72303 0.0
H709 H 0.43807 0.47784 0.76706 0.0
H710 H 0.41384 0.45087 0.71907 0.0
H711 H 0.43749 0.44752 0.76239 0.0
H712 H 0.39065 0.49661 0.71133 0.0
H713 H 0.40486 0.54804 0.72028 0.0
H714 H 0.38909 0.50092 0.68399 0.0
H715 H 0.4033 0.5514 0.69275 0.0
H716 H 0.35003 0.47467 0.72691 0.0
H717 H 0.37902 0.44748 0.75836 0.0
H718 H 0.46586 0.54645 0.70701 0.0
H719 H 0.44125 0.50227 0.68527 0.0
Li720 Li 0.77191 0.3871 0.50255 0.0
Li721 Li 0.75836 0.3688 0.51831 0.0
Li722 Li 0.75365 0.36485 0.49087 0.0
Li723 Li 0.74249 0.38916 0.50597 0.0
C724 C 0.78738 0.35532 0.49825 0.0
N725 N 0.81435 0.33974 0.48795 0.0
C726 C 0.79825 0.34804 0.50834 0.0
C727 C 0.79021 0.35463 0.48291 0.0
C728 C 0.81182 0.34025 0.50292 0.0
C729 C 0.80391 0.34671 0.47792 0.0
C730 C 0.7728 0.39779 0.53273 0.0
C731 C 0.78259 0.41577 0.55427 0.0
N732 N 0.79648 0.40717 0.5557 0.0
C733 C 0.78717 0.38912 0.53442 0.0
C734 C 0.77048 0.41122 0.54273 0.0
C735 C 0.79899 0.39406 0.5461 0.0
C736 C 0.78965 0.41719 0.50027 0.0
N737 N 0.79154 0.40071 0.50038 0.0
C738 C 0.82046 0.40482 0.49721 0.0
C739 C 0.80665 0.39446 0.4992 0.0
C740 C 0.81875 0.42183 0.49632 0.0
C741 C 0.80304 0.42798 0.49801 0.0
H742 H 0.77763 0.42195 0.50174 0.0
H743 H 0.80815 0.38148 0.49989 0.0
C744 C 0.76473 0.34121 0.53494 0.0
N745 N 0.76026 0.35706 0.53613 0.0
C746 C 0.76631 0.33218 0.54775 0.0
C747 C 0.75848 0.35592 0.56272 0.0
C748 C 0.75698 0.36446 0.54962 0.0
C749 C 0.76327 0.33958 0.56189 0.0
H750 H 0.76705 0.33559 0.52402 0.0
H751 H 0.75312 0.37698 0.55019 0.0
C752 C 0.759 0.4007 0.47776 0.0
N753 N 0.77027 0.42528 0.46026 0.0
C754 C 0.75225 0.41616 0.47863 0.0
C755 C 0.77131 0.39769 0.4678 0.0
C756 C 0.75816 0.42844 0.46974 0.0
C757 C 0.7769 0.41029 0.45911 0.0
C758 C 0.72794 0.35661 0.51621 0.0
C759 C 0.72672 0.33941 0.51498 0.0
C760 C 0.72076 0.36509 0.52801 0.0
C761 C 0.7184 0.33095 0.52567 0.0
C762 C 0.71253 0.35618 0.53847 0.0
N763 N 0.71154 0.33943 0.5371 0.0
C764 C 0.75049 0.33317 0.47586 0.0
C765 C 0.74787 0.35541 0.46005 0.0
C766 C 0.74905 0.32188 0.46334 0.0
N767 N 0.7499 0.34956 0.47397 0.0
C768 C 0.74664 0.34461 0.44723 0.0
C769 C 0.7473 0.32755 0.44873 0.0
H770 H 0.7524 0.3289 0.48707 0.0
H771 H 0.74765 0.36853 0.45889 0.0
C772 C 0.72797 0.41835 0.51498 0.0
N773 N 0.72478 0.40319 0.50792 0.0
C774 C 0.71511 0.42873 0.51742 0.0
C775 C 0.69593 0.4077 0.50518 0.0
C776 C 0.70919 0.39774 0.50293 0.0
C777 C 0.6988 0.4234 0.51259 0.0
H778 H 0.74051 0.42231 0.51884 0.0
H779 H 0.70705 0.38556 0.49741 0.0
O780 O 0.77402 0.36295 0.50342 0.0
O781 O 0.76102 0.39323 0.52137 0.0
O782 O 0.75348 0.3886 0.48652 0.0
O783 O 0.73651 0.36513 0.50616 0.0
H784 H 0.79629 0.3485 0.52026 0.0
H785 H 0.78197 0.36015 0.47493 0.0
H786 H 0.82035 0.3346 0.51061 0.0
H787 H 0.80625 0.34609 0.46608 0.0
H788 H 0.78095 0.42614 0.56209 0.0
H789 H 0.78921 0.3787 0.52684 0.0
H790 H 0.75942 0.41804 0.54161 0.0
H791 H 0.81016 0.38746 0.54752 0.0
H792 H 0.83236 0.3995 0.49649 0.0
H793 H 0.80098 0.44094 0.49734 0.0
H794 H 0.77013 0.31965 0.54661 0.0
H795 H 0.75575 0.36199 0.57336 0.0
H796 H 0.74263 0.41869 0.48616 0.0
H797 H 0.77661 0.38581 0.46688 0.0
H798 H 0.75311 0.44048 0.47038 0.0
H799 H 0.78652 0.40816 0.45147 0.0
H800 H 0.73227 0.33267 0.50595 0.0
H801 H 0.72176 0.3784 0.52923 0.0
H802 H 0.71743 0.31763 0.52491 0.0
H803 H 0.707 0.36257 0.54772 0.0
H804 H 0.7494 0.30888 0.46514 0.0
H805 H 0.74566 0.34967 0.43626 0.0
H806 H 0.71787 0.44064 0.52335 0.0
H807 H 0.68358 0.40317 0.50113 0.0
Li808 Li 0.64158 0.9775 0.7499 0.0
Li809 Li 0.62292 0.99447 0.76185 0.0
Li810 Li 0.61975 0.9894 0.7346 0.0
Li811 Li 0.64407 0.00744 0.74759 0.0
C812 C 0.61397 0.95939 0.7573 0.0
N813 N 0.60758 0.93112 0.77206 0.0
C814 C 0.62041 0.95815 0.77208 0.0
C815 C 0.60427 0.94628 0.75001 0.0
C816 C 0.61704 0.94375 0.77936 0.0
C817 C 0.60118 0.93208 0.75767 0.0
C818 C 0.6532 0.00068 0.77987 0.0
C819 C 0.66267 0.02299 0.79787 0.0
N820 N 0.66572 0.01193 0.80842 0.0
C821 C 0.65662 0.98953 0.79085 0.0
C822 C 0.65642 0.01754 0.78336 0.0
C823 C 0.66286 0.99546 0.80523 0.0
C824 C 0.66945 0.96123 0.75969 0.0
N825 N 0.65465 0.95884 0.75168 0.0
C826 C 0.65885 0.93015 0.74746 0.0
C827 C 0.64929 0.94373 0.74542 0.0
C828 C 0.67403 0.93217 0.75604 0.0
C829 C 0.67937 0.94801 0.76206 0.0
H830 H 0.67352 0.97343 0.76433 0.0
H831 H 0.63754 0.94221 0.73895 0.0
C832 C 0.59515 0.98847 0.77885 0.0
N833 N 0.60968 0.99758 0.77897 0.0
C834 C 0.5851 0.98997 0.79097 0.0
C835 C 0.60471 0.01074 0.80287 0.0
C836 C 0.61437 0.00882 0.79053 0.0
C837 C 0.58993 0.00112 0.80328 0.0
H838 H 0.59127 0.98009 0.76929 0.0
H839 H 0.62548 0.0165 0.79017 0.0
C840 C 0.65249 0.97883 0.72287 0.0
N841 N 0.67021 0.95655 0.70683 0.0
C842 C 0.66973 0.98053 0.72356 0.0
C843 C 0.64424 0.96585 0.71402 0.0
C844 C 0.67848 0.96911 0.71536 0.0
C845 C 0.65343 0.9547 0.70599 0.0
C846 C 0.60894 0.02074 0.75297 0.0
C847 C 0.59203 0.01638 0.75111 0.0
C848 C 0.61451 0.03475 0.76203 0.0
C849 C 0.58095 0.02607 0.75851 0.0
C850 C 0.60302 0.04413 0.76923 0.0
N851 N 0.58663 0.03961 0.76735 0.0
C852 C 0.58994 0.97997 0.71713 0.0
C853 C 0.61084 0.99391 0.70453 0.0
C854 C 0.57932 0.97908 0.70409 0.0
N855 N 0.60532 0.98733 0.71707 0.0
C856 C 0.60069 0.99325 0.69127 0.0
C857 C 0.58468 0.9858 0.69093 0.0
H858 H 0.58591 0.97489 0.72733 0.0
H859 H 0.62312 0.9998 0.70491 0.0
C860 C 0.67454 0.02616 0.75014 0.0
N861 N 0.65839 0.02593 0.74506 0.0
C862 C 0.68506 0.0399 0.74833 0.0
C863 C 0.66219 0.05263 0.73574 0.0
C864 C 0.6521 0.03872 0.73792 0.0
C865 C 0.67892 0.05341 0.74104 0.0
H866 H 0.67918 0.01574 0.75573 0.0
H867 H 0.63923 0.03807 0.73386 0.0
O868 O 0.61729 0.97328 0.74987 0.0
O869 O 0.64748 0.99505 0.76561 0.0
O870 O 0.64371 0.98967 0.73103 0.0
O871 O 0.62 0.01112 0.74621 0.0
H872 H 0.62785 0.96821 0.77787 0.0
H873 H 0.59925 0.94706 0.73853 0.0
H874 H 0.62194 0.94263 0.79081 0.0
H875 H 0.59372 0.92182 0.75216 0.0
H876 H 0.66505 0.03601 0.80075 0.0
H877 H 0.65462 0.97641 0.78828 0.0
H878 H 0.65381 0.02638 0.77506 0.0
H879 H 0.66551 0.98697 0.81384 0.0
H880 H 0.65423 0.91814 0.74268 0.0
H881 H 0.69112 0.95018 0.7685 0.0
H882 H 0.5736 0.9826 0.79062 0.0
H883 H 0.60893 0.01952 0.81208 0.0
H884 H 0.67627 0.99049 0.73043 0.0
H885 H 0.6309 0.96429 0.7135 0.0
H886 H 0.69183 0.97023 0.7158 0.0
H887 H 0.64722 0.94454 0.69915 0.0
H888 H 0.58756 0.00551 0.74418 0.0
H889 H 0.62756 0.03824 0.7636 0.0
H890 H 0.56784 0.02279 0.75727 0.0
H891 H 0.60715 0.05495 0.77635 0.0
H892 H 0.56712 0.97311 0.70428 0.0
H893 H 0.60523 0.99879 0.68146 0.0
H894 H 0.69779 0.04 0.75277 0.0
H895 H 0.65696 0.06257 0.72981 0.0
Li896 Li 0.03208 0.25053 0.86185 0.0
Li897 Li 0.01528 0.26506 0.88095 0.0
Li898 Li 0.01957 0.23441 0.8801 0.0
Li899 Li 0.00252 0.24573 0.86117 0.0
C900 C 0.05244 0.25881 0.88562 0.0
N901 N 0.08517 0.2703 0.88739 0.0
C902 C 0.05668 0.27539 0.88968 0.0
C903 C 0.06489 0.24804 0.88264 0.0
C904 C 0.07329 0.28097 0.89048 0.0
C905 C 0.08134 0.2541 0.88353 0.0
C906 C 0.00748 0.2732 0.84695 0.0
C907 C 0.98745 0.29069 0.8361 0.0
N908 N 0.9908 0.28475 0.82208 0.0
C909 C 0.01082 0.26733 0.83245 0.0
C910 C 0.99577 0.28502 0.84882 0.0
C911 C 0.00221 0.2733 0.82001 0.0
C912 C 0.05581 0.24165 0.84104 0.0
N913 N 0.05038 0.25416 0.84989 0.0
C914 C 0.07094 0.27295 0.8416 0.0
C915 C 0.05749 0.26965 0.85017 0.0
C916 C 0.07698 0.26024 0.83248 0.0
C917 C 0.06918 0.24442 0.83222 0.0
H918 H 0.0497 0.22954 0.84076 0.0
H919 H 0.05266 0.27944 0.85705 0.0
C920 C 0.00844 0.28314 0.90749 0.0
N921 N 0.01328 0.28449 0.89327 0.0
C922 C 0.00666 0.29725 0.91681 0.0
C923 C 0.01547 0.31383 0.89682 0.0
C924 C 0.01682 0.2994 0.8878 0.0
C925 C 0.01023 0.31282 0.91149 0.0
H926 H 0.00585 0.27108 0.91154 0.0
H927 H 0.02077 0.30005 0.87647 0.0
C928 C 0.02087 0.21272 0.85813 0.0
N929 N 0.02406 0.1792 0.85948 0.0
C930 C 0.00701 0.20181 0.8555 0.0
C931 C 0.03637 0.20655 0.86137 0.0
C932 C 0.00887 0.18491 0.85623 0.0
C933 C 0.03772 0.18958 0.86204 0.0
C934 C 0.98237 0.24405 0.8838 0.0
C935 C 0.97435 0.22897 0.87874 0.0
C936 C 0.97314 0.25678 0.88947 0.0
C937 C 0.95723 0.22689 0.87937 0.0
C938 C 0.95604 0.25421 0.88994 0.0
N939 N 0.94851 0.23945 0.88492 0.0
C940 C 0.03719 0.21749 0.90205 0.0
C941 C 0.0112 0.2044 0.89392 0.0
C942 C 0.04029 0.20522 0.91199 0.0
N943 N 0.02287 0.21685 0.89322 0.0
C944 C 0.01379 0.19184 0.90369 0.0
C945 C 0.02851 0.19216 0.91291 0.0
H946 H 0.04616 0.22763 0.90152 0.0
H947 H 0.99988 0.20413 0.88689 0.0
C948 C 0.98394 0.23222 0.83504 0.0
N949 N 0.98336 0.24289 0.8473 0.0
C950 C 0.97049 0.22995 0.82444 0.0
C951 C 0.95626 0.25014 0.83896 0.0
C952 C 0.97001 0.25205 0.84924 0.0
C953 C 0.95633 0.23889 0.82638 0.0
H954 H 0.99497 0.22562 0.83338 0.0
H955 H 0.97008 0.26097 0.8587 0.0
O956 O 0.0362 0.25318 0.88448 0.0
O957 O 0.01543 0.26716 0.85925 0.0
O958 O 0.01928 0.22935 0.85771 0.0
O959 O 0.99914 0.24634 0.88328 0.0
H960 H 0.04728 0.28389 0.89211 0.0
H961 H 0.06187 0.23518 0.87951 0.0
H962 H 0.07673 0.29378 0.89353 0.0
H963 H 0.09107 0.24592 0.88113 0.0
H964 H 0.97827 0.29976 0.83736 0.0
H965 H 0.0198 0.25811 0.83084 0.0
H966 H 0.99299 0.28959 0.85999 0.0
H967 H 0.00458 0.2688 0.80872 0.0
H968 H 0.07639 0.28539 0.84193 0.0
H969 H 0.07347 0.23426 0.82538 0.0
H970 H 0.00275 0.296 0.92811 0.0
H971 H 0.01828 0.32564 0.89233 0.0
H972 H 0.99488 0.20629 0.8531 0.0
H973 H 0.04723 0.21477 0.86351 0.0
H974 H 0.99823 0.17635 0.85429 0.0
H975 H 0.04963 0.18466 0.86463 0.0
H976 H 0.9812 0.2191 0.87406 0.0
H977 H 0.97906 0.26859 0.89331 0.0
H978 H 0.95088 0.21532 0.87538 0.0
H979 H 0.94875 0.26398 0.89426 0.0
H980 H 0.05168 0.20615 0.91908 0.0
H981 H 0.00443 0.18193 0.90392 0.0
H982 H 0.97127 0.22146 0.81471 0.0
H983 H 0.94564 0.2573 0.84094 0.0
Li984 Li 0.532 0.75325 0.36047 0.0
Li985 Li 0.51447 0.76585 0.37897 0.0
Li986 Li 0.52015 0.73576 0.37834 0.0
Li987 Li 0.50139 0.74622 0.35896 0.0
C988 C 0.55194 0.76077 0.38508 0.0
N989 N 0.58469 0.77203 0.38906 0.0
C990 C 0.55604 0.77722 0.38978 0.0
C991 C 0.5645 0.75 0.38259 0.0
C992 C 0.57267 0.78268 0.39169 0.0
C993 C 0.58098 0.75594 0.38461 0.0
C994 C 0.50768 0.78248 0.35253 0.0
C995 C 0.4853 0.80051 0.34871 0.0
N996 N 0.49608 0.81208 0.34393 0.0
C997 C 0.51849 0.79448 0.34738 0.0
C998 C 0.49091 0.78545 0.35303 0.0
C999 C 0.51241 0.80939 0.34317 0.0
C1000 C 0.55452 0.74517 0.33862 0.0
N1001 N 0.5505 0.75721 0.34875 0.0
C1002 C 0.57273 0.77498 0.34185 0.0
C1003 C 0.55924 0.77195 0.35045 0.0
C1004 C 0.57721 0.76276 0.3313 0.0
C1005 C 0.56789 0.74767 0.32975 0.0
H1006 H 0.54728 0.73361 0.33737 0.0
H1007 H 0.55569 0.78141 0.35845 0.0
C1008 C 0.50491 0.78134 0.40553 0.0
N1009 N 0.51114 0.78453 0.39214 0.0
C1010 C 0.50196 0.7942 0.41589 0.0
C1011 C 0.51228 0.81348 0.39865 0.0
C1012 C 0.51501 0.80021 0.38861 0.0
C1013 C 0.50563 0.81056 0.41251 0.0
H1014 H 0.50216 0.76874 0.40815 0.0
H1015 H 0.52045 0.80245 0.37813 0.0
C1016 C 0.52192 0.71491 0.35468 0.0
N1017 N 0.52584 0.68138 0.35252 0.0
C1018 C 0.50853 0.70403 0.34983 0.0
C1019 C 0.53735 0.70875 0.35825 0.0
C1020 C 0.51075 0.68711 0.34885 0.0
C1021 C 0.53906 0.69176 0.35715 0.0
C1022 C 0.48291 0.74599 0.38477 0.0
C1023 C 0.47552 0.73149 0.38951 0.0
C1024 C 0.47385 0.76011 0.38423 0.0
C1025 C 0.45905 0.73124 0.39324 0.0
C1026 C 0.45742 0.75938 0.38807 0.0
N1027 N 0.45041 0.74507 0.39243 0.0
C1028 C 0.5367 0.71961 0.4014 0.0
C1029 C 0.5134 0.70421 0.3896 0.0
C1030 C 0.53963 0.70719 0.41121 0.0
N1031 N 0.52378 0.71792 0.39087 0.0
C1032 C 0.51584 0.69148 0.39922 0.0
C1033 C 0.52908 0.69291 0.41024 0.0
H1034 H 0.54461 0.73073 0.40235 0.0
H1035 H 0.50317 0.70318 0.38118 0.0
C1036 C 0.48109 0.74957 0.33268 0.0
N1037 N 0.48225 0.74152 0.34561 0.0
C1038 C 0.46712 0.74698 0.32271 0.0
C1039 C 0.45608 0.72727 0.3392 0.0
C1040 C 0.47023 0.73034 0.3489 0.0
C1041 C 0.45431 0.73575 0.32595 0.0
H1042 H 0.49099 0.75814 0.33016 0.0
H1043 H 0.47169 0.72365 0.35896 0.0
O1044 O 0.53572 0.75524 0.38299 0.0
O1045 O 0.51346 0.76781 0.35674 0.0
O1046 O 0.51993 0.7315 0.35589 0.0
O1047 O 0.49905 0.74643 0.38108 0.0
H1048 H 0.5465 0.7857 0.39184 0.0
H1049 H 0.56156 0.73721 0.37906 0.0
H1050 H 0.57601 0.79541 0.39524 0.0
H1051 H 0.59082 0.74777 0.38262 0.0
H1052 H 0.47235 0.80296 0.34908 0.0
H1053 H 0.53146 0.79235 0.34671 0.0
H1054 H 0.48225 0.77615 0.35649 0.0
H1055 H 0.52068 0.81882 0.33927 0.0
H1056 H 0.5794 0.78687 0.34327 0.0
H1057 H 0.57099 0.73786 0.32185 0.0
H1058 H 0.49668 0.79136 0.42636 0.0
H1059 H 0.51561 0.82586 0.39571 0.0
H1060 H 0.49654 0.70858 0.34692 0.0
H1061 H 0.54785 0.717 0.36191 0.0
H1062 H 0.50048 0.67854 0.34519 0.0
H1063 H 0.5509 0.68682 0.35997 0.0
H1064 H 0.48237 0.7205 0.39021 0.0
H1065 H 0.47947 0.77159 0.3811 0.0
H1066 H 0.45315 0.72006 0.3968 0.0
H1067 H 0.45027 0.77022 0.38766 0.0
H1068 H 0.54983 0.70893 0.41969 0.0
H1069 H 0.50749 0.68063 0.398 0.0
H1070 H 0.46628 0.7539 0.31271 0.0
H1071 H 0.44673 0.7182 0.34198 0.0
Li1072 Li 0.01758 0.77433 0.61483 0.0
Li1073 Li 0.00157 0.76106 0.63376 0.0
Li1074 Li 0.03114 0.75703 0.63214 0.0
Li1075 Li 0.01075 0.74453 0.61275 0.0
C1076 C 0.02169 0.79428 0.63941 0.0
N1077 N 0.02379 0.82826 0.64275 0.0
C1078 C 0.00831 0.80278 0.64435 0.0
C1079 C 0.03618 0.80305 0.63626 0.0
C1080 C 0.00961 0.81997 0.64596 0.0
C1081 C 0.03698 0.82023 0.63798 0.0
C1082 C 0.98437 0.75817 0.60038 0.0
C1083 C 0.96147 0.7406 0.5893 0.0
N1084 N 0.96277 0.74792 0.57605 0.0
C1085 C 0.98542 0.76559 0.58669 0.0
C1086 C 0.97224 0.74566 0.60175 0.0
C1087 C 0.97439 0.76021 0.57451 0.0
C1088 C 0.0322 0.79369 0.59357 0.0
N1089 N 0.02005 0.79324 0.60338 0.0
C1090 C 0.0114 0.81951 0.59636 0.0
C1091 C 0.00957 0.80567 0.60479 0.0
C1092 C 0.02389 0.82032 0.58617 0.0
C1093 C 0.03433 0.80716 0.58478 0.0
H1094 H 0.04017 0.78352 0.59248 0.0
H1095 H 0.99977 0.80481 0.61242 0.0
C1096 C 0.98886 0.76399 0.66243 0.0
N1097 N 0.98461 0.76361 0.64741 0.0
C1098 C 0.97681 0.76542 0.67286 0.0
C1099 C 0.95629 0.76689 0.65219 0.0
C1100 C 0.96872 0.76513 0.64215 0.0
C1101 C 0.96021 0.76694 0.66783 0.0
H1102 H 0.00165 0.76306 0.66631 0.0
H1103 H 0.96572 0.76509 0.63015 0.0
C1104 C 0.0478 0.75182 0.60836 0.0
N1105 N 0.07978 0.74211 0.60671 0.0
C1106 C 0.0507 0.73545 0.60426 0.0
C1107 C 0.06114 0.76328 0.61152 0.0
C1108 C 0.06697 0.73078 0.60349 0.0
C1109 C 0.07722 0.75811 0.61066 0.0
C1110 C 0.00631 0.73213 0.64538 0.0
C1111 C 0.01477 0.73203 0.65953 0.0
C1112 C 0.99056 0.72434 0.64294 0.0
C1113 C 0.00722 0.72426 0.67109 0.0
C1114 C 0.98343 0.71674 0.65479 0.0
N1115 N 0.99183 0.71686 0.6685 0.0
C1116 C 0.05914 0.76584 0.65218 0.0
C1117 C 0.05642 0.73776 0.64331 0.0
C1118 C 0.07348 0.76303 0.66092 0.0
N1119 N 0.05097 0.75328 0.64362 0.0
C1120 C 0.07074 0.73441 0.65182 0.0
C1121 C 0.07942 0.74712 0.66086 0.0
H1122 H 0.05444 0.77802 0.65232 0.0
H1123 H 0.04951 0.72797 0.63655 0.0
C1124 C 0.00492 0.72771 0.58401 0.0
N1125 N 0.00607 0.72579 0.5991 0.0
C1126 C 0.00227 0.714 0.57382 0.0
C1127 C 0.0028 0.69654 0.59485 0.0
C1128 C 0.00511 0.71061 0.60465 0.0
C1129 C 0.00133 0.69818 0.57924 0.0
H1130 H 0.00633 0.73988 0.57988 0.0
H1131 H 0.00648 0.70941 0.61668 0.0
O1132 O 0.02059 0.77747 0.63759 0.0
O1133 O 0.99514 0.76316 0.61239 0.0
O1134 O 0.03198 0.75656 0.60951 0.0
O1135 O 0.01338 0.73987 0.63399 0.0
H1136 H 0.99699 0.7962 0.64682 0.0
H1137 H 0.04662 0.79667 0.63233 0.0
H1138 H 0.99933 0.82671 0.64972 0.0
H1139 H 0.04807 0.82718 0.63547 0.0
H1140 H 0.9521 0.73086 0.59016 0.0
H1141 H 0.99472 0.77529 0.58544 0.0
H1142 H 0.97125 0.73983 0.61227 0.0
H1143 H 0.97511 0.76577 0.56382 0.0
H1144 H 0.00297 0.82931 0.5976 0.0
H1145 H 0.04415 0.80736 0.57709 0.0
H1146 H 0.9805 0.76514 0.68473 0.0
H1147 H 0.94379 0.76841 0.64772 0.0
H1148 H 0.04053 0.72641 0.60182 0.0
H1149 H 0.0591 0.77598 0.61479 0.0
H1150 H 0.06941 0.71813 0.6004 0.0
H1151 H 0.08767 0.76682 0.61318 0.0
H1152 H 0.02695 0.73804 0.66163 0.0
H1153 H 0.98387 0.72428 0.63204 0.0
H1154 H 0.01358 0.72416 0.68212 0.0
H1155 H 0.9712 0.71075 0.65309 0.0
H1156 H 0.07987 0.77321 0.66763 0.0
H1157 H 0.07474 0.72192 0.65161 0.0
H1158 H 0.00145 0.71571 0.56183 0.0
H1159 H 0.00216 0.68451 0.59942 0.0
Li1160 Li 0.51667 0.27278 0.11558 0.0
Li1161 Li 0.49918 0.25982 0.13354 0.0
Li1162 Li 0.52953 0.25532 0.13336 0.0
Li1163 Li 0.51026 0.24205 0.11348 0.0
C1164 C 0.52019 0.29272 0.14052 0.0
N1165 N 0.52374 0.3266 0.14506 0.0
C1166 C 0.50687 0.3017 0.14486 0.0
C1167 C 0.53538 0.30096 0.13868 0.0
C1168 C 0.5089 0.31882 0.14707 0.0
C1169 C 0.53691 0.31809 0.14096 0.0
C1170 C 0.47855 0.26054 0.1068 0.0
C1171 C 0.45182 0.24649 0.10109 0.0
N1172 N 0.44541 0.26101 0.09761 0.0
C1173 C 0.47175 0.27527 0.10294 0.0
C1174 C 0.46854 0.24599 0.10567 0.0
C1175 C 0.45496 0.27527 0.09841 0.0
C1176 C 0.53222 0.29088 0.0941 0.0
N1177 N 0.5202 0.29156 0.10405 0.0
C1178 C 0.51394 0.31857 0.09702 0.0
C1179 C 0.51103 0.30501 0.10559 0.0
C1180 C 0.52643 0.31826 0.0868 0.0
C1181 C 0.53561 0.30416 0.08539 0.0
H1182 H 0.53914 0.27996 0.09285 0.0
H1183 H 0.50147 0.30526 0.11349 0.0
C1184 C 0.48277 0.25425 0.15957 0.0
N1185 N 0.48147 0.26217 0.14657 0.0
C1186 C 0.47054 0.25532 0.16985 0.0
C1187 C 0.45601 0.27312 0.15345 0.0
C1188 C 0.46848 0.27158 0.1434 0.0
C1189 C 0.45692 0.26491 0.16691 0.0
H1190 H 0.49336 0.24708 0.16196 0.0
H1191 H 0.46795 0.27821 0.13327 0.0
C1192 C 0.54775 0.25146 0.10991 0.0
N1193 N 0.58065 0.24487 0.10803 0.0
C1194 C 0.55212 0.23591 0.10455 0.0
C1195 C 0.56011 0.26373 0.1141 0.0
C1196 C 0.56882 0.2328 0.10373 0.0
C1197 C 0.57667 0.26013 0.11314 0.0
C1198 C 0.50425 0.22403 0.13872 0.0
C1199 C 0.51439 0.21213 0.14435 0.0
C1200 C 0.48719 0.2206 0.13673 0.0
C1201 C 0.50732 0.19685 0.14755 0.0
C1202 C 0.48058 0.20519 0.14008 0.0
N1203 N 0.4907 0.19371 0.14535 0.0
C1204 C 0.55504 0.26387 0.1561 0.0
C1205 C 0.55633 0.23738 0.14385 0.0
C1206 C 0.56926 0.26148 0.1652 0.0
N1207 N 0.54893 0.2519 0.14567 0.0
C1208 C 0.57058 0.23448 0.15267 0.0
C1209 C 0.57722 0.24661 0.16355 0.0
H1210 H 0.54885 0.27525 0.15739 0.0
H1211 H 0.55114 0.22803 0.13553 0.0
C1212 C 0.49751 0.22465 0.08653 0.0
N1213 N 0.50617 0.22315 0.0999 0.0
C1214 C 0.49482 0.21114 0.07611 0.0
C1215 C 0.5103 0.19487 0.09328 0.0
C1216 C 0.5126 0.20866 0.1034 0.0
C1217 C 0.50133 0.19601 0.07941 0.0
H1218 H 0.49287 0.23642 0.08387 0.0
H1219 H 0.51986 0.2079 0.11389 0.0
O1220 O 0.51839 0.27596 0.13818 0.0
O1221 O 0.495 0.26033 0.11121 0.0
O1222 O 0.53147 0.25465 0.11104 0.0
O1223 O 0.511 0.23905 0.13549 0.0
H1224 H 0.49507 0.29555 0.14643 0.0
H1225 H 0.54586 0.29421 0.13545 0.0
H1226 H 0.49866 0.32593 0.15035 0.0
H1227 H 0.54857 0.32462 0.13947 0.0
H1228 H 0.44394 0.23532 0.10022 0.0
H1229 H 0.4793 0.2866 0.10354 0.0
H1230 H 0.47366 0.23438 0.1081 0.0
H1231 H 0.44952 0.28661 0.09552 0.0
H1232 H 0.50664 0.32924 0.09851 0.0
H1233 H 0.54515 0.30328 0.07745 0.0
H1234 H 0.47173 0.24861 0.17996 0.0
H1235 H 0.44595 0.28094 0.15083 0.0
H1236 H 0.54275 0.22632 0.10112 0.0
H1237 H 0.55696 0.27586 0.11814 0.0
H1238 H 0.57238 0.22079 0.09969 0.0
H1239 H 0.58636 0.26948 0.11645 0.0
H1240 H 0.52758 0.21462 0.14617 0.0
H1241 H 0.4791 0.22981 0.13287 0.0
H1242 H 0.51504 0.18749 0.1518 0.0
H1243 H 0.4674 0.20238 0.13856 0.0
H1244 H 0.57403 0.27122 0.17335 0.0
H1245 H 0.57617 0.22275 0.15115 0.0
H1246 H 0.48806 0.21262 0.06544 0.0
H1247 H 0.51549 0.18342 0.09629 0.0
C1248 C 0.25248 0.72953 0.83732 0.0
C1249 C 0.24839 0.73622 0.82345 0.0
C1250 C 0.25201 0.73905 0.85088 0.0
C1251 C 0.2328 0.77511 0.86745 0.0
H1252 H 0.26889 0.77605 0.89818 0.0
C1253 C 0.23835 0.82297 0.91806 0.0
C1254 C 0.2447 0.81816 0.93209 0.0
C1255 C 0.23836 0.81237 0.90515 0.0
C1256 C 0.25857 0.77573 0.88984 0.0
H1257 H 0.24117 0.75841 0.813 0.0
H1258 H 0.24007 0.77485 0.83663 0.0
H1259 H 0.26993 0.75858 0.87507 0.0
H1260 H 0.25595 0.79829 0.94349 0.0
H1261 H 0.2554 0.77959 0.92109 0.0
H1262 H 0.22132 0.79208 0.88218 0.0
C1263 C 0.24343 0.76217 0.83701 0.0
C1264 C 0.25921 0.76576 0.87658 0.0
C1265 C 0.24403 0.75272 0.82347 0.0
C1266 C 0.25078 0.80235 0.93292 0.0
C1267 C 0.25069 0.7917 0.92001 0.0
C1268 C 0.23209 0.78497 0.88075 0.0
C1269 C 0.24733 0.75542 0.85085 0.0
C1270 C 0.24641 0.76548 0.86519 0.0
C1271 C 0.24461 0.79662 0.90593 0.0
C1272 C 0.24504 0.78554 0.89206 0.0
H1273 H 0.25568 0.71682 0.83775 0.0
H1274 H 0.25496 0.7335 0.8614 0.0
H1275 H 0.22263 0.77494 0.85896 0.0
H1276 H 0.23338 0.83497 0.91703 0.0
H1277 H 0.23376 0.81668 0.89449 0.0
C1278 C 0.01384 0.52991 0.41736 0.0
C1279 C 0.00397 0.51655 0.42164 0.0
C1280 C 0.02279 0.52837 0.40449 0.0
C1281 C 0.0392 0.49718 0.37818 0.0
H1282 H 0.04214 0.53345 0.352 0.0
C1283 C 0.06631 0.49072 0.31983 0.0
C1284 C 0.07729 0.50357 0.31623 0.0
C1285 C 0.05717 0.49238 0.33257 0.0
C1286 C 0.04155 0.52327 0.35927 0.0
H1287 H 0.99564 0.49118 0.41587 0.0
H1288 H 0.01102 0.48851 0.39324 0.0
H1289 H 0.02666 0.53617 0.37453 0.0
H1290 H 0.08699 0.52837 0.32295 0.0
H1291 H 0.07109 0.53124 0.34525 0.0
H1292 H 0.05399 0.48425 0.36282 0.0
C1293 C 0.01211 0.5001 0.39993 0.0
C1294 C 0.03271 0.52483 0.37221 0.0
C1295 C 0.00322 0.50164 0.41283 0.0
C1296 C 0.07875 0.5182 0.32552 0.0
C1297 C 0.06953 0.5199 0.3382 0.0
C1298 C 0.04797 0.49559 0.36521 0.0
C1299 C 0.02201 0.51345 0.39559 0.0
C1300 C 0.03144 0.51181 0.38183 0.0
C1301 C 0.05872 0.50697 0.34192 0.0
C1302 C 0.04925 0.50862 0.35562 0.0
H1303 H 0.01471 0.54156 0.42396 0.0
H1304 H 0.03047 0.53882 0.40161 0.0
H1305 H 0.03872 0.48701 0.38546 0.0
H1306 H 0.06501 0.47925 0.31296 0.0
H1307 H 0.04882 0.48227 0.33506 0.0
C1308 C 0.78985 0.78251 0.83323 0.0
C1309 C 0.79414 0.7744 0.81976 0.0
C1310 C 0.78904 0.7741 0.84642 0.0
C1311 C 0.78454 0.73204 0.85973 0.0
H1312 H 0.80026 0.75345 0.8984 0.0
C1313 C 0.79009 0.69673 0.91395 0.0
C1314 C 0.7847 0.70446 0.92717 0.0
C1315 C 0.79151 0.70537 0.90096 0.0
C1316 C 0.79567 0.74736 0.8877 0.0
H1317 H 0.80091 0.75103 0.80964 0.0
H1318 H 0.79989 0.73647 0.83271 0.0
H1319 H 0.80241 0.76829 0.87553 0.0
H1320 H 0.77654 0.7274 0.93702 0.0
H1321 H 0.77912 0.74252 0.91437 0.0
H1322 H 0.77786 0.71109 0.8719 0.0
C1323 C 0.79694 0.74929 0.83303 0.0
C1324 C 0.79689 0.75586 0.87459 0.0
C1325 C 0.79773 0.7577 0.81984 0.0
C1326 C 0.78093 0.72112 0.92711 0.0
C1327 C 0.7824 0.72979 0.91412 0.0
C1328 C 0.78337 0.72352 0.87283 0.0
C1329 C 0.79251 0.75736 0.84647 0.0
C1330 C 0.79133 0.74831 0.86044 0.0
C1331 C 0.78763 0.72199 0.90087 0.0
C1332 C 0.78892 0.73108 0.88697 0.0
H1333 H 0.78719 0.79542 0.83361 0.0
H1334 H 0.78543 0.78066 0.85652 0.0
H1335 H 0.77986 0.72594 0.84907 0.0
H1336 H 0.7934 0.684 0.91367 0.0
H1337 H 0.79584 0.69908 0.89102 0.0
C1338 C 0.03496 0.97109 0.42421 0.0
C1339 C 0.04118 0.9853 0.43292 0.0
C1340 C 0.02657 0.97238 0.41015 0.0
C1341 C 0.0225 0.99974 0.37911 0.0
H1342 H 0.97999 0.97653 0.36931 0.0
C1343 C 0.98031 0.01447 0.32768 0.0
C1344 C 0.97038 0.00162 0.32005 0.0
C1345 C 0.98956 0.01178 0.34099 0.0
C1346 C 0.99199 0.98287 0.37171 0.0
H1347 H 0.0429 0.01204 0.43375 0.0
H1348 H 0.02871 0.01418 0.4091 0.0
H1349 H 0.99495 0.97286 0.39339 0.0
H1350 H 0.9628 0.97575 0.31999 0.0
H1351 H 0.97931 0.97087 0.34297 0.0
H1352 H 0.01977 0.0096 0.35744 0.0
C1353 C 0.03048 0.00207 0.41313 0.0
C1354 C 0.0005 0.9808 0.38555 0.0
C1355 C 0.03866 0.0008 0.42724 0.0
C1356 C 0.9702 0.98592 0.32577 0.0
C1357 C 0.97961 0.98317 0.33898 0.0
C1358 C 0.0141 0.00166 0.3652 0.0
C1359 C 0.02439 0.98788 0.40443 0.0
C1360 C 0.01574 0.98937 0.38945 0.0
C1361 C 0.98926 0.99611 0.34688 0.0
C1362 C 0.99863 0.99341 0.36138 0.0
H1363 H 0.03683 0.95895 0.42812 0.0
H1364 H 0.02207 0.96124 0.40361 0.0
H1365 H 0.03435 0.00632 0.38176 0.0
H1366 H 0.98052 0.02674 0.3236 0.0
H1367 H 0.9966 0.02212 0.34686 0.0
C1368 C 0.23927 0.26685 0.67892 0.0
C1369 C 0.24153 0.28413 0.67986 0.0
C1370 C 0.24129 0.25776 0.6654 0.0
C1371 C 0.26288 0.25956 0.63071 0.0
H1372 H 0.2309 0.22498 0.61466 0.0
C1373 C 0.27533 0.2132 0.58156 0.0
C1374 C 0.26277 0.21067 0.56991 0.0
C1375 C 0.27256 0.22214 0.59497 0.0
C1376 C 0.2399 0.23463 0.61901 0.0
H1377 H 0.24706 0.30537 0.66704 0.0
H1378 H 0.251 0.28944 0.64364 0.0
H1379 H 0.22611 0.24067 0.63816 0.0
H1380 H 0.23744 0.21586 0.56327 0.0
H1381 H 0.23254 0.23106 0.58684 0.0
H1382 H 0.27673 0.25348 0.61164 0.0
C1383 C 0.2478 0.28297 0.65343 0.0
C1384 C 0.23722 0.24351 0.63248 0.0
C1385 C 0.2456 0.29207 0.66686 0.0
C1386 C 0.24733 0.21727 0.57207 0.0
C1387 C 0.24451 0.22604 0.58555 0.0
C1388 C 0.26567 0.25054 0.61737 0.0
C1389 C 0.24578 0.26573 0.65258 0.0
C1390 C 0.24865 0.25612 0.63842 0.0
C1391 C 0.25711 0.22859 0.59711 0.0
C1392 C 0.25418 0.23803 0.61135 0.0
H1393 H 0.23635 0.2603 0.68872 0.0
H1394 H 0.23977 0.24445 0.66507 0.0
H1395 H 0.27195 0.26913 0.63511 0.0
H1396 H 0.28727 0.20805 0.58047 0.0
H1397 H 0.28244 0.22378 0.60377 0.0
C1398 C 0.53192 0.52298 0.5804 0.0
C1399 C 0.53601 0.53847 0.57503 0.0
C1400 C 0.52314 0.52173 0.59333 0.0
C1401 C 0.49449 0.54328 0.61667 0.0
H1402 H 0.51013 0.5156 0.64796 0.0
C1403 C 0.45588 0.52547 0.66628 0.0
C1404 C 0.4641 0.52693 0.68071 0.0
C1405 C 0.46467 0.52732 0.65344 0.0
C1406 C 0.50567 0.52342 0.63934 0.0
H1407 H 0.53405 0.56481 0.57926 0.0
H1408 H 0.5183 0.56252 0.60153 0.0
H1409 H 0.52538 0.51786 0.62526 0.0
H1410 H 0.48793 0.53139 0.69301 0.0
H1411 H 0.50337 0.53444 0.6705 0.0
H1412 H 0.4747 0.54873 0.63069 0.0
C1413 C 0.52192 0.55137 0.59567 0.0
C1414 C 0.5143 0.52461 0.62631 0.0
C1415 C 0.53088 0.55266 0.58285 0.0
C1416 C 0.48128 0.53029 0.68204 0.0
C1417 C 0.49012 0.53192 0.66917 0.0
C1418 C 0.48573 0.54191 0.6296 0.0
C1419 C 0.51805 0.53591 0.60109 0.0
C1420 C 0.50882 0.53458 0.61487 0.0
C1421 C 0.48189 0.53045 0.65475 0.0
C1422 C 0.49125 0.532 0.64107 0.0
H1423 H 0.53536 0.51176 0.57455 0.0
H1424 H 0.52013 0.50963 0.59716 0.0
H1425 H 0.48995 0.55098 0.60798 0.0
H1426 H 0.44262 0.523 0.66495 0.0
H1427 H 0.45804 0.52603 0.64246 0.0
C1428 C 0.79319 0.27503 0.68086 0.0
C1429 C 0.78754 0.25849 0.68108 0.0
C1430 C 0.78992 0.28385 0.66812 0.0
C1431 C 0.77964 0.2781 0.62722 0.0
H1432 H 0.76654 0.32318 0.63136 0.0
C1433 C 0.75956 0.31378 0.57567 0.0
C1434 C 0.76525 0.33035 0.57572 0.0
C1435 C 0.76171 0.30503 0.58862 0.0
C1436 C 0.77036 0.31066 0.63001 0.0
H1437 H 0.77394 0.23819 0.66815 0.0
H1438 H 0.76819 0.2536 0.64594 0.0
H1439 H 0.77141 0.3079 0.65381 0.0
H1440 H 0.77778 0.35072 0.58937 0.0
H1441 H 0.78163 0.33545 0.61193 0.0
H1442 H 0.77877 0.28087 0.60346 0.0
C1443 C 0.77527 0.25973 0.65557 0.0
C1444 C 0.77313 0.3019 0.64288 0.0
C1445 C 0.77849 0.25093 0.66833 0.0
C1446 C 0.77305 0.33803 0.58903 0.0
C1447 C 0.77524 0.32927 0.60197 0.0
C1448 C 0.77691 0.28686 0.61436 0.0
C1449 C 0.78099 0.27628 0.6553 0.0
C1450 C 0.77783 0.28554 0.64163 0.0
C1451 C 0.76964 0.31265 0.60191 0.0
C1452 C 0.77227 0.30326 0.6156 0.0
H1453 H 0.80023 0.28111 0.69054 0.0
H1454 H 0.79466 0.29653 0.6682 0.0
H1455 H 0.78348 0.26558 0.6259 0.0
H1456 H 0.75329 0.3076 0.56565 0.0
H1457 H 0.757 0.29233 0.58826 0.0
C1458 C 0.48518 0.9908 0.58156 0.0
C1459 C 0.49161 0.98643 0.56767 0.0
C1460 C 0.49514 0.99103 0.59497 0.0
C1461 C 0.53319 0.97391 0.61103 0.0
H1462 H 0.5303 0.0079 0.64299 0.0
C1463 C 0.57986 0.98171 0.66283 0.0
C1464 C 0.57362 0.98528 0.67696 0.0
C1465 C 0.56963 0.98174 0.64962 0.0
C1466 C 0.53111 0.99822 0.63424 0.0
H1467 H 0.51368 0.97953 0.5569 0.0
H1468 H 0.53109 0.98006 0.58026 0.0
H1469 H 0.51305 0.00866 0.61961 0.0
H1470 H 0.55174 0.99166 0.6883 0.0
H1471 H 0.5338 0.99149 0.66522 0.0
H1472 H 0.55128 0.96352 0.62561 0.0
C1473 C 0.51826 0.98294 0.58084 0.0
C1474 C 0.52124 0.99866 0.62084 0.0
C1475 C 0.5083 0.98267 0.56745 0.0
C1476 C 0.55688 0.98872 0.6776 0.0
C1477 C 0.54665 0.98881 0.66437 0.0
C1478 C 0.54307 0.9735 0.6244 0.0
C1479 C 0.51175 0.98694 0.59478 0.0
C1480 C 0.5222 0.98653 0.60906 0.0
C1481 C 0.55293 0.98536 0.65023 0.0
C1482 C 0.54218 0.98566 0.63614 0.0
H1483 H 0.47231 0.99358 0.5821 0.0
H1484 H 0.48969 0.99399 0.60552 0.0
H1485 H 0.53401 0.9642 0.60231 0.0
H1486 H 0.59266 0.97885 0.66197 0.0
H1487 H 0.57488 0.97918 0.6389 0.0
C1488 C 0.83505 0.20326 0.73899 0.0
C1489 C 0.82517 0.21647 0.73579 0.0
C1490 C 0.84957 0.20581 0.74828 0.0
C1491 C 0.88083 0.23783 0.76367 0.0
H1492 H 0.88948 0.20688 0.79428 0.0
C1493 C 0.93272 0.24992 0.81112 0.0
C1494 C 0.94173 0.23647 0.81539 0.0
C1495 C 0.91878 0.24757 0.80104 0.0
C1496 C 0.88738 0.21552 0.78567 0.0
H1497 H 0.82288 0.24275 0.73982 0.0
H1498 H 0.84831 0.24721 0.75599 0.0
H1499 H 0.86477 0.20263 0.77725 0.0
H1500 H 0.94313 0.20997 0.81238 0.0
H1501 H 0.9191 0.20591 0.79452 0.0
H1502 H 0.90348 0.25071 0.77206 0.0
C1503 C 0.84487 0.2349 0.75118 0.0
C1504 C 0.8732 0.21309 0.77592 0.0
C1505 C 0.83031 0.23235 0.74191 0.0
C1506 C 0.93658 0.22062 0.80922 0.0
C1507 C 0.92267 0.21827 0.79913 0.0
C1508 C 0.89506 0.24025 0.77339 0.0
C1509 C 0.85459 0.22164 0.75456 0.0
C1510 C 0.86976 0.22422 0.76481 0.0
C1511 C 0.91354 0.2317 0.79497 0.0
C1512 C 0.8985 0.22912 0.78452 0.0
H1513 H 0.83161 0.19093 0.73423 0.0
H1514 H 0.85694 0.19538 0.75047 0.0
H1515 H 0.87862 0.24651 0.7551 0.0
H1516 H 0.93647 0.26232 0.81551 0.0
H1517 H 0.91195 0.25816 0.7982 0.0
C1518 C 0.48534 0.91271 0.51509 0.0
C1519 C 0.47944 0.92781 0.511 0.0
C1520 C 0.48768 0.90027 0.50408 0.0
C1521 C 0.49374 0.89303 0.46354 0.0
H1522 H 0.48197 0.84769 0.47113 0.0
C1523 C 0.49616 0.83899 0.41848 0.0
C1524 C 0.50264 0.82442 0.42344 0.0
C1525 C 0.49303 0.85186 0.42884 0.0
C1526 C 0.48546 0.86028 0.4689 0.0
H1527 H 0.47131 0.94182 0.4922 0.0
H1528 H 0.47523 0.92 0.47293 0.0
H1529 H 0.47678 0.86965 0.48974 0.0
H1530 H 0.51137 0.81216 0.44317 0.0
H1531 H 0.50584 0.83453 0.4612 0.0
H1532 H 0.50244 0.88359 0.44268 0.0
C1533 C 0.47823 0.91783 0.48465 0.0
C1534 C 0.48249 0.87286 0.47957 0.0
C1535 C 0.4759 0.93029 0.49568 0.0
C1536 C 0.50607 0.82308 0.43898 0.0
C1537 C 0.50291 0.83591 0.44932 0.0
C1538 C 0.49668 0.88042 0.45285 0.0
C1539 C 0.48414 0.90266 0.48873 0.0
C1540 C 0.48673 0.88938 0.47708 0.0
C1541 C 0.49628 0.85041 0.44439 0.0
C1542 C 0.4927 0.86389 0.45548 0.0
H1543 H 0.48824 0.91054 0.52682 0.0
H1544 H 0.4925 0.88885 0.5076 0.0
H1545 H 0.49733 0.9056 0.46136 0.0
H1546 H 0.49319 0.84034 0.40661 0.0
H1547 H 0.48775 0.86281 0.4247 0.0
C1548 C 0.18632 0.28432 0.74539 0.0
C1549 C 0.19998 0.29403 0.75195 0.0
C1550 C 0.17307 0.28011 0.75399 0.0
C1551 C 0.16187 0.27719 0.79349 0.0
H1552 H 0.11699 0.27805 0.77599 0.0
C1553 C 0.10499 0.27346 0.82917 0.0
C1554 C 0.09121 0.26351 0.8232 0.0
C1555 C 0.11833 0.27668 0.8204 0.0
C1556 C 0.12946 0.27757 0.78099 0.0
H1557 H 0.21052 0.30703 0.7725 0.0
H1558 H 0.18732 0.29993 0.78747 0.0
H1559 H 0.14012 0.28462 0.7608 0.0
H1560 H 0.08058 0.24923 0.8033 0.0
H1561 H 0.10395 0.25472 0.78803 0.0
H1562 H 0.15118 0.2703 0.81373 0.0
C1563 C 0.18691 0.2953 0.77579 0.0
C1564 C 0.14272 0.28132 0.77228 0.0
C1565 C 0.20015 0.29946 0.76721 0.0
C1566 C 0.09108 0.25682 0.80827 0.0
C1567 C 0.10439 0.2601 0.79947 0.0
C1568 C 0.14861 0.27349 0.80221 0.0
C1569 C 0.17321 0.28557 0.76929 0.0
C1570 C 0.15909 0.28124 0.77844 0.0
C1571 C 0.11816 0.27008 0.80544 0.0
C1572 C 0.13225 0.2737 0.79608 0.0
H1573 H 0.18585 0.2799 0.73366 0.0
H1574 H 0.16281 0.27243 0.74868 0.0
H1575 H 0.17432 0.27672 0.79852 0.0
H1576 H 0.10553 0.27867 0.84068 0.0
H1577 H 0.12869 0.28454 0.82529 0.0
C1578 C 0.56953 0.59307 0.50121 0.0
C1579 C 0.55686 0.58572 0.50895 0.0
C1580 C 0.56597 0.60451 0.49058 0.0
C1581 C 0.53239 0.61856 0.46554 0.0
H1582 H 0.5615 0.6577 0.465 0.0
C1583 C 0.51831 0.67227 0.42761 0.0
C1584 C 0.53173 0.67982 0.42093 0.0
C1585 C 0.52092 0.66054 0.43823 0.0
C1586 C 0.55336 0.64675 0.46487 0.0
H1587 H 0.53046 0.58443 0.51157 0.0
H1588 H 0.52421 0.60454 0.49297 0.0
H1589 H 0.56677 0.63789 0.48391 0.0
H1590 H 0.55834 0.6805 0.41973 0.0
H1591 H 0.56289 0.65999 0.43816 0.0
H1592 H 0.51904 0.6274 0.44641 0.0
C1593 C 0.5369 0.60137 0.49508 0.0
C1594 C 0.55637 0.6354 0.47573 0.0
C1595 C 0.54049 0.58993 0.50579 0.0
C1596 C 0.54777 0.67513 0.42487 0.0
C1597 C 0.55037 0.66339 0.43546 0.0
C1598 C 0.5294 0.62991 0.45463 0.0
C1599 C 0.54963 0.60883 0.48741 0.0
C1600 C 0.546 0.62112 0.47614 0.0
C1601 C 0.537 0.65608 0.44239 0.0
C1602 C 0.53992 0.64408 0.4541 0.0
H1603 H 0.58224 0.58995 0.50339 0.0
H1604 H 0.57602 0.60984 0.4847 0.0
H1605 H 0.52428 0.60759 0.46546 0.0
H1606 H 0.50581 0.67576 0.42494 0.0
H1607 H 0.51037 0.65528 0.44348 0.0
C1608 C 0.86583 0.78276 0.76964 0.0
C1609 C 0.84892 0.78067 0.7652 0.0
C1610 C 0.87766 0.78124 0.75896 0.0
C1611 C 0.88524 0.76184 0.72244 0.0
H1612 H 0.9183 0.7975 0.72031 0.0
C1613 C 0.93101 0.7618 0.67528 0.0
C1614 C 0.94715 0.76864 0.67881 0.0
C1615 C 0.91881 0.76337 0.6856 0.0
C1616 C 0.90937 0.78727 0.72087 0.0
H1617 H 0.83107 0.7749 0.74624 0.0
H1618 H 0.85183 0.77183 0.72761 0.0
H1619 H 0.89771 0.79957 0.73899 0.0
H1620 H 0.96289 0.78275 0.69609 0.0
H1621 H 0.94204 0.7846 0.71431 0.0
H1622 H 0.89712 0.74921 0.70477 0.0
C1623 C 0.85588 0.77485 0.73931 0.0
C1624 C 0.89751 0.78854 0.73154 0.0
C1625 C 0.84403 0.77668 0.74995 0.0
C1626 C 0.95073 0.77705 0.69299 0.0
C1627 C 0.93861 0.77839 0.7034 0.0
C1628 C 0.89728 0.76042 0.71194 0.0
C1629 C 0.87279 0.77728 0.74371 0.0
C1630 C 0.88534 0.77586 0.7324 0.0
C1631 C 0.92245 0.77162 0.69985 0.0
C1632 C 0.90952 0.77313 0.71099 0.0
H1633 H 0.86988 0.78581 0.78134 0.0
H1634 H 0.89063 0.78305 0.76264 0.0
H1635 H 0.87604 0.75183 0.72298 0.0
H1636 H 0.92777 0.75503 0.66459 0.0
H1637 H 0.90648 0.7582 0.68232 0.0
C1638 C 0.04523 0.9298 0.49911 0.0
C1639 C 0.04844 0.94562 0.50616 0.0
C1640 C 0.04223 0.91628 0.50771 0.0
C1641 C 0.02823 0.90476 0.54421 0.0
H1642 H 0.05147 0.86505 0.53632 0.0
C1643 C 0.02599 0.85082 0.58352 0.0
C1644 C 0.02599 0.83474 0.57692 0.0
C1645 C 0.02844 0.86439 0.57485 0.0
C1646 C 0.04466 0.87593 0.53854 0.0
H1647 H 0.05096 0.95978 0.52761 0.0
H1648 H 0.04549 0.93615 0.54266 0.0
H1649 H 0.05603 0.88855 0.52113 0.0
H1650 H 0.02804 0.82022 0.55601 0.0
H1651 H 0.03188 0.84382 0.54078 0.0
H1652 H 0.01662 0.89212 0.56142 0.0
C1653 C 0.04528 0.93422 0.53051 0.0
C1654 C 0.04734 0.88942 0.52985 0.0
C1655 C 0.04847 0.9477 0.52192 0.0
C1656 C 0.02823 0.83249 0.56144 0.0
C1657 C 0.03049 0.84603 0.55274 0.0
C1658 C 0.02541 0.89121 0.5528 0.0
C1659 C 0.04221 0.91836 0.52349 0.0
C1660 C 0.03919 0.90399 0.53262 0.0
C1661 C 0.03076 0.86218 0.55934 0.0
C1662 C 0.03362 0.87661 0.55011 0.0
H1663 H 0.04518 0.92781 0.48698 0.0
H1664 H 0.03979 0.90421 0.502 0.0
H1665 H 0.02165 0.91579 0.54647 0.0
H1666 H 0.02447 0.85291 0.59547 0.0
H1667 H 0.02884 0.87661 0.5804 0.0
C1668 C 0.20547 0.71037 0.73257 0.0
C1669 C 0.20684 0.71711 0.7475 0.0
C1670 C 0.19176 0.71325 0.72296 0.0
C1671 C 0.14868 0.72608 0.72341 0.0
H1672 H 0.15452 0.73538 0.68181 0.0
C1673 C 0.09665 0.75059 0.68533 0.0
C1674 C 0.09433 0.74371 0.67045 0.0
C1675 C 0.11046 0.7471 0.69451 0.0
C1676 C 0.15267 0.73263 0.69335 0.0
H1677 H 0.19497 0.73226 0.76408 0.0
H1678 H 0.17125 0.73746 0.7473 0.0
H1679 H 0.17846 0.72963 0.69825 0.0
H1680 H 0.10485 0.72797 0.65346 0.0
H1681 H 0.12891 0.72174 0.66957 0.0
H1682 H 0.12293 0.7292 0.71854 0.0
C1683 C 0.1806 0.72972 0.74305 0.0
C1684 C 0.16638 0.72932 0.70277 0.0
C1685 C 0.19427 0.72681 0.75265 0.0
C1686 C 0.10621 0.73335 0.66492 0.0
C1687 C 0.12007 0.72991 0.67409 0.0
C1688 C 0.135 0.72943 0.71401 0.0
C1689 C 0.17916 0.72296 0.72809 0.0
C1690 C 0.16456 0.72608 0.71794 0.0
C1691 C 0.1223 0.73668 0.68902 0.0
C1692 C 0.13684 0.73283 0.6989 0.0
H1693 H 0.21498 0.70281 0.72835 0.0
H1694 H 0.19095 0.7077 0.71156 0.0
H1695 H 0.14679 0.72334 0.73494 0.0
H1696 H 0.08764 0.75848 0.68998 0.0
H1697 H 0.11191 0.75265 0.70591 0.0
C1698 C 0.96782 0.58055 0.48893 0.0
C1699 C 0.9802 0.56932 0.48702 0.0
C1700 C 0.97089 0.59474 0.49847 0.0
C1701 C 0.99514 0.6111 0.53195 0.0
H1702 H 0.98555 0.65399 0.51797 0.0
C1703 C 0.01003 0.67058 0.56992 0.0
C1704 C 0.99926 0.68345 0.56862 0.0
C1705 C 0.00831 0.65681 0.55971 0.0
C1706 C 0.98805 0.6421 0.52217 0.0
H1707 H 0.00541 0.56395 0.49356 0.0
H1708 H 0.01067 0.5887 0.51065 0.0
H1709 H 0.98133 0.62965 0.50061 0.0
H1710 H 0.97811 0.69197 0.5559 0.0
H1711 H 0.97459 0.66765 0.53845 0.0
H1712 H 0.0012 0.62326 0.55365 0.0
C1713 C 0.99868 0.58655 0.50461 0.0
C1714 C 0.98574 0.62819 0.51216 0.0
C1715 C 0.99571 0.5725 0.49482 0.0
C1716 C 0.98665 0.68225 0.55703 0.0
C1717 C 0.98474 0.66835 0.54698 0.0
C1718 C 0.99718 0.62496 0.54205 0.0
C1719 C 0.98629 0.5978 0.50649 0.0
C1720 C 0.98925 0.61258 0.51697 0.0
C1721 C 0.9956 0.65546 0.54812 0.0
C1722 C 0.99364 0.64067 0.53731 0.0
H1723 H 0.95579 0.57838 0.48296 0.0
H1724 H 0.96112 0.60319 0.49981 0.0
H1725 H 0.99775 0.59914 0.53596 0.0
H1726 H 0.01998 0.67133 0.57866 0.0
H1727 H 0.01713 0.64734 0.56081 0.0
C1728 C 0.75649 0.84684 0.21622 0.0
C1729 C 0.76268 0.83107 0.2151 0.0
C1730 C 0.76729 0.86074 0.21903 0.0
C1731 C 0.80719 0.87532 0.23628 0.0
H1732 H 0.80673 0.90875 0.20706 0.0
C1733 C 0.85733 0.92829 0.23947 0.0
C1734 C 0.85301 0.94377 0.23473 0.0
C1735 C 0.84616 0.91462 0.23723 0.0
C1736 C 0.80686 0.89974 0.21551 0.0
H1737 H 0.78477 0.81726 0.21638 0.0
H1738 H 0.8037 0.84163 0.22183 0.0
H1739 H 0.78714 0.88498 0.20348 0.0
H1740 H 0.83337 0.95679 0.22376 0.0
H1741 H 0.81363 0.93335 0.22079 0.0
H1742 H 0.82642 0.89018 0.24867 0.0
C1743 C 0.79053 0.84321 0.22034 0.0
C1744 C 0.79568 0.88608 0.21338 0.0
C1745 C 0.77977 0.82934 0.21719 0.0
C1746 C 0.83713 0.94519 0.2278 0.0
C1747 C 0.82585 0.9316 0.22584 0.0
C1748 C 0.81815 0.88915 0.23861 0.0
C1749 C 0.78439 0.85902 0.2211 0.0
C1750 C 0.79585 0.87371 0.22368 0.0
C1751 C 0.83021 0.91609 0.23046 0.0
C1752 C 0.81825 0.90151 0.22819 0.0
H1753 H 0.74334 0.84842 0.21456 0.0
H1754 H 0.7623 0.87283 0.21962 0.0
H1755 H 0.80743 0.86596 0.24443 0.0
H1756 H 0.8693 0.92668 0.24508 0.0
H1757 H 0.85015 0.90288 0.24073 0.0
C1758 C 0.76667 0.17638 0.2843 0.0
C1759 C 0.77169 0.19181 0.29147 0.0
C1760 C 0.77813 0.16447 0.28175 0.0
C1761 C 0.82299 0.15914 0.27936 0.0
H1762 H 0.81 0.11324 0.2834 0.0
C1763 C 0.86852 0.10649 0.27577 0.0
C1764 C 0.86276 0.09227 0.2669 0.0
C1765 C 0.85782 0.11894 0.27912 0.0
C1766 C 0.81377 0.126 0.28212 0.0
H1767 H 0.79281 0.20683 0.30152 0.0
H1768 H 0.81276 0.18586 0.29749 0.0
H1769 H 0.79065 0.13436 0.28887 0.0
H1770 H 0.84124 0.07986 0.25475 0.0
H1771 H 0.8226 0.10157 0.26056 0.0
H1772 H 0.8462 0.15067 0.27274 0.0
C1773 C 0.79997 0.18306 0.29361 0.0
C1774 C 0.80267 0.13811 0.28522 0.0
C1775 C 0.78849 0.19502 0.29609 0.0
C1776 C 0.84609 0.09075 0.26148 0.0
C1777 C 0.83538 0.1031 0.26493 0.0
C1778 C 0.83415 0.14701 0.27637 0.0
C1779 C 0.79492 0.16762 0.28641 0.0
C1780 C 0.80706 0.15483 0.28371 0.0
C1781 C 0.8411 0.11731 0.27382 0.0
C1782 C 0.82958 0.1303 0.27757 0.0
H1783 H 0.75381 0.17339 0.28077 0.0
H1784 H 0.77382 0.15283 0.27599 0.0
H1785 H 0.82672 0.17186 0.2779 0.0
H1786 H 0.88133 0.10804 0.28003 0.0
H1787 H 0.86255 0.12972 0.28606 0.0
C1788 C 0.44791 0.99924 0.97193 0.0
C1789 C 0.44599 0.01618 0.97097 0.0
C1790 C 0.43442 0.98868 0.97453 0.0
C1791 C 0.39233 0.98889 0.98866 0.0
H1792 H 0.3881 0.94475 0.96954 0.0
C1793 C 0.34233 0.94111 0.00413 0.0
C1794 C 0.33482 0.9304 0.99246 0.0
C1795 C 0.35604 0.95138 0.00158 0.0
C1796 C 0.38898 0.95709 0.97486 0.0
H1797 H 0.42843 0.03533 0.97156 0.0
H1798 H 0.40479 0.0169 0.9757 0.0
H1799 H 0.41132 0.96315 0.96445 0.0
H1800 H 0.33555 0.92225 0.96892 0.0
H1801 H 0.35921 0.94043 0.96433 0.0
H1802 H 0.36965 0.98307 0.99861 0.0
C1803 C 0.41677 0.01177 0.97489 0.0
C1804 C 0.40246 0.96758 0.97211 0.0
C1805 C 0.43029 0.02234 0.97245 0.0
C1806 C 0.34124 0.93022 0.97817 0.0
C1807 C 0.35484 0.94061 0.97557 0.0
C1808 C 0.37878 0.97845 0.99131 0.0
C1809 C 0.41867 0.99481 0.97607 0.0
C1810 C 0.40432 0.98362 0.97898 0.0
C1811 C 0.36245 0.95131 0.98725 0.0
C1812 C 0.37693 0.96241 0.98446 0.0
H1813 H 0.45993 0.9942 0.97099 0.0
H1814 H 0.43643 0.97575 0.97561 0.0
H1815 H 0.39345 0.00106 0.99433 0.0
H1816 H 0.33773 0.94135 0.01529 0.0
H1817 H 0.36174 0.95923 0.01091 0.0
C1818 C 0.26625 0.32805 0.29658 0.0
C1819 C 0.26922 0.31568 0.28557 0.0
C1820 C 0.25543 0.34033 0.29325 0.0
C1821 C 0.22039 0.3499 0.26785 0.0
H1822 H 0.23465 0.39539 0.279 0.0
C1823 C 0.17673 0.404 0.26566 0.0
C1824 C 0.18282 0.41827 0.25927 0.0
C1825 C 0.18704 0.39113 0.2684 0.0
C1826 C 0.23053 0.38275 0.27577 0.0
H1827 H 0.26296 0.30622 0.26255 0.0
H1828 H 0.2439 0.32767 0.25674 0.0
H1829 H 0.25303 0.37345 0.28483 0.0
H1830 H 0.20448 0.43027 0.25081 0.0
H1831 H 0.22254 0.4078 0.25569 0.0
H1832 H 0.19785 0.35923 0.25884 0.0
C1833 C 0.24998 0.32786 0.26794 0.0
C1834 C 0.24099 0.3702 0.27921 0.0
C1835 C 0.26096 0.31568 0.27122 0.0
C1836 C 0.19941 0.41937 0.25563 0.0
C1837 C 0.20977 0.40659 0.25854 0.0
C1838 C 0.20985 0.36245 0.26457 0.0
C1839 C 0.24722 0.34039 0.27888 0.0
C1840 C 0.23604 0.35365 0.27527 0.0
C1841 C 0.20371 0.39236 0.265 0.0
C1842 C 0.21484 0.379 0.26845 0.0
H1843 H 0.27254 0.32842 0.3077 0.0
H1844 H 0.25343 0.34977 0.30193 0.0
H1845 H 0.21624 0.33724 0.26476 0.0
H1846 H 0.16396 0.40279 0.26849 0.0
H1847 H 0.18208 0.38034 0.27348 0.0
C1848 C 0.10169 0.00104 0.47734 0.0
C1849 C 0.08695 0.00629 0.47051 0.0
C1850 C 0.11539 0.0121 0.48049 0.0
C1851 C 0.13329 0.05114 0.46831 0.0
H1852 H 0.16099 0.05156 0.50544 0.0
C1853 C 0.18483 0.10152 0.48365 0.0
C1854 C 0.19992 0.09663 0.49007 0.0
C1855 C 0.17101 0.0905 0.48179 0.0
C1856 C 0.15348 0.05148 0.49494 0.0
H1857 H 0.07477 0.02742 0.4623 0.0
H1858 H 0.09863 0.04666 0.46776 0.0
H1859 H 0.13688 0.03228 0.50144 0.0
H1860 H 0.21221 0.07636 0.49985 0.0
H1861 H 0.18819 0.057 0.49628 0.0
H1862 H 0.14988 0.0702 0.46172 0.0
C1863 C 0.09973 0.03394 0.47041 0.0
C1864 C 0.13966 0.04044 0.49267 0.0
C1865 C 0.08606 0.02292 0.46729 0.0
C1866 C 0.20083 0.08047 0.49469 0.0
C1867 C 0.18701 0.06943 0.49282 0.0
C1868 C 0.1471 0.06213 0.47056 0.0
C1869 C 0.11462 0.02862 0.47685 0.0
C1870 C 0.12938 0.04021 0.47935 0.0
C1871 C 0.17195 0.0743 0.48628 0.0
C1872 C 0.15733 0.06248 0.48392 0.0
H1873 H 0.10281 0.98828 0.47984 0.0
H1874 H 0.12674 0.0076 0.48535 0.0
H1875 H 0.1258 0.05106 0.4578 0.0
H1876 H 0.18373 0.11382 0.47983 0.0
H1877 H 0.15955 0.09472 0.47689 0.0
C1878 C 0.75606 0.18345 0.72228 0.0
C1879 C 0.77313 0.18209 0.72116 0.0
C1880 C 0.74586 0.16956 0.72441 0.0
C1881 C 0.74309 0.12451 0.71895 0.0
H1882 H 0.71142 0.12675 0.74974 0.0
C1883 C 0.70643 0.06662 0.73563 0.0
C1884 C 0.68985 0.06821 0.73894 0.0
C1885 C 0.71663 0.08051 0.73355 0.0
C1886 C 0.72002 0.12596 0.74094 0.0
H1887 H 0.79288 0.16515 0.72111 0.0
H1888 H 0.77503 0.14084 0.72476 0.0
H1889 H 0.72892 0.15106 0.74561 0.0
H1890 H 0.67113 0.0858 0.74286 0.0
H1891 H 0.68869 0.1099 0.73865 0.0
H1892 H 0.73406 0.09955 0.71405 0.0
C1893 C 0.76956 0.15265 0.72401 0.0
C1894 C 0.73007 0.13989 0.73862 0.0
C1895 C 0.77977 0.16656 0.72205 0.0
C1896 C 0.68375 0.08406 0.74012 0.0
C1897 C 0.69392 0.09794 0.73792 0.0
C1898 C 0.73294 0.11063 0.72117 0.0
C1899 C 0.75251 0.15402 0.72529 0.0
C1900 C 0.74173 0.13929 0.72763 0.0
C1901 C 0.71049 0.09635 0.73461 0.0
C1902 C 0.7213 0.11115 0.73222 0.0
H1903 H 0.75063 0.19529 0.72173 0.0
H1904 H 0.73275 0.17094 0.72524 0.0
H1905 H 0.75184 0.12377 0.71027 0.0
H1906 H 0.71151 0.05461 0.73445 0.0
H1907 H 0.72939 0.07882 0.73121 0.0
C1908 C 0.43865 0.01616 0.5457 0.0
C1909 C 0.44735 0.00903 0.53402 0.0
C1910 C 0.42725 0.02804 0.54274 0.0
C1911 C 0.40029 0.04264 0.5123 0.0
H1912 H 0.39841 0.0815 0.53937 0.0
C1913 C 0.34519 0.08468 0.51061 0.0
C1914 C 0.34881 0.10177 0.51189 0.0
C1915 C 0.3577 0.07375 0.51288 0.0
C1916 C 0.39887 0.07077 0.53165 0.0
H1917 H 0.45109 0.00913 0.51011 0.0
H1918 H 0.431 0.02971 0.50494 0.0
H1919 H 0.41965 0.06188 0.54414 0.0
H1920 H 0.36837 0.12082 0.51662 0.0
H1921 H 0.39028 0.10169 0.52058 0.0
H1922 H 0.3795 0.0515 0.49983 0.0
C1923 C 0.43294 0.02597 0.51636 0.0
C1924 C 0.41092 0.05947 0.53446 0.0
C1925 C 0.44441 0.01415 0.51932 0.0
C1926 C 0.36523 0.10771 0.51546 0.0
C1927 C 0.37773 0.09677 0.51785 0.0
C1928 C 0.38817 0.05387 0.50956 0.0
C1929 C 0.42421 0.03301 0.52803 0.0
C1930 C 0.41172 0.04525 0.52484 0.0
C1931 C 0.37409 0.07968 0.51657 0.0
C1932 C 0.38728 0.06802 0.51924 0.0
H1933 H 0.44038 0.01231 0.5571 0.0
H1934 H 0.42054 0.03307 0.55193 0.0
H1935 H 0.40051 0.03173 0.50476 0.0
H1936 H 0.33269 0.07973 0.50772 0.0
H1937 H 0.35449 0.06065 0.51195 0.0
C1938 C 0.59668 0.52537 0.53865 0.0
C1939 C 0.58155 0.51929 0.54356 0.0
C1940 C 0.60909 0.51472 0.53538 0.0
C1941 C 0.62362 0.47338 0.54208 0.0
H1942 H 0.64766 0.48014 0.50648 0.0
C1943 C 0.66996 0.42731 0.52036 0.0
C1944 C 0.68487 0.43405 0.51556 0.0
C1945 C 0.65704 0.4374 0.52359 0.0
C1946 C 0.64118 0.47818 0.51654 0.0
H1947 H 0.56768 0.49724 0.549 0.0
H1948 H 0.58942 0.47859 0.54329 0.0
H1949 H 0.62583 0.49831 0.51276 0.0
H1950 H 0.69777 0.45665 0.5101 0.0
H1951 H 0.67537 0.47429 0.51596 0.0
H1952 H 0.63903 0.45326 0.54588 0.0
C1953 C 0.5917 0.49165 0.54211 0.0
C1954 C 0.62867 0.4886 0.52015 0.0
C1955 C 0.57926 0.50232 0.54539 0.0
C1956 C 0.68651 0.45109 0.51392 0.0
C1957 C 0.6736 0.46118 0.51712 0.0
C1958 C 0.63615 0.46295 0.53848 0.0
C1959 C 0.60671 0.49772 0.53694 0.0
C1960 C 0.6198 0.48639 0.533 0.0
C1961 C 0.65873 0.45447 0.52205 0.0
C1962 C 0.64513 0.46528 0.5257 0.0
H1963 H 0.59895 0.53841 0.53739 0.0
H1964 H 0.62063 0.51984 0.53172 0.0
H1965 H 0.61715 0.47146 0.55216 0.0
H1966 H 0.66835 0.41425 0.52189 0.0
H1967 H 0.6457 0.43183 0.52722 0.0
C1968 C 0.74347 0.25172 0.32587 0.0
C1969 C 0.74848 0.2354 0.3254 0.0
C1970 C 0.74318 0.26089 0.33959 0.0
C1971 C 0.76162 0.26596 0.37776 0.0
H1972 H 0.72108 0.28632 0.3873 0.0
C1973 C 0.75589 0.30172 0.435 0.0
C1974 C 0.74663 0.31587 0.43512 0.0
C1975 C 0.75569 0.29109 0.42207 0.0
C1976 C 0.7326 0.28096 0.38476 0.0
H1977 H 0.75731 0.21611 0.33918 0.0
H1978 H 0.75744 0.23249 0.36308 0.0
H1979 H 0.72207 0.26974 0.36372 0.0
H1980 H 0.72956 0.3296 0.42166 0.0
H1981 H 0.72998 0.31172 0.39898 0.0
H1982 H 0.77245 0.27766 0.39839 0.0
C1983 C 0.7536 0.238 0.35274 0.0
C1984 C 0.73309 0.27137 0.37128 0.0
C1985 C 0.75361 0.22869 0.33903 0.0
C1986 C 0.73708 0.31901 0.42198 0.0
C1987 C 0.7371 0.30853 0.40898 0.0
C1988 C 0.76123 0.2758 0.39113 0.0
C1989 C 0.74819 0.2541 0.35314 0.0
C1990 C 0.74761 0.26384 0.36764 0.0
C1991 C 0.74643 0.29444 0.40881 0.0
C1992 C 0.74672 0.2835 0.3948 0.0
H1993 H 0.73982 0.25749 0.31563 0.0
H1994 H 0.73918 0.27338 0.33961 0.0
H1995 H 0.773 0.26036 0.37512 0.0
H1996 H 0.76358 0.29896 0.4448 0.0
H1997 H 0.76284 0.28024 0.4225 0.0
C1998 C 0.50836 0.99882 0.91494 0.0
C1999 C 0.50677 0.01433 0.92226 0.0
C2000 C 0.51715 0.9973 0.90197 0.0
C2001 C 0.53201 0.02108 0.871 0.0
H2002 H 0.5616 0.98554 0.86597 0.0
C2003 C 0.57749 0.01814 0.82369 0.0
C2004 C 0.57969 0.00264 0.8165 0.0
C2005 C 0.56826 0.0195 0.83639 0.0
C2006 C 0.55323 0.99542 0.86711 0.0
H2007 H 0.51316 0.04048 0.92181 0.0
H2008 H 0.52861 0.03782 0.89925 0.0
H2009 H 0.54626 0.98803 0.88859 0.0
H2010 H 0.57389 0.97641 0.81706 0.0
H2011 H 0.55751 0.97882 0.83902 0.0
H2012 H 0.53897 0.02848 0.84952 0.0
C2013 C 0.52292 0.02683 0.90342 0.0
C2014 C 0.54445 0.99685 0.88008 0.0
C2015 C 0.51415 0.02834 0.9164 0.0
C2016 C 0.57231 0.98855 0.82223 0.0
C2017 C 0.56308 0.98991 0.83494 0.0
C2018 C 0.54078 0.01964 0.85802 0.0
C2019 C 0.5245 0.0113 0.89604 0.0
C2020 C 0.53376 0.00972 0.8822 0.0
C2021 C 0.56102 0.00539 0.84221 0.0
C2022 C 0.55151 0.00681 0.85593 0.0
H2023 H 0.50273 0.98785 0.91921 0.0
H2024 H 0.51798 0.98519 0.89645 0.0
H2025 H 0.52368 0.03099 0.87218 0.0
H2026 H 0.58285 0.02925 0.81946 0.0
H2027 H 0.56704 0.03159 0.8418 0.0
C2028 C 0.30612 0.27233 0.3291 0.0
C2029 C 0.29167 0.27451 0.32006 0.0
C2030 C 0.30533 0.26418 0.34245 0.0
C2031 C 0.27616 0.25162 0.37061 0.0
H2032 H 0.31006 0.22182 0.38152 0.0
C2033 C 0.27941 0.22212 0.42809 0.0
C2034 C 0.2834 0.20552 0.42814 0.0
C2035 C 0.28075 0.23081 0.41511 0.0
C2036 C 0.30042 0.23001 0.3786 0.0
H2037 H 0.26512 0.26956 0.31776 0.0
H2038 H 0.26375 0.2552 0.34093 0.0
H2039 H 0.31151 0.23609 0.35834 0.0
H2040 H 0.29221 0.18517 0.41457 0.0
H2041 H 0.29408 0.20017 0.39186 0.0
H2042 H 0.26479 0.24516 0.39063 0.0
C2043 C 0.27566 0.26009 0.33791 0.0
C2044 C 0.30137 0.23836 0.36538 0.0
C2045 C 0.27644 0.26829 0.32461 0.0
C2046 C 0.28883 0.19787 0.4149 0.0
C2047 C 0.29012 0.20655 0.40191 0.0
C2048 C 0.27518 0.24324 0.3838 0.0
C2049 C 0.29009 0.25796 0.34702 0.0
C2050 C 0.28922 0.24924 0.3612 0.0
C2051 C 0.28607 0.22313 0.40184 0.0
C2052 C 0.28728 0.23228 0.38794 0.0
H2053 H 0.31801 0.27717 0.32599 0.0
H2054 H 0.31666 0.26299 0.3493 0.0
H2055 H 0.2667 0.26007 0.36785 0.0
H2056 H 0.27504 0.22836 0.43804 0.0
H2057 H 0.27771 0.24362 0.41552 0.0
C2058 C 0.53388 0.47342 0.92546 0.0
C2059 C 0.53726 0.48679 0.93609 0.0
C2060 C 0.52497 0.4755 0.91181 0.0
C2061 C 0.51294 0.50815 0.88655 0.0
H2062 H 0.48222 0.47391 0.86774 0.0
C2063 C 0.46832 0.51849 0.83532 0.0
C2064 C 0.46694 0.50613 0.82354 0.0
C2065 C 0.47705 0.51599 0.84894 0.0
C2066 C 0.49088 0.48352 0.87281 0.0
H2067 H 0.5334 0.5126 0.9411 0.0
H2068 H 0.51751 0.51617 0.91749 0.0
H2069 H 0.49658 0.46974 0.89201 0.0
H2070 H 0.47353 0.48143 0.81683 0.0
H2071 H 0.48878 0.47704 0.8407 0.0
H2072 H 0.50699 0.522 0.86743 0.0
C2073 C 0.52213 0.50419 0.91944 0.0
C2074 C 0.49913 0.48113 0.8867 0.0
C2075 C 0.53116 0.50214 0.933 0.0
C2076 C 0.47451 0.49123 0.82566 0.0
C2077 C 0.4831 0.48865 0.83936 0.0
C2078 C 0.50458 0.51058 0.87274 0.0
C2079 C 0.51913 0.49097 0.90855 0.0
C2080 C 0.51026 0.49343 0.89377 0.0
C2081 C 0.48444 0.50101 0.85114 0.0
C2082 C 0.49346 0.4983 0.86572 0.0
H2083 H 0.53859 0.46149 0.92749 0.0
H2084 H 0.52308 0.46509 0.90364 0.0
H2085 H 0.52168 0.51775 0.89147 0.0
H2086 H 0.46272 0.53015 0.83396 0.0
H2087 H 0.47779 0.52569 0.85786 0.0
C2088 C 0.74899 0.79074 0.16671 0.0
C2089 C 0.74402 0.78305 0.17956 0.0
C2090 C 0.75125 0.78146 0.15339 0.0
C2091 C 0.73923 0.74242 0.13226 0.0
H2092 H 0.77939 0.75084 0.11188 0.0
C2093 C 0.74872 0.71652 0.07164 0.0
C2094 C 0.7639 0.70944 0.06935 0.0
C2095 C 0.74617 0.72513 0.08527 0.0
C2096 C 0.76815 0.74831 0.11748 0.0
H2097 H 0.73734 0.75949 0.1883 0.0
H2098 H 0.74091 0.74333 0.16483 0.0
H2099 H 0.77503 0.76649 0.13544 0.0
H2100 H 0.78822 0.70577 0.07981 0.0
H2101 H 0.78387 0.7212 0.1034 0.0
H2102 H 0.73232 0.72432 0.11421 0.0
C2103 C 0.74308 0.75658 0.16519 0.0
C2104 C 0.76561 0.75734 0.13088 0.0
C2105 C 0.74099 0.76585 0.1786 0.0
C2106 C 0.77649 0.71131 0.08102 0.0
C2107 C 0.77399 0.72008 0.09458 0.0
C2108 C 0.74169 0.73353 0.11873 0.0
C2109 C 0.74839 0.76429 0.15251 0.0
C2110 C 0.75112 0.7545 0.1384 0.0
C2111 C 0.75879 0.72704 0.09685 0.0
C2112 C 0.75618 0.73638 0.11122 0.0
H2113 H 0.75105 0.80398 0.16689 0.0
H2114 H 0.75509 0.78774 0.14371 0.0
H2115 H 0.72792 0.74005 0.13778 0.0
H2116 H 0.73884 0.7156 0.06283 0.0
H2117 H 0.73441 0.73056 0.08665 0.0
C2118 C 0.0318 0.05072 0.08363 0.0
C2119 C 0.03706 0.03655 0.07587 0.0
C2120 C 0.02255 0.0494 0.09626 0.0
C2121 C 0.01462 0.02289 0.12686 0.0
H2122 H 0.97477 0.04677 0.13063 0.0
C2123 C 0.98176 0.0306 0.18252 0.0
C2124 C 0.9646 0.02699 0.18137 0.0
C2125 C 0.9905 0.03163 0.16954 0.0
C2126 C 0.98586 0.04001 0.1297 0.0
H2127 H 0.03632 0.00983 0.07529 0.0
H2128 H 0.02062 0.00764 0.09764 0.0
H2129 H 0.99012 0.04868 0.10793 0.0
H2130 H 0.94309 0.02194 0.16581 0.0
H2131 H 0.95836 0.02401 0.14309 0.0
H2132 H 0.01047 0.01437 0.1487 0.0
C2133 C 0.02373 0.01975 0.09387 0.0
C2134 C 0.99467 0.04118 0.11678 0.0
C2135 C 0.03278 0.02104 0.08111 0.0
C2136 C 0.95633 0.02463 0.167 0.0
C2137 C 0.96503 0.02592 0.15403 0.0
C2138 C 0.00595 0.02192 0.13988 0.0
C2139 C 0.01853 0.03392 0.10157 0.0
C2140 C 0.00911 0.03259 0.11522 0.0
C2141 C 0.98221 0.02933 0.15517 0.0
C2142 C 0.99146 0.03044 0.14141 0.0
H2143 H 0.03511 0.06289 0.08017 0.0
H2144 H 0.01885 0.06053 0.10209 0.0
H2145 H 0.02578 0.01624 0.12598 0.0
H2146 H 0.98844 0.03237 0.19346 0.0
H2147 H 0.00372 0.03438 0.17072 0.0
C2148 C 0.29616 0.7735 0.17959 0.0
C2149 C 0.28803 0.75809 0.18084 0.0
C2150 C 0.29378 0.78195 0.16648 0.0
C2151 C 0.28012 0.77533 0.12611 0.0
H2152 H 0.27612 0.82263 0.12864 0.0
C2153 C 0.26135 0.8113 0.07431 0.0
C2154 C 0.26997 0.82644 0.07282 0.0
C2155 C 0.26354 0.80296 0.0875 0.0
C2156 C 0.27739 0.80944 0.12774 0.0
H2157 H 0.27088 0.73944 0.16941 0.0
H2158 H 0.26657 0.75425 0.14663 0.0
H2159 H 0.27977 0.80813 0.15171 0.0
H2160 H 0.28756 0.84479 0.08407 0.0
H2161 H 0.29156 0.83011 0.10701 0.0
H2162 H 0.2777 0.77665 0.10214 0.0
C2163 C 0.27498 0.75973 0.15568 0.0
C2164 C 0.27949 0.80114 0.14096 0.0
C2165 C 0.27737 0.75129 0.16878 0.0
C2166 C 0.28086 0.83306 0.08481 0.0
C2167 C 0.28301 0.82475 0.09802 0.0
C2168 C 0.278 0.78364 0.1129 0.0
C2169 C 0.28321 0.77513 0.15434 0.0
C2170 C 0.28088 0.78398 0.1403 0.0
C2171 C 0.27437 0.80961 0.09951 0.0
C2172 C 0.27662 0.80079 0.11356 0.0
H2173 H 0.30448 0.77897 0.18872 0.0
H2174 H 0.30047 0.79368 0.16576 0.0
H2175 H 0.28143 0.76215 0.12519 0.0
H2176 H 0.25298 0.80581 0.06523 0.0
H2177 H 0.25659 0.7914 0.08836 0.0
C2178 C 0.01225 0.48792 0.06493 0.0
C2179 C 0.99495 0.48755 0.06493 0.0
C2180 C 0.02194 0.4877 0.07844 0.0
C2181 C 0.02022 0.49415 0.12008 0.0
H2182 H 0.06034 0.47022 0.12047 0.0
C2183 C 0.05797 0.4809 0.17498 0.0
C2184 C 0.07502 0.48491 0.17516 0.0
C2185 C 0.04805 0.4809 0.16156 0.0
C2186 C 0.04921 0.47701 0.1205 0.0
H2187 H 0.97417 0.4865 0.07901 0.0
H2188 H 0.99099 0.48564 0.10259 0.0
H2189 H 0.04323 0.47093 0.09706 0.0
H2190 H 0.09514 0.49162 0.16147 0.0
H2191 H 0.07783 0.49137 0.13795 0.0
H2192 H 0.02613 0.49986 0.14367 0.0
C2193 C 0.99717 0.48657 0.09223 0.0
C2194 C 0.03943 0.47751 0.10707 0.0
C2195 C 0.9875 0.487 0.07872 0.0
C2196 C 0.08201 0.48859 0.16164 0.0
C2197 C 0.07214 0.48834 0.14819 0.0
C2198 C 0.0299 0.49345 0.13355 0.0
C2199 C 0.01453 0.48687 0.09227 0.0
C2200 C 0.02485 0.48618 0.10665 0.0
C2201 C 0.05505 0.48465 0.14805 0.0
C2202 C 0.04453 0.48496 0.13386 0.0
H2203 H 0.0183 0.48851 0.05445 0.0
H2204 H 0.03525 0.48831 0.07803 0.0
H2205 H 0.00925 0.50118 0.12017 0.0
H2206 H 0.05227 0.47813 0.18527 0.0
H2207 H 0.03492 0.4779 0.16172 0.0
C2208 C 0.33649 0.71956 0.23151 0.0
C2209 C 0.32128 0.71573 0.23753 0.0
C2210 C 0.35101 0.72153 0.24088 0.0
C2211 C 0.36858 0.7117 0.27856 0.0
H2212 H 0.40189 0.74573 0.27168 0.0
C2213 C 0.42355 0.7307 0.3214 0.0
C2214 C 0.43917 0.733 0.31561 0.0
C2215 C 0.4093 0.72832 0.31172 0.0
C2216 C 0.39276 0.73607 0.27365 0.0
H2217 H 0.30928 0.71136 0.25808 0.0
H2218 H 0.33453 0.71507 0.27448 0.0
H2219 H 0.37671 0.74231 0.25512 0.0
H2220 H 0.45201 0.73428 0.29502 0.0
H2221 H 0.42709 0.73039 0.27816 0.0
H2222 H 0.38457 0.70567 0.29725 0.0
C2223 C 0.33535 0.71615 0.26249 0.0
C2224 C 0.37834 0.73408 0.26414 0.0
C2225 C 0.32087 0.71407 0.25311 0.0
C2226 C 0.44017 0.73284 0.29989 0.0
C2227 C 0.42591 0.73057 0.29021 0.0
C2228 C 0.38294 0.71377 0.28812 0.0
C2229 C 0.35063 0.71984 0.25649 0.0
C2230 C 0.36606 0.72188 0.26649 0.0
C2231 C 0.41033 0.7283 0.29603 0.0
C2232 C 0.39517 0.72599 0.28577 0.0
H2233 H 0.33719 0.72072 0.21951 0.0
H2234 H 0.36258 0.72412 0.23584 0.0
H2235 H 0.35954 0.70197 0.28054 0.0
H2236 H 0.42227 0.73104 0.33345 0.0
H2237 H 0.39744 0.72681 0.31653 0.0
C2238 C 0.98249 0.43255 0.99465 0.0
C2239 C 0.99657 0.44269 0.99947 0.0
C2240 C 0.98383 0.41868 0.98489 0.0
C2241 C 0.00911 0.40103 0.95621 0.0
H2242 H 0.99014 0.35898 0.96678 0.0
C2243 C 0.02125 0.3403 0.92297 0.0
C2244 C 0.00849 0.32793 0.92121 0.0
C2245 C 0.01972 0.35442 0.93238 0.0
C2246 C 0.99528 0.37065 0.96349 0.0
H2247 H 0.02296 0.44646 0.99782 0.0
H2248 H 0.02525 0.42233 0.98045 0.0
H2249 H 0.98731 0.38356 0.98318 0.0
H2250 H 0.98397 0.32075 0.92754 0.0
H2251 H 0.98098 0.3456 0.94354 0.0
H2252 H 0.01673 0.38833 0.93634 0.0
C2253 C 0.01323 0.42511 0.98427 0.0
C2254 C 0.9937 0.38471 0.97294 0.0
C2255 C 0.01194 0.43884 0.99422 0.0
C2256 C 0.99408 0.33002 0.92886 0.0
C2257 C 0.99243 0.34424 0.93809 0.0
C2258 C 0.01048 0.38701 0.94662 0.0
C2259 C 0.99921 0.41483 0.97961 0.0
C2260 C 0.00066 0.40001 0.96943 0.0
C2261 C 0.00527 0.3566 0.94006 0.0
C2262 C 0.00364 0.37161 0.95016 0.0
H2263 H 0.97049 0.43518 0.99858 0.0
H2264 H 0.97282 0.411 0.98139 0.0
H2265 H 0.01444 0.41273 0.95317 0.0
H2266 H 0.03257 0.33889 0.91731 0.0
H2267 H 0.03 0.36348 0.93381 0.0
C2268 C 0.68588 0.78633 0.24333 0.0
C2269 C 0.70009 0.79495 0.25015 0.0
C2270 C 0.67255 0.78231 0.2519 0.0
C2271 C 0.66185 0.77717 0.29119 0.0
H2272 H 0.61703 0.78236 0.27514 0.0
C2273 C 0.60604 0.7741 0.32815 0.0
C2274 C 0.59139 0.7658 0.32187 0.0
C2275 C 0.6193 0.77714 0.31925 0.0
C2276 C 0.62946 0.78065 0.27972 0.0
H2277 H 0.71153 0.8062 0.27112 0.0
H2278 H 0.68824 0.79935 0.28606 0.0
H2279 H 0.64014 0.78859 0.25981 0.0
H2280 H 0.57917 0.75427 0.30128 0.0
H2281 H 0.60242 0.75933 0.2858 0.0
H2282 H 0.65119 0.76932 0.31111 0.0
C2283 C 0.68744 0.79547 0.27418 0.0
C2284 C 0.64271 0.78422 0.27093 0.0
C2285 C 0.70073 0.79949 0.26562 0.0
C2286 C 0.59034 0.76055 0.3065 0.0
C2287 C 0.60359 0.76362 0.29759 0.0
C2288 C 0.64862 0.77361 0.29997 0.0
C2289 C 0.67319 0.78681 0.26743 0.0
C2290 C 0.65907 0.7826 0.27659 0.0
C2291 C 0.61822 0.77197 0.30386 0.0
C2292 C 0.63227 0.77539 0.29437 0.0
H2293 H 0.68504 0.78264 0.23141 0.0
H2294 H 0.66183 0.77549 0.24639 0.0
H2295 H 0.67428 0.77552 0.29579 0.0
H2296 H 0.60731 0.77816 0.33999 0.0
H2297 H 0.63033 0.78375 0.3244 0.0
C2298 C 0.04292 0.0894 0.00828 0.0
C2299 C 0.05911 0.08423 0.01036 0.0
C2300 C 0.03916 0.10096 0.99773 0.0
C2301 C 0.05882 0.13343 0.97646 0.0
H2302 H 0.01837 0.12803 0.95068 0.0
C2303 C 0.04729 0.17303 0.92582 0.0
C2304 C 0.03149 0.17915 0.92363 0.0
C2305 C 0.05027 0.16126 0.9363 0.0
C2306 C 0.02964 0.12979 0.95791 0.0
H2307 H 0.08397 0.08686 0.00303 0.0
H2308 H 0.07742 0.10687 0.98453 0.0
H2309 H 0.02424 0.10795 0.96933 0.0
H2310 H 0.00641 0.1776 0.93074 0.0
H2311 H 0.01162 0.15698 0.94899 0.0
H2312 H 0.06426 0.15521 0.96503 0.0
C2313 C 0.06767 0.10225 0.99117 0.0
C2314 C 0.03299 0.1183 0.9686 0.0
C2315 C 0.07141 0.09073 0.00169 0.0
C2316 C 0.01867 0.173 0.932 0.0
C2317 C 0.02166 0.16119 0.94248 0.0
C2318 C 0.05548 0.14488 0.96577 0.0
C2319 C 0.05152 0.10755 0.98909 0.0
C2320 C 0.04767 0.11994 0.97795 0.0
C2321 C 0.03753 0.15529 0.94484 0.0
C2322 C 0.0409 0.14316 0.95631 0.0
H2323 H 0.03316 0.0846 0.01481 0.0
H2324 H 0.02663 0.1049 0.99651 0.0
H2325 H 0.07009 0.13523 0.98368 0.0
H2326 H 0.05736 0.17727 0.91937 0.0
H2327 H 0.06256 0.15674 0.93765 0.0
C2328 C 0.36209 0.27445 0.26883 0.0
C2329 C 0.34565 0.27728 0.26436 0.0
C2330 C 0.37392 0.27304 0.25815 0.0
C2331 C 0.37888 0.26341 0.2179 0.0
H2332 H 0.4212 0.28753 0.22597 0.0
C2333 C 0.42719 0.26712 0.17298 0.0
C2334 C 0.44393 0.2665 0.17792 0.0
C2335 C 0.41503 0.26854 0.18337 0.0
C2336 C 0.40955 0.28052 0.22361 0.0
H2337 H 0.32854 0.28048 0.24516 0.0
H2338 H 0.34921 0.27789 0.22648 0.0
H2339 H 0.40036 0.28936 0.24444 0.0
H2340 H 0.46097 0.26715 0.19776 0.0
H2341 H 0.4398 0.26899 0.21579 0.0
H2342 H 0.38811 0.25433 0.19719 0.0
C2343 C 0.35295 0.27679 0.23826 0.0
C2344 C 0.39759 0.28162 0.23419 0.0
C2345 C 0.34115 0.27836 0.24896 0.0
C2346 C 0.44819 0.26735 0.19351 0.0
C2347 C 0.43605 0.26866 0.20389 0.0
C2348 C 0.39089 0.2622 0.20735 0.0
C2349 C 0.36949 0.27425 0.24275 0.0
C2350 C 0.38214 0.27307 0.23146 0.0
C2351 C 0.4193 0.2693 0.19897 0.0
C2352 C 0.4064 0.27072 0.21008 0.0
H2353 H 0.36584 0.27352 0.28063 0.0
H2354 H 0.38653 0.27089 0.26193 0.0
H2355 H 0.36713 0.25654 0.21556 0.0
H2356 H 0.42341 0.26632 0.16107 0.0
H2357 H 0.40229 0.2692 0.17916 0.0
C2358 C 0.57207 0.4289 0.00906 0.0
C2359 C 0.55961 0.43619 0.00055 0.0
C2360 C 0.56811 0.41631 0.0184 0.0
C2361 C 0.53416 0.39834 0.03872 0.0
H2362 H 0.56074 0.3601 0.03882 0.0
C2363 C 0.51685 0.34044 0.07039 0.0
C2364 C 0.52985 0.33244 0.07752 0.0
C2365 C 0.52016 0.35332 0.06111 0.0
C2366 C 0.55332 0.37078 0.03909 0.0
H2367 H 0.53317 0.43618 0.99523 0.0
H2368 H 0.52622 0.41413 0.01158 0.0
H2369 H 0.56708 0.38208 0.02238 0.0
H2370 H 0.5565 0.33208 0.08098 0.0
H2371 H 0.56229 0.35464 0.065 0.0
H2372 H 0.5205 0.38711 0.05555 0.0
C2373 C 0.53907 0.4182 0.01106 0.0
C2374 C 0.55694 0.38336 0.02963 0.0
C2375 C 0.54305 0.43076 0.00163 0.0
C2376 C 0.54622 0.33781 0.07543 0.0
C2377 C 0.54953 0.35072 0.06623 0.0
C2378 C 0.53058 0.38577 0.04825 0.0
C2379 C 0.55157 0.41079 0.0195 0.0
C2380 C 0.54745 0.39731 0.02937 0.0
C2381 C 0.53655 0.35853 0.05883 0.0
C2382 C 0.54017 0.37187 0.0486 0.0
H2383 H 0.58492 0.43293 0.00847 0.0
H2384 H 0.578 0.411 0.02491 0.0
H2385 H 0.52674 0.40902 0.03889 0.0
H2386 H 0.50412 0.33646 0.07166 0.0
H2387 H 0.50987 0.35891 0.05545 0.0
C2388 C 0.70513 0.21348 0.23421 0.0
C2389 C 0.70573 0.21834 0.24962 0.0
C2390 C 0.69132 0.21641 0.22475 0.0
C2391 C 0.6471 0.22508 0.22545 0.0
H2392 H 0.65304 0.24072 0.18575 0.0
C2393 C 0.59323 0.2485 0.1887 0.0
C2394 C 0.59221 0.24365 0.17325 0.0
C2395 C 0.60717 0.24541 0.1979 0.0
C2396 C 0.65117 0.23619 0.19674 0.0
H2397 H 0.69233 0.23008 0.26729 0.0
H2398 H 0.66835 0.23533 0.2508 0.0
H2399 H 0.67717 0.23515 0.20202 0.0
H2400 H 0.60521 0.23202 0.15528 0.0
H2401 H 0.62944 0.22638 0.17138 0.0
H2402 H 0.62111 0.22614 0.22019 0.0
C2403 C 0.67844 0.22907 0.24601 0.0
C2404 C 0.66499 0.23298 0.20606 0.0
C2405 C 0.69224 0.22614 0.25545 0.0
C2406 C 0.60553 0.23575 0.16717 0.0
C2407 C 0.61949 0.23268 0.17637 0.0
C2408 C 0.63328 0.22829 0.21614 0.0
C2409 C 0.67781 0.22425 0.23055 0.0
C2410 C 0.66312 0.22743 0.22054 0.0
C2411 C 0.62044 0.23741 0.19185 0.0
C2412 C 0.63515 0.23392 0.20169 0.0
H2413 H 0.71535 0.2074 0.22946 0.0
H2414 H 0.69114 0.21237 0.21293 0.0
H2415 H 0.64521 0.22055 0.23643 0.0
H2416 H 0.58312 0.25447 0.19377 0.0
H2417 H 0.60759 0.24938 0.20975 0.0
C2418 C 0.49575 0.07309 0.9918 0.0
C2419 C 0.4798 0.06839 0.98545 0.0
C2420 C 0.49843 0.08723 0.0015 0.0
C2421 C 0.4805 0.12649 0.01255 0.0
H2422 H 0.50741 0.12376 0.04977 0.0
C2423 C 0.48369 0.17773 0.06047 0.0
C2424 C 0.49906 0.1816 0.06834 0.0
C2425 C 0.48157 0.16412 0.05008 0.0
C2426 C 0.50005 0.12482 0.03934 0.0
H2427 H 0.45425 0.07503 0.98397 0.0
H2428 H 0.45891 0.09967 0.00098 0.0
H2429 H 0.50352 0.09983 0.0319 0.0
H2430 H 0.52438 0.17445 0.07126 0.0
H2431 H 0.52076 0.15082 0.05304 0.0
H2432 H 0.47707 0.15148 0.01993 0.0
C2433 C 0.46935 0.09245 0.99843 0.0
C2434 C 0.49782 0.11109 0.02911 0.0
C2435 C 0.46665 0.07827 0.98881 0.0
C2436 C 0.5123 0.17163 0.06554 0.0
C2437 C 0.51022 0.15807 0.05511 0.0
C2438 C 0.4828 0.14025 0.02275 0.0
C2439 C 0.48524 0.09702 0.00498 0.0
C2440 C 0.48796 0.11175 0.01563 0.0
C2441 C 0.49481 0.15412 0.04728 0.0
C2442 C 0.49255 0.13956 0.0363 0.0
H2443 H 0.5061 0.06565 0.98951 0.0
H2444 H 0.51084 0.09052 0.00627 0.0
H2445 H 0.47301 0.12744 0.00217 0.0
H2446 H 0.4732 0.18507 0.06252 0.0
H2447 H 0.46947 0.16128 0.04443 0.0
C2448 C 0.26465 0.34275 0.70418 0.0
C2449 C 0.26063 0.33221 0.7155 0.0
C2450 C 0.27548 0.35652 0.70748 0.0
C2451 C 0.29343 0.38498 0.73857 0.0
H2452 H 0.32707 0.39397 0.71067 0.0
C2453 C 0.34615 0.43535 0.75153 0.0
C2454 C 0.35071 0.44474 0.73955 0.0
C2455 C 0.33501 0.42168 0.74894 0.0
C2456 C 0.31763 0.39176 0.71849 0.0
H2457 H 0.26479 0.32798 0.73923 0.0
H2458 H 0.28365 0.35215 0.74502 0.0
H2459 H 0.30785 0.3701 0.70557 0.0
H2460 H 0.34709 0.44705 0.71543 0.0
H2461 H 0.32737 0.42353 0.71099 0.0
H2462 H 0.30316 0.40674 0.75145 0.0
C2463 C 0.2783 0.34977 0.7336 0.0
C2464 C 0.30663 0.37807 0.71557 0.0
C2465 C 0.26749 0.33594 0.73028 0.0
C2466 C 0.34373 0.44022 0.72495 0.0
C2467 C 0.33258 0.42659 0.72237 0.0
C2468 C 0.30442 0.39874 0.74148 0.0
C2469 C 0.28251 0.36013 0.7222 0.0
C2470 C 0.29435 0.37456 0.72553 0.0
C2471 C 0.32816 0.41708 0.73431 0.0
C2472 C 0.3166 0.40234 0.73142 0.0
H2473 H 0.25932 0.34042 0.69274 0.0
H2474 H 0.27824 0.36443 0.69851 0.0
H2475 H 0.28399 0.38269 0.74638 0.0
H2476 H 0.35115 0.4386 0.76294 0.0
H2477 H 0.33198 0.41455 0.75837 0.0
C2478 C 0.2773 0.68211 0.80172 0.0
C2479 C 0.2732 0.69296 0.79054 0.0
C2480 C 0.28878 0.67018 0.79921 0.0
C2481 C 0.32314 0.65951 0.77598 0.0
H2482 H 0.31169 0.61472 0.78561 0.0
C2483 C 0.36858 0.60693 0.77223 0.0
C2484 C 0.36206 0.59189 0.7652 0.0
C2485 C 0.35818 0.6196 0.77568 0.0
C2486 C 0.31504 0.62716 0.78284 0.0
H2487 H 0.27824 0.70013 0.76816 0.0
H2488 H 0.2983 0.67929 0.76377 0.0
H2489 H 0.29288 0.63644 0.79109 0.0
H2490 H 0.33953 0.57826 0.75645 0.0
H2491 H 0.32138 0.60039 0.76246 0.0
H2492 H 0.34524 0.65017 0.76758 0.0
C2493 C 0.29264 0.68002 0.77447 0.0
C2494 C 0.30435 0.63962 0.7861 0.0
C2495 C 0.28106 0.69184 0.77693 0.0
C2496 C 0.34493 0.58977 0.76173 0.0
C2497 C 0.33453 0.60237 0.76531 0.0
C2498 C 0.33391 0.64707 0.77284 0.0
C2499 C 0.29651 0.66896 0.78553 0.0
C2500 C 0.30822 0.6559 0.78261 0.0
C2501 C 0.34103 0.61741 0.77233 0.0
C2502 C 0.3299 0.63074 0.77612 0.0
H2503 H 0.27137 0.68262 0.81229 0.0
H2504 H 0.29162 0.66191 0.80798 0.0
H2505 H 0.3265 0.67196 0.77327 0.0
H2506 H 0.38175 0.60893 0.77496 0.0
H2507 H 0.36352 0.63103 0.78118 0.0
C2508 C 0.92966 0.52518 0.47673 0.0
C2509 C 0.94419 0.51867 0.47159 0.0
C2510 C 0.91606 0.51479 0.47933 0.0
C2511 C 0.89556 0.47492 0.46828 0.0
H2512 H 0.87686 0.47827 0.50728 0.0
C2513 C 0.84552 0.42759 0.48432 0.0
C2514 C 0.83319 0.43302 0.49356 0.0
C2515 C 0.85906 0.43805 0.48168 0.0
C2516 C 0.8817 0.47732 0.49622 0.0
H2517 H 0.95563 0.49597 0.46516 0.0
H2518 H 0.93158 0.47797 0.46911 0.0
H2519 H 0.90014 0.49676 0.50225 0.0
H2520 H 0.82568 0.45386 0.50737 0.0
H2521 H 0.84868 0.47231 0.50208 0.0
H2522 H 0.8769 0.45593 0.46196 0.0
C2523 C 0.93087 0.49115 0.47118 0.0
C2524 C 0.8951 0.48787 0.4934 0.0
C2525 C 0.9446 0.5015 0.46885 0.0
C2526 C 0.83475 0.44925 0.50001 0.0
C2527 C 0.84815 0.4598 0.49718 0.0
C2528 C 0.88197 0.46456 0.47098 0.0
C2529 C 0.91655 0.4977 0.47657 0.0
C2530 C 0.90219 0.4867 0.47944 0.0
C2531 C 0.86053 0.45433 0.488 0.0
C2532 C 0.87489 0.46555 0.48503 0.0
H2533 H 0.92871 0.53833 0.47866 0.0
H2534 H 0.90506 0.52013 0.48332 0.0
H2535 H 0.90073 0.4739 0.45736 0.0
H2536 H 0.84468 0.41529 0.47893 0.0
H2537 H 0.86844 0.43326 0.47476 0.0
C2538 C 0.76254 0.8148 0.77013 0.0
C2539 C 0.76982 0.81436 0.78484 0.0
C2540 C 0.75116 0.82657 0.76669 0.0
C2541 C 0.72352 0.856 0.78432 0.0
H2542 H 0.72673 0.87785 0.74701 0.0
C2543 C 0.69171 0.91621 0.77339 0.0
C2544 C 0.68413 0.91785 0.75897 0.0
C2545 C 0.70131 0.90284 0.77622 0.0
C2546 C 0.72553 0.87172 0.75738 0.0
H2547 H 0.77091 0.82599 0.80745 0.0
H2548 H 0.75116 0.84656 0.80145 0.0
H2549 H 0.74496 0.8558 0.75258 0.0
H2550 H 0.6807 0.90672 0.73619 0.0
H2551 H 0.69741 0.88325 0.74116 0.0
H2552 H 0.70427 0.87212 0.78922 0.0
C2553 C 0.75399 0.83762 0.79262 0.0
C2554 C 0.73597 0.85906 0.76058 0.0
C2555 C 0.76533 0.82584 0.79606 0.0
C2556 C 0.68629 0.90574 0.74744 0.0
C2557 C 0.69598 0.89239 0.75026 0.0
C2558 C 0.71313 0.86869 0.78115 0.0
C2559 C 0.74682 0.8382 0.77787 0.0
C2560 C 0.73519 0.85114 0.77415 0.0
C2561 C 0.7036 0.8908 0.76468 0.0
C2562 C 0.71411 0.87679 0.76771 0.0
H2563 H 0.76559 0.80598 0.76129 0.0
H2564 H 0.74568 0.82649 0.75528 0.0
H2565 H 0.72238 0.84996 0.79475 0.0
H2566 H 0.69013 0.92522 0.78256 0.0
H2567 H 0.70715 0.90207 0.78741 0.0
C2568 C 0.58337 0.52411 0.96959 0.0
C2569 C 0.58521 0.50726 0.97141 0.0
C2570 C 0.59678 0.53549 0.97259 0.0
C2571 C 0.638 0.54173 0.9926 0.0
H2572 H 0.64545 0.57392 0.96303 0.0
C2573 C 0.69898 0.58143 0.99291 0.0
C2574 C 0.69806 0.5979 0.98913 0.0
C2575 C 0.68493 0.57069 0.99136 0.0
C2576 C 0.64344 0.56519 0.97152 0.0
H2577 H 0.60261 0.48921 0.97801 0.0
H2578 H 0.62598 0.50913 0.98338 0.0
H2579 H 0.62134 0.55474 0.95955 0.0
H2580 H 0.68158 0.61593 0.98076 0.0
H2581 H 0.65701 0.59733 0.97847 0.0
H2582 H 0.66008 0.55218 0.0046 0.0
C2583 C 0.61411 0.51352 0.97974 0.0
C2584 C 0.62962 0.55418 0.96951 0.0
C2585 C 0.6007 0.50212 0.97667 0.0
C2586 C 0.68271 0.60338 0.98391 0.0
C2587 C 0.66865 0.59265 0.98241 0.0
C2588 C 0.65179 0.5528 0.99466 0.0
C2589 C 0.61234 0.5303 0.97755 0.0
C2590 C 0.62679 0.54228 0.97999 0.0
C2591 C 0.6696 0.57615 0.98606 0.0
C2592 C 0.65472 0.56461 0.9841 0.0
H2593 H 0.57153 0.52853 0.96583 0.0
H2594 H 0.59498 0.54838 0.97104 0.0
H2595 H 0.63603 0.53282 0.00096 0.0
H2596 H 0.71055 0.57684 0.99716 0.0
H2597 H 0.68616 0.55802 0.99412 0.0
C2598 C 0.27471 0.66721 0.22065 0.0
C2599 C 0.26877 0.68311 0.22149 0.0
C2600 C 0.26411 0.65349 0.22233 0.0
C2601 C 0.22741 0.64042 0.24028 0.0
H2602 H 0.22409 0.60349 0.21052 0.0
C2603 C 0.18105 0.58508 0.24451 0.0
C2604 C 0.18565 0.56933 0.23958 0.0
C2605 C 0.19084 0.59913 0.24201 0.0
C2606 C 0.22505 0.61355 0.21909 0.0
H2607 H 0.24727 0.69726 0.22478 0.0
H2608 H 0.22874 0.67318 0.22811 0.0
H2609 H 0.24197 0.62763 0.20672 0.0
H2610 H 0.20431 0.55618 0.22808 0.0
H2611 H 0.22179 0.58045 0.22459 0.0
H2612 H 0.21112 0.62625 0.25301 0.0
C2613 C 0.24155 0.67138 0.22601 0.0
C2614 C 0.23521 0.62741 0.21682 0.0
C2615 C 0.25208 0.68509 0.22403 0.0
C2616 C 0.20043 0.56803 0.23226 0.0
C2617 C 0.21035 0.58205 0.22999 0.0
C2618 C 0.21749 0.62644 0.2427 0.0
C2619 C 0.24749 0.65548 0.22514 0.0
C2620 C 0.23646 0.64096 0.22739 0.0
C2621 C 0.20565 0.59782 0.23474 0.0
C2622 C 0.21616 0.61279 0.23213 0.0
H2623 H 0.28753 0.6654 0.21863 0.0
H2624 H 0.26898 0.64135 0.2217 0.0
H2625 H 0.22834 0.65067 0.24867 0.0
H2626 H 0.16991 0.58662 0.25039 0.0
H2627 H 0.18664 0.61103 0.24566 0.0
C2628 C 0.93228 0.50291 0.02738 0.0
C2629 C 0.94801 0.5086 0.03356 0.0
C2630 C 0.91979 0.51388 0.02513 0.0
C2631 C 0.90787 0.55614 0.03629 0.0
H2632 H 0.87852 0.5496 1.00013 0.0
C2633 C 0.86315 0.60493 0.01672 0.0
C2634 C 0.84694 0.59912 0.01206 0.0
C2635 C 0.87544 0.59388 0.01955 0.0
C2636 C 0.88654 0.5515 0.01034 0.0
H2637 H 0.96305 0.53025 0.04217 0.0
H2638 H 0.94138 0.54946 0.03802 0.0
H2639 H 0.90001 0.53034 0.00478 0.0
H2640 H 0.83095 0.57722 0.00645 0.0
H2641 H 0.85243 0.55792 0.01136 0.0
H2642 H 0.89451 0.5775 0.04166 0.0
C2643 C 0.93853 0.53648 0.03521 0.0
C2644 C 0.89883 0.54044 0.01305 0.0
C2645 C 0.95097 0.52548 0.03756 0.0
C2646 C 0.8433 0.58205 0.01016 0.0
C2647 C 0.85562 0.57101 0.01284 0.0
C2648 C 0.89566 0.56728 0.03351 0.0
C2649 C 0.92279 0.53083 0.0289 0.0
C2650 C 0.90964 0.54259 0.02608 0.0
C2651 C 0.87181 0.57681 0.01761 0.0
C2652 C 0.88485 0.56506 0.02052 0.0
H2653 H 0.92959 0.48993 0.02437 0.0
H2654 H 0.90774 0.50903 0.02053 0.0
H2655 H 0.91579 0.55805 0.04656 0.0
H2656 H 0.86628 0.61802 0.01837 0.0
H2657 H 0.88784 0.59869 0.02309 0.0
C2658 C 0.08043 0.00059 0.04509 0.0
C2659 C 0.08349 0.01773 0.04545 0.0
C2660 C 0.09296 0.99 0.04186 0.0
C2661 C 0.13372 0.98951 0.02487 0.0
H2662 H 0.13678 0.94801 0.04379 0.0
C2663 C 0.1904 0.94959 0.02188 0.0
C2664 C 0.18707 0.93273 0.018 0.0
C2665 C 0.17756 0.95978 0.02503 0.0
C2666 C 0.13598 0.95952 0.03835 0.0
H2667 H 0.10211 0.03726 0.0433 0.0
H2668 H 0.12413 0.01888 0.0382 0.0
H2669 H 0.11497 0.96624 0.05019 0.0
H2670 H 0.1678 0.91326 0.01454 0.0
H2671 H 0.1453 0.9311 0.02028 0.0
H2672 H 0.15506 0.98289 0.01337 0.0
C2673 C 0.11196 0.01352 0.03988 0.0
C2674 C 0.12346 0.96995 0.04196 0.0
C2675 C 0.09939 0.02408 0.04289 0.0
C2676 C 0.17067 0.92624 0.0174 0.0
C2677 C 0.15784 0.93639 0.02079 0.0
C2678 C 0.14636 0.97918 0.02143 0.0
C2679 C 0.10888 0.99633 0.03912 0.0
C2680 C 0.12217 0.98511 0.03528 0.0
C2681 C 0.16117 0.95327 0.0246 0.0
C2682 C 0.14762 0.96409 0.02814 0.0
H2683 H 0.06822 0.9954 0.0469 0.0
H2684 H 0.09002 0.97686 0.04117 0.0
H2685 H 0.13294 0.00087 0.01922 0.0
H2686 H 0.20293 0.95491 0.02234 0.0
H2687 H 0.18047 0.97273 0.02803 0.0
loop_
_geom_bond_atom_site_label_1
_geom_bond_atom_site_label_2
_geom_bond_distance
_geom_bond_site_symmetry_2
_ccdc_geom_bond_type
H0 C5 0.930 . S
H1 C8 0.930 . S
H2 C10 0.930 . S
H3 C4 1.016 . S
C4 H3 1.016 . S
C4 N11 1.286 . S
C5 H0 0.930 . S
C5 C6 1.397 . S
C5 C7 1.361 . S
C6 C5 1.397 . S
C6 C10 1.390 . S
C7 C5 1.361 . S
C7 C8 1.393 . S
C7 N11 1.413 . S
C8 H1 0.930 . S
C8 C7 1.393 . S
C8 C9 1.399 . S
C9 C8 1.399 . S
C9 C10 1.381 . S
C10 H2 0.930 . S
C10 C6 1.390 . S
C10 C9 1.381 . S
N11 C4 1.286 . S
N11 C7 1.413 . S
H12 C17 0.930 . S
H13 C20 0.930 . S
H14 C22 0.930 . S
H15 C16 1.016 . S
C16 H15 1.016 . S
C16 N23 1.286 . S
C17 H12 0.930 . S
C17 C18 1.397 . S
C17 C19 1.361 . S
C18 C17 1.397 . S
C18 C22 1.390 . S
C19 C17 1.361 . S
C19 C20 1.393 . S
C19 N23 1.413 . S
C20 H13 0.930 . S
C20 C19 1.393 . S
C20 C21 1.399 . S
C21 C20 1.399 . S
C21 C22 1.381 . S
C22 H14 0.930 . S
C22 C18 1.390 . S
C22 C21 1.381 . S
N23 C16 1.286 . S
N23 C19 1.413 . S
H24 C29 0.930 . S
H25 C32 0.930 . S
H26 C34 0.930 . S
H27 C28 1.016 . S
C28 H27 1.016 . S
C28 N35 1.286 . S
C29 H24 0.930 . S
C29 C30 1.397 . S
C29 C31 1.361 . S
C30 C29 1.397 . S
C30 C34 1.390 . S
C31 C29 1.361 . S
C31 C32 1.393 . S
C31 N35 1.413 . S
C32 H25 0.930 . S
C32 C31 1.393 . S
C32 C33 1.399 . S
C33 C32 1.399 . S
C33 C34 1.381 . S
C34 H26 0.930 . S
C34 C30 1.390 . S
C34 C33 1.381 . S
N35 C28 1.286 . S
N35 C31 1.413 . S
H36 C41 0.930 . S
H37 C44 0.930 . S
H38 C46 0.930 . S
H39 C40 1.016 . S
C40 H39 1.016 . S
C40 N47 1.286 . S
C41 H36 0.930 . S
C41 C42 1.397 . S
C41 C43 1.361 . S
C42 C41 1.397 . S
C42 C46 1.390 . S
C43 C41 1.361 . S
C43 C44 1.393 . S
C43 N47 1.413 . S
C44 H37 0.930 . S
C44 C43 1.393 . S
C44 C45 1.399 . S
C45 C44 1.399 . S
C45 C46 1.381 . S
C46 H38 0.930 . S
C46 C42 1.390 . S
C46 C45 1.381 . S
N47 C40 1.286 . S
N47 C43 1.413 . S
H48 C53 0.930 . S
H49 C56 0.930 . S
H50 C58 0.913 1_545 S
H51 C52 1.016 . S
C52 H51 1.016 . S
C52 N59 1.286 . S
C53 H48 0.930 . S
C53 C54 1.397 . S
C53 C55 1.361 . S
C54 C53 1.397 . S
C54 C58 1.390 . S
C55 C53 1.361 . S
C55 C56 1.393 . S
C55 N59 1.413 . S
C56 H49 0.930 . S
C56 C55 1.393 . S
C56 C57 1.399 . S
C57 C56 1.399 . S
C57 C58 1.381 . S
C58 H50 0.913 1_565 S
C58 C54 1.390 . S
C58 C57 1.381 . S
N59 C52 1.286 . S
N59 C55 1.413 . S
H60 C65 0.930 . S
H61 C68 0.930 . S
H62 C70 0.930 . S
H63 C64 1.016 . S
C64 H63 1.016 . S
C64 N71 1.286 . S
C65 H60 0.930 . S
C65 C66 1.397 . S
C65 C67 1.361 . S
C66 C65 1.397 . S
C66 C70 1.390 . S
C67 C65 1.361 . S
C67 C68 1.393 . S
C67 N71 1.413 . S
C68 H61 0.930 . S
C68 C67 1.393 . S
C68 C69 1.399 . S
C69 C68 1.399 . S
C69 C70 1.381 . S
C70 H62 0.930 . S
C70 C66 1.390 . S
C70 C69 1.381 . S
N71 C64 1.286 . S
N71 C67 1.413 . S
H72 C77 0.930 1_455 S
H73 C80 0.930 . S
H74 C82 0.930 . S
H75 C76 1.016 . S
C76 H75 1.016 . S
C76 N83 1.286 . S
C77 H72 0.930 1_655 S
C77 C78 1.397 . S
C77 C79 1.361 . S
C78 C77 1.397 . S
C78 C82 1.390 . S
C79 C77 1.361 . S
C79 C80 1.393 . S
C79 N83 1.413 1_655 S
C80 H73 0.930 . S
C80 C79 1.393 . S
C80 C81 1.399 . S
C81 C80 1.399 . S
C81 C82 1.381 . S
C82 H74 0.930 . S
C82 C78 1.390 . S
C82 C81 1.381 . S
N83 C76 1.286 . S
N83 C79 1.413 1_455 S
H84 C89 0.930 . S
H85 C92 0.930 . S
H86 C94 0.930 . S
H87 C88 1.016 . S
C88 H87 1.016 . S
C88 N95 1.286 . S
C89 H84 0.930 . S
C89 C90 1.397 . S
C89 C91 1.361 . S
C90 C89 1.397 . S
C90 C94 1.390 . S
C91 C89 1.361 . S
C91 C92 1.393 . S
C91 N95 1.413 . S
C92 H85 0.930 . S
C92 C91 1.393 . S
C92 C93 1.399 . S
C93 C92 1.399 . S
C93 C94 1.381 . S
C94 H86 0.930 . S
C94 C90 1.390 . S
C94 C93 1.381 . S
N95 C88 1.286 . S
N95 C91 1.413 . S
H96 C101 0.930 . S
H97 C104 0.930 . S
H98 C106 0.930 . S
H99 C100 1.016 . S
C100 H99 1.016 . S
C100 N107 1.286 . S
C101 H96 0.930 . S
C101 C102 1.397 . S
C101 C103 1.361 . S
C102 C101 1.397 . S
C102 C106 1.390 . S
C103 C101 1.361 . S
C103 C104 1.393 . S
C103 N107 1.413 . S
C104 H97 0.930 . S
C104 C103 1.393 . S
C104 C105 1.399 . S
C105 C104 1.399 . S
C105 C106 1.381 . S
C106 H98 0.930 . S
C106 C102 1.390 . S
C106 C105 1.381 . S
N107 C100 1.286 . S
N107 C103 1.413 . S
H108 C113 0.930 . S
H109 C116 0.930 . S
H110 C118 0.930 1_545 S
H111 C112 1.016 . S
C112 H111 1.016 . S
C112 N119 1.286 . S
C113 H108 0.930 . S
C113 C114 1.397 . S
C113 C115 1.361 . S
C114 C113 1.397 . S
C114 C118 1.390 . S
C115 C113 1.361 . S
C115 C116 1.393 . S
C115 N119 1.413 . S
C116 H109 0.930 . S
C116 C115 1.393 . S
C116 C117 1.399 . S
C117 C116 1.399 . S
C117 C118 1.381 . S
C118 H110 0.930 1_565 S
C118 C114 1.390 . S
C118 C117 1.381 . S
N119 C112 1.286 . S
N119 C115 1.413 . S
H120 C125 0.930 . S
H121 C128 0.930 . S
H122 C130 0.930 . S
H123 C124 1.016 . S
C124 H123 1.016 . S
C124 N131 1.286 . S
C125 H120 0.930 . S
C125 C126 1.397 . S
C125 C127 1.361 . S
C126 C125 1.397 . S
C126 C130 1.390 . S
C127 C125 1.361 . S
C127 C128 1.393 . S
C127 N131 1.413 . S
C128 H121 0.930 . S
C128 C127 1.393 . S
C128 C129 1.399 . S
C129 C128 1.399 . S
C129 C130 1.381 . S
C130 H122 0.930 . S
C130 C126 1.390 . S
C130 C129 1.381 . S
N131 C124 1.286 . S
N131 C127 1.413 . S
H132 C137 0.930 . S
H133 C140 0.930 . S
H134 C142 0.930 . S
H135 C136 1.016 . S
C136 H135 1.016 . S
C136 N143 1.286 . S
C137 H132 0.930 . S
C137 C138 1.397 . S
C137 C139 1.361 . S
C138 C137 1.397 . S
C138 C142 1.390 . S
C139 C137 1.361 . S
C139 C140 1.393 . S
C139 N143 1.413 . S
C140 H133 0.930 . S
C140 C139 1.393 . S
C140 C141 1.399 . S
C141 C140 1.399 . S
C141 C142 1.381 . S
C142 H134 0.930 . S
C142 C138 1.390 . S
C142 C141 1.381 . S
N143 C136 1.286 . S
N143 C139 1.413 . S
H144 C149 0.930 . S
H145 C152 0.930 . S
H146 C154 0.930 . S
H147 C148 1.016 . S
C148 H147 1.016 . S
C148 N155 1.286 . S
C149 H144 0.930 . S
C149 C150 1.397 . S
C149 C151 1.361 . S
C150 C149 1.397 . S
C150 C154 1.390 . S
C151 C149 1.361 . S
C151 C152 1.393 . S
C151 N155 1.413 . S
C152 H145 0.930 . S
C152 C151 1.393 . S
C152 C153 1.399 . S
C153 C152 1.399 . S
C153 C154 1.381 . S
C154 H146 0.930 . S
C154 C150 1.390 . S
C154 C153 1.381 . S
N155 C148 1.286 . S
N155 C151 1.413 . S
H156 C161 0.930 . S
H157 C164 0.930 . S
H158 C166 0.930 . S
H159 C160 1.036 . S
C160 H159 1.036 . S
C160 N167 1.286 . S
C161 H156 0.930 . S
C161 C162 1.397 . S
C161 C163 1.361 . S
C162 C161 1.397 . S
C162 C166 1.390 . S
C163 C161 1.361 . S
C163 C164 1.393 . S
C163 N167 1.413 . S
C164 H157 0.930 . S
C164 C163 1.393 . S
C164 C165 1.399 . S
C165 C164 1.399 . S
C165 C166 1.381 . S
C166 H158 0.930 . S
C166 C162 1.390 . S
C166 C165 1.381 . S
N167 C160 1.286 . S
N167 C163 1.413 . S
H168 C173 0.930 . S
H169 C176 0.930 . S
H170 C178 0.930 . S
H171 C172 1.016 . S
C172 H171 1.016 . S
C172 N179 1.286 . S
C173 H168 0.930 . S
C173 C174 1.397 . S
C173 C175 1.361 . S
C174 C173 1.397 . S
C174 C178 1.390 . S
C175 C173 1.361 . S
C175 C176 1.393 . S
C175 N179 1.413 . S
C176 H169 0.930 . S
C176 C175 1.393 . S
C176 C177 1.399 . S
C177 C176 1.399 . S
C177 C178 1.381 . S
C178 H170 0.930 . S
C178 C174 1.390 . S
C178 C177 1.381 . S
N179 C172 1.286 . S
N179 C175 1.413 . S
H180 C185 0.930 . S
H181 C188 0.930 . S
H182 C190 0.930 . S
H183 C184 1.016 . S
C184 H183 1.016 . S
C184 N191 1.286 . S
C185 H180 0.930 . S
C185 C186 1.397 . S
C185 C187 1.361 . S
C186 C185 1.397 . S
C186 C190 1.390 . S
C187 C185 1.361 . S
C187 C188 1.393 . S
C187 N191 1.413 . S
C188 H181 0.930 . S
C188 C187 1.393 . S
C188 C189 1.399 . S
C189 C188 1.399 . S
C189 C190 1.381 . S
C190 H182 0.930 . S
C190 C186 1.390 . S
C190 C189 1.381 . S
N191 C184 1.286 . S
N191 C187 1.413 . S
Li192 N209 1.990 . S
Li192 O252 1.956 . S
Li192 O253 1.970 . S
Li192 O254 1.961 1_554 S
Li193 N217 1.990 . S
Li193 O252 1.970 . S
Li193 O253 1.956 . S
Li193 O255 1.961 . S
Li194 N239 1.990 . S
Li194 O252 1.961 1_556 S
Li194 O254 1.956 . S
Li194 O255 1.970 1_556 S
Li195 N245 1.990 . S
Li195 O253 1.961 . S
Li195 O254 1.970 1_554 S
Li195 O255 1.956 . S
C196 C198 1.348 . S
C196 C199 1.356 1_554 S
C196 O252 1.325 . S
N197 C200 1.314 . S
N197 C201 1.279 1_554 S
C198 C196 1.348 . S
C198 C200 1.353 . S
C198 H256 0.929 . S
C199 C196 1.356 1_556 S
C199 C201 1.358 . S
C199 H257 0.930 . S
C200 N197 1.314 . S
C200 C198 1.353 . S
C200 H258 0.930 . S
C201 N197 1.279 1_556 S
C201 C199 1.358 . S
C201 H259 0.930 . S
C202 C205 1.348 . S
C202 C206 1.356 . S
C202 O253 1.325 . S
C203 N204 1.279 . S
C203 C206 1.358 . S
C203 H260 0.930 . S
N204 C203 1.279 . S
N204 C207 1.314 . S
C205 C202 1.348 . S
C205 C207 1.353 . S
C205 H261 0.929 . S
C206 C202 1.356 . S
C206 C203 1.358 . S
C206 H262 0.930 . S
C207 N204 1.314 . S
C207 C205 1.353 . S
C207 H263 0.930 . S
C208 N209 1.314 . S
C208 C213 1.353 . S
C208 H214 0.930 . S
N209 Li192 1.990 . S
N209 C208 1.314 . S
N209 C211 1.279 . S
C210 C211 1.358 . S
C210 C212 1.356 . S
C210 H264 0.930 . S
C211 N209 1.279 . S
C211 C210 1.358 . S
C211 H215 0.930 . S
C212 C210 1.356 . S
C212 C213 1.348 . S
C213 C208 1.353 . S
C213 C212 1.348 . S
C213 H265 0.915 1_554 S
H214 C208 0.930 . S
H215 C211 0.930 . S
C216 N217 1.314 . S
C216 C218 1.353 . S
C216 H222 0.930 . S
N217 Li193 1.990 . S
N217 C216 1.314 . S
N217 C220 1.279 . S
C218 C216 1.353 . S
C218 C221 1.348 . S
C218 H266 0.929 . S
C219 C220 1.358 . S
C219 C221 1.356 . S
C219 H267 0.930 . S
C220 N217 1.279 . S
C220 C219 1.358 . S
C220 H223 0.930 . S
C221 C218 1.348 . S
C221 C219 1.356 . S
H222 C216 0.930 . S
H223 C220 0.930 . S
C224 C226 1.348 . S
C224 C227 1.356 . S
C224 O254 1.325 . S
N225 C228 1.314 . S
N225 C229 1.279 . S
C226 C224 1.348 . S
C226 C228 1.353 . S
C226 H268 0.929 . S
C227 C224 1.356 . S
C227 C229 1.358 . S
C227 H269 0.930 . S
C228 N225 1.314 . S
C228 C226 1.353 . S
C228 H270 0.930 . S
C229 N225 1.279 . S
C229 C227 1.358 . S
C229 H271 0.930 . S
C230 C231 1.352 . S
C230 C232 1.356 . S
C230 O255 1.325 . S
C231 C230 1.352 . S
C231 C233 1.354 . S
C231 H272 0.924 1_554 S
C232 C230 1.356 . S
C232 C234 1.358 . S
C232 H273 0.930 . S
C233 C231 1.354 . S
C233 N235 1.314 . S
C233 H274 0.930 1_554 S
C234 C232 1.358 . S
C234 N235 1.279 . S
C234 H275 0.930 . S
N235 C233 1.314 . S
N235 C234 1.279 . S
C236 C238 1.353 . S
C236 N239 1.314 . S
C236 H242 0.930 . S
C237 N239 1.279 . S
C237 C240 1.358 . S
C237 H243 0.930 . S
C238 C236 1.353 . S
C238 C241 1.348 . S
C238 H276 0.929 . S
N239 Li194 1.990 . S
N239 C236 1.314 . S
N239 C237 1.279 . S
C240 C237 1.358 . S
C240 C241 1.356 . S
C240 H277 0.930 . S
C241 C238 1.348 . S
C241 C240 1.356 . S
H242 C236 0.930 . S
H243 C237 0.930 . S
C244 N245 1.314 . S
C244 C246 1.353 . S
C244 H250 0.930 . S
N245 Li195 1.990 . S
N245 C244 1.314 . S
N245 C248 1.279 . S
C246 C244 1.353 . S
C246 C249 1.348 . S
C246 H278 0.929 . S
C247 C248 1.358 . S
C247 C249 1.356 . S
C247 H279 0.930 . S
C248 N245 1.279 . S
C248 C247 1.358 . S
C248 H251 0.930 . S
C249 C246 1.348 . S
C249 C247 1.356 . S
H250 C244 0.930 . S
H251 C248 0.930 . S
O252 Li192 1.956 . S
O252 Li193 1.970 . S
O252 Li194 1.961 1_554 S
O252 C196 1.325 . S
O253 Li192 1.970 . S
O253 Li193 1.956 . S
O253 Li195 1.961 . S
O253 C202 1.325 . S
O254 Li192 1.961 1_556 S
O254 Li194 1.956 . S
O254 Li195 1.970 1_556 S
O254 C224 1.325 . S
O255 Li193 1.961 . S
O255 Li194 1.970 1_554 S
O255 Li195 1.956 . S
O255 C230 1.325 . S
H256 C198 0.929 . S
H257 C199 0.930 . S
H258 C200 0.930 . S
H259 C201 0.930 . S
H260 C203 0.930 . S
H261 C205 0.929 . S
H262 C206 0.930 . S
H263 C207 0.930 . S
H264 C210 0.930 . S
H265 C213 0.915 1_556 S
H266 C218 0.929 . S
H267 C219 0.930 . S
H268 C226 0.929 . S
H269 C227 0.930 . S
H270 C228 0.930 . S
H271 C229 0.930 . S
H272 C231 0.924 1_556 S
H273 C232 0.930 . S
H274 C233 0.930 1_556 S
H275 C234 0.930 . S
H276 C238 0.929 . S
H277 C240 0.930 . S
H278 C246 0.929 . S
H279 C247 0.930 . S
Li280 N297 1.990 . S
Li280 O340 1.956 . S
Li280 O341 1.970 . S
Li280 O342 1.961 . S
Li281 N305 1.990 . S
Li281 O340 1.970 . S
Li281 O341 1.956 . S
Li281 O343 1.961 . S
Li282 N327 1.990 . S
Li282 O340 1.961 . S
Li282 O342 1.956 . S
Li282 O343 1.970 . S
Li283 N333 1.990 . S
Li283 O341 1.961 . S
Li283 O342 1.970 . S
Li283 O343 1.956 . S
C284 C286 1.348 . S
C284 C287 1.356 . S
C284 O340 1.325 . S
N285 C288 1.314 . S
N285 C289 1.279 . S
C286 C284 1.348 . S
C286 C288 1.353 . S
C286 H344 0.929 . S
C287 C284 1.356 . S
C287 C289 1.358 . S
C287 H345 0.930 . S
C288 N285 1.314 . S
C288 C286 1.353 . S
C288 H346 0.930 . S
C289 N285 1.279 . S
C289 C287 1.358 . S
C289 H347 0.930 . S
C290 C293 1.348 . S
C290 C294 1.356 . S
C290 O341 1.325 . S
C291 N292 1.279 . S
C291 C294 1.358 . S
C291 H348 0.930 . S
N292 C291 1.279 . S
N292 C295 1.314 . S
C293 C290 1.348 . S
C293 C295 1.353 . S
C293 H349 0.929 . S
C294 C290 1.356 . S
C294 C291 1.358 . S
C294 H350 0.930 . S
C295 N292 1.314 . S
C295 C293 1.353 . S
C295 H351 0.930 . S
C296 N297 1.314 . S
C296 C301 1.353 . S
C296 H302 0.930 . S
N297 Li280 1.990 . S
N297 C296 1.314 . S
N297 C299 1.279 . S
C298 C299 1.358 . S
C298 C300 1.356 . S
C298 H352 0.930 . S
C299 N297 1.279 . S
C299 C298 1.358 . S
C299 H303 0.930 . S
C300 C298 1.356 . S
C300 C301 1.348 . S
C301 C296 1.353 . S
C301 C300 1.348 . S
C301 H353 0.929 . S
H302 C296 0.930 . S
H303 C299 0.930 . S
C304 N305 1.314 . S
C304 C306 1.353 . S
C304 H310 0.930 . S
N305 Li281 1.990 . S
N305 C304 1.314 . S
N305 C308 1.279 . S
C306 C304 1.353 . S
C306 C309 1.348 . S
C306 H354 0.929 . S
C307 C308 1.358 . S
C307 C309 1.356 . S
C307 H355 0.930 . S
C308 N305 1.279 . S
C308 C307 1.358 . S
C308 H311 0.930 . S
C309 C306 1.348 . S
C309 C307 1.356 . S
H310 C304 0.930 . S
H311 C308 0.930 . S
C312 C314 1.348 . S
C312 C315 1.356 . S
C312 O342 1.325 . S
N313 C316 1.314 . S
N313 C317 1.279 . S
C314 C312 1.348 . S
C314 C316 1.353 . S
C314 H356 0.929 . S
C315 C312 1.356 . S
C315 C317 1.358 . S
C315 H357 0.930 . S
C316 N313 1.314 . S
C316 C314 1.353 . S
C316 H358 0.930 . S
C317 N313 1.279 . S
C317 C315 1.358 . S
C317 H359 0.930 . S
C318 C319 1.348 . S
C318 C320 1.356 . S
C318 O343 1.325 . S
C319 C318 1.348 . S
C319 C321 1.353 . S
C319 H360 0.929 . S
C320 C318 1.356 . S
C320 C322 1.358 . S
C320 H361 0.930 . S
C321 C319 1.353 . S
C321 N323 1.314 . S
C321 H362 0.930 . S
C322 C320 1.358 . S
C322 N323 1.279 . S
C322 H363 0.930 . S
N323 C321 1.314 . S
N323 C322 1.279 . S
C324 C326 1.353 . S
C324 N327 1.314 . S
C324 H330 0.930 . S
C325 N327 1.279 . S
C325 C328 1.358 . S
C325 H331 0.930 . S
C326 C324 1.353 . S
C326 C329 1.348 . S
C326 H364 0.929 . S
N327 Li282 1.990 . S
N327 C324 1.314 . S
N327 C325 1.279 . S
C328 C325 1.358 . S
C328 C329 1.356 . S
C328 H365 0.930 . S
C329 C326 1.348 . S
C329 C328 1.356 . S
H330 C324 0.930 . S
H331 C325 0.930 . S
C332 N333 1.314 . S
C332 C334 1.353 . S
C332 H338 0.930 . S
N333 Li283 1.990 . S
N333 C332 1.314 . S
N333 C336 1.279 . S
C334 C332 1.353 . S
C334 C337 1.348 . S
C334 H366 0.929 . S
C335 C336 1.358 . S
C335 C337 1.356 . S
C335 H367 0.930 . S
C336 N333 1.279 . S
C336 C335 1.358 . S
C336 H339 0.930 . S
C337 C334 1.348 . S
C337 C335 1.356 . S
H338 C332 0.930 . S
H339 C336 0.930 . S
O340 Li280 1.956 . S
O340 Li281 1.970 . S
O340 Li282 1.961 . S
O340 C284 1.325 . S
O341 Li280 1.970 . S
O341 Li281 1.956 . S
O341 Li283 1.961 . S
O341 C290 1.325 . S
O342 Li280 1.961 . S
O342 Li282 1.956 . S
O342 Li283 1.970 . S
O342 C312 1.325 . S
O343 Li281 1.961 . S
O343 Li282 1.970 . S
O343 Li283 1.956 . S
O343 C318 1.325 . S
H344 C286 0.929 . S
H345 C287 0.930 . S
H346 C288 0.930 . S
H347 C289 0.930 . S
H348 C291 0.930 . S
H349 C293 0.929 . S
H350 C294 0.930 . S
H351 C295 0.930 . S
H352 C298 0.930 . S
H353 C301 0.929 . S
H354 C306 0.929 . S
H355 C307 0.930 . S
H356 C314 0.929 . S
H357 C315 0.930 . S
H358 C316 0.930 . S
H359 C317 0.930 . S
H360 C319 0.929 . S
H361 C320 0.930 . S
H362 C321 0.930 . S
H363 C322 0.930 . S
H364 C326 0.929 . S
H365 C328 0.930 . S
H366 C334 0.929 . S
H367 C335 0.930 . S
Li368 N385 1.990 . S
Li368 O428 1.956 . S
Li368 O429 1.970 1_556 S
Li368 O430 1.961 . S
Li369 N393 1.990 . S
Li369 O428 1.970 1_554 S
Li369 O429 1.956 . S
Li369 O431 1.961 . S
Li370 N415 1.990 . S
Li370 O428 1.961 . S
Li370 O430 1.956 . S
Li370 O431 1.970 1_556 S
Li371 N421 1.990 . S
Li371 O429 1.961 . S
Li371 O430 1.970 1_554 S
Li371 O431 1.956 . S
C372 C374 1.348 1_556 S
C372 C375 1.356 . S
C372 O428 1.325 . S
N373 C376 1.314 1_556 S
N373 C377 1.279 . S
C374 C372 1.348 1_554 S
C374 C376 1.353 . S
C374 H432 0.929 . S
C375 C372 1.356 . S
C375 C377 1.358 . S
C375 H433 0.930 . S
C376 N373 1.314 1_554 S
C376 C374 1.353 . S
C376 H434 0.930 . S
C377 N373 1.279 . S
C377 C375 1.358 . S
C377 H435 0.930 . S
C378 C381 1.348 . S
C378 C382 1.356 . S
C378 O429 1.325 . S
C379 N380 1.279 . S
C379 C382 1.358 . S
C379 H436 0.930 . S
N380 C379 1.279 . S
N380 C383 1.314 . S
C381 C378 1.348 . S
C381 C383 1.353 . S
C381 H437 0.929 . S
C382 C378 1.356 . S
C382 C379 1.358 . S
C382 H438 0.930 . S
C383 N380 1.314 . S
C383 C381 1.353 . S
C383 H439 0.930 . S
C384 N385 1.314 . S
C384 C389 1.353 . S
C384 H390 0.930 . S
N385 Li368 1.990 . S
N385 C384 1.314 . S
N385 C387 1.279 . S
C386 C387 1.358 . S
C386 C388 1.356 . S
C386 H440 0.930 . S
C387 N385 1.279 . S
C387 C386 1.358 . S
C387 H391 0.930 . S
C388 C386 1.356 . S
C388 C389 1.348 . S
C389 C384 1.353 . S
C389 C388 1.348 . S
C389 H441 0.929 . S
H390 C384 0.930 . S
H391 C387 0.930 . S
C392 N393 1.314 . S
C392 C394 1.353 . S
C392 H398 0.930 . S
N393 Li369 1.990 . S
N393 C392 1.314 . S
N393 C396 1.279 . S
C394 C392 1.353 . S
C394 C397 1.348 . S
C394 H442 0.929 . S
C395 C396 1.358 . S
C395 C397 1.356 . S
C395 H443 0.930 . S
C396 N393 1.279 . S
C396 C395 1.358 . S
C396 H399 0.930 . S
C397 C394 1.348 . S
C397 C395 1.356 . S
H398 C392 0.930 . S
H399 C396 0.930 . S
C400 C402 1.348 . S
C400 C403 1.356 . S
C400 O430 1.325 . S
N401 C404 1.314 . S
N401 C405 1.279 . S
C402 C400 1.348 . S
C402 C404 1.353 . S
C402 H444 0.929 . S
C403 C400 1.356 . S
C403 C405 1.358 . S
C403 H445 0.930 . S
C404 N401 1.314 . S
C404 C402 1.353 . S
C404 H446 0.930 . S
C405 N401 1.279 . S
C405 C403 1.358 . S
C405 H447 0.930 . S
C406 C407 1.348 1_554 S
C406 C408 1.356 . S
C406 O431 1.325 . S
C407 C406 1.348 1_556 S
C407 C409 1.353 . S
C407 H448 0.929 . S
C408 C406 1.356 . S
C408 C410 1.358 . S
C408 H449 0.930 . S
C409 C407 1.353 . S
C409 N411 1.314 1_556 S
C409 H450 0.930 . S
C410 C408 1.358 . S
C410 N411 1.279 . S
C410 H451 0.930 . S
N411 C409 1.314 1_554 S
N411 C410 1.279 . S
C412 C414 1.353 . S
C412 N415 1.314 . S
C412 H418 0.930 . S
C413 N415 1.279 . S
C413 C416 1.358 . S
C413 H419 0.930 . S
C414 C412 1.353 . S
C414 C417 1.348 . S
C414 H452 0.929 . S
N415 Li370 1.990 . S
N415 C412 1.314 . S
N415 C413 1.279 . S
C416 C413 1.358 . S
C416 C417 1.356 . S
C416 H453 0.930 . S
C417 C414 1.348 . S
C417 C416 1.356 . S
H418 C412 0.930 . S
H419 C413 0.930 . S
C420 N421 1.314 . S
C420 C422 1.353 . S
C420 H426 0.930 . S
N421 Li371 1.990 . S
N421 C420 1.314 . S
N421 C424 1.279 . S
C422 C420 1.353 . S
C422 C425 1.348 . S
C422 H454 0.929 . S
C423 C424 1.358 . S
C423 C425 1.356 . S
C423 H455 0.930 . S
C424 N421 1.279 . S
C424 C423 1.358 . S
C424 H427 0.930 . S
C425 C422 1.348 . S
C425 C423 1.356 . S
H426 C420 0.930 . S
H427 C424 0.930 . S
O428 Li368 1.956 . S
O428 Li369 1.970 1_556 S
O428 Li370 1.961 . S
O428 C372 1.325 . S
O429 Li368 1.970 1_554 S
O429 Li369 1.956 . S
O429 Li371 1.961 . S
O429 C378 1.325 . S
O430 Li368 1.961 . S
O430 Li370 1.956 . S
O430 Li371 1.970 1_556 S
O430 C400 1.325 . S
O431 Li369 1.961 . S
O431 Li370 1.970 1_554 S
O431 Li371 1.956 . S
O431 C406 1.325 . S
H432 C374 0.929 . S
H433 C375 0.930 . S
H434 C376 0.930 . S
H435 C377 0.930 . S
H436 C379 0.930 . S
H437 C381 0.929 . S
H438 C382 0.930 . S
H439 C383 0.930 . S
H440 C386 0.930 . S
H441 C389 0.929 . S
H442 C394 0.929 . S
H443 C395 0.930 . S
H444 C402 0.929 . S
H445 C403 0.930 . S
H446 C404 0.930 . S
H447 C405 0.930 . S
H448 C407 0.929 . S
H449 C408 0.930 . S
H450 C409 0.930 . S
H451 C410 0.930 . S
H452 C414 0.929 . S
H453 C416 0.930 . S
H454 C422 0.929 . S
H455 C423 0.930 . S
Li456 N473 1.990 . S
Li456 O516 1.956 . S
Li456 O517 1.970 . S
Li456 O518 1.961 . S
Li457 N481 1.990 . S
Li457 O516 1.970 . S
Li457 O517 1.956 . S
Li457 O519 1.961 . S
Li458 N503 1.990 . S
Li458 O516 1.961 . S
Li458 O518 1.956 . S
Li458 O519 1.970 . S
Li459 N509 1.990 1_545 S
Li459 O517 1.961 . S
Li459 O518 1.970 . S
Li459 O519 1.956 . S
C460 C462 1.348 . S
C460 C463 1.356 . S
C460 O516 1.325 . S
N461 C464 1.314 . S
N461 C465 1.279 . S
C462 C460 1.348 . S
C462 C464 1.353 . S
C462 H520 0.929 . S
C463 C460 1.356 . S
C463 C465 1.358 . S
C463 H521 0.930 . S
C464 N461 1.314 . S
C464 C462 1.353 . S
C464 H522 0.930 . S
C465 N461 1.279 . S
C465 C463 1.358 . S
C465 H523 0.930 . S
C466 C469 1.348 . S
C466 C470 1.370 . S
C466 O517 1.325 . S
C467 N468 1.279 1_565 S
C467 C470 1.357 1_565 S
C467 H524 0.930 . S
N468 C467 1.279 1_545 S
N468 C471 1.314 . S
C469 C466 1.348 . S
C469 C471 1.353 . S
C469 H525 0.929 . S
C470 C466 1.370 . S
C470 C467 1.357 1_545 S
C470 H526 0.917 1_545 S
C471 N468 1.314 . S
C471 C469 1.353 . S
C471 H527 0.930 . S
C472 N473 1.314 . S
C472 C477 1.353 . S
C472 H478 0.930 . S
N473 Li456 1.990 . S
N473 C472 1.314 . S
N473 C475 1.279 . S
C474 C475 1.358 . S
C474 C476 1.356 . S
C474 H528 0.930 . S
C475 N473 1.279 . S
C475 C474 1.358 . S
C475 H479 0.930 . S
C476 C474 1.356 . S
C476 C477 1.348 . S
C477 C472 1.353 . S
C477 C476 1.348 . S
C477 H529 0.929 . S
H478 C472 0.930 . S
H479 C475 0.930 . S
C480 N481 1.314 . S
C480 C482 1.353 . S
C480 H486 0.930 . S
N481 Li457 1.990 . S
N481 C480 1.314 . S
N481 C484 1.279 . S
C482 C480 1.353 . S
C482 C485 1.348 . S
C482 H530 0.929 . S
C483 C484 1.358 . S
C483 C485 1.356 . S
C483 H531 0.930 . S
C484 N481 1.279 . S
C484 C483 1.358 . S
C484 H487 0.930 . S
C485 C482 1.348 . S
C485 C483 1.356 . S
H486 C480 0.930 . S
H487 C484 0.930 . S
C488 C490 1.348 . S
C488 C491 1.356 . S
C488 O518 1.325 . S
N489 C492 1.314 . S
N489 C493 1.279 . S
C490 C488 1.348 . S
C490 C492 1.353 . S
C490 H532 0.929 1_545 S
C491 C488 1.356 . S
C491 C493 1.358 . S
C491 H533 0.930 . S
C492 N489 1.314 . S
C492 C490 1.353 . S
C492 H534 0.930 . S
C493 N489 1.279 . S
C493 C491 1.358 . S
C493 H535 0.930 . S
C494 C495 1.348 . S
C494 C496 1.356 . S
C494 O519 1.325 1_565 S
C495 C494 1.348 . S
C495 C497 1.353 . S
C495 H536 0.929 . S
C496 C494 1.356 . S
C496 C498 1.358 . S
C496 H537 0.930 . S
C497 C495 1.353 . S
C497 N499 1.314 . S
C497 H538 0.930 . S
C498 C496 1.358 . S
C498 N499 1.279 . S
C498 H539 0.930 . S
N499 C497 1.314 . S
N499 C498 1.279 . S
C500 C502 1.353 . S
C500 N503 1.314 . S
C500 H506 0.930 . S
C501 N503 1.279 . S
C501 C504 1.358 . S
C501 H507 0.930 . S
C502 C500 1.353 . S
C502 C505 1.348 . S
C502 H540 0.929 . S
N503 Li458 1.990 . S
N503 C500 1.314 . S
N503 C501 1.279 . S
C504 C501 1.358 . S
C504 C505 1.356 . S
C504 H541 0.930 . S
C505 C502 1.348 . S
C505 C504 1.356 . S
H506 C500 0.930 . S
H507 C501 0.930 . S
C508 N509 1.314 . S
C508 C510 1.353 . S
C508 H514 0.930 . S
N509 Li459 1.990 1_565 S
N509 C508 1.314 . S
N509 C512 1.279 . S
C510 C508 1.353 . S
C510 C513 1.348 . S
C510 H542 0.929 . S
C511 C512 1.358 . S
C511 C513 1.356 . S
C511 H543 0.930 . S
C512 N509 1.279 . S
C512 C511 1.358 . S
C512 H515 0.930 . S
C513 C510 1.348 . S
C513 C511 1.356 . S
H514 C508 0.930 . S
H515 C512 0.930 . S
O516 Li456 1.956 . S
O516 Li457 1.970 . S
O516 Li458 1.961 . S
O516 C460 1.325 . S
O517 Li456 1.970 . S
O517 Li457 1.956 . S
O517 Li459 1.961 . S
O517 C466 1.325 . S
O518 Li456 1.961 . S
O518 Li458 1.956 . S
O518 Li459 1.970 . S
O518 C488 1.325 . S
O519 Li457 1.961 . S
O519 Li458 1.970 . S
O519 Li459 1.956 . S
O519 C494 1.325 1_545 S
H520 C462 0.929 . S
H521 C463 0.930 . S
H522 C464 0.930 . S
H523 C465 0.930 . S
H524 C467 0.930 . S
H525 C469 0.929 . S
H526 C470 0.917 1_565 S
H527 C471 0.930 . S
H528 C474 0.930 . S
H529 C477 0.929 . S
H530 C482 0.929 . S
H531 C483 0.930 . S
H532 C490 0.929 1_565 S
H533 C491 0.930 . S
H534 C492 0.930 . S
H535 C493 0.930 . S
H536 C495 0.929 . S
H537 C496 0.930 . S
H538 C497 0.930 . S
H539 C498 0.930 . S
H540 C502 0.929 . S
H541 C504 0.930 . S
H542 C510 0.929 . S
H543 C511 0.930 . S
Li544 N561 1.990 . S
Li544 O604 1.956 . S
Li544 O605 1.970 . S
Li544 O606 1.961 . S
Li545 N569 1.990 . S
Li545 O604 1.970 . S
Li545 O605 1.956 . S
Li545 O607 1.961 . S
Li546 N591 1.990 . S
Li546 O604 1.961 . S
Li546 O606 1.956 . S
Li546 O607 1.970 . S
Li547 N597 1.990 . S
Li547 O605 1.961 . S
Li547 O606 1.970 . S
Li547 O607 1.956 . S
C548 C550 1.348 . S
C548 C551 1.356 . S
C548 O604 1.325 . S
N549 C552 1.314 . S
N549 C553 1.279 . S
C550 C548 1.348 . S
C550 C552 1.353 . S
C550 H608 0.929 . S
C551 C548 1.356 . S
C551 C553 1.358 . S
C551 H609 0.930 . S
C552 N549 1.314 . S
C552 C550 1.353 . S
C552 H610 0.930 . S
C553 N549 1.279 . S
C553 C551 1.358 . S
C553 H611 0.930 . S
C554 C557 1.348 . S
C554 C558 1.356 . S
C554 O605 1.325 . S
C555 N556 1.279 . S
C555 C558 1.358 . S
C555 H612 0.930 . S
N556 C555 1.279 . S
N556 C559 1.314 . S
C557 C554 1.348 . S
C557 C559 1.353 . S
C557 H613 0.929 . S
C558 C554 1.356 . S
C558 C555 1.358 . S
C558 H614 0.930 . S
C559 N556 1.314 . S
C559 C557 1.353 . S
C559 H615 0.930 . S
C560 N561 1.314 . S
C560 C565 1.353 . S
C560 H566 0.930 . S
N561 Li544 1.990 . S
N561 C560 1.314 . S
N561 C563 1.279 . S
C562 C563 1.358 . S
C562 C564 1.356 . S
C562 H616 0.930 . S
C563 N561 1.279 . S
C563 C562 1.358 . S
C563 H567 0.930 . S
C564 C562 1.356 . S
C564 C565 1.348 . S
C565 C560 1.353 . S
C565 C564 1.348 . S
C565 H617 0.929 . S
H566 C560 0.930 . S
H567 C563 0.930 . S
C568 N569 1.314 . S
C568 C570 1.353 . S
C568 H574 0.930 . S
N569 Li545 1.990 . S
N569 C568 1.314 . S
N569 C572 1.279 . S
C570 C568 1.353 . S
C570 C573 1.348 . S
C570 H618 0.929 . S
C571 C572 1.358 . S
C571 C573 1.356 . S
C571 H619 0.930 . S
C572 N569 1.279 . S
C572 C571 1.358 . S
C572 H575 0.930 . S
C573 C570 1.348 . S
C573 C571 1.356 . S
H574 C568 0.930 . S
H575 C572 0.930 . S
C576 C578 1.348 . S
C576 C579 1.356 . S
C576 O606 1.325 . S
N577 C580 1.314 . S
N577 C581 1.279 . S
C578 C576 1.348 . S
C578 C580 1.353 . S
C578 H620 0.929 . S
C579 C576 1.356 . S
C579 C581 1.358 . S
C579 H621 0.930 . S
C580 N577 1.314 . S
C580 C578 1.353 . S
C580 H622 0.930 . S
C581 N577 1.279 . S
C581 C579 1.358 . S
C581 H623 0.930 . S
C582 C583 1.348 . S
C582 C584 1.356 . S
C582 O607 1.325 . S
C583 C582 1.348 . S
C583 C585 1.353 . S
C583 H624 0.929 . S
C584 C582 1.356 . S
C584 C586 1.358 . S
C584 H625 0.930 . S
C585 C583 1.353 . S
C585 N587 1.314 . S
C585 H626 0.930 . S
C586 C584 1.358 . S
C586 N587 1.279 . S
C586 H627 0.930 . S
N587 C585 1.314 . S
N587 C586 1.279 . S
C588 C590 1.353 . S
C588 N591 1.314 . S
C588 H594 0.930 . S
C589 N591 1.279 . S
C589 C592 1.358 . S
C589 H595 0.930 . S
C590 C588 1.353 . S
C590 C593 1.348 . S
C590 H628 0.929 . S
N591 Li546 1.990 . S
N591 C588 1.314 . S
N591 C589 1.279 . S
C592 C589 1.358 . S
C592 C593 1.356 . S
C592 H629 0.930 . S
C593 C590 1.348 . S
C593 C592 1.356 . S
H594 C588 0.930 . S
H595 C589 0.930 . S
C596 N597 1.314 . S
C596 C598 1.353 . S
C596 H602 0.930 . S
N597 Li547 1.990 . S
N597 C596 1.314 . S
N597 C600 1.279 . S
C598 C596 1.353 . S
C598 C601 1.348 . S
C598 H630 0.929 . S
C599 C600 1.358 . S
C599 C601 1.356 . S
C599 H631 0.930 . S
C600 N597 1.279 . S
C600 C599 1.358 . S
C600 H603 0.930 . S
C601 C598 1.348 . S
C601 C599 1.356 . S
H602 C596 0.930 . S
H603 C600 0.930 . S
O604 Li544 1.956 . S
O604 Li545 1.970 . S
O604 Li546 1.961 . S
O604 C548 1.325 . S
O605 Li544 1.970 . S
O605 Li545 1.956 . S
O605 Li547 1.961 . S
O605 C554 1.325 . S
O606 Li544 1.961 . S
O606 Li546 1.956 . S
O606 Li547 1.970 . S
O606 C576 1.325 . S
O607 Li545 1.961 . S
O607 Li546 1.970 . S
O607 Li547 1.956 . S
O607 C582 1.325 . S
H608 C550 0.929 . S
H609 C551 0.930 . S
H610 C552 0.930 . S
H611 C553 0.930 . S
H612 C555 0.930 . S
H613 C557 0.929 . S
H614 C558 0.930 . S
H615 C559 0.930 . S
H616 C562 0.930 . S
H617 C565 0.929 . S
H618 C570 0.929 . S
H619 C571 0.930 . S
H620 C578 0.929 . S
H621 C579 0.930 . S
H622 C580 0.930 . S
H623 C581 0.930 . S
H624 C583 0.929 . S
H625 C584 0.930 . S
H626 C585 0.930 . S
H627 C586 0.930 . S
H628 C590 0.929 . S
H629 C592 0.930 . S
H630 C598 0.929 . S
H631 C599 0.930 . S
Li632 N649 1.990 . S
Li632 O692 1.956 . S
Li632 O693 1.970 . S
Li632 O694 1.961 . S
Li633 N657 1.990 . S
Li633 O692 1.970 . S
Li633 O693 1.956 . S
Li633 O695 1.961 . S
Li634 N679 1.990 . S
Li634 O692 1.961 . S
Li634 O694 1.956 . S
Li634 O695 1.970 . S
Li635 N685 1.990 . S
Li635 O693 1.961 . S
Li635 O694 1.970 . S
Li635 O695 1.956 . S
C636 C638 1.348 . S
C636 C639 1.356 . S
C636 O692 1.325 . S
N637 C640 1.314 . S
N637 C641 1.279 . S
C638 C636 1.348 . S
C638 C640 1.353 . S
C638 H696 0.929 . S
C639 C636 1.356 . S
C639 C641 1.358 . S
C639 H697 0.930 . S
C640 N637 1.314 . S
C640 C638 1.353 . S
C640 H698 0.930 . S
C641 N637 1.279 . S
C641 C639 1.358 . S
C641 H699 0.930 . S
C642 C645 1.348 . S
C642 C646 1.356 . S
C642 O693 1.325 . S
C643 N644 1.279 . S
C643 C646 1.358 . S
C643 H700 0.930 . S
N644 C643 1.279 . S
N644 C647 1.314 . S
C645 C642 1.348 . S
C645 C647 1.353 . S
C645 H701 0.929 . S
C646 C642 1.356 . S
C646 C643 1.358 . S
C646 H702 0.930 . S
C647 N644 1.314 . S
C647 C645 1.353 . S
C647 H703 0.930 . S
C648 N649 1.314 . S
C648 C653 1.353 . S
C648 H654 0.930 . S
N649 Li632 1.990 . S
N649 C648 1.314 . S
N649 C651 1.279 . S
C650 C651 1.358 . S
C650 C652 1.356 . S
C650 H704 0.930 . S
C651 N649 1.279 . S
C651 C650 1.358 . S
C651 H655 0.930 . S
C652 C650 1.356 . S
C652 C653 1.348 . S
C653 C648 1.353 . S
C653 C652 1.348 . S
C653 H705 0.929 . S
H654 C648 0.930 . S
H655 C651 0.930 . S
C656 N657 1.314 . S
C656 C658 1.353 . S
C656 H662 0.930 . S
N657 Li633 1.990 . S
N657 C656 1.314 . S
N657 C660 1.279 . S
C658 C656 1.353 . S
C658 C661 1.348 . S
C658 H706 0.929 . S
C659 C660 1.358 . S
C659 C661 1.356 . S
C659 H707 0.930 . S
C660 N657 1.279 . S
C660 C659 1.358 . S
C660 H663 0.930 . S
C661 C658 1.348 . S
C661 C659 1.356 . S
H662 C656 0.930 . S
H663 C660 0.930 . S
C664 C666 1.348 . S
C664 C667 1.356 . S
C664 O694 1.325 . S
N665 C668 1.314 . S
N665 C669 1.279 . S
C666 C664 1.348 . S
C666 C668 1.353 . S
C666 H708 0.929 . S
C667 C664 1.356 . S
C667 C669 1.358 . S
C667 H709 0.930 . S
C668 N665 1.314 . S
C668 C666 1.353 . S
C668 H710 0.930 . S
C669 N665 1.279 . S
C669 C667 1.358 . S
C669 H711 0.930 . S
C670 C671 1.348 . S
C670 C672 1.356 . S
C670 O695 1.325 . S
C671 C670 1.348 . S
C671 C673 1.353 . S
C671 H712 0.929 . S
C672 C670 1.356 . S
C672 C674 1.358 . S
C672 H713 0.930 . S
C673 C671 1.353 . S
C673 N675 1.314 . S
C673 H714 0.930 . S
C674 C672 1.358 . S
C674 N675 1.279 . S
C674 H715 0.930 . S
N675 C673 1.314 . S
N675 C674 1.279 . S
C676 C678 1.353 . S
C676 N679 1.314 . S
C676 H682 0.930 . S
C677 N679 1.279 . S
C677 C680 1.358 . S
C677 H683 0.930 . S
C678 C676 1.353 . S
C678 C681 1.348 . S
C678 H716 0.929 . S
N679 Li634 1.990 . S
N679 C676 1.314 . S
N679 C677 1.279 . S
C680 C677 1.358 . S
C680 C681 1.356 . S
C680 H717 0.930 . S
C681 C678 1.348 . S
C681 C680 1.356 . S
H682 C676 0.930 . S
H683 C677 0.930 . S
C684 N685 1.314 . S
C684 C686 1.353 . S
C684 H690 0.930 . S
N685 Li635 1.990 . S
N685 C684 1.314 . S
N685 C688 1.279 . S
C686 C684 1.353 . S
C686 C689 1.348 . S
C686 H718 0.929 . S
C687 C688 1.358 . S
C687 C689 1.356 . S
C687 H719 0.930 . S
C688 N685 1.279 . S
C688 C687 1.358 . S
C688 H691 0.930 . S
C689 C686 1.348 . S
C689 C687 1.356 . S
H690 C684 0.930 . S
H691 C688 0.930 . S
O692 Li632 1.956 . S
O692 Li633 1.970 . S
O692 Li634 1.961 . S
O692 C636 1.325 . S
O693 Li632 1.970 . S
O693 Li633 1.956 . S
O693 Li635 1.961 . S
O693 C642 1.325 . S
O694 Li632 1.961 . S
O694 Li634 1.956 . S
O694 Li635 1.970 . S
O694 C664 1.325 . S
O695 Li633 1.961 . S
O695 Li634 1.970 . S
O695 Li635 1.956 . S
O695 C670 1.325 . S
H696 C638 0.929 . S
H697 C639 0.930 . S
H698 C640 0.930 . S
H699 C641 0.930 . S
H700 C643 0.930 . S
H701 C645 0.929 . S
H702 C646 0.930 . S
H703 C647 0.930 . S
H704 C650 0.930 . S
H705 C653 0.929 . S
H706 C658 0.929 . S
H707 C659 0.930 . S
H708 C666 0.929 . S
H709 C667 0.930 . S
H710 C668 0.930 . S
H711 C669 0.930 . S
H712 C671 0.929 . S
H713 C672 0.930 . S
H714 C673 0.930 . S
H715 C674 0.930 . S
H716 C678 0.929 . S
H717 C680 0.930 . S
H718 C686 0.929 . S
H719 C687 0.930 . S
Li720 N737 1.990 . S
Li720 O780 1.956 . S
Li720 O781 1.970 . S
Li720 O782 1.961 . S
Li721 N745 1.990 . S
Li721 O780 1.970 . S
Li721 O781 1.956 . S
Li721 O783 1.961 . S
Li722 N767 1.990 . S
Li722 O780 1.961 . S
Li722 O782 1.956 . S
Li722 O783 1.970 . S
Li723 N773 1.990 . S
Li723 O781 1.961 . S
Li723 O782 1.970 . S
Li723 O783 1.956 . S
C724 C726 1.348 . S
C724 C727 1.356 . S
C724 O780 1.325 . S
N725 C728 1.314 . S
N725 C729 1.279 . S
C726 C724 1.348 . S
C726 C728 1.353 . S
C726 H784 0.929 . S
C727 C724 1.356 . S
C727 C729 1.358 . S
C727 H785 0.930 . S
C728 N725 1.314 . S
C728 C726 1.353 . S
C728 H786 0.930 . S
C729 N725 1.279 . S
C729 C727 1.358 . S
C729 H787 0.930 . S
C730 C733 1.348 . S
C730 C734 1.356 . S
C730 O781 1.325 . S
C731 N732 1.279 . S
C731 C734 1.358 . S
C731 H788 0.930 . S
N732 C731 1.279 . S
N732 C735 1.314 . S
C733 C730 1.348 . S
C733 C735 1.353 . S
C733 H789 0.929 . S
C734 C730 1.356 . S
C734 C731 1.358 . S
C734 H790 0.930 . S
C735 N732 1.314 . S
C735 C733 1.353 . S
C735 H791 0.930 . S
C736 N737 1.314 . S
C736 C741 1.353 . S
C736 H742 0.930 . S
N737 Li720 1.990 . S
N737 C736 1.314 . S
N737 C739 1.279 . S
C738 C739 1.358 . S
C738 C740 1.356 . S
C738 H792 0.930 . S
C739 N737 1.279 . S
C739 C738 1.358 . S
C739 H743 0.930 . S
C740 C738 1.356 . S
C740 C741 1.348 . S
C741 C736 1.353 . S
C741 C740 1.348 . S
C741 H793 0.929 . S
H742 C736 0.930 . S
H743 C739 0.930 . S
C744 N745 1.314 . S
C744 C746 1.353 . S
C744 H750 0.930 . S
N745 Li721 1.990 . S
N745 C744 1.314 . S
N745 C748 1.279 . S
C746 C744 1.353 . S
C746 C749 1.348 . S
C746 H794 0.929 . S
C747 C748 1.358 . S
C747 C749 1.356 . S
C747 H795 0.930 . S
C748 N745 1.279 . S
C748 C747 1.358 . S
C748 H751 0.930 . S
C749 C746 1.348 . S
C749 C747 1.356 . S
H750 C744 0.930 . S
H751 C748 0.930 . S
C752 C754 1.348 . S
C752 C755 1.356 . S
C752 O782 1.325 . S
N753 C756 1.314 . S
N753 C757 1.279 . S
C754 C752 1.348 . S
C754 C756 1.353 . S
C754 H796 0.929 . S
C755 C752 1.356 . S
C755 C757 1.358 . S
C755 H797 0.930 . S
C756 N753 1.314 . S
C756 C754 1.353 . S
C756 H798 0.930 . S
C757 N753 1.279 . S
C757 C755 1.358 . S
C757 H799 0.930 . S
C758 C759 1.348 . S
C758 C760 1.356 . S
C758 O783 1.325 . S
C759 C758 1.348 . S
C759 C761 1.353 . S
C759 H800 0.929 . S
C760 C758 1.356 . S
C760 C762 1.358 . S
C760 H801 0.930 . S
C761 C759 1.353 . S
C761 N763 1.314 . S
C761 H802 0.930 . S
C762 C760 1.358 . S
C762 N763 1.279 . S
C762 H803 0.930 . S
N763 C761 1.314 . S
N763 C762 1.279 . S
C764 C766 1.353 . S
C764 N767 1.314 . S
C764 H770 0.930 . S
C765 N767 1.279 . S
C765 C768 1.358 . S
C765 H771 0.930 . S
C766 C764 1.353 . S
C766 C769 1.348 . S
C766 H804 0.929 . S
N767 Li722 1.990 . S
N767 C764 1.314 . S
N767 C765 1.279 . S
C768 C765 1.358 . S
C768 C769 1.356 . S
C768 H805 0.930 . S
C769 C766 1.348 . S
C769 C768 1.356 . S
H770 C764 0.930 . S
H771 C765 0.930 . S
C772 N773 1.314 . S
C772 C774 1.353 . S
C772 H778 0.930 . S
N773 Li723 1.990 . S
N773 C772 1.314 . S
N773 C776 1.279 . S
C774 C772 1.353 . S
C774 C777 1.348 . S
C774 H806 0.929 . S
C775 C776 1.358 . S
C775 C777 1.356 . S
C775 H807 0.930 . S
C776 N773 1.279 . S
C776 C775 1.358 . S
C776 H779 0.930 . S
C777 C774 1.348 . S
C777 C775 1.356 . S
H778 C772 0.930 . S
H779 C776 0.930 . S
O780 Li720 1.956 . S
O780 Li721 1.970 . S
O780 Li722 1.961 . S
O780 C724 1.325 . S
O781 Li720 1.970 . S
O781 Li721 1.956 . S
O781 Li723 1.961 . S
O781 C730 1.325 . S
O782 Li720 1.961 . S
O782 Li722 1.956 . S
O782 Li723 1.970 . S
O782 C752 1.325 . S
O783 Li721 1.961 . S
O783 Li722 1.970 . S
O783 Li723 1.956 . S
O783 C758 1.325 . S
H784 C726 0.929 . S
H785 C727 0.930 . S
H786 C728 0.930 . S
H787 C729 0.930 . S
H788 C731 0.930 . S
H789 C733 0.929 . S
H790 C734 0.930 . S
H791 C735 0.930 . S
H792 C738 0.930 . S
H793 C741 0.929 . S
H794 C746 0.929 . S
H795 C747 0.930 . S
H796 C754 0.929 . S
H797 C755 0.930 . S
H798 C756 0.930 . S
H799 C757 0.930 . S
H800 C759 0.929 . S
H801 C760 0.930 . S
H802 C761 0.930 . S
H803 C762 0.930 . S
H804 C766 0.929 . S
H805 C768 0.930 . S
H806 C774 0.929 . S
H807 C775 0.930 . S
Li808 N825 1.990 . S
Li808 O868 1.956 . S
Li808 O869 1.970 1_565 S
Li808 O870 1.961 . S
Li809 N833 1.990 . S
Li809 O868 1.970 1_545 S
Li809 O869 1.956 . S
Li809 O871 1.961 . S
Li810 N855 1.990 . S
Li810 O868 1.961 . S
Li810 O870 1.956 . S
Li810 O871 1.970 1_565 S
Li811 N861 1.990 . S
Li811 O869 1.961 . S
Li811 O870 1.970 1_545 S
Li811 O871 1.956 . S
C812 C814 1.348 . S
C812 C815 1.356 . S
C812 O868 1.325 . S
N813 C816 1.314 . S
N813 C817 1.279 . S
C814 C812 1.348 . S
C814 C816 1.353 . S
C814 H872 0.929 . S
C815 C812 1.356 . S
C815 C817 1.358 . S
C815 H873 0.930 . S
C816 N813 1.314 . S
C816 C814 1.353 . S
C816 H874 0.930 . S
C817 N813 1.279 . S
C817 C815 1.358 . S
C817 H875 0.930 . S
C818 C821 1.348 1_545 S
C818 C822 1.356 . S
C818 O869 1.325 . S
C819 N820 1.279 . S
C819 C822 1.358 . S
C819 H876 0.930 . S
N820 C819 1.279 . S
N820 C823 1.314 1_545 S
C821 C818 1.348 1_565 S
C821 C823 1.353 . S
C821 H877 0.929 . S
C822 C818 1.356 . S
C822 C819 1.358 . S
C822 H878 0.930 . S
C823 N820 1.314 1_565 S
C823 C821 1.353 . S
C823 H879 0.930 . S
C824 N825 1.314 . S
C824 C829 1.353 . S
C824 H830 0.930 . S
N825 Li808 1.990 . S
N825 C824 1.314 . S
N825 C827 1.279 . S
C826 C827 1.358 . S
C826 C828 1.356 . S
C826 H880 0.930 . S
C827 N825 1.279 . S
C827 C826 1.358 . S
C827 H831 0.930 . S
C828 C826 1.356 . S
C828 C829 1.348 . S
C829 C824 1.353 . S
C829 C828 1.348 . S
C829 H881 0.929 . S
H830 C824 0.930 . S
H831 C827 0.930 . S
C832 N833 1.314 . S
C832 C834 1.353 . S
C832 H838 0.930 . S
N833 Li809 1.990 . S
N833 C832 1.314 . S
N833 C836 1.279 . S
C834 C832 1.353 . S
C834 C837 1.348 . S
C834 H882 0.929 . S
C835 C836 1.358 . S
C835 C837 1.356 . S
C835 H883 0.930 . S
C836 N833 1.279 . S
C836 C835 1.358 . S
C836 H839 0.930 . S
C837 C834 1.348 . S
C837 C835 1.356 . S
H838 C832 0.930 . S
H839 C836 0.930 . S
C840 C842 1.348 1_565 S
C840 C843 1.356 . S
C840 O870 1.325 . S
N841 C844 1.314 1_565 S
N841 C845 1.279 . S
C842 C840 1.348 1_545 S
C842 C844 1.353 . S
C842 H884 0.929 . S
C843 C840 1.356 . S
C843 C845 1.358 . S
C843 H885 0.930 . S
C844 N841 1.314 1_545 S
C844 C842 1.353 . S
C844 H886 0.930 . S
C845 N841 1.279 . S
C845 C843 1.358 . S
C845 H887 0.930 . S
C846 C847 1.348 . S
C846 C848 1.356 . S
C846 O871 1.325 . S
C847 C846 1.348 . S
C847 C849 1.353 . S
C847 H888 0.929 . S
C848 C846 1.356 . S
C848 C850 1.358 . S
C848 H889 0.930 . S
C849 C847 1.353 . S
C849 N851 1.314 . S
C849 H890 0.930 . S
C850 C848 1.358 . S
C850 N851 1.279 . S
C850 H891 0.930 . S
N851 C849 1.314 . S
N851 C850 1.279 . S
C852 C854 1.353 . S
C852 N855 1.314 . S
C852 H858 0.930 . S
C853 N855 1.279 . S
C853 C856 1.358 . S
C853 H859 0.930 . S
C854 C852 1.353 . S
C854 C857 1.348 . S
C854 H892 0.929 . S
N855 Li810 1.990 . S
N855 C852 1.314 . S
N855 C853 1.279 . S
C856 C853 1.358 . S
C856 C857 1.356 . S
C856 H893 0.930 . S
C857 C854 1.348 . S
C857 C856 1.356 . S
H858 C852 0.930 . S
H859 C853 0.930 . S
C860 N861 1.314 . S
C860 C862 1.353 . S
C860 H866 0.930 . S
N861 Li811 1.990 . S
N861 C860 1.314 . S
N861 C864 1.279 . S
C862 C860 1.353 . S
C862 C865 1.348 . S
C862 H894 0.929 . S
C863 C864 1.358 . S
C863 C865 1.356 . S
C863 H895 0.930 . S
C864 N861 1.279 . S
C864 C863 1.358 . S
C864 H867 0.930 . S
C865 C862 1.348 . S
C865 C863 1.356 . S
H866 C860 0.930 . S
H867 C864 0.930 . S
O868 Li808 1.956 . S
O868 Li809 1.970 1_565 S
O868 Li810 1.961 . S
O868 C812 1.325 . S
O869 Li808 1.970 1_545 S
O869 Li809 1.956 . S
O869 Li811 1.961 . S
O869 C818 1.325 . S
O870 Li808 1.961 . S
O870 Li810 1.956 . S
O870 Li811 1.970 1_565 S
O870 C840 1.325 . S
O871 Li809 1.961 . S
O871 Li810 1.970 1_545 S
O871 Li811 1.956 . S
O871 C846 1.325 . S
H872 C814 0.929 . S
H873 C815 0.930 . S
H874 C816 0.930 . S
H875 C817 0.930 . S
H876 C819 0.930 . S
H877 C821 0.929 . S
H878 C822 0.930 . S
H879 C823 0.930 . S
H880 C826 0.930 . S
H881 C829 0.929 . S
H882 C834 0.929 . S
H883 C835 0.930 . S
H884 C842 0.929 . S
H885 C843 0.930 . S
H886 C844 0.930 . S
H887 C845 0.930 . S
H888 C847 0.929 . S
H889 C848 0.930 . S
H890 C849 0.930 . S
H891 C850 0.930 . S
H892 C854 0.929 . S
H893 C856 0.930 . S
H894 C862 0.929 . S
H895 C863 0.930 . S
Li896 N913 1.990 . S
Li896 O956 1.956 . S
Li896 O957 1.970 . S
Li896 O958 1.961 . S
Li897 N921 1.991 . S
Li897 O956 1.970 . S
Li897 O957 1.956 . S
Li897 O959 1.961 1_455 S
Li898 N943 1.990 . S
Li898 O956 1.961 . S
Li898 O958 1.956 . S
Li898 O959 1.970 1_455 S
Li899 N949 1.990 . S
Li899 O957 1.961 1_655 S
Li899 O958 1.970 1_655 S
Li899 O959 1.956 . S
C900 C902 1.348 . S
C900 C903 1.356 . S
C900 O956 1.325 . S
N901 C904 1.314 . S
N901 C905 1.279 . S
C902 C900 1.348 . S
C902 C904 1.353 . S
C902 H960 0.929 . S
C903 C900 1.356 . S
C903 C905 1.358 . S
C903 H961 0.930 . S
C904 N901 1.314 . S
C904 C902 1.353 . S
C904 H962 0.930 . S
C905 N901 1.279 . S
C905 C903 1.358 . S
C905 H963 0.930 . S
C906 C909 1.348 . S
C906 C910 1.356 1_455 S
C906 O957 1.325 . S
C907 N908 1.279 . S
C907 C910 1.358 . S
C907 H964 0.930 . S
N908 C907 1.279 . S
N908 C911 1.314 1_655 S
C909 C906 1.348 . S
C909 C911 1.353 . S
C909 H965 0.929 . S
C910 C906 1.356 1_655 S
C910 C907 1.358 . S
C910 H966 0.930 . S
C911 N908 1.314 1_455 S
C911 C909 1.353 . S
C911 H967 0.930 . S
C912 N913 1.314 . S
C912 C917 1.353 . S
C912 H918 0.930 . S
N913 Li896 1.990 . S
N913 C912 1.314 . S
N913 C915 1.279 . S
C914 C915 1.358 . S
C914 C916 1.356 . S
C914 H968 0.930 . S
C915 N913 1.279 . S
C915 C914 1.358 . S
C915 H919 0.930 . S
C916 C914 1.356 . S
C916 C917 1.348 . S
C917 C912 1.353 . S
C917 C916 1.348 . S
C917 H969 0.929 . S
H918 C912 0.930 . S
H919 C915 0.930 . S
C920 N921 1.313 1_655 S
C920 C922 1.353 . S
C920 H926 0.930 . S
N921 Li897 1.991 . S
N921 C920 1.313 1_455 S
N921 C924 1.280 . S
C922 C920 1.353 . S
C922 C925 1.348 . S
C922 H970 0.929 . S
C923 C924 1.366 . S
C923 C925 1.347 1_455 S
C923 H971 0.933 . S
C924 N921 1.280 . S
C924 C923 1.366 . S
C924 H927 0.930 . S
C925 C922 1.348 . S
C925 C923 1.347 1_655 S
H926 C920 0.930 . S
H927 C924 0.930 . S
C928 C930 1.348 1_455 S
C928 C931 1.356 . S
C928 O958 1.325 . S
N929 C932 1.273 1_455 S
N929 C933 1.279 . S
C930 C928 1.348 1_655 S
C930 C932 1.365 . S
C930 H972 0.929 . S
C931 C928 1.356 . S
C931 C933 1.358 . S
C931 H973 0.930 . S
C932 N929 1.273 1_655 S
C932 C930 1.365 . S
C932 H974 0.964 . S
C933 N929 1.279 . S
C933 C931 1.358 . S
C933 H975 0.930 . S
C934 C935 1.348 . S
C934 C936 1.356 . S
C934 O959 1.325 . S
C935 C934 1.348 . S
C935 C937 1.353 . S
C935 H976 0.929 . S
C936 C934 1.356 . S
C936 C938 1.358 . S
C936 H977 0.930 . S
C937 C935 1.353 . S
C937 N939 1.314 . S
C937 H978 0.930 . S
C938 C936 1.358 . S
C938 N939 1.279 . S
C938 H979 0.930 . S
N939 C937 1.314 . S
N939 C938 1.279 . S
C940 C942 1.353 . S
C940 N943 1.314 . S
C940 H946 0.930 . S
C941 N943 1.279 . S
C941 C944 1.358 . S
C941 H947 0.930 . S
C942 C940 1.353 . S
C942 C945 1.348 . S
C942 H980 0.929 . S
N943 Li898 1.990 . S
N943 C940 1.314 . S
N943 C941 1.279 . S
C944 C941 1.358 . S
C944 C945 1.356 . S
C944 H981 0.930 . S
C945 C942 1.348 . S
C945 C944 1.356 . S
H946 C940 0.930 . S
H947 C941 0.930 . S
C948 N949 1.314 . S
C948 C950 1.353 . S
C948 H954 0.930 . S
N949 Li899 1.990 . S
N949 C948 1.314 . S
N949 C952 1.279 . S
C950 C948 1.353 . S
C950 C953 1.348 . S
C950 H982 0.929 . S
C951 C952 1.358 . S
C951 C953 1.356 . S
C951 H983 0.930 . S
C952 N949 1.279 . S
C952 C951 1.358 . S
C952 H955 0.930 . S
C953 C950 1.348 . S
C953 C951 1.356 . S
H954 C948 0.930 . S
H955 C952 0.930 . S
O956 Li896 1.956 . S
O956 Li897 1.970 . S
O956 Li898 1.961 . S
O956 C900 1.325 . S
O957 Li896 1.970 . S
O957 Li897 1.956 . S
O957 Li899 1.961 1_455 S
O957 C906 1.325 . S
O958 Li896 1.961 . S
O958 Li898 1.956 . S
O958 Li899 1.970 1_455 S
O958 C928 1.325 . S
O959 Li897 1.961 1_655 S
O959 Li898 1.970 1_655 S
O959 Li899 1.956 . S
O959 C934 1.325 . S
H960 C902 0.929 . S
H961 C903 0.930 . S
H962 C904 0.930 . S
H963 C905 0.930 . S
H964 C907 0.930 . S
H965 C909 0.929 . S
H966 C910 0.930 . S
H967 C911 0.930 . S
H968 C914 0.930 . S
H969 C917 0.929 . S
H970 C922 0.929 . S
H971 C923 0.933 . S
H972 C930 0.929 . S
H973 C931 0.930 . S
H974 C932 0.964 . S
H975 C933 0.930 . S
H976 C935 0.929 . S
H977 C936 0.930 . S
H978 C937 0.930 . S
H979 C938 0.930 . S
H980 C942 0.929 . S
H981 C944 0.930 . S
H982 C950 0.929 . S
H983 C951 0.930 . S
Li984 N1001 1.990 . S
Li984 O1044 1.956 . S
Li984 O1045 1.970 . S
Li984 O1046 1.961 . S
Li985 N1009 1.990 . S
Li985 O1044 1.970 . S
Li985 O1045 1.956 . S
Li985 O1047 1.961 . S
Li986 N1031 1.990 . S
Li986 O1044 1.961 . S
Li986 O1046 1.956 . S
Li986 O1047 1.970 . S
Li987 N1037 1.990 . S
Li987 O1045 1.961 . S
Li987 O1046 1.970 . S
Li987 O1047 1.956 . S
C988 C990 1.348 . S
C988 C991 1.356 . S
C988 O1044 1.325 . S
N989 C992 1.314 . S
N989 C993 1.279 . S
C990 C988 1.348 . S
C990 C992 1.353 . S
C990 H1048 0.929 . S
C991 C988 1.356 . S
C991 C993 1.358 . S
C991 H1049 0.930 . S
C992 N989 1.314 . S
C992 C990 1.353 . S
C992 H1050 0.930 . S
C993 N989 1.279 . S
C993 C991 1.358 . S
C993 H1051 0.930 . S
C994 C997 1.348 . S
C994 C998 1.356 . S
C994 O1045 1.325 . S
C995 N996 1.279 . S
C995 C998 1.358 . S
C995 H1052 0.930 . S
N996 C995 1.279 . S
N996 C999 1.314 . S
C997 C994 1.348 . S
C997 C999 1.353 . S
C997 H1053 0.929 . S
C998 C994 1.356 . S
C998 C995 1.358 . S
C998 H1054 0.930 . S
C999 N996 1.314 . S
C999 C997 1.353 . S
C999 H1055 0.930 . S
C1000 N1001 1.314 . S
C1000 C1005 1.353 . S
C1000 H1006 0.930 . S
N1001 Li984 1.990 . S
N1001 C1000 1.314 . S
N1001 C1003 1.279 . S
C1002 C1003 1.358 . S
C1002 C1004 1.356 . S
C1002 H1056 0.930 . S
C1003 N1001 1.279 . S
C1003 C1002 1.358 . S
C1003 H1007 0.930 . S
C1004 C1002 1.356 . S
C1004 C1005 1.348 . S
C1005 C1000 1.353 . S
C1005 C1004 1.348 . S
C1005 H1057 0.929 . S
H1006 C1000 0.930 . S
H1007 C1003 0.930 . S
C1008 N1009 1.314 . S
C1008 C1010 1.353 . S
C1008 H1014 0.930 . S
N1009 Li985 1.990 . S
N1009 C1008 1.314 . S
N1009 C1012 1.279 . S
C1010 C1008 1.353 . S
C1010 C1013 1.348 . S
C1010 H1058 0.929 . S
C1011 C1012 1.358 . S
C1011 C1013 1.356 . S
C1011 H1059 0.930 . S
C1012 N1009 1.279 . S
C1012 C1011 1.358 . S
C1012 H1015 0.930 . S
C1013 C1010 1.348 . S
C1013 C1011 1.356 . S
H1014 C1008 0.930 . S
H1015 C1012 0.930 . S
C1016 C1018 1.348 . S
C1016 C1019 1.356 . S
C1016 O1046 1.325 . S
N1017 C1020 1.314 . S
N1017 C1021 1.279 . S
C1018 C1016 1.348 . S
C1018 C1020 1.353 . S
C1018 H1060 0.929 . S
C1019 C1016 1.356 . S
C1019 C1021 1.358 . S
C1019 H1061 0.930 . S
C1020 N1017 1.314 . S
C1020 C1018 1.353 . S
C1020 H1062 0.930 . S
C1021 N1017 1.279 . S
C1021 C1019 1.358 . S
C1021 H1063 0.930 . S
C1022 C1023 1.348 . S
C1022 C1024 1.356 . S
C1022 O1047 1.325 . S
C1023 C1022 1.348 . S
C1023 C1025 1.353 . S
C1023 H1064 0.929 . S
C1024 C1022 1.356 . S
C1024 C1026 1.358 . S
C1024 H1065 0.930 . S
C1025 C1023 1.353 . S
C1025 N1027 1.314 . S
C1025 H1066 0.930 . S
C1026 C1024 1.358 . S
C1026 N1027 1.279 . S
C1026 H1067 0.930 . S
N1027 C1025 1.314 . S
N1027 C1026 1.279 . S
C1028 C1030 1.353 . S
C1028 N1031 1.314 . S
C1028 H1034 0.930 . S
C1029 N1031 1.279 . S
C1029 C1032 1.358 . S
C1029 H1035 0.930 . S
C1030 C1028 1.353 . S
C1030 C1033 1.348 . S
C1030 H1068 0.929 . S
N1031 Li986 1.990 . S
N1031 C1028 1.314 . S
N1031 C1029 1.279 . S
C1032 C1029 1.358 . S
C1032 C1033 1.356 . S
C1032 H1069 0.930 . S
C1033 C1030 1.348 . S
C1033 C1032 1.356 . S
H1034 C1028 0.930 . S
H1035 C1029 0.930 . S
C1036 N1037 1.314 . S
C1036 C1038 1.353 . S
C1036 H1042 0.930 . S
N1037 Li987 1.990 . S
N1037 C1036 1.314 . S
N1037 C1040 1.279 . S
C1038 C1036 1.353 . S
C1038 C1041 1.348 . S
C1038 H1070 0.929 . S
C1039 C1040 1.358 . S
C1039 C1041 1.356 . S
C1039 H1071 0.930 . S
C1040 N1037 1.279 . S
C1040 C1039 1.358 . S
C1040 H1043 0.930 . S
C1041 C1038 1.348 . S
C1041 C1039 1.356 . S
H1042 C1036 0.930 . S
H1043 C1040 0.930 . S
O1044 Li984 1.956 . S
O1044 Li985 1.970 . S
O1044 Li986 1.961 . S
O1044 C988 1.325 . S
O1045 Li984 1.970 . S
O1045 Li985 1.956 . S
O1045 Li987 1.961 . S
O1045 C994 1.325 . S
O1046 Li984 1.961 . S
O1046 Li986 1.956 . S
O1046 Li987 1.970 . S
O1046 C1016 1.325 . S
O1047 Li985 1.961 . S
O1047 Li986 1.970 . S
O1047 Li987 1.956 . S
O1047 C1022 1.325 . S
H1048 C990 0.929 . S
H1049 C991 0.930 . S
H1050 C992 0.930 . S
H1051 C993 0.930 . S
H1052 C995 0.930 . S
H1053 C997 0.929 . S
H1054 C998 0.930 . S
H1055 C999 0.930 . S
H1056 C1002 0.930 . S
H1057 C1005 0.929 . S
H1058 C1010 0.929 . S
H1059 C1011 0.930 . S
H1060 C1018 0.929 . S
H1061 C1019 0.930 . S
H1062 C1020 0.930 . S
H1063 C1021 0.930 . S
H1064 C1023 0.929 . S
H1065 C1024 0.930 . S
H1066 C1025 0.930 . S
H1067 C1026 0.930 . S
H1068 C1030 0.929 . S
H1069 C1032 0.930 . S
H1070 C1038 0.929 . S
H1071 C1039 0.930 . S
Li1072 N1089 1.990 . S
Li1072 O1132 1.956 . S
Li1072 O1133 1.970 1_455 S
Li1072 O1134 1.961 . S
Li1073 N1097 1.990 . S
Li1073 O1132 1.970 1_655 S
Li1073 O1133 1.956 . S
Li1073 O1135 1.961 1_655 S
Li1074 N1119 1.990 . S
Li1074 O1132 1.961 . S
Li1074 O1134 1.956 . S
Li1074 O1135 1.970 . S
Li1075 N1125 1.990 . S
Li1075 O1133 1.961 1_455 S
Li1075 O1134 1.970 . S
Li1075 O1135 1.956 . S
C1076 C1078 1.348 . S
C1076 C1079 1.356 . S
C1076 O1132 1.325 . S
N1077 C1080 1.314 . S
N1077 C1081 1.279 . S
C1078 C1076 1.348 . S
C1078 C1080 1.353 . S
C1078 H1136 0.929 1_455 S
C1079 C1076 1.356 . S
C1079 C1081 1.358 . S
C1079 H1137 0.930 . S
C1080 N1077 1.314 . S
C1080 C1078 1.353 . S
C1080 H1138 0.930 1_455 S
C1081 N1077 1.279 . S
C1081 C1079 1.358 . S
C1081 H1139 0.930 . S
C1082 C1085 1.348 . S
C1082 C1086 1.356 . S
C1082 O1133 1.325 . S
C1083 N1084 1.279 . S
C1083 C1086 1.358 . S
C1083 H1140 0.930 . S
N1084 C1083 1.279 . S
N1084 C1087 1.314 . S
C1085 C1082 1.348 . S
C1085 C1087 1.353 . S
C1085 H1141 0.929 . S
C1086 C1082 1.356 . S
C1086 C1083 1.358 . S
C1086 H1142 0.930 . S
C1087 N1084 1.314 . S
C1087 C1085 1.353 . S
C1087 H1143 0.930 . S
C1088 N1089 1.314 . S
C1088 C1093 1.353 . S
C1088 H1094 0.930 . S
N1089 Li1072 1.990 . S
N1089 C1088 1.314 . S
N1089 C1091 1.279 . S
C1090 C1091 1.358 . S
C1090 C1092 1.356 . S
C1090 H1144 0.930 . S
C1091 N1089 1.279 . S
C1091 C1090 1.358 . S
C1091 H1095 0.930 . S
C1092 C1090 1.356 . S
C1092 C1093 1.348 . S
C1093 C1088 1.353 . S
C1093 C1092 1.348 . S
C1093 H1145 0.929 . S
H1094 C1088 0.930 . S
H1095 C1091 0.930 . S
C1096 N1097 1.314 . S
C1096 C1098 1.353 . S
C1096 H1102 0.930 . S
N1097 Li1073 1.990 . S
N1097 C1096 1.314 . S
N1097 C1100 1.279 . S
C1098 C1096 1.353 . S
C1098 C1101 1.348 . S
C1098 H1146 0.929 . S
C1099 C1100 1.358 . S
C1099 C1101 1.356 . S
C1099 H1147 0.930 . S
C1100 N1097 1.279 . S
C1100 C1099 1.358 . S
C1100 H1103 0.930 . S
C1101 C1098 1.348 . S
C1101 C1099 1.356 . S
H1102 C1096 0.930 . S
H1103 C1100 0.930 . S
C1104 C1106 1.348 . S
C1104 C1107 1.356 . S
C1104 O1134 1.325 . S
N1105 C1108 1.314 . S
N1105 C1109 1.279 . S
C1106 C1104 1.348 . S
C1106 C1108 1.353 . S
C1106 H1148 0.929 . S
C1107 C1104 1.356 . S
C1107 C1109 1.358 . S
C1107 H1149 0.930 . S
C1108 N1105 1.314 . S
C1108 C1106 1.353 . S
C1108 H1150 0.930 . S
C1109 N1105 1.279 . S
C1109 C1107 1.358 . S
C1109 H1151 0.930 . S
C1110 C1111 1.348 . S
C1110 C1112 1.356 1_455 S
C1110 O1135 1.325 . S
C1111 C1110 1.348 . S
C1111 C1113 1.353 . S
C1111 H1152 0.929 . S
C1112 C1110 1.356 1_655 S
C1112 C1114 1.358 . S
C1112 H1153 0.930 . S
C1113 C1111 1.353 . S
C1113 N1115 1.254 1_455 S
C1113 H1154 0.930 . S
C1114 C1112 1.358 . S
C1114 N1115 1.330 . S
C1114 H1155 0.930 . S
N1115 C1113 1.254 1_655 S
N1115 C1114 1.330 . S
C1116 C1118 1.353 . S
C1116 N1119 1.314 . S
C1116 H1122 0.930 . S
C1117 N1119 1.279 . S
C1117 C1120 1.358 . S
C1117 H1123 0.930 . S
C1118 C1116 1.353 . S
C1118 C1121 1.348 . S
C1118 H1156 0.929 . S
N1119 Li1074 1.990 . S
N1119 C1116 1.314 . S
N1119 C1117 1.279 . S
C1120 C1117 1.358 . S
C1120 C1121 1.356 . S
C1120 H1157 0.930 . S
C1121 C1118 1.348 . S
C1121 C1120 1.356 . S
H1122 C1116 0.930 . S
H1123 C1117 0.930 . S
C1124 N1125 1.314 1_655 S
C1124 C1126 1.353 . S
C1124 H1130 0.930 . S
N1125 Li1075 1.990 . S
N1125 C1124 1.314 1_455 S
N1125 C1128 1.279 . S
C1126 C1124 1.353 . S
C1126 C1129 1.348 . S
C1126 H1158 0.929 . S
C1127 C1128 1.358 . S
C1127 C1129 1.356 1_455 S
C1127 H1159 0.930 . S
C1128 N1125 1.279 . S
C1128 C1127 1.358 . S
C1128 H1131 0.930 . S
C1129 C1126 1.348 . S
C1129 C1127 1.356 1_655 S
H1130 C1124 0.930 . S
H1131 C1128 0.930 . S
O1132 Li1072 1.956 . S
O1132 Li1073 1.970 1_455 S
O1132 Li1074 1.961 . S
O1132 C1076 1.325 . S
O1133 Li1072 1.970 1_655 S
O1133 Li1073 1.956 . S
O1133 Li1075 1.961 1_655 S
O1133 C1082 1.325 . S
O1134 Li1072 1.961 . S
O1134 Li1074 1.956 . S
O1134 Li1075 1.970 . S
O1134 C1104 1.325 . S
O1135 Li1073 1.961 1_455 S
O1135 Li1074 1.970 . S
O1135 Li1075 1.956 . S
O1135 C1110 1.325 . S
H1136 C1078 0.929 1_655 S
H1137 C1079 0.930 . S
H1138 C1080 0.930 1_655 S
H1139 C1081 0.930 . S
H1140 C1083 0.930 . S
H1141 C1085 0.929 . S
H1142 C1086 0.930 . S
H1143 C1087 0.930 . S
H1144 C1090 0.930 . S
H1145 C1093 0.929 . S
H1146 C1098 0.929 . S
H1147 C1099 0.930 . S
H1148 C1106 0.929 . S
H1149 C1107 0.930 . S
H1150 C1108 0.930 . S
H1151 C1109 0.930 . S
H1152 C1111 0.929 . S
H1153 C1112 0.930 . S
H1154 C1113 0.930 . S
H1155 C1114 0.930 . S
H1156 C1118 0.929 . S
H1157 C1120 0.930 . S
H1158 C1126 0.929 . S
H1159 C1127 0.930 . S
Li1160 N1177 1.990 . S
Li1160 O1220 1.956 . S
Li1160 O1221 1.970 . S
Li1160 O1222 1.961 . S
Li1161 N1185 1.990 . S
Li1161 O1220 1.970 . S
Li1161 O1221 1.956 . S
Li1161 O1223 1.961 . S
Li1162 N1207 1.990 . S
Li1162 O1220 1.961 . S
Li1162 O1222 1.956 . S
Li1162 O1223 1.970 . S
Li1163 N1213 1.990 . S
Li1163 O1221 1.961 . S
Li1163 O1222 1.970 . S
Li1163 O1223 1.956 . S
C1164 C1166 1.348 . S
C1164 C1167 1.356 . S
C1164 O1220 1.325 . S
N1165 C1168 1.314 . S
N1165 C1169 1.279 . S
C1166 C1164 1.348 . S
C1166 C1168 1.353 . S
C1166 H1224 0.929 . S
C1167 C1164 1.356 . S
C1167 C1169 1.358 . S
C1167 H1225 0.930 . S
C1168 N1165 1.314 . S
C1168 C1166 1.353 . S
C1168 H1226 0.930 . S
C1169 N1165 1.279 . S
C1169 C1167 1.358 . S
C1169 H1227 0.930 . S
C1170 C1173 1.348 . S
C1170 C1174 1.356 . S
C1170 O1221 1.325 . S
C1171 N1172 1.279 . S
C1171 C1174 1.358 . S
C1171 H1228 0.930 . S
N1172 C1171 1.279 . S
N1172 C1175 1.314 . S
C1173 C1170 1.348 . S
C1173 C1175 1.353 . S
C1173 H1229 0.929 . S
C1174 C1170 1.356 . S
C1174 C1171 1.358 . S
C1174 H1230 0.930 . S
C1175 N1172 1.314 . S
C1175 C1173 1.353 . S
C1175 H1231 0.930 . S
C1176 N1177 1.314 . S
C1176 C1181 1.353 . S
C1176 H1182 0.930 . S
N1177 Li1160 1.990 . S
N1177 C1176 1.314 . S
N1177 C1179 1.279 . S
C1178 C1179 1.358 . S
C1178 C1180 1.356 . S
C1178 H1232 0.930 . S
C1179 N1177 1.279 . S
C1179 C1178 1.358 . S
C1179 H1183 0.930 . S
C1180 C1178 1.356 . S
C1180 C1181 1.348 . S
C1181 C1176 1.353 . S
C1181 C1180 1.348 . S
C1181 H1233 0.929 . S
H1182 C1176 0.930 . S
H1183 C1179 0.930 . S
C1184 N1185 1.314 . S
C1184 C1186 1.353 . S
C1184 H1190 0.930 . S
N1185 Li1161 1.990 . S
N1185 C1184 1.314 . S
N1185 C1188 1.279 . S
C1186 C1184 1.353 . S
C1186 C1189 1.348 . S
C1186 H1234 0.929 . S
C1187 C1188 1.358 . S
C1187 C1189 1.356 . S
C1187 H1235 0.930 . S
C1188 N1185 1.279 . S
C1188 C1187 1.358 . S
C1188 H1191 0.930 . S
C1189 C1186 1.348 . S
C1189 C1187 1.356 . S
H1190 C1184 0.930 . S
H1191 C1188 0.930 . S
C1192 C1194 1.348 . S
C1192 C1195 1.356 . S
C1192 O1222 1.325 . S
N1193 C1196 1.314 . S
N1193 C1197 1.279 . S
C1194 C1192 1.348 . S
C1194 C1196 1.353 . S
C1194 H1236 0.929 . S
C1195 C1192 1.356 . S
C1195 C1197 1.358 . S
C1195 H1237 0.930 . S
C1196 N1193 1.314 . S
C1196 C1194 1.353 . S
C1196 H1238 0.930 . S
C1197 N1193 1.279 . S
C1197 C1195 1.358 . S
C1197 H1239 0.930 . S
C1198 C1199 1.348 . S
C1198 C1200 1.356 . S
C1198 O1223 1.325 . S
C1199 C1198 1.348 . S
C1199 C1201 1.353 . S
C1199 H1240 0.929 . S
C1200 C1198 1.356 . S
C1200 C1202 1.358 . S
C1200 H1241 0.930 . S
C1201 C1199 1.353 . S
C1201 N1203 1.314 . S
C1201 H1242 0.930 . S
C1202 C1200 1.358 . S
C1202 N1203 1.279 . S
C1202 H1243 0.930 . S
N1203 C1201 1.314 . S
N1203 C1202 1.279 . S
C1204 C1206 1.353 . S
C1204 N1207 1.314 . S
C1204 H1210 0.930 . S
C1205 N1207 1.279 . S
C1205 C1208 1.358 . S
C1205 H1211 0.930 . S
C1206 C1204 1.353 . S
C1206 C1209 1.348 . S
C1206 H1244 0.929 . S
N1207 Li1162 1.990 . S
N1207 C1204 1.314 . S
N1207 C1205 1.279 . S
C1208 C1205 1.358 . S
C1208 C1209 1.356 . S
C1208 H1245 0.930 . S
C1209 C1206 1.348 . S
C1209 C1208 1.356 . S
H1210 C1204 0.930 . S
H1211 C1205 0.930 . S
C1212 N1213 1.314 . S
C1212 C1214 1.353 . S
C1212 H1218 0.930 . S
N1213 Li1163 1.990 . S
N1213 C1212 1.314 . S
N1213 C1216 1.279 . S
C1214 C1212 1.353 . S
C1214 C1217 1.348 . S
C1214 H1246 0.929 . S
C1215 C1216 1.358 . S
C1215 C1217 1.356 . S
C1215 H1247 0.930 . S
C1216 N1213 1.279 . S
C1216 C1215 1.358 . S
C1216 H1219 0.930 . S
C1217 C1214 1.348 . S
C1217 C1215 1.356 . S
H1218 C1212 0.930 . S
H1219 C1216 0.930 . S
O1220 Li1160 1.956 . S
O1220 Li1161 1.970 . S
O1220 Li1162 1.961 . S
O1220 C1164 1.325 . S
O1221 Li1160 1.970 . S
O1221 Li1161 1.956 . S
O1221 Li1163 1.961 . S
O1221 C1170 1.325 . S
O1222 Li1160 1.961 . S
O1222 Li1162 1.956 . S
O1222 Li1163 1.970 . S
O1222 C1192 1.325 . S
O1223 Li1161 1.961 . S
O1223 Li1162 1.970 . S
O1223 Li1163 1.956 . S
O1223 C1198 1.325 . S
H1224 C1166 0.929 . S
H1225 C1167 0.930 . S
H1226 C1168 0.930 . S
H1227 C1169 0.930 . S
H1228 C1171 0.930 . S
H1229 C1173 0.929 . S
H1230 C1174 0.930 . S
H1231 C1175 0.930 . S
H1232 C1178 0.930 . S
H1233 C1181 0.929 . S
H1234 C1186 0.929 . S
H1235 C1187 0.930 . S
H1236 C1194 0.929 . S
H1237 C1195 0.930 . S
H1238 C1196 0.930 . S
H1239 C1197 0.930 . S
H1240 C1199 0.929 . S
H1241 C1200 0.930 . S
H1242 C1201 0.930 . S
H1243 C1202 0.930 . S
H1244 C1206 0.929 . S
H1245 C1208 0.930 . S
H1246 C1214 0.929 . S
H1247 C1215 0.930 . S
C1248 C1249 1.349 . S
C1248 C1250 1.327 . S
C1248 H1273 0.950 . S
C1249 C1248 1.349 . S
C1249 C1265 1.349 . S
C1250 C1248 1.327 . S
C1250 C1269 1.429 . S
C1250 H1274 0.950 . S
C1251 C1268 1.574 . S
C1251 C1270 1.368 . S
C1251 H1275 0.949 . S
H1252 C1256 0.949 . S
C1253 C1254 1.349 . S
C1253 C1255 1.327 . S
C1253 H1276 0.950 . S
C1254 C1253 1.349 . S
C1254 C1266 1.349 . S
C1255 C1253 1.327 . S
C1255 C1271 1.429 . S
C1255 H1277 0.950 . S
C1256 H1252 0.949 . S
C1256 C1264 1.574 . S
C1256 C1272 1.368 . S
H1257 C1265 0.950 . S
H1258 C1263 0.950 . S
H1259 C1264 0.949 . S
H1260 C1266 0.950 . S
H1261 C1267 0.950 . S
H1262 C1268 0.949 . S
C1263 H1258 0.950 . S
C1263 C1265 1.327 . S
C1263 C1269 1.429 . S
C1264 C1256 1.574 . S
C1264 H1259 0.949 . S
C1264 C1270 1.368 . S
C1265 C1249 1.349 . S
C1265 H1257 0.950 . S
C1265 C1263 1.327 . S
C1266 C1254 1.349 . S
C1266 H1260 0.950 . S
C1266 C1267 1.327 . S
C1267 H1261 0.950 . S
C1267 C1266 1.327 . S
C1267 C1271 1.429 . S
C1268 C1251 1.574 . S
C1268 H1262 0.949 . S
C1268 C1272 1.368 . S
C1269 C1250 1.429 . S
C1269 C1263 1.429 . S
C1269 C1270 1.523 . S
C1270 C1251 1.368 . S
C1270 C1264 1.368 . S
C1270 C1269 1.523 . S
C1271 C1255 1.429 . S
C1271 C1267 1.429 . S
C1271 C1272 1.523 . S
C1272 C1256 1.368 . S
C1272 C1268 1.368 . S
C1272 C1271 1.523 . S
H1273 C1248 0.950 . S
H1274 C1250 0.950 . S
H1275 C1251 0.949 . S
H1276 C1253 0.950 . S
H1277 C1255 0.950 . S
C1278 C1279 1.349 . S
C1278 C1280 1.327 . S
C1278 H1303 0.950 . S
C1279 C1278 1.349 . S
C1279 C1295 1.349 . S
C1280 C1278 1.327 . S
C1280 C1299 1.429 . S
C1280 H1304 0.950 . S
C1281 C1298 1.574 . S
C1281 C1300 1.368 . S
C1281 H1305 0.949 . S
H1282 C1286 0.949 . S
C1283 C1284 1.349 . S
C1283 C1285 1.327 . S
C1283 H1306 0.950 . S
C1284 C1283 1.349 . S
C1284 C1296 1.349 . S
C1285 C1283 1.327 . S
C1285 C1301 1.429 . S
C1285 H1307 0.950 . S
C1286 H1282 0.949 . S
C1286 C1294 1.574 . S
C1286 C1302 1.368 . S
H1287 C1295 0.950 . S
H1288 C1293 0.950 . S
H1289 C1294 0.949 . S
H1290 C1296 0.950 . S
H1291 C1297 0.950 . S
H1292 C1298 0.949 . S
C1293 H1288 0.950 . S
C1293 C1295 1.327 . S
C1293 C1299 1.429 . S
C1294 C1286 1.574 . S
C1294 H1289 0.949 . S
C1294 C1300 1.368 . S
C1295 C1279 1.349 . S
C1295 H1287 0.950 . S
C1295 C1293 1.327 . S
C1296 C1284 1.349 . S
C1296 H1290 0.950 . S
C1296 C1297 1.327 . S
C1297 H1291 0.950 . S
C1297 C1296 1.327 . S
C1297 C1301 1.429 . S
C1298 C1281 1.574 . S
C1298 H1292 0.949 . S
C1298 C1302 1.368 . S
C1299 C1280 1.429 . S
C1299 C1293 1.429 . S
C1299 C1300 1.523 . S
C1300 C1281 1.368 . S
C1300 C1294 1.368 . S
C1300 C1299 1.523 . S
C1301 C1285 1.429 . S
C1301 C1297 1.429 . S
C1301 C1302 1.523 . S
C1302 C1286 1.368 . S
C1302 C1298 1.368 . S
C1302 C1301 1.523 . S
H1303 C1278 0.950 . S
H1304 C1280 0.950 . S
H1305 C1281 0.949 . S
H1306 C1283 0.950 . S
H1307 C1285 0.950 . S
C1308 C1309 1.349 . S
C1308 C1310 1.327 . S
C1308 H1333 0.950 . S
C1309 C1308 1.349 . S
C1309 C1325 1.349 . S
C1310 C1308 1.327 . S
C1310 C1329 1.429 . S
C1310 H1334 0.950 . S
C1311 C1328 1.574 . S
C1311 C1330 1.368 . S
C1311 H1335 0.949 . S
H1312 C1316 0.949 . S
C1313 C1314 1.349 . S
C1313 C1315 1.327 . S
C1313 H1336 0.950 . S
C1314 C1313 1.349 . S
C1314 C1326 1.349 . S
C1315 C1313 1.327 . S
C1315 C1331 1.429 . S
C1315 H1337 0.950 . S
C1316 H1312 0.949 . S
C1316 C1324 1.574 . S
C1316 C1332 1.368 . S
H1317 C1325 0.950 . S
H1318 C1323 0.950 . S
H1319 C1324 0.949 . S
H1320 C1326 0.950 . S
H1321 C1327 0.950 . S
H1322 C1328 0.949 . S
C1323 H1318 0.950 . S
C1323 C1325 1.327 . S
C1323 C1329 1.429 . S
C1324 C1316 1.574 . S
C1324 H1319 0.949 . S
C1324 C1330 1.368 . S
C1325 C1309 1.349 . S
C1325 H1317 0.950 . S
C1325 C1323 1.327 . S
C1326 C1314 1.349 . S
C1326 H1320 0.950 . S
C1326 C1327 1.327 . S
C1327 H1321 0.950 . S
C1327 C1326 1.327 . S
C1327 C1331 1.429 . S
C1328 C1311 1.574 . S
C1328 H1322 0.949 . S
C1328 C1332 1.368 . S
C1329 C1310 1.429 . S
C1329 C1323 1.429 . S
C1329 C1330 1.523 . S
C1330 C1311 1.368 . S
C1330 C1324 1.368 . S
C1330 C1329 1.523 . S
C1331 C1315 1.429 . S
C1331 C1327 1.429 . S
C1331 C1332 1.523 . S
C1332 C1316 1.368 . S
C1332 C1328 1.368 . S
C1332 C1331 1.523 . S
H1333 C1308 0.950 . S
H1334 C1310 0.950 . S
H1335 C1311 0.949 . S
H1336 C1313 0.950 . S
H1337 C1315 0.950 . S
C1338 C1339 1.349 . S
C1338 C1340 1.327 . S
C1338 H1363 0.950 . S
C1339 C1338 1.349 . S
C1339 C1355 1.349 . S
C1340 C1338 1.327 . S
C1340 C1359 1.429 . S
C1340 H1364 0.950 . S
C1341 C1358 1.574 . S
C1341 C1360 1.368 1_545 S
C1341 H1365 0.949 . S
H1342 C1346 0.949 . S
C1343 C1344 1.349 . S
C1343 C1345 1.322 1_655 S
C1343 H1366 0.950 . S
C1344 C1343 1.349 . S
C1344 C1356 1.349 1_545 S
C1345 C1343 1.322 1_455 S
C1345 C1361 1.424 1_455 S
C1345 H1367 0.959 . S
C1346 H1342 0.949 . S
C1346 C1354 1.574 1_655 S
C1346 C1362 1.368 1_665 S
H1347 C1355 0.950 1_545 S
H1348 C1353 0.950 . S
H1349 C1354 0.949 1_655 S
H1350 C1356 0.950 . S
H1351 C1357 0.950 . S
H1352 C1358 0.949 . S
C1353 H1348 0.950 . S
C1353 C1355 1.327 1_545 S
C1353 C1359 1.429 1_545 S
C1354 C1346 1.574 1_455 S
C1354 H1349 0.949 1_455 S
C1354 C1360 1.368 . S
C1355 C1339 1.349 . S
C1355 H1347 0.950 1_565 S
C1355 C1353 1.327 1_565 S
C1356 C1344 1.349 1_565 S
C1356 H1350 0.950 . S
C1356 C1357 1.327 . S
C1357 H1351 0.950 . S
C1357 C1356 1.327 . S
C1357 C1361 1.429 1_565 S
C1358 C1341 1.574 . S
C1358 H1352 0.949 . S
C1358 C1362 1.368 . S
C1359 C1340 1.429 . S
C1359 C1353 1.429 1_565 S
C1359 C1360 1.523 . S
C1360 C1341 1.368 1_565 S
C1360 C1354 1.368 . S
C1360 C1359 1.523 . S
C1361 C1345 1.424 1_655 S
C1361 C1357 1.429 1_545 S
C1361 C1362 1.523 1_655 S
C1362 C1346 1.368 1_445 S
C1362 C1358 1.368 . S
C1362 C1361 1.523 1_455 S
H1363 C1338 0.950 . S
H1364 C1340 0.950 . S
H1365 C1341 0.949 . S
H1366 C1343 0.950 . S
H1367 C1345 0.959 . S
C1368 C1369 1.349 . S
C1368 C1370 1.327 . S
C1368 H1393 0.950 . S
C1369 C1368 1.349 . S
C1369 C1385 1.349 . S
C1370 C1368 1.327 . S
C1370 C1389 1.429 . S
C1370 H1394 0.950 . S
C1371 C1388 1.574 . S
C1371 C1390 1.368 . S
C1371 H1395 0.949 . S
H1372 C1376 0.949 . S
C1373 C1374 1.349 . S
C1373 C1375 1.327 . S
C1373 H1396 0.950 . S
C1374 C1373 1.349 . S
C1374 C1386 1.349 . S
C1375 C1373 1.327 . S
C1375 C1391 1.429 . S
C1375 H1397 0.950 . S
C1376 H1372 0.949 . S
C1376 C1384 1.574 . S
C1376 C1392 1.368 . S
H1377 C1385 0.950 . S
H1378 C1383 0.950 . S
H1379 C1384 0.949 . S
H1380 C1386 0.950 . S
H1381 C1387 0.950 . S
H1382 C1388 0.949 . S
C1383 H1378 0.950 . S
C1383 C1385 1.327 . S
C1383 C1389 1.429 . S
C1384 C1376 1.574 . S
C1384 H1379 0.949 . S
C1384 C1390 1.368 . S
C1385 C1369 1.349 . S
C1385 H1377 0.950 . S
C1385 C1383 1.327 . S
C1386 C1374 1.349 . S
C1386 H1380 0.950 . S
C1386 C1387 1.327 . S
C1387 H1381 0.950 . S
C1387 C1386 1.327 . S
C1387 C1391 1.429 . S
C1388 C1371 1.574 . S
C1388 H1382 0.949 . S
C1388 C1392 1.368 . S
C1389 C1370 1.429 . S
C1389 C1383 1.429 . S
C1389 C1390 1.523 . S
C1390 C1371 1.368 . S
C1390 C1384 1.368 . S
C1390 C1389 1.523 . S
C1391 C1375 1.429 . S
C1391 C1387 1.429 . S
C1391 C1392 1.523 . S
C1392 C1376 1.368 . S
C1392 C1388 1.368 . S
C1392 C1391 1.523 . S
H1393 C1368 0.950 . S
H1394 C1370 0.950 . S
H1395 C1371 0.949 . S
H1396 C1373 0.950 . S
H1397 C1375 0.950 . S
C1398 C1399 1.349 . S
C1398 C1400 1.327 . S
C1398 H1423 0.950 . S
C1399 C1398 1.349 . S
C1399 C1415 1.349 . S
C1400 C1398 1.327 . S
C1400 C1419 1.429 . S
C1400 H1424 0.950 . S
C1401 C1418 1.574 . S
C1401 C1420 1.368 . S
C1401 H1425 0.949 . S
H1402 C1406 0.949 . S
C1403 C1404 1.349 . S
C1403 C1405 1.327 . S
C1403 H1426 0.950 . S
C1404 C1403 1.349 . S
C1404 C1416 1.349 . S
C1405 C1403 1.327 . S
C1405 C1421 1.429 . S
C1405 H1427 0.950 . S
C1406 H1402 0.949 . S
C1406 C1414 1.574 . S
C1406 C1422 1.368 . S
H1407 C1415 0.950 . S
H1408 C1413 0.950 . S
H1409 C1414 0.949 . S
H1410 C1416 0.950 . S
H1411 C1417 0.950 . S
H1412 C1418 0.949 . S
C1413 H1408 0.950 . S
C1413 C1415 1.327 . S
C1413 C1419 1.429 . S
C1414 C1406 1.574 . S
C1414 H1409 0.949 . S
C1414 C1420 1.368 . S
C1415 C1399 1.349 . S
C1415 H1407 0.950 . S
C1415 C1413 1.327 . S
C1416 C1404 1.349 . S
C1416 H1410 0.950 . S
C1416 C1417 1.327 . S
C1417 H1411 0.950 . S
C1417 C1416 1.327 . S
C1417 C1421 1.429 . S
C1418 C1401 1.574 . S
C1418 H1412 0.949 . S
C1418 C1422 1.368 . S
C1419 C1400 1.429 . S
C1419 C1413 1.429 . S
C1419 C1420 1.523 . S
C1420 C1401 1.368 . S
C1420 C1414 1.368 . S
C1420 C1419 1.523 . S
C1421 C1405 1.429 . S
C1421 C1417 1.429 . S
C1421 C1422 1.523 . S
C1422 C1406 1.368 . S
C1422 C1418 1.368 . S
C1422 C1421 1.523 . S
H1423 C1398 0.950 . S
H1424 C1400 0.950 . S
H1425 C1401 0.949 . S
H1426 C1403 0.950 . S
H1427 C1405 0.950 . S
C1428 C1429 1.349 . S
C1428 C1430 1.327 . S
C1428 H1453 0.950 . S
C1429 C1428 1.349 . S
C1429 C1445 1.349 . S
C1430 C1428 1.327 . S
C1430 C1449 1.429 . S
C1430 H1454 0.950 . S
C1431 C1448 1.574 . S
C1431 C1450 1.368 . S
C1431 H1455 0.949 . S
H1432 C1436 0.949 . S
C1433 C1434 1.349 . S
C1433 C1435 1.327 . S
C1433 H1456 0.950 . S
C1434 C1433 1.349 . S
C1434 C1446 1.349 . S
C1435 C1433 1.327 . S
C1435 C1451 1.429 . S
C1435 H1457 0.950 . S
C1436 H1432 0.949 . S
C1436 C1444 1.574 . S
C1436 C1452 1.368 . S
H1437 C1445 0.950 . S
H1438 C1443 0.950 . S
H1439 C1444 0.949 . S
H1440 C1446 0.950 . S
H1441 C1447 0.950 . S
H1442 C1448 0.949 . S
C1443 H1438 0.950 . S
C1443 C1445 1.327 . S
C1443 C1449 1.429 . S
C1444 C1436 1.574 . S
C1444 H1439 0.949 . S
C1444 C1450 1.368 . S
C1445 C1429 1.349 . S
C1445 H1437 0.950 . S
C1445 C1443 1.327 . S
C1446 C1434 1.349 . S
C1446 H1440 0.950 . S
C1446 C1447 1.327 . S
C1447 H1441 0.950 . S
C1447 C1446 1.327 . S
C1447 C1451 1.429 . S
C1448 C1431 1.574 . S
C1448 H1442 0.949 . S
C1448 C1452 1.368 . S
C1449 C1430 1.429 . S
C1449 C1443 1.429 . S
C1449 C1450 1.523 . S
C1450 C1431 1.368 . S
C1450 C1444 1.368 . S
C1450 C1449 1.523 . S
C1451 C1435 1.429 . S
C1451 C1447 1.429 . S
C1451 C1452 1.523 . S
C1452 C1436 1.368 . S
C1452 C1448 1.368 . S
C1452 C1451 1.523 . S
H1453 C1428 0.950 . S
H1454 C1430 0.950 . S
H1455 C1431 0.949 . S
H1456 C1433 0.950 . S
H1457 C1435 0.950 . S
C1458 C1459 1.349 . S
C1458 C1460 1.327 . S
C1458 H1483 0.978 . S
C1459 C1458 1.349 . S
C1459 C1475 1.349 . S
C1460 C1458 1.327 . S
C1460 C1479 1.429 . S
C1460 H1484 0.914 1_565 S
C1461 C1478 1.574 . S
C1461 C1480 1.368 . S
C1461 H1485 0.949 . S
H1462 C1466 0.949 1_545 S
C1463 C1464 1.349 . S
C1463 C1465 1.327 . S
C1463 H1486 0.950 . S
C1464 C1463 1.349 . S
C1464 C1476 1.349 . S
C1465 C1463 1.327 . S
C1465 C1481 1.429 . S
C1465 H1487 0.950 . S
C1466 H1462 0.949 1_565 S
C1466 C1474 1.574 . S
C1466 C1482 1.368 . S
H1467 C1475 0.950 . S
H1468 C1473 0.950 . S
H1469 C1474 0.949 1_545 S
H1470 C1476 0.950 1_545 S
H1471 C1477 0.950 1_545 S
H1472 C1478 0.949 . S
C1473 H1468 0.950 . S
C1473 C1475 1.327 . S
C1473 C1479 1.429 . S
C1474 C1466 1.574 . S
C1474 H1469 0.949 1_565 S
C1474 C1480 1.368 . S
C1475 C1459 1.349 . S
C1475 H1467 0.950 . S
C1475 C1473 1.327 . S
C1476 C1464 1.349 . S
C1476 H1470 0.950 1_565 S
C1476 C1477 1.327 . S
C1477 H1471 0.950 1_565 S
C1477 C1476 1.327 . S
C1477 C1481 1.429 . S
C1478 C1461 1.574 . S
C1478 H1472 0.949 . S
C1478 C1482 1.368 . S
C1479 C1460 1.429 . S
C1479 C1473 1.429 . S
C1479 C1480 1.523 . S
C1480 C1461 1.368 . S
C1480 C1474 1.368 . S
C1480 C1479 1.523 . S
C1481 C1465 1.429 . S
C1481 C1477 1.429 . S
C1481 C1482 1.523 . S
C1482 C1466 1.368 . S
C1482 C1478 1.368 . S
C1482 C1481 1.523 . S
H1483 C1458 0.978 . S
H1484 C1460 0.914 1_545 S
H1485 C1461 0.949 . S
H1486 C1463 0.950 . S
H1487 C1465 0.950 . S
C1488 C1489 1.349 . S
C1488 C1490 1.327 . S
C1488 H1513 0.950 . S
C1489 C1488 1.349 . S
C1489 C1505 1.349 . S
C1490 C1488 1.327 . S
C1490 C1509 1.429 . S
C1490 H1514 0.950 . S
C1491 C1508 1.574 . S
C1491 C1510 1.368 . S
C1491 H1515 0.949 . S
H1492 C1496 0.949 . S
C1493 C1494 1.349 . S
C1493 C1495 1.327 . S
C1493 H1516 0.950 . S
C1494 C1493 1.349 . S
C1494 C1506 1.349 . S
C1495 C1493 1.327 . S
C1495 C1511 1.429 . S
C1495 H1517 0.950 . S
C1496 H1492 0.949 . S
C1496 C1504 1.574 . S
C1496 C1512 1.368 . S
H1497 C1505 0.950 . S
H1498 C1503 0.950 . S
H1499 C1504 0.949 . S
H1500 C1506 0.950 . S
H1501 C1507 0.950 . S
H1502 C1508 0.949 . S
C1503 H1498 0.950 . S
C1503 C1505 1.327 . S
C1503 C1509 1.429 . S
C1504 C1496 1.574 . S
C1504 H1499 0.949 . S
C1504 C1510 1.368 . S
C1505 C1489 1.349 . S
C1505 H1497 0.950 . S
C1505 C1503 1.327 . S
C1506 C1494 1.349 . S
C1506 H1500 0.950 . S
C1506 C1507 1.327 . S
C1507 H1501 0.950 . S
C1507 C1506 1.327 . S
C1507 C1511 1.429 . S
C1508 C1491 1.574 . S
C1508 H1502 0.949 . S
C1508 C1512 1.368 . S
C1509 C1490 1.429 . S
C1509 C1503 1.429 . S
C1509 C1510 1.523 . S
C1510 C1491 1.368 . S
C1510 C1504 1.368 . S
C1510 C1509 1.523 . S
C1511 C1495 1.429 . S
C1511 C1507 1.429 . S
C1511 C1512 1.523 . S
C1512 C1496 1.368 . S
C1512 C1508 1.368 . S
C1512 C1511 1.523 . S
H1513 C1488 0.950 . S
H1514 C1490 0.950 . S
H1515 C1491 0.949 . S
H1516 C1493 0.950 . S
H1517 C1495 0.950 . S
C1518 C1519 1.349 . S
C1518 C1520 1.327 . S
C1518 H1543 0.950 . S
C1519 C1518 1.349 . S
C1519 C1535 1.349 . S
C1520 C1518 1.327 . S
C1520 C1539 1.429 . S
C1520 H1544 0.950 . S
C1521 C1538 1.574 . S
C1521 C1540 1.368 . S
C1521 H1545 0.949 . S
H1522 C1526 0.949 . S
C1523 C1524 1.349 . S
C1523 C1525 1.327 . S
C1523 H1546 0.950 . S
C1524 C1523 1.349 . S
C1524 C1536 1.349 . S
C1525 C1523 1.327 . S
C1525 C1541 1.429 . S
C1525 H1547 0.950 . S
C1526 H1522 0.949 . S
C1526 C1534 1.574 . S
C1526 C1542 1.368 . S
H1527 C1535 0.950 . S
H1528 C1533 0.950 . S
H1529 C1534 0.949 . S
H1530 C1536 0.950 . S
H1531 C1537 0.950 . S
H1532 C1538 0.949 . S
C1533 H1528 0.950 . S
C1533 C1535 1.327 . S
C1533 C1539 1.429 . S
C1534 C1526 1.574 . S
C1534 H1529 0.949 . S
C1534 C1540 1.368 . S
C1535 C1519 1.349 . S
C1535 H1527 0.950 . S
C1535 C1533 1.327 . S
C1536 C1524 1.349 . S
C1536 H1530 0.950 . S
C1536 C1537 1.327 . S
C1537 H1531 0.950 . S
C1537 C1536 1.327 . S
C1537 C1541 1.429 . S
C1538 C1521 1.574 . S
C1538 H1532 0.949 . S
C1538 C1542 1.368 . S
C1539 C1520 1.429 . S
C1539 C1533 1.429 . S
C1539 C1540 1.523 . S
C1540 C1521 1.368 . S
C1540 C1534 1.368 . S
C1540 C1539 1.523 . S
C1541 C1525 1.429 . S
C1541 C1537 1.429 . S
C1541 C1542 1.523 . S
C1542 C1526 1.368 . S
C1542 C1538 1.368 . S
C1542 C1541 1.523 . S
H1543 C1518 0.950 . S
H1544 C1520 0.950 . S
H1545 C1521 0.949 . S
H1546 C1523 0.950 . S
H1547 C1525 0.950 . S
C1548 C1549 1.349 . S
C1548 C1550 1.327 . S
C1548 H1573 0.950 . S
C1549 C1548 1.349 . S
C1549 C1565 1.349 . S
C1550 C1548 1.327 . S
C1550 C1569 1.429 . S
C1550 H1574 0.950 . S
C1551 C1568 1.574 . S
C1551 C1570 1.368 . S
C1551 H1575 0.949 . S
H1552 C1556 0.949 . S
C1553 C1554 1.349 . S
C1553 C1555 1.327 . S
C1553 H1576 0.950 . S
C1554 C1553 1.349 . S
C1554 C1566 1.349 . S
C1555 C1553 1.327 . S
C1555 C1571 1.429 . S
C1555 H1577 0.950 . S
C1556 H1552 0.949 . S
C1556 C1564 1.574 . S
C1556 C1572 1.368 . S
H1557 C1565 0.950 . S
H1558 C1563 0.950 . S
H1559 C1564 0.949 . S
H1560 C1566 0.950 . S
H1561 C1567 0.950 . S
H1562 C1568 0.949 . S
C1563 H1558 0.950 . S
C1563 C1565 1.327 . S
C1563 C1569 1.429 . S
C1564 C1556 1.574 . S
C1564 H1559 0.949 . S
C1564 C1570 1.368 . S
C1565 C1549 1.349 . S
C1565 H1557 0.950 . S
C1565 C1563 1.327 . S
C1566 C1554 1.349 . S
C1566 H1560 0.950 . S
C1566 C1567 1.327 . S
C1567 H1561 0.950 . S
C1567 C1566 1.327 . S
C1567 C1571 1.429 . S
C1568 C1551 1.574 . S
C1568 H1562 0.949 . S
C1568 C1572 1.368 . S
C1569 C1550 1.429 . S
C1569 C1563 1.429 . S
C1569 C1570 1.523 . S
C1570 C1551 1.368 . S
C1570 C1564 1.368 . S
C1570 C1569 1.523 . S
C1571 C1555 1.429 . S
C1571 C1567 1.429 . S
C1571 C1572 1.523 . S
C1572 C1556 1.368 . S
C1572 C1568 1.368 . S
C1572 C1571 1.523 . S
H1573 C1548 0.950 . S
H1574 C1550 0.950 . S
H1575 C1551 0.949 . S
H1576 C1553 0.950 . S
H1577 C1555 0.950 . S
C1578 C1579 1.349 . S
C1578 C1580 1.327 . S
C1578 H1603 0.950 . S
C1579 C1578 1.349 . S
C1579 C1595 1.349 . S
C1580 C1578 1.327 . S
C1580 C1599 1.429 . S
C1580 H1604 0.950 . S
C1581 C1598 1.574 . S
C1581 C1600 1.368 . S
C1581 H1605 0.949 . S
H1582 C1586 0.949 . S
C1583 C1584 1.349 . S
C1583 C1585 1.327 . S
C1583 H1606 0.950 . S
C1584 C1583 1.349 . S
C1584 C1596 1.349 . S
C1585 C1583 1.327 . S
C1585 C1601 1.429 . S
C1585 H1607 0.950 . S
C1586 H1582 0.949 . S
C1586 C1594 1.574 . S
C1586 C1602 1.368 . S
H1587 C1595 0.950 . S
H1588 C1593 0.950 . S
H1589 C1594 0.949 . S
H1590 C1596 0.950 . S
H1591 C1597 0.950 . S
H1592 C1598 0.949 . S
C1593 H1588 0.950 . S
C1593 C1595 1.327 . S
C1593 C1599 1.429 . S
C1594 C1586 1.574 . S
C1594 H1589 0.949 . S
C1594 C1600 1.368 . S
C1595 C1579 1.349 . S
C1595 H1587 0.950 . S
C1595 C1593 1.327 . S
C1596 C1584 1.349 . S
C1596 H1590 0.950 . S
C1596 C1597 1.327 . S
C1597 H1591 0.950 . S
C1597 C1596 1.327 . S
C1597 C1601 1.429 . S
C1598 C1581 1.574 . S
C1598 H1592 0.949 . S
C1598 C1602 1.368 . S
C1599 C1580 1.429 . S
C1599 C1593 1.429 . S
C1599 C1600 1.523 . S
C1600 C1581 1.368 . S
C1600 C1594 1.368 . S
C1600 C1599 1.523 . S
C1601 C1585 1.429 . S
C1601 C1597 1.429 . S
C1601 C1602 1.523 . S
C1602 C1586 1.368 . S
C1602 C1598 1.368 . S
C1602 C1601 1.523 . S
H1603 C1578 0.950 . S
H1604 C1580 0.950 . S
H1605 C1581 0.949 . S
H1606 C1583 0.950 . S
H1607 C1585 0.950 . S
C1608 C1609 1.349 . S
C1608 C1610 1.327 . S
C1608 H1633 0.950 . S
C1609 C1608 1.349 . S
C1609 C1625 1.349 . S
C1610 C1608 1.327 . S
C1610 C1629 1.429 . S
C1610 H1634 0.950 . S
C1611 C1628 1.574 . S
C1611 C1630 1.368 . S
C1611 H1635 0.949 . S
H1612 C1616 0.949 . S
C1613 C1614 1.349 . S
C1613 C1615 1.327 . S
C1613 H1636 0.950 . S
C1614 C1613 1.349 . S
C1614 C1626 1.349 . S
C1615 C1613 1.327 . S
C1615 C1631 1.429 . S
C1615 H1637 0.950 . S
C1616 H1612 0.949 . S
C1616 C1624 1.574 . S
C1616 C1632 1.368 . S
H1617 C1625 0.950 . S
H1618 C1623 0.950 . S
H1619 C1624 0.949 . S
H1620 C1626 0.950 . S
H1621 C1627 0.950 . S
H1622 C1628 0.949 . S
C1623 H1618 0.950 . S
C1623 C1625 1.327 . S
C1623 C1629 1.429 . S
C1624 C1616 1.574 . S
C1624 H1619 0.949 . S
C1624 C1630 1.368 . S
C1625 C1609 1.349 . S
C1625 H1617 0.950 . S
C1625 C1623 1.327 . S
C1626 C1614 1.349 . S
C1626 H1620 0.950 . S
C1626 C1627 1.327 . S
C1627 H1621 0.950 . S
C1627 C1626 1.327 . S
C1627 C1631 1.429 . S
C1628 C1611 1.574 . S
C1628 H1622 0.949 . S
C1628 C1632 1.368 . S
C1629 C1610 1.429 . S
C1629 C1623 1.429 . S
C1629 C1630 1.523 . S
C1630 C1611 1.368 . S
C1630 C1624 1.368 . S
C1630 C1629 1.523 . S
C1631 C1615 1.429 . S
C1631 C1627 1.429 . S
C1631 C1632 1.523 . S
C1632 C1616 1.368 . S
C1632 C1628 1.368 . S
C1632 C1631 1.523 . S
H1633 C1608 0.950 . S
H1634 C1610 0.950 . S
H1635 C1611 0.949 . S
H1636 C1613 0.950 . S
H1637 C1615 0.950 . S
C1638 C1639 1.349 . S
C1638 C1640 1.327 . S
C1638 H1663 0.950 . S
C1639 C1638 1.349 . S
C1639 C1655 1.349 . S
C1640 C1638 1.327 . S
C1640 C1659 1.429 . S
C1640 H1664 0.950 . S
C1641 C1658 1.574 . S
C1641 C1660 1.368 . S
C1641 H1665 0.949 . S
H1642 C1646 0.949 . S
C1643 C1644 1.349 . S
C1643 C1645 1.327 . S
C1643 H1666 0.950 . S
C1644 C1643 1.349 . S
C1644 C1656 1.349 . S
C1645 C1643 1.327 . S
C1645 C1661 1.429 . S
C1645 H1667 0.950 . S
C1646 H1642 0.949 . S
C1646 C1654 1.574 . S
C1646 C1662 1.368 . S
H1647 C1655 0.950 . S
H1648 C1653 0.950 . S
H1649 C1654 0.949 . S
H1650 C1656 0.950 . S
H1651 C1657 0.950 . S
H1652 C1658 0.949 . S
C1653 H1648 0.950 . S
C1653 C1655 1.327 . S
C1653 C1659 1.429 . S
C1654 C1646 1.574 . S
C1654 H1649 0.949 . S
C1654 C1660 1.368 . S
C1655 C1639 1.349 . S
C1655 H1647 0.950 . S
C1655 C1653 1.327 . S
C1656 C1644 1.349 . S
C1656 H1650 0.950 . S
C1656 C1657 1.327 . S
C1657 H1651 0.950 . S
C1657 C1656 1.327 . S
C1657 C1661 1.429 . S
C1658 C1641 1.574 . S
C1658 H1652 0.949 . S
C1658 C1662 1.368 . S
C1659 C1640 1.429 . S
C1659 C1653 1.429 . S
C1659 C1660 1.523 . S
C1660 C1641 1.368 . S
C1660 C1654 1.368 . S
C1660 C1659 1.523 . S
C1661 C1645 1.429 . S
C1661 C1657 1.429 . S
C1661 C1662 1.523 . S
C1662 C1646 1.368 . S
C1662 C1658 1.368 . S
C1662 C1661 1.523 . S
H1663 C1638 0.950 . S
H1664 C1640 0.950 . S
H1665 C1641 0.949 . S
H1666 C1643 0.950 . S
H1667 C1645 0.950 . S
C1668 C1669 1.349 . S
C1668 C1670 1.327 . S
C1668 H1693 0.950 . S
C1669 C1668 1.349 . S
C1669 C1685 1.349 . S
C1670 C1668 1.327 . S
C1670 C1689 1.429 . S
C1670 H1694 0.950 . S
C1671 C1688 1.574 . S
C1671 C1690 1.368 . S
C1671 H1695 0.949 . S
H1672 C1676 0.949 . S
C1673 C1674 1.349 . S
C1673 C1675 1.327 . S
C1673 H1696 0.950 . S
C1674 C1673 1.349 . S
C1674 C1686 1.349 . S
C1675 C1673 1.327 . S
C1675 C1691 1.429 . S
C1675 H1697 0.950 . S
C1676 H1672 0.949 . S
C1676 C1684 1.574 . S
C1676 C1692 1.368 . S
H1677 C1685 0.950 . S
H1678 C1683 0.950 . S
H1679 C1684 0.949 . S
H1680 C1686 0.950 . S
H1681 C1687 0.950 . S
H1682 C1688 0.949 . S
C1683 H1678 0.950 . S
C1683 C1685 1.327 . S
C1683 C1689 1.429 . S
C1684 C1676 1.574 . S
C1684 H1679 0.949 . S
C1684 C1690 1.368 . S
C1685 C1669 1.349 . S
C1685 H1677 0.950 . S
C1685 C1683 1.327 . S
C1686 C1674 1.349 . S
C1686 H1680 0.950 . S
C1686 C1687 1.327 . S
C1687 H1681 0.950 . S
C1687 C1686 1.327 . S
C1687 C1691 1.429 . S
C1688 C1671 1.574 . S
C1688 H1682 0.949 . S
C1688 C1692 1.368 . S
C1689 C1670 1.429 . S
C1689 C1683 1.429 . S
C1689 C1690 1.523 . S
C1690 C1671 1.368 . S
C1690 C1684 1.368 . S
C1690 C1689 1.523 . S
C1691 C1675 1.429 . S
C1691 C1687 1.429 . S
C1691 C1692 1.523 . S
C1692 C1676 1.368 . S
C1692 C1688 1.368 . S
C1692 C1691 1.523 . S
H1693 C1668 0.950 . S
H1694 C1670 0.950 . S
H1695 C1671 0.949 . S
H1696 C1673 0.950 . S
H1697 C1675 0.950 . S
C1698 C1699 1.349 . S
C1698 C1700 1.327 . S
C1698 H1723 0.950 . S
C1699 C1698 1.349 . S
C1699 C1715 1.349 . S
C1700 C1698 1.327 . S
C1700 C1719 1.429 . S
C1700 H1724 0.950 . S
C1701 C1718 1.572 . S
C1701 C1720 1.348 1_455 S
C1701 H1725 0.972 . S
H1702 C1706 0.949 . S
C1703 C1704 1.349 1_455 S
C1703 C1705 1.327 . S
C1703 H1726 0.950 . S
C1704 C1703 1.349 1_655 S
C1704 C1716 1.349 . S
C1705 C1703 1.327 . S
C1705 C1721 1.429 1_455 S
C1705 H1727 0.950 . S
C1706 H1702 0.949 . S
C1706 C1714 1.574 . S
C1706 C1722 1.368 . S
H1707 C1715 0.950 1_455 S
H1708 C1713 0.931 1_455 S
H1709 C1714 0.949 . S
H1710 C1716 0.950 . S
H1711 C1717 0.950 . S
H1712 C1718 0.949 . S
C1713 H1708 0.931 1_655 S
C1713 C1715 1.327 . S
C1713 C1719 1.452 . S
C1714 C1706 1.574 . S
C1714 H1709 0.949 . S
C1714 C1720 1.368 . S
C1715 C1699 1.349 . S
C1715 H1707 0.950 1_655 S
C1715 C1713 1.327 . S
C1716 C1704 1.349 . S
C1716 H1710 0.950 . S
C1716 C1717 1.327 . S
C1717 H1711 0.950 . S
C1717 C1716 1.327 . S
C1717 C1721 1.429 . S
C1718 C1701 1.572 . S
C1718 H1712 0.949 . S
C1718 C1722 1.368 1_455 S
C1719 C1700 1.429 . S
C1719 C1713 1.452 . S
C1719 C1720 1.523 . S
C1720 C1701 1.348 1_655 S
C1720 C1714 1.368 . S
C1720 C1719 1.523 . S
C1721 C1705 1.429 1_655 S
C1721 C1717 1.429 . S
C1721 C1722 1.523 . S
C1722 C1706 1.368 . S
C1722 C1718 1.368 1_655 S
C1722 C1721 1.523 . S
H1723 C1698 0.950 . S
H1724 C1700 0.950 . S
H1725 C1701 0.972 . S
H1726 C1703 0.950 . S
H1727 C1705 0.950 . S
C1728 C1729 1.349 . S
C1728 C1730 1.327 . S
C1728 H1753 0.950 . S
C1729 C1728 1.349 . S
C1729 C1745 1.349 . S
C1730 C1728 1.327 . S
C1730 C1749 1.429 . S
C1730 H1754 0.950 . S
C1731 C1748 1.574 . S
C1731 C1750 1.368 . S
C1731 H1755 0.949 . S
H1732 C1736 0.949 . S
C1733 C1734 1.349 . S
C1733 C1735 1.327 . S
C1733 H1756 0.950 . S
C1734 C1733 1.349 . S
C1734 C1746 1.349 . S
C1735 C1733 1.327 . S
C1735 C1751 1.429 . S
C1735 H1757 0.950 . S
C1736 H1732 0.949 . S
C1736 C1744 1.574 . S
C1736 C1752 1.368 . S
H1737 C1745 0.950 . S
H1738 C1743 0.950 . S
H1739 C1744 0.949 . S
H1740 C1746 0.950 . S
H1741 C1747 0.950 . S
H1742 C1748 0.949 . S
C1743 H1738 0.950 . S
C1743 C1745 1.327 . S
C1743 C1749 1.429 . S
C1744 C1736 1.574 . S
C1744 H1739 0.949 . S
C1744 C1750 1.368 . S
C1745 C1729 1.349 . S
C1745 H1737 0.950 . S
C1745 C1743 1.327 . S
C1746 C1734 1.349 . S
C1746 H1740 0.950 . S
C1746 C1747 1.327 . S
C1747 H1741 0.950 . S
C1747 C1746 1.327 . S
C1747 C1751 1.429 . S
C1748 C1731 1.574 . S
C1748 H1742 0.949 . S
C1748 C1752 1.368 . S
C1749 C1730 1.429 . S
C1749 C1743 1.429 . S
C1749 C1750 1.523 . S
C1750 C1731 1.368 . S
C1750 C1744 1.368 . S
C1750 C1749 1.523 . S
C1751 C1735 1.429 . S
C1751 C1747 1.429 . S
C1751 C1752 1.523 . S
C1752 C1736 1.368 . S
C1752 C1748 1.368 . S
C1752 C1751 1.523 . S
H1753 C1728 0.950 . S
H1754 C1730 0.950 . S
H1755 C1731 0.949 . S
H1756 C1733 0.950 . S
H1757 C1735 0.950 . S
C1758 C1759 1.349 . S
C1758 C1760 1.327 . S
C1758 H1783 0.950 . S
C1759 C1758 1.349 . S
C1759 C1775 1.349 . S
C1760 C1758 1.327 . S
C1760 C1779 1.429 . S
C1760 H1784 0.950 . S
C1761 C1778 1.574 . S
C1761 C1780 1.368 . S
C1761 H1785 0.949 . S
H1762 C1766 0.949 . S
C1763 C1764 1.349 . S
C1763 C1765 1.327 . S
C1763 H1786 0.950 . S
C1764 C1763 1.349 . S
C1764 C1776 1.349 . S
C1765 C1763 1.327 . S
C1765 C1781 1.429 . S
C1765 H1787 0.950 . S
C1766 H1762 0.949 . S
C1766 C1774 1.574 . S
C1766 C1782 1.368 . S
H1767 C1775 0.950 . S
H1768 C1773 0.950 . S
H1769 C1774 0.949 . S
H1770 C1776 0.950 . S
H1771 C1777 0.950 . S
H1772 C1778 0.949 . S
C1773 H1768 0.950 . S
C1773 C1775 1.327 . S
C1773 C1779 1.429 . S
C1774 C1766 1.574 . S
C1774 H1769 0.949 . S
C1774 C1780 1.368 . S
C1775 C1759 1.349 . S
C1775 H1767 0.950 . S
C1775 C1773 1.327 . S
C1776 C1764 1.349 . S
C1776 H1770 0.950 . S
C1776 C1777 1.327 . S
C1777 H1771 0.950 . S
C1777 C1776 1.327 . S
C1777 C1781 1.429 . S
C1778 C1761 1.574 . S
C1778 H1772 0.949 . S
C1778 C1782 1.368 . S
C1779 C1760 1.429 . S
C1779 C1773 1.429 . S
C1779 C1780 1.523 . S
C1780 C1761 1.368 . S
C1780 C1774 1.368 . S
C1780 C1779 1.523 . S
C1781 C1765 1.429 . S
C1781 C1777 1.429 . S
C1781 C1782 1.523 . S
C1782 C1766 1.368 . S
C1782 C1778 1.368 . S
C1782 C1781 1.523 . S
H1783 C1758 0.950 . S
H1784 C1760 0.950 . S
H1785 C1761 0.949 . S
H1786 C1763 0.950 . S
H1787 C1765 0.950 . S
C1788 C1789 1.349 1_565 S
C1788 C1790 1.327 . S
C1788 H1813 0.950 . S
C1789 C1788 1.349 1_545 S
C1789 C1805 1.349 . S
C1790 C1788 1.327 . S
C1790 C1809 1.429 . S
C1790 H1814 0.950 . S
C1791 C1808 1.574 . S
C1791 C1810 1.368 . S
C1791 H1815 0.949 1_565 S
H1792 C1796 0.949 . S
C1793 C1794 1.349 . S
C1793 C1795 1.329 . S
C1793 H1816 0.950 . S
C1794 C1793 1.349 . S
C1794 C1806 1.349 1_554 S
C1795 C1793 1.329 . S
C1795 C1811 1.427 1_554 S
C1795 H1817 0.951 . S
C1796 H1792 0.949 . S
C1796 C1804 1.574 . S
C1796 C1812 1.368 . S
H1797 C1805 0.950 . S
H1798 C1803 0.950 . S
H1799 C1804 0.949 . S
H1800 C1806 0.950 . S
H1801 C1807 0.950 . S
H1802 C1808 0.949 . S
C1803 H1798 0.950 . S
C1803 C1805 1.327 . S
C1803 C1809 1.429 1_545 S
C1804 C1796 1.574 . S
C1804 H1799 0.949 . S
C1804 C1810 1.368 . S
C1805 C1789 1.349 . S
C1805 H1797 0.950 . S
C1805 C1803 1.327 . S
C1806 C1794 1.349 1_556 S
C1806 H1800 0.950 . S
C1806 C1807 1.327 . S
C1807 H1801 0.950 . S
C1807 C1806 1.327 . S
C1807 C1811 1.429 . S
C1808 C1791 1.574 . S
C1808 H1802 0.949 . S
C1808 C1812 1.368 . S
C1809 C1790 1.429 . S
C1809 C1803 1.429 1_565 S
C1809 C1810 1.523 . S
C1810 C1791 1.368 . S
C1810 C1804 1.368 . S
C1810 C1809 1.523 . S
C1811 C1795 1.427 1_556 S
C1811 C1807 1.429 . S
C1811 C1812 1.523 . S
C1812 C1796 1.368 . S
C1812 C1808 1.368 . S
C1812 C1811 1.523 . S
H1813 C1788 0.950 . S
H1814 C1790 0.950 . S
H1815 C1791 0.949 1_545 S
H1816 C1793 0.950 . S
H1817 C1795 0.951 . S
C1818 C1819 1.349 . S
C1818 C1820 1.327 . S
C1818 H1843 0.950 . S
C1819 C1818 1.349 . S
C1819 C1835 1.349 . S
C1820 C1818 1.327 . S
C1820 C1839 1.429 . S
C1820 H1844 0.950 . S
C1821 C1838 1.574 . S
C1821 C1840 1.368 . S
C1821 H1845 0.949 . S
H1822 C1826 0.949 . S
C1823 C1824 1.349 . S
C1823 C1825 1.327 . S
C1823 H1846 0.950 . S
C1824 C1823 1.349 . S
C1824 C1836 1.349 . S
C1825 C1823 1.327 . S
C1825 C1841 1.429 . S
C1825 H1847 0.950 . S
C1826 H1822 0.949 . S
C1826 C1834 1.574 . S
C1826 C1842 1.368 . S
H1827 C1835 0.950 . S
H1828 C1833 0.950 . S
H1829 C1834 0.949 . S
H1830 C1836 0.950 . S
H1831 C1837 0.950 . S
H1832 C1838 0.949 . S
C1833 H1828 0.950 . S
C1833 C1835 1.327 . S
C1833 C1839 1.429 . S
C1834 C1826 1.574 . S
C1834 H1829 0.949 . S
C1834 C1840 1.368 . S
C1835 C1819 1.349 . S
C1835 H1827 0.950 . S
C1835 C1833 1.327 . S
C1836 C1824 1.349 . S
C1836 H1830 0.950 . S
C1836 C1837 1.327 . S
C1837 H1831 0.950 . S
C1837 C1836 1.327 . S
C1837 C1841 1.429 . S
C1838 C1821 1.574 . S
C1838 H1832 0.949 . S
C1838 C1842 1.368 . S
C1839 C1820 1.429 . S
C1839 C1833 1.429 . S
C1839 C1840 1.523 . S
C1840 C1821 1.368 . S
C1840 C1834 1.368 . S
C1840 C1839 1.523 . S
C1841 C1825 1.429 . S
C1841 C1837 1.429 . S
C1841 C1842 1.523 . S
C1842 C1826 1.368 . S
C1842 C1838 1.368 . S
C1842 C1841 1.523 . S
H1843 C1818 0.950 . S
H1844 C1820 0.950 . S
H1845 C1821 0.949 . S
H1846 C1823 0.950 . S
H1847 C1825 0.950 . S
C1848 C1849 1.349 . S
C1848 C1850 1.327 . S
C1848 H1873 0.950 1_545 S
C1849 C1848 1.349 . S
C1849 C1865 1.349 . S
C1850 C1848 1.327 . S
C1850 C1869 1.429 . S
C1850 H1874 0.950 . S
C1851 C1868 1.574 . S
C1851 C1870 1.368 . S
C1851 H1875 0.949 . S
H1852 C1856 0.949 . S
C1853 C1854 1.349 . S
C1853 C1855 1.327 . S
C1853 H1876 0.950 . S
C1854 C1853 1.349 . S
C1854 C1866 1.349 . S
C1855 C1853 1.327 . S
C1855 C1871 1.429 . S
C1855 H1877 0.950 . S
C1856 H1852 0.949 . S
C1856 C1864 1.574 . S
C1856 C1872 1.368 . S
H1857 C1865 0.950 . S
H1858 C1863 0.950 . S
H1859 C1864 0.949 . S
H1860 C1866 0.950 . S
H1861 C1867 0.950 . S
H1862 C1868 0.949 . S
C1863 H1858 0.950 . S
C1863 C1865 1.327 . S
C1863 C1869 1.429 . S
C1864 C1856 1.574 . S
C1864 H1859 0.949 . S
C1864 C1870 1.368 . S
C1865 C1849 1.349 . S
C1865 H1857 0.950 . S
C1865 C1863 1.327 . S
C1866 C1854 1.349 . S
C1866 H1860 0.950 . S
C1866 C1867 1.327 . S
C1867 H1861 0.950 . S
C1867 C1866 1.327 . S
C1867 C1871 1.429 . S
C1868 C1851 1.574 . S
C1868 H1862 0.949 . S
C1868 C1872 1.368 . S
C1869 C1850 1.429 . S
C1869 C1863 1.429 . S
C1869 C1870 1.523 . S
C1870 C1851 1.368 . S
C1870 C1864 1.368 . S
C1870 C1869 1.523 . S
C1871 C1855 1.429 . S
C1871 C1867 1.429 . S
C1871 C1872 1.523 . S
C1872 C1856 1.368 . S
C1872 C1868 1.368 . S
C1872 C1871 1.523 . S
H1873 C1848 0.950 1_565 S
H1874 C1850 0.950 . S
H1875 C1851 0.949 . S
H1876 C1853 0.950 . S
H1877 C1855 0.950 . S
C1878 C1879 1.349 . S
C1878 C1880 1.327 . S
C1878 H1903 0.950 . S
C1879 C1878 1.349 . S
C1879 C1895 1.349 . S
C1880 C1878 1.327 . S
C1880 C1899 1.429 . S
C1880 H1904 0.950 . S
C1881 C1898 1.574 . S
C1881 C1900 1.368 . S
C1881 H1905 0.949 . S
H1882 C1886 0.949 . S
C1883 C1884 1.349 . S
C1883 C1885 1.327 . S
C1883 H1906 0.950 . S
C1884 C1883 1.349 . S
C1884 C1896 1.349 . S
C1885 C1883 1.327 . S
C1885 C1901 1.429 . S
C1885 H1907 0.950 . S
C1886 H1882 0.949 . S
C1886 C1894 1.574 . S
C1886 C1902 1.368 . S
H1887 C1895 0.950 . S
H1888 C1893 0.950 . S
H1889 C1894 0.949 . S
H1890 C1896 0.950 . S
H1891 C1897 0.950 . S
H1892 C1898 0.949 . S
C1893 H1888 0.950 . S
C1893 C1895 1.327 . S
C1893 C1899 1.429 . S
C1894 C1886 1.574 . S
C1894 H1889 0.949 . S
C1894 C1900 1.368 . S
C1895 C1879 1.349 . S
C1895 H1887 0.950 . S
C1895 C1893 1.327 . S
C1896 C1884 1.349 . S
C1896 H1890 0.950 . S
C1896 C1897 1.327 . S
C1897 H1891 0.950 . S
C1897 C1896 1.327 . S
C1897 C1901 1.429 . S
C1898 C1881 1.574 . S
C1898 H1892 0.949 . S
C1898 C1902 1.368 . S
C1899 C1880 1.429 . S
C1899 C1893 1.429 . S
C1899 C1900 1.523 . S
C1900 C1881 1.368 . S
C1900 C1894 1.368 . S
C1900 C1899 1.523 . S
C1901 C1885 1.429 . S
C1901 C1897 1.429 . S
C1901 C1902 1.523 . S
C1902 C1886 1.368 . S
C1902 C1898 1.368 . S
C1902 C1901 1.523 . S
H1903 C1878 0.950 . S
H1904 C1880 0.950 . S
H1905 C1881 0.949 . S
H1906 C1883 0.950 . S
H1907 C1885 0.950 . S
C1908 C1909 1.349 . S
C1908 C1910 1.327 . S
C1908 H1933 0.950 . S
C1909 C1908 1.349 . S
C1909 C1925 1.349 . S
C1910 C1908 1.327 . S
C1910 C1929 1.429 . S
C1910 H1934 0.950 . S
C1911 C1928 1.574 . S
C1911 C1930 1.368 . S
C1911 H1935 0.949 . S
H1912 C1916 0.949 . S
C1913 C1914 1.349 . S
C1913 C1915 1.327 . S
C1913 H1936 0.950 . S
C1914 C1913 1.349 . S
C1914 C1926 1.349 . S
C1915 C1913 1.327 . S
C1915 C1931 1.429 . S
C1915 H1937 0.950 . S
C1916 H1912 0.949 . S
C1916 C1924 1.574 . S
C1916 C1932 1.368 . S
H1917 C1925 0.950 1_565 S
H1918 C1923 0.950 . S
H1919 C1924 0.949 . S
H1920 C1926 0.950 . S
H1921 C1927 0.950 . S
H1922 C1928 0.949 . S
C1923 H1918 0.950 . S
C1923 C1925 1.327 . S
C1923 C1929 1.429 . S
C1924 C1916 1.574 . S
C1924 H1919 0.949 . S
C1924 C1930 1.368 . S
C1925 C1909 1.349 . S
C1925 H1917 0.950 1_545 S
C1925 C1923 1.327 . S
C1926 C1914 1.349 . S
C1926 H1920 0.950 . S
C1926 C1927 1.327 . S
C1927 H1921 0.950 . S
C1927 C1926 1.327 . S
C1927 C1931 1.429 . S
C1928 C1911 1.574 . S
C1928 H1922 0.949 . S
C1928 C1932 1.368 . S
C1929 C1910 1.429 . S
C1929 C1923 1.429 . S
C1929 C1930 1.523 . S
C1930 C1911 1.368 . S
C1930 C1924 1.368 . S
C1930 C1929 1.523 . S
C1931 C1915 1.429 . S
C1931 C1927 1.429 . S
C1931 C1932 1.523 . S
C1932 C1916 1.368 . S
C1932 C1928 1.368 . S
C1932 C1931 1.523 . S
H1933 C1908 0.950 . S
H1934 C1910 0.950 . S
H1935 C1911 0.949 . S
H1936 C1913 0.950 . S
H1937 C1915 0.950 . S
C1938 C1939 1.349 . S
C1938 C1940 1.327 . S
C1938 H1963 0.950 . S
C1939 C1938 1.349 . S
C1939 C1955 1.349 . S
C1940 C1938 1.327 . S
C1940 C1959 1.429 . S
C1940 H1964 0.950 . S
C1941 C1958 1.574 . S
C1941 C1960 1.368 . S
C1941 H1965 0.949 . S
H1942 C1946 0.949 . S
C1943 C1944 1.349 . S
C1943 C1945 1.327 . S
C1943 H1966 0.950 . S
C1944 C1943 1.349 . S
C1944 C1956 1.349 . S
C1945 C1943 1.327 . S
C1945 C1961 1.429 . S
C1945 H1967 0.950 . S
C1946 H1942 0.949 . S
C1946 C1954 1.574 . S
C1946 C1962 1.368 . S
H1947 C1955 0.950 . S
H1948 C1953 0.950 . S
H1949 C1954 0.949 . S
H1950 C1956 0.950 . S
H1951 C1957 0.950 . S
H1952 C1958 0.949 . S
C1953 H1948 0.950 . S
C1953 C1955 1.327 . S
C1953 C1959 1.429 . S
C1954 C1946 1.574 . S
C1954 H1949 0.949 . S
C1954 C1960 1.368 . S
C1955 C1939 1.349 . S
C1955 H1947 0.950 . S
C1955 C1953 1.327 . S
C1956 C1944 1.349 . S
C1956 H1950 0.950 . S
C1956 C1957 1.327 . S
C1957 H1951 0.950 . S
C1957 C1956 1.327 . S
C1957 C1961 1.429 . S
C1958 C1941 1.574 . S
C1958 H1952 0.949 . S
C1958 C1962 1.368 . S
C1959 C1940 1.429 . S
C1959 C1953 1.429 . S
C1959 C1960 1.523 . S
C1960 C1941 1.368 . S
C1960 C1954 1.368 . S
C1960 C1959 1.523 . S
C1961 C1945 1.429 . S
C1961 C1957 1.429 . S
C1961 C1962 1.523 . S
C1962 C1946 1.368 . S
C1962 C1958 1.368 . S
C1962 C1961 1.523 . S
H1963 C1938 0.950 . S
H1964 C1940 0.950 . S
H1965 C1941 0.949 . S
H1966 C1943 0.950 . S
H1967 C1945 0.950 . S
C1968 C1969 1.349 . S
C1968 C1970 1.327 . S
C1968 H1993 0.950 . S
C1969 C1968 1.349 . S
C1969 C1985 1.349 . S
C1970 C1968 1.327 . S
C1970 C1989 1.429 . S
C1970 H1994 0.950 . S
C1971 C1988 1.574 . S
C1971 C1990 1.368 . S
C1971 H1995 0.949 . S
H1972 C1976 0.949 . S
C1973 C1974 1.349 . S
C1973 C1975 1.327 . S
C1973 H1996 0.950 . S
C1974 C1973 1.349 . S
C1974 C1986 1.349 . S
C1975 C1973 1.327 . S
C1975 C1991 1.429 . S
C1975 H1997 0.950 . S
C1976 H1972 0.949 . S
C1976 C1984 1.574 . S
C1976 C1992 1.368 . S
H1977 C1985 0.950 . S
H1978 C1983 0.950 . S
H1979 C1984 0.949 . S
H1980 C1986 0.950 . S
H1981 C1987 0.950 . S
H1982 C1988 0.949 . S
C1983 H1978 0.950 . S
C1983 C1985 1.327 . S
C1983 C1989 1.429 . S
C1984 C1976 1.574 . S
C1984 H1979 0.949 . S
C1984 C1990 1.368 . S
C1985 C1969 1.349 . S
C1985 H1977 0.950 . S
C1985 C1983 1.327 . S
C1986 C1974 1.349 . S
C1986 H1980 0.950 . S
C1986 C1987 1.327 . S
C1987 H1981 0.950 . S
C1987 C1986 1.327 . S
C1987 C1991 1.429 . S
C1988 C1971 1.574 . S
C1988 H1982 0.949 . S
C1988 C1992 1.368 . S
C1989 C1970 1.429 . S
C1989 C1983 1.429 . S
C1989 C1990 1.523 . S
C1990 C1971 1.368 . S
C1990 C1984 1.368 . S
C1990 C1989 1.523 . S
C1991 C1975 1.429 . S
C1991 C1987 1.429 . S
C1991 C1992 1.523 . S
C1992 C1976 1.368 . S
C1992 C1988 1.368 . S
C1992 C1991 1.523 . S
H1993 C1968 0.950 . S
H1994 C1970 0.950 . S
H1995 C1971 0.949 . S
H1996 C1973 0.950 . S
H1997 C1975 0.950 . S
C1998 C1999 1.349 . S
C1998 C2000 1.327 . S
C1998 H2023 0.950 1_545 S
C1999 C1998 1.349 . S
C1999 C2015 1.349 . S
C2000 C1998 1.327 . S
C2000 C2019 1.429 . S
C2000 H2024 0.950 1_545 S
C2001 C2018 1.574 . S
C2001 C2020 1.368 . S
C2001 H2025 0.949 . S
H2002 C2006 0.930 1_565 S
C2003 C2004 1.349 . S
C2003 C2005 1.327 . S
C2003 H2026 0.950 . S
C2004 C2003 1.349 . S
C2004 C2016 1.349 1_545 S
C2005 C2003 1.327 . S
C2005 C2021 1.429 . S
C2005 H2027 0.950 . S
C2006 H2002 0.930 1_545 S
C2006 C2014 1.575 . S
C2006 C2022 1.389 . S
H2007 C2015 0.950 . S
H2008 C2013 0.950 . S
H2009 C2014 0.949 1_565 S
H2010 C2016 0.950 . S
H2011 C2017 0.950 . S
H2012 C2018 0.949 . S
C2013 H2008 0.950 . S
C2013 C2015 1.327 . S
C2013 C2019 1.429 . S
C2014 C2006 1.575 . S
C2014 H2009 0.949 1_545 S
C2014 C2020 1.368 . S
C2015 C1999 1.349 . S
C2015 H2007 0.950 . S
C2015 C2013 1.327 . S
C2016 C2004 1.349 1_565 S
C2016 H2010 0.950 . S
C2016 C2017 1.327 . S
C2017 H2011 0.950 . S
C2017 C2016 1.327 . S
C2017 C2021 1.429 1_565 S
C2018 C2001 1.574 . S
C2018 H2012 0.949 . S
C2018 C2022 1.368 . S
C2019 C2000 1.429 . S
C2019 C2013 1.429 . S
C2019 C2020 1.523 . S
C2020 C2001 1.368 . S
C2020 C2014 1.368 . S
C2020 C2019 1.523 . S
C2021 C2005 1.429 . S
C2021 C2017 1.429 1_545 S
C2021 C2022 1.523 . S
C2022 C2006 1.389 . S
C2022 C2018 1.368 . S
C2022 C2021 1.523 . S
H2023 C1998 0.950 1_565 S
H2024 C2000 0.950 1_565 S
H2025 C2001 0.949 . S
H2026 C2003 0.950 . S
H2027 C2005 0.950 . S
C2028 C2029 1.349 . S
C2028 C2030 1.327 . S
C2028 H2053 0.950 . S
C2029 C2028 1.349 . S
C2029 C2045 1.349 . S
C2030 C2028 1.327 . S
C2030 C2049 1.429 . S
C2030 H2054 0.950 . S
C2031 C2048 1.574 . S
C2031 C2050 1.368 . S
C2031 H2055 0.949 . S
H2032 C2036 0.949 . S
C2033 C2034 1.349 . S
C2033 C2035 1.327 . S
C2033 H2056 0.950 . S
C2034 C2033 1.349 . S
C2034 C2046 1.349 . S
C2035 C2033 1.327 . S
C2035 C2051 1.429 . S
C2035 H2057 0.950 . S
C2036 H2032 0.949 . S
C2036 C2044 1.574 . S
C2036 C2052 1.368 . S
H2037 C2045 0.950 . S
H2038 C2043 0.950 . S
H2039 C2044 0.949 . S
H2040 C2046 0.950 . S
H2041 C2047 0.950 . S
H2042 C2048 0.949 . S
C2043 H2038 0.950 . S
C2043 C2045 1.327 . S
C2043 C2049 1.429 . S
C2044 C2036 1.574 . S
C2044 H2039 0.949 . S
C2044 C2050 1.368 . S
C2045 C2029 1.349 . S
C2045 H2037 0.950 . S
C2045 C2043 1.327 . S
C2046 C2034 1.349 . S
C2046 H2040 0.950 . S
C2046 C2047 1.327 . S
C2047 H2041 0.950 . S
C2047 C2046 1.327 . S
C2047 C2051 1.429 . S
C2048 C2031 1.574 . S
C2048 H2042 0.949 . S
C2048 C2052 1.368 . S
C2049 C2030 1.429 . S
C2049 C2043 1.429 . S
C2049 C2050 1.523 . S
C2050 C2031 1.368 . S
C2050 C2044 1.368 . S
C2050 C2049 1.523 . S
C2051 C2035 1.429 . S
C2051 C2047 1.429 . S
C2051 C2052 1.523 . S
C2052 C2036 1.368 . S
C2052 C2048 1.368 . S
C2052 C2051 1.523 . S
H2053 C2028 0.950 . S
H2054 C2030 0.950 . S
H2055 C2031 0.949 . S
H2056 C2033 0.950 . S
H2057 C2035 0.950 . S
C2058 C2059 1.349 . S
C2058 C2060 1.327 . S
C2058 H2083 0.950 . S
C2059 C2058 1.349 . S
C2059 C2075 1.349 . S
C2060 C2058 1.327 . S
C2060 C2079 1.429 . S
C2060 H2084 0.950 . S
C2061 C2078 1.574 . S
C2061 C2080 1.368 . S
C2061 H2085 0.949 . S
H2062 C2066 0.949 . S
C2063 C2064 1.349 . S
C2063 C2065 1.327 . S
C2063 H2086 0.950 . S
C2064 C2063 1.349 . S
C2064 C2076 1.349 . S
C2065 C2063 1.327 . S
C2065 C2081 1.429 . S
C2065 H2087 0.950 . S
C2066 H2062 0.949 . S
C2066 C2074 1.574 . S
C2066 C2082 1.368 . S
H2067 C2075 0.950 . S
H2068 C2073 0.950 . S
H2069 C2074 0.949 . S
H2070 C2076 0.950 . S
H2071 C2077 0.950 . S
H2072 C2078 0.949 . S
C2073 H2068 0.950 . S
C2073 C2075 1.327 . S
C2073 C2079 1.429 . S
C2074 C2066 1.574 . S
C2074 H2069 0.949 . S
C2074 C2080 1.368 . S
C2075 C2059 1.349 . S
C2075 H2067 0.950 . S
C2075 C2073 1.327 . S
C2076 C2064 1.349 . S
C2076 H2070 0.950 . S
C2076 C2077 1.327 . S
C2077 H2071 0.950 . S
C2077 C2076 1.327 . S
C2077 C2081 1.429 . S
C2078 C2061 1.574 . S
C2078 H2072 0.949 . S
C2078 C2082 1.368 . S
C2079 C2060 1.429 . S
C2079 C2073 1.429 . S
C2079 C2080 1.523 . S
C2080 C2061 1.368 . S
C2080 C2074 1.368 . S
C2080 C2079 1.523 . S
C2081 C2065 1.429 . S
C2081 C2077 1.429 . S
C2081 C2082 1.523 . S
C2082 C2066 1.368 . S
C2082 C2078 1.368 . S
C2082 C2081 1.523 . S
H2083 C2058 0.950 . S
H2084 C2060 0.950 . S
H2085 C2061 0.949 . S
H2086 C2063 0.950 . S
H2087 C2065 0.950 . S
C2088 C2089 1.349 . S
C2088 C2090 1.327 . S
C2088 H2113 0.950 . S
C2089 C2088 1.349 . S
C2089 C2105 1.349 . S
C2090 C2088 1.327 . S
C2090 C2109 1.429 . S
C2090 H2114 0.950 . S
C2091 C2108 1.574 . S
C2091 C2110 1.368 . S
C2091 H2115 0.949 . S
H2092 C2096 0.949 . S
C2093 C2094 1.349 . S
C2093 C2095 1.327 . S
C2093 H2116 0.950 . S
C2094 C2093 1.349 . S
C2094 C2106 1.349 . S
C2095 C2093 1.327 . S
C2095 C2111 1.429 . S
C2095 H2117 0.950 . S
C2096 H2092 0.949 . S
C2096 C2104 1.574 . S
C2096 C2112 1.368 . S
H2097 C2105 0.950 . S
H2098 C2103 0.950 . S
H2099 C2104 0.949 . S
H2100 C2106 0.950 . S
H2101 C2107 0.950 . S
H2102 C2108 0.949 . S
C2103 H2098 0.950 . S
C2103 C2105 1.327 . S
C2103 C2109 1.429 . S
C2104 C2096 1.574 . S
C2104 H2099 0.949 . S
C2104 C2110 1.368 . S
C2105 C2089 1.349 . S
C2105 H2097 0.950 . S
C2105 C2103 1.327 . S
C2106 C2094 1.349 . S
C2106 H2100 0.950 . S
C2106 C2107 1.327 . S
C2107 H2101 0.950 . S
C2107 C2106 1.327 . S
C2107 C2111 1.429 . S
C2108 C2091 1.574 . S
C2108 H2102 0.949 . S
C2108 C2112 1.368 . S
C2109 C2090 1.429 . S
C2109 C2103 1.429 . S
C2109 C2110 1.523 . S
C2110 C2091 1.368 . S
C2110 C2104 1.368 . S
C2110 C2109 1.523 . S
C2111 C2095 1.429 . S
C2111 C2107 1.429 . S
C2111 C2112 1.523 . S
C2112 C2096 1.368 . S
C2112 C2108 1.368 . S
C2112 C2111 1.523 . S
H2113 C2088 0.950 . S
H2114 C2090 0.950 . S
H2115 C2091 0.949 . S
H2116 C2093 0.950 . S
H2117 C2095 0.950 . S
C2118 C2119 1.349 . S
C2118 C2120 1.327 . S
C2118 H2143 0.950 . S
C2119 C2118 1.349 . S
C2119 C2135 1.349 . S
C2120 C2118 1.327 . S
C2120 C2139 1.429 . S
C2120 H2144 0.950 . S
C2121 C2138 1.574 . S
C2121 C2140 1.368 . S
C2121 H2145 0.949 . S
H2122 C2126 0.949 . S
C2123 C2124 1.349 . S
C2123 C2125 1.327 . S
C2123 H2146 0.950 . S
C2124 C2123 1.349 . S
C2124 C2136 1.349 . S
C2125 C2123 1.327 . S
C2125 C2141 1.429 . S
C2125 H2147 0.936 1_655 S
C2126 H2122 0.949 . S
C2126 C2134 1.602 . S
C2126 C2142 1.368 . S
H2127 C2135 0.950 . S
H2128 C2133 0.950 . S
H2129 C2134 0.963 . S
H2130 C2136 0.950 . S
H2131 C2137 0.950 . S
H2132 C2138 0.949 . S
C2133 H2128 0.950 . S
C2133 C2135 1.327 . S
C2133 C2139 1.429 . S
C2134 C2126 1.602 . S
C2134 H2129 0.963 . S
C2134 C2140 1.329 1_655 S
C2135 C2119 1.349 . S
C2135 H2127 0.950 . S
C2135 C2133 1.327 . S
C2136 C2124 1.349 . S
C2136 H2130 0.950 . S
C2136 C2137 1.327 . S
C2137 H2131 0.950 . S
C2137 C2136 1.327 . S
C2137 C2141 1.429 . S
C2138 C2121 1.574 . S
C2138 H2132 0.949 . S
C2138 C2142 1.368 1_455 S
C2139 C2120 1.429 . S
C2139 C2133 1.429 . S
C2139 C2140 1.523 . S
C2140 C2121 1.368 . S
C2140 C2134 1.329 1_455 S
C2140 C2139 1.523 . S
C2141 C2125 1.429 . S
C2141 C2137 1.429 . S
C2141 C2142 1.523 . S
C2142 C2126 1.368 . S
C2142 C2138 1.368 1_655 S
C2142 C2141 1.523 . S
H2143 C2118 0.950 . S
H2144 C2120 0.950 . S
H2145 C2121 0.949 . S
H2146 C2123 0.950 . S
H2147 C2125 0.936 1_455 S
C2148 C2149 1.349 . S
C2148 C2150 1.327 . S
C2148 H2173 0.950 . S
C2149 C2148 1.349 . S
C2149 C2165 1.349 . S
C2150 C2148 1.327 . S
C2150 C2169 1.429 . S
C2150 H2174 0.950 . S
C2151 C2168 1.574 . S
C2151 C2170 1.368 . S
C2151 H2175 0.949 . S
H2152 C2156 0.949 . S
C2153 C2154 1.349 . S
C2153 C2155 1.327 . S
C2153 H2176 0.950 . S
C2154 C2153 1.349 . S
C2154 C2166 1.349 . S
C2155 C2153 1.327 . S
C2155 C2171 1.429 . S
C2155 H2177 0.950 . S
C2156 H2152 0.949 . S
C2156 C2164 1.574 . S
C2156 C2172 1.368 . S
H2157 C2165 0.950 . S
H2158 C2163 0.950 . S
H2159 C2164 0.949 . S
H2160 C2166 0.950 . S
H2161 C2167 0.950 . S
H2162 C2168 0.949 . S
C2163 H2158 0.950 . S
C2163 C2165 1.327 . S
C2163 C2169 1.429 . S
C2164 C2156 1.574 . S
C2164 H2159 0.949 . S
C2164 C2170 1.368 . S
C2165 C2149 1.349 . S
C2165 H2157 0.950 . S
C2165 C2163 1.327 . S
C2166 C2154 1.349 . S
C2166 H2160 0.950 . S
C2166 C2167 1.327 . S
C2167 H2161 0.950 . S
C2167 C2166 1.327 . S
C2167 C2171 1.429 . S
C2168 C2151 1.574 . S
C2168 H2162 0.949 . S
C2168 C2172 1.368 . S
C2169 C2150 1.429 . S
C2169 C2163 1.429 . S
C2169 C2170 1.523 . S
C2170 C2151 1.368 . S
C2170 C2164 1.368 . S
C2170 C2169 1.523 . S
C2171 C2155 1.429 . S
C2171 C2167 1.429 . S
C2171 C2172 1.523 . S
C2172 C2156 1.368 . S
C2172 C2168 1.368 . S
C2172 C2171 1.523 . S
H2173 C2148 0.950 . S
H2174 C2150 0.950 . S
H2175 C2151 0.949 . S
H2176 C2153 0.950 . S
H2177 C2155 0.950 . S
C2178 C2179 1.365 . S
C2178 C2180 1.327 . S
C2178 H2203 0.950 . S
C2179 C2178 1.365 . S
C2179 C2195 1.344 1_455 S
C2180 C2178 1.327 . S
C2180 C2199 1.429 . S
C2180 H2204 0.950 . S
C2181 C2198 1.574 . S
C2181 C2200 1.368 . S
C2181 H2205 0.949 . S
H2182 C2186 0.949 . S
C2183 C2184 1.349 . S
C2183 C2185 1.327 . S
C2183 H2206 0.950 . S
C2184 C2183 1.349 . S
C2184 C2196 1.349 . S
C2185 C2183 1.327 . S
C2185 C2201 1.429 . S
C2185 H2207 0.950 . S
C2186 H2182 0.949 . S
C2186 C2194 1.574 . S
C2186 C2202 1.368 . S
H2187 C2195 0.950 . S
H2188 C2193 0.950 . S
H2189 C2194 0.949 . S
H2190 C2196 0.950 . S
H2191 C2197 0.950 . S
H2192 C2198 0.949 . S
C2193 H2188 0.950 . S
C2193 C2195 1.327 1_455 S
C2193 C2199 1.429 . S
C2194 C2186 1.574 . S
C2194 H2189 0.949 . S
C2194 C2200 1.368 . S
C2195 C2179 1.344 1_655 S
C2195 H2187 0.950 . S
C2195 C2193 1.327 1_655 S
C2196 C2184 1.349 . S
C2196 H2190 0.950 . S
C2196 C2197 1.327 . S
C2197 H2191 0.950 . S
C2197 C2196 1.327 . S
C2197 C2201 1.429 . S
C2198 C2181 1.574 . S
C2198 H2192 0.949 . S
C2198 C2202 1.368 . S
C2199 C2180 1.429 . S
C2199 C2193 1.429 . S
C2199 C2200 1.523 . S
C2200 C2181 1.368 . S
C2200 C2194 1.368 . S
C2200 C2199 1.523 . S
C2201 C2185 1.429 . S
C2201 C2197 1.429 . S
C2201 C2202 1.523 . S
C2202 C2186 1.368 . S
C2202 C2198 1.368 . S
C2202 C2201 1.523 . S
H2203 C2178 0.950 . S
H2204 C2180 0.950 . S
H2205 C2181 0.949 . S
H2206 C2183 0.950 . S
H2207 C2185 0.950 . S
C2208 C2209 1.349 . S
C2208 C2210 1.327 . S
C2208 H2233 0.950 . S
C2209 C2208 1.349 . S
C2209 C2225 1.349 . S
C2210 C2208 1.327 . S
C2210 C2229 1.429 . S
C2210 H2234 0.950 . S
C2211 C2228 1.574 . S
C2211 C2230 1.368 . S
C2211 H2235 0.949 . S
H2212 C2216 0.949 . S
C2213 C2214 1.349 . S
C2213 C2215 1.327 . S
C2213 H2236 0.950 . S
C2214 C2213 1.349 . S
C2214 C2226 1.349 . S
C2215 C2213 1.327 . S
C2215 C2231 1.429 . S
C2215 H2237 0.950 . S
C2216 H2212 0.949 . S
C2216 C2224 1.574 . S
C2216 C2232 1.368 . S
H2217 C2225 0.950 . S
H2218 C2223 0.950 . S
H2219 C2224 0.949 . S
H2220 C2226 0.950 . S
H2221 C2227 0.950 . S
H2222 C2228 0.949 . S
C2223 H2218 0.950 . S
C2223 C2225 1.327 . S
C2223 C2229 1.429 . S
C2224 C2216 1.574 . S
C2224 H2219 0.949 . S
C2224 C2230 1.368 . S
C2225 C2209 1.349 . S
C2225 H2217 0.950 . S
C2225 C2223 1.327 . S
C2226 C2214 1.349 . S
C2226 H2220 0.950 . S
C2226 C2227 1.327 . S
C2227 H2221 0.950 . S
C2227 C2226 1.327 . S
C2227 C2231 1.429 . S
C2228 C2211 1.574 . S
C2228 H2222 0.949 . S
C2228 C2232 1.368 . S
C2229 C2210 1.429 . S
C2229 C2223 1.429 . S
C2229 C2230 1.523 . S
C2230 C2211 1.368 . S
C2230 C2224 1.368 . S
C2230 C2229 1.523 . S
C2231 C2215 1.429 . S
C2231 C2227 1.429 . S
C2231 C2232 1.523 . S
C2232 C2216 1.368 . S
C2232 C2228 1.368 . S
C2232 C2231 1.523 . S
H2233 C2208 0.950 . S
H2234 C2210 0.950 . S
H2235 C2211 0.949 . S
H2236 C2213 0.950 . S
H2237 C2215 0.950 . S
C2238 C2239 1.349 1_554 S
C2238 C2240 1.327 1_554 S
C2238 H2263 0.950 . S
C2239 C2238 1.349 1_556 S
C2239 C2255 1.349 . S
C2240 C2238 1.327 1_556 S
C2240 C2259 1.429 . S
C2240 H2264 0.950 . S
C2241 C2258 1.560 1_655 S
C2241 C2260 1.401 . S
C2241 H2265 0.930 1_655 S
H2242 C2246 0.949 . S
C2243 C2244 1.349 1_455 S
C2243 C2245 1.327 . S
C2243 H2266 0.950 . S
C2244 C2243 1.349 1_655 S
C2244 C2256 1.349 . S
C2245 C2243 1.327 . S
C2245 C2261 1.429 1_455 S
C2245 H2267 0.950 . S
C2246 H2242 0.949 . S
C2246 C2254 1.574 . S
C2246 C2262 1.368 . S
H2247 C2255 0.965 . S
H2248 C2253 0.950 1_455 S
H2249 C2254 0.949 . S
H2250 C2256 0.950 . S
H2251 C2257 0.950 . S
H2252 C2258 0.980 . S
C2253 H2248 0.950 1_655 S
C2253 C2255 1.327 . S
C2253 C2259 1.429 . S
C2254 C2246 1.574 . S
C2254 H2249 0.949 . S
C2254 C2260 1.368 . S
C2255 C2239 1.349 . S
C2255 H2247 0.965 . S
C2255 C2253 1.327 . S
C2256 C2244 1.349 . S
C2256 H2250 0.950 . S
C2256 C2257 1.327 . S
C2257 H2251 0.950 . S
C2257 C2256 1.327 . S
C2257 C2261 1.429 . S
C2258 C2241 1.560 1_455 S
C2258 H2252 0.980 . S
C2258 C2262 1.345 1_455 S
C2259 C2240 1.429 . S
C2259 C2253 1.429 . S
C2259 C2260 1.523 . S
C2260 C2241 1.401 . S
C2260 C2254 1.368 . S
C2260 C2259 1.523 . S
C2261 C2245 1.429 1_655 S
C2261 C2257 1.429 . S
C2261 C2262 1.523 . S
C2262 C2246 1.368 . S
C2262 C2258 1.345 1_655 S
C2262 C2261 1.523 . S
H2263 C2238 0.950 . S
H2264 C2240 0.950 . S
H2265 C2241 0.930 1_455 S
H2266 C2243 0.950 . S
H2267 C2245 0.950 . S
C2268 C2269 1.349 . S
C2268 C2270 1.327 . S
C2268 H2293 0.950 . S
C2269 C2268 1.349 . S
C2269 C2285 1.349 . S
C2270 C2268 1.327 . S
C2270 C2289 1.429 . S
C2270 H2294 0.950 . S
C2271 C2288 1.574 . S
C2271 C2290 1.368 . S
C2271 H2295 0.949 . S
H2272 C2276 0.949 . S
C2273 C2274 1.349 . S
C2273 C2275 1.327 . S
C2273 H2296 0.950 . S
C2274 C2273 1.349 . S
C2274 C2286 1.349 . S
C2275 C2273 1.327 . S
C2275 C2291 1.429 . S
C2275 H2297 0.950 . S
C2276 H2272 0.949 . S
C2276 C2284 1.574 . S
C2276 C2292 1.368 . S
H2277 C2285 0.950 . S
H2278 C2283 0.950 . S
H2279 C2284 0.949 . S
H2280 C2286 0.950 . S
H2281 C2287 0.950 . S
H2282 C2288 0.949 . S
C2283 H2278 0.950 . S
C2283 C2285 1.327 . S
C2283 C2289 1.429 . S
C2284 C2276 1.574 . S
C2284 H2279 0.949 . S
C2284 C2290 1.368 . S
C2285 C2269 1.349 . S
C2285 H2277 0.950 . S
C2285 C2283 1.327 . S
C2286 C2274 1.349 . S
C2286 H2280 0.950 . S
C2286 C2287 1.327 . S
C2287 H2281 0.950 . S
C2287 C2286 1.327 . S
C2287 C2291 1.429 . S
C2288 C2271 1.574 . S
C2288 H2282 0.949 . S
C2288 C2292 1.368 . S
C2289 C2270 1.429 . S
C2289 C2283 1.429 . S
C2289 C2290 1.523 . S
C2290 C2271 1.368 . S
C2290 C2284 1.368 . S
C2290 C2289 1.523 . S
C2291 C2275 1.429 . S
C2291 C2287 1.429 . S
C2291 C2292 1.523 . S
C2292 C2276 1.368 . S
C2292 C2288 1.368 . S
C2292 C2291 1.523 . S
H2293 C2268 0.950 . S
H2294 C2270 0.950 . S
H2295 C2271 0.949 . S
H2296 C2273 0.950 . S
H2297 C2275 0.950 . S
C2298 C2299 1.349 . S
C2298 C2300 1.327 . S
C2298 H2323 0.950 . S
C2299 C2298 1.349 . S
C2299 C2315 1.349 . S
C2300 C2298 1.327 . S
C2300 C2319 1.429 . S
C2300 H2324 0.950 . S
C2301 C2318 1.574 . S
C2301 C2320 1.368 . S
C2301 H2325 0.949 . S
H2302 C2306 0.949 . S
C2303 C2304 1.349 . S
C2303 C2305 1.327 . S
C2303 H2326 0.950 . S
C2304 C2303 1.349 . S
C2304 C2316 1.349 . S
C2305 C2303 1.327 . S
C2305 C2321 1.429 . S
C2305 H2327 0.950 . S
C2306 H2302 0.949 . S
C2306 C2314 1.574 . S
C2306 C2322 1.368 . S
H2307 C2315 0.950 1_554 S
H2308 C2313 0.950 . S
H2309 C2314 0.949 . S
H2310 C2316 0.950 1_655 S
H2311 C2317 0.950 . S
H2312 C2318 0.949 . S
C2313 H2308 0.950 . S
C2313 C2315 1.327 . S
C2313 C2319 1.429 . S
C2314 C2306 1.574 . S
C2314 H2309 0.949 . S
C2314 C2320 1.368 . S
C2315 C2299 1.349 . S
C2315 H2307 0.950 1_556 S
C2315 C2313 1.327 . S
C2316 C2304 1.349 . S
C2316 H2310 0.950 1_455 S
C2316 C2317 1.327 . S
C2317 H2311 0.950 . S
C2317 C2316 1.327 . S
C2317 C2321 1.429 . S
C2318 C2301 1.574 . S
C2318 H2312 0.949 . S
C2318 C2322 1.368 . S
C2319 C2300 1.429 . S
C2319 C2313 1.429 . S
C2319 C2320 1.523 . S
C2320 C2301 1.368 . S
C2320 C2314 1.368 . S
C2320 C2319 1.523 . S
C2321 C2305 1.429 . S
C2321 C2317 1.429 . S
C2321 C2322 1.523 . S
C2322 C2306 1.368 . S
C2322 C2318 1.368 . S
C2322 C2321 1.523 . S
H2323 C2298 0.950 . S
H2324 C2300 0.950 . S
H2325 C2301 0.949 . S
H2326 C2303 0.950 . S
H2327 C2305 0.950 . S
C2328 C2329 1.349 . S
C2328 C2330 1.327 . S
C2328 H2353 0.950 . S
C2329 C2328 1.349 . S
C2329 C2345 1.349 . S
C2330 C2328 1.327 . S
C2330 C2349 1.429 . S
C2330 H2354 0.950 . S
C2331 C2348 1.574 . S
C2331 C2350 1.368 . S
C2331 H2355 0.949 . S
H2332 C2336 0.949 . S
C2333 C2334 1.349 . S
C2333 C2335 1.327 . S
C2333 H2356 0.950 . S
C2334 C2333 1.349 . S
C2334 C2346 1.349 . S
C2335 C2333 1.327 . S
C2335 C2351 1.429 . S
C2335 H2357 0.950 . S
C2336 H2332 0.949 . S
C2336 C2344 1.574 . S
C2336 C2352 1.368 . S
H2337 C2345 0.950 . S
H2338 C2343 0.950 . S
H2339 C2344 0.949 . S
H2340 C2346 0.950 . S
H2341 C2347 0.950 . S
H2342 C2348 0.949 . S
C2343 H2338 0.950 . S
C2343 C2345 1.327 . S
C2343 C2349 1.429 . S
C2344 C2336 1.574 . S
C2344 H2339 0.949 . S
C2344 C2350 1.368 . S
C2345 C2329 1.349 . S
C2345 H2337 0.950 . S
C2345 C2343 1.327 . S
C2346 C2334 1.349 . S
C2346 H2340 0.950 . S
C2346 C2347 1.327 . S
C2347 H2341 0.950 . S
C2347 C2346 1.327 . S
C2347 C2351 1.429 . S
C2348 C2331 1.574 . S
C2348 H2342 0.949 . S
C2348 C2352 1.368 . S
C2349 C2330 1.429 . S
C2349 C2343 1.429 . S
C2349 C2350 1.523 . S
C2350 C2331 1.368 . S
C2350 C2344 1.368 . S
C2350 C2349 1.523 . S
C2351 C2335 1.429 . S
C2351 C2347 1.429 . S
C2351 C2352 1.523 . S
C2352 C2336 1.368 . S
C2352 C2348 1.368 . S
C2352 C2351 1.523 . S
H2353 C2328 0.950 . S
H2354 C2330 0.950 . S
H2355 C2331 0.949 . S
H2356 C2333 0.950 . S
H2357 C2335 0.950 . S
C2358 C2359 1.349 . S
C2358 C2360 1.327 . S
C2358 H2383 0.950 1_554 S
C2359 C2358 1.349 . S
C2359 C2375 1.349 . S
C2360 C2358 1.327 . S
C2360 C2379 1.429 . S
C2360 H2384 0.950 . S
C2361 C2378 1.574 . S
C2361 C2380 1.368 . S
C2361 H2385 0.949 . S
H2362 C2366 0.949 . S
C2363 C2364 1.349 . S
C2363 C2365 1.327 . S
C2363 H2386 0.950 . S
C2364 C2363 1.349 . S
C2364 C2376 1.349 . S
C2365 C2363 1.327 . S
C2365 C2381 1.429 . S
C2365 H2387 0.950 . S
C2366 H2362 0.949 . S
C2366 C2374 1.574 . S
C2366 C2382 1.368 . S
H2367 C2375 0.950 . S
H2368 C2373 0.950 . S
H2369 C2374 0.949 . S
H2370 C2376 0.950 . S
H2371 C2377 0.950 . S
H2372 C2378 0.949 . S
C2373 H2368 0.950 . S
C2373 C2375 1.327 . S
C2373 C2379 1.429 . S
C2374 C2366 1.574 . S
C2374 H2369 0.949 . S
C2374 C2380 1.368 . S
C2375 C2359 1.349 . S
C2375 H2367 0.950 . S
C2375 C2373 1.327 . S
C2376 C2364 1.349 . S
C2376 H2370 0.950 . S
C2376 C2377 1.327 . S
C2377 H2371 0.950 . S
C2377 C2376 1.327 . S
C2377 C2381 1.429 . S
C2378 C2361 1.574 . S
C2378 H2372 0.949 . S
C2378 C2382 1.368 . S
C2379 C2360 1.429 . S
C2379 C2373 1.429 . S
C2379 C2380 1.523 . S
C2380 C2361 1.368 . S
C2380 C2374 1.368 . S
C2380 C2379 1.523 . S
C2381 C2365 1.429 . S
C2381 C2377 1.429 . S
C2381 C2382 1.523 . S
C2382 C2366 1.368 . S
C2382 C2378 1.368 . S
C2382 C2381 1.523 . S
H2383 C2358 0.950 1_556 S
H2384 C2360 0.950 . S
H2385 C2361 0.949 . S
H2386 C2363 0.950 . S
H2387 C2365 0.950 . S
C2388 C2389 1.349 . S
C2388 C2390 1.327 . S
C2388 H2413 0.950 . S
C2389 C2388 1.349 . S
C2389 C2405 1.349 . S
C2390 C2388 1.327 . S
C2390 C2409 1.429 . S
C2390 H2414 0.950 . S
C2391 C2408 1.574 . S
C2391 C2410 1.368 . S
C2391 H2415 0.949 . S
H2392 C2396 0.949 . S
C2393 C2394 1.349 . S
C2393 C2395 1.327 . S
C2393 H2416 0.950 . S
C2394 C2393 1.349 . S
C2394 C2406 1.349 . S
C2395 C2393 1.327 . S
C2395 C2411 1.429 . S
C2395 H2417 0.950 . S
C2396 H2392 0.949 . S
C2396 C2404 1.574 . S
C2396 C2412 1.368 . S
H2397 C2405 0.950 . S
H2398 C2403 0.950 . S
H2399 C2404 0.949 . S
H2400 C2406 0.950 . S
H2401 C2407 0.950 . S
H2402 C2408 0.949 . S
C2403 H2398 0.950 . S
C2403 C2405 1.327 . S
C2403 C2409 1.429 . S
C2404 C2396 1.574 . S
C2404 H2399 0.949 . S
C2404 C2410 1.368 . S
C2405 C2389 1.349 . S
C2405 H2397 0.950 . S
C2405 C2403 1.327 . S
C2406 C2394 1.349 . S
C2406 H2400 0.950 . S
C2406 C2407 1.327 . S
C2407 H2401 0.950 . S
C2407 C2406 1.327 . S
C2407 C2411 1.429 . S
C2408 C2391 1.574 . S
C2408 H2402 0.949 . S
C2408 C2412 1.368 . S
C2409 C2390 1.429 . S
C2409 C2403 1.429 . S
C2409 C2410 1.523 . S
C2410 C2391 1.368 . S
C2410 C2404 1.368 . S
C2410 C2409 1.523 . S
C2411 C2395 1.429 . S
C2411 C2407 1.429 . S
C2411 C2412 1.523 . S
C2412 C2396 1.368 . S
C2412 C2408 1.368 . S
C2412 C2411 1.523 . S
H2413 C2388 0.950 . S
H2414 C2390 0.950 . S
H2415 C2391 0.949 . S
H2416 C2393 0.950 . S
H2417 C2395 0.950 . S
C2418 C2419 1.341 1_554 S
C2418 C2420 1.334 . S
C2418 H2443 0.951 . S
C2419 C2418 1.341 1_556 S
C2419 C2435 1.349 . S
C2420 C2418 1.334 . S
C2420 C2439 1.429 . S
C2420 H2444 0.950 . S
C2421 C2438 1.574 . S
C2421 C2440 1.368 . S
C2421 H2445 0.949 . S
H2422 C2426 0.949 . S
C2423 C2424 1.349 . S
C2423 C2425 1.327 . S
C2423 H2446 0.950 . S
C2424 C2423 1.349 . S
C2424 C2436 1.349 . S
C2425 C2423 1.327 . S
C2425 C2441 1.429 . S
C2425 H2447 0.950 . S
C2426 H2422 0.949 . S
C2426 C2434 1.574 . S
C2426 C2442 1.368 . S
H2427 C2435 0.950 . S
H2428 C2433 0.950 . S
H2429 C2434 0.949 . S
H2430 C2436 0.950 . S
H2431 C2437 0.950 . S
H2432 C2438 0.949 . S
C2433 H2428 0.950 . S
C2433 C2435 1.327 . S
C2433 C2439 1.429 1_556 S
C2434 C2426 1.574 . S
C2434 H2429 0.949 . S
C2434 C2440 1.368 . S
C2435 C2419 1.349 . S
C2435 H2427 0.950 . S
C2435 C2433 1.327 . S
C2436 C2424 1.349 . S
C2436 H2430 0.950 . S
C2436 C2437 1.327 . S
C2437 H2431 0.950 . S
C2437 C2436 1.327 . S
C2437 C2441 1.429 . S
C2438 C2421 1.574 . S
C2438 H2432 0.949 . S
C2438 C2442 1.368 . S
C2439 C2420 1.429 . S
C2439 C2433 1.429 1_554 S
C2439 C2440 1.523 . S
C2440 C2421 1.368 . S
C2440 C2434 1.368 . S
C2440 C2439 1.523 . S
C2441 C2425 1.429 . S
C2441 C2437 1.429 . S
C2441 C2442 1.523 . S
C2442 C2426 1.368 . S
C2442 C2438 1.368 . S
C2442 C2441 1.523 . S
H2443 C2418 0.951 . S
H2444 C2420 0.950 . S
H2445 C2421 0.949 . S
H2446 C2423 0.950 . S
H2447 C2425 0.950 . S
C2448 C2449 1.349 . S
C2448 C2450 1.327 . S
C2448 H2473 0.950 . S
C2449 C2448 1.349 . S
C2449 C2465 1.349 . S
C2450 C2448 1.327 . S
C2450 C2469 1.429 . S
C2450 H2474 0.950 . S
C2451 C2468 1.574 . S
C2451 C2470 1.368 . S
C2451 H2475 0.949 . S
H2452 C2456 0.949 . S
C2453 C2454 1.349 . S
C2453 C2455 1.327 . S
C2453 H2476 0.950 . S
C2454 C2453 1.349 . S
C2454 C2466 1.349 . S
C2455 C2453 1.327 . S
C2455 C2471 1.429 . S
C2455 H2477 0.950 . S
C2456 H2452 0.949 . S
C2456 C2464 1.574 . S
C2456 C2472 1.368 . S
H2457 C2465 0.950 . S
H2458 C2463 0.950 . S
H2459 C2464 0.949 . S
H2460 C2466 0.950 . S
H2461 C2467 0.950 . S
H2462 C2468 0.949 . S
C2463 H2458 0.950 . S
C2463 C2465 1.327 . S
C2463 C2469 1.429 . S
C2464 C2456 1.574 . S
C2464 H2459 0.949 . S
C2464 C2470 1.368 . S
C2465 C2449 1.349 . S
C2465 H2457 0.950 . S
C2465 C2463 1.327 . S
C2466 C2454 1.349 . S
C2466 H2460 0.950 . S
C2466 C2467 1.327 . S
C2467 H2461 0.950 . S
C2467 C2466 1.327 . S
C2467 C2471 1.429 . S
C2468 C2451 1.574 . S
C2468 H2462 0.949 . S
C2468 C2472 1.368 . S
C2469 C2450 1.429 . S
C2469 C2463 1.429 . S
C2469 C2470 1.523 . S
C2470 C2451 1.368 . S
C2470 C2464 1.368 . S
C2470 C2469 1.523 . S
C2471 C2455 1.429 . S
C2471 C2467 1.429 . S
C2471 C2472 1.523 . S
C2472 C2456 1.368 . S
C2472 C2468 1.368 . S
C2472 C2471 1.523 . S
H2473 C2448 0.950 . S
H2474 C2450 0.950 . S
H2475 C2451 0.949 . S
H2476 C2453 0.950 . S
H2477 C2455 0.950 . S
C2478 C2479 1.349 . S
C2478 C2480 1.327 . S
C2478 H2503 0.950 . S
C2479 C2478 1.349 . S
C2479 C2495 1.349 . S
C2480 C2478 1.327 . S
C2480 C2499 1.429 . S
C2480 H2504 0.950 . S
C2481 C2498 1.574 . S
C2481 C2500 1.368 . S
C2481 H2505 0.949 . S
H2482 C2486 0.949 . S
C2483 C2484 1.349 . S
C2483 C2485 1.327 . S
C2483 H2506 0.950 . S
C2484 C2483 1.349 . S
C2484 C2496 1.349 . S
C2485 C2483 1.327 . S
C2485 C2501 1.429 . S
C2485 H2507 0.950 . S
C2486 H2482 0.949 . S
C2486 C2494 1.574 . S
C2486 C2502 1.368 . S
H2487 C2495 0.950 . S
H2488 C2493 0.950 . S
H2489 C2494 0.949 . S
H2490 C2496 0.950 . S
H2491 C2497 0.950 . S
H2492 C2498 0.949 . S
C2493 H2488 0.950 . S
C2493 C2495 1.327 . S
C2493 C2499 1.429 . S
C2494 C2486 1.574 . S
C2494 H2489 0.949 . S
C2494 C2500 1.368 . S
C2495 C2479 1.349 . S
C2495 H2487 0.950 . S
C2495 C2493 1.327 . S
C2496 C2484 1.349 . S
C2496 H2490 0.950 . S
C2496 C2497 1.327 . S
C2497 H2491 0.950 . S
C2497 C2496 1.327 . S
C2497 C2501 1.429 . S
C2498 C2481 1.574 . S
C2498 H2492 0.949 . S
C2498 C2502 1.368 . S
C2499 C2480 1.429 . S
C2499 C2493 1.429 . S
C2499 C2500 1.523 . S
C2500 C2481 1.368 . S
C2500 C2494 1.368 . S
C2500 C2499 1.523 . S
C2501 C2485 1.429 . S
C2501 C2497 1.429 . S
C2501 C2502 1.523 . S
C2502 C2486 1.368 . S
C2502 C2498 1.368 . S
C2502 C2501 1.523 . S
H2503 C2478 0.950 . S
H2504 C2480 0.950 . S
H2505 C2481 0.949 . S
H2506 C2483 0.950 . S
H2507 C2485 0.950 . S
C2508 C2509 1.349 . S
C2508 C2510 1.327 . S
C2508 H2533 0.950 . S
C2509 C2508 1.349 . S
C2509 C2525 1.349 . S
C2510 C2508 1.327 . S
C2510 C2529 1.429 . S
C2510 H2534 0.950 . S
C2511 C2528 1.574 . S
C2511 C2530 1.368 . S
C2511 H2535 0.949 . S
H2512 C2516 0.949 . S
C2513 C2514 1.349 . S
C2513 C2515 1.327 . S
C2513 H2536 0.950 . S
C2514 C2513 1.349 . S
C2514 C2526 1.349 . S
C2515 C2513 1.327 . S
C2515 C2531 1.429 . S
C2515 H2537 0.950 . S
C2516 H2512 0.949 . S
C2516 C2524 1.574 . S
C2516 C2532 1.368 . S
H2517 C2525 0.950 . S
H2518 C2523 0.950 . S
H2519 C2524 0.949 . S
H2520 C2526 0.950 . S
H2521 C2527 0.950 . S
H2522 C2528 0.949 . S
C2523 H2518 0.950 . S
C2523 C2525 1.327 . S
C2523 C2529 1.429 . S
C2524 C2516 1.574 . S
C2524 H2519 0.949 . S
C2524 C2530 1.368 . S
C2525 C2509 1.349 . S
C2525 H2517 0.950 . S
C2525 C2523 1.327 . S
C2526 C2514 1.349 . S
C2526 H2520 0.950 . S
C2526 C2527 1.327 . S
C2527 H2521 0.950 . S
C2527 C2526 1.327 . S
C2527 C2531 1.429 . S
C2528 C2511 1.574 . S
C2528 H2522 0.949 . S
C2528 C2532 1.368 . S
C2529 C2510 1.429 . S
C2529 C2523 1.429 . S
C2529 C2530 1.523 . S
C2530 C2511 1.368 . S
C2530 C2524 1.368 . S
C2530 C2529 1.523 . S
C2531 C2515 1.429 . S
C2531 C2527 1.429 . S
C2531 C2532 1.523 . S
C2532 C2516 1.368 . S
C2532 C2528 1.368 . S
C2532 C2531 1.523 . S
H2533 C2508 0.950 . S
H2534 C2510 0.950 . S
H2535 C2511 0.949 . S
H2536 C2513 0.950 . S
H2537 C2515 0.950 . S
C2538 C2539 1.349 . S
C2538 C2540 1.327 . S
C2538 H2563 0.950 . S
C2539 C2538 1.349 . S
C2539 C2555 1.349 . S
C2540 C2538 1.327 . S
C2540 C2559 1.429 . S
C2540 H2564 0.950 . S
C2541 C2558 1.574 . S
C2541 C2560 1.368 . S
C2541 H2565 0.949 . S
H2542 C2546 0.949 . S
C2543 C2544 1.349 . S
C2543 C2545 1.327 . S
C2543 H2566 0.950 . S
C2544 C2543 1.349 . S
C2544 C2556 1.349 . S
C2545 C2543 1.327 . S
C2545 C2561 1.429 . S
C2545 H2567 0.950 . S
C2546 H2542 0.949 . S
C2546 C2554 1.574 . S
C2546 C2562 1.368 . S
H2547 C2555 0.950 . S
H2548 C2553 0.950 . S
H2549 C2554 0.949 . S
H2550 C2556 0.950 . S
H2551 C2557 0.950 . S
H2552 C2558 0.949 . S
C2553 H2548 0.950 . S
C2553 C2555 1.327 . S
C2553 C2559 1.429 . S
C2554 C2546 1.574 . S
C2554 H2549 0.949 . S
C2554 C2560 1.368 . S
C2555 C2539 1.349 . S
C2555 H2547 0.950 . S
C2555 C2553 1.327 . S
C2556 C2544 1.349 . S
C2556 H2550 0.950 . S
C2556 C2557 1.327 . S
C2557 H2551 0.950 . S
C2557 C2556 1.327 . S
C2557 C2561 1.429 . S
C2558 C2541 1.574 . S
C2558 H2552 0.949 . S
C2558 C2562 1.368 . S
C2559 C2540 1.429 . S
C2559 C2553 1.429 . S
C2559 C2560 1.523 . S
C2560 C2541 1.368 . S
C2560 C2554 1.368 . S
C2560 C2559 1.523 . S
C2561 C2545 1.429 . S
C2561 C2557 1.429 . S
C2561 C2562 1.523 . S
C2562 C2546 1.368 . S
C2562 C2558 1.368 . S
C2562 C2561 1.523 . S
H2563 C2538 0.950 . S
H2564 C2540 0.950 . S
H2565 C2541 0.949 . S
H2566 C2543 0.950 . S
H2567 C2545 0.950 . S
C2568 C2569 1.349 . S
C2568 C2570 1.327 . S
C2568 H2593 0.950 . S
C2569 C2568 1.349 . S
C2569 C2585 1.349 . S
C2570 C2568 1.327 . S
C2570 C2589 1.429 . S
C2570 H2594 0.950 . S
C2571 C2588 1.574 . S
C2571 C2590 1.368 . S
C2571 H2595 0.949 . S
H2572 C2576 0.949 . S
C2573 C2574 1.349 . S
C2573 C2575 1.327 . S
C2573 H2596 0.950 1_556 S
C2574 C2573 1.349 . S
C2574 C2586 1.349 . S
C2575 C2573 1.327 . S
C2575 C2591 1.429 . S
C2575 H2597 0.950 1_556 S
C2576 H2572 0.949 . S
C2576 C2584 1.574 . S
C2576 C2592 1.368 . S
H2577 C2585 0.950 . S
H2578 C2583 0.950 . S
H2579 C2584 0.949 . S
H2580 C2586 0.950 . S
H2581 C2587 0.950 . S
H2582 C2588 0.952 . S
C2583 H2578 0.950 . S
C2583 C2585 1.327 . S
C2583 C2589 1.429 . S
C2584 C2576 1.574 . S
C2584 H2579 0.949 . S
C2584 C2590 1.368 . S
C2585 C2569 1.349 . S
C2585 H2577 0.950 . S
C2585 C2583 1.327 . S
C2586 C2574 1.349 . S
C2586 H2580 0.950 . S
C2586 C2587 1.327 . S
C2587 H2581 0.950 . S
C2587 C2586 1.327 . S
C2587 C2591 1.429 . S
C2588 C2571 1.574 . S
C2588 H2582 0.952 . S
C2588 C2592 1.368 . S
C2589 C2570 1.429 . S
C2589 C2583 1.429 . S
C2589 C2590 1.523 . S
C2590 C2571 1.368 . S
C2590 C2584 1.368 . S
C2590 C2589 1.523 . S
C2591 C2575 1.429 . S
C2591 C2587 1.429 . S
C2591 C2592 1.523 . S
C2592 C2576 1.368 . S
C2592 C2588 1.368 . S
C2592 C2591 1.523 . S
H2593 C2568 0.950 . S
H2594 C2570 0.950 . S
H2595 C2571 0.949 . S
H2596 C2573 0.950 1_554 S
H2597 C2575 0.950 1_554 S
C2598 C2599 1.349 . S
C2598 C2600 1.327 . S
C2598 H2623 0.950 . S
C2599 C2598 1.349 . S
C2599 C2615 1.349 . S
C2600 C2598 1.327 . S
C2600 C2619 1.429 . S
C2600 H2624 0.950 . S
C2601 C2618 1.574 . S
C2601 C2620 1.368 . S
C2601 H2625 0.949 . S
H2602 C2606 0.949 . S
C2603 C2604 1.349 . S
C2603 C2605 1.327 . S
C2603 H2626 0.950 . S
C2604 C2603 1.349 . S
C2604 C2616 1.349 . S
C2605 C2603 1.327 . S
C2605 C2621 1.429 . S
C2605 H2627 0.950 . S
C2606 H2602 0.949 . S
C2606 C2614 1.574 . S
C2606 C2622 1.368 . S
H2607 C2615 0.950 . S
H2608 C2613 0.950 . S
H2609 C2614 0.949 . S
H2610 C2616 0.950 . S
H2611 C2617 0.950 . S
H2612 C2618 0.949 . S
C2613 H2608 0.950 . S
C2613 C2615 1.327 . S
C2613 C2619 1.429 . S
C2614 C2606 1.574 . S
C2614 H2609 0.949 . S
C2614 C2620 1.368 . S
C2615 C2599 1.349 . S
C2615 H2607 0.950 . S
C2615 C2613 1.327 . S
C2616 C2604 1.349 . S
C2616 H2610 0.950 . S
C2616 C2617 1.327 . S
C2617 H2611 0.950 . S
C2617 C2616 1.327 . S
C2617 C2621 1.429 . S
C2618 C2601 1.574 . S
C2618 H2612 0.949 . S
C2618 C2622 1.368 . S
C2619 C2600 1.429 . S
C2619 C2613 1.429 . S
C2619 C2620 1.523 . S
C2620 C2601 1.368 . S
C2620 C2614 1.368 . S
C2620 C2619 1.523 . S
C2621 C2605 1.429 . S
C2621 C2617 1.429 . S
C2621 C2622 1.523 . S
C2622 C2606 1.368 . S
C2622 C2618 1.368 . S
C2622 C2621 1.523 . S
H2623 C2598 0.950 . S
H2624 C2600 0.950 . S
H2625 C2601 0.949 . S
H2626 C2603 0.950 . S
H2627 C2605 0.950 . S
C2628 C2629 1.349 . S
C2628 C2630 1.327 . S
C2628 H2653 0.950 . S
C2629 C2628 1.349 . S
C2629 C2645 1.349 . S
C2630 C2628 1.327 . S
C2630 C2649 1.429 . S
C2630 H2654 0.950 . S
C2631 C2648 1.574 . S
C2631 C2650 1.368 . S
C2631 H2655 0.949 . S
H2632 C2636 0.949 . S
C2633 C2634 1.349 . S
C2633 C2635 1.327 . S
C2633 H2656 0.950 . S
C2634 C2633 1.349 . S
C2634 C2646 1.349 . S
C2635 C2633 1.327 . S
C2635 C2651 1.429 . S
C2635 H2657 0.950 . S
C2636 H2632 0.949 . S
C2636 C2644 1.574 . S
C2636 C2652 1.368 . S
H2637 C2645 0.950 . S
H2638 C2643 0.950 . S
H2639 C2644 0.949 . S
H2640 C2646 0.953 1_556 S
H2641 C2647 0.950 . S
H2642 C2648 0.949 . S
C2643 H2638 0.950 . S
C2643 C2645 1.327 . S
C2643 C2649 1.429 . S
C2644 C2636 1.574 . S
C2644 H2639 0.949 . S
C2644 C2650 1.368 . S
C2645 C2629 1.349 . S
C2645 H2637 0.950 . S
C2645 C2643 1.327 . S
C2646 C2634 1.349 . S
C2646 H2640 0.953 1_554 S
C2646 C2647 1.327 . S
C2647 H2641 0.950 . S
C2647 C2646 1.327 . S
C2647 C2651 1.429 . S
C2648 C2631 1.574 . S
C2648 H2642 0.949 . S
C2648 C2652 1.368 . S
C2649 C2630 1.429 . S
C2649 C2643 1.429 . S
C2649 C2650 1.523 . S
C2650 C2631 1.368 . S
C2650 C2644 1.368 . S
C2650 C2649 1.523 . S
C2651 C2635 1.429 . S
C2651 C2647 1.429 . S
C2651 C2652 1.523 . S
C2652 C2636 1.368 . S
C2652 C2648 1.368 . S
C2652 C2651 1.523 . S
H2653 C2628 0.950 . S
H2654 C2630 0.950 . S
H2655 C2631 0.949 . S
H2656 C2633 0.950 . S
H2657 C2635 0.950 . S
C2658 C2659 1.349 . S
C2658 C2660 1.327 1_545 S
C2658 H2683 0.947 1_545 S
C2659 C2658 1.349 . S
C2659 C2675 1.349 . S
C2660 C2658 1.327 1_565 S
C2660 C2679 1.429 . S
C2660 H2684 0.950 . S
C2661 C2678 1.574 . S
C2661 C2680 1.368 . S
C2661 H2685 0.910 1_565 S
H2662 C2666 0.949 . S
C2663 C2664 1.349 . S
C2663 C2665 1.327 . S
C2663 H2686 0.950 . S
C2664 C2663 1.349 . S
C2664 C2676 1.349 . S
C2665 C2663 1.327 . S
C2665 C2681 1.429 . S
C2665 H2687 0.950 . S
C2666 H2662 0.949 . S
C2666 C2674 1.574 . S
C2666 C2682 1.368 . S
H2667 C2675 0.950 . S
H2668 C2673 0.950 . S
H2669 C2674 0.949 . S
H2670 C2676 0.950 . S
H2671 C2677 0.950 . S
H2672 C2678 0.949 . S
C2673 H2668 0.950 . S
C2673 C2675 1.327 . S
C2673 C2679 1.429 1_545 S
C2674 C2666 1.574 . S
C2674 H2669 0.949 . S
C2674 C2680 1.368 . S
C2675 C2659 1.349 . S
C2675 H2667 0.950 . S
C2675 C2673 1.327 . S
C2676 C2664 1.349 . S
C2676 H2670 0.950 . S
C2676 C2677 1.327 . S
C2677 H2671 0.950 . S
C2677 C2676 1.327 . S
C2677 C2681 1.429 . S
C2678 C2661 1.574 . S
C2678 H2672 0.949 . S
C2678 C2682 1.368 . S
C2679 C2660 1.429 . S
C2679 C2673 1.429 1_565 S
C2679 C2680 1.523 . S
C2680 C2661 1.368 . S
C2680 C2674 1.368 . S
C2680 C2679 1.523 . S
C2681 C2665 1.429 . S
C2681 C2677 1.429 . S
C2681 C2682 1.523 . S
C2682 C2666 1.368 . S
C2682 C2678 1.368 . S
C2682 C2681 1.523 . S
H2683 C2658 0.947 1_565 S
H2684 C2660 0.950 . S
H2685 C2661 0.910 1_545 S
H2686 C2663 0.950 . S
H2687 C2665 0.950 . S
C1254 C241 1.804 . S
C1249 C66 1.802 . S
C1284 C300 1.011 . S
C1279 C76 1.010 . S
C1309 C93 1.936 . S
C1314 C417 1.932 . S
C1344 C485 1.483 . S
C1339 C54 1.494 . S
C1374 C564 1.500 . S
C1369 C126 1.506 . S
C1404 C689 1.915 . S
C1399 C150 1.924 . S
C1429 C136 1.026 . S
C1434 C749 1.031 . S
C1464 C857 1.851 . S
C1459 C117 1.853 . S
C1489 C141 1.236 . S
C1494 C953 1.241 . S
C1524 C1013 1.281 . S
C1519 C112 1.275 . S
C1549 C124 1.579 . S
C1554 C916 1.581 . S
C1584 C1033 1.196 . S
C1579 C148 1.191 . S
C1609 C88 1.205 . S
C1614 C1101 1.208 . S
C1639 C52 1.660 . S
C1644 C1092 1.665 . S
C1669 C64 1.171 . S
C1674 C1121 1.174 . S
C1699 C78 1.122 . S
C1704 C1129 1.127 . S
C1729 C45 1.804 . S
C1734 C513 1.813 . S
C1759 C177 2.007 . S
C1764 C476 2.007 . S
C1794 C212 1.358 . S
C1789 C189 1.353 . S
C1824 C309 1.643 . S
C1819 C102 1.643 . S
C1849 C57 1.826 1_545 S
C1854 C573 1.837 . S
C1884 C865 1.437 . S
C1879 C138 1.436 . S
C1914 C593 1.910 . S
C1909 C114 1.914 1_545 S
C1944 C777 1.785 . S
C1939 C153 1.783 . S
C1974 C769 1.804 . S
C1969 C174 1.802 . S
C1999 C184 1.010 . S
C2004 C837 1.012 . S
C2029 C105 1.936 . S
C2034 C601 1.932 . S
C2064 C652 1.483 . S
C2059 C162 1.495 . S
C2089 C42 1.506 . S
C2094 C397 1.500 . S
C2124 C505 1.915 . S
C2119 C6 1.924 . S
C2154 C221 1.031 . S
C2149 C16 1.026 . S
C2184 C337 1.852 . S
C2179 C33 1.841 1_455 S
C2209 C21 1.236 . S
C2214 C1041 1.241 . S
C2239 C28 1.275 1_556 S
C2244 C925 1.281 . S
C2269 C40 1.579 . S
C2274 C1004 1.581 . S
C2299 C4 1.191 1_556 S
C2304 C945 1.196 . S
C2334 C1189 1.208 . S
C2329 C100 1.205 . S
C2364 C1180 1.665 . S
C2359 C160 1.660 1_554 S
C2394 C1209 1.174 . S
C2389 C172 1.171 . S
C2419 C186 1.122 . S
C2424 C1217 1.127 . S
C2449 C129 1.804 . S
C2454 C681 1.813 . S
C2484 C661 2.007 . S
C2479 C69 2.007 . S
C2514 C740 1.358 . S
C2509 C81 1.353 . S
C2544 C828 1.643 . S
C2539 C90 1.642 . S
C2569 C165 1.826 . S
C2574 C388 1.837 . S
C2604 C329 1.437 . S
C2599 C18 1.436 . S
C2629 C30 1.915 . S
C2634 C425 1.910 . S
C2664 C249 1.785 . S
C2659 C9 1.783 . S
