# Generated by pormake.
# Topology rtl, (3,6)-cn, num edge types: 1
# Building blocks:
#     Node 0, Type 0, BuildingBlock: KAKCAD_clean_linker_0, # of connection points: 3
#     Node 1, Type 0, BuildingBlock: KAKCAD_clean_linker_0, # of connection points: 3
#     Node 2, Type 0, BuildingBlock: KAKCAD_clean_linker_0, # of connection points: 3
#     Node 3, Type 0, BuildingBlock: KAKCAD_clean_linker_0, # of connection points: 3
#     Node 4, Type 1, BuildingBlock: VOLQOD_clean_sbu_1, # of connection points: 6
#     Node 5, Type 1, BuildingBlock: VOLQOD_clean_sbu_1, # of connection points: 6
#     Edge 6, Type (0, 1), BuildingBlock: OJICUG_clean_linker_0, # of connection points: 2
#     Edge 7, Type (0, 1), BuildingBlock: OJICUG_clean_linker_0, # of connection points: 2
#     Edge 8, Type (0, 1), BuildingBlock: OJICUG_clean_linker_0, # of connection points: 2
#     Edge 9, Type (0, 1), BuildingBlock: OJICUG_clean_linker_0, # of connection points: 2
#     Edge 10, Type (0, 1), BuildingBlock: OJICUG_clean_linker_0, # of connection points: 2
#     Edge 11, Type (0, 1), BuildingBlock: OJICUG_clean_linker_0, # of connection points: 2
#     Edge 12, Type (0, 1), BuildingBlock: OJICUG_clean_linker_0, # of connection points: 2
#     Edge 13, Type (0, 1), BuildingBlock: OJICUG_clean_linker_0, # of connection points: 2
#     Edge 14, Type (0, 1), BuildingBlock: OJICUG_clean_linker_0, # of connection points: 2
#     Edge 15, Type (0, 1), BuildingBlock: OJICUG_clean_linker_0, # of connection points: 2
#     Edge 16, Type (0, 1), BuildingBlock: OJICUG_clean_linker_0, # of connection points: 2
#     Edge 17, Type (0, 1), BuildingBlock: OJICUG_clean_linker_0, # of connection points: 2
# Relax obj value: 0.078
# Max RMSD: 0.156
# Mean RMSD: 0.088
data_MOF--net-rtl--node1-VOLQOD_clean_sbu_1--node2-KAKCAD_clean_linker_0--edge1-OJICUG_clean_linker_0
_symmetry_space_group_name_H-M    P1
_symmetry_Int_Tables_number       1
_symmetry_cell_setting            triclinic
loop_
_symmetry_equiv_pos_as_xyz
'x, y, z'
_cell_length_a     35.461012
_cell_length_b     30.440623
_cell_length_c     23.161084
_cell_angle_alpha  89.874143
_cell_angle_beta   90.18556
_cell_angle_gamma 89.860921
loop_
_atom_site_label
_atom_site_type_symbol
_atom_site_fract_x
_atom_site_fract_y
_atom_site_fract_z
_atom_type_partial_charge
C0 C 0.07807 0.7623 0.81296 0.0
C1 C 0.07368 0.80815 0.81738 0.0
C2 C 0.08554 0.73691 0.86234 0.0
C3 C 0.08819 0.75706 0.91672 0.0
C4 C 0.08382 0.80286 0.92065 0.0
C5 C 0.07643 0.82795 0.87183 0.0
C6 C 0.09699 0.73184 0.9699 0.0
C7 C 0.12785 0.70298 0.97202 0.0
C8 C 0.14208 0.68817 0.02549 0.0
C9 C 0.12511 0.70294 0.07689 0.0
C10 C 0.09436 0.732 0.07498 0.0
C11 C 0.07895 0.74351 0.02131 0.0
C12 C 0.08306 0.75734 0.12684 0.0
C13 C 0.08002 0.7377 0.18163 0.0
C14 C 0.0775 0.80294 0.12166 0.0
C15 C 0.06908 0.82832 0.16964 0.0
C16 C 0.06658 0.80909 0.22454 0.0
C17 C 0.1778 0.66266 0.02753 0.0
C18 C 0.18468 0.62872 0.98783 0.0
C19 C 0.20631 0.67405 0.06703 0.0
C20 C 0.24103 0.65248 0.06637 0.0
C21 C 0.24819 0.6191 0.02606 0.0
C22 C 0.21955 0.60717 0.98707 0.0
C23 C 0.07166 0.7634 0.23015 0.0
H24 H 0.07623 0.74622 0.77138 0.0
H25 H 0.08902 0.70171 0.85812 0.0
H26 H 0.08661 0.81962 0.96166 0.0
H27 H 0.07261 0.86305 0.87691 0.0
H28 H 0.14272 0.69512 0.93254 0.0
H29 H 0.05479 0.7654 0.01958 0.0
H30 H 0.1373 0.69403 0.11826 0.0
H31 H 0.08426 0.70269 0.18696 0.0
H32 H 0.08056 0.81951 0.08052 0.0
H33 H 0.06469 0.86327 0.16363 0.0
H34 H 0.16317 0.61905 0.9571 0.0
H35 H 0.20235 0.70077 0.09723 0.0
H36 H 0.07 0.74774 0.27209 0.0
H37 H 0.22413 0.58125 0.95589 0.0
H38 H 0.26274 0.66302 0.09625 0.0
C39 C 0.57522 0.7568 0.72492 0.0
C40 C 0.56333 0.71289 0.72049 0.0
C41 C 0.58702 0.77976 0.67562 0.0
C42 C 0.58735 0.75891 0.62147 0.0
C43 C 0.57645 0.71457 0.61801 0.0
C44 C 0.56433 0.69205 0.66668 0.0
C45 C 0.59992 0.78176 0.56817 0.0
C46 C 0.63256 0.80775 0.56762 0.0
C47 C 0.64855 0.82122 0.51488 0.0
C48 C 0.63184 0.80771 0.4626 0.0
C49 C 0.59924 0.78171 0.46284 0.0
C50 C 0.5822 0.77174 0.5157 0.0
C51 C 0.58615 0.75886 0.40983 0.0
C52 C 0.58593 0.77952 0.35542 0.0
C53 C 0.57522 0.71454 0.41368 0.0
C54 C 0.56345 0.69177 0.36502 0.0
C55 C 0.56283 0.71234 0.31089 0.0
C56 C 0.68509 0.84482 0.51451 0.0
C57 C 0.69183 0.8798 0.55268 0.0
C58 C 0.71407 0.83125 0.47732 0.0
C59 C 0.74918 0.85173 0.47879 0.0
C60 C 0.75618 0.88623 0.51753 0.0
C61 C 0.72702 0.90045 0.55401 0.0
C62 C 0.57449 0.7563 0.30616 0.0
H63 H 0.57486 0.77342 0.76622 0.0
H64 H 0.59547 0.81378 0.67971 0.0
H65 H 0.57775 0.6968 0.5776 0.0
H66 H 0.55631 0.65788 0.66236 0.0
H67 H 0.64704 0.81482 0.6078 0.0
H68 H 0.55626 0.75296 0.51602 0.0
H69 H 0.64524 0.81564 0.42195 0.0
H70 H 0.59434 0.81353 0.351 0.0
H71 H 0.57642 0.69691 0.45431 0.0
H72 H 0.55553 0.65758 0.3696 0.0
H73 H 0.66993 0.89103 0.58166 0.0
H74 H 0.70999 0.80399 0.448 0.0
H75 H 0.57433 0.77274 0.26464 0.0
H76 H 0.7317 0.92678 0.58456 0.0
H77 H 0.77096 0.84038 0.4497 0.0
C78 C 0.89991 0.22963 0.22453 0.0
C79 C 0.93575 0.20981 0.2273 0.0
C80 C 0.88861 0.25315 0.17564 0.0
C81 C 0.91322 0.25877 0.12864 0.0
C82 C 0.94996 0.24148 0.13306 0.0
C83 C 0.96089 0.21684 0.18127 0.0
C84 C 0.89947 0.27906 0.07367 0.0
C85 C 0.87085 0.31111 0.07403 0.0
C86 C 0.8532 0.32469 0.02254 0.0
C87 C 0.86627 0.30818 0.96963 0.0
C88 C 0.8959 0.27756 0.9682 0.0
C89 C 0.91207 0.263 0.02022 0.0
C90 C 0.9078 0.25708 0.91322 0.0
C91 C 0.88094 0.23899 0.87553 0.0
C92 C 0.94627 0.25211 0.90063 0.0
C93 C 0.95773 0.22813 0.85243 0.0
C94 C 0.93096 0.20816 0.81608 0.0
C95 C 0.8183 0.35172 0.02474 0.0
C96 C 0.7905 0.34201 0.06593 0.0
C97 C 0.8112 0.38502 0.98389 0.0
C98 C 0.77655 0.40722 0.98333 0.0
C99 C 0.74834 0.39616 0.02326 0.0
C100 C 0.756 0.36398 0.06523 0.0
C101 C 0.8924 0.21465 0.82755 0.0
H102 H 0.88003 0.22626 0.25961 0.0
H103 H 0.85993 0.26532 0.17414 0.0
H104 H 0.97014 0.24592 0.09858 0.0
H105 H 0.98866 0.20204 0.18117 0.0
H106 H 0.86132 0.32467 0.11464 0.0
H107 H 0.93292 0.23697 0.0188 0.0
H108 H 0.8525 0.31777 0.92969 0.0
H109 H 0.8511 0.24188 0.88464 0.0
H110 H 0.96752 0.26612 0.92877 0.0
H111 H 0.98763 0.22467 0.84419 0.0
H112 H 0.79477 0.31616 0.09751 0.0
H113 H 0.83218 0.39342 0.95186 0.0
H114 H 0.87099 0.19935 0.80095 0.0
H115 H 0.73496 0.35515 0.09699 0.0
H116 H 0.77132 0.43182 0.95039 0.0
C117 C 0.3985 0.29985 0.32096 0.0
C118 C 0.43669 0.30898 0.31086 0.0
C119 C 0.38775 0.27511 0.36882 0.0
C120 C 0.41496 0.25914 0.40788 0.0
C121 C 0.45332 0.26686 0.39665 0.0
C122 C 0.46412 0.29135 0.34825 0.0
C123 C 0.40267 0.23828 0.46257 0.0
C124 C 0.37252 0.2085 0.46256 0.0
C125 C 0.35584 0.19489 0.51451 0.0
C126 C 0.37069 0.21014 0.56704 0.0
C127 C 0.40115 0.23956 0.56787 0.0
C128 C 0.41735 0.25294 0.51546 0.0
C129 C 0.41258 0.2612 0.62243 0.0
C130 C 0.38497 0.27886 0.65911 0.0
C131 C 0.45085 0.26769 0.63583 0.0
C132 C 0.46125 0.29249 0.68407 0.0
C133 C 0.43353 0.31166 0.71924 0.0
C134 C 0.32032 0.16918 0.51368 0.0
C135 C 0.29175 0.17982 0.47378 0.0
C136 C 0.31368 0.13584 0.55448 0.0
C137 C 0.27901 0.11403 0.55575 0.0
C138 C 0.25037 0.1251 0.51615 0.0
C139 C 0.25726 0.15801 0.47495 0.0
C140 C 0.39534 0.30391 0.7069 0.0
H141 H 0.37684 0.3128 0.2925 0.0
H142 H 0.35795 0.27024 0.37664 0.0
H143 H 0.47485 0.25482 0.42599 0.0
H144 H 0.49376 0.29811 0.34145 0.0
H145 H 0.36115 0.19712 0.42176 0.0
H146 H 0.43937 0.27758 0.51572 0.0
H147 H 0.35731 0.20097 0.6073 0.0
H148 H 0.35525 0.27492 0.64953 0.0
H149 H 0.47268 0.25433 0.60831 0.0
H150 H 0.4909 0.29815 0.69253 0.0
H151 H 0.29554 0.20606 0.4427 0.0
H152 H 0.33524 0.12671 0.58552 0.0
H153 H 0.37343 0.318 0.73364 0.0
H154 H 0.23553 0.16789 0.44457 0.0
H155 H 0.27463 0.08847 0.58762 0.0
O156 O 0.90974 0.00387 0.52352 0.0
Zn157 Zn 0.95605 0.04246 0.52222 0.0
O158 O 0.00259 0.00757 0.52282 0.0
Zn159 Zn 0.0326 0.02119 0.59134 0.0
Zn160 Zn 0.98969 0.94512 0.52288 0.0
Zn161 Zn 0.03234 0.02114 0.45448 0.0
O162 O 0.08388 0.0451 0.57088 0.0
O163 O 0.08387 0.04272 0.47526 0.0
O164 O 0.95396 0.08221 0.59172 0.0
O165 O 0.00612 0.06593 0.64077 0.0
O166 O 0.0417 0.96678 0.63853 0.0
O167 O 0.01156 0.91386 0.5916 0.0
O168 O 0.00951 0.91453 0.4526 0.0
O169 O 0.95309 0.08055 0.45106 0.0
O170 O 0.0394 0.96748 0.4054 0.0
O171 O 0.0076 0.06832 0.40664 0.0
C172 C 0.90551 0.96232 0.52419 0.0
C173 C 0.10041 0.05101 0.52279 0.0
C174 C 0.03193 0.92674 0.63354 0.0
C175 C 0.97553 0.08761 0.63522 0.0
C176 C 0.02904 0.9276 0.40996 0.0
C177 C 0.97603 0.08812 0.41005 0.0
O178 O 0.93378 0.93651 0.52412 0.0
O179 O 0.59288 0.51181 0.01469 0.0
Zn180 Zn 0.54521 0.54873 0.01527 0.0
O181 O 0.49974 0.51188 0.01541 0.0
Zn182 Zn 0.46877 0.52515 0.94772 0.0
Zn183 Zn 0.51416 0.44982 0.01491 0.0
Zn184 Zn 0.47018 0.52388 0.08425 0.0
O185 O 0.4163 0.54455 0.96925 0.0
O186 O 0.41754 0.54302 0.06488 0.0
O187 O 0.54575 0.58872 0.94609 0.0
O188 O 0.49212 0.57345 0.90073 0.0
O189 O 0.46339 0.47191 0.89742 0.0
O190 O 0.49428 0.41904 0.94405 0.0
O191 O 0.49535 0.41779 0.08569 0.0
O192 O 0.54654 0.58842 0.08473 0.0
O193 O 0.46578 0.47035 0.13412 0.0
O194 O 0.49369 0.57186 0.13093 0.0
C195 C 0.59802 0.47035 0.0145 0.0
C196 C 0.40006 0.54985 0.01767 0.0
C197 C 0.47465 0.43225 0.90123 0.0
C198 C 0.52251 0.59543 0.90498 0.0
C199 C 0.47668 0.43067 0.12941 0.0
C200 C 0.52373 0.59439 0.12634 0.0
O201 O 0.57032 0.44383 0.01455 0.0
C202 C 0.19476 0.09661 0.57151 0.0
C203 C 0.21294 0.10354 0.51844 0.0
H204 H 0.14487 0.0748 0.61464 0.0
C205 C 0.19437 0.09162 0.46718 0.0
H206 H 0.20822 0.10587 0.6117 0.0
C207 C 0.15807 0.07415 0.46877 0.0
C208 C 0.13944 0.06813 0.5217 0.0
H209 H 0.20787 0.09598 0.42568 0.0
H210 H 0.14452 0.06572 0.42831 0.0
C211 C 0.15835 0.0791 0.57313 0.0
C212 C 0.30539 0.58746 0.07465 0.0
C213 C 0.28601 0.59829 0.02355 0.0
H214 H 0.35636 0.5636 0.11294 0.0
C215 C 0.30383 0.59121 0.97024 0.0
H216 H 0.2922 0.59197 0.11636 0.0
C217 C 0.34065 0.57481 0.96817 0.0
C218 C 0.3604 0.5651 0.0194 0.0
H219 H 0.28976 0.59965 0.93013 0.0
H220 H 0.35383 0.57052 0.92644 0.0
C221 C 0.34213 0.57106 0.07262 0.0
C222 C 0.8264 0.87919 0.51993 0.0
C223 C 0.79423 0.90616 0.52078 0.0
H224 H 0.88648 0.8756 0.52058 0.0
C225 C 0.79879 0.95193 0.52418 0.0
H226 H 0.82378 0.84376 0.51829 0.0
C227 C 0.8349 0.97035 0.52564 0.0
C228 C 0.86711 0.9433 0.52406 0.0
H229 H 0.77447 0.97352 0.52459 0.0
H230 H 0.83754 0.00576 0.52761 0.0
C231 C 0.86237 0.8975 0.52159 0.0
C232 C 0.67833 0.38868 0.02352 0.0
C233 C 0.71015 0.41586 0.01952 0.0
H234 H 0.61838 0.38439 0.02488 0.0
C235 C 0.705 0.46135 0.0124 0.0
H236 H 0.68141 0.35342 0.02803 0.0
C237 C 0.6686 0.47934 0.01059 0.0
C238 C 0.63677 0.45204 0.01529 0.0
H239 H 0.72909 0.48303 0.00932 0.0
H240 H 0.66544 0.51455 0.00572 0.0
C241 C 0.64215 0.40649 0.02135 0.0
C242 C 0.07661 0.87867 0.27938 0.0
C243 C 0.05905 0.83744 0.27515 0.0
H244 H 0.08079 0.93939 0.32481 0.0
C245 C 0.0329 0.825 0.31751 0.0
H246 H 0.09753 0.88882 0.24811 0.0
C247 C 0.02351 0.85398 0.36203 0.0
C248 C 0.04002 0.89593 0.36476 0.0
H249 H 0.01879 0.79354 0.31517 0.0
H250 H 0.00265 0.84391 0.39343 0.0
C251 C 0.06707 0.90765 0.32343 0.0
C252 C 0.57307 0.68471 0.82108 0.0
C253 C 0.55057 0.68762 0.77129 0.0
H254 H 0.58205 0.65286 0.90249 0.0
C255 C 0.51749 0.66251 0.76765 0.0
H256 H 0.59883 0.70357 0.82465 0.0
C257 C 0.50789 0.6335 0.81181 0.0
C258 C 0.5313 0.62879 0.86049 0.0
H259 H 0.49952 0.6645 0.7298 0.0
H260 H 0.48264 0.61389 0.8069 0.0
C261 C 0.56359 0.65539 0.86528 0.0
C262 C 0.91828 0.15456 0.30387 0.0
C263 C 0.94605 0.18013 0.27633 0.0
H264 H 0.90598 0.10604 0.36819 0.0
C265 C 0.98379 0.17565 0.29466 0.0
H266 H 0.88907 0.15596 0.29036 0.0
C267 C 0.99355 0.14561 0.33795 0.0
C268 C 0.9657 0.1203 0.36505 0.0
H269 H 0.00595 0.19531 0.27573 0.0
H270 H 0.02286 0.14255 0.35068 0.0
C271 C 0.92794 0.12549 0.34825 0.0
C272 C 0.47258 0.33082 0.80624 0.0
C273 C 0.44415 0.34196 0.76643 0.0
H274 H 0.50432 0.35047 0.88068 0.0
C275 C 0.426 0.38283 0.77122 0.0
H276 H 0.48691 0.29944 0.80352 0.0
C277 C 0.43607 0.41209 0.81482 0.0
C278 C 0.4643 0.40098 0.85503 0.0
H279 H 0.40431 0.39249 0.74064 0.0
H280 H 0.42153 0.44337 0.81712 0.0
C281 C 0.48239 0.35995 0.85045 0.0
C282 C 0.51773 0.66142 0.26308 0.0
C283 C 0.55068 0.68675 0.26006 0.0
H284 H 0.48337 0.61258 0.22341 0.0
C285 C 0.57357 0.68386 0.21091 0.0
H286 H 0.49945 0.6634 0.3004 0.0
C287 C 0.56455 0.65441 0.1667 0.0
C288 C 0.53234 0.62765 0.17089 0.0
H289 H 0.59926 0.7029 0.20785 0.0
H290 H 0.58325 0.65192 0.12997 0.0
C291 C 0.5086 0.63227 0.21898 0.0
C292 C 0.97403 0.15011 0.77646 0.0
C293 C 0.9432 0.17867 0.76851 0.0
H294 H 0.00838 0.09919 0.74093 0.0
C295 C 0.92349 0.17756 0.71575 0.0
H296 H 0.98945 0.14941 0.81689 0.0
C297 C 0.93404 0.14817 0.67235 0.0
C298 C 0.9647 0.11942 0.68059 0.0
H299 H 0.89992 0.19947 0.70786 0.0
H300 H 0.91815 0.14805 0.63233 0.0
C301 C 0.98474 0.12099 0.73298 0.0
C302 C 0.42855 0.38003 0.25868 0.0
C303 C 0.44733 0.33958 0.26399 0.0
H304 H 0.42324 0.44047 0.21243 0.0
C305 C 0.47615 0.3291 0.22488 0.0
H306 H 0.40653 0.38913 0.28873 0.0
C307 C 0.48561 0.35845 0.18063 0.0
C308 C 0.46684 0.39906 0.17551 0.0
H309 H 0.49099 0.29804 0.22812 0.0
H310 H 0.50781 0.34954 0.15082 0.0
C311 C 0.43831 0.40953 0.21517 0.0
C312 C 0.08343 0.87711 0.76085 0.0
C313 C 0.06579 0.83601 0.76624 0.0
H314 H 0.08645 0.93794 0.71513 0.0
C315 C 0.03862 0.82364 0.72518 0.0
H316 H 0.10508 0.88718 0.79114 0.0
C317 C 0.02811 0.85272 0.6811 0.0
C318 C 0.04449 0.89469 0.67758 0.0
H319 H 0.02442 0.79228 0.72847 0.0
H320 H 0.00635 0.84281 0.65092 0.0
C321 C 0.07277 0.9062 0.71726 0.0
loop_
_geom_bond_atom_site_label_1
_geom_bond_atom_site_label_2
_geom_bond_distance
_geom_bond_site_symmetry_2
_ccdc_geom_bond_type
C0 C1 1.386 . S
C0 C2 1.397 . S
C0 H24 0.931 . S
C1 C0 1.386 . S
C1 C5 1.397 . S
C2 C0 1.397 . S
C2 C3 1.384 . S
C2 H25 0.930 . S
C3 C2 1.384 . S
C3 C4 1.377 . S
C3 C6 1.481 . S
C4 C3 1.377 . S
C4 C5 1.389 . S
C4 H26 0.929 . S
C5 C1 1.397 . S
C5 C4 1.389 . S
C5 H27 0.931 . S
C6 C3 1.481 . S
C6 C7 1.387 . S
C6 C11 1.390 1_556 S
C7 C6 1.387 . S
C7 C8 1.401 1_556 S
C7 H28 0.930 . S
C8 C7 1.401 1_554 S
C8 C9 1.376 . S
C8 C17 1.511 . S
C9 C8 1.376 . S
C9 C10 1.392 . S
C9 H30 0.931 . S
C10 C9 1.392 . S
C10 C11 1.361 . S
C10 C12 1.500 . S
C11 C6 1.390 1_554 S
C11 C10 1.361 . S
C11 H29 0.931 . S
C12 C10 1.500 . S
C12 C13 1.371 . S
C12 C14 1.365 . S
C13 C12 1.371 . S
C13 C23 1.386 . S
C13 H31 0.931 . S
C14 C12 1.365 . S
C14 C15 1.409 . S
C14 H32 0.929 . S
C15 C14 1.409 . S
C15 C16 1.380 . S
C15 H33 0.930 . S
C16 C15 1.380 . S
C16 C23 1.357 . S
C17 C8 1.511 . S
C17 C18 1.341 1_554 S
C17 C19 1.371 . S
C18 C17 1.341 1_556 S
C18 C22 1.394 . S
C18 H34 0.930 . S
C19 C17 1.371 . S
C19 C20 1.392 . S
C19 H35 0.931 . S
C20 C19 1.392 . S
C20 C21 1.331 . S
C20 H38 0.932 . S
C21 C20 1.331 . S
C21 C22 1.336 1_554 S
C22 C18 1.394 . S
C22 C21 1.336 1_556 S
C22 H37 0.929 . S
C23 C13 1.386 . S
C23 C16 1.357 . S
C23 H36 0.928 . S
H24 C0 0.931 . S
H25 C2 0.930 . S
H26 C4 0.929 . S
H27 C5 0.931 . S
H28 C7 0.930 . S
H29 C11 0.931 . S
H30 C9 0.931 . S
H31 C13 0.931 . S
H32 C14 0.929 . S
H33 C15 0.930 . S
H34 C18 0.930 . S
H35 C19 0.931 . S
H36 C23 0.928 . S
H37 C22 0.929 . S
H38 C20 0.932 . S
C39 C40 1.386 . S
C39 C41 1.397 . S
C39 H63 0.931 . S
C40 C39 1.386 . S
C40 C44 1.397 . S
C41 C39 1.397 . S
C41 C42 1.384 . S
C41 H64 0.930 . S
C42 C41 1.384 . S
C42 C43 1.377 . S
C42 C45 1.481 . S
C43 C42 1.377 . S
C43 C44 1.389 . S
C43 H65 0.929 . S
C44 C40 1.397 . S
C44 C43 1.389 . S
C44 H66 0.931 . S
C45 C42 1.481 . S
C45 C46 1.387 . S
C45 C50 1.390 . S
C46 C45 1.387 . S
C46 C47 1.401 . S
C46 H67 0.930 . S
C47 C46 1.401 . S
C47 C48 1.376 . S
C47 C56 1.511 . S
C48 C47 1.376 . S
C48 C49 1.392 . S
C48 H69 0.931 . S
C49 C48 1.392 . S
C49 C50 1.361 . S
C49 C51 1.500 . S
C50 C45 1.390 . S
C50 C49 1.361 . S
C50 H68 0.931 . S
C51 C49 1.500 . S
C51 C52 1.371 . S
C51 C53 1.365 . S
C52 C51 1.371 . S
C52 C62 1.386 . S
C52 H70 0.931 . S
C53 C51 1.365 . S
C53 C54 1.409 . S
C53 H71 0.929 . S
C54 C53 1.409 . S
C54 C55 1.380 . S
C54 H72 0.930 . S
C55 C54 1.380 . S
C55 C62 1.357 . S
C56 C47 1.511 . S
C56 C57 1.341 . S
C56 C58 1.371 . S
C57 C56 1.341 . S
C57 C61 1.394 . S
C57 H73 0.930 . S
C58 C56 1.371 . S
C58 C59 1.392 . S
C58 H74 0.931 . S
C59 C58 1.392 . S
C59 C60 1.331 . S
C59 H77 0.932 . S
C60 C59 1.331 . S
C60 C61 1.336 . S
C61 C57 1.394 . S
C61 C60 1.336 . S
C61 H76 0.929 . S
C62 C52 1.386 . S
C62 C55 1.357 . S
C62 H75 0.928 . S
H63 C39 0.931 . S
H64 C41 0.930 . S
H65 C43 0.929 . S
H66 C44 0.931 . S
H67 C46 0.930 . S
H68 C50 0.931 . S
H69 C48 0.931 . S
H70 C52 0.931 . S
H71 C53 0.929 . S
H72 C54 0.930 . S
H73 C57 0.930 . S
H74 C58 0.931 . S
H75 C62 0.928 . S
H76 C61 0.929 . S
H77 C59 0.932 . S
C78 C79 1.386 . S
C78 C80 1.397 . S
C78 H102 0.931 . S
C79 C78 1.386 . S
C79 C83 1.397 . S
C80 C78 1.397 . S
C80 C81 1.384 . S
C80 H103 0.930 . S
C81 C80 1.384 . S
C81 C82 1.377 . S
C81 C84 1.481 . S
C82 C81 1.377 . S
C82 C83 1.389 . S
C82 H104 0.929 . S
C83 C79 1.397 . S
C83 C82 1.389 . S
C83 H105 0.931 . S
C84 C81 1.481 . S
C84 C85 1.387 . S
C84 C89 1.390 . S
C85 C84 1.387 . S
C85 C86 1.401 . S
C85 H106 0.930 . S
C86 C85 1.401 . S
C86 C87 1.376 1_554 S
C86 C95 1.511 . S
C87 C86 1.376 1_556 S
C87 C88 1.392 . S
C87 H108 0.931 . S
C88 C87 1.392 . S
C88 C89 1.361 1_556 S
C88 C90 1.500 . S
C89 C84 1.390 . S
C89 C88 1.361 1_554 S
C89 H107 0.931 . S
C90 C88 1.500 . S
C90 C91 1.371 . S
C90 C92 1.365 . S
C91 C90 1.371 . S
C91 C101 1.386 . S
C91 H109 0.931 . S
C92 C90 1.365 . S
C92 C93 1.409 . S
C92 H110 0.929 . S
C93 C92 1.409 . S
C93 C94 1.380 . S
C93 H111 0.930 . S
C94 C93 1.380 . S
C94 C101 1.357 . S
C95 C86 1.511 . S
C95 C96 1.341 . S
C95 C97 1.371 1_554 S
C96 C95 1.341 . S
C96 C100 1.394 . S
C96 H112 0.930 . S
C97 C95 1.371 1_556 S
C97 C98 1.392 . S
C97 H113 0.931 . S
C98 C97 1.392 . S
C98 C99 1.331 1_556 S
C98 H116 0.932 . S
C99 C98 1.331 1_554 S
C99 C100 1.336 . S
C100 C96 1.394 . S
C100 C99 1.336 . S
C100 H115 0.929 . S
C101 C91 1.386 . S
C101 C94 1.357 . S
C101 H114 0.928 . S
H102 C78 0.931 . S
H103 C80 0.930 . S
H104 C82 0.929 . S
H105 C83 0.931 . S
H106 C85 0.930 . S
H107 C89 0.931 . S
H108 C87 0.931 . S
H109 C91 0.931 . S
H110 C92 0.929 . S
H111 C93 0.930 . S
H112 C96 0.930 . S
H113 C97 0.931 . S
H114 C101 0.928 . S
H115 C100 0.929 . S
H116 C98 0.932 . S
C117 C118 1.386 . S
C117 C119 1.397 . S
C117 H141 0.931 . S
C118 C117 1.386 . S
C118 C122 1.397 . S
C119 C117 1.397 . S
C119 C120 1.384 . S
C119 H142 0.930 . S
C120 C119 1.384 . S
C120 C121 1.377 . S
C120 C123 1.481 . S
C121 C120 1.377 . S
C121 C122 1.389 . S
C121 H143 0.929 . S
C122 C118 1.397 . S
C122 C121 1.389 . S
C122 H144 0.931 . S
C123 C120 1.481 . S
C123 C124 1.387 . S
C123 C128 1.390 . S
C124 C123 1.387 . S
C124 C125 1.401 . S
C124 H145 0.930 . S
C125 C124 1.401 . S
C125 C126 1.376 . S
C125 C134 1.511 . S
C126 C125 1.376 . S
C126 C127 1.392 . S
C126 H147 0.931 . S
C127 C126 1.392 . S
C127 C128 1.361 . S
C127 C129 1.500 . S
C128 C123 1.390 . S
C128 C127 1.361 . S
C128 H146 0.931 . S
C129 C127 1.500 . S
C129 C130 1.371 . S
C129 C131 1.365 . S
C130 C129 1.371 . S
C130 C140 1.386 . S
C130 H148 0.931 . S
C131 C129 1.365 . S
C131 C132 1.409 . S
C131 H149 0.929 . S
C132 C131 1.409 . S
C132 C133 1.380 . S
C132 H150 0.930 . S
C133 C132 1.380 . S
C133 C140 1.357 . S
C134 C125 1.511 . S
C134 C135 1.341 . S
C134 C136 1.371 . S
C135 C134 1.341 . S
C135 C139 1.394 . S
C135 H151 0.930 . S
C136 C134 1.371 . S
C136 C137 1.392 . S
C136 H152 0.931 . S
C137 C136 1.392 . S
C137 C138 1.331 . S
C137 H155 0.932 . S
C138 C137 1.331 . S
C138 C139 1.336 . S
C139 C135 1.394 . S
C139 C138 1.336 . S
C139 H154 0.929 . S
C140 C130 1.386 . S
C140 C133 1.357 . S
C140 H153 0.928 . S
H141 C117 0.931 . S
H142 C119 0.930 . S
H143 C121 0.929 . S
H144 C122 0.931 . S
H145 C124 0.930 . S
H146 C128 0.931 . S
H147 C126 0.931 . S
H148 C130 0.931 . S
H149 C131 0.929 . S
H150 C132 0.930 . S
H151 C135 0.930 . S
H152 C136 0.931 . S
H153 C140 0.928 . S
H154 C139 0.929 . S
H155 C137 0.932 . S
O156 Zn157 1.953 1_565 S
O156 C172 1.225 . S
Zn157 O156 1.953 1_545 S
Zn157 O158 1.949 1_655 S
Zn157 O164 1.919 . S
Zn157 O169 1.924 . S
O158 Zn157 1.949 1_455 S
O158 Zn159 1.923 . S
O158 Zn160 1.950 1_445 S
O158 Zn161 1.945 . S
Zn159 O158 1.923 . S
Zn159 O162 1.933 . S
Zn159 O165 1.941 . S
Zn159 O166 1.965 1_545 S
Zn160 O158 1.950 1_665 S
Zn160 O167 1.938 1_655 S
Zn160 O168 1.906 1_655 S
Zn160 O178 1.953 . S
Zn161 O158 1.945 . S
Zn161 O163 1.932 . S
Zn161 O170 1.977 1_545 S
Zn161 O171 1.910 1_455 S
O162 Zn159 1.933 . S
O162 C173 1.226 . S
O163 Zn161 1.932 . S
O163 C173 1.307 . S
O164 Zn157 1.919 . S
O164 C175 1.253 . S
O165 Zn159 1.941 . S
O165 C175 1.283 1_455 S
O166 Zn159 1.965 1_565 S
O166 C174 1.303 . S
O167 Zn160 1.938 1_455 S
O167 C174 1.247 . S
O168 Zn160 1.906 1_455 S
O168 C176 1.304 . S
O169 Zn157 1.924 . S
O169 C177 1.311 . S
O170 Zn161 1.977 1_565 S
O170 C176 1.272 . S
O171 Zn161 1.910 1_655 S
O171 C177 1.231 . S
C172 O156 1.225 . S
C172 O178 1.298 . S
C173 O162 1.226 . S
C173 O163 1.307 . S
C174 O166 1.303 . S
C174 O167 1.247 . S
C175 O164 1.253 . S
C175 O165 1.283 1_655 S
C176 O168 1.304 . S
C176 O170 1.272 . S
C177 O169 1.311 . S
C177 O171 1.231 . S
O178 Zn160 1.953 . S
O178 C172 1.298 . S
O179 Zn180 1.953 . S
O179 C195 1.225 . S
Zn180 O179 1.953 . S
Zn180 O181 1.949 . S
Zn180 O187 1.919 1_554 S
Zn180 O192 1.924 . S
O181 Zn180 1.949 . S
O181 Zn182 1.923 1_554 S
O181 Zn183 1.950 . S
O181 Zn184 1.945 . S
Zn182 O181 1.923 1_556 S
Zn182 O185 1.933 . S
Zn182 O188 1.941 . S
Zn182 O189 1.965 . S
Zn183 O181 1.950 . S
Zn183 O190 1.938 1_554 S
Zn183 O191 1.906 . S
Zn183 O201 1.953 . S
Zn184 O181 1.945 . S
Zn184 O186 1.932 . S
Zn184 O193 1.977 . S
Zn184 O194 1.910 . S
O185 Zn182 1.933 . S
O185 C196 1.226 1_556 S
O186 Zn184 1.932 . S
O186 C196 1.307 . S
O187 Zn180 1.919 1_556 S
O187 C198 1.253 . S
O188 Zn182 1.941 . S
O188 C198 1.283 . S
O189 Zn182 1.965 . S
O189 C197 1.303 . S
O190 Zn183 1.938 1_556 S
O190 C197 1.247 . S
O191 Zn183 1.906 . S
O191 C199 1.304 . S
O192 Zn180 1.924 . S
O192 C200 1.311 . S
O193 Zn184 1.977 . S
O193 C199 1.272 . S
O194 Zn184 1.910 . S
O194 C200 1.231 . S
C195 O179 1.225 . S
C195 O201 1.298 . S
C196 O185 1.226 1_554 S
C196 O186 1.307 . S
C197 O189 1.303 . S
C197 O190 1.247 . S
C198 O187 1.253 . S
C198 O188 1.283 . S
C199 O191 1.304 . S
C199 O193 1.272 . S
C200 O192 1.311 . S
C200 O194 1.231 . S
O201 Zn183 1.953 . S
O201 C195 1.298 . S
C202 C203 1.387 . S
C202 H206 0.950 . S
C202 C211 1.390 . S
C203 C202 1.387 . S
C203 C205 1.387 . S
H204 C211 0.950 . S
C205 C203 1.387 . S
C205 C207 1.390 . S
C205 H209 0.950 . S
H206 C202 0.950 . S
C207 C205 1.390 . S
C207 C208 1.387 . S
C207 H210 0.950 . S
C208 C207 1.387 . S
C208 C211 1.387 . S
H209 C205 0.950 . S
H210 C207 0.950 . S
C211 C202 1.390 . S
C211 H204 0.950 . S
C211 C208 1.387 . S
C212 C213 1.387 . S
C212 H216 0.950 . S
C212 C221 1.390 . S
C213 C212 1.387 . S
C213 C215 1.387 1_554 S
H214 C221 0.950 . S
C215 C213 1.387 1_556 S
C215 C217 1.390 . S
C215 H219 0.950 . S
H216 C212 0.950 . S
C217 C215 1.390 . S
C217 C218 1.387 1_556 S
C217 H220 0.950 . S
C218 C217 1.387 1_554 S
C218 C221 1.387 . S
H219 C215 0.950 . S
H220 C217 0.950 . S
C221 C212 1.390 . S
C221 H214 0.950 . S
C221 C218 1.387 . S
C222 C223 1.387 . S
C222 H226 0.950 . S
C222 C231 1.390 . S
C223 C222 1.387 . S
C223 C225 1.387 . S
H224 C231 0.950 . S
C225 C223 1.387 . S
C225 C227 1.390 . S
C225 H229 0.950 . S
H226 C222 0.950 . S
C227 C225 1.390 . S
C227 C228 1.387 . S
C227 H230 0.950 . S
C228 C227 1.387 . S
C228 C231 1.387 . S
H229 C225 0.950 . S
H230 C227 0.950 . S
C231 C222 1.390 . S
C231 H224 0.950 . S
C231 C228 1.387 . S
C232 C233 1.387 1_556 S
C232 H236 0.950 . S
C232 C241 1.390 . S
C233 C232 1.387 1_554 S
C233 C235 1.387 . S
H234 C241 0.950 . S
C235 C233 1.387 . S
C235 C237 1.390 . S
C235 H239 0.950 . S
H236 C232 0.950 . S
C237 C235 1.390 . S
C237 C238 1.387 . S
C237 H240 0.950 . S
C238 C237 1.387 . S
C238 C241 1.387 1_554 S
H239 C235 0.950 . S
H240 C237 0.950 . S
C241 C232 1.390 . S
C241 H234 0.950 . S
C241 C238 1.387 1_556 S
C242 C243 1.387 . S
C242 H246 0.950 . S
C242 C251 1.390 . S
C243 C242 1.387 . S
C243 C245 1.387 . S
H244 C251 0.950 . S
C245 C243 1.387 . S
C245 C247 1.390 . S
C245 H249 0.950 1_455 S
H246 C242 0.950 . S
C247 C245 1.390 . S
C247 C248 1.387 . S
C247 H250 0.950 . S
C248 C247 1.387 . S
C248 C251 1.387 . S
H249 C245 0.950 1_655 S
H250 C247 0.950 . S
C251 C242 1.390 . S
C251 H244 0.950 . S
C251 C248 1.387 . S
C252 C253 1.387 . S
C252 H256 0.950 . S
C252 C261 1.390 . S
C253 C252 1.387 . S
C253 C255 1.387 . S
H254 C261 0.950 . S
C255 C253 1.387 . S
C255 C257 1.390 . S
C255 H259 0.950 . S
H256 C252 0.950 . S
C257 C255 1.390 . S
C257 C258 1.387 . S
C257 H260 0.950 . S
C258 C257 1.387 . S
C258 C261 1.387 . S
H259 C255 0.950 . S
H260 C257 0.950 . S
C261 C252 1.390 . S
C261 H254 0.950 . S
C261 C258 1.387 . S
C262 C263 1.387 . S
C262 H266 0.950 . S
C262 C271 1.390 . S
C263 C262 1.387 . S
C263 C265 1.387 . S
H264 C271 0.950 . S
C265 C263 1.387 . S
C265 C267 1.390 . S
C265 H269 0.950 1_655 S
H266 C262 0.950 . S
C267 C265 1.390 . S
C267 C268 1.387 . S
C267 H270 0.950 1_655 S
C268 C267 1.387 . S
C268 C271 1.387 . S
H269 C265 0.950 1_455 S
H270 C267 0.950 1_455 S
C271 C262 1.390 . S
C271 H264 0.950 . S
C271 C268 1.387 . S
C272 C273 1.387 . S
C272 H276 0.950 . S
C272 C281 1.390 . S
C273 C272 1.387 . S
C273 C275 1.387 . S
H274 C281 0.950 . S
C275 C273 1.387 . S
C275 C277 1.390 . S
C275 H279 0.950 . S
H276 C272 0.950 . S
C277 C275 1.390 . S
C277 C278 1.387 . S
C277 H280 0.950 . S
C278 C277 1.387 . S
C278 C281 1.387 . S
H279 C275 0.950 . S
H280 C277 0.950 . S
C281 C272 1.390 . S
C281 H274 0.950 . S
C281 C278 1.387 . S
C282 C283 1.387 . S
C282 H286 0.950 . S
C282 C291 1.390 . S
C283 C282 1.387 . S
C283 C285 1.387 . S
H284 C291 0.950 . S
C285 C283 1.387 . S
C285 C287 1.390 . S
C285 H289 0.950 . S
H286 C282 0.950 . S
C287 C285 1.390 . S
C287 C288 1.387 . S
C287 H290 0.950 . S
C288 C287 1.387 . S
C288 C291 1.387 . S
H289 C285 0.950 . S
H290 C287 0.950 . S
C291 C282 1.390 . S
C291 H284 0.950 . S
C291 C288 1.387 . S
C292 C293 1.387 . S
C292 H296 0.950 . S
C292 C301 1.390 . S
C293 C292 1.387 . S
C293 C295 1.387 . S
H294 C301 0.950 . S
C295 C293 1.387 . S
C295 C297 1.390 . S
C295 H299 0.950 . S
H296 C292 0.950 . S
C297 C295 1.390 . S
C297 C298 1.387 . S
C297 H300 0.950 . S
C298 C297 1.387 . S
C298 C301 1.387 . S
H299 C295 0.950 . S
H300 C297 0.950 . S
C301 C292 1.390 . S
C301 H294 0.950 . S
C301 C298 1.387 . S
C302 C303 1.387 . S
C302 H306 0.950 . S
C302 C311 1.390 . S
C303 C302 1.387 . S
C303 C305 1.387 . S
H304 C311 0.950 . S
C305 C303 1.387 . S
C305 C307 1.390 . S
C305 H309 0.950 . S
H306 C302 0.950 . S
C307 C305 1.390 . S
C307 C308 1.387 . S
C307 H310 0.950 . S
C308 C307 1.387 . S
C308 C311 1.387 . S
H309 C305 0.950 . S
H310 C307 0.950 . S
C311 C302 1.390 . S
C311 H304 0.950 . S
C311 C308 1.387 . S
C312 C313 1.387 . S
C312 H316 0.950 . S
C312 C321 1.390 . S
C313 C312 1.387 . S
C313 C315 1.387 . S
H314 C321 0.950 . S
C315 C313 1.387 . S
C315 C317 1.395 . S
C315 H319 0.950 1_455 S
H316 C312 0.950 . S
C317 C315 1.395 . S
C317 C318 1.399 . S
C317 H320 0.933 1_455 S
C318 C317 1.399 . S
C318 C321 1.387 . S
H319 C315 0.950 1_655 S
H320 C317 0.933 1_655 S
C321 C312 1.390 . S
C321 H314 0.950 . S
C321 C318 1.387 . S
C208 C173 1.698 . S
C203 C138 1.650 . S
C213 C21 1.666 . S
C218 C196 1.695 . S
C223 C60 1.673 . S
C228 C172 1.704 . S
C233 C99 1.655 . S
C238 C195 1.705 . S
C248 C176 1.705 . S
C243 C16 1.726 . S
C258 C198 1.686 . S
C253 C40 1.659 . S
C263 C79 1.737 . S
C268 C177 1.687 . S
C273 C133 1.639 . S
C278 C197 1.635 . S
C288 C200 1.684 . S
C283 C55 1.736 . S
C298 C175 1.685 . S
C293 C94 1.657 . S
C308 C199 1.706 . S
C303 C118 1.724 . S
C313 C1 1.640 . S
C318 C174 1.634 . S
