# Generated by pormake.
# Topology sit, (3,6)-cn, num edge types: 1
# Building blocks:
#     Node 0, Type 0, BuildingBlock: MIDCAF_clean_linker_0, # of connection points: 3
#     Node 1, Type 0, BuildingBlock: MIDCAF_clean_linker_0, # of connection points: 3
#     Node 2, Type 0, BuildingBlock: MIDCAF_clean_linker_0, # of connection points: 3
#     Node 3, Type 0, BuildingBlock: MIDCAF_clean_linker_0, # of connection points: 3
#     Node 4, Type 1, BuildingBlock: MIDCAF_clean_sbu_0, # of connection points: 6
#     Node 5, Type 1, BuildingBlock: MIDCAF_clean_sbu_0, # of connection points: 6
#     Edge 6, Type (0, 1), BuildingBlock: OJICUG_clean_linker_0, # of connection points: 2
#     Edge 7, Type (0, 1), BuildingBlock: OJICUG_clean_linker_0, # of connection points: 2
#     Edge 8, Type (0, 1), BuildingBlock: OJICUG_clean_linker_0, # of connection points: 2
#     Edge 9, Type (0, 1), BuildingBlock: OJICUG_clean_linker_0, # of connection points: 2
#     Edge 10, Type (0, 1), BuildingBlock: OJICUG_clean_linker_0, # of connection points: 2
#     Edge 11, Type (0, 1), BuildingBlock: OJICUG_clean_linker_0, # of connection points: 2
#     Edge 12, Type (0, 1), BuildingBlock: OJICUG_clean_linker_0, # of connection points: 2
#     Edge 13, Type (0, 1), BuildingBlock: OJICUG_clean_linker_0, # of connection points: 2
#     Edge 14, Type (0, 1), BuildingBlock: OJICUG_clean_linker_0, # of connection points: 2
#     Edge 15, Type (0, 1), BuildingBlock: OJICUG_clean_linker_0, # of connection points: 2
#     Edge 16, Type (0, 1), BuildingBlock: OJICUG_clean_linker_0, # of connection points: 2
#     Edge 17, Type (0, 1), BuildingBlock: OJICUG_clean_linker_0, # of connection points: 2
# Relax obj value: 0.112
# Max RMSD: 0.194
# Mean RMSD: 0.108
data_MOF--net-sit--node1-MIDCAF_clean_sbu_0--node2-MIDCAF_clean_linker_0--edge1-OJICUG_clean_linker_0
_symmetry_space_group_name_H-M    P1
_symmetry_Int_Tables_number       1
_symmetry_cell_setting            triclinic
loop_
_symmetry_equiv_pos_as_xyz
'x, y, z'
_cell_length_a     23.441855
_cell_length_b     26.516379
_cell_length_c     35.253369
_cell_angle_alpha  90.043878
_cell_angle_beta   89.80376
_cell_angle_gamma 82.617825
loop_
_atom_site_label
_atom_site_type_symbol
_atom_site_fract_x
_atom_site_fract_y
_atom_site_fract_z
_atom_type_partial_charge
C0 C 0.9004 0.52715 0.93468 0.0
C1 C 0.84599 0.51608 0.94611 0.0
C2 C 0.84153 0.48472 -0.02224 0.0
C3 C 0.89098 0.46135 -0.00431 0.0
H4 H 0.94585 0.31615 0.03626 0.0
H5 H 0.9311 0.24934 0.08108 0.0
H6 H 0.10767 0.24253 0.11753 0.0
H7 H 0.12301 0.30857 0.07184 0.0
H8 H 0.19977 0.35323 -0.00905 0.0
H9 H 0.2886 0.37025 0.95988 0.0
H10 H 0.21454 0.52574 0.94081 0.0
H11 H 0.12577 0.50882 -0.02911 0.0
H12 H -0.00871 0.51188 0.94222 0.0
H13 H 0.90479 0.55151 0.91046 0.0
H14 H 0.80002 0.47534 -0.01303 0.0
H15 H 0.88625 0.43519 0.01873 0.0
N16 N -0.00641 0.39543 0.01741 0.0
N17 N 0.09412 0.37551 0.01753 0.0
N18 N 0.05075 0.44881 -0.01344 0.0
C19 C 0.04134 0.36409 0.02797 0.0
C20 C 0.09897 0.41803 -0.00318 0.0
C21 C -0.00205 0.43796 -0.00321 0.0
C22 C 0.03526 0.31853 0.05114 0.0
C23 C -0.01814 0.2999 0.05339 0.0
C24 C -0.0266 0.26147 0.079 0.0
C25 C 0.01792 0.24117 0.10328 0.0
C26 C 0.07257 0.25708 0.09905 0.0
C27 C 0.08123 0.2953 0.07309 0.0
C28 C 0.15545 0.42944 -0.01708 0.0
C29 C 0.20279 0.39123 -0.01943 0.0
C30 C 0.25371 0.401 0.96282 0.0
C31 C 0.2582 0.44922 0.94735 0.0
C32 C 0.21187 0.48797 0.95159 0.0
C33 C 0.16107 0.47823 -0.03097 0.0
C34 C 0.94574 0.46934 -0.01753 0.0
C35 C 0.94985 0.50433 0.95289 0.0
C36 C 0.83215 0.66866 0.94705 0.0
C37 C 0.78585 0.70754 0.94343 0.0
C38 C 0.79009 0.75521 0.95999 0.0
C39 C 0.84043 0.76419 -0.0214 0.0
H40 H 0.91782 0.87123 0.04324 0.0
H41 H 0.92506 0.94365 0.08493 0.0
H42 H 0.09679 0.87802 0.11653 0.0
H43 H 0.09041 0.80747 0.07408 0.0
H44 H 0.15467 0.71795 0.02368 0.0
H45 H 0.24205 0.6799 -0.00836 0.0
H46 H 0.14042 0.60256 0.91422 0.0
H47 H 0.05291 0.63996 0.94621 0.0
H48 H 0.91752 0.64689 0.96698 0.0
H49 H 0.82979 0.63126 0.9354 0.0
H50 H 0.75529 0.78609 0.9575 0.0
H51 H 0.84306 0.80171 -0.0099 0.0
N52 N 0.94682 0.77801 0.01847 0.0
N53 N 0.04685 0.75587 0.0226 0.0
N54 N -0.00838 0.7047 -0.012 0.0
C55 C -0.00128 0.7879 0.0317 0.0
C56 C 0.04366 0.71421 0.0007 0.0
C57 C 0.94305 0.73609 -0.00318 0.0
C58 C 0.00333 0.83325 0.05554 0.0
C59 C -0.0427 0.87264 0.05885 0.0
C60 C -0.03853 0.9142 0.08276 0.0
C61 C 0.01153 0.91701 0.10419 0.0
C62 C 0.058 0.87815 0.09993 0.0
C63 C 0.05408 0.83708 0.0758 0.0
C64 C 0.09666 0.6831 -0.01306 0.0
C65 C 0.1509 0.69187 0.00043 0.0
C66 C 0.20103 0.66975 -0.0177 0.0
C67 C 0.19773 0.63888 0.95022 0.0
C68 C 0.14393 0.62669 0.9387 0.0
C69 C 0.09386 0.64824 0.95707 0.0
C70 C 0.88753 0.72576 -0.01922 0.0
C71 C 0.88241 0.67765 0.96537 0.0
C72 C 0.3957 1.02741 0.43294 0.0
C73 C 0.34141 1.01642 0.44468 0.0
C74 C 0.33724 0.98584 0.47682 0.0
C75 C 0.38689 0.963 0.49487 0.0
H76 H 0.44586 0.85169 0.57227 0.0
H77 H 0.43837 0.78414 0.61721 0.0
H78 H 0.60795 0.71289 0.58482 0.0
H79 H 0.61641 0.78237 0.54063 0.0
H80 H 0.69406 0.84937 0.48511 0.0
H81 H 0.7828 0.86429 0.45272 0.0
H82 H 0.7097 1.01922 0.43049 0.0
H83 H 0.62144 1.00446 0.46188 0.0
H84 H 0.4866 1.01261 0.44026 0.0
H85 H 0.39991 1.05131 0.40843 0.0
H86 H 0.29583 0.97658 0.48633 0.0
H87 H 0.38237 0.93728 0.51823 0.0
N88 N 0.48991 0.89872 0.51815 0.0
N89 N 0.58985 0.87522 0.51429 0.0
N90 N 0.54636 0.94752 0.48225 0.0
C91 C 0.53755 0.8666 0.52788 0.0
C92 C 0.59446 0.91602 0.49167 0.0
C93 C 0.49397 0.93923 0.49527 0.0
C94 C 0.53203 0.82286 0.55313 0.0
C95 C 0.48145 0.82144 0.57436 0.0
C96 C 0.47689 0.78211 0.59995 0.0
C97 C 0.52247 0.74263 0.60472 0.0
C98 C 0.57226 0.74295 0.58232 0.0
C99 C 0.57712 0.7828 0.55696 0.0
C100 C 0.65045 0.92552 0.47568 0.0
C101 C 0.6973 0.88676 0.4736 0.0
C102 C 0.74814 0.89534 0.45511 0.0
C103 C 0.75304 0.9429 0.43858 0.0
C104 C 0.70691 0.98197 0.44213 0.0
C105 C 0.65629 0.97344 0.46031 0.0
C106 C 0.44154 0.97071 0.48124 0.0
C107 C 0.4453 1.00512 0.45122 0.0
C108 C 0.32881 0.16607 0.44615 0.0
C109 C 0.28271 0.20532 0.44381 0.0
C110 C 0.28742 0.25193 0.46187 0.0
C111 C 0.33796 0.25949 0.48086 0.0
H112 H 0.41788 0.36345 0.54693 0.0
H113 H 0.42687 0.43496 0.58918 0.0
H114 H 0.59704 0.36547 0.62093 0.0
H115 H 0.58897 0.29576 0.57798 0.0
H116 H 0.65158 0.20578 0.52743 0.0
H117 H 0.73866 0.16751 0.49517 0.0
H118 H 0.63578 0.09549 0.41521 0.0
H119 H 0.54869 0.13292 0.44748 0.0
H120 H 0.41403 0.14253 0.46557 0.0
H121 H 0.32611 0.12947 0.43326 0.0
H122 H 0.25276 0.28307 0.4604 0.0
H123 H 0.34092 0.29623 0.49362 0.0
N124 N 0.4449 0.27059 0.521 0.0
N125 N 0.54451 0.2462 0.52579 0.0
N126 N 0.48838 0.19728 0.48993 0.0
C127 C 0.49697 0.27897 0.53488 0.0
C128 C 0.54056 0.20527 0.50329 0.0
C129 C 0.44038 0.22941 0.49871 0.0
C130 C 0.50251 0.32361 0.55927 0.0
C131 C 0.45738 0.36379 0.56271 0.0
C132 C 0.46255 0.40482 0.58694 0.0
C133 C 0.51273 0.4063 0.60852 0.0
C134 C 0.55824 0.36659 0.60421 0.0
C135 C 0.55333 0.32603 0.57979 0.0
C136 C 0.59308 0.17354 0.48947 0.0
C137 C 0.64748 0.18071 0.50359 0.0
C138 C 0.69743 0.15844 0.48533 0.0
C139 C 0.69376 0.12907 0.45249 0.0
C140 C 0.63967 0.11835 0.44033 0.0
C141 C 0.5898 0.13996 0.45886 0.0
C142 C 0.38475 0.22065 0.48195 0.0
C143 C 0.37919 0.1736 0.46489 0.0
Zn144 Zn -0.02706 0.18056 0.32733 0.0
Zn145 Zn 0.05841 0.9787 0.31829 0.0
Zn146 Zn 0.01566 0.08041 0.31999 0.0
C147 C 0.03417 1.0151 0.24333 0.0
C148 C -0.04585 0.98938 0.35793 0.0
O149 O 0.07892 0.12062 0.3492 0.0
O150 O 0.03816 0.20002 0.35803 0.0
C151 C -0.01181 0.15585 0.24925 0.0
O152 O 0.01945 1.05805 0.25992 0.0
O153 O 0.05196 0.97571 0.26214 0.0
O154 O -0.00394 0.95584 0.35062 0.0
O155 O -0.04494 1.036 0.34791 0.0
O156 O -0.02859 0.19187 0.27175 0.0
O157 O 0.00614 0.11115 0.262 0.0
O158 O 0.93387 0.08805 0.35199 0.0
O159 O 0.90056 0.17019 0.35289 0.0
C160 C 0.89522 0.12488 0.3615 0.0
O161 O 0.09966 1.06809 0.34888 0.0
O162 O 0.13351 0.98667 0.34122 0.0
C163 C 0.08056 0.16593 0.36204 0.0
C164 C 0.13927 1.03029 0.35377 0.0
Zn165 Zn 0.48012 0.68049 0.8223 0.0
Zn166 Zn 0.56162 0.4765 0.82284 0.0
Zn167 Zn 0.52084 0.57833 0.82096 0.0
C168 C 0.53778 0.50687 0.74693 0.0
C169 C 0.45737 0.4922 0.86296 0.0
O170 O 0.58403 0.61938 0.84908 0.0
O171 O 0.54405 0.69957 0.85474 0.0
C172 C 0.50127 0.64807 0.74632 0.0
O173 O 0.52474 0.55109 0.76196 0.0
O174 O 0.55435 0.46847 0.7671 0.0
O175 O 0.49902 0.45789 0.8569 0.0
O176 O 0.45858 0.53784 0.85078 0.0
O177 O 0.48536 0.68698 0.76624 0.0
O178 O 0.51493 0.60425 0.76174 0.0
O179 O 0.43846 0.59054 0.852 0.0
O180 O 0.40523 0.67231 0.84595 0.0
C181 C 0.39944 0.62849 0.85808 0.0
O182 O 0.60425 0.56677 0.85042 0.0
O183 O 0.63743 0.48495 0.84458 0.0
C184 C 0.58574 0.66529 0.86056 0.0
C185 C 0.64358 0.529 0.85604 0.0
C186 C -0.04452 0.22624 0.15835 0.0
C187 C 0.00501 0.21045 0.13669 0.0
H188 H 0.91126 0.22049 0.21088 0.0
C189 C 0.04462 0.16998 0.15008 0.0
H190 H 0.92436 0.25758 0.14921 0.0
C191 C 0.03672 0.14836 0.1857 0.0
C192 C -0.01035 0.16758 0.20849 0.0
H193 H 0.08291 0.15672 0.13383 0.0
H194 H 0.0695 0.11947 0.19652 0.0
C195 C 0.94805 0.20519 0.19387 0.0
C196 C 0.0662 0.97346 0.14392 0.0
C197 C 0.0136 0.95653 0.13409 0.0
H198 H 0.11397 1.00645 0.18716 0.0
C199 C -0.035 0.9715 0.15698 0.0
H200 H 0.10413 0.96403 0.12643 0.0
C201 C -0.02953 0.99749 0.191 0.0
C202 C 0.0245 1.00855 0.20276 0.0
H203 H 0.92384 0.95912 0.15062 0.0
H204 H 0.9337 1.00419 0.20989 0.0
C205 C 0.07179 0.99852 0.17832 0.0
C206 C 0.46694 0.68987 0.64714 0.0
C207 C 0.51992 0.70505 0.6359 0.0
H208 H 0.41947 0.65909 0.69181 0.0
C209 C 0.56885 0.69004 0.65824 0.0
H210 H 0.42868 0.69942 0.63016 0.0
C211 C 0.56365 0.66533 0.69282 0.0
C212 C 0.50957 0.65557 0.70569 0.0
H213 H 0.61028 0.7012 0.65083 0.0
H214 H 0.60093 0.65819 0.71107 0.0
C215 C 0.46165 0.66605 0.68209 0.0
C216 C 0.56906 0.4615 0.64811 0.0
C217 C 0.5159 0.44553 0.63846 0.0
H218 H 0.6177 0.49446 0.69091 0.0
C219 C 0.4676 0.46142 0.66137 0.0
H220 H 0.60682 0.45125 0.6306 0.0
C221 C 0.47372 0.48773 0.69516 0.0
C222 C 0.5281 0.49825 0.70662 0.0
H223 H 0.42606 0.44973 0.65514 0.0
H224 H 0.43703 0.49546 0.71402 0.0
C225 C 0.57527 0.48696 0.68226 0.0
C226 C 0.30344 0.48815 0.89202 0.0
C227 C 0.30975 0.45888 0.92538 0.0
H228 H 0.34555 0.52099 0.84594 0.0
C229 C 0.36532 0.43906 0.93726 0.0
H230 H 0.26122 0.50299 0.88156 0.0
C231 C 0.41355 0.44919 0.91658 0.0
C232 C 0.40691 0.47972 0.88401 0.0
H233 H 0.37161 0.41657 0.96288 0.0
H234 H 0.45604 0.4342 0.92651 0.0
C235 C 0.35157 0.49842 0.87156 0.0
C236 C 0.6787 0.7182 0.93398 0.0
C237 C 0.73417 0.69842 0.92156 0.0
H238 H 0.58788 0.72318 0.92407 0.0
C239 C 0.74011 0.66942 0.888 0.0
H240 H 0.67262 0.7404 0.95981 0.0
C241 C 0.69172 0.65929 0.86792 0.0
C242 C 0.63653 0.67795 0.88093 0.0
H243 H 0.7822 0.65457 0.87713 0.0
H244 H 0.69742 0.63676 0.84221 0.0
C245 C 0.63026 0.70829 0.91366 0.0
C246 C 0.74181 0.54941 0.93709 0.0
C247 C 0.79539 0.52965 0.92161 0.0
H248 H 0.65085 0.56597 0.92754 0.0
C249 C 0.79906 0.51594 0.88311 0.0
H250 H 0.7381 0.56032 0.96669 0.0
C251 C 0.74951 0.51832 0.86117 0.0
C252 C 0.69577 0.53562 0.87711 0.0
H253 H 0.83972 0.50003 0.87063 0.0
H254 H 0.75284 0.50475 0.83214 0.0
C255 C 0.69221 0.55273 0.91481 0.0
C256 C 0.24439 0.64082 0.887 0.0
C257 C 0.2486 0.62692 0.92543 0.0
H258 H 0.28976 0.65247 0.83559 0.0
C259 C 0.30259 0.60799 0.94044 0.0
H260 H 0.2034 0.65615 0.87487 0.0
C261 C 0.35193 0.60526 0.91769 0.0
C262 C 0.34769 0.6222 0.87999 0.0
H263 H 0.30675 0.59695 -0.03003 0.0
H264 H 0.39354 0.59237 0.92999 0.0
C265 C 0.29364 0.63904 0.8646 0.0
C266 C 0.8605 0.93205 0.42918 0.0
C267 C 0.80516 0.95209 0.41691 0.0
H268 H 0.95154 0.92816 0.41977 0.0
C269 C 0.79972 0.98226 0.38397 0.0
H270 H 0.86623 0.90894 0.45452 0.0
C271 C 0.84834 0.99374 0.36464 0.0
C272 C 0.90336 0.975 0.37759 0.0
H273 H 0.75782 0.99726 0.37308 0.0
H274 H 0.84293 1.01746 0.33956 0.0
C275 C 0.90926 0.94316 0.40947 0.0
C276 C 0.23566 0.17004 0.38769 0.0
C277 C 0.23055 0.19745 0.422 0.0
H278 H 0.19182 0.13901 0.34169 0.0
C279 C 0.1754 0.21636 0.43546 0.0
H280 H 0.27749 0.1559 0.37605 0.0
C281 C 0.12646 0.20701 0.41547 0.0
C282 C 0.13191 0.17809 0.38202 0.0
H283 H 0.16996 0.23729 0.46189 0.0
H284 H 0.08435 0.22113 0.42671 0.0
C285 C 0.18677 0.16043 0.36793 0.0
C286 C 0.29453 1.01611 0.38161 0.0
C287 C 0.29066 1.02952 0.42017 0.0
H288 H 0.24872 1.00571 0.33034 0.0
C289 C 0.23697 1.04916 0.43555 0.0
H290 H 0.33526 1.0003 0.36916 0.0
C291 C 0.18752 1.05285 0.41308 0.0
C292 C 0.19133 1.03628 0.37524 0.0
H293 H 0.23306 1.05991 0.46519 0.0
H294 H 0.1461 1.06609 0.42571 0.0
C295 C 0.24516 1.01892 0.35946 0.0
C296 C 0.79862 0.09818 0.4423 0.0
C297 C 0.74462 0.11771 0.42757 0.0
H298 H 0.8897 0.08377 0.43192 0.0
C299 C 0.7404 0.13294 0.38943 0.0
H300 H 0.80277 0.086 0.4716 0.0
C301 C 0.78968 0.13238 0.36724 0.0
C302 C 0.84377 0.11549 0.38252 0.0
H303 H 0.69943 0.14865 0.37747 0.0
H304 H 0.78583 0.14722 0.3386 0.0
C305 C 0.84803 0.09672 0.41972 0.0
loop_
_geom_bond_atom_site_label_1
_geom_bond_atom_site_label_2
_geom_bond_distance
_geom_bond_site_symmetry_2
_ccdc_geom_bond_type
C0 C1 1.384 . S
C0 H13 0.947 . S
C0 C35 1.382 1_655 S
C1 C0 1.384 . S
C1 C2 1.378 . S
C2 C1 1.378 . S
C2 C3 1.378 1_556 S
C2 H14 0.952 1_556 S
C3 C2 1.378 1_554 S
C3 H15 0.950 . S
C3 C34 1.383 1_654 S
H4 C23 0.947 . S
H5 C24 0.946 . S
H6 C26 0.953 . S
H7 C27 0.945 . S
H8 C29 0.952 . S
H9 C30 0.948 . S
H10 C32 0.950 . S
H11 C33 0.948 . S
H12 C35 0.951 . S
H13 C0 0.947 . S
H14 C2 0.952 1_554 S
H15 C3 0.950 . S
N16 C19 1.382 . S
N16 C21 1.363 . S
N17 C19 1.371 . S
N17 C20 1.372 . S
N18 C20 1.361 1_556 S
N18 C21 1.377 1_556 S
C19 N16 1.382 . S
C19 N17 1.371 . S
C19 C22 1.480 . S
C20 N17 1.372 . S
C20 N18 1.361 1_554 S
C20 C28 1.457 1_554 S
C21 N16 1.363 . S
C21 N18 1.377 1_554 S
C21 C34 1.479 1_554 S
C22 C19 1.480 . S
C22 C23 1.383 . S
C22 C27 1.385 . S
C23 H4 0.947 . S
C23 C22 1.383 . S
C23 C24 1.388 . S
C24 H5 0.946 . S
C24 C23 1.388 . S
C24 C25 1.384 . S
C25 C24 1.384 . S
C25 C26 1.377 . S
C26 H6 0.953 . S
C26 C25 1.377 . S
C26 C27 1.369 . S
C27 H7 0.945 . S
C27 C22 1.385 . S
C27 C26 1.369 . S
C28 C20 1.457 1_556 S
C28 C29 1.372 1_556 S
C28 C33 1.364 . S
C29 H8 0.952 . S
C29 C28 1.372 1_554 S
C29 C30 1.389 1_554 S
C30 H9 0.948 . S
C30 C29 1.389 1_556 S
C30 C31 1.387 . S
C31 C30 1.387 . S
C31 C32 1.372 . S
C32 H10 0.950 . S
C32 C31 1.372 . S
C32 C33 1.379 . S
C33 H11 0.948 . S
C33 C28 1.364 . S
C33 C32 1.379 . S
C34 C3 1.383 1_456 S
C34 C21 1.479 1_556 S
C34 C35 1.398 . S
C35 C0 1.382 1_455 S
C35 H12 0.951 . S
C35 C34 1.398 . S
C36 C37 1.384 . S
C36 H49 0.947 . S
C36 C71 1.382 . S
C37 C36 1.384 . S
C37 C38 1.378 . S
C38 C37 1.378 . S
C38 C39 1.378 1_556 S
C38 H50 0.952 1_556 S
C39 C38 1.378 1_554 S
C39 H51 0.950 . S
C39 C70 1.383 1_554 S
H40 C59 0.947 . S
H41 C60 0.946 . S
H42 C62 0.953 . S
H43 C63 0.945 . S
H44 C65 0.952 . S
H45 C66 0.949 1_554 S
H46 C68 0.950 . S
H47 C69 0.948 . S
H48 C71 0.951 . S
H49 C36 0.947 . S
H50 C38 0.952 1_554 S
H51 C39 0.950 . S
N52 C55 1.382 1_655 S
N52 C57 1.363 . S
N53 C55 1.371 . S
N53 C56 1.372 . S
N54 C56 1.361 1_556 S
N54 C57 1.377 1_456 S
C55 N52 1.382 1_455 S
C55 N53 1.371 . S
C55 C58 1.480 . S
C56 N53 1.372 . S
C56 N54 1.361 1_554 S
C56 C64 1.457 1_554 S
C57 N52 1.363 . S
C57 N54 1.377 1_654 S
C57 C70 1.479 1_554 S
C58 C55 1.480 . S
C58 C59 1.383 1_455 S
C58 C63 1.385 . S
C59 H40 0.947 . S
C59 C58 1.383 1_655 S
C59 C60 1.388 . S
C60 H41 0.946 . S
C60 C59 1.388 . S
C60 C61 1.380 1_655 S
C61 C60 1.380 1_455 S
C61 C62 1.381 . S
C62 H42 0.953 . S
C62 C61 1.381 . S
C62 C63 1.369 . S
C63 H43 0.945 . S
C63 C58 1.385 . S
C63 C62 1.369 . S
C64 C56 1.457 1_556 S
C64 C65 1.372 1_556 S
C64 C69 1.364 . S
C65 H44 0.952 . S
C65 C64 1.372 1_554 S
C65 C66 1.389 1_554 S
C66 H45 0.949 1_556 S
C66 C65 1.389 1_556 S
C66 C67 1.387 . S
C67 C66 1.387 . S
C67 C68 1.372 . S
C68 H46 0.950 . S
C68 C67 1.372 . S
C68 C69 1.379 . S
C69 H47 0.948 . S
C69 C64 1.364 . S
C69 C68 1.379 . S
C70 C39 1.383 1_556 S
C70 C57 1.479 1_556 S
C70 C71 1.398 . S
C71 C36 1.382 . S
C71 H48 0.951 . S
C71 C70 1.398 . S
C72 C73 1.384 . S
C72 H85 0.947 . S
C72 C107 1.382 . S
C73 C72 1.384 . S
C73 C74 1.378 . S
C74 C73 1.378 . S
C74 C75 1.378 . S
C74 H86 0.952 . S
C75 C74 1.378 . S
C75 H87 0.950 . S
C75 C106 1.383 . S
H76 C95 0.947 . S
H77 C96 0.946 . S
H78 C98 0.953 . S
H79 C99 0.945 . S
H80 C101 0.952 . S
H81 C102 0.949 . S
H82 C104 0.950 . S
H83 C105 0.948 . S
H84 C107 0.951 . S
H85 C72 0.947 . S
H86 C74 0.952 . S
H87 C75 0.950 . S
N88 C91 1.382 . S
N88 C93 1.363 . S
N89 C91 1.371 . S
N89 C92 1.372 . S
N90 C92 1.361 . S
N90 C93 1.377 . S
C91 N88 1.382 . S
C91 N89 1.371 . S
C91 C94 1.480 . S
C92 N89 1.372 . S
C92 N90 1.361 . S
C92 C100 1.457 . S
C93 N88 1.363 . S
C93 N90 1.377 . S
C93 C106 1.479 . S
C94 C91 1.480 . S
C94 C95 1.383 . S
C94 C99 1.385 . S
C95 H76 0.947 . S
C95 C94 1.383 . S
C95 C96 1.388 . S
C96 H77 0.946 . S
C96 C95 1.388 . S
C96 C97 1.384 . S
C97 C96 1.384 . S
C97 C98 1.377 . S
C98 H78 0.953 . S
C98 C97 1.377 . S
C98 C99 1.369 . S
C99 H79 0.945 . S
C99 C94 1.385 . S
C99 C98 1.369 . S
C100 C92 1.457 . S
C100 C101 1.372 . S
C100 C105 1.364 . S
C101 H80 0.952 . S
C101 C100 1.372 . S
C101 C102 1.389 . S
C102 H81 0.949 . S
C102 C101 1.389 . S
C102 C103 1.387 . S
C103 C102 1.387 . S
C103 C104 1.372 . S
C104 H82 0.950 . S
C104 C103 1.372 . S
C104 C105 1.379 . S
C105 H83 0.948 . S
C105 C100 1.364 . S
C105 C104 1.379 . S
C106 C75 1.383 . S
C106 C93 1.479 . S
C106 C107 1.398 . S
C107 C72 1.382 . S
C107 H84 0.951 . S
C107 C106 1.398 . S
C108 C109 1.384 . S
C108 H121 0.947 . S
C108 C143 1.382 . S
C109 C108 1.384 . S
C109 C110 1.378 . S
C110 C109 1.378 . S
C110 C111 1.378 . S
C110 H122 0.952 . S
C111 C110 1.378 . S
C111 H123 0.950 . S
C111 C142 1.383 . S
H112 C131 0.947 . S
H113 C132 0.946 . S
H114 C134 0.953 . S
H115 C135 0.945 . S
H116 C137 0.952 . S
H117 C138 0.949 . S
H118 C140 0.950 . S
H119 C141 0.948 . S
H120 C143 0.951 . S
H121 C108 0.947 . S
H122 C110 0.952 . S
H123 C111 0.950 . S
N124 C127 1.382 . S
N124 C129 1.363 . S
N125 C127 1.371 . S
N125 C128 1.372 . S
N126 C128 1.361 . S
N126 C129 1.377 . S
C127 N124 1.382 . S
C127 N125 1.371 . S
C127 C130 1.480 . S
C128 N125 1.372 . S
C128 N126 1.361 . S
C128 C136 1.457 . S
C129 N124 1.363 . S
C129 N126 1.377 . S
C129 C142 1.479 . S
C130 C127 1.480 . S
C130 C131 1.383 . S
C130 C135 1.385 . S
C131 H112 0.947 . S
C131 C130 1.383 . S
C131 C132 1.388 . S
C132 H113 0.946 . S
C132 C131 1.388 . S
C132 C133 1.384 . S
C133 C132 1.384 . S
C133 C134 1.377 . S
C134 H114 0.953 . S
C134 C133 1.377 . S
C134 C135 1.369 . S
C135 H115 0.945 . S
C135 C130 1.385 . S
C135 C134 1.369 . S
C136 C128 1.457 . S
C136 C137 1.372 . S
C136 C141 1.364 . S
C137 H116 0.952 . S
C137 C136 1.372 . S
C137 C138 1.389 . S
C138 H117 0.949 . S
C138 C137 1.389 . S
C138 C139 1.387 . S
C139 C138 1.387 . S
C139 C140 1.372 . S
C140 H118 0.950 . S
C140 C139 1.372 . S
C140 C141 1.379 . S
C141 H119 0.948 . S
C141 C136 1.364 . S
C141 C140 1.379 . S
C142 C111 1.383 . S
C142 C129 1.479 . S
C142 C143 1.398 . S
C143 C108 1.382 . S
C143 H120 0.951 . S
C143 C142 1.398 . S
Zn144 O150 1.920 . S
Zn144 O156 1.898 . S
Zn144 O159 1.905 1_455 S
Zn145 O153 1.905 . S
Zn145 O154 1.898 . S
Zn145 O162 1.920 . S
Zn146 O149 2.080 . S
Zn146 O152 2.114 1_545 S
Zn146 O155 2.120 1_545 S
Zn146 O157 2.120 . S
Zn146 O158 2.114 1_455 S
Zn146 O161 2.080 1_545 S
C147 O152 1.166 . S
C147 O153 1.182 . S
C148 O154 1.169 . S
C148 O155 1.309 . S
O149 Zn146 2.080 . S
O149 C163 1.305 . S
O150 Zn144 1.920 . S
O150 C163 1.234 . S
C151 O156 1.167 . S
C151 O157 1.299 . S
O152 Zn146 2.114 1_565 S
O152 C147 1.166 . S
O153 Zn145 1.905 . S
O153 C147 1.182 . S
O154 Zn145 1.898 . S
O154 C148 1.169 . S
O155 Zn146 2.120 1_565 S
O155 C148 1.309 . S
O156 Zn144 1.898 . S
O156 C151 1.167 . S
O157 Zn146 2.120 . S
O157 C151 1.299 . S
O158 Zn146 2.114 1_655 S
O158 C160 1.166 . S
O159 Zn144 1.905 1_655 S
O159 C160 1.182 . S
C160 O158 1.166 . S
C160 O159 1.182 . S
O161 Zn146 2.080 1_565 S
O161 C164 1.305 . S
O162 Zn145 1.920 . S
O162 C164 1.234 . S
C163 O149 1.305 . S
C163 O150 1.234 . S
C164 O161 1.305 . S
C164 O162 1.234 . S
Zn165 O171 1.920 . S
Zn165 O177 1.898 . S
Zn165 O180 1.905 . S
Zn166 O174 1.905 . S
Zn166 O175 1.898 . S
Zn166 O183 1.920 . S
Zn167 O170 2.080 . S
Zn167 O173 2.114 . S
Zn167 O176 2.120 . S
Zn167 O178 2.120 . S
Zn167 O179 2.114 . S
Zn167 O182 2.080 . S
C168 O173 1.166 . S
C168 O174 1.182 . S
C169 O175 1.167 . S
C169 O176 1.299 . S
O170 Zn167 2.080 . S
O170 C184 1.305 . S
O171 Zn165 1.920 . S
O171 C184 1.234 . S
C172 O177 1.167 . S
C172 O178 1.299 . S
O173 Zn167 2.114 . S
O173 C168 1.166 . S
O174 Zn166 1.905 . S
O174 C168 1.182 . S
O175 Zn166 1.898 . S
O175 C169 1.167 . S
O176 Zn167 2.120 . S
O176 C169 1.299 . S
O177 Zn165 1.898 . S
O177 C172 1.167 . S
O178 Zn167 2.120 . S
O178 C172 1.299 . S
O179 Zn167 2.114 . S
O179 C181 1.166 . S
O180 Zn165 1.905 . S
O180 C181 1.182 . S
C181 O179 1.166 . S
C181 O180 1.182 . S
O182 Zn167 2.080 . S
O182 C185 1.305 . S
O183 Zn166 1.920 . S
O183 C185 1.234 . S
C184 O170 1.305 . S
C184 O171 1.234 . S
C185 O182 1.305 . S
C185 O183 1.234 . S
C186 C187 1.387 . S
C186 H190 0.950 . S
C186 C195 1.390 . S
C187 C186 1.387 . S
C187 C189 1.387 . S
H188 C195 0.950 . S
C189 C187 1.387 . S
C189 C191 1.390 . S
C189 H193 0.950 . S
H190 C186 0.950 . S
C191 C189 1.390 . S
C191 C192 1.387 . S
C191 H194 0.950 . S
C192 C191 1.387 . S
C192 C195 1.387 . S
H193 C189 0.950 . S
H194 C191 0.950 . S
C195 C186 1.390 . S
C195 H188 0.950 . S
C195 C192 1.387 . S
C196 C197 1.387 . S
C196 H200 0.950 1_455 S
C196 C205 1.390 . S
C197 C196 1.387 . S
C197 C199 1.387 . S
H198 C205 0.950 . S
C199 C197 1.387 . S
C199 C201 1.390 . S
C199 H203 0.950 . S
H200 C196 0.950 1_655 S
C201 C199 1.390 . S
C201 C202 1.387 . S
C201 H204 0.950 . S
C202 C201 1.387 . S
C202 C205 1.387 . S
H203 C199 0.950 . S
H204 C201 0.950 . S
C205 C196 1.390 . S
C205 H198 0.950 . S
C205 C202 1.387 . S
C206 C207 1.387 . S
C206 H210 0.950 . S
C206 C215 1.390 . S
C207 C206 1.387 . S
C207 C209 1.387 . S
H208 C215 0.950 . S
C209 C207 1.387 . S
C209 C211 1.390 . S
C209 H213 0.950 . S
H210 C206 0.950 . S
C211 C209 1.390 . S
C211 C212 1.387 . S
C211 H214 0.950 . S
C212 C211 1.387 . S
C212 C215 1.387 . S
H213 C209 0.950 . S
H214 C211 0.950 . S
C215 C206 1.390 . S
C215 H208 0.950 . S
C215 C212 1.387 . S
C216 C217 1.387 . S
C216 H220 0.950 . S
C216 C225 1.390 . S
C217 C216 1.387 . S
C217 C219 1.387 . S
H218 C225 0.950 . S
C219 C217 1.387 . S
C219 C221 1.390 . S
C219 H223 0.950 . S
H220 C216 0.950 . S
C221 C219 1.390 . S
C221 C222 1.387 . S
C221 H224 0.950 . S
C222 C221 1.387 . S
C222 C225 1.387 . S
H223 C219 0.950 . S
H224 C221 0.950 . S
C225 C216 1.390 . S
C225 H218 0.950 . S
C225 C222 1.387 . S
C226 C227 1.387 . S
C226 H230 0.950 . S
C226 C235 1.390 . S
C227 C226 1.387 . S
C227 C229 1.387 . S
H228 C235 0.950 . S
C229 C227 1.387 . S
C229 C231 1.390 . S
C229 H233 0.950 1_556 S
H230 C226 0.950 . S
C231 C229 1.390 . S
C231 C232 1.387 . S
C231 H234 0.950 1_556 S
C232 C231 1.387 . S
C232 C235 1.387 . S
H233 C229 0.950 1_554 S
H234 C231 0.950 1_554 S
C235 C226 1.390 . S
C235 H228 0.950 . S
C235 C232 1.387 . S
C236 C237 1.387 . S
C236 H240 0.950 1_556 S
C236 C245 1.390 . S
C237 C236 1.387 . S
C237 C239 1.387 . S
H238 C245 0.950 1_554 S
C239 C237 1.387 . S
C239 C241 1.390 . S
C239 H243 0.950 . S
H240 C236 0.950 1_554 S
C241 C239 1.390 . S
C241 C242 1.387 . S
C241 H244 0.950 . S
C242 C241 1.387 . S
C242 C245 1.387 . S
H243 C239 0.950 . S
H244 C241 0.950 . S
C245 C236 1.390 . S
C245 H238 0.950 1_556 S
C245 C242 1.387 . S
C246 C247 1.387 . S
C246 H250 0.950 . S
C246 C255 1.390 . S
C247 C246 1.387 . S
C247 C249 1.387 . S
H248 C255 0.950 . S
C249 C247 1.387 . S
C249 C251 1.390 . S
C249 H253 0.950 . S
H250 C246 0.950 . S
C251 C249 1.390 . S
C251 C252 1.387 . S
C251 H254 0.950 . S
C252 C251 1.387 . S
C252 C255 1.387 . S
H253 C249 0.950 . S
H254 C251 0.950 . S
C255 C246 1.390 . S
C255 H248 0.950 . S
C255 C252 1.387 . S
C256 C257 1.387 . S
C256 H260 0.950 . S
C256 C265 1.390 . S
C257 C256 1.387 . S
C257 C259 1.387 . S
H258 C265 0.950 . S
C259 C257 1.387 . S
C259 C261 1.390 . S
C259 H263 0.950 . S
H260 C256 0.950 . S
C261 C259 1.390 . S
C261 C262 1.387 . S
C261 H264 0.950 . S
C262 C261 1.387 . S
C262 C265 1.387 . S
H263 C259 0.950 . S
H264 C261 0.950 . S
C265 C256 1.390 . S
C265 H258 0.950 . S
C265 C262 1.387 . S
C266 C267 1.387 . S
C266 H270 0.950 . S
C266 C275 1.390 . S
C267 C266 1.387 . S
C267 C269 1.387 . S
H268 C275 0.950 . S
C269 C267 1.387 . S
C269 C271 1.390 . S
C269 H273 0.950 . S
H270 C266 0.950 . S
C271 C269 1.390 . S
C271 C272 1.387 . S
C271 H274 0.950 . S
C272 C271 1.387 . S
C272 C275 1.387 . S
H273 C269 0.950 . S
H274 C271 0.950 . S
C275 C266 1.390 . S
C275 H268 0.950 . S
C275 C272 1.387 . S
C276 C277 1.387 . S
C276 H280 0.950 . S
C276 C285 1.390 . S
C277 C276 1.387 . S
C277 C279 1.387 . S
H278 C285 0.950 . S
C279 C277 1.387 . S
C279 C281 1.390 . S
C279 H283 0.950 . S
H280 C276 0.950 . S
C281 C279 1.390 . S
C281 C282 1.387 . S
C281 H284 0.950 . S
C282 C281 1.387 . S
C282 C285 1.387 . S
H283 C279 0.950 . S
H284 C281 0.950 . S
C285 C276 1.390 . S
C285 H278 0.950 . S
C285 C282 1.387 . S
C286 C287 1.387 . S
C286 H290 0.950 . S
C286 C295 1.390 . S
C287 C286 1.387 . S
C287 C289 1.387 . S
H288 C295 0.950 . S
C289 C287 1.387 . S
C289 C291 1.390 . S
C289 H293 0.950 . S
H290 C286 0.950 . S
C291 C289 1.390 . S
C291 C292 1.387 . S
C291 H294 0.950 . S
C292 C291 1.387 . S
C292 C295 1.387 . S
H293 C289 0.950 . S
H294 C291 0.950 . S
C295 C286 1.390 . S
C295 H288 0.950 . S
C295 C292 1.387 . S
C296 C297 1.387 . S
C296 H300 0.950 . S
C296 C305 1.390 . S
C297 C296 1.387 . S
C297 C299 1.387 . S
H298 C305 0.950 . S
C299 C297 1.387 . S
C299 C301 1.390 . S
C299 H303 0.950 . S
H300 C296 0.950 . S
C301 C299 1.390 . S
C301 C302 1.387 . S
C301 H304 0.950 . S
C302 C301 1.387 . S
C302 C305 1.387 . S
H303 C299 0.950 . S
H304 C301 0.950 . S
C305 C296 1.390 . S
C305 H298 0.950 . S
C305 C302 1.387 . S
C192 C151 1.501 . S
C187 C25 1.528 . S
C202 C147 1.502 . S
C197 C61 1.555 . S
C212 C172 1.501 . S
C207 C97 1.529 . S
C217 C133 1.554 . S
C222 C168 1.504 . S
C227 C31 1.335 . S
C232 C169 1.156 . S
C242 C184 1.170 . S
C237 C37 1.400 . S
C247 C1 1.671 . S
C252 C185 1.519 . S
C262 C181 1.535 . S
C257 C67 1.690 . S
C272 C148 1.137 1_655 S
C267 C103 1.331 . S
C277 C109 1.402 . S
C282 C163 1.175 . S
C292 C164 1.514 . S
C287 C73 1.669 . S
C302 C160 1.539 . S
C297 C139 1.691 . S
