# Generated by pormake.
# Topology eea, (3,6)-cn, num edge types: 1
# Building blocks:
#     Node 0, Type 0, BuildingBlock: ESEHIV_clean_linker_0, # of connection points: 3
#     Node 1, Type 0, BuildingBlock: ESEHIV_clean_linker_0, # of connection points: 3
#     Node 2, Type 0, BuildingBlock: ESEHIV_clean_linker_0, # of connection points: 3
#     Node 3, Type 0, BuildingBlock: ESEHIV_clean_linker_0, # of connection points: 3
#     Node 4, Type 0, BuildingBlock: ESEHIV_clean_linker_0, # of connection points: 3
#     Node 5, Type 0, BuildingBlock: ESEHIV_clean_linker_0, # of connection points: 3
#     Node 6, Type 0, BuildingBlock: ESEHIV_clean_linker_0, # of connection points: 3
#     Node 7, Type 0, BuildingBlock: ESEHIV_clean_linker_0, # of connection points: 3
#     Node 8, Type 0, BuildingBlock: ESEHIV_clean_linker_0, # of connection points: 3
#     Node 9, Type 0, BuildingBlock: ESEHIV_clean_linker_0, # of connection points: 3
#     Node 10, Type 0, BuildingBlock: ESEHIV_clean_linker_0, # of connection points: 3
#     Node 11, Type 0, BuildingBlock: ESEHIV_clean_linker_0, # of connection points: 3
#     Node 12, Type 0, BuildingBlock: ESEHIV_clean_linker_0, # of connection points: 3
#     Node 13, Type 0, BuildingBlock: ESEHIV_clean_linker_0, # of connection points: 3
#     Node 14, Type 0, BuildingBlock: ESEHIV_clean_linker_0, # of connection points: 3
#     Node 15, Type 0, BuildingBlock: ESEHIV_clean_linker_0, # of connection points: 3
#     Node 16, Type 0, BuildingBlock: ESEHIV_clean_linker_0, # of connection points: 3
#     Node 17, Type 0, BuildingBlock: ESEHIV_clean_linker_0, # of connection points: 3
#     Node 18, Type 1, BuildingBlock: HISSIN_clean_sbu_0, # of connection points: 6
#     Node 19, Type 1, BuildingBlock: HISSIN_clean_sbu_0, # of connection points: 6
#     Node 20, Type 1, BuildingBlock: HISSIN_clean_sbu_0, # of connection points: 6
#     Node 21, Type 1, BuildingBlock: HISSIN_clean_sbu_0, # of connection points: 6
#     Node 22, Type 1, BuildingBlock: HISSIN_clean_sbu_0, # of connection points: 6
#     Node 23, Type 1, BuildingBlock: HISSIN_clean_sbu_0, # of connection points: 6
#     Node 24, Type 1, BuildingBlock: HISSIN_clean_sbu_0, # of connection points: 6
#     Node 25, Type 1, BuildingBlock: HISSIN_clean_sbu_0, # of connection points: 6
#     Node 26, Type 1, BuildingBlock: HISSIN_clean_sbu_0, # of connection points: 6
#     Edge 27, Type (0, 1), BuildingBlock: TEMPAE_clean_linker_10, # of connection points: 2
#     Edge 28, Type (0, 1), BuildingBlock: TEMPAE_clean_linker_10, # of connection points: 2
#     Edge 29, Type (0, 1), BuildingBlock: TEMPAE_clean_linker_10, # of connection points: 2
#     Edge 30, Type (0, 1), BuildingBlock: TEMPAE_clean_linker_10, # of connection points: 2
#     Edge 31, Type (0, 1), BuildingBlock: TEMPAE_clean_linker_10, # of connection points: 2
#     Edge 32, Type (0, 1), BuildingBlock: TEMPAE_clean_linker_10, # of connection points: 2
#     Edge 33, Type (0, 1), BuildingBlock: TEMPAE_clean_linker_10, # of connection points: 2
#     Edge 34, Type (0, 1), BuildingBlock: TEMPAE_clean_linker_10, # of connection points: 2
#     Edge 35, Type (0, 1), BuildingBlock: TEMPAE_clean_linker_10, # of connection points: 2
#     Edge 36, Type (0, 1), BuildingBlock: TEMPAE_clean_linker_10, # of connection points: 2
#     Edge 37, Type (0, 1), BuildingBlock: TEMPAE_clean_linker_10, # of connection points: 2
#     Edge 38, Type (0, 1), BuildingBlock: TEMPAE_clean_linker_10, # of connection points: 2
#     Edge 39, Type (0, 1), BuildingBlock: TEMPAE_clean_linker_10, # of connection points: 2
#     Edge 40, Type (0, 1), BuildingBlock: TEMPAE_clean_linker_10, # of connection points: 2
#     Edge 41, Type (0, 1), BuildingBlock: TEMPAE_clean_linker_10, # of connection points: 2
#     Edge 42, Type (0, 1), BuildingBlock: TEMPAE_clean_linker_10, # of connection points: 2
#     Edge 43, Type (0, 1), BuildingBlock: TEMPAE_clean_linker_10, # of connection points: 2
#     Edge 44, Type (0, 1), BuildingBlock: TEMPAE_clean_linker_10, # of connection points: 2
#     Edge 45, Type (0, 1), BuildingBlock: TEMPAE_clean_linker_10, # of connection points: 2
#     Edge 46, Type (0, 1), BuildingBlock: TEMPAE_clean_linker_10, # of connection points: 2
#     Edge 47, Type (0, 1), BuildingBlock: TEMPAE_clean_linker_10, # of connection points: 2
#     Edge 48, Type (0, 1), BuildingBlock: TEMPAE_clean_linker_10, # of connection points: 2
#     Edge 49, Type (0, 1), BuildingBlock: TEMPAE_clean_linker_10, # of connection points: 2
#     Edge 50, Type (0, 1), BuildingBlock: TEMPAE_clean_linker_10, # of connection points: 2
#     Edge 51, Type (0, 1), BuildingBlock: TEMPAE_clean_linker_10, # of connection points: 2
#     Edge 52, Type (0, 1), BuildingBlock: TEMPAE_clean_linker_10, # of connection points: 2
#     Edge 53, Type (0, 1), BuildingBlock: TEMPAE_clean_linker_10, # of connection points: 2
#     Edge 54, Type (0, 1), BuildingBlock: TEMPAE_clean_linker_10, # of connection points: 2
#     Edge 55, Type (0, 1), BuildingBlock: TEMPAE_clean_linker_10, # of connection points: 2
#     Edge 56, Type (0, 1), BuildingBlock: TEMPAE_clean_linker_10, # of connection points: 2
#     Edge 57, Type (0, 1), BuildingBlock: TEMPAE_clean_linker_10, # of connection points: 2
#     Edge 58, Type (0, 1), BuildingBlock: TEMPAE_clean_linker_10, # of connection points: 2
#     Edge 59, Type (0, 1), BuildingBlock: TEMPAE_clean_linker_10, # of connection points: 2
#     Edge 60, Type (0, 1), BuildingBlock: TEMPAE_clean_linker_10, # of connection points: 2
#     Edge 61, Type (0, 1), BuildingBlock: TEMPAE_clean_linker_10, # of connection points: 2
#     Edge 62, Type (0, 1), BuildingBlock: TEMPAE_clean_linker_10, # of connection points: 2
#     Edge 63, Type (0, 1), BuildingBlock: TEMPAE_clean_linker_10, # of connection points: 2
#     Edge 64, Type (0, 1), BuildingBlock: TEMPAE_clean_linker_10, # of connection points: 2
#     Edge 65, Type (0, 1), BuildingBlock: TEMPAE_clean_linker_10, # of connection points: 2
#     Edge 66, Type (0, 1), BuildingBlock: TEMPAE_clean_linker_10, # of connection points: 2
#     Edge 67, Type (0, 1), BuildingBlock: TEMPAE_clean_linker_10, # of connection points: 2
#     Edge 68, Type (0, 1), BuildingBlock: TEMPAE_clean_linker_10, # of connection points: 2
#     Edge 69, Type (0, 1), BuildingBlock: TEMPAE_clean_linker_10, # of connection points: 2
#     Edge 70, Type (0, 1), BuildingBlock: TEMPAE_clean_linker_10, # of connection points: 2
#     Edge 71, Type (0, 1), BuildingBlock: TEMPAE_clean_linker_10, # of connection points: 2
#     Edge 72, Type (0, 1), BuildingBlock: TEMPAE_clean_linker_10, # of connection points: 2
#     Edge 73, Type (0, 1), BuildingBlock: TEMPAE_clean_linker_10, # of connection points: 2
#     Edge 74, Type (0, 1), BuildingBlock: TEMPAE_clean_linker_10, # of connection points: 2
#     Edge 75, Type (0, 1), BuildingBlock: TEMPAE_clean_linker_10, # of connection points: 2
#     Edge 76, Type (0, 1), BuildingBlock: TEMPAE_clean_linker_10, # of connection points: 2
#     Edge 77, Type (0, 1), BuildingBlock: TEMPAE_clean_linker_10, # of connection points: 2
#     Edge 78, Type (0, 1), BuildingBlock: TEMPAE_clean_linker_10, # of connection points: 2
#     Edge 79, Type (0, 1), BuildingBlock: TEMPAE_clean_linker_10, # of connection points: 2
#     Edge 80, Type (0, 1), BuildingBlock: TEMPAE_clean_linker_10, # of connection points: 2
# Relax obj value: 0.035
# Max RMSD: 0.131
# Mean RMSD: 0.088
data_MOF--net-eea--node1-HISSIN_clean_sbu_0--node2-ESEHIV_clean_linker_0--edge1-TEMPAE_clean_linker_10
_symmetry_space_group_name_H-M    P1
_symmetry_Int_Tables_number       1
_symmetry_cell_setting            triclinic
loop_
_symmetry_equiv_pos_as_xyz
'x, y, z'
_cell_length_a     48.957879
_cell_length_b     48.990868
_cell_length_c     73.057578
_cell_angle_alpha  93.066892
_cell_angle_beta   93.413007
_cell_angle_gamma 119.77672
loop_
_atom_site_label
_atom_site_type_symbol
_atom_site_fract_x
_atom_site_fract_y
_atom_site_fract_z
_atom_type_partial_charge
H0 H 0.28841 0.18988 0.43645 0.0
H1 H 0.29213 0.10394 0.4366 0.0
H2 H 0.25057 0.12209 0.38876 0.0
C3 C 0.28449 0.16805 0.42934 0.0
C4 C 0.26914 0.15864 0.41137 0.0
C5 C 0.29275 0.14838 0.43861 0.0
C6 C 0.28615 0.11944 0.42952 0.0
C7 C 0.27052 0.10963 0.41167 0.0
C8 C 0.26244 0.1295 0.40261 0.0
H9 H 0.83435 0.10356 0.44724 0.0
H10 H 0.92394 0.18894 0.44618 0.0
H11 H 0.89344 0.11147 0.40441 0.0
C12 C 0.85581 0.11754 0.44076 0.0
C13 C 0.86117 0.10435 0.42486 0.0
C14 C 0.8785 0.14788 0.44878 0.0
C15 C 0.9064 0.16536 0.44027 0.0
C16 C 0.91192 0.15231 0.42427 0.0
C17 C 0.88941 0.12161 0.4168 0.0
H18 H 0.83936 0.75199 0.45067 0.0
H19 H 0.92591 0.74894 0.45105 0.0
H20 H 0.89739 0.78539 0.40607 0.0
C21 C 0.86022 0.75596 0.4442 0.0
C22 C 0.86565 0.76922 0.4273 0.0
C23 C 0.88172 0.74848 0.453 0.0
C24 C 0.90936 0.75506 0.44468 0.0
C25 C 0.91511 0.76831 0.42772 0.0
C26 C 0.89314 0.77532 0.41917 0.0
H27 H 0.06755 0.24252 0.57693 0.0
H28 H 0.15589 0.24325 0.5771 0.0
H29 H 0.09759 0.20588 0.62126 0.0
C30 C 0.08474 0.23732 0.58339 0.0
C31 C 0.07904 0.22306 0.60005 0.0
C32 C 0.11253 0.24487 0.57503 0.0
C33 C 0.13455 0.2378 0.58349 0.0
C34 C 0.12936 0.22383 0.60016 0.0
C35 C 0.10162 0.21662 0.60836 0.0
H36 H 0.68986 0.87812 0.58835 0.0
H37 H 0.68894 0.78984 0.59004 0.0
H38 H 0.73456 0.86161 0.63546 0.0
C39 C 0.69535 0.86243 0.59559 0.0
C40 C 0.71217 0.87291 0.61313 0.0
C41 C 0.68682 0.8325 0.58706 0.0
C42 C 0.69494 0.81284 0.59648 0.0
C43 C 0.7122 0.8234 0.61389 0.0
C44 C 0.72055 0.85326 0.62219 0.0
H45 H 0.05701 0.80576 0.57711 0.0
H46 H 0.14637 0.89093 0.57597 0.0
H47 H 0.09542 0.87615 0.62372 0.0
C48 C 0.07573 0.82816 0.58382 0.0
C49 C 0.07294 0.83868 0.60157 0.0
C50 C 0.10204 0.84708 0.57441 0.0
C51 C 0.12592 0.87632 0.58309 0.0
C52 C 0.12364 0.88704 0.60079 0.0
C53 C 0.09704 0.86816 0.60991 0.0
H54 H 0.95827 0.52537 0.76927 0.0
H55 H 0.9605 0.43866 0.76865 0.0
H56 H 0.9182 0.45773 0.7215 0.0
C57 C 0.95347 0.50328 0.76206 0.0
C58 C 0.93736 0.494 0.74429 0.0
C59 C 0.96218 0.48357 0.77089 0.0
C60 C 0.95513 0.45463 0.76162 0.0
C61 C 0.93901 0.44505 0.74389 0.0
C62 C 0.93053 0.465 0.73525 0.0
H63 H 0.50019 0.43325 0.78082 0.0
H64 H 0.58815 0.51994 0.77838 0.0
H65 H 0.55843 0.44138 0.73753 0.0
C66 C 0.5213 0.44748 0.77412 0.0
C67 C 0.52661 0.43418 0.75825 0.0
C68 C 0.54352 0.47831 0.78175 0.0
C69 C 0.57098 0.49599 0.77287 0.0
C70 C 0.57657 0.48271 0.75697 0.0
C71 C 0.55445 0.45165 0.74989 0.0
H72 H 0.50495 0.08139 0.7836 0.0
H73 H 0.59388 0.08284 0.78568 0.0
H74 H 0.56662 0.12078 0.74104 0.0
C75 C 0.52691 0.08739 0.77781 0.0
C76 C 0.53317 0.10196 0.76131 0.0
C77 C 0.54871 0.0806 0.78692 0.0
C78 C 0.57674 0.08782 0.77891 0.0
C79 C 0.58336 0.10254 0.76245 0.0
C80 C 0.56168 0.10984 0.75387 0.0
H81 H 0.72533 0.5673 0.90729 0.0
H82 H 0.81517 0.57081 0.90822 0.0
H83 H 0.75871 0.53762 0.95362 0.0
C84 C 0.74337 0.56362 0.91409 0.0
C85 C 0.73903 0.55186 0.93145 0.0
C86 C 0.77093 0.57073 0.90556 0.0
C87 C 0.79385 0.56542 0.91461 0.0
C88 C 0.78952 0.55315 0.93182 0.0
C89 C 0.76212 0.54668 0.94022 0.0
H90 H 0.35631 0.21004 0.92012 0.0
H91 H 0.3611 0.12475 0.92048 0.0
H92 H 0.39871 0.19287 0.96804 0.0
C93 C 0.36238 0.19467 0.92731 0.0
C94 C 0.37752 0.20446 0.94527 0.0
C95 C 0.35641 0.166 0.91824 0.0
C96 C 0.36546 0.14687 0.92742 0.0
C97 C 0.38042 0.15627 0.94547 0.0
C98 C 0.38602 0.18491 0.9544 0.0
H99 H 0.73339 0.13092 0.91372 0.0
H100 H 0.82355 0.21583 0.91364 0.0
H101 H 0.76518 0.20666 0.95699 0.0
C102 C 0.75116 0.15407 0.92009 0.0
C103 C 0.74582 0.16644 0.93648 0.0
C104 C 0.77925 0.17166 0.91177 0.0
C105 C 0.80209 0.20168 0.92009 0.0
C106 C 0.79686 0.21438 0.9362 0.0
C107 C 0.76878 0.19682 0.94432 0.0
H108 H 0.61809 0.85365 0.10434 0.0
H109 H 0.6207 0.76706 0.10271 0.0
H110 H 0.5812 0.7887 0.05537 0.0
C111 C 0.6141 0.83213 0.09678 0.0
C112 C 0.5992 0.82386 0.07872 0.0
C113 C 0.62185 0.81171 0.10558 0.0
C114 C 0.6152 0.78316 0.09594 0.0
C115 C 0.60027 0.77458 0.07791 0.0
C116 C 0.59262 0.79518 0.06934 0.0
H117 H 0.17096 0.76191 0.11437 0.0
H118 H 0.26034 0.84752 0.1142 0.0
H119 H 0.22562 0.776 0.06833 0.0
C120 C 0.19173 0.77667 0.10753 0.0
C121 C 0.19546 0.76556 0.09032 0.0
C122 C 0.21496 0.80616 0.11628 0.0
C123 C 0.24245 0.82457 0.10765 0.0
C124 C 0.24629 0.81392 0.09023 0.0
C125 C 0.22273 0.78436 0.08172 0.0
H126 H 0.16659 0.41285 0.11576 0.0
H127 H 0.25378 0.41099 0.11655 0.0
H128 H 0.22657 0.44948 0.07215 0.0
C129 C 0.18798 0.41783 0.10957 0.0
C130 C 0.19381 0.4317 0.09285 0.0
C131 C 0.20941 0.4102 0.11831 0.0
C132 C 0.23712 0.41689 0.11008 0.0
C133 C 0.24346 0.43123 0.0935 0.0
C134 C 0.22173 0.43852 0.08497 0.0
H135 H 0.40034 0.91058 0.24349 0.0
H136 H 0.48876 0.91134 0.24351 0.0
H137 H 0.43109 0.87489 0.28798 0.0
C138 C 0.41766 0.90553 0.24991 0.0
C139 C 0.41215 0.89147 0.26663 0.0
C140 C 0.44537 0.91299 0.24144 0.0
C141 C 0.46752 0.9061 0.24994 0.0
C142 C 0.46262 0.89258 0.26676 0.0
C143 C 0.43494 0.88539 0.275 0.0
H144 H 0.02934 0.54498 0.25225 0.0
H145 H 0.02922 0.45733 0.25449 0.0
H146 H 0.06886 0.52724 0.30116 0.0
C147 C 0.03431 0.52924 0.25982 0.0
C148 C 0.04917 0.53919 0.27785 0.0
C149 C 0.02703 0.49976 0.25126 0.0
C150 C 0.03463 0.4801 0.261 0.0
C151 C 0.04951 0.48979 0.27905 0.0
C152 C 0.05632 0.51916 0.28748 0.0
H153 H 0.39212 0.47583 0.24387 0.0
H154 H 0.48204 0.5609 0.24383 0.0
H155 H 0.42967 0.54511 0.29098 0.0
C156 C 0.41083 0.49805 0.25078 0.0
C157 C 0.40771 0.5081 0.26856 0.0
C158 C 0.43746 0.51713 0.24164 0.0
C159 C 0.46126 0.54614 0.25065 0.0
C160 C 0.45846 0.55653 0.26831 0.0
C161 C 0.43162 0.53742 0.27717 0.0
Eu162 Eu 0.48222 0.97349 0.99332 0.0
Eu163 Eu 0.50668 0.01642 0.03366 0.0
C164 C 0.47015 0.03139 1.0022 0.0
C165 C 0.47453 0.95795 0.94182 0.0
C166 C 0.48999 0.99072 0.94073 0.0
C167 C 0.47581 0.95014 0.90881 0.0
C168 C 0.49865 0.00315 0.92386 0.0
C169 C 0.46738 0.93773 0.92575 0.0
C170 C 0.49182 0.98303 0.9077 0.0
C171 C 0.46762 0.94525 0.95985 0.0
O172 O 0.45445 0.98226 0.03309 0.0
O173 O 0.44848 0.94193 0.01268 0.0
C174 C 0.43867 0.95253 0.02624 0.0
O175 O 0.51592 0.9617 1.0085 0.0
O176 O 0.49961 0.04279 0.05614 0.0
O177 O 0.53981 0.03562 0.05852 0.0
O178 O 0.50593 0.97101 0.03753 0.0
C179 C 0.51657 0.95786 0.02611 0.0
O180 O 0.52198 0.02128 0.98874 0.0
O181 O 0.54934 0.03547 0.01733 0.0
O182 O 0.49469 0.0444 0.01466 0.0
O183 O 0.49227 0.95028 0.97052 0.0
O184 O 0.44841 0.95092 0.9688 0.0
O185 O 0.45761 0.00186 0.99534 0.0
C186 C 0.51331 0.0314 0.08496 0.0
C187 C 0.49439 -0.00134 0.08562 0.0
C188 C 0.51446 0.03886 0.11822 0.0
C189 C 0.48573 0.98607 0.10245 0.0
C190 C 0.52321 0.05143 0.10134 0.0
C191 C 0.49572 0.00599 0.11898 0.0
C192 C 0.52241 0.04435 0.06716 0.0
C193 C 0.54843 0.03775 0.99946 0.0
H194 H 0.49562 0.00672 0.95298 0.0
H195 H 0.47043 0.93403 0.89664 0.0
H196 H 0.51053 0.02854 0.92346 0.0
H197 H 0.45565 0.91238 0.92635 0.0
H198 H 0.48632 0.9828 0.07308 0.0
H199 H 0.52281 0.05482 0.13071 0.0
H200 H 0.47093 0.96073 0.10249 0.0
H201 H 0.5378 0.07676 0.10109 0.0
Eu202 Eu 0.01375 0.50302 0.99337 0.0
Eu203 Eu 0.97186 0.48287 0.02899 0.0
C204 C 0.95307 0.43349 0.99353 0.0
C205 C 0.04044 0.51526 0.94515 0.0
C206 C 0.00917 0.49809 0.93699 0.0
C207 C 0.05916 0.52538 0.91491 0.0
C208 C 0.00291 0.49478 0.91786 0.0
C209 C 0.06539 0.52869 0.93405 0.0
C210 C 0.02784 0.5086 0.90661 0.0
C211 C 0.0471 0.52037 0.96521 0.0
O212 O 0.00569 0.46435 0.03252 0.0
O213 O 0.04458 0.49901 0.01599 0.0
C214 C 0.035 0.47831 0.02823 0.0
O215 O 0.02659 0.54749 0.01117 0.0
O216 O 0.94312 0.44779 0.04711 0.0
O217 O 0.95092 0.49537 0.05108 0.0
O218 O 0.01744 0.52713 0.03897 0.0
C219 C 0.03153 0.5512 0.0292 0.0
O220 O 0.96714 0.49849 0.98349 0.0
O221 O 0.95437 0.50897 0.01163 0.0
O222 O 0.94265 0.44441 1.00649 0.0
O223 O 0.03658 0.53703 0.9735 0.0
O224 O 0.04187 0.49568 0.97368 0.0
O225 O 0.98154 0.45023 0.98826 0.0
C226 C 0.94724 0.46881 0.07737 0.0
C227 C 0.9788 0.48203 0.08471 0.0
C228 C 0.93021 0.45744 0.10789 0.0
C229 C 0.98606 0.48314 0.1036 0.0
C230 C 0.92299 0.45641 0.08899 0.0
C231 C 0.96184 0.47099 0.11539 0.0
C232 C 0.93957 0.46795 0.05762 0.0
C233 C 0.95078 0.50699 0.99355 0.0
H234 H 0.98964 0.4877 0.94544 0.0
H235 H 0.07885 0.53595 0.9066 0.0
H236 H 0.97852 0.48206 0.9119 0.0
H237 H 0.08965 0.54202 0.9402 0.0
H238 H -0.00222 0.49154 0.07584 0.0
H239 H 0.91112 0.44818 0.11668 0.0
H240 H 0.0106 0.49335 0.10896 0.0
H241 H 0.8985 0.44612 0.08346 0.0
Eu242 Eu 0.5056 0.48193 0.03201 0.0
Eu243 Eu 0.47663 0.49577 0.99361 0.0
C244 C 0.51766 0.55038 0.02565 0.0
C245 C 0.51328 0.46966 0.08215 0.0
C246 C 0.53398 0.49258 0.09624 0.0
C247 C 0.47246 0.44884 0.1033 0.0
C248 C 0.52388 0.49398 0.11359 0.0
C249 C 0.48248 0.44759 0.08592 0.0
C250 C 0.4929 0.47226 0.1173 0.0
C251 C 0.52345 0.47002 0.06344 0.0
O252 O 0.51924 0.49305 0.98621 0.0
O253 O 0.54678 0.50214 0.01471 0.0
C254 C 0.54532 0.50075 0.99661 0.0
O255 O 0.49164 0.4412 0.01086 0.0
O256 O 0.47291 0.52771 0.97504 0.0
O257 O 0.44833 0.47752 0.96706 0.0
O258 O 0.45056 0.44351 0.99632 0.0
C259 C 0.46459 0.42755 1.00059 0.0
O260 O 0.4549 0.46728 0.03575 0.0
O261 O 0.44388 0.49452 0.01448 0.0
O262 O 0.51422 0.54263 1.00787 0.0
O263 O 0.50292 0.44812 0.05099 0.0
O264 O 0.53836 0.49761 0.05703 0.0
O265 O 0.50824 0.52876 0.03728 0.0
C266 C 0.47099 0.5108 0.94387 0.0
C267 C 0.49617 0.50551 0.94107 0.0
C268 C 0.46921 0.52181 0.91191 0.0
C269 C 0.50731 0.50762 0.92376 0.0
C270 C 0.45791 0.51948 0.92928 0.0
C271 C 0.49356 0.51521 0.9089 0.0
C272 C 0.4574 0.50541 0.96166 0.0
C273 C 0.4374 0.47864 0.02913 0.0
H274 H 0.5578 0.50991 0.0937 0.0
H275 H 0.44862 0.43144 0.10573 0.0
H276 H 0.54014 0.51264 0.12393 0.0
H277 H 0.46585 0.42955 0.0754 0.0
H278 H 0.50666 0.49885 0.95214 0.0
H279 H 0.45808 0.52754 0.90066 0.0
H280 H 0.52634 0.50278 0.9219 0.0
H281 H 0.43846 0.52364 0.93118 0.0
Eu282 Eu 0.14864 0.30742 0.32716 0.0
Eu283 Eu 0.17512 0.34967 0.36793 0.0
C284 C 0.13572 0.36392 0.33779 0.0
C285 C 0.13998 0.29334 0.2753 0.0
C286 C 0.15572 0.32611 0.27423 0.0
C287 C 0.13974 0.28545 0.24214 0.0
C288 C 0.16364 0.33851 0.25728 0.0
C289 C 0.13196 0.27309 0.25915 0.0
C290 C 0.15584 0.31835 0.24098 0.0
C291 C 0.13336 0.28047 0.29332 0.0
O292 O 0.12402 0.31355 0.36938 0.0
O293 O 0.11454 0.27519 0.34612 0.0
C294 C 0.10711 0.28462 0.3613 0.0
O295 O 0.18172 0.29396 0.34158 0.0
O296 O 0.17022 0.37762 0.39041 0.0
O297 O 0.20915 0.36837 0.39244 0.0
O298 O 0.17458 0.30429 0.3712 0.0
C299 C 0.18363 0.2904 0.35919 0.0
O300 O 0.18808 0.3557 0.32291 0.0
O301 O 0.21683 0.36813 0.35094 0.0
O302 O 0.1611 0.37708 0.34962 0.0
O303 O 0.15801 0.28482 0.30372 0.0
O304 O 0.11467 0.2864 0.30261 0.0
O305 O 0.12306 0.33448 0.33081 0.0
C306 C 0.18423 0.36649 0.41971 0.0
C307 C 0.20389 0.35889 0.43045 0.0
C308 C 0.14736 0.3492 0.4433 0.0
C309 C 0.19517 0.34615 0.44725 0.0
C310 C 0.15602 0.36183 0.42646 0.0
C311 C 0.16669 0.34094 0.45382 0.0
C312 C 0.19257 0.37797 0.4013 0.0
C313 C 0.21505 0.37143 0.33324 0.0
H314 H 0.1622 0.34214 0.28657 0.0
H315 H 0.13296 0.2692 0.22988 0.0
H316 H 0.17639 0.36392 0.257 0.0
H317 H 0.11987 0.24773 0.25971 0.0
H318 H 0.2259 0.36242 0.42575 0.0
H319 H 0.12516 0.34526 0.4479 0.0
H320 H 0.21082 0.34049 0.45515 0.0
H321 H 0.14029 0.36746 0.41862 0.0
Eu322 Eu 0.68418 0.83931 0.32819 0.0
Eu323 Eu 0.64242 0.8184 0.36396 0.0
C324 C 0.62518 0.77077 0.32814 0.0
C325 C 0.70799 0.85301 0.27948 0.0
C326 C 0.67638 0.83927 0.27211 0.0
C327 C 0.7249 0.8643 0.24891 0.0
C328 C 0.66904 0.83788 0.25319 0.0
C329 C 0.7322 0.86564 0.26784 0.0
C330 C 0.69323 0.85028 0.24137 0.0
C331 C 0.71582 0.85412 0.29926 0.0
O332 O 0.68937 0.82383 0.37383 0.0
O333 O 0.7029 0.8143 0.34569 0.0
C334 C 0.70633 0.81617 0.36379 0.0
O335 O 0.71323 0.8781 0.3506 0.0
O336 O 0.61932 0.7831 0.38314 0.0
O337 O 0.61403 0.82452 0.38398 0.0
O338 O 0.67495 0.87102 0.36975 0.0
C339 C 0.70312 0.88825 0.36415 0.0
O340 O 0.65055 0.85808 0.32516 0.0
O341 O 0.61168 0.82311 0.34159 0.0
O342 O 0.63105 0.77449 0.34611 0.0
O343 O 0.71219 0.87423 0.30976 0.0
O344 O 0.70486 0.82682 0.30593 0.0
O345 O 0.63847 0.79496 0.31839 0.0
C346 C 0.61384 0.8022 0.41228 0.0
C347 C 0.62193 0.83039 0.42294 0.0
C348 C 0.61477 0.77806 0.44036 0.0
C349 C 0.62653 0.8324 0.44214 0.0
C350 C 0.60998 0.776 0.4212 0.0
C351 C 0.62319 0.8063 0.45107 0.0
C352 C 0.6089 0.79939 0.39196 0.0
C353 C 0.6213 0.84415 0.32953 0.0
H354 H 0.65741 0.8294 0.28098 0.0
H355 H 0.74405 0.87437 0.24019 0.0
H356 H 0.64441 0.82655 0.24779 0.0
H357 H 0.75673 0.87646 0.27338 0.0
H358 H 0.62476 0.85092 0.41649 0.0
H359 H 0.61243 0.75766 0.44675 0.0
H360 H 0.63253 0.85435 0.45 0.0
H361 H 0.6035 0.7539 0.41333 0.0
Eu362 Eu 0.17539 0.81592 0.36584 0.0
Eu363 Eu 0.14798 0.83144 0.32807 0.0
C364 C 0.18759 0.88455 0.36093 0.0
C365 C 0.18133 0.80435 0.41559 0.0
C366 C 0.15963 0.81481 0.41778 0.0
C367 C 0.18019 0.79423 0.44777 0.0
C368 C 0.14833 0.81507 0.43485 0.0
C369 C 0.1915 0.79398 0.43064 0.0
C370 C 0.15847 0.8048 0.45007 0.0
C371 C 0.19231 0.80348 0.39742 0.0
O372 O 0.18859 0.82528 0.32042 0.0
O373 O 0.21694 0.83808 0.34876 0.0
C374 C 0.2153 0.83485 0.33064 0.0
O375 O 0.16303 0.77573 0.34457 0.0
O376 O 0.15237 0.86488 0.30825 0.0
O377 O 0.11416 0.81658 0.30363 0.0
O378 O 0.12319 0.77865 0.32863 0.0
C379 C 0.13704 0.76264 0.3333 0.0
O380 O 0.12358 0.7986 0.36771 0.0
O381 O 0.11674 0.83184 0.34952 0.0
O382 O 0.18517 0.87757 0.34314 0.0
O383 O 0.17102 0.78189 0.38516 0.0
O384 O 0.20807 0.83076 0.3908 0.0
O385 O 0.17733 0.86227 0.37213 0.0
C386 C 0.13938 0.84116 0.27796 0.0
C387 C 0.15625 0.82546 0.2746 0.0
C388 C 0.14317 0.8549 0.24641 0.0
C389 C 0.16654 0.82449 0.2573 0.0
C390 C 0.13294 0.85593 0.2638 0.0
C391 C 0.16007 0.83913 0.24297 0.0
C392 C 0.13003 0.84329 0.29649 0.0
C393 C 0.10782 0.81262 0.36263 0.0
H394 H 0.15144 0.82282 0.40626 0.0
H395 H 0.18822 0.78589 0.45918 0.0
H396 H 0.13204 0.82381 0.43618 0.0
H397 H 0.20804 0.78559 0.42912 0.0
H398 H 0.16163 0.81409 0.28542 0.0
H399 H 0.13753 0.86612 0.2356 0.0
H400 H 0.17988 0.81256 0.25522 0.0
H401 H 0.12011 0.86832 0.2662 0.0
Eu402 Eu 0.81408 0.6387 0.65952 0.0
Eu403 Eu 0.83792 0.68142 0.70032 0.0
C404 C 0.80038 0.69583 0.66831 0.0
C405 C 0.80889 0.6233 0.60771 0.0
C406 C 0.79373 0.63842 0.59974 0.0
C407 C 0.84069 0.63454 0.58173 0.0
C408 C 0.80207 0.65153 0.58298 0.0
C409 C 0.83217 0.62121 0.59839 0.0
C410 C 0.82589 0.65005 0.57382 0.0
C411 C 0.80208 0.61117 0.62606 0.0
O412 O 0.78682 0.64502 0.70108 0.0
O413 O 0.77871 0.60672 0.67814 0.0
C414 C 0.77045 0.61607 0.69302 0.0
O415 O 0.84845 0.62802 0.67491 0.0
O416 O 0.83135 0.70779 0.72301 0.0
O417 O 0.87165 0.70072 0.72492 0.0
O418 O 0.83781 0.63627 0.70392 0.0
C419 C 0.84892 0.62374 0.69244 0.0
O420 O 0.85266 0.68732 0.65525 0.0
O421 O 0.88028 0.70121 0.68374 0.0
O422 O 0.82272 0.70815 0.68214 0.0
O423 O 0.82669 0.61715 0.63713 0.0
O424 O 0.78134 0.61484 0.63469 0.0
O425 O 0.78993 0.66742 0.66011 0.0
C426 C 0.84543 0.69598 0.75155 0.0
C427 C 0.82812 0.66309 0.75209 0.0
C428 C 0.84404 0.70276 0.78462 0.0
C429 C 0.81872 0.6501 0.76873 0.0
C430 C 0.85334 0.71575 0.7679 0.0
C431 C 0.82651 0.66976 0.78522 0.0
C432 C 0.85434 0.70928 0.73382 0.0
C433 C 0.87909 0.70402 0.66595 0.0
H434 H 0.77567 0.64048 0.60651 0.0
H435 H 0.85942 0.63326 0.57528 0.0
H436 H 0.78972 0.66277 0.57718 0.0
H437 H 0.84431 0.60977 0.6042 0.0
H438 H 0.82187 0.64743 0.7396 0.0
H439 H 0.85017 0.71855 0.79703 0.0
H440 H 0.80568 0.62463 0.76871 0.0
H441 H 0.86654 0.74118 0.76772 0.0
Eu442 Eu 0.35133 0.16963 0.66063 0.0
Eu443 Eu 0.30888 0.14849 0.69599 0.0
C444 C 0.29222 0.10086 0.6603 0.0
C445 C 0.3778 0.18597 0.61204 0.0
C446 C 0.37915 0.16411 0.59945 0.0
C447 C 0.36566 0.20918 0.58641 0.0
C448 C 0.37338 0.16447 0.58055 0.0
C449 C 0.37125 0.20871 0.60533 0.0
C450 C 0.36646 0.18693 0.5738 0.0
C451 C 0.38361 0.18491 0.63199 0.0
O452 O 0.35552 0.15362 0.70624 0.0
O453 O 0.36987 0.1446 0.67826 0.0
C454 C 0.37285 0.14623 0.69636 0.0
O455 O 0.38012 0.20814 0.68325 0.0
O456 O 0.28545 0.11369 0.71535 0.0
O457 O 0.28 0.15497 0.71548 0.0
O458 O 0.34141 0.20106 0.702 0.0
C459 C 0.3698 0.21823 0.69669 0.0
O460 O 0.31773 0.18845 0.65727 0.0
O461 O 0.27854 0.15304 0.67332 0.0
O462 O 0.29765 0.10451 0.67829 0.0
O463 O 0.38135 0.20521 0.64318 0.0
O464 O 0.37125 0.15695 0.63796 0.0
O465 O 0.30578 0.12512 0.65061 0.0
C466 C 0.28101 0.13467 0.74377 0.0
C467 C 0.31216 0.15217 0.75207 0.0
C468 C 0.26196 0.12339 0.77386 0.0
C469 C 0.31822 0.15509 0.77119 0.0
C470 C 0.25594 0.12047 0.75472 0.0
C471 C 0.29318 0.14055 0.78229 0.0
C472 C 0.27465 0.13004 0.72371 0.0
C473 C 0.28834 0.17431 0.66142 0.0
H474 H 0.38437 0.14649 0.60425 0.0
H475 H 0.36081 0.22705 0.58164 0.0
H476 H 0.37373 0.14669 0.57125 0.0
H477 H 0.37033 0.22611 0.61466 0.0
H478 H 0.33178 0.16314 0.74373 0.0
H479 H 0.24219 0.11226 0.78207 0.0
H480 H 0.34254 0.16811 0.77725 0.0
H481 H 0.23176 0.10687 0.74846 0.0
Eu482 Eu 0.84446 0.15162 0.69988 0.0
Eu483 Eu 0.8147 0.16464 0.66179 0.0
C484 C 0.85548 0.21956 0.69384 0.0
C485 C 0.85544 0.14204 0.74974 0.0
C486 C 0.83745 0.15638 0.75353 0.0
C487 C 0.85368 0.12829 0.78125 0.0
C488 C 0.82768 0.15674 0.77106 0.0
C489 C 0.86347 0.12796 0.76366 0.0
C490 C 0.83567 0.14271 0.78513 0.0
C491 C 0.86409 0.14029 0.731 0.0
O492 O 0.85561 0.15896 0.65401 0.0
O493 O 0.88495 0.17352 0.68211 0.0
C494 C 0.88269 0.16928 0.66402 0.0
O495 O 0.82972 0.1102 0.67902 0.0
O496 O 0.81395 0.1971 0.64258 0.0
O497 O 0.78319 0.14684 0.63632 0.0
O498 O 0.78852 0.1125 0.66462 0.0
C499 C 0.80257 0.09654 0.66883 0.0
O500 O 0.79423 0.13789 0.7044 0.0
O501 O 0.78261 0.16426 0.68282 0.0
O502 O 0.852 0.21164 0.67608 0.0
O503 O 0.84144 0.1184 0.71946 0.0
O504 O 0.87925 0.16718 0.72386 0.0
O505 O 0.84657 0.19808 0.70554 0.0
C506 C 0.80615 0.17648 0.6117 0.0
C507 C 0.8263 0.16475 0.60774 0.0
C508 C 0.80701 0.19113 0.58041 0.0
C509 C 0.83649 0.16587 0.59022 0.0
C510 C 0.79678 0.18995 0.598 0.0
C511 C 0.82668 0.17875 0.57628 0.0
C512 C 0.79495 0.17448 0.63007 0.0
C513 C 0.77654 0.14899 0.6977 0.0
H514 H 0.83072 0.16704 0.74285 0.0
H515 H 0.86045 0.11756 0.79186 0.0
H516 H 0.81347 0.16763 0.77352 0.0
H517 H 0.87713 0.11657 0.76091 0.0
H518 H 0.83387 0.15437 0.61817 0.0
H519 H 0.79888 0.20098 0.56991 0.0
H520 H 0.85199 0.15656 0.58757 0.0
H521 H 0.7813 0.19921 0.60085 0.0
C522 C 0.27078 0.83859 0.0621 0.0
C523 C 0.27448 0.83372 0.0806 0.0
C524 C 0.29709 0.85694 0.05264 0.0
C525 C 0.32787 0.87048 0.06186 0.0
C526 C 0.33177 0.86542 0.08052 0.0
C527 C 0.30497 0.84726 0.08972 0.0
C528 C 0.29192 0.86228 0.03287 0.0
C529 C 0.36424 0.87926 0.09077 0.0
C530 C 0.39749 0.89829 0.03291 0.0
C531 C 0.40944 0.93099 0.03443 0.0
C532 C 0.37098 0.87821 0.04184 0.0
C533 C 0.35588 0.89118 0.05224 0.0
C534 C 0.36748 0.9241 0.05346 0.0
C535 C 0.39421 0.94359 0.04466 0.0
C536 C 0.35946 0.84324 0.04042 0.0
C537 C 0.35176 0.9388 0.06415 0.0
H538 H 0.24719 0.8284 0.05508 0.0
H539 H 0.30785 0.84324 0.10398 0.0
H540 H 0.30169 0.88789 0.03167 0.0
H541 H 0.30468 0.85435 0.02393 0.0
H542 H 0.26649 0.84955 0.02758 0.0
H543 H 0.36326 0.87203 0.10498 0.0
H544 H 0.37874 0.87172 0.08321 0.0
H545 H 0.37652 0.90543 0.09158 0.0
H546 H 0.40933 0.88848 0.02515 0.0
H547 H 0.40318 0.96884 0.0458 0.0
H548 H 0.33443 0.82978 0.03443 0.0
H549 H 0.36037 0.83564 0.05437 0.0
H550 H 0.37377 0.83688 0.03179 0.0
H551 H 0.32648 0.92777 0.05883 0.0
H552 H 0.36323 0.96471 0.06331 0.0
H553 H 0.35258 0.9344 0.07885 0.0
C554 C 0.15838 0.45504 0.09327 0.0
C555 C 0.1705 0.4387 0.08348 0.0
C556 C 0.1363 0.46176 0.08455 0.0
C557 C 0.12573 0.45142 0.06566 0.0
C558 C 0.13771 0.43465 0.05577 0.0
C559 C 0.16014 0.42872 0.06477 0.0
C560 C 0.12451 0.48015 0.0955 0.0
C561 C 0.1267 0.42281 0.03571 0.0
C562 C 0.04775 0.44415 0.0472 0.0
C563 C 0.0581 0.47135 0.03784 0.0
C564 C 0.06948 0.43727 0.05623 0.0
C565 C 0.10235 0.45839 0.05619 0.0
C566 C 0.11292 0.48608 0.04696 0.0
C567 C 0.09069 0.49208 0.03778 0.0
C568 C 0.05727 0.40728 0.06569 0.0
C569 C 0.14773 0.50946 0.04685 0.0
H570 H 0.16655 0.463 0.1077 0.0
H571 H 0.16923 0.41577 0.05723 0.0
H572 H 0.12995 0.50204 0.089 0.0
H573 H 0.09844 0.466 0.09546 0.0
H574 H 0.13528 0.48674 0.11001 0.0
H575 H 0.13782 0.40956 0.0301 0.0
H576 H 0.10063 0.40712 0.03394 0.0
H577 H 0.13237 0.44297 0.02743 0.0
H578 H 0.02262 0.42796 0.04727 0.0
H579 H 0.09891 0.51331 0.03073 0.0
H580 H 0.06586 0.41301 0.08055 0.0
H581 H 0.0665 0.39249 0.05977 0.0
H582 H 0.03102 0.39318 0.06431 0.0
H583 H 0.15901 0.51785 0.06119 0.0
H584 H 0.15206 0.53026 0.03944 0.0
H585 H 0.15956 0.49782 0.04017 0.0
C586 C 0.61106 0.73104 0.06888 0.0
C587 C 0.59031 0.743 0.06861 0.0
C588 C 0.60104 0.70033 0.06112 0.0
C589 C 0.56949 0.68116 0.05309 0.0
C590 C 0.54866 0.69336 0.05246 0.0
C591 C 0.55936 0.72417 0.06021 0.0
C592 C 0.62396 0.68815 0.06187 0.0
C593 C 0.51477 0.67353 0.04414 0.0
C594 C 0.54573 0.60789 0.0209 0.0
C595 C 0.53191 0.58395 0.03272 0.0
C596 C 0.55875 0.63977 0.02743 0.0
C597 C 0.55765 0.64779 0.04616 0.0
C598 C 0.54408 0.62378 0.05819 0.0
C599 C 0.53148 0.59215 0.05134 0.0
C600 C 0.57328 0.66482 0.01425 0.0
C601 C 0.5423 0.63144 0.07824 0.0
H602 H 0.63508 0.74569 0.07525 0.0
H603 H 0.54314 0.7332 0.06021 0.0
H604 H 0.61557 0.66814 0.07057 0.0
H605 H 0.62516 0.67907 0.04788 0.0
H606 H 0.64816 0.70667 0.0676 0.0
H607 H 0.50205 0.68703 0.04403 0.0
H608 H 0.51392 0.66429 0.0298 0.0
H609 H 0.50199 0.65286 0.05209 0.0
H610 H 0.54633 0.60175 1.00651 0.0
H611 H 0.52083 0.57381 0.06057 0.0
H612 H 0.59787 0.68264 0.01967 0.0
H613 H 0.55975 0.67739 0.01294 0.0
H614 H 0.57361 0.65478 1.00032 0.0
H615 H 0.5663 0.64827 0.08503 0.0
H616 H 0.53171 0.61006 0.08587 0.0
H617 H 0.52789 0.64308 0.07936 0.0
C618 C 0.81272 0.27031 0.9454 0.0
C619 C 0.82056 0.24646 0.94426 0.0
C620 C 0.83521 0.30114 0.95263 0.0
C621 C 0.86591 0.3079 0.9593 0.0
C622 C 0.87382 0.28374 0.95824 0.0
C623 C 0.85109 0.25332 0.95048 0.0
C624 C 0.82612 0.32643 0.95317 0.0
C625 C 0.90602 0.28986 0.96564 0.0
C626 C 0.93245 0.39348 0.96612 0.0
C627 C 0.9318 0.40124 0.98475 0.0
C628 C 0.91105 0.36313 0.95757 0.0
C629 C 0.88925 0.33994 0.9681 0.0
C630 C 0.88921 0.34752 0.98706 0.0
C631 C 0.91019 0.37822 0.99509 0.0
C632 C 0.91123 0.3561 0.93722 0.0
C633 C 0.8669 0.32323 0.99886 0.0
H634 H 0.7891 0.26486 0.94037 0.0
H635 H 0.85694 0.23467 0.94956 0.0
H636 H 0.82712 0.33514 0.96766 0.0
H637 H 0.84316 0.34688 0.94623 0.0
H638 H 0.80193 0.31771 0.9464 0.0
H639 H 0.90843 0.26854 0.96365 0.0
H640 H 0.92471 0.30911 0.95874 0.0
H641 H 0.91033 0.29778 0.98058 0.0
H642 H 0.94905 0.41139 0.95811 0.0
H643 H 0.90992 0.38417 1.00957 0.0
H644 H 0.88784 0.34916 0.92994 0.0
H645 H 0.91528 0.33589 0.93483 0.0
H646 H 0.92974 0.3767 0.93102 0.0
H647 H 0.84208 0.31552 0.99385 0.0
H648 H 0.87112 0.33247 0.01359 0.0
H649 H 0.86957 0.302 0.99782 0.0
C650 C 0.71317 0.56258 0.95708 0.0
C651 C 0.71045 0.54502 0.94063 0.0
C652 C 0.68642 0.55595 0.96625 0.0
C653 C 0.65639 0.53053 0.95903 0.0
C654 C 0.65365 0.51257 0.94244 0.0
C655 C 0.6807 0.52033 0.93329 0.0
C656 C 0.69027 0.57625 0.98358 0.0
C657 C 0.62225 0.48484 0.93452 0.0
C658 C 0.59347 0.4964 0.99264 0.0
C659 C 0.57399 0.50858 0.98738 0.0
C660 C 0.62 0.50278 0.98326 0.0
C661 C 0.62787 0.52285 0.96882 0.0
C662 C 0.60854 0.53574 0.96378 0.0
C663 C 0.58149 0.52793 0.97288 0.0
C664 C 0.6393 0.48764 0.9886 0.0
C665 C 0.61661 0.55808 0.94892 0.0
H666 H 0.73628 0.5817 0.96268 0.0
H667 H 0.67878 0.50665 0.92062 0.0
H668 H 0.6745 0.58639 0.98202 0.0
H669 H 0.68321 0.56166 0.99538 0.0
H670 H 0.715 0.5959 0.98695 0.0
H671 H 0.62429 0.47274 0.92181 0.0
H672 H 0.61234 0.46749 0.94486 0.0
H673 H 0.60509 0.49284 0.93121 0.0
H674 H 0.58741 0.48116 1.00373 0.0
H675 H 0.56647 0.5375 0.96891 0.0
H676 H 0.66388 0.5061 0.99355 0.0
H677 H 0.64051 0.47396 0.97637 0.0
H678 H 0.62926 0.47155 0.99957 0.0
H679 H 0.64082 0.57858 0.95234 0.0
H680 H 0.59978 0.56696 0.94713 0.0
H681 H 0.61644 0.54605 0.93558 0.0
C682 C 0.41043 0.12745 0.94496 0.0
C683 C 0.3925 0.1375 0.95449 0.0
C684 C 0.42319 0.11075 0.95346 0.0
C685 C 0.4176 0.10371 0.97188 0.0
C686 C 0.39936 0.11365 0.98155 0.0
C687 C 0.38716 0.13064 0.97275 0.0
C688 C 0.44277 0.10077 0.94277 0.0
C689 C 0.3926 0.10618 1.00112 0.0
C690 C 0.42588 0.03473 0.98592 0.0
C691 C 0.45619 0.0501 0.99548 0.0
C692 C 0.41266 0.05194 0.97865 0.0
C693 C 0.43035 0.08533 0.9808 0.0
C694 C 0.46074 0.10103 0.99072 0.0
C695 C 0.47325 0.08319 0.99806 0.0
C696 C 0.38002 0.03438 0.96835 0.0
C697 C 0.48037 0.13664 0.99312 0.0
H698 H 0.41501 0.13322 0.93093 0.0
H699 H 0.37318 0.13834 0.98008 0.0
H700 H 0.46665 0.11063 0.95021 0.0
H701 H 0.43164 0.07466 0.94158 0.0
H702 H 0.44541 0.10869 0.92869 0.0
H703 H 0.37808 0.11572 1.00671 0.0
H704 H 0.37991 0.08022 1.00176 0.0
H705 H 0.4151 0.11617 1.01013 0.0
H706 H 0.41243 0.00914 0.98403 0.0
H707 H 0.49672 0.09517 1.00539 0.0
H708 H 0.3815 0.03944 0.95371 0.0
H709 H 0.36461 0.04254 0.97419 0.0
H710 H 0.36864 0.00841 0.96887 0.0
H711 H 0.4858 0.14582 0.97944 0.0
H712 H 0.50299 0.14521 1.00183 0.0
H713 H 0.4669 0.14674 0.99946 0.0
C714 C 0.70497 0.11571 0.94754 0.0
C715 C 0.71647 0.14782 0.94556 0.0
C716 C 0.67793 0.09819 0.95668 0.0
C717 C 0.66199 0.11314 0.96399 0.0
C718 C 0.67337 0.14549 0.96194 0.0
C719 C 0.70043 0.16242 0.95274 0.0
C720 C 0.66647 0.06371 0.95856 0.0
C721 C 0.65687 0.16219 0.9694 0.0
C722 C 0.57577 0.06114 0.97177 0.0
C723 C 0.57756 0.05848 0.99081 0.0
C724 C 0.603 0.07897 0.96293 0.0
C725 C 0.63289 0.09471 0.97335 0.0
C726 C 0.63493 0.0926 0.99261 0.0
C727 C 0.60721 0.07449 1.00113 0.0
C728 C 0.59974 0.0806 0.94237 0.0
C729 C 0.66644 0.10913 1.00416 0.0
H730 H 0.71747 0.10439 0.94222 0.0
H731 H 0.70894 0.18712 0.95104 0.0
H732 H 0.66593 0.05945 0.97333 0.0
H733 H 0.64196 0.04901 0.95189 0.0
H734 H 0.68168 0.05569 0.95225 0.0
H735 H 0.66907 0.18758 0.96696 0.0
H736 H 0.63222 0.15068 0.96283 0.0
H737 H 0.6556 0.16035 0.98443 0.0
H738 H 0.55303 0.04897 0.96362 0.0
H739 H 0.60886 0.07253 0.01581 0.0
H740 H 0.61294 0.07073 0.93545 0.0
H741 H 0.6102 0.10557 0.93928 0.0
H742 H 0.57469 0.06737 0.93632 0.0
H743 H 0.6818 0.10014 0.99928 0.0
H744 H 0.66397 0.10563 0.019 0.0
H745 H 0.67867 0.13484 1.00265 0.0
C746 C 0.80407 0.51791 0.94831 0.0
C747 C 0.81349 0.54678 0.94094 0.0
C748 C 0.82643 0.51129 0.95669 0.0
C749 C 0.859 0.53423 0.95791 0.0
C750 C 0.86864 0.56351 0.95058 0.0
C751 C 0.84578 0.56937 0.94211 0.0
C752 C 0.81521 0.47967 0.96416 0.0
C753 C 0.9031 0.58872 0.95179 0.0
C754 C 0.91363 0.5282 0.99467 0.0
C755 C 0.92767 0.51436 0.98436 0.0
C756 C 0.89151 0.53508 0.98621 0.0
C757 C 0.88294 0.52767 0.96698 0.0
C758 C 0.89703 0.51371 0.95648 0.0
C759 C 0.91932 0.50737 0.96527 0.0
C760 C 0.87726 0.55024 0.99786 0.0
C761 C 0.88832 0.50521 0.93598 0.0
H762 H 0.77916 0.50024 0.94724 0.0
H763 H 0.85313 0.59184 0.93659 0.0
H764 H 0.82628 0.46726 0.95743 0.0
H765 H 0.82261 0.48311 0.97914 0.0
H766 H 0.7891 0.46427 0.96194 0.0
H767 H 0.90668 0.61024 0.94547 0.0
H768 H 0.9131 0.59547 0.96643 0.0
H769 H 0.91669 0.57942 0.94477 0.0
H770 H 0.92 0.53384 1.0094 0.0
H771 H 0.92994 0.49658 0.95718 0.0
H772 H 0.85123 0.53458 0.99702 0.0
H773 H 0.88182 0.57278 0.99255 0.0
H774 H 0.88692 0.55514 0.01256 0.0
H775 H 0.8626 0.48819 0.93314 0.0
H776 H 0.90148 0.49458 0.92978 0.0
H777 H 0.89329 0.52657 0.92904 0.0
C778 C 0.40298 0.26258 0.94371 0.0
C779 C 0.38729 0.23643 0.95379 0.0
C780 C 0.41421 0.29329 0.95178 0.0
C781 C 0.40949 0.2979 0.97035 0.0
C782 C 0.39312 0.27156 0.98051 0.0
C783 C 0.38234 0.24106 0.97211 0.0
C784 C 0.43184 0.32083 0.94056 0.0
C785 C 0.38742 0.27567 1.00029 0.0
C786 C 0.46706 0.37812 0.99529 0.0
C787 C 0.4499 0.39393 0.99364 0.0
C788 C 0.45389 0.34658 0.9881 0.0
C789 C 0.42274 0.33044 0.97922 0.0
C790 C 0.40497 0.34599 0.97794 0.0
C791 C 0.41884 0.37765 0.9851 0.0
C792 C 0.47364 0.33079 0.98957 0.0
C793 C 0.37157 0.32937 0.9687 0.0
H794 H 0.40729 0.25906 0.92963 0.0
H795 H 0.37006 0.22079 0.97986 0.0
H796 H 0.42042 0.33551 0.9403 0.0
H797 H 0.45642 0.33611 0.94704 0.0
H798 H 0.43276 0.31311 0.92615 0.0
H799 H 0.373 0.25268 1.00598 0.0
H800 H 0.41037 0.28915 1.00893 0.0
H801 H 0.37517 0.28951 1.00141 0.0
H802 H 0.49108 0.39057 1.00187 0.0
H803 H 0.40535 0.38967 0.98391 0.0
H804 H 0.47758 0.32433 0.97559 0.0
H805 H 0.46096 0.30862 0.99629 0.0
H806 H 0.497 0.34624 0.99754 0.0
H807 H 0.37163 0.32321 0.95387 0.0
H808 H 0.36027 0.34415 0.9699 0.0
H809 H 0.3569 0.30695 0.97484 0.0
C810 C 0.17942 0.71308 0.07362 0.0
C811 C 0.17086 0.73419 0.0814 0.0
C812 C 0.15636 0.68317 0.06537 0.0
C813 C 0.12402 0.67428 0.06483 0.0
C814 C 0.11523 0.69552 0.07263 0.0
C815 C 0.13878 0.72523 0.08086 0.0
C816 C 0.1666 0.66105 0.05727 0.0
C817 C 0.08098 0.68692 0.07218 0.0
C818 C 0.06753 0.60921 0.02833 0.0
C819 C 0.05417 0.58287 0.03851 0.0
C820 C 0.08999 0.63918 0.03679 0.0
C821 C 0.09941 0.64287 0.05586 0.0
C822 C 0.08577 0.6165 0.06628 0.0
C823 C 0.06323 0.58679 0.05748 0.0
C824 C 0.1039 0.66683 0.02526 0.0
C825 C 0.09535 0.61956 0.08665 0.0
H826 H 0.20418 0.7198 0.07423 0.0
H827 H 0.13212 0.74165 0.0867 0.0
H828 H 0.1556 0.63869 0.06395 0.0
H829 H 0.15838 0.65495 0.04236 0.0
H830 H 0.19269 0.67148 0.05898 0.0
H831 H 0.07811 0.70604 0.079 0.0
H832 H 0.0703 0.68186 0.0577 0.0
H833 H 0.06748 0.66514 0.07912 0.0
H834 H 0.0606 0.60644 0.01368 0.0
H835 H 0.05308 0.56656 0.06545 0.0
H836 H 0.1298 0.67666 0.0255 0.0
H837 H 0.10013 0.68594 0.03111 0.0
H838 H 0.09336 0.66015 0.0107 0.0
H839 H 0.12098 0.62779 0.089 0.0
H840 H 0.08201 0.59688 0.09284 0.0
H841 H 0.09136 0.63752 0.09397 0.0
C842 C 0.29495 0.46996 0.08259 0.0
C843 C 0.27271 0.4386 0.08488 0.0
C844 C 0.32235 0.47732 0.07392 0.0
C845 C 0.32713 0.45263 0.06691 0.0
C846 C 0.30455 0.42086 0.06915 0.0
C847 C 0.27779 0.41426 0.07834 0.0
C848 C 0.34622 0.51152 0.07229 0.0
C849 C 0.30837 0.39382 0.06155 0.0
C850 C 0.38241 0.4701 0.02905 0.0
C851 C 0.40946 0.47299 0.03872 0.0
C852 C 0.35534 0.46319 0.03801 0.0
C853 C 0.35568 0.46002 0.0572 0.0
C854 C 0.38327 0.46372 0.06709 0.0
C855 C 0.40961 0.46971 0.05768 0.0
C856 C 0.32617 0.45869 0.02689 0.0
C857 C 0.38503 0.46143 0.08762 0.0
H858 H 0.29096 0.48874 0.08772 0.0
H859 H 0.26037 0.39 0.08 0.0
H860 H 0.36984 0.51711 0.07857 0.0
H861 H 0.34844 0.51586 0.05756 0.0
H862 H 0.33961 0.52794 0.0791 0.0
H863 H 0.28839 0.37046 0.06411 0.0
H864 H 0.31002 0.39453 0.04648 0.0
H865 H 0.33066 0.39611 0.06788 0.0
H866 H 0.38211 0.47238 0.01437 0.0
H867 H 0.43058 0.4722 0.06527 0.0
H868 H 0.3197 0.47609 0.03228 0.0
H869 H 0.30593 0.43481 0.02821 0.0
H870 H 0.32953 0.46138 0.01205 0.0
H871 H 0.37952 0.47842 0.09476 0.0
H872 H 0.40873 0.46635 0.09338 0.0
H873 H 0.36715 0.43744 0.09073 0.0
C874 C 0.60825 0.8768 0.07109 0.0
C875 C 0.58835 0.84397 0.07012 0.0
C876 C 0.59772 0.89601 0.06343 0.0
C877 C 0.56651 0.882 0.05474 0.0
C878 C 0.54643 0.84885 0.05359 0.0
C879 C 0.55761 0.83023 0.06128 0.0
C880 C 0.61982 0.9313 0.06481 0.0
C881 C 0.51291 0.83309 0.04457 0.0
C882 C 0.5272 0.93173 0.05178 0.0
C883 C 0.52947 0.9385 0.03332 0.0
C884 C 0.53939 0.91357 0.05894 0.0
C885 C 0.55437 0.90203 0.04741 0.0
C886 C 0.55696 0.90894 0.02881 0.0
C887 C 0.54438 0.92703 0.02196 0.0
C888 C 0.53598 0.9065 0.07883 0.0
C889 C 0.57292 0.8971 0.01615 0.0
H890 H 0.6321 0.88742 0.0778 0.0
H891 H 0.54199 0.8049 0.06076 0.0
H892 H 0.62223 0.93975 0.05089 0.0
H893 H 0.60988 0.94347 0.07296 0.0
H894 H 0.64371 0.93834 0.07142 0.0
H895 H 0.50068 0.80694 0.04433 0.0
H896 H 0.49917 0.84169 0.05208 0.0
H897 H 0.51279 0.83936 0.03021 0.0
H898 H 0.51569 0.94046 0.06066 0.0
H899 H 0.54636 0.93229 1.00772 0.0
H900 H 0.55959 0.91508 0.08633 0.0
H901 H 0.52208 0.88059 0.07957 0.0
H902 H 0.52407 0.91762 0.08602 0.0
H903 H 0.59745 0.90533 0.02208 0.0
H904 H 0.57371 0.90522 1.00219 0.0
H905 H 0.56016 0.87089 0.01482 0.0
C906 C 0.96059 0.15829 0.41145 0.0
C907 C 0.94096 0.17075 0.4151 0.0
C908 C 0.98791 0.17529 0.40245 0.0
C909 C -0.00474 0.20509 0.3966 0.0
C910 C 0.97521 0.21754 0.40007 0.0
C911 C 0.94847 0.20035 0.40948 0.0
C912 C 0.00912 0.1616 0.39943 0.0
C913 C 0.98196 0.24898 0.39379 0.0
C914 C 0.07942 0.2658 0.38931 0.0
C915 C 0.07906 0.26241 0.3701 0.0
C916 C 0.05263 0.24656 0.39813 0.0
C917 C 0.02451 0.22383 0.38744 0.0
C918 C 0.02413 0.21993 0.36803 0.0
C919 C 0.05163 0.23905 0.35958 0.0
C920 C 0.05433 0.25096 0.41888 0.0
C921 C -0.00561 0.19634 0.35616 0.0
H922 H 0.95475 0.1354 0.41588 0.0
H923 H 0.93302 0.20976 0.41214 0.0
H924 H 0.01151 0.15909 0.38452 0.0
H925 H 0.03315 0.17789 0.40636 0.0
H926 H 1e-05 0.13814 0.40479 0.0
H927 H 0.96322 0.25461 0.39679 0.0
H928 H 0.00487 0.26809 0.40073 0.0
H929 H 0.98404 0.24894 0.37874 0.0
H930 H 0.10078 0.28364 0.39749 0.0
H931 H 0.05131 0.23656 0.34472 0.0
H932 H 0.04655 0.22806 0.4247 0.0
H933 H 0.03807 0.25938 0.42288 0.0
H934 H 0.07857 0.26825 0.42522 0.0
H935 H 0.98544 0.17237 0.36071 0.0
H936 H -0.00176 0.19557 0.34135 0.0
H937 H 0.97567 0.20257 0.3577 0.0
C938 C 0.85247 0.80543 0.41077 0.0
C939 C 0.84236 0.77636 0.41804 0.0
C940 C 0.83067 0.81241 0.40198 0.0
C941 C 0.79801 0.78966 0.40026 0.0
C942 C 0.78769 0.76022 0.40751 0.0
C943 C 0.80997 0.75398 0.41638 0.0
C944 C 0.84257 0.8442 0.39461 0.0
C945 C 0.75311 0.73523 0.40579 0.0
C946 C 0.73789 0.81652 0.39219 0.0
C947 C 0.72984 0.80945 0.37309 0.0
C948 C 0.76019 0.81042 0.40119 0.0
C949 C 0.7746 0.79663 0.39087 0.0
C950 C 0.76653 0.78934 0.3716 0.0
C951 C 0.74438 0.79598 0.36293 0.0
C952 C 0.76837 0.81879 0.42173 0.0
C953 C 0.78118 0.77436 0.36015 0.0
H954 H 0.87746 0.8229 0.41219 0.0
H955 H 0.8021 0.73134 0.42179 0.0
H956 H 0.83577 0.841 0.37956 0.0
H957 H 0.83145 0.85673 0.40112 0.0
H958 H 0.86868 0.85936 0.39718 0.0
H959 H 0.74898 0.7135 0.41208 0.0
H960 H 0.73936 0.74459 0.41257 0.0
H961 H 0.74373 0.72878 0.39105 0.0
H962 H 0.72693 0.82708 0.40016 0.0
H963 H 0.73826 0.79033 0.34818 0.0
H964 H 0.79413 0.83543 0.42482 0.0
H965 H 0.76272 0.79727 0.42868 0.0
H966 H 0.75538 0.8298 0.42771 0.0
H967 H 0.80726 0.78984 0.36146 0.0
H968 H 0.77225 0.76999 0.34534 0.0
H969 H 0.77607 0.75155 0.3653 0.0
C970 C 0.22902 0.05824 0.39523 0.0
C971 C 0.26022 0.07747 0.40318 0.0
C972 C 0.21809 0.02704 0.38815 0.0
C973 C 0.23891 0.01485 0.38902 0.0
C974 C 0.2706 0.03428 0.39675 0.0
C975 C 0.28088 0.06541 0.4038 0.0
C976 C 0.18407 0.00694 0.38008 0.0
C977 C 0.2935 0.02208 0.39775 0.0
C978 C 0.20108 0.92578 0.38695 0.0
C979 C 0.20175 0.91793 0.36831 0.0
C980 C 0.2136 0.95734 0.39396 0.0
C981 C 0.22724 0.98156 0.38205 0.0
C982 C 0.22856 0.97385 0.36331 0.0
C983 C 0.21571 0.9421 0.35665 0.0
C984 C 0.21167 0.96473 0.41402 0.0
C985 C 0.24308 -0.00089 0.35024 0.0
H986 H 0.21285 0.06734 0.39501 0.0
H987 H 0.30507 0.08035 0.40984 0.0
H988 H 0.18303 -0.00225 0.36569 0.0
H989 H 0.17163 0.98623 0.38805 0.0
H990 H 0.17114 0.02023 0.38013 0.0
H991 H 0.31756 0.04049 0.40374 0.0
H992 H 0.28476 0.00184 0.40628 0.0
H993 H 0.29515 0.0133 0.38378 0.0
H994 H 0.19034 0.90723 0.39605 0.0
H995 H 0.2165 0.93625 0.34224 0.0
H996 H 0.19701 0.9761 0.41518 0.0
H997 H 0.23558 0.98171 0.42085 0.0
H998 H 0.20125 0.94326 0.42158 0.0
H999 H 0.22946 0.01159 0.34899 0.0
H1000 H 0.24354 0.98927 0.33628 0.0
H1001 H 0.26763 0.01696 0.35572 0.0
C1002 C 0.51548 0.59653 0.27712 0.0
C1003 C 0.4835 0.5876 0.27734 0.0
C1004 C 0.53943 0.62621 0.28515 0.0
C1005 C 0.53116 0.64745 0.29354 0.0
C1006 C 0.4989 0.63852 0.29386 0.0
C1007 C 0.47544 0.60864 0.28579 0.0
C1008 C 0.57357 0.63482 0.28468 0.0
C1009 C 0.4892 0.66062 0.30263 0.0
C1010 C 0.58984 0.71272 0.32924 0.0
C1011 C 0.60231 0.73903 0.319 0.0
C1012 C 0.56699 0.68271 0.32105 0.0
C1013 C 0.55622 0.67891 0.30218 0.0
C1014 C 0.56899 0.70524 0.29169 0.0
C1015 C 0.59197 0.73501 0.30022 0.0
C1016 C 0.55405 0.65512 0.33265 0.0
C1017 C 0.55799 0.70206 0.27153 0.0
H1018 H 0.52176 0.58016 0.27077 0.0
H1019 H 0.45074 0.60193 0.28579 0.0
H1020 H 0.58643 0.65648 0.27753 0.0
H1021 H 0.58527 0.64011 0.29893 0.0
H1022 H 0.57601 0.61563 0.27758 0.0
H1023 H 0.4631 0.65011 0.30165 0.0
H1024 H 0.49855 0.66689 0.31738 0.0
H1025 H 0.49949 0.6829 0.29587 0.0
H1026 H 0.59776 0.71557 0.34375 0.0
H1027 H 0.60142 0.75522 0.29222 0.0
H1028 H 0.5574 0.63598 0.3264 0.0
H1029 H 0.52826 0.64531 0.33311 0.0
H1030 H 0.56561 0.66188 0.347 0.0
H1031 H 0.56146 0.68406 0.26383 0.0
H1032 H 0.57078 0.72471 0.26522 0.0
H1033 H 0.53231 0.69383 0.26987 0.0
C1034 C 0.37165 0.90435 0.27742 0.0
C1035 C 0.38263 0.8829 0.27546 0.0
C1036 C 0.34447 0.89683 0.28639 0.0
C1037 C 0.32771 0.86704 0.29344 0.0
C1038 C 0.33845 0.84515 0.29126 0.0
C1039 C 0.36579 0.85337 0.28237 0.0
C1040 C 0.33389 0.92089 0.28852 0.0
C1041 C 0.32107 0.81301 0.29835 0.0
C1042 C 0.27401 0.85687 0.33132 0.0
C1043 C 0.24409 0.84243 0.32131 0.0
C1044 C 0.30143 0.86517 0.32242 0.0
C1045 C 0.29889 0.85869 0.30306 0.0
C1046 C 0.26874 0.84392 0.2929 0.0
C1047 C 0.24179 0.83605 0.30212 0.0
C1048 C 0.33316 0.88104 0.33373 0.0
C1049 C 0.26492 0.8364 0.27227 0.0
H1050 H 0.38473 0.9273 0.27227 0.0
H1051 H 0.37392 0.83653 0.28069 0.0
H1052 H 0.30936 0.91081 0.28199 0.0
H1053 H 0.33373 0.92698 0.30334 0.0
H1054 H 0.34944 0.94292 0.28223 0.0
H1055 H 0.33232 0.79858 0.2954 0.0
H1056 H 0.3203 0.81566 0.31346 0.0
H1057 H 0.29625 0.79996 0.29198 0.0
H1058 H 0.2761 0.86206 0.34611 0.0
H1059 H 0.21884 0.82485 0.29421 0.0
H1060 H 0.34896 0.9043 0.32875 0.0
H1061 H 0.34463 0.86653 0.33208 0.0
H1062 H 0.33118 0.88473 0.34862 0.0
H1063 H 0.27872 0.85838 0.26555 0.0
H1064 H 0.23983 0.8248 0.26639 0.0
H1065 H 0.2744 0.82059 0.26875 0.0
C1066 C 0.07736 0.45887 0.27942 0.0
C1067 C 0.06034 0.47047 0.28858 0.0
C1068 C 0.08925 0.44188 0.28843 0.0
C1069 C 0.08373 0.43618 0.30702 0.0
C1070 C 0.0663 0.44758 0.31631 0.0
C1071 C 0.05493 0.4648 0.30698 0.0
C1072 C 0.10797 0.43029 0.27812 0.0
C1073 C 0.05966 0.44156 0.33605 0.0
C1074 C 0.09085 0.36731 0.32243 0.0
C1075 C 0.12156 0.38265 0.33146 0.0
C1076 C 0.07775 0.38455 0.31505 0.0
C1077 C 0.09598 0.4179 0.31655 0.0
C1078 C 0.12664 0.4336 0.32612 0.0
C1079 C 0.13903 0.41574 0.33358 0.0
C1080 C 0.04481 0.36701 0.30514 0.0
C1081 C 0.14683 0.46916 0.32784 0.0
H1082 H 0.082 0.46372 0.26528 0.0
H1083 H 0.04165 0.47369 0.31403 0.0
H1084 H 0.13193 0.44009 0.28544 0.0
H1085 H 0.09626 0.40418 0.27763 0.0
H1086 H 0.11045 0.43707 0.26379 0.0
H1087 H 0.04557 0.45191 0.34125 0.0
H1088 H 0.04658 0.41576 0.3373 0.0
H1089 H 0.08222 0.45172 0.34503 0.0
H1090 H 0.07709 0.34172 0.32093 0.0
H1091 H 0.1628 0.4277 0.34051 0.0
H1092 H 0.04596 0.37068 0.29028 0.0
H1093 H 0.03011 0.37638 0.31061 0.0
H1094 H 0.03285 0.34122 0.30647 0.0
H1095 H 0.15247 0.47741 0.31397 0.0
H1096 H 0.16935 0.47779 0.33666 0.0
H1097 H 0.13373 0.48009 0.3337 0.0
C1098 C 0.36425 0.50192 0.28744 0.0
C1099 C 0.37948 0.48823 0.2782 0.0
C1100 C 0.33791 0.48365 0.2969 0.0
C1101 C 0.32655 0.45089 0.29719 0.0
C1102 C 0.34184 0.43693 0.28792 0.0
C1103 C 0.36808 0.45575 0.27849 0.0
C1104 C 0.32204 0.49934 0.30644 0.0
C1105 C 0.33046 0.40209 0.28797 0.0
C1106 C 0.27381 0.40752 0.33421 0.0
C1107 C 0.24371 0.39282 0.32443 0.0
C1108 C 0.30104 0.42658 0.32554 0.0
C1109 C 0.29803 0.43107 0.30669 0.0
C1110 C 0.26769 0.41658 0.29682 0.0
C1111 C 0.24097 0.39767 0.3058 0.0
C1112 C 0.33305 0.44165 0.33649 0.0
C1113 C 0.26343 0.42084 0.27672 0.0
H1114 H 0.37275 0.52694 0.28707 0.0
H1115 H 0.38 0.44515 0.27155 0.0
H1116 H 0.29713 0.48863 0.30042 0.0
H1117 H 0.32155 0.49543 0.32126 0.0
H1118 H 0.3342 0.52518 0.30523 0.0
H1119 H 0.34535 0.39501 0.28042 0.0
H1120 H 0.33051 0.39585 0.30234 0.0
H1121 H 0.30573 0.38808 0.28151 0.0
H1122 H 0.27618 0.40384 0.34858 0.0
H1123 H 0.21785 0.38654 0.29809 0.0
H1124 H 0.34525 0.46769 0.33627 0.0
H1125 H 0.34803 0.43342 0.33012 0.0
H1126 H 0.33136 0.43603 0.35106 0.0
H1127 H 0.27361 0.44631 0.27488 0.0
H1128 H 0.23817 0.40811 0.27107 0.0
H1129 H 0.27632 0.41208 0.26849 0.0
C1130 C 0.49734 0.89609 0.29443 0.0
C1131 C 0.48645 0.88598 0.27578 0.0
C1132 C 0.5198 0.88997 0.30318 0.0
C1133 C 0.53128 0.8729 0.29311 0.0
C1134 C 0.52028 0.86258 0.27427 0.0
C1135 C 0.49817 0.86946 0.26579 0.0
C1136 C 0.53128 0.9018 0.32321 0.0
C1137 C 0.53157 0.84391 0.26313 0.0
C1138 C 0.6089 0.8789 0.31095 0.0
C1139 C 0.59835 0.85159 0.32023 0.0
C1140 C 0.58736 0.88623 0.30215 0.0
C1141 C 0.55446 0.86549 0.30237 0.0
C1142 C 0.54367 0.83772 0.31154 0.0
C1143 C 0.56573 0.83124 0.32048 0.0
C1144 C 0.5998 0.9163 0.29274 0.0
C1145 C 0.5088 0.81475 0.31184 0.0
H1146 H 0.48854 0.90915 0.30212 0.0
H1147 H 0.48956 0.86139 0.25141 0.0
H1148 H 0.52538 0.88158 0.33148 0.0
H1149 H 0.5574 0.91709 0.32483 0.0
H1150 H 0.52067 0.91546 0.32894 0.0
H1151 H 0.5207 0.83759 0.24864 0.0
H1152 H 0.55765 0.85772 0.26311 0.0
H1153 H 0.5258 0.82185 0.26951 0.0
H1154 H 0.63406 0.89482 0.31075 0.0
H1155 H 0.55736 0.80994 0.32747 0.0
H1156 H 0.59096 0.93134 0.29881 0.0
H1157 H 0.59098 0.91068 0.27791 0.0
H1158 H 0.62605 0.93009 0.29399 0.0
H1159 H 0.49737 0.8267 0.31865 0.0
H1160 H 0.50428 0.79386 0.31921 0.0
H1161 H 0.49726 0.80644 0.29754 0.0
C1162 C 0.05436 0.57674 0.3042 0.0
C1163 C 0.05974 0.57154 0.28606 0.0
C1164 C 0.06573 0.60749 0.31237 0.0
C1165 C 0.08312 0.6335 0.30217 0.0
C1166 C 0.08837 0.62834 0.28379 0.0
C1167 C 0.07652 0.59737 0.27594 0.0
C1168 C 0.05943 0.61217 0.33194 0.0
C1169 C 0.10705 0.65553 0.27255 0.0
C1170 C 0.09248 0.71342 0.31641 0.0
C1171 C 0.12297 0.72936 0.32576 0.0
C1172 C 0.07894 0.68196 0.30897 0.0
C1173 C 0.09645 0.66623 0.31078 0.0
C1174 C 0.12713 0.68208 0.32031 0.0
C1175 C 0.13998 0.71345 0.32777 0.0
C1176 C 0.04604 0.66566 0.29902 0.0
C1177 C 0.14658 0.66607 0.32235 0.0
H1178 H 0.04123 0.55671 0.31198 0.0
H1179 H 0.08112 0.59338 0.262 0.0
H1180 H 0.08213 0.62569 0.3408 0.0
H1181 H 0.04733 0.62622 0.33253 0.0
H1182 H 0.0446 0.5894 0.33775 0.0
H1183 H 0.10851 0.64742 0.25834 0.0
H1184 H 0.09607 0.67058 0.2717 0.0
H1185 H 0.13141 0.67058 0.27937 0.0
H1186 H 0.07911 0.72551 0.31491 0.0
H1187 H 0.16358 0.72566 0.33494 0.0
H1188 H 0.0306 0.64353 0.30522 0.0
H1189 H 0.04687 0.65899 0.28439 0.0
H1190 H 0.0351 0.68081 0.29947 0.0
H1191 H 0.1335 0.64411 0.32921 0.0
H1192 H 0.1698 0.68151 0.33047 0.0
H1193 H 0.15081 0.65918 0.30855 0.0
C1194 C 0.84469 0.04843 0.41486 0.0
C1195 C 0.83713 0.07243 0.41669 0.0
C1196 C 0.82199 0.01797 0.40715 0.0
C1197 C 0.79138 0.01175 0.40072 0.0
C1198 C 0.78372 0.03604 0.40255 0.0
C1199 C 0.80665 0.06605 0.41075 0.0
C1200 C 0.83081 0.9925 0.4058 0.0
C1201 C 0.75162 0.03053 0.39544 0.0
C1202 C 0.74649 0.94367 0.36357 0.0
C1203 C 0.72465 0.92002 0.3735 0.0
C1204 C 0.76781 0.97385 0.3722 0.0
C1205 C 0.76786 0.98024 0.39133 0.0
C1206 C 0.74585 0.95641 0.40145 0.0
C1207 C 0.72414 0.92663 0.39233 0.0
C1208 C 0.79035 -0.00113 0.36085 0.0
C1209 C 0.74572 0.96215 0.42194 0.0
H1210 H 0.86828 0.05349 0.41964 0.0
H1211 H 0.80101 0.08481 0.41216 0.0
H1212 H 0.81357 0.97155 0.41231 0.0
H1213 H 0.82988 0.98472 0.39112 0.0
H1214 H 0.85491 0.00066 0.41252 0.0
H1215 H 0.74935 0.05182 0.39813 0.0
H1216 H 0.74737 0.0237 0.38037 0.0
H1217 H 0.73281 0.01074 0.40195 0.0
H1218 H 0.74668 0.93864 0.34896 0.0
H1219 H 0.70741 0.90824 0.40003 0.0
H1220 H 0.8151 0.0061 0.36576 0.0
H1221 H 0.78795 0.02021 0.36251 0.0
H1222 H 0.78615 0.99054 0.34597 0.0
H1223 H 0.76904 0.96843 0.42906 0.0
H1224 H 0.72705 0.94117 0.42778 0.0
H1225 H 0.74197 0.98241 0.42499 0.0
C1226 C 0.9407 0.76384 0.39993 0.0
C1227 C 0.94366 0.77432 0.41857 0.0
C1228 C 0.96739 0.77003 0.39085 0.0
C1229 C -0.0021 0.78757 0.40055 0.0
C1230 C 0.00105 0.79816 0.41941 0.0
C1231 C 0.97385 0.79118 0.42824 0.0
C1232 C 0.9629 0.75764 0.37087 0.0
C1233 C 0.03317 0.81719 0.43019 0.0
C1234 C 0.06487 0.77971 0.38199 0.0
C1235 C 0.07947 0.80627 0.37204 0.0
C1236 C 0.03836 0.77336 0.3913 0.0
C1237 C 0.0264 0.79438 0.39096 0.0
C1238 C 0.04123 0.82144 0.38112 0.0
C1239 C 0.0674 0.8269 0.37162 0.0
C1240 C 0.02295 0.74396 0.40133 0.0
C1241 C 0.02953 0.84471 0.38071 0.0
H1242 H 0.91736 0.7505 0.39248 0.0
H1243 H 0.97621 0.7995 0.44261 0.0
H1244 H 0.97535 0.77757 0.36236 0.0
H1245 H 0.97344 0.74226 0.36926 0.0
H1246 H 0.93757 0.7439 0.36541 0.0
H1247 H 0.03162 0.82412 0.44466 0.0
H1248 H 0.04551 0.80336 0.43034 0.0
H1249 H 0.04797 0.83889 0.42345 0.0
H1250 H 0.07396 0.76357 0.38236 0.0
H1251 H 0.07875 0.84763 0.36412 0.0
H1252 H -0.0022 0.7289 0.39577 0.0
H1253 H 0.02329 0.75044 0.41616 0.0
H1254 H 0.03492 0.72983 0.40008 0.0
H1255 H 0.0048 0.83278 0.37423 0.0
H1256 H 0.04429 0.86512 0.37296 0.0
H1257 H 0.0295 0.85369 0.39497 0.0
C1258 C 0.27764 0.21081 0.40255 0.0
C1259 C 0.2579 0.17805 0.40227 0.0
C1260 C 0.26665 0.22944 0.39459 0.0
C1261 C 0.23513 0.21491 0.38632 0.0
C1262 C 0.21527 0.18179 0.38575 0.0
C1263 C 0.22691 0.16375 0.39372 0.0
C1264 C 0.28852 0.2647 0.39535 0.0
C1265 C 0.18143 0.1655 0.3772 0.0
C1266 C 0.19534 0.26422 0.38438 0.0
C1267 C 0.19657 0.27075 0.36589 0.0
C1268 C 0.20793 0.24618 0.39119 0.0
C1269 C 0.22224 0.23449 0.37923 0.0
C1270 C 0.22365 0.24099 0.36056 0.0
C1271 C 0.21068 0.259 0.35407 0.0
C1272 C 0.20577 0.23953 0.41117 0.0
C1273 C 0.23887 0.22896 0.34746 0.0
H1274 H 0.30168 0.22184 0.40902 0.0
H1275 H 0.21144 0.13848 0.39372 0.0
H1276 H 0.28971 0.27259 0.38131 0.0
H1277 H 0.27916 0.27709 0.40381 0.0
H1278 H 0.31285 0.27207 0.40132 0.0
H1279 H 0.16963 0.13939 0.37705 0.0
H1280 H 0.16779 0.17385 0.38503 0.0
H1281 H 0.1805 0.17157 0.36285 0.0
H1282 H 0.18443 0.27314 0.39362 0.0
H1283 H 0.21184 0.26406 0.33979 0.0
H1284 H 0.22978 0.24856 0.41823 0.0
H1285 H 0.19231 0.21366 0.41214 0.0
H1286 H 0.19403 0.25054 0.41866 0.0
H1287 H 0.26379 0.23765 0.3528 0.0
H1288 H 0.23849 0.23652 0.33343 0.0
H1289 H 0.22643 0.20277 0.34645 0.0
C1290 C 0.61227 0.53063 0.74171 0.0
C1291 C 0.60526 0.50124 0.74748 0.0
C1292 C 0.63867 0.54783 0.73202 0.0
C1293 C 0.65889 0.53563 0.7284 0.0
C1294 C 0.65201 0.50604 0.73437 0.0
C1295 C 0.62505 0.48902 0.74366 0.0
C1296 C 0.64493 0.57908 0.72566 0.0
C1297 C 0.67341 0.49262 0.73121 0.0
C1298 C 0.71506 0.57006 0.69126 0.0
C1299 C 0.74241 0.59359 0.70176 0.0
C1300 C 0.68763 0.55074 0.69975 0.0
C1301 C 0.68802 0.55461 0.71917 0.0
C1302 C 0.71609 0.5775 0.72983 0.0
C1303 C 0.74275 0.59693 0.72097 0.0
C1304 C 0.65795 0.52696 0.68791 0.0
C1305 C 0.71787 0.58187 0.75059 0.0
H1306 H 0.59672 0.53986 0.74448 0.0
H1307 H 0.61964 0.46631 0.74821 0.0
H1308 H 0.66776 0.59842 0.73256 0.0
H1309 H 0.64693 0.57899 0.71061 0.0
H1310 H 0.62599 0.58441 0.72868 0.0
H1311 H 0.66452 0.46913 0.73653 0.0
H1312 H 0.67576 0.49024 0.71629 0.0
H1313 H 0.69744 0.50901 0.73813 0.0
H1314 H 0.71474 0.56758 0.67641 0.0
H1315 H 0.764 0.61489 0.72915 0.0
H1316 H 0.63908 0.53295 0.68947 0.0
H1317 H 0.64923 0.50302 0.69247 0.0
H1318 H 0.66177 0.52622 0.6731 0.0
H1319 H 0.70143 0.59002 0.75465 0.0
H1320 H 0.74207 0.59936 0.75689 0.0
H1321 H 0.71042 0.55902 0.75641 0.0
C1322 C 0.5194 0.13805 0.74508 0.0
C1323 C 0.50971 0.10861 0.75177 0.0
C1324 C 0.49743 0.14462 0.73609 0.0
C1325 C 0.46502 0.12109 0.73359 0.0
C1326 C 0.45512 0.09128 0.74024 0.0
C1327 C 0.47756 0.08544 0.7493 0.0
C1328 C 0.50888 0.1768 0.72936 0.0
C1329 C 0.42084 0.06547 0.7377 0.0
C1330 C 0.40327 0.14577 0.72508 0.0
C1331 C 0.39639 0.13972 0.70587 0.0
C1332 C 0.42568 0.14 0.73426 0.0
C1333 C 0.44143 0.12764 0.72402 0.0
C1334 C 0.43452 0.12137 0.70464 0.0
C1335 C 0.4122 0.12761 0.6958 0.0
C1336 C 0.43254 0.14721 0.75492 0.0
C1337 C 0.45063 0.10795 0.69326 0.0
H1338 H 0.54418 0.15614 0.74712 0.0
H1339 H 0.47 0.06251 0.75424 0.0
H1340 H 0.50287 0.17437 0.71426 0.0
H1341 H 0.49676 0.18829 0.73587 0.0
H1342 H 0.53483 0.19254 0.73246 0.0
H1343 H 0.41703 0.04355 0.7436 0.0
H1344 H 0.4061 0.07369 0.74437 0.0
H1345 H 0.41235 0.05973 0.72282 0.0
H1346 H 0.39132 0.15526 0.73299 0.0
H1347 H 0.407 0.12277 0.68097 0.0
H1348 H 0.45803 0.16444 0.75857 0.0
H1349 H 0.42723 0.12541 0.76146 0.0
H1350 H 0.4185 0.15704 0.76084 0.0
H1351 H 0.47661 0.12411 0.69512 0.0
H1352 H 0.4425 0.10425 0.67835 0.0
H1353 H 0.44595 0.08501 0.698 0.0
C1354 C 0.94937 0.4011 0.73524 0.0
C1355 C 0.9286 0.41303 0.73512 0.0
C1356 C 0.93904 0.37007 0.72796 0.0
C1357 C 0.90717 0.35058 0.72055 0.0
C1358 C 0.88626 0.36268 0.72013 0.0
C1359 C 0.89726 0.3938 0.7274 0.0
C1360 C 0.96204 0.35798 0.72849 0.0
C1361 C 0.85204 0.34249 0.71244 0.0
C1362 C 0.88269 0.27683 0.6887 0.0
C1363 C 0.86961 0.25316 0.70075 0.0
C1364 C 0.89564 0.30876 0.69504 0.0
C1365 C 0.89526 0.31712 0.71382 0.0
C1366 C 0.8824 0.29339 0.72609 0.0
C1367 C 0.86982 0.26168 0.71941 0.0
C1368 C 0.90935 0.33351 0.6816 0.0
C1369 C 0.88143 0.30145 0.7462 0.0
H1370 H 0.97367 0.41605 0.7411 0.0
H1371 H 0.88102 0.4028 0.72755 0.0
H1372 H 0.95401 0.33813 0.73729 0.0
H1373 H 0.96281 0.34868 0.71446 0.0
H1374 H 0.98635 0.3766 0.73394 0.0
H1375 H 0.83918 0.35585 0.71257 0.0
H1376 H 0.85047 0.33289 0.69808 0.0
H1377 H 0.8399 0.32206 0.72066 0.0
H1378 H 0.88278 0.27045 0.67428 0.0
H1379 H 0.85974 0.24353 0.72881 0.0
H1380 H 0.93409 0.35149 0.68664 0.0
H1381 H 0.89567 0.34596 0.68054 0.0
H1382 H 0.90907 0.32321 0.66763 0.0
H1383 H 0.90561 0.31851 0.75265 0.0
H1384 H 0.87135 0.28026 0.75401 0.0
H1385 H 0.86694 0.31296 0.74753 0.0
C1386 C 0.14139 0.9394 0.61825 0.0
C1387 C 0.14901 0.91815 0.60962 0.0
C1388 C 0.16518 0.96922 0.62623 0.0
C1389 C 0.19732 0.97788 0.62562 0.0
C1390 C 0.20516 0.95646 0.617 0.0
C1391 C 0.18089 0.92685 0.60908 0.0
C1392 C 0.15593 0.99151 0.63523 0.0
C1393 C 0.23916 0.96476 0.61623 0.0
C1394 C 0.25871 0.06532 0.63235 0.0
C1395 C 0.26927 0.06917 0.65109 0.0
C1396 C 0.2355 0.03564 0.62381 0.0
C1397 C 0.22273 0.00923 0.63424 0.0
C1398 C 0.23378 0.01283 0.65304 0.0
C1399 C 0.25685 0.04276 0.66125 0.0
C1400 C 0.22421 0.03267 0.60373 0.0
C1401 C 0.22089 0.98516 0.66458 0.0
H1402 H 0.11678 0.93288 0.6185 0.0
H1403 H 0.18685 0.91033 0.60259 0.0
H1404 H 0.16549 -0.0024 0.64994 0.0
H1405 H 0.16633 0.01387 0.62853 0.0
H1406 H 0.12987 0.98126 0.6344 0.0
H1407 H 0.24125 0.9455 0.60892 0.0
H1408 H 0.25203 0.98648 0.60913 0.0
H1409 H 0.2511 0.96982 0.6304 0.0
H1410 H 0.26811 0.0856 0.62441 0.0
H1411 H 0.26495 0.04547 0.67571 0.0
H1412 H 0.19859 0.02472 0.60225 0.0
H1413 H 0.2273 0.01454 0.59587 0.0
H1414 H 0.23708 0.05533 0.59744 0.0
H1415 H 0.19517 0.97557 0.66525 0.0
H1416 H 0.23275 0.99173 0.67885 0.0
H1417 H 0.22388 0.96591 0.65812 0.0
C1418 C 0.03898 0.2366 0.61078 0.0
C1419 C 0.04957 0.21483 0.60886 0.0
C1420 C 0.01178 0.22941 0.61965 0.0
C1421 C -0.00542 0.19963 0.62663 0.0
C1422 C 0.00493 0.17741 0.62449 0.0
C1423 C 0.03232 0.18531 0.6157 0.0
C1424 C 0.00166 0.25384 0.62175 0.0
C1425 C 0.98709 0.14527 0.63153 0.0
C1426 C 0.94126 0.19065 0.66452 0.0
C1427 C 0.91131 0.17653 0.65456 0.0
C1428 C 0.96854 0.19838 0.65561 0.0
C1429 C 0.96586 0.19174 0.63626 0.0
C1430 C 0.9357 0.17734 0.62613 0.0
C1431 C 0.90885 0.16996 0.63539 0.0
C1432 C 0.00027 0.2138 0.66689 0.0
C1433 C 0.93175 0.16974 0.60551 0.0
H1434 H 0.05238 0.25956 0.60569 0.0
H1435 H 0.04015 0.16823 0.61405 0.0
H1436 H 0.97717 0.24406 0.61523 0.0
H1437 H 0.0016 0.26004 0.63657 0.0
H1438 H 0.01745 0.27577 0.61545 0.0
H1439 H -0.00202 0.13051 0.62855 0.0
H1440 H 0.98633 0.14792 0.64664 0.0
H1441 H 0.96228 0.13257 0.62514 0.0
H1442 H 0.9435 0.19594 0.67931 0.0
H1443 H 0.88589 0.15898 0.62752 0.0
H1444 H 0.01638 0.23695 0.6619 0.0
H1445 H 0.01133 0.19891 0.66523 0.0
H1446 H -0.00159 0.21762 0.68179 0.0
H1447 H 0.94567 0.19167 0.59877 0.0
H1448 H 0.90665 0.15833 0.59967 0.0
H1449 H 0.941 0.15374 0.60197 0.0
C1450 C 0.7037 0.77534 0.62859 0.0
C1451 C 0.72439 0.80469 0.62264 0.0
C1452 C 0.71542 0.75762 0.63699 0.0
C1453 C 0.74846 0.76932 0.63896 0.0
C1454 C 0.76936 0.79897 0.63285 0.0
C1455 C 0.75703 0.81648 0.62493 0.0
C1456 C 0.69253 0.72638 0.64368 0.0
C1457 C 0.80465 0.81187 0.63429 0.0
C1458 C 0.78485 0.73705 0.67265 0.0
C1459 C 0.78709 0.7147 0.66105 0.0
C1460 C 0.77157 0.75453 0.66573 0.0
C1461 C 0.76121 0.75007 0.64673 0.0
C1462 C 0.76383 0.72778 0.63495 0.0
C1463 C 0.77638 0.71007 0.64231 0.0
C1464 C 0.76851 0.77766 0.67874 0.0
C1465 C 0.75386 0.72297 0.61452 0.0
H1466 H 0.67844 0.76649 0.62682 0.0
H1467 H 0.77286 0.83919 0.62017 0.0
H1468 H 0.69361 0.70693 0.63589 0.0
H1469 H 0.69921 0.7261 0.65842 0.0
H1470 H 0.66776 0.72153 0.64207 0.0
H1471 H 0.81759 0.83536 0.62891 0.0
H1472 H 0.81386 0.81407 0.64886 0.0
H1473 H 0.80988 0.79525 0.62644 0.0
H1474 H 0.79293 0.74043 0.68717 0.0
H1475 H 0.77842 0.69299 0.63328 0.0
H1476 H 0.74353 0.77207 0.67794 0.0
H1477 H 0.78278 0.80195 0.67466 0.0
H1478 H 0.77644 0.77733 0.69326 0.0
H1479 H 0.72841 0.71545 0.61211 0.0
H1480 H 0.75787 0.70495 0.60724 0.0
H1481 H 0.76725 0.74559 0.60831 0.0
C1482 C 0.03303 0.78678 0.61191 0.0
C1483 C 0.04477 0.81927 0.61139 0.0
C1484 C 0.00669 0.76837 0.62139 0.0
C1485 C 0.99162 0.78278 0.63046 0.0
C1486 C 0.00337 0.81557 0.62997 0.0
C1487 C 0.02981 0.83341 0.62048 0.0
C1488 C -0.00508 0.73349 0.62166 0.0
C1489 C 0.98775 0.83174 0.63928 0.0
C1490 C 0.90566 0.73029 0.63866 0.0
C1491 C 0.90798 0.72556 0.65736 0.0
C1492 C 0.93264 0.749 0.62982 0.0
C1493 C 0.96283 0.76335 0.63987 0.0
C1494 C 0.96541 0.75903 0.65879 0.0
C1495 C 0.93792 0.74023 0.66733 0.0
C1496 C 0.92881 0.75315 0.60965 0.0
C1497 C -0.00276 0.7739 0.66992 0.0
H1498 H 0.04472 0.77581 0.60508 0.0
H1499 H 0.03856 0.85845 0.61993 0.0
H1500 H -0.00544 0.72741 0.63609 0.0
H1501 H 0.97029 0.71964 0.61504 0.0
H1502 H 0.0098 0.72608 0.61438 0.0
H1503 H 0.00029 0.85757 0.63801 0.0
H1504 H 0.96296 0.82132 0.63311 0.0
H1505 H 0.98694 0.82792 0.65411 0.0
H1506 H 0.88266 0.71915 0.63079 0.0
H1507 H 0.93997 0.7366 0.68174 0.0
H1508 H 0.94158 0.74399 0.60162 0.0
H1509 H 0.93939 0.77861 0.60771 0.0
H1510 H 0.90362 0.74068 0.60387 0.0
H1511 H 0.01207 0.76523 0.66381 0.0
H1512 H -0.00479 0.76855 0.68453 0.0
H1513 H 0.0098 0.79991 0.66953 0.0
C1514 C 0.16389 0.22638 0.62769 0.0
C1515 C 0.15301 0.21681 0.609 0.0
C1516 C 0.18648 0.22017 0.63618 0.0
C1517 C 0.1981 0.20356 0.62579 0.0
C1518 C 0.18707 0.19371 0.60692 0.0
C1519 C 0.16482 0.20067 0.59872 0.0
C1520 C 0.19797 0.23144 0.65626 0.0
C1521 C 0.19847 0.17551 0.59544 0.0
C1522 C 0.27589 0.2094 0.64316 0.0
C1523 C 0.2654 0.1818 0.65214 0.0
C1524 C 0.25427 0.21688 0.6346 0.0
C1525 C 0.22138 0.19599 0.63476 0.0
C1526 C 0.21067 0.16789 0.64358 0.0
C1527 C 0.23279 0.16127 0.65228 0.0
C1528 C 0.26662 0.24727 0.62554 0.0
C1529 C 0.17581 0.14475 0.64379 0.0
H1530 H 0.15502 0.23915 0.63561 0.0
H1531 H 0.15623 0.19301 0.5843 0.0
H1532 H 0.19222 0.21097 0.66427 0.0
H1533 H 0.22407 0.24686 0.65789 0.0
H1534 H 0.18723 0.24479 0.66226 0.0
H1535 H 0.18755 0.16955 0.58097 0.0
H1536 H 0.22454 0.18949 0.59541 0.0
H1537 H 0.19286 0.15327 0.60156 0.0
H1538 H 0.30105 0.22544 0.64305 0.0
H1539 H 0.22445 0.13974 0.65905 0.0
H1540 H 0.25781 0.26211 0.63192 0.0
H1541 H 0.25771 0.24209 0.61073 0.0
H1542 H 0.29288 0.26108 0.62674 0.0
H1543 H 0.16434 0.15639 0.65088 0.0
H1544 H 0.17137 0.12359 0.65085 0.0
H1545 H 0.16426 0.13691 0.62948 0.0
C1546 C 0.73856 0.93106 0.61111 0.0
C1547 C 0.72309 0.90526 0.62146 0.0
C1548 C 0.75068 0.96202 0.61908 0.0
C1549 C 0.74701 0.96718 0.63779 0.0
C1550 C 0.73088 0.94119 0.64822 0.0
C1551 C 0.71923 0.91047 0.63993 0.0
C1552 C 0.768 0.98921 0.60758 0.0
C1553 C 0.72624 0.94585 0.66815 0.0
C1554 C 0.80523 0.04733 0.6627 0.0
C1555 C 0.78793 0.06306 0.66159 0.0
C1556 C 0.79204 0.01594 0.65518 0.0
C1557 C 0.76073 -0.00011 0.64652 0.0
C1558 C 0.7429 0.01541 0.64569 0.0
C1559 C 0.75678 0.04689 0.65317 0.0
C1560 C 0.81182 0.00016 0.65617 0.0
C1561 C 0.70932 -0.00112 0.63671 0.0
H1562 H 0.74194 0.92705 0.5969 0.0
H1563 H 0.70706 0.89045 0.64789 0.0
H1564 H 0.75677 0.00407 0.60744 0.0
H1565 H 0.79279 0.00444 0.61374 0.0
H1566 H 0.76828 0.9811 0.59313 0.0
H1567 H 0.71217 0.92308 0.67413 0.0
H1568 H 0.74956 0.95951 0.67641 0.0
H1569 H 0.71408 0.95975 0.66947 0.0
H1570 H 0.82934 0.05971 0.66915 0.0
H1571 H 0.7432 0.05886 0.65236 0.0
H1572 H 0.81496 0.99338 0.64205 0.0
H1573 H 0.79957 0.97816 0.6631 0.0
H1574 H 0.83554 0.01572 0.66373 0.0
H1575 H 0.70893 0.99233 0.62188 0.0
H1576 H 0.69823 0.01384 0.63794 0.0
H1577 H 0.69472 0.97667 0.64306 0.0
C1578 C 0.5106 0.37828 0.74842 0.0
C1579 C 0.50273 0.40205 0.75026 0.0
C1580 C 0.48815 0.34775 0.74066 0.0
C1581 C 0.45747 0.34126 0.73414 0.0
C1582 C 0.44947 0.36529 0.73601 0.0
C1583 C 0.47215 0.39536 0.74429 0.0
C1584 C 0.49733 0.32255 0.73927 0.0
C1585 C 0.4173 0.35952 0.72882 0.0
C1586 C 0.41331 0.27372 0.69657 0.0
C1587 C 0.3913 0.24983 0.70628 0.0
C1588 C 0.43451 0.30378 0.70541 0.0
C1589 C 0.43427 0.30977 0.72456 0.0
C1590 C 0.41215 0.28565 0.73447 0.0
C1591 C 0.39056 0.25602 0.72513 0.0
C1592 C 0.45717 0.32911 0.69427 0.0
C1593 C 0.41173 0.29095 0.75498 0.0
H1594 H 0.53428 0.38358 0.75321 0.0
H1595 H 0.46627 0.41395 0.74567 0.0
H1596 H 0.48005 0.30136 0.74559 0.0
H1597 H 0.4968 0.31511 0.72458 0.0
H1598 H 0.52134 0.33084 0.74616 0.0
H1599 H 0.41471 0.38059 0.73163 0.0
H1600 H 0.41332 0.35299 0.71372 0.0
H1601 H 0.39852 0.33944 0.73517 0.0
H1602 H 0.41371 0.26899 0.68194 0.0
H1603 H 0.37371 0.23742 0.73268 0.0
H1604 H 0.48189 0.33648 0.69931 0.0
H1605 H 0.45452 0.35029 0.69597 0.0
H1606 H 0.45328 0.32102 0.67935 0.0
H1607 H 0.43508 0.29747 0.76215 0.0
H1608 H 0.39319 0.26968 0.76067 0.0
H1609 H 0.40756 0.3109 0.75812 0.0
C1610 C 0.61821 0.08579 0.7478 0.0
C1611 C 0.61272 0.11004 0.75394 0.0
C1612 C 0.64491 0.09236 0.73858 0.0
C1613 C 0.66703 0.12406 0.73588 0.0
C1614 C 0.66189 0.1487 0.74249 0.0
C1615 C 0.63453 0.14133 0.7512 0.0
C1616 C 0.64913 0.06535 0.7314 0.0
C1617 C 0.68527 0.18284 0.74036 0.0
C1618 C 0.74952 0.14148 0.72647 0.0
C1619 C 0.74886 0.14376 0.7074 0.0
C1620 C 0.72336 0.13581 0.73596 0.0
C1621 C 0.69546 0.13138 0.72608 0.0
C1622 C 0.69464 0.13359 0.7068 0.0
C1623 C 0.72154 0.14022 0.69773 0.0
C1624 C 0.7256 0.13456 0.75658 0.0
C1625 C 0.66513 0.1283 0.69569 0.0
H1626 H 0.60111 0.06157 0.74979 0.0
H1627 H 0.63021 0.16005 0.75601 0.0
H1628 H 0.65043 0.06541 0.71628 0.0
H1629 H 0.6717 0.06827 0.73771 0.0
H1630 H 0.6295 0.04204 0.73433 0.0
H1631 H 0.67849 0.19927 0.74697 0.0
H1632 H 0.70912 0.189 0.74656 0.0
H1633 H 0.68708 0.18657 0.72554 0.0
H1634 H 0.7707 0.14448 0.73404 0.0
H1635 H 0.72086 0.14173 0.68298 0.0
H1636 H 0.70791 0.11078 0.7601 0.0
H1637 H 0.72011 0.1518 0.76342 0.0
H1638 H 0.74944 0.13984 0.76232 0.0
H1639 H 0.64517 0.10441 0.69732 0.0
H1640 H 0.6682 0.13044 0.68079 0.0
H1641 H 0.65842 0.14564 0.70084 0.0
C1642 C 0.94507 0.54625 0.73616 0.0
C1643 C 0.92561 0.51342 0.73571 0.0
C1644 C 0.93364 0.56484 0.72862 0.0
C1645 C 0.90199 0.55018 0.72055 0.0
C1646 C 0.88236 0.51701 0.71989 0.0
C1647 C 0.89441 0.49904 0.72748 0.0
C1648 C 0.95526 0.60015 0.72948 0.0
C1649 C 0.84841 0.50057 0.71151 0.0
C1650 C 0.86136 0.59873 0.71809 0.0
C1651 C 0.86256 0.60491 0.69953 0.0
C1652 C 0.87434 0.58115 0.72512 0.0
C1653 C 0.88896 0.56956 0.71334 0.0
C1654 C 0.89043 0.57582 0.69463 0.0
C1655 C 0.87713 0.59339 0.68792 0.0
C1656 C 0.87219 0.5748 0.74515 0.0
C1657 C 0.90592 0.56385 0.68169 0.0
H1658 H 0.96926 0.55738 0.74239 0.0
H1659 H 0.87914 0.47371 0.72737 0.0
H1660 H 0.9567 0.60806 0.71544 0.0
H1661 H 0.94551 0.61234 0.73777 0.0
H1662 H 0.97954 0.60774 0.73566 0.0
H1663 H 0.83662 0.47449 0.71155 0.0
H1664 H 0.83488 0.50911 0.71928 0.0
H1665 H 0.84731 0.50631 0.69709 0.0
H1666 H 0.85014 0.60753 0.72717 0.0
H1667 H 0.87825 0.59817 0.67359 0.0
H1668 H 0.89621 0.58392 0.75223 0.0
H1669 H 0.85876 0.54896 0.74623 0.0
H1670 H 0.86042 0.58588 0.75253 0.0
H1671 H 0.93078 0.57259 0.68715 0.0
H1672 H 0.90571 0.57138 0.66763 0.0
H1673 H 0.89351 0.53766 0.68069 0.0
C1674 C 0.42704 0.91738 0.20932 0.0
C1675 C 0.45136 0.92784 0.2237 0.0
C1676 C 0.43292 0.93026 0.19227 0.0
C1677 C 0.46388 0.95412 0.18947 0.0
C1678 C 0.48837 0.96517 0.20404 0.0
C1679 C 0.48181 0.952 0.22095 0.0
C1680 C 0.40614 0.91789 0.17711 0.0
C1681 C 0.52169 0.9906 0.20167 0.0
C1682 C 0.48842 0.96539 0.14073 0.0
C1683 C 0.48694 0.99244 0.13694 0.0
C1684 C 0.48062 0.9525 0.15766 0.0
C1685 C 0.47101 0.96691 0.17117 0.0
C1686 C 0.46914 -0.00597 0.16738 0.0
C1687 C 0.47721 0.0065 0.15034 0.0
C1688 C 0.48315 0.9237 0.16118 0.0
C1689 C 0.45879 0.00996 0.18136 0.0
H1690 H 0.40353 0.89853 0.21123 0.0
H1691 H 0.50063 0.96067 0.23207 0.0
H1692 H 0.40393 0.93769 0.17198 0.0
H1693 H 0.41122 0.90645 0.16531 0.0
H1694 H 0.38313 0.90044 0.18175 0.0
H1695 H 0.53791 -0.00294 0.21446 0.0
H1696 H 0.53109 0.98244 0.19049 0.0
H1697 H 0.52178 0.01211 0.19755 0.0
H1698 H 0.49629 0.95459 0.13056 0.0
H1699 H 0.47559 0.02715 0.14744 0.0
H1700 H 0.46016 0.90445 0.16473 0.0
H1701 H 0.50083 0.92943 0.17312 0.0
H1702 H 0.49023 0.91483 0.14909 0.0
H1703 H 0.43507 0.99278 0.18523 0.0
H1704 H 0.4578 0.03036 0.17612 0.0
H1705 H 0.47538 0.01843 0.19409 0.0
C1706 C 0.0265 0.47831 0.21933 0.0
C1707 C 0.01372 0.49075 0.2317 0.0
C1708 C 0.01636 0.47259 0.20046 0.0
C1709 C 0.99299 0.47959 0.19384 0.0
C1710 C 0.97914 0.49101 0.20634 0.0
C1711 C 0.98968 0.49644 0.22515 0.0
C1712 C 0.03163 0.46034 0.18752 0.0
C1713 C 0.95406 0.49863 0.19978 0.0
C1714 C -0.00558 0.50104 0.14474 0.0
C1715 C 0.96965 0.47299 0.13549 0.0
C1716 C 0.00217 0.50347 0.16375 0.0
C1717 C 0.98472 0.47717 0.17373 0.0
C1718 C 0.95964 0.44877 0.1645 0.0
C1719 C 0.95236 0.44702 0.14546 0.0
C1720 C 0.02899 0.53422 0.17315 0.0
C1721 C 0.94067 0.42023 0.17472 0.0
H1722 H 0.04536 0.47423 0.22428 0.0
H1723 H 0.97945 0.50565 0.23472 0.0
H1724 H 0.01329 0.4395 0.17849 0.0
H1725 H 0.04575 0.47881 0.17847 0.0
H1726 H 0.04745 0.45356 0.19501 0.0
H1727 H 0.94415 0.50521 0.21138 0.0
H1728 H 0.96432 0.51857 0.19104 0.0
H1729 H 0.93448 0.47808 0.19116 0.0
H1730 H 0.00753 0.5213 0.13712 0.0
H1731 H 0.9334 0.4252 0.1383 0.0
H1732 H 0.04738 0.53017 0.17994 0.0
H1733 H 0.02018 0.5436 0.18406 0.0
H1734 H 0.04016 0.55243 0.16338 0.0
H1735 H 0.9565 0.41264 0.18132 0.0
H1736 H 0.92173 0.40002 0.16553 0.0
H1737 H 0.92968 0.42634 0.18589 0.0
C1738 C 0.45286 0.52967 0.20978 0.0
C1739 C 0.44079 0.5073 0.22267 0.0
C1740 C 0.45911 0.52183 0.19241 0.0
C1741 C 0.45266 0.49069 0.18763 0.0
C1742 C 0.4391 0.46756 0.20021 0.0
C1743 C 0.43344 0.47618 0.21764 0.0
C1744 C 0.47361 0.54722 0.17941 0.0
C1745 C 0.43149 0.43399 0.19548 0.0
C1746 C 0.45103 0.46966 0.13663 0.0
C1747 C 0.48171 0.47469 0.13551 0.0
C1748 C 0.44075 0.47351 0.15361 0.0
C1749 C 0.46178 0.48303 0.16984 0.0
C1750 C 0.49249 0.48742 0.16888 0.0
C1751 C 0.502 0.483 0.15177 0.0
C1752 C 0.40772 0.46834 0.15408 0.0
C1753 C 0.51569 0.49776 0.18588 0.0
H1754 H 0.45788 0.55357 0.21339 0.0
H1755 H 0.42423 0.45879 0.22754 0.0
H1756 H 0.49732 0.5512 0.17671 0.0
H1757 H 0.45888 0.5396 0.16599 0.0
H1758 H 0.47619 0.57001 0.18499 0.0
H1759 H 0.4185 0.41825 0.20608 0.0
H1760 H 0.41703 0.42441 0.18198 0.0
H1761 H 0.4537 0.43349 0.19421 0.0
H1762 H 0.43526 0.46359 0.12417 0.0
H1763 H 0.52551 0.48633 0.15111 0.0
H1764 H 0.40894 0.49112 0.15805 0.0
H1765 H 0.39536 0.45214 0.16461 0.0
H1766 H 0.39341 0.45833 0.14054 0.0
H1767 H 0.52114 0.52149 0.19175 0.0
H1768 H 0.5382 0.49886 0.18292 0.0
H1769 H 0.50517 0.48127 0.19657 0.0
C1770 C 0.00069 0.48651 0.79617 0.0
C1771 C 0.97583 0.49152 0.7904 0.0
C1772 C 0.01158 0.49084 0.81488 0.0
C1773 C -0.00284 0.50031 0.82809 0.0
C1774 C 0.97277 0.50642 0.82228 0.0
C1775 C 0.96239 0.50195 0.8035 0.0
C1776 C 0.03781 0.48434 0.82056 0.0
C1777 C 0.95678 0.51649 0.83598 0.0
C1778 C -0.00225 0.47751 0.87681 0.0
C1779 C 0.02107 0.50613 0.88634 0.0
C1780 C 0.99012 0.4752 0.85778 0.0
C1781 C 0.00627 0.50215 0.84805 0.0
C1782 C 0.03026 0.53095 0.8575 0.0
C1783 C 0.03735 0.53262 0.87656 0.0
C1784 C 0.96442 0.44403 0.84814 0.0
C1785 C 0.04795 0.56016 0.84756 0.0
H1786 H 0.01131 0.47872 0.78604 0.0
H1787 H 0.94286 0.50541 0.79914 0.0
H1788 H 0.05706 0.5049 0.82935 0.0
H1789 H 0.02864 0.46383 0.82889 0.0
H1790 H 0.0479 0.47917 0.80853 0.0
H1791 H 0.93958 0.52219 0.82914 0.0
H1792 H 0.94404 0.49728 0.8449 0.0
H1793 H 0.97464 0.53753 0.84507 0.0
H1794 H 0.98543 0.45686 0.88426 0.0
H1795 H 0.05514 0.55491 0.88389 0.0
H1796 H 0.97377 0.43629 0.83674 0.0
H1797 H 0.94481 0.44684 0.84196 0.0
H1798 H 0.9547 0.42514 0.85763 0.0
H1799 H 0.05857 0.55505 0.8358 0.0
H1800 H 0.06703 0.58027 0.85675 0.0
H1801 H 0.03129 0.56742 0.84183 0.0
C1802 C 0.50787 0.48411 0.803 0.0
C1803 C 0.53839 0.49095 0.79943 0.0
C1804 C 0.50169 0.49151 0.82052 0.0
C1805 C 0.52673 0.50665 0.8348 0.0
C1806 C 0.55796 0.51561 0.83098 0.0
C1807 C 0.5634 0.50747 0.81337 0.0
C1808 C 0.46802 0.48141 0.82402 0.0
C1809 C 0.58539 0.53223 0.84576 0.0
C1810 C 0.50982 0.53841 0.87885 0.0
C1811 C 0.50316 0.51398 0.89012 0.0
C1812 C 0.51835 0.53683 0.86094 0.0
C1813 C 0.51963 0.50993 0.85408 0.0
C1814 C 0.51298 0.48528 0.86546 0.0
C1815 C 0.50504 0.48771 0.88335 0.0
C1816 C 0.52583 0.56381 0.84932 0.0
C1817 C 0.5136 0.45596 0.85861 0.0
H1818 H 0.48852 0.47204 0.79219 0.0
H1819 H 0.58704 0.51274 0.81083 0.0
H1820 H 0.45966 0.46259 0.83356 0.0
H1821 H 0.46666 0.50149 0.83073 0.0
H1822 H 0.4517 0.47222 0.81114 0.0
H1823 H 0.60855 0.54144 0.84001 0.0
H1824 H 0.58477 0.55216 0.85329 0.0
H1825 H 0.58358 0.51551 0.85592 0.0
H1826 H 0.5086 0.55885 0.88412 0.0
H1827 H 0.4995 0.46859 0.89195 0.0
H1828 H 0.50856 0.55542 0.8369 0.0
H1829 H 0.54961 0.57276 0.84449 0.0
H1830 H 0.52521 0.58368 0.85698 0.0
H1831 H 0.49614 0.44379 0.84637 0.0
H1832 H 0.5081 0.43907 0.86926 0.0
H1833 H 0.53725 0.46248 0.85426 0.0
C1834 C 0.52848 0.07647 0.81805 0.0
C1835 C 0.54212 0.06639 0.80485 0.0
C1836 C 0.52105 0.06273 0.83475 0.0
C1837 C 0.52768 0.03846 0.83854 0.0
C1838 C 0.542 0.02854 0.82547 0.0
C1839 C 0.54897 0.04254 0.80877 0.0
C1840 C 0.50582 0.07405 0.84829 0.0
C1841 C 0.54962 0.00287 0.82903 0.0
C1842 C 0.53156 0.02268 0.88883 0.0
C1843 C 0.50146 -0.00357 0.88981 0.0
C1844 C 0.54068 0.03616 0.87217 0.0
C1845 C 0.51912 0.02323 0.85607 0.0
C1846 C 0.48886 -0.00352 0.85691 0.0
C1847 C 0.48044 0.98334 0.87374 0.0
C1848 C 0.57327 0.06448 0.87185 0.0
C1849 C 0.46507 0.98215 0.84012 0.0
H1850 H 0.5237 0.09531 0.81536 0.0
H1851 H 0.55923 0.03437 0.79863 0.0
H1852 H 0.48253 0.05408 0.8509 0.0
H1853 H 0.52071 0.08292 0.86167 0.0
H1854 H 0.50224 0.09317 0.84329 0.0
H1855 H 0.56178 -0.00138 0.81779 0.0
H1856 H 0.56493 0.00925 0.84217 0.0
H1857 H 0.52753 0.98049 0.83047 0.0
H1858 H 0.5481 0.03264 0.90114 0.0
H1859 H 0.45705 0.96326 0.87442 0.0
H1860 H 0.57129 0.08509 0.86803 0.0
H1861 H 0.58601 0.05962 0.86124 0.0
H1862 H 0.58764 0.07094 0.88537 0.0
H1863 H 0.45899 -0.00025 0.83531 0.0
H1864 H 0.44296 0.96074 0.8429 0.0
H1865 H 0.47539 0.97568 0.82872 0.0
C1866 C 0.09511 0.24879 0.54266 0.0
C1867 C 0.1188 0.26004 0.55745 0.0
C1868 C 0.10143 0.26186 0.52567 0.0
C1869 C 0.13213 0.28687 0.52345 0.0
C1870 C 0.15591 0.29879 0.53848 0.0
C1871 C 0.14898 0.28522 0.55525 0.0
C1872 C 0.07547 0.24842 0.50998 0.0
C1873 C 0.18887 0.32559 0.53676 0.0
C1874 C 0.16043 0.30078 0.47564 0.0
C1875 C 0.15708 0.32667 0.47149 0.0
C1876 C 0.15188 0.28728 0.49234 0.0
C1877 C 0.13979 0.30003 0.50529 0.0
C1878 C 0.13604 0.32596 0.50112 0.0
C1879 C 0.14465 0.3389 0.48426 0.0
C1880 C 0.15603 0.25951 0.49619 0.0
C1881 C 0.12343 0.34036 0.5146 0.0
H1882 H 0.07183 0.22916 0.54421 0.0
H1883 H 0.16726 0.29435 0.56671 0.0
H1884 H 0.07212 0.26747 0.50467 0.0
H1885 H 0.08224 0.23808 0.49844 0.0
H1886 H 0.05257 0.22983 0.51413 0.0
H1887 H 0.20434 0.33286 0.54992 0.0
H1888 H 0.19988 0.31841 0.52609 0.0
H1889 H 0.18784 0.34637 0.53226 0.0
H1890 H 0.16954 0.29087 0.46572 0.0
H1891 H 0.14225 0.35907 0.48122 0.0
H1892 H 0.1332 0.23929 0.49918 0.0
H1893 H 0.17304 0.26586 0.50857 0.0
H1894 H 0.16482 0.25177 0.48446 0.0
H1895 H 0.09999 0.32203 0.51821 0.0
H1896 H 0.121 0.3598 0.50904 0.0
H1897 H 0.13953 0.34982 0.52754 0.0
C1898 C 0.68349 0.80978 0.55494 0.0
C1899 C 0.6723 0.82339 0.56768 0.0
C1900 C 0.67294 0.80469 0.53615 0.0
C1901 C 0.65089 0.8137 0.52992 0.0
C1902 C 0.63848 0.82619 0.54278 0.0
C1903 C 0.64924 0.83077 0.56153 0.0
C1904 C 0.68653 0.79104 0.52286 0.0
C1905 C 0.61491 0.83605 0.53665 0.0
C1906 C 0.65476 0.836 0.48087 0.0
C1907 C 0.62924 0.80867 0.47143 0.0
C1908 C 0.66162 0.83813 0.49997 0.0
C1909 C 0.64268 0.81219 0.50986 0.0
C1910 C 0.61664 0.78468 0.50049 0.0
C1911 C 0.61015 0.7833 0.48139 0.0
C1912 C 0.68953 0.86795 0.50952 0.0
C1913 C 0.596 0.75654 0.51059 0.0
H1914 H 0.70161 0.80439 0.55952 0.0
H1915 H 0.64015 0.84085 0.57134 0.0
H1916 H 0.66727 0.77101 0.51375 0.0
H1917 H 0.70146 0.80929 0.51391 0.0
H1918 H 0.7012 0.78264 0.53006 0.0
H1919 H 0.6057 0.84302 0.54848 0.0
H1920 H 0.62632 0.85639 0.52828 0.0
H1921 H 0.59469 0.81655 0.52779 0.0
H1922 H 0.6699 0.85552 0.47327 0.0
H1923 H 0.59008 0.76229 0.47423 0.0
H1924 H 0.70735 0.86252 0.51568 0.0
H1925 H 0.68185 0.87762 0.52092 0.0
H1926 H 0.70106 0.88645 0.49997 0.0
H1927 H 0.6104 0.74714 0.51695 0.0
H1928 H 0.57614 0.73726 0.50136 0.0
H1929 H 0.58612 0.76376 0.52191 0.0
C1930 C 0.09984 0.80645 0.55095 0.0
C1931 C 0.10493 0.83692 0.55545 0.0
C1932 C 0.10576 0.79792 0.53357 0.0
C1933 C 0.11695 0.82039 0.52045 0.0
C1934 C 0.12081 0.85071 0.52469 0.0
C1935 C 0.11471 0.85856 0.5421 0.0
C1936 C 0.10124 0.76532 0.52952 0.0
C1937 C 0.13247 0.8753 0.51105 0.0
C1938 C 0.16821 0.81725 0.48437 0.0
C1939 C 0.14706 0.80608 0.46835 0.0
C1940 C 0.15836 0.82087 0.50153 0.0
C1941 C 0.12659 0.81318 0.50272 0.0
C1942 C 0.10485 0.80092 0.48671 0.0
C1943 C 0.11534 0.79749 0.46972 0.0
C1944 C 0.1823 0.83413 0.51828 0.0
C1945 C 0.07077 0.79236 0.48742 0.0
H1946 H 0.0924 0.78969 0.56126 0.0
H1947 H 0.1181 0.88195 0.54541 0.0
H1948 H 0.08662 0.75406 0.5162 0.0
H1949 H 0.12453 0.76713 0.52823 0.0
H1950 H 0.08976 0.74974 0.5405 0.0
H1951 H 0.13257 0.89714 0.51612 0.0
H1952 H 0.15688 0.88169 0.50828 0.0
H1953 H 0.1174 0.86567 0.49776 0.0
H1954 H 0.19281 0.82427 0.48342 0.0
H1955 H 0.09873 0.78834 0.45744 0.0
H1956 H 0.17339 0.81852 0.52954 0.0
H1957 H 0.18604 0.85759 0.5234 0.0
H1958 H 0.20548 0.83688 0.51529 0.0
H1959 H 0.06003 0.77595 0.49812 0.0
H1960 H 0.05641 0.78115 0.47399 0.0
H1961 H 0.06958 0.81392 0.49129 0.0
C1962 C 0.6217 0.79539 0.1374 0.0
C1963 C 0.63448 0.81894 0.12528 0.0
C1964 C 0.63254 0.80184 0.15617 0.0
C1965 C 0.65672 0.83264 0.163 0.0
C1966 C 0.66985 0.85654 0.15084 0.0
C1967 C 0.65852 0.8494 0.13209 0.0
C1968 C 0.61783 0.77576 0.16873 0.0
C1969 C 0.69575 0.88961 0.15766 0.0
C1970 C 0.66145 0.85352 0.21427 0.0
C1971 C 0.68532 0.84784 0.2212 0.0
C1972 C 0.65251 0.84954 0.19529 0.0
C1973 C 0.66787 0.83971 0.18295 0.0
C1974 C 0.69258 0.8348 0.1898 0.0
C1975 C 0.70098 0.83887 0.20886 0.0
C1976 C 0.62609 0.85508 0.18847 0.0
C1977 C 0.70946 0.82426 0.17706 0.0
H1978 H 0.60269 0.77196 0.13227 0.0
H1979 H 0.66857 0.86761 0.12273 0.0
H1980 H 0.63634 0.77221 0.17581 0.0
H1981 H 0.60669 0.78248 0.17953 0.0
H1982 H 0.59959 0.75297 0.16116 0.0
H1983 H 0.70367 0.90539 0.14639 0.0
H1984 H 0.68734 0.89994 0.16828 0.0
H1985 H 0.71641 0.88899 0.16427 0.0
H1986 H 0.64961 0.86094 0.22372 0.0
H1987 H 0.71921 0.83411 0.21413 0.0
H1988 H 0.60582 0.83263 0.18183 0.0
H1989 H 0.63405 0.87217 0.1779 0.0
H1990 H 0.61768 0.86421 0.19977 0.0
H1991 H 0.69262 0.80031 0.17026 0.0
H1992 H 0.72958 0.82357 0.18445 0.0
H1993 H 0.71851 0.84036 0.16603 0.0
C1994 C 0.18055 0.81365 0.1375 0.0
C1995 C 0.2101 0.81712 0.1345 0.0
C1996 C 0.17406 0.82025 0.1551 0.0
C1997 C 0.19772 0.83061 0.17008 0.0
C1998 C 0.22812 0.83566 0.16698 0.0
C1999 C 0.23398 0.82888 0.14918 0.0
C2000 C 0.14142 0.81478 0.15778 0.0
C2001 C 0.25396 0.84676 0.18261 0.0
C2002 C 0.1835 0.86397 0.21441 0.0
C2003 C 0.17056 0.83744 0.22446 0.0
C2004 C 0.19312 0.86238 0.19683 0.0
C2005 C 0.18965 0.83355 0.18913 0.0
C2006 C 0.17696 0.80682 0.1993 0.0
C2007 C 0.16754 0.80908 0.2168 0.0
C2008 C 0.20663 0.89138 0.1864 0.0
C2009 C 0.17273 0.7756 0.19155 0.0
H2010 H 0.1622 0.80507 0.1261 0.0
H2011 H 0.2568 0.83147 0.14692 0.0
H2012 H 0.12939 0.79495 0.16642 0.0
H2013 H 0.14305 0.83602 0.16513 0.0
H2014 H 0.12651 0.80902 0.1445 0.0
H2015 H 0.2771 0.8526 0.17765 0.0
H2016 H 0.25664 0.8679 0.19071 0.0
H2017 H 0.24751 0.82797 0.19208 0.0
H2018 H 0.18632 0.88608 0.22034 0.0
H2019 H 0.15717 0.78836 0.22436 0.0
H2020 H 0.1912 0.88672 0.17351 0.0
H2021 H 0.23026 0.89708 0.18239 0.0
H2022 H 0.20893 0.9123 0.1946 0.0
H2023 H 0.15587 0.76661 0.17892 0.0
H2024 H 0.1637 0.75745 0.20152 0.0
H2025 H 0.19558 0.77878 0.18756 0.0
C2026 C 0.17216 0.37111 0.13844 0.0
C2027 C 0.20269 0.39546 0.13605 0.0
C2028 C 0.16495 0.35801 0.15535 0.0
C2029 C 0.18881 0.36953 0.17031 0.0
C2030 C 0.21983 0.39373 0.1679 0.0
C2031 C 0.22641 0.40635 0.1508 0.0
C2032 C 0.13165 0.33206 0.15726 0.0
C2033 C 0.24592 0.40677 0.18352 0.0
C2034 C 0.16194 0.35785 0.21857 0.0
C2035 C 0.16458 0.33161 0.22291 0.0
C2036 C 0.17009 0.37061 0.20163 0.0
C2037 C 0.18103 0.35677 0.18858 0.0
C2038 C 0.18386 0.33037 0.19287 0.0
C2039 C 0.17568 0.31817 0.20996 0.0
C2040 C 0.1667 0.39875 0.19761 0.0
C2041 C 0.19544 0.31494 0.17936 0.0
H2042 H 0.15381 0.36224 0.12703 0.0
H2043 H 0.24998 0.42535 0.14912 0.0
H2044 H 0.13191 0.31091 0.16176 0.0
H2045 H 0.12131 0.33994 0.168 0.0
H2046 H 0.11604 0.32512 0.14417 0.0
H2047 H 0.26901 0.42478 0.17925 0.0
H2048 H 0.23971 0.41771 0.19503 0.0
H2049 H 0.2486 0.38739 0.1889 0.0
H2050 H 0.15301 0.36818 0.22833 0.0
H2051 H 0.17832 0.29825 0.21326 0.0
H2052 H 0.14938 0.39244 0.18539 0.0
H2053 H 0.18963 0.41841 0.19428 0.0
H2054 H 0.1587 0.40731 0.20939 0.0
H2055 H 0.17955 0.30631 0.16634 0.0
H2056 H 0.19653 0.29473 0.18482 0.0
H2057 H 0.21935 0.33247 0.17592 0.0
C2058 C 0.76945 0.60803 0.88366 0.0
C2059 C 0.77621 0.58407 0.88738 0.0
C2060 C 0.77607 0.62202 0.86696 0.0
C2061 C 0.78986 0.61189 0.85366 0.0
C2062 C 0.79612 0.58727 0.85716 0.0
C2063 C 0.78916 0.57364 0.87393 0.0
C2064 C 0.76897 0.64814 0.86373 0.0
C2065 C 0.81067 0.57565 0.84332 0.0
C2066 C 0.78625 0.62982 0.80377 0.0
C2067 C 0.81664 0.65575 0.80294 0.0
C2068 C 0.77701 0.61564 0.82023 0.0
C2069 C 0.79868 0.6276 0.83629 0.0
C2070 C 0.82922 0.65403 0.83561 0.0
C2071 C 0.8378 0.66779 0.81898 0.0
C2072 C 0.74417 0.58765 0.82038 0.0
C2073 C 0.85309 0.66741 0.85239 0.0
H2074 H 0.75974 0.61647 0.89402 0.0
H2075 H 0.79396 0.55477 0.87653 0.0
H2076 H 0.7913 0.67043 0.86254 0.0
H2077 H 0.75386 0.64239 0.85057 0.0
H2078 H 0.75683 0.65225 0.87503 0.0
H2079 H 0.81336 0.5558 0.84795 0.0
H2080 H 0.79586 0.56769 0.82992 0.0
H2081 H 0.83432 0.59524 0.84092 0.0
H2082 H 0.76959 0.62065 0.79151 0.0
H2083 H 0.86143 0.68757 0.81842 0.0
H2084 H 0.73162 0.59253 0.8311 0.0
H2085 H 0.74567 0.56666 0.82393 0.0
H2086 H 0.72986 0.58176 0.80687 0.0
H2087 H 0.84309 0.67386 0.86398 0.0
H2088 H 0.87546 0.68865 0.84976 0.0
H2089 H 0.85862 0.64925 0.85686 0.0
C2090 C 0.35746 0.14773 0.88585 0.0
C2091 C 0.34319 0.15759 0.89867 0.0
C2092 C 0.34748 0.14298 0.86699 0.0
C2093 C 0.32263 0.14821 0.86086 0.0
C2094 C 0.30732 0.157 0.8738 0.0
C2095 C 0.31783 0.16163 0.89258 0.0
C2096 C 0.3644 0.13364 0.85357 0.0
C2097 C 0.28058 0.16255 0.86776 0.0
C2098 C 0.32249 0.17145 0.81224 0.0
C2099 C 0.29975 0.14273 0.80254 0.0
C2100 C 0.32986 0.17361 0.83128 0.0
C2101 C 0.31404 0.14639 0.84084 0.0
C2102 C 0.29069 0.11744 0.8312 0.0
C2103 C 0.28385 0.11594 0.81214 0.0
C2104 C 0.35485 0.20493 0.84113 0.0
C2105 C 0.27338 0.08796 0.84097 0.0
H2106 H 0.37733 0.14497 0.89048 0.0
H2107 H 0.30654 0.16892 0.90251 0.0
H2108 H 0.34712 0.11253 0.84432 0.0
H2109 H 0.37713 0.15308 0.84478 0.0
H2110 H 0.38175 0.12839 0.86066 0.0
H2111 H 0.26976 0.16712 0.87963 0.0
H2112 H 0.2895 0.18315 0.85952 0.0
H2113 H 0.26194 0.1418 0.85881 0.0
H2114 H 0.3345 0.19232 0.80493 0.0
H2115 H 0.26653 0.09359 0.80466 0.0
H2116 H 0.37461 0.2026 0.84757 0.0
H2117 H 0.34483 0.21219 0.85237 0.0
H2118 H 0.36455 0.22395 0.83173 0.0
H2119 H 0.29041 0.08135 0.84694 0.0
H2120 H 0.25495 0.06764 0.8316 0.0
H2121 H 0.26199 0.09241 0.85255 0.0
C2122 C 0.81427 0.1639 0.89111 0.0
C2123 C 0.78448 0.15999 0.89388 0.0
C2124 C 0.82128 0.15771 0.87357 0.0
C2125 C 0.79788 0.14727 0.85843 0.0
C2126 C 0.76716 0.14146 0.86134 0.0
C2127 C 0.76082 0.1479 0.87906 0.0
C2128 C 0.85426 0.16402 0.87108 0.0
C2129 C 0.74154 0.13018 0.84556 0.0
C2130 C 0.82785 0.17126 0.81192 0.0
C2131 C 0.8255 0.14348 0.80382 0.0
C2132 C 0.81854 0.1726 0.82957 0.0
C2133 C 0.80654 0.14547 0.83941 0.0
C2134 C 0.80384 0.11724 0.83128 0.0
C2135 C 0.81342 0.11659 0.81358 0.0
C2136 C 0.82197 0.20323 0.83779 0.0
C2137 C 0.79099 0.08781 0.84132 0.0
H2138 H 0.83248 0.17279 0.9026 0.0
H2139 H 0.73782 0.14504 0.8811 0.0
H2140 H 0.85329 0.14341 0.86335 0.0
H2141 H 0.8663 0.1845 0.86288 0.0
H2142 H 0.86878 0.16927 0.88445 0.0
H2143 H 0.71807 0.12325 0.8504 0.0
H2144 H 0.74755 0.14931 0.83639 0.0
H2145 H 0.7398 0.1097 0.83719 0.0
H2146 H 0.83752 0.19223 0.80455 0.0
H2147 H 0.81117 0.09493 0.8073 0.0
H2148 H 0.83844 0.21186 0.85058 0.0
H2149 H 0.79879 0.19934 0.84162 0.0
H2150 H 0.83104 0.22195 0.82817 0.0
H2151 H 0.80622 0.09248 0.8543 0.0
H2152 H 0.78968 0.06755 0.83291 0.0
H2153 H 0.76699 0.08106 0.84514 0.0
C2154 C 0.2946 0.13347 0.47066 0.0
C2155 C 0.30586 0.15671 0.45826 0.0
C2156 C 0.30624 0.1407 0.48929 0.0
C2157 C 0.32945 0.17207 0.49578 0.0
C2158 C 0.34083 0.19576 0.48341 0.0
C2159 C 0.32895 0.18777 0.46475 0.0
C2160 C 0.29353 0.11474 0.50205 0.0
C2161 C 0.36543 0.2295 0.48992 0.0
C2162 C 0.33406 0.19068 0.54724 0.0
C2163 C 0.35907 0.18636 0.55373 0.0
C2164 C 0.32514 0.18764 0.52831 0.0
C2165 C 0.34144 0.17979 0.51559 0.0
C2166 C 0.36744 0.17655 0.522 0.0
C2167 C 0.37603 0.18001 0.54099 0.0
C2168 C 0.29739 0.19145 0.52198 0.0
C2169 C 0.38533 0.1681 0.50884 0.0
H2170 H 0.27622 0.10958 0.46586 0.0
H2171 H 0.33787 0.20579 0.45521 0.0
H2172 H 0.31322 0.1127 0.50887 0.0
H2173 H 0.28206 0.12057 0.51305 0.0
H2174 H 0.27601 0.09143 0.49472 0.0
H2175 H 0.37172 0.24514 0.47856 0.0
H2176 H 0.35657 0.23888 0.5008 0.0
H2177 H 0.38719 0.2305 0.49612 0.0
H2178 H 0.32063 0.19528 0.55697 0.0
H2179 H 0.39577 0.17725 0.54589 0.0
H2180 H 0.27733 0.16826 0.51606 0.0
H2181 H 0.30367 0.20772 0.51098 0.0
H2182 H 0.28936 0.2007 0.53342 0.0
H2183 H 0.36954 0.14393 0.50198 0.0
H2184 H 0.40645 0.16885 0.51591 0.0
H2185 H 0.39304 0.18448 0.49789 0.0
C2186 C 0.8435 0.15533 0.4697 0.0
C2187 C 0.87349 0.16006 0.46659 0.0
C2188 C 0.83699 0.16203 0.48728 0.0
C2189 C 0.86111 0.1739 0.50211 0.0
C2190 C 0.89197 0.18066 0.49882 0.0
C2191 C 0.8978 0.17361 0.48108 0.0
C2192 C 0.8038 0.15462 0.49019 0.0
C2193 C 0.91837 0.19352 0.51424 0.0
C2194 C 0.84622 0.20445 0.54727 0.0
C2195 C 0.83604 0.17806 0.55737 0.0
C2196 C 0.8549 0.2037 0.52933 0.0
C2197 C 0.85311 0.17584 0.52129 0.0
C2198 C 0.84289 0.14918 0.53145 0.0
C2199 C 0.83453 0.15064 0.54934 0.0
C2200 C 0.86591 0.23263 0.51896 0.0
C2201 C 0.84041 0.11892 0.52333 0.0
H2202 H 0.82478 0.14538 0.45847 0.0
H2203 H 0.92097 0.17715 0.47882 0.0
H2204 H 0.79278 0.13431 0.49861 0.0
H2205 H 0.80422 0.175 0.49787 0.0
H2206 H 0.78868 0.14858 0.47698 0.0
H2207 H 0.94175 0.20126 0.50904 0.0
H2208 H 0.91947 0.21379 0.52247 0.0
H2209 H 0.91375 0.17496 0.52365 0.0
H2210 H 0.84772 0.2258 0.55349 0.0
H2211 H 0.82623 0.13002 0.55696 0.0
H2212 H 0.84995 0.22692 0.50616 0.0
H2213 H 0.88991 0.24032 0.51479 0.0
H2214 H 0.86654 0.25263 0.52728 0.0
H2215 H 0.82344 0.10946 0.51075 0.0
H2216 H 0.83245 0.10049 0.53315 0.0
H2217 H 0.86368 0.12361 0.51919 0.0
C2218 C 0.89898 0.74203 0.48496 0.0
C2219 C 0.87483 0.73346 0.4707 0.0
C2220 C 0.89237 0.72861 0.50184 0.0
C2221 C 0.86081 0.70632 0.50465 0.0
C2222 C 0.8364 0.69737 0.49028 0.0
C2223 C 0.84372 0.7108 0.47349 0.0
C2224 C 0.91912 0.73852 0.51675 0.0
C2225 C 0.80241 0.67379 0.4927 0.0
C2226 C 0.84324 0.65013 0.54201 0.0
C2227 C 0.83543 0.66479 0.55619 0.0
C2228 C 0.85225 0.66373 0.52536 0.0
C2229 C 0.85309 0.69252 0.52264 0.0
C2230 C 0.84539 0.70754 0.53688 0.0
C2231 C 0.83687 0.69363 0.55349 0.0
C2232 C 0.8605 0.64706 0.51059 0.0
C2233 C 0.84578 0.73816 0.5345 0.0
H2234 H 0.92303 0.7597 0.48307 0.0
H2235 H 0.82494 0.70342 0.46247 0.0
H2236 H 0.91527 0.75006 0.52902 0.0
H2237 H 0.91969 0.71745 0.52113 0.0
H2238 H 0.94249 0.75516 0.51217 0.0
H2239 H 0.78618 0.66944 0.48021 0.0
H2240 H 0.80027 0.65098 0.49593 0.0
H2241 H 0.79457 0.68247 0.50448 0.0
H2242 H 0.84184 0.62766 0.54378 0.0
H2243 H 0.83153 0.70554 0.56442 0.0
H2244 H 0.88427 0.66336 0.5064 0.0
H2245 H 0.84335 0.63982 0.49819 0.0
H2246 H 0.86032 0.62574 0.5152 0.0
H2247 H 0.86955 0.75651 0.53135 0.0
H2248 H 0.83955 0.74704 0.54696 0.0
H2249 H 0.82875 0.73475 0.52266 0.0
loop_
_geom_bond_atom_site_label_1
_geom_bond_atom_site_label_2
_geom_bond_distance
_geom_bond_site_symmetry_2
_ccdc_geom_bond_type
H0 C3 0.931 . S
H1 C6 0.928 . S
H2 C8 0.930 . S
C3 H0 0.931 . S
C3 C4 1.413 . S
C3 C5 1.360 . S
C4 C3 1.413 . S
C4 C8 1.429 . S
C5 C3 1.360 . S
C5 C6 1.372 . S
C6 H1 0.928 . S
C6 C5 1.372 . S
C6 C7 1.404 . S
C7 C6 1.404 . S
C7 C8 1.391 . S
C8 H2 0.930 . S
C8 C4 1.429 . S
C8 C7 1.391 . S
H9 C12 0.931 . S
H10 C15 0.928 . S
H11 C17 0.930 . S
C12 H9 0.931 . S
C12 C13 1.413 . S
C12 C14 1.360 . S
C13 C12 1.413 . S
C13 C17 1.429 . S
C14 C12 1.360 . S
C14 C15 1.372 . S
C15 H10 0.928 . S
C15 C14 1.372 . S
C15 C16 1.404 . S
C16 C15 1.404 . S
C16 C17 1.391 . S
C17 H11 0.930 . S
C17 C13 1.429 . S
C17 C16 1.391 . S
H18 C21 0.931 . S
H19 C24 0.928 . S
H20 C26 0.930 . S
C21 H18 0.931 . S
C21 C22 1.413 . S
C21 C23 1.360 . S
C22 C21 1.413 . S
C22 C26 1.429 . S
C23 C21 1.360 . S
C23 C24 1.372 . S
C24 H19 0.928 . S
C24 C23 1.372 . S
C24 C25 1.404 . S
C25 C24 1.404 . S
C25 C26 1.391 . S
C26 H20 0.930 . S
C26 C22 1.429 . S
C26 C25 1.391 . S
H27 C30 0.931 . S
H28 C33 0.928 . S
H29 C35 0.930 . S
C30 H27 0.931 . S
C30 C31 1.413 . S
C30 C32 1.360 . S
C31 C30 1.413 . S
C31 C35 1.429 . S
C32 C30 1.360 . S
C32 C33 1.372 . S
C33 H28 0.928 . S
C33 C32 1.372 . S
C33 C34 1.404 . S
C34 C33 1.404 . S
C34 C35 1.391 . S
C35 H29 0.930 . S
C35 C31 1.429 . S
C35 C34 1.391 . S
H36 C39 0.931 . S
H37 C42 0.928 . S
H38 C44 0.930 . S
C39 H36 0.931 . S
C39 C40 1.413 . S
C39 C41 1.360 . S
C40 C39 1.413 . S
C40 C44 1.429 . S
C41 C39 1.360 . S
C41 C42 1.372 . S
C42 H37 0.928 . S
C42 C41 1.372 . S
C42 C43 1.404 . S
C43 C42 1.404 . S
C43 C44 1.391 . S
C44 H38 0.930 . S
C44 C40 1.429 . S
C44 C43 1.391 . S
H45 C48 0.931 . S
H46 C51 0.928 . S
H47 C53 0.930 . S
C48 H45 0.931 . S
C48 C49 1.413 . S
C48 C50 1.360 . S
C49 C48 1.413 . S
C49 C53 1.429 . S
C50 C48 1.360 . S
C50 C51 1.372 . S
C51 H46 0.928 . S
C51 C50 1.372 . S
C51 C52 1.404 . S
C52 C51 1.404 . S
C52 C53 1.391 . S
C53 H47 0.930 . S
C53 C49 1.429 . S
C53 C52 1.391 . S
H54 C57 0.931 . S
H55 C60 0.928 . S
H56 C62 0.930 . S
C57 H54 0.931 . S
C57 C58 1.413 . S
C57 C59 1.360 . S
C58 C57 1.413 . S
C58 C62 1.429 . S
C59 C57 1.360 . S
C59 C60 1.372 . S
C60 H55 0.928 . S
C60 C59 1.372 . S
C60 C61 1.404 . S
C61 C60 1.404 . S
C61 C62 1.391 . S
C62 H56 0.930 . S
C62 C58 1.429 . S
C62 C61 1.391 . S
H63 C66 0.931 . S
H64 C69 0.928 . S
H65 C71 0.930 . S
C66 H63 0.931 . S
C66 C67 1.413 . S
C66 C68 1.360 . S
C67 C66 1.413 . S
C67 C71 1.429 . S
C68 C66 1.360 . S
C68 C69 1.372 . S
C69 H64 0.928 . S
C69 C68 1.372 . S
C69 C70 1.404 . S
C70 C69 1.404 . S
C70 C71 1.391 . S
C71 H65 0.930 . S
C71 C67 1.429 . S
C71 C70 1.391 . S
H72 C75 0.931 . S
H73 C78 0.928 . S
H74 C80 0.930 . S
C75 H72 0.931 . S
C75 C76 1.413 . S
C75 C77 1.360 . S
C76 C75 1.413 . S
C76 C80 1.429 . S
C77 C75 1.360 . S
C77 C78 1.372 . S
C78 H73 0.928 . S
C78 C77 1.372 . S
C78 C79 1.404 . S
C79 C78 1.404 . S
C79 C80 1.391 . S
C80 H74 0.930 . S
C80 C76 1.429 . S
C80 C79 1.391 . S
H81 C84 0.931 . S
H82 C87 0.928 . S
H83 C89 0.930 . S
C84 H81 0.931 . S
C84 C85 1.413 . S
C84 C86 1.360 . S
C85 C84 1.413 . S
C85 C89 1.429 . S
C86 C84 1.360 . S
C86 C87 1.372 . S
C87 H82 0.928 . S
C87 C86 1.372 . S
C87 C88 1.404 . S
C88 C87 1.404 . S
C88 C89 1.391 . S
C89 H83 0.930 . S
C89 C85 1.429 . S
C89 C88 1.391 . S
H90 C93 0.931 . S
H91 C96 0.928 . S
H92 C98 0.930 . S
C93 H90 0.931 . S
C93 C94 1.413 . S
C93 C95 1.360 . S
C94 C93 1.413 . S
C94 C98 1.429 . S
C95 C93 1.360 . S
C95 C96 1.372 . S
C96 H91 0.928 . S
C96 C95 1.372 . S
C96 C97 1.404 . S
C97 C96 1.404 . S
C97 C98 1.391 . S
C98 H92 0.930 . S
C98 C94 1.429 . S
C98 C97 1.391 . S
H99 C102 0.931 . S
H100 C105 0.928 . S
H101 C107 0.930 . S
C102 H99 0.931 . S
C102 C103 1.413 . S
C102 C104 1.360 . S
C103 C102 1.413 . S
C103 C107 1.429 . S
C104 C102 1.360 . S
C104 C105 1.372 . S
C105 H100 0.928 . S
C105 C104 1.372 . S
C105 C106 1.404 . S
C106 C105 1.404 . S
C106 C107 1.391 . S
C107 H101 0.930 . S
C107 C103 1.429 . S
C107 C106 1.391 . S
H108 C111 0.931 . S
H109 C114 0.928 . S
H110 C116 0.930 . S
C111 H108 0.931 . S
C111 C112 1.413 . S
C111 C113 1.360 . S
C112 C111 1.413 . S
C112 C116 1.429 . S
C113 C111 1.360 . S
C113 C114 1.372 . S
C114 H109 0.928 . S
C114 C113 1.372 . S
C114 C115 1.404 . S
C115 C114 1.404 . S
C115 C116 1.391 . S
C116 H110 0.930 . S
C116 C112 1.429 . S
C116 C115 1.391 . S
H117 C120 0.931 . S
H118 C123 0.928 . S
H119 C125 0.930 . S
C120 H117 0.931 . S
C120 C121 1.413 . S
C120 C122 1.360 . S
C121 C120 1.413 . S
C121 C125 1.429 . S
C122 C120 1.360 . S
C122 C123 1.372 . S
C123 H118 0.928 . S
C123 C122 1.372 . S
C123 C124 1.404 . S
C124 C123 1.404 . S
C124 C125 1.391 . S
C125 H119 0.930 . S
C125 C121 1.429 . S
C125 C124 1.391 . S
H126 C129 0.931 . S
H127 C132 0.928 . S
H128 C134 0.930 . S
C129 H126 0.931 . S
C129 C130 1.413 . S
C129 C131 1.360 . S
C130 C129 1.413 . S
C130 C134 1.429 . S
C131 C129 1.360 . S
C131 C132 1.372 . S
C132 H127 0.928 . S
C132 C131 1.372 . S
C132 C133 1.404 . S
C133 C132 1.404 . S
C133 C134 1.391 . S
C134 H128 0.930 . S
C134 C130 1.429 . S
C134 C133 1.391 . S
H135 C138 0.931 . S
H136 C141 0.928 . S
H137 C143 0.930 . S
C138 H135 0.931 . S
C138 C139 1.413 . S
C138 C140 1.360 . S
C139 C138 1.413 . S
C139 C143 1.429 . S
C140 C138 1.360 . S
C140 C141 1.372 . S
C141 H136 0.928 . S
C141 C140 1.372 . S
C141 C142 1.404 . S
C142 C141 1.404 . S
C142 C143 1.391 . S
C143 H137 0.930 . S
C143 C139 1.429 . S
C143 C142 1.391 . S
H144 C147 0.931 . S
H145 C150 0.928 . S
H146 C152 0.930 . S
C147 H144 0.931 . S
C147 C148 1.413 . S
C147 C149 1.360 . S
C148 C147 1.413 . S
C148 C152 1.429 . S
C149 C147 1.360 . S
C149 C150 1.372 . S
C150 H145 0.928 . S
C150 C149 1.372 . S
C150 C151 1.404 . S
C151 C150 1.404 . S
C151 C152 1.391 . S
C152 H146 0.930 . S
C152 C148 1.429 . S
C152 C151 1.391 . S
H153 C156 0.931 . S
H154 C159 0.928 . S
H155 C161 0.930 . S
C156 H153 0.931 . S
C156 C157 1.413 . S
C156 C158 1.360 . S
C157 C156 1.413 . S
C157 C161 1.429 . S
C158 C156 1.360 . S
C158 C159 1.372 . S
C159 H154 0.928 . S
C159 C158 1.372 . S
C159 C160 1.404 . S
C160 C159 1.404 . S
C160 C161 1.391 . S
C161 H155 0.930 . S
C161 C157 1.429 . S
C161 C160 1.391 . S
Eu162 C171 2.828 . S
Eu162 O173 2.397 1_556 S
Eu162 O175 2.418 . S
Eu162 O180 2.373 1_565 S
Eu162 O183 2.488 . S
Eu162 O184 2.463 1_565 S
Eu162 O185 2.349 1_565 S
Eu163 O172 2.373 1_545 S
Eu163 O176 2.488 . S
Eu163 O177 2.471 . S
Eu163 O178 2.349 1_545 S
Eu163 O181 2.392 . S
Eu163 O182 2.418 . S
Eu163 C192 2.828 . S
C164 O182 1.244 1_556 S
C164 O185 1.265 . S
C165 C166 1.379 1_565 S
C165 C169 1.373 . S
C165 C171 1.505 . S
C166 C165 1.379 1_545 S
C166 C168 1.369 . S
C166 H194 0.930 . S
C167 C169 1.383 . S
C167 C170 1.382 1_565 S
C167 H195 0.930 . S
C168 C166 1.369 . S
C168 C170 1.392 . S
C168 H196 0.930 . S
C169 C165 1.373 . S
C169 C167 1.383 . S
C169 H197 0.931 . S
C170 C167 1.382 1_545 S
C170 C168 1.392 . S
C171 Eu162 2.828 . S
C171 C165 1.505 . S
C171 O183 1.249 . S
C171 O184 1.231 1_565 S
O172 Eu163 2.373 1_565 S
O172 C174 1.258 . S
O173 Eu162 2.397 1_554 S
O173 C174 1.237 . S
C174 O172 1.258 . S
C174 O173 1.237 . S
O175 Eu162 2.418 . S
O175 C179 1.244 1_556 S
O176 Eu163 2.488 . S
O176 C192 1.249 . S
O177 Eu163 2.471 . S
O177 C192 1.244 . S
O178 Eu163 2.349 1_565 S
O178 C179 1.265 . S
C179 O175 1.244 1_554 S
C179 O178 1.265 . S
O180 Eu162 2.373 1_545 S
O180 C193 1.258 . S
O181 Eu163 2.392 . S
O181 C193 1.242 1_554 S
O182 Eu163 2.418 . S
O182 C164 1.244 1_554 S
O183 Eu162 2.488 . S
O183 C171 1.249 . S
O184 Eu162 2.463 1_545 S
O184 C171 1.231 1_545 S
O185 Eu162 2.349 1_545 S
O185 C164 1.265 . S
C186 C187 1.379 1_545 S
C186 C190 1.373 . S
C186 C192 1.505 . S
C187 C186 1.379 1_565 S
C187 C189 1.369 . S
C187 H198 0.930 . S
C188 C190 1.383 . S
C188 C191 1.382 1_545 S
C188 H199 0.930 . S
C189 C187 1.369 . S
C189 C191 1.392 . S
C189 H200 0.930 . S
C190 C186 1.373 . S
C190 C188 1.383 . S
C190 H201 0.931 . S
C191 C188 1.382 1_565 S
C191 C189 1.392 . S
C192 Eu163 2.828 . S
C192 O176 1.249 . S
C192 O177 1.244 . S
C192 C186 1.505 . S
C193 O180 1.258 . S
C193 O181 1.242 1_556 S
H194 C166 0.930 . S
H195 C167 0.930 . S
H196 C168 0.930 . S
H197 C169 0.931 . S
H198 C187 0.930 . S
H199 C188 0.930 . S
H200 C189 0.930 . S
H201 C190 0.931 . S
Eu202 C211 2.828 . S
Eu202 O213 2.392 1_556 S
Eu202 O215 2.418 . S
Eu202 O220 2.373 1_455 S
Eu202 O223 2.488 . S
Eu202 O224 2.471 1_455 S
Eu202 O225 2.349 1_455 S
Eu203 O212 2.373 1_655 S
Eu203 O216 2.488 . S
Eu203 O217 2.471 1_655 S
Eu203 O218 2.349 1_655 S
Eu203 O221 2.388 . S
Eu203 O222 2.418 . S
Eu203 C232 2.828 . S
C204 O222 1.244 1_556 S
C204 O225 1.265 . S
C205 C206 1.379 1_455 S
C205 C209 1.373 . S
C205 C211 1.505 . S
C206 C205 1.379 1_655 S
C206 C208 1.369 . S
C206 H234 0.930 . S
C207 C209 1.383 . S
C207 C210 1.382 1_455 S
C207 H235 0.930 . S
C208 C206 1.369 . S
C208 C210 1.392 . S
C208 H236 0.930 . S
C209 C205 1.373 . S
C209 C207 1.383 . S
C209 H237 0.931 . S
C210 C207 1.382 1_655 S
C210 C208 1.392 . S
C211 Eu202 2.828 . S
C211 C205 1.505 . S
C211 O223 1.249 . S
C211 O224 1.244 1_455 S
O212 Eu203 2.373 1_455 S
O212 C214 1.258 . S
O213 Eu202 2.392 1_554 S
O213 C214 1.242 . S
C214 O212 1.258 . S
C214 O213 1.242 . S
O215 Eu202 2.418 . S
O215 C219 1.244 1_556 S
O216 Eu203 2.488 . S
O216 C232 1.249 . S
O217 Eu203 2.471 1_455 S
O217 C232 1.244 1_455 S
O218 Eu203 2.349 1_455 S
O218 C219 1.265 . S
C219 O215 1.244 1_554 S
C219 O218 1.265 . S
O220 Eu202 2.373 1_655 S
O220 C233 1.258 . S
O221 Eu203 2.388 . S
O221 C233 1.247 1_554 S
O222 Eu203 2.418 . S
O222 C204 1.244 1_554 S
O223 Eu202 2.488 . S
O223 C211 1.249 . S
O224 Eu202 2.471 1_655 S
O224 C211 1.244 1_655 S
O225 Eu202 2.349 1_655 S
O225 C204 1.265 . S
C226 C227 1.379 1_655 S
C226 C230 1.373 . S
C226 C232 1.505 . S
C227 C226 1.379 1_455 S
C227 C229 1.369 . S
C227 H238 0.930 . S
C228 C230 1.383 . S
C228 C231 1.382 1_655 S
C228 H239 0.930 . S
C229 C227 1.369 . S
C229 C231 1.392 . S
C229 H240 0.930 . S
C230 C226 1.373 . S
C230 C228 1.383 . S
C230 H241 0.931 . S
C231 C228 1.382 1_455 S
C231 C229 1.392 . S
C232 Eu203 2.828 . S
C232 O216 1.249 . S
C232 O217 1.244 1_655 S
C232 C226 1.505 . S
C233 O220 1.258 . S
C233 O221 1.247 1_556 S
H234 C206 0.930 . S
H235 C207 0.930 . S
H236 C208 0.930 . S
H237 C209 0.931 . S
H238 C227 0.930 . S
H239 C228 0.930 . S
H240 C229 0.930 . S
H241 C230 0.931 . S
Eu242 C251 2.828 . S
Eu242 O253 2.392 . S
Eu242 O255 2.418 . S
Eu242 O260 2.373 . S
Eu242 O263 2.488 . S
Eu242 O264 2.471 . S
Eu242 O265 2.349 . S
Eu243 O252 2.373 . S
Eu243 O256 2.488 . S
Eu243 O257 2.471 . S
Eu243 O258 2.349 . S
Eu243 O261 2.392 1_556 S
Eu243 O262 2.418 . S
Eu243 C272 2.828 . S
C244 O262 1.244 1_554 S
C244 O265 1.265 . S
C245 C246 1.379 . S
C245 C249 1.373 . S
C245 C251 1.505 . S
C246 C245 1.379 . S
C246 C248 1.369 . S
C246 H274 0.930 . S
C247 C249 1.383 . S
C247 C250 1.382 . S
C247 H275 0.930 . S
C248 C246 1.369 . S
C248 C250 1.392 . S
C248 H276 0.930 . S
C249 C245 1.373 . S
C249 C247 1.383 . S
C249 H277 0.931 . S
C250 C247 1.382 . S
C250 C248 1.392 . S
C251 Eu242 2.828 . S
C251 C245 1.505 . S
C251 O263 1.249 . S
C251 O264 1.244 . S
O252 Eu243 2.373 . S
O252 C254 1.258 . S
O253 Eu242 2.392 . S
O253 C254 1.242 1_554 S
C254 O252 1.258 . S
C254 O253 1.242 1_556 S
O255 Eu242 2.418 . S
O255 C259 1.244 1_554 S
O256 Eu243 2.488 . S
O256 C272 1.249 . S
O257 Eu243 2.471 . S
O257 C272 1.244 . S
O258 Eu243 2.349 . S
O258 C259 1.265 . S
C259 O255 1.244 1_556 S
C259 O258 1.265 . S
O260 Eu242 2.373 . S
O260 C273 1.258 . S
O261 Eu243 2.392 1_554 S
O261 C273 1.242 . S
O262 Eu243 2.418 . S
O262 C244 1.244 1_556 S
O263 Eu242 2.488 . S
O263 C251 1.249 . S
O264 Eu242 2.471 . S
O264 C251 1.244 . S
O265 Eu242 2.349 . S
O265 C244 1.265 . S
C266 C267 1.379 . S
C266 C270 1.373 . S
C266 C272 1.505 . S
C267 C266 1.379 . S
C267 C269 1.369 . S
C267 H278 0.930 . S
C268 C270 1.383 . S
C268 C271 1.382 . S
C268 H279 0.930 . S
C269 C267 1.369 . S
C269 C271 1.392 . S
C269 H280 0.930 . S
C270 C266 1.373 . S
C270 C268 1.383 . S
C270 H281 0.931 . S
C271 C268 1.382 . S
C271 C269 1.392 . S
C272 Eu243 2.828 . S
C272 O256 1.249 . S
C272 O257 1.244 . S
C272 C266 1.505 . S
C273 O260 1.258 . S
C273 O261 1.242 . S
H274 C246 0.930 . S
H275 C247 0.930 . S
H276 C248 0.930 . S
H277 C249 0.931 . S
H278 C267 0.930 . S
H279 C268 0.930 . S
H280 C269 0.930 . S
H281 C270 0.931 . S
Eu282 C291 2.828 . S
Eu282 O293 2.392 . S
Eu282 O295 2.418 . S
Eu282 O300 2.373 . S
Eu282 O303 2.488 . S
Eu282 O304 2.471 . S
Eu282 O305 2.349 . S
Eu283 O292 2.373 . S
Eu283 O296 2.488 . S
Eu283 O297 2.471 . S
Eu283 O298 2.349 . S
Eu283 O301 2.392 . S
Eu283 O302 2.418 . S
Eu283 C312 2.828 . S
C284 O302 1.244 . S
C284 O305 1.265 . S
C285 C286 1.379 . S
C285 C289 1.373 . S
C285 C291 1.505 . S
C286 C285 1.379 . S
C286 C288 1.369 . S
C286 H314 0.930 . S
C287 C289 1.383 . S
C287 C290 1.382 . S
C287 H315 0.930 . S
C288 C286 1.369 . S
C288 C290 1.392 . S
C288 H316 0.930 . S
C289 C285 1.373 . S
C289 C287 1.383 . S
C289 H317 0.931 . S
C290 C287 1.382 . S
C290 C288 1.392 . S
C291 Eu282 2.828 . S
C291 C285 1.505 . S
C291 O303 1.249 . S
C291 O304 1.244 . S
O292 Eu283 2.373 . S
O292 C294 1.258 . S
O293 Eu282 2.392 . S
O293 C294 1.242 . S
C294 O292 1.258 . S
C294 O293 1.242 . S
O295 Eu282 2.418 . S
O295 C299 1.244 . S
O296 Eu283 2.488 . S
O296 C312 1.249 . S
O297 Eu283 2.471 . S
O297 C312 1.244 . S
O298 Eu283 2.349 . S
O298 C299 1.265 . S
C299 O295 1.244 . S
C299 O298 1.265 . S
O300 Eu282 2.373 . S
O300 C313 1.258 . S
O301 Eu283 2.392 . S
O301 C313 1.242 . S
O302 Eu283 2.418 . S
O302 C284 1.244 . S
O303 Eu282 2.488 . S
O303 C291 1.249 . S
O304 Eu282 2.471 . S
O304 C291 1.244 . S
O305 Eu282 2.349 . S
O305 C284 1.265 . S
C306 C307 1.379 . S
C306 C310 1.373 . S
C306 C312 1.505 . S
C307 C306 1.379 . S
C307 C309 1.369 . S
C307 H318 0.930 . S
C308 C310 1.383 . S
C308 C311 1.382 . S
C308 H319 0.930 . S
C309 C307 1.369 . S
C309 C311 1.392 . S
C309 H320 0.930 . S
C310 C306 1.373 . S
C310 C308 1.383 . S
C310 H321 0.931 . S
C311 C308 1.382 . S
C311 C309 1.392 . S
C312 Eu283 2.828 . S
C312 O296 1.249 . S
C312 O297 1.244 . S
C312 C306 1.505 . S
C313 O300 1.258 . S
C313 O301 1.242 . S
H314 C286 0.930 . S
H315 C287 0.930 . S
H316 C288 0.930 . S
H317 C289 0.931 . S
H318 C307 0.930 . S
H319 C308 0.930 . S
H320 C309 0.930 . S
H321 C310 0.931 . S
Eu322 C331 2.828 . S
Eu322 O333 2.392 . S
Eu322 O335 2.418 . S
Eu322 O340 2.373 . S
Eu322 O343 2.488 . S
Eu322 O344 2.471 . S
Eu322 O345 2.349 . S
Eu323 O332 2.373 . S
Eu323 O336 2.488 . S
Eu323 O337 2.471 . S
Eu323 O338 2.349 . S
Eu323 O341 2.392 . S
Eu323 O342 2.418 . S
Eu323 C352 2.828 . S
C324 O342 1.244 . S
C324 O345 1.265 . S
C325 C326 1.379 . S
C325 C329 1.373 . S
C325 C331 1.505 . S
C326 C325 1.379 . S
C326 C328 1.369 . S
C326 H354 0.930 . S
C327 C329 1.383 . S
C327 C330 1.382 . S
C327 H355 0.930 . S
C328 C326 1.369 . S
C328 C330 1.392 . S
C328 H356 0.930 . S
C329 C325 1.373 . S
C329 C327 1.383 . S
C329 H357 0.931 . S
C330 C327 1.382 . S
C330 C328 1.392 . S
C331 Eu322 2.828 . S
C331 C325 1.505 . S
C331 O343 1.249 . S
C331 O344 1.244 . S
O332 Eu323 2.373 . S
O332 C334 1.258 . S
O333 Eu322 2.392 . S
O333 C334 1.242 . S
C334 O332 1.258 . S
C334 O333 1.242 . S
O335 Eu322 2.418 . S
O335 C339 1.244 . S
O336 Eu323 2.488 . S
O336 C352 1.249 . S
O337 Eu323 2.471 . S
O337 C352 1.244 . S
O338 Eu323 2.349 . S
O338 C339 1.265 . S
C339 O335 1.244 . S
C339 O338 1.265 . S
O340 Eu322 2.373 . S
O340 C353 1.258 . S
O341 Eu323 2.392 . S
O341 C353 1.242 . S
O342 Eu323 2.418 . S
O342 C324 1.244 . S
O343 Eu322 2.488 . S
O343 C331 1.249 . S
O344 Eu322 2.471 . S
O344 C331 1.244 . S
O345 Eu322 2.349 . S
O345 C324 1.265 . S
C346 C347 1.379 . S
C346 C350 1.373 . S
C346 C352 1.505 . S
C347 C346 1.379 . S
C347 C349 1.369 . S
C347 H358 0.930 . S
C348 C350 1.383 . S
C348 C351 1.382 . S
C348 H359 0.930 . S
C349 C347 1.369 . S
C349 C351 1.392 . S
C349 H360 0.930 . S
C350 C346 1.373 . S
C350 C348 1.383 . S
C350 H361 0.931 . S
C351 C348 1.382 . S
C351 C349 1.392 . S
C352 Eu323 2.828 . S
C352 O336 1.249 . S
C352 O337 1.244 . S
C352 C346 1.505 . S
C353 O340 1.258 . S
C353 O341 1.242 . S
H354 C326 0.930 . S
H355 C327 0.930 . S
H356 C328 0.930 . S
H357 C329 0.931 . S
H358 C347 0.930 . S
H359 C348 0.930 . S
H360 C349 0.930 . S
H361 C350 0.931 . S
Eu362 C371 2.828 . S
Eu362 O373 2.392 . S
Eu362 O375 2.418 . S
Eu362 O380 2.373 . S
Eu362 O383 2.488 . S
Eu362 O384 2.471 . S
Eu362 O385 2.349 . S
Eu363 O372 2.373 . S
Eu363 O376 2.488 . S
Eu363 O377 2.471 . S
Eu363 O378 2.349 . S
Eu363 O381 2.392 . S
Eu363 O382 2.418 . S
Eu363 C392 2.828 . S
C364 O382 1.244 . S
C364 O385 1.265 . S
C365 C366 1.379 . S
C365 C369 1.373 . S
C365 C371 1.505 . S
C366 C365 1.379 . S
C366 C368 1.369 . S
C366 H394 0.930 . S
C367 C369 1.383 . S
C367 C370 1.382 . S
C367 H395 0.930 . S
C368 C366 1.369 . S
C368 C370 1.392 . S
C368 H396 0.930 . S
C369 C365 1.373 . S
C369 C367 1.383 . S
C369 H397 0.931 . S
C370 C367 1.382 . S
C370 C368 1.392 . S
C371 Eu362 2.828 . S
C371 C365 1.505 . S
C371 O383 1.249 . S
C371 O384 1.244 . S
O372 Eu363 2.373 . S
O372 C374 1.258 . S
O373 Eu362 2.392 . S
O373 C374 1.242 . S
C374 O372 1.258 . S
C374 O373 1.242 . S
O375 Eu362 2.418 . S
O375 C379 1.244 . S
O376 Eu363 2.488 . S
O376 C392 1.249 . S
O377 Eu363 2.471 . S
O377 C392 1.244 . S
O378 Eu363 2.349 . S
O378 C379 1.265 . S
C379 O375 1.244 . S
C379 O378 1.265 . S
O380 Eu362 2.373 . S
O380 C393 1.258 . S
O381 Eu363 2.392 . S
O381 C393 1.242 . S
O382 Eu363 2.418 . S
O382 C364 1.244 . S
O383 Eu362 2.488 . S
O383 C371 1.249 . S
O384 Eu362 2.471 . S
O384 C371 1.244 . S
O385 Eu362 2.349 . S
O385 C364 1.265 . S
C386 C387 1.379 . S
C386 C390 1.373 . S
C386 C392 1.505 . S
C387 C386 1.379 . S
C387 C389 1.369 . S
C387 H398 0.930 . S
C388 C390 1.383 . S
C388 C391 1.382 . S
C388 H399 0.930 . S
C389 C387 1.369 . S
C389 C391 1.392 . S
C389 H400 0.930 . S
C390 C386 1.373 . S
C390 C388 1.383 . S
C390 H401 0.931 . S
C391 C388 1.382 . S
C391 C389 1.392 . S
C392 Eu363 2.828 . S
C392 O376 1.249 . S
C392 O377 1.244 . S
C392 C386 1.505 . S
C393 O380 1.258 . S
C393 O381 1.242 . S
H394 C366 0.930 . S
H395 C367 0.930 . S
H396 C368 0.930 . S
H397 C369 0.931 . S
H398 C387 0.930 . S
H399 C388 0.930 . S
H400 C389 0.930 . S
H401 C390 0.931 . S
Eu402 C411 2.828 . S
Eu402 O413 2.392 . S
Eu402 O415 2.418 . S
Eu402 O420 2.373 . S
Eu402 O423 2.488 . S
Eu402 O424 2.471 . S
Eu402 O425 2.349 . S
Eu403 O412 2.373 . S
Eu403 O416 2.488 . S
Eu403 O417 2.471 . S
Eu403 O418 2.349 . S
Eu403 O421 2.392 . S
Eu403 O422 2.418 . S
Eu403 C432 2.828 . S
C404 O422 1.244 . S
C404 O425 1.265 . S
C405 C406 1.379 . S
C405 C409 1.373 . S
C405 C411 1.505 . S
C406 C405 1.379 . S
C406 C408 1.369 . S
C406 H434 0.930 . S
C407 C409 1.383 . S
C407 C410 1.382 . S
C407 H435 0.930 . S
C408 C406 1.369 . S
C408 C410 1.392 . S
C408 H436 0.930 . S
C409 C405 1.373 . S
C409 C407 1.383 . S
C409 H437 0.931 . S
C410 C407 1.382 . S
C410 C408 1.392 . S
C411 Eu402 2.828 . S
C411 C405 1.505 . S
C411 O423 1.249 . S
C411 O424 1.244 . S
O412 Eu403 2.373 . S
O412 C414 1.258 . S
O413 Eu402 2.392 . S
O413 C414 1.242 . S
C414 O412 1.258 . S
C414 O413 1.242 . S
O415 Eu402 2.418 . S
O415 C419 1.244 . S
O416 Eu403 2.488 . S
O416 C432 1.249 . S
O417 Eu403 2.471 . S
O417 C432 1.244 . S
O418 Eu403 2.349 . S
O418 C419 1.265 . S
C419 O415 1.244 . S
C419 O418 1.265 . S
O420 Eu402 2.373 . S
O420 C433 1.258 . S
O421 Eu403 2.392 . S
O421 C433 1.242 . S
O422 Eu403 2.418 . S
O422 C404 1.244 . S
O423 Eu402 2.488 . S
O423 C411 1.249 . S
O424 Eu402 2.471 . S
O424 C411 1.244 . S
O425 Eu402 2.349 . S
O425 C404 1.265 . S
C426 C427 1.379 . S
C426 C430 1.373 . S
C426 C432 1.505 . S
C427 C426 1.379 . S
C427 C429 1.369 . S
C427 H438 0.930 . S
C428 C430 1.383 . S
C428 C431 1.382 . S
C428 H439 0.930 . S
C429 C427 1.369 . S
C429 C431 1.392 . S
C429 H440 0.930 . S
C430 C426 1.373 . S
C430 C428 1.383 . S
C430 H441 0.931 . S
C431 C428 1.382 . S
C431 C429 1.392 . S
C432 Eu403 2.828 . S
C432 O416 1.249 . S
C432 O417 1.244 . S
C432 C426 1.505 . S
C433 O420 1.258 . S
C433 O421 1.242 . S
H434 C406 0.930 . S
H435 C407 0.930 . S
H436 C408 0.930 . S
H437 C409 0.931 . S
H438 C427 0.930 . S
H439 C428 0.930 . S
H440 C429 0.930 . S
H441 C430 0.931 . S
Eu442 C451 2.828 . S
Eu442 O453 2.392 . S
Eu442 O455 2.418 . S
Eu442 O460 2.373 . S
Eu442 O463 2.488 . S
Eu442 O464 2.471 . S
Eu442 O465 2.349 . S
Eu443 O452 2.373 . S
Eu443 O456 2.488 . S
Eu443 O457 2.471 . S
Eu443 O458 2.349 . S
Eu443 O461 2.392 . S
Eu443 O462 2.418 . S
Eu443 C472 2.828 . S
C444 O462 1.244 . S
C444 O465 1.265 . S
C445 C446 1.379 . S
C445 C449 1.373 . S
C445 C451 1.505 . S
C446 C445 1.379 . S
C446 C448 1.369 . S
C446 H474 0.930 . S
C447 C449 1.383 . S
C447 C450 1.382 . S
C447 H475 0.930 . S
C448 C446 1.369 . S
C448 C450 1.392 . S
C448 H476 0.930 . S
C449 C445 1.373 . S
C449 C447 1.383 . S
C449 H477 0.931 . S
C450 C447 1.382 . S
C450 C448 1.392 . S
C451 Eu442 2.828 . S
C451 C445 1.505 . S
C451 O463 1.249 . S
C451 O464 1.244 . S
O452 Eu443 2.373 . S
O452 C454 1.258 . S
O453 Eu442 2.392 . S
O453 C454 1.242 . S
C454 O452 1.258 . S
C454 O453 1.242 . S
O455 Eu442 2.418 . S
O455 C459 1.244 . S
O456 Eu443 2.488 . S
O456 C472 1.249 . S
O457 Eu443 2.471 . S
O457 C472 1.244 . S
O458 Eu443 2.349 . S
O458 C459 1.265 . S
C459 O455 1.244 . S
C459 O458 1.265 . S
O460 Eu442 2.373 . S
O460 C473 1.258 . S
O461 Eu443 2.392 . S
O461 C473 1.242 . S
O462 Eu443 2.418 . S
O462 C444 1.244 . S
O463 Eu442 2.488 . S
O463 C451 1.249 . S
O464 Eu442 2.471 . S
O464 C451 1.244 . S
O465 Eu442 2.349 . S
O465 C444 1.265 . S
C466 C467 1.379 . S
C466 C470 1.373 . S
C466 C472 1.505 . S
C467 C466 1.379 . S
C467 C469 1.369 . S
C467 H478 0.930 . S
C468 C470 1.383 . S
C468 C471 1.382 . S
C468 H479 0.930 . S
C469 C467 1.369 . S
C469 C471 1.392 . S
C469 H480 0.930 . S
C470 C466 1.373 . S
C470 C468 1.383 . S
C470 H481 0.931 . S
C471 C468 1.382 . S
C471 C469 1.392 . S
C472 Eu443 2.828 . S
C472 O456 1.249 . S
C472 O457 1.244 . S
C472 C466 1.505 . S
C473 O460 1.258 . S
C473 O461 1.242 . S
H474 C446 0.930 . S
H475 C447 0.930 . S
H476 C448 0.930 . S
H477 C449 0.931 . S
H478 C467 0.930 . S
H479 C468 0.930 . S
H480 C469 0.930 . S
H481 C470 0.931 . S
Eu482 C491 2.828 . S
Eu482 O493 2.392 . S
Eu482 O495 2.418 . S
Eu482 O500 2.373 . S
Eu482 O503 2.488 . S
Eu482 O504 2.471 . S
Eu482 O505 2.349 . S
Eu483 O492 2.373 . S
Eu483 O496 2.488 . S
Eu483 O497 2.471 . S
Eu483 O498 2.349 . S
Eu483 O501 2.392 . S
Eu483 O502 2.418 . S
Eu483 C512 2.828 . S
C484 O502 1.244 . S
C484 O505 1.265 . S
C485 C486 1.379 . S
C485 C489 1.373 . S
C485 C491 1.505 . S
C486 C485 1.379 . S
C486 C488 1.369 . S
C486 H514 0.930 . S
C487 C489 1.383 . S
C487 C490 1.382 . S
C487 H515 0.930 . S
C488 C486 1.369 . S
C488 C490 1.392 . S
C488 H516 0.930 . S
C489 C485 1.373 . S
C489 C487 1.383 . S
C489 H517 0.931 . S
C490 C487 1.382 . S
C490 C488 1.392 . S
C491 Eu482 2.828 . S
C491 C485 1.505 . S
C491 O503 1.249 . S
C491 O504 1.244 . S
O492 Eu483 2.373 . S
O492 C494 1.258 . S
O493 Eu482 2.392 . S
O493 C494 1.242 . S
C494 O492 1.258 . S
C494 O493 1.242 . S
O495 Eu482 2.418 . S
O495 C499 1.244 . S
O496 Eu483 2.488 . S
O496 C512 1.249 . S
O497 Eu483 2.471 . S
O497 C512 1.244 . S
O498 Eu483 2.349 . S
O498 C499 1.265 . S
C499 O495 1.244 . S
C499 O498 1.265 . S
O500 Eu482 2.373 . S
O500 C513 1.258 . S
O501 Eu483 2.392 . S
O501 C513 1.242 . S
O502 Eu483 2.418 . S
O502 C484 1.244 . S
O503 Eu482 2.488 . S
O503 C491 1.249 . S
O504 Eu482 2.471 . S
O504 C491 1.244 . S
O505 Eu482 2.349 . S
O505 C484 1.265 . S
C506 C507 1.379 . S
C506 C510 1.373 . S
C506 C512 1.505 . S
C507 C506 1.379 . S
C507 C509 1.369 . S
C507 H518 0.930 . S
C508 C510 1.383 . S
C508 C511 1.382 . S
C508 H519 0.930 . S
C509 C507 1.369 . S
C509 C511 1.392 . S
C509 H520 0.930 . S
C510 C506 1.373 . S
C510 C508 1.383 . S
C510 H521 0.931 . S
C511 C508 1.382 . S
C511 C509 1.392 . S
C512 Eu483 2.828 . S
C512 O496 1.249 . S
C512 O497 1.244 . S
C512 C506 1.505 . S
C513 O500 1.258 . S
C513 O501 1.242 . S
H514 C486 0.930 . S
H515 C487 0.930 . S
H516 C488 0.930 . S
H517 C489 0.931 . S
H518 C507 0.930 . S
H519 C508 0.930 . S
H520 C509 0.930 . S
H521 C510 0.931 . S
C522 C523 1.391 . S
C522 C524 1.394 . S
C522 H538 0.931 . S
C523 C522 1.391 . S
C523 C527 1.376 . S
C524 C522 1.394 . S
C524 C525 1.369 . S
C524 C528 1.531 . S
C525 C524 1.369 . S
C525 C526 1.410 . S
C525 C533 1.503 . S
C526 C525 1.410 . S
C526 C527 1.392 . S
C526 C529 1.511 . S
C527 C523 1.376 . S
C527 C526 1.392 . S
C527 H539 0.929 . S
C528 C524 1.531 . S
C528 H540 0.960 . S
C528 H541 0.962 . S
C528 H542 0.960 . S
C529 C526 1.511 . S
C529 H543 0.961 . S
C529 H544 0.961 . S
C529 H545 0.961 . S
C530 C531 1.370 . S
C530 C532 1.363 . S
C530 H546 0.931 . S
C531 C530 1.370 . S
C531 C535 1.408 . S
C532 C530 1.363 . S
C532 C533 1.370 . S
C532 C536 1.524 . S
C533 C525 1.503 . S
C533 C532 1.370 . S
C533 C534 1.403 . S
C534 C533 1.403 . S
C534 C535 1.404 . S
C534 C537 1.539 . S
C535 C531 1.408 . S
C535 C534 1.404 . S
C535 H547 0.930 . S
C536 C532 1.524 . S
C536 H548 0.956 . S
C536 H549 0.961 . S
C536 H550 0.961 . S
C537 C534 1.539 . S
C537 H551 0.958 . S
C537 H552 0.961 . S
C537 H553 0.960 . S
H538 C522 0.931 . S
H539 C527 0.929 . S
H540 C528 0.960 . S
H541 C528 0.962 . S
H542 C528 0.960 . S
H543 C529 0.961 . S
H544 C529 0.961 . S
H545 C529 0.961 . S
H546 C530 0.931 . S
H547 C535 0.930 . S
H548 C536 0.956 . S
H549 C536 0.961 . S
H550 C536 0.961 . S
H551 C537 0.958 . S
H552 C537 0.961 . S
H553 C537 0.960 . S
C554 C555 1.391 . S
C554 C556 1.394 . S
C554 H570 0.931 . S
C555 C554 1.391 . S
C555 C559 1.376 . S
C556 C554 1.394 . S
C556 C557 1.369 . S
C556 C560 1.531 . S
C557 C556 1.369 . S
C557 C558 1.410 . S
C557 C565 1.503 . S
C558 C557 1.410 . S
C558 C559 1.392 . S
C558 C561 1.511 . S
C559 C555 1.376 . S
C559 C558 1.392 . S
C559 H571 0.929 . S
C560 C556 1.531 . S
C560 H572 0.960 . S
C560 H573 0.962 . S
C560 H574 0.960 . S
C561 C558 1.511 . S
C561 H575 0.961 . S
C561 H576 0.961 . S
C561 H577 0.961 . S
C562 C563 1.370 . S
C562 C564 1.363 . S
C562 H578 0.931 . S
C563 C562 1.370 . S
C563 C567 1.408 . S
C564 C562 1.363 . S
C564 C565 1.370 . S
C564 C568 1.524 . S
C565 C557 1.503 . S
C565 C564 1.370 . S
C565 C566 1.403 . S
C566 C565 1.403 . S
C566 C567 1.404 . S
C566 C569 1.539 . S
C567 C563 1.408 . S
C567 C566 1.404 . S
C567 H579 0.930 . S
C568 C564 1.524 . S
C568 H580 0.956 . S
C568 H581 0.961 . S
C568 H582 0.961 . S
C569 C566 1.539 . S
C569 H583 0.958 . S
C569 H584 0.961 . S
C569 H585 0.960 . S
H570 C554 0.931 . S
H571 C559 0.929 . S
H572 C560 0.960 . S
H573 C560 0.962 . S
H574 C560 0.960 . S
H575 C561 0.961 . S
H576 C561 0.961 . S
H577 C561 0.961 . S
H578 C562 0.931 . S
H579 C567 0.930 . S
H580 C568 0.956 . S
H581 C568 0.961 . S
H582 C568 0.961 . S
H583 C569 0.958 . S
H584 C569 0.961 . S
H585 C569 0.960 . S
C586 C587 1.391 . S
C586 C588 1.394 . S
C586 H602 0.931 . S
C587 C586 1.391 . S
C587 C591 1.376 . S
C588 C586 1.394 . S
C588 C589 1.369 . S
C588 C592 1.531 . S
C589 C588 1.369 . S
C589 C590 1.410 . S
C589 C597 1.503 . S
C590 C589 1.410 . S
C590 C591 1.392 . S
C590 C593 1.511 . S
C591 C587 1.376 . S
C591 C590 1.392 . S
C591 H603 0.929 . S
C592 C588 1.531 . S
C592 H604 0.960 . S
C592 H605 0.962 . S
C592 H606 0.960 . S
C593 C590 1.511 . S
C593 H607 0.961 . S
C593 H608 0.961 . S
C593 H609 0.961 . S
C594 C595 1.370 . S
C594 C596 1.363 . S
C594 H610 0.931 1_554 S
C595 C594 1.370 . S
C595 C599 1.408 . S
C596 C594 1.363 . S
C596 C597 1.370 . S
C596 C600 1.524 . S
C597 C589 1.503 . S
C597 C596 1.370 . S
C597 C598 1.403 . S
C598 C597 1.403 . S
C598 C599 1.404 . S
C598 C601 1.539 . S
C599 C595 1.408 . S
C599 C598 1.404 . S
C599 H611 0.930 . S
C600 C596 1.524 . S
C600 H612 0.956 . S
C600 H613 0.977 . S
C600 H614 0.961 1_554 S
C601 C598 1.539 . S
C601 H615 0.958 . S
C601 H616 0.961 . S
C601 H617 0.960 . S
H602 C586 0.931 . S
H603 C591 0.929 . S
H604 C592 0.960 . S
H605 C592 0.962 . S
H606 C592 0.960 . S
H607 C593 0.961 . S
H608 C593 0.961 . S
H609 C593 0.961 . S
H610 C594 0.931 1_556 S
H611 C599 0.930 . S
H612 C600 0.956 . S
H613 C600 0.977 . S
H614 C600 0.961 1_556 S
H615 C601 0.958 . S
H616 C601 0.961 . S
H617 C601 0.960 . S
C618 C619 1.391 . S
C618 C620 1.394 . S
C618 H634 0.931 . S
C619 C618 1.391 . S
C619 C623 1.376 . S
C620 C618 1.394 . S
C620 C621 1.369 . S
C620 C624 1.531 . S
C621 C620 1.369 . S
C621 C622 1.410 . S
C621 C629 1.503 . S
C622 C621 1.410 . S
C622 C623 1.392 . S
C622 C625 1.511 . S
C623 C619 1.376 . S
C623 C622 1.392 . S
C623 H635 0.929 . S
C624 C620 1.531 . S
C624 H636 0.960 . S
C624 H637 0.962 . S
C624 H638 0.960 . S
C625 C622 1.511 . S
C625 H639 0.961 . S
C625 H640 0.961 . S
C625 H641 0.961 . S
C626 C627 1.370 . S
C626 C628 1.363 . S
C626 H642 0.931 . S
C627 C626 1.370 . S
C627 C631 1.439 . S
C628 C626 1.363 . S
C628 C629 1.370 . S
C628 C632 1.524 . S
C629 C621 1.503 . S
C629 C628 1.370 . S
C629 C630 1.403 . S
C630 C629 1.403 . S
C630 C631 1.412 . S
C630 C633 1.539 1_556 S
C631 C627 1.439 . S
C631 C630 1.412 . S
C631 H643 0.893 1_556 S
C632 C628 1.524 . S
C632 H644 0.956 . S
C632 H645 0.961 . S
C632 H646 0.961 . S
C633 C630 1.539 1_554 S
C633 H647 0.958 . S
C633 H648 0.961 . S
C633 H649 0.960 . S
H634 C618 0.931 . S
H635 C623 0.929 . S
H636 C624 0.960 . S
H637 C624 0.962 . S
H638 C624 0.960 . S
H639 C625 0.961 . S
H640 C625 0.961 . S
H641 C625 0.961 . S
H642 C626 0.931 . S
H643 C631 0.893 1_554 S
H644 C632 0.956 . S
H645 C632 0.961 . S
H646 C632 0.961 . S
H647 C633 0.958 . S
H648 C633 0.961 . S
H649 C633 0.960 . S
C650 C651 1.391 . S
C650 C652 1.394 . S
C650 H666 0.931 . S
C651 C650 1.391 . S
C651 C655 1.376 . S
C652 C650 1.394 . S
C652 C653 1.369 . S
C652 C656 1.531 . S
C653 C652 1.369 . S
C653 C654 1.410 . S
C653 C661 1.503 . S
C654 C653 1.410 . S
C654 C655 1.392 . S
C654 C657 1.511 . S
C655 C651 1.376 . S
C655 C654 1.392 . S
C655 H667 0.929 . S
C656 C652 1.531 . S
C656 H668 0.960 . S
C656 H669 0.962 . S
C656 H670 0.960 . S
C657 C654 1.511 . S
C657 H671 0.961 . S
C657 H672 0.961 . S
C657 H673 0.961 . S
C658 C659 1.370 . S
C658 C660 1.363 . S
C658 H674 0.931 . S
C659 C658 1.370 . S
C659 C663 1.408 . S
C660 C658 1.363 . S
C660 C661 1.370 . S
C660 C664 1.524 . S
C661 C653 1.503 . S
C661 C660 1.370 . S
C661 C662 1.403 . S
C662 C661 1.403 . S
C662 C663 1.404 . S
C662 C665 1.539 . S
C663 C659 1.408 . S
C663 C662 1.404 . S
C663 H675 0.930 . S
C664 C660 1.524 . S
C664 H676 0.956 . S
C664 H677 0.961 . S
C664 H678 0.961 . S
C665 C662 1.539 . S
C665 H679 0.958 . S
C665 H680 0.961 . S
C665 H681 0.960 . S
H666 C650 0.931 . S
H667 C655 0.929 . S
H668 C656 0.960 . S
H669 C656 0.962 . S
H670 C656 0.960 . S
H671 C657 0.961 . S
H672 C657 0.961 . S
H673 C657 0.961 . S
H674 C658 0.931 . S
H675 C663 0.930 . S
H676 C664 0.956 . S
H677 C664 0.961 . S
H678 C664 0.961 . S
H679 C665 0.958 . S
H680 C665 0.961 . S
H681 C665 0.960 . S
C682 C683 1.391 . S
C682 C684 1.394 . S
C682 H698 0.931 . S
C683 C682 1.391 . S
C683 C687 1.376 . S
C684 C682 1.394 . S
C684 C685 1.369 . S
C684 C688 1.531 . S
C685 C684 1.369 . S
C685 C686 1.410 . S
C685 C693 1.503 . S
C686 C685 1.410 . S
C686 C687 1.392 . S
C686 C689 1.479 1_556 S
C687 C683 1.376 . S
C687 C686 1.392 . S
C687 H699 0.929 . S
C688 C684 1.531 . S
C688 H700 0.960 . S
C688 H701 0.962 . S
C688 H702 0.960 . S
C689 C686 1.479 1_554 S
C689 H703 0.983 . S
C689 H704 0.977 . S
C689 H705 0.960 . S
C690 C691 1.370 . S
C690 C692 1.363 . S
C690 H706 0.931 . S
C691 C690 1.370 . S
C691 C695 1.408 . S
C692 C690 1.363 . S
C692 C693 1.370 . S
C692 C696 1.524 . S
C693 C685 1.503 . S
C693 C692 1.370 . S
C693 C694 1.403 . S
C694 C693 1.403 . S
C694 C695 1.404 . S
C694 C697 1.539 . S
C695 C691 1.408 . S
C695 C694 1.404 . S
C695 H707 0.930 . S
C696 C692 1.524 . S
C696 H708 0.956 . S
C696 H709 0.961 . S
C696 H710 0.961 . S
C697 C694 1.539 . S
C697 H711 0.958 . S
C697 H712 0.961 . S
C697 H713 0.960 . S
H698 C682 0.931 . S
H699 C687 0.929 . S
H700 C688 0.960 . S
H701 C688 0.962 . S
H702 C688 0.960 . S
H703 C689 0.983 . S
H704 C689 0.977 . S
H705 C689 0.960 . S
H706 C690 0.931 . S
H707 C695 0.930 . S
H708 C696 0.956 . S
H709 C696 0.961 . S
H710 C696 0.961 . S
H711 C697 0.958 . S
H712 C697 0.961 . S
H713 C697 0.960 . S
C714 C715 1.391 . S
C714 C716 1.394 . S
C714 H730 0.931 . S
C715 C714 1.391 . S
C715 C719 1.376 . S
C716 C714 1.394 . S
C716 C717 1.369 . S
C716 C720 1.531 . S
C717 C716 1.369 . S
C717 C718 1.410 . S
C717 C725 1.503 . S
C718 C717 1.410 . S
C718 C719 1.392 . S
C718 C721 1.511 . S
C719 C715 1.376 . S
C719 C718 1.392 . S
C719 H731 0.929 . S
C720 C716 1.531 . S
C720 H732 0.960 . S
C720 H733 0.962 . S
C720 H734 0.960 . S
C721 C718 1.511 . S
C721 H735 0.961 . S
C721 H736 0.961 . S
C721 H737 0.961 . S
C722 C723 1.370 . S
C722 C724 1.363 . S
C722 H738 0.931 . S
C723 C722 1.370 . S
C723 C727 1.408 . S
C724 C722 1.363 . S
C724 C725 1.370 . S
C724 C728 1.524 . S
C725 C717 1.503 . S
C725 C724 1.370 . S
C725 C726 1.403 . S
C726 C725 1.403 . S
C726 C727 1.404 . S
C726 C729 1.539 1_556 S
C727 C723 1.408 . S
C727 C726 1.404 . S
C727 H739 0.930 1_556 S
C728 C724 1.524 . S
C728 H740 0.956 . S
C728 H741 0.961 . S
C728 H742 0.961 . S
C729 C726 1.539 1_554 S
C729 H743 0.958 . S
C729 H744 0.961 . S
C729 H745 0.960 . S
H730 C714 0.931 . S
H731 C719 0.929 . S
H732 C720 0.960 . S
H733 C720 0.962 . S
H734 C720 0.960 . S
H735 C721 0.961 . S
H736 C721 0.961 . S
H737 C721 0.961 . S
H738 C722 0.931 . S
H739 C727 0.930 1_554 S
H740 C728 0.956 . S
H741 C728 0.961 . S
H742 C728 0.961 . S
H743 C729 0.958 . S
H744 C729 0.961 . S
H745 C729 0.960 . S
C746 C747 1.391 . S
C746 C748 1.394 . S
C746 H762 0.931 . S
C747 C746 1.391 . S
C747 C751 1.376 . S
C748 C746 1.394 . S
C748 C749 1.369 . S
C748 C752 1.531 . S
C749 C748 1.369 . S
C749 C750 1.410 . S
C749 C757 1.503 . S
C750 C749 1.410 . S
C750 C751 1.392 . S
C750 C753 1.511 . S
C751 C747 1.376 . S
C751 C750 1.392 . S
C751 H763 0.929 . S
C752 C748 1.531 . S
C752 H764 0.960 . S
C752 H765 0.962 . S
C752 H766 0.960 . S
C753 C750 1.511 . S
C753 H767 0.961 . S
C753 H768 0.961 . S
C753 H769 0.961 . S
C754 C755 1.370 . S
C754 C756 1.363 . S
C754 H770 0.931 . S
C755 C754 1.370 . S
C755 C759 1.408 . S
C756 C754 1.363 . S
C756 C757 1.370 . S
C756 C760 1.524 . S
C757 C749 1.503 . S
C757 C756 1.370 . S
C757 C758 1.403 . S
C758 C757 1.403 . S
C758 C759 1.404 . S
C758 C761 1.539 . S
C759 C755 1.408 . S
C759 C758 1.404 . S
C759 H771 0.930 . S
C760 C756 1.524 . S
C760 H772 0.956 . S
C760 H773 0.961 . S
C760 H774 0.961 1_556 S
C761 C758 1.539 . S
C761 H775 0.958 . S
C761 H776 0.961 . S
C761 H777 0.960 . S
H762 C746 0.931 . S
H763 C751 0.929 . S
H764 C752 0.960 . S
H765 C752 0.962 . S
H766 C752 0.960 . S
H767 C753 0.961 . S
H768 C753 0.961 . S
H769 C753 0.961 . S
H770 C754 0.931 . S
H771 C759 0.930 . S
H772 C760 0.956 . S
H773 C760 0.961 . S
H774 C760 0.961 1_554 S
H775 C761 0.958 . S
H776 C761 0.961 . S
H777 C761 0.960 . S
C778 C779 1.391 . S
C778 C780 1.394 . S
C778 H794 0.931 . S
C779 C778 1.391 . S
C779 C783 1.376 . S
C780 C778 1.394 . S
C780 C781 1.369 . S
C780 C784 1.531 . S
C781 C780 1.369 . S
C781 C782 1.410 . S
C781 C789 1.503 . S
C782 C781 1.410 . S
C782 C783 1.392 . S
C782 C785 1.511 . S
C783 C779 1.376 . S
C783 C782 1.392 . S
C783 H795 0.929 . S
C784 C780 1.531 . S
C784 H796 0.960 . S
C784 H797 0.962 . S
C784 H798 0.960 . S
C785 C782 1.511 . S
C785 H799 0.961 1_556 S
C785 H800 0.959 . S
C785 H801 0.961 . S
C786 C787 1.370 . S
C786 C788 1.363 . S
C786 H802 0.911 1_556 S
C787 C786 1.370 . S
C787 C791 1.408 . S
C788 C786 1.363 . S
C788 C789 1.370 . S
C788 C792 1.524 . S
C789 C781 1.503 . S
C789 C788 1.370 . S
C789 C790 1.403 . S
C790 C789 1.403 . S
C790 C791 1.404 . S
C790 C793 1.539 . S
C791 C787 1.408 . S
C791 C790 1.404 . S
C791 H803 0.930 . S
C792 C788 1.524 . S
C792 H804 0.956 . S
C792 H805 0.982 . S
C792 H806 0.961 1_556 S
C793 C790 1.539 . S
C793 H807 0.958 . S
C793 H808 0.961 . S
C793 H809 0.960 . S
H794 C778 0.931 . S
H795 C783 0.929 . S
H796 C784 0.960 . S
H797 C784 0.962 . S
H798 C784 0.960 . S
H799 C785 0.961 1_554 S
H800 C785 0.959 . S
H801 C785 0.961 . S
H802 C786 0.911 1_554 S
H803 C791 0.930 . S
H804 C792 0.956 . S
H805 C792 0.982 . S
H806 C792 0.961 1_554 S
H807 C793 0.958 . S
H808 C793 0.961 . S
H809 C793 0.960 . S
C810 C811 1.391 . S
C810 C812 1.394 . S
C810 H826 0.931 . S
C811 C810 1.391 . S
C811 C815 1.376 . S
C812 C810 1.394 . S
C812 C813 1.369 . S
C812 C816 1.531 . S
C813 C812 1.369 . S
C813 C814 1.410 . S
C813 C821 1.503 . S
C814 C813 1.410 . S
C814 C815 1.392 . S
C814 C817 1.511 . S
C815 C811 1.376 . S
C815 C814 1.392 . S
C815 H827 0.929 . S
C816 C812 1.531 . S
C816 H828 0.960 . S
C816 H829 0.962 . S
C816 H830 0.960 . S
C817 C814 1.511 . S
C817 H831 0.961 . S
C817 H832 0.961 . S
C817 H833 0.961 . S
C818 C819 1.370 . S
C818 C820 1.363 . S
C818 H834 0.931 1_554 S
C819 C818 1.370 . S
C819 C823 1.408 . S
C820 C818 1.363 . S
C820 C821 1.370 . S
C820 C824 1.524 . S
C821 C813 1.503 . S
C821 C820 1.370 . S
C821 C822 1.403 . S
C822 C821 1.403 . S
C822 C823 1.404 . S
C822 C825 1.539 . S
C823 C819 1.408 . S
C823 C822 1.404 . S
C823 H835 0.930 . S
C824 C820 1.524 . S
C824 H836 0.956 . S
C824 H837 0.961 . S
C824 H838 0.961 1_554 S
C825 C822 1.539 . S
C825 H839 0.958 . S
C825 H840 0.961 . S
C825 H841 0.960 . S
H826 C810 0.931 . S
H827 C815 0.929 . S
H828 C816 0.960 . S
H829 C816 0.962 . S
H830 C816 0.960 . S
H831 C817 0.961 . S
H832 C817 0.961 . S
H833 C817 0.961 . S
H834 C818 0.931 1_556 S
H835 C823 0.930 . S
H836 C824 0.956 . S
H837 C824 0.961 . S
H838 C824 0.961 1_556 S
H839 C825 0.958 . S
H840 C825 0.961 . S
H841 C825 0.960 . S
C842 C843 1.391 . S
C842 C844 1.394 . S
C842 H858 0.931 . S
C843 C842 1.391 . S
C843 C847 1.376 . S
C844 C842 1.394 . S
C844 C845 1.369 . S
C844 C848 1.531 . S
C845 C844 1.369 . S
C845 C846 1.410 . S
C845 C853 1.503 . S
C846 C845 1.410 . S
C846 C847 1.392 . S
C846 C849 1.511 . S
C847 C843 1.376 . S
C847 C846 1.392 . S
C847 H859 0.929 . S
C848 C844 1.531 . S
C848 H860 0.960 . S
C848 H861 0.962 . S
C848 H862 0.960 . S
C849 C846 1.511 . S
C849 H863 0.961 . S
C849 H864 0.961 . S
C849 H865 0.961 . S
C850 C851 1.370 . S
C850 C852 1.363 . S
C850 H866 0.931 . S
C851 C850 1.370 . S
C851 C855 1.408 . S
C852 C850 1.363 . S
C852 C853 1.370 . S
C852 C856 1.524 . S
C853 C845 1.503 . S
C853 C852 1.370 . S
C853 C854 1.403 . S
C854 C853 1.403 . S
C854 C855 1.404 . S
C854 C857 1.539 . S
C855 C851 1.408 . S
C855 C854 1.404 . S
C855 H867 0.930 . S
C856 C852 1.524 . S
C856 H868 0.956 . S
C856 H869 0.961 . S
C856 H870 0.961 . S
C857 C854 1.539 . S
C857 H871 0.958 . S
C857 H872 0.961 . S
C857 H873 0.960 . S
H858 C842 0.931 . S
H859 C847 0.929 . S
H860 C848 0.960 . S
H861 C848 0.962 . S
H862 C848 0.960 . S
H863 C849 0.961 . S
H864 C849 0.961 . S
H865 C849 0.961 . S
H866 C850 0.931 . S
H867 C855 0.930 . S
H868 C856 0.956 . S
H869 C856 0.961 . S
H870 C856 0.961 . S
H871 C857 0.958 . S
H872 C857 0.961 . S
H873 C857 0.960 . S
C874 C875 1.391 . S
C874 C876 1.394 . S
C874 H890 0.931 . S
C875 C874 1.391 . S
C875 C879 1.376 . S
C876 C874 1.394 . S
C876 C877 1.369 . S
C876 C880 1.531 . S
C877 C876 1.369 . S
C877 C878 1.410 . S
C877 C885 1.503 . S
C878 C877 1.410 . S
C878 C879 1.392 . S
C878 C881 1.511 . S
C879 C875 1.376 . S
C879 C878 1.392 . S
C879 H891 0.929 . S
C880 C876 1.531 . S
C880 H892 0.960 . S
C880 H893 0.962 . S
C880 H894 0.960 . S
C881 C878 1.511 . S
C881 H895 0.961 . S
C881 H896 0.961 . S
C881 H897 0.961 . S
C882 C883 1.370 . S
C882 C884 1.363 . S
C882 H898 0.931 . S
C883 C882 1.370 . S
C883 C887 1.435 . S
C884 C882 1.363 . S
C884 C885 1.370 . S
C884 C888 1.524 . S
C885 C877 1.503 . S
C885 C884 1.370 . S
C885 C886 1.403 . S
C886 C885 1.403 . S
C886 C887 1.415 . S
C886 C889 1.539 1_554 S
C887 C883 1.435 . S
C887 C886 1.415 . S
C887 H899 0.894 1_554 S
C888 C884 1.524 . S
C888 H900 0.956 . S
C888 H901 0.961 . S
C888 H902 0.961 . S
C889 C886 1.539 1_556 S
C889 H903 0.958 . S
C889 H904 0.961 . S
C889 H905 0.960 . S
H890 C874 0.931 . S
H891 C879 0.929 . S
H892 C880 0.960 . S
H893 C880 0.962 . S
H894 C880 0.960 . S
H895 C881 0.961 . S
H896 C881 0.961 . S
H897 C881 0.961 . S
H898 C882 0.931 . S
H899 C887 0.894 1_556 S
H900 C888 0.956 . S
H901 C888 0.961 . S
H902 C888 0.961 . S
H903 C889 0.958 . S
H904 C889 0.961 . S
H905 C889 0.960 . S
C906 C907 1.391 . S
C906 C908 1.394 . S
C906 H922 0.931 . S
C907 C906 1.391 . S
C907 C911 1.376 . S
C908 C906 1.394 . S
C908 C909 1.369 . S
C908 C912 1.531 . S
C909 C908 1.369 . S
C909 C910 1.410 . S
C909 C917 1.503 1_655 S
C910 C909 1.410 . S
C910 C911 1.392 . S
C910 C913 1.511 . S
C911 C907 1.376 . S
C911 C910 1.392 . S
C911 H923 0.929 . S
C912 C908 1.531 . S
C912 H924 0.960 1_655 S
C912 H925 0.962 1_655 S
C912 H926 0.960 . S
C913 C910 1.511 . S
C913 H927 0.961 . S
C913 H928 0.961 . S
C913 H929 0.961 . S
C914 C915 1.370 . S
C914 C916 1.363 . S
C914 H930 0.931 . S
C915 C914 1.370 . S
C915 C919 1.408 . S
C916 C914 1.363 . S
C916 C917 1.370 . S
C916 C920 1.524 . S
C917 C909 1.503 1_455 S
C917 C916 1.370 . S
C917 C918 1.403 . S
C918 C917 1.403 . S
C918 C919 1.404 . S
C918 C921 1.539 1_455 S
C919 C915 1.408 . S
C919 C918 1.404 . S
C919 H931 0.930 . S
C920 C916 1.524 . S
C920 H932 0.956 . S
C920 H933 0.961 . S
C920 H934 0.961 . S
C921 C918 1.539 1_655 S
C921 H935 0.958 . S
C921 H936 0.961 . S
C921 H937 0.960 . S
H922 C906 0.931 . S
H923 C911 0.929 . S
H924 C912 0.960 1_455 S
H925 C912 0.962 1_455 S
H926 C912 0.960 . S
H927 C913 0.961 . S
H928 C913 0.961 . S
H929 C913 0.961 . S
H930 C914 0.931 . S
H931 C919 0.930 . S
H932 C920 0.956 . S
H933 C920 0.961 . S
H934 C920 0.961 . S
H935 C921 0.958 . S
H936 C921 0.961 . S
H937 C921 0.960 . S
C938 C939 1.391 . S
C938 C940 1.394 . S
C938 H954 0.931 . S
C939 C938 1.391 . S
C939 C943 1.376 . S
C940 C938 1.394 . S
C940 C941 1.369 . S
C940 C944 1.531 . S
C941 C940 1.369 . S
C941 C942 1.410 . S
C941 C949 1.503 . S
C942 C941 1.410 . S
C942 C943 1.392 . S
C942 C945 1.511 . S
C943 C939 1.376 . S
C943 C942 1.392 . S
C943 H955 0.929 . S
C944 C940 1.531 . S
C944 H956 0.960 . S
C944 H957 0.962 . S
C944 H958 0.960 . S
C945 C942 1.511 . S
C945 H959 0.961 . S
C945 H960 0.961 . S
C945 H961 0.961 . S
C946 C947 1.370 . S
C946 C948 1.363 . S
C946 H962 0.931 . S
C947 C946 1.370 . S
C947 C951 1.408 . S
C948 C946 1.363 . S
C948 C949 1.370 . S
C948 C952 1.524 . S
C949 C941 1.503 . S
C949 C948 1.370 . S
C949 C950 1.403 . S
C950 C949 1.403 . S
C950 C951 1.404 . S
C950 C953 1.539 . S
C951 C947 1.408 . S
C951 C950 1.404 . S
C951 H963 0.930 . S
C952 C948 1.524 . S
C952 H964 0.956 . S
C952 H965 0.961 . S
C952 H966 0.961 . S
C953 C950 1.539 . S
C953 H967 0.958 . S
C953 H968 0.961 . S
C953 H969 0.960 . S
H954 C938 0.931 . S
H955 C943 0.929 . S
H956 C944 0.960 . S
H957 C944 0.962 . S
H958 C944 0.960 . S
H959 C945 0.961 . S
H960 C945 0.961 . S
H961 C945 0.961 . S
H962 C946 0.931 . S
H963 C951 0.930 . S
H964 C952 0.956 . S
H965 C952 0.961 . S
H966 C952 0.961 . S
H967 C953 0.958 . S
H968 C953 0.961 . S
H969 C953 0.960 . S
C970 C971 1.391 . S
C970 C972 1.394 . S
C970 H986 0.931 . S
C971 C970 1.391 . S
C971 C975 1.376 . S
C972 C970 1.394 . S
C972 C973 1.369 . S
C972 C976 1.531 . S
C973 C972 1.369 . S
C973 C974 1.410 . S
C973 C981 1.503 1_545 S
C974 C973 1.410 . S
C974 C975 1.392 . S
C974 C977 1.511 . S
C975 C971 1.376 . S
C975 C974 1.392 . S
C975 H987 0.929 . S
C976 C972 1.531 . S
C976 H988 0.960 . S
C976 H989 0.962 . S
C976 H990 0.960 . S
C977 C974 1.511 . S
C977 H991 0.961 . S
C977 H992 0.961 . S
C977 H993 0.961 . S
C978 C979 1.370 . S
C978 C980 1.363 . S
C978 H994 0.931 . S
C979 C978 1.370 . S
C979 C983 1.408 . S
C980 C978 1.363 . S
C980 C981 1.370 . S
C980 C984 1.524 . S
C981 C973 1.503 1_565 S
C981 C980 1.370 . S
C981 C982 1.403 . S
C982 C981 1.403 . S
C982 C983 1.404 . S
C982 C985 1.539 1_565 S
C983 C979 1.408 . S
C983 C982 1.404 . S
C983 H995 0.930 . S
C984 C980 1.524 . S
C984 H996 0.923 1_565 S
C984 H997 0.961 1_565 S
C984 H998 0.961 . S
C985 C982 1.539 1_545 S
C985 H999 0.958 . S
C985 H1000 0.961 1_545 S
C985 H1001 0.960 . S
H986 C970 0.931 . S
H987 C975 0.929 . S
H988 C976 0.960 . S
H989 C976 0.962 . S
H990 C976 0.960 . S
H991 C977 0.961 . S
H992 C977 0.961 . S
H993 C977 0.961 . S
H994 C978 0.931 . S
H995 C983 0.930 . S
H996 C984 0.923 1_545 S
H997 C984 0.961 1_545 S
H998 C984 0.961 . S
H999 C985 0.958 . S
H1000 C985 0.961 1_565 S
H1001 C985 0.960 . S
C1002 C1003 1.391 . S
C1002 C1004 1.394 . S
C1002 H1018 0.931 . S
C1003 C1002 1.391 . S
C1003 C1007 1.376 . S
C1004 C1002 1.394 . S
C1004 C1005 1.369 . S
C1004 C1008 1.531 . S
C1005 C1004 1.369 . S
C1005 C1006 1.410 . S
C1005 C1013 1.503 . S
C1006 C1005 1.410 . S
C1006 C1007 1.392 . S
C1006 C1009 1.511 . S
C1007 C1003 1.376 . S
C1007 C1006 1.392 . S
C1007 H1019 0.929 . S
C1008 C1004 1.531 . S
C1008 H1020 0.960 . S
C1008 H1021 0.962 . S
C1008 H1022 0.960 . S
C1009 C1006 1.511 . S
C1009 H1023 0.961 . S
C1009 H1024 0.961 . S
C1009 H1025 0.961 . S
C1010 C1011 1.370 . S
C1010 C1012 1.363 . S
C1010 H1026 0.931 . S
C1011 C1010 1.370 . S
C1011 C1015 1.408 . S
C1012 C1010 1.363 . S
C1012 C1013 1.370 . S
C1012 C1016 1.524 . S
C1013 C1005 1.503 . S
C1013 C1012 1.370 . S
C1013 C1014 1.403 . S
C1014 C1013 1.403 . S
C1014 C1015 1.404 . S
C1014 C1017 1.539 . S
C1015 C1011 1.408 . S
C1015 C1014 1.404 . S
C1015 H1027 0.930 . S
C1016 C1012 1.524 . S
C1016 H1028 0.956 . S
C1016 H1029 0.961 . S
C1016 H1030 0.961 . S
C1017 C1014 1.539 . S
C1017 H1031 0.958 . S
C1017 H1032 0.961 . S
C1017 H1033 0.960 . S
H1018 C1002 0.931 . S
H1019 C1007 0.929 . S
H1020 C1008 0.960 . S
H1021 C1008 0.962 . S
H1022 C1008 0.960 . S
H1023 C1009 0.961 . S
H1024 C1009 0.961 . S
H1025 C1009 0.961 . S
H1026 C1010 0.931 . S
H1027 C1015 0.930 . S
H1028 C1016 0.956 . S
H1029 C1016 0.961 . S
H1030 C1016 0.961 . S
H1031 C1017 0.958 . S
H1032 C1017 0.961 . S
H1033 C1017 0.960 . S
C1034 C1035 1.391 . S
C1034 C1036 1.394 . S
C1034 H1050 0.931 . S
C1035 C1034 1.391 . S
C1035 C1039 1.376 . S
C1036 C1034 1.394 . S
C1036 C1037 1.369 . S
C1036 C1040 1.531 . S
C1037 C1036 1.369 . S
C1037 C1038 1.410 . S
C1037 C1045 1.503 . S
C1038 C1037 1.410 . S
C1038 C1039 1.392 . S
C1038 C1041 1.511 . S
C1039 C1035 1.376 . S
C1039 C1038 1.392 . S
C1039 H1051 0.929 . S
C1040 C1036 1.531 . S
C1040 H1052 0.960 . S
C1040 H1053 0.962 . S
C1040 H1054 0.960 . S
C1041 C1038 1.511 . S
C1041 H1055 0.961 . S
C1041 H1056 0.961 . S
C1041 H1057 0.961 . S
C1042 C1043 1.370 . S
C1042 C1044 1.363 . S
C1042 H1058 0.931 . S
C1043 C1042 1.370 . S
C1043 C1047 1.408 . S
C1044 C1042 1.363 . S
C1044 C1045 1.370 . S
C1044 C1048 1.524 . S
C1045 C1037 1.503 . S
C1045 C1044 1.370 . S
C1045 C1046 1.403 . S
C1046 C1045 1.403 . S
C1046 C1047 1.404 . S
C1046 C1049 1.539 . S
C1047 C1043 1.408 . S
C1047 C1046 1.404 . S
C1047 H1059 0.930 . S
C1048 C1044 1.524 . S
C1048 H1060 0.956 . S
C1048 H1061 0.961 . S
C1048 H1062 0.961 . S
C1049 C1046 1.539 . S
C1049 H1063 0.958 . S
C1049 H1064 0.961 . S
C1049 H1065 0.960 . S
H1050 C1034 0.931 . S
H1051 C1039 0.929 . S
H1052 C1040 0.960 . S
H1053 C1040 0.962 . S
H1054 C1040 0.960 . S
H1055 C1041 0.961 . S
H1056 C1041 0.961 . S
H1057 C1041 0.961 . S
H1058 C1042 0.931 . S
H1059 C1047 0.930 . S
H1060 C1048 0.956 . S
H1061 C1048 0.961 . S
H1062 C1048 0.961 . S
H1063 C1049 0.958 . S
H1064 C1049 0.961 . S
H1065 C1049 0.960 . S
C1066 C1067 1.391 . S
C1066 C1068 1.394 . S
C1066 H1082 0.931 . S
C1067 C1066 1.391 . S
C1067 C1071 1.376 . S
C1068 C1066 1.394 . S
C1068 C1069 1.369 . S
C1068 C1072 1.531 . S
C1069 C1068 1.369 . S
C1069 C1070 1.410 . S
C1069 C1077 1.503 . S
C1070 C1069 1.410 . S
C1070 C1071 1.392 . S
C1070 C1073 1.511 . S
C1071 C1067 1.376 . S
C1071 C1070 1.392 . S
C1071 H1083 0.929 . S
C1072 C1068 1.531 . S
C1072 H1084 0.960 . S
C1072 H1085 0.962 . S
C1072 H1086 0.960 . S
C1073 C1070 1.511 . S
C1073 H1087 0.961 . S
C1073 H1088 0.961 . S
C1073 H1089 0.961 . S
C1074 C1075 1.370 . S
C1074 C1076 1.363 . S
C1074 H1090 0.931 . S
C1075 C1074 1.370 . S
C1075 C1079 1.408 . S
C1076 C1074 1.363 . S
C1076 C1077 1.370 . S
C1076 C1080 1.524 . S
C1077 C1069 1.503 . S
C1077 C1076 1.370 . S
C1077 C1078 1.403 . S
C1078 C1077 1.403 . S
C1078 C1079 1.404 . S
C1078 C1081 1.539 . S
C1079 C1075 1.408 . S
C1079 C1078 1.404 . S
C1079 H1091 0.930 . S
C1080 C1076 1.524 . S
C1080 H1092 0.956 . S
C1080 H1093 0.961 . S
C1080 H1094 0.961 . S
C1081 C1078 1.539 . S
C1081 H1095 0.958 . S
C1081 H1096 0.961 . S
C1081 H1097 0.960 . S
H1082 C1066 0.931 . S
H1083 C1071 0.929 . S
H1084 C1072 0.960 . S
H1085 C1072 0.962 . S
H1086 C1072 0.960 . S
H1087 C1073 0.961 . S
H1088 C1073 0.961 . S
H1089 C1073 0.961 . S
H1090 C1074 0.931 . S
H1091 C1079 0.930 . S
H1092 C1080 0.956 . S
H1093 C1080 0.961 . S
H1094 C1080 0.961 . S
H1095 C1081 0.958 . S
H1096 C1081 0.961 . S
H1097 C1081 0.960 . S
C1098 C1099 1.391 . S
C1098 C1100 1.394 . S
C1098 H1114 0.931 . S
C1099 C1098 1.391 . S
C1099 C1103 1.376 . S
C1100 C1098 1.394 . S
C1100 C1101 1.369 . S
C1100 C1104 1.531 . S
C1101 C1100 1.369 . S
C1101 C1102 1.410 . S
C1101 C1109 1.503 . S
C1102 C1101 1.410 . S
C1102 C1103 1.392 . S
C1102 C1105 1.511 . S
C1103 C1099 1.376 . S
C1103 C1102 1.392 . S
C1103 H1115 0.929 . S
C1104 C1100 1.531 . S
C1104 H1116 0.960 . S
C1104 H1117 0.962 . S
C1104 H1118 0.960 . S
C1105 C1102 1.511 . S
C1105 H1119 0.961 . S
C1105 H1120 0.961 . S
C1105 H1121 0.961 . S
C1106 C1107 1.370 . S
C1106 C1108 1.363 . S
C1106 H1122 0.931 . S
C1107 C1106 1.370 . S
C1107 C1111 1.408 . S
C1108 C1106 1.363 . S
C1108 C1109 1.370 . S
C1108 C1112 1.524 . S
C1109 C1101 1.503 . S
C1109 C1108 1.370 . S
C1109 C1110 1.403 . S
C1110 C1109 1.403 . S
C1110 C1111 1.404 . S
C1110 C1113 1.539 . S
C1111 C1107 1.408 . S
C1111 C1110 1.404 . S
C1111 H1123 0.930 . S
C1112 C1108 1.524 . S
C1112 H1124 0.956 . S
C1112 H1125 0.961 . S
C1112 H1126 0.961 . S
C1113 C1110 1.539 . S
C1113 H1127 0.958 . S
C1113 H1128 0.961 . S
C1113 H1129 0.960 . S
H1114 C1098 0.931 . S
H1115 C1103 0.929 . S
H1116 C1104 0.960 . S
H1117 C1104 0.962 . S
H1118 C1104 0.960 . S
H1119 C1105 0.961 . S
H1120 C1105 0.961 . S
H1121 C1105 0.961 . S
H1122 C1106 0.931 . S
H1123 C1111 0.930 . S
H1124 C1112 0.956 . S
H1125 C1112 0.961 . S
H1126 C1112 0.961 . S
H1127 C1113 0.958 . S
H1128 C1113 0.961 . S
H1129 C1113 0.960 . S
C1130 C1131 1.391 . S
C1130 C1132 1.394 . S
C1130 H1146 0.931 . S
C1131 C1130 1.391 . S
C1131 C1135 1.376 . S
C1132 C1130 1.394 . S
C1132 C1133 1.369 . S
C1132 C1136 1.531 . S
C1133 C1132 1.369 . S
C1133 C1134 1.410 . S
C1133 C1141 1.503 . S
C1134 C1133 1.410 . S
C1134 C1135 1.392 . S
C1134 C1137 1.511 . S
C1135 C1131 1.376 . S
C1135 C1134 1.392 . S
C1135 H1147 0.929 . S
C1136 C1132 1.531 . S
C1136 H1148 0.960 . S
C1136 H1149 0.962 . S
C1136 H1150 0.960 . S
C1137 C1134 1.511 . S
C1137 H1151 0.961 . S
C1137 H1152 0.961 . S
C1137 H1153 0.961 . S
C1138 C1139 1.370 . S
C1138 C1140 1.363 . S
C1138 H1154 0.931 . S
C1139 C1138 1.370 . S
C1139 C1143 1.408 . S
C1140 C1138 1.363 . S
C1140 C1141 1.370 . S
C1140 C1144 1.524 . S
C1141 C1133 1.503 . S
C1141 C1140 1.370 . S
C1141 C1142 1.403 . S
C1142 C1141 1.403 . S
C1142 C1143 1.404 . S
C1142 C1145 1.539 . S
C1143 C1139 1.408 . S
C1143 C1142 1.404 . S
C1143 H1155 0.930 . S
C1144 C1140 1.524 . S
C1144 H1156 0.956 . S
C1144 H1157 0.961 . S
C1144 H1158 0.961 . S
C1145 C1142 1.539 . S
C1145 H1159 0.958 . S
C1145 H1160 0.961 . S
C1145 H1161 0.960 . S
H1146 C1130 0.931 . S
H1147 C1135 0.929 . S
H1148 C1136 0.960 . S
H1149 C1136 0.962 . S
H1150 C1136 0.960 . S
H1151 C1137 0.961 . S
H1152 C1137 0.961 . S
H1153 C1137 0.961 . S
H1154 C1138 0.931 . S
H1155 C1143 0.930 . S
H1156 C1144 0.956 . S
H1157 C1144 0.961 . S
H1158 C1144 0.961 . S
H1159 C1145 0.958 . S
H1160 C1145 0.961 . S
H1161 C1145 0.960 . S
C1162 C1163 1.391 . S
C1162 C1164 1.394 . S
C1162 H1178 0.931 . S
C1163 C1162 1.391 . S
C1163 C1167 1.376 . S
C1164 C1162 1.394 . S
C1164 C1165 1.369 . S
C1164 C1168 1.531 . S
C1165 C1164 1.369 . S
C1165 C1166 1.410 . S
C1165 C1173 1.503 . S
C1166 C1165 1.410 . S
C1166 C1167 1.392 . S
C1166 C1169 1.511 . S
C1167 C1163 1.376 . S
C1167 C1166 1.392 . S
C1167 H1179 0.929 . S
C1168 C1164 1.531 . S
C1168 H1180 0.960 . S
C1168 H1181 0.962 . S
C1168 H1182 0.960 . S
C1169 C1166 1.511 . S
C1169 H1183 0.961 . S
C1169 H1184 0.961 . S
C1169 H1185 0.961 . S
C1170 C1171 1.370 . S
C1170 C1172 1.363 . S
C1170 H1186 0.931 . S
C1171 C1170 1.370 . S
C1171 C1175 1.408 . S
C1172 C1170 1.363 . S
C1172 C1173 1.370 . S
C1172 C1176 1.524 . S
C1173 C1165 1.503 . S
C1173 C1172 1.370 . S
C1173 C1174 1.403 . S
C1174 C1173 1.403 . S
C1174 C1175 1.404 . S
C1174 C1177 1.539 . S
C1175 C1171 1.408 . S
C1175 C1174 1.404 . S
C1175 H1187 0.930 . S
C1176 C1172 1.524 . S
C1176 H1188 0.956 . S
C1176 H1189 0.961 . S
C1176 H1190 0.961 . S
C1177 C1174 1.539 . S
C1177 H1191 0.958 . S
C1177 H1192 0.961 . S
C1177 H1193 0.960 . S
H1178 C1162 0.931 . S
H1179 C1167 0.929 . S
H1180 C1168 0.960 . S
H1181 C1168 0.962 . S
H1182 C1168 0.960 . S
H1183 C1169 0.961 . S
H1184 C1169 0.961 . S
H1185 C1169 0.961 . S
H1186 C1170 0.931 . S
H1187 C1175 0.930 . S
H1188 C1176 0.956 . S
H1189 C1176 0.961 . S
H1190 C1176 0.961 . S
H1191 C1177 0.958 . S
H1192 C1177 0.961 . S
H1193 C1177 0.960 . S
C1194 C1195 1.391 . S
C1194 C1196 1.394 . S
C1194 H1210 0.931 . S
C1195 C1194 1.391 . S
C1195 C1199 1.376 . S
C1196 C1194 1.394 . S
C1196 C1197 1.369 . S
C1196 C1200 1.531 . S
C1197 C1196 1.369 . S
C1197 C1198 1.410 . S
C1197 C1205 1.503 1_545 S
C1198 C1197 1.410 . S
C1198 C1199 1.392 . S
C1198 C1201 1.511 . S
C1199 C1195 1.376 . S
C1199 C1198 1.392 . S
C1199 H1211 0.929 . S
C1200 C1196 1.531 . S
C1200 H1212 0.960 . S
C1200 H1213 0.962 . S
C1200 H1214 0.960 . S
C1201 C1198 1.511 . S
C1201 H1215 0.961 . S
C1201 H1216 0.948 1_545 S
C1201 H1217 0.961 . S
C1202 C1203 1.370 . S
C1202 C1204 1.363 . S
C1202 H1218 0.931 . S
C1203 C1202 1.370 . S
C1203 C1207 1.408 . S
C1204 C1202 1.363 . S
C1204 C1205 1.370 . S
C1204 C1208 1.524 1_565 S
C1205 C1197 1.503 1_565 S
C1205 C1204 1.370 . S
C1205 C1206 1.403 . S
C1206 C1205 1.403 . S
C1206 C1207 1.404 . S
C1206 C1209 1.539 . S
C1207 C1203 1.408 . S
C1207 C1206 1.404 . S
C1207 H1219 0.930 . S
C1208 C1204 1.524 1_545 S
C1208 H1220 0.956 . S
C1208 H1221 0.961 . S
C1208 H1222 0.961 1_545 S
C1209 C1206 1.539 . S
C1209 H1223 0.958 . S
C1209 H1224 0.961 . S
C1209 H1225 0.960 . S
H1210 C1194 0.931 . S
H1211 C1199 0.929 . S
H1212 C1200 0.960 . S
H1213 C1200 0.962 . S
H1214 C1200 0.960 . S
H1215 C1201 0.961 . S
H1216 C1201 0.948 1_565 S
H1217 C1201 0.961 . S
H1218 C1202 0.931 . S
H1219 C1207 0.930 . S
H1220 C1208 0.956 . S
H1221 C1208 0.961 . S
H1222 C1208 0.961 1_565 S
H1223 C1209 0.958 . S
H1224 C1209 0.961 . S
H1225 C1209 0.960 . S
C1226 C1227 1.391 . S
C1226 C1228 1.394 . S
C1226 H1242 0.931 . S
C1227 C1226 1.391 . S
C1227 C1231 1.376 . S
C1228 C1226 1.394 . S
C1228 C1229 1.369 . S
C1228 C1232 1.531 . S
C1229 C1228 1.369 . S
C1229 C1230 1.410 . S
C1229 C1237 1.503 1_655 S
C1230 C1229 1.410 . S
C1230 C1231 1.392 . S
C1230 C1233 1.511 1_655 S
C1231 C1227 1.376 . S
C1231 C1230 1.392 . S
C1231 H1243 0.929 . S
C1232 C1228 1.531 . S
C1232 H1244 0.960 . S
C1232 H1245 0.962 . S
C1232 H1246 0.960 . S
C1233 C1230 1.511 1_455 S
C1233 H1247 0.961 . S
C1233 H1248 0.961 . S
C1233 H1249 0.961 . S
C1234 C1235 1.370 . S
C1234 C1236 1.363 . S
C1234 H1250 0.931 . S
C1235 C1234 1.370 . S
C1235 C1239 1.408 . S
C1236 C1234 1.363 . S
C1236 C1237 1.370 . S
C1236 C1240 1.524 . S
C1237 C1229 1.503 1_455 S
C1237 C1236 1.370 . S
C1237 C1238 1.403 . S
C1238 C1237 1.403 . S
C1238 C1239 1.404 . S
C1238 C1241 1.539 . S
C1239 C1235 1.408 . S
C1239 C1238 1.404 . S
C1239 H1251 0.930 . S
C1240 C1236 1.524 . S
C1240 H1252 0.956 1_455 S
C1240 H1253 0.961 . S
C1240 H1254 0.961 . S
C1241 C1238 1.539 . S
C1241 H1255 0.958 . S
C1241 H1256 0.961 . S
C1241 H1257 0.960 . S
H1242 C1226 0.931 . S
H1243 C1231 0.929 . S
H1244 C1232 0.960 . S
H1245 C1232 0.962 . S
H1246 C1232 0.960 . S
H1247 C1233 0.961 . S
H1248 C1233 0.961 . S
H1249 C1233 0.961 . S
H1250 C1234 0.931 . S
H1251 C1239 0.930 . S
H1252 C1240 0.956 1_655 S
H1253 C1240 0.961 . S
H1254 C1240 0.961 . S
H1255 C1241 0.958 . S
H1256 C1241 0.961 . S
H1257 C1241 0.960 . S
C1258 C1259 1.391 . S
C1258 C1260 1.394 . S
C1258 H1274 0.931 . S
C1259 C1258 1.391 . S
C1259 C1263 1.376 . S
C1260 C1258 1.394 . S
C1260 C1261 1.369 . S
C1260 C1264 1.531 . S
C1261 C1260 1.369 . S
C1261 C1262 1.410 . S
C1261 C1269 1.503 . S
C1262 C1261 1.410 . S
C1262 C1263 1.392 . S
C1262 C1265 1.511 . S
C1263 C1259 1.376 . S
C1263 C1262 1.392 . S
C1263 H1275 0.929 . S
C1264 C1260 1.531 . S
C1264 H1276 0.960 . S
C1264 H1277 0.962 . S
C1264 H1278 0.960 . S
C1265 C1262 1.511 . S
C1265 H1279 0.961 . S
C1265 H1280 0.961 . S
C1265 H1281 0.961 . S
C1266 C1267 1.370 . S
C1266 C1268 1.363 . S
C1266 H1282 0.931 . S
C1267 C1266 1.370 . S
C1267 C1271 1.408 . S
C1268 C1266 1.363 . S
C1268 C1269 1.370 . S
C1268 C1272 1.524 . S
C1269 C1261 1.503 . S
C1269 C1268 1.370 . S
C1269 C1270 1.403 . S
C1270 C1269 1.403 . S
C1270 C1271 1.404 . S
C1270 C1273 1.539 . S
C1271 C1267 1.408 . S
C1271 C1270 1.404 . S
C1271 H1283 0.930 . S
C1272 C1268 1.524 . S
C1272 H1284 0.956 . S
C1272 H1285 0.961 . S
C1272 H1286 0.961 . S
C1273 C1270 1.539 . S
C1273 H1287 0.958 . S
C1273 H1288 0.961 . S
C1273 H1289 0.960 . S
H1274 C1258 0.931 . S
H1275 C1263 0.929 . S
H1276 C1264 0.960 . S
H1277 C1264 0.962 . S
H1278 C1264 0.960 . S
H1279 C1265 0.961 . S
H1280 C1265 0.961 . S
H1281 C1265 0.961 . S
H1282 C1266 0.931 . S
H1283 C1271 0.930 . S
H1284 C1272 0.956 . S
H1285 C1272 0.961 . S
H1286 C1272 0.961 . S
H1287 C1273 0.958 . S
H1288 C1273 0.961 . S
H1289 C1273 0.960 . S
C1290 C1291 1.391 . S
C1290 C1292 1.394 . S
C1290 H1306 0.931 . S
C1291 C1290 1.391 . S
C1291 C1295 1.376 . S
C1292 C1290 1.394 . S
C1292 C1293 1.369 . S
C1292 C1296 1.531 . S
C1293 C1292 1.369 . S
C1293 C1294 1.410 . S
C1293 C1301 1.503 . S
C1294 C1293 1.410 . S
C1294 C1295 1.392 . S
C1294 C1297 1.511 . S
C1295 C1291 1.376 . S
C1295 C1294 1.392 . S
C1295 H1307 0.929 . S
C1296 C1292 1.531 . S
C1296 H1308 0.960 . S
C1296 H1309 0.962 . S
C1296 H1310 0.960 . S
C1297 C1294 1.511 . S
C1297 H1311 0.961 . S
C1297 H1312 0.961 . S
C1297 H1313 0.961 . S
C1298 C1299 1.370 . S
C1298 C1300 1.363 . S
C1298 H1314 0.931 . S
C1299 C1298 1.370 . S
C1299 C1303 1.408 . S
C1300 C1298 1.363 . S
C1300 C1301 1.370 . S
C1300 C1304 1.524 . S
C1301 C1293 1.503 . S
C1301 C1300 1.370 . S
C1301 C1302 1.403 . S
C1302 C1301 1.403 . S
C1302 C1303 1.404 . S
C1302 C1305 1.539 . S
C1303 C1299 1.408 . S
C1303 C1302 1.404 . S
C1303 H1315 0.930 . S
C1304 C1300 1.524 . S
C1304 H1316 0.956 . S
C1304 H1317 0.961 . S
C1304 H1318 0.961 . S
C1305 C1302 1.539 . S
C1305 H1319 0.958 . S
C1305 H1320 0.961 . S
C1305 H1321 0.960 . S
H1306 C1290 0.931 . S
H1307 C1295 0.929 . S
H1308 C1296 0.960 . S
H1309 C1296 0.962 . S
H1310 C1296 0.960 . S
H1311 C1297 0.961 . S
H1312 C1297 0.961 . S
H1313 C1297 0.961 . S
H1314 C1298 0.931 . S
H1315 C1303 0.930 . S
H1316 C1304 0.956 . S
H1317 C1304 0.961 . S
H1318 C1304 0.961 . S
H1319 C1305 0.958 . S
H1320 C1305 0.961 . S
H1321 C1305 0.960 . S
C1322 C1323 1.391 . S
C1322 C1324 1.394 . S
C1322 H1338 0.931 . S
C1323 C1322 1.391 . S
C1323 C1327 1.376 . S
C1324 C1322 1.394 . S
C1324 C1325 1.369 . S
C1324 C1328 1.531 . S
C1325 C1324 1.369 . S
C1325 C1326 1.410 . S
C1325 C1333 1.503 . S
C1326 C1325 1.410 . S
C1326 C1327 1.392 . S
C1326 C1329 1.511 . S
C1327 C1323 1.376 . S
C1327 C1326 1.392 . S
C1327 H1339 0.929 . S
C1328 C1324 1.531 . S
C1328 H1340 0.960 . S
C1328 H1341 0.962 . S
C1328 H1342 0.960 . S
C1329 C1326 1.511 . S
C1329 H1343 0.961 . S
C1329 H1344 0.961 . S
C1329 H1345 0.961 . S
C1330 C1331 1.370 . S
C1330 C1332 1.363 . S
C1330 H1346 0.931 . S
C1331 C1330 1.370 . S
C1331 C1335 1.408 . S
C1332 C1330 1.363 . S
C1332 C1333 1.370 . S
C1332 C1336 1.524 . S
C1333 C1325 1.503 . S
C1333 C1332 1.370 . S
C1333 C1334 1.403 . S
C1334 C1333 1.403 . S
C1334 C1335 1.404 . S
C1334 C1337 1.539 . S
C1335 C1331 1.408 . S
C1335 C1334 1.404 . S
C1335 H1347 0.930 . S
C1336 C1332 1.524 . S
C1336 H1348 0.956 . S
C1336 H1349 0.961 . S
C1336 H1350 0.961 . S
C1337 C1334 1.539 . S
C1337 H1351 0.958 . S
C1337 H1352 0.961 . S
C1337 H1353 0.960 . S
H1338 C1322 0.931 . S
H1339 C1327 0.929 . S
H1340 C1328 0.960 . S
H1341 C1328 0.962 . S
H1342 C1328 0.960 . S
H1343 C1329 0.961 . S
H1344 C1329 0.961 . S
H1345 C1329 0.961 . S
H1346 C1330 0.931 . S
H1347 C1335 0.930 . S
H1348 C1336 0.956 . S
H1349 C1336 0.961 . S
H1350 C1336 0.961 . S
H1351 C1337 0.958 . S
H1352 C1337 0.961 . S
H1353 C1337 0.960 . S
C1354 C1355 1.391 . S
C1354 C1356 1.394 . S
C1354 H1370 0.931 . S
C1355 C1354 1.391 . S
C1355 C1359 1.376 . S
C1356 C1354 1.394 . S
C1356 C1357 1.369 . S
C1356 C1360 1.531 . S
C1357 C1356 1.369 . S
C1357 C1358 1.410 . S
C1357 C1365 1.503 . S
C1358 C1357 1.410 . S
C1358 C1359 1.392 . S
C1358 C1361 1.511 . S
C1359 C1355 1.376 . S
C1359 C1358 1.392 . S
C1359 H1371 0.929 . S
C1360 C1356 1.531 . S
C1360 H1372 0.960 . S
C1360 H1373 0.962 . S
C1360 H1374 0.960 . S
C1361 C1358 1.511 . S
C1361 H1375 0.961 . S
C1361 H1376 0.961 . S
C1361 H1377 0.961 . S
C1362 C1363 1.370 . S
C1362 C1364 1.363 . S
C1362 H1378 0.931 . S
C1363 C1362 1.370 . S
C1363 C1367 1.408 . S
C1364 C1362 1.363 . S
C1364 C1365 1.370 . S
C1364 C1368 1.524 . S
C1365 C1357 1.503 . S
C1365 C1364 1.370 . S
C1365 C1366 1.403 . S
C1366 C1365 1.403 . S
C1366 C1367 1.404 . S
C1366 C1369 1.539 . S
C1367 C1363 1.408 . S
C1367 C1366 1.404 . S
C1367 H1379 0.930 . S
C1368 C1364 1.524 . S
C1368 H1380 0.956 . S
C1368 H1381 0.961 . S
C1368 H1382 0.961 . S
C1369 C1366 1.539 . S
C1369 H1383 0.958 . S
C1369 H1384 0.961 . S
C1369 H1385 0.960 . S
H1370 C1354 0.931 . S
H1371 C1359 0.929 . S
H1372 C1360 0.960 . S
H1373 C1360 0.962 . S
H1374 C1360 0.960 . S
H1375 C1361 0.961 . S
H1376 C1361 0.961 . S
H1377 C1361 0.961 . S
H1378 C1362 0.931 . S
H1379 C1367 0.930 . S
H1380 C1368 0.956 . S
H1381 C1368 0.961 . S
H1382 C1368 0.961 . S
H1383 C1369 0.958 . S
H1384 C1369 0.961 . S
H1385 C1369 0.960 . S
C1386 C1387 1.391 . S
C1386 C1388 1.394 . S
C1386 H1402 0.931 . S
C1387 C1386 1.391 . S
C1387 C1391 1.376 . S
C1388 C1386 1.394 . S
C1388 C1389 1.369 . S
C1388 C1392 1.531 . S
C1389 C1388 1.369 . S
C1389 C1390 1.410 . S
C1389 C1397 1.503 1_565 S
C1390 C1389 1.410 . S
C1390 C1391 1.392 . S
C1390 C1393 1.511 . S
C1391 C1387 1.376 . S
C1391 C1390 1.392 . S
C1391 H1403 0.929 . S
C1392 C1388 1.531 . S
C1392 H1404 0.960 . S
C1392 H1405 0.962 . S
C1392 H1406 0.960 . S
C1393 C1390 1.511 . S
C1393 H1407 0.961 . S
C1393 H1408 0.961 1_565 S
C1393 H1409 0.961 . S
C1394 C1395 1.370 . S
C1394 C1396 1.363 . S
C1394 H1410 0.931 . S
C1395 C1394 1.370 . S
C1395 C1399 1.408 . S
C1396 C1394 1.363 . S
C1396 C1397 1.370 . S
C1396 C1400 1.524 . S
C1397 C1389 1.503 1_545 S
C1397 C1396 1.370 . S
C1397 C1398 1.403 . S
C1398 C1397 1.403 . S
C1398 C1399 1.404 . S
C1398 C1401 1.539 1_545 S
C1399 C1395 1.408 . S
C1399 C1398 1.404 . S
C1399 H1411 0.930 . S
C1400 C1396 1.524 . S
C1400 H1412 0.956 . S
C1400 H1413 0.961 . S
C1400 H1414 0.961 . S
C1401 C1398 1.539 1_565 S
C1401 H1415 0.958 . S
C1401 H1416 0.961 1_565 S
C1401 H1417 0.960 . S
H1402 C1386 0.931 . S
H1403 C1391 0.929 . S
H1404 C1392 0.960 . S
H1405 C1392 0.962 . S
H1406 C1392 0.960 . S
H1407 C1393 0.961 . S
H1408 C1393 0.961 1_545 S
H1409 C1393 0.961 . S
H1410 C1394 0.931 . S
H1411 C1399 0.930 . S
H1412 C1400 0.956 . S
H1413 C1400 0.961 . S
H1414 C1400 0.961 . S
H1415 C1401 0.958 . S
H1416 C1401 0.961 1_545 S
H1417 C1401 0.960 . S
C1418 C1419 1.391 . S
C1418 C1420 1.394 . S
C1418 H1434 0.931 . S
C1419 C1418 1.391 . S
C1419 C1423 1.376 . S
C1420 C1418 1.394 . S
C1420 C1421 1.369 . S
C1420 C1424 1.531 . S
C1421 C1420 1.369 . S
C1421 C1422 1.410 . S
C1421 C1429 1.503 1_455 S
C1422 C1421 1.410 . S
C1422 C1423 1.392 . S
C1422 C1425 1.511 1_455 S
C1423 C1419 1.376 . S
C1423 C1422 1.392 . S
C1423 H1435 0.929 . S
C1424 C1420 1.531 . S
C1424 H1436 0.960 . S
C1424 H1437 0.962 . S
C1424 H1438 0.960 . S
C1425 C1422 1.511 1_655 S
C1425 H1439 0.961 . S
C1425 H1440 0.961 . S
C1425 H1441 0.961 . S
C1426 C1427 1.370 . S
C1426 C1428 1.363 . S
C1426 H1442 0.931 . S
C1427 C1426 1.370 . S
C1427 C1431 1.408 . S
C1428 C1426 1.363 . S
C1428 C1429 1.370 . S
C1428 C1432 1.524 . S
C1429 C1421 1.503 1_655 S
C1429 C1428 1.370 . S
C1429 C1430 1.403 . S
C1430 C1429 1.403 . S
C1430 C1431 1.404 . S
C1430 C1433 1.539 . S
C1431 C1427 1.408 . S
C1431 C1430 1.404 . S
C1431 H1443 0.930 . S
C1432 C1428 1.524 . S
C1432 H1444 0.976 . S
C1432 H1445 0.961 . S
C1432 H1446 0.961 . S
C1433 C1430 1.539 . S
C1433 H1447 0.958 . S
C1433 H1448 0.961 . S
C1433 H1449 0.960 . S
H1434 C1418 0.931 . S
H1435 C1423 0.929 . S
H1436 C1424 0.960 . S
H1437 C1424 0.962 . S
H1438 C1424 0.960 . S
H1439 C1425 0.961 . S
H1440 C1425 0.961 . S
H1441 C1425 0.961 . S
H1442 C1426 0.931 . S
H1443 C1431 0.930 . S
H1444 C1432 0.976 . S
H1445 C1432 0.961 . S
H1446 C1432 0.961 . S
H1447 C1433 0.958 . S
H1448 C1433 0.961 . S
H1449 C1433 0.960 . S
C1450 C1451 1.391 . S
C1450 C1452 1.394 . S
C1450 H1466 0.931 . S
C1451 C1450 1.391 . S
C1451 C1455 1.376 . S
C1452 C1450 1.394 . S
C1452 C1453 1.369 . S
C1452 C1456 1.531 . S
C1453 C1452 1.369 . S
C1453 C1454 1.410 . S
C1453 C1461 1.503 . S
C1454 C1453 1.410 . S
C1454 C1455 1.392 . S
C1454 C1457 1.511 . S
C1455 C1451 1.376 . S
C1455 C1454 1.392 . S
C1455 H1467 0.929 . S
C1456 C1452 1.531 . S
C1456 H1468 0.960 . S
C1456 H1469 0.962 . S
C1456 H1470 0.960 . S
C1457 C1454 1.511 . S
C1457 H1471 0.961 . S
C1457 H1472 0.961 . S
C1457 H1473 0.961 . S
C1458 C1459 1.370 . S
C1458 C1460 1.363 . S
C1458 H1474 0.931 . S
C1459 C1458 1.370 . S
C1459 C1463 1.408 . S
C1460 C1458 1.363 . S
C1460 C1461 1.370 . S
C1460 C1464 1.524 . S
C1461 C1453 1.503 . S
C1461 C1460 1.370 . S
C1461 C1462 1.403 . S
C1462 C1461 1.403 . S
C1462 C1463 1.404 . S
C1462 C1465 1.539 . S
C1463 C1459 1.408 . S
C1463 C1462 1.404 . S
C1463 H1475 0.930 . S
C1464 C1460 1.524 . S
C1464 H1476 0.956 . S
C1464 H1477 0.961 . S
C1464 H1478 0.961 . S
C1465 C1462 1.539 . S
C1465 H1479 0.958 . S
C1465 H1480 0.961 . S
C1465 H1481 0.960 . S
H1466 C1450 0.931 . S
H1467 C1455 0.929 . S
H1468 C1456 0.960 . S
H1469 C1456 0.962 . S
H1470 C1456 0.960 . S
H1471 C1457 0.961 . S
H1472 C1457 0.961 . S
H1473 C1457 0.961 . S
H1474 C1458 0.931 . S
H1475 C1463 0.930 . S
H1476 C1464 0.956 . S
H1477 C1464 0.961 . S
H1478 C1464 0.961 . S
H1479 C1465 0.958 . S
H1480 C1465 0.961 . S
H1481 C1465 0.960 . S
C1482 C1483 1.391 . S
C1482 C1484 1.394 . S
C1482 H1498 0.931 . S
C1483 C1482 1.391 . S
C1483 C1487 1.376 . S
C1484 C1482 1.394 . S
C1484 C1485 1.369 . S
C1484 C1488 1.531 . S
C1485 C1484 1.369 . S
C1485 C1486 1.410 . S
C1485 C1493 1.503 1_455 S
C1486 C1485 1.410 . S
C1486 C1487 1.392 . S
C1486 C1489 1.511 . S
C1487 C1483 1.376 . S
C1487 C1486 1.392 . S
C1487 H1499 0.929 . S
C1488 C1484 1.531 . S
C1488 H1500 0.960 1_455 S
C1488 H1501 0.962 1_455 S
C1488 H1502 0.960 . S
C1489 C1486 1.511 . S
C1489 H1503 0.961 . S
C1489 H1504 0.961 . S
C1489 H1505 0.961 . S
C1490 C1491 1.370 . S
C1490 C1492 1.363 . S
C1490 H1506 0.931 . S
C1491 C1490 1.370 . S
C1491 C1495 1.408 . S
C1492 C1490 1.363 . S
C1492 C1493 1.370 . S
C1492 C1496 1.524 . S
C1493 C1485 1.503 1_655 S
C1493 C1492 1.370 . S
C1493 C1494 1.403 . S
C1494 C1493 1.403 . S
C1494 C1495 1.404 . S
C1494 C1497 1.539 1_655 S
C1495 C1491 1.408 . S
C1495 C1494 1.404 . S
C1495 H1507 0.930 . S
C1496 C1492 1.524 . S
C1496 H1508 0.956 . S
C1496 H1509 0.961 . S
C1496 H1510 0.961 . S
C1497 C1494 1.539 1_455 S
C1497 H1511 0.958 . S
C1497 H1512 0.961 . S
C1497 H1513 0.960 . S
H1498 C1482 0.931 . S
H1499 C1487 0.929 . S
H1500 C1488 0.960 1_655 S
H1501 C1488 0.962 1_655 S
H1502 C1488 0.960 . S
H1503 C1489 0.961 . S
H1504 C1489 0.961 . S
H1505 C1489 0.961 . S
H1506 C1490 0.931 . S
H1507 C1495 0.930 . S
H1508 C1496 0.956 . S
H1509 C1496 0.961 . S
H1510 C1496 0.961 . S
H1511 C1497 0.958 . S
H1512 C1497 0.961 . S
H1513 C1497 0.960 . S
C1514 C1515 1.391 . S
C1514 C1516 1.394 . S
C1514 H1530 0.931 . S
C1515 C1514 1.391 . S
C1515 C1519 1.376 . S
C1516 C1514 1.394 . S
C1516 C1517 1.369 . S
C1516 C1520 1.531 . S
C1517 C1516 1.369 . S
C1517 C1518 1.410 . S
C1517 C1525 1.503 . S
C1518 C1517 1.410 . S
C1518 C1519 1.392 . S
C1518 C1521 1.511 . S
C1519 C1515 1.376 . S
C1519 C1518 1.392 . S
C1519 H1531 0.929 . S
C1520 C1516 1.531 . S
C1520 H1532 0.960 . S
C1520 H1533 0.962 . S
C1520 H1534 0.960 . S
C1521 C1518 1.511 . S
C1521 H1535 0.961 . S
C1521 H1536 0.961 . S
C1521 H1537 0.961 . S
C1522 C1523 1.370 . S
C1522 C1524 1.363 . S
C1522 H1538 0.931 . S
C1523 C1522 1.370 . S
C1523 C1527 1.408 . S
C1524 C1522 1.363 . S
C1524 C1525 1.370 . S
C1524 C1528 1.524 . S
C1525 C1517 1.503 . S
C1525 C1524 1.370 . S
C1525 C1526 1.403 . S
C1526 C1525 1.403 . S
C1526 C1527 1.404 . S
C1526 C1529 1.539 . S
C1527 C1523 1.408 . S
C1527 C1526 1.404 . S
C1527 H1539 0.930 . S
C1528 C1524 1.524 . S
C1528 H1540 0.956 . S
C1528 H1541 0.961 . S
C1528 H1542 0.961 . S
C1529 C1526 1.539 . S
C1529 H1543 0.958 . S
C1529 H1544 0.961 . S
C1529 H1545 0.960 . S
H1530 C1514 0.931 . S
H1531 C1519 0.929 . S
H1532 C1520 0.960 . S
H1533 C1520 0.962 . S
H1534 C1520 0.960 . S
H1535 C1521 0.961 . S
H1536 C1521 0.961 . S
H1537 C1521 0.961 . S
H1538 C1522 0.931 . S
H1539 C1527 0.930 . S
H1540 C1528 0.956 . S
H1541 C1528 0.961 . S
H1542 C1528 0.961 . S
H1543 C1529 0.958 . S
H1544 C1529 0.961 . S
H1545 C1529 0.960 . S
C1546 C1547 1.391 . S
C1546 C1548 1.394 . S
C1546 H1562 0.931 . S
C1547 C1546 1.391 . S
C1547 C1551 1.376 . S
C1548 C1546 1.394 . S
C1548 C1549 1.369 . S
C1548 C1552 1.531 . S
C1549 C1548 1.369 . S
C1549 C1550 1.410 . S
C1549 C1557 1.503 1_565 S
C1550 C1549 1.410 . S
C1550 C1551 1.392 . S
C1550 C1553 1.511 . S
C1551 C1547 1.376 . S
C1551 C1550 1.392 . S
C1551 H1563 0.929 . S
C1552 C1548 1.531 . S
C1552 H1564 0.960 . S
C1552 H1565 0.962 . S
C1552 H1566 0.960 . S
C1553 C1550 1.511 . S
C1553 H1567 0.961 . S
C1553 H1568 0.961 . S
C1553 H1569 0.961 . S
C1554 C1555 1.370 . S
C1554 C1556 1.363 . S
C1554 H1570 0.931 . S
C1555 C1554 1.370 . S
C1555 C1559 1.408 . S
C1556 C1554 1.363 . S
C1556 C1557 1.370 . S
C1556 C1560 1.524 . S
C1557 C1549 1.503 1_545 S
C1557 C1556 1.370 . S
C1557 C1558 1.403 . S
C1558 C1557 1.403 . S
C1558 C1559 1.404 . S
C1558 C1561 1.539 . S
C1559 C1555 1.408 . S
C1559 C1558 1.404 . S
C1559 H1571 0.930 . S
C1560 C1556 1.524 . S
C1560 H1572 0.956 1_545 S
C1560 H1573 0.961 1_545 S
C1560 H1574 0.961 . S
C1561 C1558 1.539 . S
C1561 H1575 0.958 . S
C1561 H1576 0.961 . S
C1561 H1577 0.960 1_545 S
H1562 C1546 0.931 . S
H1563 C1551 0.929 . S
H1564 C1552 0.960 . S
H1565 C1552 0.962 . S
H1566 C1552 0.960 . S
H1567 C1553 0.961 . S
H1568 C1553 0.961 . S
H1569 C1553 0.961 . S
H1570 C1554 0.931 . S
H1571 C1559 0.930 . S
H1572 C1560 0.956 1_565 S
H1573 C1560 0.961 1_565 S
H1574 C1560 0.961 . S
H1575 C1561 0.958 . S
H1576 C1561 0.961 . S
H1577 C1561 0.960 1_565 S
C1578 C1579 1.391 . S
C1578 C1580 1.394 . S
C1578 H1594 0.931 . S
C1579 C1578 1.391 . S
C1579 C1583 1.376 . S
C1580 C1578 1.394 . S
C1580 C1581 1.369 . S
C1580 C1584 1.531 . S
C1581 C1580 1.369 . S
C1581 C1582 1.410 . S
C1581 C1589 1.503 . S
C1582 C1581 1.410 . S
C1582 C1583 1.392 . S
C1582 C1585 1.511 . S
C1583 C1579 1.376 . S
C1583 C1582 1.392 . S
C1583 H1595 0.929 . S
C1584 C1580 1.531 . S
C1584 H1596 0.960 . S
C1584 H1597 0.962 . S
C1584 H1598 0.960 . S
C1585 C1582 1.511 . S
C1585 H1599 0.961 . S
C1585 H1600 0.961 . S
C1585 H1601 0.961 . S
C1586 C1587 1.370 . S
C1586 C1588 1.363 . S
C1586 H1602 0.931 . S
C1587 C1586 1.370 . S
C1587 C1591 1.408 . S
C1588 C1586 1.363 . S
C1588 C1589 1.370 . S
C1588 C1592 1.524 . S
C1589 C1581 1.503 . S
C1589 C1588 1.370 . S
C1589 C1590 1.403 . S
C1590 C1589 1.403 . S
C1590 C1591 1.404 . S
C1590 C1593 1.539 . S
C1591 C1587 1.408 . S
C1591 C1590 1.404 . S
C1591 H1603 0.930 . S
C1592 C1588 1.524 . S
C1592 H1604 0.956 . S
C1592 H1605 0.961 . S
C1592 H1606 0.961 . S
C1593 C1590 1.539 . S
C1593 H1607 0.958 . S
C1593 H1608 0.961 . S
C1593 H1609 0.960 . S
H1594 C1578 0.931 . S
H1595 C1583 0.929 . S
H1596 C1584 0.960 . S
H1597 C1584 0.962 . S
H1598 C1584 0.960 . S
H1599 C1585 0.961 . S
H1600 C1585 0.961 . S
H1601 C1585 0.961 . S
H1602 C1586 0.931 . S
H1603 C1591 0.930 . S
H1604 C1592 0.956 . S
H1605 C1592 0.961 . S
H1606 C1592 0.961 . S
H1607 C1593 0.958 . S
H1608 C1593 0.961 . S
H1609 C1593 0.960 . S
C1610 C1611 1.391 . S
C1610 C1612 1.394 . S
C1610 H1626 0.931 . S
C1611 C1610 1.391 . S
C1611 C1615 1.376 . S
C1612 C1610 1.394 . S
C1612 C1613 1.369 . S
C1612 C1616 1.531 . S
C1613 C1612 1.369 . S
C1613 C1614 1.410 . S
C1613 C1621 1.503 . S
C1614 C1613 1.410 . S
C1614 C1615 1.392 . S
C1614 C1617 1.511 . S
C1615 C1611 1.376 . S
C1615 C1614 1.392 . S
C1615 H1627 0.929 . S
C1616 C1612 1.531 . S
C1616 H1628 0.960 . S
C1616 H1629 0.962 . S
C1616 H1630 0.960 . S
C1617 C1614 1.511 . S
C1617 H1631 0.961 . S
C1617 H1632 0.961 . S
C1617 H1633 0.961 . S
C1618 C1619 1.370 . S
C1618 C1620 1.363 . S
C1618 H1634 0.931 . S
C1619 C1618 1.370 . S
C1619 C1623 1.408 . S
C1620 C1618 1.363 . S
C1620 C1621 1.370 . S
C1620 C1624 1.524 . S
C1621 C1613 1.503 . S
C1621 C1620 1.370 . S
C1621 C1622 1.403 . S
C1622 C1621 1.403 . S
C1622 C1623 1.404 . S
C1622 C1625 1.539 . S
C1623 C1619 1.408 . S
C1623 C1622 1.404 . S
C1623 H1635 0.930 . S
C1624 C1620 1.524 . S
C1624 H1636 0.956 . S
C1624 H1637 0.961 . S
C1624 H1638 0.961 . S
C1625 C1622 1.539 . S
C1625 H1639 0.958 . S
C1625 H1640 0.961 . S
C1625 H1641 0.960 . S
H1626 C1610 0.931 . S
H1627 C1615 0.929 . S
H1628 C1616 0.960 . S
H1629 C1616 0.962 . S
H1630 C1616 0.960 . S
H1631 C1617 0.961 . S
H1632 C1617 0.961 . S
H1633 C1617 0.961 . S
H1634 C1618 0.931 . S
H1635 C1623 0.930 . S
H1636 C1624 0.956 . S
H1637 C1624 0.961 . S
H1638 C1624 0.961 . S
H1639 C1625 0.958 . S
H1640 C1625 0.961 . S
H1641 C1625 0.960 . S
C1642 C1643 1.391 . S
C1642 C1644 1.394 . S
C1642 H1658 0.931 . S
C1643 C1642 1.391 . S
C1643 C1647 1.376 . S
C1644 C1642 1.394 . S
C1644 C1645 1.369 . S
C1644 C1648 1.531 . S
C1645 C1644 1.369 . S
C1645 C1646 1.410 . S
C1645 C1653 1.503 . S
C1646 C1645 1.410 . S
C1646 C1647 1.392 . S
C1646 C1649 1.511 . S
C1647 C1643 1.376 . S
C1647 C1646 1.392 . S
C1647 H1659 0.929 . S
C1648 C1644 1.531 . S
C1648 H1660 0.960 . S
C1648 H1661 0.962 . S
C1648 H1662 0.960 . S
C1649 C1646 1.511 . S
C1649 H1663 0.961 . S
C1649 H1664 0.961 . S
C1649 H1665 0.961 . S
C1650 C1651 1.370 . S
C1650 C1652 1.363 . S
C1650 H1666 0.931 . S
C1651 C1650 1.370 . S
C1651 C1655 1.408 . S
C1652 C1650 1.363 . S
C1652 C1653 1.370 . S
C1652 C1656 1.524 . S
C1653 C1645 1.503 . S
C1653 C1652 1.370 . S
C1653 C1654 1.403 . S
C1654 C1653 1.403 . S
C1654 C1655 1.404 . S
C1654 C1657 1.539 . S
C1655 C1651 1.408 . S
C1655 C1654 1.404 . S
C1655 H1667 0.930 . S
C1656 C1652 1.524 . S
C1656 H1668 0.956 . S
C1656 H1669 0.961 . S
C1656 H1670 0.961 . S
C1657 C1654 1.539 . S
C1657 H1671 0.958 . S
C1657 H1672 0.961 . S
C1657 H1673 0.960 . S
H1658 C1642 0.931 . S
H1659 C1647 0.929 . S
H1660 C1648 0.960 . S
H1661 C1648 0.962 . S
H1662 C1648 0.960 . S
H1663 C1649 0.961 . S
H1664 C1649 0.961 . S
H1665 C1649 0.961 . S
H1666 C1650 0.931 . S
H1667 C1655 0.930 . S
H1668 C1656 0.956 . S
H1669 C1656 0.961 . S
H1670 C1656 0.961 . S
H1671 C1657 0.958 . S
H1672 C1657 0.961 . S
H1673 C1657 0.960 . S
C1674 C1675 1.391 . S
C1674 C1676 1.394 . S
C1674 H1690 0.931 . S
C1675 C1674 1.391 . S
C1675 C1679 1.376 . S
C1676 C1674 1.394 . S
C1676 C1677 1.369 . S
C1676 C1680 1.531 . S
C1677 C1676 1.369 . S
C1677 C1678 1.410 . S
C1677 C1685 1.503 . S
C1678 C1677 1.410 . S
C1678 C1679 1.392 . S
C1678 C1681 1.511 1_565 S
C1679 C1675 1.376 . S
C1679 C1678 1.392 . S
C1679 H1691 0.929 . S
C1680 C1676 1.531 . S
C1680 H1692 0.960 . S
C1680 H1693 0.962 . S
C1680 H1694 0.960 . S
C1681 C1678 1.511 1_545 S
C1681 H1695 0.961 . S
C1681 H1696 0.961 . S
C1681 H1697 0.961 . S
C1682 C1683 1.370 . S
C1682 C1684 1.363 . S
C1682 H1698 0.931 . S
C1683 C1682 1.370 . S
C1683 C1687 1.408 . S
C1684 C1682 1.363 . S
C1684 C1685 1.370 . S
C1684 C1688 1.524 . S
C1685 C1677 1.503 . S
C1685 C1684 1.370 . S
C1685 C1686 1.403 . S
C1686 C1685 1.403 . S
C1686 C1687 1.404 . S
C1686 C1689 1.539 . S
C1687 C1683 1.408 . S
C1687 C1686 1.404 . S
C1687 H1699 0.930 . S
C1688 C1684 1.524 . S
C1688 H1700 0.956 . S
C1688 H1701 0.961 . S
C1688 H1702 0.961 . S
C1689 C1686 1.539 . S
C1689 H1703 0.958 . S
C1689 H1704 0.961 . S
C1689 H1705 0.960 . S
H1690 C1674 0.931 . S
H1691 C1679 0.929 . S
H1692 C1680 0.960 . S
H1693 C1680 0.962 . S
H1694 C1680 0.960 . S
H1695 C1681 0.961 . S
H1696 C1681 0.961 . S
H1697 C1681 0.961 . S
H1698 C1682 0.931 . S
H1699 C1687 0.930 . S
H1700 C1688 0.956 . S
H1701 C1688 0.961 . S
H1702 C1688 0.961 . S
H1703 C1689 0.958 . S
H1704 C1689 0.961 . S
H1705 C1689 0.960 . S
C1706 C1707 1.391 . S
C1706 C1708 1.394 . S
C1706 H1722 0.931 . S
C1707 C1706 1.391 . S
C1707 C1711 1.376 1_455 S
C1708 C1706 1.394 . S
C1708 C1709 1.369 . S
C1708 C1712 1.531 . S
C1709 C1708 1.369 . S
C1709 C1710 1.410 1_455 S
C1709 C1717 1.503 . S
C1710 C1709 1.410 1_655 S
C1710 C1711 1.392 . S
C1710 C1713 1.511 . S
C1711 C1707 1.376 1_655 S
C1711 C1710 1.392 . S
C1711 H1723 0.929 . S
C1712 C1708 1.531 . S
C1712 H1724 0.960 . S
C1712 H1725 0.962 . S
C1712 H1726 0.960 . S
C1713 C1710 1.511 . S
C1713 H1727 0.961 . S
C1713 H1728 0.961 . S
C1713 H1729 0.961 . S
C1714 C1715 1.370 . S
C1714 C1716 1.363 . S
C1714 H1730 0.931 . S
C1715 C1714 1.370 . S
C1715 C1719 1.408 . S
C1716 C1714 1.363 . S
C1716 C1717 1.370 . S
C1716 C1720 1.524 . S
C1717 C1709 1.503 . S
C1717 C1716 1.370 . S
C1717 C1718 1.403 . S
C1718 C1717 1.403 . S
C1718 C1719 1.404 . S
C1718 C1721 1.539 . S
C1719 C1715 1.408 . S
C1719 C1718 1.404 . S
C1719 H1731 0.930 . S
C1720 C1716 1.524 . S
C1720 H1732 0.956 . S
C1720 H1733 0.961 . S
C1720 H1734 0.961 . S
C1721 C1718 1.539 . S
C1721 H1735 0.958 . S
C1721 H1736 0.961 1_455 S
C1721 H1737 0.960 1_455 S
H1722 C1706 0.931 . S
H1723 C1711 0.929 . S
H1724 C1712 0.960 . S
H1725 C1712 0.962 . S
H1726 C1712 0.960 . S
H1727 C1713 0.961 . S
H1728 C1713 0.961 . S
H1729 C1713 0.961 . S
H1730 C1714 0.931 . S
H1731 C1719 0.930 . S
H1732 C1720 0.956 . S
H1733 C1720 0.961 . S
H1734 C1720 0.961 . S
H1735 C1721 0.958 . S
H1736 C1721 0.961 1_655 S
H1737 C1721 0.960 1_655 S
C1738 C1739 1.391 . S
C1738 C1740 1.394 . S
C1738 H1754 0.931 . S
C1739 C1738 1.391 . S
C1739 C1743 1.376 . S
C1740 C1738 1.394 . S
C1740 C1741 1.369 . S
C1740 C1744 1.531 . S
C1741 C1740 1.369 . S
C1741 C1742 1.410 . S
C1741 C1749 1.503 . S
C1742 C1741 1.410 . S
C1742 C1743 1.392 . S
C1742 C1745 1.511 . S
C1743 C1739 1.376 . S
C1743 C1742 1.392 . S
C1743 H1755 0.929 . S
C1744 C1740 1.531 . S
C1744 H1756 0.960 . S
C1744 H1757 0.962 . S
C1744 H1758 0.960 . S
C1745 C1742 1.511 . S
C1745 H1759 0.961 . S
C1745 H1760 0.961 . S
C1745 H1761 0.961 . S
C1746 C1747 1.370 . S
C1746 C1748 1.363 . S
C1746 H1762 0.931 . S
C1747 C1746 1.370 . S
C1747 C1751 1.408 . S
C1748 C1746 1.363 . S
C1748 C1749 1.370 . S
C1748 C1752 1.524 . S
C1749 C1741 1.503 . S
C1749 C1748 1.370 . S
C1749 C1750 1.403 . S
C1750 C1749 1.403 . S
C1750 C1751 1.404 . S
C1750 C1753 1.539 . S
C1751 C1747 1.408 . S
C1751 C1750 1.404 . S
C1751 H1763 0.930 . S
C1752 C1748 1.524 . S
C1752 H1764 0.956 . S
C1752 H1765 0.961 . S
C1752 H1766 0.961 . S
C1753 C1750 1.539 . S
C1753 H1767 0.958 . S
C1753 H1768 0.961 . S
C1753 H1769 0.960 . S
H1754 C1738 0.931 . S
H1755 C1743 0.929 . S
H1756 C1744 0.960 . S
H1757 C1744 0.962 . S
H1758 C1744 0.960 . S
H1759 C1745 0.961 . S
H1760 C1745 0.961 . S
H1761 C1745 0.961 . S
H1762 C1746 0.931 . S
H1763 C1751 0.930 . S
H1764 C1752 0.956 . S
H1765 C1752 0.961 . S
H1766 C1752 0.961 . S
H1767 C1753 0.958 . S
H1768 C1753 0.961 . S
H1769 C1753 0.960 . S
C1770 C1771 1.391 1_455 S
C1770 C1772 1.394 . S
C1770 H1786 0.931 . S
C1771 C1770 1.391 1_655 S
C1771 C1775 1.376 . S
C1772 C1770 1.394 . S
C1772 C1773 1.369 1_455 S
C1772 C1776 1.531 . S
C1773 C1772 1.369 1_655 S
C1773 C1774 1.410 . S
C1773 C1781 1.503 . S
C1774 C1773 1.410 . S
C1774 C1775 1.392 . S
C1774 C1777 1.511 . S
C1775 C1771 1.376 . S
C1775 C1774 1.392 . S
C1775 H1787 0.929 . S
C1776 C1772 1.531 . S
C1776 H1788 0.960 . S
C1776 H1789 0.962 . S
C1776 H1790 0.960 . S
C1777 C1774 1.511 . S
C1777 H1791 0.961 . S
C1777 H1792 0.961 . S
C1777 H1793 0.961 . S
C1778 C1779 1.370 . S
C1778 C1780 1.363 . S
C1778 H1794 0.931 . S
C1779 C1778 1.370 . S
C1779 C1783 1.408 . S
C1780 C1778 1.363 . S
C1780 C1781 1.370 . S
C1780 C1784 1.524 . S
C1781 C1773 1.503 . S
C1781 C1780 1.370 . S
C1781 C1782 1.403 . S
C1782 C1781 1.403 . S
C1782 C1783 1.404 . S
C1782 C1785 1.539 . S
C1783 C1779 1.408 . S
C1783 C1782 1.404 . S
C1783 H1795 0.930 . S
C1784 C1780 1.524 . S
C1784 H1796 0.956 . S
C1784 H1797 0.961 . S
C1784 H1798 0.961 . S
C1785 C1782 1.539 . S
C1785 H1799 0.958 1_655 S
C1785 H1800 0.961 . S
C1785 H1801 0.960 . S
H1786 C1770 0.931 . S
H1787 C1775 0.929 . S
H1788 C1776 0.960 . S
H1789 C1776 0.962 . S
H1790 C1776 0.960 . S
H1791 C1777 0.961 . S
H1792 C1777 0.961 . S
H1793 C1777 0.961 . S
H1794 C1778 0.931 . S
H1795 C1783 0.930 . S
H1796 C1784 0.956 . S
H1797 C1784 0.961 . S
H1798 C1784 0.961 . S
H1799 C1785 0.958 1_455 S
H1800 C1785 0.961 . S
H1801 C1785 0.960 . S
C1802 C1803 1.391 . S
C1802 C1804 1.394 . S
C1802 H1818 0.931 . S
C1803 C1802 1.391 . S
C1803 C1807 1.376 . S
C1804 C1802 1.394 . S
C1804 C1805 1.369 . S
C1804 C1808 1.531 . S
C1805 C1804 1.369 . S
C1805 C1806 1.410 . S
C1805 C1813 1.503 . S
C1806 C1805 1.410 . S
C1806 C1807 1.392 . S
C1806 C1809 1.511 . S
C1807 C1803 1.376 . S
C1807 C1806 1.392 . S
C1807 H1819 0.929 . S
C1808 C1804 1.531 . S
C1808 H1820 0.960 . S
C1808 H1821 0.962 . S
C1808 H1822 0.960 . S
C1809 C1806 1.511 . S
C1809 H1823 0.961 . S
C1809 H1824 0.961 . S
C1809 H1825 0.961 . S
C1810 C1811 1.370 . S
C1810 C1812 1.363 . S
C1810 H1826 0.931 . S
C1811 C1810 1.370 . S
C1811 C1815 1.408 . S
C1812 C1810 1.363 . S
C1812 C1813 1.370 . S
C1812 C1816 1.524 . S
C1813 C1805 1.503 . S
C1813 C1812 1.370 . S
C1813 C1814 1.403 . S
C1814 C1813 1.403 . S
C1814 C1815 1.404 . S
C1814 C1817 1.539 . S
C1815 C1811 1.408 . S
C1815 C1814 1.404 . S
C1815 H1827 0.930 . S
C1816 C1812 1.524 . S
C1816 H1828 0.956 . S
C1816 H1829 0.961 . S
C1816 H1830 0.961 . S
C1817 C1814 1.539 . S
C1817 H1831 0.958 . S
C1817 H1832 0.961 . S
C1817 H1833 0.960 . S
H1818 C1802 0.931 . S
H1819 C1807 0.929 . S
H1820 C1808 0.960 . S
H1821 C1808 0.962 . S
H1822 C1808 0.960 . S
H1823 C1809 0.961 . S
H1824 C1809 0.961 . S
H1825 C1809 0.961 . S
H1826 C1810 0.931 . S
H1827 C1815 0.930 . S
H1828 C1816 0.956 . S
H1829 C1816 0.961 . S
H1830 C1816 0.961 . S
H1831 C1817 0.958 . S
H1832 C1817 0.961 . S
H1833 C1817 0.960 . S
C1834 C1835 1.391 . S
C1834 C1836 1.394 . S
C1834 H1850 0.931 . S
C1835 C1834 1.391 . S
C1835 C1839 1.376 . S
C1836 C1834 1.394 . S
C1836 C1837 1.369 . S
C1836 C1840 1.531 . S
C1837 C1836 1.369 . S
C1837 C1838 1.410 . S
C1837 C1845 1.503 . S
C1838 C1837 1.410 . S
C1838 C1839 1.392 . S
C1838 C1841 1.511 . S
C1839 C1835 1.376 . S
C1839 C1838 1.392 . S
C1839 H1851 0.929 . S
C1840 C1836 1.531 . S
C1840 H1852 0.960 . S
C1840 H1853 0.962 . S
C1840 H1854 0.960 . S
C1841 C1838 1.511 . S
C1841 H1855 0.961 . S
C1841 H1856 0.961 . S
C1841 H1857 0.961 1_545 S
C1842 C1843 1.370 . S
C1842 C1844 1.363 . S
C1842 H1858 0.931 . S
C1843 C1842 1.370 . S
C1843 C1847 1.408 1_545 S
C1844 C1842 1.363 . S
C1844 C1845 1.370 . S
C1844 C1848 1.524 . S
C1845 C1837 1.503 . S
C1845 C1844 1.370 . S
C1845 C1846 1.403 1_545 S
C1846 C1845 1.403 1_565 S
C1846 C1847 1.404 . S
C1846 C1849 1.539 . S
C1847 C1843 1.408 1_565 S
C1847 C1846 1.404 . S
C1847 H1859 0.930 . S
C1848 C1844 1.524 . S
C1848 H1860 0.956 . S
C1848 H1861 0.961 . S
C1848 H1862 0.961 . S
C1849 C1846 1.539 . S
C1849 H1863 0.958 . S
C1849 H1864 0.961 . S
C1849 H1865 0.960 . S
H1850 C1834 0.931 . S
H1851 C1839 0.929 . S
H1852 C1840 0.960 . S
H1853 C1840 0.962 . S
H1854 C1840 0.960 . S
H1855 C1841 0.961 . S
H1856 C1841 0.961 . S
H1857 C1841 0.961 1_565 S
H1858 C1842 0.931 . S
H1859 C1847 0.930 . S
H1860 C1848 0.956 . S
H1861 C1848 0.961 . S
H1862 C1848 0.961 . S
H1863 C1849 0.958 . S
H1864 C1849 0.961 . S
H1865 C1849 0.960 . S
C1866 C1867 1.391 . S
C1866 C1868 1.394 . S
C1866 H1882 0.931 . S
C1867 C1866 1.391 . S
C1867 C1871 1.376 . S
C1868 C1866 1.394 . S
C1868 C1869 1.369 . S
C1868 C1872 1.531 . S
C1869 C1868 1.369 . S
C1869 C1870 1.410 . S
C1869 C1877 1.503 . S
C1870 C1869 1.410 . S
C1870 C1871 1.392 . S
C1870 C1873 1.511 . S
C1871 C1867 1.376 . S
C1871 C1870 1.392 . S
C1871 H1883 0.929 . S
C1872 C1868 1.531 . S
C1872 H1884 0.960 . S
C1872 H1885 0.962 . S
C1872 H1886 0.960 . S
C1873 C1870 1.511 . S
C1873 H1887 0.961 . S
C1873 H1888 0.961 . S
C1873 H1889 0.961 . S
C1874 C1875 1.370 . S
C1874 C1876 1.363 . S
C1874 H1890 0.931 . S
C1875 C1874 1.370 . S
C1875 C1879 1.408 . S
C1876 C1874 1.363 . S
C1876 C1877 1.370 . S
C1876 C1880 1.524 . S
C1877 C1869 1.503 . S
C1877 C1876 1.370 . S
C1877 C1878 1.403 . S
C1878 C1877 1.403 . S
C1878 C1879 1.404 . S
C1878 C1881 1.539 . S
C1879 C1875 1.408 . S
C1879 C1878 1.404 . S
C1879 H1891 0.930 . S
C1880 C1876 1.524 . S
C1880 H1892 0.956 . S
C1880 H1893 0.961 . S
C1880 H1894 0.961 . S
C1881 C1878 1.539 . S
C1881 H1895 0.958 . S
C1881 H1896 0.961 . S
C1881 H1897 0.960 . S
H1882 C1866 0.931 . S
H1883 C1871 0.929 . S
H1884 C1872 0.960 . S
H1885 C1872 0.962 . S
H1886 C1872 0.960 . S
H1887 C1873 0.961 . S
H1888 C1873 0.961 . S
H1889 C1873 0.961 . S
H1890 C1874 0.931 . S
H1891 C1879 0.930 . S
H1892 C1880 0.956 . S
H1893 C1880 0.961 . S
H1894 C1880 0.961 . S
H1895 C1881 0.958 . S
H1896 C1881 0.961 . S
H1897 C1881 0.960 . S
C1898 C1899 1.391 . S
C1898 C1900 1.394 . S
C1898 H1914 0.931 . S
C1899 C1898 1.391 . S
C1899 C1903 1.376 . S
C1900 C1898 1.394 . S
C1900 C1901 1.369 . S
C1900 C1904 1.531 . S
C1901 C1900 1.369 . S
C1901 C1902 1.410 . S
C1901 C1909 1.503 . S
C1902 C1901 1.410 . S
C1902 C1903 1.392 . S
C1902 C1905 1.511 . S
C1903 C1899 1.376 . S
C1903 C1902 1.392 . S
C1903 H1915 0.929 . S
C1904 C1900 1.531 . S
C1904 H1916 0.960 . S
C1904 H1917 0.962 . S
C1904 H1918 0.960 . S
C1905 C1902 1.511 . S
C1905 H1919 0.961 . S
C1905 H1920 0.961 . S
C1905 H1921 0.961 . S
C1906 C1907 1.370 . S
C1906 C1908 1.363 . S
C1906 H1922 0.931 . S
C1907 C1906 1.370 . S
C1907 C1911 1.408 . S
C1908 C1906 1.363 . S
C1908 C1909 1.370 . S
C1908 C1912 1.524 . S
C1909 C1901 1.503 . S
C1909 C1908 1.370 . S
C1909 C1910 1.403 . S
C1910 C1909 1.403 . S
C1910 C1911 1.404 . S
C1910 C1913 1.539 . S
C1911 C1907 1.408 . S
C1911 C1910 1.404 . S
C1911 H1923 0.930 . S
C1912 C1908 1.524 . S
C1912 H1924 0.956 . S
C1912 H1925 0.961 . S
C1912 H1926 0.961 . S
C1913 C1910 1.539 . S
C1913 H1927 0.958 . S
C1913 H1928 0.961 . S
C1913 H1929 0.960 . S
H1914 C1898 0.931 . S
H1915 C1903 0.929 . S
H1916 C1904 0.960 . S
H1917 C1904 0.962 . S
H1918 C1904 0.960 . S
H1919 C1905 0.961 . S
H1920 C1905 0.961 . S
H1921 C1905 0.961 . S
H1922 C1906 0.931 . S
H1923 C1911 0.930 . S
H1924 C1912 0.956 . S
H1925 C1912 0.961 . S
H1926 C1912 0.961 . S
H1927 C1913 0.958 . S
H1928 C1913 0.961 . S
H1929 C1913 0.960 . S
C1930 C1931 1.391 . S
C1930 C1932 1.394 . S
C1930 H1946 0.931 . S
C1931 C1930 1.391 . S
C1931 C1935 1.376 . S
C1932 C1930 1.394 . S
C1932 C1933 1.369 . S
C1932 C1936 1.531 . S
C1933 C1932 1.369 . S
C1933 C1934 1.410 . S
C1933 C1941 1.503 . S
C1934 C1933 1.410 . S
C1934 C1935 1.392 . S
C1934 C1937 1.511 . S
C1935 C1931 1.376 . S
C1935 C1934 1.392 . S
C1935 H1947 0.929 . S
C1936 C1932 1.531 . S
C1936 H1948 0.960 . S
C1936 H1949 0.962 . S
C1936 H1950 0.960 . S
C1937 C1934 1.511 . S
C1937 H1951 0.961 . S
C1937 H1952 0.961 . S
C1937 H1953 0.961 . S
C1938 C1939 1.370 . S
C1938 C1940 1.363 . S
C1938 H1954 0.931 . S
C1939 C1938 1.370 . S
C1939 C1943 1.408 . S
C1940 C1938 1.363 . S
C1940 C1941 1.370 . S
C1940 C1944 1.524 . S
C1941 C1933 1.503 . S
C1941 C1940 1.370 . S
C1941 C1942 1.403 . S
C1942 C1941 1.403 . S
C1942 C1943 1.404 . S
C1942 C1945 1.539 . S
C1943 C1939 1.408 . S
C1943 C1942 1.404 . S
C1943 H1955 0.930 . S
C1944 C1940 1.524 . S
C1944 H1956 0.956 . S
C1944 H1957 0.961 . S
C1944 H1958 0.961 . S
C1945 C1942 1.539 . S
C1945 H1959 0.958 . S
C1945 H1960 0.961 . S
C1945 H1961 0.960 . S
H1946 C1930 0.931 . S
H1947 C1935 0.929 . S
H1948 C1936 0.960 . S
H1949 C1936 0.962 . S
H1950 C1936 0.960 . S
H1951 C1937 0.961 . S
H1952 C1937 0.961 . S
H1953 C1937 0.961 . S
H1954 C1938 0.931 . S
H1955 C1943 0.930 . S
H1956 C1944 0.956 . S
H1957 C1944 0.961 . S
H1958 C1944 0.961 . S
H1959 C1945 0.958 . S
H1960 C1945 0.961 . S
H1961 C1945 0.960 . S
C1962 C1963 1.391 . S
C1962 C1964 1.394 . S
C1962 H1978 0.931 . S
C1963 C1962 1.391 . S
C1963 C1967 1.376 . S
C1964 C1962 1.394 . S
C1964 C1965 1.369 . S
C1964 C1968 1.531 . S
C1965 C1964 1.369 . S
C1965 C1966 1.410 . S
C1965 C1973 1.503 . S
C1966 C1965 1.410 . S
C1966 C1967 1.392 . S
C1966 C1969 1.511 . S
C1967 C1963 1.376 . S
C1967 C1966 1.392 . S
C1967 H1979 0.929 . S
C1968 C1964 1.531 . S
C1968 H1980 0.960 . S
C1968 H1981 0.962 . S
C1968 H1982 0.960 . S
C1969 C1966 1.511 . S
C1969 H1983 0.961 . S
C1969 H1984 0.961 . S
C1969 H1985 0.961 . S
C1970 C1971 1.370 . S
C1970 C1972 1.363 . S
C1970 H1986 0.931 . S
C1971 C1970 1.370 . S
C1971 C1975 1.408 . S
C1972 C1970 1.363 . S
C1972 C1973 1.370 . S
C1972 C1976 1.524 . S
C1973 C1965 1.503 . S
C1973 C1972 1.370 . S
C1973 C1974 1.403 . S
C1974 C1973 1.403 . S
C1974 C1975 1.404 . S
C1974 C1977 1.539 . S
C1975 C1971 1.408 . S
C1975 C1974 1.404 . S
C1975 H1987 0.930 . S
C1976 C1972 1.524 . S
C1976 H1988 0.956 . S
C1976 H1989 0.961 . S
C1976 H1990 0.961 . S
C1977 C1974 1.539 . S
C1977 H1991 0.958 . S
C1977 H1992 0.961 . S
C1977 H1993 0.960 . S
H1978 C1962 0.931 . S
H1979 C1967 0.929 . S
H1980 C1968 0.960 . S
H1981 C1968 0.962 . S
H1982 C1968 0.960 . S
H1983 C1969 0.961 . S
H1984 C1969 0.961 . S
H1985 C1969 0.961 . S
H1986 C1970 0.931 . S
H1987 C1975 0.930 . S
H1988 C1976 0.956 . S
H1989 C1976 0.961 . S
H1990 C1976 0.961 . S
H1991 C1977 0.958 . S
H1992 C1977 0.961 . S
H1993 C1977 0.960 . S
C1994 C1995 1.391 . S
C1994 C1996 1.394 . S
C1994 H2010 0.931 . S
C1995 C1994 1.391 . S
C1995 C1999 1.376 . S
C1996 C1994 1.394 . S
C1996 C1997 1.369 . S
C1996 C2000 1.531 . S
C1997 C1996 1.369 . S
C1997 C1998 1.410 . S
C1997 C2005 1.503 . S
C1998 C1997 1.410 . S
C1998 C1999 1.392 . S
C1998 C2001 1.511 . S
C1999 C1995 1.376 . S
C1999 C1998 1.392 . S
C1999 H2011 0.929 . S
C2000 C1996 1.531 . S
C2000 H2012 0.960 . S
C2000 H2013 0.962 . S
C2000 H2014 0.960 . S
C2001 C1998 1.511 . S
C2001 H2015 0.961 . S
C2001 H2016 0.961 . S
C2001 H2017 0.961 . S
C2002 C2003 1.370 . S
C2002 C2004 1.363 . S
C2002 H2018 0.931 . S
C2003 C2002 1.370 . S
C2003 C2007 1.408 . S
C2004 C2002 1.363 . S
C2004 C2005 1.370 . S
C2004 C2008 1.524 . S
C2005 C1997 1.503 . S
C2005 C2004 1.370 . S
C2005 C2006 1.403 . S
C2006 C2005 1.403 . S
C2006 C2007 1.404 . S
C2006 C2009 1.539 . S
C2007 C2003 1.408 . S
C2007 C2006 1.404 . S
C2007 H2019 0.930 . S
C2008 C2004 1.524 . S
C2008 H2020 0.956 . S
C2008 H2021 0.961 . S
C2008 H2022 0.961 . S
C2009 C2006 1.539 . S
C2009 H2023 0.958 . S
C2009 H2024 0.961 . S
C2009 H2025 0.960 . S
H2010 C1994 0.931 . S
H2011 C1999 0.929 . S
H2012 C2000 0.960 . S
H2013 C2000 0.962 . S
H2014 C2000 0.960 . S
H2015 C2001 0.961 . S
H2016 C2001 0.961 . S
H2017 C2001 0.961 . S
H2018 C2002 0.931 . S
H2019 C2007 0.930 . S
H2020 C2008 0.956 . S
H2021 C2008 0.961 . S
H2022 C2008 0.961 . S
H2023 C2009 0.958 . S
H2024 C2009 0.961 . S
H2025 C2009 0.960 . S
C2026 C2027 1.391 . S
C2026 C2028 1.394 . S
C2026 H2042 0.931 . S
C2027 C2026 1.391 . S
C2027 C2031 1.376 . S
C2028 C2026 1.394 . S
C2028 C2029 1.369 . S
C2028 C2032 1.531 . S
C2029 C2028 1.369 . S
C2029 C2030 1.410 . S
C2029 C2037 1.503 . S
C2030 C2029 1.410 . S
C2030 C2031 1.392 . S
C2030 C2033 1.511 . S
C2031 C2027 1.376 . S
C2031 C2030 1.392 . S
C2031 H2043 0.929 . S
C2032 C2028 1.531 . S
C2032 H2044 0.960 . S
C2032 H2045 0.962 . S
C2032 H2046 0.960 . S
C2033 C2030 1.511 . S
C2033 H2047 0.961 . S
C2033 H2048 0.961 . S
C2033 H2049 0.961 . S
C2034 C2035 1.370 . S
C2034 C2036 1.363 . S
C2034 H2050 0.931 . S
C2035 C2034 1.370 . S
C2035 C2039 1.408 . S
C2036 C2034 1.363 . S
C2036 C2037 1.370 . S
C2036 C2040 1.524 . S
C2037 C2029 1.503 . S
C2037 C2036 1.370 . S
C2037 C2038 1.403 . S
C2038 C2037 1.403 . S
C2038 C2039 1.404 . S
C2038 C2041 1.539 . S
C2039 C2035 1.408 . S
C2039 C2038 1.404 . S
C2039 H2051 0.930 . S
C2040 C2036 1.524 . S
C2040 H2052 0.956 . S
C2040 H2053 0.961 . S
C2040 H2054 0.961 . S
C2041 C2038 1.539 . S
C2041 H2055 0.958 . S
C2041 H2056 0.961 . S
C2041 H2057 0.960 . S
H2042 C2026 0.931 . S
H2043 C2031 0.929 . S
H2044 C2032 0.960 . S
H2045 C2032 0.962 . S
H2046 C2032 0.960 . S
H2047 C2033 0.961 . S
H2048 C2033 0.961 . S
H2049 C2033 0.961 . S
H2050 C2034 0.931 . S
H2051 C2039 0.930 . S
H2052 C2040 0.956 . S
H2053 C2040 0.961 . S
H2054 C2040 0.961 . S
H2055 C2041 0.958 . S
H2056 C2041 0.961 . S
H2057 C2041 0.960 . S
C2058 C2059 1.391 . S
C2058 C2060 1.394 . S
C2058 H2074 0.931 . S
C2059 C2058 1.391 . S
C2059 C2063 1.376 . S
C2060 C2058 1.394 . S
C2060 C2061 1.369 . S
C2060 C2064 1.531 . S
C2061 C2060 1.369 . S
C2061 C2062 1.410 . S
C2061 C2069 1.503 . S
C2062 C2061 1.410 . S
C2062 C2063 1.392 . S
C2062 C2065 1.511 . S
C2063 C2059 1.376 . S
C2063 C2062 1.392 . S
C2063 H2075 0.929 . S
C2064 C2060 1.531 . S
C2064 H2076 0.960 . S
C2064 H2077 0.962 . S
C2064 H2078 0.960 . S
C2065 C2062 1.511 . S
C2065 H2079 0.961 . S
C2065 H2080 0.961 . S
C2065 H2081 0.961 . S
C2066 C2067 1.370 . S
C2066 C2068 1.363 . S
C2066 H2082 0.931 . S
C2067 C2066 1.370 . S
C2067 C2071 1.408 . S
C2068 C2066 1.363 . S
C2068 C2069 1.370 . S
C2068 C2072 1.524 . S
C2069 C2061 1.503 . S
C2069 C2068 1.370 . S
C2069 C2070 1.403 . S
C2070 C2069 1.403 . S
C2070 C2071 1.404 . S
C2070 C2073 1.539 . S
C2071 C2067 1.408 . S
C2071 C2070 1.404 . S
C2071 H2083 0.930 . S
C2072 C2068 1.524 . S
C2072 H2084 0.956 . S
C2072 H2085 0.961 . S
C2072 H2086 0.961 . S
C2073 C2070 1.539 . S
C2073 H2087 0.958 . S
C2073 H2088 0.961 . S
C2073 H2089 0.960 . S
H2074 C2058 0.931 . S
H2075 C2063 0.929 . S
H2076 C2064 0.960 . S
H2077 C2064 0.962 . S
H2078 C2064 0.960 . S
H2079 C2065 0.961 . S
H2080 C2065 0.961 . S
H2081 C2065 0.961 . S
H2082 C2066 0.931 . S
H2083 C2071 0.930 . S
H2084 C2072 0.956 . S
H2085 C2072 0.961 . S
H2086 C2072 0.961 . S
H2087 C2073 0.958 . S
H2088 C2073 0.961 . S
H2089 C2073 0.960 . S
C2090 C2091 1.391 . S
C2090 C2092 1.394 . S
C2090 H2106 0.931 . S
C2091 C2090 1.391 . S
C2091 C2095 1.376 . S
C2092 C2090 1.394 . S
C2092 C2093 1.369 . S
C2092 C2096 1.531 . S
C2093 C2092 1.369 . S
C2093 C2094 1.410 . S
C2093 C2101 1.503 . S
C2094 C2093 1.410 . S
C2094 C2095 1.392 . S
C2094 C2097 1.511 . S
C2095 C2091 1.376 . S
C2095 C2094 1.392 . S
C2095 H2107 0.929 . S
C2096 C2092 1.531 . S
C2096 H2108 0.960 . S
C2096 H2109 0.962 . S
C2096 H2110 0.960 . S
C2097 C2094 1.511 . S
C2097 H2111 0.961 . S
C2097 H2112 0.961 . S
C2097 H2113 0.961 . S
C2098 C2099 1.370 . S
C2098 C2100 1.363 . S
C2098 H2114 0.931 . S
C2099 C2098 1.370 . S
C2099 C2103 1.408 . S
C2100 C2098 1.363 . S
C2100 C2101 1.370 . S
C2100 C2104 1.524 . S
C2101 C2093 1.503 . S
C2101 C2100 1.370 . S
C2101 C2102 1.403 . S
C2102 C2101 1.403 . S
C2102 C2103 1.404 . S
C2102 C2105 1.539 . S
C2103 C2099 1.408 . S
C2103 C2102 1.404 . S
C2103 H2115 0.930 . S
C2104 C2100 1.524 . S
C2104 H2116 0.956 . S
C2104 H2117 0.961 . S
C2104 H2118 0.961 . S
C2105 C2102 1.539 . S
C2105 H2119 0.958 . S
C2105 H2120 0.961 . S
C2105 H2121 0.960 . S
H2106 C2090 0.931 . S
H2107 C2095 0.929 . S
H2108 C2096 0.960 . S
H2109 C2096 0.962 . S
H2110 C2096 0.960 . S
H2111 C2097 0.961 . S
H2112 C2097 0.961 . S
H2113 C2097 0.961 . S
H2114 C2098 0.931 . S
H2115 C2103 0.930 . S
H2116 C2104 0.956 . S
H2117 C2104 0.961 . S
H2118 C2104 0.961 . S
H2119 C2105 0.958 . S
H2120 C2105 0.961 . S
H2121 C2105 0.960 . S
C2122 C2123 1.391 . S
C2122 C2124 1.394 . S
C2122 H2138 0.931 . S
C2123 C2122 1.391 . S
C2123 C2127 1.376 . S
C2124 C2122 1.394 . S
C2124 C2125 1.369 . S
C2124 C2128 1.531 . S
C2125 C2124 1.369 . S
C2125 C2126 1.410 . S
C2125 C2133 1.503 . S
C2126 C2125 1.410 . S
C2126 C2127 1.392 . S
C2126 C2129 1.511 . S
C2127 C2123 1.376 . S
C2127 C2126 1.392 . S
C2127 H2139 0.929 . S
C2128 C2124 1.531 . S
C2128 H2140 0.960 . S
C2128 H2141 0.962 . S
C2128 H2142 0.960 . S
C2129 C2126 1.511 . S
C2129 H2143 0.961 . S
C2129 H2144 0.961 . S
C2129 H2145 0.961 . S
C2130 C2131 1.370 . S
C2130 C2132 1.363 . S
C2130 H2146 0.931 . S
C2131 C2130 1.370 . S
C2131 C2135 1.408 . S
C2132 C2130 1.363 . S
C2132 C2133 1.370 . S
C2132 C2136 1.524 . S
C2133 C2125 1.503 . S
C2133 C2132 1.370 . S
C2133 C2134 1.403 . S
C2134 C2133 1.403 . S
C2134 C2135 1.404 . S
C2134 C2137 1.539 . S
C2135 C2131 1.408 . S
C2135 C2134 1.404 . S
C2135 H2147 0.930 . S
C2136 C2132 1.524 . S
C2136 H2148 0.956 . S
C2136 H2149 0.961 . S
C2136 H2150 0.961 . S
C2137 C2134 1.539 . S
C2137 H2151 0.958 . S
C2137 H2152 0.961 . S
C2137 H2153 0.960 . S
H2138 C2122 0.931 . S
H2139 C2127 0.929 . S
H2140 C2128 0.960 . S
H2141 C2128 0.962 . S
H2142 C2128 0.960 . S
H2143 C2129 0.961 . S
H2144 C2129 0.961 . S
H2145 C2129 0.961 . S
H2146 C2130 0.931 . S
H2147 C2135 0.930 . S
H2148 C2136 0.956 . S
H2149 C2136 0.961 . S
H2150 C2136 0.961 . S
H2151 C2137 0.958 . S
H2152 C2137 0.961 . S
H2153 C2137 0.960 . S
C2154 C2155 1.391 . S
C2154 C2156 1.394 . S
C2154 H2170 0.931 . S
C2155 C2154 1.391 . S
C2155 C2159 1.376 . S
C2156 C2154 1.394 . S
C2156 C2157 1.369 . S
C2156 C2160 1.531 . S
C2157 C2156 1.369 . S
C2157 C2158 1.410 . S
C2157 C2165 1.503 . S
C2158 C2157 1.410 . S
C2158 C2159 1.392 . S
C2158 C2161 1.511 . S
C2159 C2155 1.376 . S
C2159 C2158 1.392 . S
C2159 H2171 0.929 . S
C2160 C2156 1.531 . S
C2160 H2172 0.960 . S
C2160 H2173 0.962 . S
C2160 H2174 0.960 . S
C2161 C2158 1.511 . S
C2161 H2175 0.961 . S
C2161 H2176 0.961 . S
C2161 H2177 0.961 . S
C2162 C2163 1.370 . S
C2162 C2164 1.363 . S
C2162 H2178 0.931 . S
C2163 C2162 1.370 . S
C2163 C2167 1.408 . S
C2164 C2162 1.363 . S
C2164 C2165 1.370 . S
C2164 C2168 1.524 . S
C2165 C2157 1.503 . S
C2165 C2164 1.370 . S
C2165 C2166 1.403 . S
C2166 C2165 1.403 . S
C2166 C2167 1.404 . S
C2166 C2169 1.539 . S
C2167 C2163 1.408 . S
C2167 C2166 1.404 . S
C2167 H2179 0.930 . S
C2168 C2164 1.524 . S
C2168 H2180 0.956 . S
C2168 H2181 0.961 . S
C2168 H2182 0.961 . S
C2169 C2166 1.539 . S
C2169 H2183 0.958 . S
C2169 H2184 0.961 . S
C2169 H2185 0.960 . S
H2170 C2154 0.931 . S
H2171 C2159 0.929 . S
H2172 C2160 0.960 . S
H2173 C2160 0.962 . S
H2174 C2160 0.960 . S
H2175 C2161 0.961 . S
H2176 C2161 0.961 . S
H2177 C2161 0.961 . S
H2178 C2162 0.931 . S
H2179 C2167 0.930 . S
H2180 C2168 0.956 . S
H2181 C2168 0.961 . S
H2182 C2168 0.961 . S
H2183 C2169 0.958 . S
H2184 C2169 0.961 . S
H2185 C2169 0.960 . S
C2186 C2187 1.391 . S
C2186 C2188 1.394 . S
C2186 H2202 0.931 . S
C2187 C2186 1.391 . S
C2187 C2191 1.376 . S
C2188 C2186 1.394 . S
C2188 C2189 1.369 . S
C2188 C2192 1.531 . S
C2189 C2188 1.369 . S
C2189 C2190 1.410 . S
C2189 C2197 1.503 . S
C2190 C2189 1.410 . S
C2190 C2191 1.392 . S
C2190 C2193 1.511 . S
C2191 C2187 1.376 . S
C2191 C2190 1.392 . S
C2191 H2203 0.929 . S
C2192 C2188 1.531 . S
C2192 H2204 0.960 . S
C2192 H2205 0.962 . S
C2192 H2206 0.960 . S
C2193 C2190 1.511 . S
C2193 H2207 0.961 . S
C2193 H2208 0.961 . S
C2193 H2209 0.961 . S
C2194 C2195 1.370 . S
C2194 C2196 1.363 . S
C2194 H2210 0.931 . S
C2195 C2194 1.370 . S
C2195 C2199 1.408 . S
C2196 C2194 1.363 . S
C2196 C2197 1.370 . S
C2196 C2200 1.524 . S
C2197 C2189 1.503 . S
C2197 C2196 1.370 . S
C2197 C2198 1.403 . S
C2198 C2197 1.403 . S
C2198 C2199 1.404 . S
C2198 C2201 1.539 . S
C2199 C2195 1.408 . S
C2199 C2198 1.404 . S
C2199 H2211 0.930 . S
C2200 C2196 1.524 . S
C2200 H2212 0.956 . S
C2200 H2213 0.961 . S
C2200 H2214 0.961 . S
C2201 C2198 1.539 . S
C2201 H2215 0.958 . S
C2201 H2216 0.961 . S
C2201 H2217 0.960 . S
H2202 C2186 0.931 . S
H2203 C2191 0.929 . S
H2204 C2192 0.960 . S
H2205 C2192 0.962 . S
H2206 C2192 0.960 . S
H2207 C2193 0.961 . S
H2208 C2193 0.961 . S
H2209 C2193 0.961 . S
H2210 C2194 0.931 . S
H2211 C2199 0.930 . S
H2212 C2200 0.956 . S
H2213 C2200 0.961 . S
H2214 C2200 0.961 . S
H2215 C2201 0.958 . S
H2216 C2201 0.961 . S
H2217 C2201 0.960 . S
C2218 C2219 1.391 . S
C2218 C2220 1.394 . S
C2218 H2234 0.931 . S
C2219 C2218 1.391 . S
C2219 C2223 1.376 . S
C2220 C2218 1.394 . S
C2220 C2221 1.369 . S
C2220 C2224 1.531 . S
C2221 C2220 1.369 . S
C2221 C2222 1.410 . S
C2221 C2229 1.503 . S
C2222 C2221 1.410 . S
C2222 C2223 1.392 . S
C2222 C2225 1.511 . S
C2223 C2219 1.376 . S
C2223 C2222 1.392 . S
C2223 H2235 0.929 . S
C2224 C2220 1.531 . S
C2224 H2236 0.960 . S
C2224 H2237 0.962 . S
C2224 H2238 0.960 . S
C2225 C2222 1.511 . S
C2225 H2239 0.961 . S
C2225 H2240 0.961 . S
C2225 H2241 0.961 . S
C2226 C2227 1.370 . S
C2226 C2228 1.363 . S
C2226 H2242 0.931 . S
C2227 C2226 1.370 . S
C2227 C2231 1.408 . S
C2228 C2226 1.363 . S
C2228 C2229 1.370 . S
C2228 C2232 1.524 . S
C2229 C2221 1.503 . S
C2229 C2228 1.370 . S
C2229 C2230 1.403 . S
C2230 C2229 1.403 . S
C2230 C2231 1.404 . S
C2230 C2233 1.539 . S
C2231 C2227 1.408 . S
C2231 C2230 1.404 . S
C2231 H2243 0.930 . S
C2232 C2228 1.524 . S
C2232 H2244 0.956 . S
C2232 H2245 0.961 . S
C2232 H2246 0.961 . S
C2233 C2230 1.539 . S
C2233 H2247 0.958 . S
C2233 H2248 0.961 . S
C2233 H2249 0.960 . S
H2234 C2218 0.931 . S
H2235 C2223 0.929 . S
H2236 C2224 0.960 . S
H2237 C2224 0.962 . S
H2238 C2224 0.960 . S
H2239 C2225 0.961 . S
H2240 C2225 0.961 . S
H2241 C2225 0.961 . S
H2242 C2226 0.931 . S
H2243 C2231 0.930 . S
H2244 C2232 0.956 . S
H2245 C2232 0.961 . S
H2246 C2232 0.961 . S
H2247 C2233 0.958 . S
H2248 C2233 0.961 . S
H2249 C2233 0.960 . S
C523 C124 1.564 . S
C531 C174 1.567 . S
C555 C130 1.709 . S
C563 C214 1.725 . S
C587 C115 1.543 . S
C595 C244 1.576 . S
C619 C106 1.489 . S
C627 C204 1.463 . S
C659 C254 1.453 . S
C651 C85 1.457 . S
C683 C97 1.280 . S
C691 C164 1.319 . S
C723 C193 1.591 . S
C715 C103 1.586 . S
C755 C233 1.706 . S
C747 C88 1.685 . S
C779 C94 1.568 . S
C787 C259 1.574 . S
C811 C121 1.456 . S
C819 C219 1.475 . S
C843 C133 1.409 . S
C851 C273 1.434 . S
C883 C179 1.332 . S
C875 C112 1.338 . S
C915 C294 1.569 . S
C907 C16 1.555 . S
C939 C22 1.727 . S
C947 C334 1.722 . S
C971 C7 1.585 . S
C979 C364 1.565 . S
C1003 C160 1.455 . S
C1011 C324 1.475 . S
C1035 C139 1.430 . S
C1043 C374 1.459 . S
C1067 C151 1.280 . S
C1075 C284 1.319 . S
C1099 C157 1.592 . S
C1107 C313 1.588 . S
C1131 C142 1.682 . S
C1139 C353 1.705 . S
C1171 C379 1.561 . S
C1163 C148 1.571 . S
C1195 C13 1.454 . S
C1203 C339 1.472 . S
C1235 C393 1.434 . S
C1227 C25 1.404 . S
C1259 C4 1.325 . S
C1267 C299 1.333 . S
C1299 C414 1.573 . S
C1291 C70 1.540 . S
C1323 C76 1.726 . S
C1331 C454 1.722 . S
C1363 C484 1.576 . S
C1355 C61 1.543 . S
C1395 C444 1.468 . S
C1387 C52 1.491 . S
C1427 C494 1.454 . S
C1419 C31 1.458 . S
C1451 C43 1.301 . S
C1459 C404 1.325 . S
C1483 C49 1.588 . S
C1491 C433 1.590 . S
C1515 C34 1.680 . S
C1523 C473 1.706 . S
C1555 C499 1.569 . S
C1547 C40 1.581 . S
C1579 C67 1.454 . S
C1587 C459 1.474 . S
C1611 C79 1.430 . S
C1619 C513 1.429 . S
C1643 C58 1.350 . S
C1651 C419 1.335 . S
C1675 C140 1.393 . S
C1683 C191 1.392 . S
C1715 C231 1.725 . S
C1707 C149 1.731 . S
C1739 C158 1.541 . S
C1747 C250 1.539 . S
C1771 C59 1.752 . S
C1779 C210 1.746 . S
C1803 C68 1.516 . S
C1811 C271 1.525 . S
C1843 C170 1.385 . S
C1835 C77 1.398 . S
C1867 C32 1.397 . S
C1875 C311 1.387 . S
C1899 C41 1.740 . S
C1907 C351 1.718 . S
C1931 C50 1.540 . S
C1939 C370 1.548 . S
C1963 C113 1.760 . S
C1971 C330 1.733 . S
C2003 C391 1.524 . S
C1995 C122 1.517 . S
C2027 C131 1.394 . S
C2035 C290 1.390 . S
C2059 C86 1.397 . S
C2067 C431 1.378 . S
C2091 C95 1.737 . S
C2099 C471 1.721 . S
C2131 C490 1.547 . S
C2123 C104 1.545 . S
C2155 C5 1.755 . S
C2163 C450 1.733 . S
C2187 C14 1.518 . S
C2195 C511 1.524 . S
C2219 C23 1.392 . S
C2227 C410 1.382 . S
