# Generated by pormake.
# Topology pyr, (3,6)-cn, num edge types: 1
# Building blocks:
#     Node 0, Type 0, BuildingBlock: ESEHIV_clean_linker_0, # of connection points: 3
#     Node 1, Type 0, BuildingBlock: ESEHIV_clean_linker_0, # of connection points: 3
#     Node 2, Type 0, BuildingBlock: ESEHIV_clean_linker_0, # of connection points: 3
#     Node 3, Type 0, BuildingBlock: ESEHIV_clean_linker_0, # of connection points: 3
#     Node 4, Type 0, BuildingBlock: ESEHIV_clean_linker_0, # of connection points: 3
#     Node 5, Type 0, BuildingBlock: ESEHIV_clean_linker_0, # of connection points: 3
#     Node 6, Type 0, BuildingBlock: ESEHIV_clean_linker_0, # of connection points: 3
#     Node 7, Type 0, BuildingBlock: ESEHIV_clean_linker_0, # of connection points: 3
#     Node 8, Type 1, BuildingBlock: VOLQOD_clean_sbu_1, # of connection points: 6
#     Node 9, Type 1, BuildingBlock: VOLQOD_clean_sbu_1, # of connection points: 6
#     Node 10, Type 1, BuildingBlock: VOLQOD_clean_sbu_1, # of connection points: 6
#     Node 11, Type 1, BuildingBlock: VOLQOD_clean_sbu_1, # of connection points: 6
#     Edge 12, Type (0, 1), BuildingBlock: XIVTED_clean_linker_0, # of connection points: 2
#     Edge 13, Type (0, 1), BuildingBlock: XIVTED_clean_linker_0, # of connection points: 2
#     Edge 14, Type (0, 1), BuildingBlock: XIVTED_clean_linker_0, # of connection points: 2
#     Edge 15, Type (0, 1), BuildingBlock: XIVTED_clean_linker_0, # of connection points: 2
#     Edge 16, Type (0, 1), BuildingBlock: XIVTED_clean_linker_0, # of connection points: 2
#     Edge 17, Type (0, 1), BuildingBlock: XIVTED_clean_linker_0, # of connection points: 2
#     Edge 18, Type (0, 1), BuildingBlock: XIVTED_clean_linker_0, # of connection points: 2
#     Edge 19, Type (0, 1), BuildingBlock: XIVTED_clean_linker_0, # of connection points: 2
#     Edge 20, Type (0, 1), BuildingBlock: XIVTED_clean_linker_0, # of connection points: 2
#     Edge 21, Type (0, 1), BuildingBlock: XIVTED_clean_linker_0, # of connection points: 2
#     Edge 22, Type (0, 1), BuildingBlock: XIVTED_clean_linker_0, # of connection points: 2
#     Edge 23, Type (0, 1), BuildingBlock: XIVTED_clean_linker_0, # of connection points: 2
#     Edge 24, Type (0, 1), BuildingBlock: XIVTED_clean_linker_0, # of connection points: 2
#     Edge 25, Type (0, 1), BuildingBlock: XIVTED_clean_linker_0, # of connection points: 2
#     Edge 26, Type (0, 1), BuildingBlock: XIVTED_clean_linker_0, # of connection points: 2
#     Edge 27, Type (0, 1), BuildingBlock: XIVTED_clean_linker_0, # of connection points: 2
#     Edge 28, Type (0, 1), BuildingBlock: XIVTED_clean_linker_0, # of connection points: 2
#     Edge 29, Type (0, 1), BuildingBlock: XIVTED_clean_linker_0, # of connection points: 2
#     Edge 30, Type (0, 1), BuildingBlock: XIVTED_clean_linker_0, # of connection points: 2
#     Edge 31, Type (0, 1), BuildingBlock: XIVTED_clean_linker_0, # of connection points: 2
#     Edge 32, Type (0, 1), BuildingBlock: XIVTED_clean_linker_0, # of connection points: 2
#     Edge 33, Type (0, 1), BuildingBlock: XIVTED_clean_linker_0, # of connection points: 2
#     Edge 34, Type (0, 1), BuildingBlock: XIVTED_clean_linker_0, # of connection points: 2
#     Edge 35, Type (0, 1), BuildingBlock: XIVTED_clean_linker_0, # of connection points: 2
# Relax obj value: 0.035
# Max RMSD: 0.118
# Mean RMSD: 0.043
data_MOF--net-pry--node1-VOLQOD_clean_sbu_1--node2-ESEHIV_clean_linker_0--edge1-XIVTED_clean_linker_0
_symmetry_space_group_name_H-M    P1
_symmetry_Int_Tables_number       1
_symmetry_cell_setting            triclinic
loop_
_symmetry_equiv_pos_as_xyz
'x, y, z'
_cell_length_a     35.421439
_cell_length_b     35.418543
_cell_length_c     35.642571
_cell_angle_alpha  90.170444
_cell_angle_beta   89.907051
_cell_angle_gamma 90.169233
loop_
_atom_site_label
_atom_site_type_symbol
_atom_site_fract_x
_atom_site_fract_y
_atom_site_fract_z
_atom_type_partial_charge
H0 H 0.06046 0.14886 0.14773 0.0
H1 H 0.14947 0.06745 0.15057 0.0
H2 H 0.14662 0.15054 0.06258 0.0
C3 C 0.08578 0.13718 0.13521 0.0
C4 C 0.1016 0.15395 0.10319 0.0
C5 C 0.10294 0.10612 0.15229 0.0
C6 C 0.13545 0.0904 0.13623 0.0
C7 C 0.15152 0.10613 0.10365 0.0
C8 C 0.13409 0.13773 0.08717 0.0
H9 H 0.36807 0.95163 0.65581 0.0
H10 H 0.45184 0.86472 0.64487 0.0
H11 H 0.36428 0.87578 0.56196 0.0
C12 C 0.38068 0.92874 0.63996 0.0
C13 C 0.36304 0.91621 0.60701 0.0
C14 C 0.41306 0.91067 0.65362 0.0
C15 C 0.42766 0.87957 0.63377 0.0
C16 C 0.4101 0.86637 0.60083 0.0
C17 C 0.37837 0.88569 0.58711 0.0
H18 H 0.65099 0.36411 0.94735 0.0
H19 H 0.64227 0.45182 0.86491 0.0
H20 H 0.55417 0.36895 0.87506 0.0
C21 C 0.63484 0.37836 0.92588 0.0
C22 C 0.60069 0.36249 0.91336 0.0
C23 C 0.64969 0.41106 0.90905 0.0
C24 C 0.63025 0.42751 0.87891 0.0
C25 C 0.59634 0.4118 0.86566 0.0
C26 C 0.58105 0.38033 0.88419 0.0
H27 H 0.87085 0.64599 0.45621 0.0
H28 H 0.94881 0.64262 0.36418 0.0
H29 H 0.86204 0.55805 0.37295 0.0
C30 C 0.88131 0.63203 0.4312 0.0
C31 C 0.86252 0.59995 0.4171 0.0
C32 C 0.91218 0.64767 0.41202 0.0
C33 C 0.92551 0.62995 0.37939 0.0
C34 C 0.90789 0.59735 0.36523 0.0
C35 C 0.87647 0.58248 0.38438 0.0
H36 H 0.88373 0.96964 0.88237 0.0
H37 H 0.97795 0.89374 0.88887 0.0
H38 H 0.88774 0.88611 0.96922 0.0
C39 C 0.89918 0.94779 0.89696 0.0
C40 C 0.88322 0.93124 0.92907 0.0
C41 C 0.9331 0.93409 0.88183 0.0
C42 C 0.95175 0.9046 0.90029 0.0
C43 C 0.93525 0.88647 0.93122 0.0
C44 C 0.90157 0.90081 0.94635 0.0
H45 H 0.54596 0.12468 0.37932 0.0
H46 H 0.63658 0.04569 0.39094 0.0
H47 H 0.62241 0.13477 0.47224 0.0
C48 C 0.56937 0.11368 0.39548 0.0
C49 C 0.58165 0.13321 0.42754 0.0
C50 C 0.589 0.08201 0.38231 0.0
C51 C 0.62054 0.06912 0.40222 0.0
C52 C 0.63298 0.08782 0.43482 0.0
C53 C 0.61269 0.11943 0.44774 0.0
H54 H 0.39065 0.63605 0.05176 0.0
H55 H 0.37508 0.54425 0.12887 0.0
H56 H 0.46859 0.62069 0.14259 0.0
C57 C 0.40071 0.61943 0.07518 0.0
C58 C 0.43282 0.63131 0.095 0.0
C59 C 0.37963 0.58812 0.08728 0.0
C60 C 0.39191 0.56768 0.11863 0.0
C61 C 0.42405 0.57917 0.13873 0.0
C62 C 0.44467 0.61069 0.12638 0.0
H63 H 0.03547 0.39104 0.63253 0.0
H64 H 0.1222 0.37949 0.5486 0.0
H65 H 0.12985 0.4672 0.63161 0.0
C66 C 0.06115 0.40099 0.61922 0.0
C67 C 0.08063 0.43152 0.63527 0.0
C68 C 0.07599 0.38156 0.58815 0.0
C69 C 0.10956 0.39486 0.57172 0.0
C70 C 0.12878 0.42615 0.58677 0.0
C71 C 0.11383 0.44476 0.61827 0.0
O72 O 0.98794 0.09521 0.54557 0.0
Zn73 Zn 0.97023 0.04143 0.54387 0.0
O74 O 0.00215 0.01083 0.51092 0.0
Zn75 Zn 0.97346 0.99364 0.46719 0.0
Zn76 Zn 0.04516 0.04111 0.49427 0.0
Zn77 Zn 0.01995 0.96709 0.53876 0.0
O78 O 0.97354 0.93719 0.46392 0.0
O79 O 0.00357 0.91796 0.51499 0.0
O80 O 0.91686 0.04178 0.52518 0.0
O81 O 0.91894 0.00957 0.47156 0.0
O82 O 0.99575 0.01319 0.41855 0.0
O83 O 0.04677 0.04384 0.43842 0.0
O84 O 0.09465 0.01956 0.51222 0.0
O85 O 0.96996 0.02195 0.59696 0.0
O86 O 0.07632 0.96765 0.54208 0.0
O87 O 0.00158 0.96821 0.59187 0.0
C88 C 0.01627 0.11228 0.53157 0.0
C89 C 0.98578 0.91082 0.48476 0.0
C90 C 0.02551 0.03237 0.412 0.0
C91 C 0.90068 0.0282 0.49624 0.0
C92 C 0.10221 0.98994 0.53089 0.0
C93 C 0.98316 0.99196 0.61145 0.0
O94 O 0.04069 0.0949 0.51185 0.0
O95 O 0.50319 0.08347 0.97767 0.0
Zn96 Zn 0.48141 0.03131 0.98197 0.0
O97 O 0.51234 5e-05 0.01487 0.0
Zn98 Zn 0.53196 0.95744 0.98621 0.0
Zn99 Zn 0.55465 0.02985 0.03444 0.0
Zn100 Zn 0.48157 0.98131 0.05657 0.0
O101 O 0.51755 0.90798 0.00956 0.0
O102 O 0.48145 0.92451 0.05784 0.0
O103 O 0.47772 0.00924 0.92974 0.0
O104 O 0.51194 0.95706 0.9338 0.0
O105 O 0.58838 0.95959 0.98251 0.0
O106 O 0.60479 0.00882 0.01763 0.0
O107 O 0.5544 0.03016 0.09063 0.0
O108 O 0.42869 0.03657 0.00255 0.0
O109 O 0.50237 -0.00121 0.10629 0.0
O110 O 0.42781 -0.00037 0.05282 0.0
C111 C 0.53055 0.1006 0.99348 0.0
C112 C 0.49723 0.89929 0.03772 0.0
C113 C 0.61353 0.98105 0.99662 0.0
C114 C 0.49122 0.97935 0.91504 0.0
C115 C 0.53189 0.01725 0.11536 0.0
C116 C 0.4113 0.02202 0.0303 0.0
O117 O 0.55208 0.08381 0.01661 0.0
O118 O 0.53256 0.517 0.59177 0.0
Zn119 Zn 0.53089 0.53602 0.53827 0.0
O120 O 0.49987 0.5029 0.50649 0.0
Zn121 Zn 0.53035 0.48281 0.46524 0.0
Zn122 Zn 0.48028 0.46089 0.536 0.0
Zn123 Zn 0.45746 0.53148 0.48638 0.0
O124 O 0.50972 0.49866 0.41505 0.0
O125 O 0.45756 0.52991 0.43011 0.0
O126 O 0.58431 0.53856 0.51883 0.0
O127 O 0.58418 0.50066 0.46902 0.0
O128 O 0.5308 0.42605 0.46561 0.0
O129 O 0.49717 0.41064 0.51587 0.0
O130 O 0.42366 0.46047 0.53685 0.0
O131 O 0.51057 0.5892 0.53901 0.0
O132 O 0.40748 0.51085 0.50382 0.0
O133 O 0.4599 0.58575 0.50257 0.0
C134 C 0.51808 0.48806 0.60744 0.0
C135 C 0.48008 0.51651 0.40562 0.0
C136 C 0.51678 0.40128 0.48742 0.0
C137 C 0.60136 0.52283 0.49147 0.0
C138 C 0.39857 0.48215 0.52333 0.0
C139 C 0.48225 0.60464 0.52338 0.0
O140 O 0.49793 0.4647 0.58904 0.0
O141 O 0.97085 0.50328 0.08639 0.0
Zn142 Zn 0.97611 0.48299 0.03399 0.0
O143 O 0.00998 0.5145 0.00401 0.0
Zn144 Zn 0.9825 0.53583 0.96166 0.0
Zn145 Zn 0.03 0.55543 0.03529 0.0
Zn146 Zn 0.0513 0.48357 0.9848 0.0
O147 O 0.00579 0.52157 0.91208 0.0
O148 O 0.05141 0.48219 0.92859 0.0
O149 O 0.92432 0.48044 0.0111 0.0
O150 O 0.92889 0.517 0.96078 0.0
O151 O 0.98152 0.59225 0.96475 0.0
O152 O 0.01328 0.60652 0.01657 0.0
O153 O 0.0868 0.55484 0.03509 0.0
O154 O 0.99584 0.42984 0.03821 0.0
O155 O 0.10156 0.5041 0.00138 0.0
O156 O 0.04737 0.43005 0.00266 0.0
C157 C 0.98763 0.5294 0.10448 0.0
C158 C 0.03247 0.49917 0.90349 0.0
C159 C 0.99445 0.61649 0.98787 0.0
C160 C 0.90979 0.49531 0.98205 0.0
C161 C 0.11127 0.53274 0.02081 0.0
C162 C 0.0241 0.4129 0.0239 0.0
O163 O 0.01197 0.55069 0.08876 0.0
H164 H 0.08479 0.03422 0.17516 0.0
H165 H 0.06817 0.09195 0.38943 0.0
H166 H 0.09139 0.14953 0.21387 0.0
H167 H 0.00614 0.99612 0.34634 0.0
H168 H 0.08579 0.10886 0.32554 0.0
H169 H 0.06399 0.01499 0.23839 0.0
C170 C 0.08175 0.05537 0.19696 0.0
C171 C 0.08951 0.09347 0.18947 0.0
C172 C 0.06825 0.08418 0.33004 0.0
C173 C 0.06658 0.07185 0.2612 0.0
C174 C 0.05831 0.07439 0.36648 0.0
C175 C 0.03562 0.0426 0.37315 0.0
C176 C 0.05602 0.06169 0.29996 0.0
C177 C 0.02351 0.02099 0.34231 0.0
C178 C 0.06978 0.04448 0.23278 0.0
C179 C 0.08526 0.11992 0.21849 0.0
N180 N 0.03414 0.03076 0.3069 0.0
N181 N 0.07439 0.10858 0.25314 0.0
H182 H 0.42239 0.98241 0.68177 0.0
H183 H 0.50544 0.91317 0.87805 0.0
H184 H 0.43989 0.8652 0.70977 0.0
H185 H 0.45737 0.02387 0.8619 0.0
H186 H 0.49001 0.89737 0.81323 0.0
H187 H 0.44352 0.00018 0.7447 0.0
C188 C 0.43079 0.96041 0.70104 0.0
C189 C 0.42921 0.92221 0.69039 0.0
C190 C 0.48288 0.92513 0.82386 0.0
C191 C 0.45381 0.94245 0.76224 0.0
C192 C 0.49174 0.93424 0.86087 0.0
C193 C 0.48252 0.96988 0.87554 0.0
C194 C 0.46493 0.95191 0.80116 0.0
C195 C 0.46479 0.99599 0.85186 0.0
C196 C 0.44291 0.97061 0.7369 0.0
C197 C 0.44111 0.89501 0.71639 0.0
N198 N 0.45658 0.98648 0.81579 0.0
N199 N 0.45281 0.90567 0.7511 0.0
H200 H 0.5631 0.36933 0.81058 0.0
H201 H 0.55628 0.53227 0.65868 0.0
H202 H 0.5916 0.48479 0.83842 0.0
H203 H 0.49708 0.426 0.64762 0.0
H204 H 0.57117 0.51614 0.72388 0.0
H205 H 0.53986 0.39021 0.75028 0.0
C206 C 0.56385 0.39924 0.80445 0.0
C207 C 0.57924 0.42531 0.83002 0.0
C208 C 0.55464 0.4966 0.70716 0.0
C209 C 0.55367 0.44931 0.75981 0.0
C210 C 0.54624 0.5057 0.66995 0.0
C211 C 0.52565 0.48032 0.6475 0.0
C212 C 0.54269 0.46176 0.72176 0.0
C213 C 0.5132 0.4464 0.66368 0.0
C214 C 0.55082 0.41111 0.76968 0.0
C215 C 0.58046 0.46356 0.81953 0.0
N216 N 0.52218 0.43803 0.69964 0.0
N217 N 0.56815 0.47439 0.78505 0.0
H218 H 0.86399 0.56832 0.30839 0.0
H219 H 0.02774 0.56895 0.15728 0.0
H220 H 0.98026 0.59015 0.3381 0.0
H221 H 0.92528 0.5043 0.14241 0.0
H222 H 0.00966 0.58096 0.22251 0.0
H223 H 0.88473 0.54749 0.24648 0.0
C224 C 0.89393 0.56816 0.30226 0.0
C225 C 0.92038 0.5812 0.32867 0.0
C226 C 0.99132 0.56391 0.205 0.0
C227 C 0.9441 0.55843 0.25723 0.0
C228 C 0.00151 0.55721 0.16775 0.0
C229 C 0.97791 0.53571 0.14434 0.0
C230 C 0.95701 0.54955 0.21873 0.0
C231 C 0.94434 0.52099 0.15947 0.0
C232 C 0.9057 0.55649 0.26673 0.0
C233 C 0.95875 0.58108 0.3185 0.0
N234 N 0.9347 0.52852 0.19562 0.0
N235 N 0.96942 0.5703 0.28345 0.0
H236 H 0.17695 0.03264 0.10125 0.0
H237 H 0.37289 0.0826 0.00241 0.0
H238 H 0.21042 0.14651 0.07293 0.0
H239 H 0.35913 0.9856 0.0743 0.0
H240 H 0.30822 0.10161 0.01712 0.0
H241 H 0.23917 0.01048 0.08114 0.0
C242 C 0.19719 0.05302 0.09078 0.0
C243 C 0.18817 0.09161 0.08892 0.0
C244 C 0.31936 0.07609 0.02952 0.0
C245 C 0.25909 0.06614 0.06509 0.0
C246 C 0.35618 0.06511 0.02103 0.0
C247 C 0.37152 0.03256 0.03733 0.0
C248 C 0.29748 0.05409 0.05401 0.0
C249 C 0.34854 0.01106 0.06135 0.0
C250 C 0.23263 0.04026 0.07918 0.0
C251 C 0.21551 0.11645 0.07431 0.0
N252 N 0.3126 0.02217 0.06894 0.0
N253 N 0.24964 0.10328 0.06295 0.0
H254 H 0.30151 0.92521 0.65158 0.0
H255 H 0.16737 0.01407 0.49637 0.0
H256 H 0.34005 0.94122 0.53785 0.0
H257 H 0.12669 0.94698 0.58903 0.0
H258 H 0.23251 -0.00099 0.51479 0.0
H259 H 0.23857 0.94589 0.63295 0.0
C260 C 0.29679 0.93365 0.62277 0.0
C261 C 0.32591 0.93167 0.59618 0.0
C262 C 0.20918 0.98768 0.53094 0.0
C263 C 0.25404 0.95502 0.57467 0.0
C264 C 0.17215 0.99632 0.52059 0.0
C265 C 0.14165 0.98159 0.54113 0.0
C266 C 0.21554 0.96495 0.56248 0.0
C267 C 0.14933 0.95868 0.57222 0.0
C268 C 0.26086 0.94511 0.61212 0.0
C269 C 0.31819 0.94231 0.55908 0.0
N270 N 0.1855 0.95126 0.58207 0.0
N271 N 0.28288 0.95367 0.54935 0.0
H272 H 0.6776 0.41735 0.98067 0.0
H273 H 0.87285 0.51081 0.91648 0.0
H274 H 0.70693 0.4391 0.86503 0.0
H275 H 0.85661 0.45908 0.02494 0.0
H276 H 0.80849 0.4929 0.89953 0.0
H277 H 0.74004 0.44011 -0.00046 0.0
C278 C 0.6971 0.4269 0.95924 0.0
C279 C 0.68688 0.4263 0.92118 0.0
C280 C 0.81901 0.48555 0.92706 0.0
C281 C 0.7581 0.45286 0.94268 0.0
C282 C 0.85571 0.49588 0.93684 0.0
C283 C 0.87026 0.48625 0.97213 0.0
C284 C 0.79653 0.46573 0.95286 0.0
C285 C 0.84668 0.46687 0.99733 0.0
C286 C 0.73265 0.44001 0.97007 0.0
C287 C 0.71317 0.43961 0.89474 0.0
N288 N 0.81096 0.45723 0.98719 0.0
N289 N 0.74752 0.45232 0.90599 0.0
H290 H 0.80641 0.6434 0.44827 0.0
H291 H 0.65212 0.48261 0.44944 0.0
H292 H 0.83496 0.52726 0.42408 0.0
H293 H 0.6424 0.5826 0.51833 0.0
H294 H 0.71787 0.49938 0.43607 0.0
H295 H 0.74514 0.62266 0.47123 0.0
C296 C 0.80026 0.61344 0.44838 0.0
C297 C 0.82625 0.58708 0.43414 0.0
C298 C 0.70139 0.51741 0.45439 0.0
C299 C 0.75515 0.56339 0.45929 0.0
C300 C 0.66385 0.508 0.46187 0.0
C301 C 0.64169 0.53137 0.48488 0.0
C302 C 0.71663 0.55077 0.46944 0.0
C303 C 0.65843 0.56377 0.50045 0.0
C304 C 0.765 0.6017 0.46127 0.0
C305 C 0.81576 0.54875 0.4341 0.0
N306 N 0.69478 0.57276 0.49208 0.0
N307 N 0.78085 0.5381 0.44606 0.0
H308 H 0.0972 0.17904 0.02989 0.0
H309 H 0.99566 0.3727 0.08296 0.0
H310 H 0.07141 0.2125 0.14382 0.0
H311 H 0.06816 0.36204 0.98601 0.0
H312 H 0.01094 0.30773 0.10025 0.0
H313 H 0.0753 0.24086 0.00838 0.0
C314 C 0.0869 0.19914 0.0504 0.0
C315 C 0.08617 0.19023 0.08881 0.0
C316 C 0.02329 0.31962 0.07508 0.0
C317 C 0.06025 0.26049 0.06414 0.0
C318 C 0.01449 0.35659 0.06511 0.0
C319 C 0.03093 0.37289 0.03318 0.0
C320 C 0.04822 0.29863 0.05267 0.0
C321 C 0.05517 0.35068 0.01109 0.0
C322 C 0.07425 0.23431 0.03802 0.0
C323 C 0.07181 0.21741 0.11389 0.0
N324 N 0.06311 0.31461 0.02124 0.0
N325 N 0.05939 0.25118 0.1011 0.0
H326 H 0.60495 0.33468 0.98562 0.0
H327 H 0.50102 0.1409 0.93534 0.0
H328 H 0.5668 0.30496 0.87422 0.0
H329 H 0.57686 0.15134 0.0296 0.0
H330 H 0.51543 0.20591 0.91802 0.0
H331 H 0.58615 0.2717 0.0072 0.0
C332 C 0.59257 0.31511 0.96571 0.0
C333 C 0.58737 0.32542 0.92801 0.0
C334 C 0.52884 0.19399 0.94255 0.0
C335 C 0.56524 0.25374 0.95277 0.0
C336 C 0.52054 0.15691 0.95255 0.0
C337 C 0.53796 0.14053 0.98384 0.0
C338 C 0.55443 0.21509 0.96416 0.0
C339 C 0.56303 0.16274 0.00507 0.0
C340 C 0.58176 0.27926 0.97812 0.0
C341 C 0.57065 0.2989 0.9037 0.0
N342 N 0.57053 0.19897 0.99485 0.0
N343 N 0.56018 0.26442 0.91651 0.0
H344 H 0.93123 0.67213 0.48283 0.0
H345 H 0.96235 0.88478 0.41656 0.0
H346 H 0.92736 0.70807 0.36733 0.0
H347 H 0.99249 0.84672 0.52752 0.0
H348 H 0.94791 0.81991 0.39895 0.0
H349 H 0.95237 0.73571 0.50089 0.0
C350 C 0.93507 0.69333 0.46131 0.0
C351 C 0.92769 0.68483 0.42354 0.0
C352 C 0.95788 0.82564 0.42711 0.0
C353 C 0.95153 0.75733 0.44389 0.0
C354 C 0.96601 0.86275 0.43725 0.0
C355 C 0.97852 0.87124 0.47363 0.0
C356 C 0.96185 0.7967 0.45362 0.0
C357 C 0.98295 0.84143 0.49915 0.0
C358 C 0.94725 0.72948 0.47158 0.0
C359 C 0.93324 0.71322 0.3967 0.0
N360 N 0.97433 0.80544 0.48873 0.0
N361 N 0.94456 0.74821 0.40743 0.0
H362 H 0.3653 0.81085 0.57061 0.0
H363 H 0.52741 0.65728 0.55822 0.0
H364 H 0.48224 0.83822 0.59223 0.0
H365 H 0.41876 0.64411 0.50484 0.0
H366 H 0.51165 0.72303 0.57252 0.0
H367 H 0.38454 0.74937 0.54724 0.0
C368 C 0.39514 0.80435 0.56983 0.0
C369 C 0.42217 0.83007 0.58341 0.0
C370 C 0.49145 0.70578 0.5574 0.0
C371 C 0.44427 0.75872 0.55767 0.0
C372 C 0.50034 0.66822 0.54935 0.0
C373 C 0.47427 0.64503 0.5305 0.0
C374 C 0.45608 0.72008 0.54694 0.0
C375 C 0.43972 0.66083 0.5195 0.0
C376 C 0.40607 0.76896 0.55672 0.0
C377 C 0.46032 0.81921 0.5826 0.0
N378 N 0.43152 0.69723 0.52818 0.0
N379 N 0.47021 0.78422 0.57029 0.0
H380 H 0.93164 0.00507 0.84981 0.0
H381 H 0.00313 0.92894 0.6505 0.0
H382 H 0.96109 0.88914 0.826 0.0
H383 H 0.95161 0.03845 0.66491 0.0
H384 H 0.99482 0.9171 0.71713 0.0
H385 H 0.94565 0.02095 0.78427 0.0
C386 C 0.94135 0.98306 0.83101 0.0
C387 C 0.94539 0.94574 0.84366 0.0
C388 C 0.9853 0.94374 0.70579 0.0
C389 C 0.96153 0.96374 0.76892 0.0
C390 C 0.99002 0.95055 0.66765 0.0
C391 C 0.97784 0.98467 0.65195 0.0
C392 C 0.96834 0.97125 0.72864 0.0
C393 C 0.9612 0.01163 0.67576 0.0
C394 C 0.94934 0.99216 0.79367 0.0
C395 C 0.95834 0.91846 0.81804 0.0
N396 N 0.95689 0.00433 0.71297 0.0
N397 N 0.96582 0.928 0.78201 0.0
H398 H 0.51952 0.06303 0.35376 0.0
H399 H 0.59847 0.04128 0.14569 0.0
H400 H 0.63796 0.06632 0.32541 0.0
H401 H 0.4853 0.00751 0.17627 0.0
H402 H 0.61247 0.05249 0.21164 0.0
H403 H 0.50529 0.04378 0.2891 0.0
C404 C 0.5425 0.05928 0.33402 0.0
C405 C 0.57995 0.06614 0.34491 0.0
C406 C 0.58462 0.04245 0.204 0.0
C407 C 0.56396 0.04468 0.27115 0.0
C408 C 0.57652 0.03623 0.16628 0.0
C409 C 0.5406 0.02359 0.15541 0.0
C410 C 0.55649 0.03643 0.23113 0.0
C411 C 0.51338 0.01726 0.18342 0.0
C412 C 0.5344 0.04826 0.29723 0.0
C413 C 0.60873 0.06084 0.31835 0.0
N414 N 0.5218 0.02403 0.22004 0.0
N415 N 0.6001 0.05077 0.28264 0.0
H416 H 0.4931 0.55877 0.16707 0.0
H417 H 0.41328 0.53876 0.37481 0.0
H418 H 0.3746 0.56276 0.19505 0.0
H419 H 0.52671 0.50579 0.34488 0.0
H420 H 0.39931 0.54844 0.30867 0.0
H421 H 0.50686 0.53925 0.23159 0.0
C422 C 0.46999 0.55505 0.18667 0.0
C423 C 0.43268 0.56233 0.17572 0.0
C424 C 0.42721 0.53887 0.3165 0.0
C425 C 0.44815 0.54056 0.24938 0.0
C426 C 0.43529 0.53354 0.35432 0.0
C427 C 0.4713 0.52165 0.36544 0.0
C428 C 0.45545 0.53274 0.28949 0.0
C429 C 0.49857 0.51502 0.33755 0.0
C430 C 0.47782 0.54388 0.22339 0.0
C431 C 0.40373 0.557 0.20211 0.0
N432 N 0.49018 0.52097 0.30082 0.0
N433 N 0.41212 0.54683 0.23778 0.0
H434 H 0.07084 0.50404 0.6618 0.0
H435 H 0.07026 0.43892 0.8745 0.0
H436 H 0.06941 0.38729 0.69595 0.0
H437 H 0.01321 0.54123 0.84176 0.0
H438 H 0.0811 0.42422 0.8085 0.0
H439 H 0.05894 0.52274 0.72753 0.0
C440 C 0.06769 0.48247 0.68306 0.0
C441 C 0.07061 0.44412 0.67357 0.0
C442 C 0.06624 0.44992 0.81579 0.0
C443 C 0.05818 0.46509 0.74805 0.0
C444 C 0.06024 0.45845 0.85343 0.0
C445 C 0.04064 0.49126 0.86361 0.0
C446 C 0.05311 0.47461 0.78806 0.0
C447 C 0.0282 0.51548 0.83504 0.0
C448 C 0.06092 0.49308 0.72033 0.0
C449 C 0.06669 0.41714 0.70203 0.0
N450 N 0.03478 0.50675 0.79841 0.0
N451 N 0.06101 0.42815 0.738 0.0
H452 H 0.85691 0.94963 -0.00072 0.0
H453 H 0.6416 0.9404 0.93791 0.0
H454 H 0.82122 0.93429 0.8846 0.0
H455 H 0.67658 0.0055 0.03448 0.0
H456 H 0.70775 0.92956 0.92226 0.0
H457 H 0.79097 0.96283 0.01699 0.0
C458 C 0.8352 0.94929 0.97791 0.0
C459 C 0.84436 0.94128 0.94043 0.0
C460 C 0.70094 0.94626 0.94685 0.0
C461 C 0.76951 0.95545 0.96039 0.0
C462 C 0.6632 0.9523 0.95593 0.0
C463 C 0.65358 0.97396 0.98751 0.0
C464 C 0.72934 0.96146 0.9698 0.0
C465 C 0.68282 0.98881 0.00975 0.0
C466 C 0.79779 0.95687 0.98794 0.0
C467 C 0.81536 0.94092 0.9137 0.0
N468 N 0.7195 0.98209 0.0006 0.0
N469 N 0.7792 0.94761 0.92425 0.0
H470 H 0.68687 0.13498 0.46504 0.0
H471 H 0.85118 0.9872 0.45341 0.0
H472 H 0.66419 0.01703 0.44274 0.0
H473 H 0.85726 0.08354 0.52767 0.0
H474 H 0.78375 -0.0006 0.44441 0.0
H475 H 0.75025 0.11836 0.48511 0.0
C476 C 0.69472 0.10547 0.46508 0.0
C477 C 0.66986 0.07741 0.45191 0.0
C478 C 0.79986 0.01762 0.46291 0.0
C479 C 0.74327 0.05856 0.47354 0.0
C480 C 0.83832 0.01087 0.46782 0.0
C481 C 0.85984 0.03452 0.49117 0.0
C482 C 0.78306 0.04867 0.48082 0.0
C483 C 0.8417 0.06461 0.50943 0.0
C484 C 0.73117 0.0961 0.47627 0.0
C485 C 0.68249 0.03978 0.45181 0.0
N486 N 0.80442 0.07112 0.50351 0.0
N487 N 0.71852 0.03152 0.46187 0.0
H488 H 0.32445 0.63902 0.07143 0.0
H489 H 0.17129 0.48543 0.00872 0.0
H490 H 0.34854 0.5197 0.06757 0.0
H491 H 0.14364 0.59796 0.04659 0.0
H492 H 0.23811 0.49898 0.02031 0.0
H493 H 0.26001 0.62586 0.05125 0.0
C494 C 0.31636 0.61006 0.06565 0.0
C495 C 0.34191 0.58037 0.07106 0.0
C496 C 0.21735 0.52065 0.02598 0.0
C497 C 0.26791 0.56508 0.04865 0.0
C498 C 0.17925 0.51302 0.01932 0.0
C499 C 0.1518 0.54056 0.02691 0.0
C500 C 0.22806 0.55621 0.03985 0.0
C501 C 0.16375 0.57578 0.04062 0.0
C502 C 0.27945 0.60255 0.05452 0.0
C503 C 0.32961 0.54334 0.0639 0.0
N504 N 0.20098 0.5826 0.04659 0.0
N505 N 0.29338 0.53669 0.05311 0.0
H506 H 0.15883 0.49593 0.57102 0.0
H507 H 0.36809 0.41658 0.54994 0.0
H508 H 0.18662 0.37745 0.57365 0.0
H509 H 0.33744 0.5285 0.51335 0.0
H510 H 0.3018 0.40326 0.56279 0.0
H511 H 0.22445 0.51014 0.55337 0.0
C512 C 0.17868 0.47297 0.56758 0.0
C513 C 0.1673 0.43548 0.57347 0.0
C514 C 0.30953 0.4307 0.5518 0.0
C515 C 0.24205 0.45141 0.55388 0.0
C516 C 0.34741 0.43839 0.54461 0.0
C517 C 0.35834 0.47374 0.53059 0.0
C518 C 0.28231 0.45867 0.54539 0.0
C519 C 0.33023 0.50083 0.52406 0.0
C520 C 0.21598 0.48104 0.55746 0.0
C521 C 0.19404 0.4067 0.56877 0.0
N522 N 0.29346 0.49281 0.53175 0.0
N523 N 0.23019 0.41529 0.55951 0.0
H524 H 0.94423 0.85664 0.00229 0.0
H525 H 0.97194 0.64858 0.92239 0.0
H526 H 0.95539 0.82919 0.88471 0.0
H527 H 0.00156 0.67657 0.03664 0.0
H528 H 0.96043 0.715 0.91014 0.0
H529 H 0.9609 0.79098 0.01769 0.0
C530 C 0.9506 0.83699 0.97984 0.0
C531 C 0.94883 0.8485 0.94221 0.0
C532 C 0.96959 0.70673 0.93789 0.0
C533 C 0.96715 0.77381 0.95946 0.0
C534 C 0.97599 0.66872 0.94497 0.0
C535 C 0.98773 0.65697 0.9806 0.0
C536 C 0.97449 0.73338 0.96671 0.0
C537 C 0.99266 0.68448 0.00871 0.0
C538 C 0.96015 0.79968 0.98861 0.0
C539 C 0.95714 0.8219 0.91413 0.0
N540 N 0.98577 0.72151 0.00124 0.0
N541 N 0.96564 0.78587 0.92333 0.0
H542 H 0.45401 0.65956 0.02651 0.0
H543 H 0.47061 0.8696 0.10338 0.0
H544 H 0.4489 0.68804 0.14418 0.0
H545 H 0.51144 0.83739 0.99366 0.0
H546 H 0.46039 0.80308 0.118 0.0
H547 H 0.47393 0.72449 0.01284 0.0
C548 C 0.4576 0.67937 0.04945 0.0
C549 C 0.44992 0.66849 0.0865 0.0
C550 C 0.47182 0.81055 0.09081 0.0
C551 C 0.47198 0.74259 0.07113 0.0
C552 C 0.47745 0.84854 0.08237 0.0
C553 C 0.49174 0.85908 0.04719 0.0
C554 C 0.48001 0.78289 0.06372 0.0
C555 C 0.50037 0.83052 0.02114 0.0
C556 C 0.46897 0.71631 0.04168 0.0
C557 C 0.45498 0.69514 0.11527 0.0
N558 N 0.49405 0.7937 0.02981 0.0
N559 N 0.46527 0.73108 0.10693 0.0
H560 H 0.07201 0.35024 0.51719 0.0
H561 H 0.98356 0.15513 0.58652 0.0
H562 H 0.04433 0.32714 0.63309 0.0
H563 H 0.05857 0.16264 0.49119 0.0
H564 H 0.9924 0.22276 0.5977 0.0
H565 H 0.05384 0.28539 0.50118 0.0
C566 C 0.06184 0.33183 0.53922 0.0
C567 C 0.05996 0.34439 0.57663 0.0
C568 C 0.00675 0.20955 0.57426 0.0
C569 C 0.03846 0.2706 0.55824 0.0
C570 C 0.00172 0.17103 0.56783 0.0
C571 C 0.02068 0.15321 0.53811 0.0
C572 C 0.0304 0.23046 0.55046 0.0
C573 C 0.04381 0.17521 0.51471 0.0
C574 C 0.0514 0.29491 0.52999 0.0
C575 C 0.04574 0.3193 0.60377 0.0
N576 N 0.04801 0.21277 0.52136 0.0
N577 N 0.03566 0.28364 0.59404 0.0
H578 H 0.56732 0.19011 0.3785 0.0
H579 H 0.50475 0.34059 0.53373 0.0
H580 H 0.56212 0.16296 0.49638 0.0
H581 H 0.54335 0.36983 0.42252 0.0
H582 H 0.51649 0.27392 0.51939 0.0
H583 H 0.54804 0.25441 0.39302 0.0
C584 C 0.56144 0.19749 0.40743 0.0
C585 C 0.56615 0.17106 0.43629 0.0
C586 C 0.52231 0.29501 0.4982 0.0
C587 C 0.54482 0.24506 0.45318 0.0
C588 C 0.51556 0.33301 0.50629 0.0
C589 C 0.52324 0.36086 0.47931 0.0
C590 C 0.53634 0.28481 0.46277 0.0
C591 C 0.53726 0.34941 0.44426 0.0
C592 C 0.55084 0.23437 0.41573 0.0
C593 C 0.55897 0.18255 0.47335 0.0
N594 N 0.54327 0.31229 0.437 0.0
N595 N 0.54869 0.2188 0.48078 0.0
loop_
_geom_bond_atom_site_label_1
_geom_bond_atom_site_label_2
_geom_bond_distance
_geom_bond_site_symmetry_2
_ccdc_geom_bond_type
H0 C3 0.931 . S
H1 C6 0.928 . S
H2 C8 0.930 . S
C3 H0 0.931 . S
C3 C4 1.413 . S
C3 C5 1.360 . S
C4 C3 1.413 . S
C4 C8 1.429 . S
C5 C3 1.360 . S
C5 C6 1.372 . S
C6 H1 0.928 . S
C6 C5 1.372 . S
C6 C7 1.404 . S
C7 C6 1.404 . S
C7 C8 1.391 . S
C8 H2 0.930 . S
C8 C4 1.429 . S
C8 C7 1.391 . S
H9 C12 0.931 . S
H10 C15 0.928 . S
H11 C17 0.930 . S
C12 H9 0.931 . S
C12 C13 1.413 . S
C12 C14 1.360 . S
C13 C12 1.413 . S
C13 C17 1.429 . S
C14 C12 1.360 . S
C14 C15 1.372 . S
C15 H10 0.928 . S
C15 C14 1.372 . S
C15 C16 1.404 . S
C16 C15 1.404 . S
C16 C17 1.391 . S
C17 H11 0.930 . S
C17 C13 1.429 . S
C17 C16 1.391 . S
H18 C21 0.931 . S
H19 C24 0.928 . S
H20 C26 0.930 . S
C21 H18 0.931 . S
C21 C22 1.413 . S
C21 C23 1.360 . S
C22 C21 1.413 . S
C22 C26 1.429 . S
C23 C21 1.360 . S
C23 C24 1.372 . S
C24 H19 0.928 . S
C24 C23 1.372 . S
C24 C25 1.404 . S
C25 C24 1.404 . S
C25 C26 1.391 . S
C26 H20 0.930 . S
C26 C22 1.429 . S
C26 C25 1.391 . S
H27 C30 0.931 . S
H28 C33 0.928 . S
H29 C35 0.930 . S
C30 H27 0.931 . S
C30 C31 1.413 . S
C30 C32 1.360 . S
C31 C30 1.413 . S
C31 C35 1.429 . S
C32 C30 1.360 . S
C32 C33 1.372 . S
C33 H28 0.928 . S
C33 C32 1.372 . S
C33 C34 1.404 . S
C34 C33 1.404 . S
C34 C35 1.391 . S
C35 H29 0.930 . S
C35 C31 1.429 . S
C35 C34 1.391 . S
H36 C39 0.931 . S
H37 C42 0.928 . S
H38 C44 0.930 . S
C39 H36 0.931 . S
C39 C40 1.413 . S
C39 C41 1.360 . S
C40 C39 1.413 . S
C40 C44 1.429 . S
C41 C39 1.360 . S
C41 C42 1.372 . S
C42 H37 0.928 . S
C42 C41 1.372 . S
C42 C43 1.404 . S
C43 C42 1.404 . S
C43 C44 1.391 . S
C44 H38 0.930 . S
C44 C40 1.429 . S
C44 C43 1.391 . S
H45 C48 0.931 . S
H46 C51 0.928 . S
H47 C53 0.930 . S
C48 H45 0.931 . S
C48 C49 1.413 . S
C48 C50 1.360 . S
C49 C48 1.413 . S
C49 C53 1.429 . S
C50 C48 1.360 . S
C50 C51 1.372 . S
C51 H46 0.928 . S
C51 C50 1.372 . S
C51 C52 1.404 . S
C52 C51 1.404 . S
C52 C53 1.391 . S
C53 H47 0.930 . S
C53 C49 1.429 . S
C53 C52 1.391 . S
H54 C57 0.931 . S
H55 C60 0.928 . S
H56 C62 0.930 . S
C57 H54 0.931 . S
C57 C58 1.413 . S
C57 C59 1.360 . S
C58 C57 1.413 . S
C58 C62 1.429 . S
C59 C57 1.360 . S
C59 C60 1.372 . S
C60 H55 0.928 . S
C60 C59 1.372 . S
C60 C61 1.404 . S
C61 C60 1.404 . S
C61 C62 1.391 . S
C62 H56 0.930 . S
C62 C58 1.429 . S
C62 C61 1.391 . S
H63 C66 0.931 . S
H64 C69 0.928 . S
H65 C71 0.930 . S
C66 H63 0.931 . S
C66 C67 1.413 . S
C66 C68 1.360 . S
C67 C66 1.413 . S
C67 C71 1.429 . S
C68 C66 1.360 . S
C68 C69 1.372 . S
C69 H64 0.928 . S
C69 C68 1.372 . S
C69 C70 1.404 . S
C70 C69 1.404 . S
C70 C71 1.391 . S
C71 H65 0.930 . S
C71 C67 1.429 . S
C71 C70 1.391 . S
O72 Zn73 1.953 . S
O72 C88 1.225 1_655 S
Zn73 O72 1.953 . S
Zn73 O74 1.949 1_655 S
Zn73 O80 1.919 . S
Zn73 O85 1.924 . S
O74 Zn73 1.949 1_455 S
O74 Zn75 1.923 1_445 S
O74 Zn76 1.950 . S
O74 Zn77 1.945 1_545 S
Zn75 O74 1.923 1_665 S
Zn75 O78 1.933 . S
Zn75 O81 1.941 1_565 S
Zn75 O82 1.965 1_665 S
Zn76 O74 1.950 . S
Zn76 O83 1.938 . S
Zn76 O84 1.891 1_545 S
Zn76 O94 1.953 . S
Zn77 O74 1.945 1_565 S
Zn77 O79 1.932 1_455 S
Zn77 O86 1.977 . S
Zn77 O87 1.910 1_455 S
O78 Zn75 1.933 . S
O78 C89 1.226 . S
O79 Zn77 1.932 1_655 S
O79 C89 1.307 . S
O80 Zn73 1.919 . S
O80 C91 1.253 . S
O81 Zn75 1.941 1_545 S
O81 C91 1.283 . S
O82 Zn75 1.965 1_445 S
O82 C90 1.303 . S
O83 Zn76 1.938 . S
O83 C90 1.247 . S
O84 Zn76 1.891 1_565 S
O84 C92 1.327 . S
O85 Zn73 1.924 . S
O85 C93 1.311 1_545 S
O86 Zn77 1.977 . S
O86 C92 1.272 . S
O87 Zn77 1.910 1_655 S
O87 C93 1.231 . S
C88 O72 1.225 1_455 S
C88 O94 1.298 . S
C89 O78 1.226 . S
C89 O79 1.307 . S
C90 O82 1.303 . S
C90 O83 1.247 . S
C91 O80 1.253 . S
C91 O81 1.283 . S
C92 O84 1.327 . S
C92 O86 1.272 . S
C93 O85 1.311 1_565 S
C93 O87 1.231 . S
O94 Zn76 1.953 . S
O94 C88 1.298 . S
O95 Zn96 1.953 . S
O95 C111 1.225 . S
Zn96 O95 1.953 . S
Zn96 O97 1.949 1_556 S
Zn96 O103 1.919 . S
Zn96 O108 1.920 1_556 S
O97 Zn96 1.949 1_554 S
O97 Zn98 1.923 1_544 S
O97 Zn99 1.950 . S
O97 Zn100 1.945 1_545 S
Zn98 O97 1.923 1_566 S
Zn98 O101 1.933 1_556 S
Zn98 O104 1.941 . S
Zn98 O105 1.965 . S
Zn99 O97 1.950 . S
Zn99 O106 1.938 . S
Zn99 O107 1.906 . S
Zn99 O117 1.953 . S
Zn100 O97 1.945 1_565 S
Zn100 O102 1.932 . S
Zn100 O109 1.977 1_565 S
Zn100 O110 1.910 1_565 S
O101 Zn98 1.933 1_554 S
O101 C112 1.226 . S
O102 Zn100 1.932 . S
O102 C112 1.307 . S
O103 Zn96 1.919 . S
O103 C114 1.253 1_545 S
O104 Zn98 1.941 . S
O104 C114 1.283 . S
O105 Zn98 1.965 . S
O105 C113 1.303 . S
O106 Zn99 1.938 . S
O106 C113 1.247 1_544 S
O107 Zn99 1.906 . S
O107 C115 1.304 . S
O108 Zn96 1.920 1_554 S
O108 C116 1.322 . S
O109 Zn100 1.977 1_545 S
O109 C115 1.272 . S
O110 Zn100 1.910 1_545 S
O110 C116 1.231 . S
C111 O95 1.225 . S
C111 O117 1.298 1_556 S
C112 O101 1.226 . S
C112 O102 1.307 . S
C113 O105 1.303 . S
C113 O106 1.247 1_566 S
C114 O103 1.253 1_565 S
C114 O104 1.283 . S
C115 O107 1.304 . S
C115 O109 1.272 . S
C116 O108 1.322 . S
C116 O110 1.231 . S
O117 Zn99 1.953 . S
O117 C111 1.298 1_554 S
O118 Zn119 1.953 . S
O118 C134 1.225 . S
Zn119 O118 1.953 . S
Zn119 O120 1.949 . S
Zn119 O126 1.919 . S
Zn119 O131 1.924 . S
O120 Zn119 1.949 . S
O120 Zn121 1.923 . S
O120 Zn122 1.950 . S
O120 Zn123 1.945 . S
Zn121 O120 1.923 . S
Zn121 O124 1.933 . S
Zn121 O127 1.941 . S
Zn121 O128 1.965 . S
Zn122 O120 1.950 . S
Zn122 O129 1.938 . S
Zn122 O130 1.906 . S
Zn122 O140 1.953 . S
Zn123 O120 1.945 . S
Zn123 O125 1.932 . S
Zn123 O132 1.977 . S
Zn123 O133 1.910 . S
O124 Zn121 1.933 . S
O124 C135 1.226 . S
O125 Zn123 1.932 . S
O125 C135 1.307 . S
O126 Zn119 1.919 . S
O126 C137 1.253 . S
O127 Zn121 1.941 . S
O127 C137 1.283 . S
O128 Zn121 1.965 . S
O128 C136 1.303 . S
O129 Zn122 1.938 . S
O129 C136 1.247 . S
O130 Zn122 1.906 . S
O130 C138 1.304 . S
O131 Zn119 1.924 . S
O131 C139 1.311 . S
O132 Zn123 1.977 . S
O132 C138 1.272 . S
O133 Zn123 1.910 . S
O133 C139 1.231 . S
C134 O118 1.225 . S
C134 O140 1.298 . S
C135 O124 1.226 . S
C135 O125 1.307 . S
C136 O128 1.303 . S
C136 O129 1.247 . S
C137 O126 1.253 . S
C137 O127 1.283 . S
C138 O130 1.304 . S
C138 O132 1.272 . S
C139 O131 1.311 . S
C139 O133 1.231 . S
O140 Zn122 1.953 . S
O140 C134 1.298 . S
O141 Zn142 1.953 . S
O141 C157 1.225 . S
Zn142 O141 1.953 . S
Zn142 O143 1.949 1_655 S
Zn142 O149 1.919 . S
Zn142 O154 1.924 . S
O143 Zn142 1.949 1_455 S
O143 Zn144 1.923 1_454 S
O143 Zn145 1.950 . S
O143 Zn146 1.945 1_554 S
Zn144 O143 1.923 1_656 S
Zn144 O147 1.933 1_655 S
Zn144 O150 1.941 . S
Zn144 O151 1.965 . S
Zn145 O143 1.950 . S
Zn145 O152 1.938 . S
Zn145 O153 1.906 . S
Zn145 O163 1.953 . S
Zn146 O143 1.945 1_556 S
Zn146 O148 1.932 . S
Zn146 O155 1.977 1_556 S
Zn146 O156 1.910 1_556 S
O147 Zn144 1.933 1_455 S
O147 C158 1.226 . S
O148 Zn146 1.932 . S
O148 C158 1.307 . S
O149 Zn142 1.919 . S
O149 C160 1.253 1_554 S
O150 Zn144 1.941 . S
O150 C160 1.283 . S
O151 Zn144 1.965 . S
O151 C159 1.303 . S
O152 Zn145 1.938 . S
O152 C159 1.247 1_454 S
O153 Zn145 1.906 . S
O153 C161 1.304 . S
O154 Zn142 1.924 . S
O154 C162 1.311 1_655 S
O155 Zn146 1.977 1_554 S
O155 C161 1.272 . S
O156 Zn146 1.910 1_554 S
O156 C162 1.231 . S
C157 O141 1.225 . S
C157 O163 1.298 1_655 S
C158 O147 1.226 . S
C158 O148 1.307 . S
C159 O151 1.303 . S
C159 O152 1.247 1_656 S
C160 O149 1.253 1_556 S
C160 O150 1.283 . S
C161 O153 1.304 . S
C161 O155 1.272 . S
C162 O154 1.311 1_455 S
C162 O156 1.231 . S
O163 Zn145 1.953 . S
O163 C157 1.298 1_455 S
H164 C170 0.930 . S
H165 C174 0.930 . S
H166 C179 0.929 . S
H167 C177 0.929 . S
H168 C172 0.929 . S
H169 C178 0.929 . S
C170 H164 0.930 . S
C170 C171 1.367 . S
C170 C178 1.378 . S
C171 C170 1.367 . S
C171 C179 1.433 . S
C172 H168 0.929 . S
C172 C174 1.378 . S
C172 C176 1.350 . S
C173 C176 1.463 . S
C173 C178 1.350 . S
C173 N181 1.427 . S
C174 H165 0.930 . S
C174 C172 1.378 . S
C174 C175 1.367 . S
C175 C174 1.367 . S
C175 C177 1.433 . S
C176 C172 1.350 . S
C176 C173 1.463 . S
C176 N180 1.427 . S
C177 H167 0.929 . S
C177 C175 1.433 . S
C177 N180 1.384 . S
C178 H169 0.929 . S
C178 C170 1.378 . S
C178 C173 1.350 . S
C179 H166 0.929 . S
C179 C171 1.433 . S
C179 N181 1.384 . S
N180 C176 1.427 . S
N180 C177 1.384 . S
N181 C173 1.427 . S
N181 C179 1.384 . S
H182 C188 0.930 . S
H183 C192 0.930 . S
H184 C197 0.929 . S
H185 C195 0.929 1_545 S
H186 C190 0.929 . S
H187 C196 0.929 . S
C188 H182 0.930 . S
C188 C189 1.367 . S
C188 C196 1.378 . S
C189 C188 1.367 . S
C189 C197 1.433 . S
C190 H186 0.929 . S
C190 C192 1.378 . S
C190 C194 1.350 . S
C191 C194 1.463 . S
C191 C196 1.350 . S
C191 N199 1.427 . S
C192 H183 0.930 . S
C192 C190 1.378 . S
C192 C193 1.367 . S
C193 C192 1.367 . S
C193 C195 1.433 . S
C194 C190 1.350 . S
C194 C191 1.463 . S
C194 N198 1.427 . S
C195 H185 0.929 1_565 S
C195 C193 1.433 . S
C195 N198 1.384 . S
C196 H187 0.929 . S
C196 C188 1.378 . S
C196 C191 1.350 . S
C197 H184 0.929 . S
C197 C189 1.433 . S
C197 N199 1.384 . S
N198 C194 1.427 . S
N198 C195 1.384 . S
N199 C191 1.427 . S
N199 C197 1.384 . S
H200 C206 0.930 . S
H201 C210 0.930 . S
H202 C215 0.929 . S
H203 C213 0.929 . S
H204 C208 0.929 . S
H205 C214 0.929 . S
C206 H200 0.930 . S
C206 C207 1.367 . S
C206 C214 1.378 . S
C207 C206 1.367 . S
C207 C215 1.433 . S
C208 H204 0.929 . S
C208 C210 1.378 . S
C208 C212 1.350 . S
C209 C212 1.463 . S
C209 C214 1.350 . S
C209 N217 1.427 . S
C210 H201 0.930 . S
C210 C208 1.378 . S
C210 C211 1.367 . S
C211 C210 1.367 . S
C211 C213 1.433 . S
C212 C208 1.350 . S
C212 C209 1.463 . S
C212 N216 1.427 . S
C213 H203 0.929 . S
C213 C211 1.433 . S
C213 N216 1.384 . S
C214 H205 0.929 . S
C214 C206 1.378 . S
C214 C209 1.350 . S
C215 H202 0.929 . S
C215 C207 1.433 . S
C215 N217 1.384 . S
N216 C212 1.427 . S
N216 C213 1.384 . S
N217 C209 1.427 . S
N217 C215 1.384 . S
H218 C224 0.930 . S
H219 C228 0.930 1_455 S
H220 C233 0.929 . S
H221 C231 0.929 . S
H222 C226 0.926 1_455 S
H223 C232 0.929 . S
C224 H218 0.930 . S
C224 C225 1.367 . S
C224 C232 1.378 . S
C225 C224 1.367 . S
C225 C233 1.433 . S
C226 H222 0.926 1_655 S
C226 C228 1.378 . S
C226 C230 1.350 . S
C227 C230 1.463 . S
C227 C232 1.350 . S
C227 N235 1.427 . S
C228 H219 0.930 1_655 S
C228 C226 1.378 . S
C228 C229 1.367 . S
C229 C228 1.367 . S
C229 C231 1.433 . S
C230 C226 1.350 . S
C230 C227 1.463 . S
C230 N234 1.427 . S
C231 H221 0.929 . S
C231 C229 1.433 . S
C231 N234 1.384 . S
C232 H223 0.929 . S
C232 C224 1.378 . S
C232 C227 1.350 . S
C233 H220 0.929 . S
C233 C225 1.433 . S
C233 N235 1.384 . S
N234 C230 1.427 . S
N234 C231 1.384 . S
N235 C227 1.427 . S
N235 C233 1.384 . S
H236 C242 0.930 . S
H237 C246 0.930 . S
H238 C251 0.929 . S
H239 C249 0.929 . S
H240 C244 0.929 . S
H241 C250 0.929 . S
C242 H236 0.930 . S
C242 C243 1.367 . S
C242 C250 1.378 . S
C243 C242 1.367 . S
C243 C251 1.433 . S
C244 H240 0.929 . S
C244 C246 1.378 . S
C244 C248 1.350 . S
C245 C248 1.463 . S
C245 C250 1.350 . S
C245 N253 1.427 . S
C246 H237 0.930 . S
C246 C244 1.378 . S
C246 C247 1.367 . S
C247 C246 1.367 . S
C247 C249 1.433 . S
C248 C244 1.350 . S
C248 C245 1.463 . S
C248 N252 1.427 . S
C249 H239 0.929 . S
C249 C247 1.433 . S
C249 N252 1.384 . S
C250 H241 0.929 . S
C250 C242 1.378 . S
C250 C245 1.350 . S
C251 H238 0.929 . S
C251 C243 1.433 . S
C251 N253 1.384 . S
N252 C248 1.427 . S
N252 C249 1.384 . S
N253 C245 1.427 . S
N253 C251 1.384 . S
H254 C260 0.930 . S
H255 C264 0.930 . S
H256 C269 0.929 . S
H257 C267 0.929 . S
H258 C262 0.929 . S
H259 C268 0.929 . S
C260 H254 0.930 . S
C260 C261 1.367 . S
C260 C268 1.378 . S
C261 C260 1.367 . S
C261 C269 1.433 . S
C262 H258 0.929 . S
C262 C264 1.378 . S
C262 C266 1.350 . S
C263 C266 1.463 . S
C263 C268 1.350 . S
C263 N271 1.427 . S
C264 H255 0.930 . S
C264 C262 1.378 . S
C264 C265 1.367 . S
C265 C264 1.367 . S
C265 C267 1.433 . S
C266 C262 1.350 . S
C266 C263 1.463 . S
C266 N270 1.427 . S
C267 H257 0.929 . S
C267 C265 1.433 . S
C267 N270 1.384 . S
C268 H259 0.929 . S
C268 C260 1.378 . S
C268 C263 1.350 . S
C269 H256 0.929 . S
C269 C261 1.433 . S
C269 N271 1.384 . S
N270 C266 1.427 . S
N270 C267 1.384 . S
N271 C263 1.427 . S
N271 C269 1.384 . S
H272 C278 0.930 . S
H273 C282 0.930 . S
H274 C287 0.929 . S
H275 C285 0.929 . S
H276 C280 0.929 . S
H277 C286 0.929 . S
C278 H272 0.930 . S
C278 C279 1.367 . S
C278 C286 1.378 . S
C279 C278 1.367 . S
C279 C287 1.433 . S
C280 H276 0.929 . S
C280 C282 1.378 . S
C280 C284 1.350 . S
C281 C284 1.463 . S
C281 C286 1.350 . S
C281 N289 1.427 . S
C282 H273 0.930 . S
C282 C280 1.378 . S
C282 C283 1.367 . S
C283 C282 1.367 . S
C283 C285 1.433 . S
C284 C280 1.350 . S
C284 C281 1.463 . S
C284 N288 1.427 . S
C285 H275 0.929 . S
C285 C283 1.433 . S
C285 N288 1.384 . S
C286 H277 0.929 . S
C286 C278 1.378 . S
C286 C281 1.350 . S
C287 H274 0.929 . S
C287 C279 1.433 . S
C287 N289 1.384 . S
N288 C284 1.427 . S
N288 C285 1.384 . S
N289 C281 1.427 . S
N289 C287 1.384 . S
H290 C296 0.930 . S
H291 C300 0.930 . S
H292 C305 0.929 . S
H293 C303 0.929 . S
H294 C298 0.929 . S
H295 C304 0.929 . S
C296 H290 0.930 . S
C296 C297 1.367 . S
C296 C304 1.378 . S
C297 C296 1.367 . S
C297 C305 1.433 . S
C298 H294 0.929 . S
C298 C300 1.378 . S
C298 C302 1.350 . S
C299 C302 1.463 . S
C299 C304 1.350 . S
C299 N307 1.427 . S
C300 H291 0.930 . S
C300 C298 1.378 . S
C300 C301 1.367 . S
C301 C300 1.367 . S
C301 C303 1.433 . S
C302 C298 1.350 . S
C302 C299 1.463 . S
C302 N306 1.427 . S
C303 H293 0.929 . S
C303 C301 1.433 . S
C303 N306 1.384 . S
C304 H295 0.929 . S
C304 C296 1.378 . S
C304 C299 1.350 . S
C305 H292 0.929 . S
C305 C297 1.433 . S
C305 N307 1.384 . S
N306 C302 1.427 . S
N306 C303 1.384 . S
N307 C299 1.427 . S
N307 C305 1.384 . S
H308 C314 0.930 . S
H309 C318 0.930 . S
H310 C323 0.929 . S
H311 C321 0.929 . S
H312 C316 0.929 . S
H313 C322 0.929 . S
C314 H308 0.930 . S
C314 C315 1.367 . S
C314 C322 1.378 . S
C315 C314 1.367 . S
C315 C323 1.433 . S
C316 H312 0.929 . S
C316 C318 1.378 . S
C316 C320 1.350 . S
C317 C320 1.463 . S
C317 C322 1.350 . S
C317 N325 1.427 . S
C318 H309 0.930 . S
C318 C316 1.378 . S
C318 C319 1.367 . S
C319 C318 1.367 . S
C319 C321 1.433 . S
C320 C316 1.350 . S
C320 C317 1.463 . S
C320 N324 1.427 . S
C321 H311 0.929 . S
C321 C319 1.433 . S
C321 N324 1.384 . S
C322 H313 0.929 . S
C322 C314 1.378 . S
C322 C317 1.350 . S
C323 H310 0.929 . S
C323 C315 1.433 . S
C323 N325 1.384 . S
N324 C320 1.427 . S
N324 C321 1.384 . S
N325 C317 1.427 . S
N325 C323 1.384 . S
H326 C332 0.930 . S
H327 C336 0.930 . S
H328 C341 0.929 . S
H329 C339 0.929 1_554 S
H330 C334 0.929 . S
H331 C340 0.929 . S
C332 H326 0.930 . S
C332 C333 1.367 . S
C332 C340 1.378 . S
C333 C332 1.367 . S
C333 C341 1.433 . S
C334 H330 0.929 . S
C334 C336 1.378 . S
C334 C338 1.350 . S
C335 C338 1.463 . S
C335 C340 1.350 . S
C335 N343 1.427 . S
C336 H327 0.930 . S
C336 C334 1.378 . S
C336 C337 1.367 . S
C337 C336 1.367 . S
C337 C339 1.433 . S
C338 C334 1.350 . S
C338 C335 1.463 . S
C338 N342 1.427 . S
C339 H329 0.929 1_556 S
C339 C337 1.433 . S
C339 N342 1.384 . S
C340 H331 0.929 . S
C340 C332 1.378 . S
C340 C335 1.350 . S
C341 H328 0.929 . S
C341 C333 1.433 . S
C341 N343 1.384 . S
N342 C338 1.427 . S
N342 C339 1.384 . S
N343 C335 1.427 . S
N343 C341 1.384 . S
H344 C350 0.930 . S
H345 C354 0.930 . S
H346 C359 0.929 . S
H347 C357 0.929 . S
H348 C352 0.929 . S
H349 C358 0.929 . S
C350 H344 0.930 . S
C350 C351 1.367 . S
C350 C358 1.378 . S
C351 C350 1.367 . S
C351 C359 1.433 . S
C352 H348 0.929 . S
C352 C354 1.378 . S
C352 C356 1.350 . S
C353 C356 1.463 . S
C353 C358 1.350 . S
C353 N361 1.427 . S
C354 H345 0.930 . S
C354 C352 1.378 . S
C354 C355 1.367 . S
C355 C354 1.367 . S
C355 C357 1.433 . S
C356 C352 1.350 . S
C356 C353 1.463 . S
C356 N360 1.427 . S
C357 H347 0.929 . S
C357 C355 1.433 . S
C357 N360 1.384 . S
C358 H349 0.929 . S
C358 C350 1.378 . S
C358 C353 1.350 . S
C359 H346 0.929 . S
C359 C351 1.433 . S
C359 N361 1.384 . S
N360 C356 1.427 . S
N360 C357 1.384 . S
N361 C353 1.427 . S
N361 C359 1.384 . S
H362 C368 0.930 . S
H363 C372 0.930 . S
H364 C377 0.929 . S
H365 C375 0.929 . S
H366 C370 0.929 . S
H367 C376 0.929 . S
C368 H362 0.930 . S
C368 C369 1.367 . S
C368 C376 1.378 . S
C369 C368 1.367 . S
C369 C377 1.433 . S
C370 H366 0.929 . S
C370 C372 1.378 . S
C370 C374 1.350 . S
C371 C374 1.463 . S
C371 C376 1.350 . S
C371 N379 1.427 . S
C372 H363 0.930 . S
C372 C370 1.378 . S
C372 C373 1.367 . S
C373 C372 1.367 . S
C373 C375 1.433 . S
C374 C370 1.350 . S
C374 C371 1.463 . S
C374 N378 1.427 . S
C375 H365 0.929 . S
C375 C373 1.433 . S
C375 N378 1.384 . S
C376 H367 0.929 . S
C376 C368 1.378 . S
C376 C371 1.350 . S
C377 H364 0.929 . S
C377 C369 1.433 . S
C377 N379 1.384 . S
N378 C374 1.427 . S
N378 C375 1.384 . S
N379 C371 1.427 . S
N379 C377 1.384 . S
H380 C386 0.930 . S
H381 C390 0.930 . S
H382 C395 0.929 . S
H383 C393 0.929 1_455 S
H384 C388 0.929 . S
H385 C394 0.929 1_545 S
C386 H380 0.930 . S
C386 C387 1.367 . S
C386 C394 1.378 . S
C387 C386 1.367 . S
C387 C395 1.433 . S
C388 H384 0.929 . S
C388 C390 1.378 . S
C388 C392 1.350 . S
C389 C392 1.463 . S
C389 C394 1.350 . S
C389 N397 1.427 . S
C390 H381 0.930 . S
C390 C388 1.378 . S
C390 C391 1.367 . S
C391 C390 1.367 . S
C391 C393 1.433 1_565 S
C392 C388 1.350 . S
C392 C389 1.463 . S
C392 N396 1.427 1_565 S
C393 H383 0.929 1_655 S
C393 C391 1.433 1_545 S
C393 N396 1.384 . S
C394 H385 0.929 1_565 S
C394 C386 1.378 . S
C394 C389 1.350 . S
C395 H382 0.929 . S
C395 C387 1.433 . S
C395 N397 1.384 . S
N396 C392 1.427 1_545 S
N396 C393 1.384 . S
N397 C389 1.427 . S
N397 C395 1.384 . S
H398 C404 0.930 . S
H399 C408 0.930 . S
H400 C413 0.929 . S
H401 C411 0.942 . S
H402 C406 0.929 . S
H403 C412 0.929 . S
C404 H398 0.930 . S
C404 C405 1.367 . S
C404 C412 1.378 . S
C405 C404 1.367 . S
C405 C413 1.433 . S
C406 H402 0.929 . S
C406 C408 1.378 . S
C406 C410 1.350 . S
C407 C410 1.463 . S
C407 C412 1.350 . S
C407 N415 1.427 . S
C408 H399 0.930 . S
C408 C406 1.378 . S
C408 C409 1.367 . S
C409 C408 1.367 . S
C409 C411 1.424 1_545 S
C410 C406 1.350 . S
C410 C407 1.463 . S
C410 N414 1.427 . S
C411 H401 0.942 . S
C411 C409 1.424 1_565 S
C411 N414 1.380 1_565 S
C412 H403 0.929 . S
C412 C404 1.378 . S
C412 C407 1.350 . S
C413 H400 0.929 . S
C413 C405 1.433 . S
C413 N415 1.384 . S
N414 C410 1.427 . S
N414 C411 1.380 1_545 S
N415 C407 1.427 . S
N415 C413 1.384 . S
H416 C422 0.930 . S
H417 C426 0.930 . S
H418 C431 0.929 . S
H419 C429 0.929 . S
H420 C424 0.929 . S
H421 C430 0.929 . S
C422 H416 0.930 . S
C422 C423 1.367 . S
C422 C430 1.378 . S
C423 C422 1.367 . S
C423 C431 1.433 . S
C424 H420 0.929 . S
C424 C426 1.378 . S
C424 C428 1.350 . S
C425 C428 1.463 . S
C425 C430 1.350 . S
C425 N433 1.427 . S
C426 H417 0.930 . S
C426 C424 1.378 . S
C426 C427 1.367 . S
C427 C426 1.367 . S
C427 C429 1.433 . S
C428 C424 1.350 . S
C428 C425 1.463 . S
C428 N432 1.427 . S
C429 H419 0.929 . S
C429 C427 1.433 . S
C429 N432 1.384 . S
C430 H421 0.929 . S
C430 C422 1.378 . S
C430 C425 1.350 . S
C431 H418 0.929 . S
C431 C423 1.433 . S
C431 N433 1.384 . S
N432 C428 1.427 . S
N432 C429 1.384 . S
N433 C425 1.427 . S
N433 C431 1.384 . S
H434 C440 0.930 . S
H435 C444 0.930 . S
H436 C449 0.929 . S
H437 C447 0.929 . S
H438 C442 0.929 . S
H439 C448 0.929 . S
C440 H434 0.930 . S
C440 C441 1.367 . S
C440 C448 1.378 . S
C441 C440 1.367 . S
C441 C449 1.433 . S
C442 H438 0.929 . S
C442 C444 1.378 . S
C442 C446 1.350 . S
C443 C446 1.463 . S
C443 C448 1.350 . S
C443 N451 1.427 . S
C444 H435 0.930 . S
C444 C442 1.378 . S
C444 C445 1.367 . S
C445 C444 1.367 . S
C445 C447 1.433 . S
C446 C442 1.350 . S
C446 C443 1.463 . S
C446 N450 1.427 . S
C447 H437 0.929 . S
C447 C445 1.433 . S
C447 N450 1.384 . S
C448 H439 0.929 . S
C448 C440 1.378 . S
C448 C443 1.350 . S
C449 H436 0.929 . S
C449 C441 1.433 . S
C449 N451 1.384 . S
N450 C446 1.427 . S
N450 C447 1.384 . S
N451 C443 1.427 . S
N451 C449 1.384 . S
H452 C458 0.930 . S
H453 C462 0.930 1_545 S
H454 C467 0.929 . S
H455 C465 0.929 . S
H456 C460 0.929 . S
H457 C466 0.929 1_554 S
C458 H452 0.930 . S
C458 C459 1.367 . S
C458 C466 1.378 . S
C459 C458 1.367 . S
C459 C467 1.433 . S
C460 H456 0.929 . S
C460 C462 1.378 . S
C460 C464 1.350 . S
C461 C464 1.463 . S
C461 C466 1.350 . S
C461 N469 1.427 . S
C462 H453 0.930 1_565 S
C462 C460 1.378 . S
C462 C463 1.367 . S
C463 C462 1.367 . S
C463 C465 1.433 1_556 S
C464 C460 1.350 . S
C464 C461 1.463 . S
C464 N468 1.427 . S
C465 H455 0.929 . S
C465 C463 1.433 1_554 S
C465 N468 1.384 1_554 S
C466 H457 0.929 1_556 S
C466 C458 1.378 . S
C466 C461 1.350 . S
C467 H454 0.929 . S
C467 C459 1.433 . S
C467 N469 1.384 . S
N468 C464 1.427 . S
N468 C465 1.384 1_556 S
N469 C461 1.427 . S
N469 C467 1.384 . S
H470 C476 0.930 . S
H471 C480 0.923 1_565 S
H472 C485 0.929 . S
H473 C483 0.929 . S
H474 C478 0.929 1_565 S
H475 C484 0.929 . S
C476 H470 0.930 . S
C476 C477 1.367 . S
C476 C484 1.378 . S
C477 C476 1.367 . S
C477 C485 1.433 . S
C478 H474 0.929 1_545 S
C478 C480 1.379 . S
C478 C482 1.350 . S
C479 C482 1.463 . S
C479 C484 1.350 . S
C479 N487 1.427 . S
C480 H471 0.923 1_545 S
C480 C478 1.379 . S
C480 C481 1.372 . S
C481 C480 1.372 . S
C481 C483 1.433 . S
C482 C478 1.350 . S
C482 C479 1.463 . S
C482 N486 1.427 . S
C483 H473 0.929 . S
C483 C481 1.433 . S
C483 N486 1.384 . S
C484 H475 0.929 . S
C484 C476 1.378 . S
C484 C479 1.350 . S
C485 H472 0.929 . S
C485 C477 1.433 . S
C485 N487 1.384 . S
N486 C482 1.427 . S
N486 C483 1.384 . S
N487 C479 1.427 . S
N487 C485 1.384 . S
H488 C494 0.930 . S
H489 C498 0.930 . S
H490 C503 0.929 . S
H491 C501 0.929 1_556 S
H492 C496 0.929 . S
H493 C502 0.929 . S
C494 H488 0.930 . S
C494 C495 1.367 . S
C494 C502 1.378 . S
C495 C494 1.367 . S
C495 C503 1.433 . S
C496 H492 0.929 . S
C496 C498 1.378 . S
C496 C500 1.350 . S
C497 C500 1.463 . S
C497 C502 1.350 . S
C497 N505 1.427 . S
C498 H489 0.930 . S
C498 C496 1.378 . S
C498 C499 1.367 . S
C499 C498 1.367 . S
C499 C501 1.433 . S
C500 C496 1.350 . S
C500 C497 1.463 . S
C500 N504 1.427 . S
C501 H491 0.929 1_554 S
C501 C499 1.433 . S
C501 N504 1.384 . S
C502 H493 0.929 . S
C502 C494 1.378 . S
C502 C497 1.350 . S
C503 H490 0.929 . S
C503 C495 1.433 . S
C503 N505 1.384 . S
N504 C500 1.427 . S
N504 C501 1.384 . S
N505 C497 1.427 . S
N505 C503 1.384 . S
H506 C512 0.930 . S
H507 C516 0.930 . S
H508 C521 0.929 . S
H509 C519 0.929 . S
H510 C514 0.929 . S
H511 C520 0.929 . S
C512 H506 0.930 . S
C512 C513 1.367 . S
C512 C520 1.378 . S
C513 C512 1.367 . S
C513 C521 1.433 . S
C514 H510 0.929 . S
C514 C516 1.378 . S
C514 C518 1.350 . S
C515 C518 1.463 . S
C515 C520 1.350 . S
C515 N523 1.427 . S
C516 H507 0.930 . S
C516 C514 1.378 . S
C516 C517 1.367 . S
C517 C516 1.367 . S
C517 C519 1.433 . S
C518 C514 1.350 . S
C518 C515 1.463 . S
C518 N522 1.427 . S
C519 H509 0.929 . S
C519 C517 1.433 . S
C519 N522 1.384 . S
C520 H511 0.929 . S
C520 C512 1.378 . S
C520 C515 1.350 . S
C521 H508 0.929 . S
C521 C513 1.433 . S
C521 N523 1.384 . S
N522 C518 1.427 . S
N522 C519 1.384 . S
N523 C515 1.427 . S
N523 C521 1.384 . S
H524 C530 0.930 . S
H525 C534 0.930 . S
H526 C539 0.929 . S
H527 C537 0.929 . S
H528 C532 0.929 . S
H529 C538 0.929 1_554 S
C530 H524 0.930 . S
C530 C531 1.367 . S
C530 C538 1.378 . S
C531 C530 1.367 . S
C531 C539 1.433 . S
C532 H528 0.929 . S
C532 C534 1.378 . S
C532 C536 1.350 . S
C533 C536 1.463 . S
C533 C538 1.350 . S
C533 N541 1.427 . S
C534 H525 0.930 . S
C534 C532 1.378 . S
C534 C535 1.367 . S
C535 C534 1.367 . S
C535 C537 1.433 1_556 S
C536 C532 1.350 . S
C536 C533 1.463 . S
C536 N540 1.421 1_556 S
C537 H527 0.929 . S
C537 C535 1.433 1_554 S
C537 N540 1.385 . S
C538 H529 0.929 1_556 S
C538 C530 1.378 . S
C538 C533 1.350 . S
C539 H526 0.929 . S
C539 C531 1.433 . S
C539 N541 1.384 . S
N540 C536 1.421 1_554 S
N540 C537 1.385 . S
N541 C533 1.427 . S
N541 C539 1.384 . S
H542 C548 0.930 . S
H543 C552 0.930 . S
H544 C557 0.929 . S
H545 C555 0.925 1_556 S
H546 C550 0.929 . S
H547 C556 0.929 . S
C548 H542 0.930 . S
C548 C549 1.367 . S
C548 C556 1.378 . S
C549 C548 1.367 . S
C549 C557 1.433 . S
C550 H546 0.929 . S
C550 C552 1.378 . S
C550 C554 1.350 . S
C551 C554 1.463 . S
C551 C556 1.350 . S
C551 N559 1.427 . S
C552 H543 0.930 . S
C552 C550 1.378 . S
C552 C553 1.367 . S
C553 C552 1.367 . S
C553 C555 1.433 . S
C554 C550 1.350 . S
C554 C551 1.463 . S
C554 N558 1.427 . S
C555 H545 0.925 1_554 S
C555 C553 1.433 . S
C555 N558 1.384 . S
C556 H547 0.929 . S
C556 C548 1.378 . S
C556 C551 1.350 . S
C557 H544 0.929 . S
C557 C549 1.433 . S
C557 N559 1.384 . S
N558 C554 1.427 . S
N558 C555 1.384 . S
N559 C551 1.427 . S
N559 C557 1.384 . S
H560 C566 0.930 . S
H561 C570 0.930 . S
H562 C575 0.929 . S
H563 C573 0.929 . S
H564 C568 0.929 . S
H565 C574 0.929 . S
C566 H560 0.930 . S
C566 C567 1.367 . S
C566 C574 1.378 . S
C567 C566 1.367 . S
C567 C575 1.433 . S
C568 H564 0.929 . S
C568 C570 1.378 . S
C568 C572 1.350 . S
C569 C572 1.463 . S
C569 C574 1.350 . S
C569 N577 1.427 . S
C570 H561 0.930 . S
C570 C568 1.378 . S
C570 C571 1.367 . S
C571 C570 1.367 . S
C571 C573 1.433 . S
C572 C568 1.350 . S
C572 C569 1.463 . S
C572 N576 1.427 . S
C573 H563 0.929 . S
C573 C571 1.433 . S
C573 N576 1.384 . S
C574 H565 0.929 . S
C574 C566 1.378 . S
C574 C569 1.350 . S
C575 H562 0.929 . S
C575 C567 1.433 . S
C575 N577 1.384 . S
N576 C572 1.427 . S
N576 C573 1.384 . S
N577 C569 1.427 . S
N577 C575 1.384 . S
H578 C584 0.930 . S
H579 C588 0.930 . S
H580 C593 0.929 . S
H581 C591 0.929 . S
H582 C586 0.929 . S
H583 C592 0.929 . S
C584 H578 0.930 . S
C584 C585 1.367 . S
C584 C592 1.378 . S
C585 C584 1.367 . S
C585 C593 1.433 . S
C586 H582 0.929 . S
C586 C588 1.378 . S
C586 C590 1.350 . S
C587 C590 1.463 . S
C587 C592 1.350 . S
C587 N595 1.427 . S
C588 H579 0.930 . S
C588 C586 1.378 . S
C588 C589 1.367 . S
C589 C588 1.367 . S
C589 C591 1.433 . S
C590 C586 1.350 . S
C590 C587 1.463 . S
C590 N594 1.427 . S
C591 H581 0.929 . S
C591 C589 1.433 . S
C591 N594 1.384 . S
C592 H583 0.929 . S
C592 C584 1.378 . S
C592 C587 1.350 . S
C593 H580 0.929 . S
C593 C585 1.433 . S
C593 N595 1.384 . S
N594 C590 1.427 . S
N594 C591 1.384 . S
N595 C587 1.427 . S
N595 C593 1.384 . S
C171 C5 1.577 . S
C175 C90 1.562 . S
C189 C14 1.562 . S
C193 C114 1.539 . S
C211 C134 1.401 . S
C207 C25 1.393 . S
C225 C34 1.397 . S
C229 C157 1.409 . S
C247 C116 1.622 . S
C243 C7 1.658 . S
C265 C92 1.621 . S
C261 C13 1.662 . S
C283 C160 1.519 . S
C279 C23 1.553 . S
C301 C137 1.496 . S
C297 C31 1.531 . S
C315 C4 1.425 . S
C319 C162 1.395 . S
C337 C111 1.577 . S
C333 C22 1.574 . S
C351 C32 1.571 . S
C355 C89 1.577 . S
C369 C16 1.403 . S
C373 C139 1.372 . S
C391 C93 1.552 . S
C387 C41 1.565 . S
C405 C50 1.551 . S
C409 C115 1.526 . S
C423 C61 1.644 . S
C427 C135 1.662 . S
C441 C67 1.654 . S
C445 C158 1.672 . S
C459 C40 1.494 . S
C463 C113 1.480 . S
C481 C91 1.480 . S
C477 C52 1.472 . S
C499 C161 1.433 . S
C495 C59 1.475 . S
C517 C138 1.453 . S
C513 C70 1.495 . S
C531 C43 1.745 . S
C535 C159 1.715 . S
C553 C112 1.500 . S
C549 C58 1.483 . S
C571 C88 1.497 . S
C567 C68 1.477 . S
C585 C49 1.730 . S
C589 C136 1.708 . S
