# Generated by pormake.
# Topology anh, (6,3)-cn, num edge types: 1
# Building blocks:
#     Node 0, Type 0, BuildingBlock: GEDQOX_clean_sbu_0, # of connection points: 6
#     Node 1, Type 0, BuildingBlock: GEDQOX_clean_sbu_0, # of connection points: 6
#     Node 2, Type 0, BuildingBlock: GEDQOX_clean_sbu_0, # of connection points: 6
#     Node 3, Type 1, BuildingBlock: BELTOD_clean_linker_0, # of connection points: 3
#     Node 4, Type 1, BuildingBlock: BELTOD_clean_linker_0, # of connection points: 3
#     Node 5, Type 1, BuildingBlock: BELTOD_clean_linker_0, # of connection points: 3
#     Node 6, Type 1, BuildingBlock: BELTOD_clean_linker_0, # of connection points: 3
#     Node 7, Type 1, BuildingBlock: BELTOD_clean_linker_0, # of connection points: 3
#     Node 8, Type 1, BuildingBlock: BELTOD_clean_linker_0, # of connection points: 3
#     Edge 9, Type (0, 1), BuildingBlock: UVAHIK_clean_linker_0, # of connection points: 2
#     Edge 10, Type (0, 1), BuildingBlock: UVAHIK_clean_linker_0, # of connection points: 2
#     Edge 11, Type (0, 1), BuildingBlock: UVAHIK_clean_linker_0, # of connection points: 2
#     Edge 12, Type (0, 1), BuildingBlock: UVAHIK_clean_linker_0, # of connection points: 2
#     Edge 13, Type (0, 1), BuildingBlock: UVAHIK_clean_linker_0, # of connection points: 2
#     Edge 14, Type (0, 1), BuildingBlock: UVAHIK_clean_linker_0, # of connection points: 2
#     Edge 15, Type (0, 1), BuildingBlock: UVAHIK_clean_linker_0, # of connection points: 2
#     Edge 16, Type (0, 1), BuildingBlock: UVAHIK_clean_linker_0, # of connection points: 2
#     Edge 17, Type (0, 1), BuildingBlock: UVAHIK_clean_linker_0, # of connection points: 2
#     Edge 18, Type (0, 1), BuildingBlock: UVAHIK_clean_linker_0, # of connection points: 2
#     Edge 19, Type (0, 1), BuildingBlock: UVAHIK_clean_linker_0, # of connection points: 2
#     Edge 20, Type (0, 1), BuildingBlock: UVAHIK_clean_linker_0, # of connection points: 2
#     Edge 21, Type (0, 1), BuildingBlock: UVAHIK_clean_linker_0, # of connection points: 2
#     Edge 22, Type (0, 1), BuildingBlock: UVAHIK_clean_linker_0, # of connection points: 2
#     Edge 23, Type (0, 1), BuildingBlock: UVAHIK_clean_linker_0, # of connection points: 2
#     Edge 24, Type (0, 1), BuildingBlock: UVAHIK_clean_linker_0, # of connection points: 2
#     Edge 25, Type (0, 1), BuildingBlock: UVAHIK_clean_linker_0, # of connection points: 2
#     Edge 26, Type (0, 1), BuildingBlock: UVAHIK_clean_linker_0, # of connection points: 2
# Relax obj value: 0.155
# Max RMSD: 0.197
# Mean RMSD: 0.143
data_MOF--net-anh--node1-GEDQOX_clean_sbu_0--node2-BELTOD_clean_linker_0--edge1-UVAHIK_clean_linker_0
_symmetry_space_group_name_H-M    P1
_symmetry_Int_Tables_number       1
_symmetry_cell_setting            triclinic
loop_
_symmetry_equiv_pos_as_xyz
'x, y, z'
_cell_length_a     44.142179
_cell_length_b     42.363219
_cell_length_c     76.388624
_cell_angle_alpha  92.686503
_cell_angle_beta   90.833018
_cell_angle_gamma 108.94558
loop_
_atom_site_label
_atom_site_type_symbol
_atom_site_fract_x
_atom_site_fract_y
_atom_site_fract_z
_atom_type_partial_charge
Nd0 Nd 0.04983 0.54462 0.14482 0.0
Nd1 Nd 1.02754 0.46936 0.14471 0.0
C2 C 0.07789 0.60841 0.13887 0.0
C3 C 0.10926 0.63425 0.14273 0.0
C4 C 0.13811 0.62769 0.13997 0.0
C5 C 0.16752 0.65221 0.14439 0.0
C6 C 0.16863 0.68366 0.15173 0.0
C7 C 0.1397 0.6902 0.1543 0.0
C8 C 0.11033 0.66574 0.1498 0.0
C9 C 0.03956 0.52019 0.17757 0.0
C10 C 0.10474 0.50501 0.14424 0.0
C11 C 1.00032 0.40563 0.15108 0.0
C12 C 0.96873 0.38118 0.15449 0.0
C13 C 0.95016 0.38626 0.16847 0.0
C14 C 0.92155 0.36141 0.17222 0.0
C15 C 0.91093 0.33104 0.16206 0.0
C16 C 0.92909 0.32661 0.14772 0.0
C17 C 0.95771 0.35135 0.14404 0.0
C18 C 0.03862 0.49543 0.11236 0.0
C19 C 0.97283 0.50823 0.14347 0.0
O20 O 0.07704 0.58392 0.12754 0.0
O21 O 0.06005 0.59836 0.15235 0.0
O22 O 1.03257 0.54605 0.17283 0.0
O23 O 0.05299 0.50897 0.16544 0.0
O24 O 0.09813 0.53307 0.14211 0.0
O25 O 0.08161 0.47685 0.14707 0.0
O26 O 1.01346 0.429 0.16332 0.0
O27 O 1.0048 0.41637 0.13524 0.0
O28 O 0.04671 0.46989 0.11669 0.0
O29 O 1.02442 0.50512 0.12457 0.0
O30 O 0.97973 0.48156 0.14833 0.0
O31 O 0.99601 0.53504 0.13886 0.0
H32 H 0.13795 0.60354 0.13459 0.0
H33 H 0.18936 0.64628 0.14242 0.0
H34 H 0.13976 0.71431 0.15973 0.0
H35 H 0.08837 0.67133 0.15201 0.0
H36 H 0.95802 0.40909 0.17674 0.0
H37 H 0.90834 0.36558 0.18344 0.0
H38 H 0.92135 0.30384 0.13941 0.0
H39 H 0.97156 0.34691 0.13317 0.0
Nd40 Nd 0.49559 0.99249 0.51786 0.0
Nd41 Nd 0.56497 0.01417 0.50886 0.0
C42 C 0.43729 0.96296 0.52917 0.0
C43 C 0.41083 0.93259 0.52347 0.0
C44 C 0.38781 0.9164 0.53539 0.0
C45 C 0.36258 0.88754 0.52998 0.0
C46 C 0.35989 0.87455 0.51252 0.0
C47 C 0.38322 0.89077 0.50066 0.0
C48 C 0.40853 0.91942 0.50611 0.0
C49 C 0.50665 -0.00171 0.48258 0.0
C50 C 0.53162 0.93555 0.51181 0.0
C51 C 0.62097 0.04187 0.49449 0.0
C52 C 0.64505 0.07508 0.49245 0.0
C53 C 0.65258 0.08626 0.47554 0.0
C54 C 0.67652 0.11669 0.47315 0.0
C55 C 0.69365 0.13649 0.48764 0.0
C56 C 0.68574 0.12555 0.50459 0.0
C57 C 0.66163 0.0952 0.50699 0.0
C58 C 0.55494 0.00475 0.5438 0.0
C59 C 0.53048 0.07129 0.5183 0.0
O60 O 0.46289 0.9583 0.53579 0.0
O61 O 0.44408 0.98721 0.5184 0.0
O62 O 0.48459 0.00719 0.4903 0.0
O63 O 0.52071 0.98555 0.49316 0.0
O64 O 0.50834 0.94384 0.5194 0.0
O65 O 0.55487 0.95794 0.50406 0.0
O66 O 0.59351 0.03539 0.48597 0.0
O67 O 0.61796 0.02999 0.51012 0.0
O68 O 0.57675 0.99677 0.53517 0.0
O69 O 0.54023 0.01905 0.5343 0.0
O70 O 0.55316 0.06372 0.50965 0.0
O71 O 0.50733 0.04798 0.52554 0.0
H72 H 0.3893 0.92615 0.54886 0.0
H73 H 0.34488 0.8757 0.53938 0.0
H74 H 0.38211 0.88109 0.48721 0.0
H75 H 0.42631 0.93133 0.49675 0.0
H76 H 0.64029 0.07114 0.46412 0.0
H77 H 0.68228 0.12421 0.45992 0.0
H78 H 0.69828 0.14043 0.51602 0.0
H79 H 0.65631 0.08735 0.52021 0.0
Nd80 Nd 0.5013 0.47863 0.82947 0.0
Nd81 Nd 0.56708 0.50714 0.84663 0.0
C82 C 0.44984 0.46684 0.80881 0.0
C83 C 0.43076 0.48735 0.80328 0.0
C84 C 0.40958 0.47703 0.78871 0.0
C85 C 0.39074 0.4963 0.78382 0.0
C86 C 0.39306 0.52622 0.79342 0.0
C87 C 0.41513 0.53683 0.80769 0.0
C88 C 0.43375 0.51755 0.81258 0.0
C89 C 0.50261 0.47737 0.86543 0.0
C90 C 0.53137 0.55971 0.83952 0.0
C91 C 0.61978 0.51884 0.86608 0.0
C92 C 0.64698 0.50654 0.86421 0.0
C93 C 0.67368 0.51878 0.87566 0.0
C94 C 0.70117 0.51017 0.8725 0.0
C95 C 0.70229 0.48934 0.85778 0.0
C96 C 0.67487 0.47596 0.84678 0.0
C97 C 0.6474 0.4845 0.84998 0.0
C98 C 0.56653 0.50899 0.81083 0.0
C99 C 0.53701 0.42541 0.83614 0.0
O100 O 0.47893 0.47531 0.80299 0.0
O101 O 0.4486 0.46037 0.82541 0.0
O102 O 0.48379 0.45334 0.85527 0.0
O103 O 0.51852 0.50131 0.85668 0.0
O104 O 0.51284 0.53592 0.82859 0.0
O105 O 0.5512 0.55316 0.85077 0.0
O106 O 0.59253 0.49652 0.8697 0.0
O107 O 0.61683 0.53825 0.85381 0.0
O108 O 0.58563 0.53236 0.82115 0.0
O109 O 0.55026 0.48484 0.81937 0.0
O110 O 0.55857 0.45001 0.84533 0.0
O111 O 0.51359 0.43053 0.82707 0.0
H112 H 0.40725 0.45387 0.78131 0.0
H113 H 0.37403 0.48758 0.77274 0.0
H114 H 0.41707 0.55934 0.81561 0.0
H115 H 0.44994 0.52583 0.8239 0.0
H116 H 0.67371 0.53595 0.88663 0.0
H117 H 0.72209 0.52124 0.88107 0.0
H118 H 0.67499 0.4597 0.83542 0.0
H119 H 0.62687 0.4749 0.84099 0.0
P120 P 0.57439 0.96054 0.23884 0.0
H121 H 0.55197 0.909 0.21056 0.0
H122 H 0.49949 0.88189 0.19647 0.0
H123 H 0.46246 0.95142 0.22493 0.0
H124 H 0.51507 0.97777 0.23942 0.0
H125 H 0.64352 0.98756 0.24169 0.0
H126 H 0.68284 0.03656 0.23039 0.0
H127 H 0.60646 0.06451 0.20667 0.0
H128 H 0.56697 0.01516 0.21822 0.0
H129 H 0.55702 0.91621 0.26754 0.0
H130 H 0.5725 0.02028 0.25957 0.0
O131 O 0.59165 0.9308 0.23807 0.0
H132 H 0.5458 0.92474 0.29822 0.0
H133 H 0.56043 0.02898 0.29028 0.0
C134 C 0.53721 0.94492 0.22629 0.0
C135 C 0.53266 0.91863 0.21365 0.0
C136 C 0.50259 0.90329 0.20548 0.0
C137 C 0.47653 0.91418 0.20969 0.0
C138 C 0.48178 0.9419 0.22165 0.0
C139 C 0.5119 0.95714 0.22987 0.0
C140 C 0.60243 0.99734 0.23044 0.0
C141 C 0.63519 0.00409 0.23397 0.0
C142 C 0.65767 0.03208 0.22745 0.0
C143 C 0.6478 0.05415 0.21739 0.0
C144 C 0.61478 0.04793 0.21434 0.0
C145 C 0.59223 0.01966 0.22084 0.0
C146 C 0.56626 0.96774 0.26141 0.0
C147 C 0.55803 0.94095 0.27243 0.0
C148 C 0.55128 0.94582 0.28995 0.0
C149 C 0.55221 0.97758 0.29676 0.0
C150 C 0.55998 0.00433 0.28554 0.0
C151 C 0.56683 -0.0006 0.26798 0.0
P152 P 0.59161 0.52672 0.56326 0.0
H153 H 0.60538 0.49096 0.53236 0.0
H154 H 0.58726 0.43147 0.52316 0.0
H155 H 0.51624 0.41217 0.56307 0.0
H156 H 0.53402 0.47175 0.57199 0.0
H157 H 0.62969 0.59449 0.55588 0.0
H158 H 0.61636 0.64181 0.54543 0.0
H159 H 0.51674 0.58067 0.5397 0.0
H160 H 0.53045 0.53306 0.55053 0.0
H161 H 0.60074 0.48314 0.58953 0.0
H162 H 0.56847 0.56887 0.58824 0.0
O163 O 0.63086 0.53435 0.56101 0.0
H164 H 0.59256 0.48107 0.62109 0.0
H165 H 0.56034 0.56696 0.61985 0.0
C166 C 0.5716 0.48566 0.55313 0.0
C167 C 0.58528 0.47409 0.53879 0.0
C168 C 0.57489 0.44006 0.53354 0.0
C169 C 0.55076 0.41708 0.54264 0.0
C170 C 0.53528 0.42924 0.55603 0.0
C171 C 0.54538 0.46333 0.5611 0.0
C172 C 0.58117 0.56001 0.5536 0.0
C173 C 0.60503 0.59097 0.55208 0.0
C174 C 0.59736 0.61811 0.54604 0.0
C175 C 0.5655 0.61507 0.54152 0.0
C176 C 0.54151 0.58392 0.5431 0.0
C177 C 0.54931 0.55661 0.54912 0.0
C178 C 0.58493 0.5259 0.58649 0.0
C179 C 0.59172 0.50141 0.59603 0.0
C180 C 0.58689 0.50015 0.61404 0.0
C181 C 0.57561 0.52373 0.62292 0.0
C182 C 0.56916 0.54854 0.61336 0.0
C183 C 0.5737 0.54956 0.59526 0.0
P184 P 0.10833 0.69944 0.89466 0.0
H185 H 0.14999 0.73837 0.8684 0.0
H186 H 0.19201 0.72772 0.85079 0.0
H187 H 0.18266 0.63934 0.87922 0.0
H188 H 0.14149 0.65038 0.89676 0.0
H189 H 0.06034 0.70274 0.86824 0.0
H190 H 1.01392 0.65958 0.8542 0.0
H191 H 0.03864 0.58409 0.88177 0.0
H192 H 0.08404 0.62721 0.89608 0.0
H193 H 0.15666 0.69672 0.92144 0.0
H194 H 0.05539 0.68235 0.9183 0.0
O195 O 0.1057 0.73752 0.89267 0.0
H196 H 0.15057 0.67362 0.95042 0.0
H197 H 0.04932 0.66063 0.94749 0.0
C198 C 0.14329 0.69572 0.88423 0.0
C199 C 0.15771 0.71727 0.87114 0.0
C200 C 0.18144 0.71097 0.86097 0.0
C201 C 0.19084 0.68284 0.8637 0.0
C202 C 0.17658 0.66168 0.87704 0.0
C203 C 0.15294 0.66796 0.88711 0.0
C204 C 0.07519 0.6682 0.88343 0.0
C205 C 0.05571 0.67689 0.87121 0.0
C206 C 1.02944 0.65216 0.86306 0.0
C207 C 1.02252 0.61844 0.86698 0.0
C208 C 0.04303 0.60986 0.87868 0.0
C209 C 0.06909 0.63451 0.88682 0.0
C210 C 0.10622 0.68997 0.91745 0.0
C211 C 0.13317 0.68892 0.92704 0.0
C212 C 0.1297 0.67598 0.9437 0.0
C213 C 0.09929 0.66446 0.95108 0.0
C214 C 0.0729 0.66826 0.94196 0.0
C215 C 0.07638 0.68096 0.92532 0.0
P216 P 0.07306 0.46235 0.42148 0.0
H217 H 0.07379 0.49169 0.45709 0.0
H218 H 0.10182 0.54741 0.47051 0.0
H219 H 0.13846 0.58047 0.41998 0.0
H220 H 0.10982 0.52532 0.40671 0.0
H221 H 0.04917 0.39284 0.43061 0.0
H222 H 0.99884 0.35839 0.44236 0.0
H223 H 0.9652 0.4435 0.44498 0.0
H224 H 1.01607 0.47811 0.43327 0.0
H225 H 0.11036 0.45339 0.39146 0.0
H226 H 1.02172 0.47307 0.40017 0.0
O227 O 0.10074 0.44414 0.42508 0.0
H228 H 0.10309 0.45646 0.35995 0.0
H229 H 1.01368 0.47513 0.36861 0.0
C230 C 0.08901 0.50453 0.43082 0.0
C231 C 0.08718 0.51123 0.44885 0.0
C232 C 0.10354 0.54301 0.45654 0.0
C233 C 0.12242 0.56855 0.44634 0.0
C234 C 0.12368 0.56174 0.42821 0.0
C235 C 0.10727 0.53005 0.42056 0.0
C236 C 0.03655 0.43815 0.43133 0.0
C237 C 1.03122 0.40429 0.43395 0.0
C238 C 1.00242 0.3846 0.4407 0.0
C239 C 0.97813 0.39828 0.44471 0.0
C240 C 0.98345 0.43226 0.44197 0.0
C241 C 1.01251 0.45206 0.43536 0.0
C242 C 0.06629 0.46239 0.39816 0.0
C243 C 0.08902 0.45779 0.38657 0.0
C244 C 0.08476 0.45943 0.36851 0.0
C245 C 0.05769 0.46584 0.36168 0.0
C246 C 0.03494 0.47042 0.3734 0.0
C247 C 0.03933 0.46892 0.39147 0.0
P248 P 0.59346 0.00932 0.79148 0.0
H249 H 0.6154 0.05643 0.82183 0.0
H250 H 0.60084 0.10519 0.83189 0.0
H251 H 0.52154 0.07681 0.79421 0.0
H252 H 0.53572 0.02764 0.78448 0.0
H253 H 0.63035 0.96979 0.80566 0.0
H254 H 0.61541 0.91331 0.81566 0.0
H255 H 0.51532 0.90304 0.80839 0.0
H256 H 0.5307 0.96008 0.7981 0.0
H257 H 0.59665 0.05872 0.76582 0.0
H258 H 0.56938 0.95127 0.76594 0.0
O259 O 0.63331 0.02584 0.79321 0.0
H260 H 0.58482 0.05472 0.7343 0.0
H261 H 0.55735 0.94712 0.73442 0.0
C262 C 0.57715 0.03892 0.80211 0.0
C263 C 0.59435 0.06017 0.81607 0.0
C264 C 0.58601 0.08803 0.82181 0.0
C265 C 0.56044 0.09511 0.81359 0.0
C266 C 0.54169 0.07223 0.80057 0.0
C267 C 0.54975 0.0441 0.79504 0.0
C268 C 0.58163 0.96929 0.80125 0.0
C269 C 0.60515 0.95573 0.80647 0.0
C270 C 0.59654 0.92331 0.81228 0.0
C271 C 0.56413 0.90354 0.81289 0.0
C272 C 0.5405 0.91748 0.80796 0.0
C273 C 0.54921 0.95014 0.80223 0.0
C274 C 0.58322 0.00531 0.76834 0.0
C275 C 0.58767 0.03422 0.75911 0.0
C276 C 0.5808 0.03191 0.7411 0.0
C277 C 0.56986 0.00059 0.73189 0.0
C278 C 0.56577 0.97162 0.74115 0.0
C279 C 0.57245 0.97396 0.75923 0.0
P280 P 0.52869 0.47577 0.11531 0.0
H281 H 0.56391 0.46222 0.14558 0.0
H282 H 0.62065 0.47029 0.1511 0.0
H283 H 0.64459 0.53365 0.10728 0.0
H284 H 0.58813 0.52493 0.10165 0.0
H285 H 0.50713 0.53611 0.11229 0.0
H286 H 0.45573 0.54429 0.11784 0.0
H287 H 0.42484 0.45184 0.1442 0.0
H288 H 0.4758 0.44357 0.13845 0.0
H289 H 0.51332 0.4232 0.0869 0.0
H290 H 0.53939 0.53074 0.09102 0.0
O291 O 0.51891 0.43531 0.11931 0.0
H292 H 0.51019 0.42404 0.05516 0.0
H293 H 0.5349 0.53157 0.05926 0.0
C294 C 0.5709 0.49268 0.12309 0.0
C295 C 0.58133 0.47867 0.13742 0.0
C296 C 0.61413 0.48321 0.14053 0.0
C297 C 0.63779 0.50207 0.12942 0.0
C298 C 0.62741 0.51808 0.11588 0.0
C299 C 0.59464 0.51345 0.11277 0.0
C300 C 0.49584 0.48874 0.12451 0.0
C301 C 0.48961 0.51759 0.11936 0.0
C302 C 0.4598 0.52222 0.1225 0.0
C303 C 0.43538 0.49844 0.13121 0.0
C304 C 0.44266 0.47087 0.13747 0.0
C305 C 0.47223 0.46611 0.13416 0.0
C306 C 0.52626 0.47691 0.0916 0.0
C307 C 0.51808 0.44707 0.08109 0.0
C308 C 0.51606 0.44752 0.06283 0.0
C309 C 0.52208 0.47785 0.05457 0.0
C310 C 0.53033 0.50774 0.06511 0.0
C311 C 0.53242 0.50724 0.0834 0.0
C312 C 0.16475 0.53502 0.14207 0.0
C313 C 0.13897 0.50509 0.14331 0.0
C314 C 0.19664 0.53495 0.14101 0.0
C315 C 0.24874 0.48061 0.14798 0.0
H316 H 0.30994 0.5476 0.122 0.0
C317 C 0.38428 0.49107 0.14821 0.0
C318 C 0.4022 0.50142 0.13314 0.0
C319 C 0.35284 0.49228 0.14963 0.0
C320 C 0.29329 0.52838 0.12921 0.0
H321 H 0.12736 0.45142 0.14426 0.0
H322 H 0.18227 0.45115 0.14206 0.0
H323 H 0.25493 0.54749 0.12365 0.0
H324 H 0.39991 0.52106 0.10764 0.0
H325 H 0.34548 0.52283 0.10996 0.0
H326 H 0.28677 0.4608 0.15305 0.0
C327 C 0.17817 0.47499 0.14229 0.0
C328 C 0.26148 0.52863 0.13039 0.0
C329 C 0.14632 0.4751 0.14344 0.0
C330 C 0.38743 0.51334 0.11961 0.0
C331 C 0.35589 0.51436 0.12097 0.0
C332 C 0.2805 0.48027 0.14674 0.0
C333 C 0.20409 0.50492 0.14105 0.0
C334 C 0.23845 0.50475 0.13981 0.0
C335 C 0.33779 0.50369 0.13598 0.0
C336 C 0.30354 0.50417 0.13734 0.0
H337 H 0.16038 0.55871 0.14202 0.0
H338 H 0.21552 0.55872 0.1404 0.0
H339 H 0.23234 0.46194 0.15559 0.0
H340 H 0.39466 0.48219 0.15909 0.0
H341 H 0.34047 0.48449 0.16161 0.0
C342 C 0.74976 0.17465 0.49443 0.0
C343 C 0.72057 0.16768 0.48497 0.0
C344 C 0.77581 0.20284 0.49118 0.0
C345 C 0.80773 0.26275 0.45687 0.0
H346 H 0.86798 0.3109 0.49411 0.0
C347 C 0.91791 0.37734 0.44394 0.0
C348 C 0.94711 0.37666 0.45121 0.0
C349 C 0.88882 0.35487 0.44901 0.0
C350 C 0.8514 0.29763 0.48357 0.0
H351 H 0.69548 0.18554 0.46515 0.0
H352 H 0.74078 0.23504 0.45963 0.0
H353 H 0.81951 0.26625 0.50124 0.0
H354 H 0.96866 0.35293 0.47003 0.0
H355 H 0.91797 0.31376 0.47886 0.0
H356 H 0.83977 0.29405 0.43921 0.0
C357 C 0.7438 0.21832 0.4693 0.0
C358 C 0.82366 0.27196 0.48763 0.0
C359 C 0.71779 0.18999 0.47248 0.0
C360 C 0.94655 0.35384 0.46408 0.0
C361 C 0.9175 0.33161 0.46925 0.0
C362 C 0.83537 0.28855 0.45282 0.0
C363 C 0.77329 0.2249 0.47846 0.0
C364 C 0.80168 0.25384 0.47431 0.0
C365 C 0.88833 0.3315 0.46158 0.0
C366 C 0.85775 0.30597 0.46609 0.0
H367 H 0.75282 0.1577 0.50397 0.0
H368 H 0.79824 0.20672 0.49828 0.0
H369 H 0.79167 0.24906 0.44623 0.0
H370 H 0.91759 0.39449 0.43392 0.0
H371 H 0.86671 0.35558 0.44298 0.0
C372 C 0.50996 0.6018 0.8264 0.0
C373 C 0.53054 0.5944 0.8386 0.0
C374 C 0.51048 0.63472 0.82472 0.0
C375 C 0.53765 0.71958 0.84706 0.0
H376 H 0.53393 0.74865 0.79994 0.0
C377 C 0.57262 0.85911 0.83128 0.0
C378 C 0.55548 0.86807 0.81778 0.0
C379 C 0.56672 0.82553 0.83475 0.0
C380 C 0.53449 0.74089 0.81321 0.0
H381 H 0.56743 0.61598 0.85884 0.0
H382 H 0.56858 0.67341 0.85577 0.0
H383 H 0.52912 0.6907 0.80426 0.0
H384 H 0.51801 0.84853 0.79766 0.0
H385 H 0.50726 0.79001 0.80393 0.0
H386 H 0.54342 0.76998 0.85598 0.0
C387 C 0.55173 0.65368 0.84763 0.0
C388 C 0.53175 0.70758 0.8157 0.0
C389 C 0.55119 0.62071 0.84933 0.0
C390 C 0.53151 0.8426 0.80823 0.0
C391 C 0.52563 0.80899 0.81169 0.0
C392 C 0.54039 0.75295 0.84457 0.0
C393 C 0.53164 0.66117 0.83516 0.0
C394 C 0.53347 0.69648 0.83265 0.0
C395 C 0.54352 0.79997 0.8248 0.0
C396 C 0.53903 0.7641 0.8276 0.0
H397 H 0.49369 0.58224 0.81792 0.0
H398 H 0.4943 0.63943 0.81517 0.0
H399 H 0.5386 0.71184 0.86031 0.0
H400 H 0.59099 0.87808 0.83904 0.0
H401 H 0.58113 0.81959 0.84486 0.0
C402 C 0.93064 0.53566 0.13732 0.0
C403 C 0.93844 0.5077 0.14259 0.0
C404 C 0.89857 0.53519 0.13622 0.0
C405 C 0.81501 0.48848 0.15049 0.0
H406 H 0.78985 0.53721 0.11446 0.0
C407 C 0.68721 0.50316 0.14785 0.0
C408 C 0.67263 0.50367 0.13133 0.0
C409 C 0.71933 0.50378 0.14942 0.0
C410 C 0.79615 0.52316 0.12456 0.0
H411 H 0.91767 0.45712 0.15084 0.0
H412 H 0.86206 0.45611 0.14875 0.0
H413 H 0.84488 0.53716 0.11651 0.0
H414 H 0.68145 0.50443 0.10345 0.0
H415 H 0.73672 0.50557 0.10617 0.0
H416 H 0.76601 0.47384 0.15827 0.0
C417 C 0.88078 0.47877 0.14567 0.0
C418 C 0.82816 0.52351 0.1259 0.0
C419 C 0.91291 0.47926 0.14678 0.0
C420 C 0.69157 0.5048 0.11648 0.0
C421 C 0.72362 0.50541 0.11805 0.0
C422 C 0.78296 0.48815 0.14916 0.0
C423 C 0.8729 0.50671 0.14031 0.0
C424 C 0.83833 0.50619 0.1389 0.0
C425 C 0.73824 0.5049 0.13455 0.0
C426 C 0.77281 0.50545 0.13615 0.0
H427 H 0.94939 0.55815 0.13402 0.0
H428 H 0.89403 0.55752 0.13233 0.0
H429 H 0.82152 0.47505 0.16083 0.0
H430 H 0.67395 0.50271 0.15969 0.0
H431 H 0.72946 0.50387 0.16242 0.0
C432 C 0.32354 0.81611 0.51682 0.0
C433 C 0.33291 0.84422 0.5066 0.0
C434 C 0.29883 0.78721 0.51092 0.0
C435 C 0.2546 0.74453 0.47016 0.0
H436 H 0.19533 0.69026 0.50248 0.0
C437 C 0.14685 0.63112 0.4459 0.0
C438 C 0.14238 0.60147 0.45461 0.0
C439 C 0.16801 0.66155 0.45285 0.0
C440 C 0.21182 0.70508 0.49332 0.0
H441 H 0.32295 0.86446 0.48247 0.0
H442 H 0.27958 0.81439 0.47229 0.0
H443 H 0.23626 0.7419 0.5134 0.0
H444 H 0.15629 0.58095 0.47773 0.0
H445 H 0.19279 0.63411 0.48994 0.0
H446 H 0.23011 0.70778 0.45009 0.0
C447 C 0.29181 0.81424 0.48466 0.0
C448 C 0.23536 0.73464 0.49957 0.0
C449 C 0.31664 0.84301 0.49051 0.0
C450 C 0.15874 0.60329 0.47077 0.0
C451 C 0.17977 0.63378 0.47776 0.0
C452 C 0.23097 0.71515 0.46391 0.0
C453 C 0.28275 0.78582 0.4947 0.0
C454 C 0.25716 0.75469 0.48808 0.0
C455 C 0.18508 0.66315 0.46872 0.0
C456 C 0.20938 0.695 0.47541 0.0
H457 H 0.33585 0.81617 0.5292 0.0
H458 H 0.29286 0.76569 0.51889 0.0
H459 H 0.27132 0.75891 0.46096 0.0
H460 H 0.13421 0.63079 0.4336 0.0
H461 H 0.17116 0.68385 0.44572 0.0
C462 C 0.569 0.3865 0.83936 0.0
C463 C 0.5396 0.39137 0.83562 0.0
C464 C 0.57149 0.35434 0.8382 0.0
C465 C 0.52542 0.26553 0.84 0.0
H466 H 0.59053 0.24982 0.81057 0.0
C467 C 0.55484 0.14056 0.83449 0.0
C468 C 0.55558 0.12786 0.81722 0.0
C469 C 0.55242 0.17249 0.83768 0.0
C470 C 0.5723 0.25389 0.81886 0.0
H471 H 0.48961 0.36627 0.8282 0.0
H472 H 0.49387 0.31012 0.82659 0.0
H473 H 0.5878 0.30647 0.8149 0.0
H474 H 0.55468 0.1387 0.7898 0.0
H475 H 0.55102 0.1946 0.79541 0.0
H476 H 0.51005 0.2129 0.84401 0.0
C477 C 0.51499 0.33121 0.83026 0.0
C478 C 0.57087 0.28629 0.82143 0.0
C479 C 0.51263 0.36337 0.83108 0.0
C480 C 0.55375 0.14765 0.80324 0.0
C481 C 0.55196 0.17974 0.80644 0.0
C482 C 0.52725 0.2332 0.8377 0.0
C483 C 0.5445 0.32639 0.83364 0.0
C484 C 0.54718 0.29236 0.83184 0.0
C485 C 0.55145 0.19256 0.82368 0.0
C486 C 0.55043 0.22702 0.82692 0.0
H487 H 0.59023 0.40758 0.84286 0.0
H488 H 0.5945 0.35128 0.84092 0.0
H489 H 0.507 0.26958 0.84815 0.0
H490 H 0.55626 0.12583 0.8455 0.0
H491 H 0.55213 0.18186 0.8511 0.0
C492 C 0.55693 0.89104 0.50537 0.0
C493 C 0.53192 0.90066 0.5126 0.0
C494 C 0.55801 0.85863 0.50708 0.0
C495 C 0.5288 0.78658 0.53501 0.0
H496 H 0.5561 0.73867 0.49726 0.0
C497 C 0.5306 0.65189 0.54212 0.0
C498 C 0.55764 0.64484 0.53586 0.0
C499 C 0.52499 0.68148 0.53807 0.0
C500 C 0.54867 0.7518 0.508 0.0
H501 H 0.48798 0.88328 0.52694 0.0
H502 H 0.48981 0.82693 0.52979 0.0
H503 H 0.55139 0.79349 0.49251 0.0
H504 H 0.59911 0.66276 0.51968 0.0
H505 H 0.58977 0.71446 0.51295 0.0
H506 H 0.52657 0.74529 0.55061 0.0
C507 C 0.50884 0.84455 0.52301 0.0
C508 C 0.54598 0.78326 0.50526 0.0
C509 C 0.50771 0.87687 0.52126 0.0
C510 C 0.57829 0.66757 0.52495 0.0
C511 C 0.57271 0.69712 0.52091 0.0
C512 C 0.53156 0.7552 0.53776 0.0
C513 C 0.53417 0.83509 0.5161 0.0
C514 C 0.53616 0.80114 0.51876 0.0
C515 C 0.54626 0.70475 0.52762 0.0
C516 C 0.54173 0.73744 0.52433 0.0
H517 H 0.57601 0.90869 0.49863 0.0
H518 H 0.57804 0.85232 0.50174 0.0
H519 H 0.52166 0.79984 0.5458 0.0
H520 H 0.5143 0.63509 0.55064 0.0
H521 H 0.50411 0.68627 0.54327 0.0
C522 C 0.75363 0.47966 0.86588 0.0
C523 C 0.73304 0.48478 0.85296 0.0
C524 C 0.78496 0.48172 0.86193 0.0
C525 C 0.84611 0.52947 0.83399 0.0
H526 H 0.89772 0.48411 0.85703 0.0
C527 C 0.9817 0.59222 0.8427 0.0
C528 C 0.99264 0.59269 0.86011 0.0
C529 C 0.95185 0.56992 0.83697 0.0
C530 C 0.88363 0.49693 0.85041 0.0
H531 H 0.72827 0.49362 0.82546 0.0
H532 H 0.783 0.4971 0.81857 0.0
H533 H 0.8394 0.45915 0.85573 0.0
H534 H 0.9813 0.56955 0.88499 0.0
H535 H 0.92945 0.53129 0.87517 0.0
H536 H 0.88982 0.5684 0.82978 0.0
C537 C 0.77494 0.49165 0.83176 0.0
C538 C 0.8503 0.48258 0.84963 0.0
C539 C 0.74356 0.48945 0.83569 0.0
C540 C 0.9738 0.5695 0.87142 0.0
C541 C 0.94404 0.54738 0.86574 0.0
C542 C 0.87937 0.54391 0.83487 0.0
C543 C 0.7963 0.48911 0.84499 0.0
C544 C 0.83118 0.49945 0.84208 0.0
C545 C 0.93233 0.54783 0.84857 0.0
C546 C 0.8984 0.52856 0.84381 0.0
H547 H 0.74599 0.47562 0.87924 0.0
H548 H 0.80091 0.4799 0.87246 0.0
H549 H 0.83205 0.54326 0.82821 0.0
H550 H 0.99595 0.6095 0.83363 0.0
H551 H 0.94366 0.57062 0.8236 0.0
C552 C 0.20321 0.72781 0.17318 0.0
C553 C 0.19978 0.70932 0.15708 0.0
C554 C 0.23258 0.75156 0.17841 0.0
C555 C 0.30922 0.8047 0.16167 0.0
H556 H 0.3401 0.80635 0.20959 0.0
C557 C 0.43887 0.8807 0.18538 0.0
C558 C 0.44371 0.89511 0.20259 0.0
C559 C 0.40851 0.85996 0.17938 0.0
C560 C 0.33165 0.80666 0.19624 0.0
H561 H 0.22438 0.70165 0.13372 0.0
H562 H 0.27581 0.74306 0.14292 0.0
H563 H 0.28852 0.76633 0.20003 0.0
H564 H 0.41996 0.89957 0.22682 0.0
H565 H 0.367 0.86451 0.21618 0.0
H566 H 0.35234 0.84514 0.15789 0.0
C567 C 0.25569 0.73925 0.15145 0.0
C568 C 0.30209 0.78361 0.19075 0.0
C569 C 0.22634 0.71531 0.14626 0.0
C570 C 0.41716 0.88923 0.21343 0.0
C571 C 0.38681 0.86865 0.20741 0.0
C572 C 0.33877 0.82793 0.16719 0.0
C573 C 0.25917 0.75751 0.16762 0.0
C574 C 0.29054 0.7823 0.17341 0.0
C575 C 0.3822 0.85321 0.19043 0.0
C576 C 0.35039 0.82916 0.18455 0.0
H577 H 0.1833 0.72356 0.18189 0.0
H578 H 0.23441 0.76542 0.19088 0.0
H579 H 0.30079 0.80457 0.14827 0.0
H580 H 0.45866 0.88503 0.17658 0.0
H581 H 0.40594 0.84838 0.16626 0.0
C582 C 0.56011 0.13277 0.51754 0.0
C583 C 0.53157 0.10665 0.52024 0.0
C584 C 0.5612 0.16615 0.51957 0.0
C585 C 0.51186 0.22071 0.5181 0.0
H586 H 0.57912 0.28274 0.5478 0.0
C587 C 0.54072 0.36564 0.52246 0.0
C588 C 0.54443 0.38055 0.53954 0.0
C589 C 0.53742 0.3317 0.51973 0.0
C590 C 0.56019 0.26569 0.53948 0.0
H591 H 0.48166 0.09511 0.52684 0.0
H592 H 0.48348 0.15346 0.53 0.0
H593 H 0.57719 0.2245 0.54354 0.0
H594 H 0.54764 0.37161 0.56711 0.0
H595 H 0.54233 0.31262 0.56232 0.0
H596 H 0.49514 0.26213 0.51389 0.0
C597 C 0.50501 0.14802 0.52646 0.0
C598 C 0.55922 0.23245 0.53696 0.0
C599 C 0.50405 0.11465 0.52476 0.0
C600 C 0.54441 0.36075 0.55381 0.0
C601 C 0.54169 0.32708 0.55107 0.0
C602 C 0.51319 0.25416 0.52037 0.0
C603 C 0.53365 0.17411 0.524 0.0
C604 C 0.53494 0.20956 0.52634 0.0
C605 C 0.53844 0.31225 0.53401 0.0
C606 C 0.53723 0.27691 0.5312 0.0
H607 H 0.58174 0.12748 0.51407 0.0
H608 H 0.58356 0.18577 0.5175 0.0
H609 H 0.49298 0.20362 0.50977 0.0
H610 H 0.54066 0.3803 0.51123 0.0
H611 H 0.53506 0.32092 0.50644 0.0
C612 C 0.33743 0.52695 0.78761 0.0
C613 C 0.3703 0.54457 0.79007 0.0
C614 C 0.31504 0.54374 0.78904 0.0
C615 C 0.30442 0.62719 0.79601 0.0
H616 H 0.24739 0.58252 0.83195 0.0
C617 C 0.21126 0.67555 0.83375 0.0
C618 C 0.2137 0.67387 0.85206 0.0
C619 C 0.22958 0.66219 0.8227 0.0
C620 C 0.263 0.59516 0.82182 0.0
H621 H 0.40571 0.59394 0.79362 0.0
H622 H 0.36662 0.62314 0.79663 0.0
H623 H 0.2787 0.55335 0.81625 0.0
H624 H 0.23905 0.65942 0.87315 0.0
H625 H 0.27041 0.63559 0.85386 0.0
H626 H 0.2892 0.6696 0.80233 0.0
C627 C 0.35807 0.59643 0.79356 0.0
C628 C 0.28063 0.57834 0.81265 0.0
C629 C 0.38046 0.57965 0.79205 0.0
C630 C 0.23611 0.66041 0.8591 0.0
C631 C 0.25409 0.64685 0.84809 0.0
C632 C 0.28639 0.64399 0.80512 0.0
C633 C 0.32513 0.57839 0.79306 0.0
C634 C 0.30221 0.59443 0.79999 0.0
C635 C 0.2503 0.64677 0.82982 0.0
C636 C 0.26638 0.62837 0.81848 0.0
H637 H 0.32879 0.49992 0.78603 0.0
H638 H 0.28977 0.5293 0.78829 0.0
H639 H 0.32082 0.64014 0.78628 0.0
H640 H 0.19404 0.68555 0.82793 0.0
H641 H 0.22635 0.66237 0.80862 0.0
C642 C 0.85455 0.30993 0.17297 0.0
C643 C 0.88197 0.30343 0.16686 0.0
C644 C 0.8279 0.28384 0.17802 0.0
C645 C 0.80581 0.19749 0.1926 0.0
H646 H 0.71878 0.19301 0.18061 0.0
C647 C 0.69982 0.07935 0.2027 0.0
C648 C 0.67221 0.08325 0.2101 0.0
C649 C 0.72406 0.10684 0.19695 0.0
C650 C 0.74294 0.19411 0.18421 0.0
H651 H 0.90275 0.26423 0.16134 0.0
H652 H 0.85624 0.21891 0.16966 0.0
H653 H 0.76378 0.24005 0.1716 0.0
H654 H 0.64797 0.11902 0.21679 0.0
H655 H 0.69055 0.16732 0.20675 0.0
H656 H 0.78522 0.1517 0.20515 0.0
C657 C 0.85539 0.24419 0.17077 0.0
C658 C 0.76872 0.22106 0.17906 0.0
C659 C 0.88195 0.27019 0.16576 0.0
C660 C 0.6689 0.1152 0.21106 0.0
C661 C 0.69327 0.14283 0.20532 0.0
C662 C 0.78015 0.17064 0.19771 0.0
C663 C 0.82814 0.25068 0.17711 0.0
C664 C 0.80048 0.22286 0.18304 0.0
C665 C 0.72139 0.13902 0.19848 0.0
C666 C 0.74841 0.16839 0.19342 0.0
H667 H 0.85363 0.33519 0.17384 0.0
H668 H 0.80737 0.28972 0.18294 0.0
H669 H 0.82991 0.19846 0.19626 0.0
H670 H 0.70279 0.05495 0.20142 0.0
H671 H 0.74503 0.10287 0.19136 0.0
C672 C 0.03427 0.53838 0.09225 0.0
C673 C 0.04585 0.51202 0.09568 0.0
C674 C 0.0411 0.55456 0.0766 0.0
C675 C 0.09716 0.57142 0.04044 0.0
H676 H 1.02821 0.59083 0.01595 0.0
C677 C 0.11685 0.65772 0.98184 0.0
C678 C 0.09453 0.64681 0.9677 0.0
C679 C 0.11195 0.64078 0.99739 0.0
C680 C 0.04768 0.58543 0.02257 0.0
H681 H 0.07387 0.48204 0.0856 0.0
H682 H 0.08579 0.51037 0.05804 0.0
H683 H 1.01755 0.56154 0.04303 0.0
H684 H 0.05031 0.60868 0.95857 0.0
H685 H 0.04165 0.57956 0.98567 0.0
H686 H 0.12723 0.59519 0.01982 0.0
C687 C 0.07156 0.51858 0.06754 0.0
C688 C 0.04164 0.56893 0.03817 0.0
C689 C 0.06458 0.50224 0.08322 0.0
C690 C 0.06754 0.61832 0.96936 0.0
C691 C 0.06261 0.60152 0.98487 0.0
C692 C 0.10326 0.58814 0.02485 0.0
C693 C 0.05972 0.54479 0.06404 0.0
C694 C 0.0663 0.56179 0.04729 0.0
C695 C 0.08462 0.61267 -0.0009 0.0
C696 C 0.07854 0.59526 0.01574 0.0
H697 H 1.01991 0.54656 0.10168 0.0
H698 H 1.03202 0.57497 0.07439 0.0
H699 H 0.11668 0.56646 0.04727 0.0
H700 H 0.13779 0.67969 0.98101 0.0
H701 H 0.12919 0.65011 0.0082 0.0
C702 C 0.53369 0.9845 0.45624 0.0
C703 C 0.51194 -0.00109 0.46355 0.0
C704 C 0.53803 0.98398 0.43816 0.0
C705 C 0.5276 0.02403 0.39776 0.0
H706 H 0.52886 0.94079 0.37489 0.0
C707 C 0.5638 0.01134 0.32557 0.0
C708 C 0.54548 0.98257 0.31555 0.0
C709 C 0.55878 0.01484 0.3435 0.0
C710 C 0.52836 0.96416 0.38106 0.0
H711 H 0.47824 0.02481 0.45784 0.0
H712 H 0.48586 0.02396 0.42615 0.0
H713 H 0.52239 0.94424 0.40648 0.0
H714 H 0.50639 0.93575 0.31641 0.0
H715 H 0.49798 0.94169 0.34767 0.0
H716 H 0.53348 0.04385 0.37223 0.0
C717 C 0.49959 0.01313 0.43441 0.0
C718 C 0.52499 0.96623 0.39918 0.0
C719 C 0.49509 0.01344 0.45251 0.0
C720 C 0.52143 0.95787 0.32379 0.0
C721 C 0.51656 0.96129 0.34171 0.0
C722 C 0.53124 0.02203 0.37961 0.0
C723 C 0.52085 0.99806 0.42703 0.0
C724 C 0.52456 0.99616 0.40775 0.0
C725 C 0.53545 0.98958 0.35181 0.0
C726 C 0.53155 0.99201 0.37106 0.0
H727 H 0.54715 0.97328 0.46446 0.0
H728 H 0.55491 0.9726 0.4329 0.0
H729 H 0.52755 0.04749 0.40402 0.0
H730 H 0.58273 0.03069 0.31969 0.0
H731 H 0.57389 0.03681 0.35098 0.0
C732 C 0.54819 0.48199 0.78091 0.0
C733 C 0.56535 0.51022 0.79157 0.0
C734 C 0.54776 0.48346 0.76264 0.0
C735 C 0.59252 0.53383 0.727 0.0
H736 H 0.51626 0.48617 0.69873 0.0
C737 C 0.58292 0.55207 0.65302 0.0
C738 C 0.57134 0.52271 0.64216 0.0
C739 C 0.58067 0.55078 0.67123 0.0
C740 C 0.53778 0.49946 0.70647 0.0
H741 H 0.59474 0.56232 0.79163 0.0
H742 H 0.59338 0.56523 0.75991 0.0
H743 H 0.51521 0.48338 0.7306 0.0
H744 H 0.54731 0.46919 0.6418 0.0
H745 H 0.54332 0.46696 0.67363 0.0
H746 H 0.61493 0.55018 0.70288 0.0
C747 C 0.58096 0.54163 0.76549 0.0
C748 C 0.53725 0.49777 0.72472 0.0
C749 C 0.5816 0.54005 0.7837 0.0
C750 C 0.5567 0.49218 0.64986 0.0
C751 C 0.55417 0.49094 0.66806 0.0
C752 C 0.59295 0.53574 0.70879 0.0
C753 C 0.5643 0.5133 0.75468 0.0
C754 C 0.56464 0.51493 0.73523 0.0
C755 C 0.56652 0.52016 0.67895 0.0
C756 C 0.56562 0.51856 0.69832 0.0
H757 H 0.53546 0.45866 0.78668 0.0
H758 H 0.53497 0.46104 0.75475 0.0
H759 H 0.61429 0.5468 0.73459 0.0
H760 H 0.5945 0.57593 0.64747 0.0
H761 H 0.59013 0.57376 0.67928 0.0
C762 C 0.56743 0.98292 0.57165 0.0
C763 C 0.5519 0.00205 0.56292 0.0
C764 C 0.56662 0.98152 0.58984 0.0
C765 C 0.52503 -0.00135 0.62925 0.0
H766 H 0.60412 0.00058 0.65279 0.0
C767 C 0.5483 0.01847 0.70479 0.0
C768 C 0.56404 -0.00159 0.71259 0.0
C769 C 0.54454 0.01783 0.68654 0.0
C770 C 0.58175 -0.00034 0.64642 0.0
H771 H 0.52251 0.03398 0.56625 0.0
H772 H 0.52168 0.03218 0.59828 0.0
H773 H 0.60177 0.00208 0.62105 0.0
H774 H 0.58781 0.96166 0.70736 0.0
H775 H 0.58113 0.96042 0.67554 0.0
H776 H 0.50534 0.99686 0.65486 0.0
C777 C 0.53416 0.01791 0.59101 0.0
C778 C 0.58034 0.00046 0.62819 0.0
C779 C 0.53475 0.01906 0.5727 0.0
C780 C 0.57537 0.97722 0.70177 0.0
C781 C 0.57182 0.97676 0.68354 0.0
C782 C 0.52652 -0.00191 0.64757 0.0
C783 C 0.55056 -0.0005 0.59982 0.0
C784 C 0.55189 -0.00038 0.61933 0.0
C785 C 0.55671 0.99733 0.67571 0.0
C786 C 0.55484 -0.00172 0.65632 0.0
H787 H 0.58045 0.96917 0.56442 0.0
H788 H 0.5788 0.96636 0.5961 0.0
H789 H 0.50266 0.99769 0.62287 0.0
H790 H 0.53904 0.03483 0.7128 0.0
H791 H 0.53293 0.03408 0.68089 0.0
C792 C 0.48413 0.4509 0.89372 0.0
C793 C 0.50456 0.47736 0.88478 0.0
C794 C 0.48603 0.45103 0.91204 0.0
C795 C 0.51661 0.50773 0.95166 0.0
H796 H 0.50546 0.4249 0.97434 0.0
C797 C 0.54194 0.50349 0.02602 0.0
C798 C 0.51992 0.47823 0.03507 0.0
C799 C 0.54006 0.50357 0.00771 0.0
C800 C 0.50833 0.4482 0.96822 0.0
H801 H 0.54331 0.52449 0.88792 0.0
H802 H 0.54711 0.52448 0.9198 0.0
H803 H 0.50244 0.42455 0.94244 0.0
H804 H 0.47818 0.43362 0.0318 0.0
H805 H 0.47517 0.4336 -8e-05 0.0
H806 H 0.52281 0.53138 0.97748 0.0
C807 C 0.52911 0.50392 0.91277 0.0
C808 C 0.50654 0.44801 0.94991 0.0
C809 C 0.52708 0.50385 0.89448 0.0
C810 C 0.49592 0.45313 0.0253 0.0
C811 C 0.49415 0.45313 0.007 0.0
C812 C 0.51857 0.50794 0.96997 0.0
C813 C 0.50856 0.47755 0.92183 0.0
C814 C 0.51059 0.47776 0.94136 0.0
C815 C 0.51621 0.47832 -0.00203 0.0
C816 C 0.51437 0.47816 0.97848 0.0
H817 H 0.4665 0.43017 0.88658 0.0
H818 H 0.46951 0.43052 0.91854 0.0
H819 H 0.51933 0.53105 0.94559 0.0
H820 H 0.56105 0.52293 0.03305 0.0
H821 H 0.55769 0.5231 0.00116 0.0
C822 C 1.02669 0.52792 0.20877 0.0
C823 C 0.03878 0.51075 0.19597 0.0
C824 C 1.02772 0.52103 0.2264 0.0
C825 C 0.03541 0.4586 0.25662 0.0
H826 H 0.06424 0.5353 0.28978 0.0
C827 C 0.06244 0.44753 0.33027 0.0
C828 C 0.05377 0.46875 0.34248 0.0
C829 C 0.05994 0.45122 0.31225 0.0
C830 C 0.05572 0.51356 0.28076 0.0
H831 H 0.06046 0.47207 0.19146 0.0
H832 H 0.06225 0.45988 0.22246 0.0
H833 H 0.06084 0.54381 0.25865 0.0
H834 H 0.03547 0.51042 0.3452 0.0
H835 H 1.03024 0.51619 0.31388 0.0
H836 H 1.03007 0.42834 0.27882 0.0
C837 C 0.05195 0.47869 0.21879 0.0
C838 C 0.05384 0.51846 0.26289 0.0
C839 C 0.05103 0.48572 0.20108 0.0
C840 C 0.04205 0.49339 0.33621 0.0
C841 C 0.03947 0.49701 0.31821 0.0
C842 C 0.03715 0.45367 0.27457 0.0
C843 C 0.04078 0.4967 0.23167 0.0
C844 C 0.04346 0.49107 0.25061 0.0
C845 C 0.04868 0.4762 0.306 0.0
C846 C 0.04714 0.48113 0.28687 0.0
H847 H 1.01685 0.54715 0.2052 0.0
H848 H 1.01837 0.53489 0.23595 0.0
H849 H 1.02709 0.437 0.2475 0.0
H850 H 0.07117 0.428 0.33462 0.0
H851 H 0.06747 0.43491 0.30324 0.0
loop_
_geom_bond_atom_site_label_1
_geom_bond_atom_site_label_2
_geom_bond_distance
_geom_bond_site_symmetry_2
_ccdc_geom_bond_type
Nd0 C2 2.836 . S
Nd0 O20 2.500 . S
Nd0 O21 2.492 . S
Nd0 O22 2.487 . S
Nd0 O23 2.682 . S
Nd0 O24 2.410 . S
Nd0 O29 2.414 . S
Nd0 O31 2.424 1_455 S
Nd1 C11 2.836 1_455 S
Nd1 O23 2.414 . S
Nd1 O25 2.424 . S
Nd1 O26 2.500 1_455 S
Nd1 O27 2.492 1_455 S
Nd1 O28 2.487 . S
Nd1 O29 2.682 . S
Nd1 O30 2.410 1_455 S
C2 Nd0 2.836 . S
C2 C3 1.498 . S
C2 O20 1.258 . S
C2 O21 1.239 . S
C3 C2 1.498 . S
C3 C4 1.366 . S
C3 C8 1.407 . S
C4 C3 1.366 . S
C4 C5 1.392 . S
C4 H32 0.930 . S
C5 C4 1.392 . S
C5 C6 1.398 . S
C5 H33 0.929 . S
C6 C5 1.398 . S
C6 C7 1.352 . S
C7 C6 1.352 . S
C7 C8 1.384 . S
C7 H34 0.930 . S
C8 C3 1.407 . S
C8 C7 1.384 . S
C8 H35 0.929 . S
C9 O22 1.241 . S
C9 O23 1.273 . S
C10 O24 1.251 . S
C10 O25 1.268 . S
C11 Nd1 2.836 1_655 S
C11 C12 1.498 . S
C11 O26 1.258 . S
C11 O27 1.239 . S
C12 C11 1.498 . S
C12 C13 1.366 . S
C12 C17 1.407 . S
C13 C12 1.366 . S
C13 C14 1.392 . S
C13 H36 0.930 . S
C14 C13 1.392 . S
C14 C15 1.398 . S
C14 H37 0.929 . S
C15 C14 1.398 . S
C15 C16 1.352 . S
C16 C15 1.352 . S
C16 C17 1.384 . S
C16 H38 0.930 . S
C17 C12 1.407 . S
C17 C16 1.384 . S
C17 H39 0.929 . S
C18 O28 1.241 . S
C18 O29 1.273 . S
C19 O30 1.251 . S
C19 O31 1.268 . S
O20 Nd0 2.500 . S
O20 C2 1.258 . S
O21 Nd0 2.492 . S
O21 C2 1.239 . S
O22 Nd0 2.487 . S
O22 C9 1.241 . S
O23 Nd0 2.682 . S
O23 Nd1 2.414 . S
O23 C9 1.273 . S
O24 Nd0 2.410 . S
O24 C10 1.251 . S
O25 Nd1 2.424 . S
O25 C10 1.268 . S
O26 Nd1 2.500 1_655 S
O26 C11 1.258 . S
O27 Nd1 2.492 1_655 S
O27 C11 1.239 . S
O28 Nd1 2.487 . S
O28 C18 1.241 . S
O29 Nd0 2.414 . S
O29 Nd1 2.682 . S
O29 C18 1.273 . S
O30 Nd1 2.410 1_655 S
O30 C19 1.251 . S
O31 Nd0 2.424 1_655 S
O31 C19 1.268 . S
H32 C4 0.930 . S
H33 C5 0.929 . S
H34 C7 0.930 . S
H35 C8 0.929 . S
H36 C13 0.930 . S
H37 C14 0.929 . S
H38 C16 0.930 . S
H39 C17 0.929 . S
Nd40 C42 2.836 1_545 S
Nd40 O60 2.500 1_545 S
Nd40 O61 2.492 1_545 S
Nd40 O62 2.487 . S
Nd40 O63 2.682 . S
Nd40 O64 2.410 1_545 S
Nd40 O69 2.414 . S
Nd40 O71 2.424 . S
Nd41 C51 2.836 . S
Nd41 O63 2.414 . S
Nd41 O65 2.424 1_545 S
Nd41 O66 2.500 . S
Nd41 O67 2.492 . S
Nd41 O68 2.487 . S
Nd41 O69 2.682 . S
Nd41 O70 2.410 . S
C42 Nd40 2.836 1_565 S
C42 C43 1.498 . S
C42 O60 1.258 . S
C42 O61 1.239 . S
C43 C42 1.498 . S
C43 C44 1.366 . S
C43 C48 1.407 . S
C44 C43 1.366 . S
C44 C45 1.392 . S
C44 H72 0.930 . S
C45 C44 1.392 . S
C45 C46 1.398 . S
C45 H73 0.929 . S
C46 C45 1.398 . S
C46 C47 1.352 . S
C47 C46 1.352 . S
C47 C48 1.384 . S
C47 H74 0.930 . S
C48 C43 1.407 . S
C48 C47 1.384 . S
C48 H75 0.929 . S
C49 O62 1.241 . S
C49 O63 1.273 . S
C50 O64 1.251 . S
C50 O65 1.268 . S
C51 Nd41 2.836 . S
C51 C52 1.498 . S
C51 O66 1.258 . S
C51 O67 1.239 . S
C52 C51 1.498 . S
C52 C53 1.366 . S
C52 C57 1.407 . S
C53 C52 1.366 . S
C53 C54 1.392 . S
C53 H76 0.930 . S
C54 C53 1.392 . S
C54 C55 1.398 . S
C54 H77 0.929 . S
C55 C54 1.398 . S
C55 C56 1.352 . S
C56 C55 1.352 . S
C56 C57 1.384 . S
C56 H78 0.930 . S
C57 C52 1.407 . S
C57 C56 1.384 . S
C57 H79 0.929 . S
C58 O68 1.241 . S
C58 O69 1.273 . S
C59 O70 1.251 . S
C59 O71 1.268 . S
O60 Nd40 2.500 1_565 S
O60 C42 1.258 . S
O61 Nd40 2.492 1_565 S
O61 C42 1.239 . S
O62 Nd40 2.487 . S
O62 C49 1.241 . S
O63 Nd40 2.682 . S
O63 Nd41 2.414 . S
O63 C49 1.273 . S
O64 Nd40 2.410 1_565 S
O64 C50 1.251 . S
O65 Nd41 2.424 1_565 S
O65 C50 1.268 . S
O66 Nd41 2.500 . S
O66 C51 1.258 . S
O67 Nd41 2.492 . S
O67 C51 1.239 . S
O68 Nd41 2.487 . S
O68 C58 1.241 . S
O69 Nd40 2.414 . S
O69 Nd41 2.682 . S
O69 C58 1.273 . S
O70 Nd41 2.410 . S
O70 C59 1.251 . S
O71 Nd40 2.424 . S
O71 C59 1.268 . S
H72 C44 0.930 . S
H73 C45 0.929 . S
H74 C47 0.930 . S
H75 C48 0.929 . S
H76 C53 0.930 . S
H77 C54 0.929 . S
H78 C56 0.930 . S
H79 C57 0.929 . S
Nd80 C82 2.836 . S
Nd80 O100 2.500 . S
Nd80 O101 2.492 . S
Nd80 O102 2.487 . S
Nd80 O103 2.682 . S
Nd80 O104 2.410 . S
Nd80 O109 2.414 . S
Nd80 O111 2.424 . S
Nd81 C91 2.836 . S
Nd81 O103 2.414 . S
Nd81 O105 2.424 . S
Nd81 O106 2.500 . S
Nd81 O107 2.492 . S
Nd81 O108 2.487 . S
Nd81 O109 2.682 . S
Nd81 O110 2.410 . S
C82 Nd80 2.836 . S
C82 C83 1.498 . S
C82 O100 1.258 . S
C82 O101 1.239 . S
C83 C82 1.498 . S
C83 C84 1.366 . S
C83 C88 1.407 . S
C84 C83 1.366 . S
C84 C85 1.392 . S
C84 H112 0.930 . S
C85 C84 1.392 . S
C85 C86 1.398 . S
C85 H113 0.929 . S
C86 C85 1.398 . S
C86 C87 1.352 . S
C87 C86 1.352 . S
C87 C88 1.384 . S
C87 H114 0.930 . S
C88 C83 1.407 . S
C88 C87 1.384 . S
C88 H115 0.929 . S
C89 O102 1.241 . S
C89 O103 1.273 . S
C90 O104 1.251 . S
C90 O105 1.268 . S
C91 Nd81 2.836 . S
C91 C92 1.498 . S
C91 O106 1.258 . S
C91 O107 1.239 . S
C92 C91 1.498 . S
C92 C93 1.366 . S
C92 C97 1.407 . S
C93 C92 1.366 . S
C93 C94 1.392 . S
C93 H116 0.930 . S
C94 C93 1.392 . S
C94 C95 1.398 . S
C94 H117 0.929 . S
C95 C94 1.398 . S
C95 C96 1.352 . S
C96 C95 1.352 . S
C96 C97 1.384 . S
C96 H118 0.930 . S
C97 C92 1.407 . S
C97 C96 1.384 . S
C97 H119 0.929 . S
C98 O108 1.241 . S
C98 O109 1.273 . S
C99 O110 1.251 . S
C99 O111 1.268 . S
O100 Nd80 2.500 . S
O100 C82 1.258 . S
O101 Nd80 2.492 . S
O101 C82 1.239 . S
O102 Nd80 2.487 . S
O102 C89 1.241 . S
O103 Nd80 2.682 . S
O103 Nd81 2.414 . S
O103 C89 1.273 . S
O104 Nd80 2.410 . S
O104 C90 1.251 . S
O105 Nd81 2.424 . S
O105 C90 1.268 . S
O106 Nd81 2.500 . S
O106 C91 1.258 . S
O107 Nd81 2.492 . S
O107 C91 1.239 . S
O108 Nd81 2.487 . S
O108 C98 1.241 . S
O109 Nd80 2.414 . S
O109 Nd81 2.682 . S
O109 C98 1.273 . S
O110 Nd81 2.410 . S
O110 C99 1.251 . S
O111 Nd80 2.424 . S
O111 C99 1.268 . S
H112 C84 0.930 . S
H113 C85 0.929 . S
H114 C87 0.930 . S
H115 C88 0.929 . S
H116 C93 0.930 . S
H117 C94 0.929 . S
H118 C96 0.930 . S
H119 C97 0.929 . S
P120 O131 1.490 . S
P120 C134 1.812 . S
P120 C140 1.803 1_565 S
P120 C146 1.819 1_565 S
H121 C135 0.941 . S
H122 C136 0.939 . S
H123 C138 0.940 . S
H124 C139 0.940 1_545 S
H125 C141 0.939 . S
H126 C142 0.942 . S
H127 C144 0.940 . S
H128 C145 0.939 . S
H129 C147 0.941 . S
H130 C151 0.939 . S
O131 P120 1.490 . S
H132 C148 0.939 . S
H133 C150 0.940 . S
C134 P120 1.812 . S
C134 C135 1.389 . S
C134 C139 1.391 . S
C135 H121 0.941 . S
C135 C134 1.389 . S
C135 C136 1.397 . S
C136 H122 0.939 . S
C136 C135 1.397 . S
C136 C137 1.378 . S
C137 C136 1.378 . S
C137 C138 1.378 . S
C138 H123 0.940 . S
C138 C137 1.378 . S
C138 C139 1.396 . S
C139 H124 0.940 1_565 S
C139 C134 1.391 . S
C139 C138 1.396 . S
C140 P120 1.803 1_545 S
C140 C141 1.378 . S
C140 C145 1.400 . S
C141 H125 0.939 . S
C141 C140 1.378 . S
C141 C142 1.361 . S
C142 H126 0.942 . S
C142 C141 1.361 . S
C142 C143 1.369 . S
C143 C142 1.369 . S
C143 C144 1.404 . S
C144 H127 0.940 . S
C144 C143 1.404 . S
C144 C145 1.389 . S
C145 H128 0.939 . S
C145 C140 1.400 . S
C145 C144 1.389 . S
C146 P120 1.819 1_545 S
C146 C147 1.391 1_545 S
C146 C151 1.391 . S
C147 H129 0.941 . S
C147 C146 1.391 1_565 S
C147 C148 1.396 . S
C148 H132 0.939 . S
C148 C147 1.396 . S
C148 C149 1.397 1_565 S
C149 C148 1.397 1_545 S
C149 C150 1.385 . S
C150 H133 0.940 . S
C150 C149 1.385 . S
C150 C151 1.388 . S
C151 H130 0.939 . S
C151 C146 1.391 . S
C151 C150 1.388 . S
P152 O163 1.490 . S
P152 C166 1.812 . S
P152 C172 1.803 . S
P152 C178 1.819 . S
H153 C167 0.941 . S
H154 C168 0.939 . S
H155 C170 0.940 . S
H156 C171 0.940 . S
H157 C173 0.939 . S
H158 C174 0.942 . S
H159 C176 0.940 . S
H160 C177 0.939 . S
H161 C179 0.941 . S
H162 C183 0.939 . S
O163 P152 1.490 . S
H164 C180 0.939 . S
H165 C182 0.940 . S
C166 P152 1.812 . S
C166 C167 1.389 . S
C166 C171 1.391 . S
C167 H153 0.941 . S
C167 C166 1.389 . S
C167 C168 1.397 . S
C168 H154 0.939 . S
C168 C167 1.397 . S
C168 C169 1.378 . S
C169 C168 1.378 . S
C169 C170 1.378 . S
C170 H155 0.940 . S
C170 C169 1.378 . S
C170 C171 1.396 . S
C171 H156 0.940 . S
C171 C166 1.391 . S
C171 C170 1.396 . S
C172 P152 1.803 . S
C172 C173 1.378 . S
C172 C177 1.400 . S
C173 H157 0.939 . S
C173 C172 1.378 . S
C173 C174 1.361 . S
C174 H158 0.942 . S
C174 C173 1.361 . S
C174 C175 1.369 . S
C175 C174 1.369 . S
C175 C176 1.404 . S
C176 H159 0.940 . S
C176 C175 1.404 . S
C176 C177 1.389 . S
C177 H160 0.939 . S
C177 C172 1.400 . S
C177 C176 1.389 . S
C178 P152 1.819 . S
C178 C179 1.391 . S
C178 C183 1.391 . S
C179 H161 0.941 . S
C179 C178 1.391 . S
C179 C180 1.396 . S
C180 H164 0.939 . S
C180 C179 1.396 . S
C180 C181 1.397 . S
C181 C180 1.397 . S
C181 C182 1.385 . S
C182 H165 0.940 . S
C182 C181 1.385 . S
C182 C183 1.388 . S
C183 H162 0.939 . S
C183 C178 1.391 . S
C183 C182 1.388 . S
P184 O195 1.490 . S
P184 C198 1.812 . S
P184 C204 1.803 . S
P184 C210 1.819 . S
H185 C199 0.941 . S
H186 C200 0.939 . S
H187 C202 0.940 . S
H188 C203 0.940 . S
H189 C205 0.939 1_455 S
H190 C206 0.942 . S
H191 C208 0.940 . S
H192 C209 0.939 . S
H193 C211 0.941 . S
H194 C215 0.936 . S
O195 P184 1.490 . S
H196 C212 0.939 . S
H197 C214 0.940 1_655 S
C198 P184 1.812 . S
C198 C199 1.389 . S
C198 C203 1.391 . S
C199 H185 0.941 . S
C199 C198 1.389 . S
C199 C200 1.397 . S
C200 H186 0.939 . S
C200 C199 1.397 . S
C200 C201 1.378 . S
C201 C200 1.378 . S
C201 C202 1.378 . S
C202 H187 0.940 . S
C202 C201 1.378 . S
C202 C203 1.396 . S
C203 H188 0.940 . S
C203 C198 1.391 . S
C203 C202 1.396 . S
C204 P184 1.803 . S
C204 C205 1.378 1_455 S
C204 C209 1.400 . S
C205 H189 0.939 1_655 S
C205 C204 1.378 1_655 S
C205 C206 1.361 . S
C206 H190 0.942 . S
C206 C205 1.361 . S
C206 C207 1.369 . S
C207 C206 1.369 . S
C207 C208 1.404 . S
C208 H191 0.940 . S
C208 C207 1.404 . S
C208 C209 1.389 1_655 S
C209 H192 0.939 . S
C209 C204 1.400 . S
C209 C208 1.389 1_455 S
C210 P184 1.819 . S
C210 C211 1.391 . S
C210 C215 1.391 . S
C211 H193 0.941 . S
C211 C210 1.391 . S
C211 C212 1.396 . S
C212 H196 0.939 . S
C212 C211 1.396 . S
C212 C213 1.397 . S
C213 C212 1.397 . S
C213 C214 1.385 . S
C214 H197 0.940 1_455 S
C214 C213 1.385 . S
C214 C215 1.388 . S
C215 H194 0.936 . S
C215 C210 1.391 . S
C215 C214 1.388 . S
P216 O227 1.490 . S
P216 C230 1.812 . S
P216 C236 1.803 1_455 S
P216 C242 1.819 . S
H217 C231 0.941 . S
H218 C232 0.939 . S
H219 C234 0.940 . S
H220 C235 0.940 . S
H221 C237 0.939 . S
H222 C238 0.942 . S
H223 C240 0.940 . S
H224 C241 0.939 . S
H225 C243 0.941 . S
H226 C247 0.939 . S
O227 P216 1.490 . S
H228 C244 0.939 . S
H229 C246 0.940 . S
C230 P216 1.812 . S
C230 C231 1.389 . S
C230 C235 1.391 . S
C231 H217 0.941 . S
C231 C230 1.389 . S
C231 C232 1.397 . S
C232 H218 0.939 . S
C232 C231 1.397 . S
C232 C233 1.378 . S
C233 C232 1.378 . S
C233 C234 1.378 . S
C234 H219 0.940 . S
C234 C233 1.378 . S
C234 C235 1.396 . S
C235 H220 0.940 . S
C235 C230 1.391 . S
C235 C234 1.396 . S
C236 P216 1.803 1_655 S
C236 C237 1.378 . S
C236 C241 1.400 . S
C237 H221 0.939 . S
C237 C236 1.378 . S
C237 C238 1.361 . S
C238 H222 0.942 . S
C238 C237 1.361 . S
C238 C239 1.369 . S
C239 C238 1.369 . S
C239 C240 1.404 . S
C240 H223 0.940 . S
C240 C239 1.404 . S
C240 C241 1.389 . S
C241 H224 0.939 . S
C241 C236 1.400 . S
C241 C240 1.389 . S
C242 P216 1.819 . S
C242 C243 1.391 . S
C242 C247 1.391 1_455 S
C243 H225 0.941 . S
C243 C242 1.391 . S
C243 C244 1.396 . S
C244 H228 0.939 . S
C244 C243 1.396 . S
C244 C245 1.397 . S
C245 C244 1.397 . S
C245 C246 1.385 1_455 S
C246 H229 0.940 . S
C246 C245 1.385 1_655 S
C246 C247 1.388 . S
C247 H226 0.939 . S
C247 C242 1.391 1_655 S
C247 C246 1.388 . S
P248 O259 1.490 . S
P248 C262 1.812 . S
P248 C268 1.803 1_545 S
P248 C274 1.819 . S
H249 C263 0.941 . S
H250 C264 0.939 . S
H251 C266 0.940 . S
H252 C267 0.940 . S
H253 C269 0.939 . S
H254 C270 0.942 . S
H255 C272 0.940 . S
H256 C273 0.939 . S
H257 C275 0.941 . S
H258 C279 0.939 . S
O259 P248 1.490 . S
H260 C276 0.939 . S
H261 C278 0.940 . S
C262 P248 1.812 . S
C262 C263 1.389 . S
C262 C267 1.391 . S
C263 H249 0.941 . S
C263 C262 1.389 . S
C263 C264 1.397 . S
C264 H250 0.939 . S
C264 C263 1.397 . S
C264 C265 1.378 . S
C265 C264 1.378 . S
C265 C266 1.378 . S
C266 H251 0.940 . S
C266 C265 1.378 . S
C266 C267 1.396 . S
C267 H252 0.940 . S
C267 C262 1.391 . S
C267 C266 1.396 . S
C268 P248 1.803 1_565 S
C268 C269 1.378 . S
C268 C273 1.400 . S
C269 H253 0.939 . S
C269 C268 1.378 . S
C269 C270 1.361 . S
C270 H254 0.942 . S
C270 C269 1.361 . S
C270 C271 1.369 . S
C271 C270 1.369 . S
C271 C272 1.404 . S
C272 H255 0.940 . S
C272 C271 1.404 . S
C272 C273 1.389 . S
C273 H256 0.939 . S
C273 C268 1.400 . S
C273 C272 1.389 . S
C274 P248 1.819 . S
C274 C275 1.391 . S
C274 C279 1.391 1_545 S
C275 H257 0.941 . S
C275 C274 1.391 . S
C275 C276 1.396 . S
C276 H260 0.939 . S
C276 C275 1.396 . S
C276 C277 1.397 . S
C277 C276 1.397 . S
C277 C278 1.385 1_545 S
C278 H261 0.940 . S
C278 C277 1.385 1_565 S
C278 C279 1.388 . S
C279 H258 0.939 . S
C279 C274 1.391 1_565 S
C279 C278 1.388 . S
P280 O291 1.490 . S
P280 C294 1.812 . S
P280 C300 1.803 . S
P280 C306 1.819 . S
H281 C295 0.941 . S
H282 C296 0.939 . S
H283 C298 0.940 . S
H284 C299 0.940 . S
H285 C301 0.939 . S
H286 C302 0.942 . S
H287 C304 0.940 . S
H288 C305 0.939 . S
H289 C307 0.941 . S
H290 C311 0.939 . S
O291 P280 1.490 . S
H292 C308 0.939 . S
H293 C310 0.940 . S
C294 P280 1.812 . S
C294 C295 1.389 . S
C294 C299 1.391 . S
C295 H281 0.941 . S
C295 C294 1.389 . S
C295 C296 1.397 . S
C296 H282 0.939 . S
C296 C295 1.397 . S
C296 C297 1.378 . S
C297 C296 1.378 . S
C297 C298 1.378 . S
C298 H283 0.940 . S
C298 C297 1.378 . S
C298 C299 1.396 . S
C299 H284 0.940 . S
C299 C294 1.391 . S
C299 C298 1.396 . S
C300 P280 1.803 . S
C300 C301 1.378 . S
C300 C305 1.400 . S
C301 H285 0.939 . S
C301 C300 1.378 . S
C301 C302 1.361 . S
C302 H286 0.942 . S
C302 C301 1.361 . S
C302 C303 1.369 . S
C303 C302 1.369 . S
C303 C304 1.404 . S
C304 H287 0.940 . S
C304 C303 1.404 . S
C304 C305 1.389 . S
C305 H288 0.939 . S
C305 C300 1.400 . S
C305 C304 1.389 . S
C306 P280 1.819 . S
C306 C307 1.391 . S
C306 C311 1.391 . S
C307 H289 0.941 . S
C307 C306 1.391 . S
C307 C308 1.396 . S
C308 H292 0.939 . S
C308 C307 1.396 . S
C308 C309 1.397 . S
C309 C308 1.397 . S
C309 C310 1.385 . S
C310 H293 0.940 . S
C310 C309 1.385 . S
C310 C311 1.388 . S
C311 H290 0.939 . S
C311 C306 1.391 . S
C311 C310 1.388 . S
C312 C313 1.349 . S
C312 C314 1.327 . S
C312 H337 0.950 . S
C313 C312 1.349 . S
C313 C329 1.349 . S
C314 C312 1.327 . S
C314 C333 1.429 . S
C314 H338 0.950 . S
C315 C332 1.574 . S
C315 C334 1.368 . S
C315 H339 0.949 . S
H316 C320 0.949 . S
C317 C318 1.349 . S
C317 C319 1.327 . S
C317 H340 0.950 . S
C318 C317 1.349 . S
C318 C330 1.349 . S
C319 C317 1.327 . S
C319 C335 1.429 . S
C319 H341 0.950 . S
C320 H316 0.949 . S
C320 C328 1.574 . S
C320 C336 1.368 . S
H321 C329 0.950 . S
H322 C327 0.950 . S
H323 C328 0.949 . S
H324 C330 0.950 . S
H325 C331 0.950 . S
H326 C332 0.949 . S
C327 H322 0.950 . S
C327 C329 1.327 . S
C327 C333 1.429 . S
C328 C320 1.574 . S
C328 H323 0.949 . S
C328 C334 1.368 . S
C329 C313 1.349 . S
C329 H321 0.950 . S
C329 C327 1.327 . S
C330 C318 1.349 . S
C330 H324 0.950 . S
C330 C331 1.327 . S
C331 H325 0.950 . S
C331 C330 1.327 . S
C331 C335 1.429 . S
C332 C315 1.574 . S
C332 H326 0.949 . S
C332 C336 1.368 . S
C333 C314 1.429 . S
C333 C327 1.429 . S
C333 C334 1.523 . S
C334 C315 1.368 . S
C334 C328 1.368 . S
C334 C333 1.523 . S
C335 C319 1.429 . S
C335 C331 1.429 . S
C335 C336 1.523 . S
C336 C320 1.368 . S
C336 C332 1.368 . S
C336 C335 1.523 . S
H337 C312 0.950 . S
H338 C314 0.950 . S
H339 C315 0.949 . S
H340 C317 0.950 . S
H341 C319 0.950 . S
C342 C343 1.349 . S
C342 C344 1.327 . S
C342 H367 0.950 . S
C343 C342 1.349 . S
C343 C359 1.349 . S
C344 C342 1.327 . S
C344 C363 1.429 . S
C344 H368 0.950 . S
C345 C362 1.574 . S
C345 C364 1.368 . S
C345 H369 0.949 . S
H346 C350 0.949 . S
C347 C348 1.349 . S
C347 C349 1.327 . S
C347 H370 0.950 . S
C348 C347 1.349 . S
C348 C360 1.349 . S
C349 C347 1.327 . S
C349 C365 1.429 . S
C349 H371 0.950 . S
C350 H346 0.949 . S
C350 C358 1.574 . S
C350 C366 1.368 . S
H351 C359 0.950 . S
H352 C357 0.950 . S
H353 C358 0.949 . S
H354 C360 0.950 . S
H355 C361 0.950 . S
H356 C362 0.949 . S
C357 H352 0.950 . S
C357 C359 1.327 . S
C357 C363 1.429 . S
C358 C350 1.574 . S
C358 H353 0.949 . S
C358 C364 1.368 . S
C359 C343 1.349 . S
C359 H351 0.950 . S
C359 C357 1.327 . S
C360 C348 1.349 . S
C360 H354 0.950 . S
C360 C361 1.327 . S
C361 H355 0.950 . S
C361 C360 1.327 . S
C361 C365 1.429 . S
C362 C345 1.574 . S
C362 H356 0.949 . S
C362 C366 1.368 . S
C363 C344 1.429 . S
C363 C357 1.429 . S
C363 C364 1.523 . S
C364 C345 1.368 . S
C364 C358 1.368 . S
C364 C363 1.523 . S
C365 C349 1.429 . S
C365 C361 1.429 . S
C365 C366 1.523 . S
C366 C350 1.368 . S
C366 C362 1.368 . S
C366 C365 1.523 . S
H367 C342 0.950 . S
H368 C344 0.950 . S
H369 C345 0.949 . S
H370 C347 0.950 . S
H371 C349 0.950 . S
C372 C373 1.349 . S
C372 C374 1.327 . S
C372 H397 0.950 . S
C373 C372 1.349 . S
C373 C389 1.349 . S
C374 C372 1.327 . S
C374 C393 1.429 . S
C374 H398 0.950 . S
C375 C392 1.574 . S
C375 C394 1.368 . S
C375 H399 0.949 . S
H376 C380 0.949 . S
C377 C378 1.349 . S
C377 C379 1.327 . S
C377 H400 0.950 . S
C378 C377 1.349 . S
C378 C390 1.349 . S
C379 C377 1.327 . S
C379 C395 1.429 . S
C379 H401 0.950 . S
C380 H376 0.949 . S
C380 C388 1.574 . S
C380 C396 1.368 . S
H381 C389 0.950 . S
H382 C387 0.950 . S
H383 C388 0.949 . S
H384 C390 0.950 . S
H385 C391 0.950 . S
H386 C392 0.949 . S
C387 H382 0.950 . S
C387 C389 1.327 . S
C387 C393 1.429 . S
C388 C380 1.574 . S
C388 H383 0.949 . S
C388 C394 1.368 . S
C389 C373 1.349 . S
C389 H381 0.950 . S
C389 C387 1.327 . S
C390 C378 1.349 . S
C390 H384 0.950 . S
C390 C391 1.327 . S
C391 H385 0.950 . S
C391 C390 1.327 . S
C391 C395 1.429 . S
C392 C375 1.574 . S
C392 H386 0.949 . S
C392 C396 1.368 . S
C393 C374 1.429 . S
C393 C387 1.429 . S
C393 C394 1.523 . S
C394 C375 1.368 . S
C394 C388 1.368 . S
C394 C393 1.523 . S
C395 C379 1.429 . S
C395 C391 1.429 . S
C395 C396 1.523 . S
C396 C380 1.368 . S
C396 C392 1.368 . S
C396 C395 1.523 . S
H397 C372 0.950 . S
H398 C374 0.950 . S
H399 C375 0.949 . S
H400 C377 0.950 . S
H401 C379 0.950 . S
C402 C403 1.349 . S
C402 C404 1.327 . S
C402 H427 0.950 . S
C403 C402 1.349 . S
C403 C419 1.349 . S
C404 C402 1.327 . S
C404 C423 1.429 . S
C404 H428 0.950 . S
C405 C422 1.574 . S
C405 C424 1.368 . S
C405 H429 0.949 . S
H406 C410 0.949 . S
C407 C408 1.349 . S
C407 C409 1.327 . S
C407 H430 0.950 . S
C408 C407 1.349 . S
C408 C420 1.349 . S
C409 C407 1.327 . S
C409 C425 1.429 . S
C409 H431 0.950 . S
C410 H406 0.949 . S
C410 C418 1.574 . S
C410 C426 1.368 . S
H411 C419 0.950 . S
H412 C417 0.950 . S
H413 C418 0.949 . S
H414 C420 0.950 . S
H415 C421 0.950 . S
H416 C422 0.949 . S
C417 H412 0.950 . S
C417 C419 1.327 . S
C417 C423 1.429 . S
C418 C410 1.574 . S
C418 H413 0.949 . S
C418 C424 1.368 . S
C419 C403 1.349 . S
C419 H411 0.950 . S
C419 C417 1.327 . S
C420 C408 1.349 . S
C420 H414 0.950 . S
C420 C421 1.327 . S
C421 H415 0.950 . S
C421 C420 1.327 . S
C421 C425 1.429 . S
C422 C405 1.574 . S
C422 H416 0.949 . S
C422 C426 1.368 . S
C423 C404 1.429 . S
C423 C417 1.429 . S
C423 C424 1.523 . S
C424 C405 1.368 . S
C424 C418 1.368 . S
C424 C423 1.523 . S
C425 C409 1.429 . S
C425 C421 1.429 . S
C425 C426 1.523 . S
C426 C410 1.368 . S
C426 C422 1.368 . S
C426 C425 1.523 . S
H427 C402 0.950 . S
H428 C404 0.950 . S
H429 C405 0.949 . S
H430 C407 0.950 . S
H431 C409 0.950 . S
C432 C433 1.349 . S
C432 C434 1.327 . S
C432 H457 0.950 . S
C433 C432 1.349 . S
C433 C449 1.349 . S
C434 C432 1.327 . S
C434 C453 1.429 . S
C434 H458 0.950 . S
C435 C452 1.574 . S
C435 C454 1.368 . S
C435 H459 0.949 . S
H436 C440 0.949 . S
C437 C438 1.349 . S
C437 C439 1.327 . S
C437 H460 0.950 . S
C438 C437 1.349 . S
C438 C450 1.349 . S
C439 C437 1.327 . S
C439 C455 1.429 . S
C439 H461 0.950 . S
C440 H436 0.949 . S
C440 C448 1.574 . S
C440 C456 1.368 . S
H441 C449 0.950 . S
H442 C447 0.950 . S
H443 C448 0.949 . S
H444 C450 0.950 . S
H445 C451 0.950 . S
H446 C452 0.949 . S
C447 H442 0.950 . S
C447 C449 1.327 . S
C447 C453 1.429 . S
C448 C440 1.574 . S
C448 H443 0.949 . S
C448 C454 1.368 . S
C449 C433 1.349 . S
C449 H441 0.950 . S
C449 C447 1.327 . S
C450 C438 1.349 . S
C450 H444 0.950 . S
C450 C451 1.327 . S
C451 H445 0.950 . S
C451 C450 1.327 . S
C451 C455 1.429 . S
C452 C435 1.574 . S
C452 H446 0.949 . S
C452 C456 1.368 . S
C453 C434 1.429 . S
C453 C447 1.429 . S
C453 C454 1.523 . S
C454 C435 1.368 . S
C454 C448 1.368 . S
C454 C453 1.523 . S
C455 C439 1.429 . S
C455 C451 1.429 . S
C455 C456 1.523 . S
C456 C440 1.368 . S
C456 C452 1.368 . S
C456 C455 1.523 . S
H457 C432 0.950 . S
H458 C434 0.950 . S
H459 C435 0.949 . S
H460 C437 0.950 . S
H461 C439 0.950 . S
C462 C463 1.349 . S
C462 C464 1.327 . S
C462 H487 0.950 . S
C463 C462 1.349 . S
C463 C479 1.349 . S
C464 C462 1.327 . S
C464 C483 1.429 . S
C464 H488 0.950 . S
C465 C482 1.574 . S
C465 C484 1.368 . S
C465 H489 0.949 . S
H466 C470 0.949 . S
C467 C468 1.349 . S
C467 C469 1.327 . S
C467 H490 0.950 . S
C468 C467 1.349 . S
C468 C480 1.349 . S
C469 C467 1.327 . S
C469 C485 1.429 . S
C469 H491 0.950 . S
C470 H466 0.949 . S
C470 C478 1.574 . S
C470 C486 1.368 . S
H471 C479 0.950 . S
H472 C477 0.950 . S
H473 C478 0.949 . S
H474 C480 0.950 . S
H475 C481 0.950 . S
H476 C482 0.949 . S
C477 H472 0.950 . S
C477 C479 1.327 . S
C477 C483 1.429 . S
C478 C470 1.574 . S
C478 H473 0.949 . S
C478 C484 1.368 . S
C479 C463 1.349 . S
C479 H471 0.950 . S
C479 C477 1.327 . S
C480 C468 1.349 . S
C480 H474 0.950 . S
C480 C481 1.327 . S
C481 H475 0.950 . S
C481 C480 1.327 . S
C481 C485 1.429 . S
C482 C465 1.574 . S
C482 H476 0.949 . S
C482 C486 1.368 . S
C483 C464 1.429 . S
C483 C477 1.429 . S
C483 C484 1.523 . S
C484 C465 1.368 . S
C484 C478 1.368 . S
C484 C483 1.523 . S
C485 C469 1.429 . S
C485 C481 1.429 . S
C485 C486 1.523 . S
C486 C470 1.368 . S
C486 C482 1.368 . S
C486 C485 1.523 . S
H487 C462 0.950 . S
H488 C464 0.950 . S
H489 C465 0.949 . S
H490 C467 0.950 . S
H491 C469 0.950 . S
C492 C493 1.349 . S
C492 C494 1.327 . S
C492 H517 0.950 . S
C493 C492 1.349 . S
C493 C509 1.349 . S
C494 C492 1.327 . S
C494 C513 1.429 . S
C494 H518 0.950 . S
C495 C512 1.574 . S
C495 C514 1.368 . S
C495 H519 0.949 . S
H496 C500 0.949 . S
C497 C498 1.349 . S
C497 C499 1.327 . S
C497 H520 0.950 . S
C498 C497 1.349 . S
C498 C510 1.349 . S
C499 C497 1.327 . S
C499 C515 1.429 . S
C499 H521 0.950 . S
C500 H496 0.949 . S
C500 C508 1.574 . S
C500 C516 1.368 . S
H501 C509 0.950 . S
H502 C507 0.950 . S
H503 C508 0.949 . S
H504 C510 0.950 . S
H505 C511 0.950 . S
H506 C512 0.949 . S
C507 H502 0.950 . S
C507 C509 1.327 . S
C507 C513 1.429 . S
C508 C500 1.574 . S
C508 H503 0.949 . S
C508 C514 1.368 . S
C509 C493 1.349 . S
C509 H501 0.950 . S
C509 C507 1.327 . S
C510 C498 1.349 . S
C510 H504 0.950 . S
C510 C511 1.327 . S
C511 H505 0.950 . S
C511 C510 1.327 . S
C511 C515 1.429 . S
C512 C495 1.574 . S
C512 H506 0.949 . S
C512 C516 1.368 . S
C513 C494 1.429 . S
C513 C507 1.429 . S
C513 C514 1.523 . S
C514 C495 1.368 . S
C514 C508 1.368 . S
C514 C513 1.523 . S
C515 C499 1.429 . S
C515 C511 1.429 . S
C515 C516 1.523 . S
C516 C500 1.368 . S
C516 C512 1.368 . S
C516 C515 1.523 . S
H517 C492 0.950 . S
H518 C494 0.950 . S
H519 C495 0.949 . S
H520 C497 0.950 . S
H521 C499 0.950 . S
C522 C523 1.349 . S
C522 C524 1.327 . S
C522 H547 0.950 . S
C523 C522 1.349 . S
C523 C539 1.349 . S
C524 C522 1.327 . S
C524 C543 1.429 . S
C524 H548 0.950 . S
C525 C542 1.574 . S
C525 C544 1.368 . S
C525 H549 0.949 . S
H526 C530 0.949 . S
C527 C528 1.349 . S
C527 C529 1.327 . S
C527 H550 0.950 . S
C528 C527 1.349 . S
C528 C540 1.349 . S
C529 C527 1.327 . S
C529 C545 1.429 . S
C529 H551 0.950 . S
C530 H526 0.949 . S
C530 C538 1.574 . S
C530 C546 1.368 . S
H531 C539 0.950 . S
H532 C537 0.950 . S
H533 C538 0.949 . S
H534 C540 0.950 . S
H535 C541 0.950 . S
H536 C542 0.949 . S
C537 H532 0.950 . S
C537 C539 1.327 . S
C537 C543 1.429 . S
C538 C530 1.574 . S
C538 H533 0.949 . S
C538 C544 1.368 . S
C539 C523 1.349 . S
C539 H531 0.950 . S
C539 C537 1.327 . S
C540 C528 1.349 . S
C540 H534 0.950 . S
C540 C541 1.327 . S
C541 H535 0.950 . S
C541 C540 1.327 . S
C541 C545 1.429 . S
C542 C525 1.574 . S
C542 H536 0.949 . S
C542 C546 1.368 . S
C543 C524 1.429 . S
C543 C537 1.429 . S
C543 C544 1.523 . S
C544 C525 1.368 . S
C544 C538 1.368 . S
C544 C543 1.523 . S
C545 C529 1.429 . S
C545 C541 1.429 . S
C545 C546 1.523 . S
C546 C530 1.368 . S
C546 C542 1.368 . S
C546 C545 1.523 . S
H547 C522 0.950 . S
H548 C524 0.950 . S
H549 C525 0.949 . S
H550 C527 0.950 . S
H551 C529 0.950 . S
C552 C553 1.349 . S
C552 C554 1.327 . S
C552 H577 0.950 . S
C553 C552 1.349 . S
C553 C569 1.349 . S
C554 C552 1.327 . S
C554 C573 1.429 . S
C554 H578 0.950 . S
C555 C572 1.574 . S
C555 C574 1.368 . S
C555 H579 0.949 . S
H556 C560 0.949 . S
C557 C558 1.349 . S
C557 C559 1.327 . S
C557 H580 0.950 . S
C558 C557 1.349 . S
C558 C570 1.349 . S
C559 C557 1.327 . S
C559 C575 1.429 . S
C559 H581 0.950 . S
C560 H556 0.949 . S
C560 C568 1.574 . S
C560 C576 1.368 . S
H561 C569 0.950 . S
H562 C567 0.950 . S
H563 C568 0.949 . S
H564 C570 0.950 . S
H565 C571 0.950 . S
H566 C572 0.949 . S
C567 H562 0.950 . S
C567 C569 1.327 . S
C567 C573 1.429 . S
C568 C560 1.574 . S
C568 H563 0.949 . S
C568 C574 1.368 . S
C569 C553 1.349 . S
C569 H561 0.950 . S
C569 C567 1.327 . S
C570 C558 1.349 . S
C570 H564 0.950 . S
C570 C571 1.327 . S
C571 H565 0.950 . S
C571 C570 1.327 . S
C571 C575 1.429 . S
C572 C555 1.574 . S
C572 H566 0.949 . S
C572 C576 1.368 . S
C573 C554 1.429 . S
C573 C567 1.429 . S
C573 C574 1.523 . S
C574 C555 1.368 . S
C574 C568 1.368 . S
C574 C573 1.523 . S
C575 C559 1.429 . S
C575 C571 1.429 . S
C575 C576 1.523 . S
C576 C560 1.368 . S
C576 C572 1.368 . S
C576 C575 1.523 . S
H577 C552 0.950 . S
H578 C554 0.950 . S
H579 C555 0.949 . S
H580 C557 0.950 . S
H581 C559 0.950 . S
C582 C583 1.349 . S
C582 C584 1.327 . S
C582 H607 0.950 . S
C583 C582 1.349 . S
C583 C599 1.349 . S
C584 C582 1.327 . S
C584 C603 1.429 . S
C584 H608 0.950 . S
C585 C602 1.574 . S
C585 C604 1.368 . S
C585 H609 0.949 . S
H586 C590 0.949 . S
C587 C588 1.349 . S
C587 C589 1.327 . S
C587 H610 0.950 . S
C588 C587 1.349 . S
C588 C600 1.349 . S
C589 C587 1.327 . S
C589 C605 1.429 . S
C589 H611 0.950 . S
C590 H586 0.949 . S
C590 C598 1.574 . S
C590 C606 1.368 . S
H591 C599 0.950 . S
H592 C597 0.950 . S
H593 C598 0.949 . S
H594 C600 0.950 . S
H595 C601 0.950 . S
H596 C602 0.949 . S
C597 H592 0.950 . S
C597 C599 1.327 . S
C597 C603 1.429 . S
C598 C590 1.574 . S
C598 H593 0.949 . S
C598 C604 1.368 . S
C599 C583 1.349 . S
C599 H591 0.950 . S
C599 C597 1.327 . S
C600 C588 1.349 . S
C600 H594 0.950 . S
C600 C601 1.327 . S
C601 H595 0.950 . S
C601 C600 1.327 . S
C601 C605 1.429 . S
C602 C585 1.574 . S
C602 H596 0.949 . S
C602 C606 1.368 . S
C603 C584 1.429 . S
C603 C597 1.429 . S
C603 C604 1.523 . S
C604 C585 1.368 . S
C604 C598 1.368 . S
C604 C603 1.523 . S
C605 C589 1.429 . S
C605 C601 1.429 . S
C605 C606 1.523 . S
C606 C590 1.368 . S
C606 C602 1.368 . S
C606 C605 1.523 . S
H607 C582 0.950 . S
H608 C584 0.950 . S
H609 C585 0.949 . S
H610 C587 0.950 . S
H611 C589 0.950 . S
C612 C613 1.349 . S
C612 C614 1.327 . S
C612 H637 0.950 . S
C613 C612 1.349 . S
C613 C629 1.349 . S
C614 C612 1.327 . S
C614 C633 1.429 . S
C614 H638 0.950 . S
C615 C632 1.574 . S
C615 C634 1.368 . S
C615 H639 0.949 . S
H616 C620 0.949 . S
C617 C618 1.349 . S
C617 C619 1.327 . S
C617 H640 0.950 . S
C618 C617 1.349 . S
C618 C630 1.349 . S
C619 C617 1.327 . S
C619 C635 1.429 . S
C619 H641 0.950 . S
C620 H616 0.949 . S
C620 C628 1.574 . S
C620 C636 1.368 . S
H621 C629 0.950 . S
H622 C627 0.950 . S
H623 C628 0.949 . S
H624 C630 0.950 . S
H625 C631 0.950 . S
H626 C632 0.949 . S
C627 H622 0.950 . S
C627 C629 1.327 . S
C627 C633 1.429 . S
C628 C620 1.574 . S
C628 H623 0.949 . S
C628 C634 1.368 . S
C629 C613 1.349 . S
C629 H621 0.950 . S
C629 C627 1.327 . S
C630 C618 1.349 . S
C630 H624 0.950 . S
C630 C631 1.327 . S
C631 H625 0.950 . S
C631 C630 1.327 . S
C631 C635 1.429 . S
C632 C615 1.574 . S
C632 H626 0.949 . S
C632 C636 1.368 . S
C633 C614 1.429 . S
C633 C627 1.429 . S
C633 C634 1.523 . S
C634 C615 1.368 . S
C634 C628 1.368 . S
C634 C633 1.523 . S
C635 C619 1.429 . S
C635 C631 1.429 . S
C635 C636 1.523 . S
C636 C620 1.368 . S
C636 C632 1.368 . S
C636 C635 1.523 . S
H637 C612 0.950 . S
H638 C614 0.950 . S
H639 C615 0.949 . S
H640 C617 0.950 . S
H641 C619 0.950 . S
C642 C643 1.349 . S
C642 C644 1.327 . S
C642 H667 0.950 . S
C643 C642 1.349 . S
C643 C659 1.349 . S
C644 C642 1.327 . S
C644 C663 1.429 . S
C644 H668 0.950 . S
C645 C662 1.574 . S
C645 C664 1.368 . S
C645 H669 0.949 . S
H646 C650 0.949 . S
C647 C648 1.349 . S
C647 C649 1.327 . S
C647 H670 0.950 . S
C648 C647 1.349 . S
C648 C660 1.349 . S
C649 C647 1.327 . S
C649 C665 1.429 . S
C649 H671 0.950 . S
C650 H646 0.949 . S
C650 C658 1.574 . S
C650 C666 1.368 . S
H651 C659 0.950 . S
H652 C657 0.950 . S
H653 C658 0.949 . S
H654 C660 0.950 . S
H655 C661 0.950 . S
H656 C662 0.949 . S
C657 H652 0.950 . S
C657 C659 1.327 . S
C657 C663 1.429 . S
C658 C650 1.574 . S
C658 H653 0.949 . S
C658 C664 1.368 . S
C659 C643 1.349 . S
C659 H651 0.950 . S
C659 C657 1.327 . S
C660 C648 1.349 . S
C660 H654 0.950 . S
C660 C661 1.327 . S
C661 H655 0.950 . S
C661 C660 1.327 . S
C661 C665 1.429 . S
C662 C645 1.574 . S
C662 H656 0.949 . S
C662 C666 1.368 . S
C663 C644 1.429 . S
C663 C657 1.429 . S
C663 C664 1.523 . S
C664 C645 1.368 . S
C664 C658 1.368 . S
C664 C663 1.523 . S
C665 C649 1.429 . S
C665 C661 1.429 . S
C665 C666 1.523 . S
C666 C650 1.368 . S
C666 C662 1.368 . S
C666 C665 1.523 . S
H667 C642 0.950 . S
H668 C644 0.950 . S
H669 C645 0.949 . S
H670 C647 0.950 . S
H671 C649 0.950 . S
C672 C673 1.349 . S
C672 C674 1.327 . S
C672 H697 0.950 1_455 S
C673 C672 1.349 . S
C673 C689 1.349 . S
C674 C672 1.327 . S
C674 C693 1.429 . S
C674 H698 0.950 1_455 S
C675 C692 1.574 . S
C675 C694 1.368 . S
C675 H699 0.949 . S
H676 C680 0.949 1_655 S
C677 C678 1.349 . S
C677 C679 1.327 . S
C677 H700 0.950 . S
C678 C677 1.349 . S
C678 C690 1.349 . S
C679 C677 1.327 . S
C679 C695 1.429 1_556 S
C679 H701 0.950 1_556 S
C680 H676 0.949 1_455 S
C680 C688 1.574 . S
C680 C696 1.368 . S
H681 C689 0.950 . S
H682 C687 0.950 . S
H683 C688 0.949 1_655 S
H684 C690 0.950 1_655 S
H685 C691 0.950 1_655 S
H686 C692 0.949 . S
C687 H682 0.950 . S
C687 C689 1.327 . S
C687 C693 1.429 . S
C688 C680 1.574 . S
C688 H683 0.949 1_455 S
C688 C694 1.368 . S
C689 C673 1.349 . S
C689 H681 0.950 . S
C689 C687 1.327 . S
C690 C678 1.349 . S
C690 H684 0.950 1_455 S
C690 C691 1.327 . S
C691 H685 0.950 1_455 S
C691 C690 1.327 . S
C691 C695 1.429 1_556 S
C692 C675 1.574 . S
C692 H686 0.949 . S
C692 C696 1.368 . S
C693 C674 1.429 . S
C693 C687 1.429 . S
C693 C694 1.523 . S
C694 C675 1.368 . S
C694 C688 1.368 . S
C694 C693 1.523 . S
C695 C679 1.429 1_554 S
C695 C691 1.429 1_554 S
C695 C696 1.523 . S
C696 C680 1.368 . S
C696 C692 1.368 . S
C696 C695 1.523 . S
H697 C672 0.950 1_655 S
H698 C674 0.950 1_655 S
H699 C675 0.949 . S
H700 C677 0.950 . S
H701 C679 0.950 1_554 S
C702 C703 1.349 . S
C702 C704 1.327 . S
C702 H727 0.950 1_545 S
C703 C702 1.349 . S
C703 C719 1.349 . S
C704 C702 1.327 . S
C704 C723 1.429 . S
C704 H728 0.950 1_545 S
C705 C722 1.574 . S
C705 C724 1.368 . S
C705 H729 0.949 . S
H706 C710 0.949 1_565 S
C707 C708 1.349 . S
C707 C709 1.327 . S
C707 H730 0.950 . S
C708 C707 1.349 . S
C708 C720 1.349 . S
C709 C707 1.327 . S
C709 C725 1.429 . S
C709 H731 0.950 . S
C710 H706 0.949 1_545 S
C710 C718 1.574 . S
C710 C726 1.368 . S
H711 C719 0.950 . S
H712 C717 0.950 . S
H713 C718 0.949 1_565 S
H714 C720 0.950 1_565 S
H715 C721 0.950 1_565 S
H716 C722 0.949 . S
C717 H712 0.950 . S
C717 C719 1.327 . S
C717 C723 1.429 . S
C718 C710 1.574 . S
C718 H713 0.949 1_545 S
C718 C724 1.368 . S
C719 C703 1.349 . S
C719 H711 0.950 . S
C719 C717 1.327 . S
C720 C708 1.349 . S
C720 H714 0.950 1_545 S
C720 C721 1.327 . S
C721 H715 0.950 1_545 S
C721 C720 1.327 . S
C721 C725 1.429 . S
C722 C705 1.574 . S
C722 H716 0.949 . S
C722 C726 1.368 . S
C723 C704 1.429 . S
C723 C717 1.429 . S
C723 C724 1.523 . S
C724 C705 1.368 . S
C724 C718 1.368 . S
C724 C723 1.523 . S
C725 C709 1.429 . S
C725 C721 1.429 . S
C725 C726 1.523 . S
C726 C710 1.368 . S
C726 C722 1.368 . S
C726 C725 1.523 . S
H727 C702 0.950 1_565 S
H728 C704 0.950 1_565 S
H729 C705 0.949 . S
H730 C707 0.950 . S
H731 C709 0.950 . S
C732 C733 1.349 . S
C732 C734 1.327 . S
C732 H757 0.950 . S
C733 C732 1.349 . S
C733 C749 1.349 . S
C734 C732 1.327 . S
C734 C753 1.429 . S
C734 H758 0.950 . S
C735 C752 1.574 . S
C735 C754 1.368 . S
C735 H759 0.949 . S
H736 C740 0.949 . S
C737 C738 1.349 . S
C737 C739 1.327 . S
C737 H760 0.950 . S
C738 C737 1.349 . S
C738 C750 1.349 . S
C739 C737 1.327 . S
C739 C755 1.429 . S
C739 H761 0.950 . S
C740 H736 0.949 . S
C740 C748 1.574 . S
C740 C756 1.368 . S
H741 C749 0.950 . S
H742 C747 0.950 . S
H743 C748 0.949 . S
H744 C750 0.950 . S
H745 C751 0.950 . S
H746 C752 0.949 . S
C747 H742 0.950 . S
C747 C749 1.327 . S
C747 C753 1.429 . S
C748 C740 1.574 . S
C748 H743 0.949 . S
C748 C754 1.368 . S
C749 C733 1.349 . S
C749 H741 0.950 . S
C749 C747 1.327 . S
C750 C738 1.349 . S
C750 H744 0.950 . S
C750 C751 1.327 . S
C751 H745 0.950 . S
C751 C750 1.327 . S
C751 C755 1.429 . S
C752 C735 1.574 . S
C752 H746 0.949 . S
C752 C756 1.368 . S
C753 C734 1.429 . S
C753 C747 1.429 . S
C753 C754 1.523 . S
C754 C735 1.368 . S
C754 C748 1.368 . S
C754 C753 1.523 . S
C755 C739 1.429 . S
C755 C751 1.429 . S
C755 C756 1.523 . S
C756 C740 1.368 . S
C756 C752 1.368 . S
C756 C755 1.523 . S
H757 C732 0.950 . S
H758 C734 0.950 . S
H759 C735 0.949 . S
H760 C737 0.950 . S
H761 C739 0.950 . S
C762 C763 1.349 1_565 S
C762 C764 1.327 . S
C762 H787 0.950 . S
C763 C762 1.349 1_545 S
C763 C779 1.349 . S
C764 C762 1.327 . S
C764 C783 1.429 1_565 S
C764 H788 0.950 . S
C765 C782 1.574 . S
C765 C784 1.368 . S
C765 H789 0.949 . S
H766 C770 0.949 . S
C767 C768 1.349 . S
C767 C769 1.327 . S
C767 H790 0.950 . S
C768 C767 1.349 . S
C768 C780 1.349 1_545 S
C769 C767 1.327 . S
C769 C785 1.429 . S
C769 H791 0.950 . S
C770 H766 0.949 . S
C770 C778 1.574 . S
C770 C786 1.368 1_565 S
H771 C779 0.950 . S
H772 C777 0.950 . S
H773 C778 0.949 . S
H774 C780 0.950 . S
H775 C781 0.950 . S
H776 C782 0.949 . S
C777 H772 0.950 . S
C777 C779 1.327 . S
C777 C783 1.429 . S
C778 C770 1.574 . S
C778 H773 0.949 . S
C778 C784 1.368 1_565 S
C779 C763 1.349 . S
C779 H771 0.950 . S
C779 C777 1.327 . S
C780 C768 1.349 1_565 S
C780 H774 0.950 . S
C780 C781 1.327 . S
C781 H775 0.950 . S
C781 C780 1.327 . S
C781 C785 1.429 1_565 S
C782 C765 1.574 . S
C782 H776 0.949 . S
C782 C786 1.368 . S
C783 C764 1.429 1_545 S
C783 C777 1.429 . S
C783 C784 1.523 . S
C784 C765 1.368 . S
C784 C778 1.368 1_545 S
C784 C783 1.523 . S
C785 C769 1.429 . S
C785 C781 1.429 1_545 S
C785 C786 1.523 . S
C786 C770 1.368 1_545 S
C786 C782 1.368 . S
C786 C785 1.523 . S
H787 C762 0.950 . S
H788 C764 0.950 . S
H789 C765 0.949 . S
H790 C767 0.950 . S
H791 C769 0.950 . S
C792 C793 1.349 . S
C792 C794 1.327 . S
C792 H817 0.950 . S
C793 C792 1.349 . S
C793 C809 1.349 . S
C794 C792 1.327 . S
C794 C813 1.429 . S
C794 H818 0.950 . S
C795 C812 1.574 . S
C795 C814 1.368 . S
C795 H819 0.949 . S
H796 C800 0.949 . S
C797 C798 1.349 . S
C797 C799 1.327 . S
C797 H820 0.950 . S
C798 C797 1.349 . S
C798 C810 1.349 . S
C799 C797 1.327 . S
C799 C815 1.429 1_554 S
C799 H821 0.950 . S
C800 H796 0.949 . S
C800 C808 1.574 . S
C800 C816 1.368 . S
H801 C809 0.950 . S
H802 C807 0.950 . S
H803 C808 0.949 . S
H804 C810 0.950 . S
H805 C811 0.950 1_556 S
H806 C812 0.949 . S
C807 H802 0.950 . S
C807 C809 1.327 . S
C807 C813 1.429 . S
C808 C800 1.574 . S
C808 H803 0.949 . S
C808 C814 1.368 . S
C809 C793 1.349 . S
C809 H801 0.950 . S
C809 C807 1.327 . S
C810 C798 1.349 . S
C810 H804 0.950 . S
C810 C811 1.327 . S
C811 H805 0.950 1_554 S
C811 C810 1.327 . S
C811 C815 1.429 1_554 S
C812 C795 1.574 . S
C812 H806 0.949 . S
C812 C816 1.368 . S
C813 C794 1.429 . S
C813 C807 1.429 . S
C813 C814 1.523 . S
C814 C795 1.368 . S
C814 C808 1.368 . S
C814 C813 1.523 . S
C815 C799 1.429 1_556 S
C815 C811 1.429 1_556 S
C815 C816 1.523 . S
C816 C800 1.368 . S
C816 C812 1.368 . S
C816 C815 1.523 . S
H817 C792 0.950 . S
H818 C794 0.950 . S
H819 C795 0.949 . S
H820 C797 0.950 . S
H821 C799 0.950 . S
C822 C823 1.349 . S
C822 C824 1.327 . S
C822 H847 0.950 . S
C823 C822 1.349 . S
C823 C839 1.349 . S
C824 C822 1.327 . S
C824 C843 1.429 . S
C824 H848 0.950 . S
C825 C842 1.574 . S
C825 C844 1.368 . S
C825 H849 0.949 . S
H826 C830 0.945 1_655 S
C827 C828 1.349 . S
C827 C829 1.327 . S
C827 H850 0.950 . S
C828 C827 1.349 . S
C828 C840 1.349 1_455 S
C829 C827 1.327 . S
C829 C845 1.429 . S
C829 H851 0.950 . S
C830 H826 0.945 1_455 S
C830 C838 1.574 . S
C830 C846 1.368 . S
H831 C839 0.950 . S
H832 C837 0.950 . S
H833 C838 0.949 . S
H834 C840 0.950 . S
H835 C841 0.946 1_655 S
H836 C842 0.949 . S
C837 H832 0.950 . S
C837 C839 1.327 . S
C837 C843 1.429 . S
C838 C830 1.574 . S
C838 H833 0.949 . S
C838 C844 1.368 . S
C839 C823 1.349 . S
C839 H831 0.950 . S
C839 C837 1.327 . S
C840 C828 1.349 1_655 S
C840 H834 0.950 . S
C840 C841 1.327 1_655 S
C841 H835 0.946 1_455 S
C841 C840 1.327 1_455 S
C841 C845 1.432 . S
C842 C825 1.574 . S
C842 H836 0.949 . S
C842 C846 1.368 . S
C843 C824 1.429 . S
C843 C837 1.429 . S
C843 C844 1.523 . S
C844 C825 1.368 . S
C844 C838 1.368 . S
C844 C843 1.523 . S
C845 C829 1.429 . S
C845 C841 1.432 . S
C845 C846 1.523 . S
C846 C830 1.368 . S
C846 C842 1.368 . S
C846 C845 1.523 . S
H847 C822 0.950 . S
H848 C824 0.950 . S
H849 C825 0.949 . S
H850 C827 0.950 . S
H851 C829 0.950 . S
C313 C10 3.017 . S
C318 C303 2.956 . S
C343 C55 1.159 . S
C348 C239 1.154 . S
C373 C90 1.828 . S
C378 C271 1.789 . S
C403 C19 2.909 . S
C408 C297 2.894 . S
C438 C233 1.223 . S
C433 C46 1.228 . S
C468 C265 1.911 . S
C463 C99 1.942 . S
C493 C50 1.838 . S
C498 C175 1.790 . S
C523 C95 0.456 . S
C528 C207 0.410 . S
C553 C6 1.255 . S
C558 C137 1.240 . S
C588 C169 1.879 . S
C583 C59 1.913 . S
C618 C201 0.333 . S
C613 C86 0.377 . S
C643 C15 1.181 . S
C648 C143 1.159 . S
C678 C213 1.122 . S
C673 C18 1.114 . S
C703 C49 1.452 . S
C708 C149 1.457 . S
C733 C98 1.344 . S
C738 C181 1.351 . S
C768 C277 1.360 . S
C763 C58 1.344 . S
C798 C309 1.729 . S
C793 C89 1.694 . S
C823 C9 1.457 . S
C828 C245 1.481 . S
