# Generated by pormake.
# Topology zzz, (3,6)-cn, num edge types: 1
# Building blocks:
#     Node 0, Type 0, BuildingBlock: BELTOD_clean_linker_0, # of connection points: 3
#     Node 1, Type 0, BuildingBlock: BELTOD_clean_linker_0, # of connection points: 3
#     Node 2, Type 0, BuildingBlock: BELTOD_clean_linker_0, # of connection points: 3
#     Node 3, Type 0, BuildingBlock: BELTOD_clean_linker_0, # of connection points: 3
#     Node 4, Type 0, BuildingBlock: BELTOD_clean_linker_0, # of connection points: 3
#     Node 5, Type 0, BuildingBlock: BELTOD_clean_linker_0, # of connection points: 3
#     Node 6, Type 0, BuildingBlock: BELTOD_clean_linker_0, # of connection points: 3
#     Node 7, Type 0, BuildingBlock: BELTOD_clean_linker_0, # of connection points: 3
#     Node 8, Type 1, BuildingBlock: INOVEN_clean_sbu_0, # of connection points: 6
#     Node 9, Type 1, BuildingBlock: INOVEN_clean_sbu_0, # of connection points: 6
#     Node 10, Type 1, BuildingBlock: INOVEN_clean_sbu_0, # of connection points: 6
#     Node 11, Type 1, BuildingBlock: INOVEN_clean_sbu_0, # of connection points: 6
#     Edge 12, Type (0, 1), BuildingBlock: MIFKUJ_clean_linker_0, # of connection points: 2
#     Edge 13, Type (0, 1), BuildingBlock: MIFKUJ_clean_linker_0, # of connection points: 2
#     Edge 14, Type (0, 1), BuildingBlock: MIFKUJ_clean_linker_0, # of connection points: 2
#     Edge 15, Type (0, 1), BuildingBlock: MIFKUJ_clean_linker_0, # of connection points: 2
#     Edge 16, Type (0, 1), BuildingBlock: MIFKUJ_clean_linker_0, # of connection points: 2
#     Edge 17, Type (0, 1), BuildingBlock: MIFKUJ_clean_linker_0, # of connection points: 2
#     Edge 18, Type (0, 1), BuildingBlock: MIFKUJ_clean_linker_0, # of connection points: 2
#     Edge 19, Type (0, 1), BuildingBlock: MIFKUJ_clean_linker_0, # of connection points: 2
#     Edge 20, Type (0, 1), BuildingBlock: MIFKUJ_clean_linker_0, # of connection points: 2
#     Edge 21, Type (0, 1), BuildingBlock: MIFKUJ_clean_linker_0, # of connection points: 2
#     Edge 22, Type (0, 1), BuildingBlock: MIFKUJ_clean_linker_0, # of connection points: 2
#     Edge 23, Type (0, 1), BuildingBlock: MIFKUJ_clean_linker_0, # of connection points: 2
#     Edge 24, Type (0, 1), BuildingBlock: MIFKUJ_clean_linker_0, # of connection points: 2
#     Edge 25, Type (0, 1), BuildingBlock: MIFKUJ_clean_linker_0, # of connection points: 2
#     Edge 26, Type (0, 1), BuildingBlock: MIFKUJ_clean_linker_0, # of connection points: 2
#     Edge 27, Type (0, 1), BuildingBlock: MIFKUJ_clean_linker_0, # of connection points: 2
#     Edge 28, Type (0, 1), BuildingBlock: MIFKUJ_clean_linker_0, # of connection points: 2
#     Edge 29, Type (0, 1), BuildingBlock: MIFKUJ_clean_linker_0, # of connection points: 2
#     Edge 30, Type (0, 1), BuildingBlock: MIFKUJ_clean_linker_0, # of connection points: 2
#     Edge 31, Type (0, 1), BuildingBlock: MIFKUJ_clean_linker_0, # of connection points: 2
#     Edge 32, Type (0, 1), BuildingBlock: MIFKUJ_clean_linker_0, # of connection points: 2
#     Edge 33, Type (0, 1), BuildingBlock: MIFKUJ_clean_linker_0, # of connection points: 2
#     Edge 34, Type (0, 1), BuildingBlock: MIFKUJ_clean_linker_0, # of connection points: 2
#     Edge 35, Type (0, 1), BuildingBlock: MIFKUJ_clean_linker_0, # of connection points: 2
# Relax obj value: 0.382
# Max RMSD: 0.259
# Mean RMSD: 0.241
data_MOF--net-zzz--node1-INOVEN_clean_sbu_0--node2-BELTOD_clean_linker_0--edge1-MIFKUJ_clean_linker_0
_symmetry_space_group_name_H-M    P1
_symmetry_Int_Tables_number       1
_symmetry_cell_setting            triclinic
loop_
_symmetry_equiv_pos_as_xyz
'x, y, z'
_cell_length_a     70.921929
_cell_length_b     71.045606
_cell_length_c     21.438131
_cell_angle_alpha  90.027618
_cell_angle_beta   90.010466
_cell_angle_gamma 90.390557
loop_
_atom_site_label
_atom_site_type_symbol
_atom_site_fract_x
_atom_site_fract_y
_atom_site_fract_z
_atom_type_partial_charge
P0 P 0.72588 0.47823 0.31681 0.0
H1 H 0.74447 0.46529 0.4297 0.0
H2 H 0.77352 0.47496 0.47993 0.0
H3 H 0.77477 0.52538 0.36702 0.0
H4 H 0.74594 0.51497 0.31466 0.0
H5 H 0.68481 0.47692 0.33203 0.0
H6 H 0.65963 0.48846 0.26545 0.0
H7 H 0.70004 0.52208 0.16296 0.0
H8 H 0.72531 0.50996 0.22869 0.0
H9 H 0.766 0.46933 0.29748 0.0
H10 H 0.71443 0.46677 0.19035 0.0
O11 O 0.71638 0.45971 0.35331 0.0
H12 H 0.78413 0.46364 0.20345 0.0
H13 H 0.73279 0.4613 0.09539 0.0
C14 C 0.74272 0.48948 0.36875 0.0
C15 C 0.75056 0.47878 0.41712 0.0
C16 C 0.76737 0.48437 0.44598 0.0
C17 C 0.77685 0.50094 0.42747 0.0
C18 C 0.76822 0.51233 0.38185 0.0
C19 C 0.75143 0.50657 0.35247 0.0
C20 C 0.70705 0.49257 0.28574 0.0
C21 C 0.68824 0.48728 0.29672 0.0
C22 C 0.67375 0.49391 0.25831 0.0
C23 C 0.67778 0.50597 0.2079 0.0
C24 C 0.69644 0.51253 0.20053 0.0
C25 C 0.71092 0.5059 0.23906 0.0
C26 C 0.73886 0.4695 0.25061 0.0
C27 C 0.75848 0.46747 0.25403 0.0
C28 C 0.76889 0.46414 0.20016 0.0
C29 C 0.75986 0.46259 0.14206 0.0
C30 C 0.74008 0.46263 0.13959 0.0
C31 C 0.72963 0.46594 0.19377 0.0
P32 P 0.0322 0.72775 0.32749 0.0
H33 H 0.02506 0.73737 0.4584 0.0
H34 H 0.01469 0.76663 0.50669 0.0
H35 H 0.99938 0.78815 0.32525 0.0
H36 H 0.00929 0.75859 0.27761 0.0
H37 H 0.04273 0.68859 0.3171 0.0
H38 H 0.03158 0.66316 0.25114 0.0
H39 H 0.98455 0.69728 0.19259 0.0
H40 H 0.99622 0.7231 0.25878 0.0
H41 H 0.05902 0.75869 0.33213 0.0
H42 H 0.03391 0.72354 0.18986 0.0
O43 O 0.0477 0.71992 0.37986 0.0
H44 H 0.07156 0.77955 0.25154 0.0
H45 H 0.04658 0.74414 0.10951 0.0
C46 C 0.01812 0.74579 0.36425 0.0
C47 C 0.01889 0.74811 0.42916 0.0
C48 C 0.01318 0.76502 0.4567 0.0
C49 C 0.00663 0.78003 0.41983 0.0
C50 C 0.00432 0.77698 0.35531 0.0
C51 C 0.00994 0.75999 0.32788 0.0
C52 C 0.02013 0.70767 0.29399 0.0
C53 C 0.02964 0.69045 0.29191 0.0
C54 C 0.02321 0.67582 0.25381 0.0
C55 C 0.00712 0.67806 0.21619 0.0
C56 C 0.99708 0.69509 0.22046 0.0
C57 C 1.00355 0.70978 0.25901 0.0
C58 C 0.04534 0.73968 0.26734 0.0
C59 C 0.05669 0.75514 0.28357 0.0
C60 C 0.06391 0.76701 0.23741 0.0
C61 C 0.05988 0.76358 0.17419 0.0
C62 C 0.04967 0.74728 0.15792 0.0
C63 C 0.04242 0.73545 0.20411 0.0
P64 P 0.78218 0.04221 0.30748 0.0
H65 H 0.77308 0.03669 0.43986 0.0
H66 H 0.74364 0.02777 0.49225 0.0
H67 H 0.7193 0.01265 0.31446 0.0
H68 H 0.74879 0.02129 0.26251 0.0
H69 H 0.82172 0.05314 0.30621 0.0
H70 H 0.84884 0.04004 0.2525 0.0
H71 H 0.81634 0.99027 0.20745 0.0
H72 H 0.78909 0.00343 0.26296 0.0
H73 H 0.75528 0.07206 0.28167 0.0
H74 H 0.78748 0.03207 0.17445 0.0
O75 O 0.78827 0.06059 0.35184 0.0
H76 H 0.73797 0.08079 0.18697 0.0
H77 H 0.77023 0.04057 0.08128 0.0
C78 C 0.76314 0.02993 0.34709 0.0
C79 C 0.76162 0.03092 0.41231 0.0
C80 C 0.74472 0.02588 0.44225 0.0
C81 C 0.72896 0.01988 0.4074 0.0
C82 C 0.73103 0.01759 0.34253 0.0
C83 C 0.74799 0.0224 0.3128 0.0
C84 C 0.80336 0.02921 0.2893 0.0
C85 C 0.82058 0.03904 0.28733 0.0
C86 C 0.83614 0.03155 0.25619 0.0
C87 C 0.83472 0.01419 0.22511 0.0
C88 C 0.81783 0.00375 0.23063 0.0
C89 C 0.80232 0.01113 0.26305 0.0
C90 C 0.7727 0.05139 0.23565 0.0
C91 C 0.759 0.06553 0.23774 0.0
C92 C 0.74917 0.07054 0.18371 0.0
C93 C 0.75279 0.06127 0.1271 0.0
C94 C 0.76716 0.04784 0.1245 0.0
C95 C 0.77703 0.04296 0.17822 0.0
P96 P 0.4742 0.78645 0.35234 0.0
H97 H 0.47676 0.77219 0.47953 0.0
H98 H 0.48894 0.74287 0.51963 0.0
H99 H 0.51793 0.7334 0.34507 0.0
H100 H 0.50458 0.76235 0.30389 0.0
H101 H 0.45714 0.821 0.31249 0.0
H102 H 0.46723 0.84677 0.24552 0.0
H103 H 0.52159 0.82057 0.22301 0.0
H104 H 0.51133 0.79465 0.29113 0.0
H105 H 0.4398 0.76476 0.37388 0.0
H106 H 0.47881 0.7745 0.22295 0.0
O107 O 0.46021 0.79554 0.40709 0.0
H108 H 0.42543 0.73882 0.31571 0.0
H109 H 0.46505 0.74825 0.16548 0.0
C110 C 0.48993 0.76981 0.38882 0.0
C111 C 0.48629 0.76422 0.45042 0.0
C112 C 0.49332 0.74725 0.47349 0.0
C113 C 0.50429 0.73541 0.43553 0.0
C114 C 0.50921 0.74185 0.37543 0.0
C115 C 0.50193 0.75875 0.35214 0.0
C116 C 0.48352 0.80598 0.30768 0.0
C117 C 0.47137 0.82091 0.29418 0.0
C118 C 0.47718 0.8357 0.25585 0.0
C119 C 0.49529 0.83586 0.22927 0.0
C120 C 0.50753 0.82085 0.2427 0.0
C121 C 0.5017 0.80603 0.28182 0.0
C122 C 0.46016 0.77174 0.30228 0.0
C123 C 0.44487 0.76171 0.32733 0.0
C124 C 0.43683 0.74672 0.29434 0.0
C125 C 0.4442 0.7413 0.23617 0.0
C126 C 0.45881 0.75216 0.20968 0.0
C127 C 0.46673 0.76722 0.24257 0.0
P128 P 0.28977 0.45444 0.03356 0.0
H129 H 0.27323 0.44686 0.91112 0.0
H130 H 0.24414 0.45716 0.86383 0.0
H131 H 0.23902 0.50048 0.00457 0.0
H132 H 0.2678 0.48907 0.0542 0.0
H133 H 0.32574 0.43753 0.05977 0.0
H134 H 0.35347 0.44847 0.11449 0.0
H135 H 0.33139 0.50506 0.11476 0.0
H136 H 0.30296 0.49359 0.06094 0.0
H137 H 0.2562 0.43197 0.05652 0.0
H138 H 0.2953 0.46512 0.16603 0.0
O139 O 0.29424 0.43409 0.99768 0.0
H140 H 0.23595 0.42829 0.1479 0.0
H141 H 0.27541 0.46113 0.25724 0.0
C142 C 0.27296 0.46724 0.98618 0.0
C143 C 0.26622 0.45895 0.93103 0.0
C144 C 0.24937 0.46494 0.90368 0.0
C145 C 0.23877 0.4796 0.93036 0.0
C146 C 0.24637 0.48885 0.98314 0.0
C147 C 0.26317 0.48263 0.01099 0.0
C148 C 0.31233 0.46475 0.05484 0.0
C149 C 0.32705 0.45245 0.06944 0.0
C150 C 0.34307 0.45879 0.10115 0.0
C151 C 0.3449 0.47773 0.11951 0.0
C152 C 0.33047 0.49032 0.10217 0.0
C153 C 0.31429 0.48387 0.07038 0.0
C154 C 0.27723 0.44884 0.1041 0.0
C155 C 0.26068 0.43802 0.10054 0.0
C156 C 0.24918 0.43584 0.15291 0.0
C157 C 0.25407 0.4445 0.20971 0.0
C158 C 0.27119 0.45447 0.21391 0.0
C159 C 0.28262 0.45671 0.1615 0.0
P160 P 0.04429 0.29085 0.02719 0.0
H161 H 0.04645 0.27866 0.89715 0.0
H162 H 0.0353 0.24996 0.84664 0.0
H163 H 1.00041 0.23753 0.0064 0.0
H164 H 0.01172 0.26626 0.05731 0.0
H165 H 0.05937 0.32773 0.05671 0.0
H166 H 0.04893 0.35311 0.12392 0.0
H167 H 0.99666 0.32332 0.15777 0.0
H168 H 0.00719 0.29781 0.08896 0.0
H169 H 0.07784 0.26733 0.02452 0.0
H170 H 0.0323 0.279 0.15165 0.0
O171 O 0.06159 0.29911 0.98175 0.0
H172 H 0.08623 0.23971 0.08589 0.0
H173 H 0.03976 0.25112 0.21075 0.0
C174 C 0.02983 0.27494 0.9811 0.0
C175 C 0.03585 0.27024 0.92068 0.0
C176 C 0.02965 0.25362 0.89197 0.0
C177 C 0.01719 0.24131 0.92288 0.0
C178 C 0.00994 0.24676 0.98119 0.0
C179 C 0.01628 0.26337 0.01016 0.0
C180 C 0.03401 0.31086 0.06678 0.0
C181 C 0.04541 0.32679 0.07695 0.0
C182 C 0.03942 0.34138 0.11567 0.0
C183 C 0.02194 0.34032 0.14631 0.0
C184 C 0.01026 0.32454 0.13508 0.0
C185 C 0.01621 0.30998 0.09535 0.0
C186 C 0.05455 0.27536 0.08376 0.0
C187 C 0.07005 0.26434 0.06685 0.0
C188 C 0.07465 0.24837 0.10152 0.0
C189 C 0.0635 0.24291 0.1528 0.0
C190 C 0.0489 0.25489 0.17224 0.0
C191 C 0.04452 0.27097 0.13813 0.0
P192 P 0.22026 0.0625 0.01799 0.0
H193 H 0.23555 0.06578 0.89211 0.0
H194 H 0.26395 0.05304 0.8469 0.0
H195 H 0.26739 0.01274 0.99744 0.0
H196 H 0.23921 0.02636 0.04426 0.0
H197 H 0.18829 0.08348 0.06088 0.0
H198 H 0.16175 0.07608 0.12828 0.0
H199 H 0.17812 0.01768 0.13045 0.0
H200 H 0.20494 0.02524 0.06144 0.0
H201 H 0.24841 0.09264 0.0256 0.0
H202 H 0.22799 0.04732 0.14159 0.0
O203 O 0.21504 0.08131 0.97481 0.0
H204 H 0.27487 0.0976 0.09692 0.0
H205 H 0.25455 0.05154 0.21109 0.0
C206 C 0.23495 0.04703 0.97167 0.0
C207 C 0.2419 0.05372 0.91446 0.0
C208 C 0.25838 0.04636 0.88842 0.0
C209 C 0.26841 0.03197 0.91873 0.0
C210 C 0.26044 0.02412 0.97325 0.0
C211 C 0.24397 0.03163 0.99956 0.0
C212 C 0.19854 0.05491 0.05513 0.0
C213 C 0.18599 0.06895 0.07424 0.0
C214 C 0.17087 0.06474 0.11357 0.0
C215 C 0.16792 0.04634 0.1355 0.0
C216 C 0.17998 0.032 0.11417 0.0
C217 C 0.1953 0.03628 0.0746 0.0
C218 C 0.23607 0.06982 0.07883 0.0
C219 C 0.24928 0.08416 0.06745 0.0
C220 C 0.26453 0.08681 0.10787 0.0
C221 C 0.26697 0.07488 0.15961 0.0
C222 C 0.25303 0.06126 0.17257 0.0
C223 C 0.23774 0.05877 0.13254 0.0
P224 P 0.45862 0.22704 0.03792 0.0
H225 H 0.46086 0.23506 0.90461 0.0
H226 H 0.47306 0.26279 0.85121 0.0
H227 H 0.50275 0.27931 0.0186 0.0
H228 H 0.49095 0.25106 0.07121 0.0
H229 H 0.44202 0.2112 0.14936 0.0
H230 H 0.45178 0.18706 0.22264 0.0
H231 H 0.50405 0.18054 0.12178 0.0
H232 H 0.49405 0.20512 0.04781 0.0
H233 H 0.4267 0.25028 1.00085 0.0
H234 H 0.46422 0.24538 0.15812 0.0
O235 O 0.44389 0.21538 0.99085 0.0
H236 H 0.41557 0.28051 0.04077 0.0
H237 H 0.4536 0.27547 0.19746 0.0
C238 C 0.475 0.24085 0.99205 0.0
C239 C 0.47074 0.24409 0.92909 0.0
C240 C 0.47747 0.26022 0.8988 0.0
C241 C 0.48845 0.27362 0.93106 0.0
C242 C 0.49432 0.26935 0.99219 0.0
C243 C 0.48768 0.25307 0.02233 0.0
C244 C 0.46756 0.21043 0.09428 0.0
C245 C 0.45578 0.20492 0.14359 0.0
C246 C 0.46138 0.19105 0.18558 0.0
C247 C 0.47882 0.18201 0.17871 0.0
C248 C 0.49055 0.18728 0.12847 0.0
C249 C 0.48495 0.20141 0.0865 0.0
C250 C 0.44592 0.24534 0.07735 0.0
C251 C 0.43198 0.25533 0.04524 0.0
C252 C 0.42582 0.27273 0.06768 0.0
C253 C 0.43371 0.28048 0.12225 0.0
C254 C 0.44689 0.26983 0.15605 0.0
C255 C 0.45298 0.2525 0.13362 0.0
Gd256 Gd 0.01278 0.00782 0.72412 0.0
Gd257 Gd 0.98476 0.01559 0.61522 0.0
C258 C 0.99699 0.97271 0.63751 0.0
C259 C 0.03201 0.99475 0.81646 0.0
C260 C 0.03697 0.97587 0.83981 0.0
C261 C 0.05512 0.96879 0.82893 0.0
C262 C 0.02378 0.96464 0.8719 0.0
C263 C 0.04666 0.93935 0.87974 0.0
C264 C 0.0286 0.94658 0.89171 0.0
C265 C 0.05988 0.9507 0.84833 0.0
C266 C 0.02798 0.02304 0.61932 0.0
C267 C 0.99698 0.04897 0.71193 0.0
C268 C 0.97353 0.0264 0.50671 0.0
C269 C 0.98106 0.04028 0.46175 0.0
C270 C 0.97107 0.05692 0.45066 0.0
C271 C 0.9989 0.03798 0.43422 0.0
C272 C 0.99756 0.06965 0.39193 0.0
C273 C 0.0071 0.05256 0.39974 0.0
C274 C 0.97925 0.07149 0.41617 0.0
C275 C 0.96475 0.00634 0.71917 0.0
O276 O 0.00736 0.97846 0.68557 0.0
O277 O 0.98702 0.98442 0.6029 0.0
O278 O 0.03953 0.9995 0.76299 0.0
O279 O 0.01439 0.99999 0.82165 0.0
O280 O 0.03301 0.02771 0.67547 0.0
O281 O 0.01535 0.01048 0.62178 0.0
O282 O 0.99305 0.04448 0.65314 0.0
O283 O 1.0023 0.03611 0.75263 0.0
O284 O 0.96701 0.03347 0.55881 0.0
O285 O 0.98345 0.01113 0.51543 0.0
O286 O 0.95707 0.00976 0.66541 0.0
O287 O 0.98235 0.00752 0.71311 0.0
H288 H 0.06561 0.97718 0.80462 0.0
H289 H 0.00972 0.96973 0.88154 0.0
H290 H 0.01819 0.93834 0.91688 0.0
H291 H 0.07385 0.94552 0.83776 0.0
H292 H 0.95722 0.05896 0.47079 0.0
H293 H 0.00685 0.02521 0.4411 0.0
H294 H 0.02126 0.05075 0.38179 0.0
H295 H 0.97144 0.0844 0.40985 0.0
Gd296 Gd 0.50735 0.01904 0.75154 0.0
Gd297 Gd 0.49658 0.99559 0.64475 0.0
C298 C 0.54036 0.00362 0.65742 0.0
C299 C 0.52496 0.03296 0.84575 0.0
C300 C 0.54429 0.04052 0.84784 0.0
C301 C 0.55193 0.04994 0.79581 0.0
C302 C 0.55601 0.03604 0.89813 0.0
C303 C 0.58298 0.04945 0.84327 0.0
C304 C 0.57521 0.04045 0.89587 0.0
C305 C 0.57111 0.05451 0.79378 0.0
C306 C 0.49789 0.03945 0.64973 0.0
C307 C 0.46433 0.01266 0.7351 0.0
C308 C 0.48 0.98258 0.54661 0.0
C309 C 0.46415 0.98992 0.50961 0.0
C310 C 0.44724 0.97963 0.50558 0.0
C311 C 0.46524 0.00786 0.48206 0.0
C312 C 0.4326 0.00535 0.44901 0.0
C313 C 0.44965 0.01546 0.45201 0.0
C314 C 0.43155 0.9873 0.4757 0.0
C315 C 0.50644 0.97538 0.7466 0.0
O316 O 0.53589 0.01132 0.71149 0.0
O317 O 0.5272 0.99725 0.61931 0.0
O318 O 0.51276 0.04262 0.81327 0.0
O319 O 0.52389 0.01484 0.83523 0.0
O320 O 0.49377 0.04419 0.7065 0.0
O321 O 0.50751 0.02459 0.64963 0.0
O322 O 0.46929 0.00957 0.67642 0.0
O323 O 0.47736 0.01379 0.77881 0.0
O324 O 0.47583 0.97686 0.60292 0.0
O325 O 0.49568 0.99234 0.5446 0.0
O326 O 0.51053 0.9706 0.68987 0.0
O327 O 0.49651 0.99002 0.74644 0.0
H328 H 0.54323 0.05315 0.7557 0.0
H329 H 0.55044 0.02855 0.93818 0.0
H330 H 0.58404 0.03664 0.93503 0.0
H331 H 0.57679 0.06132 0.75258 0.0
H332 H 0.44604 0.96581 0.52666 0.0
H333 H 0.478 0.01627 0.4848 0.0
H334 H 0.45079 0.0295 0.43265 0.0
H335 H 0.4186 0.97915 0.47361 0.0
Gd336 Gd 0.4957 0.51007 0.73156 0.0
Gd337 Gd 0.5186 0.4973 0.61174 0.0
C338 C 0.51156 0.54199 0.6403 0.0
C339 C 0.4816 0.51785 0.83946 0.0
C340 C 0.47263 0.53435 0.86792 0.0
C341 C 0.45893 0.53192 0.91435 0.0
C342 C 0.478 0.55261 0.85006 0.0
C343 C 0.4567 0.56592 0.92722 0.0
C344 C 0.47022 0.56822 0.87968 0.0
C345 C 0.45097 0.54757 0.94367 0.0
C346 C 0.47617 0.50706 0.62352 0.0
C347 C 0.50545 0.46562 0.71052 0.0
C348 C 0.52463 0.4873 0.49804 0.0
C349 C 0.51567 0.47369 0.45477 0.0
C350 C 0.51902 0.4543 0.4604 0.0
C351 C 0.50299 0.47995 0.40897 0.0
C352 C 0.49578 0.4476 0.37965 0.0
C353 C 0.49309 0.46704 0.37194 0.0
C354 C 0.50924 0.44143 0.42318 0.0
C355 C 0.54271 0.50581 0.70707 0.0
O356 O 0.50631 0.53813 0.69822 0.0
O357 O 0.51496 0.52867 0.59844 0.0
O358 O 0.47199 0.50923 0.79565 0.0
O359 O 0.49952 0.51978 0.82601 0.0
O360 O 0.47294 0.51979 0.6656 0.0
O361 O 0.48894 0.49608 0.64191 0.0
O362 O 0.51088 0.46909 0.65248 0.0
O363 O 0.50055 0.47916 0.74977 0.0
O364 O 0.53389 0.48027 0.5456 0.0
O365 O 0.5145 0.50202 0.51302 0.0
O366 O 0.54829 0.50054 0.6521 0.0
O367 O 0.52503 0.50658 0.70603 0.0
H368 H 0.45453 0.51791 0.92838 0.0
H369 H 0.4885 0.55481 0.81404 0.0
H370 H 0.47524 0.58207 0.86641 0.0
H371 H 0.4404 0.54527 0.97936 0.0
H372 H 0.52894 0.44896 0.4944 0.0
H373 H 0.50024 0.49483 0.40316 0.0
H374 H 0.48279 0.47231 0.33912 0.0
H375 H 0.51212 0.42659 0.42903 0.0
Gd376 Gd 1.00031 0.4988 0.74597 0.0
Gd377 Gd 0.01532 0.51963 0.62424 0.0
C378 C 0.97112 0.5114 0.63391 0.0
C379 C 0.98113 0.49558 0.84654 0.0
C380 C 0.96101 0.49081 0.85435 0.0
C381 C 0.95314 0.47462 0.82672 0.0
C382 C 0.949 0.5042 0.88096 0.0
C383 C 0.9215 0.48565 0.8506 0.0
C384 C 0.92949 0.50175 0.87861 0.0
C385 C 0.93358 0.472 0.82529 0.0
C386 C 0.00416 0.47406 0.6493 0.0
C387 C 0.04452 0.50073 0.72716 0.0
C388 C 0.03542 0.52848 0.52899 0.0
C389 C 0.05287 0.5195 0.5084 0.0
C390 C 0.06659 0.52966 0.47537 0.0
C391 C 0.05669 0.50107 0.5279 0.0
C392 C 0.08791 0.50302 0.4824 0.0
C393 C 0.07406 0.49296 0.51537 0.0
C394 C 0.084 0.52142 0.46205 0.0
C395 C 0.00464 0.54174 0.72032 0.0
O396 O 0.97398 0.50678 0.69304 0.0
O397 O 0.98509 0.51569 0.59528 0.0
O398 O 0.99246 0.4822 0.827 0.0
O399 O 0.98403 0.51177 0.81875 0.0
O400 O 0.99886 0.46902 0.70496 0.0
O401 O 0.00724 0.49147 0.65061 0.0
O402 O 0.04101 0.50564 0.66841 0.0
O403 O 0.03103 0.49911 0.76956 0.0
O404 O 0.03682 0.53733 0.5824 0.0
O405 O 0.02017 0.51801 0.52476 0.0
O406 O 1.00246 0.54638 0.66211 0.0
O407 O 0.01322 0.5263 0.72393 0.0
H408 H 0.96202 0.4642 0.80472 0.0
H409 H 0.95472 0.517 0.90125 0.0
H410 H 0.92067 0.51276 0.8975 0.0
H411 H 0.92797 0.45929 0.80425 0.0
H412 H 0.06397 0.54402 0.46096 0.0
H413 H 0.04638 0.49302 0.55407 0.0
H414 H 0.07659 0.47876 0.53146 0.0
H415 H 0.09452 0.52956 0.43702 0.0
H416 H 0.1413 0.01782 0.13964 0.0
H417 H 0.11618 0.0133 0.21762 0.0
H418 H 0.136 0.06231 0.31736 0.0
H419 H 0.16097 0.06679 0.24036 0.0
H420 H 0.12886 0.03307 0.39582 0.0
H421 H 0.09705 0.06475 0.22732 0.0
H422 H 0.08611 0.0689 0.11903 0.0
H423 H 0.0558 0.01646 0.1289 0.0
H424 H 0.06677 0.01188 0.23706 0.0
H425 H 0.05464 0.0505 0.60458 0.0
H426 H 0.0769 0.05433 0.5181 0.0
H427 H 0.05114 0.00718 0.4232 0.0
H428 H 0.0286 0.00356 0.50915 0.0
H429 H 0.06094 0.03365 0.34042 0.0
H430 H 0.09188 1.0019 0.5082 0.0
H431 H 0.10256 0.99725 0.61654 0.0
H432 H 0.13471 0.04861 0.60755 0.0
H433 H 0.124 0.05371 0.49938 0.0
C434 C 0.14032 0.02754 0.17842 0.0
C435 C 0.15304 0.04275 0.18346 0.0
C436 C 0.12589 0.02504 0.2227 0.0
C437 C 0.12405 0.03759 0.27316 0.0
C438 C 0.13703 0.05248 0.27885 0.0
C439 C 0.15126 0.05509 0.23451 0.0
C440 C 0.10883 0.03528 0.32078 0.0
C441 C 0.11402 0.03338 0.38367 0.0
C442 C 0.08942 0.03517 0.30505 0.0
C443 C 0.08292 0.03786 0.23998 0.0
C444 C 0.0882 0.05401 0.20619 0.0
C445 C 0.08196 0.05647 0.14489 0.0
C446 C 0.07032 0.04292 0.11703 0.0
C447 C 0.06485 0.02692 0.15049 0.0
C448 C 0.07107 0.02439 0.2118 0.0
C449 C 0.05359 0.0411 0.56491 0.0
C450 C 0.03995 0.02667 0.56381 0.0
C451 C 0.06638 0.04323 0.51559 0.0
C452 C 0.06602 0.03078 0.46454 0.0
C453 C 0.05181 0.0169 0.46207 0.0
C454 C 0.03894 0.01484 0.51128 0.0
C455 C 0.081 0.03167 0.41554 0.0
C456 C 0.07579 0.03326 0.35251 0.0
C457 C 0.10043 0.03135 0.431 0.0
C458 C 0.10701 0.02827 0.49588 0.0
C459 C 0.10113 0.01227 0.52947 0.0
C460 C 0.1072 0.00955 0.59083 0.0
C461 C 0.11927 0.02265 0.61896 0.0
C462 C 0.12534 0.03849 0.58572 0.0
C463 C 0.11929 0.04129 0.52437 0.0
H464 H 0.12395 0.02052 0.66647 0.0
H465 H 0.0655 0.04485 0.06957 0.0
H466 H 0.4945 0.14748 0.15346 0.0
H467 H 0.50044 0.12175 0.22718 0.0
H468 H 0.48068 0.15649 0.37839 0.0
H469 H 0.47515 0.18225 0.30551 0.0
H470 H 0.51119 0.13744 0.41326 0.0
H471 H 0.45243 0.12279 0.30881 0.0
H472 H 0.43201 0.11613 0.21821 0.0
H473 H 0.46629 0.06871 0.16995 0.0
H474 H 0.48707 0.07526 0.25984 0.0
H475 H 0.4834 0.07481 0.64945 0.0
H476 H 0.4827 0.09726 0.56312 0.0
H477 H 0.50797 0.05607 0.44188 0.0
H478 H 0.50887 0.03349 0.52873 0.0
H479 H 0.47822 0.07619 0.38501 0.0
H480 H 0.53513 0.08899 0.49552 0.0
H481 H 0.55471 0.09498 0.58845 0.0
H482 H 0.52395 0.14559 0.62574 0.0
H483 H 0.50388 0.1397 0.53366 0.0
C484 C 0.49172 0.14972 0.20257 0.0
C485 C 0.48421 0.16689 0.2235 0.0
C486 C 0.49494 0.13493 0.2446 0.0
C487 C 0.49075 0.13705 0.30835 0.0
C488 C 0.48395 0.15443 0.3295 0.0
C489 C 0.48068 0.16913 0.28766 0.0
C490 C 0.49293 0.12118 0.35334 0.0
C491 C 0.50388 0.12411 0.40714 0.0
C492 C 0.48385 0.10352 0.34479 0.0
C493 C 0.47144 0.09966 0.29054 0.0
C494 C 0.45572 0.11105 0.27852 0.0
C495 C 0.44406 0.10728 0.22738 0.0
C496 C 0.44789 0.09205 0.18822 0.0
C497 C 0.46337 0.08053 0.20022 0.0
C498 C 0.47509 0.08427 0.25126 0.0
C499 C 0.48873 0.07047 0.60437 0.0
C500 C 0.49631 0.05243 0.59596 0.0
C501 C 0.48836 0.08334 0.55508 0.0
C502 C 0.4955 0.07844 0.4962 0.0
C503 C 0.50245 0.06018 0.48695 0.0
C504 C 0.50299 0.04732 0.53657 0.0
C505 C 0.4961 0.09269 0.44532 0.0
C506 C 0.48572 0.08945 0.39058 0.0
C507 C 0.5057 0.11008 0.4529 0.0
C508 C 0.51789 0.11382 0.5079 0.0
C509 C 0.53244 0.10133 0.52377 0.0
C510 C 0.54364 0.10471 0.57628 0.0
C511 C 0.54057 0.12064 0.61302 0.0
C512 C 0.5263 0.13325 0.59725 0.0
C513 C 0.51501 0.1299 0.54488 0.0
H514 H 0.54927 0.12324 0.65366 0.0
H515 H 0.43883 0.08913 0.14868 0.0
H516 H 0.34493 0.50364 0.21555 0.0
H517 H 0.37004 0.51006 0.29089 0.0
H518 H 0.40618 0.47083 0.1961 0.0
H519 H 0.38159 0.46501 0.11859 0.0
H520 H 0.4023 0.46394 0.32591 0.0
H521 H 0.41802 0.51433 0.18802 0.0
H522 H 0.41291 0.54262 0.12382 0.0
H523 H 0.39583 0.57339 0.28646 0.0
H524 H 0.40063 0.54521 0.35158 0.0
H525 H 0.47949 0.47987 0.53318 0.0
H526 H 0.45994 0.47573 0.43982 0.0
H527 H 0.42716 0.52419 0.49207 0.0
H528 H 0.44708 0.52874 0.58378 0.0
H529 H 0.43151 0.52575 0.37559 0.0
H530 H 0.41379 0.47497 0.51302 0.0
H531 H 0.41855 0.44669 0.57761 0.0
H532 H 0.4377 0.41624 0.41706 0.0
H533 H 0.43381 0.44455 0.35177 0.0
C534 C 0.35836 0.49675 0.20934 0.0
C535 C 0.361 0.48362 0.16083 0.0
C536 C 0.37271 0.50036 0.25293 0.0
C537 C 0.38997 0.49083 0.24946 0.0
C538 C 0.39292 0.47824 0.20008 0.0
C539 C 0.37874 0.47485 0.15592 0.0
C540 C 0.40441 0.49309 0.29954 0.0
C541 C 0.40893 0.47739 0.33628 0.0
C542 C 0.41278 0.5107 0.31379 0.0
C543 C 0.40948 0.52757 0.27459 0.0
C544 C 0.41295 0.52705 0.21001 0.0
C545 C 0.41017 0.5431 0.17347 0.0
C546 C 0.40399 0.55978 0.20101 0.0
C547 C 0.40059 0.56045 0.26517 0.0
C548 C 0.40335 0.54445 0.30193 0.0
C549 C 0.46823 0.48974 0.52428 0.0
C550 C 0.46484 0.50464 0.56581 0.0
C551 C 0.45695 0.48729 0.47103 0.0
C552 C 0.44183 0.4995 0.4587 0.0
C553 C 0.43869 0.51455 0.49996 0.0
C554 C 0.45006 0.51711 0.55272 0.0
C555 C 0.42914 0.49667 0.40348 0.0
C556 C 0.42496 0.51225 0.36544 0.0
C557 C 0.42096 0.47894 0.38832 0.0
C558 C 0.42371 0.46198 0.42766 0.0
C559 C 0.41927 0.46233 0.49161 0.0
C560 C 0.42187 0.4463 0.52835 0.0
C561 C 0.4286 0.42973 0.50149 0.0
C562 C 0.43273 0.42916 0.43783 0.0
C563 C 0.43037 0.4452 0.40096 0.0
H564 H 0.43051 0.41731 0.52993 0.0
H565 H 0.40189 0.57219 0.17266 0.0
H566 H 0.00686 0.3355 0.26303 0.0
H567 H 1.00214 0.35941 0.34354 0.0
H568 H 0.02087 0.40251 0.21565 0.0
H569 H 0.02584 0.3786 0.13529 0.0
H570 H 0.03799 0.40719 0.32143 0.0
H571 H 0.97367 0.39795 0.26387 0.0
H572 H 0.94449 0.38012 0.24169 0.0
H573 H 0.94349 0.35958 0.43 0.0
H574 H 0.97283 0.37709 0.45311 0.0
H575 H 0.01352 0.48285 0.5284 0.0
H576 H 0.01571 0.46139 0.4391 0.0
H577 H 1.00065 0.41478 0.55841 0.0
H578 H 0.99854 0.43621 0.64743 0.0
H579 H 0.98078 0.41348 0.45245 0.0
H580 H 0.04661 0.42111 0.50586 0.0
H581 H 0.07685 0.43758 0.52439 0.0
H582 H 0.0745 0.46167 0.34102 0.0
H583 H 0.04422 0.44536 0.32133 0.0
C584 C 0.00959 0.35012 0.25161 0.0
C585 C 0.01675 0.35511 0.19265 0.0
C586 C 0.0069 0.36382 0.2978 0.0
C587 C 0.01104 0.38288 0.28586 0.0
C588 C 0.01765 0.38794 0.22635 0.0
C589 C 0.02047 0.37424 0.18035 0.0
C590 C 0.00954 0.39735 0.33631 0.0
C591 C 0.02532 0.40879 0.34924 0.0
C592 C 0.9932 0.39927 0.37374 0.0
C593 C 0.97555 0.38871 0.36005 0.0
C594 C 0.96732 0.38951 0.30042 0.0
C595 C 0.95073 0.37949 0.28771 0.0
C596 C 0.94217 0.36869 0.33436 0.0
C597 C 0.95015 0.36793 0.39388 0.0
C598 C 0.96675 0.37793 0.40684 0.0
C599 C 0.01092 0.46803 0.5356 0.0
C600 C 0.00604 0.46124 0.59501 0.0
C601 C 0.01216 0.45573 0.48454 0.0
C602 C 0.00848 0.43637 0.49191 0.0
C603 C 1.00355 0.42962 0.55134 0.0
C604 C 1.0024 0.44189 0.60229 0.0
C605 C 0.00928 0.42315 0.43779 0.0
C606 C 0.99337 0.41197 0.4242 0.0
C607 C 0.02544 0.42156 0.39942 0.0
C608 C 0.04309 0.43215 0.41236 0.0
C609 C 0.05243 0.4301 0.46978 0.0
C610 C 0.06961 0.43932 0.48035 0.0
C611 C 0.07757 0.4506 0.43382 0.0
C612 C 0.06828 0.45291 0.37694 0.0
C613 C 0.05116 0.44364 0.36598 0.0
H614 H 0.09103 0.4574 0.4416 0.0
H615 H 0.92932 0.36094 0.32442 0.0
H616 H 0.83093 1.00186 0.10525 0.0
H617 H 0.85572 0.99644 0.02868 0.0
H618 H 0.89798 0.00813 0.16857 0.0
H619 H 0.87303 0.01423 0.245 0.0
H620 H 0.90793 0.02526 0.06966 0.0
H621 H 0.88929 0.96213 0.10634 0.0
H622 H 0.86778 0.93501 0.11933 0.0
H623 H 0.84906 0.94099 0.92995 0.0
H624 H 0.87026 0.96832 0.91603 0.0
H625 H 0.9779 0.00307 0.83971 0.0
H626 H 0.95895 0.99928 0.93501 0.0
H627 H 0.90827 0.99763 0.8238 0.0
H628 H 0.92707 1.00107 0.72919 0.0
H629 H 0.90666 0.97218 0.91928 0.0
H630 H 0.92503 0.03817 0.89154 0.0
H631 H 0.95013 0.06206 0.8792 0.0
H632 H 0.97224 0.04794 0.05953 0.0
H633 H 0.94764 0.02349 0.07202 0.0
C634 C 0.8455 1.00286 0.12014 0.0
C635 C 0.84998 0.00832 0.18144 0.0
C636 C 0.85974 0.99975 0.07618 0.0
C637 C 0.87888 1.00158 0.09263 0.0
C638 C 0.88339 0.00661 0.15436 0.0
C639 C 0.86911 0.01001 0.19817 0.0
C640 C 0.894 0.99923 0.04447 0.0
C641 C 0.9078 0.01343 0.03767 0.0
C642 C 0.89407 0.98384 0.00228 0.0
C643 C 0.88129 0.96738 0.0103 0.0
C644 C 0.88049 0.95775 0.06758 0.0
C645 C 0.86837 0.94232 0.07509 0.0
C646 C 0.85704 0.9363 0.02553 0.0
C647 C 0.85784 0.94567 0.9683 0.0
C648 C 0.86993 0.96112 0.96055 0.0
C649 C 0.96276 1.00159 0.83572 0.0
C650 C 0.95398 1.00245 0.77704 0.0
C651 C 0.95192 0.9995 0.89016 0.0
C652 C 0.93211 0.99837 0.88673 0.0
C653 C 0.92348 0.99846 0.82784 0.0
C654 C 0.93426 1.00052 0.77372 0.0
C655 C 0.92006 0.9984 0.94379 0.0
C656 C 0.90685 0.98381 0.95209 0.0
C657 C 0.92078 0.01322 0.98799 0.0
C658 C 0.93462 0.02887 0.98241 0.0
C659 C 0.93526 0.04015 0.92853 0.0
C660 C 0.94944 0.05373 0.9214 0.0
C661 C 0.96282 0.05646 0.96844 0.0
C662 C 0.96192 0.04575 0.02302 0.0
C663 C 0.94788 0.032 0.03009 0.0
H664 H 0.97387 0.0669 0.96266 0.0
H665 H 0.84766 0.92435 0.03145 0.0
H666 H 0.48917 0.87361 0.24322 0.0
H667 H 0.49419 0.89851 0.16629 0.0
H668 H 0.51861 0.85827 0.03974 0.0
H669 H 0.51362 0.83321 0.11676 0.0
H670 H 0.53728 0.89238 0.03567 0.0
H671 H 0.47295 0.87037 0.02529 0.0
H672 H 0.44161 0.86258 0.06832 0.0
H673 H 0.43456 0.92 0.12593 0.0
H674 H 0.466 0.92807 0.08405 0.0
H675 H 0.52269 0.94072 0.7491 0.0
H676 H 0.5238 0.91857 0.83625 0.0
H677 H 0.4958 0.95899 0.95385 0.0
H678 H 0.49436 0.9811 0.8662 0.0
H679 H 0.47972 0.92564 0.96581 0.0
H680 H 0.54316 0.94835 0.97197 0.0
H681 H 0.57456 0.95642 0.93009 0.0
H682 H 0.58356 0.89853 0.88165 0.0
H683 H 0.55208 0.89014 0.92242 0.0
C684 C 0.49572 0.87006 0.19917 0.0
C685 C 0.50076 0.85136 0.18584 0.0
C686 C 0.4986 0.88433 0.15523 0.0
C687 C 0.50645 0.88022 0.09669 0.0
C688 C 0.51248 0.86178 0.08449 0.0
C689 C 0.50965 0.84747 0.12863 0.0
C690 C 0.50726 0.89489 0.0471 0.0
C691 C 0.52468 0.89953 0.01988 0.0
C692 C 0.49089 0.90456 0.02747 0.0
C693 C 0.4719 0.89977 0.05209 0.0
C694 C 0.46477 0.8813 0.04752 0.0
C695 C 0.44698 0.87684 0.07166 0.0
C696 C 0.43612 0.89078 0.09998 0.0
C697 C 0.443 0.90922 0.10406 0.0
C698 C 0.46079 0.91374 0.0801 0.0
C699 C 0.51692 0.94495 0.79369 0.0
C700 C 0.50838 0.96261 0.80079 0.0
C701 C 0.51765 0.9323 0.84365 0.0
C702 C 0.51003 0.93712 0.902 0.0
C703 C 0.50178 0.95492 0.90939 0.0
C704 C 0.501 0.96757 0.85934 0.0
C705 C 0.50977 0.92321 0.95413 0.0
C706 C 0.49239 0.91864 0.98175 0.0
C707 C 0.5262 0.91368 0.97415 0.0
C708 C 0.54517 0.91865 0.94976 0.0
C709 C 0.55176 0.93736 0.95194 0.0
C710 C 0.56959 0.94199 0.92848 0.0
C711 C 0.58103 0.928 0.90309 0.0
C712 C 0.57468 0.90935 0.90127 0.0
C713 C 0.55685 0.90465 0.92461 0.0
H714 H 0.59482 0.93161 0.88495 0.0
H715 H 0.42235 0.8873 0.11865 0.0
H716 H 0.68215 0.50715 0.08105 0.0
H717 H 0.6579 0.51059 1.00145 0.0
H718 H 0.61559 0.51639 0.14447 0.0
H719 H 0.63991 0.51306 0.22487 0.0
H720 H 0.60409 0.492 0.05743 0.0
H721 H 0.62962 0.55433 0.05472 0.0
H722 H 0.65451 0.57869 0.04978 0.0
H723 H 0.67067 0.55927 0.86792 0.0
H724 H 0.64605 0.53462 0.8721 0.0
H725 H 0.53321 0.51117 0.83005 0.0
H726 H 0.55454 0.51474 0.91924 0.0
H727 H 0.60229 0.50974 0.79582 0.0
H728 H 0.58096 0.50681 0.70672 0.0
H729 H 0.60904 0.5363 0.87933 0.0
H730 H 0.58546 0.4724 0.88618 0.0
H731 H 0.56077 0.44782 0.89084 0.0
H732 H 0.54111 0.47014 0.06509 0.0
H733 H 0.56552 0.49503 0.06099 0.0
C734 C 0.66778 0.50962 0.09587 0.0
C735 C 0.66308 0.50995 0.15969 0.0
C736 C 0.65386 0.51152 0.05007 0.0
C737 C 0.63487 0.51394 0.06671 0.0
C738 C 0.63013 0.51453 0.13033 0.0
C739 C 0.64406 0.51261 0.1763 0.0
C740 C 0.61999 0.51496 0.01755 0.0
C741 C 0.60499 0.50194 0.01914 0.0
C742 C 0.62128 0.52767 0.96676 0.0
C743 C 0.63607 0.54252 0.96396 0.0
C744 C 0.63857 0.55516 0.01386 0.0
C745 C 0.65262 0.56904 0.01116 0.0
C746 C 0.66419 0.5705 0.95862 0.0
C747 C 0.66171 0.55811 0.9086 0.0
C748 C 0.64769 0.5442 0.91108 0.0
C749 C 0.5482 0.51119 0.82192 0.0
C750 C 0.55535 0.50887 0.76135 0.0
C751 C 0.56044 0.51302 0.87301 0.0
C752 C 0.5801 0.5123 0.86457 0.0
C753 C 0.58722 0.51036 0.80378 0.0
C754 C 0.57499 0.50862 0.75283 0.0
C755 C 0.59334 0.51314 0.9187 0.0
C756 C 0.60804 0.5265 0.91801 0.0
C757 C 0.59179 0.50073 0.97024 0.0
C758 C 0.57718 0.4857 0.97292 0.0
C759 C 0.57578 0.47215 0.92525 0.0
C760 C 0.56185 0.45815 0.92783 0.0
C761 C 0.54934 0.45745 0.97815 0.0
C762 C 0.55078 0.47072 0.02608 0.0
C763 C 0.56466 0.48477 0.02367 0.0
H764 H 0.53857 0.4466 0.98007 0.0
H765 H 0.67506 0.58125 0.95663 0.0
H766 H 0.99443 0.68286 0.096 0.0
H767 H 0.99044 0.65881 0.01533 0.0
H768 H 0.00533 0.61576 0.14772 0.0
H769 H 0.00883 0.6396 0.22914 0.0
H770 H 0.02642 0.61399 0.03993 0.0
H771 H 0.96106 0.61843 0.09603 0.0
H772 H 0.93103 0.63468 0.11558 0.0
H773 H 0.93011 0.65417 0.92605 0.0
H774 H 0.9603 0.63825 0.90559 0.0
H775 H 0.01303 0.53572 0.84311 0.0
H776 H 0.00988 0.55777 0.92995 0.0
H777 H 0.98779 0.59962 0.80429 0.0
H778 H 0.99004 0.57721 0.71776 0.0
H779 H 0.9697 0.60184 0.91017 0.0
H780 H 0.03504 0.59949 0.85374 0.0
H781 H 0.06541 0.58419 0.83148 0.0
H782 H 0.06713 0.56244 0.01822 0.0
H783 H 0.03662 0.57741 0.04135 0.0
C784 C 0.99636 0.66824 0.10858 0.0
C785 C 1.00209 0.66326 0.16926 0.0
C786 C 0.99416 0.65449 0.06217 0.0
C787 C 0.99765 0.63546 0.07534 0.0
C788 C 1.00269 0.63036 0.13631 0.0
C789 C 0.00474 0.64405 0.1828 0.0
C790 C 0.9973 0.62104 0.02482 0.0
C791 C 0.01392 0.61112 0.01221 0.0
C792 C 0.98119 0.61772 0.98728 0.0
C793 C 0.96304 0.6273 0.99946 0.0
C794 C 0.95455 0.62632 0.05867 0.0
C795 C 0.93748 0.63545 0.06988 0.0
C796 C 0.9287 0.6455 0.02213 0.0
C797 C 0.93695 0.6464 0.96302 0.0
C798 C 0.95403 0.63732 0.95157 0.0
C799 C 0.0072 0.54951 0.83416 0.0
C800 C 1.00176 0.55472 0.77358 0.0
C801 C 0.00558 0.5622 0.88379 0.0
C802 C 0.99895 0.58057 0.8737 0.0
C803 C 0.993 0.58559 0.81345 0.0
C804 C 0.99437 0.57279 0.76392 0.0
C805 C 0.99883 0.59469 0.92537 0.0
C806 C 0.98218 0.60463 0.93804 0.0
C807 C 0.01499 0.59824 0.96259 0.0
C808 C 0.03346 0.58942 0.94907 0.0
C809 C 0.04184 0.59135 0.88994 0.0
C810 C 0.05908 0.58275 0.87718 0.0
C811 C 0.06817 0.57231 0.92335 0.0
C812 C 0.06006 0.57051 0.98247 0.0
C813 C 0.0428 0.57906 0.99545 0.0
H814 H 0.08151 0.56564 0.91336 0.0
H815 H 0.91548 0.65255 0.0309 0.0
H816 H 0.07206 0.21003 0.09207 0.0
H817 H 0.06768 0.17814 0.13062 0.0
H818 H 0.05189 0.19996 0.31092 0.0
H819 H 0.05786 0.2319 0.27443 0.0
H820 H 0.06802 0.16822 0.32717 0.0
H821 H 0.01963 0.19065 0.18867 0.0
H822 H 0.00653 0.20295 0.09032 0.0
H823 H 0.02493 0.15347 0.99344 0.0
H824 H 0.03855 0.14105 0.09102 0.0
H825 H 0.99805 0.10577 0.43376 0.0
H826 H 0.01469 0.13272 0.38899 0.0
H827 H 0.03603 0.09752 0.24135 0.0
H828 H 0.0191 0.07037 0.28562 0.0
H829 H 0.02097 0.1327 0.20147 0.0
H830 H 0.06522 0.10914 0.35211 0.0
H831 H 0.0744 0.09773 0.45634 0.0
H832 H 0.05917 0.1509 0.53661 0.0
H833 H 0.04964 0.16253 0.43299 0.0
C834 C 0.06843 0.20813 0.14071 0.0
C835 C 0.06494 0.22367 0.17978 0.0
C836 C 0.06563 0.1898 0.1624 0.0
C837 C 0.05876 0.18667 0.2229 0.0
C838 C 0.05691 0.20202 0.26367 0.0
C839 C 0.06013 0.22033 0.24249 0.0
C840 C 0.05179 0.16781 0.24212 0.0
C841 C 0.05773 0.16049 0.29963 0.0
C842 C 0.03849 0.15755 0.20583 0.0
C843 C 0.03037 0.16504 0.14702 0.0
C844 C 0.02106 0.18247 0.1463 0.0
C845 C 0.01354 0.18946 0.0907 0.0
C846 C 0.01497 0.17903 0.03568 0.0
C847 C 0.02391 0.16157 0.0361 0.0
C848 C 0.03157 0.15456 0.09151 0.0
C849 C 0.00608 0.10379 0.39133 0.0
C850 C 0.00719 0.086 0.36293 0.0
C851 C 0.01574 0.11914 0.36622 0.0
C852 C 0.02673 0.11701 0.31238 0.0
C853 C 0.02767 0.09937 0.28317 0.0
C854 C 0.01808 0.08391 0.30856 0.0
C855 C 0.03699 0.13342 0.28666 0.0
C856 C 0.0316 0.14027 0.2281 0.0
C857 C 0.05041 0.14347 0.32259 0.0
C858 C 0.05664 0.13668 0.38474 0.0
C859 C 0.06376 0.11837 0.39201 0.0
C860 C 0.06903 0.11187 0.45099 0.0
C861 C 0.06737 0.12358 0.50306 0.0
C862 C 0.06048 0.14185 0.49622 0.0
C863 C 0.05517 0.14842 0.43735 0.0
H864 H 0.07142 0.11851 0.5487 0.0
H865 H 0.00909 0.18444 0.99281 0.0
H866 H 0.27232 0.06852 0.28469 0.0
H867 H 0.30189 0.06072 0.33581 0.0
H868 H 0.33227 0.07379 0.16668 0.0
H869 H 0.30266 0.08014 0.11377 0.0
H870 H 0.3418 0.04124 0.20317 0.0
H871 H 0.33662 0.1003 0.30739 0.0
H872 H 0.32135 0.12537 0.36839 0.0
H873 H 0.31447 0.08752 0.52293 0.0
H874 H 0.32947 0.06214 0.46257 0.0
H875 H 0.43126 0.02477 0.33941 0.0
H876 H 0.40401 0.04025 0.29285 0.0
H877 H 0.36901 0.02071 0.4445 0.0
H878 H 0.39637 0.00555 0.49229 0.0
H879 H 0.36335 0.05832 0.41603 0.0
H880 H 0.36625 0.99887 0.30609 0.0
H881 H 0.38165 0.97414 0.24379 0.0
H882 H 0.39342 0.01421 0.09875 0.0
H883 H 0.37843 0.03923 0.16093 0.0
C884 C 0.2853 0.06992 0.25848 0.0
C885 C 0.28502 0.0747 0.19482 0.0
C886 C 0.30227 0.0657 0.28811 0.0
C887 C 0.31936 0.0667 0.25516 0.0
C888 C 0.31925 0.07287 0.19299 0.0
C889 C 0.30227 0.07674 0.16298 0.0
C890 C 0.3369 0.05912 0.28291 0.0
C891 C 0.3467 0.04533 0.24921 0.0
C892 C 0.34305 0.06401 0.34367 0.0
C893 C 0.33405 0.07927 0.38021 0.0
C894 C 0.33173 0.09728 0.35421 0.0
C895 C 0.32314 0.11155 0.38871 0.0
C896 C 0.31691 0.10803 0.44945 0.0
C897 C 0.3193 0.09023 0.47587 0.0
C898 C 0.32786 0.0759 0.44155 0.0
C899 C 0.41777 0.02383 0.36294 0.0
C900 C 0.4159 0.01392 0.41936 0.0
C901 C 0.40222 0.03259 0.33615 0.0
C902 C 0.38452 0.0315 0.36511 0.0
C903 C 0.38258 0.02167 0.4215 0.0
C904 C 0.39815 0.01287 0.44834 0.0
C905 C 0.368 0.04056 0.33621 0.0
C906 C 0.35844 0.05451 0.36975 0.0
C907 C 0.3621 0.03595 0.27514 0.0
C908 C 0.37128 0.02092 0.23815 0.0
C909 C 0.37225 1.00242 0.26112 0.0
C910 C 0.3809 0.98835 0.22585 0.0
C911 C 0.38853 0.9926 0.16738 0.0
C912 C 0.38751 0.01093 0.14405 0.0
C913 C 0.37893 0.02505 0.17923 0.0
H914 H 0.3952 0.98169 0.14012 0.0
H915 H 0.31026 0.1191 0.47608 0.0
H916 H 0.42976 0.29524 0.23951 0.0
H917 H 0.43212 0.32823 0.26871 0.0
H918 H 0.43186 0.3441 0.07433 0.0
H919 H 0.4308 0.31096 0.04477 0.0
H920 H 0.4598 0.35966 0.12511 0.0
H921 H 0.39577 0.35781 0.18114 0.0
H922 H 0.36624 0.34576 0.22732 0.0
H923 H 0.39042 0.34994 0.41047 0.0
H924 H 0.42019 0.36174 0.36543 0.0
H925 H 0.48361 0.44955 0.25771 0.0
H926 H 0.46507 0.42605 0.20033 0.0
H927 H 0.46392 0.39054 0.3635 0.0
H928 H 0.48133 0.41425 0.42195 0.0
H929 H 0.43021 0.39085 0.30688 0.0
H930 H 0.49647 0.38591 0.24187 0.0
H931 H 0.52556 0.39792 0.19245 0.0
H932 H 0.49569 0.40652 0.02069 0.0
H933 H 0.46633 0.39489 0.06949 0.0
C934 C 0.42991 0.30575 0.20294 0.0
C935 C 0.43034 0.30041 0.13984 0.0
C936 C 0.43097 0.3247 0.2197 0.0
C937 C 0.43204 0.33877 0.17376 0.0
C938 C 0.43103 0.33353 0.11067 0.0
C939 C 0.43023 0.31454 0.09383 0.0
C940 C 0.43706 0.35839 0.19177 0.0
C941 C 0.45299 0.36668 0.16385 0.0
C942 C 0.4282 0.36769 0.24217 0.0
C943 C 0.41028 0.36063 0.26976 0.0
C944 C 0.39485 0.35606 0.23124 0.0
C945 C 0.37805 0.34928 0.25724 0.0
C946 C 0.37646 0.34707 0.32178 0.0
C947 C 0.39166 0.35167 0.36048 0.0
C948 C 0.4085 0.35845 0.33473 0.0
C949 C 0.47915 0.43687 0.28166 0.0
C950 C 0.48422 0.43369 0.34428 0.0
C951 C 0.46867 0.4234 0.24862 0.0
C952 C 0.46329 0.40646 0.27745 0.0
C953 C 0.46797 0.40348 0.34021 0.0
C954 C 0.47819 0.41697 0.37335 0.0
C955 C 0.45352 0.39126 0.24259 0.0
C956 C 0.43664 0.38395 0.26713 0.0
C957 C 0.46143 0.38291 0.18878 0.0
C958 C 0.47912 0.38991 0.15973 0.0
C959 C 0.49605 0.3906 0.19383 0.0
C960 C 0.51259 0.39733 0.16591 0.0
C961 C 0.51242 0.40321 0.10371 0.0
C962 C 0.49575 0.40219 0.06909 0.0
C963 C 0.47916 0.39553 0.09686 0.0
H964 H 0.52525 0.40834 0.08212 0.0
H965 H 0.36345 0.34182 0.34181 0.0
H966 H 0.24474 0.47489 0.27994 0.0
H967 H 0.21837 0.47779 0.35132 0.0
H968 H 0.20523 0.41882 0.32719 0.0
H969 H 0.23176 0.41585 0.2547 0.0
H970 H 0.17587 0.43851 0.30347 0.0
H971 H 0.21786 0.43691 0.47273 0.0
H972 H 0.24619 0.44397 0.53532 0.0
H973 H 0.2302 0.50205 0.54658 0.0
H974 H 0.20192 0.49543 0.48322 0.0
H975 H 0.10975 0.48178 0.56011 0.0
H976 H 0.13855 0.46476 0.53337 0.0
H977 H 0.13609 0.48722 0.34654 0.0
H978 H 0.10703 0.50369 0.37228 0.0
H979 H 0.17226 0.47642 0.49745 0.0
H980 H 0.15 0.45773 0.24382 0.0
H981 H 0.12162 0.44743 0.18627 0.0
H982 H 0.09855 0.42376 0.35417 0.0
H983 H 0.12661 0.43427 0.41302 0.0
C984 C 0.23668 0.46235 0.2914 0.0
C985 C 0.24028 0.44514 0.26151 0.0
C986 C 0.22159 0.46402 0.3325 0.0
C987 C 0.20988 0.44849 0.34508 0.0
C988 C 0.2141 0.43098 0.31817 0.0
C989 C 0.22919 0.42932 0.27665 0.0
C990 C 0.19178 0.45143 0.37799 0.0
C991 C 0.17512 0.44652 0.34646 0.0
C992 C 0.19071 0.46151 0.43487 0.0
C993 C 0.20776 0.46565 0.47293 0.0
C994 C 0.22044 0.45122 0.48813 0.0
C995 C 0.23649 0.45514 0.52383 0.0
C996 C 0.24 0.47345 0.54488 0.0
C997 C 0.22745 0.48787 0.53029 0.0
C998 C 0.21139 0.48403 0.49456 0.0
C999 C 0.11531 0.48296 0.51321 0.0
C1000 C 0.10613 0.49399 0.46811 0.0
C1001 C 0.13176 0.47328 0.49811 0.0
C1002 C 0.1392 0.47441 0.43764 0.0
C1003 C 0.13032 0.48581 0.39311 0.0
C1004 C 0.1139 0.49546 0.40811 0.0
C1005 C 0.15666 0.46432 0.42096 0.0
C1006 C 0.1731 0.46795 0.45544 0.0
C1007 C 0.15754 0.45268 0.36758 0.0
C1008 C 0.14037 0.44686 0.33283 0.0
C1009 C 0.13884 0.45039 0.26849 0.0
C1010 C 0.12277 0.4446 0.23572 0.0
C1011 C 0.10823 0.43507 0.26667 0.0
C1012 C 0.10973 0.43134 0.33045 0.0
C1013 C 0.12565 0.43731 0.36362 0.0
H1014 H 0.09583 0.43052 0.2412 0.0
H1015 H 0.25243 0.47645 0.57253 0.0
H1016 H 0.03645 0.77608 0.08309 0.0
H1017 H 0.04059 0.80369 0.01755 0.0
H1018 H 0.09633 0.81242 0.09347 0.0
H1019 H 0.09217 0.78467 0.16007 0.0
H1020 H 0.07613 0.84289 0.10481 0.0
H1021 H 0.08921 0.80148 0.93641 0.0
H1022 H 0.08471 0.77421 0.86672 0.0
H1023 H 0.03137 0.79606 0.80713 0.0
H1024 H 0.03538 0.82332 0.87715 0.0
H1025 H 0.08017 0.92737 0.92897 0.0
H1026 H 0.08811 0.8957 0.96418 0.0
H1027 H 0.03232 0.87629 0.91461 0.0
H1028 H 0.0246 0.90766 0.87614 0.0
H1029 H 0.05883 0.85084 0.88221 0.0
H1030 H 0.04301 0.88797 0.06428 0.0
H1031 H 0.04624 0.91493 0.13612 0.0
H1032 H 0.104 0.90045 0.17056 0.0
H1033 H 0.10115 0.87351 0.09832 0.0
C1034 C 0.04986 0.78347 0.0844 0.0
C1035 C 0.064 0.77821 0.1268 0.0
C1036 C 0.05222 0.79928 0.04673 0.0
C1037 C 0.06884 0.81005 0.05013 0.0
C1038 C 0.0834 0.80428 0.09005 0.0
C1039 C 0.081 0.78848 0.12812 0.0
C1040 C 0.06979 0.82858 0.01851 0.0
C1041 C 0.07288 0.84457 0.05567 0.0
C1042 C 0.06505 0.83081 0.95479 0.0
C1043 C 0.06257 0.81443 0.91239 0.0
C1044 C 0.07645 0.80042 0.90881 0.0
C1045 C 0.074 0.78496 0.86917 0.0
C1046 C 0.05775 0.78339 0.83259 0.0
C1047 C 0.04395 0.79729 0.83549 0.0
C1048 C 0.04632 0.81277 0.87509 0.0
C1049 C 0.0697 0.91629 0.92445 0.0
C1050 C 0.05169 0.92007 0.90005 0.0
C1051 C 0.07422 0.89824 0.94505 0.0
C1052 C 0.06075 0.88371 0.94238 0.0
C1053 C 0.04294 0.88731 0.91681 0.0
C1054 C 0.03846 0.9053 0.8957 0.0
C1055 C 0.0648 0.86496 0.96894 0.0
C1056 C 0.06257 0.84902 0.9309 0.0
C1057 C 0.07022 0.86271 0.03195 0.0
C1058 C 0.07194 0.87889 0.07536 0.0
C1059 C 0.05644 0.89063 0.08681 0.0
C1060 C 0.05819 0.90589 0.12766 0.0
C1061 C 0.07533 0.90944 0.15772 0.0
C1062 C 0.09074 0.89771 0.14714 0.0
C1063 C 0.08907 0.88244 0.10628 0.0
H1064 H 0.07667 0.92126 0.18934 0.0
H1065 H 0.05588 0.77142 0.80193 0.0
H1066 H 0.74203 0.09404 0.06999 0.0
H1067 H 0.71827 0.09743 0.98736 0.0
H1068 H 0.71033 0.03709 0.98477 0.0
H1069 H 0.73452 0.03372 0.06433 0.0
H1070 H 0.70629 0.04896 0.87329 0.0
H1071 H 0.68256 0.06901 0.07629 0.0
H1072 H 0.68238 0.08894 0.1706 0.0
H1073 H 0.67597 0.13827 0.05704 0.0
H1074 H 0.67633 0.11861 0.96201 0.0
H1075 H 0.61121 0.02498 0.86835 0.0
H1076 H 0.64468 0.03214 0.87936 0.0
H1077 H 0.6347 0.08939 0.82152 0.0
H1078 H 0.60092 0.08228 0.81129 0.0
H1079 H 0.65111 0.08719 0.93507 0.0
H1080 H 0.66812 0.0629 0.73171 0.0
H1081 H 0.66703 0.04024 0.64446 0.0
H1082 H 0.68267 0.99556 0.76831 0.0
H1083 H 0.68463 0.01808 0.85582 0.0
C1084 C 0.73538 0.08156 0.05071 0.0
C1085 C 0.74001 0.06364 0.07336 0.0
C1086 C 0.72182 0.08348 0.00373 0.0
C1087 C 0.71226 0.06753 0.98045 0.0
C1088 C 0.71753 0.04961 1.0015 0.0
C1089 C 0.73132 0.04769 0.0472 0.0
C1090 C 0.69557 0.06922 0.93908 0.0
C1091 C 0.69428 0.05745 0.88651 0.0
C1092 C 0.67998 0.08061 0.95517 0.0
C1093 C 0.67974 0.0924 0.01215 0.0
C1094 C 0.68124 0.08412 0.07149 0.0
C1095 C 0.68109 0.09536 0.12503 0.0
C1096 C 0.67924 0.11487 0.1198 0.0
C1097 C 0.67747 0.12317 0.06101 0.0
C1098 C 0.67765 0.11199 0.0073 0.0
C1099 C 0.61621 0.03901 0.85699 0.0
C1100 C 0.60349 0.05318 0.84019 0.0
C1101 C 0.63539 0.04302 0.86227 0.0
C1102 C 0.64225 0.06127 0.85065 0.0
C1103 C 0.62972 0.07519 0.83021 0.0
C1104 C 0.61046 0.07113 0.82455 0.0
C1105 C 0.66157 0.06629 0.87123 0.0
C1106 C 0.66337 0.07932 0.92007 0.0
C1107 C 0.67741 0.0557 0.85277 0.0
C1108 C 0.67643 0.04215 0.80026 0.0
C1109 C 0.67132 0.04824 0.74028 0.0
C1110 C 0.67059 0.03543 0.69078 0.0
C1111 C 0.67449 0.01643 0.701 0.0
C1112 C 0.67958 0.01027 0.76049 0.0
C1113 C 0.68071 0.02308 0.80991 0.0
H1114 H 0.67359 0.0065 0.66285 0.0
H1115 H 0.67912 0.12355 0.1613 0.0
H1116 H 0.43918 0.73344 0.1117 0.0
H1117 H 0.43515 0.70242 0.06404 0.0
H1118 H 0.43204 0.67713 0.24669 0.0
H1119 H 0.43691 0.70787 0.29457 0.0
H1120 H 0.45742 0.66019 0.17763 0.0
H1121 H 0.39326 0.67854 0.14834 0.0
H1122 H 0.36744 0.69931 0.11496 0.0
H1123 H 0.38641 0.69574 0.92516 0.0
H1124 H 0.41251 0.67515 0.9575 0.0
H1125 H 0.44849 0.56913 0.05203 0.0
H1126 H 0.43968 0.59749 0.10887 0.0
H1127 H 0.44066 0.62918 0.93724 0.0
H1128 H 0.44824 0.60067 0.87946 0.0
H1129 H 0.41335 0.64153 0.00855 0.0
H1130 H 0.47918 0.62711 0.03789 0.0
H1131 H 0.5063 0.60771 0.06906 0.0
H1132 H 0.4854 0.60539 0.25687 0.0
H1133 H 0.45796 0.62451 0.22656 0.0
C1134 C 0.43743 0.7213 0.14172 0.0
C1135 C 0.43845 0.72317 0.20696 0.0
C1136 C 0.43493 0.70359 0.11442 0.0
C1137 C 0.43319 0.68745 0.15184 0.0
C1138 C 0.4333 0.6894 0.21694 0.0
C1139 C 0.4359 0.70705 0.24424 0.0
C1140 C 0.43328 0.66843 0.12331 0.0
C1141 C 0.4475 0.65595 0.14165 0.0
C1142 C 0.42069 0.66311 0.07514 0.0
C1143 C 0.40492 0.67539 0.05546 0.0
C1144 C 0.39201 0.68229 0.09954 0.0
C1145 C 0.37731 0.69401 0.08079 0.0
C1146 C 0.37531 0.69887 0.018 0.0
C1147 C 0.38798 0.69197 0.97379 0.0
C1148 C 0.40271 0.68024 0.9923 0.0
C1149 C 0.44636 0.582 0.026 0.0
C1150 C 0.44939 0.58264 0.96113 0.0
C1151 C 0.44152 0.59828 0.05877 0.0
C1152 C 0.43997 0.61557 0.02754 0.0
C1153 C 0.44194 0.61604 0.96245 0.0
C1154 C 0.44652 0.59975 0.92956 0.0
C1155 C 0.43757 0.6334 0.06267 0.0
C1156 C 0.42303 0.64566 0.04538 0.0
C1157 C 0.44998 0.63865 0.11155 0.0
C1158 C 0.46639 0.62702 0.12974 0.0
C1159 C 0.48027 0.6223 0.08569 0.0
C1160 C 0.49571 0.61137 0.10323 0.0
C1161 C 0.49752 0.60525 0.16485 0.0
C1162 C 0.48393 0.61008 0.20911 0.0
C1163 C 0.46842 0.62095 0.19178 0.0
H1164 H 0.5095 0.59682 0.17836 0.0
H1165 H 0.36392 0.70795 0.00358 0.0
H1166 H 0.75737 0.43988 0.03807 0.0
H1167 H 0.77761 0.4413 0.94459 0.0
H1168 H 0.80762 0.48865 0.02389 0.0
H1169 H 0.7876 0.4874 0.11571 0.0
H1170 H 0.80082 0.49365 0.89934 0.0
H1171 H 0.82384 0.44383 0.04267 0.0
H1172 H 0.81993 0.4134 0.09684 0.0
H1173 H 0.80975 0.38587 0.9215 0.0
H1174 H 0.81343 0.41622 0.86647 0.0
H1175 H 0.89629 0.49516 0.94122 0.0
H1176 H 0.86244 0.48994 0.94217 0.0
H1177 H 0.86529 0.46375 0.7611 0.0
H1178 H 0.89944 0.46988 0.7578 0.0
H1179 H 0.84811 0.44281 0.88214 0.0
H1180 H 0.82642 0.49481 0.73803 0.0
H1181 H 0.82978 0.52657 0.69231 0.0
H1182 H 0.83941 0.54986 0.87449 0.0
H1183 H 0.83541 0.51831 0.92137 0.0
C1184 C 0.76821 0.45065 0.03487 0.0
C1185 C 0.77121 0.46332 0.08435 0.0
C1186 C 0.77968 0.45147 0.98166 0.0
C1187 C 0.79406 0.46511 0.97739 0.0
C1188 C 0.79652 0.47811 0.02597 0.0
C1189 C 0.78525 0.47722 0.07883 0.0
C1190 C 0.80794 0.46531 0.92598 0.0
C1191 C 0.81087 0.48231 0.89399 0.0
C1192 C 0.82082 0.45041 0.91766 0.0
C1193 C 0.81866 0.43225 0.95066 0.0
C1194 C 0.82065 0.43129 0.01581 0.0
C1195 C 0.8185 0.41407 0.04663 0.0
C1196 C 0.81453 0.39772 0.01265 0.0
C1197 C 0.81277 0.39855 0.94777 0.0
C1198 C 0.81488 0.41575 0.91675 0.0
C1199 C 0.8898 0.48878 0.90061 0.0
C1200 C 0.90068 0.48295 0.84944 0.0
C1201 C 0.87041 0.48576 0.90134 0.0
C1202 C 0.86143 0.47667 0.85141 0.0
C1203 C 0.87203 0.47093 0.79978 0.0
C1204 C 0.89154 0.47424 0.79847 0.0
C1205 C 0.84141 0.47148 0.85887 0.0
C1206 C 0.83735 0.4536 0.88328 0.0
C1207 C 0.82753 0.48555 0.86071 0.0
C1208 C 0.83077 0.5043 0.83294 0.0
C1209 C 0.82931 0.50673 0.76817 0.0
C1210 C 0.83117 0.52469 0.74215 0.0
C1211 C 0.8349 0.54021 0.78041 0.0
C1212 C 0.83655 0.53783 0.8449 0.0
C1213 C 0.83434 0.51995 0.87126 0.0
H1214 H 0.83651 0.55407 0.76008 0.0
H1215 H 0.81287 0.3844 0.03658 0.0
H1216 H 0.04264 0.2162 0.87746 0.0
H1217 H 0.03687 0.1844 0.83844 0.0
H1218 H 0.97723 0.19117 0.8705 0.0
H1219 H 0.98311 0.22291 0.91173 0.0
H1220 H 0.98624 0.15836 0.90654 0.0
H1221 H 0.99841 0.1924 0.71996 0.0
H1222 H 0.01541 0.21317 0.64667 0.0
H1223 H 0.06215 0.17508 0.64469 0.0
H1224 H 0.04558 0.15424 0.71888 0.0
H1225 H 0.98777 0.08014 0.64242 0.0
H1226 H 0.98785 0.11309 0.6756 0.0
H1227 H 0.00542 0.09637 0.85999 0.0
H1228 H 0.0049 0.06347 0.82771 0.0
H1229 H 0.01429 0.13518 0.70933 0.0
H1230 H 0.9918 0.12746 0.97013 0.0
H1231 H 0.96937 0.1094 0.03501 0.0
H1232 H 0.93548 0.09757 0.87354 0.0
H1233 H 0.95764 0.11561 0.80773 0.0
C1234 C 0.02826 0.21101 0.8755 0.0
C1235 C 0.01329 0.22218 0.897 0.0
C1236 C 0.02495 0.19279 0.85298 0.0
C1237 C 0.00655 0.18537 0.85014 0.0
C1238 C 0.99156 0.19651 0.87185 0.0
C1239 C 0.99491 0.21467 0.89536 0.0
C1240 C 1.00308 0.16581 0.82662 0.0
C1241 C 0.99237 0.15333 0.86333 0.0
C1242 C 0.01066 0.1592 0.76948 0.0
C1243 C 0.02081 0.17185 0.72555 0.0
C1244 C 0.01239 0.18855 0.70443 0.0
C1245 C 0.02194 0.20032 0.66263 0.0
C1246 C 0.03987 0.19548 0.64118 0.0
C1247 C 0.04828 0.17884 0.66145 0.0
C1248 C 0.03881 0.16704 0.70339 0.0
C1249 C 0.99149 0.08344 0.69021 0.0
C1250 C 0.99637 0.06905 0.73222 0.0
C1251 C 0.99157 0.10235 0.70916 0.0
C1252 C 0.99649 0.10737 0.7706 0.0
C1253 C 1.00121 0.09299 0.81271 0.0
C1254 C 1.00105 0.0741 0.79391 0.0
C1255 C 0.99768 0.12763 0.78973 0.0
C1256 C 0.00809 0.14021 0.75241 0.0
C1257 C 0.98931 0.13449 0.84528 0.0
C1258 C 0.97649 0.12275 0.88392 0.0
C1259 C 0.97959 0.12095 0.94844 0.0
C1260 C 0.9669 0.11076 0.9854 0.0
C1261 C 0.95097 0.10242 0.95844 0.0
C1262 C 0.94782 0.10406 0.89435 0.0
C1263 C 0.96049 0.11418 0.85714 0.0
H1264 H 0.94112 0.0946 0.98717 0.0
H1265 H 0.04722 0.20459 0.60872 0.0
H1266 H 0.29902 0.02143 0.98978 0.0
H1267 H 0.33133 0.01635 0.95605 0.0
H1268 H 0.31519 0.02712 0.76555 0.0
H1269 H 0.28246 0.0308 0.79821 0.0
H1270 H 0.34089 1.00157 0.76435 0.0
H1271 H 0.33644 0.06168 0.86285 0.0
H1272 H 0.32803 0.08378 0.94694 0.0
H1273 H 0.36568 0.05558 0.07202 0.0
H1274 H 0.37412 0.03306 0.98898 0.0
H1275 H 0.43443 0.02009 0.65767 0.0
H1276 H 0.40117 0.0232 0.68588 0.0
H1277 H 0.41493 0.01211 0.87841 0.0
H1278 H 0.44828 0.00994 0.85083 0.0
H1279 H 0.39015 0.03839 0.87567 0.0
H1280 H 0.39394 0.97771 0.77076 0.0
H1281 H 0.40244 0.95755 0.68145 0.0
H1282 H 0.36603 0.98948 0.56214 0.0
H1283 H 0.35741 0.00991 0.65068 0.0
C1284 C 0.30209 0.02222 0.94041 0.0
C1285 C 0.28787 0.02675 0.89704 0.0
C1286 C 0.32079 0.01962 0.92122 0.0
C1287 C 0.32598 0.0219 0.85833 0.0
C1288 C 0.31172 0.02549 0.81446 0.0
C1289 C 0.29294 0.0278 0.83347 0.0
C1290 C 0.34629 0.02127 0.8388 0.0
C1291 C 0.3516 0.00977 0.78842 0.0
C1292 C 0.36047 0.03187 0.86999 0.0
C1293 C 0.35579 0.04559 0.9198 0.0
C1294 C 0.34287 0.06013 0.90839 0.0
C1295 C 0.33809 0.07271 0.95588 0.0
C1296 C 0.34628 0.07102 0.01486 0.0
C1297 C 0.35933 0.0568 0.02638 0.0
C1298 C 0.36413 0.04413 0.97909 0.0
C1299 C 0.43038 0.01835 0.70605 0.0
C1300 C 0.44406 0.01471 0.75193 0.0
C1301 C 0.41127 0.02 0.72216 0.0
C1302 C 0.40528 0.01749 0.78429 0.0
C1303 C 0.41903 0.01407 0.83016 0.0
C1304 C 0.43815 0.01279 0.81427 0.0
C1305 C 0.38482 0.01844 0.8019 0.0
C1306 C 0.37946 0.03009 0.85183 0.0
C1307 C 0.37058 0.00818 0.76973 0.0
C1308 C 0.37512 0.99539 0.71723 0.0
C1309 C 0.38774 0.98042 0.72547 0.0
C1310 C 0.39259 0.96896 0.67499 0.0
C1311 C 0.38481 0.97226 0.61614 0.0
C1312 C 0.37204 0.98694 0.60775 0.0
C1313 C 0.36714 0.99843 0.65809 0.0
H1314 H 0.38865 0.96343 0.57705 0.0
H1315 H 0.34256 0.08078 0.05156 0.0
H1316 H 0.52047 0.29593 0.93673 0.0
H1317 H 0.52447 0.32816 0.89768 0.0
H1318 H 0.46755 0.32703 0.82685 0.0
H1319 H 0.4635 0.29501 0.86531 0.0
H1320 H 0.48905 0.34364 0.74525 0.0
H1321 H 0.4792 0.3492 0.9649 0.0
H1322 H 0.48542 0.34253 0.07583 0.0
H1323 H 0.54088 0.36652 0.05873 0.0
H1324 H 0.53518 0.37292 0.94719 0.0
H1325 H 0.4882 0.45189 0.8156 0.0
H1326 H 0.48624 0.41928 0.85098 0.0
H1327 H 0.51956 0.40182 0.69307 0.0
H1328 H 0.52094 0.43434 0.65611 0.0
H1329 H 0.50948 0.39449 0.88938 0.0
H1330 H 0.50788 0.35813 0.64688 0.0
H1331 H 0.4976 0.36517 0.53942 0.0
H1332 H 0.45687 0.40428 0.60958 0.0
H1333 H 0.46672 0.39728 0.71741 0.0
C1334 C 0.50884 0.30253 0.91264 0.0
C1335 C 0.49171 0.29275 0.9039 0.0
C1336 C 0.51112 0.32099 0.89038 0.0
C1337 C 0.49625 0.33017 0.85966 0.0
C1338 C 0.4793 0.32029 0.84994 0.0
C1339 C 0.47704 0.30188 0.87182 0.0
C1340 C 0.49803 0.35018 0.83885 0.0
C1341 C 0.49362 0.35472 0.77674 0.0
C1342 C 0.50349 0.36483 0.88014 0.0
C1343 C 0.50685 0.36132 0.94747 0.0
C1344 C 0.49278 0.35293 0.98466 0.0
C1345 C 0.4962 0.34921 0.04766 0.0
C1346 C 0.51353 0.35407 0.07428 0.0
C1347 C 0.52749 0.36268 0.03794 0.0
C1348 C 0.52417 0.36637 0.97484 0.0
C1349 C 0.49508 0.44112 0.78821 0.0
C1350 C 0.50458 0.44577 0.7326 0.0
C1351 C 0.49402 0.42243 0.80873 0.0
C1352 C 0.50252 0.40792 0.77444 0.0
C1353 C 0.51247 0.41262 0.71976 0.0
C1354 C 0.51331 0.43128 0.69871 0.0
C1355 C 0.50072 0.38792 0.79548 0.0
C1356 C 0.50507 0.38339 0.85769 0.0
C1357 C 0.49456 0.37337 0.75484 0.0
C1358 C 0.48819 0.37731 0.69018 0.0
C1359 C 0.49667 0.36815 0.63937 0.0
C1360 C 0.49093 0.37215 0.57839 0.0
C1361 C 0.47664 0.38521 0.56766 0.0
C1362 C 0.46798 0.39421 0.61792 0.0
C1363 C 0.47364 0.39024 0.67897 0.0
H1364 H 0.47225 0.38833 0.52042 0.0
H1365 H 0.51612 0.35126 0.12314 0.0
H1366 H 0.20772 0.49211 0.99613 0.0
H1367 H 0.17573 0.49669 0.95881 0.0
H1368 H 0.19266 0.47998 0.77384 0.0
H1369 H 0.22512 0.47705 0.80938 0.0
H1370 H 0.16817 0.50532 0.76076 0.0
H1371 H 0.16885 0.44935 0.8856 0.0
H1372 H 0.1747 0.43019 0.97946 0.0
H1373 H 0.13721 0.46504 0.0853 0.0
H1374 H 0.1313 0.48456 0.99223 0.0
H1375 H 0.07404 0.48885 0.65483 0.0
H1376 H 0.10695 0.48468 0.68581 0.0
H1377 H 0.09318 0.50246 0.87283 0.0
H1378 H 0.06012 0.50557 0.84268 0.0
H1379 H 0.11634 0.47553 0.88141 0.0
H1380 H 0.11579 0.53136 0.7504 0.0
H1381 H 0.10929 0.54829 0.65236 0.0
H1382 H 0.14669 0.51152 0.55354 0.0
H1383 H 0.15301 0.49404 0.65061 0.0
C1384 C 0.20491 0.48985 0.94709 0.0
C1385 C 0.21931 0.48397 0.90626 0.0
C1386 C 0.18635 0.49213 0.92593 0.0
C1387 C 0.18142 0.48809 0.86373 0.0
C1388 C 0.19586 0.48297 0.82226 0.0
C1389 C 0.21452 0.48106 0.84305 0.0
C1390 C 0.16127 0.48889 0.84221 0.0
C1391 C 0.15689 0.49861 0.78692 0.0
C1392 C 0.14633 0.48031 0.87612 0.0
C1393 C 0.14977 0.46852 0.93207 0.0
C1394 C 0.16194 0.45299 0.92898 0.0
C1395 C 0.16525 0.44206 0.98203 0.0
C1396 C 0.15636 0.44642 0.03834 0.0
C1397 C 0.14409 0.46169 0.04167 0.0
C1398 C 0.14075 0.47268 0.98877 0.0
C1399 C 0.07804 0.49181 0.70257 0.0
C1400 C 0.06444 0.4976 0.7462 0.0
C1401 C 0.09695 0.48956 0.72026 0.0
C1402 C 0.10286 0.49369 0.78152 0.0
C1403 C 0.08916 0.4992 0.82526 0.0
C1404 C 0.0702 0.50099 0.80797 0.0
C1405 C 0.12318 0.49224 0.80064 0.0
C1406 C 0.12761 0.48231 0.85538 0.0
C1407 C 0.13816 0.50043 0.76575 0.0
C1408 C 0.13475 0.51129 0.70775 0.0
C1409 C 0.12255 0.52683 0.70771 0.0
C1410 C 0.11886 0.53649 0.65226 0.0
C1411 C 0.1275 0.53092 0.5967 0.0
C1412 C 0.13995 0.51577 0.59656 0.0
C1413 C 0.14357 0.50596 0.65176 0.0
H1414 H 0.12457 0.53837 0.55378 0.0
H1415 H 0.15895 0.43794 0.07937 0.0
H1416 H 0.97923 0.80621 0.39285 0.0
H1417 H 0.97664 0.83835 0.43308 0.0
H1418 H 0.0255 0.82956 0.54891 0.0
H1419 H 0.02827 0.79757 0.50879 0.0
H1420 H 0.99952 0.84825 0.61246 0.0
H1421 H 0.02844 0.85424 0.41148 0.0
H1422 H 0.03146 0.84992 0.29778 0.0
H1423 H 0.97974 0.87979 0.26909 0.0
H1424 H 0.97629 0.88406 0.38276 0.0
H1425 H 0.0204 0.94478 0.67999 0.0
H1426 H 0.02118 0.91183 0.64705 0.0
H1427 H 0.97395 0.92145 0.52452 0.0
H1428 H 0.97349 0.95447 0.55565 0.0
H1429 H 0.99889 0.90205 0.46525 0.0
H1430 H 0.97116 0.89691 0.67009 0.0
H1431 H 0.96946 0.90105 0.78419 0.0
H1432 H 0.02041 0.86942 0.80619 0.0
H1433 H 0.02262 0.86543 0.69228 0.0
C1434 C 0.98944 0.8111 0.42687 0.0
C1435 C 0.00395 0.79918 0.44746 0.0
C1436 C 0.98794 0.82952 0.44987 0.0
C1437 C 1.00101 0.83653 0.49361 0.0
C1438 C 0.0152 0.82452 0.5154 0.0
C1439 C 0.01669 0.80613 0.49253 0.0
C1440 C 1.00019 0.85645 0.51584 0.0
C1441 C 0.99956 0.86003 0.58028 0.0
C1442 C 0.99999 0.87188 0.47403 0.0
C1443 C 1.002 0.86929 0.40567 0.0
C1444 C 0.01763 0.85974 0.38096 0.0
C1445 C 0.01943 0.85733 0.31652 0.0
C1446 C 0.00577 0.86453 0.27625 0.0
C1447 C 0.9903 0.87419 0.30035 0.0
C1448 C 0.98841 0.87662 0.36477 0.0
C1449 C 0.01009 0.93987 0.64632 0.0
C1450 C 0.99689 0.95237 0.6205 0.0
C1451 C 0.01049 0.92094 0.62768 0.0
C1452 C 0.99748 0.91396 0.58366 0.0
C1453 C 0.98418 0.9264 0.55842 0.0
C1454 C 0.9839 0.94534 0.57646 0.0
C1455 C 0.99804 0.89393 0.56207 0.0
C1456 C 0.9987 0.89031 0.4976 0.0
C1457 C 0.99842 0.87848 0.60396 0.0
C1458 C 0.99715 0.88103 0.67254 0.0
C1459 C 0.9821 0.891 0.69923 0.0
C1460 C 0.98104 0.89331 0.76391 0.0
C1461 C 0.99485 0.88555 0.80245 0.0
C1462 C 0.00975 0.87548 0.77638 0.0
C1463 C 0.01091 0.87319 0.71175 0.0
H1464 H 0.99398 0.88731 0.85252 0.0
H1465 H 0.00721 0.86266 0.22637 0.0
H1466 H 0.72031 1.00144 0.51678 0.0
H1467 H 0.68928 0.99797 0.56618 0.0
H1468 H 0.66408 0.02971 0.41686 0.0
H1469 H 0.69497 0.03307 0.36709 0.0
H1470 H 0.65088 0.04103 0.53339 0.0
H1471 H 0.65991 0.98274 0.41839 0.0
H1472 H 0.67706 0.95378 0.39122 0.0
H1473 H 0.6735 0.93515 0.58141 0.0
H1474 H 0.65653 0.96413 0.60983 0.0
H1475 H 0.55557 0.98928 0.54964 0.0
H1476 H 0.58846 0.99092 0.51521 0.0
H1477 H 0.60381 0.01889 0.68656 0.0
H1478 H 0.57103 0.01733 0.72135 0.0
H1479 H 0.62245 0.9777 0.56464 0.0
H1480 H 0.63502 0.05129 0.65583 0.0
H1481 H 0.61694 0.07945 0.68482 0.0
H1482 H 0.57615 0.06676 0.54258 0.0
H1483 H 0.59421 0.03861 0.51221 0.0
C1484 C 0.70815 0.0077 0.49457 0.0
C1485 C 0.71012 0.01738 0.43766 0.0
C1486 C 0.6904 0.00572 0.5229 0.0
C1487 C 0.67426 0.01362 0.49541 0.0
C1488 C 0.67627 0.02353 0.43914 0.0
C1489 C 0.69394 0.02527 0.41038 0.0
C1490 C 0.65518 0.01114 0.52393 0.0
C1491 C 0.64476 0.02716 0.54052 0.0
C1492 C 0.64704 0.9931 0.53348 0.0
C1493 C 0.65711 0.97565 0.5163 0.0
C1494 C 0.6629 0.97252 0.45447 0.0
C1495 C 0.67256 0.95609 0.43884 0.0
C1496 C 0.6764 0.94265 0.48459 0.0
C1497 C 0.67054 0.94558 0.54604 0.0
C1498 C 0.66088 0.96199 0.56192 0.0
C1499 C 0.56594 0.99565 0.58029 0.0
C1500 C 0.56054 0.00331 0.63809 0.0
C1501 C 0.58478 0.99652 0.56059 0.0
C1502 C 0.59861 0.00518 0.59796 0.0
C1503 C 0.59338 0.01232 0.65653 0.0
C1504 C 0.57458 0.0114 0.67637 0.0
C1505 C 0.61826 0.00755 0.57417 0.0
C1506 C 0.62872 0.99154 0.55829 0.0
C1507 C 0.62649 0.02557 0.56575 0.0
C1508 C 0.61605 0.04293 0.58154 0.0
C1509 C 0.62237 0.05465 0.63015 0.0
C1510 C 0.61206 0.07055 0.64706 0.0
C1511 C 0.59541 0.0749 0.61557 0.0
C1512 C 0.58906 0.06338 0.56692 0.0
C1513 C 0.59934 0.04746 0.5498 0.0
H1514 H 0.58743 0.08719 0.62893 0.0
H1515 H 0.68389 0.92994 0.4724 0.0
H1516 H 0.51195 0.72257 0.55452 0.0
H1517 H 0.51472 0.69007 0.58916 0.0
H1518 H 0.51058 0.67103 0.3985 0.0
H1519 H 0.50622 0.70331 0.36398 0.0
H1520 H 0.48949 0.65004 0.46357 0.0
H1521 H 0.55334 0.67065 0.4899 0.0
H1522 H 0.57928 0.69104 0.5271 0.0
H1523 H 0.56376 0.67955 0.71696 0.0
H1524 H 0.53756 0.65928 0.68089 0.0
H1525 H 0.51677 0.55567 0.52205 0.0
H1526 H 0.51748 0.58849 0.48831 0.0
H1527 H 0.51007 0.60666 0.67858 0.0
H1528 H 0.50931 0.57379 0.71302 0.0
H1529 H 0.53745 0.62766 0.61417 0.0
H1530 H 0.47354 0.60633 0.58328 0.0
H1531 H 0.44876 0.58515 0.54251 0.0
H1532 H 0.46602 0.59752 0.35496 0.0
H1533 H 0.49119 0.61849 0.39459 0.0
C1534 C 0.51155 0.71152 0.51976 0.0
C1535 C 0.50878 0.71579 0.45623 0.0
C1536 C 0.51343 0.69285 0.53969 0.0
C1537 C 0.51308 0.67794 0.49653 0.0
C1538 C 0.51091 0.68219 0.43294 0.0
C1539 C 0.5087 0.70081 0.41308 0.0
C1540 C 0.51395 0.6579 0.51769 0.0
C1541 C 0.50021 0.64515 0.49567 0.0
C1542 C 0.52763 0.65142 0.5608 0.0
C1543 C 0.54338 0.66359 0.58265 0.0
C1544 C 0.55537 0.67258 0.53958 0.0
C1545 C 0.57014 0.6841 0.56047 0.0
C1546 C 0.57314 0.68663 0.62435 0.0
C1547 C 0.56141 0.6776 0.66749 0.0
C1548 C 0.54661 0.66608 0.64685 0.0
C1549 C 0.5154 0.5666 0.55696 0.0
C1550 C 0.51292 0.56202 0.62035 0.0
C1551 C 0.51574 0.58539 0.53746 0.0
C1552 C 0.51366 0.60005 0.58081 0.0
C1553 C 0.51168 0.59558 0.64429 0.0
C1554 C 0.5112 0.57676 0.66386 0.0
C1555 C 0.51313 0.61999 0.55961 0.0
C1556 C 0.52685 0.63265 0.5818 0.0
C1557 C 0.49961 0.62635 0.51597 0.0
C1558 C 0.4844 0.61383 0.49199 0.0
C1559 C 0.47218 0.6044 0.53335 0.0
C1560 C 0.45805 0.59245 0.51044 0.0
C1561 C 0.45587 0.58994 0.44619 0.0
C1562 C 0.46778 0.59943 0.4047 0.0
C1563 C 0.48198 0.61136 0.42738 0.0
H1564 H 0.44491 0.58069 0.42853 0.0
H1565 H 0.58458 0.69555 0.64043 0.0
H1566 H 0.80659 0.51783 0.3656 0.0
H1567 H 0.83892 0.52199 0.40122 0.0
H1568 H 0.82448 0.49651 0.57758 0.0
H1569 H 0.79171 0.49372 0.5443 0.0
H1570 H 0.84867 0.52203 0.59984 0.0
H1571 H 0.84694 0.47197 0.45072 0.0
H1572 H 0.84 0.45671 0.34987 0.0
H1573 H 0.87606 0.49641 0.25622 0.0
H1574 H 0.88302 0.51208 0.35647 0.0
H1575 H 0.94035 0.49574 0.69071 0.0
H1576 H 0.90786 0.49511 0.65465 0.0
H1577 H 0.92391 0.52625 0.49008 0.0
H1578 H 0.95688 0.52633 0.52502 0.0
H1579 H 0.89936 0.49872 0.46105 0.0
H1580 H 0.89944 0.54896 0.61742 0.0
H1581 H 0.90719 0.56126 0.72215 0.0
H1582 H 0.87493 0.51669 0.8062 0.0
H1583 H 0.86723 0.50397 0.702 0.0
C1584 C 0.81005 0.51353 0.41262 0.0
C1585 C 0.79632 0.50521 0.45158 0.0
C1586 C 0.82876 0.51562 0.43261 0.0
C1587 C 0.83445 0.50901 0.49148 0.0
C1588 C 0.82064 0.50152 0.5316 0.0
C1589 C 0.80184 0.49973 0.51208 0.0
C1590 C 0.85478 0.50946 0.51065 0.0
C1591 C 0.85965 0.51673 0.56957 0.0
C1592 C 0.86939 0.50277 0.4713 0.0
C1593 C 0.86534 0.49331 0.41101 0.0
C1594 C 0.85329 0.47752 0.40856 0.0
C1595 C 0.84937 0.46879 0.35152 0.0
C1596 C 0.85754 0.47562 0.29665 0.0
C1597 C 0.86971 0.49116 0.29875 0.0
C1598 C 0.87366 0.49996 0.35567 0.0
C1599 C 0.93706 0.50255 0.64687 0.0
C1600 C 0.9513 0.51127 0.61105 0.0
C1601 C 0.91836 0.50225 0.62641 0.0
C1602 C 0.91324 0.51103 0.57027 0.0
C1603 C 0.92744 0.51948 0.53377 0.0
C1604 C 0.9463 0.51956 0.55386 0.0
C1605 C 0.89309 0.51129 0.54991 0.0
C1606 C 0.8883 0.50411 0.49095 0.0
C1607 C 0.87851 0.51768 0.58962 0.0
C1608 C 0.88266 0.52562 0.65208 0.0
C1609 C 0.89399 0.54182 0.65831 0.0
C1610 C 0.89842 0.54881 0.71755 0.0
C1611 C 0.89157 0.53973 0.77083 0.0
C1612 C 0.88027 0.52365 0.76494 0.0
C1613 C 0.8758 0.5166 0.70584 0.0
H1614 H 0.89502 0.54514 0.81666 0.0
H1615 H 0.85448 0.46884 0.25253 0.0
loop_
_geom_bond_atom_site_label_1
_geom_bond_atom_site_label_2
_geom_bond_distance
_geom_bond_site_symmetry_2
_ccdc_geom_bond_type
P0 O11 1.490 . S
P0 C14 1.812 . S
P0 C20 1.803 . S
P0 C26 1.819 . S
H1 C15 0.941 . S
H2 C16 0.939 . S
H3 C18 0.940 . S
H4 C19 0.940 . S
H5 C21 0.939 . S
H6 C22 0.942 . S
H7 C24 0.940 . S
H8 C25 0.939 . S
H9 C27 0.941 . S
H10 C31 0.939 . S
O11 P0 1.490 . S
H12 C28 0.939 . S
H13 C30 0.940 . S
C14 P0 1.812 . S
C14 C15 1.389 . S
C14 C19 1.391 . S
C15 H1 0.941 . S
C15 C14 1.389 . S
C15 C16 1.397 . S
C16 H2 0.939 . S
C16 C15 1.397 . S
C16 C17 1.378 . S
C17 C16 1.378 . S
C17 C18 1.378 . S
C18 H3 0.940 . S
C18 C17 1.378 . S
C18 C19 1.396 . S
C19 H4 0.940 . S
C19 C14 1.391 . S
C19 C18 1.396 . S
C20 P0 1.803 . S
C20 C21 1.378 . S
C20 C25 1.400 . S
C21 H5 0.939 . S
C21 C20 1.378 . S
C21 C22 1.361 . S
C22 H6 0.942 . S
C22 C21 1.361 . S
C22 C23 1.369 . S
C23 C22 1.369 . S
C23 C24 1.404 . S
C24 H7 0.940 . S
C24 C23 1.404 . S
C24 C25 1.389 . S
C25 H8 0.939 . S
C25 C20 1.400 . S
C25 C24 1.389 . S
C26 P0 1.819 . S
C26 C27 1.391 . S
C26 C31 1.391 . S
C27 H9 0.941 . S
C27 C26 1.391 . S
C27 C28 1.396 . S
C28 H12 0.939 . S
C28 C27 1.396 . S
C28 C29 1.397 . S
C29 C28 1.397 . S
C29 C30 1.385 . S
C30 H13 0.940 . S
C30 C29 1.385 . S
C30 C31 1.388 . S
C31 H10 0.939 . S
C31 C26 1.391 . S
C31 C30 1.388 . S
P32 O43 1.490 . S
P32 C46 1.812 . S
P32 C52 1.803 . S
P32 C58 1.819 . S
H33 C47 0.941 . S
H34 C48 0.939 . S
H35 C50 0.940 . S
H36 C51 0.950 . S
H37 C53 0.939 . S
H38 C54 0.942 . S
H39 C56 0.940 . S
H40 C57 0.959 . S
H41 C59 0.941 . S
H42 C63 0.929 1_655 S
O43 P32 1.490 . S
H44 C60 0.939 . S
H45 C62 0.940 . S
C46 P32 1.812 . S
C46 C47 1.389 . S
C46 C51 1.375 1_455 S
C47 H33 0.941 . S
C47 C46 1.389 . S
C47 C48 1.397 . S
C48 H34 0.939 . S
C48 C47 1.397 . S
C48 C49 1.378 . S
C49 C48 1.378 . S
C49 C50 1.378 1_455 S
C50 H35 0.940 . S
C50 C49 1.378 1_655 S
C50 C51 1.403 . S
C51 H36 0.950 . S
C51 C46 1.375 1_655 S
C51 C50 1.403 . S
C52 P32 1.803 . S
C52 C53 1.378 . S
C52 C57 1.368 1_455 S
C53 H37 0.939 . S
C53 C52 1.378 . S
C53 C54 1.361 . S
C54 H38 0.942 . S
C54 C53 1.361 . S
C54 C55 1.369 . S
C55 C54 1.369 . S
C55 C56 1.404 1_455 S
C56 H39 0.940 . S
C56 C55 1.404 1_655 S
C56 C57 1.402 . S
C57 H40 0.959 . S
C57 C52 1.368 1_655 S
C57 C56 1.402 . S
C58 P32 1.819 . S
C58 C59 1.391 . S
C58 C63 1.391 . S
C59 H41 0.941 . S
C59 C58 1.391 . S
C59 C60 1.396 . S
C60 H44 0.939 . S
C60 C59 1.396 . S
C60 C61 1.397 . S
C61 C60 1.397 . S
C61 C62 1.385 1_455 S
C62 H45 0.940 . S
C62 C61 1.385 1_655 S
C62 C63 1.388 1_655 S
C63 H42 0.929 1_455 S
C63 C58 1.391 . S
C63 C62 1.388 1_455 S
P64 O75 1.490 . S
P64 C78 1.812 . S
P64 C84 1.803 . S
P64 C90 1.819 . S
H65 C79 0.941 . S
H66 C80 0.939 . S
H67 C82 0.940 . S
H68 C83 0.940 . S
H69 C85 0.939 . S
H70 C86 0.942 . S
H71 C88 0.940 . S
H72 C89 0.939 . S
H73 C91 0.941 . S
H74 C95 0.939 . S
O75 P64 1.490 . S
H76 C92 0.939 . S
H77 C94 0.940 . S
C78 P64 1.812 . S
C78 C79 1.389 . S
C78 C83 1.391 1_545 S
C79 H65 0.941 . S
C79 C78 1.389 . S
C79 C80 1.397 . S
C80 H66 0.939 . S
C80 C79 1.397 . S
C80 C81 1.378 1_545 S
C81 C80 1.378 1_565 S
C81 C82 1.378 . S
C82 H67 0.940 . S
C82 C81 1.378 . S
C82 C83 1.396 . S
C83 H68 0.940 . S
C83 C78 1.391 1_565 S
C83 C82 1.396 . S
C84 P64 1.803 . S
C84 C85 1.378 . S
C84 C89 1.400 1_545 S
C85 H69 0.939 . S
C85 C84 1.378 . S
C85 C86 1.361 . S
C86 H70 0.942 . S
C86 C85 1.361 . S
C86 C87 1.369 1_545 S
C87 C86 1.369 1_565 S
C87 C88 1.404 . S
C88 H71 0.940 . S
C88 C87 1.404 . S
C88 C89 1.389 . S
C89 H72 0.939 . S
C89 C84 1.400 1_565 S
C89 C88 1.389 . S
C90 P64 1.819 . S
C90 C91 1.391 . S
C90 C95 1.391 1_545 S
C91 H73 0.941 . S
C91 C90 1.391 . S
C91 C92 1.396 . S
C92 H76 0.939 . S
C92 C91 1.396 . S
C92 C93 1.397 1_545 S
C93 C92 1.397 1_565 S
C93 C94 1.385 . S
C94 H77 0.940 . S
C94 C93 1.385 . S
C94 C95 1.388 . S
C95 H74 0.939 . S
C95 C90 1.391 1_565 S
C95 C94 1.388 . S
P96 O107 1.490 . S
P96 C110 1.812 . S
P96 C116 1.803 . S
P96 C122 1.819 . S
H97 C111 0.941 . S
H98 C112 0.939 . S
H99 C114 0.940 . S
H100 C115 0.940 . S
H101 C117 0.939 . S
H102 C118 0.942 . S
H103 C120 0.940 . S
H104 C121 0.939 . S
H105 C123 0.941 . S
H106 C127 0.939 . S
O107 P96 1.490 . S
H108 C124 0.939 . S
H109 C126 0.940 . S
C110 P96 1.812 . S
C110 C111 1.389 . S
C110 C115 1.391 . S
C111 H97 0.941 . S
C111 C110 1.389 . S
C111 C112 1.397 . S
C112 H98 0.939 . S
C112 C111 1.397 . S
C112 C113 1.378 . S
C113 C112 1.378 . S
C113 C114 1.378 . S
C114 H99 0.940 . S
C114 C113 1.378 . S
C114 C115 1.396 . S
C115 H100 0.940 . S
C115 C110 1.391 . S
C115 C114 1.396 . S
C116 P96 1.803 . S
C116 C117 1.378 . S
C116 C121 1.400 . S
C117 H101 0.939 . S
C117 C116 1.378 . S
C117 C118 1.361 . S
C118 H102 0.942 . S
C118 C117 1.361 . S
C118 C119 1.369 . S
C119 C118 1.369 . S
C119 C120 1.404 . S
C120 H103 0.940 . S
C120 C119 1.404 . S
C120 C121 1.389 . S
C121 H104 0.939 . S
C121 C116 1.400 . S
C121 C120 1.389 . S
C122 P96 1.819 . S
C122 C123 1.391 . S
C122 C127 1.391 . S
C123 H105 0.941 . S
C123 C122 1.391 . S
C123 C124 1.396 . S
C124 H108 0.939 . S
C124 C123 1.396 . S
C124 C125 1.397 . S
C125 C124 1.397 . S
C125 C126 1.385 . S
C126 H109 0.940 . S
C126 C125 1.385 . S
C126 C127 1.388 . S
C127 H106 0.939 . S
C127 C122 1.391 . S
C127 C126 1.388 . S
P128 O139 1.490 . S
P128 C142 1.812 1_554 S
P128 C148 1.803 . S
P128 C154 1.819 . S
H129 C143 0.941 . S
H130 C144 0.939 . S
H131 C146 0.940 . S
H132 C147 0.940 . S
H133 C149 0.939 . S
H134 C150 0.942 . S
H135 C152 0.940 . S
H136 C153 0.939 . S
H137 C155 0.941 . S
H138 C159 0.939 . S
O139 P128 1.490 . S
H140 C156 0.939 . S
H141 C158 0.940 . S
C142 P128 1.812 1_556 S
C142 C143 1.389 . S
C142 C147 1.391 . S
C143 H129 0.941 . S
C143 C142 1.389 . S
C143 C144 1.397 . S
C144 H130 0.939 . S
C144 C143 1.397 . S
C144 C145 1.378 . S
C145 C144 1.378 . S
C145 C146 1.378 . S
C146 H131 0.940 . S
C146 C145 1.378 . S
C146 C147 1.396 . S
C147 H132 0.940 . S
C147 C142 1.391 . S
C147 C146 1.396 . S
C148 P128 1.803 . S
C148 C149 1.378 . S
C148 C153 1.400 . S
C149 H133 0.939 . S
C149 C148 1.378 . S
C149 C150 1.361 . S
C150 H134 0.942 . S
C150 C149 1.361 . S
C150 C151 1.369 . S
C151 C150 1.369 . S
C151 C152 1.404 . S
C152 H135 0.940 . S
C152 C151 1.404 . S
C152 C153 1.389 . S
C153 H136 0.939 . S
C153 C148 1.400 . S
C153 C152 1.389 . S
C154 P128 1.819 . S
C154 C155 1.391 . S
C154 C159 1.391 . S
C155 H137 0.941 . S
C155 C154 1.391 . S
C155 C156 1.396 . S
C156 H140 0.939 . S
C156 C155 1.396 . S
C156 C157 1.397 . S
C157 C156 1.397 . S
C157 C158 1.385 . S
C158 H141 0.940 . S
C158 C157 1.385 . S
C158 C159 1.388 . S
C159 H138 0.939 . S
C159 C154 1.391 . S
C159 C158 1.388 . S
P160 O171 1.490 . S
P160 C174 1.812 1_554 S
P160 C180 1.803 . S
P160 C186 1.819 . S
H161 C175 0.941 . S
H162 C176 0.939 . S
H163 C178 0.940 . S
H164 C179 0.942 . S
H165 C181 0.939 . S
H166 C182 0.942 . S
H167 C184 0.940 . S
H168 C185 0.951 . S
H169 C187 0.941 . S
H170 C191 0.934 1_655 S
O171 P160 1.490 . S
H172 C188 0.939 . S
H173 C190 0.940 . S
C174 P160 1.812 1_556 S
C174 C175 1.389 . S
C174 C179 1.388 1_455 S
C175 H161 0.941 . S
C175 C174 1.389 . S
C175 C176 1.397 . S
C176 H162 0.939 . S
C176 C175 1.397 . S
C176 C177 1.378 . S
C177 C176 1.378 . S
C177 C178 1.378 1_455 S
C178 H163 0.940 . S
C178 C177 1.378 1_655 S
C178 C179 1.398 . S
C179 H164 0.942 . S
C179 C174 1.388 1_655 S
C179 C178 1.398 . S
C180 P160 1.803 . S
C180 C181 1.378 . S
C180 C185 1.381 1_455 S
C181 H165 0.939 . S
C181 C180 1.378 . S
C181 C182 1.361 . S
C182 H166 0.942 . S
C182 C181 1.361 . S
C182 C183 1.369 . S
C183 C182 1.369 . S
C183 C184 1.404 1_455 S
C184 H167 0.940 . S
C184 C183 1.404 1_655 S
C184 C185 1.397 . S
C185 H168 0.951 . S
C185 C180 1.381 1_655 S
C185 C184 1.397 . S
C186 P160 1.819 . S
C186 C187 1.391 . S
C186 C191 1.391 . S
C187 H169 0.941 . S
C187 C186 1.391 . S
C187 C188 1.396 . S
C188 H172 0.939 . S
C188 C187 1.396 . S
C188 C189 1.397 . S
C189 C188 1.397 . S
C189 C190 1.385 1_455 S
C190 H173 0.940 . S
C190 C189 1.385 1_655 S
C190 C191 1.388 1_655 S
C191 H170 0.934 1_455 S
C191 C186 1.391 . S
C191 C190 1.388 1_455 S
P192 O203 1.490 . S
P192 C206 1.812 1_554 S
P192 C212 1.803 . S
P192 C218 1.819 . S
H193 C207 0.941 . S
H194 C208 0.939 . S
H195 C210 0.940 . S
H196 C211 0.940 . S
H197 C213 0.939 . S
H198 C214 0.942 . S
H199 C216 0.940 . S
H200 C217 0.939 . S
H201 C219 0.941 . S
H202 C223 0.939 . S
O203 P192 1.490 . S
H204 C220 0.939 . S
H205 C222 0.940 . S
C206 P192 1.812 1_556 S
C206 C207 1.389 . S
C206 C211 1.391 . S
C207 H193 0.941 . S
C207 C206 1.389 . S
C207 C208 1.397 . S
C208 H194 0.939 . S
C208 C207 1.397 . S
C208 C209 1.378 . S
C209 C208 1.378 . S
C209 C210 1.378 . S
C210 H195 0.940 . S
C210 C209 1.378 . S
C210 C211 1.396 . S
C211 H196 0.940 . S
C211 C206 1.391 . S
C211 C210 1.396 . S
C212 P192 1.803 . S
C212 C213 1.378 . S
C212 C217 1.400 . S
C213 H197 0.939 . S
C213 C212 1.378 . S
C213 C214 1.361 . S
C214 H198 0.942 . S
C214 C213 1.361 . S
C214 C215 1.369 . S
C215 C214 1.369 . S
C215 C216 1.404 . S
C216 H199 0.940 . S
C216 C215 1.404 . S
C216 C217 1.389 . S
C217 H200 0.939 . S
C217 C212 1.400 . S
C217 C216 1.389 . S
C218 P192 1.819 . S
C218 C219 1.391 . S
C218 C223 1.391 . S
C219 H201 0.941 . S
C219 C218 1.391 . S
C219 C220 1.396 . S
C220 H204 0.939 . S
C220 C219 1.396 . S
C220 C221 1.397 . S
C221 C220 1.397 . S
C221 C222 1.385 . S
C222 H205 0.940 . S
C222 C221 1.385 . S
C222 C223 1.388 . S
C223 H202 0.939 . S
C223 C218 1.391 . S
C223 C222 1.388 . S
P224 O235 1.490 . S
P224 C238 1.812 1_554 S
P224 C244 1.803 . S
P224 C250 1.819 . S
H225 C239 0.941 . S
H226 C240 0.939 . S
H227 C242 0.940 . S
H228 C243 0.940 . S
H229 C245 0.939 . S
H230 C246 0.942 . S
H231 C248 0.940 . S
H232 C249 0.939 . S
H233 C251 0.941 . S
H234 C255 0.939 . S
O235 P224 1.490 . S
H236 C252 0.939 . S
H237 C254 0.940 . S
C238 P224 1.812 1_556 S
C238 C239 1.389 . S
C238 C243 1.391 . S
C239 H225 0.941 . S
C239 C238 1.389 . S
C239 C240 1.397 . S
C240 H226 0.939 . S
C240 C239 1.397 . S
C240 C241 1.378 . S
C241 C240 1.378 . S
C241 C242 1.378 . S
C242 H227 0.940 . S
C242 C241 1.378 . S
C242 C243 1.396 . S
C243 H228 0.940 . S
C243 C238 1.391 . S
C243 C242 1.396 . S
C244 P224 1.803 . S
C244 C245 1.378 . S
C244 C249 1.400 . S
C245 H229 0.939 . S
C245 C244 1.378 . S
C245 C246 1.361 . S
C246 H230 0.942 . S
C246 C245 1.361 . S
C246 C247 1.369 . S
C247 C246 1.369 . S
C247 C248 1.404 . S
C248 H231 0.940 . S
C248 C247 1.404 . S
C248 C249 1.389 . S
C249 H232 0.939 . S
C249 C244 1.400 . S
C249 C248 1.389 . S
C250 P224 1.819 . S
C250 C251 1.391 . S
C250 C255 1.391 . S
C251 H233 0.941 . S
C251 C250 1.391 . S
C251 C252 1.396 . S
C252 H236 0.939 . S
C252 C251 1.396 . S
C252 C253 1.397 . S
C253 C252 1.397 . S
C253 C254 1.385 . S
C254 H237 0.940 . S
C254 C253 1.385 . S
C254 C255 1.388 . S
C255 H234 0.939 . S
C255 C250 1.391 . S
C255 C254 1.388 . S
Gd256 C259 2.818 . S
Gd256 O276 2.377 . S
Gd256 O278 2.448 . S
Gd256 O279 2.506 . S
Gd256 O280 2.435 . S
Gd256 O281 2.717 1_565 S
Gd256 O283 2.395 1_565 S
Gd256 O287 2.324 1_465 S
Gd257 C268 2.818 . S
Gd257 O277 2.395 1_545 S
Gd257 O281 2.327 1_655 S
Gd257 O282 2.377 . S
Gd257 O284 2.448 . S
Gd257 O285 2.506 . S
Gd257 O286 2.435 . S
Gd257 O287 2.726 . S
C258 O276 1.240 1_655 S
C258 O277 1.240 . S
C259 Gd256 2.818 . S
C259 C260 1.510 . S
C259 O278 1.249 . S
C259 O279 1.252 . S
C260 C259 1.510 . S
C260 C261 1.404 . S
C260 C262 1.352 . S
C261 C260 1.404 . S
C261 C265 1.389 . S
C261 H288 0.930 . S
C262 C260 1.352 . S
C262 C264 1.374 . S
C262 H289 0.931 1_455 S
C263 C264 1.359 . S
C263 C265 1.364 . S
C264 C262 1.374 . S
C264 C263 1.359 . S
C264 H290 0.931 1_455 S
C265 C261 1.389 . S
C265 C263 1.364 . S
C265 H291 0.931 . S
C266 O280 1.256 1_545 S
C266 O281 1.257 . S
C267 O282 1.240 1_455 S
C267 O283 1.240 . S
C268 Gd257 2.818 . S
C268 C269 1.510 . S
C268 O284 1.249 . S
C268 O285 1.252 . S
C269 C268 1.510 . S
C269 C270 1.404 . S
C269 C271 1.352 . S
C270 C269 1.404 . S
C270 C274 1.389 . S
C270 H292 0.930 . S
C271 C269 1.352 . S
C271 C273 1.374 . S
C271 H293 0.931 1_655 S
C272 C273 1.359 . S
C272 C274 1.364 . S
C273 C271 1.374 . S
C273 C272 1.359 . S
C273 H294 0.931 1_655 S
C274 C270 1.389 . S
C274 C272 1.364 . S
C274 H295 0.931 . S
C275 O286 1.256 . S
C275 O287 1.263 . S
O276 Gd256 2.377 . S
O276 C258 1.240 1_455 S
O277 Gd257 2.395 1_565 S
O277 C258 1.240 . S
O278 Gd256 2.448 . S
O278 C259 1.249 . S
O279 Gd256 2.506 . S
O279 C259 1.252 . S
O280 Gd256 2.435 . S
O280 C266 1.256 1_565 S
O281 Gd256 2.717 1_545 S
O281 Gd257 2.327 1_455 S
O281 C266 1.257 . S
O282 Gd257 2.377 . S
O282 C267 1.240 1_655 S
O283 Gd256 2.395 1_545 S
O283 C267 1.240 . S
O284 Gd257 2.448 . S
O284 C268 1.249 . S
O285 Gd257 2.506 . S
O285 C268 1.252 . S
O286 Gd257 2.435 . S
O286 C275 1.256 . S
O287 Gd256 2.324 1_645 S
O287 Gd257 2.726 . S
O287 C275 1.263 . S
H288 C261 0.930 . S
H289 C262 0.931 1_655 S
H290 C264 0.931 1_655 S
H291 C265 0.931 . S
H292 C270 0.930 . S
H293 C271 0.931 1_455 S
H294 C273 0.931 1_455 S
H295 C274 0.931 . S
Gd296 C299 2.818 . S
Gd296 O316 2.377 . S
Gd296 O318 2.448 . S
Gd296 O319 2.506 . S
Gd296 O320 2.435 . S
Gd296 O321 2.717 . S
Gd296 O323 2.395 . S
Gd296 O327 2.327 1_545 S
Gd297 C308 2.818 . S
Gd297 O317 2.395 . S
Gd297 O321 2.327 1_565 S
Gd297 O322 2.367 1_565 S
Gd297 O324 2.448 . S
Gd297 O325 2.506 1_565 S
Gd297 O326 2.435 . S
Gd297 O327 2.717 . S
C298 O316 1.240 1_565 S
C298 O317 1.240 . S
C299 Gd296 2.818 . S
C299 C300 1.510 . S
C299 O318 1.249 . S
C299 O319 1.252 . S
C300 C299 1.510 . S
C300 C301 1.404 . S
C300 C302 1.352 . S
C301 C300 1.404 . S
C301 C305 1.389 . S
C301 H328 0.930 . S
C302 C300 1.352 . S
C302 C304 1.374 . S
C302 H329 0.931 1_545 S
C303 C304 1.359 . S
C303 C305 1.364 . S
C304 C302 1.374 . S
C304 C303 1.359 . S
C304 H330 0.931 1_545 S
C305 C301 1.389 . S
C305 C303 1.364 . S
C305 H331 0.931 . S
C306 O320 1.256 . S
C306 O321 1.257 . S
C307 O322 1.269 . S
C307 O323 1.240 . S
C308 Gd297 2.818 . S
C308 C309 1.510 . S
C308 O324 1.249 . S
C308 O325 1.252 1_565 S
C309 C308 1.510 . S
C309 C310 1.404 . S
C309 C311 1.352 1_565 S
C310 C309 1.404 . S
C310 C314 1.389 . S
C310 H332 0.930 . S
C311 C309 1.352 1_545 S
C311 C313 1.374 . S
C311 H333 0.931 . S
C312 C313 1.359 1_565 S
C312 C314 1.364 . S
C313 C311 1.374 . S
C313 C312 1.359 1_545 S
C313 H334 0.931 . S
C314 C310 1.389 . S
C314 C312 1.364 . S
C314 H335 0.931 . S
C315 O326 1.256 . S
C315 O327 1.257 . S
O316 Gd296 2.377 . S
O316 C298 1.240 1_545 S
O317 Gd297 2.395 . S
O317 C298 1.240 . S
O318 Gd296 2.448 . S
O318 C299 1.249 . S
O319 Gd296 2.506 . S
O319 C299 1.252 . S
O320 Gd296 2.435 . S
O320 C306 1.256 . S
O321 Gd296 2.717 . S
O321 Gd297 2.327 1_545 S
O321 C306 1.257 . S
O322 Gd297 2.367 1_545 S
O322 C307 1.269 . S
O323 Gd296 2.395 . S
O323 C307 1.240 . S
O324 Gd297 2.448 . S
O324 C308 1.249 . S
O325 Gd297 2.506 1_545 S
O325 C308 1.252 1_545 S
O326 Gd297 2.435 . S
O326 C315 1.256 . S
O327 Gd296 2.327 1_565 S
O327 Gd297 2.717 . S
O327 C315 1.257 . S
H328 C301 0.930 . S
H329 C302 0.931 1_565 S
H330 C304 0.931 1_565 S
H331 C305 0.931 . S
H332 C310 0.930 . S
H333 C311 0.931 . S
H334 C313 0.931 . S
H335 C314 0.931 . S
Gd336 C339 2.818 . S
Gd336 O356 2.377 . S
Gd336 O358 2.448 . S
Gd336 O359 2.506 . S
Gd336 O360 2.435 . S
Gd336 O361 2.717 . S
Gd336 O363 2.395 . S
Gd336 O367 2.327 . S
Gd337 C348 2.818 . S
Gd337 O357 2.395 . S
Gd337 O361 2.327 . S
Gd337 O362 2.377 . S
Gd337 O364 2.448 . S
Gd337 O365 2.506 . S
Gd337 O366 2.435 . S
Gd337 O367 2.717 . S
C338 O356 1.240 . S
C338 O357 1.240 . S
C339 Gd336 2.818 . S
C339 C340 1.510 . S
C339 O358 1.249 . S
C339 O359 1.252 . S
C340 C339 1.510 . S
C340 C341 1.404 . S
C340 C342 1.352 . S
C341 C340 1.404 . S
C341 C345 1.389 . S
C341 H368 0.930 . S
C342 C340 1.352 . S
C342 C344 1.374 . S
C342 H369 0.931 . S
C343 C344 1.359 . S
C343 C345 1.364 . S
C344 C342 1.374 . S
C344 C343 1.359 . S
C344 H370 0.931 . S
C345 C341 1.389 . S
C345 C343 1.364 . S
C345 H371 0.931 . S
C346 O360 1.256 . S
C346 O361 1.257 . S
C347 O362 1.240 . S
C347 O363 1.240 . S
C348 Gd337 2.818 . S
C348 C349 1.510 . S
C348 O364 1.249 . S
C348 O365 1.252 . S
C349 C348 1.510 . S
C349 C350 1.404 . S
C349 C351 1.352 . S
C350 C349 1.404 . S
C350 C354 1.389 . S
C350 H372 0.930 . S
C351 C349 1.352 . S
C351 C353 1.374 . S
C351 H373 0.931 . S
C352 C353 1.359 . S
C352 C354 1.364 . S
C353 C351 1.374 . S
C353 C352 1.359 . S
C353 H374 0.931 . S
C354 C350 1.389 . S
C354 C352 1.364 . S
C354 H375 0.931 . S
C355 O366 1.256 . S
C355 O367 1.257 . S
O356 Gd336 2.377 . S
O356 C338 1.240 . S
O357 Gd337 2.395 . S
O357 C338 1.240 . S
O358 Gd336 2.448 . S
O358 C339 1.249 . S
O359 Gd336 2.506 . S
O359 C339 1.252 . S
O360 Gd336 2.435 . S
O360 C346 1.256 . S
O361 Gd336 2.717 . S
O361 Gd337 2.327 . S
O361 C346 1.257 . S
O362 Gd337 2.377 . S
O362 C347 1.240 . S
O363 Gd336 2.395 . S
O363 C347 1.240 . S
O364 Gd337 2.448 . S
O364 C348 1.249 . S
O365 Gd337 2.506 . S
O365 C348 1.252 . S
O366 Gd337 2.435 . S
O366 C355 1.256 . S
O367 Gd336 2.327 . S
O367 Gd337 2.717 . S
O367 C355 1.257 . S
H368 C341 0.930 . S
H369 C342 0.931 . S
H370 C344 0.931 . S
H371 C345 0.931 . S
H372 C350 0.930 . S
H373 C351 0.931 . S
H374 C353 0.931 . S
H375 C354 0.931 . S
Gd376 C379 2.818 . S
Gd376 O396 2.377 . S
Gd376 O398 2.448 . S
Gd376 O399 2.506 . S
Gd376 O400 2.435 . S
Gd376 O401 2.717 1_655 S
Gd376 O403 2.395 1_655 S
Gd376 O407 2.327 . S
Gd377 C388 2.818 . S
Gd377 O397 2.395 1_455 S
Gd377 O401 2.327 . S
Gd377 O402 2.377 . S
Gd377 O404 2.448 . S
Gd377 O405 2.506 . S
Gd377 O406 2.435 . S
Gd377 O407 2.717 1_455 S
C378 O396 1.240 . S
C378 O397 1.240 . S
C379 Gd376 2.818 . S
C379 C380 1.510 . S
C379 O398 1.249 . S
C379 O399 1.252 . S
C380 C379 1.510 . S
C380 C381 1.404 . S
C380 C382 1.352 . S
C381 C380 1.404 . S
C381 C385 1.389 . S
C381 H408 0.930 . S
C382 C380 1.352 . S
C382 C384 1.374 . S
C382 H409 0.931 . S
C383 C384 1.359 . S
C383 C385 1.364 . S
C384 C382 1.374 . S
C384 C383 1.359 . S
C384 H410 0.931 . S
C385 C381 1.389 . S
C385 C383 1.364 . S
C385 H411 0.931 . S
C386 O400 1.256 . S
C386 O401 1.257 1_655 S
C387 O402 1.240 . S
C387 O403 1.240 . S
C388 Gd377 2.818 . S
C388 C389 1.510 . S
C388 O404 1.249 . S
C388 O405 1.252 . S
C389 C388 1.510 . S
C389 C390 1.404 . S
C389 C391 1.352 . S
C390 C389 1.404 . S
C390 C394 1.389 . S
C390 H412 0.930 . S
C391 C389 1.352 . S
C391 C393 1.374 . S
C391 H413 0.931 . S
C392 C393 1.359 . S
C392 C394 1.364 . S
C393 C391 1.374 . S
C393 C392 1.359 . S
C393 H414 0.931 . S
C394 C390 1.389 . S
C394 C392 1.364 . S
C394 H415 0.931 . S
C395 O406 1.256 . S
C395 O407 1.257 1_455 S
O396 Gd376 2.377 . S
O396 C378 1.240 . S
O397 Gd377 2.395 1_655 S
O397 C378 1.240 . S
O398 Gd376 2.448 . S
O398 C379 1.249 . S
O399 Gd376 2.506 . S
O399 C379 1.252 . S
O400 Gd376 2.435 . S
O400 C386 1.256 . S
O401 Gd376 2.717 1_455 S
O401 Gd377 2.327 . S
O401 C386 1.257 1_455 S
O402 Gd377 2.377 . S
O402 C387 1.240 . S
O403 Gd376 2.395 1_455 S
O403 C387 1.240 . S
O404 Gd377 2.448 . S
O404 C388 1.249 . S
O405 Gd377 2.506 . S
O405 C388 1.252 . S
O406 Gd377 2.435 . S
O406 C395 1.256 . S
O407 Gd376 2.327 . S
O407 Gd377 2.717 1_655 S
O407 C395 1.257 1_655 S
H408 C381 0.930 . S
H409 C382 0.931 . S
H410 C384 0.931 . S
H411 C385 0.931 . S
H412 C390 0.930 . S
H413 C391 0.931 . S
H414 C393 0.931 . S
H415 C394 0.931 . S
H416 C434 0.951 . S
H417 C436 0.951 . S
H418 C438 0.950 . S
H419 C439 0.950 . S
H420 C441 0.950 . S
H421 C444 0.950 . S
H422 C445 0.950 . S
H423 C447 0.950 . S
H424 C448 0.950 . S
H425 C449 0.951 . S
H426 C451 0.951 . S
H427 C453 0.950 . S
H428 C454 0.950 . S
H429 C456 0.950 . S
H430 C459 0.950 . S
H431 C460 0.950 . S
H432 C462 0.950 . S
H433 C463 0.950 1_545 S
C434 H416 0.951 . S
C434 C435 1.366 . S
C434 C436 1.388 . S
C435 C434 1.366 . S
C435 C439 1.385 . S
C436 H417 0.951 . S
C436 C434 1.388 . S
C436 C437 1.366 . S
C437 C436 1.366 . S
C437 C438 1.414 . S
C437 C440 1.499 . S
C438 H418 0.950 . S
C438 C437 1.414 . S
C438 C439 1.374 . S
C439 H419 0.950 . S
C439 C435 1.385 . S
C439 C438 1.374 . S
C440 C437 1.499 . S
C440 C441 1.373 . S
C440 C442 1.389 . S
C441 H420 0.950 . S
C441 C440 1.373 . S
C441 C457 1.377 . S
C442 C440 1.389 . S
C442 C443 1.524 . S
C442 C456 1.377 . S
C443 C442 1.524 . S
C443 C444 1.397 . S
C443 C448 1.363 . S
C444 H421 0.950 . S
C444 C443 1.397 . S
C444 C445 1.334 . S
C445 H422 0.950 . S
C445 C444 1.334 . S
C445 C446 1.287 . S
C446 C445 1.287 . S
C446 C447 1.524 . S
C446 H465 0.913 . S
C447 H423 0.950 . S
C447 C446 1.524 . S
C447 C448 1.415 . S
C448 H424 0.950 . S
C448 C443 1.363 . S
C448 C447 1.415 . S
C449 H425 0.951 . S
C449 C450 1.366 . S
C449 C451 1.388 . S
C450 C449 1.366 . S
C450 C454 1.385 . S
C451 H426 0.951 . S
C451 C449 1.388 . S
C451 C452 1.366 . S
C452 C451 1.366 . S
C452 C453 1.414 . S
C452 C455 1.499 . S
C453 H427 0.950 . S
C453 C452 1.414 . S
C453 C454 1.374 . S
C454 H428 0.950 . S
C454 C450 1.385 . S
C454 C453 1.374 . S
C455 C452 1.499 . S
C455 C456 1.373 . S
C455 C457 1.389 . S
C456 H429 0.950 . S
C456 C442 1.377 . S
C456 C455 1.373 . S
C457 C441 1.377 . S
C457 C455 1.389 . S
C457 C458 1.524 1_545 S
C458 C457 1.524 1_565 S
C458 C459 1.397 . S
C458 C463 1.363 . S
C459 H430 0.950 . S
C459 C458 1.397 . S
C459 C460 1.334 . S
C460 H431 0.950 . S
C460 C459 1.334 . S
C460 C461 1.287 . S
C461 C460 1.287 . S
C461 C462 1.524 . S
C461 H464 0.999 . S
C462 H432 0.950 . S
C462 C461 1.524 . S
C462 C463 1.415 . S
C463 H433 0.950 1_565 S
C463 C458 1.363 . S
C463 C462 1.415 . S
H464 C461 0.999 . S
H465 C446 0.913 . S
H466 C484 0.951 . S
H467 C486 0.951 . S
H468 C488 0.950 . S
H469 C489 0.950 . S
H470 C491 0.950 . S
H471 C494 0.950 . S
H472 C495 0.950 . S
H473 C497 0.950 . S
H474 C498 0.950 . S
H475 C499 0.951 . S
H476 C501 0.951 . S
H477 C503 0.950 . S
H478 C504 0.950 . S
H479 C506 0.950 . S
H480 C509 0.950 . S
H481 C510 0.950 . S
H482 C512 0.950 . S
H483 C513 0.950 . S
C484 H466 0.951 . S
C484 C485 1.366 . S
C484 C486 1.388 . S
C485 C484 1.366 . S
C485 C489 1.385 . S
C486 H467 0.951 . S
C486 C484 1.388 . S
C486 C487 1.366 . S
C487 C486 1.366 . S
C487 C488 1.414 . S
C487 C490 1.499 . S
C488 H468 0.950 . S
C488 C487 1.414 . S
C488 C489 1.374 . S
C489 H469 0.950 . S
C489 C485 1.385 . S
C489 C488 1.374 . S
C490 C487 1.499 . S
C490 C491 1.373 . S
C490 C492 1.389 . S
C491 H470 0.950 . S
C491 C490 1.373 . S
C491 C507 1.377 . S
C492 C490 1.389 . S
C492 C493 1.524 . S
C492 C506 1.377 . S
C493 C492 1.524 . S
C493 C494 1.397 . S
C493 C498 1.363 . S
C494 H471 0.950 . S
C494 C493 1.397 . S
C494 C495 1.334 . S
C495 H472 0.950 . S
C495 C494 1.334 . S
C495 C496 1.287 . S
C496 C495 1.287 . S
C496 C497 1.524 . S
C496 H515 0.913 . S
C497 H473 0.950 . S
C497 C496 1.524 . S
C497 C498 1.415 . S
C498 H474 0.950 . S
C498 C493 1.363 . S
C498 C497 1.415 . S
C499 H475 0.951 . S
C499 C500 1.366 . S
C499 C501 1.388 . S
C500 C499 1.366 . S
C500 C504 1.385 . S
C501 H476 0.951 . S
C501 C499 1.388 . S
C501 C502 1.366 . S
C502 C501 1.366 . S
C502 C503 1.414 . S
C502 C505 1.499 . S
C503 H477 0.950 . S
C503 C502 1.414 . S
C503 C504 1.374 . S
C504 H478 0.950 . S
C504 C500 1.385 . S
C504 C503 1.374 . S
C505 C502 1.499 . S
C505 C506 1.373 . S
C505 C507 1.389 . S
C506 H479 0.950 . S
C506 C492 1.377 . S
C506 C505 1.373 . S
C507 C491 1.377 . S
C507 C505 1.389 . S
C507 C508 1.524 . S
C508 C507 1.524 . S
C508 C509 1.397 . S
C508 C513 1.363 . S
C509 H480 0.950 . S
C509 C508 1.397 . S
C509 C510 1.334 . S
C510 H481 0.950 . S
C510 C509 1.334 . S
C510 C511 1.287 . S
C511 C510 1.287 . S
C511 C512 1.524 . S
C511 H514 0.999 . S
C512 H482 0.950 . S
C512 C511 1.524 . S
C512 C513 1.415 . S
C513 H483 0.950 . S
C513 C508 1.363 . S
C513 C512 1.415 . S
H514 C511 0.999 . S
H515 C496 0.913 . S
H516 C534 0.951 . S
H517 C536 0.951 . S
H518 C538 0.950 . S
H519 C539 0.950 . S
H520 C541 0.950 . S
H521 C544 0.950 . S
H522 C545 0.950 . S
H523 C547 0.950 . S
H524 C548 0.950 . S
H525 C549 0.951 . S
H526 C551 0.951 . S
H527 C553 0.950 . S
H528 C554 0.950 . S
H529 C556 0.950 . S
H530 C559 0.950 . S
H531 C560 0.950 . S
H532 C562 0.950 . S
H533 C563 0.950 . S
C534 H516 0.951 . S
C534 C535 1.366 . S
C534 C536 1.388 . S
C535 C534 1.366 . S
C535 C539 1.385 . S
C536 H517 0.951 . S
C536 C534 1.388 . S
C536 C537 1.366 . S
C537 C536 1.366 . S
C537 C538 1.414 . S
C537 C540 1.499 . S
C538 H518 0.950 . S
C538 C537 1.414 . S
C538 C539 1.374 . S
C539 H519 0.950 . S
C539 C535 1.385 . S
C539 C538 1.374 . S
C540 C537 1.499 . S
C540 C541 1.373 . S
C540 C542 1.389 . S
C541 H520 0.950 . S
C541 C540 1.373 . S
C541 C557 1.377 . S
C542 C540 1.389 . S
C542 C543 1.524 . S
C542 C556 1.377 . S
C543 C542 1.524 . S
C543 C544 1.397 . S
C543 C548 1.363 . S
C544 H521 0.950 . S
C544 C543 1.397 . S
C544 C545 1.334 . S
C545 H522 0.950 . S
C545 C544 1.334 . S
C545 C546 1.287 . S
C546 C545 1.287 . S
C546 C547 1.524 . S
C546 H565 0.913 . S
C547 H523 0.950 . S
C547 C546 1.524 . S
C547 C548 1.415 . S
C548 H524 0.950 . S
C548 C543 1.363 . S
C548 C547 1.415 . S
C549 H525 0.951 . S
C549 C550 1.366 . S
C549 C551 1.388 . S
C550 C549 1.366 . S
C550 C554 1.385 . S
C551 H526 0.951 . S
C551 C549 1.388 . S
C551 C552 1.366 . S
C552 C551 1.366 . S
C552 C553 1.414 . S
C552 C555 1.499 . S
C553 H527 0.950 . S
C553 C552 1.414 . S
C553 C554 1.374 . S
C554 H528 0.950 . S
C554 C550 1.385 . S
C554 C553 1.374 . S
C555 C552 1.499 . S
C555 C556 1.373 . S
C555 C557 1.389 . S
C556 H529 0.950 . S
C556 C542 1.377 . S
C556 C555 1.373 . S
C557 C541 1.377 . S
C557 C555 1.389 . S
C557 C558 1.524 . S
C558 C557 1.524 . S
C558 C559 1.397 . S
C558 C563 1.363 . S
C559 H530 0.950 . S
C559 C558 1.397 . S
C559 C560 1.334 . S
C560 H531 0.950 . S
C560 C559 1.334 . S
C560 C561 1.287 . S
C561 C560 1.287 . S
C561 C562 1.524 . S
C561 H564 0.999 . S
C562 H532 0.950 . S
C562 C561 1.524 . S
C562 C563 1.415 . S
C563 H533 0.950 . S
C563 C558 1.363 . S
C563 C562 1.415 . S
H564 C561 0.999 . S
H565 C546 0.913 . S
H566 C584 0.951 . S
H567 C586 0.951 . S
H568 C588 0.950 . S
H569 C589 0.950 . S
H570 C591 0.950 . S
H571 C594 0.950 . S
H572 C595 0.950 . S
H573 C597 0.950 . S
H574 C598 0.950 . S
H575 C599 0.951 . S
H576 C601 0.951 . S
H577 C603 0.950 . S
H578 C604 0.950 . S
H579 C606 0.950 . S
H580 C609 0.950 . S
H581 C610 0.950 . S
H582 C612 0.950 . S
H583 C613 0.950 . S
C584 H566 0.951 . S
C584 C585 1.365 1_655 S
C584 C586 1.388 . S
C585 C584 1.365 1_455 S
C585 C589 1.386 . S
C586 H567 0.951 . S
C586 C584 1.388 . S
C586 C587 1.374 . S
C587 C586 1.374 . S
C587 C588 1.405 1_655 S
C587 C590 1.499 . S
C588 H568 0.950 . S
C588 C587 1.405 1_455 S
C588 C589 1.374 . S
C589 H569 0.950 . S
C589 C585 1.386 . S
C589 C588 1.374 . S
C590 C587 1.499 . S
C590 C591 1.347 1_655 S
C590 C592 1.414 . S
C591 H570 0.950 . S
C591 C590 1.347 1_455 S
C591 C607 1.377 . S
C592 C590 1.414 . S
C592 C593 1.524 . S
C592 C606 1.377 . S
C593 C592 1.524 . S
C593 C594 1.397 . S
C593 C598 1.363 . S
C594 H571 0.950 . S
C594 C593 1.397 . S
C594 C595 1.334 . S
C595 H572 0.950 . S
C595 C594 1.334 . S
C595 C596 1.287 . S
C596 C595 1.287 . S
C596 C597 1.524 . S
C596 H615 0.913 . S
C597 H573 0.950 . S
C597 C596 1.524 . S
C597 C598 1.415 . S
C598 H574 0.950 . S
C598 C593 1.363 . S
C598 C597 1.415 . S
C599 H575 0.951 . S
C599 C600 1.374 . S
C599 C601 1.388 . S
C600 C599 1.374 . S
C600 C604 1.378 1_455 S
C601 H576 0.951 . S
C601 C599 1.388 . S
C601 C602 1.366 . S
C602 C601 1.366 . S
C602 C603 1.414 1_455 S
C602 C605 1.499 . S
C603 H577 0.950 . S
C603 C602 1.414 1_655 S
C603 C604 1.374 . S
C604 H578 0.950 . S
C604 C600 1.378 1_655 S
C604 C603 1.374 . S
C605 C602 1.499 . S
C605 C606 1.373 1_455 S
C605 C607 1.389 . S
C606 H579 0.950 . S
C606 C592 1.377 . S
C606 C605 1.373 1_655 S
C607 C591 1.377 . S
C607 C605 1.389 . S
C607 C608 1.524 . S
C608 C607 1.524 . S
C608 C609 1.397 . S
C608 C613 1.363 . S
C609 H580 0.950 . S
C609 C608 1.397 . S
C609 C610 1.334 . S
C610 H581 0.950 . S
C610 C609 1.334 . S
C610 C611 1.287 . S
C611 C610 1.287 . S
C611 C612 1.524 . S
C611 H614 0.999 . S
C612 H582 0.950 . S
C612 C611 1.524 . S
C612 C613 1.415 . S
C613 H583 0.950 . S
C613 C608 1.363 . S
C613 C612 1.415 . S
H614 C611 0.999 . S
H615 C596 0.913 . S
H616 C634 0.951 1_545 S
H617 C636 0.951 1_545 S
H618 C638 0.950 . S
H619 C639 0.950 . S
H620 C641 0.950 . S
H621 C644 0.950 . S
H622 C645 0.950 1_554 S
H623 C647 0.950 . S
H624 C648 0.950 . S
H625 C649 0.951 . S
H626 C651 0.951 . S
H627 C653 0.950 . S
H628 C654 0.950 . S
H629 C656 0.950 . S
H630 C659 0.950 . S
H631 C660 0.950 . S
H632 C662 0.950 . S
H633 C663 0.950 1_565 S
C634 H616 0.951 1_565 S
C634 C635 1.366 . S
C634 C636 1.388 . S
C635 C634 1.366 . S
C635 C639 1.385 . S
C636 H617 0.951 1_565 S
C636 C634 1.388 . S
C636 C637 1.366 . S
C637 C636 1.366 . S
C637 C638 1.414 . S
C637 C640 1.499 . S
C638 H618 0.950 . S
C638 C637 1.414 . S
C638 C639 1.374 . S
C639 H619 0.950 . S
C639 C635 1.385 . S
C639 C638 1.374 . S
C640 C637 1.499 . S
C640 C641 1.373 1_565 S
C640 C642 1.389 1_554 S
C641 H620 0.950 . S
C641 C640 1.373 1_545 S
C641 C657 1.364 1_554 S
C642 C640 1.389 1_556 S
C642 C643 1.524 . S
C642 C656 1.377 . S
C643 C642 1.524 . S
C643 C644 1.397 1_556 S
C643 C648 1.363 . S
C644 H621 0.950 . S
C644 C643 1.397 1_554 S
C644 C645 1.334 1_554 S
C645 H622 0.950 1_556 S
C645 C644 1.334 1_556 S
C645 C646 1.287 . S
C646 C645 1.287 . S
C646 C647 1.524 . S
C646 H665 0.913 . S
C647 H623 0.950 . S
C647 C646 1.524 . S
C647 C648 1.415 . S
C648 H624 0.950 . S
C648 C643 1.363 . S
C648 C647 1.415 . S
C649 H625 0.951 . S
C649 C650 1.343 1_565 S
C649 C651 1.388 . S
C650 C649 1.343 1_545 S
C650 C654 1.407 . S
C651 H626 0.951 . S
C651 C649 1.388 . S
C651 C652 1.379 . S
C652 C651 1.379 . S
C652 C653 1.401 1_565 S
C652 C655 1.501 . S
C653 H627 0.950 . S
C653 C652 1.401 1_545 S
C653 C654 1.374 . S
C654 H628 0.950 . S
C654 C650 1.407 . S
C654 C653 1.374 . S
C655 C652 1.501 . S
C655 C656 1.373 . S
C655 C657 1.404 1_565 S
C656 H629 0.950 . S
C656 C642 1.377 . S
C656 C655 1.373 . S
C657 C641 1.364 1_556 S
C657 C655 1.404 1_545 S
C657 C658 1.522 1_556 S
C658 C657 1.522 1_554 S
C658 C659 1.397 1_554 S
C658 C663 1.363 . S
C659 H630 0.950 . S
C659 C658 1.397 1_556 S
C659 C660 1.334 . S
C660 H631 0.950 . S
C660 C659 1.334 . S
C660 C661 1.287 1_556 S
C661 C660 1.287 1_554 S
C661 C662 1.524 . S
C661 H664 0.999 . S
C662 H632 0.950 . S
C662 C661 1.524 . S
C662 C663 1.415 . S
C663 H633 0.950 1_545 S
C663 C658 1.363 . S
C663 C662 1.415 . S
H664 C661 0.999 . S
H665 C646 0.913 . S
H666 C684 0.951 . S
H667 C686 0.951 . S
H668 C688 0.950 . S
H669 C689 0.950 . S
H670 C691 0.950 . S
H671 C694 0.950 . S
H672 C695 0.950 . S
H673 C697 0.950 . S
H674 C698 0.950 . S
H675 C699 0.951 . S
H676 C701 0.951 . S
H677 C703 0.950 . S
H678 C704 0.950 . S
H679 C706 0.950 . S
H680 C709 0.950 . S
H681 C710 0.950 . S
H682 C712 0.950 . S
H683 C713 0.950 . S
C684 H666 0.951 . S
C684 C685 1.366 . S
C684 C686 1.388 . S
C685 C684 1.366 . S
C685 C689 1.385 . S
C686 H667 0.951 . S
C686 C684 1.388 . S
C686 C687 1.366 . S
C687 C686 1.366 . S
C687 C688 1.414 . S
C687 C690 1.499 . S
C688 H668 0.950 . S
C688 C687 1.414 . S
C688 C689 1.374 . S
C689 H669 0.950 . S
C689 C685 1.385 . S
C689 C688 1.374 . S
C690 C687 1.499 . S
C690 C691 1.373 . S
C690 C692 1.389 . S
C691 H670 0.950 . S
C691 C690 1.373 . S
C691 C707 1.377 1_554 S
C692 C690 1.389 . S
C692 C693 1.524 . S
C692 C706 1.377 1_554 S
C693 C692 1.524 . S
C693 C694 1.397 . S
C693 C698 1.363 . S
C694 H671 0.950 . S
C694 C693 1.397 . S
C694 C695 1.334 . S
C695 H672 0.950 . S
C695 C694 1.334 . S
C695 C696 1.287 . S
C696 C695 1.287 . S
C696 C697 1.524 . S
C696 H715 0.913 . S
C697 H673 0.950 . S
C697 C696 1.524 . S
C697 C698 1.415 . S
C698 H674 0.950 . S
C698 C693 1.363 . S
C698 C697 1.415 . S
C699 H675 0.951 . S
C699 C700 1.366 . S
C699 C701 1.388 . S
C700 C699 1.366 . S
C700 C704 1.385 . S
C701 H676 0.951 . S
C701 C699 1.388 . S
C701 C702 1.366 . S
C702 C701 1.366 . S
C702 C703 1.414 . S
C702 C705 1.499 . S
C703 H677 0.950 . S
C703 C702 1.414 . S
C703 C704 1.374 . S
C704 H678 0.950 . S
C704 C700 1.385 . S
C704 C703 1.374 . S
C705 C702 1.499 . S
C705 C706 1.373 . S
C705 C707 1.389 . S
C706 H679 0.950 . S
C706 C692 1.377 1_556 S
C706 C705 1.373 . S
C707 C691 1.377 1_556 S
C707 C705 1.389 . S
C707 C708 1.524 . S
C708 C707 1.524 . S
C708 C709 1.397 . S
C708 C713 1.363 . S
C709 H680 0.950 . S
C709 C708 1.397 . S
C709 C710 1.334 . S
C710 H681 0.950 . S
C710 C709 1.334 . S
C710 C711 1.287 . S
C711 C710 1.287 . S
C711 C712 1.524 . S
C711 H714 0.999 . S
C712 H682 0.950 . S
C712 C711 1.524 . S
C712 C713 1.415 . S
C713 H683 0.950 . S
C713 C708 1.363 . S
C713 C712 1.415 . S
H714 C711 0.999 . S
H715 C696 0.913 . S
H716 C734 0.951 . S
H717 C736 0.951 . S
H718 C738 0.950 . S
H719 C739 0.950 . S
H720 C741 0.950 . S
H721 C744 0.950 . S
H722 C745 0.950 . S
H723 C747 0.950 . S
H724 C748 0.950 . S
H725 C749 0.951 . S
H726 C751 0.951 . S
H727 C753 0.950 . S
H728 C754 0.950 . S
H729 C756 0.950 . S
H730 C759 0.950 . S
H731 C760 0.950 . S
H732 C762 0.950 . S
H733 C763 0.950 . S
C734 H716 0.951 . S
C734 C735 1.366 . S
C734 C736 1.388 . S
C735 C734 1.366 . S
C735 C739 1.385 . S
C736 H717 0.951 . S
C736 C734 1.388 . S
C736 C737 1.366 . S
C737 C736 1.366 . S
C737 C738 1.414 . S
C737 C740 1.499 . S
C738 H718 0.950 . S
C738 C737 1.414 . S
C738 C739 1.374 . S
C739 H719 0.950 . S
C739 C735 1.385 . S
C739 C738 1.374 . S
C740 C737 1.499 . S
C740 C741 1.373 . S
C740 C742 1.389 1_554 S
C741 H720 0.950 . S
C741 C740 1.373 . S
C741 C757 1.377 1_554 S
C742 C740 1.389 1_556 S
C742 C743 1.524 . S
C742 C756 1.377 . S
C743 C742 1.524 . S
C743 C744 1.397 1_556 S
C743 C748 1.363 . S
C744 H721 0.950 . S
C744 C743 1.397 1_554 S
C744 C745 1.334 . S
C745 H722 0.950 . S
C745 C744 1.334 . S
C745 C746 1.287 1_554 S
C746 C745 1.287 1_556 S
C746 C747 1.524 . S
C746 H765 0.913 . S
C747 H723 0.950 . S
C747 C746 1.524 . S
C747 C748 1.415 . S
C748 H724 0.950 . S
C748 C743 1.363 . S
C748 C747 1.415 . S
C749 H725 0.951 . S
C749 C750 1.366 . S
C749 C751 1.388 . S
C750 C749 1.366 . S
C750 C754 1.385 . S
C751 H726 0.951 . S
C751 C749 1.388 . S
C751 C752 1.366 . S
C752 C751 1.366 . S
C752 C753 1.414 . S
C752 C755 1.499 . S
C753 H727 0.950 . S
C753 C752 1.414 . S
C753 C754 1.374 . S
C754 H728 0.950 . S
C754 C750 1.385 . S
C754 C753 1.374 . S
C755 C752 1.499 . S
C755 C756 1.373 . S
C755 C757 1.389 . S
C756 H729 0.950 . S
C756 C742 1.377 . S
C756 C755 1.373 . S
C757 C741 1.377 1_556 S
C757 C755 1.389 . S
C757 C758 1.524 1_556 S
C758 C757 1.524 1_554 S
C758 C759 1.397 1_554 S
C758 C763 1.363 . S
C759 H730 0.950 . S
C759 C758 1.397 1_556 S
C759 C760 1.334 . S
C760 H731 0.950 . S
C760 C759 1.334 . S
C760 C761 1.287 1_556 S
C761 C760 1.287 1_554 S
C761 C762 1.524 . S
C761 H764 0.999 . S
C762 H732 0.950 . S
C762 C761 1.524 . S
C762 C763 1.415 . S
C763 H733 0.950 . S
C763 C758 1.363 . S
C763 C762 1.415 . S
H764 C761 0.999 . S
H765 C746 0.913 . S
H766 C784 0.951 . S
H767 C786 0.951 . S
H768 C788 0.950 . S
H769 C789 0.950 . S
H770 C791 0.950 . S
H771 C794 0.950 . S
H772 C795 0.950 . S
H773 C797 0.950 . S
H774 C798 0.950 . S
H775 C799 0.951 . S
H776 C801 0.951 . S
H777 C803 0.950 . S
H778 C804 0.950 . S
H779 C806 0.950 . S
H780 C809 0.950 . S
H781 C810 0.950 . S
H782 C812 0.950 . S
H783 C813 0.950 . S
C784 H766 0.951 . S
C784 C785 1.366 1_455 S
C784 C786 1.388 . S
C785 C784 1.366 1_655 S
C785 C789 1.385 . S
C786 H767 0.951 . S
C786 C784 1.388 . S
C786 C787 1.366 1_455 S
C787 C786 1.366 1_655 S
C787 C788 1.414 . S
C787 C790 1.499 . S
C788 H768 0.950 . S
C788 C787 1.414 . S
C788 C789 1.374 . S
C789 H769 0.950 . S
C789 C785 1.385 . S
C789 C788 1.374 . S
C790 C787 1.499 . S
C790 C791 1.373 1_655 S
C790 C792 1.389 1_554 S
C791 H770 0.950 . S
C791 C790 1.373 1_455 S
C791 C807 1.377 1_554 S
C792 C790 1.389 1_556 S
C792 C793 1.524 . S
C792 C806 1.377 . S
C793 C792 1.524 . S
C793 C794 1.397 1_556 S
C793 C798 1.363 . S
C794 H771 0.950 . S
C794 C793 1.397 1_554 S
C794 C795 1.334 . S
C795 H772 0.950 . S
C795 C794 1.334 . S
C795 C796 1.287 1_554 S
C796 C795 1.287 1_556 S
C796 C797 1.524 . S
C796 H815 0.913 . S
C797 H773 0.950 . S
C797 C796 1.524 . S
C797 C798 1.415 . S
C798 H774 0.950 . S
C798 C793 1.363 . S
C798 C797 1.415 . S
C799 H775 0.951 . S
C799 C800 1.370 . S
C799 C801 1.388 . S
C800 C799 1.370 . S
C800 C804 1.381 1_655 S
C801 H776 0.951 . S
C801 C799 1.388 . S
C801 C802 1.363 1_655 S
C802 C801 1.363 1_455 S
C802 C803 1.416 . S
C802 C805 1.499 . S
C803 H777 0.950 . S
C803 C802 1.416 . S
C803 C804 1.374 . S
C804 H778 0.950 . S
C804 C800 1.381 1_455 S
C804 C803 1.374 . S
C805 C802 1.499 . S
C805 C806 1.348 1_455 S
C805 C807 1.413 . S
C806 H779 0.950 . S
C806 C792 1.377 . S
C806 C805 1.348 1_655 S
C807 C791 1.377 1_556 S
C807 C805 1.413 . S
C807 C808 1.524 . S
C808 C807 1.524 . S
C808 C809 1.397 . S
C808 C813 1.363 1_556 S
C809 H780 0.950 . S
C809 C808 1.397 . S
C809 C810 1.334 . S
C810 H781 0.950 . S
C810 C809 1.334 . S
C810 C811 1.287 . S
C811 C810 1.287 . S
C811 C812 1.524 1_556 S
C811 H814 0.999 . S
C812 H782 0.950 . S
C812 C811 1.524 1_554 S
C812 C813 1.415 . S
C813 H783 0.950 . S
C813 C808 1.363 1_554 S
C813 C812 1.415 . S
H814 C811 0.999 . S
H815 C796 0.913 . S
H816 C834 0.951 . S
H817 C836 0.951 . S
H818 C838 0.950 . S
H819 C839 0.950 . S
H820 C841 0.950 . S
H821 C844 0.950 . S
H822 C845 0.950 . S
H823 C847 0.950 . S
H824 C848 0.950 . S
H825 C849 0.951 . S
H826 C851 0.951 . S
H827 C853 0.950 . S
H828 C854 0.950 . S
H829 C856 0.950 . S
H830 C859 0.950 . S
H831 C860 0.950 . S
H832 C862 0.950 . S
H833 C863 0.950 . S
C834 H816 0.951 . S
C834 C835 1.366 . S
C834 C836 1.388 . S
C835 C834 1.366 . S
C835 C839 1.385 1_455 S
C836 H817 0.951 . S
C836 C834 1.388 . S
C836 C837 1.366 1_455 S
C837 C836 1.366 1_655 S
C837 C838 1.414 . S
C837 C840 1.499 . S
C838 H818 0.950 . S
C838 C837 1.414 . S
C838 C839 1.374 . S
C839 H819 0.950 . S
C839 C835 1.385 1_655 S
C839 C838 1.374 . S
C840 C837 1.499 . S
C840 C841 1.373 . S
C840 C842 1.389 . S
C841 H820 0.950 . S
C841 C840 1.373 . S
C841 C857 1.377 . S
C842 C840 1.389 . S
C842 C843 1.524 . S
C842 C856 1.377 . S
C843 C842 1.524 . S
C843 C844 1.397 . S
C843 C848 1.363 . S
C844 H821 0.950 . S
C844 C843 1.397 . S
C844 C845 1.334 . S
C845 H822 0.950 . S
C845 C844 1.334 . S
C845 C846 1.287 . S
C846 C845 1.287 . S
C846 C847 1.524 . S
C846 H865 0.913 . S
C847 H823 0.950 . S
C847 C846 1.524 . S
C847 C848 1.415 . S
C848 H824 0.950 . S
C848 C843 1.363 . S
C848 C847 1.415 . S
C849 H825 0.951 . S
C849 C850 1.366 . S
C849 C851 1.388 . S
C850 C849 1.366 . S
C850 C854 1.385 . S
C851 H826 0.951 . S
C851 C849 1.388 . S
C851 C852 1.366 . S
C852 C851 1.366 . S
C852 C853 1.414 . S
C852 C855 1.499 . S
C853 H827 0.950 . S
C853 C852 1.414 . S
C853 C854 1.374 . S
C854 H828 0.950 . S
C854 C850 1.385 . S
C854 C853 1.374 . S
C855 C852 1.499 . S
C855 C856 1.373 . S
C855 C857 1.389 . S
C856 H829 0.950 . S
C856 C842 1.377 . S
C856 C855 1.373 . S
C857 C841 1.377 . S
C857 C855 1.389 . S
C857 C858 1.524 . S
C858 C857 1.524 . S
C858 C859 1.397 1_655 S
C858 C863 1.363 . S
C859 H830 0.950 . S
C859 C858 1.397 1_455 S
C859 C860 1.334 . S
C860 H831 0.950 . S
C860 C859 1.334 . S
C860 C861 1.287 . S
C861 C860 1.287 . S
C861 C862 1.524 1_455 S
C861 H864 0.999 . S
C862 H832 0.950 . S
C862 C861 1.524 1_655 S
C862 C863 1.415 . S
C863 H833 0.950 . S
C863 C858 1.363 . S
C863 C862 1.415 . S
H864 C861 0.999 . S
H865 C846 0.913 . S
H866 C884 0.951 . S
H867 C886 0.951 . S
H868 C888 0.950 . S
H869 C889 0.950 . S
H870 C891 0.952 . S
H871 C894 0.950 . S
H872 C895 0.950 . S
H873 C897 0.950 . S
H874 C898 0.950 . S
H875 C899 0.951 . S
H876 C901 0.951 1_545 S
H877 C903 0.950 . S
H878 C904 0.950 . S
H879 C906 0.950 . S
H880 C909 0.950 . S
H881 C910 0.950 . S
H882 C912 0.950 . S
H883 C913 0.965 . S
C884 H866 0.951 . S
C884 C885 1.366 . S
C884 C886 1.388 . S
C885 C884 1.366 . S
C885 C889 1.385 . S
C886 H867 0.951 . S
C886 C884 1.388 . S
C886 C887 1.366 . S
C887 C886 1.366 . S
C887 C888 1.414 . S
C887 C890 1.499 . S
C888 H868 0.950 . S
C888 C887 1.414 . S
C888 C889 1.374 . S
C889 H869 0.950 . S
C889 C885 1.385 . S
C889 C888 1.374 . S
C890 C887 1.499 . S
C890 C891 1.369 1_545 S
C890 C892 1.389 . S
C891 H870 0.952 . S
C891 C890 1.369 1_565 S
C891 C907 1.380 . S
C892 C890 1.389 . S
C892 C893 1.524 . S
C892 C906 1.377 . S
C893 C892 1.524 . S
C893 C894 1.397 . S
C893 C898 1.363 . S
C894 H871 0.950 . S
C894 C893 1.397 . S
C894 C895 1.334 . S
C895 H872 0.950 . S
C895 C894 1.334 . S
C895 C896 1.287 . S
C896 C895 1.287 . S
C896 C897 1.524 . S
C896 H915 0.913 . S
C897 H873 0.950 . S
C897 C896 1.524 . S
C897 C898 1.415 . S
C898 H874 0.950 . S
C898 C893 1.363 . S
C898 C897 1.415 . S
C899 H875 0.951 . S
C899 C900 1.366 . S
C899 C901 1.388 . S
C900 C899 1.366 . S
C900 C904 1.385 . S
C901 H876 0.951 1_565 S
C901 C899 1.388 . S
C901 C902 1.366 . S
C902 C901 1.366 . S
C902 C903 1.414 . S
C902 C905 1.499 . S
C903 H877 0.950 . S
C903 C902 1.414 . S
C903 C904 1.374 . S
C904 H878 0.950 . S
C904 C900 1.385 . S
C904 C903 1.374 . S
C905 C902 1.499 . S
C905 C906 1.373 1_565 S
C905 C907 1.389 . S
C906 H879 0.950 . S
C906 C892 1.377 . S
C906 C905 1.373 1_545 S
C907 C891 1.380 . S
C907 C905 1.389 . S
C907 C908 1.524 . S
C908 C907 1.524 . S
C908 C909 1.397 . S
C908 C913 1.363 . S
C909 H880 0.950 . S
C909 C908 1.397 . S
C909 C910 1.334 . S
C910 H881 0.950 . S
C910 C909 1.334 . S
C910 C911 1.287 . S
C911 C910 1.287 . S
C911 C912 1.524 . S
C911 H914 0.999 . S
C912 H882 0.950 . S
C912 C911 1.524 . S
C912 C913 1.415 . S
C913 H883 0.965 . S
C913 C908 1.363 . S
C913 C912 1.415 . S
H914 C911 0.999 . S
H915 C896 0.913 . S
H916 C934 0.951 . S
H917 C936 0.951 . S
H918 C938 0.950 . S
H919 C939 0.950 . S
H920 C941 0.950 . S
H921 C944 0.950 . S
H922 C945 0.950 . S
H923 C947 0.950 . S
H924 C948 0.950 . S
H925 C949 0.951 . S
H926 C951 0.951 . S
H927 C953 0.950 . S
H928 C954 0.950 . S
H929 C956 0.950 . S
H930 C959 0.950 . S
H931 C960 0.950 . S
H932 C962 0.950 . S
H933 C963 0.950 . S
C934 H916 0.951 . S
C934 C935 1.366 . S
C934 C936 1.388 . S
C935 C934 1.366 . S
C935 C939 1.385 . S
C936 H917 0.951 . S
C936 C934 1.388 . S
C936 C937 1.366 . S
C937 C936 1.366 . S
C937 C938 1.414 . S
C937 C940 1.499 . S
C938 H918 0.950 . S
C938 C937 1.414 . S
C938 C939 1.374 . S
C939 H919 0.950 . S
C939 C935 1.385 . S
C939 C938 1.374 . S
C940 C937 1.499 . S
C940 C941 1.373 . S
C940 C942 1.389 . S
C941 H920 0.950 . S
C941 C940 1.373 . S
C941 C957 1.377 . S
C942 C940 1.389 . S
C942 C943 1.524 . S
C942 C956 1.377 . S
C943 C942 1.524 . S
C943 C944 1.397 . S
C943 C948 1.363 . S
C944 H921 0.950 . S
C944 C943 1.397 . S
C944 C945 1.334 . S
C945 H922 0.950 . S
C945 C944 1.334 . S
C945 C946 1.287 . S
C946 C945 1.287 . S
C946 C947 1.524 . S
C946 H965 0.913 . S
C947 H923 0.950 . S
C947 C946 1.524 . S
C947 C948 1.415 . S
C948 H924 0.950 . S
C948 C943 1.363 . S
C948 C947 1.415 . S
C949 H925 0.951 . S
C949 C950 1.366 . S
C949 C951 1.388 . S
C950 C949 1.366 . S
C950 C954 1.385 . S
C951 H926 0.951 . S
C951 C949 1.388 . S
C951 C952 1.366 . S
C952 C951 1.366 . S
C952 C953 1.414 . S
C952 C955 1.499 . S
C953 H927 0.950 . S
C953 C952 1.414 . S
C953 C954 1.374 . S
C954 H928 0.950 . S
C954 C950 1.385 . S
C954 C953 1.374 . S
C955 C952 1.499 . S
C955 C956 1.373 . S
C955 C957 1.389 . S
C956 H929 0.950 . S
C956 C942 1.377 . S
C956 C955 1.373 . S
C957 C941 1.377 . S
C957 C955 1.389 . S
C957 C958 1.524 . S
C958 C957 1.524 . S
C958 C959 1.397 . S
C958 C963 1.363 . S
C959 H930 0.950 . S
C959 C958 1.397 . S
C959 C960 1.334 . S
C960 H931 0.950 . S
C960 C959 1.334 . S
C960 C961 1.287 . S
C961 C960 1.287 . S
C961 C962 1.524 . S
C961 H964 0.999 . S
C962 H932 0.950 . S
C962 C961 1.524 . S
C962 C963 1.415 . S
C963 H933 0.950 . S
C963 C958 1.363 . S
C963 C962 1.415 . S
H964 C961 0.999 . S
H965 C946 0.913 . S
H966 C984 0.951 . S
H967 C986 0.951 . S
H968 C988 0.950 . S
H969 C989 0.950 . S
H970 C991 0.950 . S
H971 C994 0.950 . S
H972 C995 0.950 . S
H973 C997 0.950 . S
H974 C998 0.950 . S
H975 C999 0.951 . S
H976 C1001 0.951 . S
H977 C1003 0.950 . S
H978 C1004 0.950 . S
H979 C1006 0.950 . S
H980 C1009 0.950 . S
H981 C1010 0.950 . S
H982 C1012 0.950 . S
H983 C1013 0.950 . S
C984 H966 0.951 . S
C984 C985 1.366 . S
C984 C986 1.388 . S
C985 C984 1.366 . S
C985 C989 1.385 . S
C986 H967 0.951 . S
C986 C984 1.388 . S
C986 C987 1.366 . S
C987 C986 1.366 . S
C987 C988 1.414 . S
C987 C990 1.499 . S
C988 H968 0.950 . S
C988 C987 1.414 . S
C988 C989 1.374 . S
C989 H969 0.950 . S
C989 C985 1.385 . S
C989 C988 1.374 . S
C990 C987 1.499 . S
C990 C991 1.373 . S
C990 C992 1.389 . S
C991 H970 0.950 . S
C991 C990 1.373 . S
C991 C1007 1.377 . S
C992 C990 1.389 . S
C992 C993 1.524 . S
C992 C1006 1.377 . S
C993 C992 1.524 . S
C993 C994 1.397 . S
C993 C998 1.363 . S
C994 H971 0.950 . S
C994 C993 1.397 . S
C994 C995 1.334 . S
C995 H972 0.950 . S
C995 C994 1.334 . S
C995 C996 1.287 . S
C996 C995 1.287 . S
C996 C997 1.524 . S
C996 H1015 0.913 . S
C997 H973 0.950 . S
C997 C996 1.524 . S
C997 C998 1.415 . S
C998 H974 0.950 . S
C998 C993 1.363 . S
C998 C997 1.415 . S
C999 H975 0.951 . S
C999 C1000 1.366 . S
C999 C1001 1.388 . S
C1000 C999 1.366 . S
C1000 C1004 1.385 . S
C1001 H976 0.951 . S
C1001 C999 1.388 . S
C1001 C1002 1.366 . S
C1002 C1001 1.366 . S
C1002 C1003 1.414 . S
C1002 C1005 1.499 . S
C1003 H977 0.950 . S
C1003 C1002 1.414 . S
C1003 C1004 1.374 . S
C1004 H978 0.950 . S
C1004 C1000 1.385 . S
C1004 C1003 1.374 . S
C1005 C1002 1.499 . S
C1005 C1006 1.373 . S
C1005 C1007 1.389 . S
C1006 H979 0.950 . S
C1006 C992 1.377 . S
C1006 C1005 1.373 . S
C1007 C991 1.377 . S
C1007 C1005 1.389 . S
C1007 C1008 1.524 . S
C1008 C1007 1.524 . S
C1008 C1009 1.397 . S
C1008 C1013 1.363 . S
C1009 H980 0.950 . S
C1009 C1008 1.397 . S
C1009 C1010 1.334 . S
C1010 H981 0.950 . S
C1010 C1009 1.334 . S
C1010 C1011 1.287 . S
C1011 C1010 1.287 . S
C1011 C1012 1.524 . S
C1011 H1014 0.999 . S
C1012 H982 0.950 . S
C1012 C1011 1.524 . S
C1012 C1013 1.415 . S
C1013 H983 0.950 . S
C1013 C1008 1.363 . S
C1013 C1012 1.415 . S
H1014 C1011 0.999 . S
H1015 C996 0.913 . S
H1016 C1034 0.951 . S
H1017 C1036 0.951 . S
H1018 C1038 0.950 . S
H1019 C1039 0.950 . S
H1020 C1041 0.950 . S
H1021 C1044 0.940 1_455 S
H1022 C1045 0.950 . S
H1023 C1047 0.950 . S
H1024 C1048 0.950 . S
H1025 C1049 0.951 . S
H1026 C1051 0.951 . S
H1027 C1053 0.950 1_655 S
H1028 C1054 0.946 1_655 S
H1029 C1056 0.934 1_655 S
H1030 C1059 0.950 . S
H1031 C1060 0.950 . S
H1032 C1062 0.950 . S
H1033 C1063 0.950 . S
C1034 H1016 0.951 . S
C1034 C1035 1.366 . S
C1034 C1036 1.388 . S
C1035 C1034 1.366 . S
C1035 C1039 1.385 1_655 S
C1036 H1017 0.951 . S
C1036 C1034 1.388 . S
C1036 C1037 1.366 1_655 S
C1037 C1036 1.366 1_455 S
C1037 C1038 1.414 . S
C1037 C1040 1.499 . S
C1038 H1018 0.950 . S
C1038 C1037 1.414 . S
C1038 C1039 1.374 . S
C1039 H1019 0.950 . S
C1039 C1035 1.385 1_455 S
C1039 C1038 1.374 . S
C1040 C1037 1.499 . S
C1040 C1041 1.373 . S
C1040 C1042 1.389 1_554 S
C1041 H1020 0.950 . S
C1041 C1040 1.373 . S
C1041 C1057 1.377 . S
C1042 C1040 1.389 1_556 S
C1042 C1043 1.524 1_455 S
C1042 C1056 1.377 . S
C1043 C1042 1.524 1_655 S
C1043 C1044 1.401 . S
C1043 C1048 1.363 . S
C1044 H1021 0.940 1_655 S
C1044 C1043 1.401 . S
C1044 C1045 1.339 . S
C1045 H1022 0.950 . S
C1045 C1044 1.339 . S
C1045 C1046 1.287 . S
C1046 C1045 1.287 . S
C1046 C1047 1.524 . S
C1046 H1065 0.913 . S
C1047 H1023 0.950 . S
C1047 C1046 1.524 . S
C1047 C1048 1.415 . S
C1048 H1024 0.950 . S
C1048 C1043 1.363 . S
C1048 C1047 1.415 . S
C1049 H1025 0.951 . S
C1049 C1050 1.366 . S
C1049 C1051 1.388 . S
C1050 C1049 1.366 . S
C1050 C1054 1.385 . S
C1051 H1026 0.951 . S
C1051 C1049 1.388 . S
C1051 C1052 1.366 . S
C1052 C1051 1.366 . S
C1052 C1053 1.414 . S
C1052 C1055 1.499 . S
C1053 H1027 0.950 1_455 S
C1053 C1052 1.414 . S
C1053 C1054 1.374 . S
C1054 H1028 0.946 1_455 S
C1054 C1050 1.385 . S
C1054 C1053 1.374 . S
C1055 C1052 1.499 . S
C1055 C1056 1.373 . S
C1055 C1057 1.389 1_556 S
C1056 H1029 0.934 1_455 S
C1056 C1042 1.377 . S
C1056 C1055 1.373 . S
C1057 C1041 1.377 . S
C1057 C1055 1.389 1_554 S
C1057 C1058 1.524 . S
C1058 C1057 1.524 . S
C1058 C1059 1.397 . S
C1058 C1063 1.363 . S
C1059 H1030 0.950 . S
C1059 C1058 1.397 . S
C1059 C1060 1.334 . S
C1060 H1031 0.950 . S
C1060 C1059 1.334 . S
C1060 C1061 1.287 . S
C1061 C1060 1.287 . S
C1061 C1062 1.524 . S
C1061 H1064 0.999 . S
C1062 H1032 0.950 . S
C1062 C1061 1.524 . S
C1062 C1063 1.415 . S
C1063 H1033 0.950 . S
C1063 C1058 1.363 . S
C1063 C1062 1.415 . S
H1064 C1061 0.999 . S
H1065 C1046 0.913 . S
H1066 C1084 0.951 . S
H1067 C1086 0.951 . S
H1068 C1088 0.950 . S
H1069 C1089 0.950 . S
H1070 C1091 0.950 . S
H1071 C1094 0.950 1_565 S
H1072 C1095 0.950 . S
H1073 C1097 0.950 . S
H1074 C1098 0.950 . S
H1075 C1099 0.945 1_565 S
H1076 C1101 0.951 1_565 S
H1077 C1103 0.950 . S
H1078 C1104 0.950 . S
H1079 C1106 0.950 . S
H1080 C1109 0.950 . S
H1081 C1110 0.950 1_545 S
H1082 C1112 0.950 . S
H1083 C1113 0.950 . S
C1084 H1066 0.951 . S
C1084 C1085 1.366 1_545 S
C1084 C1086 1.388 . S
C1085 C1084 1.366 1_565 S
C1085 C1089 1.385 . S
C1086 H1067 0.951 . S
C1086 C1084 1.388 . S
C1086 C1087 1.366 1_545 S
C1087 C1086 1.366 1_565 S
C1087 C1088 1.414 . S
C1087 C1090 1.499 1_565 S
C1088 H1068 0.950 . S
C1088 C1087 1.414 . S
C1088 C1089 1.374 . S
C1089 H1069 0.950 . S
C1089 C1085 1.385 . S
C1089 C1088 1.374 . S
C1090 C1087 1.499 1_545 S
C1090 C1091 1.373 1_544 S
C1090 C1092 1.389 . S
C1091 H1070 0.950 . S
C1091 C1090 1.373 1_566 S
C1091 C1107 1.382 . S
C1092 C1090 1.389 . S
C1092 C1093 1.524 . S
C1092 C1106 1.377 . S
C1093 C1092 1.524 . S
C1093 C1094 1.397 . S
C1093 C1098 1.363 . S
C1094 H1071 0.950 1_545 S
C1094 C1093 1.397 . S
C1094 C1095 1.334 . S
C1095 H1072 0.950 . S
C1095 C1094 1.334 . S
C1095 C1096 1.287 . S
C1096 C1095 1.287 . S
C1096 C1097 1.524 . S
C1096 H1115 0.913 . S
C1097 H1073 0.950 . S
C1097 C1096 1.524 . S
C1097 C1098 1.415 . S
C1098 H1074 0.950 . S
C1098 C1093 1.363 . S
C1098 C1097 1.415 . S
C1099 H1075 0.945 1_545 S
C1099 C1100 1.366 . S
C1099 C1101 1.388 . S
C1100 C1099 1.366 . S
C1100 C1104 1.385 . S
C1101 H1076 0.951 1_545 S
C1101 C1099 1.388 . S
C1101 C1102 1.366 . S
C1102 C1101 1.366 . S
C1102 C1103 1.414 . S
C1102 C1105 1.499 . S
C1103 H1077 0.950 . S
C1103 C1102 1.414 . S
C1103 C1104 1.374 . S
C1104 H1078 0.950 . S
C1104 C1100 1.385 . S
C1104 C1103 1.374 . S
C1105 C1102 1.499 . S
C1105 C1106 1.373 1_556 S
C1105 C1107 1.377 1_545 S
C1106 H1079 0.950 . S
C1106 C1092 1.377 . S
C1106 C1105 1.373 1_554 S
C1107 C1091 1.382 . S
C1107 C1105 1.377 1_565 S
C1107 C1108 1.532 . S
C1108 C1107 1.532 . S
C1108 C1109 1.397 1_565 S
C1108 C1113 1.363 . S
C1109 H1080 0.950 . S
C1109 C1108 1.397 1_545 S
C1109 C1110 1.334 1_545 S
C1110 H1081 0.950 1_565 S
C1110 C1109 1.334 1_565 S
C1110 C1111 1.287 . S
C1111 C1110 1.287 . S
C1111 C1112 1.524 . S
C1111 H1114 0.999 . S
C1112 H1082 0.950 . S
C1112 C1111 1.524 . S
C1112 C1113 1.415 . S
C1113 H1083 0.950 . S
C1113 C1108 1.363 . S
C1113 C1112 1.415 . S
H1114 C1111 0.999 . S
H1115 C1096 0.913 . S
H1116 C1134 0.951 . S
H1117 C1136 0.951 . S
H1118 C1138 0.950 . S
H1119 C1139 0.950 . S
H1120 C1141 0.950 . S
H1121 C1144 0.950 . S
H1122 C1145 0.950 1_554 S
H1123 C1147 0.950 . S
H1124 C1148 0.950 . S
H1125 C1149 0.951 . S
H1126 C1151 0.951 1_554 S
H1127 C1153 0.950 . S
H1128 C1154 0.950 . S
H1129 C1156 0.950 . S
H1130 C1159 0.950 1_556 S
H1131 C1160 0.950 . S
H1132 C1162 0.950 . S
H1133 C1163 0.950 . S
C1134 H1116 0.951 . S
C1134 C1135 1.366 . S
C1134 C1136 1.388 . S
C1135 C1134 1.366 . S
C1135 C1139 1.385 . S
C1136 H1117 0.951 . S
C1136 C1134 1.388 . S
C1136 C1137 1.366 . S
C1137 C1136 1.366 . S
C1137 C1138 1.414 . S
C1137 C1140 1.499 . S
C1138 H1118 0.950 . S
C1138 C1137 1.414 . S
C1138 C1139 1.374 . S
C1139 H1119 0.950 . S
C1139 C1135 1.385 . S
C1139 C1138 1.374 . S
C1140 C1137 1.499 . S
C1140 C1141 1.373 . S
C1140 C1142 1.389 1_554 S
C1141 H1120 0.950 . S
C1141 C1140 1.373 . S
C1141 C1157 1.377 . S
C1142 C1140 1.389 1_556 S
C1142 C1143 1.524 . S
C1142 C1156 1.377 . S
C1143 C1142 1.524 . S
C1143 C1144 1.397 1_556 S
C1143 C1148 1.363 . S
C1144 H1121 0.950 . S
C1144 C1143 1.397 1_554 S
C1144 C1145 1.334 1_554 S
C1145 H1122 0.950 1_556 S
C1145 C1144 1.334 1_556 S
C1145 C1146 1.287 . S
C1146 C1145 1.287 . S
C1146 C1147 1.524 . S
C1146 H1165 0.913 . S
C1147 H1123 0.950 . S
C1147 C1146 1.524 . S
C1147 C1148 1.415 . S
C1148 H1124 0.950 . S
C1148 C1143 1.363 . S
C1148 C1147 1.415 . S
C1149 H1125 0.951 . S
C1149 C1150 1.366 . S
C1149 C1151 1.388 . S
C1150 C1149 1.366 . S
C1150 C1154 1.385 . S
C1151 H1126 0.951 1_556 S
C1151 C1149 1.388 . S
C1151 C1152 1.366 . S
C1152 C1151 1.366 . S
C1152 C1153 1.414 . S
C1152 C1155 1.499 . S
C1153 H1127 0.950 . S
C1153 C1152 1.414 . S
C1153 C1154 1.374 . S
C1154 H1128 0.950 . S
C1154 C1150 1.385 . S
C1154 C1153 1.374 . S
C1155 C1152 1.499 . S
C1155 C1156 1.373 . S
C1155 C1157 1.389 1_556 S
C1156 H1129 0.950 . S
C1156 C1142 1.377 . S
C1156 C1155 1.373 . S
C1157 C1141 1.377 . S
C1157 C1155 1.389 1_554 S
C1157 C1158 1.524 . S
C1158 C1157 1.524 . S
C1158 C1159 1.397 . S
C1158 C1163 1.363 . S
C1159 H1130 0.950 1_554 S
C1159 C1158 1.397 . S
C1159 C1160 1.334 . S
C1160 H1131 0.950 . S
C1160 C1159 1.334 . S
C1160 C1161 1.287 . S
C1161 C1160 1.287 . S
C1161 C1162 1.524 . S
C1161 H1164 0.999 . S
C1162 H1132 0.950 . S
C1162 C1161 1.524 . S
C1162 C1163 1.415 . S
C1163 H1133 0.950 . S
C1163 C1158 1.363 . S
C1163 C1162 1.415 . S
H1164 C1161 0.999 . S
H1165 C1146 0.913 . S
H1166 C1184 0.951 . S
H1167 C1186 0.951 . S
H1168 C1188 0.950 . S
H1169 C1189 0.950 . S
H1170 C1191 0.950 . S
H1171 C1194 0.950 . S
H1172 C1195 0.950 . S
H1173 C1197 0.950 1_556 S
H1174 C1198 0.950 1_556 S
H1175 C1199 0.951 . S
H1176 C1201 0.951 . S
H1177 C1203 0.950 . S
H1178 C1204 0.950 . S
H1179 C1206 0.950 . S
H1180 C1209 0.950 . S
H1181 C1210 0.950 . S
H1182 C1212 0.950 1_554 S
H1183 C1213 0.950 . S
C1184 H1166 0.951 . S
C1184 C1185 1.366 . S
C1184 C1186 1.388 . S
C1185 C1184 1.366 . S
C1185 C1189 1.385 . S
C1186 H1167 0.951 . S
C1186 C1184 1.388 . S
C1186 C1187 1.366 . S
C1187 C1186 1.366 . S
C1187 C1188 1.414 . S
C1187 C1190 1.499 . S
C1188 H1168 0.950 . S
C1188 C1187 1.414 . S
C1188 C1189 1.374 . S
C1189 H1169 0.950 . S
C1189 C1185 1.385 . S
C1189 C1188 1.374 . S
C1190 C1187 1.499 . S
C1190 C1191 1.373 . S
C1190 C1192 1.389 . S
C1191 H1170 0.950 . S
C1191 C1190 1.373 . S
C1191 C1207 1.377 1_554 S
C1192 C1190 1.389 . S
C1192 C1193 1.524 . S
C1192 C1206 1.377 1_554 S
C1193 C1192 1.524 . S
C1193 C1194 1.397 . S
C1193 C1198 1.363 . S
C1194 H1171 0.950 . S
C1194 C1193 1.397 . S
C1194 C1195 1.334 . S
C1195 H1172 0.950 . S
C1195 C1194 1.334 . S
C1195 C1196 1.287 . S
C1196 C1195 1.287 . S
C1196 C1197 1.524 . S
C1196 H1215 0.913 . S
C1197 H1173 0.950 1_554 S
C1197 C1196 1.524 . S
C1197 C1198 1.415 . S
C1198 H1174 0.950 1_554 S
C1198 C1193 1.363 . S
C1198 C1197 1.415 . S
C1199 H1175 0.951 . S
C1199 C1200 1.366 . S
C1199 C1201 1.388 . S
C1200 C1199 1.366 . S
C1200 C1204 1.385 . S
C1201 H1176 0.951 . S
C1201 C1199 1.388 . S
C1201 C1202 1.366 . S
C1202 C1201 1.366 . S
C1202 C1203 1.414 . S
C1202 C1205 1.499 . S
C1203 H1177 0.950 . S
C1203 C1202 1.414 . S
C1203 C1204 1.374 . S
C1204 H1178 0.950 . S
C1204 C1200 1.385 . S
C1204 C1203 1.374 . S
C1205 C1202 1.499 . S
C1205 C1206 1.373 . S
C1205 C1207 1.389 . S
C1206 H1179 0.950 . S
C1206 C1192 1.377 1_556 S
C1206 C1205 1.373 . S
C1207 C1191 1.377 1_556 S
C1207 C1205 1.389 . S
C1207 C1208 1.524 . S
C1208 C1207 1.524 . S
C1208 C1209 1.397 . S
C1208 C1213 1.363 1_556 S
C1209 H1180 0.950 . S
C1209 C1208 1.397 . S
C1209 C1210 1.334 . S
C1210 H1181 0.950 . S
C1210 C1209 1.334 . S
C1210 C1211 1.287 . S
C1211 C1210 1.287 . S
C1211 C1212 1.524 . S
C1211 H1214 0.999 . S
C1212 H1182 0.950 1_556 S
C1212 C1211 1.524 . S
C1212 C1213 1.415 1_556 S
C1213 H1183 0.950 . S
C1213 C1208 1.363 1_554 S
C1213 C1212 1.415 1_554 S
H1214 C1211 0.999 . S
H1215 C1196 0.913 . S
H1216 C1234 0.951 . S
H1217 C1236 0.951 . S
H1218 C1238 0.950 . S
H1219 C1239 0.950 . S
H1220 C1241 0.950 . S
H1221 C1244 0.950 1_655 S
H1222 C1245 0.950 . S
H1223 C1247 0.950 . S
H1224 C1248 0.950 . S
H1225 C1249 0.951 . S
H1226 C1251 0.951 . S
H1227 C1253 0.950 . S
H1228 C1254 0.950 . S
H1229 C1256 0.950 . S
H1230 C1259 0.950 . S
H1231 C1260 0.951 1_455 S
H1232 C1262 0.950 . S
H1233 C1263 0.950 . S
C1234 H1216 0.951 . S
C1234 C1235 1.366 . S
C1234 C1236 1.388 . S
C1235 C1234 1.366 . S
C1235 C1239 1.385 1_455 S
C1236 H1217 0.951 . S
C1236 C1234 1.388 . S
C1236 C1237 1.366 . S
C1237 C1236 1.366 . S
C1237 C1238 1.414 1_455 S
C1237 C1240 1.499 . S
C1238 H1218 0.950 . S
C1238 C1237 1.414 1_655 S
C1238 C1239 1.374 . S
C1239 H1219 0.950 . S
C1239 C1235 1.385 1_655 S
C1239 C1238 1.374 . S
C1240 C1237 1.499 . S
C1240 C1241 1.373 1_455 S
C1240 C1242 1.389 . S
C1241 H1220 0.950 . S
C1241 C1240 1.373 1_655 S
C1241 C1257 1.377 . S
C1242 C1240 1.389 . S
C1242 C1243 1.524 . S
C1242 C1256 1.377 . S
C1243 C1242 1.524 . S
C1243 C1244 1.397 . S
C1243 C1248 1.363 . S
C1244 H1221 0.950 1_455 S
C1244 C1243 1.397 . S
C1244 C1245 1.334 . S
C1245 H1222 0.950 . S
C1245 C1244 1.334 . S
C1245 C1246 1.287 . S
C1246 C1245 1.287 . S
C1246 C1247 1.524 . S
C1246 H1265 0.913 . S
C1247 H1223 0.950 . S
C1247 C1246 1.524 . S
C1247 C1248 1.415 . S
C1248 H1224 0.950 . S
C1248 C1243 1.363 . S
C1248 C1247 1.415 . S
C1249 H1225 0.951 . S
C1249 C1250 1.366 1_655 S
C1249 C1251 1.388 . S
C1250 C1249 1.366 1_455 S
C1250 C1254 1.385 . S
C1251 H1226 0.951 . S
C1251 C1249 1.388 . S
C1251 C1252 1.366 1_655 S
C1252 C1251 1.366 1_455 S
C1252 C1253 1.414 . S
C1252 C1255 1.499 . S
C1253 H1227 0.950 . S
C1253 C1252 1.414 . S
C1253 C1254 1.374 . S
C1254 H1228 0.950 . S
C1254 C1250 1.385 . S
C1254 C1253 1.374 . S
C1255 C1252 1.499 . S
C1255 C1256 1.373 . S
C1255 C1257 1.389 1_455 S
C1256 H1229 0.950 . S
C1256 C1242 1.377 . S
C1256 C1255 1.373 . S
C1257 C1241 1.377 . S
C1257 C1255 1.389 1_655 S
C1257 C1258 1.524 . S
C1258 C1257 1.524 . S
C1258 C1259 1.397 1_655 S
C1258 C1263 1.363 . S
C1259 H1230 0.950 . S
C1259 C1258 1.397 1_455 S
C1259 C1260 1.334 1_455 S
C1260 H1231 0.951 1_655 S
C1260 C1259 1.334 1_655 S
C1260 C1261 1.285 . S
C1261 C1260 1.285 . S
C1261 C1262 1.524 . S
C1261 H1264 0.999 1_556 S
C1262 H1232 0.950 . S
C1262 C1261 1.524 . S
C1262 C1263 1.415 . S
C1263 H1233 0.950 . S
C1263 C1258 1.363 . S
C1263 C1262 1.415 . S
H1264 C1261 0.999 1_554 S
H1265 C1246 0.913 . S
H1266 C1284 0.951 . S
H1267 C1286 0.951 . S
H1268 C1288 0.950 . S
H1269 C1289 0.950 . S
H1270 C1291 0.950 . S
H1271 C1294 0.950 . S
H1272 C1295 0.950 . S
H1273 C1297 0.950 1_554 S
H1274 C1298 0.950 . S
H1275 C1299 0.951 . S
H1276 C1301 0.951 . S
H1277 C1303 0.950 . S
H1278 C1304 0.950 . S
H1279 C1306 0.950 . S
H1280 C1309 0.950 . S
H1281 C1310 0.950 . S
H1282 C1312 0.950 . S
H1283 C1313 0.956 1_545 S
C1284 H1266 0.951 . S
C1284 C1285 1.366 . S
C1284 C1286 1.388 . S
C1285 C1284 1.366 . S
C1285 C1289 1.385 . S
C1286 H1267 0.951 . S
C1286 C1284 1.388 . S
C1286 C1287 1.366 . S
C1287 C1286 1.366 . S
C1287 C1288 1.414 . S
C1287 C1290 1.499 . S
C1288 H1268 0.950 . S
C1288 C1287 1.414 . S
C1288 C1289 1.374 . S
C1289 H1269 0.950 . S
C1289 C1285 1.385 . S
C1289 C1288 1.374 . S
C1290 C1287 1.499 . S
C1290 C1291 1.373 . S
C1290 C1292 1.389 . S
C1291 H1270 0.950 . S
C1291 C1290 1.373 . S
C1291 C1307 1.377 . S
C1292 C1290 1.389 . S
C1292 C1293 1.524 . S
C1292 C1306 1.377 . S
C1293 C1292 1.524 . S
C1293 C1294 1.397 . S
C1293 C1298 1.363 . S
C1294 H1271 0.950 . S
C1294 C1293 1.397 . S
C1294 C1295 1.334 . S
C1295 H1272 0.950 . S
C1295 C1294 1.334 . S
C1295 C1296 1.287 . S
C1296 C1295 1.287 . S
C1296 C1297 1.524 . S
C1296 H1315 0.913 . S
C1297 H1273 0.950 1_556 S
C1297 C1296 1.524 . S
C1297 C1298 1.415 . S
C1298 H1274 0.950 . S
C1298 C1293 1.363 . S
C1298 C1297 1.415 . S
C1299 H1275 0.951 . S
C1299 C1300 1.366 . S
C1299 C1301 1.388 . S
C1300 C1299 1.366 . S
C1300 C1304 1.385 . S
C1301 H1276 0.951 . S
C1301 C1299 1.388 . S
C1301 C1302 1.366 . S
C1302 C1301 1.366 . S
C1302 C1303 1.414 . S
C1302 C1305 1.499 . S
C1303 H1277 0.950 . S
C1303 C1302 1.414 . S
C1303 C1304 1.374 . S
C1304 H1278 0.950 . S
C1304 C1300 1.385 . S
C1304 C1303 1.374 . S
C1305 C1302 1.499 . S
C1305 C1306 1.373 . S
C1305 C1307 1.389 . S
C1306 H1279 0.950 . S
C1306 C1292 1.377 . S
C1306 C1305 1.373 . S
C1307 C1291 1.377 . S
C1307 C1305 1.389 . S
C1307 C1308 1.524 1_545 S
C1308 C1307 1.524 1_565 S
C1308 C1309 1.397 . S
C1308 C1313 1.362 . S
C1309 H1280 0.950 . S
C1309 C1308 1.397 . S
C1309 C1310 1.334 . S
C1310 H1281 0.950 . S
C1310 C1309 1.334 . S
C1310 C1311 1.287 . S
C1311 C1310 1.287 . S
C1311 C1312 1.524 . S
C1311 H1314 0.999 . S
C1312 H1282 0.950 . S
C1312 C1311 1.524 . S
C1312 C1313 1.411 . S
C1313 H1283 0.956 1_565 S
C1313 C1308 1.362 . S
C1313 C1312 1.411 . S
H1314 C1311 0.999 . S
H1315 C1296 0.913 . S
H1316 C1334 0.951 . S
H1317 C1336 0.951 . S
H1318 C1338 0.950 . S
H1319 C1339 0.950 . S
H1320 C1341 0.950 . S
H1321 C1344 0.950 . S
H1322 C1345 0.950 . S
H1323 C1347 0.950 1_554 S
H1324 C1348 0.950 . S
H1325 C1349 0.951 . S
H1326 C1351 0.951 . S
H1327 C1353 0.950 . S
H1328 C1354 0.950 . S
H1329 C1356 0.950 . S
H1330 C1359 0.950 . S
H1331 C1360 0.950 . S
H1332 C1362 0.950 . S
H1333 C1363 0.950 . S
C1334 H1316 0.951 . S
C1334 C1335 1.366 . S
C1334 C1336 1.388 . S
C1335 C1334 1.366 . S
C1335 C1339 1.385 . S
C1336 H1317 0.951 . S
C1336 C1334 1.388 . S
C1336 C1337 1.366 . S
C1337 C1336 1.366 . S
C1337 C1338 1.414 . S
C1337 C1340 1.499 . S
C1338 H1318 0.950 . S
C1338 C1337 1.414 . S
C1338 C1339 1.374 . S
C1339 H1319 0.950 . S
C1339 C1335 1.385 . S
C1339 C1338 1.374 . S
C1340 C1337 1.499 . S
C1340 C1341 1.373 . S
C1340 C1342 1.389 . S
C1341 H1320 0.950 . S
C1341 C1340 1.373 . S
C1341 C1357 1.377 . S
C1342 C1340 1.389 . S
C1342 C1343 1.524 . S
C1342 C1356 1.377 . S
C1343 C1342 1.524 . S
C1343 C1344 1.397 . S
C1343 C1348 1.363 . S
C1344 H1321 0.950 . S
C1344 C1343 1.397 . S
C1344 C1345 1.334 . S
C1345 H1322 0.950 . S
C1345 C1344 1.334 . S
C1345 C1346 1.287 1_556 S
C1346 C1345 1.287 1_554 S
C1346 C1347 1.524 1_554 S
C1346 H1365 0.913 . S
C1347 H1323 0.950 1_556 S
C1347 C1346 1.524 1_556 S
C1347 C1348 1.415 . S
C1348 H1324 0.950 . S
C1348 C1343 1.363 . S
C1348 C1347 1.415 . S
C1349 H1325 0.951 . S
C1349 C1350 1.366 . S
C1349 C1351 1.388 . S
C1350 C1349 1.366 . S
C1350 C1354 1.385 . S
C1351 H1326 0.951 . S
C1351 C1349 1.388 . S
C1351 C1352 1.366 . S
C1352 C1351 1.366 . S
C1352 C1353 1.414 . S
C1352 C1355 1.499 . S
C1353 H1327 0.950 . S
C1353 C1352 1.414 . S
C1353 C1354 1.374 . S
C1354 H1328 0.950 . S
C1354 C1350 1.385 . S
C1354 C1353 1.374 . S
C1355 C1352 1.499 . S
C1355 C1356 1.373 . S
C1355 C1357 1.389 . S
C1356 H1329 0.950 . S
C1356 C1342 1.377 . S
C1356 C1355 1.373 . S
C1357 C1341 1.377 . S
C1357 C1355 1.389 . S
C1357 C1358 1.524 . S
C1358 C1357 1.524 . S
C1358 C1359 1.397 . S
C1358 C1363 1.363 . S
C1359 H1330 0.950 . S
C1359 C1358 1.397 . S
C1359 C1360 1.334 . S
C1360 H1331 0.950 . S
C1360 C1359 1.334 . S
C1360 C1361 1.287 . S
C1361 C1360 1.287 . S
C1361 C1362 1.524 . S
C1361 H1364 0.999 . S
C1362 H1332 0.950 . S
C1362 C1361 1.524 . S
C1362 C1363 1.415 . S
C1363 H1333 0.950 . S
C1363 C1358 1.363 . S
C1363 C1362 1.415 . S
H1364 C1361 0.999 . S
H1365 C1346 0.913 . S
H1366 C1384 0.951 . S
H1367 C1386 0.951 . S
H1368 C1388 0.950 . S
H1369 C1389 0.950 . S
H1370 C1391 0.950 . S
H1371 C1394 0.950 . S
H1372 C1395 0.950 . S
H1373 C1397 0.950 . S
H1374 C1398 0.950 . S
H1375 C1399 0.951 . S
H1376 C1401 0.951 . S
H1377 C1403 0.950 . S
H1378 C1404 0.950 . S
H1379 C1406 0.950 . S
H1380 C1409 0.950 . S
H1381 C1410 0.950 . S
H1382 C1412 0.950 . S
H1383 C1413 0.950 . S
C1384 H1366 0.951 . S
C1384 C1385 1.366 . S
C1384 C1386 1.388 . S
C1385 C1384 1.366 . S
C1385 C1389 1.385 . S
C1386 H1367 0.951 . S
C1386 C1384 1.388 . S
C1386 C1387 1.366 . S
C1387 C1386 1.366 . S
C1387 C1388 1.414 . S
C1387 C1390 1.499 . S
C1388 H1368 0.950 . S
C1388 C1387 1.414 . S
C1388 C1389 1.374 . S
C1389 H1369 0.950 . S
C1389 C1385 1.385 . S
C1389 C1388 1.374 . S
C1390 C1387 1.499 . S
C1390 C1391 1.373 . S
C1390 C1392 1.389 . S
C1391 H1370 0.950 . S
C1391 C1390 1.373 . S
C1391 C1407 1.377 . S
C1392 C1390 1.389 . S
C1392 C1393 1.524 . S
C1392 C1406 1.377 . S
C1393 C1392 1.524 . S
C1393 C1394 1.397 . S
C1393 C1398 1.363 . S
C1394 H1371 0.950 . S
C1394 C1393 1.397 . S
C1394 C1395 1.334 . S
C1395 H1372 0.950 . S
C1395 C1394 1.334 . S
C1395 C1396 1.287 . S
C1396 C1395 1.287 . S
C1396 C1397 1.524 . S
C1396 H1415 0.913 . S
C1397 H1373 0.950 . S
C1397 C1396 1.524 . S
C1397 C1398 1.415 . S
C1398 H1374 0.950 . S
C1398 C1393 1.363 . S
C1398 C1397 1.415 . S
C1399 H1375 0.951 . S
C1399 C1400 1.366 . S
C1399 C1401 1.388 . S
C1400 C1399 1.366 . S
C1400 C1404 1.385 . S
C1401 H1376 0.951 . S
C1401 C1399 1.388 . S
C1401 C1402 1.366 . S
C1402 C1401 1.366 . S
C1402 C1403 1.414 . S
C1402 C1405 1.499 . S
C1403 H1377 0.950 . S
C1403 C1402 1.414 . S
C1403 C1404 1.374 . S
C1404 H1378 0.950 . S
C1404 C1400 1.385 . S
C1404 C1403 1.374 . S
C1405 C1402 1.499 . S
C1405 C1406 1.373 . S
C1405 C1407 1.389 . S
C1406 H1379 0.950 . S
C1406 C1392 1.377 . S
C1406 C1405 1.373 . S
C1407 C1391 1.377 . S
C1407 C1405 1.389 . S
C1407 C1408 1.524 . S
C1408 C1407 1.524 . S
C1408 C1409 1.397 . S
C1408 C1413 1.363 . S
C1409 H1380 0.950 . S
C1409 C1408 1.397 . S
C1409 C1410 1.334 . S
C1410 H1381 0.950 . S
C1410 C1409 1.334 . S
C1410 C1411 1.287 . S
C1411 C1410 1.287 . S
C1411 C1412 1.524 . S
C1411 H1414 0.999 . S
C1412 H1382 0.950 . S
C1412 C1411 1.524 . S
C1412 C1413 1.415 . S
C1413 H1383 0.950 . S
C1413 C1408 1.363 . S
C1413 C1412 1.415 . S
H1414 C1411 0.999 . S
H1415 C1396 0.913 . S
H1416 C1434 0.951 . S
H1417 C1436 0.951 . S
H1418 C1438 0.950 . S
H1419 C1439 0.950 . S
H1420 C1441 0.950 . S
H1421 C1444 0.950 . S
H1422 C1445 0.950 . S
H1423 C1447 0.950 . S
H1424 C1448 0.950 . S
H1425 C1449 0.951 . S
H1426 C1451 0.951 . S
H1427 C1453 0.950 . S
H1428 C1454 0.950 . S
H1429 C1456 0.950 . S
H1430 C1459 0.950 . S
H1431 C1460 0.950 . S
H1432 C1462 0.950 . S
H1433 C1463 0.950 . S
C1434 H1416 0.951 . S
C1434 C1435 1.366 . S
C1434 C1436 1.388 . S
C1435 C1434 1.366 . S
C1435 C1439 1.385 1_655 S
C1436 H1417 0.951 . S
C1436 C1434 1.388 . S
C1436 C1437 1.366 . S
C1437 C1436 1.366 . S
C1437 C1438 1.414 1_655 S
C1437 C1440 1.499 . S
C1438 H1418 0.950 . S
C1438 C1437 1.414 1_455 S
C1438 C1439 1.374 . S
C1439 H1419 0.950 . S
C1439 C1435 1.385 1_455 S
C1439 C1438 1.374 . S
C1440 C1437 1.499 . S
C1440 C1441 1.373 1_655 S
C1440 C1442 1.389 . S
C1441 H1420 0.950 . S
C1441 C1440 1.373 1_455 S
C1441 C1457 1.377 . S
C1442 C1440 1.389 . S
C1442 C1443 1.524 . S
C1442 C1456 1.377 . S
C1443 C1442 1.524 . S
C1443 C1444 1.397 . S
C1443 C1448 1.363 . S
C1444 H1421 0.950 . S
C1444 C1443 1.397 . S
C1444 C1445 1.334 . S
C1445 H1422 0.950 . S
C1445 C1444 1.334 . S
C1445 C1446 1.287 . S
C1446 C1445 1.287 . S
C1446 C1447 1.524 . S
C1446 H1465 0.913 . S
C1447 H1423 0.950 . S
C1447 C1446 1.524 . S
C1447 C1448 1.415 . S
C1448 H1424 0.950 . S
C1448 C1443 1.363 . S
C1448 C1447 1.415 . S
C1449 H1425 0.951 . S
C1449 C1450 1.366 1_455 S
C1449 C1451 1.388 . S
C1450 C1449 1.366 1_655 S
C1450 C1454 1.385 . S
C1451 H1426 0.951 . S
C1451 C1449 1.388 . S
C1451 C1452 1.366 1_455 S
C1452 C1451 1.366 1_655 S
C1452 C1453 1.414 . S
C1452 C1455 1.499 . S
C1453 H1427 0.950 . S
C1453 C1452 1.414 . S
C1453 C1454 1.374 . S
C1454 H1428 0.950 . S
C1454 C1450 1.385 . S
C1454 C1453 1.374 . S
C1455 C1452 1.499 . S
C1455 C1456 1.373 . S
C1455 C1457 1.389 1_655 S
C1456 H1429 0.950 . S
C1456 C1442 1.377 . S
C1456 C1455 1.373 . S
C1457 C1441 1.377 . S
C1457 C1455 1.389 1_455 S
C1457 C1458 1.524 . S
C1458 C1457 1.524 . S
C1458 C1459 1.397 . S
C1458 C1463 1.363 . S
C1459 H1430 0.950 . S
C1459 C1458 1.397 . S
C1459 C1460 1.334 . S
C1460 H1431 0.950 . S
C1460 C1459 1.334 . S
C1460 C1461 1.287 . S
C1461 C1460 1.287 . S
C1461 C1462 1.524 . S
C1461 H1464 0.999 . S
C1462 H1432 0.950 . S
C1462 C1461 1.524 . S
C1462 C1463 1.415 . S
C1463 H1433 0.950 . S
C1463 C1458 1.363 . S
C1463 C1462 1.415 . S
H1464 C1461 0.999 . S
H1465 C1446 0.913 . S
H1466 C1484 0.951 . S
H1467 C1486 0.951 . S
H1468 C1488 0.983 . S
H1469 C1489 0.970 . S
H1470 C1491 0.950 . S
H1471 C1494 0.950 . S
H1472 C1495 0.950 . S
H1473 C1497 0.950 . S
H1474 C1498 0.950 . S
H1475 C1499 0.951 . S
H1476 C1501 0.951 . S
H1477 C1503 0.950 . S
H1478 C1504 0.950 . S
H1479 C1506 0.950 . S
H1480 C1509 0.950 . S
H1481 C1510 0.950 . S
H1482 C1512 0.950 . S
H1483 C1513 0.950 . S
C1484 H1466 0.951 . S
C1484 C1485 1.366 . S
C1484 C1486 1.388 . S
C1485 C1484 1.366 . S
C1485 C1489 1.365 1_565 S
C1486 H1467 0.951 . S
C1486 C1484 1.388 . S
C1486 C1487 1.366 . S
C1487 C1486 1.366 . S
C1487 C1488 1.384 1_565 S
C1487 C1490 1.499 . S
C1488 H1468 0.983 . S
C1488 C1487 1.384 1_545 S
C1488 C1489 1.373 . S
C1489 H1469 0.970 . S
C1489 C1485 1.365 1_545 S
C1489 C1488 1.373 . S
C1490 C1487 1.499 . S
C1490 C1491 1.373 1_565 S
C1490 C1492 1.389 . S
C1491 H1470 0.950 . S
C1491 C1490 1.373 1_545 S
C1491 C1507 1.377 . S
C1492 C1490 1.389 . S
C1492 C1493 1.524 . S
C1492 C1506 1.377 . S
C1493 C1492 1.524 . S
C1493 C1494 1.397 . S
C1493 C1498 1.363 . S
C1494 H1471 0.950 . S
C1494 C1493 1.397 . S
C1494 C1495 1.334 . S
C1495 H1472 0.950 . S
C1495 C1494 1.334 . S
C1495 C1496 1.287 . S
C1496 C1495 1.287 . S
C1496 C1497 1.524 . S
C1496 H1515 0.913 . S
C1497 H1473 0.950 . S
C1497 C1496 1.524 . S
C1497 C1498 1.415 . S
C1498 H1474 0.950 . S
C1498 C1493 1.363 . S
C1498 C1497 1.415 . S
C1499 H1475 0.951 . S
C1499 C1500 1.366 1_545 S
C1499 C1501 1.388 . S
C1500 C1499 1.366 1_565 S
C1500 C1504 1.385 . S
C1501 H1476 0.951 . S
C1501 C1499 1.388 . S
C1501 C1502 1.366 1_545 S
C1502 C1501 1.366 1_565 S
C1502 C1503 1.414 . S
C1502 C1505 1.499 . S
C1503 H1477 0.950 . S
C1503 C1502 1.414 . S
C1503 C1504 1.374 . S
C1504 H1478 0.950 . S
C1504 C1500 1.385 . S
C1504 C1503 1.374 . S
C1505 C1502 1.499 . S
C1505 C1506 1.373 . S
C1505 C1507 1.389 1_565 S
C1506 H1479 0.950 . S
C1506 C1492 1.377 . S
C1506 C1505 1.373 . S
C1507 C1491 1.377 . S
C1507 C1505 1.389 1_545 S
C1507 C1508 1.524 . S
C1508 C1507 1.524 . S
C1508 C1509 1.397 . S
C1508 C1513 1.363 . S
C1509 H1480 0.950 . S
C1509 C1508 1.397 . S
C1509 C1510 1.334 . S
C1510 H1481 0.950 . S
C1510 C1509 1.334 . S
C1510 C1511 1.287 . S
C1511 C1510 1.287 . S
C1511 C1512 1.524 . S
C1511 H1514 0.999 . S
C1512 H1482 0.950 . S
C1512 C1511 1.524 . S
C1512 C1513 1.415 . S
C1513 H1483 0.950 . S
C1513 C1508 1.363 . S
C1513 C1512 1.415 . S
H1514 C1511 0.999 . S
H1515 C1496 0.913 . S
H1516 C1534 0.951 . S
H1517 C1536 0.951 . S
H1518 C1538 0.950 . S
H1519 C1539 0.950 . S
H1520 C1541 0.950 . S
H1521 C1544 0.950 . S
H1522 C1545 0.950 . S
H1523 C1547 0.950 . S
H1524 C1548 0.950 . S
H1525 C1549 0.951 . S
H1526 C1551 0.951 . S
H1527 C1553 0.950 . S
H1528 C1554 0.950 . S
H1529 C1556 0.950 . S
H1530 C1559 0.950 . S
H1531 C1560 0.950 . S
H1532 C1562 0.950 . S
H1533 C1563 0.950 . S
C1534 H1516 0.951 . S
C1534 C1535 1.366 . S
C1534 C1536 1.388 . S
C1535 C1534 1.366 . S
C1535 C1539 1.385 . S
C1536 H1517 0.951 . S
C1536 C1534 1.388 . S
C1536 C1537 1.366 . S
C1537 C1536 1.366 . S
C1537 C1538 1.414 . S
C1537 C1540 1.499 . S
C1538 H1518 0.950 . S
C1538 C1537 1.414 . S
C1538 C1539 1.374 . S
C1539 H1519 0.950 . S
C1539 C1535 1.385 . S
C1539 C1538 1.374 . S
C1540 C1537 1.499 . S
C1540 C1541 1.373 . S
C1540 C1542 1.389 . S
C1541 H1520 0.950 . S
C1541 C1540 1.373 . S
C1541 C1557 1.377 . S
C1542 C1540 1.389 . S
C1542 C1543 1.524 . S
C1542 C1556 1.377 . S
C1543 C1542 1.524 . S
C1543 C1544 1.397 . S
C1543 C1548 1.363 . S
C1544 H1521 0.950 . S
C1544 C1543 1.397 . S
C1544 C1545 1.334 . S
C1545 H1522 0.950 . S
C1545 C1544 1.334 . S
C1545 C1546 1.287 . S
C1546 C1545 1.287 . S
C1546 C1547 1.524 . S
C1546 H1565 0.913 . S
C1547 H1523 0.950 . S
C1547 C1546 1.524 . S
C1547 C1548 1.415 . S
C1548 H1524 0.950 . S
C1548 C1543 1.363 . S
C1548 C1547 1.415 . S
C1549 H1525 0.951 . S
C1549 C1550 1.366 . S
C1549 C1551 1.388 . S
C1550 C1549 1.366 . S
C1550 C1554 1.385 . S
C1551 H1526 0.951 . S
C1551 C1549 1.388 . S
C1551 C1552 1.366 . S
C1552 C1551 1.366 . S
C1552 C1553 1.414 . S
C1552 C1555 1.499 . S
C1553 H1527 0.950 . S
C1553 C1552 1.414 . S
C1553 C1554 1.374 . S
C1554 H1528 0.950 . S
C1554 C1550 1.385 . S
C1554 C1553 1.374 . S
C1555 C1552 1.499 . S
C1555 C1556 1.373 . S
C1555 C1557 1.389 . S
C1556 H1529 0.950 . S
C1556 C1542 1.377 . S
C1556 C1555 1.373 . S
C1557 C1541 1.377 . S
C1557 C1555 1.389 . S
C1557 C1558 1.524 . S
C1558 C1557 1.524 . S
C1558 C1559 1.397 . S
C1558 C1563 1.363 . S
C1559 H1530 0.950 . S
C1559 C1558 1.397 . S
C1559 C1560 1.334 . S
C1560 H1531 0.950 . S
C1560 C1559 1.334 . S
C1560 C1561 1.287 . S
C1561 C1560 1.287 . S
C1561 C1562 1.524 . S
C1561 H1564 0.999 . S
C1562 H1532 0.950 . S
C1562 C1561 1.524 . S
C1562 C1563 1.415 . S
C1563 H1533 0.950 . S
C1563 C1558 1.363 . S
C1563 C1562 1.415 . S
H1564 C1561 0.999 . S
H1565 C1546 0.913 . S
H1566 C1584 0.951 . S
H1567 C1586 0.951 . S
H1568 C1588 0.950 . S
H1569 C1589 0.950 . S
H1570 C1591 0.950 . S
H1571 C1594 0.950 . S
H1572 C1595 0.950 . S
H1573 C1597 0.950 . S
H1574 C1598 0.950 . S
H1575 C1599 0.951 . S
H1576 C1601 0.951 . S
H1577 C1603 0.950 . S
H1578 C1604 0.950 . S
H1579 C1606 0.950 . S
H1580 C1609 0.950 . S
H1581 C1610 0.950 . S
H1582 C1612 0.950 . S
H1583 C1613 0.950 . S
C1584 H1566 0.951 . S
C1584 C1585 1.366 . S
C1584 C1586 1.388 . S
C1585 C1584 1.366 . S
C1585 C1589 1.385 . S
C1586 H1567 0.951 . S
C1586 C1584 1.388 . S
C1586 C1587 1.366 . S
C1587 C1586 1.366 . S
C1587 C1588 1.414 . S
C1587 C1590 1.499 . S
C1588 H1568 0.950 . S
C1588 C1587 1.414 . S
C1588 C1589 1.374 . S
C1589 H1569 0.950 . S
C1589 C1585 1.385 . S
C1589 C1588 1.374 . S
C1590 C1587 1.499 . S
C1590 C1591 1.373 . S
C1590 C1592 1.389 . S
C1591 H1570 0.950 . S
C1591 C1590 1.373 . S
C1591 C1607 1.377 . S
C1592 C1590 1.389 . S
C1592 C1593 1.524 . S
C1592 C1606 1.377 . S
C1593 C1592 1.524 . S
C1593 C1594 1.397 . S
C1593 C1598 1.363 . S
C1594 H1571 0.950 . S
C1594 C1593 1.397 . S
C1594 C1595 1.334 . S
C1595 H1572 0.950 . S
C1595 C1594 1.334 . S
C1595 C1596 1.287 . S
C1596 C1595 1.287 . S
C1596 C1597 1.524 . S
C1596 H1615 0.913 . S
C1597 H1573 0.950 . S
C1597 C1596 1.524 . S
C1597 C1598 1.415 . S
C1598 H1574 0.950 . S
C1598 C1593 1.363 . S
C1598 C1597 1.415 . S
C1599 H1575 0.951 . S
C1599 C1600 1.366 . S
C1599 C1601 1.388 . S
C1600 C1599 1.366 . S
C1600 C1604 1.385 . S
C1601 H1576 0.951 . S
C1601 C1599 1.388 . S
C1601 C1602 1.366 . S
C1602 C1601 1.366 . S
C1602 C1603 1.414 . S
C1602 C1605 1.499 . S
C1603 H1577 0.950 . S
C1603 C1602 1.414 . S
C1603 C1604 1.374 . S
C1604 H1578 0.950 . S
C1604 C1600 1.385 . S
C1604 C1603 1.374 . S
C1605 C1602 1.499 . S
C1605 C1606 1.373 . S
C1605 C1607 1.389 . S
C1606 H1579 0.950 . S
C1606 C1592 1.377 . S
C1606 C1605 1.373 . S
C1607 C1591 1.377 . S
C1607 C1605 1.389 . S
C1607 C1608 1.524 . S
C1608 C1607 1.524 . S
C1608 C1609 1.397 . S
C1608 C1613 1.363 . S
C1609 H1580 0.950 . S
C1609 C1608 1.397 . S
C1609 C1610 1.334 . S
C1610 H1581 0.950 . S
C1610 C1609 1.334 . S
C1610 C1611 1.287 . S
C1611 C1610 1.287 . S
C1611 C1612 1.524 . S
C1611 H1614 0.999 . S
C1612 H1582 0.950 . S
C1612 C1611 1.524 . S
C1612 C1613 1.415 . S
C1613 H1583 0.950 . S
C1613 C1608 1.363 . S
C1613 C1612 1.415 . S
H1614 C1611 0.999 . S
H1615 C1596 0.913 . S
C435 C215 1.808 . S
C450 C266 1.899 . S
C500 C306 1.894 . S
C485 C247 1.790 . S
C550 C346 1.903 . S
C535 C151 1.809 . S
C600 C386 1.887 1_455 S
C585 C183 1.788 . S
C650 C275 1.913 . S
C635 C87 1.791 . S
C685 C119 1.795 . S
C700 C315 1.894 . S
C735 C23 1.786 . S
C750 C355 1.903 . S
C785 C55 1.789 1_655 S
C800 C395 1.889 1_655 S
C850 C272 0.315 . S
C835 C189 0.246 . S
C900 C312 0.329 . S
C885 C221 0.235 . S
C950 C352 0.311 . S
C935 C253 0.251 . S
C985 C157 0.230 . S
C1000 C392 0.328 . S
C1035 C61 0.437 1_655 S
C1050 C263 0.302 . S
C1100 C303 0.331 . S
C1085 C93 0.476 . S
C1150 C343 0.315 . S
C1135 C125 0.435 . S
C1185 C29 0.478 . S
C1200 C383 0.337 . S
C1235 C177 2.226 . S
C1250 C267 2.476 . S
C1285 C209 2.241 . S
C1300 C307 2.477 . S
C1350 C347 2.472 . S
C1335 C241 2.222 . S
C1400 C387 2.484 . S
C1385 C145 2.241 . S
C1435 C49 2.245 1_655 S
C1450 C258 2.477 . S
C1500 C298 2.477 . S
C1485 C81 2.233 . S
C1550 C338 2.472 . S
C1535 C113 2.242 . S
C1585 C17 2.240 . S
C1600 C378 2.491 . S
