# Generated by pormake.
# Topology tsx, (6,3)-cn, num edge types: 1
# Building blocks:
#     Node 0, Type 0, BuildingBlock: MIDCAF_clean_sbu_0, # of connection points: 6
#     Node 1, Type 0, BuildingBlock: MIDCAF_clean_sbu_0, # of connection points: 6
#     Node 2, Type 1, BuildingBlock: BETDAH_clean_linker_0, # of connection points: 3
#     Node 3, Type 1, BuildingBlock: BETDAH_clean_linker_0, # of connection points: 3
#     Node 4, Type 1, BuildingBlock: BETDAH_clean_linker_0, # of connection points: 3
#     Node 5, Type 1, BuildingBlock: BETDAH_clean_linker_0, # of connection points: 3
#     Edge 6, Type (0, 1), BuildingBlock: MIFKUJ_clean_linker_0, # of connection points: 2
#     Edge 7, Type (0, 1), BuildingBlock: MIFKUJ_clean_linker_0, # of connection points: 2
#     Edge 8, Type (0, 1), BuildingBlock: MIFKUJ_clean_linker_0, # of connection points: 2
#     Edge 9, Type (0, 1), BuildingBlock: MIFKUJ_clean_linker_0, # of connection points: 2
#     Edge 10, Type (0, 1), BuildingBlock: MIFKUJ_clean_linker_0, # of connection points: 2
#     Edge 11, Type (0, 1), BuildingBlock: MIFKUJ_clean_linker_0, # of connection points: 2
#     Edge 12, Type (0, 1), BuildingBlock: MIFKUJ_clean_linker_0, # of connection points: 2
#     Edge 13, Type (0, 1), BuildingBlock: MIFKUJ_clean_linker_0, # of connection points: 2
#     Edge 14, Type (0, 1), BuildingBlock: MIFKUJ_clean_linker_0, # of connection points: 2
#     Edge 15, Type (0, 1), BuildingBlock: MIFKUJ_clean_linker_0, # of connection points: 2
#     Edge 16, Type (0, 1), BuildingBlock: MIFKUJ_clean_linker_0, # of connection points: 2
#     Edge 17, Type (0, 1), BuildingBlock: MIFKUJ_clean_linker_0, # of connection points: 2
# Relax obj value: 0.080
# Max RMSD: 0.150
# Mean RMSD: 0.111
data_MOF--net-tsx--node1-MIDCAF_clean_sbu_0--node2-BETDAH_clean_linker_0--edge1-MIFKUJ_clean_linker_0
_symmetry_space_group_name_H-M    P1
_symmetry_Int_Tables_number       1
_symmetry_cell_setting            triclinic
loop_
_symmetry_equiv_pos_as_xyz
'x, y, z'
_cell_length_a     26.367183
_cell_length_b     26.951868
_cell_length_c     46.07452
_cell_angle_alpha  90.421824
_cell_angle_beta   102.49656
_cell_angle_gamma 90.01894
loop_
_atom_site_label
_atom_site_type_symbol
_atom_site_fract_x
_atom_site_fract_y
_atom_site_fract_z
_atom_type_partial_charge
Zn0 Zn 0.95296 0.00648 0.97744 0.0
Zn1 Zn 0.13491 0.02596 0.04713 0.0
Zn2 Zn 0.04359 0.02247 0.0129 0.0
C3 C 0.10703 0.12279 0.02762 0.0
C4 C 0.14706 0.96418 0.00199 0.0
O5 O 0.99484 0.97522 0.03587 0.0
O6 O 0.92496 0.95697 0.00121 0.0
C7 C 0.9626 0.10934 0.99162 0.0
O8 O 0.06225 0.10249 0.01811 0.0
O9 O 0.14584 0.09683 0.03925 0.0
O10 O 0.1717 0.97669 0.0276 0.0
O11 O 0.10035 0.98021 0.99227 0.0
O12 O 0.93017 0.07613 0.98054 0.0
O13 O 0.00992 0.09751 0.0033 0.0
O14 O 0.05596 0.99075 0.97058 0.0
O15 O 0.97769 0.98633 0.94121 0.0
C16 C 0.02636 0.98231 0.94481 0.0
O17 O 0.03795 0.99177 0.05674 0.0
O18 O 0.11545 0.0079 0.08477 0.0
C19 C 0.9512 0.95209 0.0274 0.0
C20 C 0.06953 0.99243 0.08239 0.0
Zn21 Zn 0.62965 0.50211 0.55016 0.0
Zn22 Zn 0.45089 0.50936 0.47138 0.0
Zn23 Zn 0.54106 0.50943 0.51071 0.0
C24 C 0.52406 0.47014 0.4423 0.0
C25 C 0.47788 0.60865 0.48745 0.0
O26 O 0.52655 0.47334 0.55133 0.0
O27 O 0.60356 0.46829 0.58189 0.0
C28 C 0.64534 0.45335 0.49989 0.0
O29 O 0.55371 0.47813 0.46811 0.0
O30 O 0.47599 0.47893 0.43796 0.0
O31 O 0.44308 0.58251 0.47115 0.0
O32 O 0.51793 0.58804 0.50391 0.0
O33 O 0.66939 0.46393 0.52597 0.0
O34 O 0.59802 0.46784 0.4905 0.0
O35 O 0.5675 0.58645 0.52253 0.0
O36 O 0.64165 0.57453 0.55489 0.0
C37 C 0.6084 0.60374 0.54026 0.0
O38 O 0.48263 0.4655 0.52816 0.0
O39 O 0.40991 0.46857 0.49365 0.0
C40 C 0.55506 0.46155 0.57678 0.0
C41 C 0.43459 0.45319 0.51853 0.0
H42 H 0.13695 0.96088 0.38797 0.0
H43 H 0.00478 0.05461 0.38845 0.0
H44 H 0.10865 0.01626 0.4706 0.0
C45 C 0.11421 0.98362 0.39988 0.0
C46 C 0.12908 0.98675 0.43099 0.0
C47 C 0.06944 0.00786 0.38415 0.0
C48 C 0.03911 0.03541 0.40019 0.0
C49 C 0.05324 0.03804 0.43146 0.0
C50 C 0.09786 0.01355 0.44656 0.0
N51 N 0.0235 0.06446 0.44867 0.0
C52 C 0.985 0.09868 0.43747 0.0
H53 H 0.95286 0.9804 0.65064 0.0
H54 H 0.08957 0.05343 0.6357 0.0
H55 H 0.97406 0.00016 0.56133 0.0
C56 C 0.97543 0.99401 0.6353 0.0
C57 C 0.95709 0.98714 0.60454 0.0
C58 C 0.0234 0.01713 0.64668 0.0
C59 C 0.05257 0.03551 0.62696 0.0
C60 C 0.03401 0.0303 0.59606 0.0
C61 C 0.98695 0.00548 0.58512 0.0
N62 N 0.06206 0.04856 0.57532 0.0
C63 C 0.10134 0.08389 0.58209 0.0
H64 H 0.60905 0.46239 0.87011 0.0
H65 H 0.48201 0.55629 0.88048 0.0
H66 H 0.60976 0.53125 0.95458 0.0
C67 C 0.59057 0.48599 0.88392 0.0
C68 C 0.61541 0.49428 0.91369 0.0
C69 C 0.54217 0.50765 0.87178 0.0
C70 C 0.51917 0.53929 0.88966 0.0
C71 C 0.54362 0.54766 0.91963 0.0
C72 C 0.59113 0.52455 0.93151 0.0
N73 N 0.52158 0.57851 0.93872 0.0
C74 C 0.48136 0.612 0.92941 0.0
H75 H 0.48974 0.44771 0.14713 0.0
H76 H 0.61071 0.55071 0.13931 0.0
H77 H 0.48487 0.52142 0.06433 0.0
C78 C 0.50745 0.47262 0.13381 0.0
C79 C 0.48232 0.48094 0.10421 0.0
C80 C 0.5537 0.4976 0.14674 0.0
C81 C 0.57498 0.53144 0.12952 0.0
C82 C 0.55019 0.53997 0.09966 0.0
C83 C 0.50383 0.51486 0.0873 0.0
N84 N 0.57059 0.57329 0.08132 0.0
C85 C 0.61461 0.60257 0.09076 0.0
H86 H 0.16493 0.16264 0.99267 0.0
H87 H 0.2078 0.24325 1.00023 0.0
H88 H 0.11601 0.28254 0.06396 0.0
H89 H 0.07342 0.20082 0.05656 0.0
H90 H 0.19551 0.34198 0.00118 0.0
H91 H 0.20007 0.3274 0.12494 0.0
H92 H 0.18314 0.26633 0.16145 0.0
H93 H 0.22806 0.14785 0.10949 0.0
H94 H 0.24588 0.2083 0.07296 0.0
H95 H 0.38919 0.51896 0.07449 0.0
H96 H 0.30704 0.47379 0.05745 0.0
H97 H 0.38442 0.33665 0.08796 0.0
H98 H 0.46559 0.38176 0.10568 0.0
H99 H 0.29753 0.34077 0.10515 0.0
H100 H 0.35007 0.37287 0.01176 0.0
H101 H 0.37278 0.42682 0.9734 0.0
H102 H 0.22494 0.49951 0.96223 0.0
H103 H 0.2017 0.44639 0.00059 0.0
C104 C 0.15222 0.18944 0.00724 0.0
C105 C 0.11615 0.17586 0.02409 0.0
C106 C 0.17671 0.23556 0.01157 0.0
C107 C 0.16595 0.26858 0.03312 0.0
C108 C 0.12533 0.25735 0.04745 0.0
C109 C 0.10075 0.21091 0.04311 0.0
C110 C 0.20409 0.30863 0.04429 0.0
C111 C 0.21723 0.34243 0.02405 0.0
C112 C 0.2331 0.30876 0.074 0.0
C113 C 0.22363 0.27225 0.09612 0.0
C114 C 0.20645 0.28832 0.12141 0.0
C115 C 0.19672 0.25383 0.14209 0.0
C116 C 0.20434 0.20323 0.13774 0.0
C117 C 0.22203 0.18703 0.1128 0.0
C118 C 0.23198 0.22137 0.09212 0.0
C119 C 0.38852 0.4791 0.07722 0.0
C120 C 0.43359 0.45378 0.09143 0.0
C121 C 0.34164 0.45333 0.06752 0.0
C122 C 0.33942 0.40172 0.07139 0.0
C123 C 0.38488 0.37648 0.08499 0.0
C124 C 0.43132 0.40221 0.095 0.0
C125 C 0.29015 0.37329 0.06182 0.0
C126 C 0.27493 0.34163 0.08248 0.0
C127 C 0.26022 0.37435 0.03234 0.0
C128 C 0.27438 0.40609 0.00923 0.0
C129 C 0.3226 0.40062 0.00121 0.0
C130 C 0.33555 0.43101 0.97942 0.0
C131 C 0.3004 0.4667 0.96537 0.0
C132 C 0.25222 0.47197 0.97305 0.0
C133 C 0.23911 0.44172 0.9948 0.0
H134 H 0.31045 0.49018 0.94849 0.0
H135 H 0.19666 0.17659 0.15372 0.0
H136 H 0.25069 0.95181 0.00818 0.0
H137 H 0.29593 0.89588 0.98111 0.0
H138 H 0.14954 0.84782 0.92658 0.0
H139 H 0.10356 0.90142 0.95559 0.0
H140 H 0.20576 0.77155 0.94032 0.0
H141 H 0.23856 0.92214 0.89937 0.0
H142 H 0.26084 0.01026 0.89586 0.0
H143 H 0.41635 0.98184 0.94421 0.0
H144 H 0.39478 0.89361 0.94839 0.0
H145 H 0.39021 0.61482 0.88813 0.0
H146 H 0.32259 0.6792 0.88411 0.0
H147 H 0.41856 0.75886 0.95756 0.0
H148 H 0.48584 0.69552 0.96102 0.0
H149 H 0.37138 0.82186 0.91445 0.0
H150 H 0.31706 0.67201 0.96449 0.0
H151 H 0.29037 0.58396 0.96154 0.0
H152 H 0.16835 0.61524 0.8857 0.0
H153 H 0.19459 0.70335 0.88815 0.0
C154 C 0.22792 0.9296 0.99033 0.0
C155 C 0.17342 0.932 0.98361 0.0
C156 C 0.25399 0.89798 0.97452 0.0
C157 C 0.22645 0.86858 0.95106 0.0
C158 C 0.17184 0.87071 0.94422 0.0
C159 C 0.14554 0.90191 0.96053 0.0
C160 C 0.25545 0.83327 0.93566 0.0
C161 C 0.24133 0.78291 0.93403 0.0
C162 C 0.30131 0.8478 0.92658 0.0
C163 C 0.31494 0.90098 0.92408 0.0
C164 C 0.27747 0.9346 0.90928 0.0
C165 C 0.28998 0.98465 0.90721 0.0
C166 C 0.34002 0.00164 0.91977 0.0
C167 C 0.37763 0.96859 0.93442 0.0
C168 C 0.36528 0.91849 0.93658 0.0
C169 C 0.39673 0.64657 0.90304 0.0
C170 C 0.44273 0.65065 0.92491 0.0
C171 C 0.35821 0.68314 0.90083 0.0
C172 C 0.36527 0.72372 0.92073 0.0
C173 C 0.41222 0.72812 0.94189 0.0
C174 C 0.45054 0.69189 0.94397 0.0
C175 C 0.32345 0.76044 0.92143 0.0
C176 C 0.33507 0.81107 0.92008 0.0
C177 C 0.27463 0.7464 0.92685 0.0
C178 C 0.25806 0.69394 0.92632 0.0
C179 C 0.28458 0.65999 0.94721 0.0
C180 C 0.26956 0.61011 0.9456 0.0
C181 C 0.22787 0.59398 0.92332 0.0
C182 C 0.20073 0.62776 0.90286 0.0
C183 C 0.2156 0.67764 0.90437 0.0
H184 H 0.21653 0.55534 0.92183 0.0
H185 H 0.34965 0.04042 0.91817 0.0
H186 H 0.00245 0.88319 0.06673 0.0
H187 H 0.962 0.82105 0.09368 0.0
H188 H 0.81217 0.8878 0.06056 0.0
H189 H 0.85193 0.94863 0.03338 0.0
H190 H 0.82879 0.85461 0.12125 0.0
H191 H 0.84613 0.79907 0.02171 0.0
H192 H 0.8981 0.7778 0.98484 0.0
H193 H 0.98341 0.67052 0.04461 0.0
H194 H 0.93235 0.69177 0.08202 0.0
H195 H 0.61097 0.70159 0.08703 0.0
H196 H 0.68461 0.75848 0.09181 0.0
H197 H 0.79067 0.63543 0.11325 0.0
H198 H 0.7163 0.57825 0.10773 0.0
H199 H 0.81783 0.68892 0.07261 0.0
H200 H 0.78197 0.72774 0.16592 0.0
H201 H 0.72983 0.74808 0.20279 0.0
H202 H 0.68194 0.88483 0.15795 0.0
H203 H 0.73312 0.86502 0.12051 0.0
C204 C 0.9611 0.88502 0.06584 0.0
C205 C 0.93007 0.92021 0.04783 0.0
C206 C 0.9381 0.84965 0.08117 0.0
C207 C 0.88405 0.84976 0.07895 0.0
C208 C 0.8539 0.88715 0.06266 0.0
C209 C 0.87658 0.92166 0.047 0.0
C210 C 0.85699 0.80812 0.09008 0.0
C211 C 0.82655 0.81816 0.11089 0.0
C212 C 0.85547 0.76019 0.07722 0.0
C213 C 0.88603 0.74749 0.05477 0.0
C214 C 0.87632 0.7713 0.02708 0.0
C215 C 0.90553 0.75919 0.00608 0.0
C216 C 0.94418 0.72297 0.01243 0.0
C217 C 0.95358 0.69868 0.03977 0.0
C218 C 0.92455 0.71075 0.06087 0.0
C219 C 0.65008 0.68699 0.09333 0.0
C220 C 0.65841 0.63597 0.09723 0.0
C221 C 0.69219 0.71947 0.09626 0.0
C222 C 0.74344 0.70149 0.10341 0.0
C223 C 0.75161 0.65029 0.10796 0.0
C224 C 0.70929 0.61771 0.1049 0.0
C225 C 0.7876 0.7358 0.10303 0.0
C226 C 0.82118 0.7245 0.08404 0.0
C227 C 0.79222 0.78243 0.11782 0.0
C228 C 0.76133 0.79475 0.14031 0.0
C229 C 0.76007 0.76201 0.16379 0.0
C230 C 0.7307 0.77347 0.18482 0.0
C231 C 0.70257 0.8177 0.1827 0.0
C232 C 0.70379 0.8506 0.15957 0.0
C233 C 0.73307 0.83931 0.13847 0.0
H234 H 0.67985 0.8265 0.19901 0.0
H235 H 0.96672 0.7136 0.99613 0.0
H236 H 0.86522 0.13899 0.99215 0.0
H237 H 0.82857 0.22171 0.98341 0.0
H238 H 0.97943 0.28036 0.98041 0.0
H239 H 0.01668 0.19637 0.98851 0.0
H240 H 0.89255 0.33784 0.01435 0.0
H241 H 0.93389 0.2814 0.92179 0.0
H242 H 0.94107 0.21658 0.88482 0.0
H243 H 0.77787 0.18591 0.87204 0.0
H244 H 0.76995 0.25003 0.90932 0.0
H245 H 0.70052 0.48987 0.88889 0.0
H246 H 0.78068 0.44317 0.90651 0.0
H247 H 0.72451 0.397 0.9834 0.0
H248 H 0.64476 0.44432 0.96608 0.0
H249 H 0.78807 0.34849 0.91115 0.0
H250 H 0.82115 0.36658 0.04033 0.0
H251 H 0.81435 0.43084 0.07766 0.0
H252 H 0.8336 0.54477 0.01627 0.0
H253 H 0.84124 0.48123 0.9787 0.0
C254 C 0.89097 0.16948 0.99008 0.0
C255 C 0.9439 0.16115 0.99092 0.0
C256 C 0.86995 0.21678 0.98529 0.0
C257 C 0.90127 0.25694 0.98127 0.0
C258 C 0.9548 0.24969 0.98373 0.0
C259 C 0.97605 0.20186 0.98848 0.0
C260 C 0.87542 0.30421 0.97086 0.0
C261 C 0.87037 0.34104 0.99169 0.0
C262 C 0.8471 0.30826 0.94124 0.0
C263 C 0.85144 0.27025 0.91847 0.0
C264 C 0.89964 0.26056 0.91125 0.0
C265 C 0.90382 0.224 0.89022 0.0
C266 C 0.85997 0.19708 0.87613 0.0
C267 C 0.81181 0.20677 0.88298 0.0
C268 C 0.80744 0.24326 0.90403 0.0
C269 C 0.70562 0.47022 0.90974 0.0
C270 C 0.66623 0.47043 0.92601 0.0
C271 C 0.75152 0.44373 0.91985 0.0
C272 C 0.75899 0.41677 0.94641 0.0
C273 C 0.72037 0.41834 0.9632 0.0
C274 C 0.67461 0.44521 0.95321 0.0
C275 C 0.80393 0.38245 0.95474 0.0
C276 C 0.81167 0.34717 0.93355 0.0
C277 C 0.83524 0.38059 0.98392 0.0
C278 C 0.83149 0.41904 0.00661 0.0
C279 C 0.82429 0.40532 0.03484 0.0
C280 C 0.82019 0.44164 0.05604 0.0
C281 C 0.82342 0.49186 0.04932 0.0
C282 C 0.83093 0.50586 0.02142 0.0
C283 C 0.83506 0.4697 1.00014 0.0
H284 H 0.82017 0.51991 0.06575 0.0
H285 H 0.86329 0.16878 0.85985 0.0
H286 H 0.58427 0.67614 0.49769 0.0
H287 H 0.61915 0.76115 0.50134 0.0
H288 H 0.6946 0.73541 0.59287 0.0
H289 H 0.65896 0.65194 0.58953 0.0
H290 H 0.66444 0.82869 0.58656 0.0
H291 H 0.75493 0.71082 0.5334 0.0
H292 H 0.75871 0.65364 0.49184 0.0
H293 H 0.71049 0.77103 0.42945 0.0
H294 H 0.7059 0.82874 0.4707 0.0
H295 H 0.92088 0.90564 0.62886 0.0
H296 H 0.84006 0.86069 0.61101 0.0
H297 H 0.80161 0.95737 0.53535 0.0
H298 H 0.8819 0.00458 0.55382 0.0
H299 H 0.79194 0.85067 0.52267 0.0
H300 H 0.73134 0.973 0.58178 0.0
H301 H 0.73497 0.02612 0.62597 0.0
H302 H 0.73236 0.89703 0.67969 0.0
H303 H 0.72952 0.84307 0.63592 0.0
C304 C 0.60677 0.68943 0.51881 0.0
C305 C 0.61926 0.65747 0.54328 0.0
C306 C 0.62704 0.73779 0.52082 0.0
C307 C 0.66026 0.75442 0.54726 0.0
C308 C 0.66917 0.7236 0.57224 0.0
C309 C 0.64903 0.67568 0.57025 0.0
C310 C 0.69133 0.80072 0.54865 0.0
C311 C 0.6919 0.83388 0.57238 0.0
C312 C 0.72638 0.80834 0.52972 0.0
C313 C 0.72943 0.77382 0.50502 0.0
C314 C 0.74486 0.7243 0.51079 0.0
C315 C 0.74717 0.69183 0.48732 0.0
C316 C 0.73467 0.70865 0.45802 0.0
C317 C 0.72001 0.75802 0.45215 0.0
C318 C 0.71753 0.79062 0.47555 0.0
C319 C 0.89496 0.91828 0.60876 0.0
C320 C 0.90785 0.9593 0.59303 0.0
C321 C 0.84881 0.89225 0.59849 0.0
C322 C 0.81462 0.90614 0.57209 0.0
C323 C 0.82747 0.94632 0.55588 0.0
C324 C 0.87353 0.97298 0.56639 0.0
C325 C 0.76659 0.87683 0.56144 0.0
C326 C 0.76301 0.8469 0.53606 0.0
C327 C 0.72929 0.87169 0.57913 0.0
C328 C 0.73031 0.90397 0.60552 0.0
C329 C 0.73181 0.95591 0.60304 0.0
C330 C 0.73371 0.98618 0.62802 0.0
C331 C 0.73391 0.96496 0.65562 0.0
C332 C 0.73213 0.91342 0.65828 0.0
C333 C 0.73027 0.88297 0.63337 0.0
H334 H 0.73542 0.98846 0.67494 0.0
H335 H 0.73649 0.68346 0.43986 0.0
H336 H 0.60355 0.38541 0.45652 0.0
H337 H 0.65109 0.32971 0.42956 0.0
H338 H 0.79591 0.39398 0.4766 0.0
H339 H 0.74855 0.45159 0.50182 0.0
H340 H 0.80305 0.37149 0.4221 0.0
H341 H 0.73884 0.28548 0.50112 0.0
H342 H 0.66837 0.25632 0.52441 0.0
H343 H 0.59836 0.17828 0.44412 0.0
H344 H 0.66822 0.20744 0.4203 0.0
H345 H 0.99719 0.19297 0.45564 0.0
H346 H 0.92966 0.25623 0.45105 0.0
H347 H 0.81831 0.15394 0.40003 0.0
H348 H 0.88632 0.08998 0.40538 0.0
H349 H 0.78004 0.19327 0.44217 0.0
H350 H 0.85556 0.2609 0.36779 0.0
H351 H 0.92436 0.28928 0.34309 0.0
H352 H 0.96999 0.40151 0.41031 0.0
H353 H 0.90197 0.37335 0.43569 0.0
C354 C 0.64536 0.38875 0.46023 0.0
C355 C 0.67233 0.4231 0.48106 0.0
C356 C 0.67256 0.35648 0.44514 0.0
C357 C 0.7272 0.35702 0.45145 0.0
C358 C 0.75383 0.39278 0.4713 0.0
C359 C 0.72672 0.42544 0.48593 0.0
C360 C 0.75757 0.318 0.43992 0.0
C361 C 0.79821 0.3325 0.42654 0.0
C362 C 0.7498 0.2669 0.44444 0.0
C363 C 0.70838 0.2489 0.4589 0.0
C364 C 0.7083 0.26222 0.48845 0.0
C365 C 0.66849 0.24572 0.50172 0.0
C366 C 0.62885 0.21556 0.48573 0.0
C367 C 0.62904 0.20169 0.45646 0.0
C368 C 0.66873 0.21815 0.44307 0.0
C369 C 0.95852 0.18453 0.44289 0.0
C370 C 0.94658 0.13719 0.43067 0.0
C371 C 0.91998 0.2207 0.4401 0.0
C372 C 0.86891 0.2102 0.4248 0.0
C373 C 0.85745 0.16301 0.41177 0.0
C374 C 0.89615 0.12665 0.4147 0.0
C375 C 0.82708 0.24689 0.42544 0.0
C376 C 0.78439 0.23202 0.43696 0.0
C377 C 0.83266 0.29757 0.41885 0.0
C378 C 0.8738 0.31476 0.40376 0.0
C379 C 0.88054 0.29136 0.37746 0.0
C380 C 0.91934 0.30748 0.3633 0.0
C381 C 0.95157 0.34712 0.37515 0.0
C382 C 0.94498 0.37081 0.40115 0.0
C383 C 0.90623 0.35484 0.41541 0.0
H384 H 0.98161 0.35954 0.36416 0.0
H385 H 0.59803 0.20287 0.49603 0.0
H386 H 0.47663 0.37841 0.55629 0.0
H387 H 0.42952 0.31731 0.57969 0.0
H388 H 0.28479 0.38901 0.54062 0.0
H389 H 0.3317 0.4509 0.51826 0.0
H390 H 0.28415 0.35771 0.59578 0.0
H391 H 0.33176 0.29019 0.50715 0.0
H392 H 0.39283 0.26389 0.47635 0.0
H393 H 0.46546 0.16282 0.54436 0.0
H394 H 0.40537 0.18923 0.5758 0.0
H395 H 0.08529 0.17917 0.5668 0.0
H396 H 0.15145 0.24336 0.56805 0.0
H397 H 0.27089 0.13919 0.60695 0.0
H398 H 0.20426 0.07458 0.60512 0.0
H399 H 0.29685 0.18378 0.5622 0.0
H400 H 0.24114 0.23951 0.64722 0.0
H401 H 0.18105 0.2641 0.67893 0.0
H402 H 0.12585 0.38516 0.62056 0.0
H403 H 0.18505 0.36087 0.58821 0.0
C404 C 0.43496 0.38191 0.55346 0.0
C405 C 0.40784 0.41954 0.53557 0.0
C406 C 0.40803 0.34671 0.56657 0.0
C407 C 0.35353 0.3482 0.56156 0.0
C408 C 0.32679 0.38709 0.54481 0.0
C409 C 0.35362 0.42226 0.53187 0.0
C410 C 0.32341 0.30755 0.5715 0.0
C411 C 0.28667 0.31968 0.58835 0.0
C412 C 0.32812 0.25758 0.56276 0.0
C413 C 0.36461 0.24222 0.544 0.0
C414 C 0.36113 0.26277 0.51567 0.0
C415 C 0.39551 0.24778 0.49808 0.0
C416 C 0.43315 0.21186 0.50845 0.0
C417 C 0.43643 0.19079 0.53641 0.0
C418 C 0.40226 0.20578 0.55413 0.0
C419 C 0.12564 0.17042 0.57606 0.0
C420 C 0.1401 0.12246 0.58598 0.0
C421 C 0.1634 0.20709 0.57695 0.0
C422 C 0.21622 0.19637 0.58796 0.0
C423 C 0.23042 0.1484 0.5985 0.0
C424 C 0.19252 0.11165 0.59753 0.0
C425 C 0.25642 0.23408 0.58584 0.0
C426 C 0.29488 0.2215 0.57026 0.0
C427 C 0.25351 0.28352 0.59596 0.0
C428 C 0.21726 0.29804 0.61511 0.0
C429 C 0.21579 0.27105 0.64094 0.0
C430 C 0.18198 0.28503 0.65909 0.0
C431 C 0.14957 0.3261 0.65173 0.0
C432 C 0.15096 0.35333 0.62622 0.0
C433 C 0.1847 0.33951 0.60799 0.0
H434 H 0.12343 0.33688 0.66582 0.0
H435 H 0.45967 0.20024 0.49478 0.0
H436 H 0.49454 0.6699 0.53633 0.0
H437 H 0.45327 0.75126 0.53885 0.0
H438 H 0.39792 0.74841 0.4437 0.0
H439 H 0.43834 0.66762 0.44111 0.0
H440 H 0.43824 0.85393 0.50022 0.0
H441 H 0.26952 0.73467 0.44004 0.0
H442 H 0.24427 0.64629 0.43504 0.0
H443 H 0.32772 0.61995 0.52445 0.0
H444 H 0.35259 0.70832 0.53013 0.0
H445 H 0.22418 0.98364 0.41646 0.0
H446 H 0.29918 0.93359 0.43935 0.0
H447 H 0.21718 0.88236 0.50499 0.0
H448 H 0.1414 0.9314 0.48166 0.0
H449 H 0.25154 0.80725 0.47841 0.0
H450 H 0.32673 0.95349 0.52582 0.0
H451 H 0.35389 0.04121 0.5309 0.0
H452 H 0.45682 0.01645 0.47171 0.0
H453 H 0.42972 0.92872 0.46586 0.0
C454 C 0.47556 0.68783 0.51589 0.0
C455 C 0.46891 0.66248 0.48855 0.0
C456 C 0.45216 0.73425 0.51735 0.0
C457 C 0.42224 0.75539 0.49147 0.0
C458 C 0.42087 0.7326 0.46388 0.0
C459 C 0.44374 0.68637 0.46245 0.0
C460 C 0.38309 0.79392 0.49317 0.0
C461 C 0.3974 0.84411 0.49585 0.0
C462 C 0.33002 0.78064 0.48814 0.0
C463 C 0.31318 0.72796 0.48542 0.0
C464 C 0.28208 0.71007 0.4587 0.0
C465 C 0.26791 0.65998 0.45573 0.0
C466 C 0.28449 0.6275 0.47939 0.0
C467 C 0.31501 0.64511 0.50612 0.0
C468 C 0.32916 0.69518 0.50922 0.0
C469 C 0.22229 0.96202 0.43593 0.0
C470 C 0.17664 0.96098 0.44703 0.0
C471 C 0.26549 0.93399 0.44927 0.0
C472 C 0.26402 0.90451 0.47406 0.0
C473 C 0.21929 0.90507 0.48598 0.0
C474 C 0.17605 0.93319 0.47266 0.0
C475 C 0.30606 0.86811 0.48469 0.0
C476 C 0.29223 0.81779 0.48385 0.0
C477 C 0.35934 0.88163 0.4919 0.0
C478 C 0.37592 0.93445 0.49528 0.0
C479 C 0.35486 0.96679 0.51368 0.0
C480 C 0.3703 0.01653 0.51674 0.0
C481 C 0.40701 0.03441 0.50161 0.0
C482 C 0.4284 0.00254 0.48342 0.0
C483 C 0.41306 0.95276 0.48027 0.0
H484 H 0.41892 0.07294 0.50401 0.0
H485 H 0.27364 0.58871 0.47701 0.0
H486 H 0.13059 0.9608 0.13381 0.0
H487 H 0.10734 0.95098 0.18156 0.0
H488 H 0.94709 0.98252 0.1415 0.0
H489 H 0.97095 0.99467 0.09336 0.0
H490 H 0.97639 0.03608 0.1901 0.0
H491 H 0.98297 0.86622 0.17009 0.0
H492 H 0.01482 0.78806 0.15252 0.0
H493 H 0.15458 0.79925 0.22036 0.0
H494 H 0.12406 0.87795 0.23806 0.0
H495 H 0.97157 0.99826 0.34808 0.0
H496 H 0.94948 0.98557 0.29395 0.0
H497 H 0.11186 0.99249 0.29167 0.0
H498 H 0.13416 0.00751 0.3451 0.0
H499 H 0.05178 0.90544 0.26186 0.0
H500 H 0.0457 0.08813 0.27089 0.0
H501 H 0.00882 0.16471 0.28743 0.0
H502 H 0.85695 0.12214 0.23885 0.0
H503 H 0.89292 0.04494 0.22236 0.0
C504 C 0.09018 0.96481 0.13495 0.0
C505 C 0.05256 0.97818 0.10974 0.0
C506 C 0.07678 0.95876 0.16231 0.0
C507 C 0.02525 0.96525 0.16517 0.0
C508 C 0.98703 0.97696 0.13981 0.0
C509 C 1.00059 0.98334 0.11225 0.0
C510 C 0.01362 0.96442 0.19534 0.0
C511 C 0.99145 0.00674 0.20556 0.0
C512 C 0.03269 0.92604 0.21561 0.0
C513 C 0.05113 0.87815 0.20543 0.0
C514 C 0.0206 0.85217 0.18122 0.0
C515 C 0.03844 0.80773 0.17122 0.0
C516 C 0.08668 0.78868 0.18533 0.0
C517 C 0.11716 0.814 0.20949 0.0
C518 C 0.09954 0.8585 0.21957 0.0
C519 C 0.00251 0.99794 0.336 0.0
C520 C 0.05477 0.00337 0.3511 0.0
C521 C 0.9898 0.99024 0.30513 0.0
C522 C 0.02915 0.98743 0.28899 0.0
C523 C 0.08102 0.99378 0.30386 0.0
C524 C 0.09367 0.00217 0.33446 0.0
C525 C 0.01738 0.97805 0.25653 0.0
C526 C 0.0351 0.93376 0.24604 0.0
C527 C 0.99312 0.01398 0.23598 0.0
C528 C 0.97184 0.06054 0.24573 0.0
C529 C 0.00438 0.0949 0.26397 0.0
C530 C 0.98367 0.13846 0.27329 0.0
C531 C 0.93055 0.14821 0.26429 0.0
C532 C 0.89807 0.1145 0.24586 0.0
C533 C 0.91859 0.07086 0.23652 0.0
H534 H 0.91458 0.18194 0.27153 0.0
H535 H 0.10046 0.7543 0.17754 0.0
H536 H 0.9827 0.9323 0.89401 0.0
H537 H 0.01136 0.93275 0.84703 0.0
H538 H 0.14835 0.01539 0.88853 0.0
H539 H 0.11982 0.01496 0.93577 0.0
H540 H 0.09028 0.06233 0.84 0.0
H541 H 0.16698 0.90543 0.86069 0.0
H542 H 0.17595 0.81842 0.87717 0.0
H543 H 0.04639 0.77704 0.80746 0.0
H544 H 0.03667 0.86387 0.79062 0.0
H545 H 0.11734 0.98525 0.67832 0.0
H546 H 0.14482 0.97825 0.73264 0.0
H547 H 1.00104 0.04571 0.74239 0.0
H548 H 0.97355 0.05256 0.68837 0.0
H549 H 0.09377 0.9241 0.76875 0.0
H550 H 0.02313 0.11502 0.80498 0.0
H551 H 0.01961 0.2021 0.78865 0.0
H552 H 0.14706 0.17625 0.74618 0.0
H553 H 0.15192 0.08922 0.76263 0.0
C554 C 0.01959 0.94943 0.89332 0.0
C555 C 0.04889 0.97377 0.91848 0.0
C556 C 0.03611 0.94942 0.86651 0.0
C557 C 0.08197 0.97413 0.86429 0.0
C558 C 0.11288 0.99605 0.88981 0.0
C559 C 0.09662 0.99561 0.91678 0.0
C560 C 0.0928 0.983 0.83449 0.0
C561 C 0.09188 0.03214 0.82452 0.0
C562 C 0.0959 0.94362 0.81449 0.0
C563 C 0.10103 0.89127 0.82452 0.0
C564 C 0.14022 0.87782 0.84905 0.0
C565 C 0.14549 0.82852 0.85841 0.0
C566 C 0.11164 0.79224 0.84346 0.0
C567 C 0.07259 0.80519 0.81903 0.0
C568 C 0.06732 0.85444 0.8095 0.0
C569 C 0.09224 0.99953 0.69218 0.0
C570 C 0.04338 0.01948 0.67927 0.0
C571 C 0.10777 0.9952 0.72311 0.0
C572 C 0.07506 0.01162 0.74151 0.0
C573 C 0.02713 0.03328 0.72862 0.0
C574 C 0.01138 0.03705 0.6978 0.0
C575 C 0.08861 0.0033 0.77405 0.0
C576 C 0.09367 0.9543 0.78443 0.0
C577 C 0.08986 0.04284 0.79453 0.0
C578 C 0.0877 0.09544 0.78494 0.0
C579 C 0.05065 0.12796 0.79233 0.0
C580 C 0.04837 0.17732 0.78301 0.0
C581 C 0.08303 0.19467 0.76635 0.0
C582 C 0.12014 0.16273 0.75902 0.0
C583 C 0.12263 0.11335 0.76831 0.0
H584 H 0.08116 0.23288 0.75913 0.0
H585 H 0.11574 0.75409 0.85077 0.0
H586 H 0.59981 0.40735 0.62488 0.0
H587 H 0.57325 0.405 0.6724 0.0
H588 H 0.43213 0.48258 0.6339 0.0
H589 H 0.45911 0.48634 0.58624 0.0
H590 H 0.55083 0.51197 0.6927 0.0
H591 H 0.35319 0.41753 0.68952 0.0
H592 H 0.30005 0.34754 0.66491 0.0
H593 H 0.43733 0.27432 0.65072 0.0
H594 H 0.49134 0.34315 0.67591 0.0
H595 H 0.49603 0.57417 0.82948 0.0
H596 H 0.47084 0.55963 0.77574 0.0
H597 H 0.50883 0.4046 0.78894 0.0
H598 H 0.5322 0.41852 0.84258 0.0
H599 H 0.43015 0.41667 0.74025 0.0
H600 H 0.60129 0.4853 0.78076 0.0
H601 H 0.66213 0.5472 0.80867 0.0
H602 H 0.59009 0.66139 0.74928 0.0
H603 H 0.52829 0.60018 0.72128 0.0
C604 C 0.56229 0.42245 0.6262 0.0
C605 C 0.53167 0.44723 0.60188 0.0
C606 C 0.54713 0.42094 0.65333 0.0
C607 C 0.5008 0.44356 0.65653 0.0
C608 C 0.46775 0.46441 0.63166 0.0
C609 C 0.48315 0.46634 0.60444 0.0
C610 C 0.49314 0.45409 0.68677 0.0
C611 C 0.52387 0.49162 0.70296 0.0
C612 C 0.45843 0.42704 0.70007 0.0
C613 C 0.42622 0.386 0.68417 0.0
C614 C 0.37201 0.38653 0.6811 0.0
C615 C 0.34175 0.34694 0.66715 0.0
C616 C 0.36534 0.30648 0.65629 0.0
C617 C 0.41913 0.30573 0.6591 0.0
C618 C 0.44957 0.34511 0.67315 0.0
C619 C 0.49733 0.53672 0.82099 0.0
C620 C 0.51726 0.4977 0.84016 0.0
C621 C 0.48305 0.52846 0.79028 0.0
C622 C 0.48893 0.4812 0.77831 0.0
C623 C 0.50416 0.44138 0.79763 0.0
C624 C 0.51816 0.44954 0.82827 0.0
C625 C 0.48795 0.47463 0.74619 0.0
C626 C 0.45592 0.43797 0.72966 0.0
C627 C 0.52241 0.50166 0.73257 0.0
C628 C 0.55984 0.53835 0.74917 0.0
C629 C 0.59824 0.52368 0.77378 0.0
C630 C 0.6329 0.55862 0.78961 0.0
C631 C 0.62988 0.60823 0.78081 0.0
C632 C 0.59229 0.62297 0.75611 0.0
C633 C 0.55744 0.58819 0.74026 0.0
H634 H 0.65675 0.63523 0.79308 0.0
H635 H 0.34204 0.27554 0.64585 0.0
H636 H 0.47527 0.4192 0.39325 0.0
H637 H 0.50152 0.41378 0.34567 0.0
H638 H 0.647 0.48508 0.38441 0.0
H639 H 0.62022 0.49217 0.43211 0.0
H640 H 0.52652 0.5129 0.3228 0.0
H641 H 0.72653 0.41512 0.33067 0.0
H642 H 0.77639 0.34387 0.35509 0.0
H643 H 0.6364 0.27828 0.37065 0.0
H644 H 0.58543 0.34811 0.34538 0.0
H645 H 0.59272 0.56785 0.18902 0.0
H646 H 0.61239 0.55685 0.24294 0.0
H647 H 0.58401 0.39963 0.23077 0.0
H648 H 0.56681 0.41001 0.17698 0.0
H649 H 0.65397 0.41555 0.28105 0.0
H650 H 0.48518 0.47791 0.23439 0.0
H651 H 0.42395 0.53581 0.20374 0.0
H652 H 0.48492 0.65582 0.26289 0.0
H653 H 0.5471 0.59867 0.29365 0.0
C654 C 0.51345 0.43255 0.3919 0.0
C655 C 0.54569 0.45613 0.41638 0.0
C656 C 0.52844 0.42924 0.36475 0.0
C657 C 0.57618 0.44889 0.36165 0.0
C658 C 0.61028 0.46915 0.38655 0.0
C659 C 0.59499 0.47303 0.41377 0.0
C660 C 0.58532 0.45627 0.33147 0.0
C661 C 0.55493 0.49207 0.31382 0.0
C662 C 0.62162 0.42828 0.31971 0.0
C663 C 0.65223 0.38751 0.33657 0.0
C664 C 0.70638 0.38562 0.33941 0.0
C665 C 0.7348 0.34527 0.35322 0.0
C666 C 0.70952 0.30652 0.36434 0.0
C667 C 0.65589 0.30834 0.36201 0.0
C668 C 0.62722 0.34841 0.348 0.0
C669 C 0.59259 0.5307 0.19781 0.0
C670 C 0.57698 0.48994 0.17876 0.0
C671 C 0.60355 0.52449 0.22865 0.0
C672 C 0.59833 0.4776 0.24087 0.0
C673 C 0.58789 0.43621 0.22189 0.0
C674 C 0.57746 0.44231 0.19112 0.0
C675 C 0.59555 0.4726 0.27255 0.0
C676 C 0.62676 0.43735 0.29042 0.0
C677 C 0.55871 0.49984 0.2844 0.0
C678 C 0.52117 0.5342 0.26609 0.0
C679 C 0.48575 0.51672 0.24073 0.0
C680 C 0.45087 0.54938 0.22336 0.0
C681 C 0.45066 0.5995 0.23131 0.0
C682 C 0.48523 0.61702 0.25671 0.0
C683 C 0.5203 0.58452 0.27412 0.0
H684 H 0.4236 0.62473 0.21784 0.0
H685 H 0.73145 0.27499 0.37466 0.0
loop_
_geom_bond_atom_site_label_1
_geom_bond_atom_site_label_2
_geom_bond_distance
_geom_bond_site_symmetry_2
_ccdc_geom_bond_type
Zn0 O6 1.920 1_545 S
Zn0 O12 1.898 . S
Zn0 O15 1.905 1_545 S
Zn1 O9 1.905 . S
Zn1 O10 1.898 1_545 S
Zn1 O18 1.920 1_545 S
Zn2 O5 2.080 1_445 S
Zn2 O8 2.114 . S
Zn2 O11 2.120 1_545 S
Zn2 O13 2.120 1_455 S
Zn2 O14 2.114 1_554 S
Zn2 O17 2.080 . S
C3 O8 1.166 . S
C3 O9 1.182 . S
C4 O10 1.167 . S
C4 O11 1.299 . S
O5 Zn2 2.080 1_665 S
O5 C19 1.305 . S
O6 Zn0 1.920 1_565 S
O6 C19 1.234 1_556 S
C7 O12 1.167 . S
C7 O13 1.299 1_556 S
O8 Zn2 2.114 . S
O8 C3 1.166 . S
O9 Zn1 1.905 . S
O9 C3 1.182 . S
O10 Zn1 1.898 1_565 S
O10 C4 1.167 . S
O11 Zn2 2.120 1_565 S
O11 C4 1.299 . S
O12 Zn0 1.898 . S
O12 C7 1.167 . S
O13 Zn2 2.120 1_655 S
O13 C7 1.299 1_554 S
O14 Zn2 2.114 1_556 S
O14 C16 1.166 1_545 S
O15 Zn0 1.905 1_565 S
O15 C16 1.182 1_655 S
C16 O14 1.166 1_565 S
C16 O15 1.182 1_455 S
O17 Zn2 2.080 . S
O17 C20 1.305 1_545 S
O18 Zn1 1.920 1_565 S
O18 C20 1.234 . S
C19 O5 1.305 . S
C19 O6 1.234 1_554 S
C20 O17 1.305 1_565 S
C20 O18 1.234 . S
Zn21 O27 1.920 . S
Zn21 O33 1.898 . S
Zn21 O36 1.905 . S
Zn22 O30 1.905 . S
Zn22 O31 1.898 . S
Zn22 O39 1.920 . S
Zn23 O26 2.080 . S
Zn23 O29 2.114 . S
Zn23 O32 2.120 . S
Zn23 O34 2.120 . S
Zn23 O35 2.114 . S
Zn23 O38 2.080 . S
C24 O29 1.166 . S
C24 O30 1.182 . S
C25 O31 1.167 . S
C25 O32 1.299 . S
O26 Zn23 2.080 . S
O26 C40 1.305 . S
O27 Zn21 1.920 . S
O27 C40 1.234 . S
C28 O33 1.167 . S
C28 O34 1.299 . S
O29 Zn23 2.114 . S
O29 C24 1.166 . S
O30 Zn22 1.905 . S
O30 C24 1.182 . S
O31 Zn22 1.898 . S
O31 C25 1.167 . S
O32 Zn23 2.120 . S
O32 C25 1.299 . S
O33 Zn21 1.898 . S
O33 C28 1.167 . S
O34 Zn23 2.120 . S
O34 C28 1.299 . S
O35 Zn23 2.114 . S
O35 C37 1.166 . S
O36 Zn21 1.905 . S
O36 C37 1.182 . S
C37 O35 1.166 . S
C37 O36 1.182 . S
O38 Zn23 2.080 . S
O38 C41 1.305 . S
O39 Zn22 1.920 . S
O39 C41 1.234 . S
C40 O26 1.305 . S
C40 O27 1.234 . S
C41 O38 1.305 . S
C41 O39 1.234 . S
H42 C45 0.929 1_565 S
H43 C48 0.929 . S
H44 C50 0.930 . S
C45 H42 0.929 1_545 S
C45 C46 1.398 1_545 S
C45 C47 1.396 . S
C46 C45 1.398 1_565 S
C46 C50 1.407 1_565 S
C47 C45 1.396 . S
C47 C48 1.394 . S
C48 H43 0.929 . S
C48 C47 1.394 . S
C48 C49 1.382 . S
C49 C48 1.382 . S
C49 C50 1.392 . S
C49 N51 1.420 . S
C50 H44 0.930 . S
C50 C46 1.407 1_545 S
C50 C49 1.392 . S
N51 C49 1.420 . S
N51 C52 1.244 . S
C52 N51 1.244 . S
H53 C56 0.929 . S
H54 C59 0.929 . S
H55 C61 0.933 . S
C56 H53 0.929 . S
C56 C57 1.398 . S
C56 C58 1.396 1_565 S
C57 C56 1.398 . S
C57 C61 1.407 1_565 S
C58 C56 1.396 1_545 S
C58 C59 1.394 1_655 S
C59 H54 0.929 . S
C59 C58 1.394 1_455 S
C59 C60 1.382 . S
C60 C59 1.382 . S
C60 C61 1.392 1_455 S
C60 N62 1.420 . S
C61 H55 0.933 . S
C61 C57 1.407 1_545 S
C61 C60 1.392 1_655 S
N62 C60 1.420 . S
N62 C63 1.244 . S
C63 N62 1.244 . S
H64 C67 0.929 . S
H65 C70 0.929 . S
H66 C72 0.930 . S
C67 H64 0.929 . S
C67 C68 1.398 . S
C67 C69 1.396 . S
C68 C67 1.398 . S
C68 C72 1.407 . S
C69 C67 1.396 . S
C69 C70 1.394 . S
C70 H65 0.929 . S
C70 C69 1.394 . S
C70 C71 1.382 . S
C71 C70 1.382 . S
C71 C72 1.392 . S
C71 N73 1.420 . S
C72 H66 0.930 . S
C72 C68 1.407 . S
C72 C71 1.392 . S
N73 C71 1.420 . S
N73 C74 1.244 . S
C74 N73 1.244 . S
H75 C78 0.929 . S
H76 C81 0.929 . S
H77 C83 0.930 . S
C78 H75 0.929 . S
C78 C79 1.398 . S
C78 C80 1.396 . S
C79 C78 1.398 . S
C79 C83 1.407 . S
C80 C78 1.396 . S
C80 C81 1.394 . S
C81 H76 0.929 . S
C81 C80 1.394 . S
C81 C82 1.382 . S
C82 C81 1.382 . S
C82 C83 1.392 . S
C82 N84 1.420 . S
C83 H77 0.930 . S
C83 C79 1.407 . S
C83 C82 1.392 . S
N84 C82 1.420 . S
N84 C85 1.244 . S
C85 N84 1.244 . S
H86 C104 0.951 . S
H87 C106 0.951 . S
H88 C108 0.950 . S
H89 C109 0.950 . S
H90 C111 0.950 . S
H91 C114 0.950 . S
H92 C115 0.950 . S
H93 C117 0.950 . S
H94 C118 0.950 . S
H95 C119 0.951 . S
H96 C121 0.951 . S
H97 C123 0.950 . S
H98 C124 0.950 . S
H99 C126 0.950 . S
H100 C129 0.950 1_554 S
H101 C130 0.950 . S
H102 C132 0.950 . S
H103 C133 0.950 . S
C104 H86 0.951 . S
C104 C105 1.366 . S
C104 C106 1.388 . S
C105 C104 1.366 . S
C105 C109 1.385 . S
C106 H87 0.951 . S
C106 C104 1.388 . S
C106 C107 1.366 . S
C107 C106 1.366 . S
C107 C108 1.414 . S
C107 C110 1.499 . S
C108 H88 0.950 . S
C108 C107 1.414 . S
C108 C109 1.374 . S
C109 H89 0.950 . S
C109 C105 1.385 . S
C109 C108 1.374 . S
C110 C107 1.499 . S
C110 C111 1.373 . S
C110 C112 1.389 . S
C111 H90 0.950 . S
C111 C110 1.373 . S
C111 C127 1.377 . S
C112 C110 1.389 . S
C112 C113 1.524 . S
C112 C126 1.377 . S
C113 C112 1.524 . S
C113 C114 1.397 . S
C113 C118 1.363 . S
C114 H91 0.950 . S
C114 C113 1.397 . S
C114 C115 1.334 . S
C115 H92 0.950 . S
C115 C114 1.334 . S
C115 C116 1.287 . S
C116 C115 1.287 . S
C116 C117 1.524 . S
C116 H135 0.913 . S
C117 H93 0.950 . S
C117 C116 1.524 . S
C117 C118 1.415 . S
C118 H94 0.950 . S
C118 C113 1.363 . S
C118 C117 1.415 . S
C119 H95 0.951 . S
C119 C120 1.366 . S
C119 C121 1.388 . S
C120 C119 1.366 . S
C120 C124 1.385 . S
C121 H96 0.951 . S
C121 C119 1.388 . S
C121 C122 1.366 . S
C122 C121 1.366 . S
C122 C123 1.414 . S
C122 C125 1.499 . S
C123 H97 0.950 . S
C123 C122 1.414 . S
C123 C124 1.374 . S
C124 H98 0.950 . S
C124 C120 1.385 . S
C124 C123 1.374 . S
C125 C122 1.499 . S
C125 C126 1.373 . S
C125 C127 1.389 . S
C126 H99 0.950 . S
C126 C112 1.377 . S
C126 C125 1.373 . S
C127 C111 1.377 . S
C127 C125 1.389 . S
C127 C128 1.524 . S
C128 C127 1.524 . S
C128 C129 1.397 1_554 S
C128 C133 1.363 . S
C129 H100 0.950 1_556 S
C129 C128 1.397 1_556 S
C129 C130 1.334 . S
C130 H101 0.950 . S
C130 C129 1.334 . S
C130 C131 1.287 . S
C131 C130 1.287 . S
C131 C132 1.524 . S
C131 H134 0.999 . S
C132 H102 0.950 . S
C132 C131 1.524 . S
C132 C133 1.415 1_556 S
C133 H103 0.950 . S
C133 C128 1.363 . S
C133 C132 1.415 1_554 S
H134 C131 0.999 . S
H135 C116 0.913 . S
H136 C154 0.951 . S
H137 C156 0.951 . S
H138 C158 0.950 . S
H139 C159 0.950 . S
H140 C161 0.950 . S
H141 C164 0.950 . S
H142 C165 0.950 . S
H143 C167 0.950 . S
H144 C168 0.950 . S
H145 C169 0.951 . S
H146 C171 0.951 . S
H147 C173 0.950 1_554 S
H148 C174 0.950 . S
H149 C176 0.950 . S
H150 C179 0.950 . S
H151 C180 0.950 . S
H152 C182 0.950 . S
H153 C183 0.950 . S
C154 H136 0.951 . S
C154 C155 1.370 . S
C154 C156 1.388 . S
C155 C154 1.370 . S
C155 C159 1.378 1_554 S
C156 H137 0.951 . S
C156 C154 1.388 . S
C156 C157 1.366 1_554 S
C157 C156 1.366 1_556 S
C157 C158 1.414 . S
C157 C160 1.499 . S
C158 H138 0.950 . S
C158 C157 1.414 . S
C158 C159 1.374 . S
C159 H139 0.950 . S
C159 C155 1.378 1_556 S
C159 C158 1.374 . S
C160 C157 1.499 . S
C160 C161 1.373 . S
C160 C162 1.389 . S
C161 H140 0.950 . S
C161 C160 1.373 . S
C161 C177 1.377 . S
C162 C160 1.389 . S
C162 C163 1.524 1_556 S
C162 C176 1.377 . S
C163 C162 1.524 1_554 S
C163 C164 1.397 1_554 S
C163 C168 1.363 . S
C164 H141 0.950 . S
C164 C163 1.397 1_556 S
C164 C165 1.334 . S
C165 H142 0.950 . S
C165 C164 1.334 . S
C165 C166 1.287 1_556 S
C166 C165 1.287 1_554 S
C166 C167 1.524 . S
C166 H185 0.913 . S
C167 H143 0.950 . S
C167 C166 1.524 . S
C167 C168 1.415 . S
C168 H144 0.950 . S
C168 C163 1.363 . S
C168 C167 1.415 . S
C169 H145 0.951 . S
C169 C170 1.366 . S
C169 C171 1.388 . S
C170 C169 1.366 . S
C170 C174 1.385 . S
C171 H146 0.951 . S
C171 C169 1.388 . S
C171 C172 1.366 . S
C172 C171 1.366 . S
C172 C173 1.414 . S
C172 C175 1.499 . S
C173 H147 0.950 1_556 S
C173 C172 1.414 . S
C173 C174 1.374 . S
C174 H148 0.950 . S
C174 C170 1.385 . S
C174 C173 1.374 . S
C175 C172 1.499 . S
C175 C176 1.373 . S
C175 C177 1.389 . S
C176 H149 0.950 . S
C176 C162 1.377 . S
C176 C175 1.373 . S
C177 C161 1.377 . S
C177 C175 1.389 . S
C177 C178 1.524 . S
C178 C177 1.524 . S
C178 C179 1.397 . S
C178 C183 1.363 . S
C179 H150 0.950 . S
C179 C178 1.397 . S
C179 C180 1.334 . S
C180 H151 0.950 . S
C180 C179 1.334 . S
C180 C181 1.287 . S
C181 C180 1.287 . S
C181 C182 1.524 . S
C181 H184 0.999 . S
C182 H152 0.950 . S
C182 C181 1.524 . S
C182 C183 1.415 . S
C183 H153 0.950 . S
C183 C178 1.363 . S
C183 C182 1.415 . S
H184 C181 0.999 . S
H185 C166 0.913 . S
H186 C204 0.951 . S
H187 C206 0.951 . S
H188 C208 0.950 . S
H189 C209 0.950 . S
H190 C211 0.950 . S
H191 C214 0.950 . S
H192 C215 0.950 . S
H193 C217 0.950 . S
H194 C218 0.950 1_554 S
H195 C219 0.951 . S
H196 C221 0.951 . S
H197 C223 0.950 . S
H198 C224 0.950 . S
H199 C226 0.950 . S
H200 C229 0.950 . S
H201 C230 0.950 . S
H202 C232 0.950 . S
H203 C233 0.950 . S
C204 H186 0.951 . S
C204 C205 1.366 . S
C204 C206 1.388 . S
C205 C204 1.366 . S
C205 C209 1.385 . S
C206 H187 0.951 . S
C206 C204 1.388 . S
C206 C207 1.366 . S
C207 C206 1.366 . S
C207 C208 1.414 . S
C207 C210 1.499 . S
C208 H188 0.950 . S
C208 C207 1.414 . S
C208 C209 1.374 . S
C209 H189 0.950 . S
C209 C205 1.385 . S
C209 C208 1.374 . S
C210 C207 1.499 . S
C210 C211 1.373 . S
C210 C212 1.389 . S
C211 H190 0.950 . S
C211 C210 1.373 . S
C211 C227 1.377 . S
C212 C210 1.389 . S
C212 C213 1.524 1_554 S
C212 C226 1.377 . S
C213 C212 1.524 1_556 S
C213 C214 1.397 . S
C213 C218 1.363 . S
C214 H191 0.950 . S
C214 C213 1.397 . S
C214 C215 1.334 . S
C215 H192 0.950 . S
C215 C214 1.334 . S
C215 C216 1.287 . S
C216 C215 1.287 . S
C216 C217 1.524 . S
C216 H235 0.913 . S
C217 H193 0.950 . S
C217 C216 1.524 . S
C217 C218 1.415 . S
C218 H194 0.950 1_556 S
C218 C213 1.363 . S
C218 C217 1.415 . S
C219 H195 0.951 . S
C219 C220 1.366 . S
C219 C221 1.388 . S
C220 C219 1.366 . S
C220 C224 1.385 . S
C221 H196 0.951 . S
C221 C219 1.388 . S
C221 C222 1.366 . S
C222 C221 1.366 . S
C222 C223 1.414 . S
C222 C225 1.499 . S
C223 H197 0.950 . S
C223 C222 1.414 . S
C223 C224 1.374 . S
C224 H198 0.950 . S
C224 C220 1.385 . S
C224 C223 1.374 . S
C225 C222 1.499 . S
C225 C226 1.373 . S
C225 C227 1.389 . S
C226 H199 0.950 . S
C226 C212 1.377 . S
C226 C225 1.373 . S
C227 C211 1.377 . S
C227 C225 1.389 . S
C227 C228 1.524 . S
C228 C227 1.524 . S
C228 C229 1.397 . S
C228 C233 1.363 . S
C229 H200 0.950 . S
C229 C228 1.397 . S
C229 C230 1.334 . S
C230 H201 0.950 . S
C230 C229 1.334 . S
C230 C231 1.287 . S
C231 C230 1.287 . S
C231 C232 1.524 . S
C231 H234 0.999 . S
C232 H202 0.950 . S
C232 C231 1.524 . S
C232 C233 1.415 . S
C233 H203 0.950 . S
C233 C228 1.363 . S
C233 C232 1.415 . S
H234 C231 0.999 . S
H235 C216 0.913 . S
H236 C254 0.951 . S
H237 C256 0.951 . S
H238 C258 0.950 1_554 S
H239 C259 0.950 . S
H240 C261 0.950 1_554 S
H241 C264 0.950 . S
H242 C265 0.950 . S
H243 C267 0.950 . S
H244 C268 0.950 . S
H245 C269 0.951 . S
H246 C271 0.951 . S
H247 C273 0.950 . S
H248 C274 0.950 . S
H249 C276 0.950 . S
H250 C279 0.950 . S
H251 C280 0.950 . S
H252 C282 0.950 . S
H253 C283 0.950 . S
C254 H236 0.951 . S
C254 C255 1.366 . S
C254 C256 1.388 . S
C255 C254 1.366 . S
C255 C259 1.385 1_556 S
C256 H237 0.951 . S
C256 C254 1.388 . S
C256 C257 1.366 . S
C257 C256 1.366 . S
C257 C258 1.414 . S
C257 C260 1.499 . S
C258 H238 0.950 1_556 S
C258 C257 1.414 . S
C258 C259 1.374 1_556 S
C259 H239 0.950 . S
C259 C255 1.385 1_554 S
C259 C258 1.374 1_554 S
C260 C257 1.499 . S
C260 C261 1.373 . S
C260 C262 1.389 . S
C261 H240 0.950 1_556 S
C261 C260 1.373 . S
C261 C277 1.377 . S
C262 C260 1.389 . S
C262 C263 1.524 . S
C262 C276 1.377 . S
C263 C262 1.524 . S
C263 C264 1.397 . S
C263 C268 1.363 . S
C264 H241 0.950 . S
C264 C263 1.397 . S
C264 C265 1.334 . S
C265 H242 0.950 . S
C265 C264 1.334 . S
C265 C266 1.287 . S
C266 C265 1.287 . S
C266 C267 1.524 . S
C266 H285 0.913 . S
C267 H243 0.950 . S
C267 C266 1.524 . S
C267 C268 1.415 . S
C268 H244 0.950 . S
C268 C263 1.363 . S
C268 C267 1.415 . S
C269 H245 0.951 . S
C269 C270 1.366 . S
C269 C271 1.388 . S
C270 C269 1.366 . S
C270 C274 1.385 . S
C271 H246 0.951 . S
C271 C269 1.388 . S
C271 C272 1.366 . S
C272 C271 1.366 . S
C272 C273 1.414 . S
C272 C275 1.499 . S
C273 H247 0.950 . S
C273 C272 1.414 . S
C273 C274 1.374 . S
C274 H248 0.950 . S
C274 C270 1.385 . S
C274 C273 1.374 . S
C275 C272 1.499 . S
C275 C276 1.373 . S
C275 C277 1.389 . S
C276 H249 0.950 . S
C276 C262 1.377 . S
C276 C275 1.373 . S
C277 C261 1.377 . S
C277 C275 1.389 . S
C277 C278 1.524 1_556 S
C278 C277 1.524 1_554 S
C278 C279 1.397 . S
C278 C283 1.363 . S
C279 H250 0.950 . S
C279 C278 1.397 . S
C279 C280 1.334 . S
C280 H251 0.950 . S
C280 C279 1.334 . S
C280 C281 1.287 . S
C281 C280 1.287 . S
C281 C282 1.524 . S
C281 H284 0.999 . S
C282 H252 0.950 . S
C282 C281 1.524 . S
C282 C283 1.415 . S
C283 H253 0.950 . S
C283 C278 1.363 . S
C283 C282 1.415 . S
H284 C281 0.999 . S
H285 C266 0.913 . S
H286 C304 0.951 . S
H287 C306 0.951 . S
H288 C308 0.950 . S
H289 C309 0.950 . S
H290 C311 0.950 . S
H291 C314 0.950 . S
H292 C315 0.950 . S
H293 C317 0.950 . S
H294 C318 0.950 . S
H295 C319 0.951 . S
H296 C321 0.951 . S
H297 C323 0.950 . S
H298 C324 0.950 . S
H299 C326 0.950 . S
H300 C329 0.950 . S
H301 C330 0.950 . S
H302 C332 0.950 . S
H303 C333 0.950 . S
C304 H286 0.951 . S
C304 C305 1.366 . S
C304 C306 1.388 . S
C305 C304 1.366 . S
C305 C309 1.385 . S
C306 H287 0.951 . S
C306 C304 1.388 . S
C306 C307 1.366 . S
C307 C306 1.366 . S
C307 C308 1.414 . S
C307 C310 1.499 . S
C308 H288 0.950 . S
C308 C307 1.414 . S
C308 C309 1.374 . S
C309 H289 0.950 . S
C309 C305 1.385 . S
C309 C308 1.374 . S
C310 C307 1.499 . S
C310 C311 1.373 . S
C310 C312 1.389 . S
C311 H290 0.950 . S
C311 C310 1.373 . S
C311 C327 1.377 . S
C312 C310 1.389 . S
C312 C313 1.524 . S
C312 C326 1.377 . S
C313 C312 1.524 . S
C313 C314 1.397 . S
C313 C318 1.363 . S
C314 H291 0.950 . S
C314 C313 1.397 . S
C314 C315 1.334 . S
C315 H292 0.950 . S
C315 C314 1.334 . S
C315 C316 1.287 . S
C316 C315 1.287 . S
C316 C317 1.524 . S
C316 H335 0.913 . S
C317 H293 0.950 . S
C317 C316 1.524 . S
C317 C318 1.415 . S
C318 H294 0.950 . S
C318 C313 1.363 . S
C318 C317 1.415 . S
C319 H295 0.951 . S
C319 C320 1.366 . S
C319 C321 1.388 . S
C320 C319 1.366 . S
C320 C324 1.385 . S
C321 H296 0.951 . S
C321 C319 1.388 . S
C321 C322 1.366 . S
C322 C321 1.366 . S
C322 C323 1.414 . S
C322 C325 1.499 . S
C323 H297 0.950 . S
C323 C322 1.414 . S
C323 C324 1.374 . S
C324 H298 0.950 . S
C324 C320 1.385 . S
C324 C323 1.374 . S
C325 C322 1.499 . S
C325 C326 1.373 . S
C325 C327 1.389 . S
C326 H299 0.950 . S
C326 C312 1.377 . S
C326 C325 1.373 . S
C327 C311 1.377 . S
C327 C325 1.389 . S
C327 C328 1.524 . S
C328 C327 1.524 . S
C328 C329 1.397 . S
C328 C333 1.363 . S
C329 H300 0.950 . S
C329 C328 1.397 . S
C329 C330 1.334 . S
C330 H301 0.950 . S
C330 C329 1.334 . S
C330 C331 1.287 . S
C331 C330 1.287 . S
C331 C332 1.524 . S
C331 H334 0.999 . S
C332 H302 0.950 . S
C332 C331 1.524 . S
C332 C333 1.415 . S
C333 H303 0.950 . S
C333 C328 1.363 . S
C333 C332 1.415 . S
H334 C331 0.999 . S
H335 C316 0.913 . S
H336 C354 0.951 . S
H337 C356 0.951 . S
H338 C358 0.950 . S
H339 C359 0.950 . S
H340 C361 0.950 . S
H341 C364 0.950 . S
H342 C365 0.950 . S
H343 C367 0.950 . S
H344 C368 0.950 . S
H345 C369 0.951 1_455 S
H346 C371 0.951 . S
H347 C373 0.950 . S
H348 C374 0.950 . S
H349 C376 0.950 . S
H350 C379 0.950 . S
H351 C380 0.950 1_455 S
H352 C382 0.948 1_455 S
H353 C383 0.950 . S
C354 H336 0.951 . S
C354 C355 1.366 . S
C354 C356 1.388 . S
C355 C354 1.366 . S
C355 C359 1.385 . S
C356 H337 0.951 . S
C356 C354 1.388 . S
C356 C357 1.366 . S
C357 C356 1.366 . S
C357 C358 1.414 . S
C357 C360 1.499 . S
C358 H338 0.950 . S
C358 C357 1.414 . S
C358 C359 1.374 . S
C359 H339 0.950 . S
C359 C355 1.385 . S
C359 C358 1.374 . S
C360 C357 1.499 . S
C360 C361 1.373 . S
C360 C362 1.389 . S
C361 H340 0.950 . S
C361 C360 1.373 . S
C361 C377 1.377 . S
C362 C360 1.389 . S
C362 C363 1.524 . S
C362 C376 1.377 . S
C363 C362 1.524 . S
C363 C364 1.397 . S
C363 C368 1.363 . S
C364 H341 0.950 . S
C364 C363 1.397 . S
C364 C365 1.334 . S
C365 H342 0.950 . S
C365 C364 1.334 . S
C365 C366 1.287 . S
C366 C365 1.287 . S
C366 C367 1.524 . S
C366 H385 0.913 . S
C367 H343 0.950 . S
C367 C366 1.524 . S
C367 C368 1.415 . S
C368 H344 0.950 . S
C368 C363 1.363 . S
C368 C367 1.415 . S
C369 H345 0.951 1_655 S
C369 C370 1.366 . S
C369 C371 1.388 . S
C370 C369 1.366 . S
C370 C374 1.385 . S
C371 H346 0.951 . S
C371 C369 1.388 . S
C371 C372 1.366 . S
C372 C371 1.366 . S
C372 C373 1.414 . S
C372 C375 1.499 . S
C373 H347 0.950 . S
C373 C372 1.414 . S
C373 C374 1.374 . S
C374 H348 0.950 . S
C374 C370 1.385 . S
C374 C373 1.374 . S
C375 C372 1.499 . S
C375 C376 1.373 . S
C375 C377 1.389 . S
C376 H349 0.950 . S
C376 C362 1.377 . S
C376 C375 1.373 . S
C377 C361 1.377 . S
C377 C375 1.389 . S
C377 C378 1.524 . S
C378 C377 1.524 . S
C378 C379 1.397 . S
C378 C383 1.363 . S
C379 H350 0.950 . S
C379 C378 1.397 . S
C379 C380 1.334 . S
C380 H351 0.950 1_655 S
C380 C379 1.334 . S
C380 C381 1.287 1_655 S
C381 C380 1.287 1_455 S
C381 C382 1.521 1_455 S
C381 H384 0.999 . S
C382 H352 0.948 1_655 S
C382 C381 1.521 1_655 S
C382 C383 1.419 . S
C383 H353 0.950 . S
C383 C378 1.363 . S
C383 C382 1.419 . S
H384 C381 0.999 . S
H385 C366 0.913 . S
H386 C404 0.951 . S
H387 C406 0.951 . S
H388 C408 0.950 . S
H389 C409 0.950 . S
H390 C411 0.950 . S
H391 C414 0.950 . S
H392 C415 0.950 . S
H393 C417 0.950 . S
H394 C418 0.950 . S
H395 C419 0.951 . S
H396 C421 0.951 . S
H397 C423 0.950 . S
H398 C424 0.950 . S
H399 C426 0.950 . S
H400 C429 0.950 . S
H401 C430 0.950 . S
H402 C432 0.950 . S
H403 C433 0.950 . S
C404 H386 0.951 . S
C404 C405 1.366 . S
C404 C406 1.388 . S
C405 C404 1.366 . S
C405 C409 1.385 . S
C406 H387 0.951 . S
C406 C404 1.388 . S
C406 C407 1.366 . S
C407 C406 1.366 . S
C407 C408 1.414 . S
C407 C410 1.499 . S
C408 H388 0.950 . S
C408 C407 1.414 . S
C408 C409 1.374 . S
C409 H389 0.950 . S
C409 C405 1.385 . S
C409 C408 1.374 . S
C410 C407 1.499 . S
C410 C411 1.373 . S
C410 C412 1.389 . S
C411 H390 0.950 . S
C411 C410 1.373 . S
C411 C427 1.377 . S
C412 C410 1.389 . S
C412 C413 1.524 . S
C412 C426 1.377 . S
C413 C412 1.524 . S
C413 C414 1.397 . S
C413 C418 1.363 . S
C414 H391 0.950 . S
C414 C413 1.397 . S
C414 C415 1.334 . S
C415 H392 0.950 . S
C415 C414 1.334 . S
C415 C416 1.287 . S
C416 C415 1.287 . S
C416 C417 1.524 . S
C416 H435 0.913 . S
C417 H393 0.950 . S
C417 C416 1.524 . S
C417 C418 1.415 . S
C418 H394 0.950 . S
C418 C413 1.363 . S
C418 C417 1.415 . S
C419 H395 0.951 . S
C419 C420 1.366 . S
C419 C421 1.388 . S
C420 C419 1.366 . S
C420 C424 1.385 . S
C421 H396 0.951 . S
C421 C419 1.388 . S
C421 C422 1.366 . S
C422 C421 1.366 . S
C422 C423 1.414 . S
C422 C425 1.499 . S
C423 H397 0.950 . S
C423 C422 1.414 . S
C423 C424 1.374 . S
C424 H398 0.950 . S
C424 C420 1.385 . S
C424 C423 1.374 . S
C425 C422 1.499 . S
C425 C426 1.373 . S
C425 C427 1.389 . S
C426 H399 0.950 . S
C426 C412 1.377 . S
C426 C425 1.373 . S
C427 C411 1.377 . S
C427 C425 1.389 . S
C427 C428 1.524 . S
C428 C427 1.524 . S
C428 C429 1.397 . S
C428 C433 1.363 . S
C429 H400 0.950 . S
C429 C428 1.397 . S
C429 C430 1.334 . S
C430 H401 0.950 . S
C430 C429 1.334 . S
C430 C431 1.287 . S
C431 C430 1.287 . S
C431 C432 1.524 . S
C431 H434 0.999 . S
C432 H402 0.950 . S
C432 C431 1.524 . S
C432 C433 1.415 . S
C433 H403 0.950 . S
C433 C428 1.363 . S
C433 C432 1.415 . S
H434 C431 0.999 . S
H435 C416 0.913 . S
H436 C454 0.951 . S
H437 C456 0.951 . S
H438 C458 0.950 . S
H439 C459 0.950 . S
H440 C461 0.950 . S
H441 C464 0.950 . S
H442 C465 0.950 . S
H443 C467 0.950 . S
H444 C468 0.950 . S
H445 C469 0.951 . S
H446 C471 0.951 . S
H447 C473 0.950 . S
H448 C474 0.950 . S
H449 C476 0.950 . S
H450 C479 0.950 . S
H451 C480 0.950 . S
H452 C482 0.950 . S
H453 C483 0.950 . S
C454 H436 0.951 . S
C454 C455 1.366 . S
C454 C456 1.388 . S
C455 C454 1.366 . S
C455 C459 1.385 . S
C456 H437 0.951 . S
C456 C454 1.388 . S
C456 C457 1.366 . S
C457 C456 1.366 . S
C457 C458 1.414 . S
C457 C460 1.499 . S
C458 H438 0.950 . S
C458 C457 1.414 . S
C458 C459 1.374 . S
C459 H439 0.950 . S
C459 C455 1.385 . S
C459 C458 1.374 . S
C460 C457 1.499 . S
C460 C461 1.373 . S
C460 C462 1.389 . S
C461 H440 0.950 . S
C461 C460 1.373 . S
C461 C477 1.377 . S
C462 C460 1.389 . S
C462 C463 1.524 . S
C462 C476 1.377 . S
C463 C462 1.524 . S
C463 C464 1.397 . S
C463 C468 1.363 . S
C464 H441 0.950 . S
C464 C463 1.397 . S
C464 C465 1.334 . S
C465 H442 0.950 . S
C465 C464 1.334 . S
C465 C466 1.287 . S
C466 C465 1.287 . S
C466 C467 1.524 . S
C466 H485 0.913 . S
C467 H443 0.950 . S
C467 C466 1.524 . S
C467 C468 1.415 . S
C468 H444 0.950 . S
C468 C463 1.363 . S
C468 C467 1.415 . S
C469 H445 0.951 . S
C469 C470 1.366 . S
C469 C471 1.388 . S
C470 C469 1.366 . S
C470 C474 1.385 . S
C471 H446 0.951 . S
C471 C469 1.388 . S
C471 C472 1.366 . S
C472 C471 1.366 . S
C472 C473 1.414 . S
C472 C475 1.499 . S
C473 H447 0.950 . S
C473 C472 1.414 . S
C473 C474 1.374 . S
C474 H448 0.950 . S
C474 C470 1.385 . S
C474 C473 1.374 . S
C475 C472 1.499 . S
C475 C476 1.373 . S
C475 C477 1.389 . S
C476 H449 0.950 . S
C476 C462 1.377 . S
C476 C475 1.373 . S
C477 C461 1.377 . S
C477 C475 1.389 . S
C477 C478 1.524 . S
C478 C477 1.524 . S
C478 C479 1.397 . S
C478 C483 1.363 . S
C479 H450 0.950 . S
C479 C478 1.397 . S
C479 C480 1.334 . S
C480 H451 0.950 . S
C480 C479 1.334 . S
C480 C481 1.287 . S
C481 C480 1.287 . S
C481 C482 1.524 . S
C481 H484 0.999 . S
C482 H452 0.950 . S
C482 C481 1.524 . S
C482 C483 1.415 . S
C483 H453 0.950 . S
C483 C478 1.363 . S
C483 C482 1.415 . S
H484 C481 0.999 . S
H485 C466 0.913 . S
H486 C504 0.951 . S
H487 C506 0.951 . S
H488 C508 0.950 . S
H489 C509 0.950 1_655 S
H490 C511 0.950 1_655 S
H491 C514 0.950 . S
H492 C515 0.950 . S
H493 C517 0.950 . S
H494 C518 0.950 . S
H495 C519 0.951 1_565 S
H496 C521 0.951 1_565 S
H497 C523 0.950 . S
H498 C524 0.950 . S
H499 C526 0.950 . S
H500 C529 0.950 1_455 S
H501 C530 0.950 . S
H502 C532 0.950 . S
H503 C533 0.950 1_565 S
C504 H486 0.951 . S
C504 C505 1.366 1_545 S
C504 C506 1.388 . S
C505 C504 1.366 1_565 S
C505 C509 1.385 . S
C506 H487 0.951 . S
C506 C504 1.388 . S
C506 C507 1.366 1_545 S
C507 C506 1.366 1_565 S
C507 C508 1.414 . S
C507 C510 1.499 1_565 S
C508 H488 0.950 . S
C508 C507 1.414 . S
C508 C509 1.374 . S
C509 H489 0.950 1_455 S
C509 C505 1.385 . S
C509 C508 1.374 . S
C510 C507 1.499 1_545 S
C510 C511 1.373 . S
C510 C512 1.389 1_545 S
C511 H490 0.950 1_455 S
C511 C510 1.373 . S
C511 C527 1.377 . S
C512 C510 1.389 1_565 S
C512 C513 1.524 . S
C512 C526 1.377 1_565 S
C513 C512 1.524 . S
C513 C514 1.397 . S
C513 C518 1.363 1_565 S
C514 H491 0.950 . S
C514 C513 1.397 . S
C514 C515 1.334 . S
C515 H492 0.950 . S
C515 C514 1.334 . S
C515 C516 1.287 . S
C516 C515 1.287 . S
C516 C517 1.524 . S
C516 H535 0.913 . S
C517 H493 0.950 . S
C517 C516 1.524 . S
C517 C518 1.415 1_565 S
C518 H494 0.950 . S
C518 C513 1.363 1_545 S
C518 C517 1.415 1_545 S
C519 H495 0.951 1_545 S
C519 C520 1.366 . S
C519 C521 1.388 . S
C520 C519 1.366 . S
C520 C524 1.385 . S
C521 H496 0.951 1_545 S
C521 C519 1.388 . S
C521 C522 1.366 . S
C522 C521 1.366 . S
C522 C523 1.414 . S
C522 C525 1.499 . S
C523 H497 0.950 . S
C523 C522 1.414 . S
C523 C524 1.374 . S
C524 H498 0.950 . S
C524 C520 1.385 . S
C524 C523 1.374 . S
C525 C522 1.499 . S
C525 C526 1.373 . S
C525 C527 1.389 . S
C526 H499 0.950 . S
C526 C512 1.377 1_545 S
C526 C525 1.373 . S
C527 C511 1.377 . S
C527 C525 1.389 . S
C527 C528 1.524 1_455 S
C528 C527 1.524 1_655 S
C528 C529 1.397 . S
C528 C533 1.363 . S
C529 H500 0.950 1_655 S
C529 C528 1.397 . S
C529 C530 1.334 . S
C530 H501 0.950 . S
C530 C529 1.334 . S
C530 C531 1.287 . S
C531 C530 1.287 . S
C531 C532 1.524 . S
C531 H534 0.999 . S
C532 H502 0.950 . S
C532 C531 1.524 . S
C532 C533 1.415 . S
C533 H503 0.950 1_545 S
C533 C528 1.363 . S
C533 C532 1.415 . S
H534 C531 0.999 . S
H535 C516 0.913 . S
H536 C554 0.951 . S
H537 C556 0.951 . S
H538 C558 0.950 . S
H539 C559 0.950 . S
H540 C561 0.950 . S
H541 C564 0.950 . S
H542 C565 0.950 . S
H543 C567 0.950 . S
H544 C568 0.950 . S
H545 C569 0.951 . S
H546 C571 0.951 . S
H547 C573 0.950 1_565 S
H548 C574 0.950 1_565 S
H549 C576 0.950 . S
H550 C579 0.950 . S
H551 C580 0.950 . S
H552 C582 0.950 . S
H553 C583 0.950 . S
C554 H536 0.951 . S
C554 C555 1.366 1_655 S
C554 C556 1.388 . S
C555 C554 1.366 1_455 S
C555 C559 1.385 1_565 S
C556 H537 0.951 . S
C556 C554 1.388 . S
C556 C557 1.366 1_655 S
C557 C556 1.366 1_455 S
C557 C558 1.414 1_565 S
C557 C560 1.499 1_565 S
C558 H538 0.950 . S
C558 C557 1.414 1_545 S
C558 C559 1.374 . S
C559 H539 0.950 . S
C559 C555 1.385 1_545 S
C559 C558 1.374 . S
C560 C557 1.499 1_545 S
C560 C561 1.373 . S
C560 C562 1.389 1_545 S
C561 H540 0.950 . S
C561 C560 1.373 . S
C561 C577 1.377 . S
C562 C560 1.389 1_565 S
C562 C563 1.524 1_455 S
C562 C576 1.377 1_455 S
C563 C562 1.524 1_655 S
C563 C564 1.397 1_655 S
C563 C568 1.363 . S
C564 H541 0.950 . S
C564 C563 1.397 1_455 S
C564 C565 1.334 . S
C565 H542 0.950 . S
C565 C564 1.334 . S
C565 C566 1.294 . S
C566 C565 1.294 . S
C566 C567 1.517 1_455 S
C566 H585 0.911 1_455 S
C567 H543 0.950 . S
C567 C566 1.517 1_655 S
C567 C568 1.415 . S
C568 H544 0.950 . S
C568 C563 1.363 . S
C568 C567 1.415 . S
C569 H545 0.951 . S
C569 C570 1.353 1_455 S
C569 C571 1.388 . S
C570 C569 1.353 1_655 S
C570 C574 1.400 . S
C571 H546 0.951 . S
C571 C569 1.388 . S
C571 C572 1.366 . S
C572 C571 1.366 . S
C572 C573 1.414 1_455 S
C572 C575 1.499 . S
C573 H547 0.950 1_545 S
C573 C572 1.414 1_655 S
C573 C574 1.374 . S
C574 H548 0.950 1_545 S
C574 C570 1.400 . S
C574 C573 1.374 . S
C575 C572 1.499 . S
C575 C576 1.373 1_445 S
C575 C577 1.389 . S
C576 H549 0.950 . S
C576 C562 1.377 1_655 S
C576 C575 1.373 1_665 S
C577 C561 1.377 . S
C577 C575 1.389 . S
C577 C578 1.524 . S
C578 C577 1.524 . S
C578 C579 1.397 1_455 S
C578 C583 1.363 . S
C579 H550 0.950 . S
C579 C578 1.397 1_655 S
C579 C580 1.334 . S
C580 H551 0.950 . S
C580 C579 1.334 . S
C580 C581 1.287 1_655 S
C581 C580 1.287 1_455 S
C581 C582 1.524 . S
C581 H584 0.999 . S
C582 H552 0.950 . S
C582 C581 1.524 . S
C582 C583 1.415 . S
C583 H553 0.950 . S
C583 C578 1.363 . S
C583 C582 1.415 . S
H584 C581 0.999 . S
H585 C566 0.911 1_655 S
H586 C604 0.951 . S
H587 C606 0.951 . S
H588 C608 0.950 . S
H589 C609 0.950 . S
H590 C611 0.950 . S
H591 C614 0.950 . S
H592 C615 0.950 . S
H593 C617 0.950 . S
H594 C618 0.950 . S
H595 C619 0.951 . S
H596 C621 0.951 . S
H597 C623 0.950 . S
H598 C624 0.950 . S
H599 C626 0.950 . S
H600 C629 0.950 . S
H601 C630 0.950 . S
H602 C632 0.950 . S
H603 C633 0.950 . S
C604 H586 0.951 . S
C604 C605 1.366 . S
C604 C606 1.388 . S
C605 C604 1.366 . S
C605 C609 1.385 . S
C606 H587 0.951 . S
C606 C604 1.388 . S
C606 C607 1.366 . S
C607 C606 1.366 . S
C607 C608 1.414 . S
C607 C610 1.499 . S
C608 H588 0.950 . S
C608 C607 1.414 . S
C608 C609 1.374 . S
C609 H589 0.950 . S
C609 C605 1.385 . S
C609 C608 1.374 . S
C610 C607 1.499 . S
C610 C611 1.373 . S
C610 C612 1.389 . S
C611 H590 0.950 . S
C611 C610 1.373 . S
C611 C627 1.377 . S
C612 C610 1.389 . S
C612 C613 1.524 . S
C612 C626 1.377 . S
C613 C612 1.524 . S
C613 C614 1.397 . S
C613 C618 1.363 . S
C614 H591 0.950 . S
C614 C613 1.397 . S
C614 C615 1.334 . S
C615 H592 0.950 . S
C615 C614 1.334 . S
C615 C616 1.287 . S
C616 C615 1.287 . S
C616 C617 1.524 . S
C616 H635 0.913 . S
C617 H593 0.950 . S
C617 C616 1.524 . S
C617 C618 1.415 . S
C618 H594 0.950 . S
C618 C613 1.363 . S
C618 C617 1.415 . S
C619 H595 0.951 . S
C619 C620 1.366 . S
C619 C621 1.388 . S
C620 C619 1.366 . S
C620 C624 1.385 . S
C621 H596 0.951 . S
C621 C619 1.388 . S
C621 C622 1.366 . S
C622 C621 1.366 . S
C622 C623 1.414 . S
C622 C625 1.499 . S
C623 H597 0.950 . S
C623 C622 1.414 . S
C623 C624 1.374 . S
C624 H598 0.950 . S
C624 C620 1.385 . S
C624 C623 1.374 . S
C625 C622 1.499 . S
C625 C626 1.373 . S
C625 C627 1.389 . S
C626 H599 0.950 . S
C626 C612 1.377 . S
C626 C625 1.373 . S
C627 C611 1.377 . S
C627 C625 1.389 . S
C627 C628 1.524 . S
C628 C627 1.524 . S
C628 C629 1.397 . S
C628 C633 1.363 . S
C629 H600 0.950 . S
C629 C628 1.397 . S
C629 C630 1.334 . S
C630 H601 0.950 . S
C630 C629 1.334 . S
C630 C631 1.287 . S
C631 C630 1.287 . S
C631 C632 1.524 . S
C631 H634 0.999 . S
C632 H602 0.950 . S
C632 C631 1.524 . S
C632 C633 1.415 . S
C633 H603 0.950 . S
C633 C628 1.363 . S
C633 C632 1.415 . S
H634 C631 0.999 . S
H635 C616 0.913 . S
H636 C654 0.951 . S
H637 C656 0.951 . S
H638 C658 0.950 . S
H639 C659 0.950 . S
H640 C661 0.950 . S
H641 C664 0.950 . S
H642 C665 0.950 . S
H643 C667 0.950 . S
H644 C668 0.950 . S
H645 C669 0.951 . S
H646 C671 0.951 . S
H647 C673 0.950 . S
H648 C674 0.950 . S
H649 C676 0.950 . S
H650 C679 0.950 . S
H651 C680 0.950 . S
H652 C682 0.950 . S
H653 C683 0.950 . S
C654 H636 0.951 . S
C654 C655 1.366 . S
C654 C656 1.388 . S
C655 C654 1.366 . S
C655 C659 1.385 . S
C656 H637 0.951 . S
C656 C654 1.388 . S
C656 C657 1.366 . S
C657 C656 1.366 . S
C657 C658 1.414 . S
C657 C660 1.499 . S
C658 H638 0.950 . S
C658 C657 1.414 . S
C658 C659 1.374 . S
C659 H639 0.950 . S
C659 C655 1.385 . S
C659 C658 1.374 . S
C660 C657 1.499 . S
C660 C661 1.373 . S
C660 C662 1.389 . S
C661 H640 0.950 . S
C661 C660 1.373 . S
C661 C677 1.377 . S
C662 C660 1.389 . S
C662 C663 1.524 . S
C662 C676 1.377 . S
C663 C662 1.524 . S
C663 C664 1.397 . S
C663 C668 1.363 . S
C664 H641 0.950 . S
C664 C663 1.397 . S
C664 C665 1.334 . S
C665 H642 0.950 . S
C665 C664 1.334 . S
C665 C666 1.287 . S
C666 C665 1.287 . S
C666 C667 1.524 . S
C666 H685 0.913 . S
C667 H643 0.950 . S
C667 C666 1.524 . S
C667 C668 1.415 . S
C668 H644 0.950 . S
C668 C663 1.363 . S
C668 C667 1.415 . S
C669 H645 0.951 . S
C669 C670 1.366 . S
C669 C671 1.388 . S
C670 C669 1.366 . S
C670 C674 1.385 . S
C671 H646 0.951 . S
C671 C669 1.388 . S
C671 C672 1.366 . S
C672 C671 1.366 . S
C672 C673 1.414 . S
C672 C675 1.499 . S
C673 H647 0.950 . S
C673 C672 1.414 . S
C673 C674 1.374 . S
C674 H648 0.950 . S
C674 C670 1.385 . S
C674 C673 1.374 . S
C675 C672 1.499 . S
C675 C676 1.373 . S
C675 C677 1.389 . S
C676 H649 0.950 . S
C676 C662 1.377 . S
C676 C675 1.373 . S
C677 C661 1.377 . S
C677 C675 1.389 . S
C677 C678 1.524 . S
C678 C677 1.524 . S
C678 C679 1.397 . S
C678 C683 1.363 . S
C679 H650 0.950 . S
C679 C678 1.397 . S
C679 C680 1.334 . S
C680 H651 0.950 . S
C680 C679 1.334 . S
C680 C681 1.287 . S
C681 C680 1.287 . S
C681 C682 1.524 . S
C681 H684 0.999 . S
C682 H652 0.950 . S
C682 C681 1.524 . S
C682 C683 1.415 . S
C683 H653 0.950 . S
C683 C678 1.363 . S
C683 C682 1.415 . S
H684 C681 0.999 . S
H685 C666 0.913 . S
C120 C79 1.275 . S
C105 C3 1.172 . S
C155 C4 1.452 . S
C170 C74 1.531 . S
C205 C19 1.476 . S
C220 C85 1.553 . S
C255 C7 1.175 . S
C270 C68 1.286 . S
C305 C37 1.171 . S
C320 C57 1.276 . S
C355 C28 1.447 . S
C370 C52 1.531 1_655 S
C420 C63 1.553 . S
C405 C41 1.476 . S
C470 C46 1.286 . S
C455 C25 1.175 . S
C505 C20 1.340 . S
C520 C47 1.466 . S
C555 C16 1.390 . S
C570 C58 1.514 . S
C620 C69 1.466 . S
C605 C40 1.339 . S
C655 C24 1.389 . S
C670 C80 1.516 . S
