# Generated by pormake.
# Topology pth, (4,4)-cn, num edge types: 1
# Building blocks:
#     Node 0, Type 0, BuildingBlock: KUFVIS_clean_sbu_0, # of connection points: 4
#     Node 1, Type 0, BuildingBlock: KUFVIS_clean_sbu_0, # of connection points: 4
#     Node 2, Type 0, BuildingBlock: KUFVIS_clean_sbu_0, # of connection points: 4
#     Node 3, Type 1, BuildingBlock: MIFKUJ_clean_linker_1, # of connection points: 4
#     Node 4, Type 1, BuildingBlock: MIFKUJ_clean_linker_1, # of connection points: 4
#     Node 5, Type 1, BuildingBlock: MIFKUJ_clean_linker_1, # of connection points: 4
#     Edge 6, Type (0, 1), BuildingBlock: TEMPAE_clean_linker_10, # of connection points: 2
#     Edge 7, Type (0, 1), BuildingBlock: TEMPAE_clean_linker_10, # of connection points: 2
#     Edge 8, Type (0, 1), BuildingBlock: TEMPAE_clean_linker_10, # of connection points: 2
#     Edge 9, Type (0, 1), BuildingBlock: TEMPAE_clean_linker_10, # of connection points: 2
#     Edge 10, Type (0, 1), BuildingBlock: TEMPAE_clean_linker_10, # of connection points: 2
#     Edge 11, Type (0, 1), BuildingBlock: TEMPAE_clean_linker_10, # of connection points: 2
#     Edge 12, Type (0, 1), BuildingBlock: TEMPAE_clean_linker_10, # of connection points: 2
#     Edge 13, Type (0, 1), BuildingBlock: TEMPAE_clean_linker_10, # of connection points: 2
#     Edge 14, Type (0, 1), BuildingBlock: TEMPAE_clean_linker_10, # of connection points: 2
#     Edge 15, Type (0, 1), BuildingBlock: TEMPAE_clean_linker_10, # of connection points: 2
#     Edge 16, Type (0, 1), BuildingBlock: TEMPAE_clean_linker_10, # of connection points: 2
#     Edge 17, Type (0, 1), BuildingBlock: TEMPAE_clean_linker_10, # of connection points: 2
# Relax obj value: 0.017
# Max RMSD: 0.085
# Mean RMSD: 0.064
data_MOF--net-pth--node1-KUFVIS_clean_sbu_0--node2-MIFKUJ_clean_linker_1--edge1-TEMPAE_clean_linker_10
_symmetry_space_group_name_H-M    P1
_symmetry_Int_Tables_number       1
_symmetry_cell_setting            triclinic
loop_
_symmetry_equiv_pos_as_xyz
'x, y, z'
_cell_length_a     29.436839
_cell_length_b     29.496609
_cell_length_c     64.905344
_cell_angle_alpha  90.421865
_cell_angle_beta   91.807219
_cell_angle_gamma 120.14888
loop_
_atom_site_label
_atom_site_type_symbol
_atom_site_fract_x
_atom_site_fract_y
_atom_site_fract_z
_atom_type_partial_charge
Mn0 Mn 0.02706 0.0591 0.04025 0.0
Mn1 Mn 0.96455 0.11076 0.01344 0.0
C2 C 0.97609 0.01585 0.01099 0.0
C3 C 0.0298 0.00738 0.06679 0.0
C4 C 0.08008 0.14802 0.0095 0.0
O5 O 0.03016 0.11343 0.06063 0.0
O6 O 0.98858 0.14537 0.04117 0.0
C7 C 0.8721 0.07126 0.03953 0.0
N8 N 0.89255 0.07522 0.02066 0.0
C9 C 0.80621 0.02711 0.0043 0.0
C10 C 0.78418 0.02272 0.02354 0.0
C11 C 0.81729 0.04467 0.04125 0.0
C12 C 0.86108 0.05353 0.00359 0.0
H13 H 0.89742 0.08831 0.05316 0.0
C14 C 0.01262 0.14469 0.05784 0.0
O15 O 0.0726 0.04432 0.05916 0.0
O16 O 0.9857 1.00151 0.05934 0.0
N17 N 0.93852 0.08181 0.9863 0.0
C18 C 0.96608 0.08829 0.96903 0.0
C19 C 0.93884 0.06875 0.94995 0.0
C20 C 0.88371 0.04362 0.9488 0.0
C21 C 0.85619 0.03734 0.96678 0.0
C22 C 0.88545 0.05768 0.98534 0.0
H23 H 0.00852 0.10849 0.96978 0.0
O24 O 0.01225 0.00637 0.01787 0.0
O25 O 0.96983 0.04968 0.02172 0.0
O26 O 0.08249 0.11744 0.02279 0.0
O27 O 0.03783 0.14847 0.0048 0.0
C28 C 0.80091 0.01194 0.96703 0.0
C29 C 0.77592 0.00631 0.98581 0.0
H30 H 0.74192 0.00246 0.02491 0.0
H31 H 0.80059 0.04131 0.05617 0.0
H32 H 0.96031 0.07362 0.93613 0.0
H33 H 0.86294 0.0295 0.93399 0.0
H34 H 0.77717 0.99628 0.9529 0.0
H35 H 0.73339 0.986 0.98584 0.0
Mn36 Mn 0.02999 0.06502 0.37602 0.0
Mn37 Mn 0.09369 0.17907 0.40357 0.0
C38 C 0.08195 0.07189 0.40472 0.0
C39 C 0.02634 0.01165 0.34856 0.0
C40 C 0.97717 0.10119 0.40663 0.0
O41 O 0.02589 0.11713 0.35672 0.0
O42 O 0.07473 0.1919 0.37542 0.0
C43 C 0.19046 0.23284 0.3799 0.0
N44 N 0.16685 0.21522 0.39815 0.0
C45 C 0.25046 0.2536 0.41671 0.0
C46 C 0.27573 0.27249 0.39814 0.0
C47 C 0.24558 0.26179 0.37964 0.0
C48 C 0.19546 0.22464 0.41598 0.0
H49 H 0.16738 0.22493 0.36567 0.0
C50 C 0.04822 0.16685 0.35905 0.0
O51 O 0.98387 0.00537 0.3567 0.0
O52 O 0.07072 0.04988 0.35599 0.0
N53 N 0.11513 0.17336 0.43108 0.0
C54 C 0.08477 0.14929 0.44739 0.0
C55 C 0.10889 0.15468 0.46697 0.0
C56 C 0.16381 0.18539 0.46962 0.0
C57 C 0.19425 0.20964 0.4526 0.0
C58 C 0.16804 0.20273 0.43346 0.0
H59 H 0.04248 0.12635 0.44548 0.0
O60 O 0.04575 0.02638 0.39743 0.0
O61 O 0.0877 0.1124 0.39466 0.0
O62 O 0.97513 0.0664 0.39424 0.0
O63 O 0.01903 0.14497 0.41067 0.0
C64 C 0.24957 0.24023 0.45383 0.0
C65 C 0.27767 0.2619 0.43588 0.0
H66 H 0.31823 0.29493 0.39788 0.0
H67 H 0.26479 0.27603 0.36523 0.0
H68 H 0.08518 0.13568 0.48002 0.0
H69 H 0.18218 0.18996 0.4848 0.0
H70 H 0.27097 0.24688 0.46846 0.0
H71 H 0.32022 0.28449 0.43696 0.0
Mn72 Mn 0.04114 0.04785 0.70994 0.0
Mn73 Mn 0.99241 0.11068 0.73719 0.0
C74 C 0.08823 0.09961 0.7385 0.0
C75 C 0.08944 0.04412 0.6828 0.0
C76 C 0.95549 0.99526 0.74153 0.0
O77 O 0.98408 0.04403 0.69029 0.0
O78 O 0.95582 0.08787 0.70957 0.0
C79 C 0.02962 0.20409 0.71129 0.0
N80 N 0.02701 0.18285 0.73008 0.0
C81 C 0.07348 0.26821 0.74673 0.0
C82 C 0.07653 0.29106 0.72758 0.0
C83 C 0.05475 0.25886 0.70976 0.0
C84 C 0.0485 0.21347 0.74725 0.0
H85 H 0.01253 0.17942 0.6976 0.0
C86 C 0.95416 0.06304 0.69302 0.0
O87 O 0.05364 1.00184 0.69115 0.0
O88 O 0.09613 0.08843 0.68986 0.0
N89 N 0.02342 0.13562 0.7642 0.0
C90 C 0.01944 0.10746 0.78127 0.0
C91 C 0.03916 0.13369 0.80042 0.0
C92 C 0.0622 0.18846 0.80184 0.0
C93 C 0.06665 0.21671 0.784 0.0
C94 C 0.04596 0.1884 0.76538 0.0
H95 H 1.00106 0.06529 0.78031 0.0
O96 O 0.09676 0.0633 0.73157 0.0
O97 O 0.05288 0.10556 0.72824 0.0
O98 O 0.98511 0.99277 0.72817 0.0
O99 O 0.95518 0.03734 0.74598 0.0
C100 C 0.09068 0.2718 0.78396 0.0
C101 C 0.09448 0.29756 0.76531 0.0
H102 H 0.09567 0.33327 0.72635 0.0
H103 H 0.05705 0.2762 0.69492 0.0
H104 H 0.03603 0.11171 0.8141 0.0
H105 H 0.07637 0.20839 0.81671 0.0
H106 H 0.10691 0.29479 0.79814 0.0
H107 H 0.11379 0.33997 0.76543 0.0
H108 H 0.09593 0.53874 0.17017 0.0
H109 H 0.09718 0.4699 0.14964 0.0
H110 H 0.95817 0.35341 0.17922 0.0
H111 H 0.95485 0.42282 0.19845 0.0
H112 H 0.03011 0.57195 0.17045 0.0
H113 H 0.0955 0.50251 0.22403 0.0
H114 H 0.09561 0.43473 0.2454 0.0
H115 H 0.93844 0.38831 0.26379 0.0
H116 H 0.93977 0.45773 0.24304 0.0
H117 H 0.94557 0.60102 0.24599 0.0
H118 H 0.9447 0.67069 0.26637 0.0
H119 H 0.08823 0.78541 0.23907 0.0
H120 H 0.08981 0.71553 0.21909 0.0
H121 H 0.01142 0.56651 0.24619 0.0
H122 H 0.95423 0.64795 0.19601 0.0
H123 H 0.95861 0.71938 0.17557 0.0
H124 H 0.10107 0.74239 0.14897 0.0
H125 H 0.09738 0.67188 0.16979 0.0
C126 C 0.02566 0.48615 0.18608 0.0
C127 C 0.06559 0.49837 0.17218 0.0
C128 C 0.06663 0.45876 0.16062 0.0
C129 C 0.02796 0.4058 0.1628 0.0
C130 C 0.9883 0.39366 0.17691 0.0
C131 C 0.98681 0.43339 0.18821 0.0
C132 C 0.02392 0.52873 0.19785 0.0
C133 C 0.02684 0.57121 0.18706 0.0
C134 C 0.01812 0.52712 0.21943 0.0
C135 C 0.01763 0.48507 0.23197 0.0
C136 C 0.06108 0.47757 0.23265 0.0
C137 C 0.06085 0.43848 0.24477 0.0
C138 C 0.01697 0.40579 0.25636 0.0
C139 C 0.97327 0.4132 0.2554 0.0
C140 C 0.97382 0.45272 0.24347 0.0
C141 C 0.01742 0.65297 0.23081 0.0
C142 C 0.97697 0.64113 0.24442 0.0
C143 C 0.97646 0.68093 0.25605 0.0
C144 C 0.01628 0.73344 0.25423 0.0
C145 C 0.05666 0.74535 0.24056 0.0
C146 C 0.05753 0.70544 0.22912 0.0
C147 C 0.01818 0.61018 0.21883 0.0
C148 C 0.01484 0.56749 0.22958 0.0
C149 C 0.0239 0.6119 0.1972 0.0
C150 C 0.02584 0.65485 0.18466 0.0
C151 C 0.98681 0.66879 0.186 0.0
C152 C 0.9893 0.70958 0.17431 0.0
C153 C 0.03027 0.73651 0.16074 0.0
C154 C 0.06887 0.72208 0.15921 0.0
C155 C 0.06675 0.68177 0.17108 0.0
H156 H 0.65683 0.10336 0.53348 0.0
H157 H 0.72604 0.10783 0.51231 0.0
H158 H 0.61086 0.97083 0.47722 0.0
H159 H 0.54167 0.96514 0.49896 0.0
H160 H 0.50554 0.02844 0.50357 0.0
H161 H 0.62439 0.11011 0.57956 0.0
H162 H 0.69652 0.1113 0.59984 0.0
H163 H 0.65684 0.96111 0.57271 0.0
H164 H 0.5846 0.96015 0.55235 0.0
H165 H 0.36682 0.96593 0.55142 0.0
H166 H 0.29952 0.96848 0.57171 0.0
H167 H 0.41911 0.11024 0.60307 0.0
H168 H 0.48626 0.10796 0.5825 0.0
H169 H 0.51838 0.03863 0.58004 0.0
H170 H 0.38774 0.9554 0.50805 0.0
H171 H 0.31767 0.96085 0.48906 0.0
H172 H 0.38949 0.12445 0.50787 0.0
H173 H 0.45701 0.11719 0.52786 0.0
C174 C 0.59401 0.03323 0.51815 0.0
C175 C 0.64647 0.07342 0.5216 0.0
C176 C 0.68602 0.07617 0.50942 0.0
C177 C 0.67376 0.03954 0.4932 0.0
C178 C 0.62128 0.99964 0.48959 0.0
C179 C 0.58181 0.99638 0.502 0.0
C180 C 0.55158 0.03133 0.53063 0.0
C181 C 0.508 0.02956 0.5203 0.0
C182 C 0.55522 0.03456 0.55247 0.0
C183 C 0.59926 0.03512 0.56443 0.0
C184 C 0.63129 0.07749 0.57795 0.0
C185 C 0.6727 0.07832 0.58938 0.0
C186 C 0.68237 0.0364 0.58776 0.0
C187 C 0.65014 0.99385 0.57428 0.0
C188 C 0.60907 0.99335 0.56262 0.0
C189 C 0.4316 0.03716 0.56521 0.0
C190 C 0.3785 0.99806 0.56241 0.0
C191 C 0.34005 0.99948 0.57405 0.0
C192 C 0.354 0.03963 0.58894 0.0
C193 C 0.40721 0.07855 0.59183 0.0
C194 C 0.4456 0.07733 0.58007 0.0
C195 C 0.47263 0.03559 0.55296 0.0
C196 C 0.51581 0.03679 0.56332 0.0
C197 C 0.469 0.03227 0.53118 0.0
C198 C 0.42717 0.0358 0.51939 0.0
C199 C 0.388 0.99226 0.50808 0.0
C200 C 0.3482 0.99566 0.49713 0.0
C201 C 0.34762 0.04316 0.49683 0.0
C202 C 0.38766 0.08688 0.50804 0.0
C203 C 0.4267 0.08305 0.51934 0.0
H204 H 0.51222 0.40487 0.84635 0.0
H205 H 0.43696 0.33377 0.82704 0.0
H206 H 0.34393 0.4053 0.84122 0.0
H207 H 0.41834 0.47416 0.8613 0.0
H208 H 0.55835 0.51776 0.83882 0.0
H209 H 0.47922 0.39297 0.89249 0.0
H210 H 0.40888 0.33191 0.91416 0.0
H211 H 0.3836 0.45729 0.93419 0.0
H212 H 0.45413 0.51813 0.91262 0.0
H213 H 0.58701 0.65853 0.90322 0.0
H214 H 0.65509 0.73795 0.9216 0.0
H215 H 0.76895 0.68979 0.911 0.0
H216 H 0.70084 0.61076 0.89227 0.0
H217 H 0.55563 0.55109 0.91372 0.0
H218 H 0.607 0.66377 0.85519 0.0
H219 H 0.66917 0.73032 0.83238 0.0
H220 H 0.74033 0.63552 0.82161 0.0
H221 H 0.67727 0.56842 0.84432 0.0
C222 C 0.47052 0.4443 0.85537 0.0
C223 C 0.47533 0.40471 0.84538 0.0
C224 C 0.43236 0.36437 0.83423 0.0
C225 C 0.3841 0.36355 0.83253 0.0
C226 C 0.37986 0.40373 0.84253 0.0
C227 C 0.4225 0.44343 0.85393 0.0
C228 C 0.51607 0.48805 0.86665 0.0
C229 C 0.55844 0.52426 0.85531 0.0
C230 C 0.51505 0.49753 0.88799 0.0
C231 C 0.47175 0.46008 0.90082 0.0
C232 C 0.4582 0.40718 0.90141 0.0
C233 C 0.418 0.37232 0.91381 0.0
C234 C 0.3907 0.38975 0.92595 0.0
C235 C 0.40439 0.44277 0.9253 0.0
C236 C 0.44455 0.47756 0.91291 0.0
C237 C 0.63907 0.629 0.89643 0.0
C238 C 0.62671 0.66529 0.90477 0.0
C239 C 0.66554 0.71059 0.91515 0.0
C240 C 0.71708 0.71976 0.91768 0.0
C241 C 0.7294 0.68337 0.90931 0.0
C242 C 0.69072 0.63849 0.89859 0.0
C243 C 0.59754 0.58054 0.88587 0.0
C244 C 0.55601 0.5437 0.89734 0.0
C245 C 0.59871 0.57084 0.86464 0.0
C246 C 0.63783 0.61144 0.85145 0.0
C247 C 0.63611 0.65742 0.84796 0.0
C248 C 0.67134 0.69517 0.83487 0.0
C249 C 0.70927 0.68781 0.8252 0.0
C250 C 0.71149 0.64207 0.82894 0.0
C251 C 0.67558 0.60383 0.84183 0.0
C252 C 0.02323 0.17121 0.09534 0.0
C253 C 0.01981 0.1824 0.07457 0.0
C254 C 0.02639 0.20559 0.11119 0.0
C255 C 0.0272 0.25262 0.10609 0.0
C256 C 0.02559 0.26484 0.08513 0.0
C257 C 0.02141 0.2294 0.06966 0.0
C258 C 0.02718 0.19086 0.13336 0.0
C259 C 0.0274 0.31502 0.079 0.0
C260 C 0.98023 0.32135 0.14194 0.0
C261 C 0.02783 0.36381 0.14977 0.0
C262 C 0.9795 0.28338 0.12857 0.0
C263 C 0.02752 0.28838 0.12248 0.0
C264 C 0.07568 0.33018 0.13072 0.0
C265 C 0.07525 0.36709 0.1444 0.0
C266 C 0.92725 0.23902 0.1203 0.0
C267 C 0.12773 0.33715 0.12445 0.0
H268 H 0.02174 0.1348 0.0992 0.0
H269 H 0.01939 0.23857 0.05363 0.0
H270 H 0.06145 0.22295 0.14208 0.0
H271 H 0.99129 0.18524 0.14076 0.0
H272 H 0.02892 0.15424 0.13477 0.0
H273 H 0.02893 0.32008 0.06204 0.0
H274 H 0.9921 0.31518 0.08439 0.0
H275 H 0.06233 0.3493 0.08646 0.0
H276 H 0.94333 0.3186 0.14568 0.0
H277 H 0.11224 0.39898 0.15067 0.0
H278 H 0.92565 0.20087 0.12213 0.0
H279 H 0.92257 0.24384 0.10357 0.0
H280 H 0.89359 0.23753 0.12818 0.0
H281 H 0.12873 0.30042 0.12671 0.0
H282 H 0.16153 0.36953 0.13331 0.0
H283 H 0.13269 0.34585 0.1078 0.0
C284 C 0.89019 0.03794 0.42098 0.0
C285 C 0.92935 0.08984 0.4176 0.0
C286 C 0.84671 0.02692 0.43275 0.0
C287 C 0.84182 0.06879 0.44098 0.0
C288 C 0.88039 0.1212 0.43707 0.0
C289 C 0.92391 0.13109 0.42561 0.0
C290 C 0.80681 0.97056 0.43686 0.0
C291 C 0.87611 0.16692 0.44526 0.0
C292 C 0.70904 0.0436 0.45827 0.0
C293 C 0.71558 0.04406 0.47977 0.0
C294 C 0.74956 0.05095 0.4454 0.0
C295 C 0.79737 0.0581 0.45428 0.0
C296 C 0.80356 0.05714 0.47597 0.0
C297 C 0.76273 0.05058 0.48847 0.0
C298 C 0.74179 0.05257 0.42237 0.0
C299 C 0.85361 0.06379 0.48601 0.0
H300 H 0.89437 0.00588 0.41498 0.0
H301 H 0.95383 0.17128 0.42294 0.0
H302 H 0.80617 0.96387 0.45368 0.0
H303 H 0.76686 0.96194 0.43178 0.0
H304 H 0.81548 0.94249 0.42887 0.0
H305 H 0.90783 0.20514 0.43987 0.0
H306 H 0.83756 0.1624 0.44037 0.0
H307 H 0.87819 0.16775 0.46237 0.0
H308 H 0.67276 0.03905 0.45154 0.0
H309 H 0.7676 0.05046 0.50509 0.0
H310 H 0.74864 0.02328 0.4144 0.0
H311 H 0.77089 0.09173 0.41679 0.0
H312 H 0.70168 0.04466 0.41788 0.0
H313 H 0.86275 0.03465 0.47936 0.0
H314 H 0.851 0.05909 0.50297 0.0
H315 H 0.88696 0.1033 0.48288 0.0
C316 C 0.90812 0.89754 0.74572 0.0
C317 C 0.92037 0.94753 0.75296 0.0
C318 C 0.87437 0.85235 0.75647 0.0
C319 C 0.85316 0.85742 0.77506 0.0
C320 C 0.86602 0.90779 0.78258 0.0
C321 C 0.89897 0.95207 0.77136 0.0
C322 C 0.86081 0.79918 0.74782 0.0
C323 C 0.84482 0.91497 0.80249 0.0
C324 C 0.72703 0.74689 0.79547 0.0
C325 C 0.74621 0.72805 0.81125 0.0
C326 C 0.76147 0.78741 0.78294 0.0
C327 C 0.81643 0.81024 0.78653 0.0
C328 C 0.836 0.79045 0.80213 0.0
C329 C 0.80056 0.7492 0.81421 0.0
C330 C 0.73903 0.80682 0.76626 0.0
C331 C 0.89431 0.8143 0.80665 0.0
H332 H 0.92425 0.89362 0.73148 0.0
H333 H 0.90829 0.99044 0.77718 0.0
H334 H 0.87186 0.77827 0.75925 0.0
H335 H 0.81772 0.77499 0.74471 0.0
H336 H 0.88095 0.80193 0.7333 0.0
H337 H 0.86042 0.95697 0.80666 0.0
H338 H 0.8013 0.89514 0.80112 0.0
H339 H 0.85509 0.89657 0.81528 0.0
H340 H 0.68492 0.73008 0.79304 0.0
H341 H 0.81536 0.7348 0.82651 0.0
H342 H 0.75686 0.80785 0.75134 0.0
H343 H 0.7487 0.84747 0.77015 0.0
H344 H 0.69563 0.78188 0.76426 0.0
H345 H 0.91449 0.81546 0.79235 0.0
H346 H 0.90317 0.79229 0.81838 0.0
H347 H 0.91107 0.85539 0.81238 0.0
C348 C 0.07844 0.9809 0.0918 0.0
C349 C 0.03081 0.97144 0.08239 0.0
C350 C 0.07993 0.94514 0.10561 0.0
C351 C 0.03277 0.89853 0.10989 0.0
C352 C 0.98449 0.88932 0.10073 0.0
C353 C 0.98406 0.92602 0.0872 0.0
C354 C 0.13209 0.95668 0.1153 0.0
C355 C 0.93341 0.83991 0.10473 0.0
C356 C 0.04059 0.77944 0.12674 0.0
C357 C 0.0322 0.77886 0.1479 0.0
C358 C 0.04129 0.81841 0.11425 0.0
C359 C 0.03403 0.85817 0.12318 0.0
C360 C 0.0264 0.85828 0.14462 0.0
C361 C 0.02519 0.81838 0.1567 0.0
C362 C 0.04883 0.81646 0.09142 0.0
C363 C 0.01923 0.90038 0.15475 0.0
H364 H 0.11469 0.01602 0.08821 0.0
H365 H 0.9471 0.91834 0.07996 0.0
H366 H 0.12972 0.95415 0.13232 0.0
H367 H 0.14183 0.92692 0.1099 0.0
H368 H 0.1646 0.99616 0.11146 0.0
H369 H 0.89903 0.83942 0.09692 0.0
H370 H 0.93524 0.80519 0.0992 0.0
H371 H 0.92705 0.83577 0.12153 0.0
H372 H 0.04548 0.74863 0.11986 0.0
H373 H 0.01925 0.81833 0.1731 0.0
H374 H 0.08343 0.85361 0.08681 0.0
H375 H 0.01402 0.81237 0.08259 0.0
H376 H 0.05461 0.78333 0.08694 0.0
H377 H 0.05295 0.93967 0.15159 0.0
H378 H 0.01583 0.89607 0.17171 0.0
H379 H 0.98328 0.89895 0.14817 0.0
C380 C 0.10195 0.03969 0.43707 0.0
C381 C 0.11986 0.07435 0.42071 0.0
C382 C 0.13743 0.03519 0.45068 0.0
C383 C 0.19215 0.06654 0.44793 0.0
C384 C 0.2104 0.10265 0.43172 0.0
C385 C 0.17393 0.10508 0.41797 0.0
C386 C 0.11627 0.99508 0.46734 0.0
C387 C 0.2684 0.1376 0.42854 0.0
C388 C 0.28736 0.07998 0.49178 0.0
C389 C 0.30603 0.04743 0.48471 0.0
C390 C 0.25017 0.0864 0.48008 0.0
C391 C 0.23015 0.05884 0.46099 0.0
C392 C 0.24725 0.02443 0.45409 0.0
C393 C 0.28548 0.01976 0.46585 0.0
C394 C 0.2338 0.12412 0.48787 0.0
C395 C 0.22552 0.99283 0.43416 0.0
H396 H 0.06 0.0149 0.43882 0.0
H397 H 0.18767 0.12984 0.4047 0.0
H398 H 0.12745 0.96486 0.46454 0.0
H399 H 0.13379 0.01385 0.48263 0.0
H400 H 0.07278 0.9753 0.46795 0.0
H401 H 0.27612 0.16535 0.41586 0.0
H402 H 0.28832 0.16039 0.44296 0.0
H403 H 0.2864 0.11346 0.42486 0.0
H404 H 0.30186 0.1007 0.50651 0.0
H405 H 0.29991 0.99505 0.46 0.0
H406 H 0.19048 0.1063 0.48666 0.0
H407 H 0.2511 0.15911 0.47814 0.0
H408 H 0.2474 0.13713 0.50413 0.0
H409 H 0.18191 0.97049 0.43401 0.0
H410 H 0.23979 0.9648 0.43179 0.0
H411 H 0.23712 0.01948 0.42094 0.0
C412 C 0.14222 0.11906 0.77106 0.0
C413 C 0.12477 0.1372 0.75446 0.0
C414 C 0.18265 0.15423 0.78483 0.0
C415 C 0.20592 0.20888 0.78197 0.0
C416 C 0.18751 0.22736 0.76546 0.0
C417 C 0.148 0.19121 0.75161 0.0
C418 C 0.20181 0.13289 0.80197 0.0
C419 C 0.21046 0.28529 0.76213 0.0
C420 C 0.28703 0.30275 0.82635 0.0
C421 C 0.33859 0.32177 0.82008 0.0
C422 C 0.24358 0.26586 0.81421 0.0
C423 C 0.25159 0.24662 0.79547 0.0
C424 C 0.3035 0.2641 0.78939 0.0
C425 C 0.3463 0.30186 0.80163 0.0
C426 C 0.18918 0.24921 0.82116 0.0
C427 C 0.31386 0.24336 0.76982 0.0
H428 H 0.12503 0.07717 0.77295 0.0
H429 H 0.13627 0.20515 0.73821 0.0
H430 H 0.2437 0.14514 0.79992 0.0
H431 H 0.19955 0.14924 0.81709 0.0
H432 H 0.17869 0.0894 0.80239 0.0
H433 H 0.18996 0.29318 0.74921 0.0
H434 H 0.20792 0.30476 0.77639 0.0
H435 H 0.25267 0.30345 0.75874 0.0
H436 H 0.28045 0.31689 0.84076 0.0
H437 H 0.38581 0.31656 0.79645 0.0
H438 H 0.16312 0.20615 0.81937 0.0
H439 H 0.17239 0.2682 0.81136 0.0
H440 H 0.18938 0.26093 0.83749 0.0
H441 H 0.35643 0.25824 0.76799 0.0
H442 H 0.29852 0.25497 0.75626 0.0
H443 H 0.29293 0.19986 0.76973 0.0
C444 C 0.91546 0.0357 0.65684 0.0
C445 C 0.91535 0.05651 0.67636 0.0
C446 C 0.87909 0.0302 0.64103 0.0
C447 C 0.84155 0.04554 0.64487 0.0
C448 C 0.84101 0.06617 0.66455 0.0
C449 C 0.87791 0.07155 0.67999 0.0
C450 C 0.88107 0.0084 0.62017 0.0
C451 C 0.80143 0.08271 0.66933 0.0
C452 C 0.77498 0.08149 0.60226 0.0
C453 C 0.72489 0.03659 0.60072 0.0
C454 C 0.81426 0.08394 0.61585 0.0
C455 C 0.8029 0.0407 0.62839 0.0
C456 C 0.75293 0.99458 0.62638 0.0
C457 C 0.71459 0.99298 0.61247 0.0
C458 C 0.86725 0.13356 0.61733 0.0
C459 C 0.7391 0.94786 0.63962 0.0
H460 H 0.94424 0.02409 0.65382 0.0
H461 H 0.87718 0.0875 0.69499 0.0
H462 H 0.84275 0.97285 0.61611 0.0
H463 H 0.88805 0.03758 0.60818 0.0
H464 H 0.91247 0.99806 0.61968 0.0
H465 H 0.80561 0.09707 0.68554 0.0
H466 H 0.80616 0.11437 0.65894 0.0
H467 H 0.76092 0.04922 0.66654 0.0
H468 H 0.7832 0.11502 0.593 0.0
H469 H 0.67576 0.95836 0.61141 0.0
H470 H 0.89917 0.1242 0.61602 0.0
H471 H 0.87279 0.15314 0.63261 0.0
H472 H 0.87144 0.16159 0.60518 0.0
H473 H 0.76943 0.9362 0.6387 0.0
H474 H 0.7002 0.91357 0.63502 0.0
H475 H 0.73825 0.95851 0.65598 0.0
C476 C 0.88447 0.95453 0.9981 0.0
C477 C 0.93837 0.98122 0.99469 0.0
C478 C 0.84851 0.91548 0.98411 0.0
C479 C 0.8672 0.90202 0.96657 0.0
C480 C 0.92162 0.93 0.9628 0.0
C481 C 0.95663 0.96896 0.97704 0.0
C482 C 0.79082 0.88699 0.98863 0.0
C483 C 0.94315 0.91719 0.94424 0.0
C484 C 0.78584 0.76141 0.94608 0.0
C485 C 0.75746 0.76668 0.92947 0.0
C486 C 0.82199 0.80527 0.95817 0.0
C487 C 0.83052 0.85565 0.95328 0.0
C488 C 0.8031 0.86118 0.93607 0.0
C489 C 0.76639 0.81654 0.92452 0.0
C490 C 0.85026 0.79754 0.97642 0.0
C491 C 0.81188 0.91406 0.93001 0.0
H492 H 0.87064 0.96286 0.01213 0.0
H493 H 0.99853 0.98916 0.97464 0.0
H494 H 0.76729 0.88736 0.97501 0.0
H495 H 0.77759 0.84537 0.99187 0.0
H496 H 0.78234 0.90473 1.00207 0.0
H497 H 0.98538 0.94617 0.94237 0.0
H498 H 0.93878 0.87779 0.94586 0.0
H499 H 0.92065 0.91593 0.93 0.0
H500 H 0.77863 0.72271 0.94996 0.0
H501 H 0.7447 0.82056 0.91153 0.0
H502 H 0.84025 0.81048 0.99083 0.0
H503 H 0.89341 0.82197 0.97498 0.0
H504 H 0.8399 0.75596 0.97791 0.0
H505 H 0.79808 0.92977 0.94233 0.0
H506 H 0.7906 0.91227 0.91531 0.0
H507 H 0.85444 0.94178 0.9284 0.0
C508 C 0.97655 0.93686 0.32317 0.0
C509 C 0.02459 0.97474 0.33254 0.0
C510 C 0.97409 0.899 0.30919 0.0
C511 C 0.02068 0.89862 0.30472 0.0
C512 C 0.06945 0.93758 0.31374 0.0
C513 C 0.07085 0.97536 0.32743 0.0
C514 C 0.92146 0.85856 0.29965 0.0
C515 C 0.11993 0.93822 0.30954 0.0
C516 C 0.00882 0.76917 0.28821 0.0
C517 C 0.01638 0.77546 0.26698 0.0
C518 C 0.00994 0.80888 0.30062 0.0
C519 C 0.01817 0.85581 0.29154 0.0
C520 C 0.02512 0.86211 0.27005 0.0
C521 C 0.02454 0.82197 0.25803 0.0
C522 C 1.00309 0.80092 0.32352 0.0
C523 C 0.03327 0.91125 0.25976 0.0
H524 H 0.94069 0.93631 0.32697 0.0
H525 H 0.10811 0.00443 0.33465 0.0
H526 H 0.92356 0.8573 0.28263 0.0
H527 H 0.91086 0.81911 0.30521 0.0
H528 H 0.88963 0.86665 0.30346 0.0
H529 H 0.15486 0.97248 0.31707 0.0
H530 H 0.11773 0.90184 0.31526 0.0
H531 H 0.1256 0.93906 0.2927 0.0
H532 H 1.00309 0.73348 0.29519 0.0
H533 H 0.0299 0.82669 0.24158 0.0
H534 H 0.969 0.80431 0.32824 0.0
H535 H 0.0384 0.83195 0.33214 0.0
H536 H 0.99684 0.76206 0.32815 0.0
H537 H 1.00013 0.91778 0.26293 0.0
H538 H 0.03638 0.90933 0.2428 0.0
H539 H 0.06968 0.94576 0.26623 0.0
C540 C 0.1602 0.08836 0.65747 0.0
C541 C 0.12352 0.04226 0.66689 0.0
C542 C 0.19586 0.08803 0.64368 0.0
C543 C 0.1951 0.04054 0.63933 0.0
C544 C 0.15716 0.9936 0.64833 0.0
C545 C 0.12169 0.99499 0.66195 0.0
C546 C 0.23537 0.13882 0.63424 0.0
C547 C 0.15519 0.94221 0.64413 0.0
C548 C 0.26533 0.03088 0.5927 0.0
C549 C 0.31333 0.04029 0.60174 0.0
C550 C 0.22652 0.03107 0.6047 0.0
C551 C 0.2358 0.04051 0.62627 0.0
C552 C 0.28415 0.04993 0.63547 0.0
C553 C 0.32235 0.04987 0.62309 0.0
C554 C 0.17568 0.02135 0.59431 0.0
C555 C 0.29542 0.05975 0.65843 0.0
H556 H 0.16172 0.12502 0.66114 0.0
H557 H 0.09349 0.95921 0.66918 0.0
H558 H 0.27565 0.14973 0.63988 0.0
H559 H 0.23386 0.13397 0.61722 0.0
H560 H 0.22847 0.17159 0.63807 0.0
H561 H 0.12161 0.90877 0.65148 0.0
H562 H 0.152 0.93393 0.62729 0.0
H563 H 0.1922 0.94477 0.65008 0.0
H564 H 0.25839 0.02399 0.57617 0.0
H565 H 0.35908 0.05647 0.63019 0.0
H566 H 0.17006 0.05527 0.59728 0.0
H567 H 0.14198 0.98647 0.60085 0.0
H568 H 0.17469 0.01493 0.57738 0.0
H569 H 0.29309 0.09464 0.66329 0.0
H570 H 0.33488 0.06625 0.66318 0.0
H571 H 0.26533 0.02582 0.66683 0.0
C572 C 0.12716 0.22013 0.98467 0.0
C573 C 0.12808 0.184 0.99842 0.0
C574 C 0.17124 0.25321 0.97344 0.0
C575 C 0.21755 0.25016 0.97591 0.0
C576 C 0.21909 0.21421 0.98985 0.0
C577 C 0.17438 0.18161 1.00097 0.0
C578 C 0.16808 0.2912 0.95879 0.0
C579 C 0.26779 0.2098 0.99283 0.0
C580 C 0.31092 0.30225 0.93178 0.0
C581 C 0.34791 0.35286 0.93918 0.0
C582 C 0.26911 0.26785 0.94381 0.0
C583 C 0.26406 0.2845 0.9637 0.0
C584 C 0.30188 0.33509 0.97143 0.0
C585 C 0.34336 0.36861 0.9591 0.0
C586 C 0.22954 0.2142 0.93501 0.0
C587 C 0.29787 0.35426 0.99257 0.0
H588 H 0.09177 0.22253 0.98254 0.0
H589 H 0.17557 0.15381 0.01148 0.0
H590 H 0.1993 0.33189 0.963 0.0
H591 H 0.17487 0.28274 0.94286 0.0
H592 H 0.12938 0.2892 0.95886 0.0
H593 H 0.26296 0.18048 0.0045 0.0
H594 H 0.27744 0.19837 0.97799 0.0
H595 H 0.30181 0.24839 0.99777 0.0
H596 H 0.31384 0.28996 0.91634 0.0
H597 H 0.37229 0.40733 0.96506 0.0
H598 H 0.19045 0.21101 0.93306 0.0
H599 H 0.22531 0.18346 0.94582 0.0
H600 H 0.24079 0.20607 0.91984 0.0
H601 H 0.26123 0.35616 0.99313 0.0
H602 H 0.3318 0.39371 0.99669 0.0
H603 H 0.29565 0.32636 0.00441 0.0
C604 C 0.08033 0.25146 0.34101 0.0
C605 C 0.04326 0.19787 0.34217 0.0
C606 C 0.07523 0.28243 0.32587 0.0
C607 C 0.03149 0.25957 0.3117 0.0
C608 C 0.99436 0.2053 0.31251 0.0
C609 C 1.00094 0.17494 0.32764 0.0
C610 C 0.11621 0.33995 0.32532 0.0
C611 C 0.94686 0.17969 0.29783 0.0
C612 C 0.99506 0.35611 0.2893 0.0
C613 C 0.01754 0.36542 0.26991 0.0
C614 C 0.99745 0.32013 0.30266 0.0
C615 C 0.02375 0.29332 0.29671 0.0
C616 C 0.04562 0.30162 0.27703 0.0
C617 C 0.04193 0.33725 0.26382 0.0
C618 C 0.9732 0.31204 0.32345 0.0
C619 C 0.07433 0.27408 0.27019 0.0
H620 H 0.11347 0.2694 0.35203 0.0
H621 H 0.97204 0.13361 0.32849 0.0
H622 H 0.13201 0.35002 0.30968 0.0
H623 H 0.09803 0.36408 0.32877 0.0
H624 H 0.14946 0.35094 0.33662 0.0
H625 H 0.92308 0.13663 0.29979 0.0
H626 H 0.92157 0.19699 0.3004 0.0
H627 H 0.95917 0.18725 0.28165 0.0
H628 H 0.97682 0.37808 0.29435 0.0
H629 H 0.05853 0.34329 0.24874 0.0
H630 H 0.00457 0.3271 0.33583 0.0
H631 H 0.94681 0.2696 0.32596 0.0
H632 H 0.95031 0.33238 0.32504 0.0
H633 H 0.10981 0.28653 0.28039 0.0
H634 H 0.08673 0.2827 0.25402 0.0
H635 H 0.04901 0.23104 0.27155 0.0
loop_
_geom_bond_atom_site_label_1
_geom_bond_atom_site_label_2
_geom_bond_distance
_geom_bond_site_symmetry_2
_ccdc_geom_bond_type
Mn0 O5 2.095 . S
Mn0 O15 2.162 . S
Mn0 O16 2.297 1_545 S
Mn0 O24 2.385 1_545 S
Mn0 O25 2.209 1_455 S
Mn0 O26 2.094 . S
Mn1 O6 2.121 . S
Mn1 N8 2.257 . S
Mn1 N17 2.282 1_554 S
Mn1 O25 2.215 . S
Mn1 O27 2.117 1_655 S
C2 O24 1.234 1_655 S
C2 O25 1.283 1_565 S
C3 O15 1.281 1_565 S
C3 O16 1.236 . S
C4 O26 1.240 . S
C4 O27 1.264 . S
O5 Mn0 2.095 . S
O5 C14 1.250 . S
O6 Mn1 2.121 . S
O6 C14 1.258 1_655 S
C7 N8 1.326 . S
C7 C11 1.460 . S
C7 H13 0.929 . S
N8 Mn1 2.257 . S
N8 C7 1.326 . S
N8 C12 1.362 1_554 S
C9 C10 1.258 1_556 S
C9 C12 1.431 . S
C9 C29 1.449 . S
C10 C9 1.258 1_554 S
C10 C11 1.477 . S
C10 H30 0.931 1_554 S
C11 C7 1.460 . S
C11 C10 1.477 . S
C11 H31 0.930 . S
C12 N8 1.362 1_556 S
C12 C9 1.431 . S
C12 C22 1.476 . S
H13 C7 0.929 . S
C14 O5 1.250 . S
C14 O6 1.258 1_455 S
O15 Mn0 2.162 . S
O15 C3 1.281 1_545 S
O16 Mn0 2.297 1_565 S
O16 C3 1.236 . S
N17 Mn1 2.282 1_556 S
N17 C18 1.328 . S
N17 C22 1.318 . S
C18 N17 1.328 . S
C18 C19 1.457 . S
C18 H23 0.929 1_655 S
C19 C18 1.457 . S
C19 C20 1.291 . S
C19 H32 0.931 . S
C20 C19 1.291 . S
C20 C21 1.373 . S
C20 H33 0.929 . S
C21 C20 1.373 . S
C21 C22 1.396 . S
C21 C28 1.403 . S
C22 C12 1.476 . S
C22 N17 1.318 . S
C22 C21 1.396 . S
H23 C18 0.929 1_455 S
O24 Mn0 2.385 1_565 S
O24 C2 1.234 1_455 S
O25 Mn0 2.209 1_655 S
O25 Mn1 2.215 . S
O25 C2 1.283 1_545 S
O26 Mn0 2.094 . S
O26 C4 1.240 . S
O27 Mn1 2.117 1_455 S
O27 C4 1.264 . S
C28 C21 1.403 . S
C28 C29 1.399 . S
C28 H34 0.929 . S
C29 C9 1.449 . S
C29 C28 1.399 . S
C29 H35 0.930 . S
H30 C10 0.931 1_556 S
H31 C11 0.930 . S
H32 C19 0.931 . S
H33 C20 0.929 . S
H34 C28 0.929 . S
H35 C29 0.930 . S
Mn36 O41 2.095 . S
Mn36 O51 2.162 1_545 S
Mn36 O52 2.297 1_655 S
Mn36 O60 2.385 1_655 S
Mn36 O61 2.209 1_655 S
Mn36 O62 2.094 . S
Mn37 O42 2.121 . S
Mn37 N44 2.257 . S
Mn37 N53 2.282 . S
Mn37 O61 2.215 . S
Mn37 O63 2.117 1_455 S
C38 O60 1.234 . S
C38 O61 1.283 . S
C39 O51 1.281 1_455 S
C39 O52 1.236 1_565 S
C40 O62 1.240 . S
C40 O63 1.264 . S
O41 Mn36 2.095 . S
O41 C50 1.250 1_655 S
O42 Mn37 2.121 . S
O42 C50 1.258 . S
C43 N44 1.326 . S
C43 C47 1.460 . S
C43 H49 0.929 . S
N44 Mn37 2.257 . S
N44 C43 1.326 . S
N44 C48 1.362 . S
C45 C46 1.258 . S
C45 C48 1.431 . S
C45 C65 1.449 . S
C46 C45 1.258 . S
C46 C47 1.477 . S
C46 H66 0.931 . S
C47 C43 1.460 . S
C47 C46 1.477 . S
C47 H67 0.930 . S
C48 N44 1.362 . S
C48 C45 1.431 . S
C48 C58 1.476 . S
H49 C43 0.929 . S
C50 O41 1.250 1_455 S
C50 O42 1.258 . S
O51 Mn36 2.162 1_565 S
O51 C39 1.281 1_655 S
O52 Mn36 2.297 1_455 S
O52 C39 1.236 1_545 S
N53 Mn37 2.282 . S
N53 C54 1.328 . S
N53 C58 1.318 . S
C54 N53 1.328 . S
C54 C55 1.457 . S
C54 H59 0.929 . S
C55 C54 1.457 . S
C55 C56 1.291 . S
C55 H68 0.931 . S
C56 C55 1.291 . S
C56 C57 1.373 . S
C56 H69 0.929 . S
C57 C56 1.373 . S
C57 C58 1.396 . S
C57 C64 1.403 . S
C58 C48 1.476 . S
C58 N53 1.318 . S
C58 C57 1.396 . S
H59 C54 0.929 . S
O60 Mn36 2.385 1_455 S
O60 C38 1.234 . S
O61 Mn36 2.209 1_455 S
O61 Mn37 2.215 . S
O61 C38 1.283 . S
O62 Mn36 2.094 . S
O62 C40 1.240 . S
O63 Mn37 2.117 1_655 S
O63 C40 1.264 . S
C64 C57 1.403 . S
C64 C65 1.399 . S
C64 H70 0.929 . S
C65 C45 1.449 . S
C65 C64 1.399 . S
C65 H71 0.930 . S
H66 C46 0.931 . S
H67 C47 0.930 . S
H68 C55 0.931 . S
H69 C56 0.929 . S
H70 C64 0.929 . S
H71 C65 0.930 . S
Mn72 O77 2.095 1_455 S
Mn72 O87 2.162 . S
Mn72 O88 2.297 . S
Mn72 O96 2.385 . S
Mn72 O97 2.209 . S
Mn72 O98 2.094 1_445 S
Mn73 O78 2.121 . S
Mn73 N80 2.257 . S
Mn73 N89 2.282 1_655 S
Mn73 O97 2.215 1_655 S
Mn73 O99 2.117 . S
C74 O96 1.234 . S
C74 O97 1.283 . S
C75 O87 1.281 . S
C75 O88 1.236 . S
C76 O98 1.240 . S
C76 O99 1.264 1_565 S
O77 Mn72 2.095 1_655 S
O77 C86 1.250 . S
O78 Mn73 2.121 . S
O78 C86 1.258 . S
C79 N80 1.326 . S
C79 C83 1.467 1_655 S
C79 H85 0.929 . S
N80 Mn73 2.257 . S
N80 C79 1.326 . S
N80 C84 1.362 1_655 S
C81 C82 1.258 . S
C81 C84 1.431 . S
C81 C101 1.449 . S
C82 C81 1.258 . S
C82 C83 1.480 . S
C82 H102 0.931 . S
C83 C79 1.467 1_455 S
C83 C82 1.480 . S
C83 H103 0.921 1_455 S
C84 N80 1.362 1_455 S
C84 C81 1.431 . S
C84 C94 1.476 . S
H85 C79 0.929 . S
C86 O77 1.250 . S
C86 O78 1.258 . S
O87 Mn72 2.162 . S
O87 C75 1.281 . S
O88 Mn72 2.297 . S
O88 C75 1.236 . S
N89 Mn73 2.282 1_455 S
N89 C90 1.328 . S
N89 C94 1.318 . S
C90 N89 1.328 . S
C90 C91 1.457 . S
C90 H95 0.929 1_455 S
C91 C90 1.457 . S
C91 C92 1.291 . S
C91 H104 0.931 . S
C92 C91 1.291 . S
C92 C93 1.373 . S
C92 H105 0.929 . S
C93 C92 1.373 . S
C93 C94 1.396 . S
C93 C100 1.403 . S
C94 C84 1.476 . S
C94 N89 1.318 . S
C94 C93 1.396 . S
H95 C90 0.929 1_655 S
O96 Mn72 2.385 . S
O96 C74 1.234 . S
O97 Mn72 2.209 . S
O97 Mn73 2.215 1_455 S
O97 C74 1.283 . S
O98 Mn72 2.094 1_665 S
O98 C76 1.240 . S
O99 Mn73 2.117 . S
O99 C76 1.264 1_545 S
C100 C93 1.403 . S
C100 C101 1.399 . S
C100 H106 0.929 . S
C101 C81 1.449 . S
C101 C100 1.399 . S
C101 H107 0.930 . S
H102 C82 0.931 . S
H103 C83 0.921 1_655 S
H104 C91 0.931 . S
H105 C92 0.929 . S
H106 C100 0.929 . S
H107 C101 0.930 . S
H108 C127 0.949 . S
H109 C128 0.950 . S
H110 C130 0.950 . S
H111 C131 0.950 . S
H112 C133 0.950 . S
H113 C136 0.950 . S
H114 C137 0.950 . S
H115 C139 0.951 . S
H116 C140 0.949 . S
H117 C142 0.949 . S
H118 C143 0.950 . S
H119 C145 0.950 . S
H120 C146 0.950 . S
H121 C148 0.950 . S
H122 C151 0.950 . S
H123 C152 0.950 . S
H124 C154 0.951 . S
H125 C155 0.949 . S
C126 C127 1.376 . S
C126 C131 1.386 1_455 S
C126 C132 1.483 . S
C127 H108 0.949 . S
C127 C126 1.376 . S
C127 C128 1.397 . S
C128 H109 0.950 . S
C128 C127 1.397 . S
C128 C129 1.391 . S
C129 C128 1.391 . S
C129 C130 1.405 1_455 S
C130 H110 0.950 . S
C130 C129 1.405 1_655 S
C130 C131 1.367 . S
C131 H111 0.950 . S
C131 C126 1.386 1_655 S
C131 C130 1.367 . S
C132 C126 1.483 . S
C132 C133 1.382 . S
C132 C134 1.403 . S
C133 H112 0.950 . S
C133 C132 1.382 . S
C133 C149 1.411 . S
C134 C132 1.403 . S
C134 C135 1.489 . S
C134 C148 1.411 . S
C135 C134 1.489 . S
C135 C136 1.383 . S
C135 C140 1.382 1_455 S
C136 H113 0.950 . S
C136 C135 1.383 . S
C136 C137 1.395 . S
C137 H114 0.950 . S
C137 C136 1.395 . S
C137 C138 1.288 . S
C138 C137 1.288 . S
C138 C139 1.392 1_455 S
C139 H115 0.951 . S
C139 C138 1.392 1_655 S
C139 C140 1.392 . S
C140 H116 0.949 . S
C140 C135 1.382 1_655 S
C140 C139 1.392 . S
C141 C142 1.376 1_455 S
C141 C146 1.386 . S
C141 C147 1.483 . S
C142 H117 0.949 . S
C142 C141 1.376 1_655 S
C142 C143 1.397 . S
C143 H118 0.950 . S
C143 C142 1.397 . S
C143 C144 1.391 1_655 S
C144 C143 1.391 1_455 S
C144 C145 1.405 . S
C145 H119 0.950 . S
C145 C144 1.405 . S
C145 C146 1.367 . S
C146 H120 0.950 . S
C146 C141 1.386 . S
C146 C145 1.367 . S
C147 C141 1.483 . S
C147 C148 1.382 . S
C147 C149 1.403 . S
C148 H121 0.950 . S
C148 C134 1.411 . S
C148 C147 1.382 . S
C149 C133 1.411 . S
C149 C147 1.403 . S
C149 C150 1.489 . S
C150 C149 1.489 . S
C150 C151 1.383 1_455 S
C150 C155 1.382 . S
C151 H122 0.950 . S
C151 C150 1.383 1_655 S
C151 C152 1.395 . S
C152 H123 0.950 . S
C152 C151 1.395 . S
C152 C153 1.288 1_655 S
C153 C152 1.288 1_455 S
C153 C154 1.392 . S
C154 H124 0.951 . S
C154 C153 1.392 . S
C154 C155 1.392 . S
C155 H125 0.949 . S
C155 C150 1.382 . S
C155 C154 1.392 . S
H156 C175 0.949 . S
H157 C176 0.950 . S
H158 C178 0.950 . S
H159 C179 0.950 . S
H160 C181 0.950 . S
H161 C184 0.950 . S
H162 C185 0.950 . S
H163 C187 0.951 . S
H164 C188 0.949 . S
H165 C190 0.949 . S
H166 C191 0.950 . S
H167 C193 0.950 . S
H168 C194 0.950 . S
H169 C196 0.950 . S
H170 C199 0.950 . S
H171 C200 0.950 . S
H172 C202 0.951 . S
H173 C203 0.949 . S
C174 C175 1.376 . S
C174 C179 1.386 . S
C174 C180 1.483 . S
C175 H156 0.949 . S
C175 C174 1.376 . S
C175 C176 1.397 . S
C176 H157 0.950 . S
C176 C175 1.397 . S
C176 C177 1.391 . S
C177 C176 1.391 . S
C177 C178 1.405 . S
C178 H158 0.950 . S
C178 C177 1.405 . S
C178 C179 1.367 . S
C179 H159 0.950 . S
C179 C174 1.386 . S
C179 C178 1.367 . S
C180 C174 1.483 . S
C180 C181 1.382 . S
C180 C182 1.403 . S
C181 H160 0.950 . S
C181 C180 1.382 . S
C181 C197 1.411 . S
C182 C180 1.403 . S
C182 C183 1.489 . S
C182 C196 1.411 . S
C183 C182 1.489 . S
C183 C184 1.383 . S
C183 C188 1.382 . S
C184 H161 0.950 . S
C184 C183 1.383 . S
C184 C185 1.395 . S
C185 H162 0.950 . S
C185 C184 1.395 . S
C185 C186 1.288 . S
C186 C185 1.288 . S
C186 C187 1.392 . S
C187 H163 0.951 . S
C187 C186 1.392 . S
C187 C188 1.392 . S
C188 H164 0.949 . S
C188 C183 1.382 . S
C188 C187 1.392 . S
C189 C190 1.376 . S
C189 C194 1.386 . S
C189 C195 1.483 . S
C190 H165 0.949 . S
C190 C189 1.376 . S
C190 C191 1.397 . S
C191 H166 0.950 . S
C191 C190 1.397 . S
C191 C192 1.391 . S
C192 C191 1.391 . S
C192 C193 1.405 . S
C193 H167 0.950 . S
C193 C192 1.405 . S
C193 C194 1.367 . S
C194 H168 0.950 . S
C194 C189 1.386 . S
C194 C193 1.367 . S
C195 C189 1.483 . S
C195 C196 1.382 . S
C195 C197 1.403 . S
C196 H169 0.950 . S
C196 C182 1.411 . S
C196 C195 1.382 . S
C197 C181 1.411 . S
C197 C195 1.403 . S
C197 C198 1.489 . S
C198 C197 1.489 . S
C198 C199 1.383 . S
C198 C203 1.382 . S
C199 H170 0.950 . S
C199 C198 1.383 . S
C199 C200 1.395 . S
C200 H171 0.950 . S
C200 C199 1.395 . S
C200 C201 1.288 . S
C201 C200 1.288 . S
C201 C202 1.392 . S
C202 H172 0.951 . S
C202 C201 1.392 . S
C202 C203 1.392 . S
C203 H173 0.949 . S
C203 C198 1.382 . S
C203 C202 1.392 . S
H204 C223 0.949 . S
H205 C224 0.950 . S
H206 C226 0.950 . S
H207 C227 0.950 . S
H208 C229 0.950 . S
H209 C232 0.950 . S
H210 C233 0.950 . S
H211 C235 0.951 . S
H212 C236 0.949 . S
H213 C238 0.949 . S
H214 C239 0.950 . S
H215 C241 0.950 . S
H216 C242 0.950 . S
H217 C244 0.950 . S
H218 C247 0.950 . S
H219 C248 0.950 . S
H220 C250 0.951 . S
H221 C251 0.949 . S
C222 C223 1.376 . S
C222 C227 1.386 . S
C222 C228 1.483 . S
C223 H204 0.949 . S
C223 C222 1.376 . S
C223 C224 1.397 . S
C224 H205 0.950 . S
C224 C223 1.397 . S
C224 C225 1.391 . S
C225 C224 1.391 . S
C225 C226 1.405 . S
C226 H206 0.950 . S
C226 C225 1.405 . S
C226 C227 1.367 . S
C227 H207 0.950 . S
C227 C222 1.386 . S
C227 C226 1.367 . S
C228 C222 1.483 . S
C228 C229 1.382 . S
C228 C230 1.403 . S
C229 H208 0.950 . S
C229 C228 1.382 . S
C229 C245 1.411 . S
C230 C228 1.403 . S
C230 C231 1.489 . S
C230 C244 1.411 . S
C231 C230 1.489 . S
C231 C232 1.383 . S
C231 C236 1.382 . S
C232 H209 0.950 . S
C232 C231 1.383 . S
C232 C233 1.395 . S
C233 H210 0.950 . S
C233 C232 1.395 . S
C233 C234 1.288 . S
C234 C233 1.288 . S
C234 C235 1.392 . S
C235 H211 0.951 . S
C235 C234 1.392 . S
C235 C236 1.392 . S
C236 H212 0.949 . S
C236 C231 1.382 . S
C236 C235 1.392 . S
C237 C238 1.376 . S
C237 C242 1.386 . S
C237 C243 1.483 . S
C238 H213 0.949 . S
C238 C237 1.376 . S
C238 C239 1.397 . S
C239 H214 0.950 . S
C239 C238 1.397 . S
C239 C240 1.391 . S
C240 C239 1.391 . S
C240 C241 1.405 . S
C241 H215 0.950 . S
C241 C240 1.405 . S
C241 C242 1.367 . S
C242 H216 0.950 . S
C242 C237 1.386 . S
C242 C241 1.367 . S
C243 C237 1.483 . S
C243 C244 1.382 . S
C243 C245 1.403 . S
C244 H217 0.950 . S
C244 C230 1.411 . S
C244 C243 1.382 . S
C245 C229 1.411 . S
C245 C243 1.403 . S
C245 C246 1.489 . S
C246 C245 1.489 . S
C246 C247 1.383 . S
C246 C251 1.382 . S
C247 H218 0.950 . S
C247 C246 1.383 . S
C247 C248 1.395 . S
C248 H219 0.950 . S
C248 C247 1.395 . S
C248 C249 1.288 . S
C249 C248 1.288 . S
C249 C250 1.392 . S
C250 H220 0.951 . S
C250 C249 1.392 . S
C250 C251 1.392 . S
C251 H221 0.949 . S
C251 C246 1.382 . S
C251 C250 1.392 . S
C252 C253 1.388 1_655 S
C252 C254 1.395 1_655 S
C252 H268 0.931 . S
C253 C252 1.388 1_455 S
C253 C257 1.376 . S
C254 C252 1.395 1_455 S
C254 C255 1.369 . S
C254 C258 1.531 1_455 S
C255 C254 1.369 . S
C255 C256 1.410 . S
C255 C263 1.503 . S
C256 C255 1.410 . S
C256 C257 1.392 . S
C256 C259 1.511 . S
C257 C253 1.376 . S
C257 C256 1.392 . S
C257 H269 0.929 . S
C258 C254 1.531 1_655 S
C258 H270 0.960 . S
C258 H271 0.962 . S
C258 H272 0.960 . S
C259 C256 1.511 . S
C259 H273 0.961 . S
C259 H274 0.961 . S
C259 H275 0.961 . S
C260 C261 1.370 1_655 S
C260 C262 1.359 1_655 S
C260 H276 0.931 . S
C261 C260 1.370 1_455 S
C261 C265 1.408 . S
C262 C260 1.359 1_455 S
C262 C263 1.378 . S
C262 C266 1.520 1_455 S
C263 C255 1.503 . S
C263 C262 1.378 . S
C263 C264 1.403 . S
C264 C263 1.403 . S
C264 C265 1.404 . S
C264 C267 1.539 . S
C265 C261 1.408 . S
C265 C264 1.404 . S
C265 H277 0.930 . S
C266 C262 1.520 1_655 S
C266 H278 0.956 . S
C266 H279 0.961 . S
C266 H280 0.961 . S
C267 C264 1.539 . S
C267 H281 0.958 . S
C267 H282 0.961 . S
C267 H283 0.960 . S
H268 C252 0.931 . S
H269 C257 0.929 . S
H270 C258 0.960 . S
H271 C258 0.962 . S
H272 C258 0.960 . S
H273 C259 0.961 . S
H274 C259 0.961 . S
H275 C259 0.961 . S
H276 C260 0.931 . S
H277 C265 0.930 . S
H278 C266 0.956 . S
H279 C266 0.961 . S
H280 C266 0.961 . S
H281 C267 0.958 . S
H282 C267 0.961 . S
H283 C267 0.960 . S
C284 C285 1.391 . S
C284 C286 1.394 . S
C284 H300 0.931 . S
C285 C284 1.391 . S
C285 C289 1.376 . S
C286 C284 1.394 . S
C286 C287 1.369 . S
C286 C290 1.531 . S
C287 C286 1.369 . S
C287 C288 1.410 . S
C287 C295 1.503 . S
C288 C287 1.410 . S
C288 C289 1.392 . S
C288 C291 1.511 . S
C289 C285 1.376 . S
C289 C288 1.392 . S
C289 H301 0.929 . S
C290 C286 1.531 . S
C290 H302 0.960 . S
C290 H303 0.962 1_545 S
C290 H304 0.960 . S
C291 C288 1.511 . S
C291 H305 0.961 . S
C291 H306 0.961 . S
C291 H307 0.961 . S
C292 C293 1.370 . S
C292 C294 1.363 . S
C292 H308 0.932 . S
C293 C292 1.370 . S
C293 C297 1.408 . S
C294 C292 1.363 . S
C294 C295 1.370 . S
C294 C298 1.524 1_545 S
C295 C287 1.503 . S
C295 C294 1.370 . S
C295 C296 1.403 . S
C296 C295 1.403 . S
C296 C297 1.404 . S
C296 C299 1.539 . S
C297 C293 1.408 . S
C297 C296 1.404 . S
C297 H309 0.930 . S
C298 C294 1.524 1_565 S
C298 H310 0.956 . S
C298 H311 0.961 . S
C298 H312 0.961 . S
C299 C296 1.539 . S
C299 H313 0.958 . S
C299 H314 0.961 . S
C299 H315 0.960 . S
H300 C284 0.931 . S
H301 C289 0.929 . S
H302 C290 0.960 . S
H303 C290 0.962 1_565 S
H304 C290 0.960 . S
H305 C291 0.961 . S
H306 C291 0.961 . S
H307 C291 0.961 . S
H308 C292 0.932 . S
H309 C297 0.930 . S
H310 C298 0.956 . S
H311 C298 0.961 . S
H312 C298 0.961 . S
H313 C299 0.958 . S
H314 C299 0.961 . S
H315 C299 0.960 . S
C316 C317 1.391 . S
C316 C318 1.394 . S
C316 H332 0.931 . S
C317 C316 1.391 . S
C317 C321 1.376 . S
C318 C316 1.394 . S
C318 C319 1.369 . S
C318 C322 1.531 . S
C319 C318 1.369 . S
C319 C320 1.410 . S
C319 C327 1.503 . S
C320 C319 1.410 . S
C320 C321 1.392 . S
C320 C323 1.511 . S
C321 C317 1.376 . S
C321 C320 1.392 . S
C321 H333 0.929 . S
C322 C318 1.531 . S
C322 H334 0.960 . S
C322 H335 0.962 . S
C322 H336 0.960 . S
C323 C320 1.511 . S
C323 H337 0.961 . S
C323 H338 0.961 . S
C323 H339 0.961 . S
C324 C325 1.370 . S
C324 C326 1.363 . S
C324 H340 0.931 . S
C325 C324 1.370 . S
C325 C329 1.408 . S
C326 C324 1.363 . S
C326 C327 1.370 . S
C326 C330 1.524 . S
C327 C319 1.503 . S
C327 C326 1.370 . S
C327 C328 1.403 . S
C328 C327 1.403 . S
C328 C329 1.404 . S
C328 C331 1.539 . S
C329 C325 1.408 . S
C329 C328 1.404 . S
C329 H341 0.930 . S
C330 C326 1.524 . S
C330 H342 0.956 . S
C330 H343 0.961 . S
C330 H344 0.961 . S
C331 C328 1.539 . S
C331 H345 0.958 . S
C331 H346 0.961 . S
C331 H347 0.960 . S
H332 C316 0.931 . S
H333 C321 0.929 . S
H334 C322 0.960 . S
H335 C322 0.962 . S
H336 C322 0.960 . S
H337 C323 0.961 . S
H338 C323 0.961 . S
H339 C323 0.961 . S
H340 C324 0.931 . S
H341 C329 0.930 . S
H342 C330 0.956 . S
H343 C330 0.961 . S
H344 C330 0.961 . S
H345 C331 0.958 . S
H346 C331 0.961 . S
H347 C331 0.960 . S
C348 C349 1.391 . S
C348 C350 1.394 . S
C348 H364 0.931 . S
C349 C348 1.391 . S
C349 C353 1.376 1_455 S
C350 C348 1.394 . S
C350 C351 1.369 . S
C350 C354 1.531 . S
C351 C350 1.369 . S
C351 C352 1.410 1_455 S
C351 C359 1.503 . S
C352 C351 1.410 1_655 S
C352 C353 1.392 . S
C352 C355 1.511 . S
C353 C349 1.376 1_655 S
C353 C352 1.392 . S
C353 H365 0.929 . S
C354 C350 1.531 . S
C354 H366 0.960 . S
C354 H367 0.962 . S
C354 H368 0.960 . S
C355 C352 1.511 . S
C355 H369 0.961 . S
C355 H370 0.961 . S
C355 H371 0.961 . S
C356 C357 1.370 . S
C356 C358 1.363 . S
C356 H372 0.931 . S
C357 C356 1.370 . S
C357 C361 1.408 . S
C358 C356 1.363 . S
C358 C359 1.370 . S
C358 C362 1.524 . S
C359 C351 1.503 . S
C359 C358 1.370 . S
C359 C360 1.403 . S
C360 C359 1.403 . S
C360 C361 1.404 . S
C360 C363 1.539 . S
C361 C357 1.408 . S
C361 C360 1.404 . S
C361 H373 0.930 . S
C362 C358 1.524 . S
C362 H374 0.956 . S
C362 H375 0.961 1_455 S
C362 H376 0.961 . S
C363 C360 1.539 . S
C363 H377 0.958 . S
C363 H378 0.961 . S
C363 H379 0.960 . S
H364 C348 0.931 . S
H365 C353 0.929 . S
H366 C354 0.960 . S
H367 C354 0.962 . S
H368 C354 0.960 . S
H369 C355 0.961 . S
H370 C355 0.961 . S
H371 C355 0.961 . S
H372 C356 0.931 . S
H373 C361 0.930 . S
H374 C362 0.956 . S
H375 C362 0.961 1_655 S
H376 C362 0.961 . S
H377 C363 0.958 . S
H378 C363 0.961 . S
H379 C363 0.960 . S
C380 C381 1.391 . S
C380 C382 1.394 . S
C380 H396 0.931 . S
C381 C380 1.391 . S
C381 C385 1.376 . S
C382 C380 1.394 . S
C382 C383 1.369 . S
C382 C386 1.531 . S
C383 C382 1.369 . S
C383 C384 1.410 . S
C383 C391 1.503 . S
C384 C383 1.410 . S
C384 C385 1.392 . S
C384 C387 1.511 . S
C385 C381 1.376 . S
C385 C384 1.392 . S
C385 H397 0.929 . S
C386 C382 1.531 . S
C386 H398 0.960 . S
C386 H399 0.962 . S
C386 H400 0.960 . S
C387 C384 1.511 . S
C387 H401 0.961 . S
C387 H402 0.961 . S
C387 H403 0.961 . S
C388 C389 1.370 . S
C388 C390 1.363 . S
C388 H404 0.931 . S
C389 C388 1.370 . S
C389 C393 1.408 . S
C390 C388 1.363 . S
C390 C391 1.370 . S
C390 C394 1.524 . S
C391 C383 1.503 . S
C391 C390 1.370 . S
C391 C392 1.403 . S
C392 C391 1.403 . S
C392 C393 1.404 . S
C392 C395 1.539 1_545 S
C393 C389 1.408 . S
C393 C392 1.404 . S
C393 H405 0.930 1_545 S
C394 C390 1.524 . S
C394 H406 0.956 . S
C394 H407 0.961 . S
C394 H408 0.961 . S
C395 C392 1.539 1_565 S
C395 H409 0.958 . S
C395 H410 0.961 . S
C395 H411 0.960 . S
H396 C380 0.931 . S
H397 C385 0.929 . S
H398 C386 0.960 . S
H399 C386 0.962 . S
H400 C386 0.960 . S
H401 C387 0.961 . S
H402 C387 0.961 . S
H403 C387 0.961 . S
H404 C388 0.931 . S
H405 C393 0.930 1_565 S
H406 C394 0.956 . S
H407 C394 0.961 . S
H408 C394 0.961 . S
H409 C395 0.958 . S
H410 C395 0.961 . S
H411 C395 0.960 . S
C412 C413 1.391 . S
C412 C414 1.394 . S
C412 H428 0.931 . S
C413 C412 1.391 . S
C413 C417 1.376 . S
C414 C412 1.394 . S
C414 C415 1.369 . S
C414 C418 1.531 . S
C415 C414 1.369 . S
C415 C416 1.410 . S
C415 C423 1.503 . S
C416 C415 1.410 . S
C416 C417 1.392 . S
C416 C419 1.511 . S
C417 C413 1.376 . S
C417 C416 1.392 . S
C417 H429 0.929 . S
C418 C414 1.531 . S
C418 H430 0.960 . S
C418 H431 0.962 . S
C418 H432 0.960 . S
C419 C416 1.511 . S
C419 H433 0.961 . S
C419 H434 0.961 . S
C419 H435 0.961 . S
C420 C421 1.370 . S
C420 C422 1.363 . S
C420 H436 0.931 . S
C421 C420 1.370 . S
C421 C425 1.408 . S
C422 C420 1.363 . S
C422 C423 1.370 . S
C422 C426 1.524 . S
C423 C415 1.503 . S
C423 C422 1.370 . S
C423 C424 1.403 . S
C424 C423 1.403 . S
C424 C425 1.404 . S
C424 C427 1.539 . S
C425 C421 1.408 . S
C425 C424 1.404 . S
C425 H437 0.930 . S
C426 C422 1.524 . S
C426 H438 0.956 . S
C426 H439 0.961 . S
C426 H440 0.961 . S
C427 C424 1.539 . S
C427 H441 0.958 . S
C427 H442 0.961 . S
C427 H443 0.960 . S
H428 C412 0.931 . S
H429 C417 0.929 . S
H430 C418 0.960 . S
H431 C418 0.962 . S
H432 C418 0.960 . S
H433 C419 0.961 . S
H434 C419 0.961 . S
H435 C419 0.961 . S
H436 C420 0.931 . S
H437 C425 0.930 . S
H438 C426 0.956 . S
H439 C426 0.961 . S
H440 C426 0.961 . S
H441 C427 0.958 . S
H442 C427 0.961 . S
H443 C427 0.960 . S
C444 C445 1.391 . S
C444 C446 1.394 . S
C444 H460 0.907 1_545 S
C445 C444 1.391 . S
C445 C449 1.376 . S
C446 C444 1.394 . S
C446 C447 1.369 . S
C446 C450 1.531 1_545 S
C447 C446 1.369 . S
C447 C448 1.410 . S
C447 C455 1.503 . S
C448 C447 1.410 . S
C448 C449 1.392 . S
C448 C451 1.511 . S
C449 C445 1.376 . S
C449 C448 1.392 . S
C449 H461 0.929 . S
C450 C446 1.531 1_565 S
C450 H462 0.960 . S
C450 H463 0.962 . S
C450 H464 0.960 . S
C451 C448 1.511 . S
C451 H465 0.961 . S
C451 H466 0.961 . S
C451 H467 0.961 . S
C452 C453 1.370 . S
C452 C454 1.363 . S
C452 H468 0.931 . S
C453 C452 1.370 . S
C453 C457 1.408 . S
C454 C452 1.363 . S
C454 C455 1.370 . S
C454 C458 1.524 . S
C455 C447 1.503 . S
C455 C454 1.370 . S
C455 C456 1.403 . S
C456 C455 1.403 . S
C456 C457 1.404 . S
C456 C459 1.539 . S
C457 C453 1.408 . S
C457 C456 1.404 . S
C457 H469 0.930 . S
C458 C454 1.524 . S
C458 H470 0.956 . S
C458 H471 0.961 . S
C458 H472 0.961 . S
C459 C456 1.539 . S
C459 H473 0.958 1_545 S
C459 H474 0.961 . S
C459 H475 0.960 . S
H460 C444 0.907 1_565 S
H461 C449 0.929 . S
H462 C450 0.960 . S
H463 C450 0.962 . S
H464 C450 0.960 . S
H465 C451 0.961 . S
H466 C451 0.961 . S
H467 C451 0.961 . S
H468 C452 0.931 . S
H469 C457 0.930 . S
H470 C458 0.956 . S
H471 C458 0.961 . S
H472 C458 0.961 . S
H473 C459 0.958 1_565 S
H474 C459 0.961 . S
H475 C459 0.960 . S
C476 C477 1.386 1_556 S
C476 C478 1.394 . S
C476 H492 0.931 1_556 S
C477 C476 1.386 1_554 S
C477 C481 1.348 1_554 S
C478 C476 1.394 . S
C478 C479 1.369 . S
C478 C482 1.531 . S
C479 C478 1.369 . S
C479 C480 1.410 . S
C479 C487 1.503 . S
C480 C479 1.410 . S
C480 C481 1.392 . S
C480 C483 1.511 . S
C481 C477 1.348 1_556 S
C481 C480 1.392 . S
C481 H493 0.929 . S
C482 C478 1.531 . S
C482 H494 0.960 . S
C482 H495 0.962 . S
C482 H496 0.960 . S
C483 C480 1.511 . S
C483 H497 0.961 . S
C483 H498 0.961 . S
C483 H499 0.961 . S
C484 C485 1.370 . S
C484 C486 1.363 . S
C484 H500 0.931 . S
C485 C484 1.370 . S
C485 C489 1.408 . S
C486 C484 1.363 . S
C486 C487 1.370 . S
C486 C490 1.524 . S
C487 C479 1.503 . S
C487 C486 1.370 . S
C487 C488 1.403 . S
C488 C487 1.403 . S
C488 C489 1.404 . S
C488 C491 1.539 . S
C489 C485 1.408 . S
C489 C488 1.404 . S
C489 H501 0.930 . S
C490 C486 1.524 . S
C490 H502 0.956 . S
C490 H503 0.961 . S
C490 H504 0.961 . S
C491 C488 1.539 . S
C491 H505 0.958 . S
C491 H506 0.961 . S
C491 H507 0.960 . S
H492 C476 0.931 1_554 S
H493 C481 0.929 . S
H494 C482 0.960 . S
H495 C482 0.962 . S
H496 C482 0.960 . S
H497 C483 0.961 . S
H498 C483 0.961 . S
H499 C483 0.961 . S
H500 C484 0.931 . S
H501 C489 0.930 . S
H502 C490 0.956 . S
H503 C490 0.961 . S
H504 C490 0.961 . S
H505 C491 0.958 . S
H506 C491 0.961 . S
H507 C491 0.960 . S
C508 C509 1.391 1_655 S
C508 C510 1.394 . S
C508 H524 0.931 . S
C509 C508 1.391 1_455 S
C509 C513 1.376 . S
C510 C508 1.394 . S
C510 C511 1.369 1_655 S
C510 C514 1.531 . S
C511 C510 1.369 1_455 S
C511 C512 1.410 . S
C511 C519 1.503 . S
C512 C511 1.410 . S
C512 C513 1.392 . S
C512 C515 1.511 . S
C513 C509 1.376 . S
C513 C512 1.392 . S
C513 H525 0.929 . S
C514 C510 1.531 . S
C514 H526 0.960 . S
C514 H527 0.962 . S
C514 H528 0.960 . S
C515 C512 1.511 . S
C515 H529 0.961 . S
C515 H530 0.961 . S
C515 H531 0.961 . S
C516 C517 1.370 . S
C516 C518 1.363 . S
C516 H532 0.931 . S
C517 C516 1.370 . S
C517 C521 1.408 . S
C518 C516 1.363 . S
C518 C519 1.370 . S
C518 C522 1.524 . S
C519 C511 1.503 . S
C519 C518 1.370 . S
C519 C520 1.403 . S
C520 C519 1.403 . S
C520 C521 1.404 . S
C520 C523 1.539 1_455 S
C521 C517 1.408 . S
C521 C520 1.404 . S
C521 H533 0.930 . S
C522 C518 1.524 . S
C522 H534 0.956 1_455 S
C522 H535 0.961 . S
C522 H536 0.961 . S
C523 C520 1.539 1_655 S
C523 H537 0.958 . S
C523 H538 0.961 1_655 S
C523 H539 0.960 1_655 S
H524 C508 0.931 . S
H525 C513 0.929 . S
H526 C514 0.960 . S
H527 C514 0.962 . S
H528 C514 0.960 . S
H529 C515 0.961 . S
H530 C515 0.961 . S
H531 C515 0.961 . S
H532 C516 0.931 . S
H533 C521 0.930 . S
H534 C522 0.956 1_655 S
H535 C522 0.961 . S
H536 C522 0.961 . S
H537 C523 0.958 . S
H538 C523 0.961 1_455 S
H539 C523 0.960 1_455 S
C540 C541 1.391 . S
C540 C542 1.394 . S
C540 H556 0.931 . S
C541 C540 1.391 . S
C541 C545 1.376 . S
C542 C540 1.394 . S
C542 C543 1.369 . S
C542 C546 1.531 . S
C543 C542 1.369 . S
C543 C544 1.410 . S
C543 C551 1.503 . S
C544 C543 1.410 . S
C544 C545 1.392 . S
C544 C547 1.511 . S
C545 C541 1.376 . S
C545 C544 1.392 . S
C545 H557 0.929 . S
C546 C542 1.531 . S
C546 H558 0.960 . S
C546 H559 0.962 . S
C546 H560 0.960 . S
C547 C544 1.511 . S
C547 H561 0.961 1_545 S
C547 H562 0.961 . S
C547 H563 0.961 . S
C548 C549 1.370 . S
C548 C550 1.363 . S
C548 H564 0.931 . S
C549 C548 1.370 . S
C549 C553 1.408 . S
C550 C548 1.363 . S
C550 C551 1.370 . S
C550 C554 1.524 1_545 S
C551 C543 1.503 . S
C551 C550 1.370 . S
C551 C552 1.403 . S
C552 C551 1.403 . S
C552 C553 1.404 . S
C552 C555 1.539 . S
C553 C549 1.408 . S
C553 C552 1.404 . S
C553 H565 0.930 . S
C554 C550 1.524 1_565 S
C554 H566 0.956 . S
C554 H567 0.961 . S
C554 H568 0.961 . S
C555 C552 1.539 . S
C555 H569 0.958 . S
C555 H570 0.961 . S
C555 H571 0.960 . S
H556 C540 0.931 . S
H557 C545 0.929 . S
H558 C546 0.960 . S
H559 C546 0.962 . S
H560 C546 0.960 . S
H561 C547 0.961 1_565 S
H562 C547 0.961 . S
H563 C547 0.961 . S
H564 C548 0.931 . S
H565 C553 0.930 . S
H566 C554 0.956 . S
H567 C554 0.961 . S
H568 C554 0.961 . S
H569 C555 0.958 . S
H570 C555 0.961 . S
H571 C555 0.960 . S
C572 C573 1.393 1_556 S
C572 C574 1.394 . S
C572 H588 0.931 . S
C573 C572 1.393 1_554 S
C573 C577 1.377 1_554 S
C574 C572 1.394 . S
C574 C575 1.369 . S
C574 C578 1.531 . S
C575 C574 1.369 . S
C575 C576 1.410 . S
C575 C583 1.503 . S
C576 C575 1.410 . S
C576 C577 1.392 . S
C576 C579 1.511 . S
C577 C573 1.377 1_556 S
C577 C576 1.392 . S
C577 H589 0.931 . S
C578 C574 1.531 . S
C578 H590 0.960 . S
C578 H591 0.962 . S
C578 H592 0.960 . S
C579 C576 1.511 . S
C579 H593 0.961 . S
C579 H594 0.961 . S
C579 H595 0.961 . S
C580 C581 1.370 . S
C580 C582 1.363 . S
C580 H596 0.931 . S
C581 C580 1.370 . S
C581 C585 1.408 . S
C582 C580 1.363 . S
C582 C583 1.370 . S
C582 C586 1.524 . S
C583 C575 1.503 . S
C583 C582 1.370 . S
C583 C584 1.403 . S
C584 C583 1.403 . S
C584 C585 1.404 . S
C584 C587 1.539 . S
C585 C581 1.408 . S
C585 C584 1.404 . S
C585 H597 0.930 . S
C586 C582 1.524 . S
C586 H598 0.956 . S
C586 H599 0.961 . S
C586 H600 0.961 . S
C587 C584 1.539 . S
C587 H601 0.958 . S
C587 H602 0.961 . S
C587 H603 0.960 1_556 S
H588 C572 0.931 . S
H589 C577 0.931 . S
H590 C578 0.960 . S
H591 C578 0.962 . S
H592 C578 0.960 . S
H593 C579 0.961 . S
H594 C579 0.961 . S
H595 C579 0.961 . S
H596 C580 0.931 . S
H597 C585 0.930 . S
H598 C586 0.956 . S
H599 C586 0.961 . S
H600 C586 0.961 . S
H601 C587 0.958 . S
H602 C587 0.961 . S
H603 C587 0.960 1_554 S
C604 C605 1.391 . S
C604 C606 1.394 . S
C604 H620 0.931 . S
C605 C604 1.391 . S
C605 C609 1.376 1_455 S
C606 C604 1.394 . S
C606 C607 1.369 . S
C606 C610 1.531 . S
C607 C606 1.369 . S
C607 C608 1.410 1_455 S
C607 C615 1.503 . S
C608 C607 1.410 1_655 S
C608 C609 1.392 . S
C608 C611 1.511 . S
C609 C605 1.376 1_655 S
C609 C608 1.392 . S
C609 H621 0.929 . S
C610 C606 1.531 . S
C610 H622 0.960 . S
C610 H623 0.962 . S
C610 H624 0.960 . S
C611 C608 1.511 . S
C611 H625 0.961 . S
C611 H626 0.961 . S
C611 H627 0.961 . S
C612 C613 1.370 . S
C612 C614 1.363 . S
C612 H628 0.931 . S
C613 C612 1.370 . S
C613 C617 1.408 . S
C614 C612 1.363 . S
C614 C615 1.370 . S
C614 C618 1.524 . S
C615 C607 1.503 . S
C615 C614 1.370 . S
C615 C616 1.403 . S
C616 C615 1.403 . S
C616 C617 1.404 . S
C616 C619 1.539 . S
C617 C613 1.408 . S
C617 C616 1.404 . S
C617 H629 0.930 . S
C618 C614 1.524 . S
C618 H630 0.956 . S
C618 H631 0.959 1_455 S
C618 H632 0.961 . S
C619 C616 1.539 . S
C619 H633 0.958 . S
C619 H634 0.961 1_455 S
C619 H635 0.960 1_455 S
H620 C604 0.931 . S
H621 C609 0.929 . S
H622 C610 0.960 . S
H623 C610 0.962 . S
H624 C610 0.960 . S
H625 C611 0.961 . S
H626 C611 0.961 . S
H627 C611 0.961 . S
H628 C612 0.931 . S
H629 C617 0.930 . S
H630 C618 0.956 . S
H631 C618 0.959 1_655 S
H632 C618 0.961 . S
H633 C619 0.958 . S
H634 C619 0.961 1_655 S
H635 C619 0.960 1_655 S
C261 C129 1.493 . S
C253 C14 1.459 . S
C285 C40 1.484 . S
C293 C177 1.523 . S
C317 C76 1.500 . S
C325 C249 1.486 . S
C349 C3 1.478 . S
C357 C153 1.477 . S
C389 C201 1.515 . S
C381 C38 1.484 . S
C413 C74 1.484 . S
C421 C225 1.494 . S
C453 C186 1.458 . S
C445 C86 1.394 . S
C477 C2 1.509 . S
C485 C240 1.494 . S
C517 C144 1.481 . S
C509 C39 1.479 . S
C549 C192 1.483 . S
C541 C75 1.477 . S
C581 C234 1.499 . S
C573 C4 1.486 . S
C605 C50 1.469 . S
C613 C138 1.490 . S
