# Generated by pormake.
# Topology pyr, (3,6)-cn, num edge types: 1
# Building blocks:
#     Node 0, Type 0, BuildingBlock: BETDIP_clean_linker_0, # of connection points: 3
#     Node 1, Type 0, BuildingBlock: BETDIP_clean_linker_0, # of connection points: 3
#     Node 2, Type 0, BuildingBlock: BETDIP_clean_linker_0, # of connection points: 3
#     Node 3, Type 0, BuildingBlock: BETDIP_clean_linker_0, # of connection points: 3
#     Node 4, Type 0, BuildingBlock: BETDIP_clean_linker_0, # of connection points: 3
#     Node 5, Type 0, BuildingBlock: BETDIP_clean_linker_0, # of connection points: 3
#     Node 6, Type 0, BuildingBlock: BETDIP_clean_linker_0, # of connection points: 3
#     Node 7, Type 0, BuildingBlock: BETDIP_clean_linker_0, # of connection points: 3
#     Node 8, Type 1, BuildingBlock: JUFBIX_clean_sbu_0, # of connection points: 6
#     Node 9, Type 1, BuildingBlock: JUFBIX_clean_sbu_0, # of connection points: 6
#     Node 10, Type 1, BuildingBlock: JUFBIX_clean_sbu_0, # of connection points: 6
#     Node 11, Type 1, BuildingBlock: JUFBIX_clean_sbu_0, # of connection points: 6
#     Edge 12, Type (0, 1), BuildingBlock: EZIPEK_clean_linker_0, # of connection points: 2
#     Edge 13, Type (0, 1), BuildingBlock: EZIPEK_clean_linker_0, # of connection points: 2
#     Edge 14, Type (0, 1), BuildingBlock: EZIPEK_clean_linker_0, # of connection points: 2
#     Edge 15, Type (0, 1), BuildingBlock: EZIPEK_clean_linker_0, # of connection points: 2
#     Edge 16, Type (0, 1), BuildingBlock: EZIPEK_clean_linker_0, # of connection points: 2
#     Edge 17, Type (0, 1), BuildingBlock: EZIPEK_clean_linker_0, # of connection points: 2
#     Edge 18, Type (0, 1), BuildingBlock: EZIPEK_clean_linker_0, # of connection points: 2
#     Edge 19, Type (0, 1), BuildingBlock: EZIPEK_clean_linker_0, # of connection points: 2
#     Edge 20, Type (0, 1), BuildingBlock: EZIPEK_clean_linker_0, # of connection points: 2
#     Edge 21, Type (0, 1), BuildingBlock: EZIPEK_clean_linker_0, # of connection points: 2
#     Edge 22, Type (0, 1), BuildingBlock: EZIPEK_clean_linker_0, # of connection points: 2
#     Edge 23, Type (0, 1), BuildingBlock: EZIPEK_clean_linker_0, # of connection points: 2
#     Edge 24, Type (0, 1), BuildingBlock: EZIPEK_clean_linker_0, # of connection points: 2
#     Edge 25, Type (0, 1), BuildingBlock: EZIPEK_clean_linker_0, # of connection points: 2
#     Edge 26, Type (0, 1), BuildingBlock: EZIPEK_clean_linker_0, # of connection points: 2
#     Edge 27, Type (0, 1), BuildingBlock: EZIPEK_clean_linker_0, # of connection points: 2
#     Edge 28, Type (0, 1), BuildingBlock: EZIPEK_clean_linker_0, # of connection points: 2
#     Edge 29, Type (0, 1), BuildingBlock: EZIPEK_clean_linker_0, # of connection points: 2
#     Edge 30, Type (0, 1), BuildingBlock: EZIPEK_clean_linker_0, # of connection points: 2
#     Edge 31, Type (0, 1), BuildingBlock: EZIPEK_clean_linker_0, # of connection points: 2
#     Edge 32, Type (0, 1), BuildingBlock: EZIPEK_clean_linker_0, # of connection points: 2
#     Edge 33, Type (0, 1), BuildingBlock: EZIPEK_clean_linker_0, # of connection points: 2
#     Edge 34, Type (0, 1), BuildingBlock: EZIPEK_clean_linker_0, # of connection points: 2
#     Edge 35, Type (0, 1), BuildingBlock: EZIPEK_clean_linker_0, # of connection points: 2
# Relax obj value: 0.219
# Max RMSD: 0.207
# Mean RMSD: 0.130
data_MOF--net-pry--node1-JUFBIX_clean_sbu_0--node2-BETDIP_clean_linker_0--edge1-EZIPEK_clean_linker_0
_symmetry_space_group_name_H-M    P1
_symmetry_Int_Tables_number       1
_symmetry_cell_setting            triclinic
loop_
_symmetry_equiv_pos_as_xyz
'x, y, z'
_cell_length_a     26.792978
_cell_length_b     24.663136
_cell_length_c     27.665601
_cell_angle_alpha  85.115263
_cell_angle_beta   84.811657
_cell_angle_gamma 97.105782
loop_
_atom_site_label
_atom_site_type_symbol
_atom_site_fract_x
_atom_site_fract_y
_atom_site_fract_z
_atom_type_partial_charge
H0 H 0.15315 0.17471 0.27389 0.0
H1 H 0.26768 0.18851 0.15259 0.0
H2 H 0.27375 0.07436 0.27896 0.0
H3 H 0.23945 0.27795 0.14224 0.0
C4 C 0.19895 0.27049 0.15266 0.0
C5 C 0.18777 0.16241 0.25743 0.0
C6 C 0.21105 0.12252 0.2831 0.0
C7 C 0.20761 0.18675 0.21094 0.0
C8 C 0.25259 0.17068 0.18888 0.0
C9 C 0.27719 0.1298 0.21276 0.0
C10 C 0.2558 0.10582 0.26017 0.0
N11 N 0.17914 0.22469 0.18699 0.0
H12 H 0.37889 0.86062 0.76038 0.0
H13 H 0.40158 0.74914 0.65243 0.0
H14 H 0.52472 0.80627 0.73339 0.0
H15 H 0.35485 0.81633 0.61314 0.0
C16 C 0.32715 0.82311 0.64243 0.0
C17 C 0.40346 0.83592 0.7412 0.0
C18 C 0.45371 0.8368 0.75144 0.0
C19 C 0.38522 0.80579 0.70476 0.0
C20 C 0.41639 0.77366 0.67993 0.0
C21 C 0.46656 0.77288 0.69045 0.0
C22 C 0.48576 0.80576 0.72558 0.0
N23 N 0.3364 0.81163 0.69155 0.0
H24 H 0.78228 0.46471 0.87644 0.0
H25 H 0.65927 0.33508 0.87617 0.0
H26 H 0.76548 0.3225 0.98233 0.0
H27 H 0.68898 0.3563 0.78851 0.0
C28 C 0.68317 0.39898 0.79012 0.0
C29 C 0.76237 0.42525 0.89188 0.0
C30 C 0.78029 0.39657 0.93218 0.0
C31 C 0.72036 0.40196 0.86979 0.0
C32 C 0.69318 0.35206 0.8911 0.0
C33 C 0.70843 0.32432 0.93235 0.0
C34 C 0.75287 0.34545 0.95161 0.0
N35 N 0.7052 0.42896 0.82669 0.0
H36 H 0.94308 0.56012 0.48638 0.0
H37 H 0.06878 0.68719 0.4822 0.0
H38 H 0.92359 0.70843 0.55203 0.0
H39 H 0.0711 0.66636 0.39863 0.0
C40 C 0.05296 0.62442 0.39894 0.0
C41 C 0.95955 0.5982 0.49889 0.0
C42 C 0.9279 0.63148 0.52171 0.0
C43 C 1.00975 0.61887 0.48259 0.0
C44 C 1.03032 0.67019 0.49565 0.0
C45 C 0.99948 0.70199 0.52199 0.0
C46 C 0.94845 0.68205 0.53558 0.0
N47 N 1.03348 0.59382 0.44402 0.0
H48 H 0.80275 0.86739 0.96346 0.0
H49 H 0.92173 0.87741 0.84651 0.0
H50 H 0.80851 0.98725 0.83923 0.0
H51 H 0.96361 0.85425 0.92236 0.0
C52 C 0.9367 0.81824 0.93541 0.0
C53 C 0.82094 0.88673 0.9286 0.0
C54 C 0.80034 0.93056 0.90487 0.0
C55 C 0.86525 0.86812 0.90847 0.0
C56 C 0.88858 0.89271 0.86282 0.0
C57 C 0.86837 0.93524 0.83686 0.0
C58 C 0.82436 0.95446 0.85856 0.0
N59 N 0.88412 0.82266 0.93338 0.0
H60 H 0.6047 0.05261 0.44659 0.0
H61 H 0.59714 0.18004 0.54238 0.0
H62 H 0.56218 0.20822 0.39453 0.0
H63 H 0.66104 0.14127 0.57491 0.0
C64 C 0.66508 0.10322 0.55885 0.0
C65 C 0.5954 0.09302 0.45339 0.0
C66 C 0.58325 0.12825 0.41491 0.0
C67 C 0.60256 0.11211 0.49865 0.0
C68 C 0.59221 0.16506 0.50723 0.0
C69 C 0.57593 0.19934 0.47032 0.0
C70 C 0.57202 0.18089 0.42395 0.0
N71 N 0.62644 0.0799 0.53218 0.0
H72 H 0.29933 0.59076 0.22158 0.0
H73 H 0.42515 0.71535 0.23131 0.0
H74 H 0.33174 0.73127 0.11426 0.0
H75 H 0.40484 0.68808 0.31366 0.0
C76 C 0.40268 0.64399 0.31212 0.0
C77 C 0.32219 0.62916 0.20755 0.0
C78 C 0.31015 0.65861 0.16479 0.0
C79 C 0.36319 0.64962 0.23264 0.0
C80 C 0.3927 0.69944 0.2137 0.0
C81 C 0.38148 0.72883 0.17125 0.0
C82 C 0.34037 0.70834 0.14697 0.0
N83 N 0.37508 0.61928 0.27581 0.0
H84 H 0.99752 0.38215 0.62181 0.0
H85 H 0.11586 0.51535 0.62834 0.0
H86 H 0.15254 0.36071 0.58442 0.0
H87 H 0.9622 0.43585 0.69862 0.0
C88 C 0.99353 0.4689 0.69359 0.0
C89 C 0.03712 0.39904 0.61539 0.0
C90 C 0.07317 0.36598 0.59962 0.0
C91 C 0.05252 0.45336 0.62477 0.0
C92 C 0.10393 0.47435 0.61882 0.0
C93 C 0.14012 0.44049 0.60536 0.0
C94 C 0.12449 0.38714 0.5942 0.0
N95 N 1.01732 0.48495 0.64582 0.0
Co96 Co 1.00306 0.03521 0.54211 0.0
C97 C 1.03254 0.93142 0.54942 0.0
Co98 Co 0.07198 0.03127 0.57806 0.0
C99 C 0.90279 0.05845 0.53312 0.0
C100 C 0.9309 0.02121 0.47083 0.0
N101 N 0.94415 0.03939 0.51315 0.0
N102 N 0.86433 0.05254 0.50525 0.0
C103 C 0.88149 0.02934 0.46584 0.0
H104 H 0.90035 0.0751 0.5681 0.0
H105 H 0.95497 1.00184 0.44601 0.0
C106 C 0.04361 0.1346 0.57277 0.0
N107 N 0.13007 0.02621 0.60746 0.0
C108 C 0.1648 0.99387 0.59418 0.0
C109 C 0.14316 0.04402 0.64994 0.0
N110 N 0.19805 0.98934 0.62723 0.0
C111 C 0.18512 0.02093 0.66242 0.0
C112 C 0.09135 0.05753 0.47498 0.0
O113 O 1.00573 0.11089 0.55458 0.0
O114 O 0.07853 0.10714 0.58411 0.0
O115 O 0.11192 0.04595 0.51383 0.0
O116 O 0.04346 0.05737 0.47918 0.0
O117 O 0.06621 0.95524 0.57226 0.0
H118 H 0.12145 0.06859 0.67214 0.0
H119 H 0.16315 0.97003 0.56311 0.0
O120 O 1.00106 0.95926 0.53042 0.0
O121 O 0.96274 0.01305 0.60454 0.0
O122 O 1.03098 0.0161 0.64228 0.0
C123 C 0.98273 0.00784 0.64437 0.0
H124 H 0.85946 0.01783 0.43651 0.0
H125 H 0.20229 0.02357 0.69624 0.0
Co126 Co 0.51836 0.02757 1.02548 0.0
C127 C 0.50239 0.93603 0.0967 0.0
Co128 Co 0.56068 0.03605 0.08961 0.0
C129 C 0.50174 0.99746 0.92912 0.0
C130 C 0.43226 1.00077 0.9728 0.0
N131 N 0.48292 0.01288 0.97213 0.0
N132 N 0.46513 0.9748 0.90407 0.0
C133 C 0.42128 0.97707 0.93108 0.0
H134 H 0.54151 0.99768 0.91805 0.0
H135 H 0.40521 1.0038 1.00356 0.0
C136 C 0.57759 0.127 1.01746 0.0
N137 N 0.59603 0.05029 0.14239 0.0
C138 C 0.57774 0.04549 0.18986 0.0
C139 C 0.64213 0.07991 0.14031 0.0
N140 N 0.60977 0.07296 0.21704 0.0
C141 C 0.65044 0.09437 0.18604 0.0
C142 C 0.61803 0.995 1.01348 0.0
O143 O 0.54509 0.09921 0.99543 0.0
O144 O 0.58729 0.10801 0.05922 0.0
O145 O 0.61927 0.00744 0.05729 0.0
O146 O 0.57732 0.99955 0.99393 0.0
O147 O 0.5342 0.96417 0.11919 0.0
H148 H 0.66652 0.09367 0.1071 0.0
H149 H 0.54004 0.02611 0.20356 0.0
O150 O 0.4918 0.95553 0.0554 0.0
O151 O 0.45995 0.05637 0.05839 0.0
O152 O 0.50169 0.06429 0.12211 0.0
C153 C 0.46087 0.06853 0.10236 0.0
H154 H 0.3845 0.95851 0.92321 0.0
H155 H 0.68275 0.12078 0.1955 0.0
Co156 Co 0.57333 0.52756 0.53297 0.0
C157 C 0.49453 0.54497 0.47614 0.0
Co158 Co 0.49909 0.49377 0.57044 0.0
C159 C 0.67743 0.57245 0.52322 0.0
C160 C 0.6544 0.54497 0.45621 0.0
N161 N 0.63667 0.55195 0.50218 0.0
N162 N 0.71995 0.57697 0.49263 0.0
C163 C 0.7059 0.5603 0.45025 0.0
H164 H 0.67652 0.58121 0.56095 0.0
H165 H 0.63177 0.52748 0.42954 0.0
C166 C 0.5772 0.47705 0.62764 0.0
N167 N 0.43569 0.46817 0.60141 0.0
C168 C 0.39275 0.49053 0.59631 0.0
C169 C 0.42085 0.41958 0.6282 0.0
N170 N 0.35173 0.45691 0.61734 0.0
C171 C 0.36907 0.41246 0.6379 0.0
C172 C 0.54241 0.41776 0.51927 0.0
O173 O 0.60307 0.50469 0.59089 0.0
O174 O 0.52976 0.46574 0.6263 0.0
O175 O 0.50166 0.42581 0.54318 0.0
O176 O 0.57833 0.45707 0.51093 0.0
O177 O 0.46856 0.52139 0.51458 0.0
H178 H 0.4457 0.39005 0.63799 0.0
H179 H 0.39109 0.52902 0.57496 0.0
O180 O 0.54259 0.55089 0.47491 0.0
O181 O 0.5693 0.5974 0.55589 0.0
O182 O 0.49732 0.56204 0.59777 0.0
C183 C 0.53187 0.60247 0.58591 0.0
H184 H 0.73133 0.55779 0.41804 0.0
H185 H 0.34569 0.37647 0.65654 0.0
Co186 Co 0.0713 0.52777 1.00248 0.0
C187 C 0.9682 0.48164 1.01363 0.0
Co188 Co 1.03297 0.53154 0.07537 0.0
C189 C 0.07967 0.49787 0.9041 0.0
C190 C 0.13756 0.56268 0.91381 0.0
N191 N 0.10051 0.52603 0.93876 0.0
N192 N 0.10047 0.51687 0.85887 0.0
C193 C 0.13761 0.55711 0.86455 0.0
H194 H 0.04662 0.46731 0.91088 0.0
H195 H 0.15959 0.59508 0.92966 0.0
C196 C 0.1349 0.57873 0.06535 0.0
N197 N 1.0031 0.53504 0.13759 0.0
C198 C 1.02588 0.53257 0.17915 0.0
C199 C 0.95944 0.55503 0.14927 0.0
N200 N 0.99946 0.55309 0.21552 0.0
C201 C 0.95732 0.56662 0.19707 0.0
C202 C 0.08473 0.43804 0.06618 0.0
O203 O 0.13446 0.56517 1.0218 0.0
O204 O 0.09407 0.5694 0.09341 0.0
O205 O 0.05741 0.4623 0.09562 0.0
O206 O 0.09253 0.45871 1.02207 0.0
O207 O 0.97007 0.49421 0.05719 0.0
H208 H 0.93303 0.56506 0.12363 0.0
H209 H 0.06343 0.52118 0.1814 0.0
O210 O 1.00901 0.49068 0.98551 0.0
O211 O 0.04893 0.59705 0.98213 0.0
O212 O 1.01066 0.60067 0.05463 0.0
C213 C 1.02121 0.62144 1.01064 0.0
H214 H 0.15954 0.58399 0.83515 0.0
H215 H 0.92872 0.58674 0.21596 0.0
C216 C 0.13828 0.06327 0.33641 0.0
C217 C 0.18518 0.09825 0.33308 0.0
C218 C 0.16888 0.10954 0.42127 0.0
C219 C 0.12318 0.07197 0.42555 0.0
N220 N 0.06756 0.00854 0.3862 0.0
N221 N 0.24887 0.14751 0.3744 0.0
C222 C 0.10878 0.04778 0.38274 0.0
C223 C 0.20167 0.11869 0.37632 0.0
N224 N 0.12112 0.04576 0.29456 0.0
N225 N 0.17918 0.14015 0.45899 0.0
H226 H 0.273 0.15638 0.34219 0.0
H227 H 0.26582 0.15835 0.40523 0.0
H228 H 0.155 0.13794 0.49099 0.0
H229 H 0.20872 0.17222 0.45668 0.0
H230 H 0.08436 0.02747 0.29234 0.0
H231 H 0.14319 0.05201 0.261 0.0
H232 H 0.05916 0.98372 0.35865 0.0
H233 H 0.04308 0.99767 0.41775 0.0
C234 C 0.48002 0.92924 0.77795 0.0
C235 C 0.47107 0.87147 0.78945 0.0
C236 C 0.47157 0.88337 0.87637 0.0
C237 C 0.47209 0.94057 0.86517 0.0
N238 N 0.4778 0.01937 0.80703 0.0
N239 N 0.45787 0.79243 0.84887 0.0
C240 C 0.47739 0.96403 0.8163 0.0
C241 C 0.46771 0.84813 0.83848 0.0
N242 N 0.49057 0.95032 0.7303 0.0
N243 N 0.47477 0.86309 0.92336 0.0
H244 H 0.45639 0.76541 0.82188 0.0
H245 H 0.44874 0.773 0.88401 0.0
H246 H 0.4766 0.88796 0.95197 0.0
H247 H 0.47963 0.82261 0.93349 0.0
H248 H 0.50101 0.99187 0.7192 0.0
H249 H 0.49282 0.92535 0.70175 0.0
H250 H 0.47655 0.03916 0.7725 0.0
H251 H 0.47692 0.04543 0.83483 0.0
C252 C 0.61033 0.44352 0.75906 0.0
C253 C 0.65803 0.42496 0.74957 0.0
C254 C 0.64834 0.43275 0.66179 0.0
C255 C 0.60315 0.45689 0.67043 0.0
N256 N 0.54378 0.4906 0.72819 0.0
N257 N 0.72672 0.41132 0.69155 0.0
C258 C 0.58478 0.46366 0.71935 0.0
C259 C 0.67827 0.42256 0.70078 0.0
N260 N 0.58818 0.43949 0.80595 0.0
N261 N 0.66108 0.41597 0.61697 0.0
H262 H 0.74979 0.40391 0.71918 0.0
H263 H 0.74558 0.41474 0.65659 0.0
H264 H 0.63853 0.41877 0.5883 0.0
H265 H 0.69085 0.39341 0.60984 0.0
H266 H 0.55082 0.44552 0.81496 0.0
H267 H 0.60592 0.42602 0.83592 0.0
H268 H 0.53274 0.50288 0.76219 0.0
H269 H 0.52281 0.50481 0.70107 0.0
C270 C 0.99113 0.57801 0.3467 0.0
C271 C 0.0404 0.60423 0.35164 0.0
C272 C 0.06208 0.60138 0.26407 0.0
C273 C 1.01578 0.56705 0.26168 0.0
N274 N 0.94199 0.51204 0.30444 0.0
N275 N 0.12601 0.63329 0.31541 0.0
C276 C 0.98246 0.55145 0.30443 0.0
C277 C 0.07705 0.61338 0.31045 0.0
N278 N 0.95123 0.58382 0.37917 0.0
N279 N 0.08992 0.62592 0.22243 0.0
H280 H 0.1384 0.64255 0.3488 0.0
H281 H 0.15501 0.63575 0.2872 0.0
H282 H 0.07821 0.62251 0.18783 0.0
H283 H 0.12156 0.655 0.22269 0.0
H284 H 0.9141 0.56777 0.37526 0.0
H285 H 0.95414 0.6127 0.40436 0.0
H286 H 0.91852 0.49683 0.33607 0.0
H287 H 0.93548 0.49077 0.27409 0.0
C288 C 0.37341 0.14089 0.19032 0.0
C289 C 0.32467 0.11191 0.18689 0.0
C290 C 0.36571 0.05094 0.13287 0.0
C291 C 0.41382 0.08377 0.13165 0.0
N292 N 0.46088 0.16518 0.15582 0.0
N293 N 0.2741 0.0429 0.14952 0.0
C294 C 0.41691 0.1299 0.15983 0.0
C295 C 0.32089 0.06804 0.15654 0.0
N296 N 0.37843 0.17861 0.22356 0.0
N297 N 0.36294 1.00136 0.11396 0.0
H298 H 0.24083 0.05252 0.16745 0.0
H299 H 0.26803 0.01551 0.12335 0.0
H300 H 0.39441 0.9859 0.09833 0.0
H301 H 0.33045 0.97277 0.11846 0.0
H302 H 0.41322 0.19664 0.23241 0.0
H303 H 0.3477 0.18845 0.24549 0.0
H304 H 0.46421 0.20282 0.17045 0.0
H305 H 0.49329 0.15906 0.13448 0.0
C306 C 0.31486 0.92 0.61779 0.0
C307 C 0.29355 0.86484 0.63292 0.0
C308 C 0.20965 0.89301 0.64725 0.0
C309 C 0.23059 0.9476 0.63023 0.0
N310 N 0.29975 0.01276 0.5923 0.0
N311 N 0.22081 0.79658 0.65432 0.0
C312 C 0.2823 0.96096 0.61332 0.0
C313 C 0.24086 0.85065 0.64537 0.0
N314 N 0.36622 0.93361 0.6101 0.0
N315 N 0.16016 0.88227 0.6663 0.0
H316 H 0.24296 0.76468 0.65294 0.0
H317 H 0.18218 0.78296 0.6591 0.0
H318 H 0.13632 0.91256 0.66793 0.0
H319 H 0.14352 0.84442 0.68365 0.0
H320 H 0.38412 0.97389 0.60453 0.0
H321 H 0.39148 0.90477 0.61241 0.0
H322 H 0.33591 0.02407 0.57444 0.0
H323 H 0.27655 0.04371 0.58987 0.0
C324 C 0.87294 0.44002 0.92295 0.0
C325 C 0.82797 0.41927 0.95359 0.0
C326 C 0.87684 0.43142 1.02439 0.0
C327 C 0.91908 0.4606 0.99382 0.0
N328 N 0.94525 0.50967 0.91361 0.0
N329 N 0.78554 0.4121 1.03539 0.0
C330 C 0.91377 0.46993 0.94292 0.0
C331 C 0.82936 0.42001 1.00496 0.0
N332 N 0.87803 0.42993 0.87513 0.0
N333 N 0.88177 0.41202 0.07117 0.0
H334 H 0.74994 0.40791 1.02264 0.0
H335 H 0.78479 0.41656 0.07259 0.0
H336 H 0.9163 0.41425 0.08587 0.0
H337 H 0.85256 0.3872 0.0931 0.0
H338 H 0.9119 0.4413 0.85281 0.0
H339 H 0.85104 0.40453 0.85971 0.0
H340 H 0.94035 0.51907 0.87699 0.0
H341 H 0.97075 0.53862 0.92703 0.0
C342 C 0.84342 0.57551 0.5475 0.0
C343 C 0.87284 0.62017 0.51827 0.0
C344 C 0.79824 0.64124 0.47922 0.0
C345 C 0.77064 0.59281 0.50368 0.0
N346 N 0.76775 0.50904 0.55598 0.0
N347 N 0.88054 0.68878 0.44882 0.0
C348 C 0.79326 0.5587 0.53683 0.0
C349 C 0.85089 0.65152 0.4822 0.0
N350 N 0.86337 0.54958 0.58541 0.0
N351 N 0.77373 0.67773 0.45363 0.0
H352 H 0.91971 0.69642 0.44799 0.0
H353 H 0.86683 0.70821 0.41881 0.0
H354 H 0.73481 0.67123 0.45136 0.0
H355 H 0.79098 0.71655 0.43892 0.0
H356 H 0.84224 0.52006 0.61085 0.0
H357 H 0.90019 0.56098 0.59378 0.0
H358 H 0.78398 0.47993 0.57665 0.0
H359 H 0.73156 0.49486 0.54761 0.0
C360 C 0.12313 0.32564 0.15503 0.0
C361 C 0.16568 0.30832 0.12905 0.0
C362 C 0.15603 0.3748 0.05968 0.0
C363 C 0.11037 0.38907 0.08425 0.0
N364 N 0.04217 0.35751 0.1478 0.0
N365 N 0.2109 0.30441 0.05041 0.0
C366 C 0.09136 0.35816 0.1296 0.0
C367 C 0.1783 0.32911 0.07949 0.0
N368 N 0.11396 0.31402 0.20439 0.0
N369 N 0.18071 0.40532 1.01894 0.0
H370 H 0.22702 0.2701 0.06281 0.0
H371 H 0.21711 0.31393 1.01272 0.0
H372 H 0.16917 0.43947 1.00108 0.0
H373 H 0.21698 0.39971 1.00497 0.0
H374 H 0.08574 0.33005 0.22501 0.0
H375 H 0.138 0.29437 0.22536 0.0
H376 H 1.02597 0.33261 0.17902 0.0
H377 H 1.01591 0.37518 0.12809 0.0
C378 C 0.63723 0.27734 0.99312 0.0
C379 C 0.67616 0.27345 0.95565 0.0
C380 C 0.6452 0.17565 0.95355 0.0
C381 C 0.6083 0.1785 0.99338 0.0
N382 N 0.5708 0.23062 0.05331 0.0
N383 N 0.72209 0.21847 0.90448 0.0
C384 C 0.60495 0.22901 1.01385 0.0
C385 C 0.68142 0.22244 0.93702 0.0
N386 N 0.63016 0.32769 1.00777 0.0
N387 N 0.64549 0.12833 0.93116 0.0
H388 H 0.74889 0.25203 0.89122 0.0
H389 H 0.7318 0.18149 0.89353 0.0
H390 H 0.62115 0.09252 0.9429 0.0
H391 H 0.66744 0.12531 0.89874 0.0
H392 H 0.59914 0.33473 1.03069 0.0
H393 H 0.65403 0.36362 0.99471 0.0
H394 H 0.57045 0.2637 0.07426 0.0
H395 H 0.54359 0.19748 0.06633 0.0
C396 C 1.02213 0.77561 0.5762 0.0
C397 C 1.01719 0.76001 0.52851 0.0
C398 C 0.03755 0.85599 0.4954 0.0
C399 C 1.03199 0.87227 0.5431 0.0
N400 N 1.02156 0.84794 0.63029 0.0
N401 N 1.01527 0.78623 0.44234 0.0
C402 C 1.02571 0.83221 0.58407 0.0
C403 C 1.0239 0.80035 0.48786 0.0
N404 N 1.02404 0.73621 0.61362 0.0
N405 N 0.05888 0.89325 0.45766 0.0
H406 H 1.00522 0.74598 0.4346 0.0
H407 H 1.0142 0.81523 0.41289 0.0
H408 H 0.07421 0.93279 0.46355 0.0
H409 H 0.06769 0.88283 0.42246 0.0
H410 H 1.03242 0.74491 0.64838 0.0
H411 H 1.02169 0.69452 0.60866 0.0
H412 H 1.01086 0.82062 0.66134 0.0
H413 H 1.02596 0.88882 0.63781 0.0
C414 C 0.51199 0.68934 0.6885 0.0
C415 C 0.49757 0.73686 0.66375 0.0
C416 C 0.51761 0.70159 0.58494 0.0
C417 C 0.52977 0.6534 0.61018 0.0
N418 N 0.55983 0.61281 0.68209 0.0
N419 N 0.50153 0.79599 0.58918 0.0
C420 C 0.53393 0.65106 0.66081 0.0
C421 C 0.50558 0.74562 0.61202 0.0
N422 N 0.50162 0.67848 0.73788 0.0
N423 N 0.51558 0.70438 0.53566 0.0
H424 H 0.49355 0.82899 0.60849 0.0
H425 H 0.51065 0.80647 0.55189 0.0
H426 H 0.52651 0.67382 0.5147 0.0
H427 H 0.501 0.73558 0.51594 0.0
H428 H 0.50633 0.64122 0.75652 0.0
H429 H 0.48453 0.70459 0.75986 0.0
H430 H 0.5679 0.61212 0.71828 0.0
H431 H 0.57828 0.58613 0.6617 0.0
C432 C 0.88942 0.92274 0.74693 0.0
C433 C 0.89304 0.9568 0.78594 0.0
C434 C 0.94647 0.02806 0.72882 0.0
C435 C 0.94966 0.99095 0.69236 0.0
N436 N 0.92281 0.90188 0.66682 0.0
N437 N 0.92981 0.04071 0.81468 0.0
C438 C 0.92041 0.93808 0.70142 0.0
C439 C 0.92286 0.00921 0.77697 0.0
N440 N 0.85493 0.87635 0.75291 0.0
N441 N 0.96272 0.08247 0.71638 0.0
H442 H 0.91269 0.02892 0.85002 0.0
H443 H 0.95554 0.07644 0.81164 0.0
H444 H 0.97448 0.09783 0.68036 0.0
H445 H 0.95799 0.1127 0.73987 0.0
H446 H 0.84624 0.85242 0.72483 0.0
H447 H 0.83143 0.86433 0.78518 0.0
H448 H 0.90814 0.86053 0.67312 0.0
H449 H 0.94215 0.91241 0.63225 0.0
C450 C 0.54804 0.11305 0.33464 0.0
C451 C 0.58868 0.11235 0.36413 0.0
C452 C 0.63811 0.07502 0.2992 0.0
C453 C 0.60085 0.08362 0.26734 0.0
N454 N 0.52579 0.12489 0.25209 0.0
N455 N 0.67807 0.10716 0.3679 0.0
C456 C 0.55704 0.10635 0.28425 0.0
C457 C 0.63544 0.09735 0.34464 0.0
N458 N 0.50079 0.11903 0.35465 0.0
N459 N 0.67556 0.0446 0.28644 0.0
H460 H 0.67909 0.12753 0.39938 0.0
H461 H 0.7137 0.10094 0.35265 0.0
H462 H 0.67711 0.02546 0.25423 0.0
H463 H 0.70135 0.03344 0.31028 0.0
H464 H 0.46915 0.11501 0.33526 0.0
H465 H 0.49241 0.12236 0.39175 0.0
H466 H 0.49572 0.14593 0.26242 0.0
H467 H 0.53346 0.12532 0.21449 0.0
C468 C 0.45883 0.57673 0.34586 0.0
C469 C 0.42121 0.61174 0.35394 0.0
C470 C 0.43261 0.60429 0.44165 0.0
C471 C 0.46845 0.56696 0.43408 0.0
N472 N 0.50592 0.50764 0.3806 0.0
N473 N 0.36424 0.64864 0.41087 0.0
C474 C 0.47876 0.55033 0.38658 0.0
C475 C 0.40573 0.62235 0.40231 0.0
N476 N 0.47743 0.5706 0.2993 0.0
N477 N 0.42584 0.62481 0.48581 0.0
H478 H 0.34326 0.66169 0.38314 0.0
H479 H 0.34761 0.65251 0.4457 0.0
H480 H 0.44472 0.61341 0.51558 0.0
H481 H 0.40495 0.65695 0.49179 0.0
H482 H 0.50894 0.55093 0.2911 0.0
H483 H 0.46386 0.58887 0.26862 0.0
H484 H 0.51059 0.48988 0.34794 0.0
H485 H 0.51925 0.48624 0.40977 0.0
C486 C 0.04634 0.44055 0.75976 0.0
C487 C 1.02194 0.48155 0.73578 0.0
C488 C 0.04845 0.54575 0.79425 0.0
C489 C 0.07688 0.50666 0.8152 0.0
N490 N 0.10895 0.42024 0.81465 0.0
N491 N 1.00579 0.57572 0.72518 0.0
C492 C 0.07755 0.45497 0.79688 0.0
C493 C 1.02519 0.53509 0.75128 0.0
N494 N 0.03921 0.3878 0.74757 0.0
N495 N 0.04094 0.59141 0.81721 0.0
H496 H 0.98634 0.56899 0.69478 0.0
H497 H 1.01212 0.61689 0.73163 0.0
H498 H 0.05571 0.59964 0.84978 0.0
H499 H 1.01603 0.61836 0.80664 0.0
H500 H 0.05185 0.35504 0.76702 0.0
H501 H 1.01747 0.37582 0.71997 0.0
H502 H 0.11535 0.38402 0.7998 0.0
H503 H 0.13205 0.43028 0.84188 0.0
C504 C 0.75765 0.99289 0.9608 0.0
C505 C 0.75326 0.95019 0.92933 0.0
C506 C 0.66062 0.9349 0.95387 0.0
C507 C 0.66459 0.9795 0.98389 0.0
N508 N 0.71676 0.06019 1.00341 0.0
N509 N 0.69906 0.88729 0.8893 0.0
C510 C 0.71317 0.01089 0.98399 0.0
C511 C 0.7042 0.92338 0.92393 0.0
N512 N 0.80466 0.01601 0.96934 0.0
N513 N 0.61564 0.90168 0.95527 0.0
H514 H 0.72985 0.8772 0.86763 0.0
H515 H 0.6643 0.87103 0.87902 0.0
H516 H 0.58272 0.90841 0.97541 0.0
H517 H 0.61159 0.86481 0.93941 0.0
H518 H 0.81079 0.0423 0.99637 0.0
H519 H 0.83784 0.00578 0.95176 0.0
H520 H 0.74995 0.0877 0.99998 0.0
H521 H 0.68548 0.07679 1.01797 0.0
C522 C 0.73 0.03854 0.56203 0.0
C523 C 0.71702 0.09073 0.5462 0.0
C524 C 0.80219 0.11788 0.50427 0.0
C525 C 0.81407 0.06481 0.51768 0.0
N526 N 0.79017 0.97272 0.55497 0.0
N527 N 0.7374 0.1775 0.49647 0.0
C528 C 0.7781 0.02451 0.54532 0.0
C529 C 0.75227 0.12992 0.5159 0.0
N530 N 0.6969 1.0033 0.59427 0.0
N531 N 0.83929 0.15694 0.48121 0.0
H532 H 0.7014 0.18834 0.5044 0.0
H533 H 0.75944 0.20462 0.46971 0.0
H534 H 0.87572 0.14841 0.4709 0.0
H535 H 0.83513 0.1983 0.47511 0.0
H536 H 0.70559 0.96672 0.61097 0.0
H537 H 0.66139 0.01244 0.60714 0.0
H538 H 0.76448 0.93951 0.57083 0.0
H539 H 0.82573 0.96209 0.54424 0.0
C540 C 0.26715 0.59176 0.11145 0.0
C541 C 0.26569 0.63825 0.13831 0.0
C542 C 0.18362 0.65176 0.10809 0.0
C543 C 0.18245 0.6018 0.08581 0.0
N544 N 0.21971 0.51903 0.07445 0.0
N545 N 0.21887 0.70826 0.16778 0.0
C546 C 0.22349 0.57056 0.08943 0.0
C547 C 0.22288 0.66717 0.13804 0.0
N548 N 0.31078 0.56853 0.10579 0.0
N549 N 0.14776 0.68532 0.09953 0.0
H550 H 0.24623 0.72006 0.19073 0.0
H551 H 0.18658 0.72744 0.17301 0.0
H552 H 0.1192 0.67584 0.07717 0.0
H553 H 0.14902 0.72471 0.11062 0.0
H554 H 0.31602 0.53851 0.0822 0.0
H555 H 0.34341 0.58263 0.12132 0.0
H556 H 0.24549 0.4917 0.08134 0.0
H557 H 0.18829 0.50173 0.05904 0.0
C558 C 0.21424 0.4576 0.6541 0.0
C559 C 0.19474 0.45736 0.60799 0.0
C560 C 0.28005 0.46088 0.56725 0.0
C561 C 0.29961 0.46283 0.61311 0.0
N562 N 0.28792 0.47688 0.69787 0.0
N563 N 0.2092 0.47286 0.5205 0.0
C564 C 0.26737 0.46593 0.6558 0.0
C565 C 0.22787 0.46402 0.56443 0.0
N566 N 0.18239 0.44637 0.69622 0.0
N567 N 0.31046 0.45208 0.52709 0.0
H568 H 0.17096 0.47538 0.5176 0.0
H569 H 0.23211 0.48293 0.4877 0.0
H570 H 0.3484 0.4471 0.52807 0.0
H571 H 0.29701 0.44467 0.49379 0.0
H572 H 0.19496 0.43994 0.73052 0.0
H573 H 0.1432 0.43926 0.69687 0.0
H574 H 0.2667 0.4847 0.72934 0.0
H575 H 0.32694 0.4833 0.69962 0.0
C576 C 1.00555 0.75594 0.93549 0.0
C577 C 0.95691 0.76667 0.95477 0.0
C578 C 0.94787 0.67813 1.00551 0.0
C579 C 0.99929 0.67187 0.99192 0.0
N580 N 0.08027 0.71419 0.95175 0.0
N581 N 0.88903 0.74311 1.02004 0.0
C582 C 1.02907 0.71347 0.95909 0.0
C583 C 0.92997 0.72924 0.99313 0.0
N584 N 1.02893 0.78476 0.89345 0.0
N585 N 0.91504 0.63477 1.02821 0.0
H586 H 0.87745 0.78185 1.01606 0.0
H587 H 0.87097 0.71862 0.05076 0.0
H588 H 0.92502 0.59548 1.03456 0.0
H589 H 0.87635 0.63636 1.035 0.0
H590 H 0.06208 0.77483 0.87565 0.0
H591 H 1.01249 0.81416 0.87325 0.0
H592 H 0.10408 0.74651 0.93162 0.0
H593 H 0.09958 0.68614 0.97034 0.0
C594 C 0.40292 0.83102 0.17221 0.0
C595 C 0.41325 0.78179 0.15253 0.0
C596 C 0.48432 0.83318 0.09822 0.0
C597 C 0.47505 0.88213 0.11905 0.0
N598 N 0.43103 0.92676 0.18106 0.0
N599 N 0.46685 0.73371 0.10152 0.0
C600 C 0.43609 0.8807 0.15777 0.0
C601 C 0.45482 0.78227 0.11673 0.0
N602 N 0.36025 0.83053 0.2035 0.0
N603 N 0.5215 0.83563 0.06061 0.0
H604 H 0.4454 0.69592 0.11342 0.0
H605 H 0.49956 0.73008 0.07943 0.0
H606 H 0.54704 0.87091 0.04998 0.0
H607 H 0.52628 0.80369 0.03908 0.0
H608 H 0.34706 0.8658 0.21485 0.0
H609 H 0.33555 0.79486 0.21545 0.0
H610 H 0.40717 0.92715 0.21283 0.0
H611 H 0.45341 0.96429 0.17074 0.0
C612 C 0.04247 0.28953 0.55088 0.0
C613 C 0.05893 0.3067 0.59504 0.0
C614 C 0.0591 0.21086 0.6269 0.0
C615 C 0.04758 0.19381 0.58077 0.0
N616 N 0.03795 0.21816 0.49591 0.0
N617 N 0.08684 0.28531 0.67407 0.0
C618 C 0.04123 0.23339 0.54205 0.0
C619 C 0.06807 0.26775 0.63285 0.0
N620 N 1.02849 0.32704 0.51716 0.0
N621 N 0.0602 0.17282 0.66563 0.0
H622 H 0.09088 0.3263 0.6814 0.0
H623 H 0.10132 0.25991 0.69979 0.0
H624 H 0.05607 0.13073 0.66318 0.0
H625 H 0.06138 0.18252 0.70143 0.0
H626 H 1.01085 0.31624 0.48668 0.0
H627 H 1.03062 0.36878 0.52175 0.0
H628 H 0.03869 0.24603 0.46532 0.0
H629 H 0.03975 0.17819 0.487 0.0
C630 C 0.52969 0.26195 0.51972 0.0
C631 C 0.56535 0.2555 0.48028 0.0
C632 C 0.57926 0.35532 0.46095 0.0
C633 C 0.54971 0.36194 0.505 0.0
N634 N 0.51203 0.31852 0.58409 0.0
N635 N 0.63386 0.2981 0.42095 0.0
C636 C 0.52883 0.31445 0.5366 0.0
C637 C 0.59298 0.30275 0.4529 0.0
N638 N 0.49644 0.21822 0.54108 0.0
N639 N 0.59312 0.39832 0.42595 0.0
H640 H 0.64701 0.26077 0.41575 0.0
H641 H 0.65793 0.33206 0.40376 0.0
H642 H 0.5821 0.43693 0.42888 0.0
H643 H 0.61072 0.39379 0.39162 0.0
H644 H 0.46718 0.22235 0.56749 0.0
H645 H 0.49472 0.17931 0.52867 0.0
H646 H 0.49993 0.28424 0.609 0.0
H647 H 0.51729 0.35504 0.60039 0.0
loop_
_geom_bond_atom_site_label_1
_geom_bond_atom_site_label_2
_geom_bond_distance
_geom_bond_site_symmetry_2
_ccdc_geom_bond_type
H0 C5 0.930 . S
H1 C8 0.930 . S
H2 C10 0.930 . S
H3 C4 1.016 . S
C4 H3 1.016 . S
C4 N11 1.286 . S
C5 H0 0.930 . S
C5 C6 1.397 . S
C5 C7 1.361 . S
C6 C5 1.397 . S
C6 C10 1.390 . S
C7 C5 1.361 . S
C7 C8 1.393 . S
C7 N11 1.413 . S
C8 H1 0.930 . S
C8 C7 1.393 . S
C8 C9 1.399 . S
C9 C8 1.399 . S
C9 C10 1.381 . S
C10 H2 0.930 . S
C10 C6 1.390 . S
C10 C9 1.381 . S
N11 C4 1.286 . S
N11 C7 1.413 . S
H12 C17 0.930 . S
H13 C20 0.930 . S
H14 C22 0.930 . S
H15 C16 1.016 . S
C16 H15 1.016 . S
C16 N23 1.286 . S
C17 H12 0.930 . S
C17 C18 1.397 . S
C17 C19 1.361 . S
C18 C17 1.397 . S
C18 C22 1.390 . S
C19 C17 1.361 . S
C19 C20 1.393 . S
C19 N23 1.413 . S
C20 H13 0.930 . S
C20 C19 1.393 . S
C20 C21 1.399 . S
C21 C20 1.399 . S
C21 C22 1.381 . S
C22 H14 0.930 . S
C22 C18 1.390 . S
C22 C21 1.381 . S
N23 C16 1.286 . S
N23 C19 1.413 . S
H24 C29 0.930 . S
H25 C32 0.930 . S
H26 C34 0.930 . S
H27 C28 1.016 . S
C28 H27 1.016 . S
C28 N35 1.286 . S
C29 H24 0.930 . S
C29 C30 1.397 . S
C29 C31 1.361 . S
C30 C29 1.397 . S
C30 C34 1.390 . S
C31 C29 1.361 . S
C31 C32 1.393 . S
C31 N35 1.413 . S
C32 H25 0.930 . S
C32 C31 1.393 . S
C32 C33 1.399 . S
C33 C32 1.399 . S
C33 C34 1.381 . S
C34 H26 0.930 . S
C34 C30 1.390 . S
C34 C33 1.381 . S
N35 C28 1.286 . S
N35 C31 1.413 . S
H36 C41 0.930 . S
H37 C44 0.930 . S
H38 C46 0.930 . S
H39 C40 1.016 . S
C40 H39 1.016 . S
C40 N47 1.286 . S
C41 H36 0.930 . S
C41 C42 1.397 . S
C41 C43 1.361 . S
C42 C41 1.397 . S
C42 C46 1.390 . S
C43 C41 1.361 . S
C43 C44 1.393 . S
C43 N47 1.413 . S
C44 H37 0.930 . S
C44 C43 1.393 . S
C44 C45 1.399 . S
C45 C44 1.399 . S
C45 C46 1.381 . S
C46 H38 0.930 . S
C46 C42 1.390 . S
C46 C45 1.381 . S
N47 C40 1.286 . S
N47 C43 1.413 . S
H48 C53 0.930 . S
H49 C56 0.930 . S
H50 C58 0.930 . S
H51 C52 1.016 . S
C52 H51 1.016 . S
C52 N59 1.286 . S
C53 H48 0.930 . S
C53 C54 1.397 . S
C53 C55 1.361 . S
C54 C53 1.397 . S
C54 C58 1.390 . S
C55 C53 1.361 . S
C55 C56 1.393 . S
C55 N59 1.413 . S
C56 H49 0.930 . S
C56 C55 1.393 . S
C56 C57 1.399 . S
C57 C56 1.399 . S
C57 C58 1.381 . S
C58 H50 0.930 . S
C58 C54 1.390 . S
C58 C57 1.381 . S
N59 C52 1.286 . S
N59 C55 1.413 . S
H60 C65 0.930 . S
H61 C68 0.930 . S
H62 C70 0.930 . S
H63 C64 1.016 . S
C64 H63 1.016 . S
C64 N71 1.286 . S
C65 H60 0.930 . S
C65 C66 1.397 . S
C65 C67 1.361 . S
C66 C65 1.397 . S
C66 C70 1.390 . S
C67 C65 1.361 . S
C67 C68 1.393 . S
C67 N71 1.413 . S
C68 H61 0.930 . S
C68 C67 1.393 . S
C68 C69 1.399 . S
C69 C68 1.399 . S
C69 C70 1.381 . S
C70 H62 0.930 . S
C70 C66 1.390 . S
C70 C69 1.381 . S
N71 C64 1.286 . S
N71 C67 1.413 . S
H72 C77 0.930 . S
H73 C80 0.930 . S
H74 C82 0.930 . S
H75 C76 1.016 . S
C76 H75 1.016 . S
C76 N83 1.286 . S
C77 H72 0.930 . S
C77 C78 1.397 . S
C77 C79 1.361 . S
C78 C77 1.397 . S
C78 C82 1.390 . S
C79 C77 1.361 . S
C79 C80 1.393 . S
C79 N83 1.413 . S
C80 H73 0.930 . S
C80 C79 1.393 . S
C80 C81 1.399 . S
C81 C80 1.399 . S
C81 C82 1.381 . S
C82 H74 0.930 . S
C82 C78 1.390 . S
C82 C81 1.381 . S
N83 C76 1.286 . S
N83 C79 1.413 . S
H84 C89 0.930 . S
H85 C92 0.930 . S
H86 C94 0.930 . S
H87 C88 1.016 . S
C88 H87 1.016 . S
C88 N95 1.286 . S
C89 H84 0.930 . S
C89 C90 1.397 . S
C89 C91 1.361 . S
C90 C89 1.397 . S
C90 C94 1.390 . S
C91 C89 1.361 . S
C91 C92 1.393 . S
C91 N95 1.413 . S
C92 H85 0.930 . S
C92 C91 1.393 . S
C92 C93 1.399 . S
C93 C92 1.399 . S
C93 C94 1.381 . S
C94 H86 0.930 . S
C94 C90 1.390 . S
C94 C93 1.381 . S
N95 C88 1.286 . S
N95 C91 1.413 . S
Co96 N101 2.057 . S
Co96 O113 2.021 . S
Co96 O116 2.062 . S
Co96 O120 2.117 1_545 S
Co96 O121 2.020 1_545 S
C97 O117 1.259 1_655 S
C97 O120 1.258 . S
Co98 N107 2.057 . S
Co98 O114 2.117 1_565 S
Co98 O115 2.020 1_565 S
Co98 O117 2.021 . S
Co98 O122 2.062 . S
C99 N101 1.316 . S
C99 N102 1.347 . S
C99 H104 0.931 . S
C100 N101 1.375 1_565 S
C100 C103 1.350 1_565 S
C100 H105 0.930 . S
N101 Co96 2.057 . S
N101 C99 1.316 . S
N101 C100 1.375 1_545 S
N102 C99 1.347 . S
N102 C103 1.373 . S
C103 C100 1.350 1_545 S
C103 N102 1.373 . S
C103 H124 0.931 1_545 S
H104 C99 0.931 . S
H105 C100 0.930 . S
C106 O113 1.259 1_455 S
C106 O114 1.258 . S
N107 Co98 2.057 . S
N107 C108 1.316 . S
N107 C109 1.375 1_565 S
C108 N107 1.316 . S
C108 N110 1.347 . S
C108 H119 0.931 . S
C109 N107 1.375 1_545 S
C109 C111 1.350 . S
C109 H118 0.930 . S
N110 C108 1.347 . S
N110 C111 1.373 1_565 S
C111 C109 1.350 . S
C111 N110 1.373 1_545 S
C111 H125 0.931 . S
C112 O115 1.256 . S
C112 O116 1.255 1_455 S
O113 Co96 2.021 . S
O113 C106 1.259 1_655 S
O114 Co98 2.117 1_545 S
O114 C106 1.258 . S
O115 Co98 2.020 1_545 S
O115 C112 1.256 . S
O116 Co96 2.062 . S
O116 C112 1.255 1_655 S
O117 C97 1.259 1_455 S
O117 Co98 2.021 . S
H118 C109 0.930 . S
H119 C108 0.931 . S
O120 Co96 2.117 1_565 S
O120 C97 1.258 . S
O121 Co96 2.020 1_565 S
O121 C123 1.256 . S
O122 Co98 2.062 . S
O122 C123 1.255 1_455 S
C123 O121 1.256 . S
C123 O122 1.255 1_655 S
H124 C103 0.931 1_565 S
H125 C111 0.931 . S
Co126 N131 2.057 1_545 S
Co126 O143 2.021 . S
Co126 O146 2.062 1_545 S
Co126 O150 2.117 1_546 S
Co126 O151 2.020 1_556 S
C127 O147 1.259 . S
C127 O150 1.258 . S
Co128 N137 2.057 . S
Co128 O144 2.117 . S
Co128 O145 2.020 . S
Co128 O147 2.021 1_545 S
Co128 O152 2.062 . S
C129 N131 1.316 . S
C129 N132 1.347 . S
C129 H134 0.931 1_565 S
C130 N131 1.375 . S
C130 C133 1.350 . S
C130 H135 0.930 . S
N131 Co126 2.057 1_565 S
N131 C129 1.316 . S
N131 C130 1.375 . S
N132 C129 1.347 . S
N132 C133 1.373 . S
C133 C130 1.350 . S
C133 N132 1.373 . S
C133 H154 0.931 . S
H134 C129 0.931 1_545 S
H135 C130 0.930 . S
C136 O143 1.259 . S
C136 O144 1.258 1_556 S
N137 Co128 2.057 . S
N137 C138 1.316 . S
N137 C139 1.375 . S
C138 N137 1.316 . S
C138 N140 1.347 . S
C138 H149 0.931 . S
C139 N137 1.375 . S
C139 C141 1.350 . S
C139 H148 0.930 . S
N140 C138 1.347 . S
N140 C141 1.373 . S
C141 C139 1.350 . S
C141 N140 1.373 . S
C141 H155 0.931 . S
C142 O145 1.256 1_566 S
C142 O146 1.255 . S
O143 Co126 2.021 . S
O143 C136 1.259 . S
O144 Co128 2.117 . S
O144 C136 1.258 1_554 S
O145 Co128 2.020 . S
O145 C142 1.256 1_544 S
O146 Co126 2.062 1_565 S
O146 C142 1.255 . S
O147 C127 1.259 . S
O147 Co128 2.021 1_565 S
H148 C139 0.930 . S
H149 C138 0.931 . S
O150 Co126 2.117 1_564 S
O150 C127 1.258 . S
O151 Co126 2.020 1_554 S
O151 C153 1.256 . S
O152 Co128 2.062 . S
O152 C153 1.255 . S
C153 O151 1.256 . S
C153 O152 1.255 . S
H154 C133 0.931 . S
H155 C141 0.931 . S
Co156 N161 2.057 . S
Co156 O173 2.021 . S
Co156 O176 2.062 . S
Co156 O180 2.117 . S
Co156 O181 2.020 . S
C157 O177 1.259 . S
C157 O180 1.258 . S
Co158 N167 2.057 . S
Co158 O174 2.117 . S
Co158 O175 2.020 . S
Co158 O177 2.021 . S
Co158 O182 2.062 . S
C159 N161 1.316 . S
C159 N162 1.347 . S
C159 H164 0.931 . S
C160 N161 1.375 . S
C160 C163 1.350 . S
C160 H165 0.930 . S
N161 Co156 2.057 . S
N161 C159 1.316 . S
N161 C160 1.375 . S
N162 C159 1.347 . S
N162 C163 1.373 . S
C163 C160 1.350 . S
C163 N162 1.373 . S
C163 H184 0.931 . S
H164 C159 0.931 . S
H165 C160 0.930 . S
C166 O173 1.259 . S
C166 O174 1.258 . S
N167 Co158 2.057 . S
N167 C168 1.316 . S
N167 C169 1.375 . S
C168 N167 1.316 . S
C168 N170 1.347 . S
C168 H179 0.931 . S
C169 N167 1.375 . S
C169 C171 1.350 . S
C169 H178 0.930 . S
N170 C168 1.347 . S
N170 C171 1.373 . S
C171 C169 1.350 . S
C171 N170 1.373 . S
C171 H185 0.931 . S
C172 O175 1.256 . S
C172 O176 1.255 . S
O173 Co156 2.021 . S
O173 C166 1.259 . S
O174 Co158 2.117 . S
O174 C166 1.258 . S
O175 Co158 2.020 . S
O175 C172 1.256 . S
O176 Co156 2.062 . S
O176 C172 1.255 . S
O177 C157 1.259 . S
O177 Co158 2.021 . S
H178 C169 0.930 . S
H179 C168 0.931 . S
O180 Co156 2.117 . S
O180 C157 1.258 . S
O181 Co156 2.020 . S
O181 C183 1.256 . S
O182 Co158 2.062 . S
O182 C183 1.255 . S
C183 O181 1.256 . S
C183 O182 1.255 . S
H184 C163 0.931 . S
H185 C171 0.931 . S
Co186 N191 2.057 . S
Co186 O203 2.021 . S
Co186 O206 2.062 . S
Co186 O210 2.117 1_455 S
Co186 O211 2.020 . S
C187 O207 1.259 . S
C187 O210 1.258 1_554 S
Co188 N197 2.057 . S
Co188 O204 2.117 1_655 S
Co188 O205 2.020 1_655 S
Co188 O207 2.021 . S
Co188 O212 2.062 . S
C189 N191 1.316 . S
C189 N192 1.347 . S
C189 H194 0.931 . S
C190 N191 1.375 . S
C190 C193 1.350 . S
C190 H195 0.930 1_455 S
N191 Co186 2.057 . S
N191 C189 1.316 . S
N191 C190 1.375 . S
N192 C189 1.347 . S
N192 C193 1.373 . S
C193 C190 1.350 . S
C193 N192 1.373 . S
C193 H214 0.931 . S
H194 C189 0.931 . S
H195 C190 0.930 1_655 S
C196 O203 1.259 1_554 S
C196 O204 1.258 . S
N197 Co188 2.057 . S
N197 C198 1.316 . S
N197 C199 1.375 1_655 S
C198 N197 1.316 . S
C198 N200 1.347 . S
C198 H209 0.931 . S
C199 N197 1.375 1_455 S
C199 C201 1.350 . S
C199 H208 0.930 . S
N200 C198 1.347 . S
N200 C201 1.373 1_655 S
C201 C199 1.350 . S
C201 N200 1.373 1_455 S
C201 H215 0.931 . S
C202 O205 1.256 . S
C202 O206 1.255 1_554 S
O203 Co186 2.021 . S
O203 C196 1.259 1_556 S
O204 Co188 2.117 1_455 S
O204 C196 1.258 . S
O205 Co188 2.020 1_455 S
O205 C202 1.256 . S
O206 Co186 2.062 . S
O206 C202 1.255 1_556 S
O207 C187 1.259 . S
O207 Co188 2.021 . S
H208 C199 0.930 . S
H209 C198 0.931 . S
O210 Co186 2.117 1_655 S
O210 C187 1.258 1_556 S
O211 Co186 2.020 . S
O211 C213 1.256 1_455 S
O212 Co188 2.062 . S
O212 C213 1.255 1_554 S
C213 O211 1.256 1_655 S
C213 O212 1.255 1_556 S
H214 C193 0.931 . S
H215 C201 0.931 . S
C216 C217 1.363 . S
C216 C222 1.379 . S
C216 N224 1.356 . S
C217 C216 1.363 . S
C217 C223 1.363 . S
C218 C219 1.363 . S
C218 C223 1.379 . S
C218 N225 1.356 . S
C219 C218 1.363 . S
C219 C222 1.363 . S
N220 C222 1.356 1_655 S
N220 H232 0.984 . S
N220 H233 0.985 . S
N221 C223 1.356 . S
N221 H226 0.984 . S
N221 H227 0.985 . S
C222 C216 1.379 . S
C222 C219 1.363 . S
C222 N220 1.356 1_455 S
C223 C217 1.363 . S
C223 C218 1.379 . S
C223 N221 1.356 . S
N224 C216 1.356 . S
N224 H230 0.984 1_455 S
N224 H231 0.984 . S
N225 C218 1.356 . S
N225 H228 0.984 . S
N225 H229 0.985 . S
H226 N221 0.984 . S
H227 N221 0.985 . S
H228 N225 0.984 . S
H229 N225 0.985 . S
H230 N224 0.984 1_655 S
H231 N224 0.984 . S
H232 N220 0.984 . S
H233 N220 0.985 . S
C234 C235 1.363 . S
C234 C240 1.379 . S
C234 N242 1.356 . S
C235 C234 1.363 . S
C235 C241 1.363 . S
C236 C237 1.363 . S
C236 C241 1.379 . S
C236 N243 1.356 . S
C237 C236 1.363 . S
C237 C240 1.363 . S
N238 C240 1.356 1_545 S
N238 H250 0.984 . S
N238 H251 0.985 . S
N239 C241 1.356 . S
N239 H244 0.984 . S
N239 H245 0.985 . S
C240 C234 1.379 . S
C240 C237 1.363 . S
C240 N238 1.356 1_565 S
C241 C235 1.363 . S
C241 C236 1.379 . S
C241 N239 1.356 . S
N242 C234 1.356 . S
N242 H248 0.995 . S
N242 H249 0.984 . S
N243 C236 1.356 . S
N243 H246 0.984 . S
N243 H247 0.985 . S
H244 N239 0.984 . S
H245 N239 0.985 . S
H246 N243 0.984 . S
H247 N243 0.985 . S
H248 N242 0.995 . S
H249 N242 0.984 . S
H250 N238 0.984 . S
H251 N238 0.985 . S
C252 C253 1.363 . S
C252 C258 1.379 . S
C252 N260 1.356 . S
C253 C252 1.363 . S
C253 C259 1.363 . S
C254 C255 1.363 . S
C254 C259 1.379 . S
C254 N261 1.356 . S
C255 C254 1.363 . S
C255 C258 1.363 . S
N256 C258 1.356 . S
N256 H268 0.984 . S
N256 H269 0.985 . S
N257 C259 1.356 . S
N257 H262 0.984 . S
N257 H263 0.985 . S
C258 C252 1.379 . S
C258 C255 1.363 . S
C258 N256 1.356 . S
C259 C253 1.363 . S
C259 C254 1.379 . S
C259 N257 1.356 . S
N260 C252 1.356 . S
N260 H266 0.984 . S
N260 H267 0.984 . S
N261 C254 1.356 . S
N261 H264 0.984 . S
N261 H265 0.985 . S
H262 N257 0.984 . S
H263 N257 0.985 . S
H264 N261 0.984 . S
H265 N261 0.985 . S
H266 N260 0.984 . S
H267 N260 0.984 . S
H268 N256 0.984 . S
H269 N256 0.985 . S
C270 C271 1.363 . S
C270 C276 1.379 . S
C270 N278 1.356 . S
C271 C270 1.363 . S
C271 C277 1.363 . S
C272 C273 1.363 . S
C272 C277 1.379 . S
C272 N279 1.356 . S
C273 C272 1.363 . S
C273 C276 1.363 . S
N274 C276 1.356 . S
N274 H286 0.984 . S
N274 H287 0.985 . S
N275 C277 1.356 1_455 S
N275 H280 0.984 . S
N275 H281 0.985 . S
C276 C270 1.379 . S
C276 C273 1.363 . S
C276 N274 1.356 . S
C277 C271 1.363 . S
C277 C272 1.379 . S
C277 N275 1.356 1_655 S
N278 C270 1.356 . S
N278 H284 0.984 . S
N278 H285 0.984 . S
N279 C272 1.356 . S
N279 H282 0.984 . S
N279 H283 0.985 . S
H280 N275 0.984 . S
H281 N275 0.985 . S
H282 N279 0.984 . S
H283 N279 0.985 . S
H284 N278 0.984 . S
H285 N278 0.984 . S
H286 N274 0.984 . S
H287 N274 0.985 . S
C288 C289 1.363 . S
C288 C294 1.379 . S
C288 N296 1.356 . S
C289 C288 1.363 . S
C289 C295 1.363 . S
C290 C291 1.363 . S
C290 C295 1.379 . S
C290 N297 1.356 1_545 S
C291 C290 1.363 . S
C291 C294 1.363 . S
N292 C294 1.356 . S
N292 H304 0.984 . S
N292 H305 0.985 . S
N293 C295 1.356 . S
N293 H298 0.984 . S
N293 H299 0.985 1_545 S
C294 C288 1.379 . S
C294 C291 1.363 . S
C294 N292 1.356 . S
C295 C289 1.363 . S
C295 C290 1.379 . S
C295 N293 1.356 . S
N296 C288 1.356 . S
N296 H302 0.984 . S
N296 H303 0.984 . S
N297 C290 1.356 1_565 S
N297 H300 0.984 . S
N297 H301 0.985 . S
H298 N293 0.984 . S
H299 N293 0.985 1_565 S
H300 N297 0.984 . S
H301 N297 0.985 . S
H302 N296 0.984 . S
H303 N296 0.984 . S
H304 N292 0.984 . S
H305 N292 0.985 . S
C306 C307 1.363 . S
C306 C312 1.379 . S
C306 N314 1.356 . S
C307 C306 1.363 . S
C307 C313 1.363 . S
C308 C309 1.363 . S
C308 C313 1.379 . S
C308 N315 1.356 . S
C309 C308 1.363 . S
C309 C312 1.363 . S
N310 C312 1.356 1_545 S
N310 H322 0.984 . S
N310 H323 0.984 . S
N311 C313 1.356 . S
N311 H316 0.984 . S
N311 H317 0.985 . S
C312 C306 1.379 . S
C312 C309 1.363 . S
C312 N310 1.356 1_565 S
C313 C307 1.363 . S
C313 C308 1.379 . S
C313 N311 1.356 . S
N314 C306 1.356 . S
N314 H320 0.984 1_565 S
N314 H321 0.984 . S
N315 C308 1.356 . S
N315 H318 0.984 . S
N315 H319 0.985 . S
H316 N311 0.984 . S
H317 N311 0.985 . S
H318 N315 0.984 . S
H319 N315 0.985 . S
H320 N314 0.984 1_545 S
H321 N314 0.984 . S
H322 N310 0.984 . S
H323 N310 0.984 . S
C324 C325 1.363 . S
C324 C330 1.379 . S
C324 N332 1.356 . S
C325 C324 1.363 . S
C325 C331 1.363 . S
C326 C327 1.363 1_554 S
C326 C331 1.379 1_554 S
C326 N333 1.356 . S
C327 C326 1.363 1_556 S
C327 C330 1.363 . S
N328 C330 1.356 . S
N328 H340 0.984 . S
N328 H341 0.985 . S
N329 C331 1.352 1_554 S
N329 H334 0.972 1_554 S
N329 H335 1.002 . S
C330 C324 1.379 . S
C330 C327 1.363 . S
C330 N328 1.356 . S
C331 C325 1.363 . S
C331 C326 1.379 1_556 S
C331 N329 1.352 1_556 S
N332 C324 1.356 . S
N332 H338 0.984 . S
N332 H339 0.984 . S
N333 C326 1.356 . S
N333 H336 0.984 . S
N333 H337 0.985 . S
H334 N329 0.972 1_556 S
H335 N329 1.002 . S
H336 N333 0.984 . S
H337 N333 0.985 . S
H338 N332 0.984 . S
H339 N332 0.984 . S
H340 N328 0.984 . S
H341 N328 0.985 . S
C342 C343 1.363 . S
C342 C348 1.379 . S
C342 N350 1.356 . S
C343 C342 1.363 . S
C343 C349 1.363 . S
C344 C345 1.363 . S
C344 C349 1.379 . S
C344 N351 1.356 . S
C345 C344 1.363 . S
C345 C348 1.363 . S
N346 C348 1.356 . S
N346 H358 0.984 . S
N346 H359 0.985 . S
N347 C349 1.356 . S
N347 H352 0.984 . S
N347 H353 0.985 . S
C348 C342 1.379 . S
C348 C345 1.363 . S
C348 N346 1.356 . S
C349 C343 1.363 . S
C349 C344 1.379 . S
C349 N347 1.356 . S
N350 C342 1.356 . S
N350 H356 0.984 . S
N350 H357 0.984 . S
N351 C344 1.356 . S
N351 H354 0.984 . S
N351 H355 0.985 . S
H352 N347 0.984 . S
H353 N347 0.985 . S
H354 N351 0.984 . S
H355 N351 0.985 . S
H356 N350 0.984 . S
H357 N350 0.984 . S
H358 N346 0.984 . S
H359 N346 0.985 . S
C360 C361 1.363 . S
C360 C366 1.379 . S
C360 N368 1.356 . S
C361 C360 1.363 . S
C361 C367 1.363 . S
C362 C363 1.363 . S
C362 C367 1.379 . S
C362 N369 1.356 1_554 S
C363 C362 1.363 . S
C363 C366 1.363 . S
N364 C366 1.356 1_655 S
N364 H376 0.984 . S
N364 H377 0.985 . S
N365 C367 1.356 . S
N365 H370 0.984 . S
N365 H371 0.985 1_554 S
C366 C360 1.379 . S
C366 C363 1.363 . S
C366 N364 1.356 1_455 S
C367 C361 1.363 . S
C367 C362 1.379 . S
C367 N365 1.356 . S
N368 C360 1.356 . S
N368 H374 0.984 . S
N368 H375 0.984 . S
N369 C362 1.356 1_556 S
N369 H372 0.984 . S
N369 H373 0.985 . S
H370 N365 0.984 . S
H371 N365 0.985 1_556 S
H372 N369 0.984 . S
H373 N369 0.985 . S
H374 N368 0.984 . S
H375 N368 0.984 . S
H376 N364 0.984 . S
H377 N364 0.985 . S
C378 C379 1.363 . S
C378 C384 1.379 . S
C378 N386 1.356 1_556 S
C379 C378 1.363 . S
C379 C385 1.363 . S
C380 C381 1.363 . S
C380 C385 1.379 . S
C380 N387 1.356 . S
C381 C380 1.363 . S
C381 C384 1.363 . S
N382 C384 1.356 1_554 S
N382 H394 0.984 . S
N382 H395 0.985 . S
N383 C385 1.356 . S
N383 H388 0.984 . S
N383 H389 0.985 . S
C384 C378 1.379 . S
C384 C381 1.363 . S
C384 N382 1.356 1_556 S
C385 C379 1.363 . S
C385 C380 1.379 . S
C385 N383 1.356 . S
N386 C378 1.356 1_554 S
N386 H392 0.984 . S
N386 H393 0.984 1_554 S
N387 C380 1.356 . S
N387 H390 0.984 . S
N387 H391 0.985 . S
H388 N383 0.984 . S
H389 N383 0.985 . S
H390 N387 0.984 . S
H391 N387 0.985 . S
H392 N386 0.984 . S
H393 N386 0.984 1_556 S
H394 N382 0.984 . S
H395 N382 0.985 . S
C396 C397 1.363 . S
C396 C402 1.379 . S
C396 N404 1.356 . S
C397 C396 1.363 . S
C397 C403 1.363 . S
C398 C399 1.363 . S
C398 C403 1.379 . S
C398 N405 1.356 1_655 S
C399 C398 1.363 . S
C399 C402 1.363 . S
N400 C402 1.356 . S
N400 H412 0.984 . S
N400 H413 0.985 . S
N401 C403 1.356 . S
N401 H406 0.984 . S
N401 H407 0.985 1_655 S
C402 C396 1.379 . S
C402 C399 1.363 . S
C402 N400 1.356 . S
C403 C397 1.363 . S
C403 C398 1.379 . S
C403 N401 1.356 . S
N404 C396 1.356 . S
N404 H410 0.984 . S
N404 H411 0.984 . S
N405 C398 1.356 1_455 S
N405 H408 0.984 . S
N405 H409 0.985 . S
H406 N401 0.984 . S
H407 N401 0.985 1_455 S
H408 N405 0.984 . S
H409 N405 0.985 . S
H410 N404 0.984 . S
H411 N404 0.984 . S
H412 N400 0.984 . S
H413 N400 0.985 . S
C414 C415 1.363 . S
C414 C420 1.379 . S
C414 N422 1.356 . S
C415 C414 1.363 . S
C415 C421 1.363 . S
C416 C417 1.363 . S
C416 C421 1.379 . S
C416 N423 1.356 . S
C417 C416 1.363 . S
C417 C420 1.363 . S
N418 C420 1.356 . S
N418 H430 0.984 . S
N418 H431 0.985 . S
N419 C421 1.356 . S
N419 H424 0.984 . S
N419 H425 0.985 . S
C420 C414 1.379 . S
C420 C417 1.363 . S
C420 N418 1.356 . S
C421 C415 1.363 . S
C421 C416 1.379 . S
C421 N419 1.356 . S
N422 C414 1.356 . S
N422 H428 0.984 . S
N422 H429 0.984 . S
N423 C416 1.356 . S
N423 H426 0.984 . S
N423 H427 0.985 . S
H424 N419 0.984 . S
H425 N419 0.985 . S
H426 N423 0.984 . S
H427 N423 0.985 . S
H428 N422 0.984 . S
H429 N422 0.984 . S
H430 N418 0.984 . S
H431 N418 0.985 . S
C432 C433 1.363 . S
C432 C438 1.379 . S
C432 N440 1.356 . S
C433 C432 1.363 . S
C433 C439 1.363 1_565 S
C434 C435 1.363 1_545 S
C434 C439 1.379 . S
C434 N441 1.356 . S
C435 C434 1.363 1_565 S
C435 C438 1.363 . S
N436 C438 1.356 . S
N436 H448 0.984 . S
N436 H449 0.985 . S
N437 C439 1.356 . S
N437 H442 0.984 . S
N437 H443 0.985 . S
C438 C432 1.379 . S
C438 C435 1.363 . S
C438 N436 1.356 . S
C439 C433 1.363 1_545 S
C439 C434 1.379 . S
C439 N437 1.356 . S
N440 C432 1.356 . S
N440 H446 0.984 . S
N440 H447 0.984 . S
N441 C434 1.356 . S
N441 H444 0.984 . S
N441 H445 0.985 . S
H442 N437 0.984 . S
H443 N437 0.985 . S
H444 N441 0.984 . S
H445 N441 0.985 . S
H446 N440 0.984 . S
H447 N440 0.984 . S
H448 N436 0.984 . S
H449 N436 0.985 . S
C450 C451 1.363 . S
C450 C456 1.379 . S
C450 N458 1.356 . S
C451 C450 1.363 . S
C451 C457 1.363 . S
C452 C453 1.363 . S
C452 C457 1.379 . S
C452 N459 1.356 . S
C453 C452 1.363 . S
C453 C456 1.363 . S
N454 C456 1.356 . S
N454 H466 0.984 . S
N454 H467 0.985 . S
N455 C457 1.356 . S
N455 H460 0.984 . S
N455 H461 0.985 . S
C456 C450 1.379 . S
C456 C453 1.363 . S
C456 N454 1.356 . S
C457 C451 1.363 . S
C457 C452 1.379 . S
C457 N455 1.356 . S
N458 C450 1.356 . S
N458 H464 0.984 . S
N458 H465 0.984 . S
N459 C452 1.356 . S
N459 H462 0.984 . S
N459 H463 0.985 . S
H460 N455 0.984 . S
H461 N455 0.985 . S
H462 N459 0.984 . S
H463 N459 0.985 . S
H464 N458 0.984 . S
H465 N458 0.984 . S
H466 N454 0.984 . S
H467 N454 0.985 . S
C468 C469 1.363 . S
C468 C474 1.379 . S
C468 N476 1.356 . S
C469 C468 1.363 . S
C469 C475 1.363 . S
C470 C471 1.363 . S
C470 C475 1.379 . S
C470 N477 1.356 . S
C471 C470 1.363 . S
C471 C474 1.363 . S
N472 C474 1.356 . S
N472 H484 0.984 . S
N472 H485 0.985 . S
N473 C475 1.356 . S
N473 H478 0.984 . S
N473 H479 0.985 . S
C474 C468 1.379 . S
C474 C471 1.363 . S
C474 N472 1.356 . S
C475 C469 1.363 . S
C475 C470 1.379 . S
C475 N473 1.356 . S
N476 C468 1.356 . S
N476 H482 0.984 . S
N476 H483 0.984 . S
N477 C470 1.356 . S
N477 H480 0.984 . S
N477 H481 0.985 . S
H478 N473 0.984 . S
H479 N473 0.985 . S
H480 N477 0.984 . S
H481 N477 0.985 . S
H482 N476 0.984 . S
H483 N476 0.984 . S
H484 N472 0.984 . S
H485 N472 0.985 . S
C486 C487 1.363 . S
C486 C492 1.379 . S
C486 N494 1.356 . S
C487 C486 1.363 . S
C487 C493 1.363 . S
C488 C489 1.363 . S
C488 C493 1.379 . S
C488 N495 1.356 . S
C489 C488 1.363 . S
C489 C492 1.363 . S
N490 C492 1.356 . S
N490 H502 0.984 . S
N490 H503 0.985 . S
N491 C493 1.356 . S
N491 H496 0.984 . S
N491 H497 0.985 . S
C492 C486 1.379 . S
C492 C489 1.363 . S
C492 N490 1.356 . S
C493 C487 1.363 . S
C493 C488 1.379 . S
C493 N491 1.356 . S
N494 C486 1.356 . S
N494 H500 0.984 . S
N494 H501 0.984 . S
N495 C488 1.356 . S
N495 H498 0.984 . S
N495 H499 0.985 . S
H496 N491 0.984 . S
H497 N491 0.985 . S
H498 N495 0.984 . S
H499 N495 0.985 . S
H500 N494 0.984 . S
H501 N494 0.984 . S
H502 N490 0.984 . S
H503 N490 0.985 . S
C504 C505 1.363 1_545 S
C504 C510 1.379 . S
C504 N512 1.356 . S
C505 C504 1.363 1_565 S
C505 C511 1.363 . S
C506 C507 1.363 . S
C506 C511 1.379 . S
C506 N513 1.356 . S
C507 C506 1.363 . S
C507 C510 1.363 1_565 S
N508 C510 1.356 . S
N508 H520 0.984 . S
N508 H521 0.985 . S
N509 C511 1.356 . S
N509 H514 0.984 . S
N509 H515 0.985 . S
C510 C504 1.379 . S
C510 C507 1.363 1_545 S
C510 N508 1.356 . S
C511 C505 1.363 . S
C511 C506 1.379 . S
C511 N509 1.356 . S
N512 C504 1.356 . S
N512 H518 0.984 . S
N512 H519 0.984 . S
N513 C506 1.356 . S
N513 H516 0.984 . S
N513 H517 0.985 . S
H514 N509 0.984 . S
H515 N509 0.985 . S
H516 N513 0.984 . S
H517 N513 0.985 . S
H518 N512 0.984 . S
H519 N512 0.984 . S
H520 N508 0.984 . S
H521 N508 0.985 . S
C522 C523 1.363 . S
C522 C528 1.379 . S
C522 N530 1.356 . S
C523 C522 1.363 . S
C523 C529 1.363 . S
C524 C525 1.363 . S
C524 C529 1.379 . S
C524 N531 1.356 . S
C525 C524 1.363 . S
C525 C528 1.363 . S
N526 C528 1.356 . S
N526 H538 0.984 . S
N526 H539 0.985 . S
N527 C529 1.356 . S
N527 H532 0.984 . S
N527 H533 0.985 . S
C528 C522 1.379 . S
C528 C525 1.363 . S
C528 N526 1.356 . S
C529 C523 1.363 . S
C529 C524 1.379 . S
C529 N527 1.356 . S
N530 C522 1.356 . S
N530 H536 0.984 . S
N530 H537 0.984 . S
N531 C524 1.356 . S
N531 H534 0.984 . S
N531 H535 0.985 . S
H532 N527 0.984 . S
H533 N527 0.985 . S
H534 N531 0.984 . S
H535 N531 0.985 . S
H536 N530 0.984 . S
H537 N530 0.984 . S
H538 N526 0.984 . S
H539 N526 0.985 . S
C540 C541 1.363 . S
C540 C546 1.379 . S
C540 N548 1.356 . S
C541 C540 1.363 . S
C541 C547 1.363 . S
C542 C543 1.363 . S
C542 C547 1.379 . S
C542 N549 1.356 . S
C543 C542 1.363 . S
C543 C546 1.363 . S
N544 C546 1.356 . S
N544 H556 0.984 . S
N544 H557 0.985 . S
N545 C547 1.356 . S
N545 H550 0.984 . S
N545 H551 0.985 . S
C546 C540 1.379 . S
C546 C543 1.363 . S
C546 N544 1.356 . S
C547 C541 1.363 . S
C547 C542 1.379 . S
C547 N545 1.356 . S
N548 C540 1.356 . S
N548 H554 0.984 . S
N548 H555 0.984 . S
N549 C542 1.356 . S
N549 H552 0.984 . S
N549 H553 0.985 . S
H550 N545 0.984 . S
H551 N545 0.985 . S
H552 N549 0.984 . S
H553 N549 0.985 . S
H554 N548 0.984 . S
H555 N548 0.984 . S
H556 N544 0.984 . S
H557 N544 0.985 . S
C558 C559 1.363 . S
C558 C564 1.379 . S
C558 N566 1.356 . S
C559 C558 1.363 . S
C559 C565 1.363 . S
C560 C561 1.363 . S
C560 C565 1.379 . S
C560 N567 1.356 . S
C561 C560 1.363 . S
C561 C564 1.363 . S
N562 C564 1.356 . S
N562 H574 0.984 . S
N562 H575 0.985 . S
N563 C565 1.356 . S
N563 H568 0.984 . S
N563 H569 0.985 . S
C564 C558 1.379 . S
C564 C561 1.363 . S
C564 N562 1.356 . S
C565 C559 1.363 . S
C565 C560 1.379 . S
C565 N563 1.356 . S
N566 C558 1.356 . S
N566 H572 0.984 . S
N566 H573 0.984 . S
N567 C560 1.356 . S
N567 H570 0.984 . S
N567 H571 0.985 . S
H568 N563 0.984 . S
H569 N563 0.985 . S
H570 N567 0.984 . S
H571 N567 0.985 . S
H572 N566 0.984 . S
H573 N566 0.984 . S
H574 N562 0.984 . S
H575 N562 0.985 . S
C576 C577 1.363 . S
C576 C582 1.379 . S
C576 N584 1.356 . S
C577 C576 1.363 . S
C577 C583 1.363 . S
C578 C579 1.363 . S
C578 C583 1.379 . S
C578 N585 1.356 1_656 S
C579 C578 1.363 . S
C579 C582 1.363 . S
N580 C582 1.356 . S
N580 H592 0.984 . S
N580 H593 0.985 . S
N581 C583 1.364 . S
N581 H586 0.996 . S
N581 H587 0.966 1_656 S
C582 C576 1.379 . S
C582 C579 1.363 . S
C582 N580 1.356 . S
C583 C577 1.363 . S
C583 C578 1.379 . S
C583 N581 1.364 . S
N584 C576 1.356 . S
N584 H590 0.984 . S
N584 H591 0.984 . S
N585 C578 1.356 1_454 S
N585 H588 0.984 . S
N585 H589 0.985 . S
H586 N581 0.996 . S
H587 N581 0.966 1_454 S
H588 N585 0.984 . S
H589 N585 0.985 . S
H590 N584 0.984 . S
H591 N584 0.984 . S
H592 N580 0.984 . S
H593 N580 0.985 . S
C594 C595 1.363 . S
C594 C600 1.379 . S
C594 N602 1.356 . S
C595 C594 1.363 . S
C595 C601 1.363 . S
C596 C597 1.363 . S
C596 C601 1.379 . S
C596 N603 1.356 . S
C597 C596 1.363 . S
C597 C600 1.363 . S
N598 C600 1.356 . S
N598 H610 0.984 . S
N598 H611 0.985 . S
N599 C601 1.356 . S
N599 H604 0.984 . S
N599 H605 0.985 . S
C600 C594 1.379 . S
C600 C597 1.363 . S
C600 N598 1.356 . S
C601 C595 1.363 . S
C601 C596 1.379 . S
C601 N599 1.356 . S
N602 C594 1.356 . S
N602 H608 0.984 . S
N602 H609 0.984 . S
N603 C596 1.356 . S
N603 H606 0.984 . S
N603 H607 0.985 1_554 S
H604 N599 0.984 . S
H605 N599 0.985 . S
H606 N603 0.984 . S
H607 N603 0.985 1_556 S
H608 N602 0.984 . S
H609 N602 0.984 . S
H610 N598 0.984 . S
H611 N598 0.985 . S
C612 C613 1.363 . S
C612 C618 1.379 . S
C612 N620 1.356 . S
C613 C612 1.363 . S
C613 C619 1.363 . S
C614 C615 1.363 . S
C614 C619 1.379 . S
C614 N621 1.356 . S
C615 C614 1.363 . S
C615 C618 1.363 . S
N616 C618 1.356 1_655 S
N616 H628 0.984 . S
N616 H629 0.985 . S
N617 C619 1.356 . S
N617 H622 0.984 . S
N617 H623 0.985 . S
C618 C612 1.379 . S
C618 C615 1.363 . S
C618 N616 1.356 1_455 S
C619 C613 1.363 . S
C619 C614 1.379 . S
C619 N617 1.356 . S
N620 C612 1.356 . S
N620 H626 0.984 . S
N620 H627 0.984 . S
N621 C614 1.356 . S
N621 H624 0.984 . S
N621 H625 0.985 . S
H622 N617 0.984 . S
H623 N617 0.985 . S
H624 N621 0.984 . S
H625 N621 0.985 . S
H626 N620 0.984 . S
H627 N620 0.984 . S
H628 N616 0.984 . S
H629 N616 0.985 . S
C630 C631 1.363 . S
C630 C636 1.379 . S
C630 N638 1.356 . S
C631 C630 1.363 . S
C631 C637 1.363 . S
C632 C633 1.363 . S
C632 C637 1.379 . S
C632 N639 1.356 . S
C633 C632 1.363 . S
C633 C636 1.363 . S
N634 C636 1.356 . S
N634 H646 0.984 . S
N634 H647 0.985 . S
N635 C637 1.356 . S
N635 H640 0.984 . S
N635 H641 0.985 . S
C636 C630 1.379 . S
C636 C633 1.363 . S
C636 N634 1.356 . S
C637 C631 1.363 . S
C637 C632 1.379 . S
C637 N635 1.356 . S
N638 C630 1.356 . S
N638 H644 0.984 . S
N638 H645 0.984 . S
N639 C632 1.356 . S
N639 H642 0.984 . S
N639 H643 0.985 . S
H640 N635 0.984 . S
H641 N635 0.985 . S
H642 N639 0.984 . S
H643 N639 0.985 . S
H644 N638 0.984 . S
H645 N638 0.984 . S
H646 N634 0.984 . S
H647 N634 0.985 . S
C217 C6 2.305 . S
C219 C112 2.319 . S
C235 C18 1.354 . S
C237 N132 1.370 . S
C255 C166 2.014 . S
C253 C28 1.984 . S
C271 C40 1.070 . S
C273 N200 0.994 . S
C291 C153 2.501 . S
C289 C9 2.494 . S
C309 N110 1.112 . S
C307 C16 1.151 . S
C327 C187 2.079 1_556 S
C325 C30 2.076 . S
C345 N162 0.964 . S
C343 C42 0.950 . S
C361 C4 1.776 . S
C363 C202 1.787 . S
C381 C136 1.735 . S
C379 C33 1.723 . S
C397 C45 1.136 . S
C399 C97 1.152 . S
C415 C21 1.616 . S
C417 C183 1.642 . S
C435 C123 2.363 . S
C433 C57 2.361 . S
C451 C66 1.350 . S
C453 N140 1.357 . S
C469 C76 2.034 . S
C471 C157 2.051 . S
C487 C88 1.004 . S
C489 N192 0.963 . S
C505 C54 2.460 . S
C507 C142 2.467 . S
C525 N102 1.156 . S
C523 C64 1.182 . S
C543 C196 1.991 . S
C541 C78 1.970 . S
C561 N170 0.976 . S
C559 C93 0.966 . S
C577 C52 1.710 . S
C579 C213 1.740 . S
C597 C127 1.739 . S
C595 C81 1.715 . S
C615 C106 1.169 . S
C613 C90 1.156 . S
C631 C69 1.666 . S
C633 C172 1.680 . S
