# Generated by pormake.
# Topology sqc, (4,8)-cn, num edge types: 1
# Building blocks:
#     Node 0, Type 0, BuildingBlock: GIZVER_clean_linker_0, # of connection points: 4
#     Node 1, Type 0, BuildingBlock: GIZVER_clean_linker_0, # of connection points: 4
#     Node 2, Type 0, BuildingBlock: GIZVER_clean_linker_0, # of connection points: 4
#     Node 3, Type 0, BuildingBlock: GIZVER_clean_linker_0, # of connection points: 4
#     Node 4, Type 0, BuildingBlock: GIZVER_clean_linker_0, # of connection points: 4
#     Node 5, Type 0, BuildingBlock: GIZVER_clean_linker_0, # of connection points: 4
#     Node 6, Type 0, BuildingBlock: GIZVER_clean_linker_0, # of connection points: 4
#     Node 7, Type 0, BuildingBlock: GIZVER_clean_linker_0, # of connection points: 4
#     Node 8, Type 1, BuildingBlock: TAGTUT_clean_sbu_3, # of connection points: 8
#     Node 9, Type 1, BuildingBlock: TAGTUT_clean_sbu_3, # of connection points: 8
#     Node 10, Type 1, BuildingBlock: TAGTUT_clean_sbu_3, # of connection points: 8
#     Node 11, Type 1, BuildingBlock: TAGTUT_clean_sbu_3, # of connection points: 8
#     Edge 12, Type (0, 1), BuildingBlock: TEMPAE_clean_linker_10, # of connection points: 2
#     Edge 13, Type (0, 1), BuildingBlock: TEMPAE_clean_linker_10, # of connection points: 2
#     Edge 14, Type (0, 1), BuildingBlock: TEMPAE_clean_linker_10, # of connection points: 2
#     Edge 15, Type (0, 1), BuildingBlock: TEMPAE_clean_linker_10, # of connection points: 2
#     Edge 16, Type (0, 1), BuildingBlock: TEMPAE_clean_linker_10, # of connection points: 2
#     Edge 17, Type (0, 1), BuildingBlock: TEMPAE_clean_linker_10, # of connection points: 2
#     Edge 18, Type (0, 1), BuildingBlock: TEMPAE_clean_linker_10, # of connection points: 2
#     Edge 19, Type (0, 1), BuildingBlock: TEMPAE_clean_linker_10, # of connection points: 2
#     Edge 20, Type (0, 1), BuildingBlock: TEMPAE_clean_linker_10, # of connection points: 2
#     Edge 21, Type (0, 1), BuildingBlock: TEMPAE_clean_linker_10, # of connection points: 2
#     Edge 22, Type (0, 1), BuildingBlock: TEMPAE_clean_linker_10, # of connection points: 2
#     Edge 23, Type (0, 1), BuildingBlock: TEMPAE_clean_linker_10, # of connection points: 2
#     Edge 24, Type (0, 1), BuildingBlock: TEMPAE_clean_linker_10, # of connection points: 2
#     Edge 25, Type (0, 1), BuildingBlock: TEMPAE_clean_linker_10, # of connection points: 2
#     Edge 26, Type (0, 1), BuildingBlock: TEMPAE_clean_linker_10, # of connection points: 2
#     Edge 27, Type (0, 1), BuildingBlock: TEMPAE_clean_linker_10, # of connection points: 2
#     Edge 28, Type (0, 1), BuildingBlock: TEMPAE_clean_linker_10, # of connection points: 2
#     Edge 29, Type (0, 1), BuildingBlock: TEMPAE_clean_linker_10, # of connection points: 2
#     Edge 30, Type (0, 1), BuildingBlock: TEMPAE_clean_linker_10, # of connection points: 2
#     Edge 31, Type (0, 1), BuildingBlock: TEMPAE_clean_linker_10, # of connection points: 2
#     Edge 32, Type (0, 1), BuildingBlock: TEMPAE_clean_linker_10, # of connection points: 2
#     Edge 33, Type (0, 1), BuildingBlock: TEMPAE_clean_linker_10, # of connection points: 2
#     Edge 34, Type (0, 1), BuildingBlock: TEMPAE_clean_linker_10, # of connection points: 2
#     Edge 35, Type (0, 1), BuildingBlock: TEMPAE_clean_linker_10, # of connection points: 2
#     Edge 36, Type (0, 1), BuildingBlock: TEMPAE_clean_linker_10, # of connection points: 2
#     Edge 37, Type (0, 1), BuildingBlock: TEMPAE_clean_linker_10, # of connection points: 2
#     Edge 38, Type (0, 1), BuildingBlock: TEMPAE_clean_linker_10, # of connection points: 2
#     Edge 39, Type (0, 1), BuildingBlock: TEMPAE_clean_linker_10, # of connection points: 2
#     Edge 40, Type (0, 1), BuildingBlock: TEMPAE_clean_linker_10, # of connection points: 2
#     Edge 41, Type (0, 1), BuildingBlock: TEMPAE_clean_linker_10, # of connection points: 2
#     Edge 42, Type (0, 1), BuildingBlock: TEMPAE_clean_linker_10, # of connection points: 2
#     Edge 43, Type (0, 1), BuildingBlock: TEMPAE_clean_linker_10, # of connection points: 2
# Relax obj value: 0.180
# Max RMSD: 0.272
# Mean RMSD: 0.223
data_MOF--net-sqc--node1-TAGTUT_clean_sbu_3--node2-GIZVER_clean_linker_0--edge1-TEMPAE_clean_linker_10
_symmetry_space_group_name_H-M    P1
_symmetry_Int_Tables_number       1
_symmetry_cell_setting            triclinic
loop_
_symmetry_equiv_pos_as_xyz
'x, y, z'
_cell_length_a     25.029215
_cell_length_b     25.075328
_cell_length_c     71.178003
_cell_angle_alpha  90.734085
_cell_angle_beta   90.186751
_cell_angle_gamma 89.930536
loop_
_atom_site_label
_atom_site_type_symbol
_atom_site_fract_x
_atom_site_fract_y
_atom_site_fract_z
_atom_type_partial_charge
H0 H 0.99468 0.05964 0.44007 0.0
H1 H 0.01321 0.10851 0.49811 0.0
H2 H 0.86705 0.03554 0.47899 0.0
H3 H 0.06636 0.11795 0.44852 0.0
H4 H 0.06287 0.15257 0.47051 0.0
H5 H 0.0977 0.01348 0.45187 0.0
H6 H 0.24839 0.014 0.48096 0.0
H7 H 0.14191 0.14639 0.48786 0.0
C8 C 0.97971 0.0618 0.45433 0.0
C9 C 0.92767 0.04455 0.45809 0.0
C10 C 0.01104 0.08502 0.46874 0.0
C11 C 0.98999 0.08929 0.48708 0.0
C12 C 0.93825 0.07046 0.49095 0.0
C13 C 0.90774 0.04826 0.47634 0.0
C14 C 0.0631 0.11207 0.46393 0.0
C15 C 0.11189 0.0815 0.47034 0.0
C16 C 0.12459 0.03152 0.46208 0.0
C17 C 0.17348 0.00646 0.46625 0.0
C18 C 0.20951 0.03185 0.47842 0.0
C19 C 0.19892 0.0824 0.48585 0.0
C20 C 0.14953 0.10667 0.4823 0.0
H21 H 0.44364 0.75075 0.71732 0.0
H22 H 0.3567 0.77663 0.76879 0.0
H23 H 0.33488 0.88227 0.72215 0.0
H24 H 0.47172 0.70696 0.74664 0.0
H25 H 0.43518 0.71738 0.76794 0.0
H26 H 0.43254 0.64988 0.72083 0.0
H27 H 0.31597 0.53357 0.73799 0.0
H28 H 0.36989 0.65297 0.7769 0.0
C29 C 0.41398 0.77262 0.72539 0.0
C30 C 0.38856 0.81677 0.71747 0.0
C31 C 0.40206 0.75746 0.74385 0.0
C32 C 0.36516 0.78771 0.75443 0.0
C33 C 0.34044 0.83297 0.74671 0.0
C34 C 0.35177 0.84633 0.72809 0.0
C35 C 0.43074 0.71081 0.75252 0.0
C36 C 0.40053 0.65984 0.74861 0.0
C37 C 0.40484 0.6341 0.73097 0.0
C38 C 0.37608 0.5869 0.72702 0.0
C39 C 0.3407 0.56823 0.74072 0.0
C40 C 0.34099 0.5897 0.75887 0.0
C41 C 0.36993 0.63622 0.76279 0.0
H42 H 0.68465 0.05833 0.03635 0.0
H43 H 0.72771 0.1496 0.98782 0.0
H44 H 0.8098 0.00304 6e-05 0.0
H45 H 0.65444 0.15443 0.03194 0.0
H46 H 0.66195 0.18475 0.00941 0.0
H47 H 0.59123 0.07903 0.03628 0.0
H48 H 0.47394 0.05091 -0.0069 0.0
H49 H 0.60407 0.15799 0.98295 0.0
C50 C 0.70817 0.06309 0.02373 0.0
C51 C 0.74695 0.02501 0.01913 0.0
C52 C 0.69984 0.10727 0.01212 0.0
C53 C 0.73276 0.11449 -0.00363 0.0
C54 C 0.77341 0.07753 -0.00786 0.0
C55 C 0.77879 0.03202 0.00324 0.0
C56 C 0.65556 0.14608 0.01656 0.0
C57 C 0.60322 0.12191 0.01042 0.0
C58 C 0.57605 0.08658 0.02229 0.0
C59 C 0.5302 0.05977 0.01592 0.0
C60 C 0.51041 0.07014 -0.00207 0.0
C61 C 0.53642 0.1059 0.98617 0.0
C62 C 0.5834 0.13104 -0.00777 0.0
H63 H 0.21232 0.23812 0.22278 0.0
H64 H 0.28959 0.24623 0.27696 0.0
H65 H 0.31478 0.11083 0.24074 0.0
H66 H 0.18556 0.30578 0.24509 0.0
H67 H 0.20694 0.30132 0.26897 0.0
H68 H 0.22523 0.37091 0.22509 0.0
H69 H 0.34558 0.47603 0.24825 0.0
H70 H 0.29825 0.33794 0.27852 0.0
C71 C 0.2396 0.22157 0.23304 0.0
C72 C 0.26324 0.17153 0.22961 0.0
C73 C 0.24977 0.24946 0.24996 0.0
C74 C 0.28341 0.22645 0.26353 0.0
C75 C 0.30815 0.17718 0.25999 0.0
C76 C 0.29815 0.15036 0.24299 0.0
C77 C 0.22145 0.30141 0.25421 0.0
C78 C 0.25822 0.34859 0.25184 0.0
C79 C 0.2538 0.38136 0.23599 0.0
C80 C 0.28465 0.42822 0.23451 0.0
C81 C 0.32245 0.43956 0.24864 0.0
C82 C 0.32829 0.40634 0.26417 0.0
C83 C 0.29543 0.36171 0.26597 0.0
H84 H 0.72448 0.24057 0.25893 0.0
H85 H 0.80538 0.23403 0.20549 0.0
H86 H 0.80371 0.37926 0.23795 0.0
H87 H 0.7111 0.16481 0.23796 0.0
H88 H 0.73598 0.16607 0.21449 0.0
H89 H 0.75106 0.10422 0.25865 0.0
H90 H 0.89643 0.02337 0.24377 0.0
H91 H 0.83764 0.15056 0.20961 0.0
C92 C 0.74895 0.25913 0.24832 0.0
C93 C 0.76243 0.31319 0.25015 0.0
C94 C 0.765 0.22985 0.23228 0.0
C95 C 0.7947 0.25534 0.21825 0.0
C96 C 0.81026 0.30865 0.22055 0.0
C97 C 0.79381 0.33727 0.23649 0.0
C98 C 0.74737 0.17285 0.22945 0.0
C99 C 0.79146 0.13409 0.23434 0.0
C100 C 0.78629 0.10071 0.24993 0.0
C101 C 0.82391 0.06016 0.25332 0.0
C102 C 0.86799 0.05505 0.24132 0.0
C103 C 0.87277 0.08639 0.22519 0.0
C104 C 0.83494 0.1268 0.22212 0.0
H105 H 0.67846 0.74358 0.73881 0.0
H106 H 0.76958 0.75204 0.79039 0.0
H107 H 0.77418 0.61045 0.75593 0.0
H108 H 0.66478 0.81769 0.7608 0.0
H109 H 0.69619 0.81776 0.78341 0.0
H110 H 0.69528 0.88164 0.73923 0.0
H111 H 0.84665 0.96037 0.74729 0.0
H112 H 0.79846 0.8379 0.78495 0.0
C113 C 0.70615 0.72597 0.7487 0.0
C114 C 0.7244 0.67364 0.74568 0.0
C115 C 0.72335 0.75526 0.76464 0.0
C116 C 0.75778 0.73091 0.77769 0.0
C117 C 0.77724 0.67924 0.77434 0.0
C118 C 0.76055 0.6511 0.75828 0.0
C119 C 0.70357 0.81145 0.76814 0.0
C120 C 0.74415 0.8522 0.76185 0.0
C121 C 0.7332 0.88547 0.74649 0.0
C122 C 0.76938 0.92579 0.74137 0.0
C123 C 0.81805 0.93003 0.75115 0.0
C124 C 0.82842 0.89904 0.76697 0.0
C125 C 0.79134 0.86027 0.77228 0.0
H126 H 0.47669 0.41579 0.04093 0.0
H127 H 0.49902 0.39063 0.98128 0.0
H128 H 0.34991 0.451 0.00249 0.0
H129 H 0.55576 0.37355 0.03081 0.0
H130 H 0.54741 0.33552 0.00977 0.0
H131 H 0.59491 0.47011 0.02779 0.0
H132 H 0.72635 0.47106 0.98898 0.0
H133 H 0.61031 0.34608 0.98557 0.0
C134 C 0.4622 0.41847 0.0266 0.0
C135 C 0.40949 0.43488 0.02332 0.0
C136 C 0.49514 0.40267 0.01146 0.0
C137 C 0.47473 0.40452 -0.00707 0.0
C138 C 0.42241 0.42304 0.98959 0.0
C139 C 0.39074 0.43812 0.00489 0.0
C140 C 0.5487 0.37705 0.01544 0.0
C141 C 0.59533 0.40651 0.00696 0.0
C142 C 0.615 0.45363 0.01556 0.0
C143 C 0.66218 0.47764 0.009 0.0
C144 C 0.68855 0.45465 -0.00643 0.0
C145 C 0.67029 0.40742 0.9852 0.0
C146 C 0.62356 0.38349 -0.0082 0.0
H147 H 0.1886 0.57598 0.54894 0.0
H148 H 0.21722 0.68676 0.50418 0.0
H149 H 0.33405 0.567 0.5174 0.0
H150 H 0.13285 0.66183 0.5447 0.0
H151 H 0.13955 0.69859 0.52341 0.0
H152 H 0.0878 0.57731 0.54501 0.0
H153 H 0.005 0.52223 0.49533 0.0
H154 H 0.1031 0.66233 0.49337 0.0
C155 C 0.21415 0.59143 0.53803 0.0
C156 C 0.26361 0.5672 0.53447 0.0
C157 C 0.19699 0.63449 0.52694 0.0
C158 C 0.23037 0.65373 0.51272 0.0
C159 C 0.28037 0.6302 0.50942 0.0
C160 C 0.29628 0.58676 0.52026 0.0
C161 C 0.14205 0.65796 0.52946 0.0
C162 C 0.10173 0.62188 0.52001 0.0
C163 C 0.07899 0.58012 0.53015 0.0
C164 C 0.04331 0.54413 0.52152 0.0
C165 C 0.03216 0.54972 0.50229 0.0
C166 C 0.05177 0.5932 0.49224 0.0
C167 C 0.08739 0.62884 0.50107 0.0
C168 C 0.1544 0.66377 0.13513 0.0
C169 C 0.96258 0.58303 0.13639 0.0
C170 C 0.94289 0.65987 0.08346 0.0
Mg171 Mg 0.20155 0.76831 0.11413 0.0
Mg172 Mg 0.12967 0.86177 0.09364 0.0
O173 O 0.13764 0.79036 0.09932 0.0
Mg174 Mg 0.08292 0.74307 0.11061 0.0
O175 O 0.03352 0.6896 0.12165 0.0
Mg176 Mg 0.05744 0.62566 0.10663 0.0
Mg177 Mg 0.96017 0.70051 0.12379 0.0
C178 C 0.01527 0.82076 0.08108 0.0
O179 O 0.04842 0.8056 0.13129 0.0
O180 O 0.25384 0.82041 0.09436 0.0
O181 O 0.964 0.77856 0.1371 0.0
O182 O 0.19307 0.84334 0.13449 0.0
O183 O 0.20079 0.87494 0.07788 0.0
O184 O 0.14137 0.9023 0.11945 0.0
O185 O 0.11402 0.67957 0.0903 0.0
O186 O 0.20173 0.69774 0.0935 0.0
C187 C 0.16336 0.66931 0.08676 0.0
C188 C 0.24699 0.85599 0.08174 0.0
O189 O 0.02054 0.77628 0.08968 0.0
O190 O 0.00259 0.57555 0.12544 0.0
O191 O 0.05083 0.85759 0.08146 0.0
O192 O 0.9863 0.63278 0.08499 0.0
O193 O 0.94067 0.62889 0.13863 0.0
O194 O 0.92786 0.69237 0.0963 0.0
O195 O 0.14578 0.71345 0.13164 0.0
O196 O 0.12512 0.62645 0.12809 0.0
C197 C 0.16951 0.88891 0.13358 0.0
C198 C 0.00236 0.81224 0.13895 0.0
C199 C 0.67725 0.82025 0.38922 0.0
C200 C 0.7662 0.63812 0.39681 0.0
C201 C 0.67574 0.59503 0.34636 0.0
Mg202 Mg 0.56673 0.85843 0.37112 0.0
Mg203 Mg 0.47037 0.78225 0.35418 0.0
O204 O 0.54287 0.79184 0.35799 0.0
Mg205 Mg 0.59442 0.74036 0.36934 0.0
O206 O 0.65188 0.69552 0.38048 0.0
Mg207 Mg 0.71167 0.7171 0.36364 0.0
Mg208 Mg 0.64574 0.62399 0.38713 0.0
C209 C 0.51155 0.66752 0.34205 0.0
O210 O 0.54012 0.71263 0.39311 0.0
O211 O 0.51017 0.90636 0.35204 0.0
O212 O 0.57052 0.63214 0.40237 0.0
O213 O 0.49563 0.85216 0.3931 0.0
O214 O 0.4507 0.85195 0.33814 0.0
O215 O 0.43769 0.79255 0.38112 0.0
O216 O 0.65136 0.76669 0.34642 0.0
O217 O 0.63133 0.8545 0.34868 0.0
C218 C 0.65858 0.81557 0.3417 0.0
C219 C 0.47119 0.89828 0.34065 0.0
O220 O 0.55682 0.673 0.35051 0.0
O221 O 0.76896 0.6719 0.38346 0.0
O222 O 0.47492 0.70334 0.34229 0.0
O223 O 0.70066 0.63967 0.34533 0.0
O224 O 0.72205 0.61591 0.40139 0.0
O225 O 0.64898 0.58233 0.36087 0.0
O226 O 0.6275 0.80806 0.38757 0.0
O227 O 0.71453 0.7913 0.38212 0.0
C228 C 0.45191 0.82512 0.39407 0.0
C229 C 0.53694 0.67094 0.40333 0.0
C230 C 0.65675 0.1717 0.63989 0.0
C231 C 0.47693 0.08545 0.62346 0.0
C232 C 0.49095 0.17441 0.57163 0.0
Mg233 Mg 0.71101 0.28136 0.62656 0.0
Mg234 Mg 0.64906 0.37899 0.60411 0.0
O235 O 0.65841 0.3061 0.60715 0.0
Mg236 Mg 0.60059 0.25413 0.61195 0.0
O237 O 0.54849 0.19669 0.61695 0.0
Mg238 Mg 0.58593 0.13741 0.60283 0.0
Mg239 Mg 0.47534 0.20525 0.61308 0.0
C240 C 0.54588 0.34003 0.5819 0.0
O241 O 0.55109 0.30977 0.63083 0.0
O242 O 0.77217 0.337 0.61256 0.0
O243 O 0.46576 0.28235 0.62706 0.0
O244 O 0.6867 0.3511 0.64768 0.0
O245 O 0.72858 0.39841 0.59545 0.0
O246 O 0.63897 0.41029 0.63142 0.0
O247 O 0.6486 0.19751 0.59258 0.0
O248 O 0.72899 0.21653 0.60511 0.0
C249 C 0.69943 0.18965 0.59371 0.0
C250 C 0.77169 0.37645 0.60128 0.0
O251 O 0.55018 0.29217 0.58807 0.0
O252 O 0.52274 0.0815 0.61551 0.0
O253 O 0.57844 0.37752 0.5865 0.0
O254 O 0.53213 0.14687 0.57614 0.0
O255 O 0.4516 0.12985 0.62489 0.0
O256 O 0.4654 0.20279 0.58353 0.0
O257 O 0.64769 0.22148 0.63697 0.0
O258 O 0.637 0.13469 0.62937 0.0
C259 C 0.65987 0.39482 0.64673 0.0
C260 C 0.50065 0.31559 0.63339 0.0
C261 C 0.18466 0.31458 0.8873 0.0
C262 C 0.27989 0.13555 0.88172 0.0
C263 C 0.18518 0.11261 0.83109 0.0
Mg264 Mg 0.06696 0.35385 0.87353 0.0
Mg265 Mg 0.97384 0.27787 0.85397 0.0
O266 O 0.04591 0.29278 0.85695 0.0
Mg267 Mg 0.10213 0.24121 0.86436 0.0
O268 O 0.16297 0.19518 0.87153 0.0
Mg269 Mg 0.21819 0.22717 0.85474 0.0
Mg270 Mg 0.15923 0.12097 0.87329 0.0
C271 C 0.02008 0.17253 0.83549 0.0
O272 O 0.05217 0.19882 0.88675 0.0
O273 O 0.00401 0.40498 0.85781 0.0
O274 O 0.08553 0.11557 0.88954 0.0
O275 O 1.00029 0.3325 0.8958 0.0
O276 O 0.9469 0.35155 0.84218 0.0
O277 O 0.94462 0.27477 0.88161 0.0
O278 O 0.15402 0.28275 0.84229 0.0
O279 O 0.12864 0.36583 0.85098 0.0
C280 C 0.15834 0.33402 0.84131 0.0
C281 C 0.96418 0.39809 0.84664 0.0
O282 O 0.0664 0.17992 0.84293 0.0
O283 O 0.27942 0.17554 0.87064 0.0
O284 O 0.98054 0.20423 0.83824 0.0
O285 O 0.20808 0.15846 0.83209 0.0
O286 O 0.23748 0.10905 0.88544 0.0
O287 O 0.16087 0.09284 0.84508 0.0
O288 O 0.13476 0.30138 0.88629 0.0
O289 O 0.22057 0.29101 0.87738 0.0
C290 C 0.95863 0.30237 0.89593 0.0
C291 C 0.05098 0.15179 0.89367 0.0
C292 C 0.20354 0.96574 0.43627 0.0
C293 C 0.19415 0.96003 0.4555 0.0
C294 C 0.2426 0.93478 0.42715 0.0
C295 C 0.27258 0.89729 0.43757 0.0
C296 C 0.25878 0.88706 0.45644 0.0
C297 C 0.21941 0.91851 0.46518 0.0
C298 C 0.25531 0.94603 0.40686 0.0
C299 C 0.28895 0.84656 0.46788 0.0
C300 C 0.36361 0.80741 0.40892 0.0
C301 C 0.41118 0.83738 0.40863 0.0
C302 C 0.31864 0.82531 0.41884 0.0
C303 C 0.32169 0.87343 0.42927 0.0
C304 C 0.37087 0.90143 0.43043 0.0
C305 C 0.41498 0.88332 0.41995 0.0
C306 C 0.26688 0.7947 0.41707 0.0
C307 C 0.3759 0.95241 0.44181 0.0
H308 H 0.18447 0.99812 0.42882 0.0
H309 H 0.21212 0.91425 0.4801 0.0
H310 H 0.29392 0.9676 0.40608 0.0
H311 H 0.25965 0.90831 0.3987 0.0
H312 H 0.224 0.97081 0.40012 0.0
H313 H 0.27048 0.84038 0.48186 0.0
H314 H 0.29066 0.80768 0.46031 0.0
H315 H 0.33073 0.86017 0.47002 0.0
H316 H 0.3603 0.77127 0.40049 0.0
H317 H 0.45143 0.90662 0.4199 0.0
H318 H 0.23698 0.819 0.40945 0.0
H319 H 0.25018 0.78663 0.43116 0.0
H320 H 0.27195 0.75622 0.40937 0.0
H321 H 0.3513 0.98406 0.43528 0.0
H322 H 0.41788 0.96657 0.44273 0.0
H323 H 0.36059 0.94657 0.45626 0.0
C324 C 0.3671 0.84351 0.68481 0.0
C325 C 0.40495 0.83778 0.69917 0.0
C326 C 0.37751 0.87612 0.6694 0.0
C327 C 0.42618 0.90473 0.66878 0.0
C328 C 0.46606 0.89582 0.68258 0.0
C329 C 0.45504 0.86191 0.69757 0.0
C330 C 0.33478 0.88321 0.65463 0.0
C331 C 0.5183 0.92596 0.68254 0.0
C332 C 0.47217 0.98676 0.62751 0.0
C333 C 0.45629 0.03816 0.6332 0.0
C334 C 0.45985 0.94215 0.63837 0.0
C335 C 0.4324 0.94952 0.65554 0.0
C336 C 0.41421 0.00104 0.66091 0.0
C337 C 0.42581 0.04466 0.64952 0.0
C338 C 0.47828 0.88762 0.6319 0.0
C339 C 0.3853 0.01066 0.67925 0.0
H340 H 0.32826 0.82485 0.6862 0.0
H341 H 0.48387 0.85781 0.70887 0.0
H342 H 0.3141 0.92185 0.65702 0.0
H343 H 0.35257 0.88403 0.64038 0.0
H344 H 0.3045 0.85089 0.65507 0.0
H345 H 0.54701 0.91051 0.6931 0.0
H346 H 0.53718 0.92364 0.66848 0.0
H347 H 0.51064 0.96872 0.68575 0.0
H348 H 0.4954 0.98157 0.61478 0.0
H349 H 0.41377 0.08435 0.65403 0.0
H350 H 0.44592 0.85786 0.63357 0.0
H351 H 0.51248 0.87463 0.64068 0.0
H352 H 0.49118 0.88745 0.61698 0.0
H353 H 0.34958 0.98469 0.68007 0.0
H354 H 0.37235 0.05281 0.68105 0.0
H355 H 0.41192 1.00031 0.69117 0.0
C356 C 0.53082 0.09308 0.9515 0.0
C357 C 0.51191 0.11768 0.96793 0.0
C358 C 0.50063 0.09465 0.93484 0.0
C359 C 0.45072 0.12137 0.93485 0.0
C360 C 0.43324 0.14879 0.95126 0.0
C361 C 0.46404 0.14633 0.96763 0.0
C362 C 0.52036 0.06472 0.9177 0.0
C363 C 0.38004 0.17724 0.95213 0.0
C364 C 0.37223 0.16101 0.89187 0.0
C365 C 0.32948 0.12478 0.89245 0.0
C366 C 0.41451 0.15807 0.90478 0.0
C367 C 0.41431 0.11758 0.91841 0.0
C368 C 0.3739 0.07812 0.91799 0.0
C369 C 0.33181 0.08227 0.90503 0.0
C370 C 0.4567 0.20106 0.90491 0.0
C371 C 0.37279 0.03386 0.93217 0.0
H372 H 0.56759 0.07023 0.95198 0.0
H373 H 0.4494 0.16461 0.98052 0.0
H374 H 0.49628 0.02796 0.91567 0.0
H375 H 0.5154 0.08904 0.9049 0.0
H376 H 0.56304 0.05312 0.91906 0.0
H377 H 0.3797 0.2085 0.96334 0.0
H378 H 0.36968 0.19596 0.93858 0.0
H379 H 0.34835 0.14788 0.95536 0.0
H380 H 0.37114 0.19384 0.88212 0.0
H381 H 0.2994 0.05368 0.90544 0.0
H382 H 0.49718 0.18319 0.90578 0.0
H383 H 0.45143 0.22698 0.91752 0.0
H384 H 0.45449 0.22636 0.89223 0.0
H385 H 0.4129 0.01546 0.93359 0.0
H386 H 0.34357 0.00226 0.92827 0.0
H387 H 0.3616 0.05055 0.94612 0.0
C388 C 0.19356 0.12824 0.20942 0.0
C389 C 0.24765 0.13761 0.2133 0.0
C390 C 0.17803 0.08852 0.19646 0.0
C391 C 0.21759 0.05781 0.18708 0.0
C392 C 0.2723 0.06901 0.19029 0.0
C393 C 0.28665 0.10874 0.20337 0.0
C394 C 0.11933 0.07864 0.19321 0.0
C395 C 0.31573 0.03809 0.18026 0.0
C396 C 0.18743 0.91958 0.16683 0.0
C397 C 0.17998 0.93104 0.14782 0.0
C398 C 0.19781 0.96084 0.17995 0.0
C399 C 0.20222 0.01424 0.17374 0.0
C400 C 0.19459 0.02576 0.15456 0.0
C401 C 0.18317 0.98417 0.1419 0.0
C402 C 0.20421 0.94741 0.20044 0.0
C403 C 0.19947 0.0819 0.1473 0.0
H404 H 0.16332 0.15014 0.21721 0.0
H405 H 0.32855 0.11628 0.20627 0.0
H406 H 0.10791 0.09226 0.179 0.0
H407 H 0.11096 0.03544 0.19386 0.0
H408 H 0.09387 0.09977 0.20368 0.0
H409 H 0.35631 0.05305 0.18385 0.0
H410 H 0.31342 0.99536 0.18402 0.0
H411 H 0.31004 0.04052 0.16482 0.0
H412 H 0.18456 0.87865 0.17144 0.0
H413 H 0.17788 0.99324 0.12715 0.0
H414 H 0.17528 0.97087 0.20898 0.0
H415 H 0.24488 0.95852 0.20533 0.0
H416 H 0.19782 0.90433 0.20309 0.0
H417 H 0.17074 0.10855 0.15464 0.0
H418 H 0.1919 0.08412 0.13194 0.0
H419 H 0.24014 0.09753 0.15026 0.0
C420 C 0.24051 0.12222 0.51463 0.0
C421 C 0.24308 0.11069 0.49542 0.0
C422 C 0.28666 0.13763 0.52457 0.0
C423 C 0.33606 0.14162 0.51493 0.0
C424 C 0.3378 0.1336 0.49526 0.0
C425 C 0.29121 0.11802 0.48575 0.0
C426 C 0.2832 0.14655 0.54555 0.0
C427 C 0.3893 0.13806 0.4844 0.0
C428 C 0.44135 0.21048 0.54448 0.0
C429 C 0.46546 0.16683 0.5532 0.0
C430 C 0.40239 0.20281 0.53054 0.0
C431 C 0.38611 0.15042 0.52578 0.0
C432 C 0.41393 0.10626 0.5333 0.0
C433 C 0.45391 0.11509 0.54684 0.0
C434 C 0.37568 0.25072 0.52206 0.0
C435 C 0.39812 0.04968 0.5284 0.0
H436 H 0.20328 0.11609 0.52205 0.0
H437 H 0.29291 0.10895 0.47081 0.0
H438 H 0.30725 0.11584 0.55285 0.0
H439 H 0.3001 0.18606 0.54945 0.0
H440 H 0.24145 0.14456 0.55074 0.0
H441 H 0.38195 0.14132 0.46906 0.0
H442 H 0.41287 0.17311 0.48922 0.0
H443 H 0.41398 0.10199 0.4868 0.0
H444 H 0.45059 0.25054 0.5494 0.0
H445 H 0.47227 0.08136 0.55375 0.0
H446 H 0.33504 0.2552 0.52805 0.0
H447 H 0.37113 0.24547 0.50664 0.0
H448 H 0.39873 0.28777 0.52492 0.0
H449 H 0.35842 0.04106 0.53456 0.0
H450 H 0.42731 0.02015 0.5338 0.0
H451 H 0.39453 0.04431 0.51296 0.0
C452 C 0.32482 0.88463 0.77653 0.0
C453 C 0.30775 0.87022 0.75839 0.0
C454 C 0.29901 0.92528 0.78674 0.0
C455 C 0.25528 0.95259 0.77858 0.0
C456 C 0.23666 0.93713 0.76054 0.0
C457 C 0.26292 0.89591 0.75071 0.0
C458 C 0.31923 0.93973 0.80617 0.0
C459 C 0.19004 0.96512 0.75143 0.0
C460 C 0.16975 0.02634 0.81409 0.0
C461 C 0.19405 0.07686 0.81459 0.0
C462 C 0.18738 0.98615 0.80174 0.0
C463 C 0.22936 0.99713 0.78914 0.0
C464 C 0.25052 0.04946 0.78827 0.0
C465 C 0.23279 0.08875 0.80109 0.0
C466 C 0.16339 0.93105 0.80305 0.0
C467 C 0.29457 0.06295 0.77472 0.0
H468 H 0.35978 0.86562 0.78249 0.0
H469 H 0.24905 0.88453 0.73679 0.0
H470 H 0.33345 0.98162 0.80644 0.0
H471 H 0.28628 0.93679 0.8165 0.0
H472 H 0.3525 0.91349 0.81074 0.0
H473 H 0.1804 0.9482 0.73732 0.0
H474 H 0.1541 0.96216 0.76042 0.0
H475 H 0.19917 0.00815 0.74997 0.0
H476 H 0.13922 0.0169 0.82423 0.0
H477 H 0.25159 0.12767 0.80124 0.0
H478 H 0.19523 0.90055 0.80456 0.0
H479 H 0.14102 0.9215 0.78997 0.0
H480 H 0.13572 0.92753 0.81512 0.0
H481 H 0.33224 0.04355 0.77927 0.0
H482 H 0.30151 0.10662 0.77397 0.0
H483 H 0.28496 0.04749 0.76043 0.0
C484 C 0.48602 0.972 0.02051 0.0
C485 C 0.50133 0.02176 0.02791 0.0
C486 C 0.45052 0.93923 0.0302 0.0
C487 C 0.42962 0.95698 0.04763 0.0
C488 C 0.44801 0.00546 0.0558 0.0
C489 C 0.48392 0.03732 0.04583 0.0
C490 C 0.43245 0.88755 0.02112 0.0
C491 C 0.42666 0.02566 0.07438 0.0
C492 C 0.28713 0.91812 0.05857 0.0
C493 C 0.29415 0.87864 0.07215 0.0
C494 C 0.331 0.94344 0.05043 0.0
C495 C 0.38335 0.92887 0.05593 0.0
C496 C 0.39097 0.88818 0.06926 0.0
C497 C 0.34622 0.86352 0.07725 0.0
C498 C 0.3212 0.98653 0.03616 0.0
C499 C 0.44629 0.87142 0.07532 0.0
H500 H 0.50017 0.95973 0.00673 0.0
H501 H 0.49571 0.07587 0.05151 0.0
H502 H 0.4326 0.85485 0.03146 0.0
H503 H 0.39084 0.89206 0.01594 0.0
H504 H 0.45813 0.87579 0.00905 0.0
H505 H 0.44995 0.06014 0.07993 0.0
H506 H 0.38448 0.03835 0.07259 0.0
H507 H 0.42725 0.99353 0.08495 0.0
H508 H 0.24718 0.93007 0.05446 0.0
H509 H 0.35212 0.8331 0.08774 0.0
H510 H 0.34125 0.97602 0.02273 0.0
H511 H 0.33856 0.02477 0.04126 0.0
H512 H 0.27799 0.99278 0.0333 0.0
H513 H 0.47053 0.86004 0.06287 0.0
H514 H 0.44547 0.83731 0.08512 0.0
H515 H 0.4668 0.90542 0.08237 0.0
C516 C 0.31835 0.14142 0.29235 0.0
C517 C 0.33999 0.14983 0.27451 0.0
C518 C 0.34227 0.10532 0.30473 0.0
C519 C 0.38873 0.07726 0.29903 0.0
C520 C 0.41295 0.08883 0.28162 0.0
C521 C 0.38823 0.12506 0.26956 0.0
C522 C 0.3156 0.09435 0.32327 0.0
C523 C 0.46277 0.06011 0.27511 0.0
C524 C 0.46872 0.99598 0.33383 0.0
C525 C 0.44942 0.94423 0.33021 0.0
C526 C 0.44876 0.03992 0.32403 0.0
C527 C 0.40875 0.03189 0.31023 0.0
C528 C 0.38878 0.97993 0.3066 0.0
C529 C 0.40928 0.93674 0.31666 0.0
C530 C 0.47082 0.0948 0.32829 0.0
C531 C 0.34615 0.96984 0.29191 0.0
H532 H 0.28083 0.16028 0.29614 0.0
H533 H 0.40514 0.132 0.2558 0.0
H534 H 0.29661 0.0544 0.32267 0.0
H535 H 0.34547 0.0939 0.33482 0.0
H536 H 0.28437 0.12442 0.32671 0.0
H537 H 0.47982 0.07798 0.26225 0.0
H538 H 0.49368 0.06073 0.28631 0.0
H539 H 0.45312 0.01771 0.27201 0.0
H540 H 0.49957 0.00231 0.34434 0.0
H541 H 0.39407 0.89701 0.31377 0.0
H542 H 0.43789 0.12246 0.33215 0.0
H543 H 0.49022 0.11098 0.31559 0.0
H544 H 0.50053 0.09455 0.33992 0.0
H545 H 0.3102 0.9942 0.2951 0.0
H546 H 0.33419 0.92722 0.29105 0.0
H547 H 0.36087 0.98206 0.27792 0.0
C548 C 0.88138 0.0374 0.51707 0.0
C549 C 0.91204 0.07861 0.50942 0.0
C550 C 0.84564 0.04737 0.53184 0.0
C551 C 0.84078 0.09975 0.53921 0.0
C552 C 0.87436 0.14074 0.53244 0.0
C553 C 0.90965 0.12965 0.51758 0.0
C554 C 0.81108 0.0025 0.53881 0.0
C555 C 0.87101 0.19698 0.5402 0.0
C556 C 0.71275 0.1515 0.56147 0.0
C557 C 0.72769 0.15402 0.58042 0.0
C558 C 0.74823 0.13099 0.54789 0.0
C559 C 0.79937 0.11249 0.55353 0.0
C560 C 0.81245 0.11059 0.57283 0.0
C561 C 0.77642 0.13137 0.58604 0.0
C562 C 0.73259 0.13285 0.52742 0.0
C563 C 0.86611 0.09055 0.57948 0.0
H564 H 0.88346 0.99777 0.51084 0.0
H565 H 0.93285 0.16167 0.51159 0.0
H566 H 0.81235 0.00083 0.55437 0.0
H567 H 0.76893 0.00978 0.53468 0.0
H568 H 0.82358 0.96314 0.53297 0.0
H569 H 0.90214 0.22336 0.53425 0.0
H570 H 0.83118 0.21411 0.53696 0.0
H571 H 0.87542 0.19697 0.55572 0.0
H572 H 0.67528 0.16925 0.55709 0.0
H573 H 0.78784 0.13289 0.60075 0.0
H574 H 0.74074 0.09393 0.52041 0.0
H575 H 0.75697 0.16337 0.52025 0.0
H576 H 0.68969 0.14289 0.52549 0.0
H577 H 0.87639 0.0522 0.57244 0.0
H578 H 0.86714 0.08483 0.59493 0.0
H579 H 0.89748 0.11978 0.57578 0.0
C580 C 0.82556 0.96472 0.26366 0.0
C581 C 0.81346 0.01854 0.26763 0.0
C582 C 0.8112 0.92421 0.27601 0.0
C583 C 0.782 0.93737 0.29234 0.0
C584 C 0.77152 0.99155 0.2969 0.0
C585 C 0.78801 0.03154 0.2846 0.0
C586 C 0.82455 0.86704 0.27099 0.0
C587 C 0.74002 0.0071 0.3142 0.0
C588 C 0.67492 0.84491 0.30972 0.0
C589 C 0.69619 0.82945 0.32698 0.0
C590 C 0.704 0.8776 0.29773 0.0
C591 C 0.75575 0.89468 0.30319 0.0
C592 C 0.77927 0.87503 0.31986 0.0
C593 C 0.74873 0.84293 0.33176 0.0
C594 C 0.67718 0.89797 0.28017 0.0
C595 C 0.83475 0.89131 0.32594 0.0
H596 H 0.84413 0.95353 0.25046 0.0
H597 H 0.77943 0.07291 0.28801 0.0
H598 H 0.83937 0.84558 0.28351 0.0
H599 H 0.788 0.84625 0.26596 0.0
H600 H 0.85519 0.86427 0.25976 0.0
H601 H 0.7381 0.05102 0.31634 0.0
H602 H 0.69863 0.99161 0.31288 0.0
H603 H 0.75801 0.98904 0.32687 0.0
H604 H 0.63368 0.83528 0.30639 0.0
H605 H 0.76443 0.83187 0.34539 0.0
H606 H 0.70335 0.89187 0.26779 0.0
H607 H 0.6699 0.94149 0.28169 0.0
H608 H 0.63834 0.87795 0.27735 0.0
H609 H 0.86208 0.89341 0.31373 0.0
H610 H 0.85163 0.86315 0.33633 0.0
H611 H 0.83316 0.93148 0.33263 0.0
C612 C 0.76275 0.92902 0.02567 0.0
C613 C 0.76081 0.98197 0.03214 0.0
C614 C 0.79219 0.8907 0.03548 0.0
C615 C 0.82161 0.90671 0.05158 0.0
C616 C 0.81425 0.95853 0.05934 0.0
C617 C 0.78334 0.99556 0.04954 0.0
C618 C 0.79695 0.83504 0.02735 0.0
C619 C 0.84494 0.97738 0.07647 0.0
C620 C 0.91564 0.81965 0.0797 0.0
C621 C 0.96467 0.83283 0.07151 0.0
C622 C 0.86762 0.8407 0.07269 0.0
C623 C 0.86927 0.87567 0.05726 0.0
C624 C 0.9185 0.88613 0.04824 0.0
C625 C 0.96557 0.86456 0.05551 0.0
C626 C 0.81591 0.82862 0.0826 0.0
C627 C 0.92212 0.92314 0.03168 0.0
H628 H 0.74473 0.91863 0.01224 0.0
H629 H 0.78174 0.03666 0.05446 0.0
H630 H 0.83379 0.83213 0.01877 0.0
H631 H 0.79988 0.80505 0.03864 0.0
H632 H 0.76232 0.82504 0.01816 0.0
H633 H 0.82793 0.01476 0.08251 0.0
H634 H 0.84529 0.94656 0.08748 0.0
H635 H 0.88703 0.98515 0.07248 0.0
H636 H 0.91509 0.796 0.09233 0.0
H637 H 0.00358 0.87449 0.04917 0.0
H638 H 0.78289 0.82272 0.07235 0.0
H639 H 0.80491 0.86281 0.09183 0.0
H640 H 0.81934 0.79272 0.0915 0.0
H641 H 0.89481 0.90966 0.02028 0.0
H642 H 0.96324 0.92533 0.0259 0.0
H643 H 0.90961 0.96395 0.03601 0.0
C644 C 0.9236 0.92507 0.77264 0.0
C645 C 0.87227 0.91573 0.77972 0.0
C646 C 0.96009 0.95706 0.78268 0.0
C647 C 0.94396 0.98118 0.79984 0.0
C648 C 0.89455 0.96671 0.80798 0.0
C649 C 0.85943 0.93368 0.79785 0.0
C650 C 0.01333 0.96974 0.77392 0.0
C651 C 0.87553 0.99158 0.82621 0.0
C652 C 0.02859 0.07414 0.83018 0.0
C653 C 0.0097 0.12388 0.82427 0.0
C654 C 0.0098 0.02674 0.8217 0.0
C655 C 0.97181 0.02965 0.80698 0.0
C656 C 0.95548 0.08004 0.80021 0.0
C657 C 0.97446 0.12647 0.80902 0.0
C658 C 0.02778 0.9737 0.82926 0.0
C659 C 0.91516 0.08505 0.78447 0.0
H660 H 0.93369 0.91072 0.75866 0.0
H661 H 0.81967 0.92668 0.8033 0.0
H662 H 0.01036 0.00823 0.76646 0.0
H663 H 0.04503 0.97387 0.78478 0.0
H664 H 0.02543 0.93848 0.76358 0.0
H665 H 0.84134 0.96938 0.83221 0.0
H666 H 0.90813 0.99324 0.83677 0.0
H667 H 0.8624 0.03315 0.8236 0.0
H668 H 0.05517 0.07214 0.84219 0.0
H669 H 0.96008 0.16502 0.80444 0.0
H670 H 0.03948 0.94654 0.81756 0.0
H671 H 0.99424 0.95446 0.83672 0.0
H672 H 0.06175 0.97789 0.83925 0.0
H673 H 0.92843 0.06185 0.77196 0.0
H674 H 0.90887 0.12713 0.78027 0.0
H675 H 0.8762 0.06844 0.78894 0.0
C676 C 0.90014 0.97462 0.435 0.0
C677 C 0.89156 0.02477 0.4432 0.0
C678 C 0.85963 0.94959 0.42447 0.0
C679 C 0.80982 0.97582 0.42206 0.0
C680 C 0.80266 0.02823 0.42915 0.0
C681 C 0.8436 0.05198 0.43978 0.0
C682 C 0.86884 0.89366 0.41703 0.0
C683 C 0.75066 0.05784 0.42656 0.0
C684 C 0.7225 0.90636 0.38605 0.0
C685 C 0.69422 0.87117 0.39745 0.0
C686 C 0.75726 0.94426 0.39394 0.0
C687 C 0.76414 0.94616 0.41366 0.0
C688 C 0.73165 0.91409 0.42527 0.0
C689 C 0.69681 0.87679 0.41696 0.0
C690 C 0.79029 0.97831 0.38106 0.0
C691 C 0.73759 0.91524 0.44639 0.0
H692 H 0.93711 0.95361 0.43788 0.0
H693 H 0.8372 0.09084 0.44627 0.0
H694 H 0.8423 0.86552 0.42446 0.0
H695 H 0.85871 0.89115 0.40187 0.0
H696 H 0.91087 0.88044 0.41896 0.0
H697 H 0.7544 0.10078 0.43038 0.0
H698 H 0.73659 0.05432 0.4118 0.0
H699 H 0.71957 0.03997 0.43559 0.0
H700 H 0.72079 0.90125 0.3709 0.0
H701 H 0.67561 0.84871 0.42567 0.0
H702 H 0.83123 0.96152 0.38005 0.0
H703 H 0.79377 0.01963 0.38668 0.0
H704 H 0.77302 0.97962 0.36667 0.0
H705 H 0.77656 0.8973 0.45031 0.0
H706 H 0.7053 0.8927 0.45342 0.0
H707 H 0.73734 0.9569 0.45181 0.0
C708 C 0.95806 0.04278 0.21452 0.0
C709 C 0.90991 0.06862 0.21001 0.0
C710 C 0.9825 0.00788 0.20163 0.0
C711 C 0.95977 0.00114 0.18355 0.0
C712 C 0.91695 0.0341 0.17792 0.0
C713 C 0.89189 0.06691 0.1913 0.0
C714 C 0.02781 0.97316 0.20837 0.0
C715 C 0.89329 0.02974 0.15842 0.0
C716 C 0.02241 0.90707 0.14763 0.0
C717 C 0.99276 0.86054 0.15048 0.0
C718 C 0.01245 0.95352 0.15823 0.0
C719 C 0.97243 0.95287 0.1722 0.0
C720 C 0.94264 0.90576 0.17524 0.0
C721 C 0.95301 0.86029 0.16427 0.0
C722 C 0.04564 0.00242 0.1546 0.0
C723 C 0.89938 0.90341 0.18999 0.0
H724 H 0.97378 0.04561 0.22871 0.0
H725 H 0.85515 0.08679 0.18739 0.0
H726 H 0.01095 0.93696 0.21491 0.0
H727 H 0.05416 0.96008 0.19668 0.0
H728 H 0.05217 0.99429 0.2192 0.0
H729 H 0.86679 0.06406 0.15524 0.0
H730 H 0.92534 0.02757 0.1477 0.0
H731 H 0.8694 0.99257 0.15723 0.0
H732 H 0.05261 0.9076 0.13682 0.0
H733 H 0.93013 0.8243 0.1666 0.0
H734 H 0.02345 0.03992 0.15752 0.0
H735 H 0.06019 0.00293 0.13987 0.0
H736 H 0.08103 0.00145 0.16395 0.0
H737 H 0.9162 0.91379 0.204 0.0
H738 H 0.88066 0.86336 0.19076 0.0
H739 H 0.86771 0.93302 0.18684 0.0
C740 C 0.86742 0.0782 0.98053 0.0
C741 C 0.81296 0.08764 0.97711 0.0
C742 C 0.90577 0.08655 0.96661 0.0
C743 C 0.88944 0.10549 0.94887 0.0
C744 C 0.83463 0.11541 0.94532 0.0
C745 C 0.79693 0.10636 0.9595 0.0
C746 C 0.96387 0.07579 0.971 0.0
C747 C 0.81584 0.1351 0.92649 0.0
C748 C 0.99241 0.17934 0.92026 0.0
C749 C 0.00908 0.13975 0.90749 0.0
C750 C 0.95391 0.1684 0.93392 0.0
C751 C 0.9302 0.11725 0.93439 0.0
C752 C 0.94653 0.07723 0.92141 0.0
C753 C 0.98637 0.0888 0.90822 0.0
C754 C 0.93893 0.21139 0.94799 0.0
C755 C 0.92235 0.02212 0.92159 0.0
H756 H 0.88025 0.06484 -0.00575 0.0
H757 H 0.75489 0.11331 0.95675 0.0
H758 H 0.98076 0.04733 0.96053 0.0
H759 H 0.98715 0.11327 0.97006 0.0
H760 H 0.96963 0.05913 0.98525 0.0
H761 H 0.7727 0.14557 0.92651 0.0
H762 H 0.83925 0.17053 0.92235 0.0
H763 H 0.82268 0.10374 0.91562 0.0
H764 H 0.01061 0.21852 0.91989 0.0
H765 H 0.99929 0.05822 0.89833 0.0
H766 H 0.94197 0.19625 0.96253 0.0
H767 H 0.89678 0.22322 0.94572 0.0
H768 H 0.96479 0.24713 0.94692 0.0
H769 H 0.9301 0.00326 0.93535 0.0
H770 H 0.93867 0.99586 0.9103 0.0
H771 H 0.87838 0.02478 0.91984 0.0
C772 C 0.77108 0.02016 0.72985 0.0
C773 C 0.75494 0.96681 0.72717 0.0
C774 C 0.75915 0.05938 0.71663 0.0
C775 C 0.7285 0.04569 0.70059 0.0
C776 C 0.71053 0.99248 0.69801 0.0
C777 C 0.72453 0.95355 0.71119 0.0
C778 C 0.77952 0.11548 0.71979 0.0
C779 C 0.67648 0.97664 0.68129 0.0
C780 C 0.65276 0.15137 0.67357 0.0
C781 C 0.683 0.15399 0.65712 0.0
C782 C 0.66819 0.11776 0.68826 0.0
C783 C 0.71538 0.08687 0.68643 0.0
C784 C 0.74816 0.09279 0.6704 0.0
C785 C 0.73105 0.12571 0.65576 0.0
C786 C 0.63166 0.11198 0.70494 0.0
C787 C 0.79943 0.06163 0.66814 0.0
H788 H 0.79284 0.0317 0.74244 0.0
H789 H 0.71198 0.91266 0.70887 0.0
H790 H 0.80377 0.12797 0.70759 0.0
H791 H 0.74545 0.14363 0.72098 0.0
H792 H 0.80439 0.11922 0.7327 0.0
H793 H 0.66392 0.93419 0.68172 0.0
H794 H 0.64016 0.00202 0.68075 0.0
H795 H 0.69896 0.98312 0.66811 0.0
H796 H 0.61471 0.17205 0.67427 0.0
H797 H 0.75358 0.1269 0.64278 0.0
H798 H 0.65461 0.11472 0.71827 0.0
H799 H 0.61257 0.07206 0.7044 0.0
H800 H 0.59971 0.14277 0.70519 0.0
H801 H 0.82416 0.06508 0.68107 0.0
H802 H 0.8233 0.07549 0.65602 0.0
H803 H 0.79009 0.01877 0.66594 0.0
C804 C 0.73093 0.33317 0.97568 0.0
C805 C 0.70509 0.38098 0.97122 0.0
C806 C 0.77359 0.31409 0.9647 0.0
C807 C 0.79003 0.34346 0.94886 0.0
C808 C 0.76197 0.39025 0.94379 0.0
C809 C 0.72012 0.40869 0.95515 0.0
C810 C 0.80241 0.26393 0.97047 0.0
C811 C 0.77724 0.42187 0.9267 0.0
C812 C 0.92874 0.33807 0.92745 0.0
C813 C 0.91978 0.30539 0.91163 0.0
C814 C 0.88774 0.34769 0.94055 0.0
C815 C 0.83629 0.32566 0.93735 0.0
C816 C 0.82768 0.29103 0.92186 0.0
C817 C 0.86972 0.28044 0.90946 0.0
C818 C 0.89868 0.38356 0.9573 0.0
C819 C 0.77302 0.26828 0.91757 0.0
H820 H 0.71977 0.31241 0.98835 0.0
H821 H 0.70028 0.44594 0.9519 0.0
H822 H 0.80183 0.23419 0.95881 0.0
H823 H 0.84491 0.27317 0.97357 0.0
H824 H 0.78433 0.24555 0.98307 0.0
H825 H 0.74923 0.4554 0.9241 0.0
H826 H 0.81802 0.43841 0.92858 0.0
H827 H 0.77795 0.39557 0.91405 0.0
H828 H 0.9672 0.35726 0.92933 0.0
H829 H 0.86204 0.25481 0.89738 0.0
H830 H 0.8833 0.36518 0.97031 0.0
H831 H 0.87749 0.42206 0.95551 0.0
H832 H 0.942 0.3918 0.95912 0.0
H833 H 0.75623 0.24879 0.93013 0.0
H834 H 0.77384 0.23882 0.90578 0.0
H835 H 0.74538 0.30105 0.91373 0.0
C836 C 0.88495 0.36753 0.21111 0.0
C837 C 0.84063 0.33657 0.20594 0.0
C838 C 0.90826 0.40247 0.19837 0.0
C839 C 0.88643 0.40651 0.18008 0.0
C840 C 0.84409 0.37253 0.17437 0.0
C841 C 0.82162 0.33772 0.18743 0.0
C842 C 0.95377 0.43767 0.20491 0.0
C843 C 0.82006 0.37559 0.15494 0.0
C844 C 0.89779 0.54355 0.15893 0.0
C845 C 0.94162 0.53709 0.1469 0.0
C846 C 0.87862 0.50083 0.16942 0.0
C847 C 0.9039 0.45045 0.16784 0.0
C848 C 0.94734 0.44321 0.15544 0.0
C849 C 0.96576 0.48667 0.14511 0.0
C850 C 0.83207 0.50998 0.18255 0.0
C851 C 0.97511 0.38995 0.15342 0.0
H852 H 0.89987 0.36606 0.22542 0.0
H853 H 0.78713 0.31389 0.1835 0.0
H854 H 0.98674 0.43684 0.19454 0.0
H855 H 0.93964 0.47953 0.20614 0.0
H856 H 0.96985 0.42542 0.21877 0.0
H857 H 0.79277 0.34164 0.15188 0.0
H858 H 0.79704 0.41323 0.15368 0.0
H859 H 0.85185 0.37613 0.14412 0.0
H860 H 0.8787 0.58221 0.16034 0.0
H861 H 0.99954 0.48116 0.1358 0.0
H862 H 0.84497 0.50339 0.19727 0.0
H863 H 0.79971 0.48102 0.17936 0.0
H864 H 0.8155 0.55097 0.18154 0.0
H865 H 0.99476 0.37958 0.16688 0.0
H866 H 0.00583 0.38997 0.14219 0.0
H867 H 0.94558 0.35813 0.1502 0.0
C868 C 0.99942 0.6532 0.47159 0.0
C869 C 0.02707 0.60507 0.47381 0.0
C870 C 0.96245 0.65946 0.45691 0.0
C871 C 0.95352 0.61673 0.44407 0.0
C872 C 0.9852 0.57006 0.4452 0.0
C873 C 0.0214 0.56463 0.46016 0.0
C874 C 0.92954 0.70992 0.45622 0.0
C875 C 0.97786 0.52412 0.43154 0.0
C876 C 0.81152 0.60372 0.42567 0.0
C877 C 0.81511 0.62794 0.40807 0.0
C878 C 0.85657 0.59896 0.43732 0.0
C879 C 0.90666 0.61826 0.43115 0.0
C880 C 0.91106 0.64079 0.41311 0.0
C881 C 0.86519 0.64567 0.40184 0.0
C882 C 0.85015 0.57485 0.45653 0.0
C883 C 0.9639 0.66098 0.40593 0.0
H884 H 0.00329 0.68428 0.48224 0.0
H885 H 0.04292 0.52743 0.46186 0.0
H886 H 0.92783 0.72543 0.44172 0.0
H887 H 0.88796 0.70104 0.46055 0.0
H888 H 0.94568 0.74162 0.46569 0.0
H889 H 0.01122 0.49497 0.43236 0.0
H890 H 0.94007 0.50306 0.43474 0.0
H891 H 0.97483 0.53872 0.41692 0.0
H892 H 0.77308 0.59004 0.43065 0.0
H893 H 0.86852 0.66413 0.38821 0.0
H894 H 0.86053 0.60486 0.46754 0.0
H895 H 0.87792 0.54071 0.45815 0.0
H896 H 0.80877 0.56071 0.45905 0.0
H897 H 0.97686 0.69598 0.41447 0.0
H898 H 0.9616 0.67296 0.39098 0.0
H899 H 0.99514 0.62986 0.40737 0.0
C900 C 0.65677 0.61261 0.73159 0.0
C901 C 0.70513 0.64012 0.72995 0.0
C902 C 0.64343 0.57132 0.7189 0.0
C903 C 0.67917 0.5581 0.70414 0.0
C904 C 0.72704 0.58758 0.70205 0.0
C905 C 0.73969 0.6279 0.71513 0.0
C906 C 0.59177 0.54134 0.72156 0.0
C907 C 0.76567 0.57549 0.6863 0.0
C908 C 0.68376 0.42214 0.67991 0.0
C909 C 0.65809 0.43297 0.66285 0.0
C910 C 0.68819 0.46177 0.69402 0.0
C911 C 0.66728 0.51349 0.69081 0.0
C912 C 0.63924 0.52383 0.67401 0.0
C913 C 0.63455 0.48344 0.66036 0.0
C914 C 0.71703 0.449 0.71206 0.0
C915 C 0.61586 0.57817 0.67013 0.0
H916 H 0.63068 0.62171 0.74334 0.0
H917 H 0.77749 0.64878 0.71418 0.0
H918 H 0.56216 0.55464 0.71098 0.0
H919 H 0.59772 0.49779 0.71953 0.0
H920 H 0.57452 0.54863 0.73573 0.0
H921 H 0.79993 0.60363 0.6862 0.0
H922 H 0.78144 0.53436 0.68771 0.0
H923 H 0.74479 0.57754 0.67255 0.0
H924 H 0.7017 0.38333 0.68205 0.0
H925 H 0.61383 0.49233 0.64738 0.0
H926 H 0.69239 0.46128 0.72431 0.0
H927 H 0.75494 0.47183 0.71286 0.0
H928 H 0.72643 0.40585 0.71316 0.0
H929 H 0.58668 0.58916 0.68121 0.0
H930 H 0.59536 0.57973 0.65628 0.0
H931 H 0.64792 0.60871 0.67044 0.0
C932 C 0.71686 0.56122 0.00981 0.0
C933 C 0.69021 0.52087 0.01959 0.0
C934 C 0.75658 0.59234 0.01856 0.0
C935 C 0.76935 0.58343 0.03763 0.0
C936 C 0.73889 0.54649 0.04804 0.0
C937 C 0.69976 0.5155 0.03888 0.0
C938 C 0.78775 0.63139 0.00693 0.0
C939 C 0.75034 0.5368 0.06856 0.0
C940 C 0.90966 0.60083 0.05719 0.0
C941 C 0.90387 0.64707 0.06828 0.0
C942 C 0.86698 0.58141 0.04619 0.0
C943 C 0.81736 0.60877 0.04636 0.0
C944 C 0.81271 0.65771 0.05628 0.0
C945 C 0.8561 0.67644 0.06699 0.0
C946 C 0.87394 0.52971 0.03537 0.0
C947 C 0.76078 0.68843 0.05662 0.0
H948 H 0.70917 0.56594 -0.00508 0.0
H949 H 0.67967 0.48426 0.04651 0.0
H950 H 0.79491 0.66912 0.01484 0.0
H951 H 0.82734 0.61395 0.00349 0.0
H952 H 0.76692 0.6407 -0.00644 0.0
H953 H 0.7195 0.51126 0.07511 0.0
H954 H 0.78973 0.51688 0.07001 0.0
H955 H 0.75242 0.57519 0.07645 0.0
H956 H 0.94637 0.57797 0.05795 0.0
H957 H 0.85135 0.7126 0.07528 0.0
H958 H 0.8596 0.5341 0.0207 0.0
H959 H 0.84955 0.49812 0.04194 0.0
H960 H 0.91626 0.51632 0.03508 0.0
H961 H 0.74643 0.69552 0.04211 0.0
H962 H 0.76468 0.72744 0.06404 0.0
H963 H 0.72973 0.66469 0.06381 0.0
C964 C 0.76551 0.34808 0.28299 0.0
C965 C 0.74098 0.3471 0.26534 0.0
C966 C 0.75246 0.3879 0.29625 0.0
C967 C 0.71383 0.4271 0.29164 0.0
C968 C 0.68759 0.42477 0.274 0.0
C969 C 0.70182 0.3849 0.26101 0.0
C970 C 0.78183 0.38961 0.31481 0.0
C971 C 0.64704 0.46603 0.26817 0.0
C972 C 0.65279 0.50665 0.3318 0.0
C973 C 0.68188 0.55448 0.33118 0.0
C974 C 0.66254 0.46503 0.31894 0.0
C975 C 0.70216 0.4714 0.30505 0.0
C976 C 0.73055 0.52005 0.30394 0.0
C977 C 0.71995 0.56113 0.31699 0.0
C978 C 0.63076 0.41406 0.32025 0.0
C979 C 0.77296 0.52824 0.28922 0.0
H980 H 0.79664 0.31933 0.28604 0.0
H981 H 0.68383 0.38451 0.24712 0.0
H982 H 0.80538 0.427 0.31593 0.0
H983 H 0.75298 0.38982 0.32661 0.0
H984 H 0.80936 0.35519 0.31646 0.0
H985 H 0.61762 0.44881 0.25808 0.0
H986 H 0.62528 0.48332 0.28033 0.0
H987 H 0.66799 0.49896 0.261 0.0
H988 H 0.62307 0.50116 0.34263 0.0
H989 H 0.74268 0.59783 0.3164 0.0
H990 H 0.65781 0.37903 0.32067 0.0
H991 H 0.60526 0.40939 0.30756 0.0
H992 H 0.60505 0.41341 0.33292 0.0
H993 H 0.80404 0.49682 0.29035 0.0
H994 H 0.79248 0.56788 0.29057 0.0
H995 H 0.75497 0.52463 0.275 0.0
C996 C 0.03423 0.48412 0.54952 0.0
C997 C 0.01244 0.50574 0.53305 0.0
C998 C 0.00205 0.45634 0.5622 0.0
C999 C 0.94745 0.44825 0.5579 0.0
C1000 C 0.92652 0.46538 0.54054 0.0
C1001 C 0.95877 0.49495 0.52857 0.0
C1002 C 0.02555 0.43892 0.58069 0.0
C1003 C 0.86885 0.45573 0.53511 0.0
C1004 C 0.85485 0.35628 0.5839 0.0
C1005 C 0.82232 0.39362 0.59317 0.0
C1006 C 0.89839 0.37299 0.57315 0.0
C1007 C 0.91008 0.4281 0.57223 0.0
C1008 C 0.87989 0.46533 0.58296 0.0
C1009 C 0.83546 0.44768 0.593 0.0
C1010 C 0.92837 0.33215 0.56151 0.0
C1011 C 0.89223 0.52426 0.58281 0.0
H1012 H 0.07594 0.49065 0.55293 0.0
H1013 H 0.94056 0.51196 0.5162 0.0
H1014 H 0.00965 0.46478 0.59215 0.0
H1015 H 0.01378 0.39736 0.58382 0.0
H1016 H 0.06985 0.44167 0.58084 0.0
H1017 H 0.86116 0.46429 0.52006 0.0
H1018 H 0.85746 0.41378 0.53781 0.0
H1019 H 0.84252 0.4818 0.54375 0.0
H1020 H 0.84402 0.3144 0.584 0.0
H1021 H 0.81018 0.47622 0.60033 0.0
H1022 H 0.97155 0.34167 0.56076 0.0
H1023 H 0.9123 0.33214 0.54696 0.0
H1024 H 0.92365 0.29135 0.56718 0.0
H1025 H 0.93579 0.53108 0.58453 0.0
H1026 H 0.87078 0.54638 0.59412 0.0
H1027 H 0.8801 0.5411 0.5691 0.0
C1028 C 0.79609 0.64443 0.80635 0.0
C1029 C 0.81272 0.65226 0.78783 0.0
C1030 C 0.82346 0.60873 0.818 0.0
C1031 C 0.8684 0.58076 0.81087 0.0
C1032 C 0.88778 0.59207 0.7927 0.0
C1033 C 0.8595 0.62759 0.78136 0.0
C1034 C 0.80177 0.59786 0.83733 0.0
C1035 C 0.93591 0.56359 0.78465 0.0
C1036 C 0.95773 0.49697 0.84207 0.0
C1037 C 0.9381 0.44542 0.83834 0.0
C1038 C 0.93458 0.54179 0.83365 0.0
C1039 C 0.89087 0.53484 0.82123 0.0
C1040 C 0.87007 0.48314 0.81776 0.0
C1041 C 0.89392 0.43911 0.82635 0.0
C1042 C 0.95771 0.59636 0.83766 0.0
C1043 C 0.82337 0.47412 0.8046 0.0
H1044 H 0.75969 0.66337 0.81128 0.0
H1045 H 0.87241 0.6341 0.76704 0.0
H1046 H 0.7821 0.55822 0.83728 0.0
H1047 H 0.83455 0.59674 0.84784 0.0
H1048 H 0.77203 0.62834 0.84182 0.0
H1049 H 0.94971 0.58178 0.77137 0.0
H1050 H 0.96941 0.56404 0.79489 0.0
H1051 H 0.92564 0.52124 0.78172 0.0
H1052 H 0.99174 0.50235 0.85136 0.0
H1053 H 0.87822 0.39959 0.82344 0.0
H1054 H 0.92576 0.62434 0.8422 0.0
H1055 H 0.97536 0.61253 0.82465 0.0
H1056 H 0.98916 0.59547 0.84871 0.0
H1057 H 0.78889 0.49903 0.80904 0.0
H1058 H 0.81053 0.43173 0.80407 0.0
H1059 H 0.83439 0.48632 0.79019 0.0
C1060 C 0.31967 0.42939 0.0379 0.0
C1061 C 0.37209 0.44925 0.03862 0.0
C1062 C 0.27826 0.45518 0.04757 0.0
C1063 C 0.29008 0.50091 0.05859 0.0
C1064 C 0.34404 0.51645 0.06143 0.0
C1065 C 0.38462 0.49057 0.05123 0.0
C1066 C 0.2215 0.43723 0.04409 0.0
C1067 C 0.35835 0.56386 0.07371 0.0
C1068 C 0.20038 0.62196 0.05933 0.0
C1069 C 0.17902 0.61954 0.07738 0.0
C1070 C 0.23331 0.581 0.05246 0.0
C1071 C 0.24653 0.53783 0.06429 0.0
C1072 C 0.22176 0.53338 0.08202 0.0
C1073 C 0.18749 0.57417 0.08824 0.0
C1074 C 0.25742 0.58625 0.03314 0.0
C1075 C 0.23516 0.48837 0.09511 0.0
H1076 H 0.31024 0.39664 0.02836 0.0
H1077 H 0.42516 0.5057 0.05188 0.0
H1078 H 0.19701 0.44094 0.05699 0.0
H1079 H 0.20311 0.463 0.03327 0.0
H1080 H 0.21984 0.39527 0.03891 0.0
H1081 H 0.40173 0.56494 0.07705 0.0
H1082 H 0.34773 0.60113 0.06632 0.0
H1083 H 0.3355 0.56325 0.08703 0.0
H1084 H 0.1943 0.65759 0.0511 0.0
H1085 H 0.17095 0.5726 0.10223 0.0
H1086 H 0.25378 0.54815 0.02514 0.0
H1087 H 0.30061 0.59554 0.03449 0.0
H1088 H 0.23804 0.61837 0.02494 0.0
H1089 H 0.23429 0.44945 0.08755 0.0
H1090 H 0.20728 0.48678 0.10721 0.0
H1091 H 0.27629 0.49402 0.10064 0.0
C1092 C 0.35596 0.5205 0.78258 0.0
C1093 C 0.32051 0.55582 0.77391 0.0
C1094 C 0.33702 0.47872 0.79362 0.0
C1095 C 0.28135 0.47282 0.79618 0.0
C1096 C 0.24547 0.50952 0.78784 0.0
C1097 C 0.26555 0.55027 0.77655 0.0
C1098 C 0.37636 0.44003 0.80206 0.0
C1099 C 0.18585 0.50524 0.79063 0.0
C1100 C 0.21265 0.34611 0.81211 0.0
C1101 C 0.2014 0.35997 0.83077 0.0
C1102 C 0.24221 0.38104 0.8008 0.0
C1103 C 0.26035 0.43037 0.80848 0.0
C1104 C 0.25311 0.44181 0.82777 0.0
C1105 C 0.22384 0.40645 0.83863 0.0
C1106 C 0.25056 0.36702 0.78035 0.0
C1107 C 0.27179 0.49369 0.83661 0.0
H1108 H 0.39845 0.52407 0.77993 0.0
H1109 H 0.23838 0.57687 0.76934 0.0
H1110 H 0.37161 0.43903 0.81753 0.0
H1111 H 0.36826 0.39917 0.7966 0.0
H1112 H 0.41842 0.4505 0.79881 0.0
H1113 H 0.16356 0.53733 0.78337 0.0
H1114 H 0.17143 0.4661 0.78525 0.0
H1115 H 0.17635 0.5074 0.80584 0.0
H1116 H 0.19513 0.31033 0.80602 0.0
H1117 H 0.21506 0.41729 0.85308 0.0
H1118 H 0.29218 0.3759 0.77608 0.0
H1119 H 0.22361 0.39165 0.77159 0.0
H1120 H 0.24202 0.3243 0.77731 0.0
H1121 H 0.31379 0.50212 0.83276 0.0
H1122 H 0.26877 0.49341 0.85218 0.0
H1123 H 0.24691 0.52693 0.83128 0.0
C1124 C 0.30907 0.5271 0.56194 0.0
C1125 C 0.28264 0.52019 0.54474 0.0
C1126 C 0.34393 0.48761 0.56862 0.0
C1127 C 0.35276 0.44085 0.55764 0.0
C1128 C 0.32147 0.43155 0.54134 0.0
C1129 C 0.28683 0.4715 0.53504 0.0
C1130 C 0.37521 0.49829 0.58644 0.0
C1131 C 0.32813 0.38157 0.52966 0.0
C1132 C 0.49764 0.39736 0.55918 0.0
C1133 C 0.49627 0.35604 0.57219 0.0
C1134 C 0.45058 0.42297 0.55348 0.0
C1135 C 0.40093 0.40746 0.56125 0.0
C1136 C 0.39893 0.36335 0.57344 0.0
C1137 C 0.44672 0.33808 0.57875 0.0
C1138 C 0.45449 0.46899 0.54005 0.0
C1139 C 0.34725 0.34536 0.58216 0.0
H1140 H 0.30605 0.56508 0.56932 0.0
H1141 H 0.2664 0.46652 0.52166 0.0
H1142 H 0.37603 0.46229 0.59534 0.0
H1143 H 0.41713 0.50814 0.58283 0.0
H1144 H 0.35818 0.53204 0.59473 0.0
H1145 H 0.2966 0.37739 0.51871 0.0
H1146 H 0.36766 0.38213 0.52264 0.0
H1147 H 0.32687 0.34629 0.53885 0.0
H1148 H 0.53592 0.41144 0.55416 0.0
H1149 H 0.4455 0.30699 0.58916 0.0
H1150 H 0.44389 0.5067 0.54748 0.0
H1151 H 0.4258 0.46356 0.52827 0.0
H1152 H 0.49528 0.47319 0.53415 0.0
H1153 H 0.33945 0.36985 0.59496 0.0
H1154 H 0.3495 0.30291 0.5864 0.0
H1155 H 0.31291 0.35038 0.57246 0.0
C1156 C 0.41975 0.42765 0.2756 0.0
C1157 C 0.36517 0.42261 0.27933 0.0
C1158 C 0.45313 0.45616 0.28795 0.0
C1159 C 0.43074 0.4815 0.30397 0.0
C1160 C 0.37672 0.47168 0.30873 0.0
C1161 C 0.34451 0.44193 0.29633 0.0
C1162 C 0.51078 0.46398 0.28265 0.0
C1163 C 0.35112 0.498 0.32563 0.0
C1164 C 0.51062 0.56798 0.33828 0.0
C1165 C 0.49983 0.6187 0.33115 0.0
C1166 C 0.48996 0.52209 0.32927 0.0
C1167 C 0.45873 0.52764 0.31277 0.0
C1168 C 0.45097 0.57871 0.30495 0.0
C1169 C 0.47142 0.62351 0.3143 0.0
C1170 C 0.49899 0.46822 0.33789 0.0
C1171 C 0.41871 0.58651 0.28719 0.0
H1172 H 0.4356 0.41222 0.26244 0.0
H1173 H 0.30213 0.43793 0.29911 0.0
H1174 H 0.51408 0.49925 0.27346 0.0
H1175 H 0.53631 0.47094 0.2952 0.0
H1176 H 0.52622 0.42879 0.27472 0.0
H1177 H 0.3125 0.47896 0.32925 0.0
H1178 H 0.378 0.49649 0.33803 0.0
H1179 H 0.34344 0.54062 0.32256 0.0
H1180 H 0.53245 0.56442 0.35139 0.0
H1181 H 0.4637 0.66284 0.30871 0.0
H1182 H 0.51008 0.43839 0.32693 0.0
H1183 H 0.46142 0.45435 0.34443 0.0
H1184 H 0.53052 0.46947 0.3489 0.0
H1185 H 0.43576 0.56221 0.27554 0.0
H1186 H 0.41767 0.62885 0.28279 0.0
H1187 H 0.37703 0.57293 0.28937 0.0
C1188 C 0.39674 0.37444 0.96003 0.0
C1189 C 0.39639 0.42153 0.9708 0.0
C1190 C 0.35991 0.36685 0.94529 0.0
C1191 C 0.32124 0.40681 0.94157 0.0
C1192 C 0.32361 0.45606 0.95139 0.0
C1193 C 0.36178 0.46314 0.96566 0.0
C1194 C 0.36029 0.31463 0.93452 0.0
C1195 C 0.28348 0.4998 0.94782 0.0
C1196 C 0.24835 0.38569 0.89558 0.0
C1197 C 0.20539 0.35362 0.90111 0.0
C1198 C 0.28441 0.40685 0.90874 0.0
C1199 C 0.2772 0.39575 0.92796 0.0
C1200 C 0.23057 0.36844 0.93383 0.0
C1201 C 0.19499 0.34753 0.92025 0.0
C1202 C 0.33324 0.43581 0.90179 0.0
C1203 C 0.22085 0.35705 0.95429 0.0
H1204 H 0.42316 0.3421 0.96393 0.0
H1205 H 0.36197 0.50002 0.97378 0.0
H1206 H 0.32511 0.29058 0.93861 0.0
H1207 H 0.35745 0.32155 0.91919 0.0
H1208 H 0.39707 0.29123 0.93735 0.0
H1209 H 0.29476 0.53785 0.95494 0.0
H1210 H 0.27913 0.507 0.93255 0.0
H1211 H 0.2438 0.48736 0.95311 0.0
H1212 H 0.25693 0.3898 0.88077 0.0
H1213 H 0.16231 0.32214 0.92456 0.0
H1214 H 0.36812 0.40848 0.90221 0.0
H1215 H 0.34271 0.47078 0.91089 0.0
H1216 H 0.32804 0.44954 0.88711 0.0
H1217 H 0.24958 0.3263 0.95909 0.0
H1218 H 0.17967 0.34229 0.95677 0.0
H1219 H 0.22752 0.39346 0.963 0.0
C1220 C 0.38165 0.49707 0.71109 0.0
C1221 C 0.38785 0.55281 0.71009 0.0
C1222 C 0.39518 0.46339 0.69612 0.0
C1223 C 0.41952 0.48504 0.6801 0.0
C1224 C 0.42611 0.54088 0.6787 0.0
C1225 C 0.40888 0.57429 0.69352 0.0
C1226 C 0.38645 0.404 0.69805 0.0
C1227 C 0.45338 0.56497 0.66195 0.0
C1228 C 0.51357 0.38413 0.65854 0.0
C1229 C 0.48201 0.36261 0.64406 0.0
C1230 C 0.49458 0.42618 0.66979 0.0
C1231 C 0.44346 0.44799 0.66611 0.0
C1232 C 0.41262 0.42828 0.65085 0.0
C1233 C 0.43214 0.38537 0.64007 0.0
C1234 C 0.52772 0.44522 0.68633 0.0
C1235 C 0.35763 0.44997 0.64668 0.0
H1236 H 0.36829 0.47857 0.72388 0.0
H1237 H 0.41325 0.61702 0.69222 0.0
H1238 H 0.36789 0.38711 0.68511 0.0
H1239 H 0.42541 0.38369 0.70006 0.0
H1240 H 0.36045 0.39447 0.71017 0.0
H1241 H 0.45498 0.6092 0.66287 0.0
H1242 H 0.49479 0.54939 0.66087 0.0
H1243 H 0.43222 0.55316 0.64883 0.0
H1244 H 0.55204 0.36637 0.66167 0.0
H1245 H 0.40807 0.36915 0.62866 0.0
H1246 H 0.50616 0.4382 0.69965 0.0
H1247 H 0.53436 0.4888 0.68538 0.0
H1248 H 0.56682 0.42454 0.6872 0.0
H1249 H 0.32934 0.4361 0.65754 0.0
H1250 H 0.34269 0.43649 0.63268 0.0
H1251 H 0.35761 0.49418 0.64719 0.0
C1252 C 0.29444 0.65757 0.47611 0.0
C1253 C 0.31543 0.64817 0.49405 0.0
C1254 C 0.32841 0.66635 0.46084 0.0
C1255 C 0.38439 0.66491 0.46362 0.0
C1256 C 0.40565 0.6584 0.48187 0.0
C1257 C 0.37083 0.65063 0.49691 0.0
C1258 C 0.3044 0.67395 0.4416 0.0
C1259 C 0.4652 0.65693 0.4854 0.0
C1260 C 0.47417 0.62076 0.42365 0.0
C1261 C 0.49512 0.66951 0.41781 0.0
C1262 C 0.43682 0.61889 0.43824 0.0
C1263 C 0.42097 0.66687 0.44735 0.0
C1264 C 0.44191 0.71622 0.44149 0.0
C1265 C 0.4784 0.717 0.42661 0.0
C1266 C 0.41533 0.56551 0.44423 0.0
C1267 C 0.42666 0.76788 0.45122 0.0
H1268 H 0.25166 0.65541 0.4738 0.0
H1269 H 0.38709 0.64454 0.51086 0.0
H1270 H 0.32632 0.70501 0.43381 0.0
H1271 H 0.30771 0.63613 0.43342 0.0
H1272 H 0.26152 0.68525 0.44237 0.0
H1273 H 0.47508 0.65532 0.50061 0.0
H1274 H 0.48265 0.62129 0.47833 0.0
H1275 H 0.48467 0.69251 0.47937 0.0
H1276 H 0.48716 0.58407 0.41684 0.0
H1277 H 0.49547 0.75464 0.42237 0.0
H1278 H 0.37105 0.56562 0.44353 0.0
H1279 H 0.42678 0.55802 0.45904 0.0
H1280 H 0.43054 0.53213 0.43533 0.0
H1281 H 0.38347 0.77562 0.44908 0.0
H1282 H 0.44983 0.80231 0.44598 0.0
H1283 H 0.43331 0.76509 0.46659 0.0
C1284 C 0.22299 0.47574 0.21226 0.0
C1285 C 0.27487 0.46756 0.21923 0.0
C1286 C 0.21255 0.51422 0.19858 0.0
C1287 C 0.25464 0.54681 0.19206 0.0
C1288 C 0.3069 0.53961 0.19919 0.0
C1289 C 0.31658 0.49945 0.21237 0.0
C1290 C 0.15634 0.51968 0.19101 0.0
C1291 C 0.35259 0.57419 0.19284 0.0
C1292 C 0.22408 0.59933 0.14387 0.0
C1293 C 0.19623 0.64634 0.1483 0.0
C1294 C 0.24745 0.56843 0.1579 0.0
C1295 C 0.24385 0.58567 0.17685 0.0
C1296 C 0.22198 0.63665 0.18112 0.0
C1297 C 0.1979 0.66645 0.16672 0.0
C1298 C 0.26987 0.51437 0.15257 0.0
C1299 C 0.21932 0.65738 0.20107 0.0
H1300 H 0.19004 0.45266 0.21768 0.0
H1301 H 0.35707 0.49316 0.21729 0.0
H1302 H 0.14109 0.56052 0.19387 0.0
H1303 H 0.15626 0.51351 0.17554 0.0
H1304 H 0.12834 0.49062 0.19731 0.0
H1305 H 0.38973 0.5669 0.20101 0.0
H1306 H 0.36098 0.56637 0.17777 0.0
H1307 H 0.34167 0.61695 0.19429 0.0
H1308 H 0.22327 0.58406 0.12957 0.0
H1309 H 0.17623 0.70271 0.1702 0.0
H1310 H 0.24026 0.48318 0.15612 0.0
H1311 H 0.30701 0.50574 0.16049 0.0
H1312 H 0.27854 0.51119 0.1373 0.0
H1313 H 0.18626 0.63726 0.20852 0.0
H1314 H 0.21192 0.70107 0.20162 0.0
H1315 H 0.25692 0.64857 0.20874 0.0
loop_
_geom_bond_atom_site_label_1
_geom_bond_atom_site_label_2
_geom_bond_distance
_geom_bond_site_symmetry_2
_ccdc_geom_bond_type
H0 C8 0.930 . S
H1 C11 0.930 . S
H2 C13 0.930 1_565 S
H3 C14 0.970 . S
H4 C14 0.970 . S
H5 C16 0.930 1_565 S
H6 C18 0.930 . S
H7 C20 0.930 . S
C8 H0 0.930 . S
C8 C9 1.382 1_545 S
C8 C10 1.426 . S
C9 C8 1.382 1_565 S
C9 C13 1.389 1_565 S
C10 C8 1.426 . S
C10 C11 1.375 . S
C10 C14 1.532 1_655 S
C11 H1 0.930 . S
C11 C10 1.375 . S
C11 C12 1.416 . S
C12 C11 1.416 . S
C12 C13 1.371 . S
C13 H2 0.930 1_545 S
C13 C9 1.389 1_545 S
C13 C12 1.371 . S
C14 H3 0.970 . S
C14 H4 0.970 . S
C14 C10 1.532 1_455 S
C14 C15 1.499 . S
C15 C14 1.499 . S
C15 C16 1.370 . S
C15 C20 1.415 . S
C16 H5 0.930 1_545 S
C16 C15 1.370 . S
C16 C17 1.407 1_545 S
C17 C16 1.407 1_565 S
C17 C18 1.364 . S
C18 H6 0.930 . S
C18 C17 1.364 . S
C18 C19 1.394 1_565 S
C19 C18 1.394 1_545 S
C19 C20 1.387 . S
C20 H7 0.930 . S
C20 C15 1.415 . S
C20 C19 1.387 . S
H21 C29 0.930 . S
H22 C32 0.930 . S
H23 C34 0.930 . S
H24 C35 0.970 . S
H25 C35 0.970 . S
H26 C37 0.930 . S
H27 C39 0.930 . S
H28 C41 0.930 . S
C29 H21 0.930 . S
C29 C30 1.382 . S
C29 C31 1.426 . S
C30 C29 1.382 . S
C30 C34 1.389 . S
C31 C29 1.426 . S
C31 C32 1.375 . S
C31 C35 1.532 . S
C32 H22 0.930 . S
C32 C31 1.375 . S
C32 C33 1.416 . S
C33 C32 1.416 . S
C33 C34 1.371 . S
C34 H23 0.930 . S
C34 C30 1.389 . S
C34 C33 1.371 . S
C35 H24 0.970 . S
C35 H25 0.970 . S
C35 C31 1.532 . S
C35 C36 1.499 . S
C36 C35 1.499 . S
C36 C37 1.370 . S
C36 C41 1.415 . S
C37 H26 0.930 . S
C37 C36 1.370 . S
C37 C38 1.407 . S
C38 C37 1.407 . S
C38 C39 1.365 . S
C39 H27 0.930 . S
C39 C38 1.365 . S
C39 C40 1.393 . S
C40 C39 1.393 . S
C40 C41 1.387 . S
C41 H28 0.930 . S
C41 C36 1.415 . S
C41 C40 1.387 . S
H42 C50 0.930 1_565 S
H43 C53 0.930 . S
H44 C55 0.913 1_556 S
H45 C56 0.970 . S
H46 C56 0.970 . S
H47 C58 0.930 1_565 S
H48 C60 0.932 . S
H49 C62 0.930 . S
C50 H42 0.930 1_545 S
C50 C51 1.382 1_545 S
C50 C52 1.426 . S
C51 C50 1.382 1_565 S
C51 C55 1.442 . S
C52 C50 1.426 . S
C52 C53 1.375 1_554 S
C52 C56 1.532 . S
C53 H43 0.930 . S
C53 C52 1.375 1_556 S
C53 C54 1.416 . S
C54 C53 1.416 . S
C54 C55 1.338 1_546 S
C55 H44 0.913 1_554 S
C55 C51 1.442 . S
C55 C54 1.338 1_564 S
C56 H45 0.970 . S
C56 H46 0.970 . S
C56 C52 1.532 . S
C56 C57 1.499 . S
C57 C56 1.499 . S
C57 C58 1.370 . S
C57 C62 1.415 1_554 S
C58 H47 0.930 1_545 S
C58 C57 1.370 . S
C58 C59 1.407 1_545 S
C59 C58 1.407 1_565 S
C59 C60 1.360 1_554 S
C60 H48 0.932 . S
C60 C59 1.360 1_556 S
C60 C61 1.396 1_565 S
C61 C60 1.396 1_545 S
C61 C62 1.387 . S
C62 H49 0.930 . S
C62 C57 1.415 1_556 S
C62 C61 1.387 . S
H63 C71 0.930 . S
H64 C74 0.930 . S
H65 C76 0.930 . S
H66 C77 0.970 . S
H67 C77 0.970 . S
H68 C79 0.930 . S
H69 C81 0.930 . S
H70 C83 0.930 . S
C71 H63 0.930 . S
C71 C72 1.382 . S
C71 C73 1.426 . S
C72 C71 1.382 . S
C72 C76 1.389 . S
C73 C71 1.426 . S
C73 C74 1.375 . S
C73 C77 1.532 . S
C74 H64 0.930 . S
C74 C73 1.375 . S
C74 C75 1.416 . S
C75 C74 1.416 . S
C75 C76 1.371 . S
C76 H65 0.930 . S
C76 C72 1.389 . S
C76 C75 1.371 . S
C77 H66 0.970 . S
C77 H67 0.970 . S
C77 C73 1.532 . S
C77 C78 1.499 . S
C78 C77 1.499 . S
C78 C79 1.370 . S
C78 C83 1.415 . S
C79 H68 0.930 . S
C79 C78 1.370 . S
C79 C80 1.407 . S
C80 C79 1.407 . S
C80 C81 1.365 . S
C81 H69 0.930 . S
C81 C80 1.365 . S
C81 C82 1.393 . S
C82 C81 1.393 . S
C82 C83 1.387 . S
C83 H70 0.930 . S
C83 C78 1.415 . S
C83 C82 1.387 . S
H84 C92 0.930 . S
H85 C95 0.930 . S
H86 C97 0.930 . S
H87 C98 0.970 . S
H88 C98 0.970 . S
H89 C100 0.930 . S
H90 C102 0.930 . S
H91 C104 0.930 . S
C92 H84 0.930 . S
C92 C93 1.382 . S
C92 C94 1.426 . S
C93 C92 1.382 . S
C93 C97 1.389 . S
C94 C92 1.426 . S
C94 C95 1.375 . S
C94 C98 1.532 . S
C95 H85 0.930 . S
C95 C94 1.375 . S
C95 C96 1.416 . S
C96 C95 1.416 . S
C96 C97 1.371 . S
C97 H86 0.930 . S
C97 C93 1.389 . S
C97 C96 1.371 . S
C98 H87 0.970 . S
C98 H88 0.970 . S
C98 C94 1.532 . S
C98 C99 1.499 . S
C99 C98 1.499 . S
C99 C100 1.370 . S
C99 C104 1.415 . S
C100 H89 0.930 . S
C100 C99 1.370 . S
C100 C101 1.407 . S
C101 C100 1.407 . S
C101 C102 1.365 . S
C102 H90 0.930 . S
C102 C101 1.365 . S
C102 C103 1.393 . S
C103 C102 1.393 . S
C103 C104 1.387 . S
C104 H91 0.930 . S
C104 C99 1.415 . S
C104 C103 1.387 . S
H105 C113 0.930 . S
H106 C116 0.930 . S
H107 C118 0.930 . S
H108 C119 0.970 . S
H109 C119 0.970 . S
H110 C121 0.930 . S
H111 C123 0.930 . S
H112 C125 0.930 . S
C113 H105 0.930 . S
C113 C114 1.382 . S
C113 C115 1.426 . S
C114 C113 1.382 . S
C114 C118 1.389 . S
C115 C113 1.426 . S
C115 C116 1.375 . S
C115 C119 1.532 . S
C116 H106 0.930 . S
C116 C115 1.375 . S
C116 C117 1.416 . S
C117 C116 1.416 . S
C117 C118 1.371 . S
C118 H107 0.930 . S
C118 C114 1.389 . S
C118 C117 1.371 . S
C119 H108 0.970 . S
C119 H109 0.970 . S
C119 C115 1.532 . S
C119 C120 1.499 . S
C120 C119 1.499 . S
C120 C121 1.370 . S
C120 C125 1.415 . S
C121 H110 0.930 . S
C121 C120 1.370 . S
C121 C122 1.407 . S
C122 C121 1.407 . S
C122 C123 1.365 . S
C123 H111 0.930 . S
C123 C122 1.365 . S
C123 C124 1.393 . S
C124 C123 1.393 . S
C124 C125 1.387 . S
C125 H112 0.930 . S
C125 C120 1.415 . S
C125 C124 1.387 . S
H126 C134 0.930 . S
H127 C137 0.930 . S
H128 C139 0.930 1_556 S
H129 C140 0.970 . S
H130 C140 0.970 . S
H131 C142 0.930 . S
H132 C144 0.925 1_556 S
H133 C146 0.930 . S
C134 H126 0.930 . S
C134 C135 1.382 . S
C134 C136 1.426 . S
C135 C134 1.382 . S
C135 C139 1.389 . S
C136 C134 1.426 . S
C136 C137 1.375 1_554 S
C136 C140 1.532 . S
C137 H127 0.930 . S
C137 C136 1.375 1_556 S
C137 C138 1.416 . S
C138 C137 1.416 . S
C138 C139 1.371 1_556 S
C139 H128 0.930 1_554 S
C139 C135 1.389 . S
C139 C138 1.371 1_554 S
C140 H129 0.970 . S
C140 H130 0.970 . S
C140 C136 1.532 . S
C140 C141 1.499 . S
C141 C140 1.499 . S
C141 C142 1.370 . S
C141 C146 1.415 1_554 S
C142 H131 0.930 . S
C142 C141 1.370 . S
C142 C143 1.407 . S
C143 C142 1.407 . S
C143 C144 1.378 . S
C144 H132 0.925 1_554 S
C144 C143 1.378 . S
C144 C145 1.385 1_554 S
C145 C144 1.385 1_556 S
C145 C146 1.387 . S
C146 H133 0.930 . S
C146 C141 1.415 1_556 S
C146 C145 1.387 . S
H147 C155 0.930 . S
H148 C158 0.930 . S
H149 C160 0.930 . S
H150 C161 0.970 . S
H151 C161 0.970 . S
H152 C163 0.930 . S
H153 C165 0.930 1_655 S
H154 C167 0.930 . S
C155 H147 0.930 . S
C155 C156 1.382 . S
C155 C157 1.426 . S
C156 C155 1.382 . S
C156 C160 1.389 . S
C157 C155 1.426 . S
C157 C158 1.375 . S
C157 C161 1.532 . S
C158 H148 0.930 . S
C158 C157 1.375 . S
C158 C159 1.416 . S
C159 C158 1.416 . S
C159 C160 1.371 . S
C160 H149 0.930 . S
C160 C156 1.389 . S
C160 C159 1.371 . S
C161 H150 0.970 . S
C161 H151 0.970 . S
C161 C157 1.532 . S
C161 C162 1.499 . S
C162 C161 1.499 . S
C162 C163 1.370 . S
C162 C167 1.415 . S
C163 H152 0.930 . S
C163 C162 1.370 . S
C163 C164 1.407 . S
C164 C163 1.407 . S
C164 C165 1.365 . S
C165 H153 0.930 1_455 S
C165 C164 1.365 . S
C165 C166 1.393 . S
C166 C165 1.393 . S
C166 C167 1.387 . S
C167 H154 0.930 . S
C167 C162 1.415 . S
C167 C166 1.387 . S
C168 O195 1.312 . S
C168 O196 1.208 . S
C169 O190 1.331 1_655 S
C169 O193 1.244 . S
C170 O192 1.264 1_655 S
C170 O194 1.273 . S
Mg171 O173 1.936 . S
Mg171 O180 2.081 . S
Mg171 O182 2.023 . S
Mg171 O186 2.031 . S
Mg171 O195 2.291 . S
Mg172 O173 1.963 . S
Mg172 O183 1.942 . S
Mg172 O184 1.955 . S
Mg172 O191 1.986 . S
O173 Mg171 1.936 . S
O173 Mg172 1.963 . S
O173 Mg174 1.915 . S
Mg174 O173 1.915 . S
Mg174 O175 1.915 . S
Mg174 O179 2.013 . S
Mg174 O185 2.114 . S
Mg174 O189 2.013 . S
Mg174 O195 2.114 . S
O175 Mg174 1.915 . S
O175 Mg176 1.936 . S
O175 Mg177 1.963 1_455 S
Mg176 O175 1.936 . S
Mg176 O185 2.291 . S
Mg176 O190 2.081 . S
Mg176 O192 2.023 . S
Mg176 O196 2.031 . S
Mg177 O175 1.963 1_655 S
Mg177 O181 1.986 . S
Mg177 O193 1.942 . S
Mg177 O194 1.955 . S
C178 O189 1.191 . S
C178 O191 1.307 . S
O179 Mg174 2.013 . S
O179 C198 1.191 . S
O180 Mg171 2.081 . S
O180 C188 1.331 . S
O181 Mg177 1.986 . S
O181 C198 1.307 1_655 S
O182 Mg171 2.023 . S
O182 C197 1.264 . S
O183 Mg172 1.942 . S
O183 C188 1.244 . S
O184 Mg172 1.955 . S
O184 C197 1.273 . S
O185 Mg174 2.114 . S
O185 Mg176 2.291 . S
O185 C187 1.312 . S
O186 Mg171 2.031 . S
O186 C187 1.208 . S
C187 O185 1.312 . S
C187 O186 1.208 . S
C188 O180 1.331 . S
C188 O183 1.244 . S
O189 Mg174 2.013 . S
O189 C178 1.191 . S
O190 C169 1.331 1_455 S
O190 Mg176 2.081 . S
O191 Mg172 1.986 . S
O191 C178 1.307 . S
O192 C170 1.264 1_455 S
O192 Mg176 2.023 . S
O193 C169 1.244 . S
O193 Mg177 1.942 . S
O194 C170 1.273 . S
O194 Mg177 1.955 . S
O195 C168 1.312 . S
O195 Mg171 2.291 . S
O195 Mg174 2.114 . S
O196 C168 1.208 . S
O196 Mg176 2.031 . S
C197 O182 1.264 . S
C197 O184 1.273 . S
C198 O179 1.191 . S
C198 O181 1.307 1_455 S
C199 O226 1.312 . S
C199 O227 1.208 . S
C200 O221 1.331 . S
C200 O224 1.244 . S
C201 O223 1.264 . S
C201 O225 1.273 . S
Mg202 O204 1.936 . S
Mg202 O211 2.081 . S
Mg202 O213 2.023 . S
Mg202 O217 2.031 . S
Mg202 O226 2.291 . S
Mg203 O204 1.963 . S
Mg203 O214 1.942 . S
Mg203 O215 1.955 . S
Mg203 O222 1.986 . S
O204 Mg202 1.936 . S
O204 Mg203 1.963 . S
O204 Mg205 1.915 . S
Mg205 O204 1.915 . S
Mg205 O206 1.915 . S
Mg205 O210 2.013 . S
Mg205 O216 2.114 . S
Mg205 O220 2.013 . S
Mg205 O226 2.114 . S
O206 Mg205 1.915 . S
O206 Mg207 1.936 . S
O206 Mg208 1.963 . S
Mg207 O206 1.936 . S
Mg207 O216 2.291 . S
Mg207 O221 2.081 . S
Mg207 O223 2.023 . S
Mg207 O227 2.031 . S
Mg208 O206 1.963 . S
Mg208 O212 1.986 . S
Mg208 O224 1.942 . S
Mg208 O225 1.955 . S
C209 O220 1.191 . S
C209 O222 1.307 . S
O210 Mg205 2.013 . S
O210 C229 1.191 . S
O211 Mg202 2.081 . S
O211 C219 1.331 . S
O212 Mg208 1.986 . S
O212 C229 1.307 . S
O213 Mg202 2.023 . S
O213 C228 1.264 . S
O214 Mg203 1.942 . S
O214 C219 1.244 . S
O215 Mg203 1.955 . S
O215 C228 1.273 . S
O216 Mg205 2.114 . S
O216 Mg207 2.291 . S
O216 C218 1.312 . S
O217 Mg202 2.031 . S
O217 C218 1.208 . S
C218 O216 1.312 . S
C218 O217 1.208 . S
C219 O211 1.331 . S
C219 O214 1.244 . S
O220 Mg205 2.013 . S
O220 C209 1.191 . S
O221 C200 1.331 . S
O221 Mg207 2.081 . S
O222 Mg203 1.986 . S
O222 C209 1.307 . S
O223 C201 1.264 . S
O223 Mg207 2.023 . S
O224 C200 1.244 . S
O224 Mg208 1.942 . S
O225 C201 1.273 . S
O225 Mg208 1.955 . S
O226 C199 1.312 . S
O226 Mg202 2.291 . S
O226 Mg205 2.114 . S
O227 C199 1.208 . S
O227 Mg207 2.031 . S
C228 O213 1.264 . S
C228 O215 1.273 . S
C229 O210 1.191 . S
C229 O212 1.307 . S
C230 O257 1.312 . S
C230 O258 1.208 . S
C231 O252 1.331 . S
C231 O255 1.244 . S
C232 O254 1.264 . S
C232 O256 1.273 . S
Mg233 O235 1.936 . S
Mg233 O242 2.081 . S
Mg233 O244 2.023 . S
Mg233 O248 2.031 . S
Mg233 O257 2.291 . S
Mg234 O235 1.963 . S
Mg234 O245 1.942 . S
Mg234 O246 1.955 . S
Mg234 O253 1.986 . S
O235 Mg233 1.936 . S
O235 Mg234 1.963 . S
O235 Mg236 1.915 . S
Mg236 O235 1.915 . S
Mg236 O237 1.915 . S
Mg236 O241 2.013 . S
Mg236 O247 2.114 . S
Mg236 O251 2.013 . S
Mg236 O257 2.114 . S
O237 Mg236 1.915 . S
O237 Mg238 1.936 . S
O237 Mg239 1.963 . S
Mg238 O237 1.936 . S
Mg238 O247 2.291 . S
Mg238 O252 2.081 . S
Mg238 O254 2.023 . S
Mg238 O258 2.031 . S
Mg239 O237 1.963 . S
Mg239 O243 1.986 . S
Mg239 O255 1.942 . S
Mg239 O256 1.955 . S
C240 O251 1.191 . S
C240 O253 1.307 . S
O241 Mg236 2.013 . S
O241 C260 1.191 . S
O242 Mg233 2.081 . S
O242 C250 1.331 . S
O243 Mg239 1.986 . S
O243 C260 1.307 . S
O244 Mg233 2.023 . S
O244 C259 1.264 . S
O245 Mg234 1.942 . S
O245 C250 1.244 . S
O246 Mg234 1.955 . S
O246 C259 1.273 . S
O247 Mg236 2.114 . S
O247 Mg238 2.291 . S
O247 C249 1.312 . S
O248 Mg233 2.031 . S
O248 C249 1.208 . S
C249 O247 1.312 . S
C249 O248 1.208 . S
C250 O242 1.331 . S
C250 O245 1.244 . S
O251 Mg236 2.013 . S
O251 C240 1.191 . S
O252 C231 1.331 . S
O252 Mg238 2.081 . S
O253 Mg234 1.986 . S
O253 C240 1.307 . S
O254 C232 1.264 . S
O254 Mg238 2.023 . S
O255 C231 1.244 . S
O255 Mg239 1.942 . S
O256 C232 1.273 . S
O256 Mg239 1.955 . S
O257 C230 1.312 . S
O257 Mg233 2.291 . S
O257 Mg236 2.114 . S
O258 C230 1.208 . S
O258 Mg238 2.031 . S
C259 O244 1.264 . S
C259 O246 1.273 . S
C260 O241 1.191 . S
C260 O243 1.307 . S
C261 O288 1.312 . S
C261 O289 1.208 . S
C262 O283 1.331 . S
C262 O286 1.244 . S
C263 O285 1.264 . S
C263 O287 1.273 . S
Mg264 O266 1.936 . S
Mg264 O273 2.081 . S
Mg264 O275 2.023 . S
Mg264 O279 2.031 . S
Mg264 O288 2.291 . S
Mg265 O266 1.963 1_655 S
Mg265 O276 1.942 . S
Mg265 O277 1.955 . S
Mg265 O284 1.986 . S
O266 Mg264 1.936 . S
O266 Mg265 1.963 1_455 S
O266 Mg267 1.915 . S
Mg267 O266 1.915 . S
Mg267 O268 1.915 . S
Mg267 O272 2.013 . S
Mg267 O278 2.114 . S
Mg267 O282 2.013 . S
Mg267 O288 2.114 . S
O268 Mg267 1.915 . S
O268 Mg269 1.936 . S
O268 Mg270 1.963 . S
Mg269 O268 1.936 . S
Mg269 O278 2.291 . S
Mg269 O283 2.081 . S
Mg269 O285 2.023 . S
Mg269 O289 2.031 . S
Mg270 O268 1.963 . S
Mg270 O274 1.986 . S
Mg270 O286 1.942 . S
Mg270 O287 1.955 . S
C271 O282 1.191 . S
C271 O284 1.307 1_455 S
O272 Mg267 2.013 . S
O272 C291 1.191 . S
O273 Mg264 2.081 . S
O273 C281 1.331 1_455 S
O274 Mg270 1.986 . S
O274 C291 1.307 . S
O275 Mg264 2.023 . S
O275 C290 1.264 1_455 S
O276 Mg265 1.942 . S
O276 C281 1.244 . S
O277 Mg265 1.955 . S
O277 C290 1.273 . S
O278 Mg267 2.114 . S
O278 Mg269 2.291 . S
O278 C280 1.312 . S
O279 Mg264 2.031 . S
O279 C280 1.208 . S
C280 O278 1.312 . S
C280 O279 1.208 . S
C281 O273 1.331 1_655 S
C281 O276 1.244 . S
O282 Mg267 2.013 . S
O282 C271 1.191 . S
O283 C262 1.331 . S
O283 Mg269 2.081 . S
O284 Mg265 1.986 . S
O284 C271 1.307 1_655 S
O285 C263 1.264 . S
O285 Mg269 2.023 . S
O286 C262 1.244 . S
O286 Mg270 1.942 . S
O287 C263 1.273 . S
O287 Mg270 1.955 . S
O288 C261 1.312 . S
O288 Mg264 2.291 . S
O288 Mg267 2.114 . S
O289 C261 1.208 . S
O289 Mg269 2.031 . S
C290 O275 1.264 1_655 S
C290 O277 1.273 . S
C291 O272 1.191 . S
C291 O274 1.307 . S
C292 C293 1.391 . S
C292 C294 1.394 . S
C292 H308 0.931 . S
C293 C292 1.391 . S
C293 C297 1.376 . S
C294 C292 1.394 . S
C294 C295 1.369 . S
C294 C298 1.531 . S
C295 C294 1.369 . S
C295 C296 1.410 . S
C295 C303 1.503 . S
C296 C295 1.410 . S
C296 C297 1.392 . S
C296 C299 1.511 . S
C297 C293 1.376 . S
C297 C296 1.392 . S
C297 H309 0.929 . S
C298 C294 1.531 . S
C298 H310 0.960 . S
C298 H311 0.962 . S
C298 H312 0.960 1_565 S
C299 C296 1.511 . S
C299 H313 0.961 . S
C299 H314 0.961 . S
C299 H315 0.961 . S
C300 C301 1.370 . S
C300 C302 1.363 . S
C300 H316 0.931 . S
C301 C300 1.370 . S
C301 C305 1.408 . S
C302 C300 1.363 . S
C302 C303 1.370 . S
C302 C306 1.524 . S
C303 C295 1.503 . S
C303 C302 1.370 . S
C303 C304 1.403 . S
C304 C303 1.403 . S
C304 C305 1.404 . S
C304 C307 1.539 . S
C305 C301 1.408 . S
C305 C304 1.404 . S
C305 H317 0.930 . S
C306 C302 1.524 . S
C306 H318 0.956 . S
C306 H319 0.961 . S
C306 H320 0.961 . S
C307 C304 1.539 . S
C307 H321 0.958 1_565 S
C307 H322 0.961 . S
C307 H323 0.960 . S
H308 C292 0.931 . S
H309 C297 0.929 . S
H310 C298 0.960 . S
H311 C298 0.962 . S
H312 C298 0.960 1_545 S
H313 C299 0.961 . S
H314 C299 0.961 . S
H315 C299 0.961 . S
H316 C300 0.931 . S
H317 C305 0.930 . S
H318 C306 0.956 . S
H319 C306 0.961 . S
H320 C306 0.961 . S
H321 C307 0.958 1_545 S
H322 C307 0.961 . S
H323 C307 0.960 . S
C324 C325 1.391 . S
C324 C326 1.394 . S
C324 H340 0.931 . S
C325 C324 1.391 . S
C325 C329 1.376 . S
C326 C324 1.394 . S
C326 C327 1.369 . S
C326 C330 1.531 . S
C327 C326 1.369 . S
C327 C328 1.410 . S
C327 C335 1.503 . S
C328 C327 1.410 . S
C328 C329 1.392 . S
C328 C331 1.511 . S
C329 C325 1.376 . S
C329 C328 1.392 . S
C329 H341 0.929 . S
C330 C326 1.531 . S
C330 H342 0.960 . S
C330 H343 0.962 . S
C330 H344 0.960 . S
C331 C328 1.511 . S
C331 H345 0.961 . S
C331 H346 0.961 1_565 S
C331 H347 0.961 . S
C332 C333 1.370 . S
C332 C334 1.363 . S
C332 H348 0.931 . S
C333 C332 1.370 . S
C333 C337 1.408 . S
C334 C332 1.363 . S
C334 C335 1.370 1_545 S
C334 C338 1.524 . S
C335 C327 1.503 . S
C335 C334 1.370 1_565 S
C335 C336 1.403 . S
C336 C335 1.403 . S
C336 C337 1.404 1_565 S
C336 C339 1.539 . S
C337 C333 1.408 . S
C337 C336 1.404 1_545 S
C337 H349 0.930 . S
C338 C334 1.524 . S
C338 H350 0.956 1_545 S
C338 H351 0.961 . S
C338 H352 0.961 . S
C339 C336 1.539 . S
C339 H353 0.958 . S
C339 H354 0.961 . S
C339 H355 0.960 . S
H340 C324 0.931 . S
H341 C329 0.929 . S
H342 C330 0.960 . S
H343 C330 0.962 . S
H344 C330 0.960 . S
H345 C331 0.961 . S
H346 C331 0.961 1_545 S
H347 C331 0.961 . S
H348 C332 0.931 . S
H349 C337 0.930 . S
H350 C338 0.956 1_565 S
H351 C338 0.961 . S
H352 C338 0.961 . S
H353 C339 0.958 . S
H354 C339 0.961 . S
H355 C339 0.960 . S
C356 C357 1.391 . S
C356 C358 1.394 . S
C356 H372 0.931 . S
C357 C356 1.391 . S
C357 C361 1.376 . S
C358 C356 1.394 . S
C358 C359 1.369 . S
C358 C362 1.531 . S
C359 C358 1.369 . S
C359 C360 1.410 . S
C359 C367 1.503 . S
C360 C359 1.410 . S
C360 C361 1.392 . S
C360 C363 1.511 . S
C361 C357 1.376 . S
C361 C360 1.392 . S
C361 H373 0.929 . S
C362 C358 1.531 . S
C362 H374 0.960 . S
C362 H375 0.962 . S
C362 H376 0.960 . S
C363 C360 1.511 . S
C363 H377 0.961 . S
C363 H378 0.961 . S
C363 H379 0.961 . S
C364 C365 1.370 . S
C364 C366 1.363 . S
C364 H380 0.931 . S
C365 C364 1.370 . S
C365 C369 1.408 . S
C366 C364 1.363 . S
C366 C367 1.370 . S
C366 C370 1.524 . S
C367 C359 1.503 . S
C367 C366 1.370 . S
C367 C368 1.403 . S
C368 C367 1.403 . S
C368 C369 1.404 . S
C368 C371 1.539 1_545 S
C369 C365 1.408 . S
C369 C368 1.404 . S
C369 H381 0.930 . S
C370 C366 1.524 . S
C370 H382 0.956 . S
C370 H383 0.961 . S
C370 H384 0.961 . S
C371 C368 1.539 1_565 S
C371 H385 0.958 . S
C371 H386 0.961 . S
C371 H387 0.960 . S
H372 C356 0.931 . S
H373 C361 0.929 . S
H374 C362 0.960 . S
H375 C362 0.962 . S
H376 C362 0.960 . S
H377 C363 0.961 . S
H378 C363 0.961 . S
H379 C363 0.961 . S
H380 C364 0.931 . S
H381 C369 0.930 . S
H382 C370 0.956 . S
H383 C370 0.961 . S
H384 C370 0.961 . S
H385 C371 0.958 . S
H386 C371 0.961 . S
H387 C371 0.960 . S
C388 C389 1.391 . S
C388 C390 1.394 . S
C388 H404 0.931 . S
C389 C388 1.391 . S
C389 C393 1.376 . S
C390 C388 1.394 . S
C390 C391 1.369 . S
C390 C394 1.531 . S
C391 C390 1.369 . S
C391 C392 1.410 . S
C391 C399 1.503 . S
C392 C391 1.410 . S
C392 C393 1.392 . S
C392 C395 1.511 . S
C393 C389 1.376 . S
C393 C392 1.392 . S
C393 H405 0.929 . S
C394 C390 1.531 . S
C394 H406 0.960 . S
C394 H407 0.962 . S
C394 H408 0.960 . S
C395 C392 1.511 . S
C395 H409 0.961 . S
C395 H410 0.961 1_545 S
C395 H411 0.961 . S
C396 C397 1.370 . S
C396 C398 1.363 . S
C396 H412 0.931 . S
C397 C396 1.370 . S
C397 C401 1.408 . S
C398 C396 1.363 . S
C398 C399 1.370 1_565 S
C398 C402 1.524 . S
C399 C391 1.503 . S
C399 C398 1.370 1_545 S
C399 C400 1.403 . S
C400 C399 1.403 . S
C400 C401 1.404 1_545 S
C400 C403 1.539 . S
C401 C397 1.408 . S
C401 C400 1.404 1_565 S
C401 H413 0.930 . S
C402 C398 1.524 . S
C402 H414 0.956 1_565 S
C402 H415 0.961 . S
C402 H416 0.961 . S
C403 C400 1.539 . S
C403 H417 0.958 . S
C403 H418 0.961 . S
C403 H419 0.960 . S
H404 C388 0.931 . S
H405 C393 0.929 . S
H406 C394 0.960 . S
H407 C394 0.962 . S
H408 C394 0.960 . S
H409 C395 0.961 . S
H410 C395 0.961 1_565 S
H411 C395 0.961 . S
H412 C396 0.931 . S
H413 C401 0.930 . S
H414 C402 0.956 1_545 S
H415 C402 0.961 . S
H416 C402 0.961 . S
H417 C403 0.958 . S
H418 C403 0.961 . S
H419 C403 0.960 . S
C420 C421 1.391 . S
C420 C422 1.394 . S
C420 H436 0.931 . S
C421 C420 1.391 . S
C421 C425 1.376 . S
C422 C420 1.394 . S
C422 C423 1.369 . S
C422 C426 1.531 . S
C423 C422 1.369 . S
C423 C424 1.410 . S
C423 C431 1.503 . S
C424 C423 1.410 . S
C424 C425 1.392 . S
C424 C427 1.511 . S
C425 C421 1.376 . S
C425 C424 1.392 . S
C425 H437 0.929 . S
C426 C422 1.531 . S
C426 H438 0.960 . S
C426 H439 0.962 . S
C426 H440 0.960 . S
C427 C424 1.511 . S
C427 H441 0.961 . S
C427 H442 0.961 . S
C427 H443 0.961 . S
C428 C429 1.370 . S
C428 C430 1.363 . S
C428 H444 0.931 . S
C429 C428 1.370 . S
C429 C433 1.408 . S
C430 C428 1.363 . S
C430 C431 1.370 . S
C430 C434 1.524 . S
C431 C423 1.503 . S
C431 C430 1.370 . S
C431 C432 1.403 . S
C432 C431 1.403 . S
C432 C433 1.404 . S
C432 C435 1.539 1_545 S
C433 C429 1.408 . S
C433 C432 1.404 . S
C433 H445 0.930 . S
C434 C430 1.524 . S
C434 H446 0.956 . S
C434 H447 0.961 . S
C434 H448 0.961 . S
C435 C432 1.539 1_565 S
C435 H449 0.958 . S
C435 H450 0.961 . S
C435 H451 0.960 . S
H436 C420 0.931 . S
H437 C425 0.929 . S
H438 C426 0.960 . S
H439 C426 0.962 . S
H440 C426 0.960 . S
H441 C427 0.961 . S
H442 C427 0.961 . S
H443 C427 0.961 . S
H444 C428 0.931 . S
H445 C433 0.930 . S
H446 C434 0.956 . S
H447 C434 0.961 . S
H448 C434 0.961 . S
H449 C435 0.958 . S
H450 C435 0.961 . S
H451 C435 0.960 . S
C452 C453 1.391 . S
C452 C454 1.394 . S
C452 H468 0.931 . S
C453 C452 1.391 . S
C453 C457 1.376 . S
C454 C452 1.394 . S
C454 C455 1.369 . S
C454 C458 1.531 . S
C455 C454 1.369 . S
C455 C456 1.410 . S
C455 C463 1.503 . S
C456 C455 1.410 . S
C456 C457 1.392 . S
C456 C459 1.511 . S
C457 C453 1.376 . S
C457 C456 1.392 . S
C457 H469 0.929 . S
C458 C454 1.531 . S
C458 H470 0.960 1_565 S
C458 H471 0.962 . S
C458 H472 0.960 . S
C459 C456 1.511 . S
C459 H473 0.961 . S
C459 H474 0.961 . S
C459 H475 0.961 . S
C460 C461 1.370 . S
C460 C462 1.363 . S
C460 H476 0.931 . S
C461 C460 1.370 . S
C461 C465 1.408 . S
C462 C460 1.363 . S
C462 C463 1.370 1_545 S
C462 C466 1.524 1_545 S
C463 C455 1.503 . S
C463 C462 1.370 1_565 S
C463 C464 1.403 1_565 S
C464 C463 1.403 1_545 S
C464 C465 1.404 . S
C464 C467 1.539 . S
C465 C461 1.408 . S
C465 C464 1.404 . S
C465 H477 0.930 . S
C466 C462 1.524 1_565 S
C466 H478 0.956 . S
C466 H479 0.961 . S
C466 H480 0.961 . S
C467 C464 1.539 . S
C467 H481 0.958 . S
C467 H482 0.961 . S
C467 H483 0.960 . S
H468 C452 0.931 . S
H469 C457 0.929 . S
H470 C458 0.960 1_545 S
H471 C458 0.962 . S
H472 C458 0.960 . S
H473 C459 0.961 . S
H474 C459 0.961 . S
H475 C459 0.961 . S
H476 C460 0.931 . S
H477 C465 0.930 . S
H478 C466 0.956 . S
H479 C466 0.961 . S
H480 C466 0.961 . S
H481 C467 0.958 . S
H482 C467 0.961 . S
H483 C467 0.960 . S
C484 C485 1.391 . S
C484 C486 1.394 . S
C484 H500 0.931 . S
C485 C484 1.391 . S
C485 C489 1.376 . S
C486 C484 1.394 . S
C486 C487 1.369 . S
C486 C490 1.531 . S
C487 C486 1.369 . S
C487 C488 1.410 . S
C487 C495 1.503 . S
C488 C487 1.410 . S
C488 C489 1.392 . S
C488 C491 1.511 . S
C489 C485 1.376 . S
C489 C488 1.392 . S
C489 H501 0.929 . S
C490 C486 1.531 . S
C490 H502 0.960 . S
C490 H503 0.962 . S
C490 H504 0.960 . S
C491 C488 1.511 . S
C491 H505 0.961 1_565 S
C491 H506 0.961 . S
C491 H507 0.961 . S
C492 C493 1.370 . S
C492 C494 1.363 . S
C492 H508 0.931 . S
C493 C492 1.370 . S
C493 C497 1.408 . S
C494 C492 1.363 . S
C494 C495 1.370 . S
C494 C498 1.524 . S
C495 C487 1.503 . S
C495 C494 1.370 . S
C495 C496 1.403 . S
C496 C495 1.403 . S
C496 C497 1.404 . S
C496 C499 1.539 . S
C497 C493 1.408 . S
C497 C496 1.404 . S
C497 H509 0.930 . S
C498 C494 1.524 . S
C498 H510 0.956 . S
C498 H511 0.961 . S
C498 H512 0.961 . S
C499 C496 1.539 . S
C499 H513 0.958 . S
C499 H514 0.961 . S
C499 H515 0.960 . S
H500 C484 0.931 . S
H501 C489 0.929 . S
H502 C490 0.960 . S
H503 C490 0.962 . S
H504 C490 0.960 . S
H505 C491 0.961 1_545 S
H506 C491 0.961 . S
H507 C491 0.961 . S
H508 C492 0.931 . S
H509 C497 0.930 . S
H510 C498 0.956 . S
H511 C498 0.961 . S
H512 C498 0.961 . S
H513 C499 0.958 . S
H514 C499 0.961 . S
H515 C499 0.960 . S
C516 C517 1.391 . S
C516 C518 1.394 . S
C516 H532 0.931 . S
C517 C516 1.391 . S
C517 C521 1.376 . S
C518 C516 1.394 . S
C518 C519 1.369 . S
C518 C522 1.531 . S
C519 C518 1.369 . S
C519 C520 1.410 . S
C519 C527 1.503 . S
C520 C519 1.410 . S
C520 C521 1.392 . S
C520 C523 1.511 . S
C521 C517 1.376 . S
C521 C520 1.392 . S
C521 H533 0.929 . S
C522 C518 1.531 . S
C522 H534 0.960 1_545 S
C522 H535 0.962 . S
C522 H536 0.960 . S
C523 C520 1.511 . S
C523 H537 0.961 . S
C523 H538 0.961 . S
C523 H539 0.961 . S
C524 C525 1.370 . S
C524 C526 1.363 1_565 S
C524 H540 0.931 . S
C525 C524 1.370 . S
C525 C529 1.408 . S
C526 C524 1.363 1_545 S
C526 C527 1.370 . S
C526 C530 1.524 . S
C527 C519 1.503 . S
C527 C526 1.370 . S
C527 C528 1.403 1_545 S
C528 C527 1.403 1_565 S
C528 C529 1.404 . S
C528 C531 1.539 . S
C529 C525 1.408 . S
C529 C528 1.404 . S
C529 H541 0.930 . S
C530 C526 1.524 . S
C530 H542 0.956 . S
C530 H543 0.961 . S
C530 H544 0.961 . S
C531 C528 1.539 . S
C531 H545 0.958 . S
C531 H546 0.961 . S
C531 H547 0.960 1_565 S
H532 C516 0.931 . S
H533 C521 0.929 . S
H534 C522 0.960 1_565 S
H535 C522 0.962 . S
H536 C522 0.960 . S
H537 C523 0.961 . S
H538 C523 0.961 . S
H539 C523 0.961 . S
H540 C524 0.931 . S
H541 C529 0.930 . S
H542 C530 0.956 . S
H543 C530 0.961 . S
H544 C530 0.961 . S
H545 C531 0.958 . S
H546 C531 0.961 . S
H547 C531 0.960 1_545 S
C548 C549 1.391 . S
C548 C550 1.394 . S
C548 H564 0.931 1_545 S
C549 C548 1.391 . S
C549 C553 1.376 . S
C550 C548 1.394 . S
C550 C551 1.369 . S
C550 C554 1.531 . S
C551 C550 1.369 . S
C551 C552 1.410 . S
C551 C559 1.503 . S
C552 C551 1.410 . S
C552 C553 1.392 . S
C552 C555 1.511 . S
C553 C549 1.376 . S
C553 C552 1.392 . S
C553 H565 0.929 . S
C554 C550 1.531 . S
C554 H566 0.960 . S
C554 H567 0.962 . S
C554 H568 0.960 1_545 S
C555 C552 1.511 . S
C555 H569 0.961 . S
C555 H570 0.961 . S
C555 H571 0.961 . S
C556 C557 1.370 . S
C556 C558 1.363 . S
C556 H572 0.931 . S
C557 C556 1.370 . S
C557 C561 1.408 . S
C558 C556 1.363 . S
C558 C559 1.370 . S
C558 C562 1.524 . S
C559 C551 1.503 . S
C559 C558 1.370 . S
C559 C560 1.403 . S
C560 C559 1.403 . S
C560 C561 1.404 . S
C560 C563 1.539 . S
C561 C557 1.408 . S
C561 C560 1.404 . S
C561 H573 0.930 . S
C562 C558 1.524 . S
C562 H574 0.956 . S
C562 H575 0.961 . S
C562 H576 0.961 . S
C563 C560 1.539 . S
C563 H577 0.958 . S
C563 H578 0.961 . S
C563 H579 0.960 . S
H564 C548 0.931 1_565 S
H565 C553 0.929 . S
H566 C554 0.960 . S
H567 C554 0.962 . S
H568 C554 0.960 1_565 S
H569 C555 0.961 . S
H570 C555 0.961 . S
H571 C555 0.961 . S
H572 C556 0.931 . S
H573 C561 0.930 . S
H574 C562 0.956 . S
H575 C562 0.961 . S
H576 C562 0.961 . S
H577 C563 0.958 . S
H578 C563 0.961 . S
H579 C563 0.960 . S
C580 C581 1.391 . S
C580 C582 1.394 1_545 S
C580 H596 0.931 . S
C581 C580 1.391 . S
C581 C585 1.376 . S
C582 C580 1.394 1_565 S
C582 C583 1.369 . S
C582 C586 1.531 . S
C583 C582 1.369 . S
C583 C584 1.410 . S
C583 C591 1.503 . S
C584 C583 1.410 . S
C584 C585 1.392 1_565 S
C584 C587 1.511 . S
C585 C581 1.376 . S
C585 C584 1.392 1_545 S
C585 H597 0.929 . S
C586 C582 1.531 . S
C586 H598 0.960 . S
C586 H599 0.962 . S
C586 H600 0.960 . S
C587 C584 1.511 . S
C587 H601 0.961 1_565 S
C587 H602 0.961 . S
C587 H603 0.961 . S
C588 C589 1.370 . S
C588 C590 1.363 . S
C588 H604 0.931 . S
C589 C588 1.370 . S
C589 C593 1.408 . S
C590 C588 1.363 . S
C590 C591 1.370 . S
C590 C594 1.524 . S
C591 C583 1.503 . S
C591 C590 1.370 . S
C591 C592 1.403 . S
C592 C591 1.403 . S
C592 C593 1.404 . S
C592 C595 1.539 . S
C593 C589 1.408 . S
C593 C592 1.404 . S
C593 H605 0.930 . S
C594 C590 1.524 . S
C594 H606 0.956 . S
C594 H607 0.961 1_565 S
C594 H608 0.961 . S
C595 C592 1.539 . S
C595 H609 0.958 . S
C595 H610 0.961 . S
C595 H611 0.960 . S
H596 C580 0.931 . S
H597 C585 0.929 . S
H598 C586 0.960 . S
H599 C586 0.962 . S
H600 C586 0.960 . S
H601 C587 0.961 1_545 S
H602 C587 0.961 . S
H603 C587 0.961 . S
H604 C588 0.931 . S
H605 C593 0.930 . S
H606 C594 0.956 . S
H607 C594 0.961 1_545 S
H608 C594 0.961 . S
H609 C595 0.958 . S
H610 C595 0.961 . S
H611 C595 0.960 . S
C612 C613 1.391 . S
C612 C614 1.394 . S
C612 H628 0.931 . S
C613 C612 1.391 . S
C613 C617 1.376 . S
C614 C612 1.394 . S
C614 C615 1.369 . S
C614 C618 1.531 . S
C615 C614 1.369 . S
C615 C616 1.410 . S
C615 C623 1.503 . S
C616 C615 1.410 . S
C616 C617 1.392 . S
C616 C619 1.511 . S
C617 C613 1.376 . S
C617 C616 1.392 . S
C617 H629 0.929 1_565 S
C618 C614 1.531 . S
C618 H630 0.960 . S
C618 H631 0.962 . S
C618 H632 0.960 . S
C619 C616 1.511 . S
C619 H633 0.961 . S
C619 H634 0.961 . S
C619 H635 0.961 1_565 S
C620 C621 1.370 1_655 S
C620 C622 1.363 . S
C620 H636 0.931 . S
C621 C620 1.370 1_455 S
C621 C625 1.408 . S
C622 C620 1.363 . S
C622 C623 1.370 . S
C622 C626 1.524 . S
C623 C615 1.503 . S
C623 C622 1.370 . S
C623 C624 1.403 . S
C624 C623 1.403 . S
C624 C625 1.404 1_655 S
C624 C627 1.539 1_655 S
C625 C621 1.408 . S
C625 C624 1.404 1_455 S
C625 H637 0.930 . S
C626 C622 1.524 . S
C626 H638 0.956 . S
C626 H639 0.961 . S
C626 H640 0.961 . S
C627 C624 1.539 1_455 S
C627 H641 0.958 . S
C627 H642 0.961 . S
C627 H643 0.960 1_455 S
H628 C612 0.931 . S
H629 C617 0.929 1_545 S
H630 C618 0.960 . S
H631 C618 0.962 . S
H632 C618 0.960 . S
H633 C619 0.961 . S
H634 C619 0.961 . S
H635 C619 0.961 1_545 S
H636 C620 0.931 . S
H637 C625 0.930 . S
H638 C626 0.956 . S
H639 C626 0.961 . S
H640 C626 0.961 . S
H641 C627 0.958 . S
H642 C627 0.961 . S
H643 C627 0.960 1_655 S
C644 C645 1.391 . S
C644 C646 1.394 1_565 S
C644 H660 0.931 . S
C645 C644 1.391 . S
C645 C649 1.376 . S
C646 C644 1.394 1_545 S
C646 C647 1.369 . S
C646 C650 1.531 1_655 S
C647 C646 1.369 . S
C647 C648 1.410 . S
C647 C655 1.503 . S
C648 C647 1.410 . S
C648 C649 1.392 1_545 S
C648 C651 1.511 . S
C649 C645 1.376 . S
C649 C648 1.392 1_565 S
C649 H661 0.929 . S
C650 C646 1.531 1_455 S
C650 H662 0.960 . S
C650 H663 0.962 . S
C650 H664 0.960 . S
C651 C648 1.511 . S
C651 H665 0.961 . S
C651 H666 0.961 . S
C651 H667 0.961 . S
C652 C653 1.370 . S
C652 C654 1.363 1_455 S
C652 H668 0.931 . S
C653 C652 1.370 . S
C653 C657 1.408 1_455 S
C654 C652 1.363 1_655 S
C654 C655 1.370 . S
C654 C658 1.524 . S
C655 C647 1.503 . S
C655 C654 1.370 . S
C655 C656 1.403 . S
C656 C655 1.403 . S
C656 C657 1.404 . S
C656 C659 1.539 . S
C657 C653 1.408 1_655 S
C657 C656 1.404 . S
C657 H669 0.930 . S
C658 C654 1.524 . S
C658 H670 0.956 1_655 S
C658 H671 0.961 . S
C658 H672 0.961 1_655 S
C659 C656 1.539 . S
C659 H673 0.958 . S
C659 H674 0.961 . S
C659 H675 0.960 . S
H660 C644 0.931 . S
H661 C649 0.929 . S
H662 C650 0.960 . S
H663 C650 0.962 . S
H664 C650 0.960 . S
H665 C651 0.961 . S
H666 C651 0.961 . S
H667 C651 0.961 . S
H668 C652 0.931 . S
H669 C657 0.930 . S
H670 C658 0.956 1_455 S
H671 C658 0.961 . S
H672 C658 0.961 1_455 S
H673 C659 0.958 . S
H674 C659 0.961 . S
H675 C659 0.960 . S
C676 C677 1.391 . S
C676 C678 1.394 . S
C676 H692 0.931 . S
C677 C676 1.391 . S
C677 C681 1.376 . S
C678 C676 1.394 . S
C678 C679 1.369 . S
C678 C682 1.531 . S
C679 C678 1.369 . S
C679 C680 1.410 . S
C679 C687 1.503 . S
C680 C679 1.410 . S
C680 C681 1.392 . S
C680 C683 1.511 . S
C681 C677 1.376 . S
C681 C680 1.392 . S
C681 H693 0.929 1_565 S
C682 C678 1.531 . S
C682 H694 0.960 . S
C682 H695 0.962 . S
C682 H696 0.960 . S
C683 C680 1.511 . S
C683 H697 0.961 1_565 S
C683 H698 0.961 . S
C683 H699 0.961 . S
C684 C685 1.370 . S
C684 C686 1.363 . S
C684 H700 0.931 . S
C685 C684 1.370 . S
C685 C689 1.408 . S
C686 C684 1.363 . S
C686 C687 1.370 . S
C686 C690 1.524 . S
C687 C679 1.503 . S
C687 C686 1.370 . S
C687 C688 1.403 . S
C688 C687 1.403 . S
C688 C689 1.404 . S
C688 C691 1.539 . S
C689 C685 1.408 . S
C689 C688 1.404 . S
C689 H701 0.930 . S
C690 C686 1.524 . S
C690 H702 0.956 . S
C690 H703 0.961 . S
C690 H704 0.961 . S
C691 C688 1.539 . S
C691 H705 0.958 . S
C691 H706 0.961 . S
C691 H707 0.960 . S
H692 C676 0.931 . S
H693 C681 0.929 1_545 S
H694 C682 0.960 . S
H695 C682 0.962 . S
H696 C682 0.960 . S
H697 C683 0.961 1_545 S
H698 C683 0.961 . S
H699 C683 0.961 . S
H700 C684 0.931 . S
H701 C689 0.930 . S
H702 C690 0.956 . S
H703 C690 0.961 . S
H704 C690 0.961 . S
H705 C691 0.958 . S
H706 C691 0.961 . S
H707 C691 0.960 . S
C708 C709 1.391 . S
C708 C710 1.394 1_545 S
C708 H724 0.931 . S
C709 C708 1.391 . S
C709 C713 1.376 . S
C710 C708 1.394 1_565 S
C710 C711 1.369 . S
C710 C714 1.531 . S
C711 C710 1.369 . S
C711 C712 1.410 . S
C711 C719 1.503 . S
C712 C711 1.410 . S
C712 C713 1.392 1_565 S
C712 C715 1.511 . S
C713 C709 1.376 . S
C713 C712 1.392 1_545 S
C713 H725 0.929 . S
C714 C710 1.531 . S
C714 H726 0.960 . S
C714 H727 0.962 1_655 S
C714 H728 0.960 . S
C715 C712 1.511 . S
C715 H729 0.961 . S
C715 H730 0.961 . S
C715 H731 0.961 . S
C716 C717 1.375 . S
C716 C718 1.363 1_455 S
C716 H732 0.931 . S
C717 C716 1.375 . S
C717 C721 1.395 1_455 S
C718 C716 1.363 1_655 S
C718 C719 1.370 . S
C718 C722 1.524 1_655 S
C719 C711 1.503 . S
C719 C718 1.370 . S
C719 C720 1.403 . S
C720 C719 1.403 . S
C720 C721 1.404 . S
C720 C723 1.539 . S
C721 C717 1.395 1_655 S
C721 C720 1.404 . S
C721 H733 0.930 . S
C722 C718 1.524 1_455 S
C722 H734 0.956 . S
C722 H735 0.961 1_465 S
C722 H736 0.961 . S
C723 C720 1.539 . S
C723 H737 0.958 . S
C723 H738 0.961 . S
C723 H739 0.960 . S
H724 C708 0.931 . S
H725 C713 0.929 . S
H726 C714 0.960 . S
H727 C714 0.962 1_455 S
H728 C714 0.960 . S
H729 C715 0.961 . S
H730 C715 0.961 . S
H731 C715 0.961 . S
H732 C716 0.931 . S
H733 C721 0.930 . S
H734 C722 0.956 . S
H735 C722 0.961 1_645 S
H736 C722 0.961 . S
H737 C723 0.958 . S
H738 C723 0.961 . S
H739 C723 0.960 . S
C740 C741 1.391 . S
C740 C742 1.394 . S
C740 H756 0.915 1_545 S
C741 C740 1.391 . S
C741 C745 1.376 . S
C742 C740 1.394 . S
C742 C743 1.369 . S
C742 C746 1.531 . S
C743 C742 1.369 . S
C743 C744 1.410 . S
C743 C751 1.503 . S
C744 C743 1.410 . S
C744 C745 1.392 . S
C744 C747 1.511 . S
C745 C741 1.376 . S
C745 C744 1.392 . S
C745 H757 0.929 . S
C746 C742 1.531 . S
C746 H758 0.960 . S
C746 H759 0.962 . S
C746 H760 0.960 1_545 S
C747 C744 1.511 . S
C747 H761 0.961 . S
C747 H762 0.961 . S
C747 H763 0.961 . S
C748 C749 1.370 1_655 S
C748 C750 1.363 . S
C748 H764 0.931 1_655 S
C749 C748 1.370 1_455 S
C749 C753 1.408 1_455 S
C750 C748 1.363 . S
C750 C751 1.370 . S
C750 C754 1.524 . S
C751 C743 1.503 . S
C751 C750 1.370 . S
C751 C752 1.403 . S
C752 C751 1.403 . S
C752 C753 1.404 . S
C752 C755 1.539 . S
C753 C749 1.408 1_655 S
C753 C752 1.404 . S
C753 H765 0.930 . S
C754 C750 1.524 . S
C754 H766 0.956 . S
C754 H767 0.961 . S
C754 H768 0.961 . S
C755 C752 1.539 . S
C755 H769 0.958 . S
C755 H770 0.961 . S
C755 H771 0.960 . S
H756 C740 0.915 1_565 S
H757 C745 0.929 . S
H758 C746 0.960 . S
H759 C746 0.962 . S
H760 C746 0.960 1_565 S
H761 C747 0.961 . S
H762 C747 0.961 . S
H763 C747 0.961 . S
H764 C748 0.931 1_455 S
H765 C753 0.930 . S
H766 C754 0.956 . S
H767 C754 0.961 . S
H768 C754 0.961 . S
H769 C755 0.958 . S
H770 C755 0.961 . S
H771 C755 0.960 . S
C772 C773 1.391 1_545 S
C772 C774 1.394 . S
C772 H788 0.931 . S
C773 C772 1.391 1_565 S
C773 C777 1.376 . S
C774 C772 1.394 . S
C774 C775 1.369 . S
C774 C778 1.531 . S
C775 C774 1.369 . S
C775 C776 1.410 1_545 S
C775 C783 1.503 . S
C776 C775 1.410 1_565 S
C776 C777 1.392 . S
C776 C779 1.511 . S
C777 C773 1.376 . S
C777 C776 1.392 . S
C777 H789 0.929 . S
C778 C774 1.531 . S
C778 H790 0.960 . S
C778 H791 0.962 . S
C778 H792 0.960 . S
C779 C776 1.511 . S
C779 H793 0.961 . S
C779 H794 0.961 1_565 S
C779 H795 0.961 . S
C780 C781 1.370 . S
C780 C782 1.363 . S
C780 H796 0.931 . S
C781 C780 1.370 . S
C781 C785 1.408 . S
C782 C780 1.363 . S
C782 C783 1.370 . S
C782 C786 1.524 . S
C783 C775 1.503 . S
C783 C782 1.370 . S
C783 C784 1.403 . S
C784 C783 1.403 . S
C784 C785 1.404 . S
C784 C787 1.539 . S
C785 C781 1.408 . S
C785 C784 1.404 . S
C785 H797 0.930 . S
C786 C782 1.524 . S
C786 H798 0.956 . S
C786 H799 0.961 . S
C786 H800 0.961 . S
C787 C784 1.539 . S
C787 H801 0.958 . S
C787 H802 0.961 . S
C787 H803 0.960 . S
H788 C772 0.931 . S
H789 C777 0.929 . S
H790 C778 0.960 . S
H791 C778 0.962 . S
H792 C778 0.960 . S
H793 C779 0.961 . S
H794 C779 0.961 1_545 S
H795 C779 0.961 . S
H796 C780 0.931 . S
H797 C785 0.930 . S
H798 C786 0.956 . S
H799 C786 0.961 . S
H800 C786 0.961 . S
H801 C787 0.958 . S
H802 C787 0.961 . S
H803 C787 0.960 . S
C804 C805 1.391 . S
C804 C806 1.394 . S
C804 H820 0.931 . S
C805 C804 1.391 . S
C805 C809 1.376 . S
C806 C804 1.394 . S
C806 C807 1.369 . S
C806 C810 1.531 . S
C807 C806 1.369 . S
C807 C808 1.410 . S
C807 C815 1.503 . S
C808 C807 1.410 . S
C808 C809 1.392 . S
C808 C811 1.511 . S
C809 C805 1.376 . S
C809 C808 1.392 . S
C809 H821 0.929 . S
C810 C806 1.531 . S
C810 H822 0.960 . S
C810 H823 0.962 . S
C810 H824 0.960 . S
C811 C808 1.511 . S
C811 H825 0.961 . S
C811 H826 0.961 . S
C811 H827 0.961 . S
C812 C813 1.370 . S
C812 C814 1.363 . S
C812 H828 0.931 . S
C813 C812 1.370 . S
C813 C817 1.408 . S
C814 C812 1.363 . S
C814 C815 1.370 . S
C814 C818 1.524 . S
C815 C807 1.503 . S
C815 C814 1.370 . S
C815 C816 1.403 . S
C816 C815 1.403 . S
C816 C817 1.404 . S
C816 C819 1.539 . S
C817 C813 1.408 . S
C817 C816 1.404 . S
C817 H829 0.930 . S
C818 C814 1.524 . S
C818 H830 0.956 . S
C818 H831 0.961 . S
C818 H832 0.961 . S
C819 C816 1.539 . S
C819 H833 0.958 . S
C819 H834 0.961 . S
C819 H835 0.960 . S
H820 C804 0.931 . S
H821 C809 0.929 . S
H822 C810 0.960 . S
H823 C810 0.962 . S
H824 C810 0.960 . S
H825 C811 0.961 . S
H826 C811 0.961 . S
H827 C811 0.961 . S
H828 C812 0.931 . S
H829 C817 0.930 . S
H830 C818 0.956 . S
H831 C818 0.961 . S
H832 C818 0.961 . S
H833 C819 0.958 . S
H834 C819 0.961 . S
H835 C819 0.960 . S
C836 C837 1.391 . S
C836 C838 1.394 . S
C836 H852 0.931 . S
C837 C836 1.391 . S
C837 C841 1.376 . S
C838 C836 1.394 . S
C838 C839 1.369 . S
C838 C842 1.531 1_655 S
C839 C838 1.369 . S
C839 C840 1.410 . S
C839 C847 1.503 . S
C840 C839 1.410 . S
C840 C841 1.392 . S
C840 C843 1.511 . S
C841 C837 1.376 . S
C841 C840 1.392 . S
C841 H853 0.929 . S
C842 C838 1.531 1_455 S
C842 H854 0.960 . S
C842 H855 0.962 . S
C842 H856 0.960 . S
C843 C840 1.511 . S
C843 H857 0.961 . S
C843 H858 0.961 . S
C843 H859 0.961 . S
C844 C845 1.370 . S
C844 C846 1.363 . S
C844 H860 0.931 . S
C845 C844 1.370 . S
C845 C849 1.408 . S
C846 C844 1.363 . S
C846 C847 1.370 . S
C846 C850 1.524 . S
C847 C839 1.503 . S
C847 C846 1.370 . S
C847 C848 1.403 . S
C848 C847 1.403 . S
C848 C849 1.404 . S
C848 C851 1.539 . S
C849 C845 1.408 . S
C849 C848 1.404 . S
C849 H861 0.930 . S
C850 C846 1.524 . S
C850 H862 0.956 . S
C850 H863 0.961 . S
C850 H864 0.961 . S
C851 C848 1.539 . S
C851 H865 0.958 . S
C851 H866 0.961 . S
C851 H867 0.960 . S
H852 C836 0.931 . S
H853 C841 0.929 . S
H854 C842 0.960 . S
H855 C842 0.962 . S
H856 C842 0.960 . S
H857 C843 0.961 . S
H858 C843 0.961 . S
H859 C843 0.961 . S
H860 C844 0.931 . S
H861 C849 0.930 . S
H862 C850 0.956 . S
H863 C850 0.961 . S
H864 C850 0.961 . S
H865 C851 0.958 . S
H866 C851 0.961 . S
H867 C851 0.960 . S
C868 C869 1.391 . S
C868 C870 1.394 . S
C868 H884 0.931 . S
C869 C868 1.391 . S
C869 C873 1.376 . S
C870 C868 1.394 . S
C870 C871 1.369 . S
C870 C874 1.531 . S
C871 C870 1.369 . S
C871 C872 1.410 . S
C871 C879 1.503 . S
C872 C871 1.410 . S
C872 C873 1.392 . S
C872 C875 1.511 . S
C873 C869 1.376 . S
C873 C872 1.392 . S
C873 H885 0.929 1_655 S
C874 C870 1.531 . S
C874 H886 0.960 . S
C874 H887 0.962 . S
C874 H888 0.960 . S
C875 C872 1.511 . S
C875 H889 0.961 . S
C875 H890 0.961 . S
C875 H891 0.961 . S
C876 C877 1.370 . S
C876 C878 1.363 . S
C876 H892 0.931 . S
C877 C876 1.370 . S
C877 C881 1.408 . S
C878 C876 1.363 . S
C878 C879 1.370 . S
C878 C882 1.524 . S
C879 C871 1.503 . S
C879 C878 1.370 . S
C879 C880 1.403 . S
C880 C879 1.403 . S
C880 C881 1.404 . S
C880 C883 1.539 . S
C881 C877 1.408 . S
C881 C880 1.404 . S
C881 H893 0.930 . S
C882 C878 1.524 . S
C882 H894 0.956 . S
C882 H895 0.961 . S
C882 H896 0.961 . S
C883 C880 1.539 . S
C883 H897 0.958 . S
C883 H898 0.961 . S
C883 H899 0.960 . S
H884 C868 0.931 . S
H885 C873 0.929 1_455 S
H886 C874 0.960 . S
H887 C874 0.962 . S
H888 C874 0.960 . S
H889 C875 0.961 . S
H890 C875 0.961 . S
H891 C875 0.961 . S
H892 C876 0.931 . S
H893 C881 0.930 . S
H894 C882 0.956 . S
H895 C882 0.961 . S
H896 C882 0.961 . S
H897 C883 0.958 . S
H898 C883 0.961 . S
H899 C883 0.960 . S
C900 C901 1.391 . S
C900 C902 1.394 . S
C900 H916 0.931 . S
C901 C900 1.391 . S
C901 C905 1.376 . S
C902 C900 1.394 . S
C902 C903 1.369 . S
C902 C906 1.531 . S
C903 C902 1.369 . S
C903 C904 1.410 . S
C903 C911 1.503 . S
C904 C903 1.410 . S
C904 C905 1.392 . S
C904 C907 1.511 . S
C905 C901 1.376 . S
C905 C904 1.392 . S
C905 H917 0.929 . S
C906 C902 1.531 . S
C906 H918 0.960 . S
C906 H919 0.962 . S
C906 H920 0.960 . S
C907 C904 1.511 . S
C907 H921 0.961 . S
C907 H922 0.961 . S
C907 H923 0.961 . S
C908 C909 1.370 . S
C908 C910 1.363 . S
C908 H924 0.931 . S
C909 C908 1.370 . S
C909 C913 1.408 . S
C910 C908 1.363 . S
C910 C911 1.370 . S
C910 C914 1.524 . S
C911 C903 1.503 . S
C911 C910 1.370 . S
C911 C912 1.403 . S
C912 C911 1.403 . S
C912 C913 1.404 . S
C912 C915 1.539 . S
C913 C909 1.408 . S
C913 C912 1.404 . S
C913 H925 0.930 . S
C914 C910 1.524 . S
C914 H926 0.956 . S
C914 H927 0.961 . S
C914 H928 0.961 . S
C915 C912 1.539 . S
C915 H929 0.958 . S
C915 H930 0.961 . S
C915 H931 0.960 . S
H916 C900 0.931 . S
H917 C905 0.929 . S
H918 C906 0.960 . S
H919 C906 0.962 . S
H920 C906 0.960 . S
H921 C907 0.961 . S
H922 C907 0.961 . S
H923 C907 0.961 . S
H924 C908 0.931 . S
H925 C913 0.930 . S
H926 C914 0.956 . S
H927 C914 0.961 . S
H928 C914 0.961 . S
H929 C915 0.958 . S
H930 C915 0.961 . S
H931 C915 0.960 . S
C932 C933 1.391 . S
C932 C934 1.394 . S
C932 H948 0.931 . S
C933 C932 1.391 . S
C933 C937 1.376 . S
C934 C932 1.394 . S
C934 C935 1.369 . S
C934 C938 1.531 . S
C935 C934 1.369 . S
C935 C936 1.410 . S
C935 C943 1.503 . S
C936 C935 1.410 . S
C936 C937 1.392 . S
C936 C939 1.511 . S
C937 C933 1.376 . S
C937 C936 1.392 . S
C937 H949 0.929 . S
C938 C934 1.531 . S
C938 H950 0.960 . S
C938 H951 0.962 . S
C938 H952 0.960 . S
C939 C936 1.511 . S
C939 H953 0.961 . S
C939 H954 0.961 . S
C939 H955 0.961 . S
C940 C941 1.370 . S
C940 C942 1.363 . S
C940 H956 0.931 . S
C941 C940 1.370 . S
C941 C945 1.408 . S
C942 C940 1.363 . S
C942 C943 1.370 . S
C942 C946 1.524 . S
C943 C935 1.503 . S
C943 C942 1.370 . S
C943 C944 1.403 . S
C944 C943 1.403 . S
C944 C945 1.404 . S
C944 C947 1.539 . S
C945 C941 1.408 . S
C945 C944 1.404 . S
C945 H957 0.930 . S
C946 C942 1.524 . S
C946 H958 0.956 . S
C946 H959 0.961 . S
C946 H960 0.961 . S
C947 C944 1.539 . S
C947 H961 0.958 . S
C947 H962 0.961 . S
C947 H963 0.960 . S
H948 C932 0.931 . S
H949 C937 0.929 . S
H950 C938 0.960 . S
H951 C938 0.962 . S
H952 C938 0.960 . S
H953 C939 0.961 . S
H954 C939 0.961 . S
H955 C939 0.961 . S
H956 C940 0.931 . S
H957 C945 0.930 . S
H958 C946 0.956 . S
H959 C946 0.961 . S
H960 C946 0.961 . S
H961 C947 0.958 . S
H962 C947 0.961 . S
H963 C947 0.960 . S
C964 C965 1.391 . S
C964 C966 1.394 . S
C964 H980 0.931 . S
C965 C964 1.391 . S
C965 C969 1.376 . S
C966 C964 1.394 . S
C966 C967 1.369 . S
C966 C970 1.531 . S
C967 C966 1.369 . S
C967 C968 1.410 . S
C967 C975 1.503 . S
C968 C967 1.410 . S
C968 C969 1.392 . S
C968 C971 1.511 . S
C969 C965 1.376 . S
C969 C968 1.392 . S
C969 H981 0.929 . S
C970 C966 1.531 . S
C970 H982 0.960 . S
C970 H983 0.962 . S
C970 H984 0.960 . S
C971 C968 1.511 . S
C971 H985 0.961 . S
C971 H986 0.961 . S
C971 H987 0.961 . S
C972 C973 1.370 . S
C972 C974 1.363 . S
C972 H988 0.931 . S
C973 C972 1.370 . S
C973 C977 1.408 . S
C974 C972 1.363 . S
C974 C975 1.370 . S
C974 C978 1.524 . S
C975 C967 1.503 . S
C975 C974 1.370 . S
C975 C976 1.403 . S
C976 C975 1.403 . S
C976 C977 1.404 . S
C976 C979 1.539 . S
C977 C973 1.408 . S
C977 C976 1.404 . S
C977 H989 0.930 . S
C978 C974 1.524 . S
C978 H990 0.956 . S
C978 H991 0.961 . S
C978 H992 0.961 . S
C979 C976 1.539 . S
C979 H993 0.958 . S
C979 H994 0.961 . S
C979 H995 0.960 . S
H980 C964 0.931 . S
H981 C969 0.929 . S
H982 C970 0.960 . S
H983 C970 0.962 . S
H984 C970 0.960 . S
H985 C971 0.961 . S
H986 C971 0.961 . S
H987 C971 0.961 . S
H988 C972 0.931 . S
H989 C977 0.930 . S
H990 C978 0.956 . S
H991 C978 0.961 . S
H992 C978 0.961 . S
H993 C979 0.958 . S
H994 C979 0.961 . S
H995 C979 0.960 . S
C996 C997 1.391 . S
C996 C998 1.394 1_455 S
C996 H1012 0.931 . S
C997 C996 1.391 . S
C997 C1001 1.377 1_455 S
C998 C996 1.394 1_655 S
C998 C999 1.369 . S
C998 C1002 1.531 . S
C999 C998 1.369 . S
C999 C1000 1.410 . S
C999 C1007 1.503 . S
C1000 C999 1.410 . S
C1000 C1001 1.392 . S
C1000 C1003 1.511 . S
C1001 C997 1.377 1_655 S
C1001 C1000 1.392 . S
C1001 H1013 0.929 . S
C1002 C998 1.531 . S
C1002 H1014 0.960 . S
C1002 H1015 0.962 . S
C1002 H1016 0.960 . S
C1003 C1000 1.511 . S
C1003 H1017 0.961 . S
C1003 H1018 0.961 . S
C1003 H1019 0.961 . S
C1004 C1005 1.370 . S
C1004 C1006 1.363 . S
C1004 H1020 0.931 . S
C1005 C1004 1.370 . S
C1005 C1009 1.408 . S
C1006 C1004 1.363 . S
C1006 C1007 1.370 . S
C1006 C1010 1.524 . S
C1007 C999 1.503 . S
C1007 C1006 1.370 . S
C1007 C1008 1.403 . S
C1008 C1007 1.403 . S
C1008 C1009 1.404 . S
C1008 C1011 1.539 . S
C1009 C1005 1.408 . S
C1009 C1008 1.404 . S
C1009 H1021 0.930 . S
C1010 C1006 1.524 . S
C1010 H1022 0.956 . S
C1010 H1023 0.961 . S
C1010 H1024 0.961 . S
C1011 C1008 1.539 . S
C1011 H1025 0.958 . S
C1011 H1026 0.961 . S
C1011 H1027 0.960 . S
H1012 C996 0.931 . S
H1013 C1001 0.929 . S
H1014 C1002 0.960 . S
H1015 C1002 0.962 . S
H1016 C1002 0.960 . S
H1017 C1003 0.961 . S
H1018 C1003 0.961 . S
H1019 C1003 0.961 . S
H1020 C1004 0.931 . S
H1021 C1009 0.930 . S
H1022 C1010 0.956 . S
H1023 C1010 0.961 . S
H1024 C1010 0.961 . S
H1025 C1011 0.958 . S
H1026 C1011 0.961 . S
H1027 C1011 0.960 . S
C1028 C1029 1.391 . S
C1028 C1030 1.394 . S
C1028 H1044 0.931 . S
C1029 C1028 1.391 . S
C1029 C1033 1.376 . S
C1030 C1028 1.394 . S
C1030 C1031 1.369 . S
C1030 C1034 1.531 . S
C1031 C1030 1.369 . S
C1031 C1032 1.410 . S
C1031 C1039 1.503 . S
C1032 C1031 1.410 . S
C1032 C1033 1.392 . S
C1032 C1035 1.511 . S
C1033 C1029 1.376 . S
C1033 C1032 1.392 . S
C1033 H1045 0.929 . S
C1034 C1030 1.531 . S
C1034 H1046 0.960 . S
C1034 H1047 0.962 . S
C1034 H1048 0.960 . S
C1035 C1032 1.511 . S
C1035 H1049 0.961 . S
C1035 H1050 0.961 . S
C1035 H1051 0.961 . S
C1036 C1037 1.370 . S
C1036 C1038 1.363 . S
C1036 H1052 0.931 . S
C1037 C1036 1.370 . S
C1037 C1041 1.408 1_655 S
C1038 C1036 1.363 . S
C1038 C1039 1.370 . S
C1038 C1042 1.524 . S
C1039 C1031 1.503 . S
C1039 C1038 1.370 . S
C1039 C1040 1.403 . S
C1040 C1039 1.403 . S
C1040 C1041 1.404 1_655 S
C1040 C1043 1.539 1_655 S
C1041 C1037 1.408 1_455 S
C1041 C1040 1.404 1_455 S
C1041 H1053 0.930 . S
C1042 C1038 1.524 . S
C1042 H1054 0.956 . S
C1042 H1055 0.961 . S
C1042 H1056 0.961 . S
C1043 C1040 1.539 1_455 S
C1043 H1057 0.958 . S
C1043 H1058 0.961 . S
C1043 H1059 0.960 . S
H1044 C1028 0.931 . S
H1045 C1033 0.929 . S
H1046 C1034 0.960 . S
H1047 C1034 0.962 . S
H1048 C1034 0.960 . S
H1049 C1035 0.961 . S
H1050 C1035 0.961 . S
H1051 C1035 0.961 . S
H1052 C1036 0.931 . S
H1053 C1041 0.930 . S
H1054 C1042 0.956 . S
H1055 C1042 0.961 . S
H1056 C1042 0.961 . S
H1057 C1043 0.958 . S
H1058 C1043 0.961 . S
H1059 C1043 0.960 . S
C1060 C1061 1.391 . S
C1060 C1062 1.394 . S
C1060 H1076 0.931 . S
C1061 C1060 1.391 . S
C1061 C1065 1.376 . S
C1062 C1060 1.394 . S
C1062 C1063 1.369 . S
C1062 C1066 1.531 . S
C1063 C1062 1.369 . S
C1063 C1064 1.410 . S
C1063 C1071 1.503 . S
C1064 C1063 1.410 . S
C1064 C1065 1.392 . S
C1064 C1067 1.511 . S
C1065 C1061 1.376 . S
C1065 C1064 1.392 . S
C1065 H1077 0.929 . S
C1066 C1062 1.531 . S
C1066 H1078 0.960 . S
C1066 H1079 0.962 . S
C1066 H1080 0.960 . S
C1067 C1064 1.511 . S
C1067 H1081 0.961 . S
C1067 H1082 0.961 . S
C1067 H1083 0.961 . S
C1068 C1069 1.370 . S
C1068 C1070 1.363 . S
C1068 H1084 0.931 . S
C1069 C1068 1.370 . S
C1069 C1073 1.408 . S
C1070 C1068 1.363 . S
C1070 C1071 1.370 . S
C1070 C1074 1.524 . S
C1071 C1063 1.503 . S
C1071 C1070 1.370 . S
C1071 C1072 1.403 . S
C1072 C1071 1.403 . S
C1072 C1073 1.404 . S
C1072 C1075 1.539 . S
C1073 C1069 1.408 . S
C1073 C1072 1.404 . S
C1073 H1085 0.930 . S
C1074 C1070 1.524 . S
C1074 H1086 0.956 . S
C1074 H1087 0.961 . S
C1074 H1088 0.961 . S
C1075 C1072 1.539 . S
C1075 H1089 0.958 . S
C1075 H1090 0.961 . S
C1075 H1091 0.960 . S
H1076 C1060 0.931 . S
H1077 C1065 0.929 . S
H1078 C1066 0.960 . S
H1079 C1066 0.962 . S
H1080 C1066 0.960 . S
H1081 C1067 0.961 . S
H1082 C1067 0.961 . S
H1083 C1067 0.961 . S
H1084 C1068 0.931 . S
H1085 C1073 0.930 . S
H1086 C1074 0.956 . S
H1087 C1074 0.961 . S
H1088 C1074 0.961 . S
H1089 C1075 0.958 . S
H1090 C1075 0.961 . S
H1091 C1075 0.960 . S
C1092 C1093 1.391 . S
C1092 C1094 1.394 . S
C1092 H1108 0.931 . S
C1093 C1092 1.391 . S
C1093 C1097 1.376 . S
C1094 C1092 1.394 . S
C1094 C1095 1.369 . S
C1094 C1098 1.531 . S
C1095 C1094 1.369 . S
C1095 C1096 1.410 . S
C1095 C1103 1.503 . S
C1096 C1095 1.410 . S
C1096 C1097 1.392 . S
C1096 C1099 1.511 . S
C1097 C1093 1.376 . S
C1097 C1096 1.392 . S
C1097 H1109 0.929 . S
C1098 C1094 1.531 . S
C1098 H1110 0.960 . S
C1098 H1111 0.962 . S
C1098 H1112 0.960 . S
C1099 C1096 1.511 . S
C1099 H1113 0.961 . S
C1099 H1114 0.961 . S
C1099 H1115 0.961 . S
C1100 C1101 1.370 . S
C1100 C1102 1.363 . S
C1100 H1116 0.931 . S
C1101 C1100 1.370 . S
C1101 C1105 1.408 . S
C1102 C1100 1.363 . S
C1102 C1103 1.370 . S
C1102 C1106 1.524 . S
C1103 C1095 1.503 . S
C1103 C1102 1.370 . S
C1103 C1104 1.403 . S
C1104 C1103 1.403 . S
C1104 C1105 1.404 . S
C1104 C1107 1.539 . S
C1105 C1101 1.408 . S
C1105 C1104 1.404 . S
C1105 H1117 0.930 . S
C1106 C1102 1.524 . S
C1106 H1118 0.956 . S
C1106 H1119 0.961 . S
C1106 H1120 0.961 . S
C1107 C1104 1.539 . S
C1107 H1121 0.958 . S
C1107 H1122 0.961 . S
C1107 H1123 0.960 . S
H1108 C1092 0.931 . S
H1109 C1097 0.929 . S
H1110 C1098 0.960 . S
H1111 C1098 0.962 . S
H1112 C1098 0.960 . S
H1113 C1099 0.961 . S
H1114 C1099 0.961 . S
H1115 C1099 0.961 . S
H1116 C1100 0.931 . S
H1117 C1105 0.930 . S
H1118 C1106 0.956 . S
H1119 C1106 0.961 . S
H1120 C1106 0.961 . S
H1121 C1107 0.958 . S
H1122 C1107 0.961 . S
H1123 C1107 0.960 . S
C1124 C1125 1.391 . S
C1124 C1126 1.394 . S
C1124 H1140 0.931 . S
C1125 C1124 1.391 . S
C1125 C1129 1.376 . S
C1126 C1124 1.394 . S
C1126 C1127 1.369 . S
C1126 C1130 1.531 . S
C1127 C1126 1.369 . S
C1127 C1128 1.410 . S
C1127 C1135 1.503 . S
C1128 C1127 1.410 . S
C1128 C1129 1.392 . S
C1128 C1131 1.511 . S
C1129 C1125 1.376 . S
C1129 C1128 1.392 . S
C1129 H1141 0.929 . S
C1130 C1126 1.531 . S
C1130 H1142 0.960 . S
C1130 H1143 0.962 . S
C1130 H1144 0.960 . S
C1131 C1128 1.511 . S
C1131 H1145 0.961 . S
C1131 H1146 0.961 . S
C1131 H1147 0.961 . S
C1132 C1133 1.370 . S
C1132 C1134 1.363 . S
C1132 H1148 0.931 . S
C1133 C1132 1.370 . S
C1133 C1137 1.408 . S
C1134 C1132 1.363 . S
C1134 C1135 1.370 . S
C1134 C1138 1.524 . S
C1135 C1127 1.503 . S
C1135 C1134 1.370 . S
C1135 C1136 1.403 . S
C1136 C1135 1.403 . S
C1136 C1137 1.404 . S
C1136 C1139 1.539 . S
C1137 C1133 1.408 . S
C1137 C1136 1.404 . S
C1137 H1149 0.930 . S
C1138 C1134 1.524 . S
C1138 H1150 0.956 . S
C1138 H1151 0.961 . S
C1138 H1152 0.961 . S
C1139 C1136 1.539 . S
C1139 H1153 0.958 . S
C1139 H1154 0.961 . S
C1139 H1155 0.960 . S
H1140 C1124 0.931 . S
H1141 C1129 0.929 . S
H1142 C1130 0.960 . S
H1143 C1130 0.962 . S
H1144 C1130 0.960 . S
H1145 C1131 0.961 . S
H1146 C1131 0.961 . S
H1147 C1131 0.961 . S
H1148 C1132 0.931 . S
H1149 C1137 0.930 . S
H1150 C1138 0.956 . S
H1151 C1138 0.961 . S
H1152 C1138 0.961 . S
H1153 C1139 0.958 . S
H1154 C1139 0.961 . S
H1155 C1139 0.960 . S
C1156 C1157 1.391 . S
C1156 C1158 1.394 . S
C1156 H1172 0.931 . S
C1157 C1156 1.391 . S
C1157 C1161 1.376 . S
C1158 C1156 1.394 . S
C1158 C1159 1.369 . S
C1158 C1162 1.531 . S
C1159 C1158 1.369 . S
C1159 C1160 1.410 . S
C1159 C1167 1.503 . S
C1160 C1159 1.410 . S
C1160 C1161 1.392 . S
C1160 C1163 1.511 . S
C1161 C1157 1.376 . S
C1161 C1160 1.392 . S
C1161 H1173 0.929 . S
C1162 C1158 1.531 . S
C1162 H1174 0.960 . S
C1162 H1175 0.962 . S
C1162 H1176 0.960 . S
C1163 C1160 1.511 . S
C1163 H1177 0.961 . S
C1163 H1178 0.961 . S
C1163 H1179 0.961 . S
C1164 C1165 1.370 . S
C1164 C1166 1.363 . S
C1164 H1180 0.931 . S
C1165 C1164 1.370 . S
C1165 C1169 1.408 . S
C1166 C1164 1.363 . S
C1166 C1167 1.370 . S
C1166 C1170 1.524 . S
C1167 C1159 1.503 . S
C1167 C1166 1.370 . S
C1167 C1168 1.403 . S
C1168 C1167 1.403 . S
C1168 C1169 1.404 . S
C1168 C1171 1.539 . S
C1169 C1165 1.408 . S
C1169 C1168 1.404 . S
C1169 H1181 0.930 . S
C1170 C1166 1.524 . S
C1170 H1182 0.956 . S
C1170 H1183 0.961 . S
C1170 H1184 0.961 . S
C1171 C1168 1.539 . S
C1171 H1185 0.958 . S
C1171 H1186 0.961 . S
C1171 H1187 0.960 . S
H1172 C1156 0.931 . S
H1173 C1161 0.929 . S
H1174 C1162 0.960 . S
H1175 C1162 0.962 . S
H1176 C1162 0.960 . S
H1177 C1163 0.961 . S
H1178 C1163 0.961 . S
H1179 C1163 0.961 . S
H1180 C1164 0.931 . S
H1181 C1169 0.930 . S
H1182 C1170 0.956 . S
H1183 C1170 0.961 . S
H1184 C1170 0.961 . S
H1185 C1171 0.958 . S
H1186 C1171 0.961 . S
H1187 C1171 0.960 . S
C1188 C1189 1.391 . S
C1188 C1190 1.394 . S
C1188 H1204 0.931 . S
C1189 C1188 1.391 . S
C1189 C1193 1.376 . S
C1190 C1188 1.394 . S
C1190 C1191 1.369 . S
C1190 C1194 1.531 . S
C1191 C1190 1.369 . S
C1191 C1192 1.410 . S
C1191 C1199 1.503 . S
C1192 C1191 1.410 . S
C1192 C1193 1.392 . S
C1192 C1195 1.511 . S
C1193 C1189 1.376 . S
C1193 C1192 1.392 . S
C1193 H1205 0.929 . S
C1194 C1190 1.531 . S
C1194 H1206 0.960 . S
C1194 H1207 0.962 . S
C1194 H1208 0.960 . S
C1195 C1192 1.511 . S
C1195 H1209 0.961 . S
C1195 H1210 0.961 . S
C1195 H1211 0.961 . S
C1196 C1197 1.370 . S
C1196 C1198 1.363 . S
C1196 H1212 0.931 . S
C1197 C1196 1.370 . S
C1197 C1201 1.408 . S
C1198 C1196 1.363 . S
C1198 C1199 1.370 . S
C1198 C1202 1.524 . S
C1199 C1191 1.503 . S
C1199 C1198 1.370 . S
C1199 C1200 1.403 . S
C1200 C1199 1.403 . S
C1200 C1201 1.404 . S
C1200 C1203 1.539 . S
C1201 C1197 1.408 . S
C1201 C1200 1.404 . S
C1201 H1213 0.930 . S
C1202 C1198 1.524 . S
C1202 H1214 0.956 . S
C1202 H1215 0.961 . S
C1202 H1216 0.961 . S
C1203 C1200 1.539 . S
C1203 H1217 0.958 . S
C1203 H1218 0.961 . S
C1203 H1219 0.960 . S
H1204 C1188 0.931 . S
H1205 C1193 0.929 . S
H1206 C1194 0.960 . S
H1207 C1194 0.962 . S
H1208 C1194 0.960 . S
H1209 C1195 0.961 . S
H1210 C1195 0.961 . S
H1211 C1195 0.961 . S
H1212 C1196 0.931 . S
H1213 C1201 0.930 . S
H1214 C1202 0.956 . S
H1215 C1202 0.961 . S
H1216 C1202 0.961 . S
H1217 C1203 0.958 . S
H1218 C1203 0.961 . S
H1219 C1203 0.960 . S
C1220 C1221 1.391 . S
C1220 C1222 1.394 . S
C1220 H1236 0.931 . S
C1221 C1220 1.391 . S
C1221 C1225 1.376 . S
C1222 C1220 1.394 . S
C1222 C1223 1.369 . S
C1222 C1226 1.531 . S
C1223 C1222 1.369 . S
C1223 C1224 1.410 . S
C1223 C1231 1.503 . S
C1224 C1223 1.410 . S
C1224 C1225 1.392 . S
C1224 C1227 1.511 . S
C1225 C1221 1.376 . S
C1225 C1224 1.392 . S
C1225 H1237 0.929 . S
C1226 C1222 1.531 . S
C1226 H1238 0.960 . S
C1226 H1239 0.962 . S
C1226 H1240 0.960 . S
C1227 C1224 1.511 . S
C1227 H1241 0.961 . S
C1227 H1242 0.961 . S
C1227 H1243 0.961 . S
C1228 C1229 1.370 . S
C1228 C1230 1.363 . S
C1228 H1244 0.931 . S
C1229 C1228 1.370 . S
C1229 C1233 1.408 . S
C1230 C1228 1.363 . S
C1230 C1231 1.370 . S
C1230 C1234 1.524 . S
C1231 C1223 1.503 . S
C1231 C1230 1.370 . S
C1231 C1232 1.403 . S
C1232 C1231 1.403 . S
C1232 C1233 1.404 . S
C1232 C1235 1.539 . S
C1233 C1229 1.408 . S
C1233 C1232 1.404 . S
C1233 H1245 0.930 . S
C1234 C1230 1.524 . S
C1234 H1246 0.956 . S
C1234 H1247 0.961 . S
C1234 H1248 0.961 . S
C1235 C1232 1.539 . S
C1235 H1249 0.958 . S
C1235 H1250 0.961 . S
C1235 H1251 0.960 . S
H1236 C1220 0.931 . S
H1237 C1225 0.929 . S
H1238 C1226 0.960 . S
H1239 C1226 0.962 . S
H1240 C1226 0.960 . S
H1241 C1227 0.961 . S
H1242 C1227 0.961 . S
H1243 C1227 0.961 . S
H1244 C1228 0.931 . S
H1245 C1233 0.930 . S
H1246 C1234 0.956 . S
H1247 C1234 0.961 . S
H1248 C1234 0.961 . S
H1249 C1235 0.958 . S
H1250 C1235 0.961 . S
H1251 C1235 0.960 . S
C1252 C1253 1.391 . S
C1252 C1254 1.394 . S
C1252 H1268 0.931 . S
C1253 C1252 1.391 . S
C1253 C1257 1.376 . S
C1254 C1252 1.394 . S
C1254 C1255 1.369 . S
C1254 C1258 1.531 . S
C1255 C1254 1.369 . S
C1255 C1256 1.410 . S
C1255 C1263 1.503 . S
C1256 C1255 1.410 . S
C1256 C1257 1.392 . S
C1256 C1259 1.511 . S
C1257 C1253 1.376 . S
C1257 C1256 1.392 . S
C1257 H1269 0.929 . S
C1258 C1254 1.531 . S
C1258 H1270 0.960 . S
C1258 H1271 0.962 . S
C1258 H1272 0.960 . S
C1259 C1256 1.511 . S
C1259 H1273 0.961 . S
C1259 H1274 0.961 . S
C1259 H1275 0.961 . S
C1260 C1261 1.370 . S
C1260 C1262 1.363 . S
C1260 H1276 0.931 . S
C1261 C1260 1.370 . S
C1261 C1265 1.408 . S
C1262 C1260 1.363 . S
C1262 C1263 1.370 . S
C1262 C1266 1.524 . S
C1263 C1255 1.503 . S
C1263 C1262 1.370 . S
C1263 C1264 1.403 . S
C1264 C1263 1.403 . S
C1264 C1265 1.404 . S
C1264 C1267 1.539 . S
C1265 C1261 1.408 . S
C1265 C1264 1.404 . S
C1265 H1277 0.930 . S
C1266 C1262 1.524 . S
C1266 H1278 0.956 . S
C1266 H1279 0.961 . S
C1266 H1280 0.961 . S
C1267 C1264 1.539 . S
C1267 H1281 0.958 . S
C1267 H1282 0.961 . S
C1267 H1283 0.960 . S
H1268 C1252 0.931 . S
H1269 C1257 0.929 . S
H1270 C1258 0.960 . S
H1271 C1258 0.962 . S
H1272 C1258 0.960 . S
H1273 C1259 0.961 . S
H1274 C1259 0.961 . S
H1275 C1259 0.961 . S
H1276 C1260 0.931 . S
H1277 C1265 0.930 . S
H1278 C1266 0.956 . S
H1279 C1266 0.961 . S
H1280 C1266 0.961 . S
H1281 C1267 0.958 . S
H1282 C1267 0.961 . S
H1283 C1267 0.960 . S
C1284 C1285 1.391 . S
C1284 C1286 1.394 . S
C1284 H1300 0.931 . S
C1285 C1284 1.391 . S
C1285 C1289 1.376 . S
C1286 C1284 1.394 . S
C1286 C1287 1.369 . S
C1286 C1290 1.531 . S
C1287 C1286 1.369 . S
C1287 C1288 1.410 . S
C1287 C1295 1.503 . S
C1288 C1287 1.410 . S
C1288 C1289 1.392 . S
C1288 C1291 1.511 . S
C1289 C1285 1.376 . S
C1289 C1288 1.392 . S
C1289 H1301 0.929 . S
C1290 C1286 1.531 . S
C1290 H1302 0.960 . S
C1290 H1303 0.962 . S
C1290 H1304 0.960 . S
C1291 C1288 1.511 . S
C1291 H1305 0.961 . S
C1291 H1306 0.961 . S
C1291 H1307 0.961 . S
C1292 C1293 1.370 . S
C1292 C1294 1.363 . S
C1292 H1308 0.931 . S
C1293 C1292 1.370 . S
C1293 C1297 1.408 . S
C1294 C1292 1.363 . S
C1294 C1295 1.370 . S
C1294 C1298 1.524 . S
C1295 C1287 1.503 . S
C1295 C1294 1.370 . S
C1295 C1296 1.403 . S
C1296 C1295 1.403 . S
C1296 C1297 1.404 . S
C1296 C1299 1.539 . S
C1297 C1293 1.408 . S
C1297 C1296 1.404 . S
C1297 H1309 0.930 . S
C1298 C1294 1.524 . S
C1298 H1310 0.956 . S
C1298 H1311 0.961 . S
C1298 H1312 0.961 . S
C1299 C1296 1.539 . S
C1299 H1313 0.958 . S
C1299 H1314 0.961 . S
C1299 H1315 0.960 . S
H1300 C1284 0.931 . S
H1301 C1289 0.929 . S
H1302 C1290 0.960 . S
H1303 C1290 0.962 . S
H1304 C1290 0.960 . S
H1305 C1291 0.961 . S
H1306 C1291 0.961 . S
H1307 C1291 0.961 . S
H1308 C1292 0.931 . S
H1309 C1297 0.930 . S
H1310 C1298 0.956 . S
H1311 C1298 0.961 . S
H1312 C1298 0.961 . S
H1313 C1299 0.958 . S
H1314 C1299 0.961 . S
H1315 C1299 0.960 . S
C301 C228 1.786 . S
C293 C17 1.695 . S
C325 C30 1.679 . S
C333 C231 1.674 . S
C357 C61 1.636 . S
C365 C262 1.649 . S
C397 C197 1.742 . S
C389 C72 1.767 . S
C429 C232 1.765 . S
C421 C19 1.766 . S
C461 C263 1.784 . S
C453 C33 1.722 . S
C493 C188 1.713 . S
C485 C59 1.688 . S
C525 C219 1.718 . S
C517 C75 1.639 . S
C549 C12 1.377 . S
C557 C249 1.285 . S
C581 C101 1.319 . S
C589 C218 1.294 . S
C613 C51 1.209 . S
C621 C178 1.243 . S
C653 C271 1.261 . S
C645 C124 1.239 . S
C685 C199 1.320 . S
C677 C9 1.362 . S
C709 C103 1.266 . S
C717 C198 1.294 . S
C741 C54 1.313 . S
C749 C291 1.295 . S
C781 C230 1.299 . S
C773 C122 1.395 . S
C805 C145 1.756 . S
C813 C290 1.724 . S
C837 C96 1.632 . S
C845 C169 1.698 . S
C869 C166 1.650 1_655 S
C877 C200 1.686 . S
C901 C114 1.713 . S
C909 C259 1.720 . S
C941 C170 1.792 . S
C933 C143 1.770 . S
C965 C93 1.735 . S
C973 C201 1.751 . S
C997 C164 1.595 . S
C1005 C250 1.695 . S
C1037 C281 1.739 . S
C1029 C117 1.700 . S
C1061 C135 1.339 . S
C1069 C187 1.257 . S
C1093 C40 1.329 . S
C1101 C280 1.223 . S
C1125 C156 1.298 . S
C1133 C240 1.281 . S
C1165 C209 1.292 . S
C1157 C82 1.271 . S
C1197 C261 1.346 . S
C1189 C138 1.353 . S
C1229 C260 1.314 . S
C1221 C38 1.320 . S
C1261 C229 1.282 . S
C1253 C159 1.215 . S
C1293 C168 1.302 . S
C1285 C80 1.311 . S
