# Generated by pormake.
# Topology pyr, (3,6)-cn, num edge types: 1
# Building blocks:
#     Node 0, Type 0, BuildingBlock: KAKCAD_clean_linker_0, # of connection points: 3
#     Node 1, Type 0, BuildingBlock: KAKCAD_clean_linker_0, # of connection points: 3
#     Node 2, Type 0, BuildingBlock: KAKCAD_clean_linker_0, # of connection points: 3
#     Node 3, Type 0, BuildingBlock: KAKCAD_clean_linker_0, # of connection points: 3
#     Node 4, Type 0, BuildingBlock: KAKCAD_clean_linker_0, # of connection points: 3
#     Node 5, Type 0, BuildingBlock: KAKCAD_clean_linker_0, # of connection points: 3
#     Node 6, Type 0, BuildingBlock: KAKCAD_clean_linker_0, # of connection points: 3
#     Node 7, Type 0, BuildingBlock: KAKCAD_clean_linker_0, # of connection points: 3
#     Node 8, Type 1, BuildingBlock: FUNLAD_clean_sbu_0, # of connection points: 6
#     Node 9, Type 1, BuildingBlock: FUNLAD_clean_sbu_0, # of connection points: 6
#     Node 10, Type 1, BuildingBlock: FUNLAD_clean_sbu_0, # of connection points: 6
#     Node 11, Type 1, BuildingBlock: FUNLAD_clean_sbu_0, # of connection points: 6
#     Edge 12, Type (0, 1), BuildingBlock: TEMPAE_clean_linker_10, # of connection points: 2
#     Edge 13, Type (0, 1), BuildingBlock: TEMPAE_clean_linker_10, # of connection points: 2
#     Edge 14, Type (0, 1), BuildingBlock: TEMPAE_clean_linker_10, # of connection points: 2
#     Edge 15, Type (0, 1), BuildingBlock: TEMPAE_clean_linker_10, # of connection points: 2
#     Edge 16, Type (0, 1), BuildingBlock: TEMPAE_clean_linker_10, # of connection points: 2
#     Edge 17, Type (0, 1), BuildingBlock: TEMPAE_clean_linker_10, # of connection points: 2
#     Edge 18, Type (0, 1), BuildingBlock: TEMPAE_clean_linker_10, # of connection points: 2
#     Edge 19, Type (0, 1), BuildingBlock: TEMPAE_clean_linker_10, # of connection points: 2
#     Edge 20, Type (0, 1), BuildingBlock: TEMPAE_clean_linker_10, # of connection points: 2
#     Edge 21, Type (0, 1), BuildingBlock: TEMPAE_clean_linker_10, # of connection points: 2
#     Edge 22, Type (0, 1), BuildingBlock: TEMPAE_clean_linker_10, # of connection points: 2
#     Edge 23, Type (0, 1), BuildingBlock: TEMPAE_clean_linker_10, # of connection points: 2
#     Edge 24, Type (0, 1), BuildingBlock: TEMPAE_clean_linker_10, # of connection points: 2
#     Edge 25, Type (0, 1), BuildingBlock: TEMPAE_clean_linker_10, # of connection points: 2
#     Edge 26, Type (0, 1), BuildingBlock: TEMPAE_clean_linker_10, # of connection points: 2
#     Edge 27, Type (0, 1), BuildingBlock: TEMPAE_clean_linker_10, # of connection points: 2
#     Edge 28, Type (0, 1), BuildingBlock: TEMPAE_clean_linker_10, # of connection points: 2
#     Edge 29, Type (0, 1), BuildingBlock: TEMPAE_clean_linker_10, # of connection points: 2
#     Edge 30, Type (0, 1), BuildingBlock: TEMPAE_clean_linker_10, # of connection points: 2
#     Edge 31, Type (0, 1), BuildingBlock: TEMPAE_clean_linker_10, # of connection points: 2
#     Edge 32, Type (0, 1), BuildingBlock: TEMPAE_clean_linker_10, # of connection points: 2
#     Edge 33, Type (0, 1), BuildingBlock: TEMPAE_clean_linker_10, # of connection points: 2
#     Edge 34, Type (0, 1), BuildingBlock: TEMPAE_clean_linker_10, # of connection points: 2
#     Edge 35, Type (0, 1), BuildingBlock: TEMPAE_clean_linker_10, # of connection points: 2
# Relax obj value: 0.055
# Max RMSD: 0.061
# Mean RMSD: 0.029
data_MOF--net-pry--node1-FUNLAD_clean_sbu_0--node2-KAKCAD_clean_linker_0--edge1-TEMPAE_clean_linker_10
_symmetry_space_group_name_H-M    P1
_symmetry_Int_Tables_number       1
_symmetry_cell_setting            triclinic
loop_
_symmetry_equiv_pos_as_xyz
'x, y, z'
_cell_length_a     44.781836
_cell_length_b     47.267064
_cell_length_c     47.554751
_cell_angle_alpha  90.478007
_cell_angle_beta   90.041708
_cell_angle_gamma 86.401868
loop_
_atom_site_label
_atom_site_type_symbol
_atom_site_fract_x
_atom_site_fract_y
_atom_site_fract_z
_atom_type_partial_charge
C0 C 0.09258 0.14107 0.26378 0.0
C1 C 0.11155 0.1244 0.28174 0.0
C2 C 0.10359 0.15343 0.23927 0.0
C3 C 0.13413 0.14999 0.23185 0.0
C4 C 0.15312 0.13371 0.25009 0.0
C5 C 0.14205 0.12096 0.27424 0.0
C6 C 0.1463 0.16297 0.2054 0.0
C7 C 0.13331 0.18859 0.19404 0.0
C8 C 0.1456 0.20107 0.17006 0.0
C9 C 0.17117 0.18762 0.15735 0.0
C10 C 0.18428 0.16183 0.16757 0.0
C11 C 0.17147 0.14972 0.19141 0.0
C12 C 0.2114 0.14765 0.15334 0.0
C13 C 0.21451 0.14797 0.12384 0.0
C14 C 0.23466 0.13395 0.16907 0.0
C15 C 0.26019 0.12118 0.1558 0.0
C16 C 0.26337 0.12165 0.12631 0.0
C17 C 0.13223 0.2283 0.15796 0.0
C18 C 0.10198 0.23124 0.1499 0.0
C19 C 0.15026 0.25098 0.15264 0.0
C20 C 0.13855 0.27574 0.1394 0.0
C21 C 0.10847 0.27855 0.13033 0.0
C22 C 0.09035 0.25582 0.13608 0.0
C23 C 0.24003 0.13523 0.11058 0.0
H24 H 0.06908 0.1449 0.26865 0.0
H25 H 0.08788 0.16543 0.226 0.0
H26 H 0.17688 0.13082 0.24599 0.0
H27 H 0.15766 0.10807 0.28682 0.0
H28 H 0.11423 0.19946 0.20424 0.0
H29 H 0.18087 0.12944 0.19866 0.0
H30 H 0.18087 0.19739 0.13926 0.0
H31 H 0.19706 0.15792 0.11084 0.0
H32 H 0.23342 0.13342 0.1918 0.0
H33 H 0.27736 0.1107 0.16874 0.0
H34 H 0.08752 0.21407 0.15338 0.0
H35 H 0.17361 0.24955 0.15877 0.0
H36 H 0.2416 0.13641 0.08791 0.0
H37 H 0.06726 0.25651 0.12927 0.0
H38 H 0.15331 0.29272 0.1364 0.0
C39 C 0.37032 0.90598 0.77241 0.0
C40 C 0.40081 0.90263 0.77987 0.0
C41 C 0.35933 0.89311 0.74811 0.0
C42 C 0.37845 0.87686 0.72975 0.0
C43 C 0.40899 0.87357 0.7371 0.0
C44 C 0.4199 0.88601 0.76177 0.0
C45 C 0.36641 0.86368 0.70323 0.0
C46 C 0.34133 0.87675 0.68924 0.0
C47 C 0.32865 0.86435 0.6653 0.0
C48 C 0.34186 0.8385 0.65493 0.0
C49 C 0.36738 0.82528 0.66771 0.0
C50 C 0.37947 0.83798 0.69183 0.0
C51 C 0.38108 0.79809 0.65561 0.0
C52 C 0.3634 0.77511 0.65019 0.0
C53 C 0.41145 0.79538 0.64797 0.0
C54 C 0.42361 0.77063 0.63454 0.0
C55 C 0.40591 0.74752 0.6288 0.0
C56 C 0.30157 0.87834 0.65117 0.0
C57 C 0.27826 0.892 0.66705 0.0
C58 C 0.29863 0.878 0.62166 0.0
C59 C 0.2732 0.89078 0.6085 0.0
C60 C 0.24984 0.90437 0.62438 0.0
C61 C 0.25284 0.9048 0.65388 0.0
C62 C 0.37565 0.75015 0.63734 0.0
H63 H 0.35466 0.91886 0.78515 0.0
H64 H 0.33557 0.89586 0.74399 0.0
H65 H 0.42476 0.86161 0.72368 0.0
H66 H 0.44341 0.88227 0.76665 0.0
H67 H 0.33188 0.89711 0.69659 0.0
H68 H 0.3985 0.82722 0.70209 0.0
H69 H 0.33229 0.82852 0.63672 0.0
H70 H 0.33997 0.7764 0.65603 0.0
H71 H 0.42561 0.81282 0.65157 0.0
H72 H 0.4468 0.77004 0.62805 0.0
H73 H 0.27942 0.89252 0.68979 0.0
H74 H 0.31614 0.86804 0.60859 0.0
H75 H 0.36121 0.73287 0.63427 0.0
H76 H 0.23562 0.91529 0.66691 0.0
H77 H 0.27171 0.88965 0.5858 0.0
C78 C 0.71338 0.47726 0.9732 0.0
C79 C 0.735 0.45497 0.97842 0.0
C80 C 0.68377 0.47159 0.96726 0.0
C81 C 0.67506 0.44359 0.96691 0.0
C82 C 0.69636 0.42138 0.97283 0.0
C83 C 0.72602 0.42698 0.97835 0.0
C84 C 0.64437 0.43717 0.95863 0.0
C85 C 0.63243 0.44744 0.9331 0.0
C86 C 0.60518 0.43827 0.92295 0.0
C87 C 0.58935 0.41967 0.93931 0.0
C88 C 0.60119 0.40884 0.96465 0.0
C89 C 0.62858 0.41804 0.97437 0.0
C90 C 0.58733 0.38453 0.97789 0.0
C91 C 0.55604 0.3832 0.97843 0.0
C92 C 0.60541 0.36052 0.98579 0.0
C93 C 0.59262 0.33508 0.99167 0.0
C94 C 0.56154 0.3331 0.98961 0.0
C95 C 0.59509 0.44501 0.89387 0.0
C96 C 0.59787 0.47206 0.88244 0.0
C97 C 0.5837 0.4237 0.87683 0.0
C98 C 0.57512 0.4293 0.84919 0.0
C99 C 0.57804 0.45621 0.83773 0.0
C100 C 0.58951 0.47759 0.85456 0.0
C101 C 0.54326 0.35764 0.98406 0.0
H102 H 0.71934 0.49911 0.97359 0.0
H103 H 0.66766 0.48906 0.96285 0.0
H104 H 0.69029 0.39955 0.97221 0.0
H105 H 0.74208 0.40923 0.9817 0.0
H106 H 0.64547 0.46088 0.92019 0.0
H107 H 0.63815 0.40958 0.99373 0.0
H108 H 0.56862 0.41214 0.93129 0.0
H109 H 0.5415 0.4015 0.97294 0.0
H110 H 0.62958 0.36064 0.98527 0.0
H111 H 0.60728 0.31643 0.99567 0.0
H112 H 0.60646 0.48893 0.89504 0.0
H113 H 0.58209 0.40238 0.88459 0.0
H114 H 0.51919 0.35673 0.98276 0.0
H115 H 0.59186 0.49857 0.8462 0.0
H116 H 0.56692 0.41228 0.8365 0.0
C117 C 0.90796 0.57047 0.33628 0.0
C118 C 0.93836 0.56588 0.3295 0.0
C119 C 0.89894 0.57282 0.36427 0.0
C120 C 0.92021 0.57092 0.38601 0.0
C121 C 0.95056 0.56525 0.37927 0.0
C122 C 0.95956 0.5625 0.35117 0.0
C123 C 0.91083 0.57859 0.41504 0.0
C124 C 0.88473 0.5684 0.42631 0.0
C125 C 0.87167 0.58056 0.45082 0.0
C126 C 0.88614 0.60222 0.46482 0.0
C127 C 0.91274 0.61219 0.45407 0.0
C128 C 0.92506 0.59995 0.42935 0.0
C129 C 0.92522 0.63828 0.4655 0.0
C130 C 0.90606 0.66213 0.47202 0.0
C131 C 0.95633 0.64092 0.46598 0.0
C132 C 0.96791 0.66731 0.47062 0.0
C133 C 0.94861 0.69147 0.47518 0.0
C134 C 0.84133 0.57301 0.45968 0.0
C135 C 0.81956 0.56772 0.43925 0.0
C136 C 0.83332 0.57232 0.48828 0.0
C137 C 0.80416 0.56675 0.49615 0.0
C138 C 0.78268 0.56137 0.4756 0.0
C139 C 0.7907 0.56173 0.44713 0.0
C140 C 0.91767 0.68845 0.4769 0.0
H141 H 0.89122 0.57286 0.31986 0.0
H142 H 0.87545 0.57759 0.36883 0.0
H143 H 0.96735 0.56376 0.3957 0.0
H144 H 0.98314 0.55893 0.34635 0.0
H145 H 0.8739 0.55178 0.41515 0.0
H146 H 0.94428 0.60887 0.41976 0.0
H147 H 0.87589 0.61242 0.48321 0.0
H148 H 0.882 0.66098 0.47143 0.0
H149 H 0.97167 0.62283 0.46142 0.0
H150 H 0.9919 0.66903 0.46961 0.0
H151 H 0.82448 0.56892 0.41702 0.0
H152 H 0.84953 0.57608 0.50457 0.0
H153 H 0.90226 0.70678 0.48015 0.0
H154 H 0.77436 0.55811 0.43088 0.0
H155 H 0.79844 0.56646 0.51828 0.0
C156 C 0.90484 0.86966 0.73974 0.0
C157 C 0.90127 0.89916 0.73548 0.0
C158 C 0.89388 0.85721 0.76421 0.0
C159 C 0.87928 0.87386 0.78551 0.0
C160 C 0.87634 0.90347 0.78134 0.0
C161 C 0.88688 0.91582 0.75674 0.0
C162 C 0.86688 0.86066 0.81169 0.0
C163 C 0.88058 0.83558 0.82353 0.0
C164 C 0.8693 0.82375 0.84832 0.0
C165 C 0.84371 0.83712 0.86112 0.0
C166 C 0.82928 0.86179 0.84976 0.0
C167 C 0.84108 0.87329 0.82514 0.0
C168 C 0.80183 0.87551 0.86365 0.0
C169 C 0.77871 0.8591 0.87313 0.0
C170 C 0.79858 0.90509 0.8678 0.0
C171 C 0.77316 0.91781 0.8813 0.0
C172 C 0.74997 0.9014 0.89067 0.0
C173 C 0.88411 0.79755 0.86131 0.0
C174 C 0.89029 0.77263 0.84538 0.0
C175 C 0.89095 0.79691 0.89024 0.0
C176 C 0.90349 0.77212 0.90288 0.0
C177 C 0.90901 0.74698 0.88713 0.0
C178 C 0.90224 0.74761 0.85817 0.0
C179 C 0.75309 0.87186 0.88625 0.0
H180 H 0.91556 0.85604 0.7238 0.0
H181 H 0.8964 0.83438 0.76606 0.0
H182 H 0.86612 0.91741 0.79725 0.0
H183 H 0.88414 0.93862 0.75456 0.0
H184 H 0.90061 0.82564 0.81407 0.0
H185 H 0.82946 0.8918 0.81605 0.0
H186 H 0.83496 0.82822 0.88012 0.0
H187 H 0.78026 0.83631 0.87015 0.0
H188 H 0.81596 0.91841 0.86097 0.0
H189 H 0.77149 0.94061 0.88413 0.0
H190 H 0.88515 0.77228 0.82312 0.0
H191 H 0.88658 0.81569 0.90316 0.0
H192 H 0.73586 0.85849 0.89332 0.0
H193 H 0.90634 0.72872 0.84534 0.0
H194 H 0.90825 0.77246 0.92521 0.0
C195 C 0.62529 0.10542 0.25913 0.0
C196 C 0.61129 0.1222 0.23803 0.0
C197 C 0.63576 0.1177 0.28397 0.0
C198 C 0.63309 0.14732 0.28849 0.0
C199 C 0.61881 0.16409 0.26739 0.0
C200 C 0.60794 0.15171 0.24266 0.0
C201 C 0.64557 0.1604 0.31483 0.0
C202 C 0.6715 0.14776 0.32781 0.0
C203 C 0.68338 0.15912 0.35261 0.0
C204 C 0.66898 0.18362 0.36462 0.0
C205 C 0.64327 0.19697 0.35227 0.0
C206 C 0.63185 0.18533 0.32727 0.0
C207 C 0.62857 0.22294 0.36598 0.0
C208 C 0.62208 0.22323 0.39496 0.0
C209 C 0.62241 0.24804 0.35076 0.0
C210 C 0.61088 0.27296 0.36434 0.0
C211 C 0.60459 0.27327 0.39339 0.0
C212 C 0.71087 0.14544 0.36606 0.0
C213 C 0.71411 0.11587 0.36965 0.0
C214 C 0.73398 0.1619 0.37574 0.0
C215 C 0.75961 0.14917 0.38859 0.0
C216 C 0.76271 0.11964 0.39248 0.0
C217 C 0.73957 0.10317 0.38286 0.0
C218 C 0.61 0.24793 0.4084 0.0
H219 H 0.62783 0.0826 0.25662 0.0
H220 H 0.64575 0.10373 0.29977 0.0
H221 H 0.61652 0.18693 0.26961 0.0
H222 H 0.59749 0.16538 0.22683 0.0
H223 H 0.68311 0.12935 0.31824 0.0
H224 H 0.61173 0.19527 0.31811 0.0
H225 H 0.67784 0.19241 0.3838 0.0
H226 H 0.62646 0.20427 0.40732 0.0
H227 H 0.62732 0.24861 0.32848 0.0
H228 H 0.60681 0.29203 0.35209 0.0
H229 H 0.6967 0.10255 0.36264 0.0
H230 H 0.73238 0.18469 0.37315 0.0
H231 H 0.60559 0.24738 0.43078 0.0
H232 H 0.74128 0.08037 0.3853 0.0
H233 H 0.77684 0.16254 0.39588 0.0
C234 C 0.29617 0.54629 0.06955 0.0
C235 C 0.28626 0.55344 0.04236 0.0
C236 C 0.32515 0.55138 0.07805 0.0
C237 C 0.34505 0.56361 0.05952 0.0
C238 C 0.33546 0.56985 0.03195 0.0
C239 C 0.30631 0.56489 0.02348 0.0
C240 C 0.37441 0.57227 0.07005 0.0
C241 C 0.3906 0.5556 0.08997 0.0
C242 C 0.41483 0.56628 0.10461 0.0
C243 C 0.42377 0.59332 0.09775 0.0
C244 C 0.40864 0.60974 0.07725 0.0
C245 C 0.38414 0.5991 0.06328 0.0
C246 C 0.41651 0.63928 0.07304 0.0
C247 C 0.41853 0.65743 0.0964 0.0
C248 C 0.42258 0.64934 0.0461 0.0
C249 C 0.43129 0.67701 0.04269 0.0
C250 C 0.43351 0.69507 0.06614 0.0
C251 C 0.42789 0.55168 0.12987 0.0
C252 C 0.40952 0.53738 0.14826 0.0
C253 C 0.4576 0.55548 0.13802 0.0
C254 C 0.46746 0.54844 0.16506 0.0
C255 C 0.44817 0.53646 0.18434 0.0
C256 C 0.41972 0.52947 0.17496 0.0
C257 C 0.42686 0.68508 0.09297 0.0
H258 H 0.2811 0.53786 0.08471 0.0
H259 H 0.33144 0.54691 0.09963 0.0
H260 H 0.35032 0.57904 0.01709 0.0
H261 H 0.29935 0.57029 1.00228 0.0
H262 H 0.38347 0.53474 0.09489 0.0
H263 H 0.37138 0.61266 0.04876 0.0
H264 H 0.4416 0.60253 0.10941 0.0
H265 H 0.41364 0.6502 0.11736 0.0
H266 H 0.42114 0.63564 0.02783 0.0
H267 H 0.43608 0.68437 0.02176 0.0
H268 H 0.38652 0.53391 0.14296 0.0
H269 H 0.47282 0.56548 0.12409 0.0
H270 H 0.42856 0.69854 0.11138 0.0
H271 H 0.40462 0.51916 0.18874 0.0
H272 H 0.48959 0.55408 0.17123 0.0
C273 C 0.08886 0.33414 0.5293 0.0
C274 C 0.05808 0.33217 0.53394 0.0
C275 C 0.10218 0.35962 0.53423 0.0
C276 C 0.08496 0.38364 0.54385 0.0
C277 C 0.05376 0.38231 0.54598 0.0
C278 C 0.04045 0.35676 0.54118 0.0
C279 C 0.10005 0.40788 0.55626 0.0
C280 C 0.12611 0.41756 0.54414 0.0
C281 C 0.14381 0.43625 0.55897 0.0
C282 C 0.1345 0.44579 0.58587 0.0
C283 C 0.10819 0.43682 0.59789 0.0
C284 C 0.09096 0.41817 0.58287 0.0
C285 C 0.10045 0.44395 0.62746 0.0
C286 C 0.12224 0.44039 0.64859 0.0
C287 C 0.07082 0.45206 0.63501 0.0
C288 C 0.06299 0.45595 0.66326 0.0
C289 C 0.08461 0.45156 0.6845 0.0
C290 C 0.17354 0.44348 0.54807 0.0
C291 C 0.19207 0.42308 0.53363 0.0
C292 C 0.18477 0.46996 0.55423 0.0
C293 C 0.2143 0.47523 0.54781 0.0
C294 C 0.23325 0.4544 0.53444 0.0
C295 C 0.22142 0.42859 0.52664 0.0
C296 C 0.11439 0.44409 0.67683 0.0
H297 H 0.10307 0.31549 0.52392 0.0
H298 H 0.1263 0.35979 0.53268 0.0
H299 H 0.03986 0.40062 0.55293 0.0
H300 H 0.01658 0.35592 0.54444 0.0
H301 H 0.13304 0.40976 0.52352 0.0
H302 H 0.07175 0.40982 0.59301 0.0
H303 H 0.14836 0.45925 0.59815 0.0
H304 H 0.14514 0.43363 0.64338 0.0
H305 H 0.05365 0.45509 0.61906 0.0
H306 H 0.03997 0.46221 0.66846 0.0
H307 H 0.18445 0.40233 0.52871 0.0
H308 H 0.171 0.48644 0.56479 0.0
H309 H 0.13149 0.44015 0.69268 0.0
H310 H 0.23503 0.41227 0.51569 0.0
H311 H 0.22251 0.4953 0.5544 0.0
C312 C 0.03243 0.03201 0.45944 0.0
N313 N 0.0125 0.07061 0.5377 0.0
C314 C 0.0391 0.08251 0.5342 0.0
C315 C 0.04167 0.11112 0.5403 0.0
C316 C 0.01655 0.12769 0.54985 0.0
C317 C 0.98984 0.11452 0.55485 0.0
C318 C 0.98833 0.0857 0.54869 0.0
Zn319 Zn 0.00795 0.03179 0.52003 0.0
C320 C 0.95022 0.03159 0.48692 0.0
N321 N 0.99888 0.95271 0.47931 0.0
C322 C 0.02315 0.93704 0.46924 0.0
C323 C 0.97173 0.94154 0.48152 0.0
C324 C 0.96854 0.91315 0.47486 0.0
C325 C 0.9936 0.89602 0.46618 0.0
C326 C 0.02103 0.90839 0.46265 0.0
Zn327 Zn 1.00367 0.99144 0.49707 0.0
O328 O 0.02763 0.04697 0.48159 0.0
C329 C 0.06143 0.99159 0.53017 0.0
O330 O 0.02553 1.00625 0.45966 0.0
H331 H 0.95286 0.95423 0.49 0.0
H332 H 0.05789 0.07025 0.52503 0.0
H333 H 0.04452 0.94637 0.46769 0.0
O334 O 0.05131 0.01679 0.53574 0.0
O335 O 0.04607 0.97626 0.51434 0.0
H336 H 0.96739 0.07579 0.55124 0.0
O337 O 0.98184 0.97694 0.53488 0.0
O338 O 0.98816 0.01634 0.55803 0.0
O339 O 0.96138 0.00714 0.47986 0.0
O340 O 0.96454 0.04627 0.50426 0.0
C341 C 0.97902 0.99134 0.55763 0.0
H342 H 0.06257 0.12054 0.53581 0.0
H343 H 0.97006 0.12661 0.5624 0.0
H344 H 0.9471 0.90429 0.4782 0.0
H345 H 0.0408 0.89581 0.45584 0.0
C346 C 0.5625 0.99097 0.98655 0.0
N347 N 0.51566 0.07128 0.98106 0.0
C348 C 0.54259 0.0826 0.98468 0.0
C349 C 0.54558 0.11129 0.97969 0.0
C350 C 0.52055 0.12844 0.97115 0.0
C351 C 0.49356 0.11583 0.96579 0.0
C352 C 0.49162 0.08696 0.9708 0.0
Zn353 Zn 0.5098 0.0326 0.99766 0.0
C354 C 0.48016 0.99351 0.95908 0.0
N355 N 0.49773 0.95348 0.03588 0.0
C356 C 0.52056 0.93598 0.04582 0.0
C357 C 0.4697 0.94438 0.03271 0.0
C358 C 0.46398 0.91647 0.03845 0.0
C359 C 0.48743 0.89741 0.04702 0.0
C360 C 0.51586 0.90761 0.05156 0.0
Zn361 Zn 0.50468 0.9922 0.01961 0.0
O362 O 0.55197 0.01579 0.98028 0.0
C363 C 0.53448 0.03113 0.05822 0.0
O364 O 0.54775 0.97638 1.00343 0.0
H365 H 0.45193 0.9584 0.02436 0.0
H366 H 0.56127 0.0698 0.99317 0.0
H367 H 0.54271 0.94362 0.04801 0.0
O368 O 0.53176 0.04587 0.03593 0.0
O369 O 0.525 1.00626 0.05797 0.0
H370 H 0.47044 0.07748 0.96811 0.0
O371 O 0.46178 0.0087 0.03583 0.0
O372 O 0.46759 0.049 0.01505 0.0
O373 O 0.48451 0.97835 0.98087 0.0
O374 O 0.48778 0.01902 0.95982 0.0
C375 C 0.45203 0.034 0.03074 0.0
H376 H 0.56671 0.1203 0.98432 0.0
H377 H 0.47386 0.12839 0.95895 0.0
H378 H 0.44158 0.90965 0.03526 0.0
H379 H 0.53457 0.89357 0.0581 0.0
C380 C 0.52813 0.45622 0.4925 0.0
N381 N 0.52316 0.49101 0.57498 0.0
C382 C 0.51575 0.46599 0.58617 0.0
C383 C 0.52096 0.46047 0.61468 0.0
C384 C 0.53359 0.48108 0.63163 0.0
C385 C 0.54159 0.50634 0.61933 0.0
C386 C 0.53625 0.51085 0.59087 0.0
Zn387 Zn 0.51345 0.50173 0.5345 0.0
C388 C 0.5662 0.52691 0.50771 0.0
N389 N 0.49461 0.52876 0.45084 0.0
C390 C 0.47656 0.51135 0.43677 0.0
C391 C 0.50879 0.54923 0.43711 0.0
C392 C 0.50616 0.55178 0.40789 0.0
C393 C 0.48845 0.53332 0.3928 0.0
C394 C 0.47271 0.51365 0.40788 0.0
Zn395 Zn 0.50387 0.51855 0.49179 0.0
O396 O 0.52945 0.46022 0.519 0.0
C397 C 0.45131 0.49316 0.51895 0.0
O398 O 0.51811 0.47658 0.47713 0.0
H399 H 0.52322 0.56275 0.44858 0.0
H400 H 0.5053 0.45057 0.57312 0.0
H401 H 0.46604 0.49467 0.44763 0.0
O402 O 0.46966 0.48801 0.5389 0.0
O403 O 0.45979 0.50585 0.49723 0.0
H404 H 0.54213 0.53053 0.58157 0.0
O405 O 0.48958 0.56057 0.50686 0.0
O406 O 0.49702 0.54329 0.54909 0.0
O407 O 0.54816 0.53102 0.48733 0.0
O408 O 0.5572 0.51545 0.52994 0.0
C409 C 0.48859 0.56404 0.53347 0.0
H410 H 0.51446 0.44074 0.62353 0.0
H411 H 0.55181 0.52253 0.63164 0.0
H412 H 0.51884 0.56722 0.39721 0.0
H413 H 0.45808 0.49951 0.39743 0.0
C414 C 0.98942 0.56493 0.98377 0.0
N415 N 0.995 0.53495 0.06731 0.0
C416 C 1.00219 0.56065 0.07745 0.0
C417 C 0.99598 0.56815 0.10547 0.0
C418 C 0.98233 0.54894 0.12303 0.0
C419 C 0.97513 0.52268 0.1118 0.0
C420 C 0.98153 0.51618 0.08383 0.0
Zn421 Zn 0.00494 0.52169 0.02745 0.0
C422 C 0.95236 0.49465 1.00162 0.0
N423 N 0.02431 0.48918 0.94573 0.0
C424 C 0.03796 0.50772 0.92905 0.0
C425 C 0.01633 0.4637 0.93562 0.0
C426 C 0.02147 0.45638 0.9074 0.0
C427 C 0.03454 0.47569 0.88962 0.0
C428 C 0.04319 0.50142 0.90083 0.0
Zn429 Zn 0.01442 0.50257 0.98555 0.0
O430 O 0.98867 0.56211 0.01038 0.0
C431 C 0.06709 0.52953 0.01127 0.0
O432 O 0.99944 0.54391 0.96887 0.0
H433 H 0.00544 0.44935 0.94929 0.0
H434 H 0.01294 0.5752 0.06389 0.0
H435 H 0.04432 0.52776 0.93752 0.0
O436 O 0.04868 0.5359 0.031 0.0
O437 O 0.0584 0.51576 0.99006 0.0
H438 H 0.97608 0.49582 0.07541 0.0
O439 O 0.02905 0.46152 1.00271 0.0
O440 O 0.0215 0.48104 0.04418 0.0
O441 O 0.97048 0.48931 0.98146 0.0
O442 O 0.96122 0.50749 0.02334 0.0
C443 C 0.02996 0.45942 0.02941 0.0
H444 H 1.00171 0.58871 0.11325 0.0
H445 H 0.96518 0.50696 0.12465 0.0
H446 H 0.01453 0.43631 0.89936 0.0
H447 H 0.05376 0.51663 0.88781 0.0
C448 C 0.11827 0.10562 0.33172 0.0
C449 C 0.09982 0.11067 0.308 0.0
C450 C 0.10796 0.09225 0.35603 0.0
C451 C 0.07804 0.08416 0.35746 0.0
C452 C 0.0591 0.0895 0.33391 0.0
C453 C 0.07021 0.10228 0.30955 0.0
C454 C 0.12922 0.08678 0.38031 0.0
C455 C 0.0269 0.0818 0.33445 0.0
C456 C 0.05641 0.02829 0.41106 0.0
C457 C 0.04468 0.04508 0.43348 0.0
C458 C 0.06757 0.04062 0.38648 0.0
C459 C 0.06648 0.07058 0.3837 0.0
C460 C 0.05442 0.08759 0.40619 0.0
C461 C 0.04404 0.07473 0.43075 0.0
C462 C 0.08076 0.02153 0.36349 0.0
C463 C 0.05212 0.11951 0.40422 0.0
H464 H 0.14091 0.11239 0.33158 0.0
H465 H 0.05556 0.10534 0.29157 0.0
H466 H 0.12092 0.0988 0.39916 0.0
H467 H 0.13035 0.06395 0.38577 0.0
H468 H 0.15219 0.09297 0.37553 0.0
H469 H 0.01471 0.08803 0.31489 0.0
H470 H 0.02587 0.05861 0.33724 0.0
H471 H 0.01515 0.09234 0.35261 0.0
H472 H 0.05715 1.00541 0.41283 0.0
H473 H 0.03485 0.08804 0.44771 0.0
H474 H 0.10414 0.02675 0.35922 0.0
H475 H 0.06793 0.02505 0.34373 0.0
H476 H 0.0807 0.99874 0.369 0.0
H477 H 0.0747 0.12749 0.40149 0.0
H478 H 0.04162 0.12979 0.42317 0.0
H479 H 0.03871 0.12611 0.38549 0.0
C480 C 0.44193 0.92508 0.80785 0.0
C481 C 0.41244 0.91639 0.80627 0.0
C482 C 0.45303 0.93777 0.83243 0.0
C483 C 0.43414 0.94274 0.85611 0.0
C484 C 0.40431 0.93444 0.85464 0.0
C485 C 0.39403 0.92111 0.8301 0.0
C486 C 0.48515 0.9457 0.83309 0.0
C487 C 0.38313 0.93959 0.87911 0.0
C488 C 0.46844 0.95125 0.92936 0.0
C489 C 0.46775 0.98085 0.93288 0.0
C490 C 0.45797 0.93869 0.90452 0.0
C491 C 0.44574 0.956 0.88262 0.0
C492 C 0.44456 0.98592 0.8862 0.0
C493 C 0.45587 0.99795 0.91104 0.0
C494 C 0.46037 0.9068 0.9016 0.0
C495 C 0.43113 1.00526 0.86382 0.0
H496 H 0.45649 0.92227 0.78975 0.0
H497 H 0.37148 0.9141 0.82988 0.0
H498 H 0.48604 0.96886 0.83658 0.0
H499 H 0.4971 0.93498 0.85088 0.0
H500 H 0.49726 0.93983 0.8133 0.0
H501 H 0.36016 0.93343 0.87418 0.0
H502 H 0.39153 0.92733 0.89758 0.0
H503 H 0.382 0.96234 0.88524 0.0
H504 H 0.47778 0.93775 0.9459 0.0
H505 H 0.45511 0.0208 0.91349 0.0
H506 H 0.4737 0.90049 0.88264 0.0
H507 H 0.43781 0.89877 0.8987 0.0
H508 H 0.47101 0.8963 0.92021 0.0
H509 H 0.44384 1.00207 0.84392 0.0
H510 H 0.4311 0.02798 0.87 0.0
H511 H 0.40776 0.99997 0.85947 0.0
C512 C 0.58986 0.47408 0.78998 0.0
C513 C 0.56996 0.46141 0.80797 0.0
C514 C 0.58342 0.47719 0.76126 0.0
C515 C 0.55632 0.46764 0.75046 0.0
C516 C 0.53585 0.45538 0.76867 0.0
C517 C 0.54299 0.45231 0.79722 0.0
C518 C 0.60584 0.49023 0.7424 0.0
C519 C 0.50656 0.44531 0.75794 0.0
C520 C 0.52899 0.49851 0.68114 0.0
C521 C 0.53804 0.47681 0.66215 0.0
C522 C 0.53438 0.49562 0.71002 0.0
C523 C 0.54939 0.47048 0.72006 0.0
C524 C 0.55818 0.44829 0.70104 0.0
C525 C 0.55223 0.45166 0.67224 0.0
C526 C 0.52432 0.51957 0.72972 0.0
C527 C 0.5744 0.42126 0.71103 0.0
H528 H 0.61087 0.48081 0.79822 0.0
H529 H 0.52747 0.44273 0.81121 0.0
H530 H 0.61337 0.47485 0.72573 0.0
H531 H 0.59524 0.50911 0.73178 0.0
H532 H 0.62577 0.49673 0.75415 0.0
H533 H 0.49283 0.43681 0.775 0.0
H534 H 0.4934 0.46302 0.74768 0.0
H535 H 0.51087 0.42846 0.74181 0.0
H536 H 0.51765 0.51783 0.67335 0.0
H537 H 0.55941 0.43498 0.65751 0.0
H538 H 0.54401 0.5279 0.74043 0.0
H539 H 0.50958 0.51172 0.74628 0.0
H540 H 0.51205 0.53732 0.7186 0.0
H541 H 0.59585 0.42617 0.72111 0.0
H542 H 0.57924 0.40586 0.6936 0.0
H543 H 0.56085 0.41107 0.72714 0.0
C544 C 0.93813 0.58856 0.28247 0.0
C545 C 0.94779 0.56594 0.29978 0.0
C546 C 0.94535 0.58839 0.25382 0.0
C547 C 0.96218 0.56481 0.24222 0.0
C548 C 0.9727 0.54225 0.2598 0.0
C549 C 0.96556 0.54322 0.28853 0.0
C550 C 0.9342 0.61304 0.23584 0.0
C551 C 0.99038 0.51658 0.24806 0.0
C552 C 0.94983 0.54703 0.16557 0.0
C553 C 0.97618 0.55551 0.15311 0.0
C554 C 0.94496 0.55017 0.19451 0.0
C555 C 0.96669 0.56263 0.21138 0.0
C556 C 0.99275 0.57239 0.19883 0.0
C557 C 0.99729 0.56855 0.16981 0.0
C558 C 0.91687 0.53948 0.20714 0.0
C559 C 0.01613 0.58622 0.21617 0.0
H560 H 0.92473 0.60632 0.29138 0.0
H561 H 0.97294 0.52575 0.302 0.0
H562 H 0.95288 0.62094 0.22342 0.0
H563 H 0.91731 0.60597 0.22067 0.0
H564 H 0.92384 0.63086 0.24857 0.0
H565 H 0.99832 0.50165 0.26478 0.0
H566 H 0.97623 0.50517 0.23314 0.0
H567 H 0.01002 0.52317 0.23614 0.0
H568 H 0.93312 0.53752 0.15269 0.0
H569 H 0.01781 0.57495 0.16038 0.0
H570 H 0.90401 0.55697 0.21829 0.0
H571 H 0.92289 0.52288 0.22288 0.0
H572 H 0.90214 0.53042 0.19103 0.0
H573 H 0.00561 0.604 0.22881 0.0
H574 H 0.03404 0.59446 0.20294 0.0
H575 H 0.02654 0.57065 0.23114 0.0
C576 C 0.31938 0.10983 0.12422 0.0
C577 C 0.29088 0.10825 0.11206 0.0
C578 C 0.34534 0.09757 0.11101 0.0
C579 C 0.34308 0.08332 0.0848 0.0
C580 C 0.31443 0.08159 0.0724 0.0
C581 C 0.28882 0.09397 0.08611 0.0
C582 C 0.37531 0.10003 0.12507 0.0
C583 C 0.3108 0.06663 0.04456 0.0
C584 C 0.41309 0.07434 0.0384 0.0
C585 C 0.42355 0.04623 0.04378 0.0
C586 C 0.38696 0.08653 0.05137 0.0
C587 C 0.37065 0.07037 0.07034 0.0
C588 C 0.38094 0.04191 0.07566 0.0
C589 C 0.40713 0.03023 0.06237 0.0
C590 C 0.37692 0.11686 0.04492 0.0
C591 C 0.36442 0.02383 0.09569 0.0
H592 H 0.32154 0.1211 0.14397 0.0
H593 H 0.26705 0.09211 0.07658 0.0
H594 H 0.3862 0.07862 0.12858 0.0
H595 H 0.39026 0.11151 0.11119 0.0
H596 H 0.37336 0.11139 0.1456 0.0
H597 H 0.2871 0.06718 0.03758 0.0
H598 H 0.32417 0.07662 0.02817 0.0
H599 H 0.31943 0.04418 0.04615 0.0
H600 H 0.42548 0.087 0.02415 0.0
H601 H 0.41489 0.00854 0.0668 0.0
H602 H 0.37664 0.12979 0.06451 0.0
H603 H 0.35376 0.11795 0.03652 0.0
H604 H 0.39171 0.12648 0.02939 0.0
H605 H 0.36382 0.03371 0.11694 0.0
H606 H 0.37495 1.00199 0.09729 0.0
H607 H 0.34091 0.02253 0.08869 0.0
C608 C 0.19393 0.91606 0.62218 0.0
C609 C 0.22248 0.91785 0.61029 0.0
C610 C 0.16807 0.92843 0.60912 0.0
C611 C 0.17053 0.943 0.58337 0.0
C612 C 0.19924 0.94495 0.57125 0.0
C613 C 0.22475 0.93245 0.5848 0.0
C614 C 0.138 0.92572 0.62284 0.0
C615 C 0.20303 0.96026 0.54387 0.0
C616 C 0.10089 0.95176 0.53676 0.0
C617 C 0.09007 0.9797 0.54288 0.0
C618 C 0.12708 0.93973 0.54951 0.0
C619 C 0.14306 0.95589 0.569 0.0
C620 C 0.13248 0.98421 0.57502 0.0
C621 C 0.10623 0.99574 0.56192 0.0
C622 C 0.13746 0.90953 0.54234 0.0
C623 C 0.1487 1.00225 0.59563 0.0
H624 H 0.19166 0.90453 0.64158 0.0
H625 H 0.24659 0.93443 0.57552 0.0
H626 H 0.12696 0.94706 0.62678 0.0
H627 H 0.12324 0.91427 0.60853 0.0
H628 H 0.13983 0.9142 0.6431 0.0
H629 H 0.2268 0.95996 0.53715 0.0
H630 H 0.18993 0.95034 0.52705 0.0
H631 H 0.19419 0.98263 0.54599 0.0
H632 H 0.0887 0.93908 0.52213 0.0
H633 H 0.09816 0.0173 0.5669 0.0
H634 H 0.13762 0.89638 0.56156 0.0
H635 H 0.16072 0.90871 0.53421 0.0
H636 H 0.12297 0.89996 0.52635 0.0
H637 H 0.14913 0.99225 0.61666 0.0
H638 H 0.13805 0.02404 0.59762 0.0
H639 H 0.17228 1.00369 0.58892 0.0
C640 C 0.7846 0.44454 1.00211 0.0
C641 C 0.76695 0.46071 0.98297 0.0
C642 C 0.81507 0.44891 1.00564 0.0
C643 C 0.82809 0.47035 0.99009 0.0
C644 C 0.81037 0.48706 0.97109 0.0
C645 C 0.78011 0.48187 0.96756 0.0
C646 C 0.83337 0.4305 0.02591 0.0
C647 C 0.82342 0.51037 0.9544 0.0
C648 C 0.89924 0.50019 0.0175 0.0
C649 C 0.92087 0.48726 0.99944 0.0
C650 C 0.86897 0.49474 0.01479 0.0
C651 C 0.86021 0.47552 0.99383 0.0
C652 C 0.88203 0.46184 0.97599 0.0
C653 C 0.91212 0.46807 0.97885 0.0
C654 C 0.84628 0.51006 0.0339 0.0
C655 C 0.87355 0.44083 0.95373 0.0
H656 H 0.77458 0.42847 0.01446 0.0
H657 H 0.76689 0.49413 0.95234 0.0
H658 H 0.85264 0.4196 0.01476 0.0
H659 H 0.8426 0.44381 0.04273 0.0
H660 H 0.82004 0.41424 0.03585 0.0
H661 H 0.8064 0.52198 0.9411 0.0
H662 H 0.83338 0.52575 0.96884 0.0
H663 H 0.84164 0.50133 0.94062 0.0
H664 H 0.90585 0.51516 0.03337 0.0
H665 H 0.92879 0.45792 0.96494 0.0
H666 H 0.83344 0.49457 0.04547 0.0
H667 H 0.83002 0.52321 0.02118 0.0
H668 H 0.85684 0.52402 0.04943 0.0
H669 H 0.86119 0.42377 0.96341 0.0
H670 H 0.89338 0.43103 0.94247 0.0
H671 H 0.8584 0.45155 0.93812 0.0
C672 C 0.73799 0.53269 0.472 0.0
C673 C 0.75162 0.55604 0.48345 0.0
C674 C 0.70787 0.52843 0.47744 0.0
C675 C 0.69093 0.54826 0.49439 0.0
C676 C 0.70472 0.57166 0.50639 0.0
C677 C 0.73506 0.57517 0.50093 0.0
C678 C 0.69408 0.50295 0.46467 0.0
C679 C 0.68723 0.59339 0.52431 0.0
C680 C 0.60703 0.55026 0.4827 0.0
C681 C 0.59773 0.53411 0.50528 0.0
C682 C 0.63723 0.55585 0.47943 0.0
C683 C 0.65861 0.54468 0.49901 0.0
C684 C 0.64926 0.52883 0.52214 0.0
C685 C 0.61889 0.52389 0.52511 0.0
C686 C 0.64635 0.57317 0.45468 0.0
C687 C 0.67146 0.51631 0.54326 0.0
H688 H 0.75094 0.51782 0.45863 0.0
H689 H 0.74559 0.59338 0.50952 0.0
H690 H 0.68388 0.49043 0.48137 0.0
H691 H 0.67592 0.51 0.44996 0.0
H692 H 0.71069 0.48889 0.45302 0.0
H693 H 0.70149 0.6099 0.53273 0.0
H694 H 0.66894 0.60389 0.51168 0.0
H695 H 0.67666 0.58291 0.5422 0.0
H696 H 0.59075 0.55837 0.46741 0.0
H697 H 0.61187 0.51133 0.5426 0.0
H698 H 0.66099 0.5598 0.44042 0.0
H699 H 0.65944 0.59099 0.462 0.0
H700 H 0.62677 0.58191 0.44247 0.0
H701 H 0.6872 0.50061 0.53263 0.0
H702 H 0.66039 0.50562 0.56078 0.0
H703 H 0.68497 0.5331 0.5522 0.0
C704 C 0.11519 0.32037 0.09784 0.0
C705 C 0.09637 0.30477 0.11476 0.0
C706 C 0.10451 0.34517 0.08372 0.0
C707 C 0.0739 0.35465 0.08563 0.0
C708 C 0.05458 0.33881 0.10207 0.0
C709 C 0.06601 0.31446 0.11659 0.0
C710 C 0.12619 0.36145 0.06689 0.0
C711 C 0.02171 0.34768 0.10448 0.0
C712 C 0.05065 0.43287 0.07168 0.0
C713 C 0.04112 0.43246 0.0435 0.0
C714 C 0.06152 0.40793 0.08543 0.0
C715 C 0.06234 0.38147 0.07104 0.0
C716 C 0.05238 0.38085 0.04267 0.0
C717 C 0.04229 0.40628 0.0292 0.0
C718 C 0.07248 0.40999 0.11536 0.0
C719 C 0.05215 0.35321 0.02659 0.0
H720 H 0.13846 0.31315 0.09534 0.0
H721 H 0.05101 0.30329 0.12974 0.0
H722 H 0.1191 0.36243 0.04456 0.0
H723 H 0.12617 0.38359 0.07486 0.0
H724 H 0.14941 0.35175 0.06789 0.0
H725 H 0.0092 0.33227 0.11658 0.0
H726 H 0.0188 0.36868 0.11504 0.0
H727 H 0.01163 0.3499 0.08323 0.0
H728 H 0.05008 0.45291 0.08299 0.0
H729 H 0.03485 0.40557 1.00752 0.0
H730 H 0.09612 0.40153 0.11669 0.0
H731 H 0.05918 0.39687 0.12926 0.0
H732 H 0.07096 0.43213 0.12349 0.0
H733 H 0.07521 0.34332 0.02497 0.0
H734 H 0.0429 0.35605 1.00505 0.0
H735 H 0.03858 0.33819 0.03805 0.0
C736 C 0.55848 0.28437 0.00904 0.0
C737 C 0.54902 0.30486 0.98931 0.0
C738 C 0.55065 0.25624 1.00613 0.0
C739 C 0.53321 0.24849 0.98276 0.0
C740 C 0.5224 0.26938 0.96354 0.0
C741 C 0.53038 0.29738 0.96709 0.0
C742 C 0.56222 0.23458 0.02729 0.0
C743 C 0.50388 0.26187 0.93832 0.0
C744 C 0.54641 0.17205 0.95905 0.0
C745 C 0.52192 0.15962 0.97102 0.0
C746 C 0.54979 0.2012 0.96192 0.0
C747 C 0.52828 0.21819 0.97737 0.0
C748 C 0.50297 0.20591 0.98869 0.0
C749 C 0.50004 0.17673 0.9853 0.0
C750 C 0.57689 0.21366 0.94921 0.0
C751 C 0.47969 0.22335 1.0054 0.0
H752 H 0.57274 0.2902 0.02631 0.0
H753 H 0.52339 0.3131 0.95155 0.0
H754 H 0.54365 0.22233 0.03516 0.0
H755 H 0.57869 0.21929 0.01703 0.0
H756 H 0.57323 0.24448 0.04551 0.0
H757 H 0.49481 0.28097 0.92695 0.0
H758 H 0.51788 0.24849 0.92352 0.0
H759 H 0.48496 0.24934 0.94481 0.0
H760 H 0.56322 0.15883 0.94786 0.0
H761 H 0.48129 0.16707 0.99494 0.0
H762 H 0.59122 0.22168 0.96617 0.0
H763 H 0.56989 0.23193 0.93571 0.0
H764 H 0.59051 0.1979 0.93638 0.0
H765 H 0.48985 0.23105 0.02509 0.0
H766 H 0.46024 0.21103 0.01098 0.0
H767 H 0.47152 0.24228 0.99334 0.0
C768 C 0.97955 0.72761 0.45357 0.0
C769 C 0.9602 0.72011 0.47507 0.0
C770 C 0.98787 0.75556 0.45094 0.0
C771 C 0.97669 0.7764 0.4704 0.0
C772 C 0.95811 0.76871 0.49282 0.0
C773 C 0.94995 0.74064 0.49479 0.0
C774 C 0.00753 0.76304 0.42667 0.0
C775 C 0.94606 0.79032 0.51418 0.0
C776 C 0.01228 0.84673 0.47802 0.0
C777 C 0.99156 0.86497 0.46387 0.0
C778 C 0.00826 0.81761 0.47962 0.0
C779 C 0.98304 0.80656 0.46657 0.0
C780 C 0.96283 0.82468 0.45111 0.0
C781 C 0.96727 0.85374 0.45006 0.0
C782 C 0.03018 0.79894 0.49639 0.0
C783 C 0.9359 0.81357 0.43657 0.0
H784 H 0.98714 0.71186 0.43803 0.0
H785 H 0.93513 0.7348 0.51151 0.0
H786 H 0.99465 0.7775 0.4122 0.0
H787 H 0.02688 0.77443 0.43439 0.0
H788 H 0.01605 0.74401 0.41456 0.0
H789 H 0.93349 0.78053 0.53131 0.0
H790 H 0.96465 0.80161 0.52361 0.0
H791 H 0.9309 0.80642 0.50366 0.0
H792 H 0.03087 0.85545 0.48903 0.0
H793 H 0.95136 0.86784 0.43896 0.0
H794 H 0.03818 0.78014 0.48376 0.0
H795 H 0.01884 0.79107 0.51526 0.0
H796 H 0.04984 0.81038 0.50336 0.0
H797 H 0.94284 0.79533 0.42272 0.0
H798 H 0.92364 0.83004 0.42373 0.0
H799 H 0.9203 0.80584 0.45248 0.0
C800 C 0.44905 0.71174 0.6166 0.0
C801 C 0.41868 0.72104 0.61384 0.0
C802 C 0.46113 0.68708 0.6027 0.0
C803 C 0.44244 0.67056 0.58601 0.0
C804 C 0.41183 0.67965 0.58315 0.0
C805 C 0.40051 0.70478 0.59666 0.0
C806 C 0.49399 0.67859 0.60606 0.0
C807 C 0.39082 0.66259 0.56605 0.0
C808 C 0.47607 0.61703 0.53162 0.0
C809 C 0.477 0.59149 0.54659 0.0
C810 C 0.4654 0.64291 0.54425 0.0
C811 C 0.4546 0.64332 0.57234 0.0
C812 C 0.45518 0.61751 0.58737 0.0
C813 C 0.46664 0.59213 0.5745 0.0
C814 C 0.46592 0.6699 0.52759 0.0
C815 C 0.44331 0.61659 0.61704 0.0
H816 H 0.46351 0.72345 0.63002 0.0
H817 H 0.37726 0.71171 0.59349 0.0
H818 H 0.49678 0.65806 0.61718 0.0
H819 H 0.50467 0.67555 0.58511 0.0
H820 H 0.50602 0.69462 0.61808 0.0
H821 H 0.36753 0.67218 0.56618 0.0
H822 H 0.39866 0.66075 0.54396 0.0
H823 H 0.3907 0.64077 0.57448 0.0
H824 H 0.48414 0.61686 0.51014 0.0
H825 H 0.46701 0.57256 0.58626 0.0
H826 H 0.47901 0.68549 0.53907 0.0
H827 H 0.44286 0.67955 0.52514 0.0
H828 H 0.47585 0.66626 0.50636 0.0
H829 H 0.45607 0.63037 0.63099 0.0
H830 H 0.44474 0.59479 0.6257 0.0
H831 H 0.41959 0.62493 0.61756 0.0
C832 C 0.94076 0.90466 0.69792 0.0
C833 C 0.91234 0.91257 0.70907 0.0
C834 C 0.95158 0.91756 0.67353 0.0
C835 C 0.93347 0.93868 0.65934 0.0
C836 C 0.90462 0.94648 0.6703 0.0
C837 C 0.89458 0.9336 0.695 0.0
C838 C 0.98262 0.90878 0.66309 0.0
C839 C 0.88418 0.96839 0.6558 0.0
C840 C 0.97015 0.99078 0.61027 0.0
C841 C 0.9664 0.9785 0.58356 0.0
C842 C 0.95976 0.97806 0.63494 0.0
C843 C 0.94466 0.95257 0.63312 0.0
C844 C 0.94037 0.94034 0.60616 0.0
C845 C 0.95146 0.95323 0.58189 0.0
C846 C 0.96534 0.99175 0.66307 0.0
C847 C 0.92404 0.91353 0.60291 0.0
H848 H 0.95487 0.88871 0.70865 0.0
H849 H 0.87247 0.93972 0.7031 0.0
H850 H 0.98148 0.90025 0.64134 0.0
H851 H 0.99635 0.92751 0.6624 0.0
H852 H 0.99414 0.89242 0.67659 0.0
H853 H 0.86221 0.97178 0.66655 0.0
H854 H 0.89488 0.9889 0.65506 0.0
H855 H 0.88027 0.9617 0.63375 0.0
H856 H 0.98181 0.01013 0.612 0.0
H857 H 0.94831 0.94347 0.56149 0.0
H858 H 0.97852 0.97663 0.67668 0.0
H859 H 0.94378 0.99717 0.67389 0.0
H860 H 0.97762 0.01135 0.66109 0.0
H861 H 0.93619 0.89597 0.61432 0.0
H862 H 0.92168 0.9071 0.58053 0.0
H863 H 0.90141 0.91654 0.61237 0.0
C864 C 0.61834 0.08787 0.19708 0.0
C865 C 0.60044 0.10887 0.21135 0.0
C866 C 0.60849 0.07501 0.17212 0.0
C867 C 0.57972 0.08286 0.16111 0.0
C868 C 0.56148 0.10395 0.1755 0.0
C869 C 0.57211 0.11681 0.20018 0.0
C870 C 0.62902 0.05311 0.15738 0.0
C871 C 0.53052 0.11277 0.16494 0.0
C872 C 0.56235 0.06872 0.08337 0.0
C873 C 0.54722 0.04356 0.08443 0.0
C874 C 0.57333 0.08143 0.10796 0.0
C875 C 0.56877 0.06909 0.13459 0.0
C876 C 0.55358 0.04365 0.1358 0.0
C877 C 0.54326 0.03112 0.11081 0.0
C878 C 0.58978 0.1082 0.10541 0.0
C879 C 0.54777 0.02987 0.16361 0.0
H880 H 0.64039 0.08175 0.20525 0.0
H881 H 0.55794 0.13276 0.2111 0.0
H882 H 0.61827 0.03262 0.15612 0.0
H883 H 0.63315 0.05985 0.1355 0.0
H884 H 0.65087 0.04963 0.16828 0.0
H885 H 0.51889 0.1291 0.17866 0.0
H886 H 0.53186 0.12135 0.14337 0.0
H887 H 0.5168 0.09404 0.16376 0.0
H888 H 0.56565 0.07857 0.0632 0.0
H889 H 0.53145 0.01185 0.11203 0.0
H890 H 0.61231 0.10512 0.11506 0.0
H891 H 0.57755 0.12576 0.11702 0.0
H892 H 0.5924 0.11467 0.08318 0.0
H893 H 0.56923 0.02449 0.17454 0.0
H894 H 0.53557 0.01025 0.16111 0.0
H895 H 0.53442 0.04492 0.17737 0.0
C896 C 0.43434 0.53894 0.23543 0.0
C897 C 0.45641 0.53401 0.21466 0.0
C898 C 0.4416 0.53842 0.26405 0.0
C899 C 0.47185 0.53389 0.27227 0.0
C900 C 0.49437 0.52914 0.25161 0.0
C901 C 0.48633 0.52876 0.22307 0.0
C902 C 0.41684 0.5429 0.28551 0.0
C903 C 0.52695 0.52485 0.25965 0.0
C904 C 0.48696 0.55901 0.34658 0.0
C905 C 0.48693 0.53355 0.36154 0.0
C906 C 0.48371 0.55928 0.31721 0.0
C907 C 0.47957 0.53358 0.30261 0.0
C908 C 0.48043 0.50776 0.31742 0.0
C909 C 0.48466 0.50801 0.34657 0.0
C910 C 0.4837 0.58715 0.30194 0.0
C911 C 0.47552 0.47998 0.30268 0.0
H912 H 0.41128 0.54388 0.22943 0.0
H913 H 0.50358 0.52453 0.20738 0.0
H914 H 0.41758 0.52495 0.30044 0.0
H915 H 0.41998 0.56245 0.29793 0.0
H916 H 0.39431 0.5448 0.27565 0.0
H917 H 0.54184 0.52245 0.24099 0.0
H918 H 0.53367 0.54316 0.27242 0.0
H919 H 0.53052 0.5057 0.27284 0.0
H920 H 0.48864 0.57887 0.35784 0.0
H921 H 0.4857 0.48806 0.3577 0.0
H922 H 0.46087 0.59308 0.29404 0.0
H923 H 0.4988 0.5852 0.28344 0.0
H924 H 0.49086 0.60456 0.31574 0.0
H925 H 0.45266 0.48073 0.29357 0.0
H926 H 0.47805 0.46162 0.31711 0.0
H927 H 0.49153 0.47641 0.28505 0.0
C928 C 0.0494 0.44308 0.72404 0.0
C929 C 0.07603 0.45396 0.7146 0.0
C930 C 0.04116 0.44497 0.75246 0.0
C931 C 0.06014 0.45783 0.77189 0.0
C932 C 0.08717 0.46861 0.76258 0.0
C933 C 0.09472 0.46667 0.73401 0.0
C934 C 0.01208 0.43342 0.76167 0.0
C935 C 0.10799 0.48246 0.78275 0.0
C936 C 0.02923 0.49022 0.83964 0.0
C937 C 0.03876 0.46968 0.85932 0.0
C938 C 0.03518 0.48616 0.81096 0.0
C939 C 0.0513 0.46107 0.80184 0.0
C940 C 0.06021 0.43984 0.82153 0.0
C941 C 0.05364 0.44435 0.85014 0.0
C942 C 0.02495 0.50909 0.79054 0.0
C943 C 0.07762 0.41292 0.81253 0.0
H944 H 0.03511 0.43279 0.70923 0.0
H945 H 0.11513 0.47543 0.72681 0.0
H946 H 0.01638 0.4172 0.77815 0.0
H947 H 0.99728 0.45069 0.77106 0.0
H948 H 1.00002 0.42373 0.74396 0.0
H949 H 0.12873 0.4887 0.7723 0.0
H950 H 0.09644 0.50166 0.79226 0.0
H951 H 0.1143 0.46778 0.80016 0.0
H952 H 0.01737 0.50966 0.8468 0.0
H953 H 0.06112 0.42857 0.86545 0.0
H954 H 0.01181 0.50002 0.77326 0.0
H955 H 0.04469 0.51824 0.78088 0.0
H956 H 0.01103 0.52649 0.80084 0.0
H957 H 0.0657 0.40228 0.79537 0.0
H958 H 0.0813 0.39782 0.83016 0.0
H959 H 0.09973 0.4181 0.80414 0.0
C960 C 0.72537 0.93578 0.926 0.0
C961 C 0.72272 0.91497 0.90501 0.0
C962 C 0.69998 0.94841 0.93989 0.0
C963 C 0.67096 0.9405 0.93243 0.0
C964 C 0.66813 0.91968 0.91108 0.0
C965 C 0.69393 0.90707 0.89786 0.0
C966 C 0.70426 0.97009 0.96278 0.0
C967 C 0.63775 0.91084 0.90201 0.0
C968 C 0.60528 0.95355 0.98369 0.0
C969 C 0.59092 0.97869 0.97344 0.0
C970 C 0.63148 0.94122 0.97091 0.0
C971 C 0.64358 0.95395 0.94689 0.0
C972 C 0.62921 0.97936 0.93648 0.0
C973 C 0.60333 0.99148 0.94996 0.0
C974 C 0.64617 0.91444 0.98309 0.0
C975 C 0.64091 0.99352 0.91075 0.0
H976 H 0.74746 0.94186 0.93196 0.0
H977 H 0.69151 0.89127 0.8815 0.0
H978 H 0.69237 0.99057 0.9572 0.0
H979 H 0.69442 0.96301 0.98274 0.0
H980 H 0.72824 0.97371 0.96643 0.0
H981 H 0.63922 0.89476 0.88482 0.0
H982 H 0.62602 0.90192 0.92013 0.0
H983 H 0.62382 0.92961 0.89472 0.0
H984 H 0.59605 0.94344 1.00182 0.0
H985 H 0.59243 0.01078 0.94167 0.0
H986 H 0.66991 0.91763 0.9882 0.0
H987 H 0.64602 0.897 0.96735 0.0
H988 H 0.63474 0.90772 1.00243 0.0
H989 H 0.66436 0.99897 0.91425 0.0
H990 H 0.6273 0.01316 0.90526 0.0
H991 H 0.64096 0.97869 0.89254 0.0
C992 C 0.78722 0.08546 0.42732 0.0
C993 C 0.78991 0.10614 0.40658 0.0
C994 C 0.8126 0.07292 0.44105 0.0
C995 C 0.84157 0.08086 0.43366 0.0
C996 C 0.84443 0.10154 0.41255 0.0
C997 C 0.81865 0.11402 0.39946 0.0
C998 C 0.80837 0.05135 0.46369 0.0
C999 C 0.8748 0.11039 0.40364 0.0
C1000 C 0.90711 0.06847 0.48476 0.0
C1001 C 0.92165 0.04343 0.47412 0.0
C1002 C 0.88085 0.08055 0.47216 0.0
C1003 C 0.86888 0.06761 0.44798 0.0
C1004 C 0.88336 0.04225 0.43724 0.0
C1005 C 0.90935 0.0304 0.45051 0.0
C1006 C 0.86601 0.10734 0.48463 0.0
C1007 C 0.87172 0.02787 0.41135 0.0
H1008 H 0.76514 0.07944 0.43322 0.0
H1009 H 0.82103 0.12973 0.38327 0.0
H1010 H 0.8204 0.03089 0.45793 0.0
H1011 H 0.81811 0.05859 0.48376 0.0
H1012 H 0.78442 0.04763 0.46721 0.0
H1013 H 0.87331 0.12636 0.38661 0.0
H1014 H 0.88648 0.11944 0.42188 0.0
H1015 H 0.88878 0.0916 0.39617 0.0
H1016 H 0.9163 0.07874 0.50301 0.0
H1017 H 0.92041 0.01116 0.44196 0.0
H1018 H 0.84228 0.10408 0.48962 0.0
H1019 H 0.86612 0.12472 0.4691 0.0
H1020 H 0.87736 0.11419 0.50409 0.0
H1021 H 0.84825 0.02247 0.41473 0.0
H1022 H 0.88533 0.00819 0.40572 0.0
H1023 H 0.87171 0.04256 0.39327 0.0
C1024 C 0.238 0.57246 0.0211 0.0
C1025 C 0.25458 0.55029 0.03449 0.0
C1026 C 0.20733 0.57077 0.01578 0.0
C1027 C 0.193 0.5463 0.024 0.0
C1028 C 0.20979 0.52357 0.03688 0.0
C1029 C 0.24038 0.52585 0.04198 0.0
C1030 C 0.19011 0.59542 1.00201 0.0
C1031 C 0.19534 0.49702 0.04574 0.0
C1032 C 0.10942 0.54937 0.03786 0.0
C1033 C 0.0988 0.53636 0.01353 0.0
C1034 C 0.13997 0.55356 0.04117 0.0
C1035 C 0.16033 0.54451 0.01965 0.0
C1036 C 0.14961 0.53229 0.99465 0.0
C1037 C 0.11897 0.52839 0.99188 0.0
C1038 C 0.15061 0.56681 0.06809 0.0
C1039 C 0.17063 0.52245 0.97122 0.0
H1040 H 0.2488 0.59154 0.0156 0.0
H1041 H 0.25321 0.50855 0.05205 0.0
H1042 H 0.17833 0.58808 0.98303 0.0
H1043 H 0.17279 0.60461 0.01669 0.0
H1044 H 0.20481 0.61239 0.99582 0.0
H1045 H 0.21171 0.481 0.05486 0.0
H1046 H 0.1777 0.50243 0.06161 0.0
H1047 H 0.18435 0.48736 0.02742 0.0
H1048 H 0.09397 0.55566 0.05464 0.0
H1049 H 0.11096 0.51844 0.97293 0.0
H1050 H 0.16423 0.58498 0.06332 0.0
H1051 H 0.16515 0.55107 0.07977 0.0
H1052 H 0.13175 0.57435 0.08196 0.0
H1053 H 0.18466 0.53984 0.9649 0.0
H1054 H 0.15851 0.51508 0.95241 0.0
H1055 H 0.18597 0.50475 0.97872 0.0
C1056 C 0.27494 0.48611 0.52428 0.0
C1057 C 0.26555 0.45899 0.53015 0.0
C1058 C 0.30543 0.49107 0.52243 0.0
C1059 C 0.32708 0.46822 0.52567 0.0
C1060 C 0.31785 0.44064 0.53065 0.0
C1061 C 0.28726 0.43643 0.53324 0.0
C1062 C 0.31447 0.52088 0.51749 0.0
C1063 C 0.3403 0.41563 0.53359 0.0
C1064 C 0.4042 0.47921 0.49648 0.0
C1065 C 0.42013 0.4852 0.52097 0.0
C1066 C 0.3741 0.47282 0.49778 0.0
C1067 C 0.35942 0.47328 0.52414 0.0
C1068 C 0.37547 0.47919 0.54897 0.0
C1069 C 0.40583 0.48469 0.54711 0.0
C1070 C 0.35797 0.46577 0.47097 0.0
C1071 C 0.36036 0.48051 0.57737 0.0
H1072 H 0.25848 0.5036 0.52127 0.0
H1073 H 0.28047 0.41549 0.53833 0.0
H1074 H 0.32911 0.52751 0.53487 0.0
H1075 H 0.32756 0.52167 0.49775 0.0
H1076 H 0.29488 0.53642 0.51604 0.0
H1077 H 0.32939 0.39527 0.53558 0.0
H1078 H 0.35542 0.41418 0.51508 0.0
H1079 H 0.35443 0.41853 0.55244 0.0
H1080 H 0.41536 0.47939 0.47626 0.0
H1081 H 0.41812 0.48955 0.56602 0.0
H1082 H 0.33953 0.48201 0.467 0.0
H1083 H 0.34776 0.44509 0.47303 0.0
H1084 H 0.3731 0.46471 0.45243 0.0
H1085 H 0.34167 0.49709 0.57729 0.0
H1086 H 0.37604 0.48534 0.59462 0.0
H1087 H 0.3506 0.46005 0.5819 0.0
C1088 C 0.94628 0.72048 0.91899 0.0
C1089 C 0.92136 0.72023 0.90103 0.0
C1090 C 0.95796 0.69558 0.93238 0.0
C1091 C 0.94404 0.66967 0.92842 0.0
C1092 C 0.91868 0.66937 0.91049 0.0
C1093 C 0.90794 0.69444 0.89682 0.0
C1094 C 0.98541 0.69698 0.95063 0.0
C1095 C 0.9026 0.64258 0.90602 0.0
C1096 C 0.98749 0.5985 0.94265 0.0
C1097 C 0.97832 0.59207 0.97001 0.0
C1098 C 0.97697 0.62373 0.92916 0.0
C1099 C 0.95603 0.64293 0.9429 0.0
C1100 C 0.94652 0.63644 0.97047 0.0
C1101 C 0.95802 0.6114 0.98376 0.0
C1102 C 0.98843 0.62987 0.90014 0.0
C1103 C 0.92377 0.65576 0.9858 0.0
H1104 H 0.95699 0.74018 0.92225 0.0
H1105 H 0.8885 0.69401 0.88326 0.0
H1106 H 0.98015 0.69099 0.97249 0.0
H1107 H 1.00331 0.68157 0.94288 0.0
H1108 H 0.99417 0.71846 0.951 0.0
H1109 H 0.8828 0.6459 0.89208 0.0
H1110 H 0.91805 0.62586 0.89659 0.0
H1111 H 0.89513 0.63454 0.92655 0.0
H1112 H 1.00325 0.58388 0.93181 0.0
H1113 H 0.95055 0.60663 1.00478 0.0
H1114 H 0.99845 0.65076 0.90012 0.0
H1115 H 0.96961 0.63109 0.88493 0.0
H1116 H 0.00549 0.61344 0.89269 0.0
H1117 H 0.93239 0.6771 0.98851 0.0
H1118 H 0.91815 0.64754 1.00683 0.0
H1119 H 0.90294 0.65835 0.97317 0.0
C1120 C 0.46851 0.72951 0.04743 0.0
C1121 C 0.44283 0.7243 0.06288 0.0
C1122 C 0.47803 0.7571 0.04501 0.0
C1123 C 0.46118 0.77991 0.05806 0.0
C1124 C 0.43517 0.77473 0.07361 0.0
C1125 C 0.42639 0.74693 0.07594 0.0
C1126 C 0.50602 0.76187 0.02848 0.0
C1127 C 0.41638 0.79859 0.08743 0.0
C1128 C 0.49437 0.85069 0.07173 0.0
C1129 C 0.48228 0.86684 0.04939 0.0
C1130 C 0.48839 0.82203 0.07444 0.0
C1131 C 0.46981 0.80943 0.05442 0.0
C1132 C 0.4582 0.82544 0.03147 0.0
C1133 C 0.46475 0.85387 0.02914 0.0
C1134 C 0.50135 0.80544 0.09905 0.0
C1135 C 0.43825 0.81275 0.00971 0.0
H1136 H 0.4814 0.71192 0.03763 0.0
H1137 H 0.40639 0.74289 0.0877 0.0
H1138 H 0.50045 0.7758 0.01032 0.0
H1139 H 0.52209 0.77283 0.04184 0.0
H1140 H 0.51716 0.74172 0.0205 0.0
H1141 H 0.39713 0.79086 0.09923 0.0
H1142 H 0.43027 0.81048 0.10216 0.0
H1143 H 0.40765 0.81373 0.07124 0.0
H1144 H 0.50789 0.86063 0.08744 0.0
H1145 H 0.45599 0.86603 0.0114 0.0
H1146 H 0.51343 0.78559 0.09154 0.0
H1147 H 0.48302 0.79928 0.11297 0.0
H1148 H 0.517 0.81776 0.11165 0.0
H1149 H 0.44973 0.79357 1.0001 0.0
H1150 H 0.43175 0.8279 0.99271 0.0
H1151 H 0.41759 0.80605 0.01991 0.0
C1152 C 0.05352 0.28327 0.51443 0.0
C1153 C 0.04547 0.30394 0.53479 0.0
C1154 C 0.04549 0.25526 0.51746 0.0
C1155 C 0.02916 0.24779 0.5415 0.0
C1156 C 0.01975 0.26885 0.56144 0.0
C1157 C 0.028 0.29671 0.55783 0.0
C1158 C 0.05567 0.2334 0.49559 0.0
C1159 C 1.00236 0.26167 0.58734 0.0
C1160 C 0.99519 0.17634 0.53857 0.0
C1161 C 0.01763 0.15891 0.55145 0.0
C1162 C 0.99807 0.20559 0.53604 0.0
C1163 C 0.02398 0.21758 0.54671 0.0
C1164 C 0.04598 0.20029 0.56097 0.0
C1165 C 0.04256 0.17113 0.56311 0.0
C1166 C 0.97416 0.22337 0.52073 0.0
C1167 C 0.07376 0.21239 0.57294 0.0
H1168 H 0.0668 0.28887 0.4965 0.0
H1169 H 0.02209 0.31252 0.57385 0.0
H1170 H 0.07219 0.21777 0.50504 0.0
H1171 H 0.03646 0.22159 0.48822 0.0
H1172 H 0.06616 0.24305 0.47712 0.0
H1173 H 0.99413 0.28091 0.59926 0.0
H1174 H 0.98295 0.24937 0.58154 0.0
H1175 H 0.01689 0.24819 0.6014 0.0
H1176 H 0.97605 0.16692 0.5292 0.0
H1177 H 0.05978 0.1577 0.57331 0.0
H1178 H 0.9833 0.23079 0.5006 0.0
H1179 H 0.9671 0.24248 0.53335 0.0
H1180 H 0.95415 0.21139 0.51606 0.0
H1181 H 0.08753 0.22021 0.5556 0.0
H1182 H 0.08766 0.19648 0.58507 0.0
H1183 H 0.06759 0.23074 0.58691 0.0
C1184 C 0.56847 0.29972 0.42663 0.0
C1185 C 0.59294 0.29993 0.40816 0.0
C1186 C 0.55743 0.32457 0.44082 0.0
C1187 C 0.57152 0.35034 0.43708 0.0
C1188 C 0.59647 0.35058 0.41869 0.0
C1189 C 0.60661 0.32555 0.40428 0.0
C1190 C 0.5304 0.32331 0.45959 0.0
C1191 C 0.61262 0.37728 0.41438 0.0
C1192 C 0.52862 0.42159 0.45199 0.0
C1193 C 0.53847 0.42852 0.47912 0.0
C1194 C 0.53871 0.39612 0.43841 0.0
C1195 C 0.55982 0.37714 0.45186 0.0
C1196 C 0.56988 0.38401 0.47927 0.0
C1197 C 0.55886 0.40937 0.49267 0.0
C1198 C 0.52674 0.38958 0.40954 0.0
C1199 C 0.59279 0.36481 0.49426 0.0
H1200 H 0.5576 0.28011 0.42963 0.0
H1201 H 0.62573 0.3259 0.39035 0.0
H1202 H 0.53607 0.32968 0.48135 0.0
H1203 H 0.51226 0.33851 0.45215 0.0
H1204 H 0.52177 0.30179 0.46011 0.0
H1205 H 0.63227 0.3738 0.40025 0.0
H1206 H 0.59714 0.39398 0.40522 0.0
H1207 H 0.62033 0.38543 0.43492 0.0
H1208 H 0.51276 0.43608 0.44132 0.0
H1209 H 0.56681 0.41456 0.5135 0.0
H1210 H 0.5168 0.36866 0.40958 0.0
H1211 H 0.54528 0.38826 0.39405 0.0
H1212 H 0.5095 0.40587 0.40241 0.0
H1213 H 0.5843 0.34343 0.49672 0.0
H1214 H 0.59851 0.37313 0.51537 0.0
H1215 H 0.61355 0.36227 0.4815 0.0
loop_
_geom_bond_atom_site_label_1
_geom_bond_atom_site_label_2
_geom_bond_distance
_geom_bond_site_symmetry_2
_ccdc_geom_bond_type
C0 C1 1.386 . S
C0 C2 1.397 . S
C0 H24 0.931 . S
C1 C0 1.386 . S
C1 C5 1.397 . S
C2 C0 1.397 . S
C2 C3 1.384 . S
C2 H25 0.930 . S
C3 C2 1.384 . S
C3 C4 1.377 . S
C3 C6 1.481 . S
C4 C3 1.377 . S
C4 C5 1.389 . S
C4 H26 0.929 . S
C5 C1 1.397 . S
C5 C4 1.389 . S
C5 H27 0.931 . S
C6 C3 1.481 . S
C6 C7 1.387 . S
C6 C11 1.390 . S
C7 C6 1.387 . S
C7 C8 1.401 . S
C7 H28 0.930 . S
C8 C7 1.401 . S
C8 C9 1.376 . S
C8 C17 1.511 . S
C9 C8 1.376 . S
C9 C10 1.392 . S
C9 H30 0.931 . S
C10 C9 1.392 . S
C10 C11 1.361 . S
C10 C12 1.500 . S
C11 C6 1.390 . S
C11 C10 1.361 . S
C11 H29 0.931 . S
C12 C10 1.500 . S
C12 C13 1.371 . S
C12 C14 1.365 . S
C13 C12 1.371 . S
C13 C23 1.386 . S
C13 H31 0.931 . S
C14 C12 1.365 . S
C14 C15 1.409 . S
C14 H32 0.929 . S
C15 C14 1.409 . S
C15 C16 1.380 . S
C15 H33 0.930 . S
C16 C15 1.380 . S
C16 C23 1.357 . S
C17 C8 1.511 . S
C17 C18 1.341 . S
C17 C19 1.371 . S
C18 C17 1.341 . S
C18 C22 1.394 . S
C18 H34 0.930 . S
C19 C17 1.371 . S
C19 C20 1.392 . S
C19 H35 0.931 . S
C20 C19 1.392 . S
C20 C21 1.331 . S
C20 H38 0.932 . S
C21 C20 1.331 . S
C21 C22 1.336 . S
C22 C18 1.394 . S
C22 C21 1.336 . S
C22 H37 0.929 . S
C23 C13 1.386 . S
C23 C16 1.357 . S
C23 H36 0.928 . S
H24 C0 0.931 . S
H25 C2 0.930 . S
H26 C4 0.929 . S
H27 C5 0.931 . S
H28 C7 0.930 . S
H29 C11 0.931 . S
H30 C9 0.931 . S
H31 C13 0.931 . S
H32 C14 0.929 . S
H33 C15 0.930 . S
H34 C18 0.930 . S
H35 C19 0.931 . S
H36 C23 0.928 . S
H37 C22 0.929 . S
H38 C20 0.932 . S
C39 C40 1.386 . S
C39 C41 1.397 . S
C39 H63 0.931 . S
C40 C39 1.386 . S
C40 C44 1.397 . S
C41 C39 1.397 . S
C41 C42 1.384 . S
C41 H64 0.930 . S
C42 C41 1.384 . S
C42 C43 1.377 . S
C42 C45 1.481 . S
C43 C42 1.377 . S
C43 C44 1.389 . S
C43 H65 0.929 . S
C44 C40 1.397 . S
C44 C43 1.389 . S
C44 H66 0.931 . S
C45 C42 1.481 . S
C45 C46 1.387 . S
C45 C50 1.390 . S
C46 C45 1.387 . S
C46 C47 1.401 . S
C46 H67 0.930 . S
C47 C46 1.401 . S
C47 C48 1.376 . S
C47 C56 1.511 . S
C48 C47 1.376 . S
C48 C49 1.392 . S
C48 H69 0.931 . S
C49 C48 1.392 . S
C49 C50 1.361 . S
C49 C51 1.500 . S
C50 C45 1.390 . S
C50 C49 1.361 . S
C50 H68 0.931 . S
C51 C49 1.500 . S
C51 C52 1.371 . S
C51 C53 1.365 . S
C52 C51 1.371 . S
C52 C62 1.386 . S
C52 H70 0.931 . S
C53 C51 1.365 . S
C53 C54 1.409 . S
C53 H71 0.929 . S
C54 C53 1.409 . S
C54 C55 1.380 . S
C54 H72 0.930 . S
C55 C54 1.380 . S
C55 C62 1.357 . S
C56 C47 1.511 . S
C56 C57 1.341 . S
C56 C58 1.371 . S
C57 C56 1.341 . S
C57 C61 1.394 . S
C57 H73 0.930 . S
C58 C56 1.371 . S
C58 C59 1.392 . S
C58 H74 0.931 . S
C59 C58 1.392 . S
C59 C60 1.331 . S
C59 H77 0.932 . S
C60 C59 1.331 . S
C60 C61 1.336 . S
C61 C57 1.394 . S
C61 C60 1.336 . S
C61 H76 0.929 . S
C62 C52 1.386 . S
C62 C55 1.357 . S
C62 H75 0.928 . S
H63 C39 0.931 . S
H64 C41 0.930 . S
H65 C43 0.929 . S
H66 C44 0.931 . S
H67 C46 0.930 . S
H68 C50 0.931 . S
H69 C48 0.931 . S
H70 C52 0.931 . S
H71 C53 0.929 . S
H72 C54 0.930 . S
H73 C57 0.930 . S
H74 C58 0.931 . S
H75 C62 0.928 . S
H76 C61 0.929 . S
H77 C59 0.932 . S
C78 C79 1.386 . S
C78 C80 1.397 . S
C78 H102 0.931 . S
C79 C78 1.386 . S
C79 C83 1.397 . S
C80 C78 1.397 . S
C80 C81 1.384 . S
C80 H103 0.930 . S
C81 C80 1.384 . S
C81 C82 1.377 . S
C81 C84 1.481 . S
C82 C81 1.377 . S
C82 C83 1.389 . S
C82 H104 0.929 . S
C83 C79 1.397 . S
C83 C82 1.389 . S
C83 H105 0.931 . S
C84 C81 1.481 . S
C84 C85 1.387 . S
C84 C89 1.390 . S
C85 C84 1.387 . S
C85 C86 1.401 . S
C85 H106 0.930 . S
C86 C85 1.401 . S
C86 C87 1.376 . S
C86 C95 1.511 . S
C87 C86 1.376 . S
C87 C88 1.392 . S
C87 H108 0.931 . S
C88 C87 1.392 . S
C88 C89 1.361 . S
C88 C90 1.500 . S
C89 C84 1.390 . S
C89 C88 1.361 . S
C89 H107 0.931 . S
C90 C88 1.500 . S
C90 C91 1.371 . S
C90 C92 1.365 . S
C91 C90 1.371 . S
C91 C101 1.386 . S
C91 H109 0.931 . S
C92 C90 1.365 . S
C92 C93 1.409 . S
C92 H110 0.929 . S
C93 C92 1.409 . S
C93 C94 1.380 . S
C93 H111 0.930 . S
C94 C93 1.380 . S
C94 C101 1.357 . S
C95 C86 1.511 . S
C95 C96 1.341 . S
C95 C97 1.371 . S
C96 C95 1.341 . S
C96 C100 1.394 . S
C96 H112 0.930 . S
C97 C95 1.371 . S
C97 C98 1.392 . S
C97 H113 0.931 . S
C98 C97 1.392 . S
C98 C99 1.331 . S
C98 H116 0.932 . S
C99 C98 1.331 . S
C99 C100 1.336 . S
C100 C96 1.394 . S
C100 C99 1.336 . S
C100 H115 0.929 . S
C101 C91 1.386 . S
C101 C94 1.357 . S
C101 H114 0.928 . S
H102 C78 0.931 . S
H103 C80 0.930 . S
H104 C82 0.929 . S
H105 C83 0.931 . S
H106 C85 0.930 . S
H107 C89 0.931 . S
H108 C87 0.931 . S
H109 C91 0.931 . S
H110 C92 0.929 . S
H111 C93 0.930 . S
H112 C96 0.930 . S
H113 C97 0.931 . S
H114 C101 0.928 . S
H115 C100 0.929 . S
H116 C98 0.932 . S
C117 C118 1.386 . S
C117 C119 1.397 . S
C117 H141 0.931 . S
C118 C117 1.386 . S
C118 C122 1.397 . S
C119 C117 1.397 . S
C119 C120 1.384 . S
C119 H142 0.930 . S
C120 C119 1.384 . S
C120 C121 1.377 . S
C120 C123 1.481 . S
C121 C120 1.377 . S
C121 C122 1.389 . S
C121 H143 0.929 . S
C122 C118 1.397 . S
C122 C121 1.389 . S
C122 H144 0.931 . S
C123 C120 1.481 . S
C123 C124 1.387 . S
C123 C128 1.390 . S
C124 C123 1.387 . S
C124 C125 1.401 . S
C124 H145 0.930 . S
C125 C124 1.401 . S
C125 C126 1.376 . S
C125 C134 1.511 . S
C126 C125 1.376 . S
C126 C127 1.392 . S
C126 H147 0.931 . S
C127 C126 1.392 . S
C127 C128 1.361 . S
C127 C129 1.500 . S
C128 C123 1.390 . S
C128 C127 1.361 . S
C128 H146 0.931 . S
C129 C127 1.500 . S
C129 C130 1.371 . S
C129 C131 1.365 . S
C130 C129 1.371 . S
C130 C140 1.386 . S
C130 H148 0.931 . S
C131 C129 1.365 . S
C131 C132 1.409 . S
C131 H149 0.929 . S
C132 C131 1.409 . S
C132 C133 1.380 . S
C132 H150 0.930 . S
C133 C132 1.380 . S
C133 C140 1.357 . S
C134 C125 1.511 . S
C134 C135 1.341 . S
C134 C136 1.371 . S
C135 C134 1.341 . S
C135 C139 1.394 . S
C135 H151 0.930 . S
C136 C134 1.371 . S
C136 C137 1.392 . S
C136 H152 0.931 . S
C137 C136 1.392 . S
C137 C138 1.331 . S
C137 H155 0.932 . S
C138 C137 1.331 . S
C138 C139 1.336 . S
C139 C135 1.394 . S
C139 C138 1.336 . S
C139 H154 0.929 . S
C140 C130 1.386 . S
C140 C133 1.357 . S
C140 H153 0.928 . S
H141 C117 0.931 . S
H142 C119 0.930 . S
H143 C121 0.929 . S
H144 C122 0.931 . S
H145 C124 0.930 . S
H146 C128 0.931 . S
H147 C126 0.931 . S
H148 C130 0.931 . S
H149 C131 0.929 . S
H150 C132 0.930 . S
H151 C135 0.930 . S
H152 C136 0.931 . S
H153 C140 0.928 . S
H154 C139 0.929 . S
H155 C137 0.932 . S
C156 C157 1.386 . S
C156 C158 1.397 . S
C156 H180 0.931 . S
C157 C156 1.386 . S
C157 C161 1.397 . S
C158 C156 1.397 . S
C158 C159 1.384 . S
C158 H181 0.930 . S
C159 C158 1.384 . S
C159 C160 1.377 . S
C159 C162 1.481 . S
C160 C159 1.377 . S
C160 C161 1.389 . S
C160 H182 0.929 . S
C161 C157 1.397 . S
C161 C160 1.389 . S
C161 H183 0.931 . S
C162 C159 1.481 . S
C162 C163 1.387 . S
C162 C167 1.390 . S
C163 C162 1.387 . S
C163 C164 1.401 . S
C163 H184 0.930 . S
C164 C163 1.401 . S
C164 C165 1.376 . S
C164 C173 1.511 . S
C165 C164 1.376 . S
C165 C166 1.392 . S
C165 H186 0.931 . S
C166 C165 1.392 . S
C166 C167 1.361 . S
C166 C168 1.500 . S
C167 C162 1.390 . S
C167 C166 1.361 . S
C167 H185 0.931 . S
C168 C166 1.500 . S
C168 C169 1.371 . S
C168 C170 1.365 . S
C169 C168 1.371 . S
C169 C179 1.386 . S
C169 H187 0.931 . S
C170 C168 1.365 . S
C170 C171 1.409 . S
C170 H188 0.929 . S
C171 C170 1.409 . S
C171 C172 1.380 . S
C171 H189 0.930 . S
C172 C171 1.380 . S
C172 C179 1.357 . S
C173 C164 1.511 . S
C173 C174 1.341 . S
C173 C175 1.371 . S
C174 C173 1.341 . S
C174 C178 1.394 . S
C174 H190 0.930 . S
C175 C173 1.371 . S
C175 C176 1.392 . S
C175 H191 0.931 . S
C176 C175 1.392 . S
C176 C177 1.331 . S
C176 H194 0.932 . S
C177 C176 1.331 . S
C177 C178 1.336 . S
C178 C174 1.394 . S
C178 C177 1.336 . S
C178 H193 0.929 . S
C179 C169 1.386 . S
C179 C172 1.357 . S
C179 H192 0.928 . S
H180 C156 0.931 . S
H181 C158 0.930 . S
H182 C160 0.929 . S
H183 C161 0.931 . S
H184 C163 0.930 . S
H185 C167 0.931 . S
H186 C165 0.931 . S
H187 C169 0.931 . S
H188 C170 0.929 . S
H189 C171 0.930 . S
H190 C174 0.930 . S
H191 C175 0.931 . S
H192 C179 0.928 . S
H193 C178 0.929 . S
H194 C176 0.932 . S
C195 C196 1.386 . S
C195 C197 1.397 . S
C195 H219 0.931 . S
C196 C195 1.386 . S
C196 C200 1.397 . S
C197 C195 1.397 . S
C197 C198 1.384 . S
C197 H220 0.930 . S
C198 C197 1.384 . S
C198 C199 1.377 . S
C198 C201 1.481 . S
C199 C198 1.377 . S
C199 C200 1.389 . S
C199 H221 0.929 . S
C200 C196 1.397 . S
C200 C199 1.389 . S
C200 H222 0.931 . S
C201 C198 1.481 . S
C201 C202 1.387 . S
C201 C206 1.390 . S
C202 C201 1.387 . S
C202 C203 1.401 . S
C202 H223 0.930 . S
C203 C202 1.401 . S
C203 C204 1.376 . S
C203 C212 1.511 . S
C204 C203 1.376 . S
C204 C205 1.392 . S
C204 H225 0.931 . S
C205 C204 1.392 . S
C205 C206 1.361 . S
C205 C207 1.500 . S
C206 C201 1.390 . S
C206 C205 1.361 . S
C206 H224 0.931 . S
C207 C205 1.500 . S
C207 C208 1.371 . S
C207 C209 1.365 . S
C208 C207 1.371 . S
C208 C218 1.386 . S
C208 H226 0.931 . S
C209 C207 1.365 . S
C209 C210 1.409 . S
C209 H227 0.929 . S
C210 C209 1.409 . S
C210 C211 1.380 . S
C210 H228 0.930 . S
C211 C210 1.380 . S
C211 C218 1.357 . S
C212 C203 1.511 . S
C212 C213 1.341 . S
C212 C214 1.371 . S
C213 C212 1.341 . S
C213 C217 1.394 . S
C213 H229 0.930 . S
C214 C212 1.371 . S
C214 C215 1.392 . S
C214 H230 0.931 . S
C215 C214 1.392 . S
C215 C216 1.331 . S
C215 H233 0.932 . S
C216 C215 1.331 . S
C216 C217 1.336 . S
C217 C213 1.394 . S
C217 C216 1.336 . S
C217 H232 0.929 . S
C218 C208 1.386 . S
C218 C211 1.357 . S
C218 H231 0.928 . S
H219 C195 0.931 . S
H220 C197 0.930 . S
H221 C199 0.929 . S
H222 C200 0.931 . S
H223 C202 0.930 . S
H224 C206 0.931 . S
H225 C204 0.931 . S
H226 C208 0.931 . S
H227 C209 0.929 . S
H228 C210 0.930 . S
H229 C213 0.930 . S
H230 C214 0.931 . S
H231 C218 0.928 . S
H232 C217 0.929 . S
H233 C215 0.932 . S
C234 C235 1.386 . S
C234 C236 1.397 . S
C234 H258 0.931 . S
C235 C234 1.386 . S
C235 C239 1.397 . S
C236 C234 1.397 . S
C236 C237 1.384 . S
C236 H259 0.930 . S
C237 C236 1.384 . S
C237 C238 1.377 . S
C237 C240 1.481 . S
C238 C237 1.377 . S
C238 C239 1.389 . S
C238 H260 0.929 . S
C239 C235 1.397 . S
C239 C238 1.389 . S
C239 H261 0.931 . S
C240 C237 1.481 . S
C240 C241 1.387 . S
C240 C245 1.390 . S
C241 C240 1.387 . S
C241 C242 1.401 . S
C241 H262 0.930 . S
C242 C241 1.401 . S
C242 C243 1.376 . S
C242 C251 1.511 . S
C243 C242 1.376 . S
C243 C244 1.392 . S
C243 H264 0.931 . S
C244 C243 1.392 . S
C244 C245 1.361 . S
C244 C246 1.500 . S
C245 C240 1.390 . S
C245 C244 1.361 . S
C245 H263 0.931 . S
C246 C244 1.500 . S
C246 C247 1.371 . S
C246 C248 1.365 . S
C247 C246 1.371 . S
C247 C257 1.386 . S
C247 H265 0.931 . S
C248 C246 1.365 . S
C248 C249 1.409 . S
C248 H266 0.929 . S
C249 C248 1.409 . S
C249 C250 1.380 . S
C249 H267 0.930 . S
C250 C249 1.380 . S
C250 C257 1.357 . S
C251 C242 1.511 . S
C251 C252 1.341 . S
C251 C253 1.371 . S
C252 C251 1.341 . S
C252 C256 1.394 . S
C252 H268 0.930 . S
C253 C251 1.371 . S
C253 C254 1.392 . S
C253 H269 0.931 . S
C254 C253 1.392 . S
C254 C255 1.331 . S
C254 H272 0.932 . S
C255 C254 1.331 . S
C255 C256 1.336 . S
C256 C252 1.394 . S
C256 C255 1.336 . S
C256 H271 0.929 . S
C257 C247 1.386 . S
C257 C250 1.357 . S
C257 H270 0.928 . S
H258 C234 0.931 . S
H259 C236 0.930 . S
H260 C238 0.929 . S
H261 C239 0.931 . S
H262 C241 0.930 . S
H263 C245 0.931 . S
H264 C243 0.931 . S
H265 C247 0.931 . S
H266 C248 0.929 . S
H267 C249 0.930 . S
H268 C252 0.930 . S
H269 C253 0.931 . S
H270 C257 0.928 . S
H271 C256 0.929 . S
H272 C254 0.932 . S
C273 C274 1.386 . S
C273 C275 1.397 . S
C273 H297 0.931 . S
C274 C273 1.386 . S
C274 C278 1.397 . S
C275 C273 1.397 . S
C275 C276 1.384 . S
C275 H298 0.930 . S
C276 C275 1.384 . S
C276 C277 1.377 . S
C276 C279 1.481 . S
C277 C276 1.377 . S
C277 C278 1.389 . S
C277 H299 0.929 . S
C278 C274 1.397 . S
C278 C277 1.389 . S
C278 H300 0.931 . S
C279 C276 1.481 . S
C279 C280 1.387 . S
C279 C284 1.390 . S
C280 C279 1.387 . S
C280 C281 1.401 . S
C280 H301 0.930 . S
C281 C280 1.401 . S
C281 C282 1.376 . S
C281 C290 1.511 . S
C282 C281 1.376 . S
C282 C283 1.392 . S
C282 H303 0.931 . S
C283 C282 1.392 . S
C283 C284 1.361 . S
C283 C285 1.500 . S
C284 C279 1.390 . S
C284 C283 1.361 . S
C284 H302 0.931 . S
C285 C283 1.500 . S
C285 C286 1.371 . S
C285 C287 1.365 . S
C286 C285 1.371 . S
C286 C296 1.386 . S
C286 H304 0.931 . S
C287 C285 1.365 . S
C287 C288 1.409 . S
C287 H305 0.929 . S
C288 C287 1.409 . S
C288 C289 1.380 . S
C288 H306 0.930 . S
C289 C288 1.380 . S
C289 C296 1.357 . S
C290 C281 1.511 . S
C290 C291 1.341 . S
C290 C292 1.371 . S
C291 C290 1.341 . S
C291 C295 1.394 . S
C291 H307 0.930 . S
C292 C290 1.371 . S
C292 C293 1.392 . S
C292 H308 0.931 . S
C293 C292 1.392 . S
C293 C294 1.331 . S
C293 H311 0.932 . S
C294 C293 1.331 . S
C294 C295 1.336 . S
C295 C291 1.394 . S
C295 C294 1.336 . S
C295 H310 0.929 . S
C296 C286 1.386 . S
C296 C289 1.357 . S
C296 H309 0.928 . S
H297 C273 0.931 . S
H298 C275 0.930 . S
H299 C277 0.929 . S
H300 C278 0.931 . S
H301 C280 0.930 . S
H302 C284 0.931 . S
H303 C282 0.931 . S
H304 C286 0.931 . S
H305 C287 0.929 . S
H306 C288 0.930 . S
H307 C291 0.930 . S
H308 C292 0.931 . S
H309 C296 0.928 . S
H310 C295 0.929 . S
H311 C293 0.932 . S
C312 O328 1.251 . S
C312 O330 1.254 1_545 S
N313 C314 1.333 . S
N313 C318 1.307 . S
N313 Zn319 2.020 . S
C314 N313 1.333 . S
C314 C315 1.379 . S
C314 H332 0.952 . S
C315 C314 1.379 . S
C315 C316 1.390 . S
C315 H342 0.949 . S
C316 C315 1.390 . S
C316 C317 1.357 . S
C317 C316 1.357 . S
C317 C318 1.370 . S
C317 H343 0.950 . S
C318 N313 1.307 . S
C318 C317 1.370 . S
C318 H336 0.948 1_455 S
Zn319 N313 2.020 . S
Zn319 O328 2.039 . S
Zn319 O334 2.034 . S
Zn319 O338 2.025 1_455 S
Zn319 O340 2.024 1_455 S
C320 O339 1.246 1_545 S
C320 O340 1.249 . S
N321 C322 1.322 . S
N321 C323 1.333 . S
N321 Zn327 2.020 . S
C322 N321 1.322 . S
C322 C326 1.380 . S
C322 H333 0.922 1_655 S
C323 N321 1.333 . S
C323 C324 1.379 . S
C323 H331 0.952 . S
C324 C323 1.379 . S
C324 C325 1.390 . S
C324 H344 0.949 . S
C325 C324 1.390 . S
C325 C326 1.357 . S
C326 C322 1.380 . S
C326 C325 1.357 . S
C326 H345 0.950 1_655 S
Zn327 N321 2.020 . S
Zn327 O330 2.025 1_655 S
Zn327 O335 2.024 1_655 S
Zn327 O337 2.039 . S
Zn327 O339 2.034 . S
O328 C312 1.251 . S
O328 Zn319 2.039 . S
C329 O334 1.246 1_565 S
C329 O335 1.249 . S
O330 C312 1.254 1_565 S
O330 Zn327 2.025 1_455 S
H331 C323 0.952 . S
H332 C314 0.952 . S
H333 C322 0.922 1_455 S
O334 Zn319 2.034 . S
O334 C329 1.246 1_545 S
O335 Zn327 2.024 1_455 S
O335 C329 1.249 . S
H336 C318 0.948 1_655 S
O337 Zn327 2.039 . S
O337 C341 1.251 . S
O338 Zn319 2.025 1_655 S
O338 C341 1.254 1_545 S
O339 C320 1.246 1_565 S
O339 Zn327 2.034 . S
O340 Zn319 2.024 1_655 S
O340 C320 1.249 . S
C341 O337 1.251 . S
C341 O338 1.254 1_565 S
H342 C315 0.949 . S
H343 C317 0.950 . S
H344 C324 0.949 . S
H345 C326 0.950 1_455 S
C346 O362 1.251 1_565 S
C346 O364 1.254 . S
N347 C348 1.333 . S
N347 C352 1.307 . S
N347 Zn353 2.020 . S
C348 N347 1.333 . S
C348 C349 1.379 . S
C348 H366 0.952 . S
C349 C348 1.379 . S
C349 C350 1.390 . S
C349 H376 0.949 . S
C350 C349 1.390 . S
C350 C351 1.357 . S
C351 C350 1.357 . S
C351 C352 1.370 . S
C351 H377 0.950 . S
C352 N347 1.307 . S
C352 C351 1.370 . S
C352 H370 0.948 . S
Zn353 N347 2.020 . S
Zn353 O362 2.039 . S
Zn353 O368 2.034 1_556 S
Zn353 O372 2.025 1_556 S
Zn353 O374 2.024 . S
C354 O373 1.246 . S
C354 O374 1.249 1_565 S
N355 C356 1.307 . S
N355 C357 1.333 . S
N355 Zn361 2.020 . S
C356 N355 1.307 . S
C356 C360 1.370 . S
C356 H367 0.948 . S
C357 N355 1.333 . S
C357 C358 1.379 . S
C357 H365 0.952 . S
C358 C357 1.379 . S
C358 C359 1.390 . S
C358 H378 0.949 . S
C359 C358 1.390 . S
C359 C360 1.357 . S
C360 C356 1.370 . S
C360 C359 1.357 . S
C360 H379 0.950 . S
Zn361 N355 2.020 . S
Zn361 O364 2.025 1_554 S
Zn361 O369 2.024 . S
Zn361 O371 2.039 . S
Zn361 O373 2.034 1_554 S
O362 C346 1.251 1_545 S
O362 Zn353 2.039 . S
C363 O368 1.246 . S
C363 O369 1.249 1_545 S
O364 C346 1.254 . S
O364 Zn361 2.025 1_556 S
H365 C357 0.952 . S
H366 C348 0.952 . S
H367 C356 0.948 . S
O368 Zn353 2.034 1_554 S
O368 C363 1.246 . S
O369 Zn361 2.024 . S
O369 C363 1.249 1_565 S
H370 C352 0.948 . S
O371 Zn361 2.039 . S
O371 C375 1.251 1_565 S
O372 Zn353 2.025 1_554 S
O372 C375 1.254 . S
O373 C354 1.246 . S
O373 Zn361 2.034 1_556 S
O374 Zn353 2.024 . S
O374 C354 1.249 1_545 S
C375 O371 1.251 1_545 S
C375 O372 1.254 . S
H376 C349 0.949 . S
H377 C351 0.950 . S
H378 C358 0.949 . S
H379 C360 0.950 . S
C380 O396 1.251 . S
C380 O398 1.254 . S
N381 C382 1.333 . S
N381 C386 1.307 . S
N381 Zn387 2.020 . S
C382 N381 1.333 . S
C382 C383 1.379 . S
C382 H400 0.952 . S
C383 C382 1.379 . S
C383 C384 1.390 . S
C383 H410 0.949 . S
C384 C383 1.390 . S
C384 C385 1.357 . S
C385 C384 1.357 . S
C385 C386 1.370 . S
C385 H411 0.950 . S
C386 N381 1.307 . S
C386 C385 1.370 . S
C386 H404 0.948 . S
Zn387 N381 2.020 . S
Zn387 O396 2.039 . S
Zn387 O402 2.034 . S
Zn387 O406 2.025 . S
Zn387 O408 2.024 . S
C388 O407 1.246 . S
C388 O408 1.249 . S
N389 C390 1.307 . S
N389 C391 1.333 . S
N389 Zn395 2.020 . S
C390 N389 1.307 . S
C390 C394 1.370 . S
C390 H401 0.948 . S
C391 N389 1.333 . S
C391 C392 1.379 . S
C391 H399 0.952 . S
C392 C391 1.379 . S
C392 C393 1.390 . S
C392 H412 0.949 . S
C393 C392 1.390 . S
C393 C394 1.357 . S
C394 C390 1.370 . S
C394 C393 1.357 . S
C394 H413 0.950 . S
Zn395 N389 2.020 . S
Zn395 O398 2.025 . S
Zn395 O403 2.024 . S
Zn395 O405 2.039 . S
Zn395 O407 2.034 . S
O396 C380 1.251 . S
O396 Zn387 2.039 . S
C397 O402 1.246 . S
C397 O403 1.249 . S
O398 C380 1.254 . S
O398 Zn395 2.025 . S
H399 C391 0.952 . S
H400 C382 0.952 . S
H401 C390 0.948 . S
O402 Zn387 2.034 . S
O402 C397 1.246 . S
O403 Zn395 2.024 . S
O403 C397 1.249 . S
H404 C386 0.948 . S
O405 Zn395 2.039 . S
O405 C409 1.251 . S
O406 Zn387 2.025 . S
O406 C409 1.254 . S
O407 C388 1.246 . S
O407 Zn395 2.034 . S
O408 Zn387 2.024 . S
O408 C388 1.249 . S
C409 O405 1.251 . S
C409 O406 1.254 . S
H410 C383 0.949 . S
H411 C385 0.950 . S
H412 C392 0.949 . S
H413 C394 0.950 . S
C414 O430 1.251 1_556 S
C414 O432 1.268 . S
N415 C416 1.333 . S
N415 C420 1.307 . S
N415 Zn421 2.020 . S
C416 N415 1.333 . S
C416 C417 1.379 . S
C416 H434 0.952 . S
C417 C416 1.379 . S
C417 C418 1.390 . S
C417 H444 0.949 . S
C418 C417 1.390 . S
C418 C419 1.357 . S
C419 C418 1.357 . S
C419 C420 1.370 . S
C419 H445 0.950 . S
C420 N415 1.307 . S
C420 C419 1.370 . S
C420 H438 0.948 . S
Zn421 N415 2.020 . S
Zn421 O430 2.039 . S
Zn421 O436 2.034 1_655 S
Zn421 O440 2.025 1_655 S
Zn421 O442 2.024 . S
C422 O441 1.246 . S
C422 O442 1.249 1_556 S
N423 C424 1.307 . S
N423 C425 1.333 . S
N423 Zn429 2.020 . S
C424 N423 1.307 . S
C424 C428 1.370 . S
C424 H435 0.948 . S
C425 N423 1.333 . S
C425 C426 1.379 . S
C425 H433 0.952 . S
C426 C425 1.379 . S
C426 C427 1.390 . S
C426 H446 0.949 . S
C427 C426 1.390 . S
C427 C428 1.357 . S
C428 C424 1.370 . S
C428 C427 1.357 . S
C428 H447 0.950 . S
Zn429 N423 2.020 . S
Zn429 O432 2.017 1_455 S
Zn429 O437 2.024 . S
Zn429 O439 2.039 . S
Zn429 O441 2.034 1_455 S
O430 C414 1.251 1_554 S
O430 Zn421 2.039 . S
C431 O436 1.246 . S
C431 O437 1.249 1_554 S
O432 C414 1.268 . S
O432 Zn429 2.017 1_655 S
H433 C425 0.952 . S
H434 C416 0.952 . S
H435 C424 0.948 . S
O436 Zn421 2.034 1_455 S
O436 C431 1.246 . S
O437 Zn429 2.024 . S
O437 C431 1.249 1_556 S
H438 C420 0.948 . S
O439 Zn429 2.039 . S
O439 C443 1.251 1_556 S
O440 Zn421 2.025 1_455 S
O440 C443 1.254 . S
O441 C422 1.246 . S
O441 Zn429 2.034 1_655 S
O442 Zn421 2.024 . S
O442 C422 1.249 1_554 S
C443 O439 1.251 1_554 S
C443 O440 1.254 . S
H444 C417 0.949 . S
H445 C419 0.950 . S
H446 C426 0.949 . S
H447 C428 0.950 . S
C448 C449 1.391 . S
C448 C450 1.394 . S
C448 H464 0.931 . S
C449 C448 1.391 . S
C449 C453 1.376 . S
C450 C448 1.394 . S
C450 C451 1.369 . S
C450 C454 1.531 . S
C451 C450 1.369 . S
C451 C452 1.410 . S
C451 C459 1.503 . S
C452 C451 1.410 . S
C452 C453 1.392 . S
C452 C455 1.511 . S
C453 C449 1.376 . S
C453 C452 1.392 . S
C453 H465 0.929 . S
C454 C450 1.531 . S
C454 H466 0.960 . S
C454 H467 0.962 . S
C454 H468 0.960 . S
C455 C452 1.511 . S
C455 H469 0.961 1_455 S
C455 H470 0.961 . S
C455 H471 0.961 1_455 S
C456 C457 1.370 . S
C456 C458 1.363 . S
C456 H472 0.931 1_545 S
C457 C456 1.370 . S
C457 C461 1.408 . S
C458 C456 1.363 . S
C458 C459 1.370 . S
C458 C462 1.524 . S
C459 C451 1.503 . S
C459 C458 1.370 . S
C459 C460 1.403 . S
C460 C459 1.403 . S
C460 C461 1.404 . S
C460 C463 1.539 . S
C461 C457 1.408 . S
C461 C460 1.404 . S
C461 H473 0.930 . S
C462 C458 1.524 . S
C462 H474 0.956 . S
C462 H475 0.961 . S
C462 H476 0.961 1_545 S
C463 C460 1.539 . S
C463 H477 0.958 . S
C463 H478 0.961 1_455 S
C463 H479 0.960 . S
H464 C448 0.931 . S
H465 C453 0.929 . S
H466 C454 0.960 . S
H467 C454 0.962 . S
H468 C454 0.960 . S
H469 C455 0.961 1_655 S
H470 C455 0.961 . S
H471 C455 0.961 1_655 S
H472 C456 0.931 1_565 S
H473 C461 0.930 . S
H474 C462 0.956 . S
H475 C462 0.961 . S
H476 C462 0.961 1_565 S
H477 C463 0.958 . S
H478 C463 0.961 1_655 S
H479 C463 0.960 . S
C480 C481 1.391 . S
C480 C482 1.394 . S
C480 H496 0.931 . S
C481 C480 1.391 . S
C481 C485 1.376 . S
C482 C480 1.394 . S
C482 C483 1.369 . S
C482 C486 1.555 . S
C483 C482 1.369 . S
C483 C484 1.410 . S
C483 C491 1.503 . S
C484 C483 1.410 . S
C484 C485 1.392 . S
C484 C487 1.511 . S
C485 C481 1.376 . S
C485 C484 1.392 . S
C485 H497 0.929 . S
C486 C482 1.555 . S
C486 H498 0.948 1_565 S
C486 H499 0.969 . S
C486 H500 0.942 1_565 S
C487 C484 1.511 . S
C487 H501 0.961 . S
C487 H502 0.961 . S
C487 H503 0.961 . S
C488 C489 1.370 . S
C488 C490 1.363 . S
C488 H504 0.931 . S
C489 C488 1.370 . S
C489 C493 1.408 . S
C490 C488 1.363 . S
C490 C491 1.370 . S
C490 C494 1.524 . S
C491 C483 1.503 . S
C491 C490 1.370 . S
C491 C492 1.403 . S
C492 C491 1.403 . S
C492 C493 1.404 . S
C492 C495 1.539 . S
C493 C489 1.408 . S
C493 C492 1.404 . S
C493 H505 0.930 1_565 S
C494 C490 1.524 . S
C494 H506 0.956 . S
C494 H507 0.961 . S
C494 H508 0.961 . S
C495 C492 1.539 . S
C495 H509 0.958 1_565 S
C495 H510 0.962 1_565 S
C495 H511 0.960 . S
H496 C480 0.931 . S
H497 C485 0.929 . S
H498 C486 0.948 1_545 S
H499 C486 0.969 . S
H500 C486 0.942 1_545 S
H501 C487 0.961 . S
H502 C487 0.961 . S
H503 C487 0.961 . S
H504 C488 0.931 . S
H505 C493 0.930 1_545 S
H506 C494 0.956 . S
H507 C494 0.961 . S
H508 C494 0.961 . S
H509 C495 0.958 1_545 S
H510 C495 0.962 1_545 S
H511 C495 0.960 . S
C512 C513 1.391 . S
C512 C514 1.394 . S
C512 H528 0.931 . S
C513 C512 1.391 . S
C513 C517 1.376 . S
C514 C512 1.394 . S
C514 C515 1.369 . S
C514 C518 1.531 . S
C515 C514 1.369 . S
C515 C516 1.410 . S
C515 C523 1.503 . S
C516 C515 1.410 . S
C516 C517 1.392 . S
C516 C519 1.511 . S
C517 C513 1.376 . S
C517 C516 1.392 . S
C517 H529 0.929 . S
C518 C514 1.531 . S
C518 H530 0.960 . S
C518 H531 0.962 . S
C518 H532 0.960 . S
C519 C516 1.511 . S
C519 H533 0.961 . S
C519 H534 0.961 . S
C519 H535 0.961 . S
C520 C521 1.370 . S
C520 C522 1.363 . S
C520 H536 0.931 . S
C521 C520 1.370 . S
C521 C525 1.408 . S
C522 C520 1.363 . S
C522 C523 1.370 . S
C522 C526 1.524 . S
C523 C515 1.503 . S
C523 C522 1.370 . S
C523 C524 1.403 . S
C524 C523 1.403 . S
C524 C525 1.404 . S
C524 C527 1.539 . S
C525 C521 1.408 . S
C525 C524 1.404 . S
C525 H537 0.930 . S
C526 C522 1.524 . S
C526 H538 0.956 . S
C526 H539 0.961 . S
C526 H540 0.961 . S
C527 C524 1.539 . S
C527 H541 0.958 . S
C527 H542 0.961 . S
C527 H543 0.960 . S
H528 C512 0.931 . S
H529 C517 0.929 . S
H530 C518 0.960 . S
H531 C518 0.962 . S
H532 C518 0.960 . S
H533 C519 0.961 . S
H534 C519 0.961 . S
H535 C519 0.961 . S
H536 C520 0.931 . S
H537 C525 0.930 . S
H538 C526 0.956 . S
H539 C526 0.961 . S
H540 C526 0.961 . S
H541 C527 0.958 . S
H542 C527 0.961 . S
H543 C527 0.960 . S
C544 C545 1.391 . S
C544 C546 1.394 . S
C544 H560 0.931 . S
C545 C544 1.391 . S
C545 C549 1.376 . S
C546 C544 1.394 . S
C546 C547 1.369 . S
C546 C550 1.531 . S
C547 C546 1.369 . S
C547 C548 1.410 . S
C547 C555 1.503 . S
C548 C547 1.410 . S
C548 C549 1.392 . S
C548 C551 1.511 . S
C549 C545 1.376 . S
C549 C548 1.392 . S
C549 H561 0.929 . S
C550 C546 1.531 . S
C550 H562 0.960 . S
C550 H563 0.962 . S
C550 H564 0.960 . S
C551 C548 1.511 . S
C551 H565 0.961 . S
C551 H566 0.961 . S
C551 H567 0.961 . S
C552 C553 1.370 . S
C552 C554 1.363 . S
C552 H568 0.931 . S
C553 C552 1.370 . S
C553 C557 1.408 . S
C554 C552 1.363 . S
C554 C555 1.370 . S
C554 C558 1.524 . S
C555 C547 1.503 . S
C555 C554 1.370 . S
C555 C556 1.403 . S
C556 C555 1.403 . S
C556 C557 1.404 . S
C556 C559 1.539 . S
C557 C553 1.408 . S
C557 C556 1.404 . S
C557 H569 0.930 . S
C558 C554 1.524 . S
C558 H570 0.956 . S
C558 H571 0.961 . S
C558 H572 0.961 . S
C559 C556 1.539 . S
C559 H573 0.958 . S
C559 H574 0.961 . S
C559 H575 0.960 . S
H560 C544 0.931 . S
H561 C549 0.929 . S
H562 C550 0.960 . S
H563 C550 0.962 . S
H564 C550 0.960 . S
H565 C551 0.961 . S
H566 C551 0.961 . S
H567 C551 0.961 . S
H568 C552 0.931 . S
H569 C557 0.930 . S
H570 C558 0.956 . S
H571 C558 0.961 . S
H572 C558 0.961 . S
H573 C559 0.958 . S
H574 C559 0.961 . S
H575 C559 0.960 . S
C576 C577 1.391 . S
C576 C578 1.394 . S
C576 H592 0.931 . S
C577 C576 1.391 . S
C577 C581 1.376 . S
C578 C576 1.394 . S
C578 C579 1.369 . S
C578 C582 1.531 . S
C579 C578 1.369 . S
C579 C580 1.410 . S
C579 C587 1.503 . S
C580 C579 1.410 . S
C580 C581 1.392 . S
C580 C583 1.511 . S
C581 C577 1.376 . S
C581 C580 1.392 . S
C581 H593 0.929 . S
C582 C578 1.531 . S
C582 H594 0.960 . S
C582 H595 0.962 . S
C582 H596 0.960 . S
C583 C580 1.511 . S
C583 H597 0.961 1_554 S
C583 H598 0.961 . S
C583 H599 0.961 . S
C584 C585 1.370 . S
C584 C586 1.363 . S
C584 H600 0.931 . S
C585 C584 1.370 . S
C585 C589 1.408 . S
C586 C584 1.363 . S
C586 C587 1.370 . S
C586 C590 1.524 . S
C587 C579 1.503 . S
C587 C586 1.370 . S
C587 C588 1.403 . S
C588 C587 1.403 . S
C588 C589 1.404 . S
C588 C591 1.539 1_545 S
C589 C585 1.408 . S
C589 C588 1.404 . S
C589 H601 0.930 1_545 S
C590 C586 1.524 . S
C590 H602 0.956 . S
C590 H603 0.961 . S
C590 H604 0.961 . S
C591 C588 1.539 1_565 S
C591 H605 0.958 . S
C591 H606 0.961 . S
C591 H607 0.960 . S
H592 C576 0.931 . S
H593 C581 0.929 . S
H594 C582 0.960 . S
H595 C582 0.962 . S
H596 C582 0.960 . S
H597 C583 0.961 1_556 S
H598 C583 0.961 . S
H599 C583 0.961 . S
H600 C584 0.931 . S
H601 C589 0.930 1_565 S
H602 C590 0.956 . S
H603 C590 0.961 . S
H604 C590 0.961 . S
H605 C591 0.958 . S
H606 C591 0.961 . S
H607 C591 0.960 . S
C608 C609 1.391 . S
C608 C610 1.394 . S
C608 H624 0.931 . S
C609 C608 1.391 . S
C609 C613 1.376 . S
C610 C608 1.394 . S
C610 C611 1.369 . S
C610 C614 1.531 . S
C611 C610 1.369 . S
C611 C612 1.410 . S
C611 C619 1.503 . S
C612 C611 1.410 . S
C612 C613 1.392 . S
C612 C615 1.511 . S
C613 C609 1.376 . S
C613 C612 1.392 . S
C613 H625 0.929 . S
C614 C610 1.531 . S
C614 H626 0.960 . S
C614 H627 0.962 . S
C614 H628 0.960 . S
C615 C612 1.511 . S
C615 H629 0.961 . S
C615 H630 0.961 . S
C615 H631 0.961 1_565 S
C616 C617 1.370 . S
C616 C618 1.363 . S
C616 H632 0.931 . S
C617 C616 1.370 . S
C617 C621 1.408 . S
C618 C616 1.363 . S
C618 C619 1.370 . S
C618 C622 1.524 . S
C619 C611 1.503 . S
C619 C618 1.370 . S
C619 C620 1.403 . S
C620 C619 1.403 . S
C620 C621 1.404 . S
C620 C623 1.539 1_565 S
C621 C617 1.408 . S
C621 C620 1.404 . S
C621 H633 0.930 1_565 S
C622 C618 1.524 . S
C622 H634 0.956 . S
C622 H635 0.961 . S
C622 H636 0.961 . S
C623 C620 1.539 1_545 S
C623 H637 0.958 . S
C623 H638 0.961 . S
C623 H639 0.960 . S
H624 C608 0.931 . S
H625 C613 0.929 . S
H626 C614 0.960 . S
H627 C614 0.962 . S
H628 C614 0.960 . S
H629 C615 0.961 . S
H630 C615 0.961 . S
H631 C615 0.961 1_545 S
H632 C616 0.931 . S
H633 C621 0.930 1_545 S
H634 C622 0.956 . S
H635 C622 0.961 . S
H636 C622 0.961 . S
H637 C623 0.958 . S
H638 C623 0.961 . S
H639 C623 0.960 . S
C640 C641 1.391 . S
C640 C642 1.394 . S
C640 H656 0.931 . S
C641 C640 1.391 . S
C641 C645 1.376 . S
C642 C640 1.394 . S
C642 C643 1.369 . S
C642 C646 1.531 . S
C643 C642 1.369 . S
C643 C644 1.410 . S
C643 C651 1.503 . S
C644 C643 1.410 . S
C644 C645 1.392 . S
C644 C647 1.511 . S
C645 C641 1.376 . S
C645 C644 1.392 . S
C645 H657 0.929 . S
C646 C642 1.531 . S
C646 H658 0.960 . S
C646 H659 0.962 1_556 S
C646 H660 0.960 . S
C647 C644 1.511 . S
C647 H661 0.961 . S
C647 H662 0.961 . S
C647 H663 0.961 . S
C648 C649 1.370 . S
C648 C650 1.363 . S
C648 H664 0.931 1_556 S
C649 C648 1.370 . S
C649 C653 1.408 . S
C650 C648 1.363 . S
C650 C651 1.370 . S
C650 C654 1.524 1_556 S
C651 C643 1.503 . S
C651 C650 1.370 . S
C651 C652 1.403 . S
C652 C651 1.403 . S
C652 C653 1.404 . S
C652 C655 1.539 . S
C653 C649 1.408 . S
C653 C652 1.404 . S
C653 H665 0.930 . S
C654 C650 1.524 1_554 S
C654 H666 0.956 . S
C654 H667 0.961 1_554 S
C654 H668 0.961 . S
C655 C652 1.539 . S
C655 H669 0.958 . S
C655 H670 0.961 . S
C655 H671 0.960 . S
H656 C640 0.931 . S
H657 C645 0.929 . S
H658 C646 0.960 . S
H659 C646 0.962 1_554 S
H660 C646 0.960 . S
H661 C647 0.961 . S
H662 C647 0.961 . S
H663 C647 0.961 . S
H664 C648 0.931 1_554 S
H665 C653 0.930 . S
H666 C654 0.956 . S
H667 C654 0.961 1_556 S
H668 C654 0.961 . S
H669 C655 0.958 . S
H670 C655 0.961 . S
H671 C655 0.960 . S
C672 C673 1.391 . S
C672 C674 1.394 . S
C672 H688 0.931 . S
C673 C672 1.391 . S
C673 C677 1.376 . S
C674 C672 1.394 . S
C674 C675 1.369 . S
C674 C678 1.531 . S
C675 C674 1.369 . S
C675 C676 1.410 . S
C675 C683 1.503 . S
C676 C675 1.410 . S
C676 C677 1.392 . S
C676 C679 1.511 . S
C677 C673 1.376 . S
C677 C676 1.392 . S
C677 H689 0.929 . S
C678 C674 1.531 . S
C678 H690 0.960 . S
C678 H691 0.962 . S
C678 H692 0.960 . S
C679 C676 1.511 . S
C679 H693 0.961 . S
C679 H694 0.961 . S
C679 H695 0.961 . S
C680 C681 1.370 . S
C680 C682 1.363 . S
C680 H696 0.931 . S
C681 C680 1.370 . S
C681 C685 1.408 . S
C682 C680 1.363 . S
C682 C683 1.370 . S
C682 C686 1.524 . S
C683 C675 1.503 . S
C683 C682 1.370 . S
C683 C684 1.403 . S
C684 C683 1.403 . S
C684 C685 1.404 . S
C684 C687 1.539 . S
C685 C681 1.408 . S
C685 C684 1.404 . S
C685 H697 0.930 . S
C686 C682 1.524 . S
C686 H698 0.956 . S
C686 H699 0.961 . S
C686 H700 0.961 . S
C687 C684 1.539 . S
C687 H701 0.958 . S
C687 H702 0.961 . S
C687 H703 0.960 . S
H688 C672 0.931 . S
H689 C677 0.929 . S
H690 C678 0.960 . S
H691 C678 0.962 . S
H692 C678 0.960 . S
H693 C679 0.961 . S
H694 C679 0.961 . S
H695 C679 0.961 . S
H696 C680 0.931 . S
H697 C685 0.930 . S
H698 C686 0.956 . S
H699 C686 0.961 . S
H700 C686 0.961 . S
H701 C687 0.958 . S
H702 C687 0.961 . S
H703 C687 0.960 . S
C704 C705 1.391 . S
C704 C706 1.394 . S
C704 H720 0.931 . S
C705 C704 1.391 . S
C705 C709 1.376 . S
C706 C704 1.394 . S
C706 C707 1.369 . S
C706 C710 1.531 . S
C707 C706 1.369 . S
C707 C708 1.410 . S
C707 C715 1.503 . S
C708 C707 1.410 . S
C708 C709 1.392 . S
C708 C711 1.505 1_455 S
C709 C705 1.376 . S
C709 C708 1.392 . S
C709 H721 0.929 . S
C710 C706 1.531 . S
C710 H722 0.960 . S
C710 H723 0.962 . S
C710 H724 0.960 . S
C711 C708 1.505 1_655 S
C711 H725 0.962 . S
C711 H726 0.960 1_655 S
C711 H727 0.966 . S
C712 C713 1.370 . S
C712 C714 1.363 . S
C712 H728 0.931 . S
C713 C712 1.370 . S
C713 C717 1.408 . S
C714 C712 1.363 . S
C714 C715 1.370 . S
C714 C718 1.524 . S
C715 C707 1.503 . S
C715 C714 1.370 . S
C715 C716 1.403 . S
C716 C715 1.403 . S
C716 C717 1.404 . S
C716 C719 1.539 . S
C717 C713 1.408 . S
C717 C716 1.404 . S
C717 H729 0.930 1_554 S
C718 C714 1.524 . S
C718 H730 0.956 . S
C718 H731 0.961 . S
C718 H732 0.961 . S
C719 C716 1.539 . S
C719 H733 0.958 1_554 S
C719 H734 0.961 1_454 S
C719 H735 0.960 . S
H720 C704 0.931 . S
H721 C709 0.929 . S
H722 C710 0.960 . S
H723 C710 0.962 . S
H724 C710 0.960 . S
H725 C711 0.962 . S
H726 C711 0.960 1_455 S
H727 C711 0.966 . S
H728 C712 0.931 . S
H729 C717 0.930 1_556 S
H730 C718 0.956 . S
H731 C718 0.961 . S
H732 C718 0.961 . S
H733 C719 0.958 1_556 S
H734 C719 0.961 1_656 S
H735 C719 0.960 . S
C736 C737 1.391 . S
C736 C738 1.394 . S
C736 H752 0.931 . S
C737 C736 1.391 . S
C737 C741 1.376 . S
C738 C736 1.394 . S
C738 C739 1.369 . S
C738 C742 1.531 . S
C739 C738 1.369 . S
C739 C740 1.410 . S
C739 C747 1.503 . S
C740 C739 1.410 . S
C740 C741 1.392 . S
C740 C743 1.511 . S
C741 C737 1.376 . S
C741 C740 1.392 . S
C741 H753 0.929 . S
C742 C738 1.531 . S
C742 H754 0.960 . S
C742 H755 0.962 . S
C742 H756 0.960 1_556 S
C743 C740 1.511 . S
C743 H757 0.961 . S
C743 H758 0.961 . S
C743 H759 0.961 . S
C744 C745 1.370 . S
C744 C746 1.363 . S
C744 H760 0.931 . S
C745 C744 1.370 . S
C745 C749 1.408 . S
C746 C744 1.363 . S
C746 C747 1.370 . S
C746 C750 1.524 . S
C747 C739 1.503 . S
C747 C746 1.370 . S
C747 C748 1.403 . S
C748 C747 1.403 . S
C748 C749 1.404 . S
C748 C751 1.539 1_556 S
C749 C745 1.408 . S
C749 C748 1.404 . S
C749 H761 0.930 . S
C750 C746 1.524 . S
C750 H762 0.956 . S
C750 H763 0.961 . S
C750 H764 0.961 . S
C751 C748 1.539 1_554 S
C751 H765 0.958 . S
C751 H766 0.961 . S
C751 H767 0.960 1_554 S
H752 C736 0.931 . S
H753 C741 0.929 . S
H754 C742 0.960 . S
H755 C742 0.962 . S
H756 C742 0.960 1_554 S
H757 C743 0.961 . S
H758 C743 0.961 . S
H759 C743 0.961 . S
H760 C744 0.931 . S
H761 C749 0.930 . S
H762 C750 0.956 . S
H763 C750 0.961 . S
H764 C750 0.961 . S
H765 C751 0.958 . S
H766 C751 0.961 . S
H767 C751 0.960 1_556 S
C768 C769 1.391 . S
C768 C770 1.394 . S
C768 H784 0.931 . S
C769 C768 1.391 . S
C769 C773 1.376 . S
C770 C768 1.394 . S
C770 C771 1.369 . S
C770 C774 1.531 . S
C771 C770 1.369 . S
C771 C772 1.410 . S
C771 C779 1.503 . S
C772 C771 1.410 . S
C772 C773 1.392 . S
C772 C775 1.511 . S
C773 C769 1.376 . S
C773 C772 1.392 . S
C773 H785 0.929 . S
C774 C770 1.531 . S
C774 H786 0.960 . S
C774 H787 0.962 . S
C774 H788 0.960 . S
C775 C772 1.511 . S
C775 H789 0.961 . S
C775 H790 0.961 . S
C775 H791 0.961 . S
C776 C777 1.370 . S
C776 C778 1.363 . S
C776 H792 0.931 . S
C777 C776 1.370 . S
C777 C781 1.408 . S
C778 C776 1.363 . S
C778 C779 1.370 . S
C778 C782 1.524 . S
C779 C771 1.503 . S
C779 C778 1.370 . S
C779 C780 1.403 . S
C780 C779 1.403 . S
C780 C781 1.404 . S
C780 C783 1.539 . S
C781 C777 1.408 . S
C781 C780 1.404 . S
C781 H793 0.930 . S
C782 C778 1.524 . S
C782 H794 0.956 . S
C782 H795 0.961 . S
C782 H796 0.961 . S
C783 C780 1.539 . S
C783 H797 0.958 . S
C783 H798 0.961 . S
C783 H799 0.960 . S
H784 C768 0.931 . S
H785 C773 0.929 . S
H786 C774 0.960 . S
H787 C774 0.962 . S
H788 C774 0.960 . S
H789 C775 0.961 . S
H790 C775 0.961 . S
H791 C775 0.961 . S
H792 C776 0.931 . S
H793 C781 0.930 . S
H794 C782 0.956 . S
H795 C782 0.961 . S
H796 C782 0.961 . S
H797 C783 0.958 . S
H798 C783 0.961 . S
H799 C783 0.960 . S
C800 C801 1.391 . S
C800 C802 1.394 . S
C800 H816 0.931 . S
C801 C800 1.391 . S
C801 C805 1.376 . S
C802 C800 1.394 . S
C802 C803 1.369 . S
C802 C806 1.531 . S
C803 C802 1.369 . S
C803 C804 1.410 . S
C803 C811 1.503 . S
C804 C803 1.410 . S
C804 C805 1.392 . S
C804 C807 1.511 . S
C805 C801 1.376 . S
C805 C804 1.392 . S
C805 H817 0.929 . S
C806 C802 1.531 . S
C806 H818 0.960 . S
C806 H819 0.962 . S
C806 H820 0.960 . S
C807 C804 1.511 . S
C807 H821 0.961 . S
C807 H822 0.961 . S
C807 H823 0.961 . S
C808 C809 1.370 . S
C808 C810 1.363 . S
C808 H824 0.931 . S
C809 C808 1.370 . S
C809 C813 1.408 . S
C810 C808 1.363 . S
C810 C811 1.370 . S
C810 C814 1.524 . S
C811 C803 1.503 . S
C811 C810 1.370 . S
C811 C812 1.403 . S
C812 C811 1.403 . S
C812 C813 1.404 . S
C812 C815 1.539 . S
C813 C809 1.408 . S
C813 C812 1.404 . S
C813 H825 0.930 . S
C814 C810 1.524 . S
C814 H826 0.956 . S
C814 H827 0.961 . S
C814 H828 0.961 . S
C815 C812 1.539 . S
C815 H829 0.958 . S
C815 H830 0.961 . S
C815 H831 0.960 . S
H816 C800 0.931 . S
H817 C805 0.929 . S
H818 C806 0.960 . S
H819 C806 0.962 . S
H820 C806 0.960 . S
H821 C807 0.961 . S
H822 C807 0.961 . S
H823 C807 0.961 . S
H824 C808 0.931 . S
H825 C813 0.930 . S
H826 C814 0.956 . S
H827 C814 0.961 . S
H828 C814 0.961 . S
H829 C815 0.958 . S
H830 C815 0.961 . S
H831 C815 0.960 . S
C832 C833 1.391 . S
C832 C834 1.394 . S
C832 H848 0.931 . S
C833 C832 1.391 . S
C833 C837 1.376 . S
C834 C832 1.394 . S
C834 C835 1.369 . S
C834 C838 1.521 1_655 S
C835 C834 1.369 . S
C835 C836 1.410 . S
C835 C843 1.503 . S
C836 C835 1.410 . S
C836 C837 1.392 . S
C836 C839 1.511 . S
C837 C833 1.376 . S
C837 C836 1.392 . S
C837 H849 0.929 . S
C838 C834 1.521 1_455 S
C838 H850 0.958 1_455 S
C838 H851 0.970 . S
C838 H852 0.963 . S
C839 C836 1.511 . S
C839 H853 0.961 . S
C839 H854 0.961 . S
C839 H855 0.961 . S
C840 C841 1.370 . S
C840 C842 1.363 . S
C840 H856 0.931 1_565 S
C841 C840 1.370 . S
C841 C845 1.408 . S
C842 C840 1.363 . S
C842 C843 1.370 . S
C842 C846 1.505 1_565 S
C843 C835 1.503 . S
C843 C842 1.370 . S
C843 C844 1.403 . S
C844 C843 1.403 . S
C844 C845 1.404 . S
C844 C847 1.539 . S
C845 C841 1.408 . S
C845 C844 1.404 . S
C845 H857 0.930 . S
C846 C842 1.505 1_545 S
C846 H858 0.939 1_545 S
C846 H859 0.967 . S
C846 H860 0.991 . S
C847 C844 1.539 . S
C847 H861 0.958 . S
C847 H862 0.961 . S
C847 H863 0.960 . S
H848 C832 0.931 . S
H849 C837 0.929 . S
H850 C838 0.958 1_655 S
H851 C838 0.970 . S
H852 C838 0.963 . S
H853 C839 0.961 . S
H854 C839 0.961 . S
H855 C839 0.961 . S
H856 C840 0.931 1_545 S
H857 C845 0.930 . S
H858 C846 0.939 1_565 S
H859 C846 0.967 . S
H860 C846 0.991 . S
H861 C847 0.958 . S
H862 C847 0.961 . S
H863 C847 0.960 . S
C864 C865 1.391 . S
C864 C866 1.394 . S
C864 H880 0.931 . S
C865 C864 1.391 . S
C865 C869 1.376 . S
C866 C864 1.394 . S
C866 C867 1.369 . S
C866 C870 1.531 . S
C867 C866 1.369 . S
C867 C868 1.410 . S
C867 C875 1.503 . S
C868 C867 1.410 . S
C868 C869 1.392 . S
C868 C871 1.511 . S
C869 C865 1.376 . S
C869 C868 1.392 . S
C869 H881 0.929 . S
C870 C866 1.531 . S
C870 H882 0.960 . S
C870 H883 0.962 . S
C870 H884 0.960 . S
C871 C868 1.511 . S
C871 H885 0.961 . S
C871 H886 0.961 . S
C871 H887 0.961 . S
C872 C873 1.370 . S
C872 C874 1.363 . S
C872 H888 0.931 . S
C873 C872 1.370 . S
C873 C877 1.408 . S
C874 C872 1.363 . S
C874 C875 1.370 . S
C874 C878 1.524 . S
C875 C867 1.503 . S
C875 C874 1.370 . S
C875 C876 1.403 . S
C876 C875 1.403 . S
C876 C877 1.404 . S
C876 C879 1.539 1_545 S
C877 C873 1.408 . S
C877 C876 1.404 . S
C877 H889 0.930 1_545 S
C878 C874 1.524 . S
C878 H890 0.956 . S
C878 H891 0.961 . S
C878 H892 0.961 . S
C879 C876 1.539 1_565 S
C879 H893 0.958 . S
C879 H894 0.961 . S
C879 H895 0.960 . S
H880 C864 0.931 . S
H881 C869 0.929 . S
H882 C870 0.960 . S
H883 C870 0.962 . S
H884 C870 0.960 . S
H885 C871 0.961 . S
H886 C871 0.961 . S
H887 C871 0.961 . S
H888 C872 0.931 . S
H889 C877 0.930 1_565 S
H890 C878 0.956 . S
H891 C878 0.961 . S
H892 C878 0.961 . S
H893 C879 0.958 . S
H894 C879 0.961 . S
H895 C879 0.960 . S
C896 C897 1.391 . S
C896 C898 1.394 . S
C896 H912 0.931 . S
C897 C896 1.391 . S
C897 C901 1.376 . S
C898 C896 1.394 . S
C898 C899 1.369 . S
C898 C902 1.531 . S
C899 C898 1.369 . S
C899 C900 1.410 . S
C899 C907 1.503 . S
C900 C899 1.410 . S
C900 C901 1.392 . S
C900 C903 1.511 . S
C901 C897 1.376 . S
C901 C900 1.392 . S
C901 H913 0.929 . S
C902 C898 1.531 . S
C902 H914 0.960 . S
C902 H915 0.962 . S
C902 H916 0.960 . S
C903 C900 1.511 . S
C903 H917 0.961 . S
C903 H918 0.961 . S
C903 H919 0.961 . S
C904 C905 1.370 . S
C904 C906 1.363 . S
C904 H920 0.931 . S
C905 C904 1.370 . S
C905 C909 1.408 . S
C906 C904 1.363 . S
C906 C907 1.370 . S
C906 C910 1.524 . S
C907 C899 1.503 . S
C907 C906 1.370 . S
C907 C908 1.403 . S
C908 C907 1.403 . S
C908 C909 1.404 . S
C908 C911 1.539 . S
C909 C905 1.408 . S
C909 C908 1.404 . S
C909 H921 0.930 . S
C910 C906 1.524 . S
C910 H922 0.956 . S
C910 H923 0.961 . S
C910 H924 0.961 . S
C911 C908 1.539 . S
C911 H925 0.958 . S
C911 H926 0.961 . S
C911 H927 0.960 . S
H912 C896 0.931 . S
H913 C901 0.929 . S
H914 C902 0.960 . S
H915 C902 0.962 . S
H916 C902 0.960 . S
H917 C903 0.961 . S
H918 C903 0.961 . S
H919 C903 0.961 . S
H920 C904 0.931 . S
H921 C909 0.930 . S
H922 C910 0.956 . S
H923 C910 0.961 . S
H924 C910 0.961 . S
H925 C911 0.958 . S
H926 C911 0.961 . S
H927 C911 0.960 . S
C928 C929 1.391 . S
C928 C930 1.394 . S
C928 H944 0.931 . S
C929 C928 1.391 . S
C929 C933 1.376 . S
C930 C928 1.394 . S
C930 C931 1.369 . S
C930 C934 1.531 . S
C931 C930 1.369 . S
C931 C932 1.410 . S
C931 C939 1.503 . S
C932 C931 1.410 . S
C932 C933 1.392 . S
C932 C935 1.511 . S
C933 C929 1.376 . S
C933 C932 1.392 . S
C933 H945 0.929 . S
C934 C930 1.531 . S
C934 H946 0.960 . S
C934 H947 0.962 . S
C934 H948 0.960 . S
C935 C932 1.511 . S
C935 H949 0.961 . S
C935 H950 0.961 . S
C935 H951 0.961 . S
C936 C937 1.370 . S
C936 C938 1.363 . S
C936 H952 0.931 . S
C937 C936 1.370 . S
C937 C941 1.408 . S
C938 C936 1.363 . S
C938 C939 1.370 . S
C938 C942 1.524 . S
C939 C931 1.503 . S
C939 C938 1.370 . S
C939 C940 1.403 . S
C940 C939 1.403 . S
C940 C941 1.404 . S
C940 C943 1.539 . S
C941 C937 1.408 . S
C941 C940 1.404 . S
C941 H953 0.930 . S
C942 C938 1.524 . S
C942 H954 0.956 . S
C942 H955 0.961 . S
C942 H956 0.961 . S
C943 C940 1.539 . S
C943 H957 0.958 . S
C943 H958 0.961 . S
C943 H959 0.960 . S
H944 C928 0.931 . S
H945 C933 0.929 . S
H946 C934 0.960 . S
H947 C934 0.962 . S
H948 C934 0.960 . S
H949 C935 0.961 . S
H950 C935 0.961 . S
H951 C935 0.961 . S
H952 C936 0.931 . S
H953 C941 0.930 . S
H954 C942 0.956 . S
H955 C942 0.961 . S
H956 C942 0.961 . S
H957 C943 0.958 . S
H958 C943 0.961 . S
H959 C943 0.960 . S
C960 C961 1.391 . S
C960 C962 1.394 . S
C960 H976 0.931 . S
C961 C960 1.391 . S
C961 C965 1.376 . S
C962 C960 1.394 . S
C962 C963 1.369 . S
C962 C966 1.531 . S
C963 C962 1.369 . S
C963 C964 1.410 . S
C963 C971 1.503 . S
C964 C963 1.410 . S
C964 C965 1.392 . S
C964 C967 1.511 . S
C965 C961 1.376 . S
C965 C964 1.392 . S
C965 H977 0.929 . S
C966 C962 1.531 . S
C966 H978 0.960 1_565 S
C966 H979 0.962 . S
C966 H980 0.960 1_565 S
C967 C964 1.511 . S
C967 H981 0.961 . S
C967 H982 0.961 . S
C967 H983 0.961 . S
C968 C969 1.370 . S
C968 C970 1.363 . S
C968 H984 0.927 1_556 S
C969 C968 1.370 . S
C969 C973 1.408 . S
C970 C968 1.363 . S
C970 C971 1.370 . S
C970 C974 1.524 . S
C971 C963 1.503 . S
C971 C970 1.370 . S
C971 C972 1.403 . S
C972 C971 1.403 . S
C972 C973 1.404 . S
C972 C975 1.539 1_565 S
C973 C969 1.408 . S
C973 C972 1.404 . S
C973 H985 0.930 1_565 S
C974 C970 1.524 . S
C974 H986 0.974 . S
C974 H987 0.961 . S
C974 H988 0.961 1_556 S
C975 C972 1.539 1_545 S
C975 H989 0.958 . S
C975 H990 0.961 . S
C975 H991 0.960 1_545 S
H976 C960 0.931 . S
H977 C965 0.929 . S
H978 C966 0.960 1_545 S
H979 C966 0.962 . S
H980 C966 0.960 1_545 S
H981 C967 0.961 . S
H982 C967 0.961 . S
H983 C967 0.961 . S
H984 C968 0.927 1_554 S
H985 C973 0.930 1_545 S
H986 C974 0.974 . S
H987 C974 0.961 . S
H988 C974 0.961 1_554 S
H989 C975 0.958 . S
H990 C975 0.961 . S
H991 C975 0.960 1_565 S
C992 C993 1.391 . S
C992 C994 1.394 . S
C992 H1008 0.931 . S
C993 C992 1.391 . S
C993 C997 1.376 . S
C994 C992 1.394 . S
C994 C995 1.369 . S
C994 C998 1.531 . S
C995 C994 1.369 . S
C995 C996 1.410 . S
C995 C1003 1.503 . S
C996 C995 1.410 . S
C996 C997 1.392 . S
C996 C999 1.511 . S
C997 C993 1.376 . S
C997 C996 1.392 . S
C997 H1009 0.929 . S
C998 C994 1.531 . S
C998 H1010 0.960 . S
C998 H1011 0.962 . S
C998 H1012 0.960 . S
C999 C996 1.511 . S
C999 H1013 0.961 . S
C999 H1014 0.961 . S
C999 H1015 0.961 . S
C1000 C1001 1.370 . S
C1000 C1002 1.363 . S
C1000 H1016 0.931 . S
C1001 C1000 1.370 . S
C1001 C1005 1.408 . S
C1002 C1000 1.363 . S
C1002 C1003 1.370 . S
C1002 C1006 1.524 . S
C1003 C995 1.503 . S
C1003 C1002 1.370 . S
C1003 C1004 1.403 . S
C1004 C1003 1.403 . S
C1004 C1005 1.404 . S
C1004 C1007 1.539 1_545 S
C1005 C1001 1.408 . S
C1005 C1004 1.404 . S
C1005 H1017 0.930 1_545 S
C1006 C1002 1.524 . S
C1006 H1018 0.956 . S
C1006 H1019 0.961 . S
C1006 H1020 0.961 . S
C1007 C1004 1.539 1_565 S
C1007 H1021 0.958 . S
C1007 H1022 0.961 . S
C1007 H1023 0.960 1_565 S
H1008 C992 0.931 . S
H1009 C997 0.929 . S
H1010 C998 0.960 . S
H1011 C998 0.962 . S
H1012 C998 0.960 . S
H1013 C999 0.961 . S
H1014 C999 0.961 . S
H1015 C999 0.961 . S
H1016 C1000 0.931 . S
H1017 C1005 0.930 1_565 S
H1018 C1006 0.956 . S
H1019 C1006 0.961 . S
H1020 C1006 0.961 . S
H1021 C1007 0.958 . S
H1022 C1007 0.961 . S
H1023 C1007 0.960 1_545 S
C1024 C1025 1.391 . S
C1024 C1026 1.394 . S
C1024 H1040 0.931 . S
C1025 C1024 1.391 . S
C1025 C1029 1.376 . S
C1026 C1024 1.394 . S
C1026 C1027 1.369 . S
C1026 C1030 1.531 1_554 S
C1027 C1026 1.369 . S
C1027 C1028 1.410 . S
C1027 C1035 1.503 . S
C1028 C1027 1.410 . S
C1028 C1029 1.392 . S
C1028 C1031 1.511 . S
C1029 C1025 1.376 . S
C1029 C1028 1.392 . S
C1029 H1041 0.929 . S
C1030 C1026 1.531 1_556 S
C1030 H1042 0.960 . S
C1030 H1043 0.962 . S
C1030 H1044 0.960 . S
C1031 C1028 1.511 . S
C1031 H1045 0.961 . S
C1031 H1046 0.961 . S
C1031 H1047 0.961 . S
C1032 C1033 1.370 . S
C1032 C1034 1.363 . S
C1032 H1048 0.931 . S
C1033 C1032 1.370 . S
C1033 C1037 1.408 . S
C1034 C1032 1.363 . S
C1034 C1035 1.370 . S
C1034 C1038 1.524 . S
C1035 C1027 1.503 . S
C1035 C1034 1.370 . S
C1035 C1036 1.403 . S
C1036 C1035 1.403 . S
C1036 C1037 1.404 . S
C1036 C1039 1.539 . S
C1037 C1033 1.408 . S
C1037 C1036 1.404 . S
C1037 H1049 0.930 . S
C1038 C1034 1.524 . S
C1038 H1050 0.956 . S
C1038 H1051 0.961 . S
C1038 H1052 0.961 . S
C1039 C1036 1.539 . S
C1039 H1053 0.958 . S
C1039 H1054 0.961 . S
C1039 H1055 0.960 . S
H1040 C1024 0.931 . S
H1041 C1029 0.929 . S
H1042 C1030 0.960 . S
H1043 C1030 0.962 . S
H1044 C1030 0.960 . S
H1045 C1031 0.961 . S
H1046 C1031 0.961 . S
H1047 C1031 0.961 . S
H1048 C1032 0.931 . S
H1049 C1037 0.930 . S
H1050 C1038 0.956 . S
H1051 C1038 0.961 . S
H1052 C1038 0.961 . S
H1053 C1039 0.958 . S
H1054 C1039 0.961 . S
H1055 C1039 0.960 . S
C1056 C1057 1.391 . S
C1056 C1058 1.394 . S
C1056 H1072 0.931 . S
C1057 C1056 1.391 . S
C1057 C1061 1.376 . S
C1058 C1056 1.394 . S
C1058 C1059 1.369 . S
C1058 C1062 1.531 . S
C1059 C1058 1.369 . S
C1059 C1060 1.410 . S
C1059 C1067 1.503 . S
C1060 C1059 1.410 . S
C1060 C1061 1.392 . S
C1060 C1063 1.511 . S
C1061 C1057 1.376 . S
C1061 C1060 1.392 . S
C1061 H1073 0.929 . S
C1062 C1058 1.531 . S
C1062 H1074 0.960 . S
C1062 H1075 0.962 . S
C1062 H1076 0.960 . S
C1063 C1060 1.511 . S
C1063 H1077 0.961 . S
C1063 H1078 0.961 . S
C1063 H1079 0.961 . S
C1064 C1065 1.370 . S
C1064 C1066 1.363 . S
C1064 H1080 0.931 . S
C1065 C1064 1.370 . S
C1065 C1069 1.408 . S
C1066 C1064 1.363 . S
C1066 C1067 1.370 . S
C1066 C1070 1.524 . S
C1067 C1059 1.503 . S
C1067 C1066 1.370 . S
C1067 C1068 1.403 . S
C1068 C1067 1.403 . S
C1068 C1069 1.404 . S
C1068 C1071 1.539 . S
C1069 C1065 1.408 . S
C1069 C1068 1.404 . S
C1069 H1081 0.930 . S
C1070 C1066 1.524 . S
C1070 H1082 0.956 . S
C1070 H1083 0.961 . S
C1070 H1084 0.961 . S
C1071 C1068 1.539 . S
C1071 H1085 0.958 . S
C1071 H1086 0.961 . S
C1071 H1087 0.960 . S
H1072 C1056 0.931 . S
H1073 C1061 0.929 . S
H1074 C1062 0.960 . S
H1075 C1062 0.962 . S
H1076 C1062 0.960 . S
H1077 C1063 0.961 . S
H1078 C1063 0.961 . S
H1079 C1063 0.961 . S
H1080 C1064 0.931 . S
H1081 C1069 0.930 . S
H1082 C1070 0.956 . S
H1083 C1070 0.961 . S
H1084 C1070 0.961 . S
H1085 C1071 0.958 . S
H1086 C1071 0.961 . S
H1087 C1071 0.960 . S
C1088 C1089 1.391 . S
C1088 C1090 1.394 . S
C1088 H1104 0.931 . S
C1089 C1088 1.391 . S
C1089 C1093 1.376 . S
C1090 C1088 1.394 . S
C1090 C1091 1.369 . S
C1090 C1094 1.553 . S
C1091 C1090 1.369 . S
C1091 C1092 1.410 . S
C1091 C1099 1.503 . S
C1092 C1091 1.410 . S
C1092 C1093 1.392 . S
C1092 C1095 1.511 . S
C1093 C1089 1.376 . S
C1093 C1092 1.392 . S
C1093 H1105 0.929 . S
C1094 C1090 1.553 . S
C1094 H1106 0.957 1_556 S
C1094 H1107 0.954 1_556 S
C1094 H1108 0.949 1_556 S
C1095 C1092 1.511 . S
C1095 H1109 0.961 . S
C1095 H1110 0.961 . S
C1095 H1111 0.961 . S
C1096 C1097 1.370 . S
C1096 C1098 1.363 . S
C1096 H1112 0.931 1_655 S
C1097 C1096 1.370 . S
C1097 C1101 1.408 . S
C1098 C1096 1.363 . S
C1098 C1099 1.370 . S
C1098 C1102 1.524 1_655 S
C1099 C1091 1.503 . S
C1099 C1098 1.370 . S
C1099 C1100 1.403 . S
C1100 C1099 1.403 . S
C1100 C1101 1.404 . S
C1100 C1103 1.539 . S
C1101 C1097 1.408 . S
C1101 C1100 1.404 . S
C1101 H1113 0.930 . S
C1102 C1098 1.524 1_455 S
C1102 H1114 0.956 . S
C1102 H1115 0.961 . S
C1102 H1116 0.961 . S
C1103 C1100 1.539 . S
C1103 H1117 0.958 . S
C1103 H1118 0.961 . S
C1103 H1119 0.960 . S
H1104 C1088 0.931 . S
H1105 C1093 0.929 . S
H1106 C1094 0.957 1_554 S
H1107 C1094 0.954 1_554 S
H1108 C1094 0.949 1_554 S
H1109 C1095 0.961 . S
H1110 C1095 0.961 . S
H1111 C1095 0.961 . S
H1112 C1096 0.931 1_455 S
H1113 C1101 0.930 . S
H1114 C1102 0.956 . S
H1115 C1102 0.961 . S
H1116 C1102 0.961 . S
H1117 C1103 0.958 . S
H1118 C1103 0.961 . S
H1119 C1103 0.960 . S
C1120 C1121 1.391 . S
C1120 C1122 1.394 . S
C1120 H1136 0.931 . S
C1121 C1120 1.391 . S
C1121 C1125 1.376 . S
C1122 C1120 1.394 . S
C1122 C1123 1.369 . S
C1122 C1126 1.531 . S
C1123 C1122 1.369 . S
C1123 C1124 1.410 . S
C1123 C1131 1.503 . S
C1124 C1123 1.410 . S
C1124 C1125 1.392 . S
C1124 C1127 1.511 . S
C1125 C1121 1.376 . S
C1125 C1124 1.392 . S
C1125 H1137 0.929 . S
C1126 C1122 1.531 . S
C1126 H1138 0.960 . S
C1126 H1139 0.962 . S
C1126 H1140 0.960 . S
C1127 C1124 1.511 . S
C1127 H1141 0.961 . S
C1127 H1142 0.961 . S
C1127 H1143 0.961 . S
C1128 C1129 1.370 . S
C1128 C1130 1.363 . S
C1128 H1144 0.931 . S
C1129 C1128 1.370 . S
C1129 C1133 1.408 . S
C1130 C1128 1.363 . S
C1130 C1131 1.370 . S
C1130 C1134 1.524 . S
C1131 C1123 1.503 . S
C1131 C1130 1.370 . S
C1131 C1132 1.403 . S
C1132 C1131 1.403 . S
C1132 C1133 1.404 . S
C1132 C1135 1.539 1_554 S
C1133 C1129 1.408 . S
C1133 C1132 1.404 . S
C1133 H1145 0.930 . S
C1134 C1130 1.524 . S
C1134 H1146 0.956 . S
C1134 H1147 0.961 . S
C1134 H1148 0.961 . S
C1135 C1132 1.539 1_556 S
C1135 H1149 0.958 . S
C1135 H1150 0.961 . S
C1135 H1151 0.960 . S
H1136 C1120 0.931 . S
H1137 C1125 0.929 . S
H1138 C1126 0.960 . S
H1139 C1126 0.962 . S
H1140 C1126 0.960 . S
H1141 C1127 0.961 . S
H1142 C1127 0.961 . S
H1143 C1127 0.961 . S
H1144 C1128 0.931 . S
H1145 C1133 0.930 . S
H1146 C1134 0.956 . S
H1147 C1134 0.961 . S
H1148 C1134 0.961 . S
H1149 C1135 0.958 . S
H1150 C1135 0.961 . S
H1151 C1135 0.960 . S
C1152 C1153 1.391 . S
C1152 C1154 1.394 . S
C1152 H1168 0.931 . S
C1153 C1152 1.391 . S
C1153 C1157 1.376 . S
C1154 C1152 1.394 . S
C1154 C1155 1.369 . S
C1154 C1158 1.531 . S
C1155 C1154 1.369 . S
C1155 C1156 1.410 . S
C1155 C1163 1.503 . S
C1156 C1155 1.410 . S
C1156 C1157 1.392 . S
C1156 C1159 1.511 . S
C1157 C1153 1.376 . S
C1157 C1156 1.392 . S
C1157 H1169 0.929 . S
C1158 C1154 1.531 . S
C1158 H1170 0.960 . S
C1158 H1171 0.962 . S
C1158 H1172 0.960 . S
C1159 C1156 1.511 . S
C1159 H1173 0.961 . S
C1159 H1174 0.961 . S
C1159 H1175 0.961 . S
C1160 C1161 1.370 . S
C1160 C1162 1.363 . S
C1160 H1176 0.931 . S
C1161 C1160 1.370 . S
C1161 C1165 1.408 . S
C1162 C1160 1.363 . S
C1162 C1163 1.370 . S
C1162 C1166 1.524 . S
C1163 C1155 1.503 . S
C1163 C1162 1.370 . S
C1163 C1164 1.403 . S
C1164 C1163 1.403 . S
C1164 C1165 1.404 . S
C1164 C1167 1.539 . S
C1165 C1161 1.408 . S
C1165 C1164 1.404 . S
C1165 H1177 0.930 . S
C1166 C1162 1.524 . S
C1166 H1178 0.956 . S
C1166 H1179 0.961 . S
C1166 H1180 0.961 . S
C1167 C1164 1.539 . S
C1167 H1181 0.958 . S
C1167 H1182 0.961 . S
C1167 H1183 0.960 . S
H1168 C1152 0.931 . S
H1169 C1157 0.929 . S
H1170 C1158 0.960 . S
H1171 C1158 0.962 . S
H1172 C1158 0.960 . S
H1173 C1159 0.961 . S
H1174 C1159 0.961 . S
H1175 C1159 0.961 . S
H1176 C1160 0.931 . S
H1177 C1165 0.930 . S
H1178 C1166 0.956 . S
H1179 C1166 0.961 . S
H1180 C1166 0.961 . S
H1181 C1167 0.958 . S
H1182 C1167 0.961 . S
H1183 C1167 0.960 . S
C1184 C1185 1.391 . S
C1184 C1186 1.394 . S
C1184 H1200 0.931 . S
C1185 C1184 1.391 . S
C1185 C1189 1.376 . S
C1186 C1184 1.394 . S
C1186 C1187 1.369 . S
C1186 C1190 1.531 . S
C1187 C1186 1.369 . S
C1187 C1188 1.410 . S
C1187 C1195 1.503 . S
C1188 C1187 1.410 . S
C1188 C1189 1.392 . S
C1188 C1191 1.511 . S
C1189 C1185 1.376 . S
C1189 C1188 1.392 . S
C1189 H1201 0.929 . S
C1190 C1186 1.531 . S
C1190 H1202 0.960 . S
C1190 H1203 0.962 . S
C1190 H1204 0.960 . S
C1191 C1188 1.511 . S
C1191 H1205 0.961 . S
C1191 H1206 0.961 . S
C1191 H1207 0.961 . S
C1192 C1193 1.370 . S
C1192 C1194 1.363 . S
C1192 H1208 0.931 . S
C1193 C1192 1.370 . S
C1193 C1197 1.408 . S
C1194 C1192 1.363 . S
C1194 C1195 1.370 . S
C1194 C1198 1.524 . S
C1195 C1187 1.503 . S
C1195 C1194 1.370 . S
C1195 C1196 1.403 . S
C1196 C1195 1.403 . S
C1196 C1197 1.404 . S
C1196 C1199 1.539 . S
C1197 C1193 1.408 . S
C1197 C1196 1.404 . S
C1197 H1209 0.930 . S
C1198 C1194 1.524 . S
C1198 H1210 0.956 . S
C1198 H1211 0.961 . S
C1198 H1212 0.961 . S
C1199 C1196 1.539 . S
C1199 H1213 0.958 . S
C1199 H1214 0.961 . S
C1199 H1215 0.960 . S
H1200 C1184 0.931 . S
H1201 C1189 0.929 . S
H1202 C1190 0.960 . S
H1203 C1190 0.962 . S
H1204 C1190 0.960 . S
H1205 C1191 0.961 . S
H1206 C1191 0.961 . S
H1207 C1191 0.961 . S
H1208 C1192 0.931 . S
H1209 C1197 0.930 . S
H1210 C1198 0.956 . S
H1211 C1198 0.961 . S
H1212 C1198 0.961 . S
H1213 C1199 0.958 . S
H1214 C1199 0.961 . S
H1215 C1199 0.960 . S
C449 C1 2.330 . S
C457 C312 2.349 . S
C481 C40 2.271 . S
C489 C354 2.301 . S
C521 C384 1.027 . S
C513 C99 0.980 . S
C545 C118 1.054 . S
C553 C418 1.073 . S
C585 C375 1.886 . S
C577 C16 1.874 . S
C617 C329 1.872 . S
C609 C60 1.858 . S
C649 C422 1.401 . S
C641 C79 1.351 . S
C681 C388 1.412 . S
C673 C138 1.409 . S
C705 C21 2.221 . S
C713 C443 2.226 . S
C745 C350 1.159 . S
C737 C94 1.186 . S
C769 C133 1.103 . S
C777 C325 1.154 . S
C801 C55 2.173 . S
C809 C409 2.203 . S
C841 C341 2.354 . S
C833 C157 2.320 . S
C865 C196 2.287 . S
C873 C363 2.300 . S
C897 C255 1.039 . S
C905 C393 1.001 . S
C929 C289 1.026 . S
C937 C427 1.079 . S
C961 C172 1.871 . S
C969 C346 1.887 . S
C1001 C320 1.875 . S
C993 C216 1.870 . S
C1033 C431 1.399 . S
C1025 C235 1.387 . S
C1065 C397 1.420 . S
C1057 C294 1.367 . S
C1089 C177 2.190 . S
C1097 C414 2.231 . S
C1129 C359 1.164 . S
C1121 C250 1.183 . S
C1161 C316 1.154 . S
C1153 C274 1.139 . S
C1185 C211 2.168 . S
C1193 C380 2.199 . S
