# Generated by pormake.
# Topology pyr, (3,6)-cn, num edge types: 1
# Building blocks:
#     Node 0, Type 0, BuildingBlock: CUQRIR_clean_linker_1, # of connection points: 3
#     Node 1, Type 0, BuildingBlock: CUQRIR_clean_linker_1, # of connection points: 3
#     Node 2, Type 0, BuildingBlock: CUQRIR_clean_linker_1, # of connection points: 3
#     Node 3, Type 0, BuildingBlock: CUQRIR_clean_linker_1, # of connection points: 3
#     Node 4, Type 0, BuildingBlock: CUQRIR_clean_linker_1, # of connection points: 3
#     Node 5, Type 0, BuildingBlock: CUQRIR_clean_linker_1, # of connection points: 3
#     Node 6, Type 0, BuildingBlock: CUQRIR_clean_linker_1, # of connection points: 3
#     Node 7, Type 0, BuildingBlock: CUQRIR_clean_linker_1, # of connection points: 3
#     Node 8, Type 1, BuildingBlock: FUNLAD_clean_sbu_0, # of connection points: 6
#     Node 9, Type 1, BuildingBlock: FUNLAD_clean_sbu_0, # of connection points: 6
#     Node 10, Type 1, BuildingBlock: FUNLAD_clean_sbu_0, # of connection points: 6
#     Node 11, Type 1, BuildingBlock: FUNLAD_clean_sbu_0, # of connection points: 6
#     Edge 12, Type (0, 1), BuildingBlock: EZIPEK_clean_linker_0, # of connection points: 2
#     Edge 13, Type (0, 1), BuildingBlock: EZIPEK_clean_linker_0, # of connection points: 2
#     Edge 14, Type (0, 1), BuildingBlock: EZIPEK_clean_linker_0, # of connection points: 2
#     Edge 15, Type (0, 1), BuildingBlock: EZIPEK_clean_linker_0, # of connection points: 2
#     Edge 16, Type (0, 1), BuildingBlock: EZIPEK_clean_linker_0, # of connection points: 2
#     Edge 17, Type (0, 1), BuildingBlock: EZIPEK_clean_linker_0, # of connection points: 2
#     Edge 18, Type (0, 1), BuildingBlock: EZIPEK_clean_linker_0, # of connection points: 2
#     Edge 19, Type (0, 1), BuildingBlock: EZIPEK_clean_linker_0, # of connection points: 2
#     Edge 20, Type (0, 1), BuildingBlock: EZIPEK_clean_linker_0, # of connection points: 2
#     Edge 21, Type (0, 1), BuildingBlock: EZIPEK_clean_linker_0, # of connection points: 2
#     Edge 22, Type (0, 1), BuildingBlock: EZIPEK_clean_linker_0, # of connection points: 2
#     Edge 23, Type (0, 1), BuildingBlock: EZIPEK_clean_linker_0, # of connection points: 2
#     Edge 24, Type (0, 1), BuildingBlock: EZIPEK_clean_linker_0, # of connection points: 2
#     Edge 25, Type (0, 1), BuildingBlock: EZIPEK_clean_linker_0, # of connection points: 2
#     Edge 26, Type (0, 1), BuildingBlock: EZIPEK_clean_linker_0, # of connection points: 2
#     Edge 27, Type (0, 1), BuildingBlock: EZIPEK_clean_linker_0, # of connection points: 2
#     Edge 28, Type (0, 1), BuildingBlock: EZIPEK_clean_linker_0, # of connection points: 2
#     Edge 29, Type (0, 1), BuildingBlock: EZIPEK_clean_linker_0, # of connection points: 2
#     Edge 30, Type (0, 1), BuildingBlock: EZIPEK_clean_linker_0, # of connection points: 2
#     Edge 31, Type (0, 1), BuildingBlock: EZIPEK_clean_linker_0, # of connection points: 2
#     Edge 32, Type (0, 1), BuildingBlock: EZIPEK_clean_linker_0, # of connection points: 2
#     Edge 33, Type (0, 1), BuildingBlock: EZIPEK_clean_linker_0, # of connection points: 2
#     Edge 34, Type (0, 1), BuildingBlock: EZIPEK_clean_linker_0, # of connection points: 2
#     Edge 35, Type (0, 1), BuildingBlock: EZIPEK_clean_linker_0, # of connection points: 2
# Relax obj value: 0.267
# Max RMSD: 0.236
# Mean RMSD: 0.162
data_MOF--net-pry--node1-FUNLAD_clean_sbu_0--node2-CUQRIR_clean_linker_1--edge1-EZIPEK_clean_linker_0
_symmetry_space_group_name_H-M    P1
_symmetry_Int_Tables_number       1
_symmetry_cell_setting            triclinic
loop_
_symmetry_equiv_pos_as_xyz
'x, y, z'
_cell_length_a     22.870843
_cell_length_b     24.857754
_cell_length_c     24.624355
_cell_angle_alpha  88.323004
_cell_angle_beta   92.046079
_cell_angle_gamma 84.403114
loop_
_atom_site_label
_atom_site_type_symbol
_atom_site_fract_x
_atom_site_fract_y
_atom_site_fract_z
_atom_type_partial_charge
C0 C 0.1353 0.28454 0.22456 0.0
N1 N 0.17708 0.24274 0.23886 0.0
N2 N 0.15424 0.31884 0.18603 0.0
C3 C 0.07566 0.29154 0.24857 0.0
C4 C 0.20955 0.29609 0.17753 0.0
N5 N 0.22349 0.24964 0.20812 0.0
C6 C 0.25049 0.31896 0.13833 0.0
H7 H 0.05737 0.25191 0.25212 0.0
H8 H 0.04478 0.32022 0.22361 0.0
H9 H 0.08008 0.30707 0.29016 0.0
H10 H 0.23873 0.36289 0.13029 0.0
H11 H 0.24792 0.29781 0.09939 0.0
H12 H 0.29657 0.31228 0.15462 0.0
C13 C 0.39452 0.93093 0.69769 0.0
N14 N 0.38228 0.97628 0.72652 0.0
N15 N 0.44453 0.90208 0.71634 0.0
C16 C 0.35757 0.91513 0.6497 0.0
C17 C 0.46273 0.93134 0.7587 0.0
N18 N 0.4251 0.97693 0.76573 0.0
C19 C 0.51655 0.91469 0.79413 0.0
H20 H 0.31067 0.91716 0.66012 0.0
H21 H 0.37135 0.87379 0.63635 0.0
H22 H 0.36127 0.94396 0.61505 0.0
H23 H 0.5452 0.88219 0.77556 0.0
H24 H 0.50291 0.89966 0.83415 0.0
H25 H 0.54156 0.95005 0.80133 0.0
C26 C 0.56245 0.54938 1.02456 0.0
N27 N 0.61666 0.54249 0.05109 0.0
N28 N 0.56671 0.56283 0.9716 0.0
C29 C 0.50315 0.5437 0.04752 0.0
C30 C 0.62379 0.5702 0.96699 0.0
N31 N 0.65417 0.55772 1.01438 0.0
C32 C 0.65064 0.58457 0.91429 0.0
H33 H 0.489 0.50363 1.03777 0.0
H34 H 0.47043 0.57376 1.02697 0.0
H35 H 0.50112 0.55172 0.09122 0.0
H36 H 0.61708 0.60683 0.88616 0.0
H37 H 0.66782 0.54685 0.89482 0.0
H38 H 0.68769 0.60951 0.92135 0.0
C39 C 0.90476 0.65189 0.47445 0.0
N40 N 0.95862 0.66772 0.46714 0.0
N41 N 0.88926 0.65897 0.52597 0.0
C42 C 0.86559 0.63272 0.42987 0.0
C43 C 0.93477 0.68191 0.54981 0.0
N44 N 0.97965 0.68467 0.51448 0.0
C45 C 0.93055 0.70709 0.60488 0.0
H46 H 0.86643 0.65884 0.39265 0.0
H47 H 0.81943 0.63247 0.44209 0.0
H48 H 0.88255 0.59108 0.4195 0.0
H49 H 0.95966 0.68355 0.63548 0.0
H50 H 0.88592 0.70754 0.6208 0.0
H51 H 0.9419 0.74941 0.60253 0.0
C52 C 0.86053 0.95404 0.89843 0.0
N53 N 0.90678 0.93858 0.86695 0.0
N54 N 0.84234 1.00715 0.89103 0.0
C55 C 0.83429 0.91753 0.93885 0.0
C56 C 0.87832 1.02418 0.85297 0.0
N57 N 0.91771 0.98309 0.83735 0.0
C58 C 0.87291 0.08082 0.8289 0.0
H59 H 0.78751 0.93154 0.94499 0.0
H60 H 0.85872 0.91832 0.97852 0.0
H61 H 0.83745 0.87524 0.92526 0.0
H62 H 0.84965 0.10969 0.85625 0.0
H63 H 0.84746 0.0818 0.78961 0.0
H64 H 0.91698 0.09369 0.82091 0.0
C65 C 0.73386 0.27624 0.4271 0.0
N66 N 0.74504 0.23289 0.39503 0.0
N67 N 0.67842 0.30012 0.41822 0.0
C68 C 0.777 0.29413 0.46881 0.0
C69 C 0.65573 0.2695 0.37955 0.0
N70 N 0.69599 0.22885 0.36407 0.0
C71 C 0.59441 0.28127 0.35495 0.0
H72 H 0.77856 0.26658 0.5052 0.0
H73 H 0.76434 0.3359 0.4816 0.0
H74 H 0.82172 0.29166 0.45241 0.0
H75 H 0.59395 0.3144 0.32371 0.0
H76 H 0.56331 0.29514 0.38633 0.0
H77 H 0.5791 0.24501 0.33583 0.0
C78 C 0.39069 0.64623 0.09063 0.0
N79 N 0.4337 0.67406 0.11136 0.0
N80 N 0.37046 0.66774 1.04144 0.0
C81 C 0.36551 0.60022 0.11994 0.0
C82 C 0.40689 0.70647 1.03089 0.0
N83 N 0.44458 0.71079 0.07377 0.0
C84 C 0.40118 0.74428 0.98177 0.0
H85 H 0.3879 0.59054 0.16023 0.0
H86 H 0.3708 0.56369 0.0951 0.0
H87 H 0.31771 0.61033 0.12501 0.0
H88 H 0.39172 0.78657 0.99458 0.0
H89 H 0.36612 0.73397 0.9527 0.0
H90 H 0.44358 0.7421 0.9611 0.0
C91 C 0.10628 0.51622 0.55306 0.0
N92 N 0.15538 0.51726 0.52345 0.0
N93 N 0.10928 0.5469 0.59678 0.0
C94 C 0.06026 0.4767 0.54621 0.0
C95 C 0.15846 0.57219 0.59021 0.0
N96 N 0.18513 0.55679 0.54336 0.0
C97 C 0.18683 0.60075 0.63629 0.0
H98 H 1.01908 0.49029 0.56607 0.0
H99 H 0.07668 0.43716 0.56565 0.0
H100 H 0.0486 0.47164 0.5028 0.0
H101 H 0.23539 0.59277 0.63705 0.0
H102 H 0.17184 0.5879 0.67646 0.0
H103 H 0.17381 0.64481 0.63252 0.0
C104 C 0.12701 0.12266 0.43926 0.0
N105 N 0.08927 0.21038 0.57194 0.0
C106 C 0.1482 0.21438 0.5676 0.0
C107 C 0.16941 0.26232 0.5525 0.0
C108 C 0.13062 0.30827 0.54338 0.0
C109 C 0.07019 0.30533 0.55044 0.0
C110 C 0.05009 0.25517 0.56433 0.0
Zn111 Zn 0.07048 0.1328 0.55585 0.0
C112 C 0.96391 0.12679 0.4835 0.0
N113 N 0.07256 0.97574 0.49795 0.0
C114 C 0.12348 0.94519 0.48797 0.0
C115 C 1.02095 0.95349 0.50261 0.0
C116 C 1.02009 0.8977 0.50125 0.0
C117 C 0.07301 0.86507 0.49627 0.0
C118 C 0.12493 0.88906 0.4879 0.0
Zn119 Zn 0.07665 0.0521 0.52162 0.0
O120 O 0.11359 0.15262 0.47886 0.0
C121 C 0.18034 0.05882 0.59826 0.0
O122 O 0.11914 0.07285 0.44532 0.0
H123 H 0.98132 0.97857 0.51139 0.0
H124 H 0.17978 0.17974 0.56794 0.0
H125 H 0.16388 0.96399 0.48417 0.0
O126 O 0.15045 0.10382 0.60241 0.0
O127 O 0.1624 1.02643 0.56379 0.0
H128 H 1.0034 0.25145 0.56479 0.0
O129 O 0.03453 0.03045 0.59848 0.0
O130 O 1.02532 0.11179 0.63148 0.0
O131 O 0.98965 0.07894 0.48027 0.0
O132 O 0.98797 0.1601 0.51334 0.0
C133 C 1.01845 0.06118 0.63716 0.0
H134 H 0.21607 0.26319 0.54651 0.0
H135 H 0.03904 0.34073 0.54326 0.0
H136 H 0.97946 0.87992 0.50818 0.0
H137 H 0.16643 0.86462 0.48445 0.0
C138 C 0.64675 0.10476 1.00901 0.0
N139 N 0.53684 0.25033 1.03415 0.0
C140 C 0.56864 0.27729 0.99847 0.0
C141 C 0.58473 0.32912 1.01061 0.0
C142 C 0.57121 0.35167 0.06133 0.0
C143 C 0.53713 0.32313 0.09555 0.0
C144 C 0.5179 0.27465 0.08006 0.0
Zn145 Zn 0.53787 0.16677 0.04419 0.0
C146 C 0.48248 0.10071 0.95926 0.0
N147 N 0.54739 1.00624 0.09745 0.0
C148 C 0.59796 0.97747 0.11681 0.0
C149 C 0.499 0.98214 0.08241 0.0
C150 C 0.50081 0.92665 0.08423 0.0
C151 C 0.5521 0.89578 0.10386 0.0
C152 C 0.60108 0.92116 0.12116 0.0
Zn153 Zn 0.5422 0.08452 0.0792 0.0
O154 O 0.61989 0.15206 1.00262 0.0
C155 C 0.60277 0.14634 0.16203 0.0
O156 O 0.62547 0.07061 1.04022 0.0
H157 H 0.45939 1.00603 0.0675 0.0
H158 H 0.58537 0.25732 0.96295 0.0
H159 H 0.63597 0.99809 0.12773 0.0
O160 O 0.58961 0.1792 0.12162 0.0
O161 O 0.58636 0.09923 0.15743 0.0
H162 H 0.49461 0.25372 0.10972 0.0
O163 O 0.45783 0.09713 0.11954 0.0
O164 O 0.45303 0.17904 0.08494 0.0
O165 O 0.49889 0.06816 0.99927 0.0
O166 O 0.4895 0.15083 0.9658 0.0
C167 C 0.43071 0.14423 0.11448 0.0
H168 H 0.61188 0.34893 0.98288 0.0
H169 H 0.52741 0.33659 0.13591 0.0
H170 H 0.46209 0.90778 0.07122 0.0
H171 H 0.64075 0.89788 0.13721 0.0
C172 C 0.57648 0.49991 0.5117 0.0
N173 N 0.53831 0.5462 0.66717 0.0
C174 C 0.50021 0.50819 0.6756 0.0
C175 C 0.48384 0.49597 0.72806 0.0
C176 C 0.50895 0.52194 0.77125 0.0
C177 C 0.55198 0.55722 0.76174 0.0
C178 C 0.56565 0.56941 0.70885 0.0
Zn179 Zn 0.54177 0.57999 0.5934 0.0
C180 C 0.65731 0.6169 0.56846 0.0
N181 N 0.53664 0.65339 0.43782 0.0
C182 C 0.51181 0.6187 0.40422 0.0
C183 C 0.55459 0.70072 0.41846 0.0
C184 C 0.54637 0.71475 0.36287 0.0
C185 C 0.52017 0.679 0.32857 0.0
C186 C 0.50387 0.63043 0.3495 0.0
Zn187 Zn 0.53952 0.6246 0.51554 0.0
O188 O 0.5654 0.50106 0.56181 0.0
C189 C 0.42256 0.5902 0.53801 0.0
O190 O 0.56862 0.54426 0.48414 0.0
H191 H 0.57395 0.72773 0.44601 0.0
H192 H 0.47958 0.48998 0.64149 0.0
H193 H 0.49618 0.58193 0.41971 0.0
O194 O 0.44913 0.57165 0.58159 0.0
O195 O 0.45051 0.6137 0.50286 0.0
H196 H 0.59511 0.59994 0.70095 0.0
O197 O 0.51293 0.70388 0.54973 0.0
O198 O 0.52107 0.6591 0.62778 0.0
O199 O 0.62754 0.63751 0.52718 0.0
O200 O 0.63304 0.58953 0.60417 0.0
C201 C 0.51055 0.70416 0.60159 0.0
H202 H 0.45074 0.46838 0.73466 0.0
H203 H 0.57241 0.57731 0.79485 0.0
H204 H 0.5588 0.75296 0.34714 0.0
H205 H 0.48301 0.60253 0.32383 0.0
C206 C 0.98384 0.72778 0.96693 0.0
N207 N 1.00633 0.67025 0.13435 0.0
C208 C 0.04099 0.70676 0.15539 0.0
C209 C 0.04192 0.7158 0.21137 0.0
C210 C 1.00555 0.68797 0.24468 0.0
C211 C 0.96859 0.65285 0.22146 0.0
C212 C 0.97075 0.64351 0.16657 0.0
Zn213 Zn 1.01168 0.64228 0.05741 0.0
C214 C 0.89505 0.60453 1.01988 0.0
N215 N 1.01879 0.57075 0.90705 0.0
C216 C 0.04986 0.59737 0.87081 0.0
C217 C 0.99119 0.52663 0.8935 0.0
C218 C 0.99394 0.50793 0.84074 0.0
C219 C 0.02588 0.5351 0.80314 0.0
C220 C 0.05417 0.57995 0.81834 0.0
Zn221 Zn 1.01351 0.60224 0.98005 0.0
O222 O 0.98338 0.72297 1.01882 0.0
C223 C 0.12985 0.6363 1.01532 0.0
O224 O 0.9958 0.68452 0.94105 0.0
H225 H 0.9667 0.50645 0.92336 0.0
H226 H 0.06985 0.72684 0.12942 0.0
H227 H 0.07103 0.63251 0.88247 0.0
O228 O 0.10055 0.65811 0.05322 0.0
O229 O 0.1043 0.6098 0.98016 0.0
H230 H 0.94616 0.61219 0.15097 0.0
O231 O 0.03248 0.52116 1.01972 0.0
O232 O 0.04314 0.56252 0.09522 0.0
O233 O 0.92321 0.59299 0.97784 0.0
O234 O 0.92122 0.62493 0.05932 0.0
C235 C 0.04713 0.51818 0.0703 0.0
H236 H 0.07154 0.74276 0.22863 0.0
H237 H 0.94077 0.63016 0.24635 0.0
H238 H 0.9718 0.47312 0.8294 0.0
H239 H 0.07906 0.60145 0.78961 0.0
C240 C 0.19022 0.22432 0.33998 0.0
C241 C 0.17426 0.20672 0.28744 0.0
C242 C 0.1249 0.13391 0.3337 0.0
C243 C 0.14735 0.1477 0.386 0.0
N244 N 0.21551 0.1991 0.4344 0.0
N245 N 0.13095 0.14 0.23521 0.0
C246 C 0.18435 0.19076 0.38761 0.0
C247 C 0.14379 0.15953 0.28484 0.0
N248 N 0.20756 0.27495 0.34518 0.0
N249 N 0.0815 0.09993 0.33017 0.0
H250 H 0.14077 0.15967 0.19938 0.0
H251 H 0.11498 0.10258 0.22991 0.0
H252 H 0.06309 0.08296 0.36383 0.0
H253 H 0.05892 0.09319 0.29392 0.0
H254 H 0.21411 0.29215 0.38273 0.0
H255 H 0.21022 0.30145 0.31192 0.0
H256 H 0.24644 0.22717 0.43674 0.0
H257 H 0.21571 0.17354 0.46876 0.0
C258 C 0.4115 1.00069 0.86388 0.0
C259 C 0.43043 1.01451 0.81115 0.0
C260 C 0.4767 0.09164 0.85312 0.0
C261 C 0.45794 0.07738 0.90612 0.0
N262 N 0.39127 1.02738 0.95606 0.0
N263 N 0.49863 0.06257 0.76186 0.0
C264 C 0.42078 0.0344 0.90952 0.0
C265 C 0.467 0.05778 0.80738 0.0
N266 N 0.38933 0.95214 0.87181 0.0
N267 N 0.50364 0.13778 0.84551 0.0
H268 H 0.49791 0.03511 0.73082 0.0
H269 H 0.53133 0.08862 0.75798 0.0
H270 H 0.51344 0.16314 0.87661 0.0
H271 H 0.51152 0.15379 0.80721 0.0
H272 H 0.38184 0.93586 0.9101 0.0
H273 H 0.38364 0.92567 0.84038 0.0
H274 H 0.35907 1.00076 0.95974 0.0
H275 H 0.39367 0.05297 0.98868 0.0
C276 C 0.48652 0.57776 0.90131 0.0
C277 C 0.53104 0.5427 0.92888 0.0
C278 C 0.52294 0.47536 0.85949 0.0
C279 C 0.49026 0.51555 0.82708 0.0
N280 N 0.42125 0.59405 0.82081 0.0
N281 N 0.58667 0.45509 0.93886 0.0
C282 C 0.46408 0.56265 0.85025 0.0
C283 C 0.54613 0.48965 0.91032 0.0
N284 N 0.46964 0.62671 0.92211 0.0
N285 N 0.53326 0.42454 0.84023 0.0
H286 H 0.60101 0.46207 0.97827 0.0
H287 H 0.60804 0.42084 0.92237 0.0
H288 H 0.51628 0.41464 0.80232 0.0
H289 H 0.5535 0.39165 0.86324 0.0
H290 H 0.44056 0.6564 0.90249 0.0
H291 H 0.48565 0.63734 0.95985 0.0
H292 H 0.39839 0.6288 0.83487 0.0
H293 H 0.40635 0.58242 0.7827 0.0
C294 C 0.96919 0.72824 0.38755 0.0
C295 C 0.98027 0.67653 0.41384 0.0
C296 C 0.02708 0.6404 0.33365 0.0
C297 C 1.00855 0.68956 0.30464 0.0
N298 N 0.96001 0.78018 0.30218 0.0
N299 N 1.01229 0.58181 0.41111 0.0
C300 C 0.98005 0.73401 0.33132 0.0
C301 C 1.00699 0.63207 0.3865 0.0
N302 N 0.9472 0.77127 0.41635 0.0
N303 N 0.06379 0.6018 0.31024 0.0
H304 H 1.00104 0.57523 0.45132 0.0
H305 H 1.02411 0.54663 0.39054 0.0
H306 H 0.07999 0.60752 0.2716 0.0
H307 H 0.08245 0.5668 0.33095 0.0
H308 H 0.94407 0.81115 0.40158 0.0
H309 H 0.93581 0.76748 0.4568 0.0
H310 H 0.93287 0.81165 0.31771 0.0
H311 H 0.96819 0.78606 0.26118 0.0
C312 C 0.32949 0.21395 0.21964 0.0
C313 C 0.2728 0.21012 0.19521 0.0
C314 C 0.31999 0.15075 0.12629 0.0
C315 C 0.37666 0.16089 0.14628 0.0
N316 N 0.43619 0.20172 0.2129 0.0
N317 N 0.21594 0.18118 0.11924 0.0
C318 C 0.38153 0.19188 0.19371 0.0
C319 C 0.26859 0.17926 0.14745 0.0
N320 N 0.33333 0.24037 0.26712 0.0
N321 N 0.31519 0.11426 0.08639 0.0
H322 H 0.17801 0.20285 0.13216 0.0
H323 H 0.21089 0.16539 0.08084 0.0
H324 H 0.35181 0.09364 0.06964 0.0
H325 H 0.27536 0.10082 0.07363 0.0
H326 H 0.37189 0.24136 0.29061 0.0
H327 H 0.29626 0.25868 0.28477 0.0
H328 H 0.44381 0.22879 0.24316 0.0
H329 H 0.47477 0.18399 0.19683 0.0
C330 C 0.33834 0.04724 0.66048 0.0
C331 C 0.33309 1.01595 0.70922 0.0
C332 C 0.22718 1.01403 0.68539 0.0
C333 C 0.23305 0.04422 0.63628 0.0
N334 N 0.29152 0.10008 0.58334 0.0
N335 N 0.26919 0.98321 0.77439 0.0
C336 C 0.28759 0.06483 0.62636 0.0
C337 C 0.27595 1.00478 0.72387 0.0
N338 N 0.39313 0.05488 0.64367 0.0
N339 N 0.1757 0.99214 0.69433 0.0
H340 H 0.30454 0.97686 0.80222 0.0
H341 H 0.22865 0.97733 0.79031 0.0
H342 H 0.13939 0.99787 0.66722 0.0
H343 H 0.17013 0.96522 0.72647 0.0
H344 H 0.40151 0.07088 0.60551 0.0
H345 H 0.43068 0.04123 0.66693 0.0
H346 H 0.32782 0.12157 0.57762 0.0
H347 H 0.25693 0.1103 0.55503 0.0
C348 C 0.72981 0.61659 0.04238 0.0
C349 C 0.71534 0.56617 1.02327 0.0
C350 C 0.81939 0.53869 1.01023 0.0
C351 C 0.83341 0.59121 1.02375 0.0
N352 N 0.80048 0.68326 0.0449 0.0
N353 N 0.74442 0.48398 0.97793 0.0
C354 C 0.78835 0.63096 1.03852 0.0
C355 C 0.75963 0.52882 1.00351 0.0
N356 N 0.6866 0.65159 0.06199 0.0
N357 N 0.86302 0.49744 1.00641 0.0
H358 H 0.70112 0.47455 0.97437 0.0
H359 H 0.77421 0.45835 0.95735 0.0
H360 H 0.90733 0.50208 1.01422 0.0
H361 H 0.85476 0.45733 1.00164 0.0
H362 H 0.69437 0.68655 0.0822 0.0
H363 H 0.64272 0.64375 0.06029 0.0
H364 H 0.76847 0.71517 0.05033 0.0
H365 H 0.84206 0.69608 1.03997 0.0
C366 C 0.82157 0.59242 0.55366 0.0
C367 C 0.83434 0.64695 0.54798 0.0
C368 C 0.73561 0.67857 0.57481 0.0
C369 C 0.72022 0.62487 0.57316 0.0
N370 N 0.7471 0.52968 0.5621 0.0
N371 N 0.80463 0.74086 0.54439 0.0
C372 C 0.76315 0.58119 0.56413 0.0
C373 C 0.79146 0.68985 0.55697 0.0
N374 N 0.86512 0.55173 0.54707 0.0
N375 N 0.69693 0.71812 0.59419 0.0
H376 H 0.77487 0.77536 0.54516 0.0
H377 H 0.77487 0.77536 0.54516 0.0
H378 H 0.6566 0.70968 0.60928 0.0
H379 H 0.70716 0.75734 0.60086 0.0
H380 H 0.86114 0.51111 0.55594 0.0
H381 H 0.90694 0.55899 0.535 0.0
H382 H 0.7742 0.49675 0.54941 0.0
H383 H 0.70518 0.51984 0.57108 0.0
C384 C 0.11608 0.36956 0.10006 0.0
C385 C 0.12291 0.36695 0.15767 0.0
C386 C 0.06763 0.45763 0.15776 0.0
C387 C 0.07096 0.46459 0.09992 0.0
N388 N 0.11598 0.42701 1.0194 0.0
N389 N 0.11496 0.41562 0.24049 0.0
C390 C 0.09978 0.4204 0.07184 0.0
C391 C 0.10158 0.41316 0.18627 0.0
N392 N 0.12457 0.32323 0.07193 0.0
N393 N 0.0297 0.49132 0.18572 0.0
H394 H 0.14129 0.38493 0.26193 0.0
H395 H 0.10493 0.45036 0.26242 0.0
H396 H 0.99872 0.51973 0.16652 0.0
H397 H 1.02322 0.48562 0.22711 0.0
H398 H 0.1155 0.32196 1.03021 0.0
H399 H 0.13419 0.28548 0.09147 0.0
H400 H 0.14106 0.3969 0.9995 0.0
H401 H 0.11213 0.46404 0.99823 0.0
C402 C 0.58787 0.48759 0.12822 0.0
C403 C 0.63296 0.5041 0.09674 0.0
C404 C 0.65664 0.40969 0.0755 0.0
C405 C 0.59582 0.40197 0.08121 0.0
N406 N 0.50329 0.4379 0.12051 0.0
N407 N 0.73282 0.46702 0.10162 0.0
C408 C 0.56153 0.44101 0.11197 0.0
C409 C 0.67574 0.46106 0.08799 0.0
N410 N 0.56882 0.51773 0.17038 0.0
N411 N 0.69607 0.36838 0.06109 0.0
H412 H 0.74474 0.50352 0.11652 0.0
H413 H 0.76632 0.43542 0.10199 0.0
H414 H 0.68597 0.32841 0.06003 0.0
H415 H 0.73884 0.37429 0.05076 0.0
H416 H 0.53677 0.50607 0.19615 0.0
H417 H 0.58966 0.55158 0.18119 0.0
H418 H 0.47831 0.46683 0.14201 0.0
H419 H 0.47798 0.41228 0.09928 0.0
C420 C 0.05019 0.73412 0.56953 0.0
C421 C 0.03727 0.70529 0.52324 0.0
C422 C 0.08466 0.76826 0.46733 0.0
C423 C 0.07451 0.80661 0.50834 0.0
N424 N 0.06421 0.82186 0.60455 0.0
N425 N 0.09991 0.67193 0.45354 0.0
C426 C 0.06328 0.78817 0.56188 0.0
C427 C 0.07279 0.71457 0.47917 0.0
N428 N 0.05995 0.70728 0.61835 0.0
N429 N 0.10197 0.78292 0.41709 0.0
H430 H 0.09516 0.63236 0.46692 0.0
H431 H 0.13044 0.67643 0.42367 0.0
H432 H 0.11011 0.82237 0.40664 0.0
H433 H 0.10485 0.75598 0.38537 0.0
H434 H 0.07557 0.72518 0.65304 0.0
H435 H 0.05751 0.66561 0.62157 0.0
H436 H 0.05062 0.81097 0.64298 0.0
H437 H 0.07713 0.86089 0.60076 0.0
C438 C 0.44946 0.80213 0.71059 0.0
C439 C 0.46997 0.85161 0.69381 0.0
C440 C 0.52222 0.80428 0.61986 0.0
C441 C 0.49586 0.75578 0.63251 0.0
N442 N 0.42539 0.71296 0.68617 0.0
N443 N 0.52062 0.90178 0.62917 0.0
C444 C 0.45752 0.75576 0.67732 0.0
C445 C 0.50507 0.85304 0.64758 0.0
N446 N 0.42129 0.79991 0.75842 0.0
N447 N 0.56565 0.80361 0.58312 0.0
H448 H 0.5109 0.93733 0.65001 0.0
H449 H 0.53971 0.90748 0.59194 0.0
H450 H 0.58053 0.76937 0.5624 0.0
H451 H 0.59085 0.83576 0.57676 0.0
H452 H 0.41038 0.76408 0.77664 0.0
H453 H 0.41376 0.83364 0.7824 0.0
H454 H 0.39248 0.71293 0.7143 0.0
H455 H 0.42678 0.6794 0.6618 0.0
C456 C 1.00489 1.01013 0.78793 0.0
C457 C 0.94983 0.98796 0.78661 0.0
C458 C 0.94334 1.00761 0.68645 0.0
C459 C 0.99448 0.03641 0.68899 0.0
N460 N 0.07282 0.06654 0.74496 0.0
N461 N 0.86229 0.9741 0.73426 0.0
C462 C 1.02489 0.03794 0.74065 0.0
C463 C 0.91844 0.98844 0.73547 0.0
N464 N 0.03826 1.00431 0.83506 0.0
N465 N 0.91762 0.9987 0.63707 0.0
H466 H 0.84298 0.95926 0.76862 0.0
H467 H 0.83361 0.98039 0.70036 0.0
H468 H 0.93163 1.01422 0.60063 0.0
H469 H 0.88503 0.97258 0.63197 0.0
H470 H 0.08114 1.01473 0.83903 0.0
H471 H 1.02447 0.98375 0.86896 0.0
H472 H 0.09327 0.07467 0.78183 0.0
H473 H 0.09065 0.08489 0.71165 0.0
C474 C 0.67654 0.23693 0.26449 0.0
C475 C 0.69047 0.20298 0.31123 0.0
C476 C 0.66316 0.12726 0.25487 0.0
C477 C 0.63499 0.16422 0.21381 0.0
N478 N 0.59746 0.258 0.19924 0.0
N479 N 0.68925 0.11378 0.35136 0.0
C480 C 0.63796 0.22027 0.22314 0.0
C481 C 0.68185 0.14733 0.30654 0.0
N482 N 0.69448 0.28758 0.26232 0.0
N483 N 0.67423 0.07364 0.24487 0.0
H484 H 0.70237 0.12738 0.38894 0.0
H485 H 0.678 0.07412 0.35162 0.0
H486 H 0.66723 0.05779 0.20683 0.0
H487 H 0.69784 0.04639 0.27245 0.0
H488 H 0.68695 0.31305 0.22779 0.0
H489 H 0.72105 0.3015 0.29312 0.0
H490 H 0.5964 0.29904 0.20734 0.0
H491 H 0.55864 0.24678 0.1819 0.0
C492 C 0.51743 0.66373 0.17796 0.0
C493 C 0.45593 0.6738 0.16712 0.0
C494 C 0.44351 0.7071 0.25896 0.0
C495 C 0.50358 0.69156 0.27118 0.0
N496 N 0.59891 0.65485 0.2449 0.0
N497 N 0.3587 0.70034 0.19972 0.0
C498 C 0.54115 0.6704 0.2311 0.0
C499 C 0.41833 0.69346 0.20855 0.0
N500 N 0.55295 0.648 0.13694 0.0
N501 N 0.41092 0.73584 0.29577 0.0
H502 H 0.33778 0.69819 0.16184 0.0
H503 H 0.32933 0.70664 0.23078 0.0
H504 H 0.42895 0.74676 0.33291 0.0
H505 H 0.36821 0.75345 0.28754 0.0
H506 H 0.59852 0.64559 0.14028 0.0
H507 H 0.53632 0.63872 0.09885 0.0
H508 H 0.62798 0.63356 0.21987 0.0
H509 H 0.61761 0.66221 0.28292 0.0
C510 C 1.02334 0.55639 0.65464 0.0
C511 C 0.08188 0.53511 0.64711 0.0
C512 C 0.08336 0.48668 0.7352 0.0
C513 C 0.03149 0.51854 0.74698 0.0
N514 N 0.94689 0.57859 0.71843 0.0
N515 N 0.16704 0.47577 0.67849 0.0
C516 C 0.99898 0.55072 0.7062 0.0
C517 C 0.11135 0.49796 0.68649 0.0
N518 N 0.99096 0.58119 0.61214 0.0
N519 N 0.10631 0.44712 0.77172 0.0
H520 H 0.18848 0.483 0.64315 0.0
H521 H 0.19349 0.45347 0.70805 0.0
H522 H 0.08574 0.43915 0.80785 0.0
H523 H 0.14183 0.41923 0.7642 0.0
H524 H 0.94584 0.59071 0.61374 0.0
H525 H 1.00854 0.58772 0.57427 0.0
H526 H 0.92414 0.60828 0.69294 0.0
H527 H 0.92742 0.5727 0.75559 0.0
C528 C 0.73781 0.04552 0.8931 0.0
C529 C 0.79485 0.03778 0.91816 0.0
C530 C 0.75609 0.07774 1.00186 0.0
C531 C 0.69904 0.0867 0.97638 0.0
N532 N 0.63668 0.08566 0.89546 0.0
N533 N 0.86103 0.05325 0.99234 0.0
C534 C 0.69043 0.07289 0.92109 0.0
C535 C 0.80469 0.05607 0.97143 0.0
N536 N 0.72867 1.02431 0.84332 0.0
N537 N 0.76344 0.08892 0.05556 0.0
H538 H 0.89681 0.03749 0.97069 0.0
H539 H 0.87296 0.06986 1.02891 0.0
H540 H 0.72956 0.10706 0.07811 0.0
H541 H 0.80204 0.07809 0.07859 0.0
H542 H 0.68739 1.0227 0.82462 0.0
H543 H 0.76274 1.005 0.82189 0.0
H544 H 0.62846 0.0818 0.854 0.0
H545 H 0.60065 0.10366 0.91515 0.0
C546 C 0.84917 0.19919 0.37948 0.0
C547 C 0.79596 0.19294 0.40586 0.0
C548 C 0.8523 0.13161 0.47458 0.0
C549 C 0.90618 0.14431 0.45286 0.0
N550 N 0.95659 0.18952 0.38354 0.0
N551 N 0.74775 0.15713 0.48213 0.0
C552 C 0.9047 0.1775 0.40452 0.0
C553 C 0.79782 0.15923 0.45383 0.0
N554 N 0.84617 0.22719 0.33086 0.0
N555 N 0.85317 0.09338 0.51561 0.0
H556 H 0.70717 0.17617 0.46796 0.0
H557 H 0.74695 0.13955 0.52096 0.0
H558 H 0.89216 0.07352 0.53232 0.0
H559 H 0.81553 0.07807 0.52974 0.0
H560 H 0.88191 0.231 0.30658 0.0
H561 H 0.8061 0.24334 0.31292 0.0
H562 H 0.95977 0.21739 0.35172 0.0
H563 H 0.99739 0.17279 0.39962 0.0
C564 C 0.29599 0.61343 1.00267 0.0
C565 C 0.31143 0.66417 1.0197 0.0
C566 C 0.20769 0.69875 1.01158 0.0
C567 C 0.19219 0.64536 1.00972 0.0
N568 N 0.22274 0.5496 1.00549 0.0
N569 N 0.27793 0.75522 0.04657 0.0
C570 C 0.23651 0.60185 1.00475 0.0
C571 C 0.26636 0.7073 1.02514 0.0
N572 N 0.33861 0.57631 0.98562 0.0
N573 N 0.16659 0.7413 0.99921 0.0
H574 H 0.31954 0.76432 0.05814 0.0
H575 H 0.24485 0.78463 0.05687 0.0
H576 H 0.12421 0.73552 0.98504 0.0
H577 H 0.17688 0.7812 0.99601 0.0
H578 H 0.32977 0.53972 0.96908 0.0
H579 H 0.38192 0.58541 0.98282 0.0
H580 H 0.25447 0.51648 1.00733 0.0
H581 H 0.17999 0.53917 1.00902 0.0
C582 C 0.27646 0.54669 0.48759 0.0
C583 C 0.23831 0.57724 0.52162 0.0
C584 C 0.31883 0.63079 0.54596 0.0
C585 C 0.35889 0.58795 0.52875 0.0
N586 N 0.37607 0.50803 0.47565 0.0
N587 N 0.21729 0.67005 0.54393 0.0
C588 C 0.33793 0.54689 0.49677 0.0
C589 C 0.25754 0.6266 0.53876 0.0
N590 N 0.2546 0.52509 0.44212 0.0
N591 N 0.33914 0.67436 0.57028 0.0
H592 H 0.17261 0.66696 0.53689 0.0
H593 H 0.22822 0.70899 0.55105 0.0
H594 H 0.38367 0.68017 0.57297 0.0
H595 H 0.31203 0.70359 0.58933 0.0
H596 H 0.281 0.50529 0.41375 0.0
H597 H 0.21116 0.53575 0.42928 0.0
H598 H 0.36179 0.47468 0.45621 0.0
H599 H 0.42164 0.50759 0.48056 0.0
C600 C 0.93026 0.8396 0.85598 0.0
C601 C 0.94421 0.88791 0.88047 0.0
C602 C 0.99462 0.83047 0.95639 0.0
C603 C 0.97142 0.78304 0.93647 0.0
N604 N 0.9074 0.74691 0.86927 0.0
N605 N 0.98498 0.92854 0.95869 0.0
C606 C 0.93739 0.78868 0.88625 0.0
C607 C 0.97622 0.88276 0.93148 0.0
N608 N 0.90818 0.84288 0.8038 0.0
N609 N 0.03513 0.82618 0.99878 0.0
H610 H 0.97244 0.96715 0.94208 0.0
H611 H 1.00028 0.92819 0.99907 0.0
H612 H 0.04945 0.78992 1.01933 0.0
H613 H 0.05863 0.85807 1.01048 0.0
H614 H 0.90137 0.8092 0.78107 0.0
H615 H 0.90342 0.87946 0.78167 0.0
H616 H 0.87763 0.75023 0.83606 0.0
H617 H 0.90653 0.7109 0.89178 0.0
C618 C 0.46498 0.79003 0.12625 0.0
C619 C 0.47992 0.7547 0.08386 0.0
C620 C 0.56437 0.80459 0.06566 0.0
C621 C 0.54926 0.83741 0.10995 0.0
N622 N 0.50181 0.84657 0.19484 0.0
N623 N 0.55189 0.72066 1.02107 0.0
C624 C 0.50662 0.82309 0.14567 0.0
C625 C 0.53258 0.75927 0.05604 0.0
N626 N 0.40941 0.79566 0.14453 0.0
N627 N 0.60661 0.81852 1.03168 0.0
H628 H 0.52997 0.68649 1.01539 0.0
H629 H 0.59172 0.72027 1.00179 0.0
H630 H 0.63163 0.85053 1.03973 0.0
H631 H 0.61515 0.79974 0.99513 0.0
H632 H 0.39543 0.82438 0.17255 0.0
H633 H 0.37641 0.77498 0.12755 0.0
H634 H 0.47209 0.83548 0.22332 0.0
H635 H 0.53169 0.87301 0.20824 0.0
C636 C 0.15193 0.43847 0.46635 0.0
C637 C 0.18206 0.4649 0.50773 0.0
C638 C 0.19331 0.38248 0.56408 0.0
C639 C 0.15505 0.35895 0.52729 0.0
N640 N 0.11904 0.35434 0.43447 0.0
N641 N 0.26105 0.44933 0.57665 0.0
C642 C 0.14228 0.38319 0.47483 0.0
C643 C 0.2142 0.43201 0.54892 0.0
N644 N 0.1237 0.46859 0.42436 0.0
N645 N 0.20577 0.36041 0.61525 0.0
H646 H 0.27419 0.48774 0.57205 0.0
H647 H 0.2889 0.42376 0.60264 0.0
H648 H 0.18795 0.32619 0.63017 0.0
H649 H 0.22973 0.37898 0.64485 0.0
H650 H 0.09549 0.45319 0.39594 0.0
H651 H 0.12462 0.51039 0.42116 0.0
H652 H 0.11302 0.36879 0.39432 0.0
H653 H 0.11115 0.31395 0.44033 0.0
C654 C 0.60722 0.34873 0.47914 0.0
C655 C 0.6517 0.35011 0.44064 0.0
C656 C 0.65056 0.44848 0.45186 0.0
C657 C 0.60158 0.44826 0.48628 0.0
N658 N 0.52578 0.39794 0.52269 0.0
N659 N 0.70769 0.40281 0.38246 0.0
C660 C 0.57791 0.3982 0.4973 0.0
C661 C 0.67069 0.40057 0.42455 0.0
N662 N 0.59386 0.29988 0.49927 0.0
N663 N 0.68059 0.49326 0.44764 0.0
H664 H 0.72359 0.36847 0.36221 0.0
H665 H 0.71823 0.43899 0.36467 0.0
H666 H 0.67015 0.52834 0.46879 0.0
H667 H 0.72007 0.49357 0.42787 0.0
H668 H 0.56624 0.29578 0.53155 0.0
H669 H 0.61448 0.26336 0.48646 0.0
H670 H 0.5037 0.36347 0.52722 0.0
H671 H 0.50133 0.43314 0.53406 0.0
loop_
_geom_bond_atom_site_label_1
_geom_bond_atom_site_label_2
_geom_bond_distance
_geom_bond_site_symmetry_2
_ccdc_geom_bond_type
C0 N1 1.317 . S
C0 N2 1.348 . S
C0 C3 1.485 . S
N1 C0 1.317 . S
N1 N5 1.370 . S
N2 C0 1.348 . S
N2 C4 1.346 . S
C3 C0 1.485 . S
C3 H7 0.960 . S
C3 H8 0.961 . S
C3 H9 0.960 . S
C4 N2 1.346 . S
C4 N5 1.307 . S
C4 C6 1.486 . S
N5 N1 1.370 . S
N5 C4 1.307 . S
C6 C4 1.486 . S
C6 H10 0.960 . S
C6 H11 0.960 . S
C6 H12 0.959 . S
H7 C3 0.960 . S
H8 C3 0.961 . S
H9 C3 0.960 . S
H10 C6 0.960 . S
H11 C6 0.960 . S
H12 C6 0.959 . S
C13 N14 1.317 . S
C13 N15 1.348 . S
C13 C16 1.485 . S
N14 C13 1.317 . S
N14 N18 1.370 . S
N15 C13 1.348 . S
N15 C17 1.346 . S
C16 C13 1.485 . S
C16 H20 0.960 . S
C16 H21 0.961 . S
C16 H22 0.960 . S
C17 N15 1.346 . S
C17 N18 1.307 . S
C17 C19 1.486 . S
N18 N14 1.370 . S
N18 C17 1.307 . S
C19 C17 1.486 . S
C19 H23 0.960 . S
C19 H24 0.960 . S
C19 H25 0.959 . S
H20 C16 0.960 . S
H21 C16 0.961 . S
H22 C16 0.960 . S
H23 C19 0.960 . S
H24 C19 0.960 . S
H25 C19 0.959 . S
C26 N27 1.317 . S
C26 N28 1.348 . S
C26 C29 1.485 . S
N27 C26 1.317 . S
N27 N31 1.370 . S
N28 C26 1.348 . S
N28 C30 1.346 . S
C29 C26 1.485 . S
C29 H33 0.960 . S
C29 H34 0.961 . S
C29 H35 0.960 . S
C30 N28 1.346 . S
C30 N31 1.307 . S
C30 C32 1.486 . S
N31 N27 1.370 . S
N31 C30 1.307 . S
C32 C30 1.486 . S
C32 H36 0.960 . S
C32 H37 0.960 . S
C32 H38 0.959 . S
H33 C29 0.960 . S
H34 C29 0.961 . S
H35 C29 0.960 . S
H36 C32 0.960 . S
H37 C32 0.960 . S
H38 C32 0.959 . S
C39 N40 1.317 . S
C39 N41 1.348 . S
C39 C42 1.485 . S
N40 C39 1.317 . S
N40 N44 1.370 . S
N41 C39 1.348 . S
N41 C43 1.346 . S
C42 C39 1.485 . S
C42 H46 0.960 . S
C42 H47 0.961 . S
C42 H48 0.960 . S
C43 N41 1.346 . S
C43 N44 1.307 . S
C43 C45 1.486 . S
N44 N40 1.370 . S
N44 C43 1.307 . S
C45 C43 1.486 . S
C45 H49 0.960 . S
C45 H50 0.960 . S
C45 H51 0.959 . S
H46 C42 0.960 . S
H47 C42 0.961 . S
H48 C42 0.960 . S
H49 C45 0.960 . S
H50 C45 0.960 . S
H51 C45 0.959 . S
C52 N53 1.317 . S
C52 N54 1.348 . S
C52 C55 1.485 . S
N53 C52 1.317 . S
N53 N57 1.370 . S
N54 C52 1.348 . S
N54 C56 1.346 1_565 S
C55 C52 1.485 . S
C55 H59 0.960 . S
C55 H60 0.961 . S
C55 H61 0.960 . S
C56 N54 1.346 1_545 S
C56 N57 1.307 1_545 S
C56 C58 1.486 . S
N57 N53 1.370 . S
N57 C56 1.307 1_565 S
C58 C56 1.486 . S
C58 H62 0.960 . S
C58 H63 0.960 . S
C58 H64 0.959 . S
H59 C55 0.960 . S
H60 C55 0.961 . S
H61 C55 0.960 . S
H62 C58 0.960 . S
H63 C58 0.960 . S
H64 C58 0.959 . S
C65 N66 1.317 . S
C65 N67 1.348 . S
C65 C68 1.485 . S
N66 C65 1.317 . S
N66 N70 1.370 . S
N67 C65 1.348 . S
N67 C69 1.346 . S
C68 C65 1.485 . S
C68 H72 0.960 . S
C68 H73 0.961 . S
C68 H74 0.960 . S
C69 N67 1.346 . S
C69 N70 1.307 . S
C69 C71 1.486 . S
N70 N66 1.370 . S
N70 C69 1.307 . S
C71 C69 1.486 . S
C71 H75 0.960 . S
C71 H76 0.960 . S
C71 H77 0.959 . S
H72 C68 0.960 . S
H73 C68 0.961 . S
H74 C68 0.960 . S
H75 C71 0.960 . S
H76 C71 0.960 . S
H77 C71 0.959 . S
C78 N79 1.317 . S
C78 N80 1.348 . S
C78 C81 1.485 . S
N79 C78 1.317 . S
N79 N83 1.370 . S
N80 C78 1.348 . S
N80 C82 1.346 . S
C81 C78 1.485 . S
C81 H85 0.960 . S
C81 H86 0.961 . S
C81 H87 0.960 . S
C82 N80 1.346 . S
C82 N83 1.307 . S
C82 C84 1.486 1_554 S
N83 N79 1.370 . S
N83 C82 1.307 . S
C84 C82 1.486 1_556 S
C84 H88 0.960 . S
C84 H89 0.960 . S
C84 H90 0.959 . S
H85 C81 0.960 . S
H86 C81 0.961 . S
H87 C81 0.960 . S
H88 C84 0.960 . S
H89 C84 0.960 . S
H90 C84 0.959 . S
C91 N92 1.317 . S
C91 N93 1.348 . S
C91 C94 1.485 . S
N92 C91 1.317 . S
N92 N96 1.370 . S
N93 C91 1.348 . S
N93 C95 1.346 . S
C94 C91 1.485 . S
C94 H98 0.960 . S
C94 H99 0.961 . S
C94 H100 0.960 . S
C95 N93 1.346 . S
C95 N96 1.307 . S
C95 C97 1.486 . S
N96 N92 1.370 . S
N96 C95 1.307 . S
C97 C95 1.486 . S
C97 H101 0.960 . S
C97 H102 0.960 . S
C97 H103 0.959 . S
H98 C94 0.960 . S
H99 C94 0.961 . S
H100 C94 0.960 . S
H101 C97 0.960 . S
H102 C97 0.960 . S
H103 C97 0.959 . S
C104 O120 1.251 . S
C104 O122 1.254 . S
N105 C106 1.333 . S
N105 C110 1.307 . S
N105 Zn111 2.020 . S
C106 N105 1.333 . S
C106 C107 1.379 . S
C106 H124 0.952 . S
C107 C106 1.379 . S
C107 C108 1.390 . S
C107 H134 0.949 . S
C108 C107 1.390 . S
C108 C109 1.357 . S
C109 C108 1.357 . S
C109 C110 1.370 . S
C109 H135 0.950 . S
C110 N105 1.307 . S
C110 C109 1.370 . S
C110 H128 0.948 . S
Zn111 N105 2.020 . S
Zn111 O120 2.039 . S
Zn111 O126 2.034 . S
Zn111 O130 2.025 . S
Zn111 O132 2.024 1_455 S
C112 O131 1.246 . S
C112 O132 1.249 . S
N113 C114 1.307 . S
N113 C115 1.333 1_455 S
N113 Zn119 2.020 1_565 S
C114 N113 1.307 . S
C114 C118 1.370 . S
C114 H125 0.948 . S
C115 N113 1.333 1_655 S
C115 C116 1.379 . S
C115 H123 0.952 . S
C116 C115 1.379 . S
C116 C117 1.390 . S
C116 H136 0.949 . S
C117 C116 1.390 . S
C117 C118 1.357 1_655 S
C118 C114 1.370 . S
C118 C117 1.357 1_455 S
C118 H137 0.950 . S
Zn119 N113 2.020 1_545 S
Zn119 O122 2.025 . S
Zn119 O127 2.024 1_545 S
Zn119 O129 2.039 . S
Zn119 O131 2.034 1_455 S
O120 C104 1.251 . S
O120 Zn111 2.039 . S
C121 O126 1.246 . S
C121 O127 1.249 1_545 S
O122 C104 1.254 . S
O122 Zn119 2.025 . S
H123 C115 0.952 . S
H124 C106 0.952 . S
H125 C114 0.948 . S
O126 Zn111 2.034 . S
O126 C121 1.246 . S
O127 Zn119 2.024 1_565 S
O127 C121 1.249 1_565 S
H128 C110 0.948 . S
O129 Zn119 2.039 . S
O129 C133 1.251 . S
O130 Zn111 2.025 . S
O130 C133 1.254 . S
O131 C112 1.246 . S
O131 Zn119 2.034 1_655 S
O132 Zn111 2.024 1_655 S
O132 C112 1.249 . S
C133 O129 1.251 . S
C133 O130 1.254 . S
H134 C107 0.949 . S
H135 C109 0.950 . S
H136 C116 0.949 . S
H137 C118 0.950 . S
C138 O154 1.251 1_554 S
C138 O156 1.254 . S
N139 C140 1.333 . S
N139 C144 1.307 . S
N139 Zn145 2.020 1_556 S
C140 N139 1.333 . S
C140 C141 1.379 . S
C140 H158 0.952 1_556 S
C141 C140 1.379 . S
C141 C142 1.390 . S
C141 H168 0.949 . S
C142 C141 1.390 . S
C142 C143 1.357 . S
C143 C142 1.357 . S
C143 C144 1.370 . S
C143 H169 0.950 . S
C144 N139 1.307 . S
C144 C143 1.370 . S
C144 H162 0.948 . S
Zn145 N139 2.020 1_554 S
Zn145 O154 2.039 1_554 S
Zn145 O160 2.034 . S
Zn145 O164 2.025 . S
Zn145 O166 2.024 1_554 S
C146 O165 1.246 . S
C146 O166 1.249 . S
N147 C148 1.307 . S
N147 C149 1.333 . S
N147 Zn153 2.020 1_565 S
C148 N147 1.307 . S
C148 C152 1.370 . S
C148 H159 0.948 . S
C149 N147 1.333 . S
C149 C150 1.379 . S
C149 H157 0.952 . S
C150 C149 1.379 . S
C150 C151 1.390 . S
C150 H170 0.949 . S
C151 C150 1.390 . S
C151 C152 1.357 . S
C152 C148 1.370 . S
C152 C151 1.357 . S
C152 H171 0.950 . S
Zn153 N147 2.020 1_545 S
Zn153 O156 2.025 . S
Zn153 O161 2.024 . S
Zn153 O163 2.039 . S
Zn153 O165 2.034 1_554 S
O154 C138 1.251 1_556 S
O154 Zn145 2.039 1_556 S
C155 O160 1.246 . S
C155 O161 1.249 . S
O156 C138 1.254 . S
O156 Zn153 2.025 . S
H157 C149 0.952 . S
H158 C140 0.952 1_554 S
H159 C148 0.948 . S
O160 Zn145 2.034 . S
O160 C155 1.246 . S
O161 Zn153 2.024 . S
O161 C155 1.249 . S
H162 C144 0.948 . S
O163 Zn153 2.039 . S
O163 C167 1.251 . S
O164 Zn145 2.025 . S
O164 C167 1.254 . S
O165 C146 1.246 . S
O165 Zn153 2.034 1_556 S
O166 Zn145 2.024 1_556 S
O166 C146 1.249 . S
C167 O163 1.251 . S
C167 O164 1.254 . S
H168 C141 0.949 . S
H169 C143 0.950 . S
H170 C150 0.949 . S
H171 C152 0.950 . S
C172 O188 1.251 . S
C172 O190 1.254 . S
N173 C174 1.333 . S
N173 C178 1.307 . S
N173 Zn179 2.020 . S
C174 N173 1.333 . S
C174 C175 1.379 . S
C174 H192 0.952 . S
C175 C174 1.379 . S
C175 C176 1.390 . S
C175 H202 0.949 . S
C176 C175 1.390 . S
C176 C177 1.357 . S
C177 C176 1.357 . S
C177 C178 1.370 . S
C177 H203 0.950 . S
C178 N173 1.307 . S
C178 C177 1.370 . S
C178 H196 0.948 . S
Zn179 N173 2.020 . S
Zn179 O188 2.039 . S
Zn179 O194 2.034 . S
Zn179 O198 2.025 . S
Zn179 O200 2.024 . S
C180 O199 1.246 . S
C180 O200 1.249 . S
N181 C182 1.307 . S
N181 C183 1.333 . S
N181 Zn187 2.020 . S
C182 N181 1.307 . S
C182 C186 1.370 . S
C182 H193 0.948 . S
C183 N181 1.333 . S
C183 C184 1.379 . S
C183 H191 0.952 . S
C184 C183 1.379 . S
C184 C185 1.390 . S
C184 H204 0.949 . S
C185 C184 1.390 . S
C185 C186 1.357 . S
C186 C182 1.370 . S
C186 C185 1.357 . S
C186 H205 0.950 . S
Zn187 N181 2.020 . S
Zn187 O190 2.025 . S
Zn187 O195 2.024 . S
Zn187 O197 2.039 . S
Zn187 O199 2.034 . S
O188 C172 1.251 . S
O188 Zn179 2.039 . S
C189 O194 1.246 . S
C189 O195 1.249 . S
O190 C172 1.254 . S
O190 Zn187 2.025 . S
H191 C183 0.952 . S
H192 C174 0.952 . S
H193 C182 0.948 . S
O194 Zn179 2.034 . S
O194 C189 1.246 . S
O195 Zn187 2.024 . S
O195 C189 1.249 . S
H196 C178 0.948 . S
O197 Zn187 2.039 . S
O197 C201 1.251 . S
O198 Zn179 2.025 . S
O198 C201 1.254 . S
O199 C180 1.246 . S
O199 Zn187 2.034 . S
O200 Zn179 2.024 . S
O200 C180 1.249 . S
C201 O197 1.251 . S
C201 O198 1.254 . S
H202 C175 0.949 . S
H203 C177 0.950 . S
H204 C184 0.949 . S
H205 C186 0.950 . S
C206 O222 1.251 1_556 S
C206 O224 1.254 . S
N207 C208 1.333 . S
N207 C212 1.307 . S
N207 Zn213 2.020 . S
C208 N207 1.333 . S
C208 C209 1.379 . S
C208 H226 0.952 . S
C209 C208 1.379 . S
C209 C210 1.390 . S
C209 H236 0.949 . S
C210 C209 1.390 . S
C210 C211 1.357 . S
C211 C210 1.357 . S
C211 C212 1.370 . S
C211 H237 0.950 . S
C212 N207 1.307 . S
C212 C211 1.370 . S
C212 H230 0.948 . S
Zn213 N207 2.020 . S
Zn213 O222 2.039 . S
Zn213 O228 2.034 1_655 S
Zn213 O232 2.025 1_655 S
Zn213 O234 2.024 . S
C214 O233 1.246 . S
C214 O234 1.249 1_556 S
N215 C216 1.307 . S
N215 C217 1.333 . S
N215 Zn221 2.020 . S
C216 N215 1.307 . S
C216 C220 1.370 . S
C216 H227 0.948 . S
C217 N215 1.333 . S
C217 C218 1.379 . S
C217 H225 0.952 . S
C218 C217 1.379 . S
C218 C219 1.390 . S
C218 H238 0.949 . S
C219 C218 1.390 . S
C219 C220 1.357 . S
C220 C216 1.370 . S
C220 C219 1.357 . S
C220 H239 0.950 . S
Zn221 N215 2.020 . S
Zn221 O224 2.025 1_455 S
Zn221 O229 2.024 . S
Zn221 O231 2.039 . S
Zn221 O233 2.034 1_455 S
O222 C206 1.251 1_554 S
O222 Zn213 2.039 . S
C223 O228 1.246 . S
C223 O229 1.249 1_554 S
O224 C206 1.254 . S
O224 Zn221 2.025 1_655 S
H225 C217 0.952 . S
H226 C208 0.952 . S
H227 C216 0.948 . S
O228 Zn213 2.034 1_455 S
O228 C223 1.246 . S
O229 Zn221 2.024 . S
O229 C223 1.249 1_556 S
H230 C212 0.948 . S
O231 Zn221 2.039 . S
O231 C235 1.251 1_556 S
O232 Zn213 2.025 1_455 S
O232 C235 1.254 . S
O233 C214 1.246 . S
O233 Zn221 2.034 1_655 S
O234 Zn213 2.024 . S
O234 C214 1.249 1_554 S
C235 O231 1.251 1_554 S
C235 O232 1.254 . S
H236 C209 0.949 . S
H237 C211 0.950 . S
H238 C218 0.949 . S
H239 C220 0.950 . S
C240 C241 1.363 . S
C240 C246 1.379 . S
C240 N248 1.356 . S
C241 C240 1.363 . S
C241 C247 1.363 . S
C242 C243 1.363 . S
C242 C247 1.379 . S
C242 N249 1.356 . S
C243 C242 1.363 . S
C243 C246 1.363 . S
N244 C246 1.356 . S
N244 H256 0.984 . S
N244 H257 0.985 . S
N245 C247 1.356 . S
N245 H250 0.984 . S
N245 H251 0.985 . S
C246 C240 1.379 . S
C246 C243 1.363 . S
C246 N244 1.356 . S
C247 C241 1.363 . S
C247 C242 1.379 . S
C247 N245 1.356 . S
N248 C240 1.356 . S
N248 H254 0.984 . S
N248 H255 0.984 . S
N249 C242 1.356 . S
N249 H252 0.984 . S
N249 H253 0.985 . S
H250 N245 0.984 . S
H251 N245 0.985 . S
H252 N249 0.984 . S
H253 N249 0.985 . S
H254 N248 0.984 . S
H255 N248 0.984 . S
H256 N244 0.984 . S
H257 N244 0.985 . S
C258 C259 1.363 1_565 S
C258 C264 1.379 . S
C258 N266 1.356 . S
C259 C258 1.363 1_545 S
C259 C265 1.363 . S
C260 C261 1.363 . S
C260 C265 1.379 . S
C260 N267 1.356 . S
C261 C260 1.363 . S
C261 C264 1.363 1_545 S
N262 C264 1.356 . S
N262 H274 0.984 . S
N262 H275 0.985 . S
N263 C265 1.356 . S
N263 H268 0.984 . S
N263 H269 0.985 . S
C264 C258 1.379 . S
C264 C261 1.363 1_565 S
C264 N262 1.356 . S
C265 C259 1.363 . S
C265 C260 1.379 . S
C265 N263 1.356 . S
N266 C258 1.356 . S
N266 H272 0.984 . S
N266 H273 0.984 . S
N267 C260 1.356 . S
N267 H270 0.984 . S
N267 H271 0.985 . S
H268 N263 0.984 . S
H269 N263 0.985 . S
H270 N267 0.984 . S
H271 N267 0.985 . S
H272 N266 0.984 . S
H273 N266 0.984 . S
H274 N262 0.984 . S
H275 N262 0.985 . S
C276 C277 1.363 . S
C276 C282 1.379 . S
C276 N284 1.356 . S
C277 C276 1.363 . S
C277 C283 1.363 . S
C278 C279 1.363 . S
C278 C283 1.379 . S
C278 N285 1.356 . S
C279 C278 1.363 . S
C279 C282 1.363 . S
N280 C282 1.356 . S
N280 H292 0.984 . S
N280 H293 0.985 . S
N281 C283 1.356 . S
N281 H286 0.984 . S
N281 H287 0.985 . S
C282 C276 1.379 . S
C282 C279 1.363 . S
C282 N280 1.356 . S
C283 C277 1.363 . S
C283 C278 1.379 . S
C283 N281 1.356 . S
N284 C276 1.356 . S
N284 H290 0.984 . S
N284 H291 0.984 . S
N285 C278 1.356 . S
N285 H288 0.984 . S
N285 H289 0.985 . S
H286 N281 0.984 . S
H287 N281 0.985 . S
H288 N285 0.984 . S
H289 N285 0.985 . S
H290 N284 0.984 . S
H291 N284 0.984 . S
H292 N280 0.984 . S
H293 N280 0.985 . S
C294 C295 1.363 . S
C294 C300 1.379 . S
C294 N302 1.356 . S
C295 C294 1.363 . S
C295 C301 1.363 . S
C296 C297 1.363 . S
C296 C301 1.379 . S
C296 N303 1.356 . S
C297 C296 1.363 . S
C297 C300 1.363 . S
N298 C300 1.356 . S
N298 H310 0.984 . S
N298 H311 0.985 . S
N299 C301 1.356 . S
N299 H304 0.984 . S
N299 H305 0.985 . S
C300 C294 1.379 . S
C300 C297 1.363 . S
C300 N298 1.356 . S
C301 C295 1.363 . S
C301 C296 1.379 . S
C301 N299 1.356 . S
N302 C294 1.356 . S
N302 H308 0.984 . S
N302 H309 0.984 . S
N303 C296 1.356 . S
N303 H306 0.984 . S
N303 H307 0.985 . S
H304 N299 0.984 . S
H305 N299 0.985 . S
H306 N303 0.984 . S
H307 N303 0.985 . S
H308 N302 0.984 . S
H309 N302 0.984 . S
H310 N298 0.984 . S
H311 N298 0.985 . S
C312 C313 1.363 . S
C312 C318 1.379 . S
C312 N320 1.356 . S
C313 C312 1.363 . S
C313 C319 1.363 . S
C314 C315 1.363 . S
C314 C319 1.379 . S
C314 N321 1.356 . S
C315 C314 1.363 . S
C315 C318 1.363 . S
N316 C318 1.356 . S
N316 H328 0.984 . S
N316 H329 0.985 . S
N317 C319 1.356 . S
N317 H322 0.984 . S
N317 H323 0.985 . S
C318 C312 1.379 . S
C318 C315 1.363 . S
C318 N316 1.356 . S
C319 C313 1.363 . S
C319 C314 1.379 . S
C319 N317 1.356 . S
N320 C312 1.356 . S
N320 H326 0.984 . S
N320 H327 0.984 . S
N321 C314 1.356 . S
N321 H324 0.984 . S
N321 H325 0.985 1_554 S
H322 N317 0.984 . S
H323 N317 0.985 . S
H324 N321 0.984 . S
H325 N321 0.985 1_556 S
H326 N320 0.984 . S
H327 N320 0.984 . S
H328 N316 0.984 . S
H329 N316 0.985 . S
C330 C331 1.363 1_545 S
C330 C336 1.379 . S
C330 N338 1.356 . S
C331 C330 1.363 1_565 S
C331 C337 1.363 . S
C332 C333 1.363 1_565 S
C332 C337 1.379 . S
C332 N339 1.356 . S
C333 C332 1.363 1_545 S
C333 C336 1.363 . S
N334 C336 1.356 . S
N334 H346 0.984 . S
N334 H347 0.985 . S
N335 C337 1.356 . S
N335 H340 0.984 . S
N335 H341 0.985 . S
C336 C330 1.379 . S
C336 C333 1.363 . S
C336 N334 1.356 . S
C337 C331 1.363 . S
C337 C332 1.379 . S
C337 N335 1.356 . S
N338 C330 1.356 . S
N338 H344 0.984 . S
N338 H345 0.984 . S
N339 C332 1.356 . S
N339 H342 0.984 . S
N339 H343 0.985 . S
H340 N335 0.984 . S
H341 N335 0.985 . S
H342 N339 0.984 . S
H343 N339 0.985 . S
H344 N338 0.984 . S
H345 N338 0.984 . S
H346 N334 0.984 . S
H347 N334 0.985 . S
C348 C349 1.363 . S
C348 C354 1.379 1_556 S
C348 N356 1.356 1_556 S
C349 C348 1.363 . S
C349 C355 1.363 . S
C350 C351 1.363 . S
C350 C355 1.379 . S
C350 N357 1.356 . S
C351 C350 1.363 . S
C351 C354 1.363 1_556 S
N352 C354 1.356 . S
N352 H364 0.984 . S
N352 H365 0.985 . S
N353 C355 1.356 . S
N353 H358 0.984 . S
N353 H359 0.985 . S
C354 C348 1.379 1_554 S
C354 C351 1.363 1_554 S
C354 N352 1.356 . S
C355 C349 1.363 . S
C355 C350 1.379 . S
C355 N353 1.356 . S
N356 C348 1.356 1_554 S
N356 H362 0.984 . S
N356 H363 0.984 . S
N357 C350 1.356 . S
N357 H360 0.984 . S
N357 H361 0.985 . S
H358 N353 0.984 . S
H359 N353 0.985 . S
H360 N357 0.984 . S
H361 N357 0.985 . S
H362 N356 0.984 . S
H363 N356 0.984 . S
H364 N352 0.984 . S
H365 N352 0.985 . S
C366 C367 1.363 . S
C366 C372 1.379 . S
C366 N374 1.356 . S
C367 C366 1.363 . S
C367 C373 1.363 . S
C368 C369 1.363 . S
C368 C373 1.379 . S
C368 N375 1.356 . S
C369 C368 1.363 . S
C369 C372 1.363 . S
N370 C372 1.356 . S
N370 H382 0.984 . S
N370 H383 0.985 . S
N371 C373 1.356 . S
N371 H376 0.984 . S
N371 H377 0.985 . S
C372 C366 1.379 . S
C372 C369 1.363 . S
C372 N370 1.356 . S
C373 C367 1.363 . S
C373 C368 1.379 . S
C373 N371 1.356 . S
N374 C366 1.356 . S
N374 H380 0.984 . S
N374 H381 0.984 . S
N375 C368 1.356 . S
N375 H378 0.984 . S
N375 H379 0.985 . S
H376 N371 0.984 . S
H377 N371 0.985 . S
H378 N375 0.984 . S
H379 N375 0.985 . S
H380 N374 0.984 . S
H381 N374 0.984 . S
H382 N370 0.984 . S
H383 N370 0.985 . S
C384 C385 1.363 . S
C384 C390 1.379 . S
C384 N392 1.356 . S
C385 C384 1.363 . S
C385 C391 1.363 . S
C386 C387 1.363 . S
C386 C391 1.379 . S
C386 N393 1.356 . S
C387 C386 1.363 . S
C387 C390 1.363 . S
N388 C390 1.356 1_556 S
N388 H400 0.984 . S
N388 H401 0.985 . S
N389 C391 1.356 . S
N389 H394 0.984 . S
N389 H395 0.985 . S
C390 C384 1.379 . S
C390 C387 1.363 . S
C390 N388 1.356 1_554 S
C391 C385 1.363 . S
C391 C386 1.379 . S
C391 N389 1.356 . S
N392 C384 1.356 . S
N392 H398 0.984 1_554 S
N392 H399 0.984 . S
N393 C386 1.356 . S
N393 H396 0.984 . S
N393 H397 0.985 . S
H394 N389 0.984 . S
H395 N389 0.985 . S
H396 N393 0.984 . S
H397 N393 0.985 . S
H398 N392 0.984 1_556 S
H399 N392 0.984 . S
H400 N388 0.984 . S
H401 N388 0.985 . S
C402 C403 1.363 . S
C402 C408 1.379 . S
C402 N410 1.356 . S
C403 C402 1.363 . S
C403 C409 1.363 . S
C404 C405 1.363 . S
C404 C409 1.379 . S
C404 N411 1.356 1_556 S
C405 C404 1.363 . S
C405 C408 1.363 . S
N406 C408 1.356 . S
N406 H418 0.984 . S
N406 H419 0.985 . S
N407 C409 1.356 1_554 S
N407 H412 0.985 1_554 S
N407 H413 0.985 . S
C408 C402 1.379 . S
C408 C405 1.363 . S
C408 N406 1.356 . S
C409 C403 1.363 . S
C409 C404 1.379 . S
C409 N407 1.356 1_556 S
N410 C402 1.356 . S
N410 H416 0.984 . S
N410 H417 0.984 . S
N411 C404 1.356 1_554 S
N411 H414 0.984 . S
N411 H415 0.985 . S
H412 N407 0.985 1_556 S
H413 N407 0.985 . S
H414 N411 0.984 . S
H415 N411 0.985 . S
H416 N410 0.984 . S
H417 N410 0.984 . S
H418 N406 0.984 . S
H419 N406 0.985 . S
C420 C421 1.363 . S
C420 C426 1.379 . S
C420 N428 1.356 . S
C421 C420 1.363 . S
C421 C427 1.363 . S
C422 C423 1.363 . S
C422 C427 1.379 . S
C422 N429 1.356 1_655 S
C423 C422 1.363 . S
C423 C426 1.363 . S
N424 C426 1.356 . S
N424 H436 0.984 . S
N424 H437 0.985 . S
N425 C427 1.356 . S
N425 H430 0.984 . S
N425 H431 0.985 . S
C426 C420 1.379 . S
C426 C423 1.363 . S
C426 N424 1.356 . S
C427 C421 1.363 . S
C427 C422 1.379 . S
C427 N425 1.356 . S
N428 C420 1.356 . S
N428 H434 0.984 . S
N428 H435 0.984 . S
N429 C422 1.356 1_455 S
N429 H432 0.984 . S
N429 H433 0.985 . S
H430 N425 0.984 . S
H431 N425 0.985 . S
H432 N429 0.984 . S
H433 N429 0.985 . S
H434 N428 0.984 . S
H435 N428 0.984 . S
H436 N424 0.984 . S
H437 N424 0.985 . S
C438 C439 1.363 . S
C438 C444 1.379 . S
C438 N446 1.356 . S
C439 C438 1.363 . S
C439 C445 1.363 . S
C440 C441 1.363 . S
C440 C445 1.379 . S
C440 N447 1.356 . S
C441 C440 1.363 . S
C441 C444 1.363 . S
N442 C444 1.356 . S
N442 H454 0.984 . S
N442 H455 0.985 . S
N443 C445 1.356 . S
N443 H448 0.984 . S
N443 H449 0.985 . S
C444 C438 1.379 . S
C444 C441 1.363 . S
C444 N442 1.356 . S
C445 C439 1.363 . S
C445 C440 1.379 . S
C445 N443 1.356 . S
N446 C438 1.356 . S
N446 H452 0.984 . S
N446 H453 0.984 . S
N447 C440 1.356 . S
N447 H450 0.984 . S
N447 H451 0.985 . S
H448 N443 0.984 . S
H449 N443 0.985 . S
H450 N447 0.984 . S
H451 N447 0.985 . S
H452 N446 0.984 . S
H453 N446 0.984 . S
H454 N442 0.984 . S
H455 N442 0.985 . S
C456 C457 1.363 1_455 S
C456 C462 1.379 . S
C456 N464 1.356 . S
C457 C456 1.363 1_655 S
C457 C463 1.363 1_565 S
C458 C459 1.363 . S
C458 C463 1.379 . S
C458 N465 1.356 . S
C459 C458 1.363 . S
C459 C462 1.363 1_645 S
N460 C462 1.356 . S
N460 H472 0.984 . S
N460 H473 0.985 . S
N461 C463 1.356 . S
N461 H466 0.984 . S
N461 H467 0.985 . S
C462 C456 1.379 . S
C462 C459 1.363 1_465 S
C462 N460 1.356 . S
C463 C457 1.363 1_545 S
C463 C458 1.379 . S
C463 N461 1.356 . S
N464 C456 1.356 . S
N464 H470 0.984 . S
N464 H471 0.984 . S
N465 C458 1.356 . S
N465 H468 0.984 . S
N465 H469 0.985 . S
H466 N461 0.984 . S
H467 N461 0.985 . S
H468 N465 0.984 . S
H469 N465 0.985 . S
H470 N464 0.984 . S
H471 N464 0.984 . S
H472 N460 0.984 . S
H473 N460 0.985 . S
C474 C475 1.363 . S
C474 C480 1.379 . S
C474 N482 1.356 . S
C475 C474 1.363 . S
C475 C481 1.363 . S
C476 C477 1.363 . S
C476 C481 1.379 . S
C476 N483 1.356 . S
C477 C476 1.363 . S
C477 C480 1.363 . S
N478 C480 1.356 . S
N478 H490 0.984 . S
N478 H491 0.985 . S
N479 C481 1.356 . S
N479 H484 0.984 . S
N479 H485 0.985 . S
C480 C474 1.379 . S
C480 C477 1.363 . S
C480 N478 1.356 . S
C481 C475 1.363 . S
C481 C476 1.379 . S
C481 N479 1.356 . S
N482 C474 1.356 . S
N482 H488 0.984 . S
N482 H489 0.984 . S
N483 C476 1.356 . S
N483 H486 0.984 . S
N483 H487 0.985 . S
H484 N479 0.984 . S
H485 N479 0.985 . S
H486 N483 0.984 . S
H487 N483 0.985 . S
H488 N482 0.984 . S
H489 N482 0.984 . S
H490 N478 0.984 . S
H491 N478 0.985 . S
C492 C493 1.363 . S
C492 C498 1.379 . S
C492 N500 1.356 . S
C493 C492 1.363 . S
C493 C499 1.363 . S
C494 C495 1.363 . S
C494 C499 1.379 . S
C494 N501 1.356 . S
C495 C494 1.363 . S
C495 C498 1.363 . S
N496 C498 1.356 . S
N496 H508 0.984 . S
N496 H509 0.985 . S
N497 C499 1.356 . S
N497 H502 0.984 . S
N497 H503 0.985 . S
C498 C492 1.379 . S
C498 C495 1.363 . S
C498 N496 1.356 . S
C499 C493 1.363 . S
C499 C494 1.379 . S
C499 N497 1.356 . S
N500 C492 1.356 . S
N500 H506 0.984 . S
N500 H507 0.984 . S
N501 C494 1.356 . S
N501 H504 0.984 . S
N501 H505 0.985 . S
H502 N497 0.984 . S
H503 N497 0.985 . S
H504 N501 0.984 . S
H505 N501 0.985 . S
H506 N500 0.984 . S
H507 N500 0.984 . S
H508 N496 0.984 . S
H509 N496 0.985 . S
C510 C511 1.363 . S
C510 C516 1.379 . S
C510 N518 1.356 . S
C511 C510 1.363 . S
C511 C517 1.363 . S
C512 C513 1.363 . S
C512 C517 1.379 . S
C512 N519 1.356 . S
C513 C512 1.363 . S
C513 C516 1.363 . S
N514 C516 1.356 . S
N514 H526 0.984 . S
N514 H527 0.985 . S
N515 C517 1.356 . S
N515 H520 0.984 . S
N515 H521 0.985 . S
C516 C510 1.379 . S
C516 C513 1.363 . S
C516 N514 1.356 . S
C517 C511 1.363 . S
C517 C512 1.379 . S
C517 N515 1.356 . S
N518 C510 1.356 . S
N518 H524 0.984 . S
N518 H525 0.984 . S
N519 C512 1.356 . S
N519 H522 0.984 . S
N519 H523 0.985 . S
H520 N515 0.984 . S
H521 N515 0.985 . S
H522 N519 0.984 . S
H523 N519 0.985 . S
H524 N518 0.984 . S
H525 N518 0.984 . S
H526 N514 0.984 . S
H527 N514 0.985 . S
C528 C529 1.363 . S
C528 C534 1.379 . S
C528 N536 1.356 . S
C529 C528 1.363 . S
C529 C535 1.363 . S
C530 C531 1.363 1_554 S
C530 C535 1.379 1_554 S
C530 N537 1.356 . S
C531 C530 1.363 1_556 S
C531 C534 1.363 . S
N532 C534 1.356 . S
N532 H544 0.984 . S
N532 H545 0.985 . S
N533 C535 1.356 . S
N533 H538 0.984 . S
N533 H539 0.985 1_556 S
C534 C528 1.379 . S
C534 C531 1.363 . S
C534 N532 1.356 . S
C535 C529 1.363 . S
C535 C530 1.379 1_556 S
C535 N533 1.356 . S
N536 C528 1.356 . S
N536 H542 0.984 . S
N536 H543 0.984 1_545 S
N537 C530 1.356 . S
N537 H540 0.984 . S
N537 H541 0.985 . S
H538 N533 0.984 . S
H539 N533 0.985 1_554 S
H540 N537 0.984 . S
H541 N537 0.985 . S
H542 N536 0.984 . S
H543 N536 0.984 1_565 S
H544 N532 0.984 . S
H545 N532 0.985 . S
C546 C547 1.363 . S
C546 C552 1.379 . S
C546 N554 1.356 . S
C547 C546 1.363 . S
C547 C553 1.363 . S
C548 C549 1.363 . S
C548 C553 1.379 . S
C548 N555 1.356 . S
C549 C548 1.363 . S
C549 C552 1.363 . S
N550 C552 1.356 . S
N550 H562 0.984 . S
N550 H563 0.985 . S
N551 C553 1.356 . S
N551 H556 0.984 . S
N551 H557 0.985 . S
C552 C546 1.379 . S
C552 C549 1.363 . S
C552 N550 1.356 . S
C553 C547 1.363 . S
C553 C548 1.379 . S
C553 N551 1.356 . S
N554 C546 1.356 . S
N554 H560 0.984 . S
N554 H561 0.984 . S
N555 C548 1.356 . S
N555 H558 0.984 . S
N555 H559 0.985 . S
H556 N551 0.984 . S
H557 N551 0.985 . S
H558 N555 0.984 . S
H559 N555 0.985 . S
H560 N554 0.984 . S
H561 N554 0.984 . S
H562 N550 0.984 . S
H563 N550 0.985 . S
C564 C565 1.363 . S
C564 C570 1.379 . S
C564 N572 1.356 . S
C565 C564 1.363 . S
C565 C571 1.363 . S
C566 C567 1.363 . S
C566 C571 1.379 . S
C566 N573 1.356 1_554 S
C567 C566 1.363 . S
C567 C570 1.363 . S
N568 C570 1.356 . S
N568 H580 0.984 . S
N568 H581 0.985 . S
N569 C571 1.356 1_556 S
N569 H574 0.987 . S
N569 H575 0.985 . S
C570 C564 1.379 . S
C570 C567 1.363 . S
C570 N568 1.356 . S
C571 C565 1.363 . S
C571 C566 1.379 . S
C571 N569 1.356 1_554 S
N572 C564 1.356 . S
N572 H578 0.984 . S
N572 H579 0.984 . S
N573 C566 1.356 1_556 S
N573 H576 0.984 1_556 S
N573 H577 0.985 . S
H574 N569 0.987 . S
H575 N569 0.985 . S
H576 N573 0.984 1_554 S
H577 N573 0.985 . S
H578 N572 0.984 . S
H579 N572 0.984 . S
H580 N568 0.984 . S
H581 N568 0.985 . S
C582 C583 1.363 . S
C582 C588 1.379 . S
C582 N590 1.356 . S
C583 C582 1.363 . S
C583 C589 1.363 . S
C584 C585 1.363 . S
C584 C589 1.379 . S
C584 N591 1.356 . S
C585 C584 1.363 . S
C585 C588 1.363 . S
N586 C588 1.356 . S
N586 H598 0.984 . S
N586 H599 0.985 . S
N587 C589 1.356 . S
N587 H592 0.984 . S
N587 H593 0.985 . S
C588 C582 1.379 . S
C588 C585 1.363 . S
C588 N586 1.356 . S
C589 C583 1.363 . S
C589 C584 1.379 . S
C589 N587 1.356 . S
N590 C582 1.356 . S
N590 H596 0.984 . S
N590 H597 0.984 . S
N591 C584 1.356 . S
N591 H594 0.984 . S
N591 H595 0.985 . S
H592 N587 0.984 . S
H593 N587 0.985 . S
H594 N591 0.984 . S
H595 N591 0.985 . S
H596 N590 0.984 . S
H597 N590 0.984 . S
H598 N586 0.984 . S
H599 N586 0.985 . S
C600 C601 1.363 . S
C600 C606 1.379 . S
C600 N608 1.356 . S
C601 C600 1.363 . S
C601 C607 1.363 . S
C602 C603 1.363 . S
C602 C607 1.379 . S
C602 N609 1.356 1_556 S
C603 C602 1.363 . S
C603 C606 1.363 . S
N604 C606 1.356 . S
N604 H616 0.984 . S
N604 H617 0.985 . S
N605 C607 1.356 . S
N605 H610 0.984 . S
N605 H611 0.985 1_556 S
C606 C600 1.379 . S
C606 C603 1.363 . S
C606 N604 1.356 . S
C607 C601 1.363 . S
C607 C602 1.379 . S
C607 N605 1.356 . S
N608 C600 1.356 . S
N608 H614 0.984 . S
N608 H615 0.984 . S
N609 C602 1.356 1_554 S
N609 H612 0.984 . S
N609 H613 0.988 . S
H610 N605 0.984 . S
H611 N605 0.985 1_554 S
H612 N609 0.984 . S
H613 N609 0.988 . S
H614 N608 0.984 . S
H615 N608 0.984 . S
H616 N604 0.984 . S
H617 N604 0.985 . S
C618 C619 1.363 . S
C618 C624 1.379 . S
C618 N626 1.356 . S
C619 C618 1.363 . S
C619 C625 1.363 . S
C620 C621 1.363 . S
C620 C625 1.379 . S
C620 N627 1.356 . S
C621 C620 1.363 . S
C621 C624 1.363 . S
N622 C624 1.356 . S
N622 H634 0.984 . S
N622 H635 0.985 . S
N623 C625 1.356 . S
N623 H628 0.984 . S
N623 H629 0.985 1_554 S
C624 C618 1.379 . S
C624 C621 1.363 . S
C624 N622 1.356 . S
C625 C619 1.363 . S
C625 C620 1.379 . S
C625 N623 1.356 . S
N626 C618 1.356 . S
N626 H632 0.984 . S
N626 H633 0.984 . S
N627 C620 1.356 . S
N627 H630 0.984 . S
N627 H631 0.985 1_554 S
H628 N623 0.984 . S
H629 N623 0.985 1_556 S
H630 N627 0.984 . S
H631 N627 0.985 1_556 S
H632 N626 0.984 . S
H633 N626 0.984 . S
H634 N622 0.984 . S
H635 N622 0.985 . S
C636 C637 1.363 . S
C636 C642 1.379 . S
C636 N644 1.356 . S
C637 C636 1.363 . S
C637 C643 1.363 . S
C638 C639 1.363 . S
C638 C643 1.379 . S
C638 N645 1.356 . S
C639 C638 1.363 . S
C639 C642 1.363 . S
N640 C642 1.356 . S
N640 H652 0.984 . S
N640 H653 0.985 . S
N641 C643 1.356 . S
N641 H646 0.984 . S
N641 H647 0.985 . S
C642 C636 1.379 . S
C642 C639 1.363 . S
C642 N640 1.356 . S
C643 C637 1.363 . S
C643 C638 1.379 . S
C643 N641 1.356 . S
N644 C636 1.356 . S
N644 H650 0.984 . S
N644 H651 0.984 . S
N645 C638 1.356 . S
N645 H648 0.984 . S
N645 H649 0.985 . S
H646 N641 0.984 . S
H647 N641 0.985 . S
H648 N645 0.984 . S
H649 N645 0.985 . S
H650 N644 0.984 . S
H651 N644 0.984 . S
H652 N640 0.984 . S
H653 N640 0.985 . S
C654 C655 1.363 . S
C654 C660 1.379 . S
C654 N662 1.356 . S
C655 C654 1.363 . S
C655 C661 1.363 . S
C656 C657 1.363 . S
C656 C661 1.379 . S
C656 N663 1.356 . S
C657 C656 1.363 . S
C657 C660 1.363 . S
N658 C660 1.356 . S
N658 H670 0.984 . S
N658 H671 0.985 . S
N659 C661 1.356 . S
N659 H664 0.984 . S
N659 H665 0.985 . S
C660 C654 1.379 . S
C660 C657 1.363 . S
C660 N658 1.356 . S
C661 C655 1.363 . S
C661 C656 1.379 . S
C661 N659 1.356 . S
N662 C654 1.356 . S
N662 H668 0.984 . S
N662 H669 0.984 . S
N663 C656 1.356 . S
N663 H666 0.984 . S
N663 H667 0.985 . S
H664 N659 0.984 . S
H665 N659 0.985 . S
H666 N663 0.984 . S
H667 N663 0.985 . S
H668 N662 0.984 . S
H669 N662 0.984 . S
H670 N658 0.984 . S
H671 N658 0.985 . S
C241 N1 2.176 . S
C243 C104 2.219 . S
C259 N18 2.526 1_545 S
C261 C146 2.573 . S
C279 C176 0.814 . S
C277 N28 0.813 . S
C295 N40 1.176 . S
C297 C210 1.168 . S
C315 C167 2.115 . S
C313 N5 2.064 . S
C333 C121 1.907 . S
C331 N14 1.814 . S
C351 C214 1.288 . S
C349 N31 1.236 . S
C369 C180 0.963 . S
C367 N41 0.948 . S
C385 N2 2.081 . S
C387 C235 2.097 . S
C405 C142 1.198 . S
C403 N27 1.149 . S
C421 N44 1.305 . S
C423 C117 1.294 . S
C439 N15 2.000 . S
C441 C201 2.004 . S
C459 C133 2.551 1_655 S
C457 N57 2.506 . S
C475 N70 2.072 . S
C477 C155 2.114 . S
C493 N79 1.001 . S
C495 C185 1.011 . S
C511 N93 0.906 . S
C513 C219 0.916 . S
C529 N54 1.753 1_545 S
C531 C138 1.765 1_556 S
C549 C112 2.161 . S
C547 N66 2.103 . S
C567 C223 0.788 . S
C565 N80 0.782 . S
C585 C189 1.385 . S
C583 N96 1.333 . S
C601 N53 2.091 . S
C603 C206 2.164 . S
C621 C151 1.267 . S
C619 N83 1.297 . S
C639 C108 1.251 . S
C637 N92 1.173 . S
C655 N67 2.065 . S
C657 C172 2.081 . S
