# Generated by pormake.
# Topology bwt, (3,3)-cn, num edge types: 1
# Building blocks:
#     Node 0, Type 0, BuildingBlock: OLANEW_clean_sbu_2, # of connection points: 3
#     Node 1, Type 0, BuildingBlock: OLANEW_clean_sbu_2, # of connection points: 3
#     Node 2, Type 0, BuildingBlock: OLANEW_clean_sbu_2, # of connection points: 3
#     Node 3, Type 0, BuildingBlock: OLANEW_clean_sbu_2, # of connection points: 3
#     Node 4, Type 0, BuildingBlock: OLANEW_clean_sbu_2, # of connection points: 3
#     Node 5, Type 0, BuildingBlock: OLANEW_clean_sbu_2, # of connection points: 3
#     Node 6, Type 0, BuildingBlock: OLANEW_clean_sbu_2, # of connection points: 3
#     Node 7, Type 0, BuildingBlock: OLANEW_clean_sbu_2, # of connection points: 3
#     Node 8, Type 0, BuildingBlock: OLANEW_clean_sbu_2, # of connection points: 3
#     Node 9, Type 0, BuildingBlock: OLANEW_clean_sbu_2, # of connection points: 3
#     Node 10, Type 0, BuildingBlock: OLANEW_clean_sbu_2, # of connection points: 3
#     Node 11, Type 0, BuildingBlock: OLANEW_clean_sbu_2, # of connection points: 3
#     Node 12, Type 0, BuildingBlock: OLANEW_clean_sbu_2, # of connection points: 3
#     Node 13, Type 0, BuildingBlock: OLANEW_clean_sbu_2, # of connection points: 3
#     Node 14, Type 0, BuildingBlock: OLANEW_clean_sbu_2, # of connection points: 3
#     Node 15, Type 0, BuildingBlock: OLANEW_clean_sbu_2, # of connection points: 3
#     Node 16, Type 0, BuildingBlock: OLANEW_clean_sbu_2, # of connection points: 3
#     Node 17, Type 0, BuildingBlock: OLANEW_clean_sbu_2, # of connection points: 3
#     Node 18, Type 0, BuildingBlock: OLANEW_clean_sbu_2, # of connection points: 3
#     Node 19, Type 0, BuildingBlock: OLANEW_clean_sbu_2, # of connection points: 3
#     Node 20, Type 0, BuildingBlock: OLANEW_clean_sbu_2, # of connection points: 3
#     Node 21, Type 0, BuildingBlock: OLANEW_clean_sbu_2, # of connection points: 3
#     Node 22, Type 0, BuildingBlock: OLANEW_clean_sbu_2, # of connection points: 3
#     Node 23, Type 0, BuildingBlock: OLANEW_clean_sbu_2, # of connection points: 3
#     Node 24, Type 1, BuildingBlock: BELTOD_clean_linker_0, # of connection points: 3
#     Node 25, Type 1, BuildingBlock: BELTOD_clean_linker_0, # of connection points: 3
#     Node 26, Type 1, BuildingBlock: BELTOD_clean_linker_0, # of connection points: 3
#     Node 27, Type 1, BuildingBlock: BELTOD_clean_linker_0, # of connection points: 3
#     Node 28, Type 1, BuildingBlock: BELTOD_clean_linker_0, # of connection points: 3
#     Node 29, Type 1, BuildingBlock: BELTOD_clean_linker_0, # of connection points: 3
#     Node 30, Type 1, BuildingBlock: BELTOD_clean_linker_0, # of connection points: 3
#     Node 31, Type 1, BuildingBlock: BELTOD_clean_linker_0, # of connection points: 3
#     Node 32, Type 1, BuildingBlock: BELTOD_clean_linker_0, # of connection points: 3
#     Node 33, Type 1, BuildingBlock: BELTOD_clean_linker_0, # of connection points: 3
#     Node 34, Type 1, BuildingBlock: BELTOD_clean_linker_0, # of connection points: 3
#     Node 35, Type 1, BuildingBlock: BELTOD_clean_linker_0, # of connection points: 3
#     Node 36, Type 1, BuildingBlock: BELTOD_clean_linker_0, # of connection points: 3
#     Node 37, Type 1, BuildingBlock: BELTOD_clean_linker_0, # of connection points: 3
#     Node 38, Type 1, BuildingBlock: BELTOD_clean_linker_0, # of connection points: 3
#     Node 39, Type 1, BuildingBlock: BELTOD_clean_linker_0, # of connection points: 3
#     Node 40, Type 1, BuildingBlock: BELTOD_clean_linker_0, # of connection points: 3
#     Node 41, Type 1, BuildingBlock: BELTOD_clean_linker_0, # of connection points: 3
#     Node 42, Type 1, BuildingBlock: BELTOD_clean_linker_0, # of connection points: 3
#     Node 43, Type 1, BuildingBlock: BELTOD_clean_linker_0, # of connection points: 3
#     Node 44, Type 1, BuildingBlock: BELTOD_clean_linker_0, # of connection points: 3
#     Node 45, Type 1, BuildingBlock: BELTOD_clean_linker_0, # of connection points: 3
#     Node 46, Type 1, BuildingBlock: BELTOD_clean_linker_0, # of connection points: 3
#     Node 47, Type 1, BuildingBlock: BELTOD_clean_linker_0, # of connection points: 3
#     Edge 48, Type (0, 1), BuildingBlock: EZIPEK_clean_linker_0, # of connection points: 2
#     Edge 49, Type (0, 1), BuildingBlock: EZIPEK_clean_linker_0, # of connection points: 2
#     Edge 50, Type (0, 1), BuildingBlock: EZIPEK_clean_linker_0, # of connection points: 2
#     Edge 51, Type (0, 1), BuildingBlock: EZIPEK_clean_linker_0, # of connection points: 2
#     Edge 52, Type (0, 1), BuildingBlock: EZIPEK_clean_linker_0, # of connection points: 2
#     Edge 53, Type (0, 1), BuildingBlock: EZIPEK_clean_linker_0, # of connection points: 2
#     Edge 54, Type (0, 1), BuildingBlock: EZIPEK_clean_linker_0, # of connection points: 2
#     Edge 55, Type (0, 1), BuildingBlock: EZIPEK_clean_linker_0, # of connection points: 2
#     Edge 56, Type (0, 1), BuildingBlock: EZIPEK_clean_linker_0, # of connection points: 2
#     Edge 57, Type (0, 1), BuildingBlock: EZIPEK_clean_linker_0, # of connection points: 2
#     Edge 58, Type (0, 1), BuildingBlock: EZIPEK_clean_linker_0, # of connection points: 2
#     Edge 59, Type (0, 1), BuildingBlock: EZIPEK_clean_linker_0, # of connection points: 2
#     Edge 60, Type (0, 1), BuildingBlock: EZIPEK_clean_linker_0, # of connection points: 2
#     Edge 61, Type (0, 1), BuildingBlock: EZIPEK_clean_linker_0, # of connection points: 2
#     Edge 62, Type (0, 1), BuildingBlock: EZIPEK_clean_linker_0, # of connection points: 2
#     Edge 63, Type (0, 1), BuildingBlock: EZIPEK_clean_linker_0, # of connection points: 2
#     Edge 64, Type (0, 1), BuildingBlock: EZIPEK_clean_linker_0, # of connection points: 2
#     Edge 65, Type (0, 1), BuildingBlock: EZIPEK_clean_linker_0, # of connection points: 2
#     Edge 66, Type (0, 1), BuildingBlock: EZIPEK_clean_linker_0, # of connection points: 2
#     Edge 67, Type (0, 1), BuildingBlock: EZIPEK_clean_linker_0, # of connection points: 2
#     Edge 68, Type (0, 1), BuildingBlock: EZIPEK_clean_linker_0, # of connection points: 2
#     Edge 69, Type (0, 1), BuildingBlock: EZIPEK_clean_linker_0, # of connection points: 2
#     Edge 70, Type (0, 1), BuildingBlock: EZIPEK_clean_linker_0, # of connection points: 2
#     Edge 71, Type (0, 1), BuildingBlock: EZIPEK_clean_linker_0, # of connection points: 2
#     Edge 72, Type (0, 1), BuildingBlock: EZIPEK_clean_linker_0, # of connection points: 2
#     Edge 73, Type (0, 1), BuildingBlock: EZIPEK_clean_linker_0, # of connection points: 2
#     Edge 74, Type (0, 1), BuildingBlock: EZIPEK_clean_linker_0, # of connection points: 2
#     Edge 75, Type (0, 1), BuildingBlock: EZIPEK_clean_linker_0, # of connection points: 2
#     Edge 76, Type (0, 1), BuildingBlock: EZIPEK_clean_linker_0, # of connection points: 2
#     Edge 77, Type (0, 1), BuildingBlock: EZIPEK_clean_linker_0, # of connection points: 2
#     Edge 78, Type (0, 1), BuildingBlock: EZIPEK_clean_linker_0, # of connection points: 2
#     Edge 79, Type (0, 1), BuildingBlock: EZIPEK_clean_linker_0, # of connection points: 2
#     Edge 80, Type (0, 1), BuildingBlock: EZIPEK_clean_linker_0, # of connection points: 2
#     Edge 81, Type (0, 1), BuildingBlock: EZIPEK_clean_linker_0, # of connection points: 2
#     Edge 82, Type (0, 1), BuildingBlock: EZIPEK_clean_linker_0, # of connection points: 2
#     Edge 83, Type (0, 1), BuildingBlock: EZIPEK_clean_linker_0, # of connection points: 2
#     Edge 84, Type (0, 1), BuildingBlock: EZIPEK_clean_linker_0, # of connection points: 2
#     Edge 85, Type (0, 1), BuildingBlock: EZIPEK_clean_linker_0, # of connection points: 2
#     Edge 86, Type (0, 1), BuildingBlock: EZIPEK_clean_linker_0, # of connection points: 2
#     Edge 87, Type (0, 1), BuildingBlock: EZIPEK_clean_linker_0, # of connection points: 2
#     Edge 88, Type (0, 1), BuildingBlock: EZIPEK_clean_linker_0, # of connection points: 2
#     Edge 89, Type (0, 1), BuildingBlock: EZIPEK_clean_linker_0, # of connection points: 2
#     Edge 90, Type (0, 1), BuildingBlock: EZIPEK_clean_linker_0, # of connection points: 2
#     Edge 91, Type (0, 1), BuildingBlock: EZIPEK_clean_linker_0, # of connection points: 2
#     Edge 92, Type (0, 1), BuildingBlock: EZIPEK_clean_linker_0, # of connection points: 2
#     Edge 93, Type (0, 1), BuildingBlock: EZIPEK_clean_linker_0, # of connection points: 2
#     Edge 94, Type (0, 1), BuildingBlock: EZIPEK_clean_linker_0, # of connection points: 2
#     Edge 95, Type (0, 1), BuildingBlock: EZIPEK_clean_linker_0, # of connection points: 2
#     Edge 96, Type (0, 1), BuildingBlock: EZIPEK_clean_linker_0, # of connection points: 2
#     Edge 97, Type (0, 1), BuildingBlock: EZIPEK_clean_linker_0, # of connection points: 2
#     Edge 98, Type (0, 1), BuildingBlock: EZIPEK_clean_linker_0, # of connection points: 2
#     Edge 99, Type (0, 1), BuildingBlock: EZIPEK_clean_linker_0, # of connection points: 2
#     Edge 100, Type (0, 1), BuildingBlock: EZIPEK_clean_linker_0, # of connection points: 2
#     Edge 101, Type (0, 1), BuildingBlock: EZIPEK_clean_linker_0, # of connection points: 2
#     Edge 102, Type (0, 1), BuildingBlock: EZIPEK_clean_linker_0, # of connection points: 2
#     Edge 103, Type (0, 1), BuildingBlock: EZIPEK_clean_linker_0, # of connection points: 2
#     Edge 104, Type (0, 1), BuildingBlock: EZIPEK_clean_linker_0, # of connection points: 2
#     Edge 105, Type (0, 1), BuildingBlock: EZIPEK_clean_linker_0, # of connection points: 2
#     Edge 106, Type (0, 1), BuildingBlock: EZIPEK_clean_linker_0, # of connection points: 2
#     Edge 107, Type (0, 1), BuildingBlock: EZIPEK_clean_linker_0, # of connection points: 2
#     Edge 108, Type (0, 1), BuildingBlock: EZIPEK_clean_linker_0, # of connection points: 2
#     Edge 109, Type (0, 1), BuildingBlock: EZIPEK_clean_linker_0, # of connection points: 2
#     Edge 110, Type (0, 1), BuildingBlock: EZIPEK_clean_linker_0, # of connection points: 2
#     Edge 111, Type (0, 1), BuildingBlock: EZIPEK_clean_linker_0, # of connection points: 2
#     Edge 112, Type (0, 1), BuildingBlock: EZIPEK_clean_linker_0, # of connection points: 2
#     Edge 113, Type (0, 1), BuildingBlock: EZIPEK_clean_linker_0, # of connection points: 2
#     Edge 114, Type (0, 1), BuildingBlock: EZIPEK_clean_linker_0, # of connection points: 2
#     Edge 115, Type (0, 1), BuildingBlock: EZIPEK_clean_linker_0, # of connection points: 2
#     Edge 116, Type (0, 1), BuildingBlock: EZIPEK_clean_linker_0, # of connection points: 2
#     Edge 117, Type (0, 1), BuildingBlock: EZIPEK_clean_linker_0, # of connection points: 2
#     Edge 118, Type (0, 1), BuildingBlock: EZIPEK_clean_linker_0, # of connection points: 2
#     Edge 119, Type (0, 1), BuildingBlock: EZIPEK_clean_linker_0, # of connection points: 2
# Relax obj value: 0.125
# Max RMSD: 0.130
# Mean RMSD: 0.086
data_MOF--net-bwt--node1-OLANEW_clean_sbu_2--node2-BELTOD_clean_linker_0--edge1-EZIPEK_clean_linker_0
_symmetry_space_group_name_H-M    P1
_symmetry_Int_Tables_number       1
_symmetry_cell_setting            triclinic
loop_
_symmetry_equiv_pos_as_xyz
'x, y, z'
_cell_length_a     51.376499
_cell_length_b     51.423678
_cell_length_c     51.447069
_cell_angle_alpha  93.352181
_cell_angle_beta   93.334114
_cell_angle_gamma 93.379888
loop_
_atom_site_label
_atom_site_type_symbol
_atom_site_fract_x
_atom_site_fract_y
_atom_site_fract_z
_atom_type_partial_charge
O0 O 0.28014 0.59504 0.33201 0.0
Cd1 Cd 0.26309 0.5971 0.28696 0.0
O2 O 0.31079 0.56805 0.32311 0.0
Cd3 Cd 0.31132 0.57002 0.28089 0.0
O4 O 0.34887 0.56296 0.26477 0.0
C5 C 0.36781 0.57396 0.27912 0.0
O6 O 0.36281 0.58971 0.29897 0.0
C7 C 0.29791 0.58051 0.3395 0.0
C8 C 0.20901 0.58982 0.28831 0.0
O9 O 0.22335 0.57036 0.28608 0.0
O10 O 0.22001 0.61287 0.2885 0.0
O11 O 0.22843 0.43628 0.71145 0.0
Cd12 Cd 0.23803 0.42031 0.66747 0.0
O13 O 0.22579 0.39582 0.72309 0.0
Cd14 Cd 0.20664 0.38369 0.68494 0.0
O15 O 0.16392 0.38225 0.67931 0.0
C16 C 0.15358 0.40229 0.6888 0.0
O17 O 0.16876 0.42274 0.69758 0.0
C18 C 0.22834 0.42016 0.72925 0.0
C19 C 0.2908 0.41006 0.67149 0.0
O20 O 0.2837 0.43278 0.66643 0.0
O21 O 0.27307 0.39177 0.6733 0.0
O22 O 0.76174 0.96285 0.65952 0.0
Cd23 Cd 0.75777 0.97203 0.70604 0.0
O24 O 0.78942 0.99656 0.65475 0.0
Cd25 Cd 0.80419 0.00529 0.69512 0.0
O26 O 0.84303 0.02188 0.70913 0.0
C27 C 0.85998 0.0187 0.69235 0.0
O28 O 0.85317 0.00496 0.67043 0.0
C29 C 0.77399 0.97784 0.645 0.0
C30 C 0.70617 0.98513 0.70891 0.0
O31 O 0.72451 0.00267 0.70657 0.0
O32 O 0.71231 0.96159 0.71156 0.0
O33 O 0.72052 0.99387 0.27772 0.0
Cd34 Cd 0.73542 0.98402 0.32178 0.0
O35 O 0.71341 0.03439 0.28985 0.0
Cd36 Cd 0.70196 0.02033 0.32702 0.0
O37 O 0.66192 0.00502 0.33187 0.0
C38 C 0.65143 0.99184 0.31189 0.0
O39 O 0.66581 0.98603 0.29236 0.0
C40 C 0.7161 0.01693 0.27187 0.0
C41 C 0.78811 0.97591 0.31767 0.0
O42 O 0.77081 0.9568 0.31483 0.0
O43 O 0.78078 -0.0013 0.32398 0.0
O44 O 0.32603 0.31058 0.56436 0.0
Cd45 Cd 0.28133 0.2911 0.55911 0.0
O46 O 0.3278 0.31143 0.60728 0.0
Cd47 Cd 0.28511 0.31015 0.6041 0.0
O48 O 0.26847 0.3417 0.5832 0.0
C49 C 0.28033 0.36332 0.59111 0.0
O50 O 0.29678 0.36394 0.61167 0.0
C51 C 0.33914 0.31397 0.58616 0.0
C52 C 0.28433 0.23789 0.56472 0.0
O53 O 0.28556 0.24739 0.54232 0.0
O54 O 0.28054 0.25331 0.58443 0.0
O55 O 0.29347 0.72904 0.03866 0.0
Cd56 Cd 0.33707 0.74628 0.03028 0.0
O57 O 0.28395 0.72592 0.99627 0.0
Cd58 Cd 0.32421 0.72246 0.98581 0.0
O59 O 0.33149 0.68411 0.96838 0.0
C60 C 0.31948 0.66594 0.97947 0.0
O61 O 0.30791 0.67169 0.00098 0.0
C62 C 0.27671 0.72532 0.01945 0.0
C63 C 0.32937 0.7961 0.01462 0.0
O64 O 0.32934 0.7768 0.99773 0.0
O65 O 0.3345 0.79218 0.03869 0.0
O66 O 0.71883 0.2032 0.43094 0.0
Cd67 Cd 0.67319 0.21434 0.42726 0.0
O68 O 0.72609 0.21182 0.39044 0.0
Cd69 Cd 0.68413 0.20539 0.38103 0.0
O70 O 0.6683 0.16698 0.39022 0.0
C71 C 0.68416 0.14974 0.38473 0.0
O72 O 0.70461 0.15624 0.37179 0.0
C73 C 0.73465 0.20663 0.41314 0.0
C74 C 0.67481 0.26832 0.42632 0.0
O75 O 0.67506 0.25726 0.44799 0.0
O76 O 0.67268 0.25399 0.405 0.0
O77 O 0.6439 0.7732 0.9849 0.0
Cd78 Cd 0.69062 0.76822 0.99263 0.0
O79 O 0.64551 0.77491 0.94233 0.0
Cd80 Cd 0.68744 0.78452 0.94822 0.0
O81 O 0.70855 0.81723 0.97076 0.0
C82 C 0.69548 0.83744 0.97103 0.0
O83 O 0.67327 0.83689 0.95696 0.0
C84 C 0.6323 0.77342 0.9624 0.0
C85 C 0.69602 0.71517 0.99655 0.0
O86 O 0.6931 0.73019 0.01679 0.0
O87 O 0.69767 0.72534 0.9745 0.0
O88 O 0.56539 0.32321 0.28574 0.0
Cd89 Cd 0.57254 0.27746 0.27469 0.0
O90 O 0.60245 0.33089 0.30948 0.0
Cd91 Cd 0.606 0.28986 0.31672 0.0
O92 O 0.59685 0.28478 0.35707 0.0
C93 C 0.57371 0.28964 0.36228 0.0
O94 O 0.55675 0.29378 0.34312 0.0
C95 C 0.58208 0.33909 0.29834 0.0
C96 C 0.56112 0.27019 0.22116 0.0
O97 O 0.54361 0.2653 0.23726 0.0
O98 O 0.58436 0.27725 0.23029 0.0
O99 O 0.06152 0.30775 0.75897 0.0
Cd100 Cd 0.05415 0.35055 0.77937 0.0
O101 O 0.02849 0.31173 0.73071 0.0
Cd102 Cd 0.00347 0.29474 0.69752 0.0
O103 O 0.9882 0.27393 0.66116 0.0
C104 C 0.98935 0.2852 0.63991 0.0
O105 O -0.00099 0.30945 0.64018 0.0
C106 C 0.04633 0.29821 0.73999 0.0
C107 C 0.02386 0.34182 0.82139 0.0
O108 O 0.04885 0.34313 0.82424 0.0
O109 O 0.0131 0.3457 0.79896 0.0
O110 O 0.43804 0.72605 0.21723 0.0
Cd111 Cd 0.42128 0.68154 0.22306 0.0
O112 O 0.39773 0.73784 0.21137 0.0
Cd113 Cd 0.38524 0.69946 0.19303 0.0
O114 O 0.38765 0.69377 0.15084 0.0
C115 C 0.36947 0.70164 0.13605 0.0
O116 O 0.34817 0.7094 0.14627 0.0
C117 C 0.42195 0.74383 0.21621 0.0
C118 C 0.42071 0.67916 0.27695 0.0
O119 O 0.40089 0.68653 0.26368 0.0
O120 O 0.44017 0.6716 0.26465 0.0
O121 O 0.99193 0.65323 0.76653 0.0
Cd122 Cd 0.99456 0.70046 0.76246 0.0
O123 O 0.95158 0.65207 0.77894 0.0
Cd124 Cd 0.95759 0.69335 0.79121 0.0
O125 O 0.98264 0.70268 0.82655 0.0
C126 C 0.97242 0.69875 0.84797 0.0
O127 O 0.94713 0.69309 0.84786 0.0
C128 C 0.9712 0.64029 0.77162 0.0
C129 C 0.00924 0.70969 0.71247 0.0
O130 O 0.98512 0.70556 0.71692 0.0
O131 O 0.0263 0.71028 0.73172 0.0
O132 O 0.73691 0.38965 0.63073 0.0
Cd133 Cd 0.7371 0.37423 0.67464 0.0
O134 O 0.73863 0.43068 0.64608 0.0
Cd135 Cd 0.72084 0.41948 0.68151 0.0
O136 O 0.68298 0.41335 0.6981 0.0
C137 C 0.6661 0.42922 0.69144 0.0
O138 O 0.67274 0.44794 0.67634 0.0
C139 C 0.74035 0.41385 0.62729 0.0
C140 C 0.78842 0.38196 0.6953 0.0
O141 O 0.78025 0.36019 0.68334 0.0
O142 O 0.77218 0.39969 0.69836 0.0
O143 O 0.75963 0.62068 0.24454 0.0
Cd144 Cd 0.77129 0.63989 0.2884 0.0
O145 O 0.76345 0.5808 0.2572 0.0
Cd146 Cd 0.78917 0.59368 0.29127 0.0
O147 O 0.82911 0.5917 0.30763 0.0
C148 C 0.8412 0.57333 0.29721 0.0
O149 O 0.82896 0.55741 0.27899 0.0
C150 C 0.75626 0.59611 0.24004 0.0
C151 C 0.72665 0.63314 0.31677 0.0
O152 O 0.73052 0.6532 0.30356 0.0
O153 O 0.74416 0.6164 0.31646 0.0
O154 O 0.25328 0.03624 0.33743 0.0
Cd155 Cd 0.24465 0.03066 0.29038 0.0
O156 O 0.2426 0.99491 0.34307 0.0
Cd157 Cd 0.21734 0.99001 0.30733 0.0
O158 O 0.17761 0.98329 0.28961 0.0
C159 C 0.15957 0.99328 0.30201 0.0
O160 O 0.16567 0.00776 0.32364 0.0
C161 C 0.25295 0.01698 0.35181 0.0
C162 C 0.29124 0.01407 0.27198 0.0
O163 O 0.2877 0.03842 0.27576 0.0
O164 O 0.27232 0.99758 0.27564 0.0
O165 O 0.25451 0.97152 0.73652 0.0
Cd166 Cd 0.25163 0.98234 0.69096 0.0
O167 O 0.27108 0.01114 0.74873 0.0
Cd168 Cd 0.28513 0.0185 0.71053 0.0
O169 O 0.32298 0.02323 0.6936 0.0
C170 C 0.34151 0.03104 0.71019 0.0
O171 O 0.33626 0.03587 0.73463 0.0
C172 C 0.26139 0.98904 0.75445 0.0
C173 C 0.20604 0.00825 0.68247 0.0
O174 O 0.20597 0.9834 0.67858 0.0
O175 O 0.22769 0.02096 0.68973 0.0
O176 O 0.61812 0.75352 0.36735 0.0
Cd177 Cd 0.65304 0.76248 0.33834 0.0
O178 O 0.64099 0.724 0.38559 0.0
Cd179 Cd 0.64663 0.6931 0.41227 0.0
O180 O 0.65825 0.65587 0.42596 0.0
C181 C 0.6571 0.63703 0.40875 0.0
O182 O 0.64885 0.64091 0.38475 0.0
C183 C 0.62051 0.73664 0.38422 0.0
C184 C 0.68085 0.80826 0.35716 0.0
O185 O 0.66109 0.80881 0.34086 0.0
O186 O 0.68797 0.78606 0.364 0.0
O187 O 0.72558 0.21998 0.93022 0.0
Cd188 Cd 0.68178 0.19936 0.92187 0.0
O189 O 0.71028 0.25743 0.94258 0.0
Cd190 Cd 0.71553 0.29763 0.95898 0.0
O191 O 0.71228 0.33729 0.97547 0.0
C192 C 0.73172 0.35379 0.97938 0.0
O193 O 0.7551 0.3471 0.97366 0.0
C194 C 0.72954 0.24354 0.93905 0.0
C195 C 0.67691 0.15837 0.95451 0.0
O196 O 0.68485 0.15464 0.93151 0.0
O197 O 0.67063 0.18127 0.96189 0.0
O198 O 0.25558 0.74127 0.6489 0.0
Cd199 Cd 0.29363 0.73183 0.67649 0.0
O200 O 0.27086 0.78091 0.64194 0.0
Cd201 Cd 0.26829 0.81788 0.62348 0.0
O202 O 0.27317 0.85664 0.60863 0.0
C203 C 0.27905 0.87632 0.62443 0.0
O204 O 0.28137 0.87319 0.6496 0.0
C205 C 0.25335 0.76244 0.63771 0.0
C206 C 0.31728 0.69202 0.64967 0.0
O207 O 0.2988 0.68694 0.66464 0.0
O208 O 0.32551 0.71589 0.64832 0.0
O209 O 0.30543 0.28755 0.06513 0.0
Cd210 Cd 0.26177 0.29906 0.07555 0.0
O211 O 0.29273 0.24683 0.05333 0.0
Cd212 Cd 0.29944 0.20777 0.03715 0.0
O213 O 0.29601 0.16698 0.02236 0.0
C214 C 0.31485 0.15207 0.02362 0.0
O215 O 0.33789 0.16127 0.03365 0.0
C216 C 0.31062 0.26506 0.05612 0.0
C217 C 0.24949 0.33979 0.04479 0.0
O218 O 0.26068 0.34438 0.06765 0.0
O219 O 0.24324 0.31604 0.03681 0.0
O220 O 0.38117 0.61494 0.73136 0.0
Cd221 Cd 0.37047 0.65979 0.72544 0.0
O222 O 0.42307 0.62558 0.72847 0.0
Cd223 Cd 0.41619 0.66008 0.70713 0.0
O224 O 0.41772 0.6753 0.66851 0.0
C225 C 0.40884 0.65997 0.64935 0.0
O226 O 0.39836 0.63687 0.65382 0.0
C227 C 0.40489 0.60925 0.73372 0.0
C228 C 0.37628 0.68516 0.77481 0.0
O229 O 0.354 0.6748 0.76591 0.0
O230 O 0.3955 0.68449 0.76004 0.0
O231 O 0.94532 0.72689 0.22134 0.0
Cd232 Cd 0.94221 0.67987 0.2116 0.0
O233 O 0.96794 0.72316 0.25831 0.0
Cd234 Cd 0.98994 0.73927 0.29384 0.0
O235 O 0.00986 0.7438 0.33266 0.0
C236 C 0.99771 0.75111 0.35236 0.0
O237 O 0.97324 0.75697 0.34922 0.0
C238 C 0.95779 0.73744 0.24165 0.0
C239 C 0.97319 0.67013 0.17014 0.0
O240 O 0.94922 0.67517 0.16614 0.0
O241 O 0.98245 0.66892 0.19367 0.0
O242 O 0.65654 0.23901 0.73872 0.0
Cd243 Cd 0.67722 0.2829 0.74059 0.0
O244 O 0.64366 0.24592 0.77834 0.0
Cd245 Cd 0.62082 0.23531 0.81105 0.0
O246 O 0.60214 0.23326 0.84801 0.0
C247 C 0.59377 0.25427 0.8576 0.0
O248 O 0.59646 0.27565 0.84498 0.0
C249 C 0.64323 0.23166 0.75729 0.0
C250 C 0.65308 0.3062 0.69888 0.0
O251 O 0.67604 0.298 0.69725 0.0
O252 O 0.64228 0.30463 0.7206 0.0
O253 O 0.0637 0.3168 0.28726 0.0
Cd254 Cd 0.07272 0.27084 0.28324 0.0
O255 O 0.03793 0.31228 0.25161 0.0
Cd256 Cd 0.01081 0.32545 0.22157 0.0
O257 O 0.99048 0.32459 0.18303 0.0
C258 C 0.00443 0.32234 0.16352 0.0
O259 O 0.02987 0.3216 0.1674 0.0
C260 C 0.04792 0.32648 0.2711 0.0
C261 C 0.04555 0.24686 0.3213 0.0
O262 O 0.06918 0.25603 0.32614 0.0
O263 O 0.03505 0.2481 0.29824 0.0
P264 P 0.35378 0.53415 0.52719 0.0
H265 H 0.39266 0.56972 0.55749 0.0
H266 H 0.38822 0.60771 0.58784 0.0
H267 H 0.30441 0.59462 0.57973 0.0
H268 H 0.30874 0.55659 0.54959 0.0
H269 H 0.29863 0.51516 0.51804 0.0
H270 H 0.27437 0.47533 0.53006 0.0
H271 H 0.34465 0.45034 0.56837 0.0
H272 H 0.36884 0.49004 0.55653 0.0
H273 H 0.34004 0.50451 0.47775 0.0
H274 H 0.34323 0.58518 0.50689 0.0
O275 O 0.38511 0.52769 0.52544 0.0
H276 H 0.32587 0.5175 0.4342 0.0
H277 H 0.32885 0.59797 0.4635 0.0
C278 C 0.351 0.56015 0.5516 0.0
C279 C 0.37334 0.57473 0.56255 0.0
C280 C 0.37087 0.5964 0.57977 0.0
C281 C 0.34602 0.6038 0.58591 0.0
C282 C 0.32373 0.58905 0.5752 0.0
C283 C 0.32621 0.56734 0.55815 0.0
C284 C 0.33564 0.50526 0.53598 0.0
C285 C 0.30882 0.50109 0.52898 0.0
C286 C 0.29498 0.47849 0.53586 0.0
C287 C 0.30783 0.45997 0.54996 0.0
C288 C 0.3345 0.46442 0.55738 0.0
C289 C 0.34827 0.48699 0.55057 0.0
C290 C 0.34216 0.54376 0.49569 0.0
C291 C 0.33742 0.52491 0.47488 0.0
C292 C 0.3294 0.53228 0.45009 0.0
C293 C 0.32625 0.55864 0.4458 0.0
C294 C 0.33107 0.57753 0.46657 0.0
C295 C 0.33917 0.57016 0.49133 0.0
P296 P 0.22383 0.49069 0.92187 0.0
H297 H 0.18726 0.45165 0.94065 0.0
H298 H 0.19283 0.41613 0.96997 0.0
H299 H 0.27499 0.43888 0.98178 0.0
H300 H 0.26952 0.47431 0.95232 0.0
H301 H 0.21755 0.53809 0.95405 0.0
H302 H 0.24605 0.57757 0.96514 0.0
H303 H 0.30676 0.5446 0.9217 0.0
H304 H 0.27805 0.50498 0.9103 0.0
H305 H 0.23211 0.43814 0.8987 0.0
H306 H 0.22559 0.51606 0.87296 0.0
O307 O 0.19317 0.49972 0.92214 0.0
H308 H 0.23485 0.4215 0.85341 0.0
H309 H 0.22837 0.49924 0.82756 0.0
C310 C 0.22787 0.46594 0.9448 0.0
C311 C 0.20641 0.44923 0.9498 0.0
C312 C 0.20956 0.42897 0.96642 0.0
C313 C 0.23426 0.42511 0.9781 0.0
C314 C 0.25576 0.44176 0.97304 0.0
C315 C 0.25261 0.46198 0.95634 0.0
C316 C 0.24553 0.51891 0.93093 0.0
C317 C 0.23695 0.5393 0.94687 0.0
C318 C 0.2532 0.56174 0.95327 0.0
C319 C 0.27834 0.56394 0.94408 0.0
C320 C 0.28734 0.54318 0.92885 0.0
C321 C 0.27097 0.52073 0.92231 0.0
C322 C 0.22881 0.47842 0.88919 0.0
C323 C 0.23163 0.45175 0.88344 0.0
C324 C 0.2332 0.4422 0.85763 0.0
C325 C 0.23186 0.4592 0.8373 0.0
C326 C 0.22957 0.48592 0.84308 0.0
C327 C 0.22799 0.49546 0.86889 0.0
P328 P 0.76084 0.98416 0.44405 0.0
H329 H 0.78547 0.94306 0.41417 0.0
H330 H 0.76807 0.90119 0.39273 0.0
H331 H 0.69075 0.91787 0.41464 0.0
H332 H 0.70808 0.95951 0.43632 0.0
H333 H 0.76849 0.02312 0.40577 0.0
H334 H 0.74353 0.0601 0.39325 0.0
H335 H 0.68566 0.03965 0.44726 0.0
H336 H 0.71097 0.00289 0.46028 0.0
H337 H 0.76049 0.93851 0.47586 0.0
H338 H 0.76193 0.02235 0.48846 0.0
O339 O 0.79181 0.99042 0.43703 0.0
H340 H 0.76234 0.9343 0.52319 0.0
H341 H 0.76362 0.01799 0.53579 0.0
C342 C 0.74796 0.95455 0.42647 0.0
C343 C 0.76473 0.93788 0.41411 0.0
C344 C 0.75488 0.91404 0.40192 0.0
C345 C 0.72816 0.90666 0.40204 0.0
C346 C 0.71139 0.92342 0.41424 0.0
C347 C 0.72127 0.94717 0.4265 0.0
C348 C 0.74185 0.01066 0.43434 0.0
C349 C 0.75051 0.0266 0.41502 0.0
C350 C 0.73623 0.04758 0.40777 0.0
C351 C 0.71295 0.05267 0.41955 0.0
C352 C 0.70369 0.03607 0.43813 0.0
C353 C 0.71814 0.0152 0.44555 0.0
C354 C 0.76042 0.98075 0.47863 0.0
C355 C 0.76079 0.95597 0.48871 0.0
C356 C 0.76191 0.95352 0.51567 0.0
C357 C 0.7629 0.97583 0.53279 0.0
C358 C 0.76263 0.00059 0.52275 0.0
C359 C 0.7616 0.00304 0.49582 0.0
P360 P 0.66543 0.00431 0.07615 0.0
H361 H 0.62907 0.04331 0.06146 0.0
H362 H 0.63239 0.07992 0.03314 0.0
H363 H 0.71185 0.06315 0.0194 0.0
H364 H 0.70865 0.02649 0.0479 0.0
H365 H 0.63889 0.96224 0.04263 0.0
H366 H 0.65417 0.92352 0.01974 0.0
H367 H 0.73333 0.94609 0.04828 0.0
H368 H 0.71794 0.98495 0.07169 0.0
H369 H 0.68065 0.05261 0.10815 0.0
H370 H 0.68393 0.96959 0.11489 0.0
O371 O 0.63386 0.99795 0.08079 0.0
H372 H 0.69574 0.06023 0.15434 0.0
H373 H 0.69907 0.97728 0.16088 0.0
C374 C 0.66848 0.03193 0.05641 0.0
C375 C 0.64723 0.04745 0.05241 0.0
C376 C 0.64909 0.06834 0.03632 0.0
C377 C 0.67228 0.07402 0.02413 0.0
C378 C 0.69378 0.0589 0.02861 0.0
C379 C 0.69192 0.03802 0.04478 0.0
C380 C 0.67722 0.97617 0.05922 0.0
C381 C 0.65951 0.95887 0.04417 0.0
C382 C 0.6682 0.93683 0.03108 0.0
C383 C 0.69478 0.93194 0.03258 0.0
C384 C 0.71271 0.94954 0.04712 0.0
C385 C 0.70394 0.9716 0.0604 0.0
C386 C 0.68173 0.01055 0.10796 0.0
C387 C 0.68534 0.0361 0.11928 0.0
C388 C 0.69387 0.04048 0.14559 0.0
C389 C 0.69856 0.01928 0.16083 0.0
C390 C 0.69575 0.99383 0.14928 0.0
C391 C 0.68721 0.98948 0.12306 0.0
P392 P 0.5309 0.36128 0.54677 0.0
H393 H 0.57823 0.38871 0.57198 0.0
H394 H 0.6091 0.3773 0.6072 0.0
H395 H 0.56478 0.30416 0.61263 0.0
H396 H 0.53413 0.31534 0.57724 0.0
H397 H 0.49886 0.34813 0.49827 0.0
H398 H 0.50895 0.32899 0.45549 0.0
H399 H 0.58886 0.32284 0.48377 0.0
H400 H 0.57864 0.34104 0.52686 0.0
H401 H 0.49687 0.38844 0.58099 0.0
H402 H 0.49428 0.31509 0.53543 0.0
O403 O 0.53384 0.39339 0.54348 0.0
H404 H 0.45252 0.37789 0.5943 0.0
H405 H 0.44955 0.3051 0.5478 0.0
C406 C 0.55365 0.35305 0.5724 0.0
C407 C 0.57509 0.37027 0.5808 0.0
C408 C 0.59268 0.36381 0.60082 0.0
C409 C 0.58896 0.34006 0.6126 0.0
C410 C 0.56778 0.32266 0.60385 0.0
C411 C 0.55031 0.32906 0.58376 0.0
C412 C 0.53775 0.34519 0.51605 0.0
C413 C 0.51837 0.34198 0.49555 0.0
C414 C 0.52411 0.33117 0.47114 0.0
C415 C 0.54955 0.32427 0.46666 0.0
C416 C 0.56904 0.32775 0.48703 0.0
C417 C 0.56316 0.33811 0.51159 0.0
C418 C 0.49841 0.35305 0.55637 0.0
C419 C 0.48666 0.37024 0.57362 0.0
C420 C 0.46148 0.36419 0.58131 0.0
C421 C 0.44766 0.34093 0.57166 0.0
C422 C 0.45981 0.32329 0.55517 0.0
C423 C 0.48519 0.32914 0.54789 0.0
P424 P 0.08528 0.65092 0.0094 0.0
H425 H 0.02973 0.64309 0.01685 0.0
H426 H 0.00395 0.64718 0.05541 0.0
H427 H 0.07422 0.66941 0.1034 0.0
H428 H 0.10015 0.66487 0.06501 0.0
H429 H 0.0842 0.63604 0.95389 0.0
H430 H 0.05883 0.65034 0.91603 0.0
H431 H 0.02481 0.708 0.96563 0.0
H432 H 0.05076 0.69415 0.00348 0.0
H433 H 0.13598 0.63429 0.99501 0.0
H434 H 0.10535 0.70272 0.03153 0.0
O435 O 0.08773 0.61893 0.00345 0.0
H436 H 0.18007 0.65537 0.00018 0.0
H437 H 0.14987 0.72364 0.03744 0.0
C438 C 0.06672 0.65473 0.03786 0.0
C439 C 0.0396 0.64911 0.0356 0.0
C440 C 0.02492 0.65127 0.05754 0.0
C441 C 0.03725 0.65883 0.08205 0.0
C442 C 0.06444 0.66382 0.08451 0.0
C443 C 0.07915 0.66146 0.06256 0.0
C444 C 0.06864 0.66346 0.98154 0.0
C445 C 0.07148 0.65191 0.95661 0.0
C446 C 0.05715 0.66013 0.93503 0.0
C447 C 0.03983 0.68003 0.93816 0.0
C448 C 0.03803 0.69256 0.96292 0.0
C449 C 0.05265 0.68451 0.98447 0.0
C450 C 0.11755 0.6667 0.01354 0.0
C451 C 0.13876 0.65374 0.00437 0.0
C452 C 0.16389 0.66577 0.00724 0.0
C453 C 0.16818 0.69096 0.0193 0.0
C454 C 0.14689 0.70415 0.02815 0.0
C455 C 0.12162 0.69221 0.02489 0.0
P456 P 0.92945 0.18095 0.46546 0.0
H457 H 0.98052 0.16579 0.4502 0.0
H458 H 0.00893 0.18041 0.41632 0.0
H459 H 0.95172 0.23349 0.39182 0.0
H460 H 0.92347 0.21914 0.42571 0.0
H461 H 0.93077 0.16709 0.51978 0.0
H462 H 0.94465 0.19188 0.56105 0.0
H463 H 0.96423 0.25955 0.51871 0.0
H464 H 0.9504 0.23483 0.47746 0.0
H465 H 0.8941 0.1572 0.42351 0.0
H466 H 0.89102 0.21567 0.4868 0.0
O467 O 0.93241 0.14919 0.46902 0.0
H468 H 0.84843 0.16379 0.40987 0.0
H469 H 0.84543 0.22205 0.47323 0.0
C470 C 0.94969 0.19097 0.44004 0.0
C471 C 0.974 0.18039 0.43738 0.0
C472 C 0.99017 0.18871 0.41815 0.0
C473 C 0.98221 0.2078 0.40152 0.0
C474 C 0.958 0.21856 0.40437 0.0
C475 C 0.9419 0.2103 0.42362 0.0
C476 C 0.94013 0.19897 0.49558 0.0
C477 C 0.93823 0.18718 0.51935 0.0
C478 C 0.94603 0.20129 0.54284 0.0
C479 C 0.95556 0.22742 0.54278 0.0
C480 C 0.95705 0.23934 0.51903 0.0
C481 C 0.94928 0.22522 0.49556 0.0
C482 C 0.89583 0.18571 0.45629 0.0
C483 C 0.88359 0.17133 0.4345 0.0
C484 C 0.85767 0.17515 0.42667 0.0
C485 C 0.84371 0.19339 0.44059 0.0
C486 C 0.856 0.20792 0.46229 0.0
C487 C 0.88196 0.20416 0.47006 0.0
P488 P 0.42958 0.76531 0.96084 0.0
H489 H 0.38618 0.77701 0.92478 0.0
H490 H 0.37082 0.75809 0.88123 0.0
H491 H 0.4277 0.69995 0.88689 0.0
H492 H 0.44282 0.71856 0.9305 0.0
H493 H 0.45124 0.76682 0.01437 0.0
H494 H 0.43558 0.74864 0.0539 0.0
H495 H 0.36812 0.71201 0.0095 0.0
H496 H 0.38399 0.72996 0.96959 0.0
H497 H 0.46697 0.80326 0.94128 0.0
H498 H 0.46912 0.72963 0.97723 0.0
O499 O 0.42003 0.79577 0.96336 0.0
H500 H 0.51478 0.80524 0.93989 0.0
H501 H 0.51691 0.73186 0.97623 0.0
C502 C 0.41599 0.74948 0.93059 0.0
C503 C 0.39519 0.76006 0.91678 0.0
C504 C 0.38642 0.74931 0.892 0.0
C505 C 0.39842 0.7279 0.88082 0.0
C506 C 0.4184 0.71661 0.89517 0.0
C507 C 0.42702 0.72725 0.91999 0.0
C508 C 0.41913 0.74922 0.98893 0.0
C509 C 0.43341 0.75435 0.01292 0.0
C510 C 0.42448 0.74404 0.03548 0.0
C511 C 0.40077 0.72893 0.03453 0.0
C512 C 0.38652 0.72353 0.0105 0.0
C513 C 0.39561 0.73372 0.9878 0.0
C514 C 0.46463 0.7667 0.96007 0.0
C515 C 0.47772 0.78766 0.94905 0.0
C516 C 0.5049 0.78875 0.94815 0.0
C517 C 0.51927 0.76881 0.95817 0.0
C518 C 0.50611 0.7475 0.96858 0.0
C519 C 0.47892 0.74634 0.9693 0.0
P520 P 0.55206 0.53432 0.34043 0.0
H521 H 0.57077 0.5847 0.3652 0.0
H522 H 0.61065 0.61236 0.36142 0.0
H523 H 0.63325 0.56008 0.29933 0.0
H524 H 0.59282 0.53273 0.30246 0.0
H525 H 0.50153 0.54514 0.36027 0.0
H526 H 0.45974 0.55441 0.33874 0.0
H527 H 0.49471 0.55368 0.26453 0.0
H528 H 0.53704 0.54469 0.28628 0.0
H529 H 0.59597 0.50246 0.35087 0.0
H530 H 0.52078 0.49301 0.30815 0.0
O531 O 0.54911 0.53495 0.37259 0.0
H532 H 0.60351 0.45659 0.33926 0.0
H533 H 0.52851 0.44744 0.29648 0.0
C534 C 0.5793 0.55631 0.33465 0.0
C535 C 0.58413 0.57932 0.35056 0.0
C536 C 0.60693 0.59503 0.34852 0.0
C537 C 0.62518 0.58784 0.33063 0.0
C538 C 0.61947 0.56574 0.31346 0.0
C539 C 0.59653 0.55011 0.31536 0.0
C540 C 0.5224 0.54444 0.32487 0.0
C541 C 0.50047 0.54742 0.33946 0.0
C542 C 0.4766 0.55265 0.3272 0.0
C543 C 0.47425 0.55479 0.30013 0.0
C544 C 0.49629 0.55228 0.28548 0.0
C545 C 0.52033 0.54723 0.29786 0.0
C546 C 0.55805 0.5013 0.33002 0.0
C547 C 0.5813 0.49068 0.3387 0.0
C548 C 0.58562 0.46462 0.33211 0.0
C549 C 0.56662 0.44885 0.31689 0.0
C550 C 0.54345 0.45948 0.30804 0.0
C551 C 0.53911 0.48552 0.31469 0.0
P552 P 0.03724 0.10858 0.6575 0.0
H553 H 0.06179 0.07033 0.62451 0.0
H554 H 0.10126 0.04622 0.63089 0.0
H555 H 0.11396 0.08134 0.70913 0.0
H556 H 0.0743 0.10538 0.70284 0.0
H557 H 0.98599 0.09507 0.63101 0.0
H558 H 0.9459 0.07346 0.64496 0.0
H559 H 0.98437 0.0626 0.71992 0.0
H560 H 0.02481 0.08434 0.70592 0.0
H561 H 0.08186 0.14676 0.66621 0.0
H562 H 0.00068 0.14138 0.68393 0.0
O563 O 0.03367 0.11306 0.62565 0.0
H564 H 0.08643 0.19153 0.68623 0.0
H565 H 0.00529 0.18602 0.70368 0.0
C566 C 0.0655 0.09007 0.663 0.0
C567 C 0.07303 0.07287 0.64305 0.0
C568 C 0.09548 0.0591 0.64666 0.0
C569 C 0.11058 0.06225 0.67037 0.0
C570 C 0.1026 0.07884 0.69065 0.0
C571 C 0.08007 0.09255 0.68704 0.0
C572 C 0.0085 0.09089 0.66728 0.0
C573 C 0.98602 0.0878 0.65033 0.0
C574 C 0.96311 0.07558 0.65829 0.0
C575 C 0.9623 0.06637 0.68337 0.0
C576 C 0.98476 0.06946 0.70044 0.0
C577 C 0.00776 0.08172 0.69242 0.0
C578 C 0.04114 0.14046 0.67422 0.0
C579 C 0.06517 0.15501 0.67474 0.0
C580 C 0.06776 0.18053 0.68599 0.0
C581 C 0.0462 0.19193 0.69645 0.0
C582 C 0.02215 0.17743 0.69582 0.0
C583 C 0.0196 0.15192 0.68466 0.0
P584 P 0.46911 0.94284 0.22622 0.0
H585 H 0.42091 0.94853 0.19556 0.0
H586 H 0.37931 0.96631 0.20615 0.0
H587 H 0.41213 0.99153 0.2832 0.0
H588 H 0.45362 0.97308 0.27285 0.0
H589 H 0.51385 0.97876 0.21882 0.0
H590 H 0.55493 0.98982 0.24474 0.0
H591 H 0.52791 0.94275 0.30563 0.0
H592 H 0.48672 0.93129 0.27941 0.0
H593 H 0.42242 0.90993 0.23763 0.0
H594 H 0.50229 0.89932 0.21946 0.0
O595 O 0.47561 0.94771 0.19541 0.0
H596 H 0.41371 0.86265 0.23615 0.0
H597 H 0.49351 0.85172 0.21862 0.0
C598 C 0.44041 0.95976 0.23331 0.0
C599 C 0.41933 0.95829 0.21458 0.0
C600 C 0.3956 0.96833 0.22062 0.0
C601 C 0.3927 0.98024 0.24542 0.0
C602 C 0.41407 0.98245 0.26393 0.0
C603 C 0.43773 0.97201 0.25799 0.0
C604 C 0.49746 0.95389 0.24705 0.0
C605 C 0.51659 0.97095 0.23781 0.0
C606 C 0.54 0.97729 0.25258 0.0
C607 C 0.54452 0.96681 0.2769 0.0
C608 C 0.5248 0.95082 0.2868 0.0
C609 C 0.5014 0.94433 0.27189 0.0
C610 C 0.46303 0.90822 0.22842 0.0
C611 C 0.43818 0.89759 0.23354 0.0
C612 C 0.43316 0.87057 0.23282 0.0
C613 C 0.45296 0.85387 0.22721 0.0
C614 C 0.47806 0.86442 0.22301 0.0
C615 C 0.48301 0.89148 0.22347 0.0
P616 P 0.97774 0.43848 0.7648 0.0
H617 H 0.94526 0.3914 0.77334 0.0
H618 H 0.90103 0.37573 0.75637 0.0
H619 H 0.8988 0.43988 0.70606 0.0
H620 H 0.94307 0.45532 0.72268 0.0
H621 H 0.03152 0.43258 0.78281 0.0
H622 H 0.0704 0.42117 0.76033 0.0
H623 H 0.02417 0.41017 0.68739 0.0
H624 H 0.98511 0.42191 0.70992 0.0
H625 H 0.94097 0.47343 0.78621 0.0
H626 H 0.0127 0.48067 0.74674 0.0
O627 O 0.98033 0.42924 0.79536 0.0
H628 H 0.93852 0.52107 0.78775 0.0
H629 H 0.01034 0.52824 0.74867 0.0
C630 C 0.94716 0.42478 0.74961 0.0
C631 C 0.93539 0.40191 0.75844 0.0
C632 C 0.91022 0.39299 0.74882 0.0
C633 C 0.89662 0.4069 0.73027 0.0
C634 C 0.90895 0.42905 0.72053 0.0
C635 C 0.93415 0.43783 0.73002 0.0
C636 C 0.00539 0.42767 0.74811 0.0
C637 C 0.02962 0.42741 0.76205 0.0
C638 C 0.05179 0.421 0.74924 0.0
C639 C 0.05012 0.4149 0.72223 0.0
C640 C 0.02579 0.41483 0.70825 0.0
C641 C 0.00356 0.42143 0.72111 0.0
C642 C 0.97697 0.4735 0.76637 0.0
C643 C 0.9562 0.48524 0.77799 0.0
C644 C 0.95475 0.51232 0.77883 0.0
C645 C 0.97423 0.52799 0.76827 0.0
C646 C 0.99515 0.51633 0.75685 0.0
C647 C 0.99649 0.48921 0.75583 0.0
P648 P 0.73871 0.46045 0.43695 0.0
H649 H 0.73998 0.42015 0.39431 0.0
H650 H 0.72104 0.37509 0.38977 0.0
H651 H 0.67576 0.39028 0.45636 0.0
H652 H 0.69447 0.43534 0.46084 0.0
H653 H 0.74416 0.50057 0.3994 0.0
H654 H 0.72258 0.54112 0.3934 0.0
H655 H 0.67273 0.52396 0.45563 0.0
H656 H 0.69361 0.48269 0.46092 0.0
H657 H 0.76273 0.41909 0.46354 0.0
H658 H 0.73775 0.49575 0.4849 0.0
O659 O 0.76534 0.46096 0.41984 0.0
H660 H 0.76695 0.40982 0.5097 0.0
H661 H 0.74119 0.48601 0.53097 0.0
C662 C 0.71872 0.43103 0.42799 0.0
C663 C 0.72528 0.41413 0.40735 0.0
C664 C 0.71451 0.38844 0.40476 0.0
C665 C 0.6972 0.37945 0.42286 0.0
C666 C 0.689 0.39697 0.44217 0.0
C667 C 0.69962 0.42269 0.44463 0.0
C668 C 0.72093 0.48892 0.43105 0.0
C669 C 0.7284 0.50529 0.41159 0.0
C670 C 0.71607 0.52842 0.40811 0.0
C671 C 0.69625 0.53564 0.42424 0.0
C672 C 0.68804 0.51875 0.44305 0.0
C673 C 0.70001 0.49528 0.4461 0.0
C674 C 0.74899 0.45772 0.47071 0.0
C675 C 0.75872 0.43414 0.47813 0.0
C676 C 0.76116 0.42882 0.50441 0.0
C677 C 0.75401 0.44712 0.52352 0.0
C678 C 0.74657 0.47164 0.51633 0.0
C679 C 0.74434 0.47704 0.49 0.0
P680 P 0.67431 0.5297 0.05738 0.0
H681 H 0.64409 0.57533 0.0554 0.0
H682 H 0.65189 0.61758 0.03667 0.0
H683 H 0.72 0.58982 0.00142 0.0
H684 H 0.71222 0.54733 0.02029 0.0
H685 H 0.66105 0.49841 0.00912 0.0
H686 H 0.67745 0.45779 0.99071 0.0
H687 H 0.73587 0.45953 0.05455 0.0
H688 H 0.71949 0.49998 0.07306 0.0
H689 H 0.65972 0.51725 0.1097 0.0
H690 H 0.72148 0.56173 0.07561 0.0
O691 O 0.64261 0.52162 0.05962 0.0
H692 H 0.67872 0.53169 0.15352 0.0
H693 H 0.74014 0.57634 0.11928 0.0
C694 C 0.67726 0.55809 0.03878 0.0
C695 C 0.66029 0.57804 0.04306 0.0
C696 C 0.66481 0.60215 0.03254 0.0
C697 C 0.68652 0.60671 0.01779 0.0
C698 C 0.7031 0.58651 0.01272 0.0
C699 C 0.69856 0.56231 0.02332 0.0
C700 C 0.6889 0.50207 0.0425 0.0
C701 C 0.67759 0.49023 0.01897 0.0
C702 C 0.68692 0.46714 0.00849 0.0
C703 C 0.70773 0.45571 0.0214 0.0
C704 C 0.71976 0.46812 0.04439 0.0
C705 C 0.71037 0.49118 0.05492 0.0
C706 C 0.6889 0.53887 0.08947 0.0
C707 C 0.67729 0.5301 0.11162 0.0
C708 C 0.68807 0.53829 0.13654 0.0
C709 C 0.7106 0.55526 0.13948 0.0
C710 C 0.72262 0.5634 0.1173 0.0
C711 C 0.71192 0.55512 0.09244 0.0
P712 P 0.33344 0.04794 0.54174 0.0
H713 H 0.35788 0.09925 0.53614 0.0
H714 H 0.34376 0.14326 0.54568 0.0
H715 H 0.27662 0.11092 0.58201 0.0
H716 H 0.29071 0.06664 0.57232 0.0
H717 H 0.35579 0.02233 0.58628 0.0
H718 H 0.34142 0.98297 0.60768 0.0
H719 H 0.26928 0.97742 0.55989 0.0
H720 H 0.28352 0.01683 0.53855 0.0
H721 H 0.34481 0.01053 0.49979 0.0
H722 H 0.29248 0.07239 0.51091 0.0
O723 O 0.36588 0.0471 0.54202 0.0
H724 H 0.32627 0.00187 0.45471 0.0
H725 H 0.27438 0.06392 0.46603 0.0
C726 C 0.32562 0.07977 0.55399 0.0
C727 C 0.34049 0.1016 0.54677 0.0
C728 C 0.33239 0.12666 0.55205 0.0
C729 C 0.30916 0.13021 0.56444 0.0
C730 C 0.29464 0.10845 0.57247 0.0
C731 C 0.30276 0.08328 0.5671 0.0
C732 C 0.32095 0.02209 0.56048 0.0
C733 C 0.33672 0.0129 0.58067 0.0
C734 C 0.32855 0.99054 0.5929 0.0
C735 C 0.30443 0.9773 0.58513 0.0
C736 C 0.28797 0.98742 0.56603 0.0
C737 C 0.29615 0.0098 0.55384 0.0
C738 C 0.32044 0.04242 0.50851 0.0
C739 C 0.32959 0.02238 0.49249 0.0
C740 C 0.31902 0.0174 0.4669 0.0
C741 C 0.29915 0.03242 0.45715 0.0
C742 C 0.28983 0.05229 0.47326 0.0
C743 C 0.30029 0.05716 0.49884 0.0
P744 P 0.25216 0.96523 0.95266 0.0
H745 H 0.23713 0.90997 0.94677 0.0
H746 H 0.2579 0.87118 0.96142 0.0
H747 H 0.32319 0.91997 0.9966 0.0
H748 H 0.30253 0.95885 0.98183 0.0
H749 H 0.23838 0.0003 0.9959 0.0
H750 H 0.25632 0.04372 0.0127 0.0
H751 H 0.31709 0.04011 0.95843 0.0
H752 H 0.29902 0.99667 0.94142 0.0
H753 H 0.22629 0.99839 0.91694 0.0
H754 H 0.27878 0.936 0.91193 0.0
O755 O 0.22114 0.96242 0.96062 0.0
H756 H 0.22784 0.00284 0.86977 0.0
H757 H 0.27984 0.94013 0.86479 0.0
C758 C 0.26812 0.93725 0.96349 0.0
C759 C 0.25592 0.91234 0.95761 0.0
C760 C 0.26778 0.89026 0.96581 0.0
C761 C 0.29204 0.89282 0.97999 0.0
C762 C 0.3045 0.91771 0.98557 0.0
C763 C 0.29264 0.93984 0.97725 0.0
C764 C 0.26717 0.99553 0.96717 0.0
C765 C 0.25567 0.00871 0.98773 0.0
C766 C 0.2659 0.03341 0.99735 0.0
C767 C 0.28784 0.04509 0.98661 0.0
C768 C 0.30006 0.03139 0.96683 0.0
C769 C 0.28976 0.00671 0.95715 0.0
C770 C 0.25214 0.96669 0.91785 0.0
C771 C 0.23782 0.98543 0.90565 0.0
C772 C 0.23869 0.98798 0.87884 0.0
C773 C 0.25385 0.97172 0.86391 0.0
C774 C 0.26793 0.95272 0.87606 0.0
C775 C 0.26725 0.95036 0.90293 0.0
P776 P 0.44644 0.73213 0.47083 0.0
H777 H 0.41773 0.75272 0.4269 0.0
H778 H 0.40943 0.73548 0.3817 0.0
H779 H 0.43675 0.66133 0.40243 0.0
H780 H 0.44511 0.67861 0.44794 0.0
H781 H 0.47111 0.73637 0.5231 0.0
H782 H 0.45959 0.71741 0.56389 0.0
H783 H 0.39443 0.6729 0.52298 0.0
H784 H 0.40569 0.69223 0.4821 0.0
H785 H 0.47912 0.77105 0.44713 0.0
H786 H 0.48804 0.69627 0.47932 0.0
O787 O 0.43634 0.76225 0.47518 0.0
H788 H 0.52261 0.76958 0.43013 0.0
H789 H 0.53175 0.69488 0.46232 0.0
C790 C 0.43163 0.7168 0.44087 0.0
C791 C 0.4209 0.73242 0.42208 0.0
C792 C 0.41627 0.72265 0.39626 0.0
C793 C 0.42246 0.69719 0.38887 0.0
C794 C 0.4316 0.68094 0.40793 0.0
C795 C 0.43624 0.69076 0.43384 0.0
C796 C 0.43962 0.71524 0.49953 0.0
C797 C 0.45457 0.72225 0.5228 0.0
C798 C 0.44793 0.71161 0.54604 0.0
C799 C 0.42618 0.69386 0.54632 0.0
C800 C 0.41131 0.68656 0.52301 0.0
C801 C 0.41786 0.69743 0.49974 0.0
C802 C 0.48065 0.73409 0.46507 0.0
C803 C 0.49078 0.75476 0.45134 0.0
C804 C 0.51548 0.75385 0.44147 0.0
C805 C 0.53025 0.73212 0.44498 0.0
C806 C 0.5206 0.71185 0.45958 0.0
C807 C 0.49581 0.71275 0.46941 0.0
P808 P 0.92855 0.26898 0.97617 0.0
H809 H 0.97401 0.25611 0.94773 0.0
H810 H 0.99505 0.27586 0.91148 0.0
H811 H 0.94019 0.33617 0.91231 0.0
H812 H 0.91904 0.31642 0.94875 0.0
H813 H 0.90705 0.26426 0.02681 0.0
H814 H 0.9238 0.27897 0.07121 0.0
H815 H 0.98986 0.31942 0.04015 0.0
H816 H 0.97317 0.30476 0.9957 0.0
H817 H 0.89076 0.23151 0.94817 0.0
H818 H 0.88994 0.30669 0.98993 0.0
O819 O 0.93661 0.238 0.97604 0.0
H820 H 0.84311 0.2302 0.94089 0.0
H821 H 0.84206 0.30539 0.98242 0.0
C822 C 0.94465 0.28452 0.95054 0.0
C823 C 0.96647 0.27358 0.94019 0.0
C824 C 0.97853 0.28486 0.91961 0.0
C825 C 0.96905 0.30734 0.90926 0.0
C826 C 0.94768 0.31878 0.92009 0.0
C827 C 0.93562 0.30747 0.94075 0.0
C828 C 0.93861 0.28379 0.00796 0.0
C829 C 0.92478 0.27685 0.02948 0.0
C830 C 0.9343 0.28517 0.05476 0.0
C831 C 0.95791 0.30038 0.0588 0.0
C832 C 0.97145 0.30792 0.03728 0.0
C833 C 0.9619 0.29956 0.01197 0.0
C834 C 0.89373 0.26892 0.97007 0.0
C835 C 0.88034 0.24772 0.95576 0.0
C836 C 0.85324 0.247 0.95151 0.0
C837 C 0.83924 0.26764 0.96124 0.0
C838 C 0.85266 0.2893 0.97485 0.0
C839 C 0.87984 0.28996 0.97919 0.0
P840 P 0.08335 0.71376 0.5307 0.0
H841 H 0.04581 0.67735 0.55262 0.0
H842 H 0.0258 0.67819 0.59476 0.0
H843 H 0.0585 0.7568 0.61266 0.0
H844 H 0.078 0.75626 0.57027 0.0
H845 H 0.10544 0.72654 0.48204 0.0
H846 H 0.08517 0.73856 0.44039 0.0
H847 H 0.01184 0.7458 0.47604 0.0
H848 H 0.03197 0.7335 0.51763 0.0
H849 H 0.12702 0.68881 0.55457 0.0
H850 H 0.11019 0.76611 0.53287 0.0
O851 O 0.08448 0.68222 0.52141 0.0
H852 H 0.16816 0.70627 0.57709 0.0
H853 H 0.15146 0.78371 0.55591 0.0
C854 C 0.06388 0.71652 0.55859 0.0
C855 C 0.04823 0.69498 0.56531 0.0
C856 C 0.0368 0.69545 0.5893 0.0
C857 C 0.04098 0.71745 0.60685 0.0
C858 C 0.05517 0.73964 0.59937 0.0
C859 C 0.06637 0.73925 0.57525 0.0
C860 C 0.07031 0.7295 0.50297 0.0
C861 C 0.08523 0.73154 0.48113 0.0
C862 C 0.0737 0.73832 0.45741 0.0
C863 C 0.0471 0.7431 0.45529 0.0
C864 C 0.03247 0.7424 0.47747 0.0
C865 C 0.04399 0.73544 0.50117 0.0
C866 C 0.11584 0.7261 0.54163 0.0
C867 C 0.13253 0.70941 0.554 0.0
C868 C 0.1559 0.71935 0.56696 0.0
C869 C 0.16274 0.74619 0.56805 0.0
C870 C 0.14649 0.7629 0.55504 0.0
C871 C 0.12311 0.75286 0.54185 0.0
P872 P 0.50557 0.29444 0.02904 0.0
H873 H 0.54226 0.32292 0.06765 0.0
H874 H 0.55675 0.31385 0.11223 0.0
H875 H 0.51652 0.23762 0.10214 0.0
H876 H 0.50205 0.2466 0.05733 0.0
H877 H 0.48916 0.29316 0.97418 0.0
H878 H 0.51078 0.28037 0.93457 0.0
H879 H 0.57453 0.25295 0.98162 0.0
H880 H 0.55304 0.26604 0.02137 0.0
H881 H 0.46295 0.32172 0.05025 0.0
H882 H 0.47308 0.24728 0.01015 0.0
O883 O 0.50929 0.32677 0.02756 0.0
H884 H 0.41652 0.30935 0.05356 0.0
H885 H 0.42639 0.23485 0.01358 0.0
C886 C 0.52073 0.28558 0.05938 0.0
C887 C 0.53696 0.30405 0.07475 0.0
C888 C 0.54528 0.29888 0.10014 0.0
C889 C 0.53756 0.27515 0.11038 0.0
C890 C 0.52268 0.25601 0.09447 0.0
C891 C 0.51439 0.26118 0.069 0.0
C892 C 0.51936 0.28028 0.00063 0.0
C893 C 0.50751 0.28389 0.97599 0.0
C894 C 0.51983 0.27666 0.95343 0.0
C895 C 0.54422 0.2658 0.95526 0.0
C896 C 0.55566 0.26126 0.97991 0.0
C897 C 0.54337 0.26866 0.00252 0.0
C898 C 0.47123 0.28566 0.02939 0.0
C899 C 0.45511 0.30287 0.04186 0.0
C900 C 0.42872 0.29579 0.04389 0.0
C901 C 0.41819 0.27127 0.03376 0.0
C902 C 0.43429 0.25389 0.02141 0.0
C903 C 0.46078 0.26104 0.01933 0.0
P904 P 0.47577 0.42893 0.74974 0.0
H905 H 0.44103 0.3812 0.74819 0.0
H906 H 0.39808 0.37102 0.72532 0.0
H907 H 0.41015 0.43771 0.67934 0.0
H908 H 0.45371 0.44658 0.70062 0.0
H909 H 0.52389 0.4608 0.76324 0.0
H910 H 0.56823 0.45912 0.74856 0.0
H911 H 0.54423 0.3902 0.69912 0.0
H912 H 0.49932 0.39267 0.71292 0.0
H913 H 0.43974 0.45296 0.78437 0.0
H914 H 0.49114 0.47729 0.72571 0.0
O915 O 0.47476 0.41379 0.77751 0.0
H916 H 0.42087 0.49585 0.78503 0.0
H917 H 0.47251 0.5199 0.72661 0.0
C918 C 0.45022 0.41513 0.72666 0.0
C919 C 0.43496 0.39292 0.73238 0.0
C920 C 0.41042 0.38715 0.71938 0.0
C921 C 0.40062 0.40411 0.70123 0.0
C922 C 0.41715 0.42458 0.69353 0.0
C923 C 0.44201 0.42972 0.70583 0.0
C924 C 0.50814 0.42744 0.7384 0.0
C925 C 0.52798 0.44562 0.74884 0.0
C926 C 0.55331 0.44456 0.74064 0.0
C927 C 0.55946 0.42469 0.72259 0.0
C928 C 0.53981 0.40585 0.71286 0.0
C929 C 0.51424 0.4073 0.72066 0.0
C930 C 0.46744 0.46219 0.75562 0.0
C931 C 0.44768 0.4678 0.77244 0.0
C932 C 0.43681 0.49212 0.77272 0.0
C933 C 0.44549 0.5109 0.75596 0.0
C934 C 0.46585 0.50566 0.73987 0.0
C935 C 0.47666 0.48143 0.7396 0.0
P936 P 0.96607 0.93965 0.24631 0.0
H937 H 0.93227 0.98291 0.24084 0.0
H938 H 0.89176 0.9932 0.26112 0.0
H939 H 0.90256 0.93206 0.31389 0.0
H940 H 0.94337 0.92203 0.29392 0.0
H941 H 0.00898 0.96074 0.21758 0.0
H942 H 0.05437 0.97502 0.23093 0.0
H943 H 0.039 0.96414 0.3112 0.0
H944 H 0.99331 0.94997 0.29786 0.0
H945 H 0.92469 0.89858 0.23709 0.0
H946 H 0.00772 0.90365 0.25722 0.0
O947 O 0.95917 0.94614 0.21534 0.0
H948 H 0.92409 0.85084 0.23793 0.0
H949 H 0.00695 0.85604 0.258 0.0
C950 C 0.94043 0.95132 0.26547 0.0
C951 C 0.92631 0.97215 0.25719 0.0
C952 C 0.90326 0.97805 0.26876 0.0
C953 C 0.89411 0.96319 0.28878 0.0
C954 C 0.90932 0.94368 0.29843 0.0
C955 C 0.93251 0.93793 0.28697 0.0
C956 C 0.99768 0.95476 0.25682 0.0
C957 C 0.0151 0.96206 0.23813 0.0
C958 C 0.041 0.97009 0.24568 0.0
C959 C 0.04988 0.97066 0.27199 0.0
C960 C 0.03234 0.96397 0.29082 0.0
C961 C 0.00634 0.95604 0.28325 0.0
C962 C 0.96614 0.90471 0.24737 0.0
C963 C 0.94271 0.88948 0.24183 0.0
C964 C 0.94232 0.86234 0.24236 0.0
C965 C 0.96544 0.85012 0.2482 0.0
C966 C 0.98893 0.86528 0.25365 0.0
C967 C 0.9893 0.89245 0.25318 0.0
P968 P 0.53504 0.07229 0.67253 0.0
H969 H 0.58033 0.06012 0.64421 0.0
H970 H 0.61848 0.03582 0.65549 0.0
H971 H 0.58236 0.01028 0.72396 0.0
H972 H 0.54392 0.03476 0.71264 0.0
H973 H 0.49469 0.10078 0.69753 0.0
H974 H 0.44909 0.08867 0.70527 0.0
H975 H 0.45829 0.01042 0.6738 0.0
H976 H 0.5042 0.02246 0.66625 0.0
H977 H 0.55641 0.12291 0.65762 0.0
H978 H 0.54468 0.08418 0.72859 0.0
O979 O 0.53224 0.0783 0.641 0.0
H980 H 0.58053 0.15942 0.68289 0.0
H981 H 0.56928 0.1207 0.75385 0.0
C982 C 0.55905 0.04872 0.67725 0.0
C983 C 0.58016 0.04862 0.66119 0.0
C984 C 0.60202 0.03496 0.66772 0.0
C985 C 0.60321 0.02143 0.69059 0.0
C986 C 0.58169 0.02062 0.70621 0.0
C987 C 0.55976 0.03438 0.69965 0.0
C988 C 0.50302 0.06228 0.68201 0.0
C989 C 0.48717 0.08084 0.69286 0.0
C990 C 0.46111 0.07403 0.69708 0.0
C991 C 0.45045 0.04868 0.69015 0.0
C992 C 0.4663 0.03003 0.67939 0.0
C993 C 0.49245 0.03685 0.67527 0.0
C994 C 0.54855 0.101 0.6913 0.0
C995 C 0.55857 0.12246 0.67864 0.0
C996 C 0.57241 0.14322 0.693 0.0
C997 C 0.57662 0.1426 0.72012 0.0
C998 C 0.5661 0.12144 0.73292 0.0
C999 C 0.55207 0.10074 0.71854 0.0
P1000 P 0.02866 0.51747 0.33608 0.0
H1001 H 0.08063 0.52724 0.36131 0.0
H1002 H 0.12103 0.54786 0.34713 0.0
H1003 H 0.07947 0.57093 0.2778 0.0
H1004 H 0.03887 0.54969 0.29177 0.0
H1005 H 0.99502 0.54692 0.36921 0.0
H1006 H 0.95133 0.56275 0.36118 0.0
H1007 H 0.95214 0.5372 0.27993 0.0
H1008 H 0.99584 0.52108 0.28794 0.0
H1009 H 0.07047 0.48779 0.31472 0.0
H1010 H 0.98727 0.47649 0.32182 0.0
O1011 O 0.03145 0.51292 0.36795 0.0
H1012 H 0.07144 0.44293 0.29666 0.0
H1013 H 0.98832 0.43151 0.30315 0.0
C1014 C 0.05664 0.53731 0.32782 0.0
C1015 C 0.07998 0.53721 0.34334 0.0
C1016 C 0.10307 0.54881 0.33519 0.0
C1017 C 0.10321 0.56073 0.31137 0.0
C1018 C 0.07969 0.56174 0.29622 0.0
C1019 C 0.05655 0.5498 0.30427 0.0
C1020 C 0.99845 0.53249 0.32922 0.0
C1021 C 0.98599 0.54496 0.34959 0.0
C1022 C 0.96113 0.55404 0.34506 0.0
C1023 C 0.94862 0.55099 0.32003 0.0
C1024 C 0.96161 0.5397 0.29936 0.0
C1025 C 0.98645 0.53053 0.30393 0.0
C1026 C 0.02868 0.48577 0.31918 0.0
C1027 C 0.05229 0.47598 0.31186 0.0
C1028 C 0.05291 0.45034 0.30154 0.0
C1029 C 0.02996 0.43404 0.29851 0.0
C1030 C 0.00619 0.44394 0.30519 0.0
C1031 C 0.00561 0.46958 0.31576 0.0
C1032 C 0.16916 0.59775 0.31343 0.0
C1033 C 0.1806 0.58551 0.29175 0.0
C1034 C 0.14027 0.55803 0.28146 0.0
C1035 C 0.12848 0.5712 0.30232 0.0
N1036 N 0.12918 0.60811 0.33344 0.0
N1037 N 0.17458 0.55936 0.25113 0.0
C1038 C 0.14212 0.59264 0.31668 0.0
C1039 C 0.16534 0.56733 0.27447 0.0
N1040 N 0.1843 0.6127 0.33204 0.0
N1041 N 0.12825 0.53584 0.26921 0.0
H1042 H 0.19255 0.56639 0.24505 0.0
H1043 H 0.16329 0.54803 0.23671 0.0
H1044 H 0.10999 0.52812 0.27382 0.0
H1045 H 0.13736 0.52386 0.25595 0.0
H1046 H 0.17731 0.61963 0.34958 0.0
H1047 H 0.20443 0.6161 0.33136 0.0
H1048 H 0.13751 0.6255 0.34257 0.0
H1049 H 0.10929 0.60491 0.33612 0.0
C1050 C 0.33719 0.40529 0.65919 0.0
C1051 C 0.31859 0.40608 0.67852 0.0
C1052 C 0.35387 0.40717 0.71263 0.0
C1053 C 0.37219 0.40313 0.69332 0.0
N1054 N 0.38023 0.39299 0.64823 0.0
N1055 N 0.30885 0.40246 0.72365 0.0
C1056 C 0.36351 0.40052 0.66654 0.0
C1057 C 0.3268 0.40501 0.70521 0.0
N1058 N 0.32996 0.40984 0.634 0.0
N1059 N 0.36221 0.41505 0.73775 0.0
H1060 H 0.28875 0.4016 0.71932 0.0
H1061 H 0.31398 0.39891 0.74296 0.0
H1062 H 0.38182 0.41877 0.74393 0.0
H1063 H 0.34957 0.42086 0.75181 0.0
H1064 H 0.34323 0.41195 0.61958 0.0
H1065 H 0.31091 0.41366 0.62808 0.0
H1066 H 0.37426 0.38843 0.6287 0.0
H1067 H 0.39948 0.38883 0.65307 0.0
C1068 C 0.66996 0.01189 0.72379 0.0
C1069 C 0.67847 0.99181 0.70683 0.0
C1070 C 0.6349 0.98685 0.68429 0.0
C1071 C 0.62783 0.00949 0.69851 0.0
N1072 N 0.63938 0.04546 0.73017 0.0
N1073 N 0.67015 0.96252 0.66829 0.0
C1074 C 0.64546 0.02243 0.71803 0.0
C1075 C 0.66116 0.97963 0.68654 0.0
N1076 N 0.68506 0.02048 0.74571 0.0
N1077 N 0.61644 0.97224 0.66865 0.0
H1078 H 0.68941 0.95718 0.66854 0.0
H1079 H 0.65913 0.95543 0.65147 0.0
H1080 H 0.59702 0.97711 0.66658 0.0
H1081 H 0.61976 0.95409 0.6598 0.0
H1082 H 0.67877 0.03325 0.76017 0.0
H1083 H 0.70293 0.01286 0.75069 0.0
H1084 H 0.65272 0.05732 0.74225 0.0
H1085 H 0.62159 0.05379 0.72669 0.0
C1086 C 0.8201 0.96245 0.28541 0.0
C1087 C 0.81537 0.97223 0.31097 0.0
C1088 C 0.86264 0.97781 0.3218 0.0
C1089 C 0.86711 0.96579 0.29706 0.0
N1090 N 0.84995 0.94134 0.25764 0.0
N1091 N 0.83169 0.98549 0.35492 0.0
C1092 C 0.84578 0.95649 0.27957 0.0
C1093 C 0.83653 0.97893 0.32961 0.0
N1094 N 0.80035 0.96014 0.26624 0.0
N1095 N 0.88325 0.98878 0.33747 0.0
H1096 H 0.81284 0.98624 0.36133 0.0
H1097 H 0.84622 0.98801 0.36999 0.0
H1098 H 0.90259 0.98806 0.33242 0.0
H1099 H 0.88111 0.00025 0.35448 0.0
H1100 H 0.80342 0.95588 0.24665 0.0
H1101 H 0.78134 0.96513 0.26929 0.0
H1102 H 0.83486 0.93173 0.24573 0.0
H1103 H 0.86847 0.93623 0.2527 0.0
C1104 C 0.27214 0.19079 0.55213 0.0
C1105 C 0.28815 0.20984 0.56765 0.0
C1106 C 0.31299 0.17524 0.58606 0.0
C1107 C 0.29972 0.15687 0.56757 0.0
N1108 N 0.26829 0.14727 0.53102 0.0
N1109 N 0.3261 0.22065 0.59723 0.0
C1110 C 0.27954 0.16459 0.55019 0.0
C1111 C 0.30901 0.20221 0.58434 0.0
N1112 N 0.24954 0.19764 0.53972 0.0
N1113 N 0.32933 0.16683 0.6053 0.0
H1114 H 0.3244 0.24064 0.59614 0.0
H1115 H 0.34332 0.21617 0.60722 0.0
H1116 H 0.33265 0.14716 0.607 0.0
H1117 H 0.33757 0.17898 0.62091 0.0
H1118 H 0.23576 0.18414 0.53021 0.0
H1119 H 0.2433 0.21659 0.54115 0.0
H1120 H 0.25573 0.15266 0.51591 0.0
H1121 H 0.27297 0.12783 0.529 0.0
C1122 C 0.33483 0.83523 0.98792 0.0
C1123 C 0.32119 0.82177 0.00681 0.0
C1124 C 0.29193 0.85745 0.01125 0.0
C1125 C 0.30345 0.86933 0.99019 0.0
N1126 N 0.3339 0.86838 0.95625 0.0
N1127 N 0.28351 0.81753 0.03269 0.0
C1128 C 0.32447 0.85797 0.97794 0.0
C1129 C 0.29895 0.83224 0.01762 0.0
N1130 N 0.35801 0.8267 0.98011 0.0
N1131 N 0.27452 0.87045 0.02545 0.0
H1132 H 0.28727 0.79855 0.0372 0.0
H1133 H 0.26549 0.82312 0.03858 0.0
H1134 H 0.26889 0.88903 0.02138 0.0
H1135 H 0.2676 0.86391 0.04271 0.0
H1136 H 0.37017 0.8371 0.96836 0.0
H1137 H 0.36628 0.81028 0.98725 0.0
H1138 H 0.34717 0.85934 0.94474 0.0
H1139 H 0.32701 0.88521 0.94861 0.0
C1140 C 0.65965 0.31292 0.41885 0.0
C1141 C 0.68002 0.29682 0.42595 0.0
C1142 C 0.7105 0.33523 0.43395 0.0
C1143 C 0.69091 0.35104 0.4241 0.0
N1144 N 0.64767 0.35499 0.40454 0.0
N1145 N 0.72574 0.29176 0.43663 0.0
C1146 C 0.66564 0.33993 0.41588 0.0
C1147 C 0.70571 0.30773 0.43253 0.0
N1148 N 0.63448 0.30259 0.41583 0.0
N1149 N 0.73337 0.34656 0.44555 0.0
H1150 H 0.72303 0.27147 0.43618 0.0
H1151 H 0.74533 0.29844 0.43836 0.0
H1152 H 0.73762 0.3667 0.44728 0.0
H1153 H 0.74712 0.33622 0.45562 0.0
H1154 H 0.61852 0.31401 0.41412 0.0
H1155 H 0.62944 0.28281 0.41743 0.0
H1156 H 0.62995 0.3474 0.39554 0.0
H1157 H 0.65134 0.37488 0.40233 0.0
C1158 C 0.6768 0.66957 0.98489 0.0
C1159 C 0.69636 0.6866 -0.00131 0.0
C1160 C 0.71139 0.65042 0.02338 0.0
C1161 C 0.69231 0.63332 0.00908 0.0
N1162 N 0.66136 0.62488 0.97219 0.0
N1163 N 0.73625 0.69216 0.02601 0.0
C1164 C 0.67655 0.64237 0.98842 0.0
C1165 C 0.71494 0.67665 0.01637 0.0
N1166 N 0.65741 0.67947 0.96978 0.0
N1167 N 0.72525 0.64199 0.04444 0.0
H1168 H 0.73962 0.71135 0.02089 0.0
H1169 H 0.7518 0.68529 0.03697 0.0
H1170 H 0.72351 0.62284 0.05007 0.0
H1171 H 0.73711 0.65441 0.05746 0.0
H1172 H 0.64104 0.66828 0.96174 0.0
H1173 H 0.65637 0.6993 0.96701 0.0
H1174 H 0.6514 0.62995 0.9552 0.0
H1175 H 0.66074 0.60481 0.97441 0.0
C1176 C 0.56755 0.25422 0.17492 0.0
C1177 C 0.55417 0.2699 0.19277 0.0
C1178 C 0.52705 0.28491 0.15657 0.0
C1179 C 0.54252 0.27183 0.13865 0.0
N1180 N 0.57914 0.24609 0.13021 0.0
N1181 N 0.5246 0.30408 0.20028 0.0
C1182 C 0.56322 0.25696 0.14765 0.0
C1183 C 0.5347 0.28619 0.18356 0.0
N1184 N 0.58369 0.23613 0.18401 0.0
N1185 N 0.50479 0.29582 0.14781 0.0
H1186 H 0.53024 0.30649 0.22011 0.0
H1187 H 0.51256 0.31839 0.19405 0.0
H1188 H 0.49855 0.29541 0.12812 0.0
H1189 H 0.49125 0.30308 0.16021 0.0
H1190 H 0.59197 0.22235 0.17194 0.0
H1191 H 0.58698 0.23335 0.20382 0.0
H1192 H 0.59631 0.23751 0.1357 0.0
H1193 H 0.57615 0.24728 0.11009 0.0
C1194 C 0.0108 0.34971 0.86731 0.0
C1195 C 0.0079 0.33455 0.84324 0.0
C1196 C 0.97549 0.30497 0.8614 0.0
C1197 C 0.98103 0.31807 0.88629 0.0
N1198 N 0.00576 0.35132 0.91395 0.0
N1199 N 0.99051 0.29534 0.81841 0.0
C1200 C -0.0009 0.34012 0.88953 0.0
C1201 C 0.99087 0.31164 0.84044 0.0
N1202 N 0.02407 0.37364 0.86869 0.0
N1203 N 0.95529 0.28633 0.85773 0.0
H1204 H 0.00185 0.29903 0.80273 0.0
H1205 H 0.98076 0.27692 0.81661 0.0
H1206 H 0.94366 0.28085 0.8727 0.0
H1207 H 0.94853 0.27808 0.83943 0.0
H1208 H 0.02465 0.38675 0.88496 0.0
H1209 H 0.03247 0.38147 0.85266 0.0
H1210 H 0.02101 0.36549 0.91794 0.0
H1211 H 0.99725 0.3451 0.93062 0.0
C1212 C 0.44312 0.69656 0.31959 0.0
C1213 C 0.42199 0.68151 0.3059 0.0
C1214 C 0.40123 0.67551 0.34717 0.0
C1215 C 0.42306 0.68933 0.36074 0.0
N1216 N 0.46736 0.70771 0.36088 0.0
N1217 N 0.38322 0.65279 0.30688 0.0
C1218 C 0.44488 0.69803 0.34724 0.0
C1219 C 0.40167 0.66983 0.31977 0.0
N1220 N 0.46052 0.71107 0.30633 0.0
N1221 N 0.37985 0.66847 0.36039 0.0
H1222 H 0.38298 0.6481 0.28689 0.0
H1223 H 0.36941 0.64172 0.31623 0.0
H1224 H 0.37936 0.67149 0.38058 0.0
H1225 H 0.36211 0.66108 0.35128 0.0
H1226 H 0.47441 0.72468 0.3155 0.0
H1227 H 0.45952 0.7117 0.2861 0.0
H1228 H 0.48484 0.71162 0.35212 0.0
H1229 H 0.4693 0.70956 0.38121 0.0
C1230 C 0.00638 0.73081 0.66948 0.0
C1231 C 0.01739 0.71217 0.68549 0.0
C1232 C 0.04608 0.69984 0.65107 0.0
C1233 C 0.03293 0.71614 0.63401 0.0
N1234 N 0.99799 0.74437 0.62555 0.0
N1235 N 0.04349 0.67477 0.68917 0.0
C1236 C 0.01232 0.73088 0.64281 0.0
C1237 C 0.03613 0.69555 0.67568 0.0
N1238 N 0.99117 0.74914 0.67998 0.0
N1239 N 0.06853 0.68902 0.64409 0.0
H1240 H 0.03588 0.67008 0.70677 0.0
H1241 H 0.05502 0.66053 0.68152 0.0
H1242 H 0.07678 0.69197 0.62637 0.0
H1243 H 0.08036 0.67927 0.65695 0.0
H1244 H 0.98481 0.76482 0.66991 0.0
H1245 H 0.98694 0.75018 0.69958 0.0
H1246 H 0.98099 0.7532 0.6302 0.0
H1247 H 0.00187 0.7449 0.6059 0.0
C1248 C 0.83611 0.38495 0.68662 0.0
C1249 C 0.81622 0.38694 0.70459 0.0
C1250 C 0.84898 0.40326 0.73913 0.0
C1251 C 0.86902 0.39903 0.72176 0.0
N1252 N 0.88218 0.38111 0.68057 0.0
N1253 N 0.80419 0.39287 0.74909 0.0
C1254 C 0.86273 0.38839 0.69597 0.0
C1255 C 0.82279 0.39464 0.7312 0.0
N1256 N 0.82963 0.38123 0.66045 0.0
N1257 N 0.85478 0.41645 0.76281 0.0
H1258 H 0.7849 0.38614 0.74411 0.0
H1259 H 0.80844 0.39564 0.76914 0.0
H1260 H 0.87369 0.42327 0.76934 0.0
H1261 H 0.84058 0.42264 0.77501 0.0
H1262 H 0.84329 0.38249 0.64632 0.0
H1263 H 0.81039 0.37941 0.6526 0.0
H1264 H 0.87864 0.37074 0.66258 0.0
H1265 H 0.90192 0.38331 0.6868 0.0
C1266 C 0.6787 0.64062 0.32163 0.0
C1267 C 0.70113 0.62716 0.32864 0.0
C1268 C 0.67327 0.59125 0.34316 0.0
C1269 C 0.65113 0.60228 0.33135 0.0
N1270 N 0.63233 0.63745 0.30919 0.0
N1271 N 0.71878 0.59794 0.35881 0.0
C1272 C 0.65363 0.62719 0.3209 0.0
C1273 C 0.69815 0.60486 0.34331 0.0
N1274 N 0.68116 0.66665 0.31772 0.0
N1275 N 0.67068 0.56735 0.35336 0.0
H1276 H 0.73627 0.60946 0.36131 0.0
H1277 H 0.71756 0.5831 0.37168 0.0
H1278 H 0.65266 0.55727 0.35477 0.0
H1279 H 0.68648 0.55684 0.35921 0.0
H1280 H 0.66532 0.678 0.3144 0.0
H1281 H 0.69874 0.67769 0.32184 0.0
H1282 H 0.63352 0.65405 0.29854 0.0
H1283 H 0.61362 0.62828 0.30842 0.0
C1284 C 0.32944 0.98648 0.27973 0.0
C1285 C 0.31705 0.00522 0.26486 0.0
C1286 C 0.35588 0.01004 0.23954 0.0
C1287 C 0.3668 0.98914 0.25233 0.0
N1288 N 0.36116 0.95358 0.28057 0.0
N1289 N 0.31645 0.03095 0.22705 0.0
C1290 C 0.35276 0.9762 0.27126 0.0
C1291 C 0.32972 0.01598 0.24377 0.0
N1292 N 0.31978 0.97939 0.30268 0.0
N1293 N 0.37071 0.02469 0.22392 0.0
H1294 H 0.29695 0.03496 0.22887 0.0
H1295 H 0.3239 0.03712 0.20988 0.0
H1296 H 0.39007 0.02116 0.22065 0.0
H1297 H 0.36462 0.04179 0.21625 0.0
H1298 H 0.32969 0.9679 0.31551 0.0
H1299 H 0.30338 0.98717 0.31035 0.0
H1300 H 0.35012 0.94197 0.29233 0.0
H1301 H 0.37786 0.94501 0.27449 0.0
C1302 C 0.17989 0.04215 0.66169 0.0
C1303 C 0.18153 0.02193 0.67925 0.0
C1304 C 0.13587 0.02668 0.6893 0.0
C1305 C 0.13508 0.04848 0.67368 0.0
N1306 N 0.15758 0.07995 0.64859 0.0
N1307 N 0.16282 0.99829 0.71359 0.0
C1308 C 0.15747 0.05709 0.66089 0.0
C1309 C 0.15997 0.01504 0.69408 0.0
N1310 N 0.19923 0.04635 0.64497 0.0
N1311 N 0.11344 0.01665 0.69899 0.0
H1312 H 0.18027 0.98974 0.71815 0.0
H1313 H 0.14867 0.99477 0.72688 0.0
H1314 H 0.09543 0.02474 0.69603 0.0
H1315 H 0.11223 -0.00093 0.70805 0.0
H1316 H 0.19778 0.05891 0.62986 0.0
H1317 H 0.21571 0.03547 0.64454 0.0
H1318 H 0.17427 0.08868 0.64139 0.0
H1319 H 0.14154 0.09146 0.64757 0.0
C1320 C 0.69611 0.83806 0.39609 0.0
C1321 C 0.69443 0.83283 0.36861 0.0
C1322 C 0.7143 0.87649 0.36286 0.0
C1323 C 0.71772 0.88086 0.39035 0.0
N1324 N 0.71718 0.86396 0.43309 0.0
N1325 N 0.7067 0.84474 0.32611 0.0
C1326 C 0.71028 0.86103 0.40696 0.0
C1327 C 0.70489 0.8514 0.35203 0.0
N1328 N 0.68298 0.82189 0.41175 0.0
N1329 N 0.7192 0.89652 0.34714 0.0
H1330 H 0.70053 0.82634 0.31758 0.0
H1331 H 0.71657 0.85651 0.31361 0.0
H1332 H 0.72629 0.91513 0.35434 0.0
H1333 H 0.71428 0.8953 0.32716 0.0
H1334 H 0.6812 0.82634 0.43156 0.0
H1335 H 0.67166 0.80523 0.40463 0.0
H1336 H 0.7147 0.849 0.44569 0.0
H1337 H 0.72762 0.88054 0.44179 0.0
C1338 C 0.65988 0.1137 0.96501 0.0
C1339 C 0.67566 0.13683 0.97237 0.0
C1340 C 0.68762 0.11954 0.01458 0.0
C1341 C 0.67377 0.09557 0.00621 0.0
N1342 N 0.65042 0.06799 0.97195 0.0
N1343 N 0.70854 0.15993 0.00197 0.0
C1344 C 0.66096 0.0921 0.98096 0.0
C1345 C 0.6906 0.13931 0.9966 0.0
N1346 N 0.643 0.11275 0.94337 0.0
N1347 N 0.69734 0.12369 0.03988 0.0
H1348 H 0.71177 0.17457 0.98912 0.0
H1349 H 0.72194 0.1613 0.01805 0.0
H1350 H 0.69574 0.10958 0.05357 0.0
H1351 H 0.70504 0.14179 0.04788 0.0
H1352 H 0.629 0.09748 0.93859 0.0
H1353 H 0.64126 0.12833 0.93142 0.0
H1354 H 0.64337 0.06361 0.95271 0.0
H1355 H 0.65077 0.05169 0.9831 0.0
C1356 C 0.32879 0.67213 0.60622 0.0
C1357 C 0.32808 0.67072 0.63371 0.0
C1358 C 0.34133 0.62567 0.63013 0.0
C1359 C 0.34289 0.62752 0.6029 0.0
N1360 N 0.34487 0.65421 0.56602 0.0
N1361 N 0.34024 0.64883 0.6724 0.0
C1362 C 0.33896 0.6514 0.59131 0.0
C1363 C 0.3363 0.64824 0.64586 0.0
N1364 N 0.31811 0.69228 0.59403 0.0
N1365 N 0.34417 0.60223 0.64087 0.0
H1366 H 0.3377 0.6654 0.68445 0.0
H1367 H 0.34858 0.63395 0.68223 0.0
H1368 H 0.34903 0.58557 0.6301 0.0
H1369 H 0.34026 0.59891 0.66008 0.0
H1370 H 0.31568 0.69275 0.57383 0.0
H1371 H 0.30929 0.70737 0.60383 0.0
H1372 H 0.34511 0.67205 0.55741 0.0
H1373 H 0.35198 0.63923 0.55441 0.0
C1374 C 0.25629 0.36128 0.00299 0.0
C1375 C 0.24501 0.36137 0.02755 0.0
C1376 C 0.22857 0.40438 0.02061 0.0
C1377 C 0.23774 0.4031 0.99511 0.0
N1378 N 0.2559 0.37826 0.96006 0.0
N1379 N 0.21638 0.38061 0.05781 0.0
C1380 C 0.2503 0.38091 0.9857 0.0
C1381 C 0.23004 0.38229 0.03587 0.0
N1382 N 0.2738 0.34325 0.99667 0.0
N1383 N 0.21915 0.42697 0.03052 0.0
H1384 H 0.21657 0.36451 0.06923 0.0
H1385 H 0.20297 0.39399 0.06333 0.0
H1386 H 0.2177 0.44354 0.01988 0.0
H1387 H 0.21484 0.43004 0.04995 0.0
H1388 H 0.28474 0.34403 0.98027 0.0
H1389 H 0.27938 0.32893 0.00903 0.0
H1390 H 0.26242 0.36119 0.95145 0.0
H1391 H 0.25182 0.39224 0.94675 0.0
C1392 C 0.3744 0.68139 0.82318 0.0
C1393 C 0.3801 0.69678 0.80191 0.0
C1394 C 0.3985 0.73242 0.83243 0.0
C1395 C 0.3909 0.71781 0.85363 0.0
N1396 N 0.36682 0.68081 0.86921 0.0
N1397 N 0.3923 0.73883 0.78627 0.0
C1398 C 0.37731 0.69304 0.84899 0.0
C1399 C 0.39062 0.72288 0.80653 0.0
N1400 N 0.36769 0.65529 0.81894 0.0
N1401 N 0.41415 0.75486 0.83696 0.0
H1402 H 0.38619 0.73269 0.76709 0.0
H1403 H 0.3973 0.75878 0.78883 0.0
H1404 H 0.42049 0.7625 0.85563 0.0
H1405 H 0.42268 0.7647 0.82217 0.0
H1406 H 0.36612 0.64264 0.83394 0.0
H1407 H 0.36613 0.64567 0.80046 0.0
H1408 H 0.35439 0.664 0.86661 0.0
H1409 H 0.36857 0.68882 0.88839 0.0
C1410 C -0.00052 0.6425 0.14109 0.0
C1411 C 0.99016 0.66722 0.14807 0.0
C1412 C 0.01096 0.68616 0.11124 0.0
C1413 C 0.0215 0.66183 0.10514 0.0
N1414 N 0.02912 0.61778 0.11578 0.0
N1415 N 0.99053 0.71359 0.14309 0.0
C1416 C 0.01677 0.64026 0.12057 0.0
C1417 C 0.99682 0.68935 0.13402 0.0
N1418 N 0.99094 0.62102 0.1534 0.0
N1419 N 0.01404 0.70607 0.09496 0.0
H1420 H 0.98025 0.71675 0.15976 0.0
H1421 H 0.99733 0.73084 0.13545 0.0
H1422 H 0.02511 0.70483 0.07861 0.0
H1423 H 0.00423 0.72318 0.09656 0.0
H1424 H 0.99465 0.60199 0.14738 0.0
H1425 H 0.9784 0.62198 0.16861 0.0
H1426 H 0.02885 0.60237 0.12803 0.0
H1427 H 0.04127 0.61518 0.10041 0.0
C1428 C 0.62467 0.33913 0.67951 0.0
C1429 C 0.63874 0.31634 0.67605 0.0
C1430 C 0.62421 0.31281 0.62965 0.0
C1431 C 0.60725 0.33312 0.63411 0.0
N1432 N 0.58806 0.36295 0.66434 0.0
N1433 N 0.64698 0.27812 0.6486 0.0
C1434 C 0.60658 0.34562 0.65934 0.0
C1435 C 0.63742 0.30233 0.65127 0.0
N1436 N 0.62919 0.35505 0.7017 0.0
N1437 N 0.6278 0.3036 0.60474 0.0
H1438 H 0.65523 0.26864 0.6641 0.0
H1439 H 0.64405 0.26614 0.63151 0.0
H1440 H 0.61841 0.31085 0.5884 0.0
H1441 H 0.64196 0.29063 0.60024 0.0
H1442 H 0.62056 0.37269 0.70452 0.0
H1443 H 0.64356 0.35201 0.71618 0.0
H1444 H 0.58456 0.36996 0.68313 0.0
H1445 H 0.57462 0.36852 0.65006 0.0
C1446 C 0.02595 0.25277 0.36455 0.0
C1447 C 0.03022 0.23635 0.34224 0.0
C1448 C 0.00193 0.20146 0.3582 0.0
C1449 C -0.00053 0.21714 0.38145 0.0
N1450 N 0.01309 0.25558 0.40913 0.0
N1451 N 0.02633 0.19363 0.31987 0.0
C1452 C 0.01271 0.24217 0.38535 0.0
C1453 C 0.01933 0.21026 0.33961 0.0
N1454 N 0.03328 0.27883 0.36532 0.0
N1455 N 0.987 0.17858 0.35351 0.0
H1456 H 0.03928 0.1993 0.30607 0.0
H1457 H 0.0212 0.17368 0.31852 0.0
H1458 H 0.97417 0.1714 0.36675 0.0
H1459 H 0.98576 0.16777 0.33568 0.0
H1460 H 0.02804 0.29222 0.37978 0.0
H1461 H 0.04245 0.28763 0.35024 0.0
H1462 H 0.02475 0.27263 0.41397 0.0
H1463 H 0.00357 0.24845 0.42487 0.0
C1464 C 0.28538 0.56494 0.3827 0.0
C1465 C 0.30394 0.57774 0.36763 0.0
C1466 C 0.33715 0.5782 0.40386 0.0
C1467 C 0.31829 0.56643 0.41932 0.0
N1468 N 0.27336 0.55349 0.42568 0.0
N1469 N 0.34536 0.60181 0.36542 0.0
C1470 C 0.29202 0.56134 0.40941 0.0
C1471 C 0.32921 0.58598 0.37871 0.0
N1472 N 0.26193 0.55504 0.3712 0.0
N1473 N 0.36282 0.58099 0.41276 0.0
H1474 H 0.33997 0.60819 0.3471 0.0
H1475 H 0.36299 0.61064 0.37349 0.0
H1476 H 0.36943 0.57563 0.43112 0.0
H1477 H 0.37789 0.58669 0.40123 0.0
H1478 H 0.2489 0.54286 0.38037 0.0
H1479 H 0.25623 0.55733 0.35173 0.0
H1480 H 0.25344 0.55209 0.42035 0.0
H1481 H 0.27758 0.55054 0.44534 0.0
C1482 C 0.25248 0.44372 0.76844 0.0
C1483 C 0.22954 0.42973 0.75706 0.0
C1484 C 0.20771 0.43657 0.79787 0.0
C1485 C 0.23125 0.44878 0.80977 0.0
N1486 N 0.27712 0.46076 0.80813 0.0
N1487 N 0.18623 0.40999 0.76157 0.0
C1488 C 0.25396 0.45149 0.79552 0.0
C1489 C 0.20747 0.42518 0.77202 0.0
N1490 N 0.27277 0.44978 0.75335 0.0
N1491 N 0.18526 0.43686 0.81094 0.0
H1492 H 0.18433 0.40257 0.74224 0.0
H1493 H 0.17107 0.40325 0.77249 0.0
H1494 H 0.18463 0.44484 0.82999 0.0
H1495 H 0.16682 0.43114 0.80232 0.0
H1496 H 0.28872 0.46244 0.75974 0.0
H1497 H 0.27299 0.44354 0.73374 0.0
H1498 H 0.29502 0.46054 0.79965 0.0
H1499 H 0.27882 0.46685 0.82789 0.0
C1500 C 0.79215 0.96915 0.60157 0.0
C1501 C 0.77023 0.97398 0.61628 0.0
C1502 C 0.74259 0.97483 0.57588 0.0
C1503 C 0.76518 0.97349 0.5614 0.0
N1504 N 0.81189 0.97169 0.56008 0.0
N1505 N 0.72503 0.98421 0.61789 0.0
C1506 C 0.79009 0.97112 0.57412 0.0
C1507 C 0.74545 0.97728 0.60359 0.0
N1508 N 0.81471 0.96196 0.61384 0.0
N1509 N 0.71842 0.97353 0.56309 0.0
H1510 H 0.72626 0.98636 0.6382 0.0
H1511 H 0.7074 0.98981 0.60962 0.0
H1512 H 0.71569 0.97214 0.54279 0.0
H1513 H 0.70106 0.97161 0.57249 0.0
H1514 H 0.83052 0.95564 0.60395 0.0
H1515 H 0.81674 0.95994 0.6339 0.0
H1516 H 0.83085 0.97319 0.5686 0.0
H1517 H 0.81115 0.97253 0.53984 0.0
C1518 C 0.68749 0.02746 0.23327 0.0
C1519 C 0.71271 0.02262 0.24404 0.0
C1520 C 0.72971 0.02202 0.20039 0.0
C1521 C 0.70388 0.02323 0.18948 0.0
N1522 N 0.65768 0.02523 0.19479 0.0
N1523 N 0.75802 0.01521 0.23854 0.0
C1524 C 0.68266 0.02583 0.20572 0.0
C1525 C 0.73394 0.02004 0.22778 0.0
N1526 N 0.66802 0.03326 0.2493 0.0
N1527 N 0.75014 0.02311 0.18451 0.0
H1528 H 0.76227 0.0155 0.25864 0.0
H1529 H 0.77353 0.00985 0.22767 0.0
H1530 H 0.74753 0.02446 0.16438 0.0
H1531 H 0.76967 0.02476 0.19132 0.0
H1532 H 0.65021 0.03991 0.2427 0.0
H1533 H 0.67017 0.03344 0.26956 0.0
H1534 H 0.64111 0.02355 0.20542 0.0
H1535 H 0.65328 0.02458 0.17471 0.0
C1536 C 0.3867 0.3061 0.59526 0.0
C1537 C 0.3672 0.32251 0.58648 0.0
C1538 C 0.40035 0.35109 0.5683 0.0
C1539 C 0.42009 0.33539 0.57803 0.0
N1540 N 0.43277 0.30165 0.60597 0.0
N1541 N 0.35624 0.36439 0.57186 0.0
C1542 C 0.41348 0.31401 0.59317 0.0
C1543 C 0.3743 0.34622 0.57526 0.0
N1544 N 0.37967 0.28247 0.60448 0.0
N1545 N 0.40612 0.36976 0.5513 0.0
H1546 H 0.33723 0.36173 0.57772 0.0
H1547 H 0.36087 0.38309 0.56605 0.0
H1548 H 0.42481 0.37357 0.54501 0.0
H1549 H 0.39189 0.37978 0.54151 0.0
H1550 H 0.39289 0.26836 0.60825 0.0
H1551 H 0.3603 0.27619 0.60665 0.0
H1552 H 0.42912 0.28761 0.61931 0.0
H1553 H 0.45256 0.30716 0.6051 0.0
C1554 C 0.22975 0.73396 0.01064 0.0
C1555 C 0.2487 0.71941 0.02349 0.0
C1556 C 0.21365 0.69152 0.03964 0.0
C1557 C 0.19527 0.70295 0.02289 0.0
N1558 N 0.18608 0.73358 0.99022 0.0
N1559 N 0.25875 0.68193 0.04776 0.0
C1560 C 0.20329 0.72399 0.00796 0.0
C1561 C 0.24073 0.69773 0.03767 0.0
N1562 N 0.237 0.75753 0.00141 0.0
N1563 N 0.20518 0.67483 0.05752 0.0
H1564 H 0.2788 0.68514 0.04631 0.0
H1565 H 0.25368 0.66423 0.05557 0.0
H1566 H 0.18541 0.67008 0.05961 0.0
H1567 H 0.21755 0.66786 0.07194 0.0
H1568 H 0.22365 0.77014 0.99404 0.0
H1569 H 0.25615 0.76569 0.00365 0.0
H1570 H 0.19169 0.74688 0.97676 0.0
H1571 H 0.16656 0.72673 0.98746 0.0
C1572 C 0.77048 0.1791 0.42827 0.0
C1573 C 0.76281 0.20304 0.41872 0.0
C1574 C 0.80874 0.21939 0.42041 0.0
C1575 C 0.8159 0.19672 0.43285 0.0
N1576 N 0.8032 0.15688 0.45264 0.0
N1577 N 0.77416 0.24753 0.40906 0.0
C1578 C 0.79665 0.17708 0.43792 0.0
C1579 C 0.78182 0.22362 0.41556 0.0
N1580 N 0.75302 0.1579 0.42708 0.0
N1581 N 0.82768 0.23655 0.41266 0.0
H1582 H 0.75466 0.25147 0.40541 0.0
H1583 H 0.78693 0.26406 0.4094 0.0
H1584 H 0.84759 0.23412 0.41598 0.0
H1585 H 0.82372 0.25192 0.40102 0.0
H1586 H 0.75816 0.13924 0.4313 0.0
H1587 H 0.73394 0.15834 0.41917 0.0
H1588 H 0.78944 0.1436 0.45937 0.0
H1589 H 0.8222 0.15468 0.46014 0.0
C1590 C 0.59038 0.79211 0.97432 0.0
C1591 C 0.60339 0.77291 0.95999 0.0
C1592 C 0.56115 0.75332 0.94159 0.0
C1593 C 0.54825 0.77052 0.95837 0.0
N1594 N 0.55061 0.80338 0.99407 0.0
N1595 N 0.6012 0.73255 0.93325 0.0
C1596 C 0.56287 0.78915 0.97567 0.0
C1597 C 0.58881 0.75281 0.94437 0.0
N1598 N 0.60419 0.81372 0.98584 0.0
N1599 N 0.54702 0.7379 0.92261 0.0
H1600 H 0.62137 0.73114 0.93523 0.0
H1601 H 0.59129 0.71595 0.92405 0.0
H1602 H 0.52673 0.73781 0.91995 0.0
H1603 H 0.55557 0.727 0.90807 0.0
H1604 H 0.59536 0.8296 0.99427 0.0
H1605 H 0.6243 0.81706 0.98466 0.0
H1606 H 0.56065 0.81511 0.00902 0.0
H1607 H 0.53048 0.80166 0.99589 0.0
C1608 C 0.55788 0.37512 0.31861 0.0
C1609 C 0.57708 0.36709 0.30159 0.0
C1610 C 0.58755 0.41269 0.29243 0.0
C1611 C 0.57029 0.42072 0.31147 0.0
N1612 N 0.54241 0.41013 0.34599 0.0
N1613 N 0.6118 0.37783 0.27373 0.0
C1614 C 0.55631 0.40208 0.32543 0.0
C1615 C 0.59245 0.38579 0.28894 0.0
N1616 N 0.54096 0.35703 0.32814 0.0
N1617 N 0.59858 0.4307 0.27717 0.0
H1618 H 0.61492 0.35821 0.26949 0.0
H1619 H 0.62569 0.3906 0.26648 0.0
H1620 H 0.5955 0.45056 0.27932 0.0
H1621 H 0.60913 0.42583 0.26111 0.0
H1622 H 0.52475 0.3619 0.33822 0.0
H1623 H 0.54181 0.33701 0.32429 0.0
H1624 H 0.53445 0.39744 0.3589 0.0
H1625 H 0.54078 0.42974 0.35168 0.0
C1626 C 0.05239 0.26633 0.7023 0.0
C1627 C 0.04869 0.27111 0.72925 0.0
C1628 C 0.04828 0.2241 0.73517 0.0
C1629 C 0.0485 0.21926 0.70778 0.0
N1630 N 0.04711 0.23545 0.66468 0.0
N1631 N 0.03893 0.2543 0.77076 0.0
C1632 C 0.04966 0.2403 0.69115 0.0
C1633 C 0.0457 0.24995 0.74562 0.0
N1634 N 0.05915 0.28663 0.68752 0.0
N1635 N 0.05096 0.20404 0.75123 0.0
H1636 H 0.0363 0.27282 0.77917 0.0
H1637 H 0.03358 0.23936 0.78258 0.0
H1638 H 0.05285 0.18483 0.74424 0.0
H1639 H 0.05371 0.20681 0.77145 0.0
H1640 H 0.06457 0.28412 0.66838 0.0
H1641 H 0.06167 0.30592 0.69514 0.0
H1642 H 0.04485 0.25003 0.65168 0.0
H1643 H 0.04507 0.21667 0.65571 0.0
C1644 C 0.4311 0.78646 0.19652 0.0
C1645 C 0.43147 0.7716 0.21894 0.0
C1646 C 0.44691 0.81048 0.24677 0.0
C1647 C 0.44681 0.82527 0.22431 0.0
N1648 N 0.44206 0.8276 0.17762 0.0
N1649 N 0.44243 0.76786 0.26471 0.0
C1650 C 0.43988 0.81329 0.1991 0.0
C1651 C 0.4403 0.78314 0.24388 0.0
N1652 N 0.42205 0.77487 0.17283 0.0
N1653 N 0.45266 0.82283 0.27088 0.0
H1654 H 0.43647 0.74807 0.26358 0.0
H1655 H 0.45133 0.77424 0.28282 0.0
H1656 H 0.45864 0.8426 0.27358 0.0
H1657 H 0.45035 0.81403 0.28836 0.0
H1658 H 0.41828 0.78498 0.15623 0.0
H1659 H 0.41718 0.7549 0.1698 0.0
H1660 H 0.44012 0.81969 0.15849 0.0
H1661 H 0.44738 0.84754 0.17878 0.0
C1662 C 0.95805 0.59621 0.74988 0.0
C1663 C 0.97089 0.61151 0.7712 0.0
C1664 C 0.9839 0.57194 0.79166 0.0
C1665 C 0.9728 0.55676 0.76939 0.0
N1666 N 0.95123 0.55376 0.72636 0.0
N1667 N 0.9974 0.61492 0.81167 0.0
C1668 C 0.96032 0.56871 0.74824 0.0
C1669 C 0.98419 0.59963 0.79192 0.0
N1670 N 0.94348 0.60801 0.7314 0.0
N1671 N 0.99367 0.55977 0.81274 0.0
H1672 H 0.99687 0.6352 0.81335 0.0
H1673 H 0.01001 0.60783 0.82576 0.0
H1674 H 0.99461 0.53958 0.81289 0.0
H1675 H -0.00065 0.56936 0.83072 0.0
H1676 H 0.93133 0.5979 0.71685 0.0
H1677 H 0.94216 0.62818 0.73154 0.0
H1678 H 0.94455 0.56139 0.70909 0.0
H1679 H 0.95178 0.53349 0.72483 0.0
C1680 C 0.76904 0.43254 0.59437 0.0
C1681 C 0.74408 0.42257 0.60089 0.0
C1682 C 0.72619 0.4276 0.55645 0.0
C1683 C 0.75071 0.43915 0.55037 0.0
N1684 N 0.79457 0.45567 0.56367 0.0
N1685 N 0.69789 0.41441 0.59004 0.0
C1686 C 0.77191 0.44253 0.5694 0.0
C1687 C 0.72236 0.4211 0.58244 0.0
N1688 N 0.79009 0.43164 0.61177 0.0
N1689 N 0.70673 0.4223 0.53722 0.0
H1690 H 0.69428 0.40931 0.60889 0.0
H1691 H 0.68087 0.4159 0.57837 0.0
H1692 H 0.70832 0.42758 0.51808 0.0
H1693 H 0.68966 0.41102 0.53968 0.0
H1694 H 0.8093 0.43602 0.60732 0.0
H1695 H 0.78857 0.42465 0.6303 0.0
H1696 H 0.80984 0.46123 0.57743 0.0
H1697 H 0.79744 0.46266 0.54535 0.0
C1698 C 0.71893 0.59212 0.20611 0.0
C1699 C 0.74422 0.5852 0.2146 0.0
C1700 C 0.74548 0.55563 0.17564 0.0
C1701 C 0.72163 0.56488 0.16579 0.0
N1702 N 0.68751 0.59496 0.16958 0.0
N1703 N 0.78368 0.56393 0.20541 0.0
C1704 C 0.70882 0.58396 0.18046 0.0
C1705 C 0.75808 0.56782 0.19887 0.0
N1706 N 0.70412 0.60558 0.22287 0.0
N1707 N 0.75581 0.53482 0.16309 0.0
H1708 H 0.79392 0.57302 0.2219 0.0
H1709 H 0.79551 0.55368 0.19321 0.0
H1710 H 0.74707 0.52535 0.14601 0.0
H1711 H 0.77166 0.52547 0.17085 0.0
H1712 H 0.68453 0.60876 0.21863 0.0
H1713 H 0.71058 0.61143 0.24203 0.0
H1714 H 0.67917 0.611 0.17827 0.0
H1715 H 0.67947 0.58951 0.15083 0.0
C1716 C 0.24983 0.01449 0.4001 0.0
C1717 C 0.26501 0.02019 0.37871 0.0
C1718 C 0.30231 0.03508 0.40885 0.0
C1719 C 0.28781 0.02735 0.43004 0.0
N1720 N 0.24975 0.005 0.44567 0.0
N1721 N 0.30725 0.03064 0.36233 0.0
C1722 C 0.26214 0.01561 0.42561 0.0
C1723 C 0.29172 0.02902 0.38295 0.0
N1724 N 0.22344 0.00926 0.39626 0.0
N1725 N 0.3258 0.04898 0.41346 0.0
H1726 H 0.30039 0.02592 0.34306 0.0
H1727 H 0.32744 0.03425 0.3645 0.0
H1728 H 0.33429 0.05376 0.43217 0.0
H1729 H 0.33582 0.05766 0.39887 0.0
H1730 H 0.21102 0.00773 0.41147 0.0
H1731 H 0.21349 0.00887 0.37797 0.0
H1732 H 0.23216 0.99375 0.44305 0.0
H1733 H 0.25821 0.0054 0.46464 0.0
C1734 C 0.23503 0.97524 0.79158 0.0
C1735 C 0.25943 0.98349 0.78221 0.0
C1736 C 0.27954 0.98592 0.82669 0.0
C1737 C 0.25582 0.97535 0.83569 0.0
N1738 N 0.21243 0.95529 0.82614 0.0
N1739 N 0.30623 0.99074 0.78988 0.0
C1740 C 0.23396 0.9686 0.81795 0.0
C1741 C 0.28209 0.98715 0.79949 0.0
N1742 N 0.2127 0.97491 0.77573 0.0
N1743 N 0.29933 0.99565 0.84413 0.0
H1744 H 0.30912 0.99084 0.76999 0.0
H1745 H 0.32357 0.99086 0.80144 0.0
H1746 H 0.29817 0.99542 0.86429 0.0
H1747 H 0.31589 0.00613 0.83867 0.0
H1748 H 0.19407 0.97175 0.78236 0.0
H1749 H 0.21254 0.98019 0.75647 0.0
H1750 H 0.19702 0.94747 0.81347 0.0
H1751 H 0.211 0.95001 0.8453 0.0
C1752 C 0.57823 0.71403 0.39413 0.0
C1753 C 0.59946 0.7321 0.40209 0.0
C1754 C 0.57764 0.74524 0.44148 0.0
C1755 C 0.55493 0.73001 0.43157 0.0
N1756 N 0.53243 0.70138 0.39753 0.0
N1757 N 0.6198 0.76558 0.43263 0.0
C1758 C 0.55498 0.71452 0.40778 0.0
C1759 C 0.59941 0.74774 0.42573 0.0
N1760 N 0.58043 0.69635 0.3736 0.0
N1761 N 0.57841 0.75699 0.46607 0.0
H1762 H 0.63653 0.76714 0.42212 0.0
H1763 H 0.61963 0.77976 0.44791 0.0
H1764 H 0.5627 0.7555 0.478 0.0
H1765 H 0.59516 0.76635 0.47549 0.0
H1766 H 0.56672 0.68093 0.36843 0.0
H1767 H 0.5972 0.69571 0.36311 0.0
H1768 H 0.53041 0.69232 0.37882 0.0
H1769 H 0.51501 0.70101 0.40697 0.0
C1770 C 0.76913 0.24438 0.96969 0.0
C1771 C 0.75648 0.25372 0.94713 0.0
C1772 C 0.79759 0.2755 0.93568 0.0
C1773 C 0.81033 0.26567 0.95792 0.0
N1774 N 0.808 0.24588 -0.00092 0.0
N1775 N 0.75663 0.2824 0.91175 0.0
C1776 C 0.79596 0.25176 0.97593 0.0
C1777 C 0.77006 0.27081 0.93119 0.0
N1778 N 0.75558 0.22792 0.98476 0.0
N1779 N 0.81202 0.28832 0.91833 0.0
H1780 H 0.73659 0.27879 0.90756 0.0
H1781 H 0.76481 0.29701 0.90104 0.0
H1782 H 0.83207 0.29283 0.9215 0.0
H1783 H 0.80456 0.29334 0.90019 0.0
H1784 H 0.76426 0.21771 -0.00052 0.0
H1785 H 0.73551 0.22348 0.98183 0.0
H1786 H 0.7982 0.23805 0.01424 0.0
H1787 H 0.82773 0.25077 0.00408 0.0
C1788 C 0.23357 0.75953 0.59193 0.0
C1789 C 0.23079 0.76467 0.619 0.0
C1790 C 0.18319 0.76262 0.61176 0.0
C1791 C 0.18591 0.75656 0.58481 0.0
N1792 N 0.2128 0.75509 0.54808 0.0
N1793 N 0.20428 0.7775 0.65396 0.0
C1794 C 0.2109 0.75707 0.57451 0.0
C1795 C 0.20594 0.76835 0.62866 0.0
N1796 N 0.25775 0.75564 0.58314 0.0
N1797 N 0.15888 0.76171 0.62132 0.0
H1798 H 0.22076 0.78187 0.66666 0.0
H1799 H 0.187 0.78289 0.66175 0.0
H1800 H 0.14172 0.75861 0.60938 0.0
H1801 H 0.15562 0.76274 0.64112 0.0
H1802 H 0.26087 0.74873 0.56424 0.0
H1803 H 0.27484 0.75812 0.59523 0.0
H1804 H 0.2303 0.75765 0.53907 0.0
H1805 H 0.19644 0.75297 0.53495 0.0
C1806 C 0.34487 0.27364 0.0247 0.0
C1807 C 0.33701 0.26122 0.04715 0.0
C1808 C 0.3821 0.25089 0.05814 0.0
C1809 C 0.39009 0.26426 0.0363 0.0
N1810 N 0.37929 0.28274 0.99545 0.0
N1811 N 0.34625 0.23277 0.08162 0.0
C1812 C 0.37145 0.27377 0.01843 0.0
C1813 C 0.35503 0.24794 0.0626 0.0
N1814 N 0.32698 0.28595 0.00985 0.0
N1815 N 0.40052 0.24224 0.07529 0.0
H1816 H 0.32662 0.23077 0.08571 0.0
H1817 H 0.35793 0.22056 0.09194 0.0
H1818 H 0.42043 0.24339 0.07219 0.0
H1819 H 0.39637 0.23515 0.09322 0.0
H1820 H 0.33186 0.29818 0.99523 0.0
H1821 H 0.30704 0.28472 0.01283 0.0
H1822 H 0.3665 0.28781 0.98042 0.0
H1823 H 0.3987 0.28313 0.99045 0.0
C1824 C 0.40462 0.56081 0.72483 0.0
C1825 C 0.4117 0.58325 0.74169 0.0
C1826 C 0.43908 0.55761 0.76975 0.0
C1827 C 0.43174 0.53516 0.75306 0.0
N1828 N 0.40318 0.51363 0.71852 0.0
N1829 N 0.43041 0.60219 0.78302 0.0
C1830 C 0.41299 0.53621 0.73186 0.0
C1831 C 0.42732 0.58138 0.76508 0.0
N1832 N 0.3913 0.5632 0.70136 0.0
N1833 N 0.45795 0.55642 0.78942 0.0
H1834 H 0.42174 0.61975 0.78026 0.0
H1835 H 0.4395 0.60135 0.80155 0.0
H1836 H 0.46636 0.53911 0.79386 0.0
H1837 H 0.4664 0.57276 0.80033 0.0
H1838 H 0.38835 0.54811 0.68691 0.0
H1839 H 0.38481 0.58085 0.69535 0.0
H1840 H 0.38752 0.51281 0.70464 0.0
H1841 H 0.40915 0.49526 0.72294 0.0
C1842 C 0.97392 0.77974 0.22505 0.0
C1843 C 0.96163 0.76623 0.24477 0.0
C1844 C 0.956 0.80786 0.26889 0.0
C1845 C 0.96515 0.82126 0.24754 0.0
N1846 N 0.97989 0.82028 0.20384 0.0
N1847 N 0.93827 0.76716 0.28416 0.0
C1848 C 0.97338 0.80729 0.22522 0.0
C1849 C 0.95212 0.78019 0.26651 0.0
N1850 N 0.98698 0.76629 0.2067 0.0
N1851 N 0.95142 0.8216 0.29156 0.0
H1852 H 0.93485 0.74693 0.28301 0.0
H1853 H 0.9284 0.77649 0.29879 0.0
H1854 H 0.95377 0.84191 0.29382 0.0
H1855 H 0.94745 0.81283 0.30875 0.0
H1856 H 0.99853 0.77532 0.19345 0.0
H1857 H 0.98846 0.74613 0.20633 0.0
H1858 H 0.98306 0.81087 0.18592 0.0
H1859 H 0.9801 0.84053 0.20328 0.0
C1860 C 0.63696 0.18343 0.74814 0.0
C1861 C 0.62584 0.20763 0.75322 0.0
C1862 C 0.58192 0.18667 0.74371 0.0
C1863 C 0.59331 0.1637 0.73466 0.0
N1864 N 0.6314 0.13956 0.72769 0.0
N1865 N 0.58786 0.23319 0.75447 0.0
C1866 C 0.62078 0.16177 0.737 0.0
C1867 C 0.5983 0.20944 0.75113 0.0
N1868 N 0.66292 0.18117 0.75438 0.0
N1869 N 0.55542 0.18666 0.7451 0.0
H1870 H 0.59903 0.25041 0.75997 0.0
H1871 H 0.56829 0.23625 0.75006 0.0
H1872 H 0.5429 0.17038 0.73931 0.0
H1873 H 0.54605 0.20188 0.75404 0.0
H1874 H 0.67188 0.16354 0.75344 0.0
H1875 H 0.67511 0.19673 0.76283 0.0
H1876 H 0.65133 0.13801 0.72589 0.0
H1877 H 0.6201 0.12292 0.72039 0.0
C1878 C 0.0442 0.37278 0.25811 0.0
C1879 C 0.04019 0.35349 0.27637 0.0
C1880 C 0.02876 0.38691 0.30889 0.0
C1881 C 0.03147 0.40603 0.29028 0.0
N1882 N 0.03607 0.41652 0.24567 0.0
N1883 N 0.0216 0.34108 0.31621 0.0
C1884 C 0.03735 0.39873 0.26435 0.0
C1885 C 0.03027 0.36023 0.30087 0.0
N1886 N 0.05583 0.36674 0.23549 0.0
N1887 N 0.02602 0.39424 0.33452 0.0
H1888 H 0.02164 0.32124 0.31066 0.0
H1889 H 0.01183 0.34486 0.33308 0.0
H1890 H 0.02512 0.41361 0.34144 0.0
H1891 H 0.02699 0.3813 0.34934 0.0
H1892 H 0.06184 0.38065 0.22281 0.0
H1893 H 0.06142 0.34807 0.23032 0.0
H1894 H 0.03759 0.4117 0.2259 0.0
H1895 H 0.03106 0.43566 0.24966 0.0
C1896 C 0.41437 0.58628 0.27229 0.0
C1897 C 0.39499 0.56655 0.27658 0.0
C1898 C 0.42914 0.53667 0.28631 0.0
C1899 C 0.44803 0.55801 0.28749 0.0
N1900 N 0.45902 0.60351 0.28197 0.0
N1901 N 0.38356 0.52274 0.28851 0.0
C1902 C 0.44088 0.58286 0.2801 0.0
C1903 C 0.40222 0.54145 0.28326 0.0
N1904 N 0.40734 0.60812 0.2605 0.0
N1905 N 0.43706 0.51192 0.28832 0.0
H1906 H 0.36359 0.52522 0.28633 0.0
H1907 H 0.38788 0.50532 0.29668 0.0
H1908 H 0.45672 0.50794 0.29057 0.0
H1909 H 0.42444 0.49528 0.28522 0.0
H1910 H 0.42083 0.62204 0.25441 0.0
H1911 H 0.38801 0.61077 0.25432 0.0
H1912 H 0.45424 0.62271 0.27992 0.0
H1913 H 0.47871 0.60164 0.28718 0.0
C1914 C 0.11309 0.38366 0.70835 0.0
C1915 C 0.12516 0.40223 0.69269 0.0
C1916 C 0.08653 0.42804 0.69394 0.0
C1917 C 0.07427 0.40911 0.70897 0.0
N1918 N 0.07272 0.36572 0.72422 0.0
N1919 N 0.12081 0.43806 0.66494 0.0
C1920 C 0.08652 0.3858 0.714 0.0
C1921 C 0.11098 0.42312 0.68364 0.0
N1922 N 0.12737 0.36516 0.71951 0.0
N1923 N 0.07557 0.4513 0.69066 0.0
H1924 H 0.13848 0.43462 0.65672 0.0
H1925 H 0.11032 0.45203 0.65577 0.0
H1926 H 0.05766 0.4557 0.69781 0.0
H1927 H 0.08513 0.46701 0.68254 0.0
H1928 H 0.12025 0.35322 0.73351 0.0
H1929 H 0.14706 0.36314 0.71668 0.0
H1930 H 0.07982 0.3473 0.72598 0.0
H1931 H 0.05318 0.36672 0.7285 0.0
C1932 C 0.89104 0.05871 0.69794 0.0
C1933 C 0.88684 0.03108 0.69627 0.0
C1934 C 0.93334 0.02644 0.68998 0.0
C1935 C 0.93746 0.05401 0.6915 0.0
N1936 N 0.92234 0.09615 0.70375 0.0
N1937 N 0.90464 0.98889 0.69781 0.0
C1938 C 0.91695 0.07005 0.69785 0.0
C1939 C 0.90828 0.01503 0.6946 0.0
N1940 N 0.87025 0.07414 0.69776 0.0
N1941 N 0.95301 0.01122 0.68292 0.0
H1942 H 0.88653 0.98011 0.70164 0.0
H1943 H 0.91985 0.97644 0.69922 0.0
H1944 H 0.9718 0.01885 0.67999 0.0
H1945 H 0.95034 0.9912 0.67839 0.0
H1946 H 0.87198 0.09418 0.6957 0.0
H1947 H 0.85092 0.06678 0.69774 0.0
H1948 H 0.90877 0.10849 0.71104 0.0
H1949 H 0.94114 0.105 0.70368 0.0
C1950 C 0.61441 0.95839 0.30273 0.0
C1951 C 0.62295 0.98483 0.30902 0.0
C1952 C 0.57792 0.99751 0.30191 0.0
C1953 C 0.57051 0.97197 0.29114 0.0
N1954 N 0.58214 0.9282 0.27927 0.0
N1955 N 0.61326 0.03035 0.31226 0.0
C1956 C 0.58876 0.95228 0.29132 0.0
C1957 C 0.60477 0.00463 0.30845 0.0
N1958 N 0.63084 0.93912 0.30789 0.0
N1959 N 0.55924 0.01493 0.30583 0.0
H1960 H 0.63272 0.03666 0.31674 0.0
H1961 H 0.60128 0.04562 0.30894 0.0
H1962 H 0.53941 0.0102 0.3012 0.0
H1963 H 0.56307 0.03303 0.31593 0.0
H1964 H 0.62499 0.91933 0.30604 0.0
H1965 H 0.64963 0.94306 0.31659 0.0
H1966 H 0.59559 0.91414 0.2761 0.0
H1967 H 0.5636 0.92285 0.27063 0.0
C1968 C 0.2716 0.41018 0.58876 0.0
C1969 C 0.27907 0.38692 0.57597 0.0
C1970 C 0.29639 0.41221 0.54112 0.0
C1971 C 0.29387 0.43542 0.55677 0.0
N1972 N 0.27865 0.45723 0.59521 0.0
N1973 N 0.29763 0.36512 0.53917 0.0
C1974 C 0.28086 0.43468 0.5803 0.0
C1975 C 0.2906 0.38765 0.55154 0.0
N1976 N 0.25577 0.40865 0.60911 0.0
N1977 N 0.30449 0.41377 0.51638 0.0
H1978 H 0.2929 0.34667 0.54549 0.0
H1979 H 0.30937 0.36467 0.52334 0.0
H1980 H 0.30912 0.43153 0.50842 0.0
H1981 H 0.30441 0.39778 0.50299 0.0
H1982 H 0.24765 0.42475 0.61792 0.0
H1983 H 0.2488 0.39079 0.61552 0.0
H1984 H 0.27228 0.45769 0.61407 0.0
H1985 H 0.28455 0.47557 0.5892 0.0
C1986 C 0.2992 0.63536 0.94295 0.0
C1987 C 0.31476 0.63934 0.96679 0.0
C1988 C 0.31042 0.59248 0.97339 0.0
C1989 C 0.29452 0.58868 0.94986 0.0
N1990 N 0.27959 0.60455 0.90885 0.0
N1991 N 0.34057 0.62159 0.00122 0.0
C1992 C 0.29103 0.60951 0.93343 0.0
C1993 C 0.32216 0.61777 0.98086 0.0
N1994 N 0.29043 0.65622 0.93044 0.0
N1995 N 0.31338 0.57214 0.98905 0.0
H1996 H 0.34964 0.63993 0.00681 0.0
H1997 H 0.34855 0.60648 0.01099 0.0
H1998 H 0.30589 0.55318 0.98358 0.0
H1999 H 0.32209 0.57422 0.00789 0.0
H2000 H 0.27637 0.65445 0.91492 0.0
H2001 H 0.29561 0.67557 0.93662 0.0
H2002 H 0.27891 0.61845 0.89494 0.0
H2003 H 0.2729 0.58585 0.90151 0.0
C2004 C 0.68003 0.10118 0.3782 0.0
C2005 C 0.68249 0.12372 0.39557 0.0
C2006 C 0.7006 0.09846 0.43039 0.0
C2007 C 0.699 0.07605 0.41276 0.0
N2008 N 0.68077 0.05404 0.37268 0.0
N2009 N 0.68703 0.14213 0.43996 0.0
C2010 C 0.68649 0.07676 0.38754 0.0
C2011 C 0.68978 0.12169 0.42235 0.0
N2012 N 0.67238 0.10342 0.35259 0.0
N2013 N 0.7141 0.09819 0.45407 0.0
H2014 H 0.67956 0.15961 0.43474 0.0
H2015 H 0.68978 0.14088 0.46005 0.0
H2016 H 0.72246 0.08166 0.46077 0.0
H2017 H 0.7188 0.11488 0.46628 0.0
H2018 H 0.67329 0.08854 0.33811 0.0
H2019 H 0.66596 0.12077 0.34567 0.0
H2020 H 0.66959 0.05296 0.35508 0.0
H2021 H 0.68523 0.03587 0.37915 0.0
C2022 C 0.70931 0.88471 0.97671 0.0
C2023 C 0.70352 0.86089 0.98828 0.0
C2024 C 0.70251 0.88438 0.03101 0.0
C2025 C 0.70321 0.9082 0.01849 0.0
N2026 N 0.70872 0.93197 0.98004 0.0
N2027 N 0.69488 0.8373 0.02637 0.0
C2028 C 0.70753 0.90867 0.99155 0.0
C2029 C 0.70084 0.86042 0.01556 0.0
N2030 N 0.71655 0.88421 0.95155 0.0
N2031 N 0.70307 0.88481 0.05763 0.0
H2032 H 0.69398 0.81931 0.01582 0.0
H2033 H 0.68947 0.83595 0.04544 0.0
H2034 H 0.70388 0.90215 0.06932 0.0
H2035 H 0.70503 0.86831 0.06819 0.0
H2036 H 0.72311 0.90068 0.94243 0.0
H2037 H 0.7182 0.86677 0.94049 0.0
H2038 H 0.70869 0.93362 0.95998 0.0
H2039 H 0.70868 0.94989 0.99067 0.0
C2040 C 0.56786 0.32526 0.39606 0.0
C2041 C 0.56822 0.29812 0.38925 0.0
C2042 C 0.55863 0.28811 0.43389 0.0
C2043 C 0.55622 0.31513 0.44006 0.0
N2044 N 0.5564 0.35946 0.42695 0.0
N2045 N 0.56227 0.25344 0.40028 0.0
C2046 C 0.56016 0.33371 0.42108 0.0
C2047 C 0.56329 0.27944 0.40784 0.0
N2048 N 0.57626 0.34297 0.37903 0.0
N2049 N 0.55666 0.27085 0.45302 0.0
H2050 H 0.56613 0.24655 0.3815 0.0
H2051 H 0.55611 0.23868 0.41193 0.0
H2052 H 0.55201 0.27633 0.47195 0.0
H2053 H 0.56104 0.25139 0.45071 0.0
H2054 H 0.57919 0.36293 0.38372 0.0
H2055 H 0.58267 0.33758 0.36074 0.0
H2056 H 0.55549 0.37338 0.41309 0.0
H2057 H 0.5526 0.36684 0.44557 0.0
C2058 C 0.95356 0.26474 0.60877 0.0
C2059 C 0.98062 0.27079 0.6149 0.0
C2060 C 0.99123 0.24675 0.57469 0.0
C2061 C 0.96415 0.24233 0.56766 0.0
N2062 N 0.91942 0.25008 0.57565 0.0
N2063 N 0.02523 0.27081 0.6025 0.0
C2064 C 0.94525 0.25208 0.5841 0.0
C2065 C -0.00053 0.26283 0.59744 0.0
N2066 N 0.93583 0.271 0.62658 0.0
N2067 N 0.00903 0.23474 0.56012 0.0
H2068 H 0.03227 0.28167 0.61947 0.0
H2069 H 0.03944 0.26825 0.58912 0.0
H2070 H 0.00375 0.2229 0.54326 0.0
H2071 H 0.02881 0.2347 0.56578 0.0
H2072 H 0.91623 0.26438 0.62466 0.0
H2073 H 0.94097 0.28161 0.64421 0.0
H2074 H 0.90493 0.25926 0.58535 0.0
H2075 H 0.9126 0.24082 0.55776 0.0
C2076 C 0.37721 0.73462 0.10295 0.0
C2077 C 0.37505 0.70804 0.10914 0.0
C2078 C 0.38923 0.69463 0.06588 0.0
C2079 C 0.38997 0.72109 0.0593 0.0
N2080 N 0.37905 0.76542 0.06921 0.0
N2081 N 0.37444 0.66243 0.09538 0.0
C2082 C 0.38213 0.74079 0.07712 0.0
C2083 C 0.37968 0.68791 0.09022 0.0
N2084 N 0.3761 0.75411 0.12206 0.0
N2085 N 0.39871 0.67614 0.04939 0.0
H2086 H 0.36752 0.65694 0.11306 0.0
H2087 H 0.37482 0.64692 0.08149 0.0
H2088 H 0.40573 0.68031 0.03138 0.0
H2089 H 0.40137 0.65708 0.05428 0.0
H2090 H 0.38063 0.77372 0.11927 0.0
H2091 H 0.37311 0.75071 0.14146 0.0
H2092 H 0.37069 0.77985 0.08043 0.0
H2093 H 0.38241 0.77075 0.05039 0.0
C2094 C 0.98798 0.66999 0.88246 0.0
C2095 C 0.98939 0.69469 0.87147 0.0
C2096 C 0.02527 0.70968 0.90341 0.0
C2097 C 0.0219 0.6859 0.91586 0.0
N2098 N 0.99599 0.64598 0.9208 0.0
N2099 N 0.0066 0.73946 0.87359 0.0
C2100 C 0.00198 0.66685 0.90648 0.0
C2101 C 0.00729 0.71499 0.88253 0.0
N2102 N 0.9745 0.64904 0.86928 0.0
N2103 N 0.0461 0.72676 0.91095 0.0
H2104 H 0.99364 0.744 0.85839 0.0
H2105 H 0.01729 0.75569 0.88261 0.0
H2106 H 0.05957 0.72352 0.92619 0.0
H2107 H 0.05119 0.74307 0.90082 0.0
H2108 H 0.97527 0.63005 0.87518 0.0
H2109 H 0.96491 0.65 0.85097 0.0
H2110 H 0.97983 0.63299 0.91612 0.0
H2111 H 0.00552 0.64311 0.93878 0.0
C2112 C 0.61787 0.4253 0.68006 0.0
C2113 C 0.63885 0.42612 0.69938 0.0
C2114 C 0.6074 0.42043 0.73291 0.0
C2115 C 0.58665 0.42379 0.71419 0.0
N2116 N 0.57271 0.434 0.67047 0.0
N2117 N 0.65347 0.42872 0.74502 0.0
C2118 C 0.59201 0.42747 0.68786 0.0
C2119 C 0.63363 0.42476 0.72607 0.0
N2120 N 0.62245 0.42133 0.65426 0.0
N2121 N 0.60209 0.41235 0.75699 0.0
H2122 H 0.6729 0.43266 0.74098 0.0
H2123 H 0.6503 0.4306 0.76485 0.0
H2124 H 0.58311 0.40828 0.76246 0.0
H2125 H 0.61648 0.4071 0.77045 0.0
H2126 H 0.60752 0.418 0.63965 0.0
H2127 H 0.64098 0.41843 0.64777 0.0
H2128 H 0.57628 0.43945 0.65175 0.0
H2129 H 0.55358 0.43643 0.67546 0.0
C2130 C 0.88901 0.58753 0.30009 0.0
C2131 C 0.86861 0.56919 0.3056 0.0
C2132 C 0.9007 0.53899 0.32039 0.0
C2133 C 0.92108 0.55772 0.31587 0.0
N2134 N 0.93512 0.60132 0.30586 0.0
N2135 N 0.85454 0.53018 0.32594 0.0
C2136 C 0.91536 0.58252 0.30713 0.0
C2137 C 0.87433 0.54569 0.31721 0.0
N2138 N 0.88329 0.60905 0.28696 0.0
N2139 N 0.90655 0.51452 0.32699 0.0
H2140 H 0.835 0.53469 0.32422 0.0
H2141 H 0.85759 0.51419 0.337 0.0
H2142 H 0.92564 0.50902 0.3302 0.0
H2143 H 0.8926 0.49906 0.3275 0.0
H2144 H 0.8974 0.62156 0.27969 0.0
H2145 H 0.86425 0.6135 0.28162 0.0
H2146 H 0.93203 0.62067 0.30236 0.0
H2147 H 0.95469 0.59806 0.3103 0.0
C2148 C 0.11576 0.00806 0.28717 0.0
C2149 C 0.13173 0.98738 0.29333 0.0
C2150 C 0.09446 0.95566 0.2832 0.0
C2151 C 0.07802 0.97652 0.2795 0.0
N2152 N 0.07187 0.02265 0.28106 0.0
N2153 N 0.13548 0.94197 0.30169 0.0
C2154 C 0.08836 0.00278 0.28236 0.0
C2155 C 0.12091 0.96126 0.29245 0.0
N2156 N 0.12696 0.03256 0.28497 0.0
N2157 N 0.08493 0.93047 0.27731 0.0
H2158 H 0.15482 0.94523 0.30901 0.0
H2159 H 0.12775 0.9232 0.3043 0.0
H2160 H 0.06554 0.92549 0.27093 0.0
H2161 H 0.0967 0.91466 0.2767 0.0
H2162 H 0.11682 0.04787 0.27789 0.0
H2163 H 0.14701 0.03707 0.28802 0.0
H2164 H 0.07779 0.04215 0.28581 0.0
H2165 H 0.05174 0.01947 0.27716 0.0
C2166 C 0.37645 0.05002 0.68311 0.0
C2167 C 0.36899 0.03336 0.70281 0.0
C2168 C 0.41501 0.02648 0.71412 0.0
C2169 C 0.42238 0.04203 0.69358 0.0
N2170 N 0.41013 0.06367 0.65478 0.0
N2171 N 0.38054 0.00048 0.7323 0.0
C2172 C 0.40306 0.05224 0.67686 0.0
C2173 C 0.38811 0.02001 0.71691 0.0
N2174 N 0.3585 0.06485 0.67136 0.0
N2175 N 0.43364 0.0187 0.73157 0.0
H2176 H 0.361 0.99455 0.73415 0.0
H2177 H 0.39356 0.98835 0.74102 0.0
H2178 H 0.45359 0.02292 0.73014 0.0
H2179 H 0.42922 0.00992 0.74865 0.0
H2180 H 0.36345 0.07946 0.65902 0.0
H2181 H 0.33889 0.0642 0.67562 0.0
H2182 H 0.39668 0.06901 0.64043 0.0
H2183 H 0.42945 0.06561 0.6496 0.0
C2184 C 0.69343 0.60909 0.42174 0.0
C2185 C 0.66656 0.61138 0.41501 0.0
C2186 C 0.65883 0.56384 0.41396 0.0
C2187 C 0.68539 0.5617 0.42238 0.0
N2188 N 0.72612 0.58275 0.44081 0.0
N2189 N 0.62261 0.59184 0.41068 0.0
C2190 C 0.70214 0.58449 0.42828 0.0
C2191 C 0.6489 0.589 0.41292 0.0
N2192 N 0.71089 0.63007 0.42073 0.0
N2193 N 0.64343 0.54199 0.4057 0.0
H2194 H 0.6147 0.61006 0.41031 0.0
H2195 H 0.60869 0.5764 0.41156 0.0
H2196 H 0.6501 0.52323 0.40563 0.0
H2197 H 0.62484 0.54266 0.39661 0.0
H2198 H 0.73105 0.62864 0.42245 0.0
H2199 H 0.7054 0.64845 0.41585 0.0
H2200 H 0.73806 0.59902 0.44784 0.0
H2201 H 0.73295 0.56514 0.4466 0.0
C2202 C 0.73408 0.40267 0.97734 0.0
C2203 C 0.72785 0.38019 0.9911 0.0
C2204 C 0.70812 0.40723 0.0245 0.0
C2205 C 0.71577 0.42985 0.01163 0.0
N2206 N 0.74039 0.44988 0.97884 0.0
N2207 N 0.71469 0.36171 0.0307 0.0
C2208 C 0.73015 0.4278 0.98897 0.0
C2209 C 0.71656 0.38266 0.01557 0.0
N2210 N 0.74244 0.39999 0.95263 0.0
N2211 N 0.69196 0.40902 0.04465 0.0
H2212 H 0.72125 0.34353 0.0251 0.0
H2213 H 0.70912 0.36302 0.04986 0.0
H2214 H 0.68532 0.42664 0.05188 0.0
H2215 H 0.68334 0.3928 0.05277 0.0
H2216 H 0.74447 0.41546 0.94057 0.0
H2217 H 0.74526 0.38195 0.94324 0.0
H2218 H 0.75335 0.44962 0.96402 0.0
H2219 H 0.73774 0.4686 0.98682 0.0
C2220 C 0.2712 0.924 0.62236 0.0
C2221 C 0.28531 0.90226 0.61443 0.0
C2222 C 0.30982 0.92929 0.58543 0.0
C2223 C 0.29756 0.95152 0.59523 0.0
N2224 N 0.26921 0.97114 0.6254 0.0
N2225 N 0.32178 0.8854 0.59265 0.0
C2226 C 0.27898 0.94921 0.61441 0.0
C2227 C 0.30562 0.90519 0.59706 0.0
N2228 N 0.24975 0.9204 0.63658 0.0
N2229 N 0.32497 0.93103 0.56452 0.0
H2230 H 0.31997 0.86765 0.60139 0.0
H2231 H 0.33861 0.88751 0.58242 0.0
H2232 H 0.32867 0.94837 0.55545 0.0
H2233 H 0.33195 0.91483 0.5547 0.0
H2234 H 0.23709 0.93497 0.64069 0.0
H2235 H 0.24322 0.90219 0.64241 0.0
H2236 H 0.25765 0.97104 0.64136 0.0
H2237 H 0.27429 0.98986 0.6198 0.0
C2238 C 0.30091 0.1188 0.98727 0.0
C2239 C 0.31057 0.12446 0.01351 0.0
C2240 C 0.31007 0.07761 0.02026 0.0
C2241 C 0.29707 0.07228 0.99528 0.0
N2242 N 0.2768 0.08794 0.95614 0.0
N2243 N 0.32122 0.10951 0.05628 0.0
C2244 C 0.29168 0.0929 0.97901 0.0
C2245 C 0.31456 0.10393 0.03035 0.0
N2246 N 0.30131 0.13804 0.97002 0.0
N2247 N 0.31844 0.0575 0.03415 0.0
H2248 H 0.32429 0.12849 0.06461 0.0
H2249 H 0.32152 0.0954 0.06999 0.0
H2250 H 0.31538 0.03798 0.02733 0.0
H2251 H 0.33039 0.06023 0.05127 0.0
H2252 H 0.29701 0.13451 0.95004 0.0
H2253 H 0.30851 0.15714 0.97522 0.0
H2254 H 0.26974 0.10259 0.94501 0.0
H2255 H 0.2696 0.06925 0.94931 0.0
C2256 C 0.42743 0.65282 0.60558 0.0
C2257 C 0.41168 0.66742 0.62219 0.0
C2258 C 0.40155 0.69615 0.58696 0.0
C2259 C 0.41922 0.68314 0.57135 0.0
N2260 N 0.44972 0.64987 0.56521 0.0
N2261 N 0.3848 0.70372 0.62969 0.0
C2262 C 0.43214 0.66148 0.5804 0.0
C2263 C 0.39897 0.68926 0.61312 0.0
N2264 N 0.43818 0.63084 0.614 0.0
N2265 N 0.3869 0.71479 0.57654 0.0
H2266 H 0.38089 0.69836 0.64837 0.0
H2267 H 0.37778 0.72167 0.62548 0.0
H2268 H 0.38874 0.72073 0.55766 0.0
H2269 H 0.3715 0.72296 0.58567 0.0
H2270 H 0.4468 0.6174 0.60185 0.0
H2271 H 0.43756 0.62517 0.63308 0.0
H2272 H 0.46235 0.63619 0.57166 0.0
H2273 H 0.45269 0.65486 0.5462 0.0
C2274 C 0.01838 0.77243 0.39431 0.0
C2275 C 0.00986 0.74933 0.37895 0.0
C2276 C 0.02362 0.72253 0.41458 0.0
C2277 C 0.03388 0.74551 0.4292 0.0
N2278 N 0.04354 0.792 0.43277 0.0
N2279 N 0.00571 0.70233 0.37309 0.0
C2280 C 0.03189 0.77042 0.41903 0.0
C2281 C 0.01289 0.72435 0.38871 0.0
N2282 N 0.01332 0.79623 0.3853 0.0
N2283 N 0.02354 0.69902 0.42578 0.0
H2284 H 0.99608 0.70269 0.35472 0.0
H2285 H 0.01046 0.68366 0.37762 0.0
H2286 H 0.03198 0.69667 0.44435 0.0
H2287 H 0.01362 0.68203 0.41753 0.0
H2288 H 0.01645 0.81376 0.39652 0.0
H2289 H 0.00442 0.79843 0.36688 0.0
H2290 H 0.04537 0.81039 0.42541 0.0
H2291 H 0.05293 0.79124 0.45122 0.0
C2292 C 0.5937 0.27327 0.90346 0.0
C2293 C 0.58241 0.25524 0.88344 0.0
C2294 C 0.54933 0.24054 0.91277 0.0
C2295 C 0.55844 0.26105 0.93129 0.0
N2296 N 0.58694 0.29959 0.94272 0.0
N2297 N 0.54744 0.22382 0.86764 0.0
C2298 C 0.58007 0.2781 0.92629 0.0
C2299 C 0.55978 0.23923 0.88775 0.0
N2300 N 0.61788 0.28517 0.90106 0.0
N2301 N 0.53096 0.22211 0.91927 0.0
H2302 H 0.5542 0.22256 0.84892 0.0
H2303 H 0.5293 0.21398 0.86889 0.0
H2304 H 0.52294 0.22253 0.93745 0.0
H2305 H 0.52546 0.20522 0.90761 0.0
H2306 H 0.62821 0.29642 0.91619 0.0
H2307 H 0.62882 0.2816 0.88491 0.0
H2308 H 0.60061 0.31424 0.93841 0.0
H2309 H 0.57741 0.30404 0.95962 0.0
C2310 C 0.99406 0.29182 0.12414 0.0
C2311 C 0.992 0.31678 0.13695 0.0
C2312 C 0.9663 0.33047 0.09901 0.0
C2313 C 0.96968 0.30616 0.08566 0.0
N2314 N 0.98986 0.26497 0.08358 0.0
N2315 N 0.97601 0.3603 0.13599 0.0
C2316 C 0.98442 0.28715 0.0977 0.0
C2317 C 0.97814 0.3361 0.12438 0.0
N2318 N 0.00402 0.27214 0.13767 0.0
N2319 N 0.95194 0.34863 0.08742 0.0
H2320 H 0.98437 0.36651 0.15451 0.0
H2321 H 0.98437 0.36651 0.15451 0.0
H2322 H 0.94278 0.34544 0.06876 0.0
H2323 H 0.94905 0.36674 0.09668 0.0
H2324 H 0.00335 0.25278 0.13042 0.0
H2325 H 0.01089 0.27459 0.1572 0.0
H2326 H 0.00307 0.25186 0.09014 0.0
H2327 H 0.98272 0.26056 0.06432 0.0
loop_
_geom_bond_atom_site_label_1
_geom_bond_atom_site_label_2
_geom_bond_distance
_geom_bond_site_symmetry_2
_ccdc_geom_bond_type
O0 Cd1 2.300 . S
O0 C7 1.275 . S
Cd1 O0 2.300 . S
Cd1 O9 2.381 . S
Cd1 O10 2.378 . S
O2 Cd3 2.385 . S
O2 C7 1.255 . S
Cd3 O2 2.385 . S
Cd3 O4 2.317 . S
O4 Cd3 2.317 . S
O4 C5 1.232 . S
C5 O4 1.232 . S
C5 O6 1.218 . S
O6 C5 1.218 . S
C7 O0 1.275 . S
C7 O2 1.255 . S
C8 O9 1.258 . S
C8 O10 1.256 . S
O9 Cd1 2.381 . S
O9 C8 1.258 . S
O10 Cd1 2.378 . S
O10 C8 1.256 . S
O11 Cd12 2.300 . S
O11 C18 1.275 . S
Cd12 O11 2.300 . S
Cd12 O20 2.381 . S
Cd12 O21 2.378 . S
O13 Cd14 2.385 . S
O13 C18 1.255 . S
Cd14 O13 2.385 . S
Cd14 O15 2.317 . S
O15 Cd14 2.317 . S
O15 C16 1.232 . S
C16 O15 1.232 . S
C16 O17 1.218 . S
O17 C16 1.218 . S
C18 O11 1.275 . S
C18 O13 1.255 . S
C19 O20 1.258 . S
C19 O21 1.256 . S
O20 Cd12 2.381 . S
O20 C19 1.258 . S
O21 Cd12 2.378 . S
O21 C19 1.256 . S
O22 Cd23 2.300 . S
O22 C29 1.275 . S
Cd23 O22 2.300 . S
Cd23 O31 2.381 1_565 S
Cd23 O32 2.378 . S
O24 Cd25 2.385 . S
O24 C29 1.255 . S
Cd25 O24 2.385 . S
Cd25 O26 2.317 . S
O26 Cd25 2.317 . S
O26 C27 1.232 . S
C27 O26 1.232 . S
C27 O28 1.218 . S
O28 C27 1.218 . S
C29 O22 1.275 . S
C29 O24 1.255 . S
C30 O31 1.258 . S
C30 O32 1.256 1_545 S
O31 Cd23 2.381 1_545 S
O31 C30 1.258 . S
O32 Cd23 2.378 . S
O32 C30 1.256 1_565 S
O33 Cd34 2.300 . S
O33 C40 1.275 . S
Cd34 O33 2.300 . S
Cd34 O42 2.381 1_545 S
Cd34 O43 2.378 . S
O35 Cd36 2.385 . S
O35 C40 1.255 . S
Cd36 O35 2.385 . S
Cd36 O37 2.317 . S
O37 Cd36 2.317 . S
O37 C38 1.232 . S
C38 O37 1.232 . S
C38 O39 1.218 . S
O39 C38 1.218 . S
C40 O33 1.275 . S
C40 O35 1.255 . S
C41 O42 1.258 . S
C41 O43 1.256 1_565 S
O42 Cd34 2.381 1_565 S
O42 C41 1.258 . S
O43 Cd34 2.378 . S
O43 C41 1.256 1_545 S
O44 Cd45 2.300 . S
O44 C51 1.275 . S
Cd45 O44 2.300 . S
Cd45 O53 2.381 . S
Cd45 O54 2.378 . S
O46 Cd47 2.385 . S
O46 C51 1.255 . S
Cd47 O46 2.385 . S
Cd47 O48 2.317 . S
O48 Cd47 2.317 . S
O48 C49 1.232 . S
C49 O48 1.232 . S
C49 O50 1.218 . S
O50 C49 1.218 . S
C51 O44 1.275 . S
C51 O46 1.255 . S
C52 O53 1.258 . S
C52 O54 1.256 . S
O53 Cd45 2.381 . S
O53 C52 1.258 . S
O54 Cd45 2.378 . S
O54 C52 1.256 . S
O55 Cd56 2.300 . S
O55 C62 1.275 . S
Cd56 O55 2.300 . S
Cd56 O64 2.381 1_554 S
Cd56 O65 2.378 . S
O57 Cd58 2.385 . S
O57 C62 1.255 . S
Cd58 O57 2.385 . S
Cd58 O59 2.317 . S
O59 Cd58 2.317 . S
O59 C60 1.232 . S
C60 O59 1.232 . S
C60 O61 1.218 . S
O61 C60 1.218 . S
C62 O55 1.275 . S
C62 O57 1.255 . S
C63 O64 1.258 . S
C63 O65 1.256 1_556 S
O64 Cd56 2.381 1_556 S
O64 C63 1.258 . S
O65 Cd56 2.378 . S
O65 C63 1.256 1_554 S
O66 Cd67 2.300 . S
O66 C73 1.275 . S
Cd67 O66 2.300 . S
Cd67 O75 2.381 . S
Cd67 O76 2.378 . S
O68 Cd69 2.385 . S
O68 C73 1.255 . S
Cd69 O68 2.385 . S
Cd69 O70 2.317 . S
O70 Cd69 2.317 . S
O70 C71 1.232 . S
C71 O70 1.232 . S
C71 O72 1.218 . S
O72 C71 1.218 . S
C73 O66 1.275 . S
C73 O68 1.255 . S
C74 O75 1.258 . S
C74 O76 1.256 . S
O75 Cd67 2.381 . S
O75 C74 1.258 . S
O76 Cd67 2.378 . S
O76 C74 1.256 . S
O77 Cd78 2.300 . S
O77 C84 1.275 . S
Cd78 O77 2.300 . S
Cd78 O86 2.381 1_556 S
Cd78 O87 2.378 . S
O79 Cd80 2.385 . S
O79 C84 1.255 . S
Cd80 O79 2.385 . S
Cd80 O81 2.317 . S
O81 Cd80 2.317 . S
O81 C82 1.232 . S
C82 O81 1.232 . S
C82 O83 1.218 . S
O83 C82 1.218 . S
C84 O77 1.275 . S
C84 O79 1.255 . S
C85 O86 1.258 . S
C85 O87 1.256 1_554 S
O86 Cd78 2.381 1_554 S
O86 C85 1.258 . S
O87 Cd78 2.378 . S
O87 C85 1.256 1_556 S
O88 Cd89 2.300 . S
O88 C95 1.275 . S
Cd89 O88 2.300 . S
Cd89 O97 2.381 . S
Cd89 O98 2.378 . S
O90 Cd91 2.385 . S
O90 C95 1.255 . S
Cd91 O90 2.385 . S
Cd91 O92 2.317 . S
O92 Cd91 2.317 . S
O92 C93 1.232 . S
C93 O92 1.232 . S
C93 O94 1.218 . S
O94 C93 1.218 . S
C95 O88 1.275 . S
C95 O90 1.255 . S
C96 O97 1.258 . S
C96 O98 1.256 . S
O97 Cd89 2.381 . S
O97 C96 1.258 . S
O98 Cd89 2.378 . S
O98 C96 1.256 . S
O99 Cd100 2.300 . S
O99 C106 1.275 . S
Cd100 O99 2.300 . S
Cd100 O108 2.381 1_455 S
Cd100 O109 2.378 . S
O101 Cd102 2.385 . S
O101 C106 1.255 . S
Cd102 O101 2.385 . S
Cd102 O103 2.317 . S
O103 Cd102 2.317 . S
O103 C104 1.232 . S
C104 O103 1.232 . S
C104 O105 1.218 . S
O105 C104 1.218 . S
C106 O99 1.275 . S
C106 O101 1.255 . S
C107 O108 1.258 . S
C107 O109 1.256 1_655 S
O108 Cd100 2.381 1_655 S
O108 C107 1.258 . S
O109 Cd100 2.378 . S
O109 C107 1.256 1_455 S
O110 Cd111 2.300 . S
O110 C117 1.275 . S
Cd111 O110 2.300 . S
Cd111 O119 2.381 . S
Cd111 O120 2.378 . S
O112 Cd113 2.385 . S
O112 C117 1.255 . S
Cd113 O112 2.385 . S
Cd113 O114 2.317 . S
O114 Cd113 2.317 . S
O114 C115 1.232 . S
C115 O114 1.232 . S
C115 O116 1.218 . S
O116 C115 1.218 . S
C117 O110 1.275 . S
C117 O112 1.255 . S
C118 O119 1.258 . S
C118 O120 1.256 . S
O119 Cd111 2.381 . S
O119 C118 1.258 . S
O120 Cd111 2.378 . S
O120 C118 1.256 . S
O121 Cd122 2.300 . S
O121 C128 1.275 . S
Cd122 O121 2.300 . S
Cd122 O130 2.381 1_655 S
Cd122 O131 2.378 . S
O123 Cd124 2.385 . S
O123 C128 1.255 . S
Cd124 O123 2.385 . S
Cd124 O125 2.317 . S
O125 Cd124 2.317 . S
O125 C126 1.232 . S
C126 O125 1.232 . S
C126 O127 1.218 . S
O127 C126 1.218 . S
C128 O121 1.275 . S
C128 O123 1.255 . S
C129 O130 1.258 . S
C129 O131 1.256 1_455 S
O130 Cd122 2.381 1_455 S
O130 C129 1.258 . S
O131 Cd122 2.378 . S
O131 C129 1.256 1_655 S
O132 Cd133 2.300 . S
O132 C139 1.275 . S
Cd133 O132 2.300 . S
Cd133 O141 2.381 . S
Cd133 O142 2.378 . S
O134 Cd135 2.385 . S
O134 C139 1.255 . S
Cd135 O134 2.385 . S
Cd135 O136 2.317 . S
O136 Cd135 2.317 . S
O136 C137 1.232 . S
C137 O136 1.232 . S
C137 O138 1.218 . S
O138 C137 1.218 . S
C139 O132 1.275 . S
C139 O134 1.255 . S
C140 O141 1.258 . S
C140 O142 1.256 . S
O141 Cd133 2.381 . S
O141 C140 1.258 . S
O142 Cd133 2.378 . S
O142 C140 1.256 . S
O143 Cd144 2.300 . S
O143 C150 1.275 . S
Cd144 O143 2.300 . S
Cd144 O152 2.381 . S
Cd144 O153 2.378 . S
O145 Cd146 2.385 . S
O145 C150 1.255 . S
Cd146 O145 2.385 . S
Cd146 O147 2.317 . S
O147 Cd146 2.317 . S
O147 C148 1.232 . S
C148 O147 1.232 . S
C148 O149 1.218 . S
O149 C148 1.218 . S
C150 O143 1.275 . S
C150 O145 1.255 . S
C151 O152 1.258 . S
C151 O153 1.256 . S
O152 Cd144 2.381 . S
O152 C151 1.258 . S
O153 Cd144 2.378 . S
O153 C151 1.256 . S
O154 Cd155 2.300 1_545 S
O154 C161 1.275 . S
Cd155 O154 2.300 1_565 S
Cd155 O163 2.381 1_565 S
Cd155 O164 2.378 . S
O156 Cd157 2.385 . S
O156 C161 1.255 1_565 S
Cd157 O156 2.385 . S
Cd157 O158 2.317 . S
O158 Cd157 2.317 . S
O158 C159 1.232 . S
C159 O158 1.232 . S
C159 O160 1.218 . S
O160 C159 1.218 . S
C161 O154 1.275 . S
C161 O156 1.255 1_545 S
C162 O163 1.258 1_565 S
C162 O164 1.256 . S
O163 Cd155 2.381 1_545 S
O163 C162 1.258 1_545 S
O164 Cd155 2.378 . S
O164 C162 1.256 . S
O165 Cd166 2.300 1_565 S
O165 C172 1.275 . S
Cd166 O165 2.300 1_545 S
Cd166 O174 2.381 1_545 S
Cd166 O175 2.378 . S
O167 Cd168 2.385 . S
O167 C172 1.255 1_545 S
Cd168 O167 2.385 . S
Cd168 O169 2.317 . S
O169 Cd168 2.317 . S
O169 C170 1.232 . S
C170 O169 1.232 . S
C170 O171 1.218 . S
O171 C170 1.218 . S
C172 O165 1.275 . S
C172 O167 1.255 1_565 S
C173 O174 1.258 1_545 S
C173 O175 1.256 . S
O174 Cd166 2.381 1_565 S
O174 C173 1.258 1_565 S
O175 Cd166 2.378 . S
O175 C173 1.256 . S
O176 Cd177 2.300 . S
O176 C183 1.275 . S
Cd177 O176 2.300 . S
Cd177 O185 2.381 . S
Cd177 O186 2.378 . S
O178 Cd179 2.385 . S
O178 C183 1.255 . S
Cd179 O178 2.385 . S
Cd179 O180 2.317 . S
O180 Cd179 2.317 . S
O180 C181 1.232 . S
C181 O180 1.232 . S
C181 O182 1.218 . S
O182 C181 1.218 . S
C183 O176 1.275 . S
C183 O178 1.255 . S
C184 O185 1.258 . S
C184 O186 1.256 . S
O185 Cd177 2.381 . S
O185 C184 1.258 . S
O186 Cd177 2.378 . S
O186 C184 1.256 . S
O187 Cd188 2.300 1_556 S
O187 C194 1.275 . S
Cd188 O187 2.300 1_554 S
Cd188 O196 2.381 1_554 S
Cd188 O197 2.378 . S
O189 Cd190 2.385 . S
O189 C194 1.255 1_554 S
Cd190 O189 2.385 . S
Cd190 O191 2.317 . S
O191 Cd190 2.317 . S
O191 C192 1.232 . S
C192 O191 1.232 . S
C192 O193 1.218 . S
O193 C192 1.218 . S
C194 O187 1.275 . S
C194 O189 1.255 1_556 S
C195 O196 1.258 1_554 S
C195 O197 1.256 . S
O196 Cd188 2.381 1_556 S
O196 C195 1.258 1_556 S
O197 Cd188 2.378 . S
O197 C195 1.256 . S
O198 Cd199 2.300 . S
O198 C205 1.275 . S
Cd199 O198 2.300 . S
Cd199 O207 2.381 . S
Cd199 O208 2.378 . S
O200 Cd201 2.385 . S
O200 C205 1.255 . S
Cd201 O200 2.385 . S
Cd201 O202 2.317 . S
O202 Cd201 2.317 . S
O202 C203 1.232 . S
C203 O202 1.232 . S
C203 O204 1.218 . S
O204 C203 1.218 . S
C205 O198 1.275 . S
C205 O200 1.255 . S
C206 O207 1.258 . S
C206 O208 1.256 . S
O207 Cd199 2.381 . S
O207 C206 1.258 . S
O208 Cd199 2.378 . S
O208 C206 1.256 . S
O209 Cd210 2.300 1_554 S
O209 C216 1.275 . S
Cd210 O209 2.300 1_556 S
Cd210 O218 2.381 1_556 S
Cd210 O219 2.378 . S
O211 Cd212 2.385 . S
O211 C216 1.255 1_556 S
Cd212 O211 2.385 . S
Cd212 O213 2.317 . S
O213 Cd212 2.317 . S
O213 C214 1.232 . S
C214 O213 1.232 . S
C214 O215 1.218 . S
O215 C214 1.218 . S
C216 O209 1.275 . S
C216 O211 1.255 1_554 S
C217 O218 1.258 1_556 S
C217 O219 1.256 . S
O218 Cd210 2.381 1_554 S
O218 C217 1.258 1_554 S
O219 Cd210 2.378 . S
O219 C217 1.256 . S
O220 Cd221 2.300 . S
O220 C227 1.275 . S
Cd221 O220 2.300 . S
Cd221 O229 2.381 . S
Cd221 O230 2.378 . S
O222 Cd223 2.385 . S
O222 C227 1.255 . S
Cd223 O222 2.385 . S
Cd223 O224 2.317 . S
O224 Cd223 2.317 . S
O224 C225 1.232 . S
C225 O224 1.232 . S
C225 O226 1.218 . S
O226 C225 1.218 . S
C227 O220 1.275 . S
C227 O222 1.255 . S
C228 O229 1.258 . S
C228 O230 1.256 . S
O229 Cd221 2.381 . S
O229 C228 1.258 . S
O230 Cd221 2.378 . S
O230 C228 1.256 . S
O231 Cd232 2.300 1_655 S
O231 C238 1.275 . S
Cd232 O231 2.300 1_455 S
Cd232 O240 2.381 1_455 S
Cd232 O241 2.378 . S
O233 Cd234 2.385 . S
O233 C238 1.255 1_455 S
Cd234 O233 2.385 . S
Cd234 O235 2.317 . S
O235 Cd234 2.317 . S
O235 C236 1.232 . S
C236 O235 1.232 . S
C236 O237 1.218 . S
O237 C236 1.218 . S
C238 O231 1.275 . S
C238 O233 1.255 1_655 S
C239 O240 1.258 1_455 S
C239 O241 1.256 . S
O240 Cd232 2.381 1_655 S
O240 C239 1.258 1_655 S
O241 Cd232 2.378 . S
O241 C239 1.256 . S
O242 Cd243 2.300 . S
O242 C249 1.275 . S
Cd243 O242 2.300 . S
Cd243 O251 2.381 . S
Cd243 O252 2.378 . S
O244 Cd245 2.385 . S
O244 C249 1.255 . S
Cd245 O244 2.385 . S
Cd245 O246 2.317 . S
O246 Cd245 2.317 . S
O246 C247 1.232 . S
C247 O246 1.232 . S
C247 O248 1.218 . S
O248 C247 1.218 . S
C249 O242 1.275 . S
C249 O244 1.255 . S
C250 O251 1.258 . S
C250 O252 1.256 . S
O251 Cd243 2.381 . S
O251 C250 1.258 . S
O252 Cd243 2.378 . S
O252 C250 1.256 . S
O253 Cd254 2.300 1_455 S
O253 C260 1.275 . S
Cd254 O253 2.300 1_655 S
Cd254 O262 2.381 1_655 S
Cd254 O263 2.378 . S
O255 Cd256 2.385 . S
O255 C260 1.255 1_655 S
Cd256 O255 2.385 . S
Cd256 O257 2.317 . S
O257 Cd256 2.317 . S
O257 C258 1.232 . S
C258 O257 1.232 . S
C258 O259 1.218 . S
O259 C258 1.218 . S
C260 O253 1.275 . S
C260 O255 1.255 1_455 S
C261 O262 1.258 1_655 S
C261 O263 1.256 . S
O262 Cd254 2.381 1_455 S
O262 C261 1.258 1_455 S
O263 Cd254 2.378 . S
O263 C261 1.256 . S
P264 O275 1.490 . S
P264 C278 1.812 . S
P264 C284 1.803 . S
P264 C290 1.819 . S
H265 C279 0.941 . S
H266 C280 0.939 . S
H267 C282 0.940 . S
H268 C283 0.940 . S
H269 C285 0.939 . S
H270 C286 0.942 . S
H271 C288 0.940 . S
H272 C289 0.939 . S
H273 C291 0.941 . S
H274 C295 0.939 . S
O275 P264 1.490 . S
H276 C292 0.939 . S
H277 C294 0.940 . S
C278 P264 1.812 . S
C278 C279 1.389 . S
C278 C283 1.391 . S
C279 H265 0.941 . S
C279 C278 1.389 . S
C279 C280 1.397 . S
C280 H266 0.939 . S
C280 C279 1.397 . S
C280 C281 1.378 . S
C281 C280 1.378 . S
C281 C282 1.378 . S
C282 H267 0.940 . S
C282 C281 1.378 . S
C282 C283 1.396 . S
C283 H268 0.940 . S
C283 C278 1.391 . S
C283 C282 1.396 . S
C284 P264 1.803 . S
C284 C285 1.378 . S
C284 C289 1.400 . S
C285 H269 0.939 . S
C285 C284 1.378 . S
C285 C286 1.361 . S
C286 H270 0.942 . S
C286 C285 1.361 . S
C286 C287 1.369 . S
C287 C286 1.369 . S
C287 C288 1.404 . S
C288 H271 0.940 . S
C288 C287 1.404 . S
C288 C289 1.389 . S
C289 H272 0.939 . S
C289 C284 1.400 . S
C289 C288 1.389 . S
C290 P264 1.819 . S
C290 C291 1.391 . S
C290 C295 1.391 . S
C291 H273 0.941 . S
C291 C290 1.391 . S
C291 C292 1.396 . S
C292 H276 0.939 . S
C292 C291 1.396 . S
C292 C293 1.397 . S
C293 C292 1.397 . S
C293 C294 1.385 . S
C294 H277 0.940 . S
C294 C293 1.385 . S
C294 C295 1.388 . S
C295 H274 0.939 . S
C295 C290 1.391 . S
C295 C294 1.388 . S
P296 O307 1.490 . S
P296 C310 1.812 . S
P296 C316 1.803 . S
P296 C322 1.819 . S
H297 C311 0.941 . S
H298 C312 0.939 . S
H299 C314 0.940 . S
H300 C315 0.940 . S
H301 C317 0.939 . S
H302 C318 0.942 . S
H303 C320 0.940 . S
H304 C321 0.939 . S
H305 C323 0.941 . S
H306 C327 0.939 . S
O307 P296 1.490 . S
H308 C324 0.939 . S
H309 C326 0.940 . S
C310 P296 1.812 . S
C310 C311 1.389 . S
C310 C315 1.391 . S
C311 H297 0.941 . S
C311 C310 1.389 . S
C311 C312 1.397 . S
C312 H298 0.939 . S
C312 C311 1.397 . S
C312 C313 1.378 . S
C313 C312 1.378 . S
C313 C314 1.378 . S
C314 H299 0.940 . S
C314 C313 1.378 . S
C314 C315 1.396 . S
C315 H300 0.940 . S
C315 C310 1.391 . S
C315 C314 1.396 . S
C316 P296 1.803 . S
C316 C317 1.378 . S
C316 C321 1.400 . S
C317 H301 0.939 . S
C317 C316 1.378 . S
C317 C318 1.361 . S
C318 H302 0.942 . S
C318 C317 1.361 . S
C318 C319 1.369 . S
C319 C318 1.369 . S
C319 C320 1.404 . S
C320 H303 0.940 . S
C320 C319 1.404 . S
C320 C321 1.389 . S
C321 H304 0.939 . S
C321 C316 1.400 . S
C321 C320 1.389 . S
C322 P296 1.819 . S
C322 C323 1.391 . S
C322 C327 1.391 . S
C323 H305 0.941 . S
C323 C322 1.391 . S
C323 C324 1.396 . S
C324 H308 0.939 . S
C324 C323 1.396 . S
C324 C325 1.397 . S
C325 C324 1.397 . S
C325 C326 1.385 . S
C326 H309 0.940 . S
C326 C325 1.385 . S
C326 C327 1.388 . S
C327 H306 0.939 . S
C327 C322 1.391 . S
C327 C326 1.388 . S
P328 O339 1.490 . S
P328 C342 1.812 1_545 S
P328 C348 1.803 . S
P328 C354 1.819 . S
H329 C343 0.941 . S
H330 C344 0.939 . S
H331 C346 0.940 . S
H332 C347 0.940 . S
H333 C349 0.939 . S
H334 C350 0.942 . S
H335 C352 0.940 . S
H336 C353 0.939 . S
H337 C355 0.941 . S
H338 C359 0.939 . S
O339 P328 1.490 . S
H340 C356 0.939 . S
H341 C358 0.940 . S
C342 P328 1.812 1_565 S
C342 C343 1.389 . S
C342 C347 1.391 . S
C343 H329 0.941 . S
C343 C342 1.389 . S
C343 C344 1.397 . S
C344 H330 0.939 . S
C344 C343 1.397 . S
C344 C345 1.378 . S
C345 C344 1.378 . S
C345 C346 1.378 . S
C346 H331 0.940 . S
C346 C345 1.378 . S
C346 C347 1.396 . S
C347 H332 0.940 . S
C347 C342 1.391 . S
C347 C346 1.396 . S
C348 P328 1.803 . S
C348 C349 1.378 . S
C348 C353 1.400 . S
C349 H333 0.939 . S
C349 C348 1.378 . S
C349 C350 1.361 . S
C350 H334 0.942 . S
C350 C349 1.361 . S
C350 C351 1.369 . S
C351 C350 1.369 . S
C351 C352 1.404 . S
C352 H335 0.940 . S
C352 C351 1.404 . S
C352 C353 1.389 . S
C353 H336 0.939 . S
C353 C348 1.400 . S
C353 C352 1.389 . S
C354 P328 1.819 . S
C354 C355 1.391 1_545 S
C354 C359 1.391 . S
C355 H337 0.941 . S
C355 C354 1.391 1_565 S
C355 C356 1.396 . S
C356 H340 0.939 . S
C356 C355 1.396 . S
C356 C357 1.397 1_565 S
C357 C356 1.397 1_545 S
C357 C358 1.385 . S
C358 H341 0.940 . S
C358 C357 1.385 . S
C358 C359 1.388 . S
C359 H338 0.939 . S
C359 C354 1.391 . S
C359 C358 1.388 . S
P360 O371 1.490 . S
P360 C374 1.812 1_565 S
P360 C380 1.803 . S
P360 C386 1.819 . S
H361 C375 0.941 . S
H362 C376 0.939 . S
H363 C378 0.940 . S
H364 C379 0.940 . S
H365 C381 0.939 . S
H366 C382 0.942 . S
H367 C384 0.940 . S
H368 C385 0.939 . S
H369 C387 0.941 . S
H370 C391 0.939 . S
O371 P360 1.490 . S
H372 C388 0.939 . S
H373 C390 0.940 . S
C374 P360 1.812 1_545 S
C374 C375 1.389 . S
C374 C379 1.391 . S
C375 H361 0.941 . S
C375 C374 1.389 . S
C375 C376 1.397 . S
C376 H362 0.939 . S
C376 C375 1.397 . S
C376 C377 1.378 . S
C377 C376 1.378 . S
C377 C378 1.378 . S
C378 H363 0.940 . S
C378 C377 1.378 . S
C378 C379 1.396 . S
C379 H364 0.940 . S
C379 C374 1.391 . S
C379 C378 1.396 . S
C380 P360 1.803 . S
C380 C381 1.378 . S
C380 C385 1.400 . S
C381 H365 0.939 . S
C381 C380 1.378 . S
C381 C382 1.361 . S
C382 H366 0.942 . S
C382 C381 1.361 . S
C382 C383 1.369 . S
C383 C382 1.369 . S
C383 C384 1.404 . S
C384 H367 0.940 . S
C384 C383 1.404 . S
C384 C385 1.389 . S
C385 H368 0.939 . S
C385 C380 1.400 . S
C385 C384 1.389 . S
C386 P360 1.819 . S
C386 C387 1.391 1_565 S
C386 C391 1.391 . S
C387 H369 0.941 . S
C387 C386 1.391 1_545 S
C387 C388 1.396 . S
C388 H372 0.939 . S
C388 C387 1.396 . S
C388 C389 1.397 . S
C389 C388 1.397 . S
C389 C390 1.385 1_545 S
C390 H373 0.940 . S
C390 C389 1.385 1_565 S
C390 C391 1.388 . S
C391 H370 0.939 . S
C391 C386 1.391 . S
C391 C390 1.388 . S
P392 O403 1.490 . S
P392 C406 1.812 . S
P392 C412 1.803 . S
P392 C418 1.819 . S
H393 C407 0.941 . S
H394 C408 0.939 . S
H395 C410 0.940 . S
H396 C411 0.940 . S
H397 C413 0.939 . S
H398 C414 0.942 . S
H399 C416 0.940 . S
H400 C417 0.939 . S
H401 C419 0.941 . S
H402 C423 0.939 . S
O403 P392 1.490 . S
H404 C420 0.939 . S
H405 C422 0.940 . S
C406 P392 1.812 . S
C406 C407 1.389 . S
C406 C411 1.391 . S
C407 H393 0.941 . S
C407 C406 1.389 . S
C407 C408 1.397 . S
C408 H394 0.939 . S
C408 C407 1.397 . S
C408 C409 1.378 . S
C409 C408 1.378 . S
C409 C410 1.378 . S
C410 H395 0.940 . S
C410 C409 1.378 . S
C410 C411 1.396 . S
C411 H396 0.940 . S
C411 C406 1.391 . S
C411 C410 1.396 . S
C412 P392 1.803 . S
C412 C413 1.378 . S
C412 C417 1.400 . S
C413 H397 0.939 . S
C413 C412 1.378 . S
C413 C414 1.361 . S
C414 H398 0.942 . S
C414 C413 1.361 . S
C414 C415 1.369 . S
C415 C414 1.369 . S
C415 C416 1.404 . S
C416 H399 0.940 . S
C416 C415 1.404 . S
C416 C417 1.389 . S
C417 H400 0.939 . S
C417 C412 1.400 . S
C417 C416 1.389 . S
C418 P392 1.819 . S
C418 C419 1.391 . S
C418 C423 1.391 . S
C419 H401 0.941 . S
C419 C418 1.391 . S
C419 C420 1.396 . S
C420 H404 0.939 . S
C420 C419 1.396 . S
C420 C421 1.397 . S
C421 C420 1.397 . S
C421 C422 1.385 . S
C422 H405 0.940 . S
C422 C421 1.385 . S
C422 C423 1.388 . S
C423 H402 0.939 . S
C423 C418 1.391 . S
C423 C422 1.388 . S
P424 O435 1.490 . S
P424 C438 1.812 1_556 S
P424 C444 1.803 . S
P424 C450 1.819 . S
H425 C439 0.941 . S
H426 C440 0.939 . S
H427 C442 0.940 . S
H428 C443 0.940 . S
H429 C445 0.939 . S
H430 C446 0.942 . S
H431 C448 0.940 . S
H432 C449 0.939 . S
H433 C451 0.941 . S
H434 C455 0.939 . S
O435 P424 1.490 . S
H436 C452 0.939 . S
H437 C454 0.940 . S
C438 P424 1.812 1_554 S
C438 C439 1.389 . S
C438 C443 1.391 . S
C439 H425 0.941 . S
C439 C438 1.389 . S
C439 C440 1.397 . S
C440 H426 0.939 . S
C440 C439 1.397 . S
C440 C441 1.378 . S
C441 C440 1.378 . S
C441 C442 1.378 . S
C442 H427 0.940 . S
C442 C441 1.378 . S
C442 C443 1.396 . S
C443 H428 0.940 . S
C443 C438 1.391 . S
C443 C442 1.396 . S
C444 P424 1.803 . S
C444 C445 1.378 . S
C444 C449 1.400 . S
C445 H429 0.939 . S
C445 C444 1.378 . S
C445 C446 1.361 . S
C446 H430 0.942 . S
C446 C445 1.361 . S
C446 C447 1.369 . S
C447 C446 1.369 . S
C447 C448 1.404 . S
C448 H431 0.940 . S
C448 C447 1.404 . S
C448 C449 1.389 . S
C449 H432 0.939 . S
C449 C444 1.400 . S
C449 C448 1.389 . S
C450 P424 1.819 . S
C450 C451 1.391 1_556 S
C450 C455 1.391 . S
C451 H433 0.941 . S
C451 C450 1.391 1_554 S
C451 C452 1.396 . S
C452 H436 0.939 . S
C452 C451 1.396 . S
C452 C453 1.397 . S
C453 C452 1.397 . S
C453 C454 1.385 1_554 S
C454 H437 0.940 . S
C454 C453 1.385 1_556 S
C454 C455 1.388 . S
C455 H434 0.939 . S
C455 C450 1.391 . S
C455 C454 1.388 . S
P456 O467 1.490 . S
P456 C470 1.812 . S
P456 C476 1.803 . S
P456 C482 1.819 . S
H457 C471 0.941 . S
H458 C472 0.939 . S
H459 C474 0.940 . S
H460 C475 0.940 . S
H461 C477 0.939 . S
H462 C478 0.942 . S
H463 C480 0.940 . S
H464 C481 0.939 . S
H465 C483 0.941 . S
H466 C487 0.939 . S
O467 P456 1.490 . S
H468 C484 0.939 . S
H469 C486 0.940 . S
C470 P456 1.812 . S
C470 C471 1.389 . S
C470 C475 1.391 . S
C471 H457 0.941 . S
C471 C470 1.389 . S
C471 C472 1.397 . S
C472 H458 0.939 . S
C472 C471 1.397 . S
C472 C473 1.378 . S
C473 C472 1.378 . S
C473 C474 1.378 . S
C474 H459 0.940 . S
C474 C473 1.378 . S
C474 C475 1.396 . S
C475 H460 0.940 . S
C475 C470 1.391 . S
C475 C474 1.396 . S
C476 P456 1.803 . S
C476 C477 1.378 . S
C476 C481 1.400 . S
C477 H461 0.939 . S
C477 C476 1.378 . S
C477 C478 1.361 . S
C478 H462 0.942 . S
C478 C477 1.361 . S
C478 C479 1.369 . S
C479 C478 1.369 . S
C479 C480 1.404 . S
C480 H463 0.940 . S
C480 C479 1.404 . S
C480 C481 1.389 . S
C481 H464 0.939 . S
C481 C476 1.400 . S
C481 C480 1.389 . S
C482 P456 1.819 . S
C482 C483 1.391 . S
C482 C487 1.391 . S
C483 H465 0.941 . S
C483 C482 1.391 . S
C483 C484 1.396 . S
C484 H468 0.939 . S
C484 C483 1.396 . S
C484 C485 1.397 . S
C485 C484 1.397 . S
C485 C486 1.385 . S
C486 H469 0.940 . S
C486 C485 1.385 . S
C486 C487 1.388 . S
C487 H466 0.939 . S
C487 C482 1.391 . S
C487 C486 1.388 . S
P488 O499 1.490 . S
P488 C502 1.812 1_554 S
P488 C508 1.803 . S
P488 C514 1.819 . S
H489 C503 0.941 . S
H490 C504 0.939 . S
H491 C506 0.940 . S
H492 C507 0.940 . S
H493 C509 0.939 . S
H494 C510 0.942 . S
H495 C512 0.940 . S
H496 C513 0.939 . S
H497 C515 0.941 . S
H498 C519 0.939 . S
O499 P488 1.490 . S
H500 C516 0.939 . S
H501 C518 0.940 . S
C502 P488 1.812 1_556 S
C502 C503 1.389 . S
C502 C507 1.391 . S
C503 H489 0.941 . S
C503 C502 1.389 . S
C503 C504 1.397 . S
C504 H490 0.939 . S
C504 C503 1.397 . S
C504 C505 1.378 . S
C505 C504 1.378 . S
C505 C506 1.378 . S
C506 H491 0.940 . S
C506 C505 1.378 . S
C506 C507 1.396 . S
C507 H492 0.940 . S
C507 C502 1.391 . S
C507 C506 1.396 . S
C508 P488 1.803 . S
C508 C509 1.378 . S
C508 C513 1.400 . S
C509 H493 0.939 . S
C509 C508 1.378 . S
C509 C510 1.361 . S
C510 H494 0.942 . S
C510 C509 1.361 . S
C510 C511 1.369 . S
C511 C510 1.369 . S
C511 C512 1.404 . S
C512 H495 0.940 . S
C512 C511 1.404 . S
C512 C513 1.389 . S
C513 H496 0.939 . S
C513 C508 1.400 . S
C513 C512 1.389 . S
C514 P488 1.819 . S
C514 C515 1.391 1_554 S
C514 C519 1.391 . S
C515 H497 0.941 . S
C515 C514 1.391 1_556 S
C515 C516 1.396 . S
C516 H500 0.939 . S
C516 C515 1.396 . S
C516 C517 1.397 1_556 S
C517 C516 1.397 1_554 S
C517 C518 1.385 . S
C518 H501 0.940 . S
C518 C517 1.385 . S
C518 C519 1.388 . S
C519 H498 0.939 . S
C519 C514 1.391 . S
C519 C518 1.388 . S
P520 O531 1.490 . S
P520 C534 1.812 . S
P520 C540 1.803 . S
P520 C546 1.819 . S
H521 C535 0.941 . S
H522 C536 0.939 . S
H523 C538 0.940 . S
H524 C539 0.940 . S
H525 C541 0.939 . S
H526 C542 0.942 . S
H527 C544 0.940 . S
H528 C545 0.939 . S
H529 C547 0.941 . S
H530 C551 0.939 . S
O531 P520 1.490 . S
H532 C548 0.939 . S
H533 C550 0.940 . S
C534 P520 1.812 . S
C534 C535 1.389 . S
C534 C539 1.391 . S
C535 H521 0.941 . S
C535 C534 1.389 . S
C535 C536 1.397 . S
C536 H522 0.939 . S
C536 C535 1.397 . S
C536 C537 1.378 . S
C537 C536 1.378 . S
C537 C538 1.378 . S
C538 H523 0.940 . S
C538 C537 1.378 . S
C538 C539 1.396 . S
C539 H524 0.940 . S
C539 C534 1.391 . S
C539 C538 1.396 . S
C540 P520 1.803 . S
C540 C541 1.378 . S
C540 C545 1.400 . S
C541 H525 0.939 . S
C541 C540 1.378 . S
C541 C542 1.361 . S
C542 H526 0.942 . S
C542 C541 1.361 . S
C542 C543 1.369 . S
C543 C542 1.369 . S
C543 C544 1.404 . S
C544 H527 0.940 . S
C544 C543 1.404 . S
C544 C545 1.389 . S
C545 H528 0.939 . S
C545 C540 1.400 . S
C545 C544 1.389 . S
C546 P520 1.819 . S
C546 C547 1.391 . S
C546 C551 1.391 . S
C547 H529 0.941 . S
C547 C546 1.391 . S
C547 C548 1.396 . S
C548 H532 0.939 . S
C548 C547 1.396 . S
C548 C549 1.397 . S
C549 C548 1.397 . S
C549 C550 1.385 . S
C550 H533 0.940 . S
C550 C549 1.385 . S
C550 C551 1.388 . S
C551 H530 0.939 . S
C551 C546 1.391 . S
C551 C550 1.388 . S
P552 O563 1.490 . S
P552 C566 1.812 1_655 S
P552 C572 1.803 . S
P552 C578 1.819 . S
H553 C567 0.941 . S
H554 C568 0.939 . S
H555 C570 0.940 . S
H556 C571 0.940 . S
H557 C573 0.939 . S
H558 C574 0.942 . S
H559 C576 0.940 . S
H560 C577 0.939 . S
H561 C579 0.941 . S
H562 C583 0.939 . S
O563 P552 1.490 . S
H564 C580 0.939 . S
H565 C582 0.940 . S
C566 P552 1.812 1_455 S
C566 C567 1.389 . S
C566 C571 1.391 . S
C567 H553 0.941 . S
C567 C566 1.389 . S
C567 C568 1.397 . S
C568 H554 0.939 . S
C568 C567 1.397 . S
C568 C569 1.378 . S
C569 C568 1.378 . S
C569 C570 1.378 . S
C570 H555 0.940 . S
C570 C569 1.378 . S
C570 C571 1.396 . S
C571 H556 0.940 . S
C571 C566 1.391 . S
C571 C570 1.396 . S
C572 P552 1.803 . S
C572 C573 1.378 . S
C572 C577 1.400 . S
C573 H557 0.939 . S
C573 C572 1.378 . S
C573 C574 1.361 . S
C574 H558 0.942 . S
C574 C573 1.361 . S
C574 C575 1.369 . S
C575 C574 1.369 . S
C575 C576 1.404 . S
C576 H559 0.940 . S
C576 C575 1.404 . S
C576 C577 1.389 . S
C577 H560 0.939 . S
C577 C572 1.400 . S
C577 C576 1.389 . S
C578 P552 1.819 . S
C578 C579 1.391 1_655 S
C578 C583 1.391 . S
C579 H561 0.941 . S
C579 C578 1.391 1_455 S
C579 C580 1.396 . S
C580 H564 0.939 . S
C580 C579 1.396 . S
C580 C581 1.397 . S
C581 C580 1.397 . S
C581 C582 1.385 1_455 S
C582 H565 0.940 . S
C582 C581 1.385 1_655 S
C582 C583 1.388 . S
C583 H562 0.939 . S
C583 C578 1.391 . S
C583 C582 1.388 . S
P584 O595 1.490 . S
P584 C598 1.812 . S
P584 C604 1.803 . S
P584 C610 1.819 . S
H585 C599 0.941 . S
H586 C600 0.939 . S
H587 C602 0.940 . S
H588 C603 0.940 . S
H589 C605 0.939 . S
H590 C606 0.942 . S
H591 C608 0.940 . S
H592 C609 0.939 . S
H593 C611 0.941 . S
H594 C615 0.939 . S
O595 P584 1.490 . S
H596 C612 0.939 . S
H597 C614 0.940 . S
C598 P584 1.812 . S
C598 C599 1.389 . S
C598 C603 1.391 . S
C599 H585 0.941 . S
C599 C598 1.389 . S
C599 C600 1.397 . S
C600 H586 0.939 . S
C600 C599 1.397 . S
C600 C601 1.378 . S
C601 C600 1.378 . S
C601 C602 1.378 . S
C602 H587 0.940 . S
C602 C601 1.378 . S
C602 C603 1.396 . S
C603 H588 0.940 . S
C603 C598 1.391 . S
C603 C602 1.396 . S
C604 P584 1.803 . S
C604 C605 1.378 . S
C604 C609 1.400 . S
C605 H589 0.939 . S
C605 C604 1.378 . S
C605 C606 1.361 . S
C606 H590 0.942 . S
C606 C605 1.361 . S
C606 C607 1.369 . S
C607 C606 1.369 . S
C607 C608 1.404 . S
C608 H591 0.940 . S
C608 C607 1.404 . S
C608 C609 1.389 . S
C609 H592 0.939 . S
C609 C604 1.400 . S
C609 C608 1.389 . S
C610 P584 1.819 . S
C610 C611 1.391 . S
C610 C615 1.391 . S
C611 H593 0.941 . S
C611 C610 1.391 . S
C611 C612 1.396 . S
C612 H596 0.939 . S
C612 C611 1.396 . S
C612 C613 1.397 . S
C613 C612 1.397 . S
C613 C614 1.385 . S
C614 H597 0.940 . S
C614 C613 1.385 . S
C614 C615 1.388 . S
C615 H594 0.939 . S
C615 C610 1.391 . S
C615 C614 1.388 . S
P616 O627 1.490 . S
P616 C630 1.812 1_455 S
P616 C636 1.803 . S
P616 C642 1.819 . S
H617 C631 0.941 . S
H618 C632 0.939 . S
H619 C634 0.940 . S
H620 C635 0.940 . S
H621 C637 0.939 . S
H622 C638 0.942 . S
H623 C640 0.940 . S
H624 C641 0.939 . S
H625 C643 0.941 . S
H626 C647 0.939 . S
O627 P616 1.490 . S
H628 C644 0.939 . S
H629 C646 0.940 . S
C630 P616 1.812 1_655 S
C630 C631 1.389 . S
C630 C635 1.391 . S
C631 H617 0.941 . S
C631 C630 1.389 . S
C631 C632 1.397 . S
C632 H618 0.939 . S
C632 C631 1.397 . S
C632 C633 1.378 . S
C633 C632 1.378 . S
C633 C634 1.378 . S
C634 H619 0.940 . S
C634 C633 1.378 . S
C634 C635 1.396 . S
C635 H620 0.940 . S
C635 C630 1.391 . S
C635 C634 1.396 . S
C636 P616 1.803 . S
C636 C637 1.378 . S
C636 C641 1.400 . S
C637 H621 0.939 . S
C637 C636 1.378 . S
C637 C638 1.361 . S
C638 H622 0.942 . S
C638 C637 1.361 . S
C638 C639 1.369 . S
C639 C638 1.369 . S
C639 C640 1.404 . S
C640 H623 0.940 . S
C640 C639 1.404 . S
C640 C641 1.389 . S
C641 H624 0.939 . S
C641 C636 1.400 . S
C641 C640 1.389 . S
C642 P616 1.819 . S
C642 C643 1.391 1_455 S
C642 C647 1.391 . S
C643 H625 0.941 . S
C643 C642 1.391 1_655 S
C643 C644 1.396 . S
C644 H628 0.939 . S
C644 C643 1.396 . S
C644 C645 1.397 1_655 S
C645 C644 1.397 1_455 S
C645 C646 1.385 . S
C646 H629 0.940 . S
C646 C645 1.385 . S
C646 C647 1.388 . S
C647 H626 0.939 . S
C647 C642 1.391 . S
C647 C646 1.388 . S
P648 O659 1.490 . S
P648 C662 1.812 . S
P648 C668 1.803 . S
P648 C674 1.819 . S
H649 C663 0.941 . S
H650 C664 0.939 . S
H651 C666 0.940 . S
H652 C667 0.940 . S
H653 C669 0.939 . S
H654 C670 0.942 . S
H655 C672 0.940 . S
H656 C673 0.939 . S
H657 C675 0.941 . S
H658 C679 0.939 . S
O659 P648 1.490 . S
H660 C676 0.939 . S
H661 C678 0.940 . S
C662 P648 1.812 . S
C662 C663 1.389 . S
C662 C667 1.391 . S
C663 H649 0.941 . S
C663 C662 1.389 . S
C663 C664 1.397 . S
C664 H650 0.939 . S
C664 C663 1.397 . S
C664 C665 1.378 . S
C665 C664 1.378 . S
C665 C666 1.378 . S
C666 H651 0.940 . S
C666 C665 1.378 . S
C666 C667 1.396 . S
C667 H652 0.940 . S
C667 C662 1.391 . S
C667 C666 1.396 . S
C668 P648 1.803 . S
C668 C669 1.378 . S
C668 C673 1.400 . S
C669 H653 0.939 . S
C669 C668 1.378 . S
C669 C670 1.361 . S
C670 H654 0.942 . S
C670 C669 1.361 . S
C670 C671 1.369 . S
C671 C670 1.369 . S
C671 C672 1.404 . S
C672 H655 0.940 . S
C672 C671 1.404 . S
C672 C673 1.389 . S
C673 H656 0.939 . S
C673 C668 1.400 . S
C673 C672 1.389 . S
C674 P648 1.819 . S
C674 C675 1.391 . S
C674 C679 1.391 . S
C675 H657 0.941 . S
C675 C674 1.391 . S
C675 C676 1.396 . S
C676 H660 0.939 . S
C676 C675 1.396 . S
C676 C677 1.397 . S
C677 C676 1.397 . S
C677 C678 1.385 . S
C678 H661 0.940 . S
C678 C677 1.385 . S
C678 C679 1.388 . S
C679 H658 0.939 . S
C679 C674 1.391 . S
C679 C678 1.388 . S
P680 O691 1.490 . S
P680 C694 1.812 . S
P680 C700 1.803 . S
P680 C706 1.819 . S
H681 C695 0.941 . S
H682 C696 0.939 . S
H683 C698 0.940 . S
H684 C699 0.940 . S
H685 C701 0.939 . S
H686 C702 0.942 . S
H687 C704 0.940 . S
H688 C705 0.939 . S
H689 C707 0.941 . S
H690 C711 0.939 . S
O691 P680 1.490 . S
H692 C708 0.939 . S
H693 C710 0.940 . S
C694 P680 1.812 . S
C694 C695 1.389 . S
C694 C699 1.391 . S
C695 H681 0.941 . S
C695 C694 1.389 . S
C695 C696 1.397 . S
C696 H682 0.939 . S
C696 C695 1.397 . S
C696 C697 1.378 . S
C697 C696 1.378 . S
C697 C698 1.378 . S
C698 H683 0.940 . S
C698 C697 1.378 . S
C698 C699 1.396 . S
C699 H684 0.940 . S
C699 C694 1.391 . S
C699 C698 1.396 . S
C700 P680 1.803 . S
C700 C701 1.378 . S
C700 C705 1.400 . S
C701 H685 0.939 . S
C701 C700 1.378 . S
C701 C702 1.361 . S
C702 H686 0.942 . S
C702 C701 1.361 . S
C702 C703 1.369 . S
C703 C702 1.369 . S
C703 C704 1.404 . S
C704 H687 0.940 . S
C704 C703 1.404 . S
C704 C705 1.389 . S
C705 H688 0.939 . S
C705 C700 1.400 . S
C705 C704 1.389 . S
C706 P680 1.819 . S
C706 C707 1.391 . S
C706 C711 1.391 . S
C707 H689 0.941 . S
C707 C706 1.391 . S
C707 C708 1.396 . S
C708 H692 0.939 . S
C708 C707 1.396 . S
C708 C709 1.397 . S
C709 C708 1.397 . S
C709 C710 1.385 . S
C710 H693 0.940 . S
C710 C709 1.385 . S
C710 C711 1.388 . S
C711 H690 0.939 . S
C711 C706 1.391 . S
C711 C710 1.388 . S
P712 O723 1.491 . S
P712 C726 1.775 1_565 S
P712 C732 1.837 . S
P712 C738 1.820 . S
H713 C727 0.941 . S
H714 C728 0.939 . S
H715 C730 0.940 . S
H716 C731 0.940 . S
H717 C733 0.939 . S
H718 C734 0.942 . S
H719 C736 0.940 . S
H720 C737 0.939 . S
H721 C739 0.941 . S
H722 C743 0.939 . S
O723 P712 1.491 . S
H724 C740 0.939 . S
H725 C742 0.940 . S
C726 P712 1.775 1_545 S
C726 C727 1.389 . S
C726 C731 1.391 . S
C727 H713 0.941 . S
C727 C726 1.389 . S
C727 C728 1.397 . S
C728 H714 0.939 . S
C728 C727 1.397 . S
C728 C729 1.378 . S
C729 C728 1.378 . S
C729 C730 1.378 . S
C730 H715 0.940 . S
C730 C729 1.378 . S
C730 C731 1.396 . S
C731 H716 0.940 . S
C731 C726 1.391 . S
C731 C730 1.396 . S
C732 P712 1.837 . S
C732 C733 1.378 . S
C732 C737 1.400 . S
C733 H717 0.939 . S
C733 C732 1.378 . S
C733 C734 1.361 . S
C734 H718 0.942 . S
C734 C733 1.361 . S
C734 C735 1.369 . S
C735 C734 1.369 . S
C735 C736 1.404 . S
C736 H719 0.940 . S
C736 C735 1.404 . S
C736 C737 1.389 . S
C737 H720 0.939 . S
C737 C732 1.400 . S
C737 C736 1.389 . S
C738 P712 1.820 . S
C738 C739 1.391 1_565 S
C738 C743 1.391 . S
C739 H721 0.941 . S
C739 C738 1.391 1_545 S
C739 C740 1.396 . S
C740 H724 0.939 . S
C740 C739 1.396 . S
C740 C741 1.397 1_545 S
C741 C740 1.397 1_565 S
C741 C742 1.385 . S
C742 H725 0.940 . S
C742 C741 1.385 . S
C742 C743 1.388 . S
C743 H722 0.939 . S
C743 C738 1.391 . S
C743 C742 1.388 . S
P744 O755 1.490 . S
P744 C758 1.814 . S
P744 C764 1.801 1_565 S
P744 C770 1.818 1_565 S
H745 C759 0.941 . S
H746 C760 0.939 . S
H747 C762 0.940 . S
H748 C763 0.940 . S
H749 C765 0.939 . S
H750 C766 0.942 . S
H751 C768 0.940 . S
H752 C769 0.939 . S
H753 C771 0.941 . S
H754 C775 0.939 . S
O755 P744 1.490 . S
H756 C772 0.939 . S
H757 C774 0.940 . S
C758 P744 1.814 . S
C758 C759 1.389 . S
C758 C763 1.391 . S
C759 H745 0.941 . S
C759 C758 1.389 . S
C759 C760 1.397 . S
C760 H746 0.939 . S
C760 C759 1.397 . S
C760 C761 1.378 . S
C761 C760 1.378 . S
C761 C762 1.378 . S
C762 H747 0.940 . S
C762 C761 1.378 . S
C762 C763 1.396 . S
C763 H748 0.940 . S
C763 C758 1.391 . S
C763 C762 1.396 . S
C764 P744 1.801 1_545 S
C764 C765 1.378 . S
C764 C769 1.400 . S
C765 H749 0.939 . S
C765 C764 1.378 . S
C765 C766 1.361 . S
C766 H750 0.942 . S
C766 C765 1.361 . S
C766 C767 1.369 . S
C767 C766 1.369 . S
C767 C768 1.404 . S
C768 H751 0.940 . S
C768 C767 1.404 . S
C768 C769 1.389 . S
C769 H752 0.939 . S
C769 C764 1.400 . S
C769 C768 1.389 . S
C770 P744 1.818 1_545 S
C770 C771 1.387 1_545 S
C770 C775 1.396 . S
C771 H753 0.941 . S
C771 C770 1.387 1_565 S
C771 C772 1.396 . S
C772 H756 0.939 . S
C772 C771 1.396 . S
C772 C773 1.397 . S
C773 C772 1.397 . S
C773 C774 1.385 1_565 S
C774 H757 0.940 . S
C774 C773 1.385 1_545 S
C774 C775 1.388 . S
C775 H754 0.939 . S
C775 C770 1.396 . S
C775 C774 1.388 . S
P776 O787 1.490 . S
P776 C790 1.812 . S
P776 C796 1.803 . S
P776 C802 1.819 . S
H777 C791 0.941 . S
H778 C792 0.939 . S
H779 C794 0.940 . S
H780 C795 0.940 . S
H781 C797 0.939 . S
H782 C798 0.942 . S
H783 C800 0.940 . S
H784 C801 0.939 . S
H785 C803 0.941 . S
H786 C807 0.939 . S
O787 P776 1.490 . S
H788 C804 0.939 . S
H789 C806 0.940 . S
C790 P776 1.812 . S
C790 C791 1.389 . S
C790 C795 1.391 . S
C791 H777 0.941 . S
C791 C790 1.389 . S
C791 C792 1.397 . S
C792 H778 0.939 . S
C792 C791 1.397 . S
C792 C793 1.378 . S
C793 C792 1.378 . S
C793 C794 1.378 . S
C794 H779 0.940 . S
C794 C793 1.378 . S
C794 C795 1.396 . S
C795 H780 0.940 . S
C795 C790 1.391 . S
C795 C794 1.396 . S
C796 P776 1.803 . S
C796 C797 1.378 . S
C796 C801 1.400 . S
C797 H781 0.939 . S
C797 C796 1.378 . S
C797 C798 1.361 . S
C798 H782 0.942 . S
C798 C797 1.361 . S
C798 C799 1.369 . S
C799 C798 1.369 . S
C799 C800 1.404 . S
C800 H783 0.940 . S
C800 C799 1.404 . S
C800 C801 1.389 . S
C801 H784 0.939 . S
C801 C796 1.400 . S
C801 C800 1.389 . S
C802 P776 1.819 . S
C802 C803 1.391 . S
C802 C807 1.391 . S
C803 H785 0.941 . S
C803 C802 1.391 . S
C803 C804 1.396 . S
C804 H788 0.939 . S
C804 C803 1.396 . S
C804 C805 1.397 . S
C805 C804 1.397 . S
C805 C806 1.385 . S
C806 H789 0.940 . S
C806 C805 1.385 . S
C806 C807 1.388 . S
C807 H786 0.939 . S
C807 C802 1.391 . S
C807 C806 1.388 . S
P808 O819 1.490 . S
P808 C822 1.814 . S
P808 C828 1.801 1_556 S
P808 C834 1.818 1_556 S
H809 C823 0.941 . S
H810 C824 0.939 . S
H811 C826 0.940 . S
H812 C827 0.940 . S
H813 C829 0.939 . S
H814 C830 0.942 . S
H815 C832 0.940 . S
H816 C833 0.939 . S
H817 C835 0.941 . S
H818 C839 0.939 . S
O819 P808 1.490 . S
H820 C836 0.939 . S
H821 C838 0.940 . S
C822 P808 1.814 . S
C822 C823 1.389 . S
C822 C827 1.391 . S
C823 H809 0.941 . S
C823 C822 1.389 . S
C823 C824 1.397 . S
C824 H810 0.939 . S
C824 C823 1.397 . S
C824 C825 1.378 . S
C825 C824 1.378 . S
C825 C826 1.378 . S
C826 H811 0.940 . S
C826 C825 1.378 . S
C826 C827 1.396 . S
C827 H812 0.940 . S
C827 C822 1.391 . S
C827 C826 1.396 . S
C828 P808 1.801 1_554 S
C828 C829 1.378 . S
C828 C833 1.400 . S
C829 H813 0.939 . S
C829 C828 1.378 . S
C829 C830 1.361 . S
C830 H814 0.942 . S
C830 C829 1.361 . S
C830 C831 1.369 . S
C831 C830 1.369 . S
C831 C832 1.404 . S
C832 H815 0.940 . S
C832 C831 1.404 . S
C832 C833 1.389 . S
C833 H816 0.939 . S
C833 C828 1.400 . S
C833 C832 1.389 . S
C834 P808 1.818 1_554 S
C834 C835 1.387 1_554 S
C834 C839 1.396 . S
C835 H817 0.941 . S
C835 C834 1.387 1_556 S
C835 C836 1.396 . S
C836 H820 0.939 . S
C836 C835 1.396 . S
C836 C837 1.397 . S
C837 C836 1.397 . S
C837 C838 1.385 1_556 S
C838 H821 0.940 . S
C838 C837 1.385 1_554 S
C838 C839 1.388 . S
C839 H818 0.939 . S
C839 C834 1.396 . S
C839 C838 1.388 . S
P840 O851 1.490 . S
P840 C854 1.812 . S
P840 C860 1.803 . S
P840 C866 1.819 . S
H841 C855 0.941 . S
H842 C856 0.939 . S
H843 C858 0.940 . S
H844 C859 0.940 . S
H845 C861 0.939 . S
H846 C862 0.942 . S
H847 C864 0.940 . S
H848 C865 0.939 . S
H849 C867 0.941 . S
H850 C871 0.939 . S
O851 P840 1.490 . S
H852 C868 0.939 . S
H853 C870 0.940 . S
C854 P840 1.812 . S
C854 C855 1.389 . S
C854 C859 1.391 . S
C855 H841 0.941 . S
C855 C854 1.389 . S
C855 C856 1.397 . S
C856 H842 0.939 . S
C856 C855 1.397 . S
C856 C857 1.378 . S
C857 C856 1.378 . S
C857 C858 1.378 . S
C858 H843 0.940 . S
C858 C857 1.378 . S
C858 C859 1.396 . S
C859 H844 0.940 . S
C859 C854 1.391 . S
C859 C858 1.396 . S
C860 P840 1.803 . S
C860 C861 1.378 . S
C860 C865 1.400 . S
C861 H845 0.939 . S
C861 C860 1.378 . S
C861 C862 1.361 . S
C862 H846 0.942 . S
C862 C861 1.361 . S
C862 C863 1.369 . S
C863 C862 1.369 . S
C863 C864 1.404 . S
C864 H847 0.940 . S
C864 C863 1.404 . S
C864 C865 1.389 . S
C865 H848 0.939 . S
C865 C860 1.400 . S
C865 C864 1.389 . S
C866 P840 1.819 . S
C866 C867 1.391 . S
C866 C871 1.391 . S
C867 H849 0.941 . S
C867 C866 1.391 . S
C867 C868 1.396 . S
C868 H852 0.939 . S
C868 C867 1.396 . S
C868 C869 1.397 . S
C869 C868 1.397 . S
C869 C870 1.385 . S
C870 H853 0.940 . S
C870 C869 1.385 . S
C870 C871 1.388 . S
C871 H850 0.939 . S
C871 C866 1.391 . S
C871 C870 1.388 . S
P872 O883 1.491 . S
P872 C886 1.775 1_556 S
P872 C892 1.837 . S
P872 C898 1.820 . S
H873 C887 0.941 . S
H874 C888 0.939 . S
H875 C890 0.940 . S
H876 C891 0.940 . S
H877 C893 0.939 . S
H878 C894 0.942 . S
H879 C896 0.940 . S
H880 C897 0.939 . S
H881 C899 0.941 . S
H882 C903 0.939 . S
O883 P872 1.491 . S
H884 C900 0.939 . S
H885 C902 0.940 . S
C886 P872 1.775 1_554 S
C886 C887 1.389 . S
C886 C891 1.391 . S
C887 H873 0.941 . S
C887 C886 1.389 . S
C887 C888 1.397 . S
C888 H874 0.939 . S
C888 C887 1.397 . S
C888 C889 1.378 . S
C889 C888 1.378 . S
C889 C890 1.378 . S
C890 H875 0.940 . S
C890 C889 1.378 . S
C890 C891 1.396 . S
C891 H876 0.940 . S
C891 C886 1.391 . S
C891 C890 1.396 . S
C892 P872 1.837 . S
C892 C893 1.378 . S
C892 C897 1.400 . S
C893 H877 0.939 . S
C893 C892 1.378 . S
C893 C894 1.361 . S
C894 H878 0.942 . S
C894 C893 1.361 . S
C894 C895 1.369 . S
C895 C894 1.369 . S
C895 C896 1.404 . S
C896 H879 0.940 . S
C896 C895 1.404 . S
C896 C897 1.389 . S
C897 H880 0.939 . S
C897 C892 1.400 . S
C897 C896 1.389 . S
C898 P872 1.820 . S
C898 C899 1.391 1_556 S
C898 C903 1.391 . S
C899 H881 0.941 . S
C899 C898 1.391 1_554 S
C899 C900 1.396 . S
C900 H884 0.939 . S
C900 C899 1.396 . S
C900 C901 1.397 1_554 S
C901 C900 1.397 1_556 S
C901 C902 1.385 . S
C902 H885 0.940 . S
C902 C901 1.385 . S
C902 C903 1.388 . S
C903 H882 0.939 . S
C903 C898 1.391 . S
C903 C902 1.388 . S
P904 O915 1.490 . S
P904 C918 1.812 . S
P904 C924 1.803 . S
P904 C930 1.819 . S
H905 C919 0.941 . S
H906 C920 0.939 . S
H907 C922 0.940 . S
H908 C923 0.940 . S
H909 C925 0.939 . S
H910 C926 0.942 . S
H911 C928 0.940 . S
H912 C929 0.939 . S
H913 C931 0.941 . S
H914 C935 0.939 . S
O915 P904 1.490 . S
H916 C932 0.939 . S
H917 C934 0.940 . S
C918 P904 1.812 . S
C918 C919 1.389 . S
C918 C923 1.391 . S
C919 H905 0.941 . S
C919 C918 1.389 . S
C919 C920 1.397 . S
C920 H906 0.939 . S
C920 C919 1.397 . S
C920 C921 1.378 . S
C921 C920 1.378 . S
C921 C922 1.378 . S
C922 H907 0.940 . S
C922 C921 1.378 . S
C922 C923 1.396 . S
C923 H908 0.940 . S
C923 C918 1.391 . S
C923 C922 1.396 . S
C924 P904 1.803 . S
C924 C925 1.378 . S
C924 C929 1.400 . S
C925 H909 0.939 . S
C925 C924 1.378 . S
C925 C926 1.361 . S
C926 H910 0.942 . S
C926 C925 1.361 . S
C926 C927 1.369 . S
C927 C926 1.369 . S
C927 C928 1.404 . S
C928 H911 0.940 . S
C928 C927 1.404 . S
C928 C929 1.389 . S
C929 H912 0.939 . S
C929 C924 1.400 . S
C929 C928 1.389 . S
C930 P904 1.819 . S
C930 C931 1.391 . S
C930 C935 1.391 . S
C931 H913 0.941 . S
C931 C930 1.391 . S
C931 C932 1.396 . S
C932 H916 0.939 . S
C932 C931 1.396 . S
C932 C933 1.397 . S
C933 C932 1.397 . S
C933 C934 1.385 . S
C934 H917 0.940 . S
C934 C933 1.385 . S
C934 C935 1.388 . S
C935 H914 0.939 . S
C935 C930 1.391 . S
C935 C934 1.388 . S
P936 O947 1.490 . S
P936 C950 1.814 . S
P936 C956 1.801 1_655 S
P936 C962 1.818 1_655 S
H937 C951 0.941 . S
H938 C952 0.939 . S
H939 C954 0.940 . S
H940 C955 0.940 . S
H941 C957 0.939 . S
H942 C958 0.942 . S
H943 C960 0.940 . S
H944 C961 0.939 . S
H945 C963 0.941 . S
H946 C967 0.939 . S
O947 P936 1.490 . S
H948 C964 0.939 . S
H949 C966 0.940 . S
C950 P936 1.814 . S
C950 C951 1.389 . S
C950 C955 1.391 . S
C951 H937 0.941 . S
C951 C950 1.389 . S
C951 C952 1.397 . S
C952 H938 0.939 . S
C952 C951 1.397 . S
C952 C953 1.378 . S
C953 C952 1.378 . S
C953 C954 1.378 . S
C954 H939 0.940 . S
C954 C953 1.378 . S
C954 C955 1.396 . S
C955 H940 0.940 . S
C955 C950 1.391 . S
C955 C954 1.396 . S
C956 P936 1.801 1_455 S
C956 C957 1.378 . S
C956 C961 1.400 . S
C957 H941 0.939 . S
C957 C956 1.378 . S
C957 C958 1.361 . S
C958 H942 0.942 . S
C958 C957 1.361 . S
C958 C959 1.369 . S
C959 C958 1.369 . S
C959 C960 1.404 . S
C960 H943 0.940 . S
C960 C959 1.404 . S
C960 C961 1.389 . S
C961 H944 0.939 . S
C961 C956 1.400 . S
C961 C960 1.389 . S
C962 P936 1.818 1_455 S
C962 C963 1.387 1_455 S
C962 C967 1.396 . S
C963 H945 0.941 . S
C963 C962 1.387 1_655 S
C963 C964 1.396 . S
C964 H948 0.939 . S
C964 C963 1.396 . S
C964 C965 1.397 . S
C965 C964 1.397 . S
C965 C966 1.385 1_655 S
C966 H949 0.940 . S
C966 C965 1.385 1_455 S
C966 C967 1.388 . S
C967 H946 0.939 . S
C967 C962 1.396 . S
C967 C966 1.388 . S
P968 O979 1.490 . S
P968 C982 1.812 . S
P968 C988 1.803 . S
P968 C994 1.819 . S
H969 C983 0.941 . S
H970 C984 0.939 . S
H971 C986 0.940 . S
H972 C987 0.940 . S
H973 C989 0.939 . S
H974 C990 0.942 . S
H975 C992 0.940 . S
H976 C993 0.939 . S
H977 C995 0.941 . S
H978 C999 0.939 . S
O979 P968 1.490 . S
H980 C996 0.939 . S
H981 C998 0.940 . S
C982 P968 1.812 . S
C982 C983 1.389 . S
C982 C987 1.391 . S
C983 H969 0.941 . S
C983 C982 1.389 . S
C983 C984 1.397 . S
C984 H970 0.939 . S
C984 C983 1.397 . S
C984 C985 1.378 . S
C985 C984 1.378 . S
C985 C986 1.378 . S
C986 H971 0.940 . S
C986 C985 1.378 . S
C986 C987 1.396 . S
C987 H972 0.940 . S
C987 C982 1.391 . S
C987 C986 1.396 . S
C988 P968 1.803 . S
C988 C989 1.378 . S
C988 C993 1.400 . S
C989 H973 0.939 . S
C989 C988 1.378 . S
C989 C990 1.361 . S
C990 H974 0.942 . S
C990 C989 1.361 . S
C990 C991 1.369 . S
C991 C990 1.369 . S
C991 C992 1.404 . S
C992 H975 0.940 . S
C992 C991 1.404 . S
C992 C993 1.389 . S
C993 H976 0.939 . S
C993 C988 1.400 . S
C993 C992 1.389 . S
C994 P968 1.819 . S
C994 C995 1.391 . S
C994 C999 1.391 . S
C995 H977 0.941 . S
C995 C994 1.391 . S
C995 C996 1.396 . S
C996 H980 0.939 . S
C996 C995 1.396 . S
C996 C997 1.397 . S
C997 C996 1.397 . S
C997 C998 1.385 . S
C998 H981 0.940 . S
C998 C997 1.385 . S
C998 C999 1.388 . S
C999 H978 0.939 . S
C999 C994 1.391 . S
C999 C998 1.388 . S
P1000 O1011 1.491 . S
P1000 C1014 1.775 1_655 S
P1000 C1020 1.837 . S
P1000 C1026 1.820 . S
H1001 C1015 0.941 . S
H1002 C1016 0.939 . S
H1003 C1018 0.940 . S
H1004 C1019 0.940 . S
H1005 C1021 0.939 . S
H1006 C1022 0.942 . S
H1007 C1024 0.940 . S
H1008 C1025 0.939 . S
H1009 C1027 0.941 . S
H1010 C1031 0.939 . S
O1011 P1000 1.491 . S
H1012 C1028 0.939 . S
H1013 C1030 0.940 . S
C1014 P1000 1.775 1_455 S
C1014 C1015 1.389 . S
C1014 C1019 1.391 . S
C1015 H1001 0.941 . S
C1015 C1014 1.389 . S
C1015 C1016 1.397 . S
C1016 H1002 0.939 . S
C1016 C1015 1.397 . S
C1016 C1017 1.378 . S
C1017 C1016 1.378 . S
C1017 C1018 1.378 . S
C1018 H1003 0.940 . S
C1018 C1017 1.378 . S
C1018 C1019 1.396 . S
C1019 H1004 0.940 . S
C1019 C1014 1.391 . S
C1019 C1018 1.396 . S
C1020 P1000 1.837 . S
C1020 C1021 1.378 . S
C1020 C1025 1.400 . S
C1021 H1005 0.939 . S
C1021 C1020 1.378 . S
C1021 C1022 1.361 . S
C1022 H1006 0.942 . S
C1022 C1021 1.361 . S
C1022 C1023 1.369 . S
C1023 C1022 1.369 . S
C1023 C1024 1.404 . S
C1024 H1007 0.940 . S
C1024 C1023 1.404 . S
C1024 C1025 1.389 . S
C1025 H1008 0.939 . S
C1025 C1020 1.400 . S
C1025 C1024 1.389 . S
C1026 P1000 1.820 . S
C1026 C1027 1.391 1_655 S
C1026 C1031 1.391 . S
C1027 H1009 0.941 . S
C1027 C1026 1.391 1_455 S
C1027 C1028 1.396 . S
C1028 H1012 0.939 . S
C1028 C1027 1.396 . S
C1028 C1029 1.397 1_455 S
C1029 C1028 1.397 1_655 S
C1029 C1030 1.385 . S
C1030 H1013 0.940 . S
C1030 C1029 1.385 . S
C1030 C1031 1.388 . S
C1031 H1010 0.939 . S
C1031 C1026 1.391 . S
C1031 C1030 1.388 . S
C1032 C1033 1.363 . S
C1032 C1038 1.379 . S
C1032 N1040 1.356 . S
C1033 C1032 1.363 . S
C1033 C1039 1.363 . S
C1034 C1035 1.363 . S
C1034 C1039 1.379 . S
C1034 N1041 1.356 . S
C1035 C1034 1.363 . S
C1035 C1038 1.363 . S
N1036 C1038 1.356 . S
N1036 H1048 0.984 . S
N1036 H1049 0.985 . S
N1037 C1039 1.356 . S
N1037 H1042 0.984 . S
N1037 H1043 0.985 . S
C1038 C1032 1.379 . S
C1038 C1035 1.363 . S
C1038 N1036 1.356 . S
C1039 C1033 1.363 . S
C1039 C1034 1.379 . S
C1039 N1037 1.356 . S
N1040 C1032 1.356 . S
N1040 H1046 0.984 . S
N1040 H1047 0.984 . S
N1041 C1034 1.356 . S
N1041 H1044 0.984 . S
N1041 H1045 0.985 . S
H1042 N1037 0.984 . S
H1043 N1037 0.985 . S
H1044 N1041 0.984 . S
H1045 N1041 0.985 . S
H1046 N1040 0.984 . S
H1047 N1040 0.984 . S
H1048 N1036 0.984 . S
H1049 N1036 0.985 . S
C1050 C1051 1.363 . S
C1050 C1056 1.379 . S
C1050 N1058 1.356 . S
C1051 C1050 1.363 . S
C1051 C1057 1.363 . S
C1052 C1053 1.363 . S
C1052 C1057 1.379 . S
C1052 N1059 1.356 . S
C1053 C1052 1.363 . S
C1053 C1056 1.363 . S
N1054 C1056 1.356 . S
N1054 H1066 0.984 . S
N1054 H1067 0.985 . S
N1055 C1057 1.356 . S
N1055 H1060 0.984 . S
N1055 H1061 0.985 . S
C1056 C1050 1.379 . S
C1056 C1053 1.363 . S
C1056 N1054 1.356 . S
C1057 C1051 1.363 . S
C1057 C1052 1.379 . S
C1057 N1055 1.356 . S
N1058 C1050 1.356 . S
N1058 H1064 0.984 . S
N1058 H1065 0.984 . S
N1059 C1052 1.356 . S
N1059 H1062 0.984 . S
N1059 H1063 0.985 . S
H1060 N1055 0.984 . S
H1061 N1055 0.985 . S
H1062 N1059 0.984 . S
H1063 N1059 0.985 . S
H1064 N1058 0.984 . S
H1065 N1058 0.984 . S
H1066 N1054 0.984 . S
H1067 N1054 0.985 . S
C1068 C1069 1.363 . S
C1068 C1074 1.379 . S
C1068 N1076 1.356 . S
C1069 C1068 1.363 . S
C1069 C1075 1.363 1_545 S
C1070 C1071 1.363 1_565 S
C1070 C1075 1.379 . S
C1070 N1077 1.356 . S
C1071 C1070 1.363 1_545 S
C1071 C1074 1.363 . S
N1072 C1074 1.356 . S
N1072 H1084 0.984 . S
N1072 H1085 0.985 . S
N1073 C1075 1.356 . S
N1073 H1078 0.984 . S
N1073 H1079 0.985 . S
C1074 C1068 1.379 . S
C1074 C1071 1.363 . S
C1074 N1072 1.356 . S
C1075 C1069 1.363 1_565 S
C1075 C1070 1.379 . S
C1075 N1073 1.356 . S
N1076 C1068 1.356 . S
N1076 H1082 0.984 . S
N1076 H1083 0.984 . S
N1077 C1070 1.356 . S
N1077 H1080 0.984 . S
N1077 H1081 0.985 . S
H1078 N1073 0.984 . S
H1079 N1073 0.985 . S
H1080 N1077 0.984 . S
H1081 N1077 0.985 . S
H1082 N1076 0.984 . S
H1083 N1076 0.984 . S
H1084 N1072 0.984 . S
H1085 N1072 0.985 . S
C1086 C1087 1.363 . S
C1086 C1092 1.379 . S
C1086 N1094 1.356 . S
C1087 C1086 1.363 . S
C1087 C1093 1.363 . S
C1088 C1089 1.363 . S
C1088 C1093 1.379 . S
C1088 N1095 1.356 . S
C1089 C1088 1.363 . S
C1089 C1092 1.363 . S
N1090 C1092 1.356 . S
N1090 H1102 0.984 . S
N1090 H1103 0.985 . S
N1091 C1093 1.356 . S
N1091 H1096 0.984 . S
N1091 H1097 0.985 . S
C1092 C1086 1.379 . S
C1092 C1089 1.363 . S
C1092 N1090 1.356 . S
C1093 C1087 1.363 . S
C1093 C1088 1.379 . S
C1093 N1091 1.356 . S
N1094 C1086 1.356 . S
N1094 H1100 0.984 . S
N1094 H1101 0.984 . S
N1095 C1088 1.356 . S
N1095 H1098 0.984 . S
N1095 H1099 0.985 . S
H1096 N1091 0.984 . S
H1097 N1091 0.985 . S
H1098 N1095 0.984 . S
H1099 N1095 0.985 . S
H1100 N1094 0.984 . S
H1101 N1094 0.984 . S
H1102 N1090 0.984 . S
H1103 N1090 0.985 . S
C1104 C1105 1.363 . S
C1104 C1110 1.379 . S
C1104 N1112 1.356 . S
C1105 C1104 1.363 . S
C1105 C1111 1.363 . S
C1106 C1107 1.363 . S
C1106 C1111 1.379 . S
C1106 N1113 1.356 . S
C1107 C1106 1.363 . S
C1107 C1110 1.363 . S
N1108 C1110 1.356 . S
N1108 H1120 0.984 . S
N1108 H1121 0.985 . S
N1109 C1111 1.356 . S
N1109 H1114 0.984 . S
N1109 H1115 0.985 . S
C1110 C1104 1.379 . S
C1110 C1107 1.363 . S
C1110 N1108 1.356 . S
C1111 C1105 1.363 . S
C1111 C1106 1.379 . S
C1111 N1109 1.356 . S
N1112 C1104 1.356 . S
N1112 H1118 0.984 . S
N1112 H1119 0.984 . S
N1113 C1106 1.356 . S
N1113 H1116 0.984 . S
N1113 H1117 0.985 . S
H1114 N1109 0.984 . S
H1115 N1109 0.985 . S
H1116 N1113 0.984 . S
H1117 N1113 0.985 . S
H1118 N1112 0.984 . S
H1119 N1112 0.984 . S
H1120 N1108 0.984 . S
H1121 N1108 0.985 . S
C1122 C1123 1.363 . S
C1122 C1128 1.379 . S
C1122 N1130 1.356 . S
C1123 C1122 1.363 . S
C1123 C1129 1.363 1_556 S
C1124 C1125 1.363 . S
C1124 C1129 1.379 1_556 S
C1124 N1131 1.356 1_556 S
C1125 C1124 1.363 . S
C1125 C1128 1.363 . S
N1126 C1128 1.356 . S
N1126 H1138 0.984 . S
N1126 H1139 0.985 . S
N1127 C1129 1.356 . S
N1127 H1132 0.984 . S
N1127 H1133 0.985 . S
C1128 C1122 1.379 . S
C1128 C1125 1.363 . S
C1128 N1126 1.356 . S
C1129 C1123 1.363 1_554 S
C1129 C1124 1.379 1_554 S
C1129 N1127 1.356 . S
N1130 C1122 1.356 . S
N1130 H1136 0.984 . S
N1130 H1137 0.984 . S
N1131 C1124 1.356 1_554 S
N1131 H1134 0.984 1_554 S
N1131 H1135 0.985 . S
H1132 N1127 0.984 . S
H1133 N1127 0.985 . S
H1134 N1131 0.984 1_556 S
H1135 N1131 0.985 . S
H1136 N1130 0.984 . S
H1137 N1130 0.984 . S
H1138 N1126 0.984 . S
H1139 N1126 0.985 . S
C1140 C1141 1.363 . S
C1140 C1146 1.379 . S
C1140 N1148 1.356 . S
C1141 C1140 1.363 . S
C1141 C1147 1.363 . S
C1142 C1143 1.363 . S
C1142 C1147 1.379 . S
C1142 N1149 1.356 . S
C1143 C1142 1.363 . S
C1143 C1146 1.363 . S
N1144 C1146 1.356 . S
N1144 H1156 0.984 . S
N1144 H1157 0.985 . S
N1145 C1147 1.356 . S
N1145 H1150 0.984 . S
N1145 H1151 0.985 . S
C1146 C1140 1.379 . S
C1146 C1143 1.363 . S
C1146 N1144 1.356 . S
C1147 C1141 1.363 . S
C1147 C1142 1.379 . S
C1147 N1145 1.356 . S
N1148 C1140 1.356 . S
N1148 H1154 0.984 . S
N1148 H1155 0.984 . S
N1149 C1142 1.356 . S
N1149 H1152 0.984 . S
N1149 H1153 0.985 . S
H1150 N1145 0.984 . S
H1151 N1145 0.985 . S
H1152 N1149 0.984 . S
H1153 N1149 0.985 . S
H1154 N1148 0.984 . S
H1155 N1148 0.984 . S
H1156 N1144 0.984 . S
H1157 N1144 0.985 . S
C1158 C1159 1.348 1_556 S
C1158 C1164 1.371 1_556 S
C1158 N1166 1.379 . S
C1159 C1158 1.348 1_554 S
C1159 C1165 1.363 . S
C1160 C1161 1.363 . S
C1160 C1165 1.379 . S
C1160 N1167 1.356 . S
C1161 C1160 1.363 . S
C1161 C1164 1.363 . S
N1162 C1164 1.356 1_556 S
N1162 H1174 0.984 . S
N1162 H1175 0.985 1_556 S
N1163 C1165 1.356 . S
N1163 H1168 0.984 . S
N1163 H1169 0.985 . S
C1164 C1158 1.371 1_554 S
C1164 C1161 1.363 . S
C1164 N1162 1.356 1_554 S
C1165 C1159 1.363 . S
C1165 C1160 1.379 . S
C1165 N1163 1.356 . S
N1166 C1158 1.379 . S
N1166 H1172 0.984 . S
N1166 H1173 0.984 . S
N1167 C1160 1.356 . S
N1167 H1170 0.984 . S
N1167 H1171 0.985 . S
H1168 N1163 0.984 . S
H1169 N1163 0.985 . S
H1170 N1167 0.984 . S
H1171 N1167 0.985 . S
H1172 N1166 0.984 . S
H1173 N1166 0.984 . S
H1174 N1162 0.984 . S
H1175 N1162 0.985 1_554 S
C1176 C1177 1.363 . S
C1176 C1182 1.379 . S
C1176 N1184 1.356 . S
C1177 C1176 1.363 . S
C1177 C1183 1.363 . S
C1178 C1179 1.363 . S
C1178 C1183 1.379 . S
C1178 N1185 1.356 . S
C1179 C1178 1.363 . S
C1179 C1182 1.363 . S
N1180 C1182 1.356 . S
N1180 H1192 0.984 . S
N1180 H1193 0.985 . S
N1181 C1183 1.356 . S
N1181 H1186 0.984 . S
N1181 H1187 0.985 . S
C1182 C1176 1.379 . S
C1182 C1179 1.363 . S
C1182 N1180 1.356 . S
C1183 C1177 1.363 . S
C1183 C1178 1.379 . S
C1183 N1181 1.356 . S
N1184 C1176 1.356 . S
N1184 H1190 0.984 . S
N1184 H1191 0.984 . S
N1185 C1178 1.356 . S
N1185 H1188 0.984 . S
N1185 H1189 0.985 . S
H1186 N1181 0.984 . S
H1187 N1181 0.985 . S
H1188 N1185 0.984 . S
H1189 N1185 0.985 . S
H1190 N1184 0.984 . S
H1191 N1184 0.984 . S
H1192 N1180 0.984 . S
H1193 N1180 0.985 . S
C1194 C1195 1.369 . S
C1194 C1200 1.382 . S
C1194 N1202 1.347 1_655 S
C1195 C1194 1.369 . S
C1195 C1201 1.363 . S
C1196 C1197 1.363 . S
C1196 C1201 1.379 . S
C1196 N1203 1.356 . S
C1197 C1196 1.363 . S
C1197 C1200 1.363 . S
N1198 C1200 1.356 1_455 S
N1198 H1210 0.984 . S
N1198 H1211 0.985 1_455 S
N1199 C1201 1.356 . S
N1199 H1204 0.984 . S
N1199 H1205 0.985 . S
C1200 C1194 1.382 . S
C1200 C1197 1.363 . S
C1200 N1198 1.356 1_655 S
C1201 C1195 1.363 . S
C1201 C1196 1.379 . S
C1201 N1199 1.356 . S
N1202 C1194 1.347 1_455 S
N1202 H1208 0.984 . S
N1202 H1209 0.984 . S
N1203 C1196 1.356 . S
N1203 H1206 0.984 . S
N1203 H1207 0.985 . S
H1204 N1199 0.984 . S
H1205 N1199 0.985 . S
H1206 N1203 0.984 . S
H1207 N1203 0.985 . S
H1208 N1202 0.984 . S
H1209 N1202 0.984 . S
H1210 N1198 0.984 . S
H1211 N1198 0.985 1_655 S
C1212 C1213 1.363 . S
C1212 C1218 1.379 . S
C1212 N1220 1.356 . S
C1213 C1212 1.363 . S
C1213 C1219 1.363 . S
C1214 C1215 1.363 . S
C1214 C1219 1.379 . S
C1214 N1221 1.356 . S
C1215 C1214 1.363 . S
C1215 C1218 1.363 . S
N1216 C1218 1.356 . S
N1216 H1228 0.984 . S
N1216 H1229 0.985 . S
N1217 C1219 1.356 . S
N1217 H1222 0.984 . S
N1217 H1223 0.985 . S
C1218 C1212 1.379 . S
C1218 C1215 1.363 . S
C1218 N1216 1.356 . S
C1219 C1213 1.363 . S
C1219 C1214 1.379 . S
C1219 N1217 1.356 . S
N1220 C1212 1.356 . S
N1220 H1226 0.984 . S
N1220 H1227 0.984 . S
N1221 C1214 1.356 . S
N1221 H1224 0.984 . S
N1221 H1225 0.985 . S
H1222 N1217 0.984 . S
H1223 N1217 0.985 . S
H1224 N1221 0.984 . S
H1225 N1221 0.985 . S
H1226 N1220 0.984 . S
H1227 N1220 0.984 . S
H1228 N1216 0.984 . S
H1229 N1216 0.985 . S
C1230 C1231 1.350 1_655 S
C1230 C1236 1.373 1_655 S
C1230 N1238 1.374 . S
C1231 C1230 1.350 1_455 S
C1231 C1237 1.363 . S
C1232 C1233 1.363 . S
C1232 C1237 1.379 . S
C1232 N1239 1.356 . S
C1233 C1232 1.363 . S
C1233 C1236 1.363 . S
N1234 C1236 1.356 1_655 S
N1234 H1246 0.984 . S
N1234 H1247 0.985 1_655 S
N1235 C1237 1.356 . S
N1235 H1240 0.984 . S
N1235 H1241 0.985 . S
C1236 C1230 1.373 1_455 S
C1236 C1233 1.363 . S
C1236 N1234 1.356 1_455 S
C1237 C1231 1.363 . S
C1237 C1232 1.379 . S
C1237 N1235 1.356 . S
N1238 C1230 1.374 . S
N1238 H1244 0.984 . S
N1238 H1245 0.984 . S
N1239 C1232 1.356 . S
N1239 H1242 0.984 . S
N1239 H1243 0.985 . S
H1240 N1235 0.984 . S
H1241 N1235 0.985 . S
H1242 N1239 0.984 . S
H1243 N1239 0.985 . S
H1244 N1238 0.984 . S
H1245 N1238 0.984 . S
H1246 N1234 0.984 . S
H1247 N1234 0.985 1_455 S
C1248 C1249 1.363 . S
C1248 C1254 1.379 . S
C1248 N1256 1.356 . S
C1249 C1248 1.363 . S
C1249 C1255 1.363 . S
C1250 C1251 1.363 . S
C1250 C1255 1.379 . S
C1250 N1257 1.356 . S
C1251 C1250 1.363 . S
C1251 C1254 1.363 . S
N1252 C1254 1.356 . S
N1252 H1264 0.984 . S
N1252 H1265 0.985 . S
N1253 C1255 1.356 . S
N1253 H1258 0.984 . S
N1253 H1259 0.985 . S
C1254 C1248 1.379 . S
C1254 C1251 1.363 . S
C1254 N1252 1.356 . S
C1255 C1249 1.363 . S
C1255 C1250 1.379 . S
C1255 N1253 1.356 . S
N1256 C1248 1.356 . S
N1256 H1262 0.984 . S
N1256 H1263 0.984 . S
N1257 C1250 1.356 . S
N1257 H1260 0.984 . S
N1257 H1261 0.985 . S
H1258 N1253 0.984 . S
H1259 N1253 0.985 . S
H1260 N1257 0.984 . S
H1261 N1257 0.985 . S
H1262 N1256 0.984 . S
H1263 N1256 0.984 . S
H1264 N1252 0.984 . S
H1265 N1252 0.985 . S
C1266 C1267 1.363 . S
C1266 C1272 1.379 . S
C1266 N1274 1.356 . S
C1267 C1266 1.363 . S
C1267 C1273 1.363 . S
C1268 C1269 1.363 . S
C1268 C1273 1.379 . S
C1268 N1275 1.356 . S
C1269 C1268 1.363 . S
C1269 C1272 1.363 . S
N1270 C1272 1.356 . S
N1270 H1282 0.984 . S
N1270 H1283 0.985 . S
N1271 C1273 1.356 . S
N1271 H1276 0.984 . S
N1271 H1277 0.985 . S
C1272 C1266 1.379 . S
C1272 C1269 1.363 . S
C1272 N1270 1.356 . S
C1273 C1267 1.363 . S
C1273 C1268 1.379 . S
C1273 N1271 1.356 . S
N1274 C1266 1.356 . S
N1274 H1280 0.984 . S
N1274 H1281 0.984 . S
N1275 C1268 1.356 . S
N1275 H1278 0.984 . S
N1275 H1279 0.985 . S
H1276 N1271 0.984 . S
H1277 N1271 0.985 . S
H1278 N1275 0.984 . S
H1279 N1275 0.985 . S
H1280 N1274 0.984 . S
H1281 N1274 0.984 . S
H1282 N1270 0.984 . S
H1283 N1270 0.985 . S
C1284 C1285 1.363 . S
C1284 C1290 1.379 . S
C1284 N1292 1.356 . S
C1285 C1284 1.363 . S
C1285 C1291 1.363 1_565 S
C1286 C1287 1.363 1_545 S
C1286 C1291 1.379 . S
C1286 N1293 1.356 . S
C1287 C1286 1.363 1_565 S
C1287 C1290 1.363 . S
N1288 C1290 1.356 . S
N1288 H1300 0.984 . S
N1288 H1301 0.985 . S
N1289 C1291 1.356 . S
N1289 H1294 0.984 . S
N1289 H1295 0.985 . S
C1290 C1284 1.379 . S
C1290 C1287 1.363 . S
C1290 N1288 1.356 . S
C1291 C1285 1.363 1_545 S
C1291 C1286 1.379 . S
C1291 N1289 1.356 . S
N1292 C1284 1.356 . S
N1292 H1298 0.984 . S
N1292 H1299 0.984 . S
N1293 C1286 1.356 . S
N1293 H1296 0.984 . S
N1293 H1297 0.985 . S
H1294 N1289 0.984 . S
H1295 N1289 0.985 . S
H1296 N1293 0.984 . S
H1297 N1293 0.985 . S
H1298 N1292 0.984 . S
H1299 N1292 0.984 . S
H1300 N1288 0.984 . S
H1301 N1288 0.985 . S
C1302 C1303 1.363 . S
C1302 C1308 1.379 . S
C1302 N1310 1.356 . S
C1303 C1302 1.363 . S
C1303 C1309 1.363 . S
C1304 C1305 1.363 . S
C1304 C1309 1.379 . S
C1304 N1311 1.356 . S
C1305 C1304 1.363 . S
C1305 C1308 1.363 . S
N1306 C1308 1.356 . S
N1306 H1318 0.984 . S
N1306 H1319 0.985 . S
N1307 C1309 1.356 . S
N1307 H1312 0.988 . S
N1307 H1313 0.982 1_545 S
C1308 C1302 1.379 . S
C1308 C1305 1.363 . S
C1308 N1306 1.356 . S
C1309 C1303 1.363 . S
C1309 C1304 1.379 . S
C1309 N1307 1.356 . S
N1310 C1302 1.356 . S
N1310 H1316 0.984 . S
N1310 H1317 0.984 . S
N1311 C1304 1.356 . S
N1311 H1314 0.984 . S
N1311 H1315 0.985 . S
H1312 N1307 0.988 . S
H1313 N1307 0.982 1_565 S
H1314 N1311 0.984 . S
H1315 N1311 0.985 . S
H1316 N1310 0.984 . S
H1317 N1310 0.984 . S
H1318 N1306 0.984 . S
H1319 N1306 0.985 . S
C1320 C1321 1.363 . S
C1320 C1326 1.379 . S
C1320 N1328 1.356 . S
C1321 C1320 1.363 . S
C1321 C1327 1.363 . S
C1322 C1323 1.363 . S
C1322 C1327 1.379 . S
C1322 N1329 1.356 . S
C1323 C1322 1.363 . S
C1323 C1326 1.363 . S
N1324 C1326 1.356 . S
N1324 H1336 0.984 . S
N1324 H1337 0.985 . S
N1325 C1327 1.356 . S
N1325 H1330 0.984 . S
N1325 H1331 0.985 . S
C1326 C1320 1.379 . S
C1326 C1323 1.363 . S
C1326 N1324 1.356 . S
C1327 C1321 1.363 . S
C1327 C1322 1.379 . S
C1327 N1325 1.356 . S
N1328 C1320 1.356 . S
N1328 H1334 0.984 . S
N1328 H1335 0.984 . S
N1329 C1322 1.356 . S
N1329 H1332 0.984 . S
N1329 H1333 0.985 . S
H1330 N1325 0.984 . S
H1331 N1325 0.985 . S
H1332 N1329 0.984 . S
H1333 N1329 0.985 . S
H1334 N1328 0.984 . S
H1335 N1328 0.984 . S
H1336 N1324 0.984 . S
H1337 N1324 0.985 . S
C1338 C1339 1.365 1_556 S
C1338 C1344 1.380 1_556 S
C1338 N1346 1.353 . S
C1339 C1338 1.365 1_554 S
C1339 C1345 1.363 . S
C1340 C1341 1.363 . S
C1340 C1345 1.379 . S
C1340 N1347 1.356 . S
C1341 C1340 1.363 . S
C1341 C1344 1.363 . S
N1342 C1344 1.356 1_556 S
N1342 H1354 0.984 . S
N1342 H1355 0.985 1_556 S
N1343 C1345 1.356 . S
N1343 H1348 0.984 . S
N1343 H1349 0.985 . S
C1344 C1338 1.380 1_554 S
C1344 C1341 1.363 . S
C1344 N1342 1.356 1_554 S
C1345 C1339 1.363 . S
C1345 C1340 1.379 . S
C1345 N1343 1.356 . S
N1346 C1338 1.353 . S
N1346 H1352 0.984 . S
N1346 H1353 0.984 . S
N1347 C1340 1.356 . S
N1347 H1350 0.984 . S
N1347 H1351 0.985 . S
H1348 N1343 0.984 . S
H1349 N1343 0.985 . S
H1350 N1347 0.984 . S
H1351 N1347 0.985 . S
H1352 N1346 0.984 . S
H1353 N1346 0.984 . S
H1354 N1342 0.984 . S
H1355 N1342 0.985 1_554 S
C1356 C1357 1.363 . S
C1356 C1362 1.379 . S
C1356 N1364 1.356 . S
C1357 C1356 1.363 . S
C1357 C1363 1.363 . S
C1358 C1359 1.363 . S
C1358 C1363 1.379 . S
C1358 N1365 1.356 . S
C1359 C1358 1.363 . S
C1359 C1362 1.363 . S
N1360 C1362 1.356 . S
N1360 H1372 0.984 . S
N1360 H1373 0.985 . S
N1361 C1363 1.356 . S
N1361 H1366 0.984 . S
N1361 H1367 0.985 . S
C1362 C1356 1.379 . S
C1362 C1359 1.363 . S
C1362 N1360 1.356 . S
C1363 C1357 1.363 . S
C1363 C1358 1.379 . S
C1363 N1361 1.356 . S
N1364 C1356 1.356 . S
N1364 H1370 0.984 . S
N1364 H1371 0.984 . S
N1365 C1358 1.356 . S
N1365 H1368 0.984 . S
N1365 H1369 0.985 . S
H1366 N1361 0.984 . S
H1367 N1361 0.985 . S
H1368 N1365 0.984 . S
H1369 N1365 0.985 . S
H1370 N1364 0.984 . S
H1371 N1364 0.984 . S
H1372 N1360 0.984 . S
H1373 N1360 0.985 . S
C1374 C1375 1.363 . S
C1374 C1380 1.379 . S
C1374 N1382 1.356 . S
C1375 C1374 1.363 . S
C1375 C1381 1.363 1_556 S
C1376 C1377 1.363 . S
C1376 C1381 1.379 1_556 S
C1376 N1383 1.356 1_556 S
C1377 C1376 1.363 . S
C1377 C1380 1.363 . S
N1378 C1380 1.356 . S
N1378 H1390 0.984 . S
N1378 H1391 0.985 . S
N1379 C1381 1.356 . S
N1379 H1384 0.984 . S
N1379 H1385 0.985 . S
C1380 C1374 1.379 . S
C1380 C1377 1.363 . S
C1380 N1378 1.356 . S
C1381 C1375 1.363 1_554 S
C1381 C1376 1.379 1_554 S
C1381 N1379 1.356 . S
N1382 C1374 1.356 . S
N1382 H1388 0.984 . S
N1382 H1389 0.984 . S
N1383 C1376 1.356 1_554 S
N1383 H1386 0.984 . S
N1383 H1387 0.985 . S
H1384 N1379 0.984 . S
H1385 N1379 0.985 . S
H1386 N1383 0.984 . S
H1387 N1383 0.985 . S
H1388 N1382 0.984 . S
H1389 N1382 0.984 . S
H1390 N1378 0.984 . S
H1391 N1378 0.985 . S
C1392 C1393 1.363 . S
C1392 C1398 1.379 . S
C1392 N1400 1.356 . S
C1393 C1392 1.363 . S
C1393 C1399 1.363 . S
C1394 C1395 1.363 . S
C1394 C1399 1.379 . S
C1394 N1401 1.356 . S
C1395 C1394 1.363 . S
C1395 C1398 1.363 . S
N1396 C1398 1.356 . S
N1396 H1408 0.984 . S
N1396 H1409 0.985 . S
N1397 C1399 1.356 . S
N1397 H1402 0.984 . S
N1397 H1403 0.985 . S
C1398 C1392 1.379 . S
C1398 C1395 1.363 . S
C1398 N1396 1.356 . S
C1399 C1393 1.363 . S
C1399 C1394 1.379 . S
C1399 N1397 1.356 . S
N1400 C1392 1.356 . S
N1400 H1406 0.984 . S
N1400 H1407 0.984 . S
N1401 C1394 1.356 . S
N1401 H1404 0.984 . S
N1401 H1405 0.985 . S
H1402 N1397 0.984 . S
H1403 N1397 0.985 . S
H1404 N1401 0.984 . S
H1405 N1401 0.985 . S
H1406 N1400 0.984 . S
H1407 N1400 0.984 . S
H1408 N1396 0.984 . S
H1409 N1396 0.985 . S
C1410 C1411 1.363 . S
C1410 C1416 1.379 . S
C1410 N1418 1.356 . S
C1411 C1410 1.363 . S
C1411 C1417 1.363 . S
C1412 C1413 1.363 . S
C1412 C1417 1.379 . S
C1412 N1419 1.356 . S
C1413 C1412 1.363 . S
C1413 C1416 1.363 . S
N1414 C1416 1.356 . S
N1414 H1426 0.984 . S
N1414 H1427 0.985 . S
N1415 C1417 1.356 . S
N1415 H1420 0.984 . S
N1415 H1421 0.985 . S
C1416 C1410 1.379 . S
C1416 C1413 1.363 . S
C1416 N1414 1.356 . S
C1417 C1411 1.363 . S
C1417 C1412 1.379 . S
C1417 N1415 1.356 . S
N1418 C1410 1.356 . S
N1418 H1424 0.984 . S
N1418 H1425 0.984 . S
N1419 C1412 1.356 . S
N1419 H1422 0.984 . S
N1419 H1423 0.985 . S
H1420 N1415 0.984 . S
H1421 N1415 0.985 . S
H1422 N1419 0.984 . S
H1423 N1419 0.985 . S
H1424 N1418 0.984 . S
H1425 N1418 0.984 . S
H1426 N1414 0.984 . S
H1427 N1414 0.985 . S
C1428 C1429 1.363 . S
C1428 C1434 1.379 . S
C1428 N1436 1.356 . S
C1429 C1428 1.363 . S
C1429 C1435 1.363 . S
C1430 C1431 1.363 . S
C1430 C1435 1.379 . S
C1430 N1437 1.356 . S
C1431 C1430 1.363 . S
C1431 C1434 1.363 . S
N1432 C1434 1.356 . S
N1432 H1444 0.984 . S
N1432 H1445 0.985 . S
N1433 C1435 1.356 . S
N1433 H1438 0.984 . S
N1433 H1439 0.985 . S
C1434 C1428 1.379 . S
C1434 C1431 1.363 . S
C1434 N1432 1.356 . S
C1435 C1429 1.363 . S
C1435 C1430 1.379 . S
C1435 N1433 1.356 . S
N1436 C1428 1.356 . S
N1436 H1442 0.984 . S
N1436 H1443 0.984 . S
N1437 C1430 1.356 . S
N1437 H1440 0.984 . S
N1437 H1441 0.985 . S
H1438 N1433 0.984 . S
H1439 N1433 0.985 . S
H1440 N1437 0.984 . S
H1441 N1437 0.985 . S
H1442 N1436 0.984 . S
H1443 N1436 0.984 . S
H1444 N1432 0.984 . S
H1445 N1432 0.985 . S
C1446 C1447 1.363 . S
C1446 C1452 1.379 . S
C1446 N1454 1.356 1_655 S
C1447 C1446 1.363 . S
C1447 C1453 1.363 . S
C1448 C1449 1.363 . S
C1448 C1453 1.379 . S
C1448 N1455 1.356 . S
C1449 C1448 1.363 . S
C1449 C1452 1.363 . S
N1450 C1452 1.356 . S
N1450 H1462 0.984 1_655 S
N1450 H1463 0.985 . S
N1451 C1453 1.356 . S
N1451 H1456 0.984 . S
N1451 H1457 0.985 . S
C1452 C1446 1.379 . S
C1452 C1449 1.363 . S
C1452 N1450 1.356 . S
C1453 C1447 1.363 . S
C1453 C1448 1.379 . S
C1453 N1451 1.356 . S
N1454 C1446 1.356 1_455 S
N1454 H1460 0.984 . S
N1454 H1461 0.984 . S
N1455 C1448 1.356 . S
N1455 H1458 0.984 . S
N1455 H1459 0.985 . S
H1456 N1451 0.984 . S
H1457 N1451 0.985 . S
H1458 N1455 0.984 . S
H1459 N1455 0.985 . S
H1460 N1454 0.984 . S
H1461 N1454 0.984 . S
H1462 N1450 0.984 1_455 S
H1463 N1450 0.985 . S
C1464 C1465 1.363 . S
C1464 C1470 1.379 . S
C1464 N1472 1.356 . S
C1465 C1464 1.363 . S
C1465 C1471 1.363 . S
C1466 C1467 1.363 . S
C1466 C1471 1.379 . S
C1466 N1473 1.356 . S
C1467 C1466 1.363 . S
C1467 C1470 1.363 . S
N1468 C1470 1.356 . S
N1468 H1480 0.984 . S
N1468 H1481 0.985 . S
N1469 C1471 1.356 . S
N1469 H1474 0.984 . S
N1469 H1475 0.985 . S
C1470 C1464 1.379 . S
C1470 C1467 1.363 . S
C1470 N1468 1.356 . S
C1471 C1465 1.363 . S
C1471 C1466 1.379 . S
C1471 N1469 1.356 . S
N1472 C1464 1.356 . S
N1472 H1478 0.984 . S
N1472 H1479 0.984 . S
N1473 C1466 1.356 . S
N1473 H1476 0.984 . S
N1473 H1477 0.985 . S
H1474 N1469 0.984 . S
H1475 N1469 0.985 . S
H1476 N1473 0.984 . S
H1477 N1473 0.985 . S
H1478 N1472 0.984 . S
H1479 N1472 0.984 . S
H1480 N1468 0.984 . S
H1481 N1468 0.985 . S
C1482 C1483 1.363 . S
C1482 C1488 1.379 . S
C1482 N1490 1.356 . S
C1483 C1482 1.363 . S
C1483 C1489 1.363 . S
C1484 C1485 1.363 . S
C1484 C1489 1.379 . S
C1484 N1491 1.356 . S
C1485 C1484 1.363 . S
C1485 C1488 1.363 . S
N1486 C1488 1.356 . S
N1486 H1498 0.984 . S
N1486 H1499 0.985 . S
N1487 C1489 1.356 . S
N1487 H1492 0.984 . S
N1487 H1493 0.985 . S
C1488 C1482 1.379 . S
C1488 C1485 1.363 . S
C1488 N1486 1.356 . S
C1489 C1483 1.363 . S
C1489 C1484 1.379 . S
C1489 N1487 1.356 . S
N1490 C1482 1.356 . S
N1490 H1496 0.984 . S
N1490 H1497 0.984 . S
N1491 C1484 1.356 . S
N1491 H1494 0.984 . S
N1491 H1495 0.985 . S
H1492 N1487 0.984 . S
H1493 N1487 0.985 . S
H1494 N1491 0.984 . S
H1495 N1491 0.985 . S
H1496 N1490 0.984 . S
H1497 N1490 0.984 . S
H1498 N1486 0.984 . S
H1499 N1486 0.985 . S
C1500 C1501 1.363 . S
C1500 C1506 1.379 . S
C1500 N1508 1.356 . S
C1501 C1500 1.363 . S
C1501 C1507 1.363 1_565 S
C1502 C1503 1.363 . S
C1502 C1507 1.379 . S
C1502 N1509 1.356 . S
C1503 C1502 1.363 . S
C1503 C1506 1.363 1_545 S
N1504 C1506 1.356 . S
N1504 H1516 0.984 . S
N1504 H1517 0.985 . S
N1505 C1507 1.356 . S
N1505 H1510 0.998 . S
N1505 H1511 0.985 . S
C1506 C1500 1.379 . S
C1506 C1503 1.363 1_565 S
C1506 N1504 1.356 . S
C1507 C1501 1.363 1_545 S
C1507 C1502 1.379 . S
C1507 N1505 1.356 . S
N1508 C1500 1.356 . S
N1508 H1514 0.984 . S
N1508 H1515 0.984 . S
N1509 C1502 1.356 . S
N1509 H1512 0.984 . S
N1509 H1513 0.985 . S
H1510 N1505 0.998 . S
H1511 N1505 0.985 . S
H1512 N1509 0.984 . S
H1513 N1509 0.985 . S
H1514 N1508 0.984 . S
H1515 N1508 0.984 . S
H1516 N1504 0.984 . S
H1517 N1504 0.985 . S
C1518 C1519 1.363 . S
C1518 C1524 1.379 . S
C1518 N1526 1.356 . S
C1519 C1518 1.363 . S
C1519 C1525 1.363 . S
C1520 C1521 1.363 1_565 S
C1520 C1525 1.379 1_565 S
C1520 N1527 1.356 . S
C1521 C1520 1.363 1_545 S
C1521 C1524 1.363 . S
N1522 C1524 1.356 . S
N1522 H1534 0.984 . S
N1522 H1535 0.985 . S
N1523 C1525 1.356 . S
N1523 H1528 0.984 . S
N1523 H1529 0.985 1_545 S
C1524 C1518 1.379 . S
C1524 C1521 1.363 . S
C1524 N1522 1.356 . S
C1525 C1519 1.363 . S
C1525 C1520 1.379 1_545 S
C1525 N1523 1.356 . S
N1526 C1518 1.356 . S
N1526 H1532 0.984 . S
N1526 H1533 0.984 . S
N1527 C1520 1.356 . S
N1527 H1530 0.984 . S
N1527 H1531 0.985 . S
H1528 N1523 0.984 . S
H1529 N1523 0.985 1_565 S
H1530 N1527 0.984 . S
H1531 N1527 0.985 . S
H1532 N1526 0.984 . S
H1533 N1526 0.984 . S
H1534 N1522 0.984 . S
H1535 N1522 0.985 . S
C1536 C1537 1.363 . S
C1536 C1542 1.379 . S
C1536 N1544 1.356 . S
C1537 C1536 1.363 . S
C1537 C1543 1.363 . S
C1538 C1539 1.363 . S
C1538 C1543 1.379 . S
C1538 N1545 1.356 . S
C1539 C1538 1.363 . S
C1539 C1542 1.363 . S
N1540 C1542 1.356 . S
N1540 H1552 0.984 . S
N1540 H1553 0.985 . S
N1541 C1543 1.356 . S
N1541 H1546 0.984 . S
N1541 H1547 0.985 . S
C1542 C1536 1.379 . S
C1542 C1539 1.363 . S
C1542 N1540 1.356 . S
C1543 C1537 1.363 . S
C1543 C1538 1.379 . S
C1543 N1541 1.356 . S
N1544 C1536 1.356 . S
N1544 H1550 0.984 . S
N1544 H1551 0.984 . S
N1545 C1538 1.356 . S
N1545 H1548 0.984 . S
N1545 H1549 0.985 . S
H1546 N1541 0.984 . S
H1547 N1541 0.985 . S
H1548 N1545 0.984 . S
H1549 N1545 0.985 . S
H1550 N1544 0.984 . S
H1551 N1544 0.984 . S
H1552 N1540 0.984 . S
H1553 N1540 0.985 . S
C1554 C1555 1.363 1_556 S
C1554 C1560 1.379 . S
C1554 N1562 1.356 . S
C1555 C1554 1.363 1_554 S
C1555 C1561 1.363 . S
C1556 C1557 1.363 . S
C1556 C1561 1.379 . S
C1556 N1563 1.356 . S
C1557 C1556 1.363 . S
C1557 C1560 1.363 1_554 S
N1558 C1560 1.356 . S
N1558 H1570 0.984 . S
N1558 H1571 0.985 . S
N1559 C1561 1.356 . S
N1559 H1564 0.984 . S
N1559 H1565 0.985 . S
C1560 C1554 1.379 . S
C1560 C1557 1.363 1_556 S
C1560 N1558 1.356 . S
C1561 C1555 1.363 . S
C1561 C1556 1.379 . S
C1561 N1559 1.356 . S
N1562 C1554 1.356 . S
N1562 H1568 0.984 . S
N1562 H1569 0.984 . S
N1563 C1556 1.356 . S
N1563 H1566 0.984 . S
N1563 H1567 0.985 . S
H1564 N1559 0.984 . S
H1565 N1559 0.985 . S
H1566 N1563 0.984 . S
H1567 N1563 0.985 . S
H1568 N1562 0.984 . S
H1569 N1562 0.984 . S
H1570 N1558 0.984 . S
H1571 N1558 0.985 . S
C1572 C1573 1.363 . S
C1572 C1578 1.379 . S
C1572 N1580 1.356 . S
C1573 C1572 1.363 . S
C1573 C1579 1.363 . S
C1574 C1575 1.363 . S
C1574 C1579 1.379 . S
C1574 N1581 1.356 . S
C1575 C1574 1.363 . S
C1575 C1578 1.363 . S
N1576 C1578 1.356 . S
N1576 H1588 0.984 . S
N1576 H1589 0.985 . S
N1577 C1579 1.356 . S
N1577 H1582 0.984 . S
N1577 H1583 0.985 . S
C1578 C1572 1.379 . S
C1578 C1575 1.363 . S
C1578 N1576 1.356 . S
C1579 C1573 1.363 . S
C1579 C1574 1.379 . S
C1579 N1577 1.356 . S
N1580 C1572 1.356 . S
N1580 H1586 0.984 . S
N1580 H1587 0.984 . S
N1581 C1574 1.356 . S
N1581 H1584 0.984 . S
N1581 H1585 0.985 . S
H1582 N1577 0.984 . S
H1583 N1577 0.985 . S
H1584 N1581 0.984 . S
H1585 N1581 0.985 . S
H1586 N1580 0.984 . S
H1587 N1580 0.984 . S
H1588 N1576 0.984 . S
H1589 N1576 0.985 . S
C1590 C1591 1.363 . S
C1590 C1596 1.379 . S
C1590 N1598 1.356 . S
C1591 C1590 1.363 . S
C1591 C1597 1.378 . S
C1592 C1593 1.363 . S
C1592 C1597 1.369 1_554 S
C1592 N1599 1.356 . S
C1593 C1592 1.363 . S
C1593 C1596 1.363 1_554 S
N1594 C1596 1.356 . S
N1594 H1606 0.984 . S
N1594 H1607 1.001 . S
N1595 C1597 1.356 . S
N1595 H1600 0.991 . S
N1595 H1601 0.978 1_556 S
C1596 C1590 1.379 . S
C1596 C1593 1.363 1_556 S
C1596 N1594 1.356 . S
C1597 C1591 1.378 . S
C1597 C1592 1.369 1_556 S
C1597 N1595 1.356 . S
N1598 C1590 1.356 . S
N1598 H1604 0.984 . S
N1598 H1605 0.984 . S
N1599 C1592 1.356 . S
N1599 H1602 0.984 . S
N1599 H1603 0.985 . S
H1600 N1595 0.991 . S
H1601 N1595 0.978 1_554 S
H1602 N1599 0.984 . S
H1603 N1599 0.985 . S
H1604 N1598 0.984 . S
H1605 N1598 0.984 . S
H1606 N1594 0.984 . S
H1607 N1594 1.001 . S
C1608 C1609 1.363 . S
C1608 C1614 1.379 . S
C1608 N1616 1.356 . S
C1609 C1608 1.363 . S
C1609 C1615 1.363 . S
C1610 C1611 1.363 . S
C1610 C1615 1.379 . S
C1610 N1617 1.356 . S
C1611 C1610 1.363 . S
C1611 C1614 1.363 . S
N1612 C1614 1.356 . S
N1612 H1624 0.984 . S
N1612 H1625 0.985 . S
N1613 C1615 1.356 . S
N1613 H1618 0.984 . S
N1613 H1619 0.985 . S
C1614 C1608 1.379 . S
C1614 C1611 1.363 . S
C1614 N1612 1.356 . S
C1615 C1609 1.363 . S
C1615 C1610 1.379 . S
C1615 N1613 1.356 . S
N1616 C1608 1.356 . S
N1616 H1622 0.984 . S
N1616 H1623 0.984 . S
N1617 C1610 1.356 . S
N1617 H1620 0.984 . S
N1617 H1621 0.985 . S
H1618 N1613 0.984 . S
H1619 N1613 0.985 . S
H1620 N1617 0.984 . S
H1621 N1617 0.985 . S
H1622 N1616 0.984 . S
H1623 N1616 0.984 . S
H1624 N1612 0.984 . S
H1625 N1612 0.985 . S
C1626 C1627 1.363 . S
C1626 C1632 1.379 . S
C1626 N1634 1.356 . S
C1627 C1626 1.363 . S
C1627 C1633 1.363 . S
C1628 C1629 1.363 1_655 S
C1628 C1633 1.379 1_655 S
C1628 N1635 1.356 . S
C1629 C1628 1.363 1_455 S
C1629 C1632 1.363 . S
N1630 C1632 1.356 . S
N1630 H1642 0.984 . S
N1630 H1643 0.985 . S
N1631 C1633 1.356 1_655 S
N1631 H1636 0.984 1_655 S
N1631 H1637 0.985 . S
C1632 C1626 1.379 . S
C1632 C1629 1.363 . S
C1632 N1630 1.356 . S
C1633 C1627 1.363 . S
C1633 C1628 1.379 1_455 S
C1633 N1631 1.356 1_455 S
N1634 C1626 1.356 . S
N1634 H1640 0.984 . S
N1634 H1641 0.984 . S
N1635 C1628 1.356 . S
N1635 H1638 0.984 . S
N1635 H1639 0.985 . S
H1636 N1631 0.984 1_455 S
H1637 N1631 0.985 . S
H1638 N1635 0.984 . S
H1639 N1635 0.985 . S
H1640 N1634 0.984 . S
H1641 N1634 0.984 . S
H1642 N1630 0.984 . S
H1643 N1630 0.985 . S
C1644 C1645 1.363 . S
C1644 C1650 1.379 . S
C1644 N1652 1.356 . S
C1645 C1644 1.363 . S
C1645 C1651 1.363 . S
C1646 C1647 1.363 . S
C1646 C1651 1.379 . S
C1646 N1653 1.356 . S
C1647 C1646 1.363 . S
C1647 C1650 1.363 . S
N1648 C1650 1.356 . S
N1648 H1660 0.984 . S
N1648 H1661 0.985 . S
N1649 C1651 1.356 . S
N1649 H1654 0.984 . S
N1649 H1655 0.985 . S
C1650 C1644 1.379 . S
C1650 C1647 1.363 . S
C1650 N1648 1.356 . S
C1651 C1645 1.363 . S
C1651 C1646 1.379 . S
C1651 N1649 1.356 . S
N1652 C1644 1.356 . S
N1652 H1658 0.984 . S
N1652 H1659 0.984 . S
N1653 C1646 1.356 . S
N1653 H1656 0.984 . S
N1653 H1657 0.985 . S
H1654 N1649 0.984 . S
H1655 N1649 0.985 . S
H1656 N1653 0.984 . S
H1657 N1653 0.985 . S
H1658 N1652 0.984 . S
H1659 N1652 0.984 . S
H1660 N1648 0.984 . S
H1661 N1648 0.985 . S
C1662 C1663 1.363 . S
C1662 C1668 1.379 . S
C1662 N1670 1.356 . S
C1663 C1662 1.363 . S
C1663 C1669 1.363 . S
C1664 C1665 1.363 . S
C1664 C1669 1.379 1_455 S
C1664 N1671 1.356 . S
C1665 C1664 1.363 . S
C1665 C1668 1.363 1_455 S
N1666 C1668 1.364 . S
N1666 H1678 0.991 . S
N1666 H1679 0.972 1_655 S
N1667 C1669 1.356 . S
N1667 H1672 0.984 . S
N1667 H1673 0.985 . S
C1668 C1662 1.379 . S
C1668 C1665 1.363 1_655 S
C1668 N1666 1.364 . S
C1669 C1663 1.363 . S
C1669 C1664 1.379 1_655 S
C1669 N1667 1.356 . S
N1670 C1662 1.356 . S
N1670 H1676 0.984 . S
N1670 H1677 0.984 . S
N1671 C1664 1.356 . S
N1671 H1674 0.984 . S
N1671 H1675 0.985 . S
H1672 N1667 0.984 . S
H1673 N1667 0.985 . S
H1674 N1671 0.984 . S
H1675 N1671 0.985 . S
H1676 N1670 0.984 . S
H1677 N1670 0.984 . S
H1678 N1666 0.991 . S
H1679 N1666 0.972 1_455 S
C1680 C1681 1.363 . S
C1680 C1686 1.379 . S
C1680 N1688 1.356 . S
C1681 C1680 1.363 . S
C1681 C1687 1.363 . S
C1682 C1683 1.363 . S
C1682 C1687 1.379 . S
C1682 N1689 1.356 . S
C1683 C1682 1.363 . S
C1683 C1686 1.363 . S
N1684 C1686 1.356 . S
N1684 H1696 0.984 . S
N1684 H1697 0.985 . S
N1685 C1687 1.356 . S
N1685 H1690 0.984 . S
N1685 H1691 0.985 . S
C1686 C1680 1.379 . S
C1686 C1683 1.363 . S
C1686 N1684 1.356 . S
C1687 C1681 1.363 . S
C1687 C1682 1.379 . S
C1687 N1685 1.356 . S
N1688 C1680 1.356 . S
N1688 H1694 0.984 . S
N1688 H1695 0.984 . S
N1689 C1682 1.356 . S
N1689 H1692 0.984 . S
N1689 H1693 0.985 . S
H1690 N1685 0.984 . S
H1691 N1685 0.985 . S
H1692 N1689 0.984 . S
H1693 N1689 0.985 . S
H1694 N1688 0.984 . S
H1695 N1688 0.984 . S
H1696 N1684 0.984 . S
H1697 N1684 0.985 . S
C1698 C1699 1.363 . S
C1698 C1704 1.379 . S
C1698 N1706 1.356 . S
C1699 C1698 1.363 . S
C1699 C1705 1.363 . S
C1700 C1701 1.363 . S
C1700 C1705 1.379 . S
C1700 N1707 1.356 . S
C1701 C1700 1.363 . S
C1701 C1704 1.363 . S
N1702 C1704 1.356 . S
N1702 H1714 0.984 . S
N1702 H1715 0.985 . S
N1703 C1705 1.356 . S
N1703 H1708 0.984 . S
N1703 H1709 0.985 . S
C1704 C1698 1.379 . S
C1704 C1701 1.363 . S
C1704 N1702 1.356 . S
C1705 C1699 1.363 . S
C1705 C1700 1.379 . S
C1705 N1703 1.356 . S
N1706 C1698 1.356 . S
N1706 H1712 0.984 . S
N1706 H1713 0.984 . S
N1707 C1700 1.356 . S
N1707 H1710 0.984 . S
N1707 H1711 0.985 . S
H1708 N1703 0.984 . S
H1709 N1703 0.985 . S
H1710 N1707 0.984 . S
H1711 N1707 0.985 . S
H1712 N1706 0.984 . S
H1713 N1706 0.984 . S
H1714 N1702 0.984 . S
H1715 N1702 0.985 . S
C1716 C1717 1.363 1_565 S
C1716 C1722 1.379 . S
C1716 N1724 1.356 . S
C1717 C1716 1.363 1_545 S
C1717 C1723 1.363 . S
C1718 C1719 1.363 1_545 S
C1718 C1723 1.379 . S
C1718 N1725 1.356 . S
C1719 C1718 1.363 1_565 S
C1719 C1722 1.363 . S
N1720 C1722 1.356 . S
N1720 H1732 0.984 . S
N1720 H1733 0.985 . S
N1721 C1723 1.356 . S
N1721 H1726 0.984 . S
N1721 H1727 0.985 . S
C1722 C1716 1.379 . S
C1722 C1719 1.363 . S
C1722 N1720 1.356 . S
C1723 C1717 1.363 . S
C1723 C1718 1.379 . S
C1723 N1721 1.356 . S
N1724 C1716 1.356 . S
N1724 H1730 0.984 . S
N1724 H1731 0.984 . S
N1725 C1718 1.356 . S
N1725 H1728 0.984 . S
N1725 H1729 0.985 . S
H1726 N1721 0.984 . S
H1727 N1721 0.985 . S
H1728 N1725 0.984 . S
H1729 N1725 0.985 . S
H1730 N1724 0.984 . S
H1731 N1724 0.984 . S
H1732 N1720 0.984 . S
H1733 N1720 0.985 . S
C1734 C1735 1.363 . S
C1734 C1740 1.379 . S
C1734 N1742 1.356 . S
C1735 C1734 1.363 . S
C1735 C1741 1.363 1_565 S
C1736 C1737 1.363 1_545 S
C1736 C1741 1.379 . S
C1736 N1743 1.356 . S
C1737 C1736 1.363 1_565 S
C1737 C1740 1.363 . S
N1738 C1740 1.356 . S
N1738 H1750 0.984 . S
N1738 H1751 0.985 . S
N1739 C1741 1.356 . S
N1739 H1744 0.984 . S
N1739 H1745 0.985 . S
C1740 C1734 1.379 . S
C1740 C1737 1.363 . S
C1740 N1738 1.356 . S
C1741 C1735 1.363 1_545 S
C1741 C1736 1.379 . S
C1741 N1739 1.356 . S
N1742 C1734 1.356 . S
N1742 H1748 0.984 . S
N1742 H1749 0.984 . S
N1743 C1736 1.356 . S
N1743 H1746 0.984 . S
N1743 H1747 0.985 . S
H1744 N1739 0.984 . S
H1745 N1739 0.985 . S
H1746 N1743 0.984 . S
H1747 N1743 0.985 . S
H1748 N1742 0.984 . S
H1749 N1742 0.984 . S
H1750 N1738 0.984 . S
H1751 N1738 0.985 . S
C1752 C1753 1.363 . S
C1752 C1758 1.379 . S
C1752 N1760 1.356 . S
C1753 C1752 1.363 . S
C1753 C1759 1.363 . S
C1754 C1755 1.363 . S
C1754 C1759 1.379 . S
C1754 N1761 1.356 . S
C1755 C1754 1.363 . S
C1755 C1758 1.363 . S
N1756 C1758 1.356 . S
N1756 H1768 0.984 . S
N1756 H1769 0.985 . S
N1757 C1759 1.356 . S
N1757 H1762 0.984 . S
N1757 H1763 0.985 . S
C1758 C1752 1.379 . S
C1758 C1755 1.363 . S
C1758 N1756 1.356 . S
C1759 C1753 1.363 . S
C1759 C1754 1.379 . S
C1759 N1757 1.356 . S
N1760 C1752 1.356 . S
N1760 H1766 0.984 . S
N1760 H1767 0.984 . S
N1761 C1754 1.356 . S
N1761 H1764 0.984 . S
N1761 H1765 0.985 . S
H1762 N1757 0.984 . S
H1763 N1757 0.985 . S
H1764 N1761 0.984 . S
H1765 N1761 0.985 . S
H1766 N1760 0.984 . S
H1767 N1760 0.984 . S
H1768 N1756 0.984 . S
H1769 N1756 0.985 . S
C1770 C1771 1.363 1_554 S
C1770 C1776 1.379 . S
C1770 N1778 1.356 . S
C1771 C1770 1.363 1_556 S
C1771 C1777 1.363 . S
C1772 C1773 1.363 . S
C1772 C1777 1.379 . S
C1772 N1779 1.356 . S
C1773 C1772 1.363 . S
C1773 C1776 1.363 1_556 S
N1774 C1776 1.356 . S
N1774 H1786 0.984 . S
N1774 H1787 0.985 . S
N1775 C1777 1.356 . S
N1775 H1780 0.984 . S
N1775 H1781 0.985 . S
C1776 C1770 1.379 . S
C1776 C1773 1.363 1_554 S
C1776 N1774 1.356 . S
C1777 C1771 1.363 . S
C1777 C1772 1.379 . S
C1777 N1775 1.356 . S
N1778 C1770 1.356 . S
N1778 H1784 0.984 . S
N1778 H1785 0.984 . S
N1779 C1772 1.356 . S
N1779 H1782 0.984 . S
N1779 H1783 0.985 . S
H1780 N1775 0.984 . S
H1781 N1775 0.985 . S
H1782 N1779 0.984 . S
H1783 N1779 0.985 . S
H1784 N1778 0.984 . S
H1785 N1778 0.984 . S
H1786 N1774 0.984 . S
H1787 N1774 0.985 . S
C1788 C1789 1.363 . S
C1788 C1794 1.379 . S
C1788 N1796 1.356 . S
C1789 C1788 1.363 . S
C1789 C1795 1.363 . S
C1790 C1791 1.363 . S
C1790 C1795 1.379 . S
C1790 N1797 1.356 . S
C1791 C1790 1.363 . S
C1791 C1794 1.363 . S
N1792 C1794 1.356 . S
N1792 H1804 0.984 . S
N1792 H1805 0.985 . S
N1793 C1795 1.356 . S
N1793 H1798 0.984 . S
N1793 H1799 0.985 . S
C1794 C1788 1.379 . S
C1794 C1791 1.363 . S
C1794 N1792 1.356 . S
C1795 C1789 1.363 . S
C1795 C1790 1.379 . S
C1795 N1793 1.356 . S
N1796 C1788 1.356 . S
N1796 H1802 0.984 . S
N1796 H1803 0.984 . S
N1797 C1790 1.356 . S
N1797 H1800 0.984 . S
N1797 H1801 0.985 . S
H1798 N1793 0.984 . S
H1799 N1793 0.985 . S
H1800 N1797 0.984 . S
H1801 N1797 0.985 . S
H1802 N1796 0.984 . S
H1803 N1796 0.984 . S
H1804 N1792 0.984 . S
H1805 N1792 0.985 . S
C1806 C1807 1.363 1_556 S
C1806 C1812 1.379 . S
C1806 N1814 1.356 . S
C1807 C1806 1.363 1_554 S
C1807 C1813 1.363 . S
C1808 C1809 1.363 1_554 S
C1808 C1813 1.379 . S
C1808 N1815 1.356 . S
C1809 C1808 1.363 1_556 S
C1809 C1812 1.363 . S
N1810 C1812 1.356 . S
N1810 H1822 0.984 . S
N1810 H1823 0.985 . S
N1811 C1813 1.356 . S
N1811 H1816 0.984 . S
N1811 H1817 0.985 . S
C1812 C1806 1.379 . S
C1812 C1809 1.363 . S
C1812 N1810 1.356 . S
C1813 C1807 1.363 . S
C1813 C1808 1.379 . S
C1813 N1811 1.356 . S
N1814 C1806 1.356 . S
N1814 H1820 0.984 . S
N1814 H1821 0.984 . S
N1815 C1808 1.356 . S
N1815 H1818 0.984 . S
N1815 H1819 0.985 . S
H1816 N1811 0.984 . S
H1817 N1811 0.985 . S
H1818 N1815 0.984 . S
H1819 N1815 0.985 . S
H1820 N1814 0.984 . S
H1821 N1814 0.984 . S
H1822 N1810 0.984 . S
H1823 N1810 0.985 . S
C1824 C1825 1.363 . S
C1824 C1830 1.379 . S
C1824 N1832 1.356 . S
C1825 C1824 1.363 . S
C1825 C1831 1.363 . S
C1826 C1827 1.363 . S
C1826 C1831 1.379 . S
C1826 N1833 1.356 . S
C1827 C1826 1.363 . S
C1827 C1830 1.363 . S
N1828 C1830 1.356 . S
N1828 H1840 0.984 . S
N1828 H1841 0.985 . S
N1829 C1831 1.356 . S
N1829 H1834 0.984 . S
N1829 H1835 0.985 . S
C1830 C1824 1.379 . S
C1830 C1827 1.363 . S
C1830 N1828 1.356 . S
C1831 C1825 1.363 . S
C1831 C1826 1.379 . S
C1831 N1829 1.356 . S
N1832 C1824 1.356 . S
N1832 H1838 0.984 . S
N1832 H1839 0.984 . S
N1833 C1826 1.356 . S
N1833 H1836 0.984 . S
N1833 H1837 0.985 . S
H1834 N1829 0.984 . S
H1835 N1829 0.985 . S
H1836 N1833 0.984 . S
H1837 N1833 0.985 . S
H1838 N1832 0.984 . S
H1839 N1832 0.984 . S
H1840 N1828 0.984 . S
H1841 N1828 0.985 . S
C1842 C1843 1.363 . S
C1842 C1848 1.379 1_655 S
C1842 N1850 1.356 1_655 S
C1843 C1842 1.363 . S
C1843 C1849 1.363 . S
C1844 C1845 1.363 . S
C1844 C1849 1.379 . S
C1844 N1851 1.356 . S
C1845 C1844 1.363 . S
C1845 C1848 1.363 1_655 S
N1846 C1848 1.356 . S
N1846 H1858 0.984 . S
N1846 H1859 0.985 . S
N1847 C1849 1.356 . S
N1847 H1852 0.984 . S
N1847 H1853 0.985 . S
C1848 C1842 1.379 1_455 S
C1848 C1845 1.363 1_455 S
C1848 N1846 1.356 . S
C1849 C1843 1.363 . S
C1849 C1844 1.379 . S
C1849 N1847 1.356 . S
N1850 C1842 1.356 1_455 S
N1850 H1856 0.984 . S
N1850 H1857 0.984 1_455 S
N1851 C1844 1.356 . S
N1851 H1854 0.984 . S
N1851 H1855 0.985 . S
H1852 N1847 0.984 . S
H1853 N1847 0.985 . S
H1854 N1851 0.984 . S
H1855 N1851 0.985 . S
H1856 N1850 0.984 . S
H1857 N1850 0.984 1_655 S
H1858 N1846 0.984 . S
H1859 N1846 0.985 . S
C1860 C1861 1.363 . S
C1860 C1866 1.379 . S
C1860 N1868 1.356 . S
C1861 C1860 1.363 . S
C1861 C1867 1.363 . S
C1862 C1863 1.363 . S
C1862 C1867 1.379 . S
C1862 N1869 1.356 . S
C1863 C1862 1.363 . S
C1863 C1866 1.363 . S
N1864 C1866 1.356 . S
N1864 H1876 0.984 . S
N1864 H1877 0.985 . S
N1865 C1867 1.356 . S
N1865 H1870 0.984 . S
N1865 H1871 0.985 . S
C1866 C1860 1.379 . S
C1866 C1863 1.363 . S
C1866 N1864 1.356 . S
C1867 C1861 1.363 . S
C1867 C1862 1.379 . S
C1867 N1865 1.356 . S
N1868 C1860 1.356 . S
N1868 H1874 0.984 . S
N1868 H1875 0.984 . S
N1869 C1862 1.356 . S
N1869 H1872 0.984 . S
N1869 H1873 0.985 . S
H1870 N1865 0.984 . S
H1871 N1865 0.985 . S
H1872 N1869 0.984 . S
H1873 N1869 0.985 . S
H1874 N1868 0.984 . S
H1875 N1868 0.984 . S
H1876 N1864 0.984 . S
H1877 N1864 0.985 . S
C1878 C1879 1.363 . S
C1878 C1884 1.379 . S
C1878 N1886 1.356 . S
C1879 C1878 1.363 . S
C1879 C1885 1.363 1_455 S
C1880 C1881 1.363 . S
C1880 C1885 1.379 . S
C1880 N1887 1.356 . S
C1881 C1880 1.363 . S
C1881 C1884 1.363 1_655 S
N1882 C1884 1.356 . S
N1882 H1894 0.984 . S
N1882 H1895 0.985 . S
N1883 C1885 1.356 . S
N1883 H1888 0.984 1_655 S
N1883 H1889 0.985 . S
C1884 C1878 1.379 . S
C1884 C1881 1.363 1_455 S
C1884 N1882 1.356 . S
C1885 C1879 1.363 1_655 S
C1885 C1880 1.379 . S
C1885 N1883 1.356 . S
N1886 C1878 1.356 . S
N1886 H1892 0.984 . S
N1886 H1893 0.984 . S
N1887 C1880 1.356 . S
N1887 H1890 0.984 . S
N1887 H1891 0.985 . S
H1888 N1883 0.984 1_455 S
H1889 N1883 0.985 . S
H1890 N1887 0.984 . S
H1891 N1887 0.985 . S
H1892 N1886 0.984 . S
H1893 N1886 0.984 . S
H1894 N1882 0.984 . S
H1895 N1882 0.985 . S
C1896 C1897 1.363 . S
C1896 C1902 1.379 . S
C1896 N1904 1.356 . S
C1897 C1896 1.363 . S
C1897 C1903 1.363 . S
C1898 C1899 1.363 . S
C1898 C1903 1.379 . S
C1898 N1905 1.356 . S
C1899 C1898 1.363 . S
C1899 C1902 1.363 . S
N1900 C1902 1.356 . S
N1900 H1912 0.984 . S
N1900 H1913 0.985 . S
N1901 C1903 1.356 . S
N1901 H1906 0.984 . S
N1901 H1907 0.985 . S
C1902 C1896 1.379 . S
C1902 C1899 1.363 . S
C1902 N1900 1.356 . S
C1903 C1897 1.363 . S
C1903 C1898 1.379 . S
C1903 N1901 1.356 . S
N1904 C1896 1.356 . S
N1904 H1910 0.984 . S
N1904 H1911 0.984 . S
N1905 C1898 1.356 . S
N1905 H1908 0.984 . S
N1905 H1909 0.985 . S
H1906 N1901 0.984 . S
H1907 N1901 0.985 . S
H1908 N1905 0.984 . S
H1909 N1905 0.985 . S
H1910 N1904 0.984 . S
H1911 N1904 0.984 . S
H1912 N1900 0.984 . S
H1913 N1900 0.985 . S
C1914 C1915 1.363 . S
C1914 C1920 1.379 . S
C1914 N1922 1.356 . S
C1915 C1914 1.363 . S
C1915 C1921 1.363 . S
C1916 C1917 1.363 . S
C1916 C1921 1.379 . S
C1916 N1923 1.356 . S
C1917 C1916 1.363 . S
C1917 C1920 1.363 . S
N1918 C1920 1.356 . S
N1918 H1930 0.984 . S
N1918 H1931 0.985 . S
N1919 C1921 1.356 . S
N1919 H1924 0.984 . S
N1919 H1925 0.985 . S
C1920 C1914 1.379 . S
C1920 C1917 1.363 . S
C1920 N1918 1.356 . S
C1921 C1915 1.363 . S
C1921 C1916 1.379 . S
C1921 N1919 1.356 . S
N1922 C1914 1.356 . S
N1922 H1928 0.984 . S
N1922 H1929 0.984 . S
N1923 C1916 1.356 . S
N1923 H1926 0.984 . S
N1923 H1927 0.985 . S
H1924 N1919 0.984 . S
H1925 N1919 0.985 . S
H1926 N1923 0.984 . S
H1927 N1923 0.985 . S
H1928 N1922 0.984 . S
H1929 N1922 0.984 . S
H1930 N1918 0.984 . S
H1931 N1918 0.985 . S
C1932 C1933 1.363 . S
C1932 C1938 1.379 . S
C1932 N1940 1.356 . S
C1933 C1932 1.363 . S
C1933 C1939 1.363 1_545 S
C1934 C1935 1.363 1_565 S
C1934 C1939 1.379 . S
C1934 N1941 1.356 . S
C1935 C1934 1.363 1_545 S
C1935 C1938 1.363 . S
N1936 C1938 1.356 . S
N1936 H1948 0.984 . S
N1936 H1949 0.985 . S
N1937 C1939 1.356 . S
N1937 H1942 0.984 . S
N1937 H1943 0.985 . S
C1938 C1932 1.379 . S
C1938 C1935 1.363 . S
C1938 N1936 1.356 . S
C1939 C1933 1.363 1_565 S
C1939 C1934 1.379 . S
C1939 N1937 1.356 . S
N1940 C1932 1.356 . S
N1940 H1946 0.984 . S
N1940 H1947 0.984 . S
N1941 C1934 1.356 . S
N1941 H1944 0.984 . S
N1941 H1945 0.985 . S
H1942 N1937 0.984 . S
H1943 N1937 0.985 . S
H1944 N1941 0.984 . S
H1945 N1941 0.985 . S
H1946 N1940 0.984 . S
H1947 N1940 0.984 . S
H1948 N1936 0.984 . S
H1949 N1936 0.985 . S
C1950 C1951 1.363 . S
C1950 C1956 1.379 . S
C1950 N1958 1.356 . S
C1951 C1950 1.363 . S
C1951 C1957 1.360 1_565 S
C1952 C1953 1.363 . S
C1952 C1957 1.378 1_565 S
C1952 N1959 1.356 1_565 S
C1953 C1952 1.363 . S
C1953 C1956 1.363 . S
N1954 C1956 1.356 . S
N1954 H1966 0.984 . S
N1954 H1967 0.985 . S
N1955 C1957 1.359 . S
N1955 H1960 0.984 . S
N1955 H1961 0.985 . S
C1956 C1950 1.379 . S
C1956 C1953 1.363 . S
C1956 N1954 1.356 . S
C1957 C1951 1.360 1_545 S
C1957 C1952 1.378 1_545 S
C1957 N1955 1.359 . S
N1958 C1950 1.356 . S
N1958 H1964 0.984 . S
N1958 H1965 0.984 . S
N1959 C1952 1.356 1_545 S
N1959 H1962 0.984 1_545 S
N1959 H1963 0.985 . S
H1960 N1955 0.984 . S
H1961 N1955 0.985 . S
H1962 N1959 0.984 1_565 S
H1963 N1959 0.985 . S
H1964 N1958 0.984 . S
H1965 N1958 0.984 . S
H1966 N1954 0.984 . S
H1967 N1954 0.985 . S
C1968 C1969 1.363 . S
C1968 C1974 1.379 . S
C1968 N1976 1.356 . S
C1969 C1968 1.363 . S
C1969 C1975 1.363 . S
C1970 C1971 1.363 . S
C1970 C1975 1.379 . S
C1970 N1977 1.356 . S
C1971 C1970 1.363 . S
C1971 C1974 1.363 . S
N1972 C1974 1.356 . S
N1972 H1984 0.984 . S
N1972 H1985 0.985 . S
N1973 C1975 1.356 . S
N1973 H1978 0.984 . S
N1973 H1979 0.985 . S
C1974 C1968 1.379 . S
C1974 C1971 1.363 . S
C1974 N1972 1.356 . S
C1975 C1969 1.363 . S
C1975 C1970 1.379 . S
C1975 N1973 1.356 . S
N1976 C1968 1.356 . S
N1976 H1982 0.984 . S
N1976 H1983 0.984 . S
N1977 C1970 1.356 . S
N1977 H1980 0.984 . S
N1977 H1981 0.985 . S
H1978 N1973 0.984 . S
H1979 N1973 0.985 . S
H1980 N1977 0.984 . S
H1981 N1977 0.985 . S
H1982 N1976 0.984 . S
H1983 N1976 0.984 . S
H1984 N1972 0.984 . S
H1985 N1972 0.985 . S
C1986 C1987 1.363 . S
C1986 C1992 1.379 . S
C1986 N1994 1.356 . S
C1987 C1986 1.363 . S
C1987 C1993 1.394 . S
C1988 C1989 1.363 . S
C1988 C1993 1.387 . S
C1988 N1995 1.356 1_556 S
C1989 C1988 1.363 . S
C1989 C1992 1.363 . S
N1990 C1992 1.356 . S
N1990 H2002 0.984 . S
N1990 H2003 0.985 . S
N1991 C1993 1.324 1_554 S
N1991 H1996 0.984 . S
N1991 H1997 0.985 . S
C1992 C1986 1.379 . S
C1992 C1989 1.363 . S
C1992 N1990 1.356 . S
C1993 C1987 1.394 . S
C1993 C1988 1.387 . S
C1993 N1991 1.324 1_556 S
N1994 C1986 1.356 . S
N1994 H2000 0.984 . S
N1994 H2001 0.984 . S
N1995 C1988 1.356 1_554 S
N1995 H1998 0.984 1_554 S
N1995 H1999 0.985 . S
H1996 N1991 0.984 . S
H1997 N1991 0.985 . S
H1998 N1995 0.984 1_556 S
H1999 N1995 0.985 . S
H2000 N1994 0.984 . S
H2001 N1994 0.984 . S
H2002 N1990 0.984 . S
H2003 N1990 0.985 . S
C2004 C2005 1.363 . S
C2004 C2010 1.379 . S
C2004 N2012 1.356 . S
C2005 C2004 1.363 . S
C2005 C2011 1.363 . S
C2006 C2007 1.363 . S
C2006 C2011 1.379 . S
C2006 N2013 1.356 . S
C2007 C2006 1.363 . S
C2007 C2010 1.363 . S
N2008 C2010 1.356 . S
N2008 H2020 0.984 . S
N2008 H2021 0.985 . S
N2009 C2011 1.356 . S
N2009 H2014 0.984 . S
N2009 H2015 0.985 . S
C2010 C2004 1.379 . S
C2010 C2007 1.363 . S
C2010 N2008 1.356 . S
C2011 C2005 1.363 . S
C2011 C2006 1.379 . S
C2011 N2009 1.356 . S
N2012 C2004 1.356 . S
N2012 H2018 0.984 . S
N2012 H2019 0.984 . S
N2013 C2006 1.356 . S
N2013 H2016 0.984 . S
N2013 H2017 0.985 . S
H2014 N2009 0.984 . S
H2015 N2009 0.985 . S
H2016 N2013 0.984 . S
H2017 N2013 0.985 . S
H2018 N2012 0.984 . S
H2019 N2012 0.984 . S
H2020 N2008 0.984 . S
H2021 N2008 0.985 . S
C2022 C2023 1.363 1_556 S
C2022 C2028 1.379 . S
C2022 N2030 1.356 . S
C2023 C2022 1.363 1_554 S
C2023 C2029 1.363 . S
C2024 C2025 1.363 . S
C2024 C2029 1.379 . S
C2024 N2031 1.356 . S
C2025 C2024 1.363 . S
C2025 C2028 1.363 1_554 S
N2026 C2028 1.356 . S
N2026 H2038 0.984 . S
N2026 H2039 0.985 . S
N2027 C2029 1.356 . S
N2027 H2032 0.984 . S
N2027 H2033 0.985 . S
C2028 C2022 1.379 . S
C2028 C2025 1.363 1_556 S
C2028 N2026 1.356 . S
C2029 C2023 1.363 . S
C2029 C2024 1.379 . S
C2029 N2027 1.356 . S
N2030 C2022 1.356 . S
N2030 H2036 0.984 . S
N2030 H2037 0.984 . S
N2031 C2024 1.356 . S
N2031 H2034 0.984 . S
N2031 H2035 0.985 . S
H2032 N2027 0.984 . S
H2033 N2027 0.985 . S
H2034 N2031 0.984 . S
H2035 N2031 0.985 . S
H2036 N2030 0.984 . S
H2037 N2030 0.984 . S
H2038 N2026 0.984 . S
H2039 N2026 0.985 . S
C2040 C2041 1.363 . S
C2040 C2046 1.379 . S
C2040 N2048 1.356 . S
C2041 C2040 1.363 . S
C2041 C2047 1.363 . S
C2042 C2043 1.363 . S
C2042 C2047 1.379 . S
C2042 N2049 1.356 . S
C2043 C2042 1.363 . S
C2043 C2046 1.363 . S
N2044 C2046 1.356 . S
N2044 H2056 0.984 . S
N2044 H2057 0.985 . S
N2045 C2047 1.356 . S
N2045 H2050 0.984 . S
N2045 H2051 0.985 . S
C2046 C2040 1.379 . S
C2046 C2043 1.363 . S
C2046 N2044 1.356 . S
C2047 C2041 1.363 . S
C2047 C2042 1.379 . S
C2047 N2045 1.356 . S
N2048 C2040 1.356 . S
N2048 H2054 0.984 . S
N2048 H2055 0.984 . S
N2049 C2042 1.356 . S
N2049 H2052 0.984 . S
N2049 H2053 0.985 . S
H2050 N2045 0.984 . S
H2051 N2045 0.985 . S
H2052 N2049 0.984 . S
H2053 N2049 0.985 . S
H2054 N2048 0.984 . S
H2055 N2048 0.984 . S
H2056 N2044 0.984 . S
H2057 N2044 0.985 . S
C2058 C2059 1.363 . S
C2058 C2064 1.379 . S
C2058 N2066 1.356 . S
C2059 C2058 1.363 . S
C2059 C2065 1.363 . S
C2060 C2061 1.363 . S
C2060 C2065 1.379 . S
C2060 N2067 1.360 . S
C2061 C2060 1.363 . S
C2061 C2064 1.363 . S
N2062 C2064 1.356 . S
N2062 H2074 0.984 . S
N2062 H2075 0.985 . S
N2063 C2065 1.356 1_455 S
N2063 H2068 0.984 . S
N2063 H2069 0.985 . S
C2064 C2058 1.379 . S
C2064 C2061 1.363 . S
C2064 N2062 1.356 . S
C2065 C2059 1.363 . S
C2065 C2060 1.379 . S
C2065 N2063 1.356 1_655 S
N2066 C2058 1.356 . S
N2066 H2072 0.984 . S
N2066 H2073 0.984 . S
N2067 C2060 1.360 . S
N2067 H2070 0.988 . S
N2067 H2071 0.977 1_655 S
H2068 N2063 0.984 . S
H2069 N2063 0.985 . S
H2070 N2067 0.988 . S
H2071 N2067 0.977 1_455 S
H2072 N2066 0.984 . S
H2073 N2066 0.984 . S
H2074 N2062 0.984 . S
H2075 N2062 0.985 . S
C2076 C2077 1.363 . S
C2076 C2082 1.379 . S
C2076 N2084 1.356 . S
C2077 C2076 1.363 . S
C2077 C2083 1.363 . S
C2078 C2079 1.363 . S
C2078 C2083 1.379 . S
C2078 N2085 1.356 . S
C2079 C2078 1.363 . S
C2079 C2082 1.363 . S
N2080 C2082 1.356 . S
N2080 H2092 0.984 . S
N2080 H2093 0.985 . S
N2081 C2083 1.356 . S
N2081 H2086 0.984 . S
N2081 H2087 0.985 . S
C2082 C2076 1.379 . S
C2082 C2079 1.363 . S
C2082 N2080 1.356 . S
C2083 C2077 1.363 . S
C2083 C2078 1.379 . S
C2083 N2081 1.356 . S
N2084 C2076 1.356 . S
N2084 H2090 0.984 . S
N2084 H2091 0.984 . S
N2085 C2078 1.356 . S
N2085 H2088 0.984 . S
N2085 H2089 0.985 . S
H2086 N2081 0.984 . S
H2087 N2081 0.985 . S
H2088 N2085 0.984 . S
H2089 N2085 0.985 . S
H2090 N2084 0.984 . S
H2091 N2084 0.984 . S
H2092 N2080 0.984 . S
H2093 N2080 0.985 . S
C2094 C2095 1.363 1_655 S
C2094 C2100 1.379 1_655 S
C2094 N2102 1.356 . S
C2095 C2094 1.363 1_455 S
C2095 C2101 1.363 . S
C2096 C2097 1.363 . S
C2096 C2101 1.379 . S
C2096 N2103 1.356 . S
C2097 C2096 1.363 . S
C2097 C2100 1.363 . S
N2098 C2100 1.356 1_655 S
N2098 H2110 0.984 . S
N2098 H2111 0.981 1_655 S
N2099 C2101 1.356 . S
N2099 H2104 0.984 . S
N2099 H2105 0.985 . S
C2100 C2094 1.379 1_455 S
C2100 C2097 1.363 . S
C2100 N2098 1.356 1_455 S
C2101 C2095 1.363 . S
C2101 C2096 1.379 . S
C2101 N2099 1.356 . S
N2102 C2094 1.356 . S
N2102 H2108 0.984 . S
N2102 H2109 0.984 . S
N2103 C2096 1.356 . S
N2103 H2106 0.984 . S
N2103 H2107 0.985 . S
H2104 N2099 0.984 . S
H2105 N2099 0.985 . S
H2106 N2103 0.984 . S
H2107 N2103 0.985 . S
H2108 N2102 0.984 . S
H2109 N2102 0.984 . S
H2110 N2098 0.984 . S
H2111 N2098 0.981 1_455 S
C2112 C2113 1.363 . S
C2112 C2118 1.379 . S
C2112 N2120 1.356 . S
C2113 C2112 1.363 . S
C2113 C2119 1.363 . S
C2114 C2115 1.363 . S
C2114 C2119 1.379 . S
C2114 N2121 1.356 . S
C2115 C2114 1.363 . S
C2115 C2118 1.363 . S
N2116 C2118 1.356 . S
N2116 H2128 0.984 . S
N2116 H2129 0.985 . S
N2117 C2119 1.356 . S
N2117 H2122 0.984 . S
N2117 H2123 0.985 . S
C2118 C2112 1.379 . S
C2118 C2115 1.363 . S
C2118 N2116 1.356 . S
C2119 C2113 1.363 . S
C2119 C2114 1.379 . S
C2119 N2117 1.356 . S
N2120 C2112 1.356 . S
N2120 H2126 0.984 . S
N2120 H2127 0.984 . S
N2121 C2114 1.356 . S
N2121 H2124 0.984 . S
N2121 H2125 0.985 . S
H2122 N2117 0.984 . S
H2123 N2117 0.985 . S
H2124 N2121 0.984 . S
H2125 N2121 0.985 . S
H2126 N2120 0.984 . S
H2127 N2120 0.984 . S
H2128 N2116 0.984 . S
H2129 N2116 0.985 . S
C2130 C2131 1.363 . S
C2130 C2136 1.379 . S
C2130 N2138 1.356 . S
C2131 C2130 1.363 . S
C2131 C2137 1.363 . S
C2132 C2133 1.363 . S
C2132 C2137 1.379 . S
C2132 N2139 1.356 . S
C2133 C2132 1.363 . S
C2133 C2136 1.363 . S
N2134 C2136 1.356 . S
N2134 H2146 0.984 . S
N2134 H2147 0.985 . S
N2135 C2137 1.356 . S
N2135 H2140 0.984 . S
N2135 H2141 0.985 . S
C2136 C2130 1.379 . S
C2136 C2133 1.363 . S
C2136 N2134 1.356 . S
C2137 C2131 1.363 . S
C2137 C2132 1.379 . S
C2137 N2135 1.356 . S
N2138 C2130 1.356 . S
N2138 H2144 0.984 . S
N2138 H2145 0.984 . S
N2139 C2132 1.356 . S
N2139 H2142 0.984 . S
N2139 H2143 0.985 . S
H2140 N2135 0.984 . S
H2141 N2135 0.985 . S
H2142 N2139 0.984 . S
H2143 N2139 0.985 . S
H2144 N2138 0.984 . S
H2145 N2138 0.984 . S
H2146 N2134 0.984 . S
H2147 N2134 0.985 . S
C2148 C2149 1.363 1_545 S
C2148 C2154 1.379 . S
C2148 N2156 1.356 . S
C2149 C2148 1.363 1_565 S
C2149 C2155 1.363 . S
C2150 C2151 1.363 . S
C2150 C2155 1.379 . S
C2150 N2157 1.356 . S
C2151 C2150 1.363 . S
C2151 C2154 1.363 1_565 S
N2152 C2154 1.356 . S
N2152 H2164 0.984 . S
N2152 H2165 0.985 . S
N2153 C2155 1.356 . S
N2153 H2158 0.984 . S
N2153 H2159 0.985 . S
C2154 C2148 1.379 . S
C2154 C2151 1.363 1_545 S
C2154 N2152 1.356 . S
C2155 C2149 1.363 . S
C2155 C2150 1.379 . S
C2155 N2153 1.356 . S
N2156 C2148 1.356 . S
N2156 H2162 0.984 . S
N2156 H2163 0.984 . S
N2157 C2150 1.356 . S
N2157 H2160 0.984 . S
N2157 H2161 0.985 . S
H2158 N2153 0.984 . S
H2159 N2153 0.985 . S
H2160 N2157 0.984 . S
H2161 N2157 0.985 . S
H2162 N2156 0.984 . S
H2163 N2156 0.984 . S
H2164 N2152 0.984 . S
H2165 N2152 0.985 . S
C2166 C2167 1.363 . S
C2166 C2172 1.379 . S
C2166 N2174 1.356 . S
C2167 C2166 1.363 . S
C2167 C2173 1.363 . S
C2168 C2169 1.363 . S
C2168 C2173 1.379 . S
C2168 N2175 1.356 . S
C2169 C2168 1.363 . S
C2169 C2172 1.363 . S
N2170 C2172 1.356 . S
N2170 H2182 0.984 . S
N2170 H2183 0.985 . S
N2171 C2173 1.356 1_565 S
N2171 H2176 0.984 . S
N2171 H2177 0.985 . S
C2172 C2166 1.379 . S
C2172 C2169 1.363 . S
C2172 N2170 1.356 . S
C2173 C2167 1.363 . S
C2173 C2168 1.379 . S
C2173 N2171 1.356 1_545 S
N2174 C2166 1.356 . S
N2174 H2180 0.984 . S
N2174 H2181 0.984 . S
N2175 C2168 1.356 . S
N2175 H2178 0.984 . S
N2175 H2179 0.985 . S
H2176 N2171 0.984 . S
H2177 N2171 0.985 . S
H2178 N2175 0.984 . S
H2179 N2175 0.985 . S
H2180 N2174 0.984 . S
H2181 N2174 0.984 . S
H2182 N2170 0.984 . S
H2183 N2170 0.985 . S
C2184 C2185 1.363 . S
C2184 C2190 1.379 . S
C2184 N2192 1.356 . S
C2185 C2184 1.363 . S
C2185 C2191 1.363 . S
C2186 C2187 1.363 . S
C2186 C2191 1.379 . S
C2186 N2193 1.356 . S
C2187 C2186 1.363 . S
C2187 C2190 1.363 . S
N2188 C2190 1.356 . S
N2188 H2200 0.984 . S
N2188 H2201 0.985 . S
N2189 C2191 1.356 . S
N2189 H2194 0.984 . S
N2189 H2195 0.985 . S
C2190 C2184 1.379 . S
C2190 C2187 1.363 . S
C2190 N2188 1.356 . S
C2191 C2185 1.363 . S
C2191 C2186 1.379 . S
C2191 N2189 1.356 . S
N2192 C2184 1.356 . S
N2192 H2198 0.984 . S
N2192 H2199 0.984 . S
N2193 C2186 1.356 . S
N2193 H2196 0.984 . S
N2193 H2197 0.985 . S
H2194 N2189 0.984 . S
H2195 N2189 0.985 . S
H2196 N2193 0.984 . S
H2197 N2193 0.985 . S
H2198 N2192 0.984 . S
H2199 N2192 0.984 . S
H2200 N2188 0.984 . S
H2201 N2188 0.985 . S
C2202 C2203 1.363 . S
C2202 C2208 1.379 . S
C2202 N2210 1.356 1_554 S
C2203 C2202 1.363 . S
C2203 C2209 1.363 . S
C2204 C2205 1.363 . S
C2204 C2209 1.379 . S
C2204 N2211 1.356 . S
C2205 C2204 1.363 . S
C2205 C2208 1.363 . S
N2206 C2208 1.356 . S
N2206 H2218 0.984 1_554 S
N2206 H2219 0.985 . S
N2207 C2209 1.356 . S
N2207 H2212 0.984 . S
N2207 H2213 0.985 . S
C2208 C2202 1.379 . S
C2208 C2205 1.363 . S
C2208 N2206 1.356 . S
C2209 C2203 1.363 . S
C2209 C2204 1.379 . S
C2209 N2207 1.356 . S
N2210 C2202 1.356 1_556 S
N2210 H2216 0.984 . S
N2210 H2217 0.984 . S
N2211 C2204 1.356 . S
N2211 H2214 0.984 . S
N2211 H2215 0.985 . S
H2212 N2207 0.984 . S
H2213 N2207 0.985 . S
H2214 N2211 0.984 . S
H2215 N2211 0.985 . S
H2216 N2210 0.984 . S
H2217 N2210 0.984 . S
H2218 N2206 0.984 1_556 S
H2219 N2206 0.985 . S
C2220 C2221 1.363 . S
C2220 C2226 1.379 . S
C2220 N2228 1.356 . S
C2221 C2220 1.363 . S
C2221 C2227 1.363 . S
C2222 C2223 1.363 . S
C2222 C2227 1.379 . S
C2222 N2229 1.356 . S
C2223 C2222 1.363 . S
C2223 C2226 1.363 . S
N2224 C2226 1.356 . S
N2224 H2236 0.984 . S
N2224 H2237 0.985 . S
N2225 C2227 1.356 . S
N2225 H2230 0.984 . S
N2225 H2231 0.985 . S
C2226 C2220 1.379 . S
C2226 C2223 1.363 . S
C2226 N2224 1.356 . S
C2227 C2221 1.363 . S
C2227 C2222 1.379 . S
C2227 N2225 1.356 . S
N2228 C2220 1.356 . S
N2228 H2234 0.984 . S
N2228 H2235 0.984 . S
N2229 C2222 1.356 . S
N2229 H2232 0.984 . S
N2229 H2233 0.985 . S
H2230 N2225 0.984 . S
H2231 N2225 0.985 . S
H2232 N2229 0.984 . S
H2233 N2229 0.985 . S
H2234 N2228 0.984 . S
H2235 N2228 0.984 . S
H2236 N2224 0.984 . S
H2237 N2224 0.985 . S
C2238 C2239 1.363 . S
C2238 C2244 1.379 . S
C2238 N2246 1.356 . S
C2239 C2238 1.363 . S
C2239 C2245 1.363 1_556 S
C2240 C2241 1.348 1_554 S
C2240 C2245 1.382 . S
C2240 N2247 1.365 . S
C2241 C2240 1.348 1_556 S
C2241 C2244 1.363 . S
N2242 C2244 1.356 . S
N2242 H2254 0.984 . S
N2242 H2255 0.985 . S
N2243 C2245 1.356 . S
N2243 H2248 0.984 . S
N2243 H2249 0.985 . S
C2244 C2238 1.379 . S
C2244 C2241 1.363 . S
C2244 N2242 1.356 . S
C2245 C2239 1.363 1_554 S
C2245 C2240 1.382 . S
C2245 N2243 1.356 . S
N2246 C2238 1.356 . S
N2246 H2252 0.984 . S
N2246 H2253 0.984 . S
N2247 C2240 1.365 . S
N2247 H2250 0.984 . S
N2247 H2251 0.985 . S
H2248 N2243 0.984 . S
H2249 N2243 0.985 . S
H2250 N2247 0.984 . S
H2251 N2247 0.985 . S
H2252 N2246 0.984 . S
H2253 N2246 0.984 . S
H2254 N2242 0.984 . S
H2255 N2242 0.985 . S
C2256 C2257 1.363 . S
C2256 C2262 1.379 . S
C2256 N2264 1.356 . S
C2257 C2256 1.363 . S
C2257 C2263 1.363 . S
C2258 C2259 1.363 . S
C2258 C2263 1.379 . S
C2258 N2265 1.356 . S
C2259 C2258 1.363 . S
C2259 C2262 1.363 . S
N2260 C2262 1.356 . S
N2260 H2272 0.984 . S
N2260 H2273 0.985 . S
N2261 C2263 1.356 . S
N2261 H2266 0.984 . S
N2261 H2267 0.985 . S
C2262 C2256 1.379 . S
C2262 C2259 1.363 . S
C2262 N2260 1.356 . S
C2263 C2257 1.363 . S
C2263 C2258 1.379 . S
C2263 N2261 1.356 . S
N2264 C2256 1.356 . S
N2264 H2270 0.984 . S
N2264 H2271 0.984 . S
N2265 C2258 1.356 . S
N2265 H2268 0.984 . S
N2265 H2269 0.985 . S
H2266 N2261 0.984 . S
H2267 N2261 0.985 . S
H2268 N2265 0.984 . S
H2269 N2265 0.985 . S
H2270 N2264 0.984 . S
H2271 N2264 0.984 . S
H2272 N2260 0.984 . S
H2273 N2260 0.985 . S
C2274 C2275 1.363 . S
C2274 C2280 1.379 . S
C2274 N2282 1.356 . S
C2275 C2274 1.363 . S
C2275 C2281 1.363 . S
C2276 C2277 1.363 . S
C2276 C2281 1.379 . S
C2276 N2283 1.356 . S
C2277 C2276 1.363 . S
C2277 C2280 1.363 . S
N2278 C2280 1.356 . S
N2278 H2290 0.984 . S
N2278 H2291 0.985 . S
N2279 C2281 1.356 1_655 S
N2279 H2284 0.984 . S
N2279 H2285 0.985 . S
C2280 C2274 1.379 . S
C2280 C2277 1.363 . S
C2280 N2278 1.356 . S
C2281 C2275 1.363 . S
C2281 C2276 1.379 . S
C2281 N2279 1.356 1_455 S
N2282 C2274 1.356 . S
N2282 H2288 0.984 . S
N2282 H2289 0.984 . S
N2283 C2276 1.356 . S
N2283 H2286 0.984 . S
N2283 H2287 0.985 1_455 S
H2284 N2279 0.984 . S
H2285 N2279 0.985 . S
H2286 N2283 0.984 . S
H2287 N2283 0.985 1_655 S
H2288 N2282 0.984 . S
H2289 N2282 0.984 . S
H2290 N2278 0.984 . S
H2291 N2278 0.985 . S
C2292 C2293 1.363 . S
C2292 C2298 1.379 . S
C2292 N2300 1.356 . S
C2293 C2292 1.363 . S
C2293 C2299 1.363 . S
C2294 C2295 1.363 . S
C2294 C2299 1.379 . S
C2294 N2301 1.356 . S
C2295 C2294 1.363 . S
C2295 C2298 1.363 . S
N2296 C2298 1.356 . S
N2296 H2308 0.984 . S
N2296 H2309 0.985 . S
N2297 C2299 1.356 . S
N2297 H2302 0.984 . S
N2297 H2303 0.985 . S
C2298 C2292 1.379 . S
C2298 C2295 1.363 . S
C2298 N2296 1.356 . S
C2299 C2293 1.363 . S
C2299 C2294 1.379 . S
C2299 N2297 1.356 . S
N2300 C2292 1.356 . S
N2300 H2306 0.984 . S
N2300 H2307 0.984 . S
N2301 C2294 1.356 . S
N2301 H2304 0.984 . S
N2301 H2305 0.985 . S
H2302 N2297 0.984 . S
H2303 N2297 0.985 . S
H2304 N2301 0.984 . S
H2305 N2301 0.985 . S
H2306 N2300 0.984 . S
H2307 N2300 0.984 . S
H2308 N2296 0.984 . S
H2309 N2296 0.985 . S
C2310 C2311 1.363 . S
C2310 C2316 1.379 . S
C2310 N2318 1.356 1_655 S
C2311 C2310 1.363 . S
C2311 C2317 1.363 . S
C2312 C2313 1.363 . S
C2312 C2317 1.379 . S
C2312 N2319 1.356 . S
C2313 C2312 1.363 . S
C2313 C2316 1.363 . S
N2314 C2316 1.350 1_455 S
N2314 H2326 0.997 . S
N2314 H2327 0.978 1_455 S
N2315 C2317 1.356 . S
N2315 H2320 0.984 . S
N2315 H2321 0.985 . S
C2316 C2310 1.379 . S
C2316 C2313 1.363 . S
C2316 N2314 1.350 1_655 S
C2317 C2311 1.363 . S
C2317 C2312 1.379 . S
C2317 N2315 1.356 . S
N2318 C2310 1.356 1_455 S
N2318 H2324 0.984 . S
N2318 H2325 0.984 . S
N2319 C2312 1.356 . S
N2319 H2322 0.984 . S
N2319 H2323 0.985 . S
H2320 N2315 0.984 . S
H2321 N2315 0.985 . S
H2322 N2319 0.984 . S
H2323 N2319 0.985 . S
H2324 N2318 0.984 . S
H2325 N2318 0.984 . S
H2326 N2314 0.997 . S
H2327 N2314 0.978 1_655 S
C1035 C1017 1.784 . S
C1033 C8 1.792 . S
C1053 C921 1.631 . S
C1051 C19 1.574 . S
C1071 C985 1.469 . S
C1069 C30 1.484 . S
C1089 C953 1.932 . S
C1087 C41 1.893 . S
C1107 C729 1.784 . S
C1105 C52 1.792 . S
C1123 C63 1.890 . S
C1125 C761 1.935 . S
C1143 C665 1.631 . S
C1141 C74 1.573 . S
C1159 C85 1.486 . S
C1161 C697 1.467 . S
C1179 C889 1.784 . S
C1177 C96 1.792 . S
C1195 C107 1.890 . S
C1197 C825 1.935 . S
C1213 C118 1.573 . S
C1215 C793 1.631 . S
C1233 C857 1.469 . S
C1231 C129 1.484 . S
C1251 C633 1.792 . S
C1249 C140 1.767 . S
C1267 C151 1.520 . S
C1269 C537 1.593 . S
C1287 C601 1.484 . S
C1285 C162 1.455 . S
C1303 C173 1.826 . S
C1305 C569 1.903 . S
C1323 C345 1.792 . S
C1321 C184 1.767 . S
C1341 C377 1.899 . S
C1339 C195 1.830 . S
C1357 C206 1.520 . S
C1359 C281 1.593 . S
C1375 C217 1.456 . S
C1377 C313 1.482 . S
C1393 C228 1.762 . S
C1395 C505 1.797 . S
C1411 C239 1.826 . S
C1413 C441 1.902 . S
C1431 C409 1.593 . S
C1429 C250 1.520 . S
C1447 C261 1.455 . S
C1449 C473 1.482 . S
C1467 C293 1.371 . S
C1465 C7 1.393 . S
C1485 C325 1.437 . S
C1483 C18 1.454 . S
C1501 C29 1.360 . S
C1503 C357 1.357 . S
C1519 C40 1.153 . S
C1521 C389 1.157 . S
C1539 C421 1.371 . S
C1537 C51 1.393 . S
C1555 C62 1.153 . S
C1557 C453 1.157 . S
C1575 C485 1.437 . S
C1573 C73 1.453 . S
C1593 C517 1.357 . S
C1591 C84 1.360 . S
C1611 C549 1.371 . S
C1609 C95 1.393 . S
C1627 C106 1.153 . S
C1629 C581 1.157 . S
C1645 C117 1.454 . S
C1647 C613 1.437 . S
C1663 C128 1.360 . S
C1665 C645 1.357 . S
C1681 C139 1.259 . S
C1683 C677 1.304 . S
C1699 C150 1.255 . S
C1701 C709 1.328 . S
C1717 C161 1.225 . S
C1719 C741 1.264 . S
C1735 C172 1.054 . S
C1737 C773 1.094 . S
C1753 C183 1.259 . S
C1755 C805 1.304 . S
C1773 C837 1.094 . S
C1771 C194 1.054 . S
C1791 C869 1.328 . S
C1789 C205 1.255 . S
C1809 C901 1.264 . S
C1807 C216 1.225 . S
C1827 C933 1.304 . S
C1825 C227 1.259 . S
C1843 C238 1.054 . S
C1845 C965 1.094 . S
C1861 C249 1.255 . S
C1863 C997 1.328 . S
C1879 C260 1.225 . S
C1881 C1029 1.264 . S
C1897 C5 1.489 . S
C1899 C543 1.785 . S
C1917 C639 1.772 . S
C1915 C16 1.493 . S
C1933 C27 1.326 1_545 S
C1935 C575 1.533 . S
C1953 C607 2.115 . S
C1951 C38 1.838 1_565 S
C1969 C49 1.489 . S
C1971 C287 1.785 . S
C1987 C60 1.840 1_556 S
C1989 C319 2.114 . S
C2005 C71 1.496 . S
C2007 C351 1.768 . S
C2023 C82 1.326 1_554 S
C2025 C383 1.533 . S
C2043 C415 1.785 . S
C2041 C93 1.489 . S
C2061 C479 2.115 . S
C2059 C104 1.838 1_655 S
C2077 C115 1.496 . S
C2079 C511 1.768 . S
C2095 C126 1.326 1_455 S
C2097 C447 1.533 . S
C2115 C927 1.645 . S
C2113 C137 1.305 . S
C2133 C1023 1.600 . S
C2131 C148 1.171 . S
C2149 C159 1.124 . S
C2151 C959 1.404 . S
C2169 C991 1.911 . S
C2167 C170 1.439 . S
C2185 C181 1.305 . S
C2187 C671 1.645 . S
C2203 C192 1.438 . S
C2205 C703 1.910 . S
C2221 C203 1.176 . S
C2223 C735 1.595 . S
C2241 C767 1.410 . S
C2239 C214 1.121 . S
C2259 C799 1.645 . S
C2257 C225 1.305 . S
C2277 C863 1.911 . S
C2275 C236 1.439 . S
C2293 C247 1.176 . S
C2295 C895 1.595 . S
C2313 C831 1.410 . S
C2311 C258 1.121 . S
