# Generated by pormake.
# Topology apo, (3,6)-cn, num edge types: 1
# Building blocks:
#     Node 0, Type 0, BuildingBlock: ESEHIV_clean_linker_0, # of connection points: 3
#     Node 1, Type 0, BuildingBlock: ESEHIV_clean_linker_0, # of connection points: 3
#     Node 2, Type 0, BuildingBlock: ESEHIV_clean_linker_0, # of connection points: 3
#     Node 3, Type 0, BuildingBlock: ESEHIV_clean_linker_0, # of connection points: 3
#     Node 4, Type 0, BuildingBlock: ESEHIV_clean_linker_0, # of connection points: 3
#     Node 5, Type 0, BuildingBlock: ESEHIV_clean_linker_0, # of connection points: 3
#     Node 6, Type 0, BuildingBlock: ESEHIV_clean_linker_0, # of connection points: 3
#     Node 7, Type 0, BuildingBlock: ESEHIV_clean_linker_0, # of connection points: 3
#     Node 8, Type 1, BuildingBlock: KUMBUR_clean_sbu_1, # of connection points: 6
#     Node 9, Type 1, BuildingBlock: KUMBUR_clean_sbu_1, # of connection points: 6
#     Node 10, Type 1, BuildingBlock: KUMBUR_clean_sbu_1, # of connection points: 6
#     Node 11, Type 1, BuildingBlock: KUMBUR_clean_sbu_1, # of connection points: 6
#     Edge 12, Type (0, 1), None
#     Edge 13, Type (0, 1), None
#     Edge 14, Type (0, 1), None
#     Edge 15, Type (0, 1), None
#     Edge 16, Type (0, 1), None
#     Edge 17, Type (0, 1), None
#     Edge 18, Type (0, 1), None
#     Edge 19, Type (0, 1), None
#     Edge 20, Type (0, 1), None
#     Edge 21, Type (0, 1), None
#     Edge 22, Type (0, 1), None
#     Edge 23, Type (0, 1), None
#     Edge 24, Type (0, 1), None
#     Edge 25, Type (0, 1), None
#     Edge 26, Type (0, 1), None
#     Edge 27, Type (0, 1), None
#     Edge 28, Type (0, 1), None
#     Edge 29, Type (0, 1), None
#     Edge 30, Type (0, 1), None
#     Edge 31, Type (0, 1), None
#     Edge 32, Type (0, 1), None
#     Edge 33, Type (0, 1), None
#     Edge 34, Type (0, 1), None
#     Edge 35, Type (0, 1), None
# Relax obj value: 0.004
# Max RMSD: 0.210
# Mean RMSD: 0.150
data_MOF--net-apo--node1-KUMBUR_clean_sbu_1--node2-ESEHIV_clean_linker_0--edge1-none
_symmetry_space_group_name_H-M    P1
_symmetry_Int_Tables_number       1
_symmetry_cell_setting            triclinic
loop_
_symmetry_equiv_pos_as_xyz
'x, y, z'
_cell_length_a     11.581799
_cell_length_b     15.957999
_cell_length_c     23.349941
_cell_angle_alpha  90.105958
_cell_angle_beta   90.040379
_cell_angle_gamma 85.935978
loop_
_atom_site_label
_atom_site_type_symbol
_atom_site_fract_x
_atom_site_fract_y
_atom_site_fract_z
_atom_type_partial_charge
H0 H 0.28087 0.52918 0.46971 0.0
H1 H 0.21906 0.37753 0.32109 0.0
H2 H 0.08874 0.31231 0.488 0.0
C3 C 0.24828 0.47372 0.45031 0.0
C4 C 0.18798 0.42099 0.48542 0.0
C5 C 0.25947 0.46023 0.39075 0.0
C6 C 0.21077 0.38897 0.3667 0.0
C7 C 0.15117 0.33277 0.40174 0.0
C8 C 0.13949 0.35083 0.461 0.0
H9 H 0.05583 0.96807 0.96973 0.0
H10 H 0.1199 0.11805 0.821 0.0
H11 H 0.2517 0.18317 0.98784 0.0
C12 C 0.0891 0.02315 0.9503 0.0
C13 C 0.15054 0.07547 0.98535 0.0
C14 C 0.07815 0.03627 0.89073 0.0
C15 C 0.12789 0.10695 0.86663 0.0
C16 C 0.18833 0.16292 0.90165 0.0
C17 C 0.20005 0.14505 0.9609 0.0
H18 H 0.71022 0.04704 0.63913 0.0
H19 H 0.60958 0.06341 0.81643 0.0
H20 H 0.56064 0.27834 0.70951 0.0
C21 C 0.67846 0.08345 0.67545 0.0
C22 C 0.63772 0.16813 0.66717 0.0
C23 C 0.67851 0.04625 0.73053 0.0
C24 C 0.61681 0.09049 0.77441 0.0
C25 C 0.56095 0.16985 0.76379 0.0
C26 C 0.58978 0.21271 0.71414 0.0
H27 H 0.63347 0.45016 0.13927 0.0
H28 H 0.734 0.43307 0.31666 0.0
H29 H 0.78471 0.21908 0.20845 0.0
C30 C 0.66554 0.41371 0.17543 0.0
C31 C 0.70708 0.32928 0.16666 0.0
C32 C 0.66483 0.45052 0.23076 0.0
C33 C 0.72721 0.40629 0.27445 0.0
C34 C 0.78385 0.32718 0.2634 0.0
C35 C 0.75566 0.28471 0.21336 0.0
H36 H 0.55878 0.46595 0.6782 0.0
H37 H 0.75095 0.68281 0.65992 0.0
H38 H 0.62059 0.6176 0.82682 0.0
C39 C 0.59137 0.52141 0.6976 0.0
C40 C 0.58017 0.5349 0.75716 0.0
C41 C 0.65169 0.57414 0.66249 0.0
C42 C 0.70019 0.6443 0.68692 0.0
C43 C 0.68849 0.66235 0.74617 0.0
C44 C 0.62888 0.60616 0.78121 0.0
H45 H 0.78384 0.02705 0.17819 0.0
H46 H 0.71978 0.87706 0.32692 0.0
H47 H 0.58796 0.81197 0.16007 0.0
C48 C 0.75057 0.97197 0.19762 0.0
C49 C 0.68912 0.91966 0.16257 0.0
C50 C 0.76152 0.95885 0.25719 0.0
C51 C 0.71179 0.88817 0.28128 0.0
C52 C 0.65135 0.8322 0.24626 0.0
C53 C 0.63962 0.85008 0.18702 0.0
H54 H 0.12941 0.94803 0.5088 0.0
H55 H 0.27897 0.71673 0.4384 0.0
H56 H 0.23005 0.93169 0.3315 0.0
C57 C 0.16116 0.91163 0.47247 0.0
C58 C 0.16112 0.94884 0.4174 0.0
C59 C 0.20189 0.82695 0.48075 0.0
C60 C 0.24982 0.78236 0.43377 0.0
C61 C 0.27866 0.82524 0.38412 0.0
C62 C 0.22281 0.90461 0.37351 0.0
H63 H 0.20622 0.54497 1.00865 0.0
H64 H 0.10572 0.56207 0.83126 0.0
H65 H 0.05499 0.77606 0.93947 0.0
C66 C 0.17416 0.58142 0.97249 0.0
C67 C 0.13262 0.66586 0.98125 0.0
C68 C 0.17486 0.54462 0.91716 0.0
C69 C 0.1125 0.58884 0.87347 0.0
C70 C 0.05586 0.66795 0.88451 0.0
C71 C 0.08405 0.71043 0.93456 0.0
Tb72 Tb 0.05244 0.12636 0.28353 0.0
C73 C 0.61911 0.11409 0.42395 0.0
N74 N 0.67594 0.158 0.38432 0.0
C75 C 0.49869 0.24036 0.36324 0.0
C76 C 0.49973 0.13227 0.4348 0.0
C77 C 0.61561 0.21805 0.35268 0.0
C78 C 0.44094 0.19836 0.40539 0.0
C79 C 0.62625 0.01116 0.49988 0.0
C80 C 0.68202 0.05446 0.45679 0.0
C81 C 0.50595 0.02207 0.50581 0.0
C82 C 0.44281 0.08403 0.47451 0.0
Tb83 Tb 0.87379 0.14228 0.39386 0.0
N84 N 0.79878 0.04393 0.44984 0.0
C85 C 0.6937 0.96187 0.53802 0.0
C86 C 0.86391 0.99154 0.48481 0.0
C87 C 0.8128 0.95064 0.52996 0.0
H88 H 0.65588 0.25044 0.32019 0.0
H89 H 0.86507 0.91338 0.56002 0.0
H90 H 0.29273 0.05651 0.36556 0.0
H91 H 0.02138 0.32401 0.10131 0.0
H92 H -0.04454 0.98859 0.48152 0.0
H93 H 0.65469 0.93448 0.57502 0.0
H94 H -0.03939 0.28523 0.19743 0.0
H95 H 0.45315 0.28966 0.33854 0.0
H96 H 0.46165 0.98286 0.53462 0.0
H97 H 0.35035 0.09432 0.48146 0.0
H98 H 0.49287 0.0164 0.34163 0.0
H99 H 0.35018 0.2151 0.41338 0.0
H100 H 0.2226 0.28517 1.0704 0.0
N101 N 0.25233 0.12029 0.28776 0.0
C102 C 0.30043 0.15509 0.24112 0.0
C103 C 0.43956 0.05551 0.31277 0.0
C104 C 0.41943 0.14097 0.22845 0.0
C105 C 0.32266 0.07549 0.32523 0.0
C106 C 0.4885 0.08948 0.26457 0.0
N107 N 0.11679 0.21947 0.21926 0.0
C108 C 0.04624 0.26899 0.185 0.0
C109 C 0.27235 0.23088 0.15215 0.0
C110 C 0.22954 0.20366 0.20483 0.0
C111 C 0.19478 0.26921 0.11305 0.0
C112 C 0.08165 0.29105 0.1303 0.0
H113 H 0.57968 0.07702 0.2561 0.0
H114 H 0.55573 0.16524 0.16842 0.0
H115 H 0.4221 0.23558 0.09848 0.0
O116 O 0.00472 0.09958 0.19953 0.0
O117 O 0.10593 0.24194 0.32172 0.0
O118 O 0.0333 0.2111 0.41025 0.0
O119 O 0.12157 0.01227 0.24832 0.0
O120 O 0.88796 0.20413 0.30738 0.0
O121 O 0.88242 0.20611 0.31043 0.0
O122 O 0.89689 0.16232 0.48202 0.0
O123 O 0.81374 0.03191 0.34691 0.0
O124 O 0.89008 0.07046 0.26114 0.0
O125 O 0.81084 0.25845 0.42656 0.0
O126 O 0.02866 0.05698 0.37125 0.0
O127 O 0.0337 0.05667 0.3675 0.0
C128 C 0.09447 0.25866 0.37664 0.0
C129 C 0.14941 0.02132 0.146 0.0
C130 C 0.18483 0.04405 1.04342 0.0
C131 C 0.28085 0.98627 1.04691 0.0
C132 C 0.24916 0.96626 0.14799 0.0
C133 C 0.31153 0.94663 0.09836 0.0
C134 C 0.11689 0.06018 0.093 0.0
C135 C 0.86663 0.2875 0.30576 0.0
C136 C 0.0752 0.03169 0.19785 0.0
C137 C 0.46452 0.17516 0.17862 0.0
C138 C 0.3897 0.21627 0.13922 0.0
C139 C 0.82626 0.02115 0.29099 0.0
C140 C 0.7288 0.24031 0.51849 0.0
C141 C 0.63565 0.20946 0.60954 0.0
C142 C 0.54311 0.26747 0.59436 0.0
C143 C 0.63235 0.2945 0.50395 0.0
C144 C 0.72706 0.19489 0.57032 0.0
C145 C 0.54048 0.30792 0.54167 0.0
C146 C 0.10954 0.03705 0.40917 0.0
C147 C 0.82994 0.23232 0.47938 0.0
H148 H 0.33273 0.97253 1.00925 0.0
H149 H 0.27658 0.9354 0.18749 0.0
H150 H 0.38491 0.90088 0.10002 0.0
H151 H 0.03872 0.10127 0.09006 0.0
H152 H 0.47188 0.28237 0.62295 0.0
H153 H 0.62805 0.32775 0.46356 0.0
H154 H 0.79865 0.15091 0.58122 0.0
H155 H 0.46784 0.35111 0.53033 0.0
Tb156 Tb 0.28885 0.36788 0.78316 0.0
C157 C 0.72024 0.38514 0.92536 0.0
N158 N 0.66466 0.33829 0.88673 0.0
C159 C 0.84349 0.25584 0.86859 0.0
C160 C 0.8399 0.36894 0.93676 0.0
C161 C 0.72598 0.2754 0.85789 0.0
C162 C 0.90041 0.30198 0.90894 0.0
C163 C 0.70957 0.48916 1.0009 0.0
C164 C 0.65555 0.44473 0.95759 0.0
C165 C 0.82985 0.48012 1.00737 0.0
C166 C 0.89503 0.41896 0.97623 0.0
Tb167 Tb 0.46623 0.35341 0.89459 0.0
N168 N 0.53868 0.4534 0.9504 0.0
C169 C 0.64045 0.53727 1.03903 0.0
C170 C 0.47195 0.50507 0.98522 0.0
C171 C 0.52146 0.54674 1.03062 0.0
H172 H 0.68525 0.23653 0.82919 0.0
H173 H 0.46827 0.58312 1.06072 0.0
H174 H 0.04593 0.43607 0.86327 0.0
H175 H 0.32812 0.16688 0.60178 0.0
H176 H 0.38053 0.50646 0.98175 0.0
H177 H 0.67813 0.56534 0.07625 0.0
H178 H 0.38531 0.20785 0.69807 0.0
H179 H 0.88959 0.20435 0.84613 0.0
H180 H 0.87238 0.51965 1.03693 0.0
H181 H -0.01254 0.40986 0.98371 0.0
H182 H 0.84521 0.47305 0.83833 0.0
H183 H -0.00865 0.28662 0.9175 0.0
H184 H 0.1284 0.20574 0.56855 0.0
N185 N 0.08907 0.37177 0.78586 0.0
C186 C 0.04306 0.33665 0.73867 0.0
C187 C 0.9 0.43437 0.8098 0.0
C188 C -0.07564 0.34978 0.72505 0.0
C189 C 0.01703 0.41607 0.82289 0.0
C190 C 0.85306 0.39993 0.76112 0.0
N191 N 0.22817 0.27367 0.71827 0.0
C192 C 0.30022 0.22388 0.68481 0.0
C193 C 0.07534 0.26117 0.64964 0.0
C194 C 0.11586 0.28873 0.70281 0.0
C195 C 0.1545 0.22237 0.61143 0.0
C196 C 0.26683 0.20062 0.62994 0.0
H197 H 0.76191 0.41158 0.752 0.0
H198 H 0.79104 0.32579 0.66325 0.0
H199 H -0.07193 0.25649 0.59421 0.0
O200 O 0.33556 0.39555 0.69928 0.0
O201 O 0.23523 0.2527 0.82159 0.0
O202 O 0.30698 0.28417 0.91038 0.0
O203 O 0.21861 0.48208 0.7488 0.0
O204 O 0.45381 0.29159 0.80787 0.0
O205 O 0.45933 0.28962 0.81094 0.0
O206 O 0.44387 0.33386 0.98281 0.0
O207 O 0.52714 0.46267 0.84689 0.0
O208 O 0.45106 0.42379 0.76088 0.0
O209 O 0.52816 0.23703 0.92719 0.0
O210 O 0.31055 0.4378 0.87126 0.0
O211 O 0.30528 0.43811 0.86732 0.0
C212 C 0.24604 0.23647 0.87658 0.0
C213 C 0.18995 0.47384 0.64642 0.0
C214 C 0.15413 0.45214 0.54367 0.0
C215 C 0.05831 0.51007 0.54753 0.0
C216 C 0.09015 0.52883 0.6488 0.0
C217 C 0.02764 0.549 0.5993 0.0
C218 C 0.22214 0.43538 0.59316 0.0
C219 C 0.47646 0.2084 0.80581 0.0
C220 C 0.26462 0.46324 0.69813 0.0
C221 C 0.88182 0.31613 0.67434 0.0
C222 C -0.04143 0.27567 0.63545 0.0
C223 C 0.51518 0.47289 0.79088 0.0
C224 C 0.61237 0.25572 1.01867 0.0
C225 C 0.70813 0.28775 0.10898 0.0
C226 C 0.80033 0.22967 0.09339 0.0
C227 C 0.70818 0.20105 1.00384 0.0
C228 C 0.61575 0.30185 1.07027 0.0
C229 C 0.80127 0.18831 1.04093 0.0
C230 C 0.22792 0.45674 0.9085 0.0
C231 C 0.51035 0.26364 0.98004 0.0
H232 H 0.00657 0.52446 0.5099 0.0
H233 H 0.06295 0.55934 0.68851 0.0
H234 H -0.04576 0.59473 0.60127 0.0
H235 H 0.30018 0.39419 0.58994 0.0
H236 H 0.87242 0.21526 0.12154 0.0
H237 H 0.71113 0.16702 0.96368 0.0
H238 H 0.54464 0.3459 0.08148 0.0
H239 H 0.87355 0.14492 1.02931 0.0
Tb240 Tb -0.03412 0.85284 0.75406 0.0
C241 C 0.53931 0.84001 0.90684 0.0
N242 N 0.58738 0.87479 0.86018 0.0
C243 C 0.40012 0.93957 0.8352 0.0
C244 C 0.42032 0.85413 0.91953 0.0
C245 C 0.51701 0.9196 0.82272 0.0
C246 C 0.35122 0.90561 0.88341 0.0
C247 C 0.56744 0.76423 0.99581 0.0
C248 C 0.61023 0.79144 0.94312 0.0
C249 C 0.45011 0.77886 1.00875 0.0
C250 C 0.37526 0.81996 0.96937 0.0
Tb251 Tb 0.78724 0.86874 0.8644 0.0
N252 N 0.72296 0.77556 0.92864 0.0
C253 C 0.64502 0.72589 1.03489 0.0
C254 C 0.79351 0.72606 0.96293 0.0
C255 C 0.75812 0.70403 1.01763 0.0
H256 H 0.54692 0.93858 0.78239 0.0
H257 H 0.81839 0.67105 1.04661 0.0
H258 H 0.1838 0.74468 0.82769 0.0
H259 H -0.02549 0.08172 0.58789 0.0
H260 H 0.87911 0.70976 0.95048 0.0
H261 H 0.61721 0.70993 0.07755 0.0
H262 H 0.88417 0.00647 0.66639 0.0
H263 H 0.34679 0.97867 0.80634 0.0
H264 H 0.41772 0.75956 1.0495 0.0
H265 H 0.28405 0.82988 0.97958 0.0
H266 H 0.38654 0.70549 0.80936 0.0
H267 H 0.26004 0.91807 0.89189 0.0
H268 H 0.1849 0.06065 0.57288 0.0
N269 N 0.16375 0.83714 0.76358 0.0
C270 C 0.22056 0.88106 0.72395 0.0
C271 C 0.341 0.75479 0.78466 0.0
C272 C 0.33995 0.8629 0.7131 0.0
C273 C 0.22408 0.77709 0.79522 0.0
C274 C 0.39875 0.79681 0.74251 0.0
N275 N 0.04088 0.95116 0.69805 0.0
C276 C -0.02429 0.00355 0.66309 0.0
C277 C 0.21338 0.98399 0.64803 0.0
C278 C 0.15764 0.94068 0.69112 0.0
C279 C 0.14591 0.03325 0.60988 0.0
C280 C 0.02681 0.04446 0.61794 0.0
H281 H 0.48951 0.78008 0.73452 0.0
H282 H 0.48932 0.90088 0.66645 0.0
H283 H 0.37797 0.01232 0.61329 0.0
O284 O -0.05724 0.83277 0.6659 0.0
O285 O 0.02593 0.96321 0.80101 0.0
O286 O -0.0504 0.92466 0.88679 0.0
O287 O 0.02884 0.73666 0.72137 0.0
O288 O 0.81101 0.93813 0.77668 0.0
O289 O 0.80596 0.93844 0.78043 0.0
O290 O 0.83494 0.89552 0.9484 0.0
O291 O 0.73374 0.75317 0.82619 0.0
O292 O 0.80637 0.78402 0.73766 0.0
O293 O 0.7181 0.98283 0.8996 0.0
O294 O -0.04827 0.79099 0.84053 0.0
O295 O -0.04273 0.78901 0.83749 0.0
C296 C 0.01342 0.97396 0.85693 0.0
C297 C 0.11084 0.75477 0.62943 0.0
C298 C 0.20397 0.78562 0.53837 0.0
C299 C 0.29652 0.72761 0.55355 0.0
C300 C 0.20731 0.7006 0.64398 0.0
C301 C 0.29917 0.68717 0.60625 0.0
C302 C 0.11256 0.80019 0.5776 0.0
C303 C 0.73011 0.95805 0.73876 0.0
C304 C 0.00972 0.76277 0.66854 0.0
C305 C 0.39685 0.91115 0.6734 0.0
C306 C 0.33369 0.9731 0.6421 0.0
C307 C 0.7452 0.73646 0.77127 0.0
C308 C 0.69027 0.9738 1.00192 0.0
C309 C 0.65484 0.95108 0.1045 0.0
C310 C 0.55884 0.00888 0.10101 0.0
C311 C 0.59053 0.02888 0.99994 0.0
C312 C 0.72277 0.93494 1.05492 0.0
C313 C 0.52818 0.04852 1.04956 0.0
C314 C -0.02693 0.70762 0.84215 0.0
C315 C 0.76447 0.96341 0.95008 0.0
H316 H 0.36774 0.7127 0.52495 0.0
H317 H 0.21163 0.66737 0.68437 0.0
H318 H 0.37182 0.64399 0.61759 0.0
H319 H 0.04097 0.84416 0.5667 0.0
H320 H 0.50697 0.02264 0.13868 0.0
H321 H 0.56313 0.05975 0.96043 0.0
H322 H 0.80092 0.89383 1.05787 0.0
H323 H 0.4548 0.09428 1.0479 0.0
Tb324 Tb 0.37345 0.64172 0.25331 0.0
C325 C 0.79655 0.65851 0.40926 0.0
N326 N 0.75057 0.62339 0.36206 0.0
C327 C -0.06033 0.56081 0.33814 0.0
C328 C 0.91524 0.64539 0.4229 0.0
C329 C 0.82264 0.57909 0.32505 0.0
C330 C -0.01343 0.59526 0.38684 0.0
C331 C 0.76421 0.73395 0.49831 0.0
C332 C 0.72372 0.70642 0.44513 0.0
C333 C 0.88098 0.71945 0.51251 0.0
C334 C -0.04225 0.67901 0.47362 0.0
Tb335 Tb 0.55081 0.62725 0.36476 0.0
N336 N 0.61141 0.72152 0.42963 0.0
C337 C 0.68505 0.77275 0.53652 0.0
C338 C 0.53937 0.77128 0.46312 0.0
C339 C 0.57273 0.79451 0.518 0.0
H340 H 0.79376 0.55907 0.28467 0.0
H341 H 0.51144 0.82825 0.54615 0.0
H342 H 0.15447 0.75884 0.31851 0.0
H343 H 0.37148 0.41203 0.08718 0.0
H344 H 0.45428 0.78735 0.44985 0.0
H345 H 0.71114 0.78937 0.57939 0.0
H346 H 0.45917 0.48874 0.16614 0.0
H347 H -0.00553 0.52213 0.30963 0.0
H348 H 0.91146 0.73862 0.55376 0.0
H349 H 0.04852 0.66936 0.48473 0.0
H350 H -0.04992 0.79086 0.30165 0.0
H351 H 0.07772 0.58361 0.39597 0.0
H352 H 0.1616 0.42974 1.07167 0.0
N353 N 0.175 0.65686 0.26115 0.0
C354 C 0.11942 0.60994 0.22255 0.0
C355 C -0.00383 0.73932 0.27924 0.0
C356 C -0.00024 0.62611 0.21116 0.0
C357 C 0.1137 0.71981 0.28993 0.0
C358 C -0.06076 0.69309 0.23895 0.0
N359 N 0.301 0.54175 0.19749 0.0
C360 C 0.36776 0.49009 0.16268 0.0
C361 C 0.13013 0.5059 0.14702 0.0
C362 C 0.18413 0.55035 0.19033 0.0
C363 C 0.19927 0.45782 0.10888 0.0
C364 C 0.31827 0.4484 0.11729 0.0
H365 H 0.84829 0.70843 0.23039 0.0
H366 H 0.8522 0.58511 0.16423 0.0
H367 H -0.03268 0.47534 0.11102 0.0
O368 O 0.39583 0.66128 0.1651 0.0
O369 O 0.31252 0.53247 0.30102 0.0
O370 O 0.38861 0.57133 0.38704 0.0
O371 O 0.31157 0.75812 0.22072 0.0
O372 O 0.52912 0.55733 0.27666 0.0
O373 O 0.5344 0.55702 0.2806 0.0
O374 O 0.50412 0.59957 0.44864 0.0
O375 O 0.60442 0.74243 0.32633 0.0
O376 O 0.53271 0.71095 0.23753 0.0
O377 O 0.62108 0.51306 0.39912 0.0
O378 O 0.38584 0.70352 0.34004 0.0
O379 O 0.38033 0.70549 0.33697 0.0
C380 C 0.32447 0.52224 0.35703 0.0
C381 C 0.22734 0.73943 0.12924 0.0
C382 C 0.13157 0.70739 1.03893 0.0
C383 C 0.03937 0.76547 1.05453 0.0
C384 C 0.13154 0.79409 0.14407 0.0
C385 C 0.03843 0.80683 0.10698 0.0
C386 C 0.22396 0.6933 0.07764 0.0
C387 C 0.61177 0.5384 0.23942 0.0
C388 C 0.32937 0.7315 0.16787 0.0
C389 C -0.05537 0.57604 0.17171 0.0
C390 C 0.00984 0.51489 0.14058 0.0
C391 C 0.59363 0.75865 0.27134 0.0
C392 C 0.64973 0.52128 0.50149 0.0
C393 C 0.68555 0.54299 0.60425 0.0
C394 C 0.78136 0.48505 0.60039 0.0
C395 C 0.74952 0.46629 0.49912 0.0
C396 C 0.61754 0.55974 0.55476 0.0
C397 C 0.81203 0.44611 0.54862 0.0
C398 C 0.36318 0.7867 0.34211 0.0
C399 C 0.57506 0.53189 0.44978 0.0
H400 H -0.03272 0.77988 1.02638 0.0
H401 H 0.12858 0.82813 0.18423 0.0
H402 H -0.03384 0.85021 0.11861 0.0
H403 H 0.29508 0.64925 1.06643 0.0
H404 H 0.8331 0.47066 0.63802 0.0
H405 H 0.77672 0.43577 0.45941 0.0
H406 H 0.5395 0.60094 0.55797 0.0
H407 H 0.88543 0.40038 0.54665 0.0
loop_
_geom_bond_atom_site_label_1
_geom_bond_atom_site_label_2
_geom_bond_distance
_geom_bond_site_symmetry_2
_ccdc_geom_bond_type
H0 C3 0.931 . S
H1 C6 0.928 . S
H2 C8 0.930 . S
C3 H0 0.931 . S
C3 C4 1.413 . S
C3 C5 1.360 . S
C4 C3 1.413 . S
C4 C8 1.429 . S
C5 C3 1.360 . S
C5 C6 1.372 . S
C6 H1 0.928 . S
C6 C5 1.372 . S
C6 C7 1.404 . S
C7 C6 1.404 . S
C7 C8 1.391 . S
C8 H2 0.930 . S
C8 C4 1.429 . S
C8 C7 1.391 . S
H9 C12 0.931 . S
H10 C15 0.928 . S
H11 C17 0.930 . S
C12 H9 0.931 . S
C12 C13 1.413 . S
C12 C14 1.360 . S
C13 C12 1.413 . S
C13 C17 1.429 . S
C14 C12 1.360 . S
C14 C15 1.372 . S
C15 H10 0.928 . S
C15 C14 1.372 . S
C15 C16 1.404 . S
C16 C15 1.404 . S
C16 C17 1.391 . S
C17 H11 0.930 . S
C17 C13 1.429 . S
C17 C16 1.391 . S
H18 C21 0.931 . S
H19 C24 0.928 . S
H20 C26 0.930 . S
C21 H18 0.931 . S
C21 C22 1.413 . S
C21 C23 1.360 . S
C22 C21 1.413 . S
C22 C26 1.429 . S
C23 C21 1.360 . S
C23 C24 1.372 . S
C24 H19 0.928 . S
C24 C23 1.372 . S
C24 C25 1.404 . S
C25 C24 1.404 . S
C25 C26 1.391 . S
C26 H20 0.930 . S
C26 C22 1.429 . S
C26 C25 1.391 . S
H27 C30 0.931 . S
H28 C33 0.928 . S
H29 C35 0.930 . S
C30 H27 0.931 . S
C30 C31 1.413 . S
C30 C32 1.360 . S
C31 C30 1.413 . S
C31 C35 1.429 . S
C32 C30 1.360 . S
C32 C33 1.372 . S
C33 H28 0.928 . S
C33 C32 1.372 . S
C33 C34 1.404 . S
C34 C33 1.404 . S
C34 C35 1.391 . S
C35 H29 0.930 . S
C35 C31 1.429 . S
C35 C34 1.391 . S
H36 C39 0.931 . S
H37 C42 0.928 . S
H38 C44 0.930 . S
C39 H36 0.931 . S
C39 C40 1.413 . S
C39 C41 1.360 . S
C40 C39 1.413 . S
C40 C44 1.429 . S
C41 C39 1.360 . S
C41 C42 1.372 . S
C42 H37 0.928 . S
C42 C41 1.372 . S
C42 C43 1.404 . S
C43 C42 1.404 . S
C43 C44 1.391 . S
C44 H38 0.930 . S
C44 C40 1.429 . S
C44 C43 1.391 . S
H45 C48 0.931 . S
H46 C51 0.928 . S
H47 C53 0.930 . S
C48 H45 0.931 . S
C48 C49 1.413 . S
C48 C50 1.360 . S
C49 C48 1.413 . S
C49 C53 1.429 . S
C50 C48 1.360 . S
C50 C51 1.372 . S
C51 H46 0.928 . S
C51 C50 1.372 . S
C51 C52 1.404 . S
C52 C51 1.404 . S
C52 C53 1.391 . S
C53 H47 0.930 . S
C53 C49 1.429 . S
C53 C52 1.391 . S
H54 C57 0.931 . S
H55 C60 0.928 . S
H56 C62 0.930 . S
C57 H54 0.931 . S
C57 C58 1.413 . S
C57 C59 1.360 . S
C58 C57 1.413 . S
C58 C62 1.429 . S
C59 C57 1.360 . S
C59 C60 1.372 . S
C60 H55 0.928 . S
C60 C59 1.372 . S
C60 C61 1.404 . S
C61 C60 1.404 . S
C61 C62 1.391 . S
C62 H56 0.930 . S
C62 C58 1.429 . S
C62 C61 1.391 . S
H63 C66 0.931 . S
H64 C69 0.928 . S
H65 C71 0.930 . S
C66 H63 0.931 . S
C66 C67 1.413 . S
C66 C68 1.360 . S
C67 C66 1.413 . S
C67 C71 1.429 . S
C68 C66 1.360 . S
C68 C69 1.372 . S
C69 H64 0.928 . S
C69 C68 1.372 . S
C69 C70 1.404 . S
C70 C69 1.404 . S
C70 C71 1.391 . S
C71 H65 0.930 . S
C71 C67 1.429 . S
C71 C70 1.391 . S
Tb72 N101 2.617 . S
Tb72 N107 2.572 . S
Tb72 O116 2.465 . S
Tb72 O117 2.387 . S
Tb72 O119 2.428 . S
Tb72 O120 2.308 1_455 S
Tb72 O124 2.349 1_455 S
Tb72 O127 2.393 . S
Tb72 C136 2.802 . S
C73 N74 1.379 . S
C73 C76 1.416 . S
C73 C80 1.424 . S
N74 C73 1.379 . S
N74 C77 1.334 . S
N74 Tb83 2.617 . S
C75 C77 1.390 . S
C75 C78 1.339 . S
C75 H95 0.930 . S
C76 C73 1.416 . S
C76 C78 1.416 . S
C76 C82 1.448 1_545 S
C77 N74 1.334 . S
C77 C75 1.390 . S
C77 H88 0.930 . S
C78 C75 1.339 . S
C78 C76 1.416 . S
C78 H99 0.930 . S
C79 C80 1.413 1_565 S
C79 C81 1.427 . S
C79 C85 1.416 . S
C80 C73 1.424 . S
C80 C79 1.413 1_545 S
C80 N84 1.361 . S
C81 C79 1.427 . S
C81 C82 1.328 . S
C81 H96 0.929 . S
C82 C76 1.448 1_565 S
C82 C81 1.328 . S
C82 H97 0.930 . S
Tb83 N74 2.617 . S
Tb83 N84 2.572 . S
Tb83 O118 2.349 1_655 S
Tb83 O121 2.393 . S
Tb83 O122 2.465 . S
Tb83 O123 2.387 . S
Tb83 O125 2.428 . S
Tb83 O126 2.308 1_655 S
Tb83 C147 2.802 . S
N84 C80 1.361 . S
N84 Tb83 2.572 . S
N84 C86 1.340 1_545 S
C85 C79 1.416 . S
C85 C87 1.332 . S
C85 H93 0.931 . S
C86 N84 1.340 1_565 S
C86 C87 1.407 . S
C86 H92 0.930 . S
C87 C85 1.332 . S
C87 C86 1.407 . S
C87 H89 0.929 . S
H88 C77 0.930 . S
H89 C87 0.929 . S
H90 C105 0.930 . S
H91 C112 0.929 . S
H92 C86 0.930 . S
H93 C85 0.931 . S
H94 C108 0.930 . S
H95 C75 0.930 . S
H96 C81 0.929 . S
H97 C82 0.930 . S
H98 C103 0.930 . S
H99 C78 0.930 . S
H100 C111 0.931 . S
N101 Tb72 2.617 . S
N101 C102 1.379 . S
N101 C105 1.334 . S
C102 N101 1.379 . S
C102 C104 1.416 . S
C102 C110 1.424 . S
C103 H98 0.930 . S
C103 C105 1.390 . S
C103 C106 1.339 . S
C104 C102 1.416 . S
C104 C106 1.416 . S
C104 C137 1.448 . S
C105 H90 0.930 . S
C105 N101 1.334 . S
C105 C103 1.390 . S
C106 C103 1.339 . S
C106 C104 1.416 . S
C106 H113 0.930 . S
N107 Tb72 2.572 . S
N107 C108 1.340 . S
N107 C110 1.361 . S
C108 H94 0.930 . S
C108 N107 1.340 . S
C108 C112 1.407 . S
C109 C110 1.413 . S
C109 C111 1.416 . S
C109 C138 1.427 . S
C110 C102 1.424 . S
C110 N107 1.361 . S
C110 C109 1.413 . S
C111 H100 0.931 . S
C111 C109 1.416 . S
C111 C112 1.332 . S
C112 H91 0.929 . S
C112 C108 1.407 . S
C112 C111 1.332 . S
H113 C106 0.930 . S
H114 C137 0.930 . S
H115 C138 0.929 . S
O116 Tb72 2.465 . S
O116 C136 1.264 . S
O117 Tb72 2.387 . S
O117 C128 1.264 . S
O118 Tb83 2.349 1_455 S
O118 C128 1.243 . S
O119 Tb72 2.428 . S
O119 C136 1.256 . S
O120 Tb72 2.308 1_655 S
O120 C135 1.266 . S
O121 Tb83 2.393 . S
O121 C135 1.248 . S
O122 Tb83 2.465 . S
O122 C147 1.264 . S
O123 Tb83 2.387 . S
O123 C139 1.264 . S
O124 Tb72 2.349 1_655 S
O124 C139 1.243 . S
O125 Tb83 2.428 . S
O125 C147 1.256 . S
O126 Tb83 2.308 1_455 S
O126 C146 1.266 . S
O127 Tb72 2.393 . S
O127 C146 1.248 . S
C128 O117 1.264 . S
C128 O118 1.243 . S
C129 C132 1.399 . S
C129 C134 1.383 . S
C129 C136 1.496 . S
C130 C131 1.399 . S
C130 C134 1.389 1_556 S
C131 C130 1.399 . S
C131 C133 1.380 . S
C131 H148 0.929 . S
C132 C129 1.399 . S
C132 C133 1.392 1_554 S
C132 H149 0.929 1_545 S
C133 C131 1.380 . S
C133 C132 1.392 1_556 S
C133 H150 0.929 1_545 S
C134 C129 1.383 . S
C134 C130 1.389 1_554 S
C134 H151 0.931 . S
C135 O120 1.266 . S
C135 O121 1.248 . S
C136 Tb72 2.802 . S
C136 O116 1.264 . S
C136 O119 1.256 . S
C136 C129 1.496 . S
C137 C104 1.448 . S
C137 H114 0.930 . S
C137 C138 1.328 . S
C138 C109 1.427 . S
C138 H115 0.929 . S
C138 C137 1.328 . S
C139 O123 1.264 . S
C139 O124 1.243 . S
C140 C143 1.399 . S
C140 C144 1.383 . S
C140 C147 1.496 . S
C141 C142 1.399 . S
C141 C144 1.389 . S
C142 C141 1.399 . S
C142 C145 1.380 . S
C142 H152 0.929 . S
C143 C140 1.399 . S
C143 C145 1.392 . S
C143 H153 0.929 . S
C144 C140 1.383 . S
C144 C141 1.389 . S
C144 H154 0.931 . S
C145 C142 1.380 . S
C145 C143 1.392 . S
C145 H155 0.929 . S
C146 O126 1.266 . S
C146 O127 1.248 . S
C147 Tb83 2.802 . S
C147 O122 1.264 . S
C147 O125 1.256 . S
C147 C140 1.496 . S
H148 C131 0.929 . S
H149 C132 0.929 1_565 S
H150 C133 0.929 1_565 S
H151 C134 0.931 . S
H152 C142 0.929 . S
H153 C143 0.929 . S
H154 C144 0.931 . S
H155 C145 0.929 . S
Tb156 N185 2.617 . S
Tb156 N191 2.572 . S
Tb156 O200 2.465 . S
Tb156 O201 2.387 . S
Tb156 O203 2.428 . S
Tb156 O204 2.308 . S
Tb156 O208 2.349 . S
Tb156 O211 2.393 . S
Tb156 C220 2.802 . S
C157 N158 1.379 1_455 S
C157 C160 1.416 . S
C157 C164 1.424 1_455 S
N158 C157 1.379 1_655 S
N158 C161 1.334 1_655 S
N158 Tb167 2.617 . S
C159 C161 1.390 . S
C159 C162 1.339 . S
C159 H179 0.930 . S
C160 C157 1.416 . S
C160 C162 1.416 . S
C160 C166 1.448 . S
C161 N158 1.334 1_455 S
C161 C159 1.390 . S
C161 H172 0.930 1_455 S
C162 C159 1.339 . S
C162 C160 1.416 . S
C162 H183 0.930 . S
C163 C164 1.413 1_455 S
C163 C165 1.427 . S
C163 C169 1.416 1_455 S
C164 C157 1.424 1_655 S
C164 C163 1.413 1_655 S
C164 N168 1.361 . S
C165 C163 1.427 . S
C165 C166 1.328 . S
C165 H180 0.929 . S
C166 C160 1.448 . S
C166 C165 1.328 . S
C166 H181 0.930 . S
Tb167 N158 2.617 . S
Tb167 N168 2.572 . S
Tb167 O202 2.349 . S
Tb167 O205 2.393 . S
Tb167 O206 2.465 . S
Tb167 O207 2.387 . S
Tb167 O209 2.428 . S
Tb167 O210 2.308 . S
Tb167 C231 2.802 . S
N168 C164 1.361 . S
N168 Tb167 2.572 . S
N168 C170 1.340 . S
C169 C163 1.416 1_655 S
C169 C171 1.332 . S
C169 H177 0.931 1_655 S
C170 N168 1.340 . S
C170 C171 1.407 . S
C170 H176 0.930 . S
C171 C169 1.332 . S
C171 C170 1.407 . S
C171 H173 0.929 . S
H172 C161 0.930 1_655 S
H173 C171 0.929 . S
H174 C189 0.930 . S
H175 C196 0.929 . S
H176 C170 0.930 . S
H177 C169 0.931 1_455 S
H178 C192 0.930 . S
H179 C159 0.930 . S
H180 C165 0.929 . S
H181 C166 0.930 . S
H182 C187 0.930 . S
H183 C162 0.930 . S
H184 C195 0.934 . S
N185 Tb156 2.617 . S
N185 C186 1.379 1_455 S
N185 C189 1.334 . S
C186 N185 1.379 1_655 S
C186 C188 1.416 . S
C186 C194 1.424 1_655 S
C187 H182 0.930 . S
C187 C189 1.390 1_655 S
C187 C190 1.339 . S
C188 C186 1.416 . S
C188 C190 1.416 . S
C188 C221 1.448 . S
C189 H174 0.930 . S
C189 N185 1.334 . S
C189 C187 1.390 1_455 S
C190 C187 1.339 . S
C190 C188 1.416 . S
C190 H197 0.930 . S
N191 Tb156 2.572 . S
N191 C192 1.340 . S
N191 C194 1.361 . S
C192 H178 0.930 . S
C192 N191 1.340 . S
C192 C196 1.407 . S
C193 C194 1.413 1_655 S
C193 C195 1.416 1_655 S
C193 C222 1.427 . S
C194 C186 1.424 1_455 S
C194 N191 1.361 . S
C194 C193 1.413 1_455 S
C195 H184 0.934 . S
C195 C193 1.416 1_455 S
C195 C196 1.332 . S
C196 H175 0.929 . S
C196 C192 1.407 . S
C196 C195 1.332 . S
H197 C190 0.930 . S
H198 C221 0.930 . S
H199 C222 0.929 . S
O200 Tb156 2.465 . S
O200 C220 1.264 . S
O201 Tb156 2.387 . S
O201 C212 1.264 . S
O202 Tb167 2.349 . S
O202 C212 1.243 . S
O203 Tb156 2.428 . S
O203 C220 1.256 . S
O204 Tb156 2.308 . S
O204 C219 1.266 . S
O205 Tb167 2.393 . S
O205 C219 1.248 . S
O206 Tb167 2.465 . S
O206 C231 1.264 . S
O207 Tb167 2.387 . S
O207 C223 1.264 . S
O208 Tb156 2.349 . S
O208 C223 1.243 . S
O209 Tb167 2.428 . S
O209 C231 1.256 . S
O210 Tb167 2.308 . S
O210 C230 1.266 . S
O211 Tb156 2.393 . S
O211 C230 1.248 . S
C212 O201 1.264 . S
C212 O202 1.243 . S
C213 C216 1.399 . S
C213 C218 1.383 . S
C213 C220 1.496 . S
C214 C215 1.399 . S
C214 C218 1.389 . S
C215 C214 1.399 . S
C215 C217 1.380 . S
C215 H232 0.929 . S
C216 C213 1.399 . S
C216 C217 1.392 . S
C216 H233 0.929 . S
C217 C215 1.380 . S
C217 C216 1.392 . S
C217 H234 0.929 . S
C218 C213 1.383 . S
C218 C214 1.389 . S
C218 H235 0.931 . S
C219 O204 1.266 . S
C219 O205 1.248 . S
C220 Tb156 2.802 . S
C220 O200 1.264 . S
C220 O203 1.256 . S
C220 C213 1.496 . S
C221 C188 1.448 . S
C221 H198 0.930 . S
C221 C222 1.328 . S
C222 C193 1.427 . S
C222 H199 0.929 . S
C222 C221 1.328 . S
C223 O207 1.264 . S
C223 O208 1.243 . S
C224 C227 1.399 . S
C224 C228 1.383 . S
C224 C231 1.496 . S
C225 C226 1.399 . S
C225 C228 1.389 1_554 S
C226 C225 1.399 . S
C226 C229 1.380 . S
C226 H236 0.929 . S
C227 C224 1.399 . S
C227 C229 1.392 1_556 S
C227 H237 0.929 . S
C228 C224 1.383 . S
C228 C225 1.389 1_556 S
C228 H238 0.931 . S
C229 C226 1.380 . S
C229 C227 1.392 1_554 S
C229 H239 0.929 . S
C230 O210 1.266 . S
C230 O211 1.248 . S
C231 Tb167 2.802 . S
C231 O206 1.264 . S
C231 O209 1.256 . S
C231 C224 1.496 . S
H232 C215 0.929 . S
H233 C216 0.929 . S
H234 C217 0.929 . S
H235 C218 0.931 . S
H236 C226 0.929 . S
H237 C227 0.929 . S
H238 C228 0.931 . S
H239 C229 0.929 . S
Tb240 N269 2.617 . S
Tb240 N275 2.572 . S
Tb240 O284 2.465 . S
Tb240 O285 2.387 . S
Tb240 O287 2.428 . S
Tb240 O288 2.308 1_455 S
Tb240 O292 2.349 1_455 S
Tb240 O295 2.393 . S
Tb240 C304 2.802 . S
C241 N242 1.379 . S
C241 C244 1.416 . S
C241 C248 1.424 . S
N242 C241 1.379 . S
N242 C245 1.334 . S
N242 Tb251 2.617 . S
C243 C245 1.390 . S
C243 C246 1.339 . S
C243 H263 0.930 . S
C244 C241 1.416 . S
C244 C246 1.416 . S
C244 C250 1.448 . S
C245 N242 1.334 . S
C245 C243 1.390 . S
C245 H256 0.930 . S
C246 C243 1.339 . S
C246 C244 1.416 . S
C246 H267 0.930 . S
C247 C248 1.413 . S
C247 C249 1.427 . S
C247 C253 1.416 . S
C248 C241 1.424 . S
C248 C247 1.413 . S
C248 N252 1.361 . S
C249 C247 1.427 . S
C249 C250 1.328 . S
C249 H264 0.929 . S
C250 C244 1.448 . S
C250 C249 1.328 . S
C250 H265 0.930 . S
Tb251 N242 2.617 . S
Tb251 N252 2.572 . S
Tb251 O286 2.349 1_655 S
Tb251 O289 2.393 . S
Tb251 O290 2.465 . S
Tb251 O291 2.387 . S
Tb251 O293 2.428 . S
Tb251 O294 2.308 1_655 S
Tb251 C315 2.802 . S
N252 C248 1.361 . S
N252 Tb251 2.572 . S
N252 C254 1.340 . S
C253 C247 1.416 . S
C253 C255 1.332 . S
C253 H261 0.931 . S
C254 N252 1.340 . S
C254 C255 1.407 . S
C254 H260 0.930 . S
C255 C253 1.332 . S
C255 C254 1.407 . S
C255 H257 0.929 . S
H256 C245 0.930 . S
H257 C255 0.929 . S
H258 C273 0.930 . S
H259 C280 0.929 . S
H260 C254 0.930 . S
H261 C253 0.931 . S
H262 C276 0.930 . S
H263 C243 0.930 . S
H264 C249 0.929 . S
H265 C250 0.930 . S
H266 C271 0.930 . S
H267 C246 0.930 . S
H268 C279 0.931 . S
N269 Tb240 2.617 . S
N269 C270 1.379 . S
N269 C273 1.334 . S
C270 N269 1.379 . S
C270 C272 1.416 . S
C270 C278 1.424 . S
C271 H266 0.930 . S
C271 C273 1.390 . S
C271 C274 1.339 . S
C272 C270 1.416 . S
C272 C274 1.416 . S
C272 C305 1.448 1_565 S
C273 H258 0.930 . S
C273 N269 1.334 . S
C273 C271 1.390 . S
C274 C271 1.339 . S
C274 C272 1.416 . S
C274 H281 0.930 . S
N275 Tb240 2.572 . S
N275 C276 1.340 1_565 S
N275 C278 1.361 . S
C276 H262 0.930 . S
C276 N275 1.340 1_545 S
C276 C280 1.407 . S
C277 C278 1.413 1_545 S
C277 C279 1.416 . S
C277 C306 1.427 . S
C278 C270 1.424 . S
C278 N275 1.361 . S
C278 C277 1.413 1_565 S
C279 H268 0.931 . S
C279 C277 1.416 . S
C279 C280 1.332 . S
C280 H259 0.929 . S
C280 C276 1.407 . S
C280 C279 1.332 . S
H281 C274 0.930 . S
H282 C305 0.930 . S
H283 C306 0.929 . S
O284 Tb240 2.465 . S
O284 C304 1.264 . S
O285 Tb240 2.387 . S
O285 C296 1.264 . S
O286 Tb251 2.349 1_455 S
O286 C296 1.243 . S
O287 Tb240 2.428 . S
O287 C304 1.256 . S
O288 Tb240 2.308 1_655 S
O288 C303 1.266 . S
O289 Tb251 2.393 . S
O289 C303 1.248 . S
O290 Tb251 2.465 . S
O290 C315 1.264 . S
O291 Tb251 2.387 . S
O291 C307 1.264 . S
O292 Tb240 2.349 1_655 S
O292 C307 1.243 . S
O293 Tb251 2.428 . S
O293 C315 1.256 . S
O294 Tb251 2.308 1_455 S
O294 C314 1.266 . S
O295 Tb240 2.393 . S
O295 C314 1.248 . S
C296 O285 1.264 . S
C296 O286 1.243 . S
C297 C300 1.399 . S
C297 C302 1.383 . S
C297 C304 1.496 . S
C298 C299 1.399 . S
C298 C302 1.389 . S
C299 C298 1.399 . S
C299 C301 1.380 . S
C299 H316 0.929 . S
C300 C297 1.399 . S
C300 C301 1.392 . S
C300 H317 0.929 . S
C301 C299 1.380 . S
C301 C300 1.392 . S
C301 H318 0.929 . S
C302 C297 1.383 . S
C302 C298 1.389 . S
C302 H319 0.931 . S
C303 O288 1.266 . S
C303 O289 1.248 . S
C304 Tb240 2.802 . S
C304 O284 1.264 . S
C304 O287 1.256 . S
C304 C297 1.496 . S
C305 C272 1.448 1_545 S
C305 H282 0.930 . S
C305 C306 1.328 . S
C306 C277 1.427 . S
C306 H283 0.929 . S
C306 C305 1.328 . S
C307 O291 1.264 . S
C307 O292 1.243 . S
C308 C311 1.399 . S
C308 C312 1.383 . S
C308 C315 1.496 . S
C309 C310 1.399 . S
C309 C312 1.389 1_554 S
C310 C309 1.399 . S
C310 C313 1.380 . S
C310 H320 0.929 . S
C311 C308 1.399 . S
C311 C313 1.392 1_556 S
C311 H321 0.929 1_565 S
C312 C308 1.383 . S
C312 C309 1.389 1_556 S
C312 H322 0.931 . S
C313 C310 1.380 . S
C313 C311 1.392 1_554 S
C313 H323 0.929 1_565 S
C314 O294 1.266 . S
C314 O295 1.248 . S
C315 Tb251 2.802 . S
C315 O290 1.264 . S
C315 O293 1.256 . S
C315 C308 1.496 . S
H316 C299 0.929 . S
H317 C300 0.929 . S
H318 C301 0.929 . S
H319 C302 0.931 . S
H320 C310 0.929 . S
H321 C311 0.929 1_545 S
H322 C312 0.931 . S
H323 C313 0.929 1_545 S
Tb324 N353 2.617 . S
Tb324 N359 2.572 . S
Tb324 O368 2.465 . S
Tb324 O369 2.387 . S
Tb324 O371 2.428 . S
Tb324 O372 2.308 . S
Tb324 O376 2.349 . S
Tb324 O379 2.393 . S
Tb324 C388 2.802 . S
C325 N326 1.379 1_455 S
C325 C328 1.416 . S
C325 C332 1.424 1_455 S
N326 C325 1.379 1_655 S
N326 C329 1.334 1_655 S
N326 Tb335 2.617 . S
C327 C329 1.390 . S
C327 C330 1.339 . S
C327 H347 0.930 . S
C328 C325 1.416 . S
C328 C330 1.416 . S
C328 C334 1.448 . S
C329 N326 1.334 1_455 S
C329 C327 1.390 . S
C329 H340 0.930 1_455 S
C330 C327 1.339 . S
C330 C328 1.416 . S
C330 H351 0.930 . S
C331 C332 1.413 1_455 S
C331 C333 1.427 . S
C331 C337 1.416 1_455 S
C332 C325 1.424 1_655 S
C332 C331 1.413 1_655 S
C332 N336 1.361 . S
C333 C331 1.427 . S
C333 C334 1.328 . S
C333 H348 0.929 . S
C334 C328 1.448 . S
C334 C333 1.328 . S
C334 H349 0.930 . S
Tb335 N326 2.617 . S
Tb335 N336 2.572 . S
Tb335 O370 2.349 . S
Tb335 O373 2.393 . S
Tb335 O374 2.465 . S
Tb335 O375 2.387 . S
Tb335 O377 2.428 . S
Tb335 O378 2.308 . S
Tb335 C399 2.802 . S
N336 C332 1.361 . S
N336 Tb335 2.572 . S
N336 C338 1.340 . S
C337 C331 1.416 1_655 S
C337 C339 1.332 . S
C337 H345 0.931 1_655 S
C338 N336 1.340 . S
C338 C339 1.407 . S
C338 H344 0.930 . S
C339 C337 1.332 . S
C339 C338 1.407 . S
C339 H341 0.929 . S
H340 C329 0.930 1_655 S
H341 C339 0.929 . S
H342 C357 0.930 1_455 S
H343 C364 0.929 . S
H344 C338 0.930 . S
H345 C337 0.931 1_455 S
H346 C360 0.930 . S
H347 C327 0.930 . S
H348 C333 0.929 . S
H349 C334 0.930 . S
H350 C355 0.930 . S
H351 C330 0.930 . S
H352 C363 0.931 1_655 S
N353 Tb324 2.617 . S
N353 C354 1.379 1_455 S
N353 C357 1.334 1_455 S
C354 N353 1.379 1_655 S
C354 C356 1.416 . S
C354 C362 1.424 1_655 S
C355 H350 0.930 . S
C355 C357 1.390 . S
C355 C358 1.339 . S
C356 C354 1.416 . S
C356 C358 1.416 . S
C356 C389 1.448 . S
C357 H342 0.930 1_655 S
C357 N353 1.334 1_655 S
C357 C355 1.390 . S
C358 C355 1.339 . S
C358 C356 1.416 . S
C358 H365 0.930 . S
N359 Tb324 2.572 . S
N359 C360 1.340 . S
N359 C362 1.361 . S
C360 H346 0.930 . S
C360 N359 1.340 . S
C360 C364 1.407 . S
C361 C362 1.413 1_655 S
C361 C363 1.416 1_655 S
C361 C390 1.427 . S
C362 C354 1.424 1_455 S
C362 N359 1.361 . S
C362 C361 1.413 1_455 S
C363 H352 0.931 1_455 S
C363 C361 1.416 1_455 S
C363 C364 1.332 . S
C364 H343 0.929 . S
C364 C360 1.407 . S
C364 C363 1.332 . S
H365 C358 0.930 . S
H366 C389 0.930 . S
H367 C390 0.929 . S
O368 Tb324 2.465 . S
O368 C388 1.264 . S
O369 Tb324 2.387 . S
O369 C380 1.264 . S
O370 Tb335 2.349 . S
O370 C380 1.243 . S
O371 Tb324 2.428 . S
O371 C388 1.256 . S
O372 Tb324 2.308 . S
O372 C387 1.266 . S
O373 Tb335 2.393 . S
O373 C387 1.248 . S
O374 Tb335 2.465 . S
O374 C399 1.264 . S
O375 Tb335 2.387 . S
O375 C391 1.264 . S
O376 Tb324 2.349 . S
O376 C391 1.243 . S
O377 Tb335 2.428 . S
O377 C399 1.256 . S
O378 Tb335 2.308 . S
O378 C398 1.266 . S
O379 Tb324 2.393 . S
O379 C398 1.248 . S
C380 O369 1.264 . S
C380 O370 1.243 . S
C381 C384 1.399 . S
C381 C386 1.383 . S
C381 C388 1.496 . S
C382 C383 1.399 . S
C382 C386 1.389 1_556 S
C383 C382 1.399 . S
C383 C385 1.380 . S
C383 H400 0.929 . S
C384 C381 1.399 . S
C384 C385 1.392 1_554 S
C384 H401 0.929 . S
C385 C383 1.380 . S
C385 C384 1.392 1_556 S
C385 H402 0.929 . S
C386 C381 1.383 . S
C386 C382 1.389 1_554 S
C386 H403 0.931 . S
C387 O372 1.266 . S
C387 O373 1.248 . S
C388 Tb324 2.802 . S
C388 O368 1.264 . S
C388 O371 1.256 . S
C388 C381 1.496 . S
C389 C356 1.448 . S
C389 H366 0.930 . S
C389 C390 1.328 . S
C390 C361 1.427 . S
C390 H367 0.929 . S
C390 C389 1.328 . S
C391 O375 1.264 . S
C391 O376 1.243 . S
C392 C395 1.399 . S
C392 C396 1.383 . S
C392 C399 1.496 . S
C393 C394 1.399 . S
C393 C396 1.389 . S
C394 C393 1.399 . S
C394 C397 1.380 . S
C394 H404 0.929 . S
C395 C392 1.399 . S
C395 C397 1.392 . S
C395 H405 0.929 . S
C396 C392 1.383 . S
C396 C393 1.389 . S
C396 H406 0.931 . S
C397 C394 1.380 . S
C397 C395 1.392 . S
C397 H407 0.929 . S
C398 O378 1.266 . S
C398 O379 1.248 . S
C399 Tb335 2.802 . S
C399 O374 1.264 . S
C399 O377 1.256 . S
C399 C392 1.496 . S
H400 C383 0.929 . S
H401 C384 0.929 . S
H402 C385 0.929 . S
H403 C386 0.931 . S
H404 C394 0.929 . S
H405 C395 0.929 . S
H406 C396 0.931 . S
H407 C397 0.929 . S
C58 C146 1.440 1_565 S
C230 C68 1.440 . S
C223 C40 1.452 . S
C50 C139 1.453 1_565 S
C303 C23 1.442 1_565 S
C387 C32 1.442 . S
C5 C380 1.455 . S
C14 C296 1.454 1_545 S
C130 C13 1.268 . S
C214 C4 1.268 . S
C225 C31 1.542 . S
C141 C22 1.543 . S
C309 C49 1.275 . S
C41 C393 1.267 . S
C382 C67 1.544 . S
C59 C298 1.543 . S
C128 C7 1.519 . S
C212 C16 1.517 . S
C25 C219 1.494 . S
C135 C34 1.492 . S
C307 C43 1.520 . S
C52 C391 1.514 . S
C61 C398 1.502 . S
C70 C314 1.493 . S
