# Generated by pormake.
# Topology anh, (6,3)-cn, num edge types: 1
# Building blocks:
#     Node 0, Type 0, BuildingBlock: BETDEL_clean_sbu_0, # of connection points: 6
#     Node 1, Type 0, BuildingBlock: BETDEL_clean_sbu_0, # of connection points: 6
#     Node 2, Type 0, BuildingBlock: BETDEL_clean_sbu_0, # of connection points: 6
#     Node 3, Type 1, BuildingBlock: ESEHIV_clean_linker_0, # of connection points: 3
#     Node 4, Type 1, BuildingBlock: ESEHIV_clean_linker_0, # of connection points: 3
#     Node 5, Type 1, BuildingBlock: ESEHIV_clean_linker_0, # of connection points: 3
#     Node 6, Type 1, BuildingBlock: ESEHIV_clean_linker_0, # of connection points: 3
#     Node 7, Type 1, BuildingBlock: ESEHIV_clean_linker_0, # of connection points: 3
#     Node 8, Type 1, BuildingBlock: ESEHIV_clean_linker_0, # of connection points: 3
#     Edge 9, Type (0, 1), BuildingBlock: MIFKUJ_clean_linker_0, # of connection points: 2
#     Edge 10, Type (0, 1), BuildingBlock: MIFKUJ_clean_linker_0, # of connection points: 2
#     Edge 11, Type (0, 1), BuildingBlock: MIFKUJ_clean_linker_0, # of connection points: 2
#     Edge 12, Type (0, 1), BuildingBlock: MIFKUJ_clean_linker_0, # of connection points: 2
#     Edge 13, Type (0, 1), BuildingBlock: MIFKUJ_clean_linker_0, # of connection points: 2
#     Edge 14, Type (0, 1), BuildingBlock: MIFKUJ_clean_linker_0, # of connection points: 2
#     Edge 15, Type (0, 1), BuildingBlock: MIFKUJ_clean_linker_0, # of connection points: 2
#     Edge 16, Type (0, 1), BuildingBlock: MIFKUJ_clean_linker_0, # of connection points: 2
#     Edge 17, Type (0, 1), BuildingBlock: MIFKUJ_clean_linker_0, # of connection points: 2
#     Edge 18, Type (0, 1), BuildingBlock: MIFKUJ_clean_linker_0, # of connection points: 2
#     Edge 19, Type (0, 1), BuildingBlock: MIFKUJ_clean_linker_0, # of connection points: 2
#     Edge 20, Type (0, 1), BuildingBlock: MIFKUJ_clean_linker_0, # of connection points: 2
#     Edge 21, Type (0, 1), BuildingBlock: MIFKUJ_clean_linker_0, # of connection points: 2
#     Edge 22, Type (0, 1), BuildingBlock: MIFKUJ_clean_linker_0, # of connection points: 2
#     Edge 23, Type (0, 1), BuildingBlock: MIFKUJ_clean_linker_0, # of connection points: 2
#     Edge 24, Type (0, 1), BuildingBlock: MIFKUJ_clean_linker_0, # of connection points: 2
#     Edge 25, Type (0, 1), BuildingBlock: MIFKUJ_clean_linker_0, # of connection points: 2
#     Edge 26, Type (0, 1), BuildingBlock: MIFKUJ_clean_linker_0, # of connection points: 2
# Relax obj value: 0.140
# Max RMSD: 0.165
# Mean RMSD: 0.132
data_MOF--net-anh--node1-BETDEL_clean_sbu_0--node2-ESEHIV_clean_linker_0--edge1-MIFKUJ_clean_linker_0
_symmetry_space_group_name_H-M    P1
_symmetry_Int_Tables_number       1
_symmetry_cell_setting            triclinic
loop_
_symmetry_equiv_pos_as_xyz
'x, y, z'
_cell_length_a     36.319003
_cell_length_b     36.360578
_cell_length_c     65.598028
_cell_angle_alpha  89.903699
_cell_angle_beta   89.997539
_cell_angle_gamma 120.22086
loop_
_atom_site_label
_atom_site_type_symbol
_atom_site_fract_x
_atom_site_fract_y
_atom_site_fract_z
_atom_type_partial_charge
Dy0 Dy 0.06105 0.50568 0.16388 0.0
C1 C 0.95497 0.57523 0.18819 0.0
C2 C 0.11742 0.48027 0.15397 0.0
Dy3 Dy 1.00802 0.55262 0.1701 0.0
O4 O 0.10933 0.48745 0.17231 0.0
O5 O 0.0945 0.4868 0.14081 0.0
O6 O 0.03726 0.47463 0.19438 0.0
O7 O 0.04635 0.5356 0.18881 0.0
C8 C 0.03265 0.50544 0.20144 0.0
C9 C 0.01847 0.54395 0.13007 0.0
O10 O 0.07436 0.60767 0.17513 0.0
O11 O 0.11226 0.5753 0.16373 0.0
O12 O 0.98352 0.59778 0.17447 0.0
O13 O 0.95647 0.54103 0.19227 0.0
O14 O 0.99879 0.56297 0.13694 0.0
O15 O 0.03089 0.53155 0.1451 0.0
O16 O 0.99563 0.4508 0.15767 0.0
O17 O 0.95774 0.48276 0.16968 0.0
C18 C 0.11068 0.60939 0.16995 0.0
C19 C 0.95953 0.44906 0.16316 0.0
Dy20 Dy 0.48973 0.03615 0.4978 0.0
C21 C 0.66907 0.13537 0.51481 0.0
C22 C 0.40705 0.99118 0.48517 0.0
Dy23 Dy 0.58565 0.0902 0.50317 0.0
O24 O 0.4194 1.00677 0.5033 0.0
O25 O 0.44003 1.00118 0.47376 0.0
O26 O 0.48357 0.01007 0.52934 0.0
O27 O 0.53139 0.07285 0.52288 0.0
C28 C 0.51662 0.04409 0.53628 0.0
C29 C 0.55816 0.08194 0.46455 0.0
O30 O 0.57495 0.02445 0.50981 0.0
O31 O 0.50704 0.98503 0.49618 0.0
O32 O 0.65531 0.11429 0.49789 0.0
O33 O 0.63704 0.13079 0.52558 0.0
O34 O 0.59079 0.11614 0.47159 0.0
O35 O 0.54396 0.05324 0.47799 0.0
O36 O 0.49931 0.10264 0.49424 0.0
O37 O 0.56878 0.14113 0.50624 0.0
C38 C 0.542 0.98754 0.50391 0.0
C39 C 0.533 0.13911 0.50017 0.0
Dy40 Dy 0.59602 0.60092 0.82835 0.0
C41 C 0.52084 0.42691 0.85079 0.0
C42 C 0.62545 0.68174 0.81468 0.0
Dy43 Dy 0.54731 0.50618 0.83552 0.0
O44 O 0.63587 0.67176 0.83185 0.0
O45 O 0.5993 0.64748 0.80479 0.0
O46 O 0.62301 0.61031 0.86012 0.0
O47 O 0.5612 0.56048 0.85402 0.0
C48 C 0.58981 0.57676 0.86731 0.0
C49 C 0.55218 0.52853 0.79622 0.0
O50 O 0.49424 0.51904 0.84228 0.0
O51 O 0.52712 0.58606 0.8275 0.0
O52 O 0.50646 0.43495 0.83426 0.0
O53 O 0.54919 0.46228 0.8591 0.0
O54 O 0.52031 0.49467 0.80406 0.0
O55 O 0.58173 0.54641 0.80918 0.0
O56 O 0.65017 0.58879 0.82315 0.0
O57 O 0.61591 0.52197 0.83809 0.0
C58 C 0.49266 0.5525 0.83526 0.0
C59 C 0.65104 0.55558 0.83103 0.0
H60 H 0.47579 0.97538 0.24462 0.0
H61 H 0.59754 0.09043 0.24355 0.0
H62 H 0.53991 0.02576 0.18738 0.0
C63 C 0.50322 0.99912 0.23621 0.0
C64 C 0.50422 0.99537 0.21489 0.0
C65 C 0.53648 0.03317 0.24676 0.0
C66 C 0.57123 0.06435 0.23559 0.0
C67 C 0.57276 0.06246 0.2142 0.0
C68 C 0.53873 0.02798 0.20381 0.0
H69 H 0.54641 0.62166 0.57798 0.0
H70 H 0.54764 0.50446 0.57352 0.0
H71 H 0.53216 0.56238 0.51932 0.0
C72 C 0.54457 0.59606 0.56876 0.0
C73 C 0.53874 0.59626 0.54754 0.0
C74 C 0.54766 0.56314 0.57826 0.0
C75 C 0.54507 0.52996 0.56632 0.0
C76 C 0.53957 0.52937 0.54511 0.0
C77 C 0.53659 0.56275 0.53567 0.0
H78 H 1.00621 0.54475 0.90943 0.0
H79 H 0.12487 0.54603 0.91073 0.0
H80 H 0.07028 0.55096 0.85311 0.0
C81 C 0.03294 0.5461 0.9014 0.0
C82 C 0.03394 0.54795 0.87996 0.0
C83 C 0.06539 0.54533 0.91265 0.0
C84 C 0.09945 0.5462 0.90214 0.0
C85 C 0.10173 0.54813 0.88071 0.0
C86 C 0.06914 0.54989 0.86961 0.0
H87 H 0.96526 0.47686 0.42301 0.0
H88 H 0.05936 0.60681 0.41147 0.0
H89 H 0.03654 0.55905 0.47302 0.0
C90 C 0.98924 0.50767 0.42877 0.0
C91 C 0.99807 0.51367 0.44979 0.0
C92 C 1.01186 0.54099 0.41499 0.0
C93 C 0.04259 0.58094 0.42224 0.0
C94 C 0.05151 0.58797 0.44314 0.0
C95 C 0.02898 0.55418 0.45691 0.0
H96 H 0.56084 0.12944 0.76018 0.0
H97 H 0.58599 0.02808 0.74867 0.0
H98 H 0.58322 0.06632 0.81036 0.0
C99 C 0.56812 0.1058 0.76586 0.0
C100 C 0.57183 0.10141 0.78697 0.0
C101 C 0.57269 0.07903 0.75205 0.0
C102 C 0.58178 0.04835 0.7594 0.0
C103 C 0.58566 0.04356 0.78035 0.0
C104 C 0.58121 0.07055 0.79412 0.0
H105 H 0.47487 0.46054 0.07478 0.0
H106 H 0.59735 0.47317 0.08608 0.0
H107 H 0.52021 0.47133 0.13623 0.0
C108 C 0.49873 0.46247 0.08534 0.0
C109 C 0.4924 0.46409 0.10635 0.0
C110 C 0.53647 0.46581 0.07781 0.0
C111 C 0.56795 0.47035 0.09167 0.0
C112 C 0.5624 0.47279 0.11272 0.0
C113 C 0.52462 0.46973 0.11997 0.0
H114 H 0.15748 0.45466 0.18027 0.0
H115 H 0.21945 0.44702 0.17338 0.0
H116 H 0.21601 0.47756 0.11007 0.0
H117 H 0.15351 0.48489 0.11687 0.0
H118 H 0.23544 0.39683 0.14677 0.0
H119 H 0.32129 0.54921 0.09734 0.0
H120 H 0.32212 0.6171 0.09305 0.0
H121 H 0.28237 0.61081 0.15522 0.0
H122 H 0.28201 0.54334 0.15998 0.0
H123 H 0.41121 0.409 0.09399 0.0
H124 H 0.34613 0.40837 0.104 0.0
H125 H 0.41845 0.51219 0.14552 0.0
H126 H 0.48401 0.51377 0.13512 0.0
H127 H 0.36563 0.52659 0.1226 0.0
H128 H 0.35487 0.41329 0.16379 0.0
H129 H 0.35504 0.34685 0.17112 0.0
H130 H 0.24795 0.27799 0.1313 0.0
H131 H 0.24752 0.34417 0.1235 0.0
C132 C 0.16955 0.45908 0.16482 0.0
C133 C 0.15106 0.47057 0.14909 0.0
C134 C 0.20479 0.45458 0.16091 0.0
C135 C 0.22238 0.46213 0.14129 0.0
C136 C 0.2029 0.47191 0.12535 0.0
C137 C 0.16727 0.47594 0.12921 0.0
C138 C 0.26271 0.46248 0.13788 0.0
C139 C 0.2639 0.42507 0.14139 0.0
C140 C 0.3 0.49981 0.13149 0.0
C141 C 0.30114 0.54094 0.12892 0.0
C142 C 0.31291 0.56242 0.11011 0.0
C143 C 0.3133 0.60082 0.1076 0.0
C144 C 0.30214 0.61815 0.12383 0.0
C145 C 0.29084 0.59726 0.14264 0.0
C146 C 0.2905 0.55892 0.14524 0.0
C147 C 0.41322 0.43165 0.10527 0.0
C148 C 0.45265 0.4615 0.11375 0.0
C149 C 0.37601 0.43105 0.11109 0.0
C150 C 0.37749 0.46007 0.12559 0.0
C151 C 0.4167 0.48951 0.13432 0.0
C152 C 0.454 0.49012 0.12851 0.0
C153 C 0.33823 0.46056 0.13102 0.0
C154 C 0.33721 0.49824 0.12791 0.0
C155 C 0.30137 0.4237 0.13821 0.0
C156 C 0.3014 0.38378 0.14293 0.0
C157 C 0.33156 0.38405 0.15647 0.0
C158 C 0.33167 0.34642 0.16073 0.0
C159 C 0.30158 0.30824 0.15165 0.0
C160 C 0.27126 0.3076 0.13832 0.0
C161 C 0.27104 0.34515 0.13399 0.0
H162 H 0.30172 0.27914 0.15496 0.0
H163 H 0.30232 0.64779 0.12184 0.0
H164 H 0.73835 0.15208 0.49205 0.0
H165 H 0.8072 0.21787 0.49229 0.0
H166 H 0.7689 0.26052 0.5453 0.0
H167 H 0.69974 0.1946 0.54507 0.0
H168 H 0.78802 0.31378 0.51357 0.0
H169 H 0.8565 0.24973 0.54778 0.0
H170 H 0.87547 0.19483 0.55515 0.0
H171 H 0.93297 0.2138 0.49599 0.0
H172 H 0.91381 0.26838 0.48813 0.0
H173 H 0.96581 0.513 0.48777 0.0
H174 H 0.92264 0.45098 0.50948 0.0
H175 H 0.9349 0.36999 0.46529 0.0
H176 H 0.97963 0.43179 0.44414 0.0
H177 H 0.93495 0.3417 0.50237 0.0
H178 H 0.84944 0.38778 0.4652 0.0
H179 H 0.82667 0.43878 0.45528 0.0
H180 H 0.7977 0.44913 0.51774 0.0
H181 H 0.82084 0.39855 0.52806 0.0
C182 C 0.7452 0.1748 0.50419 0.0
C183 C 0.71366 0.16858 0.51839 0.0
C184 C 0.78466 0.21235 0.50438 0.0
C185 C 0.79318 0.24417 0.51881 0.0
C186 C 0.76297 0.23635 0.53406 0.0
C187 C 0.72353 0.19867 0.53393 0.0
C188 C 0.82968 0.28773 0.51554 0.0
C189 C 0.82046 0.32025 0.51177 0.0
C190 C 0.87171 0.29583 0.51267 0.0
C191 C 0.88356 0.26312 0.51734 0.0
C192 C 0.87295 0.24203 0.53628 0.0
C193 C 0.88378 0.21098 0.54056 0.0
C194 C 0.90539 0.20081 0.52604 0.0
C195 C 0.91627 0.22173 0.50723 0.0
C196 C 0.9055 0.25281 0.50287 0.0
C197 C 0.96009 0.4821 0.48292 0.0
C198 C 0.9754 0.47718 0.46403 0.0
C199 C 0.93523 0.44666 0.49528 0.0
C200 C 0.9249 0.40572 0.48883 0.0
C201 C 0.94228 0.40119 0.47057 0.0
C202 C 0.96734 0.43652 0.45833 0.0
C203 C 0.89281 0.36704 0.49982 0.0
C204 C 0.90282 0.33553 0.5049 0.0
C205 C 0.85117 0.35944 0.5036 0.0
C206 C 0.83743 0.38993 0.49743 0.0
C207 C 0.83854 0.40123 0.47683 0.0
C208 C 0.82553 0.43 0.47114 0.0
C209 C 0.81091 0.44732 0.48588 0.0
C210 C 0.80916 0.4358 0.50635 0.0
C211 C 0.82223 0.4071 0.51213 0.0
H212 H 0.8008 0.46956 0.48144 0.0
H213 H 0.91373 0.17675 0.52938 0.0
H214 H 0.67858 0.75534 0.83449 0.0
H215 H 0.68422 0.82469 0.82935 0.0
H216 H 0.5979 0.774 0.77832 0.0
H217 H 0.59301 0.70498 0.78311 0.0
H218 H 0.65732 0.85458 0.77127 0.0
H219 H 0.56165 0.77479 0.8259 0.0
H220 H 0.54116 0.73532 0.85842 0.0
H221 H 0.63493 0.84678 0.88997 0.0
H222 H 0.6566 0.88669 0.85753 0.0
H223 H 0.54391 0.96122 0.76809 0.0
H224 H 0.56192 0.9065 0.77578 0.0
H225 H 0.66133 0.99276 0.8164 0.0
H226 H 0.64374 0.04836 0.8085 0.0
H227 H 0.60768 0.90334 0.83039 0.0
H228 H 0.69359 0.98488 0.77327 0.0
H229 H 0.70427 0.02021 0.7399 0.0
H230 H 0.61847 0.90012 0.71209 0.0
H231 H 0.6067 0.86416 0.74536 0.0
C232 C 0.66163 0.75937 0.82189 0.0
C233 C 0.63502 0.72489 0.80931 0.0
C234 C 0.66472 0.79886 0.81903 0.0
C235 C 0.64078 0.80417 0.80373 0.0
C236 C 0.61653 0.77052 0.79027 0.0
C237 C 0.6137 0.73112 0.79302 0.0
C238 C 0.63783 0.84324 0.80277 0.0
C239 C 0.64658 0.86528 0.78421 0.0
C240 C 0.62417 0.85742 0.81974 0.0
C241 C 0.61113 0.83355 0.83926 0.0
C242 C 0.57816 0.79078 0.83975 0.0
C243 C 0.56629 0.76834 0.85817 0.0
C244 C 0.58677 0.78851 0.87625 0.0
C245 C 0.61915 0.83117 0.87595 0.0
C246 C 0.63128 0.85371 0.85755 0.0
C247 C 0.56949 0.96851 0.77874 0.0
C248 C 0.59299 0.00918 0.78744 0.0
C249 C 0.57963 0.93724 0.78315 0.0
C250 C 0.61339 0.94604 0.79633 0.0
C251 C 0.63531 0.98568 0.80608 0.0
C252 C 0.6252 0.01723 0.80162 0.0
C253 C 0.62666 0.9141 0.79888 0.0
C254 C 0.61962 0.8933 0.81767 0.0
C255 C 0.64103 0.90051 0.78202 0.0
C256 C 0.64913 0.92186 0.76185 0.0
C257 C 0.67686 0.96603 0.76005 0.0
C258 C 0.6831 0.98617 0.74115 0.0
C259 C 0.66203 0.96243 0.72389 0.0
C260 C 0.63479 0.91847 0.72547 0.0
C261 C 0.62837 0.89818 0.74435 0.0
H262 H 0.66683 0.97811 0.70928 0.0
H263 H 0.57748 0.7711 0.8905 0.0
H264 H 0.88777 0.52412 0.2126 0.0
H265 H 0.81584 0.51239 0.20836 0.0
H266 H 0.86462 0.62188 0.1688 0.0
H267 H 0.93664 0.63384 0.17295 0.0
H268 H 0.76319 0.55118 0.20678 0.0
H269 H 0.8181 0.58145 0.12298 0.0
H270 H 0.87642 0.5857 0.10187 0.0
H271 H 0.88843 0.49972 0.14253 0.0
H272 H 0.82924 0.49377 0.16346 0.0
H273 H 0.59884 0.53532 0.14123 0.0
H274 H 0.66226 0.55425 0.16168 0.0
H275 H 0.66724 0.44694 0.1368 0.0
H276 H 0.60476 0.42903 0.11578 0.0
H277 H 0.74031 0.5126 0.13343 0.0
H278 H 0.64149 0.45256 0.18822 0.0
H279 H 0.5823 0.44125 0.21074 0.0
H280 H 0.65324 0.5716 0.23005 0.0
H281 H 0.71265 0.58387 0.20743 0.0
C282 C 0.88345 0.54692 0.20379 0.0
C283 C 0.9174 0.57912 0.19258 0.0
C284 C 0.84231 0.5402 0.20144 0.0
C285 C 0.83496 0.56551 0.18779 0.0
C286 C 0.86978 0.60172 0.1792 0.0
C287 C 0.91092 0.6085 0.18157 0.0
C288 C 0.79225 0.54842 0.17869 0.0
C289 C 0.75799 0.54297 0.19073 0.0
C290 C 0.78537 0.53598 0.15797 0.0
C291 C 0.81966 0.53771 0.14494 0.0
C292 C 0.83296 0.56319 0.12731 0.0
C293 C 0.86611 0.56581 0.11536 0.0
C294 C 0.88616 0.54303 0.12088 0.0
C295 C 0.87284 0.51727 0.13826 0.0
C296 C 0.83946 0.51423 0.15016 0.0
C297 C 0.61313 0.51542 0.14045 0.0
C298 C 0.59723 0.48088 0.12692 0.0
C299 C 0.64922 0.52611 0.1522 0.0
C300 C 0.66945 0.50189 0.15089 0.0
C301 C 0.65232 0.46623 0.138 0.0
C302 C 0.6167 0.45598 0.12602 0.0
C303 C 0.71068 0.51602 0.16134 0.0
C304 C 0.745 0.5208 0.14949 0.0
C305 C 0.71702 0.52646 0.18235 0.0
C306 C 0.68137 0.51922 0.19598 0.0
C307 C 0.64433 0.47891 0.19714 0.0
C308 C 0.61077 0.47231 0.20995 0.0
C309 C 0.61397 0.50571 0.22178 0.0
C310 C 0.65079 0.54577 0.22087 0.0
C311 C 0.68444 0.55255 0.20807 0.0
H312 H 0.58795 0.50053 0.23169 0.0
H313 H 0.91197 0.54529 0.11168 0.0
H314 H 0.37943 0.94447 0.45045 0.0
H315 H 0.31 0.88128 0.44481 0.0
H316 H 0.26582 0.9012 0.50258 0.0
H317 H 0.33594 0.96398 0.50853 0.0
H318 H 0.2506 0.82332 0.50056 0.0
H319 H 0.22278 0.90987 0.45646 0.0
H320 H 0.23643 0.96198 0.4292 0.0
H321 H 0.24453 0.87899 0.38523 0.0
H322 H 0.23154 0.82661 0.41226 0.0
H323 H 0.04924 0.63355 0.476 0.0
H324 H 0.10249 0.70695 0.48523 0.0
H325 H 0.18161 0.712 0.43502 0.0
H326 H 0.12942 0.63891 0.42604 0.0
H327 H 0.16833 0.78117 0.43606 0.0
H328 H 0.20745 0.7011 0.48189 0.0
H329 H 0.19382 0.64942 0.50939 0.0
H330 H 0.16271 0.72176 0.55038 0.0
H331 H 0.17563 0.7736 0.52301 0.0
C332 C 0.35457 0.936 0.46169 0.0
C333 C 0.36299 0.95893 0.47994 0.0
C334 C 0.31478 0.89993 0.45844 0.0
C335 C 0.28251 0.88654 0.47323 0.0
C336 C 0.29022 0.91089 0.49097 0.0
C337 C 0.33017 0.94684 0.4943 0.0
C338 C 0.24276 0.84481 0.47104 0.0
C339 C 0.23196 0.81449 0.48664 0.0
C340 C 0.21867 0.83301 0.45282 0.0
C341 C 0.22639 0.86437 0.43645 0.0
C342 C 0.22776 0.90283 0.44101 0.0
C343 C 0.23534 0.93241 0.42558 0.0
C344 C 0.2414 0.92383 0.4055 0.0
C345 C 0.23982 0.8856 0.40079 0.0
C346 C 0.23227 0.85591 0.41616 0.0
C347 C 0.07833 0.65015 0.46717 0.0
C348 C 0.08495 0.63066 0.45016 0.0
C349 C 0.10853 0.69207 0.47237 0.0
C350 C 0.14569 0.71492 0.46065 0.0
C351 C 0.15283 0.69507 0.44407 0.0
C352 C 0.12295 0.65333 0.43896 0.0
C353 C 0.17735 0.75977 0.46526 0.0
C354 C 0.18648 0.79052 0.45013 0.0
C355 C 0.19971 0.77204 0.48393 0.0
C356 C 0.19194 0.74088 0.50034 0.0
C357 C 0.1973 0.70575 0.49671 0.0
C358 C 0.1898 0.67649 0.51228 0.0
C359 C 0.17725 0.68222 0.5316 0.0
C360 C 0.17232 0.7173 0.5354 0.0
C361 C 0.17974 0.74664 0.51987 0.0
H362 H 0.17148 0.65954 0.54364 0.0
H363 H 0.24727 0.94677 0.39359 0.0
H364 H 0.56407 0.40871 0.87911 0.0
H365 H 0.56857 0.34377 0.88052 0.0
H366 H 0.46954 0.28618 0.83515 0.0
H367 H 0.46512 0.35096 0.83364 0.0
H368 H 0.46832 0.22661 0.86268 0.0
H369 H 0.5681 0.34414 0.81946 0.0
H370 H 0.62535 0.41774 0.81252 0.0
H371 H 0.70709 0.40308 0.85496 0.0
H372 H 0.64998 0.32948 0.86237 0.0
H373 H 0.5064 0.11749 0.78627 0.0
H374 H 0.49489 0.164 0.80882 0.0
H375 H 0.60676 0.19058 0.84332 0.0
H376 H 0.61891 0.14432 0.82043 0.0
H377 H 0.60728 0.26228 0.83187 0.0
H378 H 0.51019 0.13473 0.86569 0.0
H379 H 0.4524 0.06012 0.86888 0.0
H380 H 0.3644 0.09205 0.84186 0.0
H381 H 0.42177 0.16674 0.83821 0.0
C382 C 0.54227 0.38161 0.86999 0.0
C383 C 0.51482 0.38492 0.85598 0.0
C384 C 0.54487 0.3446 0.87081 0.0
C385 C 0.5199 0.31056 0.85768 0.0
C386 C 0.48912 0.31216 0.84538 0.0
C387 C 0.48673 0.34922 0.84446 0.0
C388 C 0.53058 0.27697 0.85387 0.0
C389 C 0.49876 0.2342 0.85611 0.0
C390 C 0.57069 0.28711 0.8457 0.0
C391 C 0.60466 0.33158 0.84165 0.0
C392 C 0.59812 0.35679 0.82748 0.0
C393 C 0.63054 0.39844 0.82343 0.0
C394 C 0.66981 0.41502 0.83329 0.0
C395 C 0.67663 0.39014 0.84735 0.0
C396 C 0.64425 0.34849 0.85149 0.0
C397 C 0.52849 0.13314 0.79869 0.0
C398 C 0.56378 0.12768 0.8015 0.0
C399 C 0.52154 0.15922 0.81175 0.0
C400 C 0.54962 0.18024 0.82793 0.0
C401 C 0.58451 0.17428 0.83103 0.0
C402 C 0.59138 0.14791 0.81799 0.0
C403 C 0.54453 0.21169 0.84006 0.0
C404 C 0.5774 0.25428 0.83925 0.0
C405 C 0.50526 0.20128 0.84933 0.0
C406 C 0.47041 0.15641 0.85164 0.0
C407 C 0.47858 0.12583 0.86032 0.0
C408 C 0.44587 0.0835 0.86222 0.0
C409 C 0.40476 0.07135 0.85557 0.0
C410 C 0.39625 0.10152 0.84703 0.0
C411 C 0.42885 0.14389 0.84508 0.0
H412 H 0.37949 0.03856 0.85704 0.0
H413 H 0.69505 0.44701 0.82989 0.0
H414 H 0.60571 0.97753 0.52099 0.0
H415 H 0.60749 0.91158 0.5255 0.0
H416 H 0.48388 0.84068 0.4973 0.0
H417 H 0.48206 0.90636 0.49252 0.0
H418 H 0.55945 0.84198 0.54688 0.0
H419 H 0.47506 0.75487 0.47207 0.0
H420 H 0.46821 0.77302 0.43654 0.0
H421 H 0.58794 0.88967 0.44133 0.0
H422 H 0.5958 0.87196 0.47675 0.0
H423 H 0.48642 0.62548 0.55975 0.0
H424 H 0.48829 0.69093 0.54936 0.0
H425 H 0.58563 0.71491 0.50505 0.0
H426 H 0.58335 0.6486 0.51531 0.0
H427 H 0.53167 0.74042 0.49047 0.0
H428 H 0.61311 0.76313 0.55101 0.0
H429 H 0.62611 0.74711 0.58592 0.0
H430 H 0.52565 0.76558 0.60854 0.0
H431 H 0.51157 0.78106 0.57368 0.0
C432 C 0.57897 0.94798 0.51562 0.0
C433 C 0.54379 0.94755 0.50632 0.0
C434 C 0.57998 0.91016 0.51828 0.0
C435 C 0.54602 0.87093 0.51159 0.0
C436 C 0.51086 0.87044 0.50232 0.0
C437 C 0.5098 0.90818 0.49967 0.0
C438 C 0.54681 0.83046 0.51474 0.0
C439 C 0.55339 0.8199 0.5345 0.0
C440 C 0.53984 0.80172 0.4986 0.0
C441 C 0.53578 0.81223 0.47715 0.0
C442 C 0.50002 0.78428 0.46551 0.0
C443 C 0.49595 0.79453 0.44539 0.0
C444 C 0.52755 0.83255 0.4367 0.0
C445 C 0.56339 0.86032 0.44809 0.0
C446 C 0.56765 0.8502 0.4682 0.0
C447 C 0.5078 0.64434 0.54756 0.0
C448 C 0.53505 0.63203 0.53849 0.0
C449 C 0.50896 0.68191 0.54168 0.0
C450 C 0.53782 0.7086 0.52673 0.0
C451 C 0.56324 0.69509 0.5167 0.0
C452 C 0.56185 0.65711 0.52252 0.0
C453 C 0.54304 0.75155 0.52268 0.0
C454 C 0.5377 0.76259 0.5028 0.0
C455 C 0.55209 0.78124 0.53863 0.0
C456 C 0.5611 0.77297 0.5597 0.0
C457 C 0.59366 0.7636 0.56341 0.0
C458 C 0.60121 0.7546 0.58319 0.0
C459 C 0.57668 0.75527 0.59943 0.0
C460 C 0.54462 0.76506 0.59594 0.0
C461 C 0.53686 0.774 0.57617 0.0
H462 H 0.58259 0.74828 0.61472 0.0
H463 H 0.5243 0.84046 0.42114 0.0
H464 H 0.66827 0.50363 0.85437 0.0
H465 H 0.73626 0.50647 0.85915 0.0
H466 H 0.7961 0.61121 0.81679 0.0
H467 H 0.72785 0.609 0.81211 0.0
H468 H 0.82346 0.55315 0.81084 0.0
H469 H 0.80735 0.62798 0.86562 0.0
H470 H 0.77504 0.6426 0.89523 0.0
H471 H 0.78138 0.5452 0.92941 0.0
H472 H 0.81052 0.52767 0.89962 0.0
H473 H 0.03395 0.60039 0.84924 0.0
H474 H 0.97218 0.60473 0.83669 0.0
H475 H 0.88882 0.49761 0.87449 0.0
H476 H 0.94966 0.49279 0.88667 0.0
H477 H 0.87958 0.56755 0.88105 0.0
H478 H 0.88719 0.48784 0.82368 0.0
H479 H 0.92236 0.47632 0.79423 0.0
H480 H 0.93909 0.59044 0.76606 0.0
H481 H 0.90451 0.60295 0.79549 0.0
C482 C 0.69572 0.52721 0.84593 0.0
C483 C 0.69238 0.55617 0.83285 0.0
C484 C 0.73478 0.52889 0.84876 0.0
C485 C 0.77162 0.55922 0.83845 0.0
C486 C 0.76823 0.58745 0.82492 0.0
C487 C 0.72917 0.58624 0.82231 0.0
C488 C 0.81359 0.56196 0.84242 0.0
C489 C 0.83598 0.55688 0.82618 0.0
C490 C 0.83024 0.56685 0.86243 0.0
C491 C 0.81064 0.57604 0.88017 0.0
C492 C 0.80079 0.60884 0.87926 0.0
C493 C 0.78283 0.61755 0.8961 0.0
C494 C 0.77548 0.59438 0.91413 0.0
C495 C 0.78608 0.56247 0.91534 0.0
C496 C 0.80312 0.55297 0.89842 0.0
C497 C 1.0023 0.57715 0.85443 0.0
C498 C 0.99688 0.54657 0.86916 0.0
C499 C 0.967 0.57976 0.84733 0.0
C500 C 0.92571 0.55177 0.85481 0.0
C501 C 0.92023 0.51989 0.86863 0.0
C502 C 0.95516 0.51716 0.87559 0.0
C503 C 0.88832 0.55689 0.84967 0.0
C504 C 0.86698 0.56387 0.86572 0.0
C505 C 0.87297 0.55412 0.82955 0.0
C506 C 0.89375 0.54661 0.8119 0.0
C507 C 0.89875 0.5107 0.8113 0.0
C508 C 0.91849 0.50394 0.79458 0.0
C509 C 0.93308 0.5327 0.77831 0.0
C510 C 0.92785 0.56823 0.77869 0.0
C511 C 0.90816 0.57516 0.79538 0.0
H512 H 0.94834 0.5274 0.76538 0.0
H513 H 0.76194 0.60141 0.92723 0.0
H514 H 0.12267 0.68741 0.1816 0.0
H515 H 0.18991 0.75453 0.18534 0.0
H516 H 0.2592 0.69255 0.16691 0.0
H517 H 0.1922 0.6256 0.16276 0.0
H518 H 0.25459 0.77729 0.20991 0.0
H519 H 0.35318 0.76334 0.14442 0.0
H520 H 0.34178 0.73064 0.11038 0.0
H521 H 0.22766 0.73711 0.10321 0.0
H522 H 0.23872 0.77045 0.13707 0.0
H523 H 0.47225 0.91309 0.22681 0.0
H524 H 0.40696 0.85025 0.21547 0.0
H525 H 0.38994 0.92524 0.16952 0.0
H526 H 0.45568 0.98902 0.18108 0.0
H527 H 0.36668 0.83918 0.15656 0.0
H528 H 0.33723 0.90961 0.21078 0.0
H529 H 0.34932 0.9433 0.24459 0.0
H530 H 0.32267 0.82616 0.27326 0.0
H531 H 0.31114 0.79196 0.23957 0.0
C532 C 0.15214 0.688 0.17819 0.0
C533 C 0.15167 0.6508 0.17181 0.0
C534 C 0.19072 0.72654 0.18039 0.0
C535 C 0.22994 0.72908 0.17622 0.0
C536 C 0.22957 0.69196 0.16987 0.0
C537 C 0.19101 0.65344 0.1676 0.0
C538 C 0.27111 0.77008 0.17922 0.0
C539 C 0.27888 0.79073 0.19815 0.0
C540 C 0.30312 0.78825 0.16393 0.0
C541 C 0.29663 0.76909 0.14336 0.0
C542 C 0.32579 0.75802 0.13553 0.0
C543 C 0.31937 0.73933 0.11628 0.0
C544 C 0.28395 0.73167 0.10467 0.0
C545 C 0.255 0.74292 0.11225 0.0
C546 C 0.26132 0.76169 0.13147 0.0
C547 C 0.45497 0.91626 0.21411 0.0
C548 C 0.46893 0.95634 0.20507 0.0
C549 C 0.41759 0.88019 0.20762 0.0
C550 C 0.39303 0.883 0.19185 0.0
C551 C 0.40827 0.92227 0.18177 0.0
C552 C 0.4459 0.9587 0.18834 0.0
C553 C 0.35005 0.84563 0.18728 0.0
C554 C 0.3421 0.82569 0.16817 0.0
C555 C 0.31766 0.82812 0.20234 0.0
C556 C 0.32362 0.84832 0.22264 0.0
C557 C 0.33419 0.8911 0.22429 0.0
C558 C 0.34094 0.91029 0.24343 0.0
C559 C 0.33684 0.88691 0.26106 0.0
C560 C 0.32586 0.84424 0.25958 0.0
C561 C 0.31918 0.82493 0.24047 0.0
H562 H 0.34211 0.90183 0.27587 0.0
H563 H 0.27898 0.71709 0.08979 0.0
H564 H 0.46222 0.14877 0.49812 0.0
H565 H 0.45978 0.21456 0.50254 0.0
H566 H 0.59661 0.28571 0.50854 0.0
H567 H 0.59912 0.22046 0.50467 0.0
H568 H 0.56383 0.30909 0.53711 0.0
H569 H 0.5403 0.28877 0.46455 0.0
H570 H 0.50326 0.24928 0.4335 0.0
H571 H 0.38755 0.24191 0.45419 0.0
H572 H 0.42378 0.2809 0.48549 0.0
H573 H 0.60517 0.51855 0.53336 0.0
H574 H 0.60097 0.45242 0.52185 0.0
H575 H 0.46377 0.3904 0.52143 0.0
H576 H 0.46818 0.4571 0.53256 0.0
H577 H 0.49202 0.36056 0.49036 0.0
H578 H 0.51523 0.38173 0.56226 0.0
H579 H 0.55166 0.42165 0.59329 0.0
H580 H 0.66696 0.4262 0.57416 0.0
H581 H 0.63143 0.38699 0.5428 0.0
C582 C 0.4918 0.1785 0.50018 0.0
C583 C 0.53083 0.17907 0.50109 0.0
C584 C 0.49041 0.21625 0.50265 0.0
C585 C 0.52807 0.25553 0.5058 0.0
C586 C 0.56701 0.25606 0.50627 0.0
C587 C 0.56838 0.2185 0.50398 0.0
C588 C 0.52739 0.29596 0.50943 0.0
C589 C 0.54857 0.32048 0.52667 0.0
C590 C 0.50637 0.31058 0.4963 0.0
C591 C 0.48464 0.28737 0.47745 0.0
C592 C 0.50688 0.27846 0.46254 0.0
C593 C 0.48605 0.25622 0.44489 0.0
C594 C 0.44305 0.243 0.4419 0.0
C595 C 0.42083 0.25212 0.45654 0.0
C596 C 0.44151 0.27432 0.47422 0.0
C597 C 0.57422 0.49117 0.53013 0.0
C598 C 0.53704 0.49305 0.53354 0.0
C599 C 0.57176 0.45322 0.52376 0.0
C600 C 0.532 0.41597 0.52109 0.0
C601 C 0.49482 0.41853 0.52336 0.0
C602 C 0.49732 0.45669 0.52963 0.0
C603 C 0.52939 0.37395 0.51769 0.0
C604 C 0.50735 0.34909 0.50069 0.0
C605 C 0.54951 0.3588 0.53106 0.0
C606 C 0.57076 0.38173 0.55009 0.0
C607 C 0.54843 0.39146 0.56461 0.0
C608 C 0.56892 0.41396 0.58226 0.0
C609 C 0.61162 0.42651 0.58568 0.0
C610 C 0.6339 0.41649 0.57148 0.0
C611 C 0.6136 0.39412 0.55376 0.0
H612 H 0.62743 0.44394 0.59936 0.0
H613 H 0.42697 0.22577 0.42823 0.0
H614 H 0.47423 0.61262 0.82072 0.0
H615 H 0.40763 0.61366 0.82423 0.0
H616 H 0.35265 0.49597 0.85809 0.0
H617 H 0.41855 0.49418 0.8542 0.0
H618 H 0.29594 0.4923 0.83267 0.0
H619 H 0.39101 0.598 0.88079 0.0
H620 H 0.4563 0.66313 0.89159 0.0
H621 H 0.42798 0.73768 0.85055 0.0
H622 H 0.36275 0.67289 0.83932 0.0
H623 H 0.12804 0.4911 0.88727 0.0
H624 H 0.19303 0.49399 0.87528 0.0
H625 H 0.22415 0.60596 0.83983 0.0
H626 H 0.15866 0.60331 0.85211 0.0
H627 H 0.29289 0.61659 0.86172 0.0
H628 H 0.19383 0.51131 0.81625 0.0
H629 H 0.12794 0.44614 0.80615 0.0
H630 H 0.16356 0.37067 0.84248 0.0
H631 H 0.22941 0.43546 0.85305 0.0
C632 C 0.44797 0.58691 0.82891 0.0
C633 C 0.45205 0.55336 0.8372 0.0
C634 C 0.40983 0.58766 0.83101 0.0
C635 C 0.3749 0.55517 0.84168 0.0
C636 C 0.37886 0.52148 0.84977 0.0
C637 C 0.41681 0.52056 0.84757 0.0
C638 C 0.33416 0.55583 0.84444 0.0
C639 C 0.29539 0.51941 0.83921 0.0
C640 C 0.33304 0.5916 0.85233 0.0
C641 C 0.37224 0.63054 0.85906 0.0
C642 C 0.39887 0.62824 0.87395 0.0
C643 C 0.43583 0.6651 0.88017 0.0
C644 C 0.4463 0.7045 0.87174 0.0
C645 C 0.41984 0.70713 0.85706 0.0
C646 C 0.38286 0.67036 0.85077 0.0
C647 C 0.14838 0.51604 0.87668 0.0
C648 C 0.13808 0.54694 0.87062 0.0
C649 C 0.18559 0.5176 0.86976 0.0
C650 C 0.21369 0.55006 0.85651 0.0
C651 C 0.20307 0.58053 0.85002 0.0
C652 C 0.16543 0.57879 0.85687 0.0
C653 C 0.25476 0.55271 0.85037 0.0
C654 C 0.29353 0.5897 0.85497 0.0
C655 C 0.25594 0.51744 0.84194 0.0
C656 C 0.21645 0.47832 0.83555 0.0
C657 C 0.18748 0.48086 0.82221 0.0
C658 C 0.15015 0.44397 0.81638 0.0
C659 C 0.14153 0.4043 0.8237 0.0
C660 C 0.17027 0.40143 0.83683 0.0
C661 C 0.20764 0.43822 0.84272 0.0
H662 H 0.11261 0.37578 0.81917 0.0
H663 H 0.47483 0.73302 0.87663 0.0
H664 H 0.88029 0.43025 0.15042 0.0
H665 H 0.81332 0.36264 0.15368 0.0
H666 H 0.8808 0.30667 0.18217 0.0
H667 H 0.94816 0.37339 0.17726 0.0
H668 H 0.82324 0.24915 0.16155 0.0
H669 H 0.81841 0.35 0.20831 0.0
H670 H 0.82151 0.41764 0.21678 0.0
H671 H 0.71443 0.38466 0.17779 0.0
H672 H 0.71122 0.31726 0.16872 0.0
H673 H 0.6561 0.08777 0.22107 0.0
H674 H 0.71929 0.15087 0.20781 0.0
H675 H 0.63942 0.17992 0.17052 0.0
H676 H 0.57572 0.11625 0.18385 0.0
H677 H 0.69905 0.25006 0.1924 0.0
H678 H 0.70077 0.14628 0.14836 0.0
H679 H 0.69866 0.07927 0.13974 0.0
H680 H 0.81193 0.11776 0.17497 0.0
H681 H 0.81439 0.18477 0.18404 0.0
C682 C 0.88079 0.40329 0.15712 0.0
C683 C 0.91946 0.40713 0.16358 0.0
C684 C 0.84232 0.36462 0.15924 0.0
C685 C 0.84121 0.32936 0.16885 0.0
C686 C 0.88024 0.33305 0.17479 0.0
C687 C 0.91889 0.37129 0.17198 0.0
C688 C 0.79976 0.28901 0.17306 0.0
C689 C 0.79641 0.2496 0.16854 0.0
C690 C 0.76372 0.28888 0.18165 0.0
C691 C 0.7648 0.32873 0.1877 0.0
C692 C 0.79559 0.35721 0.20151 0.0
C693 C 0.79739 0.39552 0.2064 0.0
C694 C 0.76819 0.4054 0.19783 0.0
C695 C 0.73704 0.37695 0.1844 0.0
C696 C 0.73521 0.33871 0.17938 0.0
C697 C 0.65202 0.10715 0.20975 0.0
C698 C 0.61089 0.09684 0.20341 0.0
C699 C 0.68823 0.14329 0.20216 0.0
C700 C 0.68438 0.17035 0.18808 0.0
C701 C 0.64334 0.15963 0.18135 0.0
C702 C 0.60697 0.12302 0.1888 0.0
C703 C 0.7232 0.21061 0.18128 0.0
C704 C 0.72597 0.24986 0.18535 0.0
C705 C 0.75886 0.21064 0.1725 0.0
C706 C 0.75757 0.17043 0.16701 0.0
C707 C 0.72505 0.14033 0.1544 0.0
C708 C 0.72382 0.10236 0.14941 0.0
C709 C 0.75509 0.09422 0.15684 0.0
C710 C 0.78771 0.12409 0.16923 0.0
C711 C 0.78907 0.1621 0.17428 0.0
H712 H 0.75408 0.06481 0.15296 0.0
H713 H 0.76962 0.43504 0.20162 0.0
H714 H 1.00292 0.58253 0.0989 0.0
H715 H 0.01306 0.57718 0.06259 0.0
H716 H 0.06061 0.49203 0.07511 0.0
H717 H 0.05104 0.498 0.1119 0.0
H718 H 0.10737 0.55003 0.04533 0.0
H719 H 0.96042 0.4524 0.05758 0.0
H720 H 0.88893 0.42876 0.07161 0.0
H721 H 0.88011 0.52275 0.03561 0.0
H722 H 0.95185 0.54744 0.02159 0.0
H723 H 0.08557 0.49794 0.93816 0.0
H724 H 0.07991 0.49294 0.97538 0.0
H725 H 0.03366 0.58135 0.97575 0.0
H726 H 0.04003 0.58725 0.93869 0.0
H727 H 0.98469 0.51128 -0.00065 0.0
H728 H 0.13451 0.61258 0.98979 0.0
H729 H 0.20668 0.63702 0.97643 0.0
H730 H 0.20952 0.53442 0.00748 0.0
H731 H 0.13706 0.50901 0.0208 0.0
C732 C 0.01567 0.56272 0.09398 0.0
C733 C 0.02618 0.54061 0.10822 0.0
C734 C 0.0213 0.55956 0.07318 0.0
C735 C 0.03689 0.53362 0.06606 0.0
C736 C 0.04838 0.51212 0.08026 0.0
C737 C 0.04294 0.51552 0.10124 0.0
C738 C 0.04042 0.52903 0.04372 0.0
C739 C 0.08037 0.54069 0.03528 0.0
C740 C 1.00529 0.51731 0.03057 0.0
C741 C 0.96166 0.50193 0.03861 0.0
C742 C 0.94333 0.46817 0.05272 0.0
C743 C 0.90275 0.45458 0.06067 0.0
C744 C 0.88002 0.47429 0.05453 0.0
C745 C 0.89776 0.50752 0.04035 0.0
C746 C 0.93836 0.52129 0.03237 0.0
C747 C 0.07476 0.5168 0.94618 0.0
C748 C 0.06318 0.54296 0.93537 0.0
C749 C 0.07139 0.51375 0.96746 0.0
C750 C 0.05643 0.53683 0.97837 0.0
C751 C 0.04503 0.56305 0.96765 0.0
C752 C 0.04855 0.56626 0.94642 0.0
C753 C 0.05186 0.53336 0.00092 0.0
C754 C 1.01158 0.52003 0.00939 0.0
C755 C 0.08662 0.54329 0.01404 0.0
C756 C 0.13018 0.5586 0.00608 0.0
C757 C 0.15037 0.59501 0.99362 0.0
C758 C 0.19136 0.60908 0.98608 0.0
C759 C 0.21262 0.5872 0.99105 0.0
C760 C 0.19298 0.55128 0.00361 0.0
C761 C 0.15197 0.53704 0.01117 0.0
H762 H 0.24436 0.59815 0.9852 0.0
H763 H 0.84864 0.46377 0.06073 0.0
H764 H 0.50602 1.00624 0.44544 0.0
H765 H 0.49467 0.99386 0.40861 0.0
H766 H 0.57588 0.12834 0.39752 0.0
H767 H 0.58721 0.14086 0.43422 0.0
H768 H 0.50347 0.09187 0.37307 0.0
H769 H 0.61552 0.06289 0.39333 0.0
H770 H 0.64402 0.02581 0.41377 0.0
H771 H 0.54568 0.90538 0.39101 0.0
H772 H 0.51633 0.94177 0.37058 0.0
H773 H 0.5642 0.10472 0.27044 0.0
H774 H 0.56212 0.109 0.30744 0.0
H775 H 0.50051 0.97221 0.31166 0.0
H776 H 0.50539 0.96784 0.27476 0.0
H777 H 0.55547 1.00372 0.34016 0.0
H778 H 0.44548 0.02892 0.31804 0.0
H779 H 0.4122 0.06216 0.29822 0.0
H780 H 0.4983 0.1835 0.32487 0.0
H781 H 0.53252 0.1511 0.34465 0.0
C782 C 0.52101 0.03317 0.43513 0.0
C783 C 0.54776 0.07448 0.44263 0.0
C784 C 0.51464 0.02605 0.41412 0.0
C785 C 0.53484 0.06015 0.40032 0.0
C786 C 0.56006 0.10159 0.40788 0.0
C787 C 0.56662 0.10867 0.42884 0.0
C788 C 0.53159 0.05277 0.37796 0.0
C789 C 0.51509 0.07287 0.36581 0.0
C790 C 0.54542 0.02678 0.3686 0.0
C791 C 0.56352 1.00501 0.38059 0.0
C792 C 0.59985 0.02849 0.39277 0.0
C793 C 0.61617 1.00761 0.40434 0.0
C794 C 0.59661 0.96326 0.40373 0.0
C795 C 0.56077 0.93972 0.39148 0.0
C796 C 0.54432 0.96046 0.37989 0.0
C797 C 0.55074 0.07551 0.27919 0.0
C798 C 0.53485 0.0359 0.26945 0.0
C799 C 0.54893 0.07797 0.30041 0.0
C800 C 0.5303 0.04086 0.31242 0.0
C801 C 0.51476 1.00132 0.30279 0.0
C802 C 0.51715 0.99886 0.28159 0.0
C803 C 0.52791 0.04344 0.33503 0.0
C804 C 0.54337 0.02242 0.34729 0.0
C805 C 0.51237 0.06797 0.34452 0.0
C806 C 0.4918 0.08762 0.3327 0.0
C807 C 0.45753 0.06275 0.31957 0.0
C808 C 0.43846 0.08144 0.30836 0.0
C809 C 0.45319 0.12494 0.31025 0.0
C810 C 0.48695 0.14982 0.32341 0.0
C811 C 0.50616 0.1313 0.33464 0.0
H812 H 0.43839 0.13935 0.30156 0.0
H813 H 0.60929 0.94716 0.41269 0.0
H814 H 0.49699 0.48079 0.76653 0.0
H815 H 0.50402 0.49329 0.72982 0.0
H816 H 0.62312 0.60989 0.73891 0.0
H817 H 0.61665 0.59708 0.776 0.0
H818 H 0.56143 0.6132 0.70976 0.0
H819 H 0.63345 0.53536 0.72307 0.0
H820 H 0.64096 0.47727 0.73809 0.0
H821 H 0.53104 0.38523 0.70496 0.0
H822 H 0.52246 0.44276 0.68998 0.0
H823 H 0.60267 0.62927 0.60262 0.0
H824 H 0.61041 0.62907 0.6397 0.0
H825 H 0.51149 0.49694 0.64173 0.0
H826 H 0.50445 0.49679 0.60467 0.0
H827 H 0.57246 0.50803 0.66592 0.0
H828 H 0.49513 0.58179 0.65507 0.0
H829 H 0.48299 0.63734 0.64046 0.0
H830 H 0.59714 0.7342 0.66906 0.0
H831 H 0.61028 0.6792 0.68362 0.0
C832 C 0.5247 0.50918 0.76078 0.0
C833 C 0.55643 0.53785 0.77412 0.0
C834 C 0.52863 0.51626 0.73979 0.0
C835 C 0.56418 0.55234 0.73166 0.0
C836 C 0.59546 0.58182 0.74493 0.0
C837 C 0.5918 0.57443 0.76604 0.0
C838 C 0.56862 0.55798 0.70921 0.0
C839 C 0.56474 0.59081 0.70012 0.0
C840 C 0.57182 0.52805 0.69671 0.0
C841 C 0.57713 0.49338 0.70553 0.0
C842 C 0.61068 0.50272 0.71911 0.0
C843 C 0.61516 0.46989 0.7276 0.0
C844 C 0.58645 0.42758 0.72251 0.0
C845 C 0.55325 0.41802 0.70889 0.0
C846 C 0.54859 0.45073 0.70038 0.0
C847 C 0.58252 0.60024 0.61102 0.0
C848 C 0.55287 0.56306 0.60075 0.0
C849 C 0.58689 0.60017 0.63222 0.0
C850 C 0.56113 0.56315 0.64363 0.0
C851 C 0.53182 0.5259 0.63332 0.0
C852 C 0.52782 0.52582 0.61213 0.0
C853 C 0.56446 0.56287 0.66627 0.0
C854 C 0.56974 0.5309 0.67545 0.0
C855 C 0.56199 0.59331 0.67881 0.0
C856 C 0.55392 0.6264 0.67025 0.0
C857 C 0.51779 0.61495 0.65813 0.0
C858 C 0.51072 0.64633 0.64987 0.0
C859 C 0.53933 0.68927 0.65379 0.0
C860 C 0.57504 0.70092 0.66601 0.0
C861 C 0.5823 0.66966 0.67429 0.0
H862 H 0.53377 0.71351 0.64739 0.0
H863 H 0.58997 0.40221 0.7291 0.0
H864 H 0.48456 0.98607 0.5669 0.0
H865 H 0.49768 0.99928 0.60343 0.0
H866 H 0.58622 0.13197 0.59132 0.0
H867 H 0.57344 0.11882 0.55463 0.0
H868 H 0.61457 0.09916 0.62158 0.0
H869 H 0.48824 0.1039 0.60606 0.0
H870 H 0.41694 0.07788 0.59126 0.0
H871 H 0.36601 0.9663 0.62905 0.0
H872 H 0.43715 0.99137 0.64387 0.0
H873 H 0.61009 0.14919 0.72727 0.0
H874 H 0.60327 0.15076 0.69 0.0
H875 H 0.5146 0.01547 0.69016 0.0
H876 H 0.52122 0.01383 0.72716 0.0
H877 H 0.48866 0.05954 0.66551 0.0
H878 H 0.61496 0.05057 0.67831 0.0
H879 H 0.68607 0.07448 0.69286 0.0
H880 H 0.73667 0.19264 0.66021 0.0
H881 H 0.66563 0.16962 0.64569 0.0
C882 C 0.50708 0.01797 0.57202 0.0
C883 C 0.52771 0.05151 0.55803 0.0
C884 C 0.51445 0.0255 0.59286 0.0
C885 C 0.5423 0.06675 0.60005 0.0
C886 C 0.56444 0.09998 0.58605 0.0
C887 C 0.55711 0.09243 0.56514 0.0
C888 C 0.54691 0.07513 0.62223 0.0
C889 C 0.58722 0.09129 0.63117 0.0
C890 C 0.51107 0.06436 0.6347 0.0
C891 C 0.46811 0.0494 0.62598 0.0
C892 C 0.46189 0.07369 0.61112 0.0
C893 C 0.4215 0.05912 0.60274 0.0
C894 C 0.38698 0.02043 0.60918 0.0
C895 C 0.39277 0.99627 0.62407 0.0
C896 C 0.43312 0.01066 0.63248 0.0
C897 C 0.5888 0.12001 0.71929 0.0
C898 C 0.56637 0.08135 0.72995 0.0
C899 C 0.58512 0.12087 0.69808 0.0
C900 C 0.5587 0.08314 0.68739 0.0
C901 C 0.53517 0.04488 0.69816 0.0
C902 C 0.53913 0.04395 0.71923 0.0
C903 C 0.55611 0.08272 0.6649 0.0
C904 C 0.51613 0.06807 0.65589 0.0
C905 C 0.59221 0.09477 0.65242 0.0
C906 C 0.63489 0.10862 0.66113 0.0
C907 C 0.64116 0.08182 0.67439 0.0
C908 C 0.68146 0.09517 0.6826 0.0
C909 C 0.71584 0.13513 0.67752 0.0
C910 C 0.70999 0.16175 0.66417 0.0
C911 C 0.66972 0.14857 0.65594 0.0
H912 H 0.74703 0.14541 0.68388 0.0
H913 H 0.35573 0.0092 0.60267 0.0
H914 H 0.65116 0.60193 0.89663 0.0
H915 H 0.64224 0.57441 0.93159 0.0
H916 H 0.50919 0.48675 0.91971 0.0
H917 H 0.51793 0.51394 0.88489 0.0
H918 H 0.52153 0.53137 0.95475 0.0
H919 H 0.57763 0.45433 0.92163 0.0
H920 H 0.62739 0.44065 0.90207 0.0
H921 H 0.72176 0.50047 0.94885 0.0
H922 H 0.6741 0.51746 0.96793 0.0
H923 H 0.47939 0.41881 0.04791 0.0
H924 H 0.48875 0.43023 0.01107 0.0
H925 H 0.61957 0.52814 0.02022 0.0
H926 H 0.61023 0.51805 0.05708 0.0
H927 H 0.60525 0.47238 0.98607 0.0
H928 H 0.55213 0.55903 0.01548 0.0
H929 H 0.50146 0.57016 0.03581 0.0
H930 H 0.39927 0.48605 0.99632 0.0
H931 H 0.44928 0.47386 0.97595 0.0
C932 C 0.6201 0.57674 0.90153 0.0
C933 C 0.58517 0.56018 0.88819 0.0
C934 C 0.6151 0.5609 0.9214 0.0
C935 C 0.57508 0.52844 0.92816 0.0
C936 C 0.5403 0.51179 0.91477 0.0
C937 C 0.54535 0.52734 0.89491 0.0
C938 C 0.56884 0.51323 0.94949 0.0
C939 C 0.53948 0.51794 0.96148 0.0
C940 C 0.59268 0.49617 0.95829 0.0
C941 C 0.62233 0.48787 0.94613 0.0
C942 C 0.60942 0.46572 0.9275 0.0
C943 C 0.63737 0.45745 0.91643 0.0
C944 C 0.67798 0.47024 0.92403 0.0
C945 C 0.69072 0.49137 0.94271 0.0
C946 C 0.66332 0.50056 0.95361 0.0
C947 C 0.51024 0.44263 0.04209 0.0
C948 C 0.54391 0.46788 0.05546 0.0
C949 C 0.51556 0.44889 0.02106 0.0
C950 C 0.55471 0.48027 0.01304 0.0
C951 C 0.58916 0.50368 0.02619 0.0
C952 C 0.58377 0.49773 0.04725 0.0
C953 C 0.55872 0.49131 0.99116 0.0
C954 C 0.58744 0.48575 0.97915 0.0
C955 C 0.53433 0.50749 0.98223 0.0
C956 C 0.50434 0.51515 0.99434 0.0
C957 C 0.51879 0.54262 0.01124 0.0
C958 C 0.49021 0.54916 0.02275 0.0
C959 C 0.44715 0.52872 0.0174 0.0
C960 C 0.43262 0.50179 0.00048 0.0
C961 C 0.46107 0.49506 0.98894 0.0
H962 H 0.42506 0.53383 0.02633 0.0
H963 H 0.69943 0.46346 0.91554 0.0
H964 H 0.01317 0.44745 0.23169 0.0
H965 H 0.99659 0.45326 0.26714 0.0
H966 H 1.00244 0.57236 0.25349 0.0
H967 H 0.02212 0.56801 0.21831 0.0
H968 H 0.04342 0.58292 0.28527 0.0
H969 H 0.90553 0.47697 0.26614 0.0
H970 H 0.84965 0.41086 0.25031 0.0
H971 H 0.87992 0.3368 0.29066 0.0
H972 H 0.93639 0.40247 0.30661 0.0
H973 H 0.93762 0.51187 0.39365 0.0
H974 H 0.92896 0.50635 0.35638 0.0
H975 H 0.06247 0.54731 0.34972 0.0
H976 H 0.07133 0.55448 0.38665 0.0
H977 H 0.93773 0.4625 0.32749 0.0
H978 H 0.10613 0.60897 0.31011 0.0
H979 H 0.1558 0.6785 0.32549 0.0
H980 H 0.05183 0.67831 0.35675 0.0
H981 H 1.00143 0.60912 0.34132 0.0
C982 C 1.01052 0.47465 0.23624 0.0
C983 C 0.01873 0.5072 0.22229 0.0
C984 C 1.00054 0.47774 0.25646 0.0
C985 C 0.99747 0.5129 0.263 0.0
C986 C 1.00448 0.54486 0.24885 0.0
C987 C 0.01544 0.54224 0.22872 0.0
C988 C 0.99113 0.51814 0.28495 0.0
C989 C 0.01994 0.55667 0.29441 0.0
C990 C 0.95963 0.48449 0.29691 0.0
C991 C 0.92539 0.44474 0.28752 0.0
C992 C 0.90046 0.44661 0.27158 0.0
C993 C 0.86865 0.4092 0.26258 0.0
C994 C 0.86129 0.36967 0.26943 0.0
C995 C 0.88565 0.36746 0.28536 0.0
C996 C 0.91751 0.40477 0.29443 0.0
C997 C 0.9649 0.51951 0.38411 0.0
C998 C 1.00522 0.53411 0.39282 0.0
C999 C 0.95999 0.51636 0.3629 0.0
C1000 C 0.99529 0.52742 0.35024 0.0
C1001 C 0.03505 0.5399 0.35912 0.0
C1002 C 0.04009 0.54377 0.38019 0.0
C1003 C 0.99129 0.52647 0.32771 0.0
C1004 C 0.96056 0.48888 0.31821 0.0
C1005 C 0.0199 0.56157 0.31558 0.0
C1006 C 0.05001 0.60367 0.32463 0.0
C1007 C 0.0938 0.62389 0.32015 0.0
C1008 C 0.1221 0.66322 0.32891 0.0
C1009 C 0.10699 0.68276 0.34212 0.0
C1010 C 0.06352 0.66308 0.34655 0.0
C1011 C 0.03507 0.62379 0.33781 0.0
H1012 H 0.12897 0.71318 0.34891 0.0
H1013 H 0.83668 0.34075 0.26242 0.0
loop_
_geom_bond_atom_site_label_1
_geom_bond_atom_site_label_2
_geom_bond_distance
_geom_bond_site_symmetry_2
_ccdc_geom_bond_type
Dy0 O4 2.398 . S
Dy0 O5 2.491 . S
Dy0 O6 2.403 . S
Dy0 O7 2.664 . S
Dy0 O11 2.326 . S
Dy0 O15 2.310 . S
Dy0 O16 2.351 1_455 S
C1 O12 1.185 . S
C1 O13 1.355 . S
C2 O4 1.185 . S
C2 O5 1.355 . S
Dy3 O7 2.318 . S
Dy3 O10 2.362 . S
Dy3 O12 2.384 1_455 S
Dy3 O13 2.480 1_455 S
Dy3 O14 2.406 . S
Dy3 O15 2.676 . S
Dy3 O17 2.325 1_455 S
O4 Dy0 2.398 . S
O4 C2 1.185 . S
O5 Dy0 2.491 . S
O5 C2 1.355 . S
O6 Dy0 2.403 . S
O6 C8 1.254 . S
O7 Dy0 2.664 . S
O7 Dy3 2.318 . S
O7 C8 1.268 . S
C8 O6 1.254 . S
C8 O7 1.268 . S
C9 O14 1.254 . S
C9 O15 1.268 . S
O10 Dy3 2.362 . S
O10 C18 1.249 . S
O11 Dy0 2.326 . S
O11 C18 1.267 . S
O12 C1 1.185 . S
O12 Dy3 2.384 1_655 S
O13 C1 1.355 . S
O13 Dy3 2.480 1_655 S
O14 Dy3 2.406 . S
O14 C9 1.254 . S
O15 Dy0 2.310 . S
O15 Dy3 2.676 . S
O15 C9 1.268 . S
O16 Dy0 2.351 1_655 S
O16 C19 1.249 . S
O17 Dy3 2.325 1_655 S
O17 C19 1.267 . S
C18 O10 1.249 . S
C18 O11 1.267 . S
C19 O16 1.249 . S
C19 O17 1.267 . S
Dy20 O24 2.398 1_545 S
Dy20 O25 2.491 1_545 S
Dy20 O26 2.403 . S
Dy20 O27 2.664 . S
Dy20 O31 2.326 1_545 S
Dy20 O35 2.310 . S
Dy20 O36 2.351 . S
C21 O32 1.185 . S
C21 O33 1.355 . S
C22 O24 1.185 . S
C22 O25 1.355 . S
Dy23 O27 2.310 . S
Dy23 O30 2.351 1_545 S
Dy23 O32 2.398 . S
Dy23 O33 2.491 . S
Dy23 O34 2.403 . S
Dy23 O35 2.664 . S
Dy23 O37 2.326 . S
O24 Dy20 2.398 1_565 S
O24 C22 1.185 . S
O25 Dy20 2.491 1_565 S
O25 C22 1.355 . S
O26 Dy20 2.403 . S
O26 C28 1.254 . S
O27 Dy20 2.664 . S
O27 Dy23 2.310 . S
O27 C28 1.268 . S
C28 O26 1.254 . S
C28 O27 1.268 . S
C29 O34 1.254 . S
C29 O35 1.268 . S
O30 Dy23 2.351 1_565 S
O30 C38 1.249 . S
O31 Dy20 2.326 1_565 S
O31 C38 1.267 . S
O32 C21 1.185 . S
O32 Dy23 2.398 . S
O33 C21 1.355 . S
O33 Dy23 2.491 . S
O34 Dy23 2.403 . S
O34 C29 1.254 . S
O35 Dy20 2.310 . S
O35 Dy23 2.664 . S
O35 C29 1.268 . S
O36 Dy20 2.351 . S
O36 C39 1.249 . S
O37 Dy23 2.326 . S
O37 C39 1.267 . S
C38 O30 1.249 . S
C38 O31 1.267 . S
C39 O36 1.249 . S
C39 O37 1.267 . S
Dy40 O44 2.398 . S
Dy40 O45 2.491 . S
Dy40 O46 2.403 . S
Dy40 O47 2.664 . S
Dy40 O51 2.326 . S
Dy40 O55 2.310 . S
Dy40 O56 2.351 . S
C41 O52 1.185 . S
C41 O53 1.355 . S
C42 O44 1.185 . S
C42 O45 1.355 . S
Dy43 O47 2.310 . S
Dy43 O50 2.351 . S
Dy43 O52 2.398 . S
Dy43 O53 2.491 . S
Dy43 O54 2.403 . S
Dy43 O55 2.664 . S
Dy43 O57 2.326 . S
O44 Dy40 2.398 . S
O44 C42 1.185 . S
O45 Dy40 2.491 . S
O45 C42 1.355 . S
O46 Dy40 2.403 . S
O46 C48 1.254 . S
O47 Dy40 2.664 . S
O47 Dy43 2.310 . S
O47 C48 1.268 . S
C48 O46 1.254 . S
C48 O47 1.268 . S
C49 O54 1.254 . S
C49 O55 1.268 . S
O50 Dy43 2.351 . S
O50 C58 1.249 . S
O51 Dy40 2.326 . S
O51 C58 1.267 . S
O52 C41 1.185 . S
O52 Dy43 2.398 . S
O53 C41 1.355 . S
O53 Dy43 2.491 . S
O54 Dy43 2.403 . S
O54 C49 1.254 . S
O55 Dy40 2.310 . S
O55 Dy43 2.664 . S
O55 C49 1.268 . S
O56 Dy40 2.351 . S
O56 C59 1.249 . S
O57 Dy43 2.326 . S
O57 C59 1.267 . S
C58 O50 1.249 . S
C58 O51 1.267 . S
C59 O56 1.249 . S
C59 O57 1.267 . S
H60 C63 0.931 . S
H61 C66 0.928 . S
H62 C68 0.930 . S
C63 H60 0.931 . S
C63 C64 1.413 . S
C63 C65 1.360 1_565 S
C64 C63 1.413 . S
C64 C68 1.429 1_565 S
C65 C63 1.360 1_545 S
C65 C66 1.372 . S
C66 H61 0.928 . S
C66 C65 1.372 . S
C66 C67 1.404 . S
C67 C66 1.404 . S
C67 C68 1.391 . S
C68 H62 0.930 . S
C68 C64 1.429 1_545 S
C68 C67 1.391 . S
H69 C72 0.931 . S
H70 C75 0.928 . S
H71 C77 0.930 . S
C72 H69 0.931 . S
C72 C73 1.413 . S
C72 C74 1.360 . S
C73 C72 1.413 . S
C73 C77 1.429 . S
C74 C72 1.360 . S
C74 C75 1.372 . S
C75 H70 0.928 . S
C75 C74 1.372 . S
C75 C76 1.404 . S
C76 C75 1.404 . S
C76 C77 1.391 . S
C77 H71 0.930 . S
C77 C73 1.429 . S
C77 C76 1.391 . S
H78 C81 0.931 . S
H79 C84 0.928 . S
H80 C86 0.930 . S
C81 H78 0.931 . S
C81 C82 1.413 . S
C81 C83 1.360 . S
C82 C81 1.413 . S
C82 C86 1.429 . S
C83 C81 1.360 . S
C83 C84 1.372 . S
C84 H79 0.928 . S
C84 C83 1.372 . S
C84 C85 1.404 . S
C85 C84 1.404 . S
C85 C86 1.391 . S
C86 H80 0.930 . S
C86 C82 1.429 . S
C86 C85 1.391 . S
H87 C90 0.931 . S
H88 C93 0.928 . S
H89 C95 0.930 . S
C90 H87 0.931 . S
C90 C91 1.413 . S
C90 C92 1.360 1_655 S
C91 C90 1.413 . S
C91 C95 1.429 1_655 S
C92 C90 1.360 1_455 S
C92 C93 1.372 . S
C93 H88 0.928 . S
C93 C92 1.372 . S
C93 C94 1.404 . S
C94 C93 1.404 . S
C94 C95 1.391 . S
C95 H89 0.930 . S
C95 C91 1.429 1_455 S
C95 C94 1.391 . S
H96 C99 0.931 . S
H97 C102 0.928 . S
H98 C104 0.930 . S
C99 H96 0.931 . S
C99 C100 1.413 . S
C99 C101 1.360 . S
C100 C99 1.413 . S
C100 C104 1.429 . S
C101 C99 1.360 . S
C101 C102 1.372 . S
C102 H97 0.928 . S
C102 C101 1.372 . S
C102 C103 1.404 . S
C103 C102 1.404 . S
C103 C104 1.391 . S
C104 H98 0.930 . S
C104 C100 1.429 . S
C104 C103 1.391 . S
H105 C108 0.931 . S
H106 C111 0.928 . S
H107 C113 0.930 . S
C108 H105 0.931 . S
C108 C109 1.413 . S
C108 C110 1.360 . S
C109 C108 1.413 . S
C109 C113 1.429 . S
C110 C108 1.360 . S
C110 C111 1.372 . S
C111 H106 0.928 . S
C111 C110 1.372 . S
C111 C112 1.404 . S
C112 C111 1.404 . S
C112 C113 1.391 . S
C113 H107 0.930 . S
C113 C109 1.429 . S
C113 C112 1.391 . S
H114 C132 0.951 . S
H115 C134 0.951 . S
H116 C136 0.950 . S
H117 C137 0.950 . S
H118 C139 0.950 . S
H119 C142 0.950 . S
H120 C143 0.950 . S
H121 C145 0.950 . S
H122 C146 0.950 . S
H123 C147 0.951 . S
H124 C149 0.951 . S
H125 C151 0.950 . S
H126 C152 0.950 . S
H127 C154 0.950 . S
H128 C157 0.950 . S
H129 C158 0.950 . S
H130 C160 0.950 . S
H131 C161 0.950 . S
C132 H114 0.951 . S
C132 C133 1.366 . S
C132 C134 1.388 . S
C133 C132 1.366 . S
C133 C137 1.385 . S
C134 H115 0.951 . S
C134 C132 1.388 . S
C134 C135 1.366 . S
C135 C134 1.366 . S
C135 C136 1.414 . S
C135 C138 1.499 . S
C136 H116 0.950 . S
C136 C135 1.414 . S
C136 C137 1.374 . S
C137 H117 0.950 . S
C137 C133 1.385 . S
C137 C136 1.374 . S
C138 C135 1.499 . S
C138 C139 1.373 . S
C138 C140 1.389 . S
C139 H118 0.950 . S
C139 C138 1.373 . S
C139 C155 1.377 . S
C140 C138 1.389 . S
C140 C141 1.524 . S
C140 C154 1.377 . S
C141 C140 1.524 . S
C141 C142 1.397 . S
C141 C146 1.363 . S
C142 H119 0.950 . S
C142 C141 1.397 . S
C142 C143 1.334 . S
C143 H120 0.950 . S
C143 C142 1.334 . S
C143 C144 1.287 . S
C144 C143 1.287 . S
C144 C145 1.524 . S
C144 H163 0.913 . S
C145 H121 0.950 . S
C145 C144 1.524 . S
C145 C146 1.415 . S
C146 H122 0.950 . S
C146 C141 1.363 . S
C146 C145 1.415 . S
C147 H123 0.951 . S
C147 C148 1.366 . S
C147 C149 1.388 . S
C148 C147 1.366 . S
C148 C152 1.385 . S
C149 H124 0.951 . S
C149 C147 1.388 . S
C149 C150 1.366 . S
C150 C149 1.366 . S
C150 C151 1.414 . S
C150 C153 1.499 . S
C151 H125 0.950 . S
C151 C150 1.414 . S
C151 C152 1.374 . S
C152 H126 0.950 . S
C152 C148 1.385 . S
C152 C151 1.374 . S
C153 C150 1.499 . S
C153 C154 1.373 . S
C153 C155 1.389 . S
C154 H127 0.950 . S
C154 C140 1.377 . S
C154 C153 1.373 . S
C155 C139 1.377 . S
C155 C153 1.389 . S
C155 C156 1.524 . S
C156 C155 1.524 . S
C156 C157 1.397 . S
C156 C161 1.363 . S
C157 H128 0.950 . S
C157 C156 1.397 . S
C157 C158 1.334 . S
C158 H129 0.950 . S
C158 C157 1.334 . S
C158 C159 1.287 . S
C159 C158 1.287 . S
C159 C160 1.524 . S
C159 H162 0.999 . S
C160 H130 0.950 . S
C160 C159 1.524 . S
C160 C161 1.415 . S
C161 H131 0.950 . S
C161 C156 1.363 . S
C161 C160 1.415 . S
H162 C159 0.999 . S
H163 C144 0.913 . S
H164 C182 0.951 . S
H165 C184 0.951 . S
H166 C186 0.950 . S
H167 C187 0.950 . S
H168 C189 0.950 . S
H169 C192 0.950 . S
H170 C193 0.950 . S
H171 C195 0.950 . S
H172 C196 0.950 . S
H173 C197 0.951 . S
H174 C199 0.951 . S
H175 C201 0.950 . S
H176 C202 0.950 . S
H177 C204 0.950 . S
H178 C207 0.950 . S
H179 C208 0.950 . S
H180 C210 0.950 . S
H181 C211 0.950 . S
C182 H164 0.951 . S
C182 C183 1.366 . S
C182 C184 1.388 . S
C183 C182 1.366 . S
C183 C187 1.385 . S
C184 H165 0.951 . S
C184 C182 1.388 . S
C184 C185 1.366 . S
C185 C184 1.366 . S
C185 C186 1.414 . S
C185 C188 1.499 . S
C186 H166 0.950 . S
C186 C185 1.414 . S
C186 C187 1.374 . S
C187 H167 0.950 . S
C187 C183 1.385 . S
C187 C186 1.374 . S
C188 C185 1.499 . S
C188 C189 1.373 . S
C188 C190 1.389 . S
C189 H168 0.950 . S
C189 C188 1.373 . S
C189 C205 1.377 . S
C190 C188 1.389 . S
C190 C191 1.524 . S
C190 C204 1.377 . S
C191 C190 1.524 . S
C191 C192 1.397 . S
C191 C196 1.363 . S
C192 H169 0.950 . S
C192 C191 1.397 . S
C192 C193 1.334 . S
C193 H170 0.950 . S
C193 C192 1.334 . S
C193 C194 1.287 . S
C194 C193 1.287 . S
C194 C195 1.524 . S
C194 H213 0.913 . S
C195 H171 0.950 . S
C195 C194 1.524 . S
C195 C196 1.415 . S
C196 H172 0.950 . S
C196 C191 1.363 . S
C196 C195 1.415 . S
C197 H173 0.951 . S
C197 C198 1.366 . S
C197 C199 1.388 . S
C198 C197 1.366 . S
C198 C202 1.385 . S
C199 H174 0.951 . S
C199 C197 1.388 . S
C199 C200 1.366 . S
C200 C199 1.366 . S
C200 C201 1.414 . S
C200 C203 1.499 . S
C201 H175 0.950 . S
C201 C200 1.414 . S
C201 C202 1.374 . S
C202 H176 0.950 . S
C202 C198 1.385 . S
C202 C201 1.374 . S
C203 C200 1.499 . S
C203 C204 1.373 . S
C203 C205 1.389 . S
C204 H177 0.950 . S
C204 C190 1.377 . S
C204 C203 1.373 . S
C205 C189 1.377 . S
C205 C203 1.389 . S
C205 C206 1.524 . S
C206 C205 1.524 . S
C206 C207 1.397 . S
C206 C211 1.363 . S
C207 H178 0.950 . S
C207 C206 1.397 . S
C207 C208 1.334 . S
C208 H179 0.950 . S
C208 C207 1.334 . S
C208 C209 1.287 . S
C209 C208 1.287 . S
C209 C210 1.524 . S
C209 H212 0.999 . S
C210 H180 0.950 . S
C210 C209 1.524 . S
C210 C211 1.415 . S
C211 H181 0.950 . S
C211 C206 1.363 . S
C211 C210 1.415 . S
H212 C209 0.999 . S
H213 C194 0.913 . S
H214 C232 0.951 . S
H215 C234 0.951 . S
H216 C236 0.950 . S
H217 C237 0.950 . S
H218 C239 0.950 . S
H219 C242 0.950 . S
H220 C243 0.950 . S
H221 C245 0.950 . S
H222 C246 0.950 . S
H223 C247 0.951 . S
H224 C249 0.951 . S
H225 C251 0.950 . S
H226 C252 0.950 . S
H227 C254 0.950 . S
H228 C257 0.950 . S
H229 C258 0.950 . S
H230 C260 0.950 . S
H231 C261 0.950 . S
C232 H214 0.951 . S
C232 C233 1.366 . S
C232 C234 1.388 . S
C233 C232 1.366 . S
C233 C237 1.385 . S
C234 H215 0.951 . S
C234 C232 1.388 . S
C234 C235 1.366 . S
C235 C234 1.366 . S
C235 C236 1.414 . S
C235 C238 1.499 . S
C236 H216 0.950 . S
C236 C235 1.414 . S
C236 C237 1.374 . S
C237 H217 0.950 . S
C237 C233 1.385 . S
C237 C236 1.374 . S
C238 C235 1.499 . S
C238 C239 1.373 . S
C238 C240 1.389 . S
C239 H218 0.950 . S
C239 C238 1.373 . S
C239 C255 1.377 . S
C240 C238 1.389 . S
C240 C241 1.524 . S
C240 C254 1.377 . S
C241 C240 1.524 . S
C241 C242 1.397 . S
C241 C246 1.363 . S
C242 H219 0.950 . S
C242 C241 1.397 . S
C242 C243 1.334 . S
C243 H220 0.950 . S
C243 C242 1.334 . S
C243 C244 1.287 . S
C244 C243 1.287 . S
C244 C245 1.524 . S
C244 H263 0.913 . S
C245 H221 0.950 . S
C245 C244 1.524 . S
C245 C246 1.415 . S
C246 H222 0.950 . S
C246 C241 1.363 . S
C246 C245 1.415 . S
C247 H223 0.951 . S
C247 C248 1.366 1_565 S
C247 C249 1.388 . S
C248 C247 1.366 1_545 S
C248 C252 1.385 . S
C249 H224 0.951 . S
C249 C247 1.388 . S
C249 C250 1.366 . S
C250 C249 1.366 . S
C250 C251 1.414 . S
C250 C253 1.499 . S
C251 H225 0.950 . S
C251 C250 1.414 . S
C251 C252 1.374 1_565 S
C252 H226 0.950 . S
C252 C248 1.385 . S
C252 C251 1.374 1_545 S
C253 C250 1.499 . S
C253 C254 1.373 . S
C253 C255 1.389 . S
C254 H227 0.950 . S
C254 C240 1.377 . S
C254 C253 1.373 . S
C255 C239 1.377 . S
C255 C253 1.389 . S
C255 C256 1.524 . S
C256 C255 1.524 . S
C256 C257 1.397 . S
C256 C261 1.363 . S
C257 H228 0.950 . S
C257 C256 1.397 . S
C257 C258 1.334 . S
C258 H229 0.950 . S
C258 C257 1.334 . S
C258 C259 1.287 . S
C259 C258 1.287 . S
C259 C260 1.524 . S
C259 H262 0.999 . S
C260 H230 0.950 . S
C260 C259 1.524 . S
C260 C261 1.415 . S
C261 H231 0.950 . S
C261 C256 1.363 . S
C261 C260 1.415 . S
H262 C259 0.999 . S
H263 C244 0.913 . S
H264 C282 0.951 . S
H265 C284 0.951 . S
H266 C286 0.950 . S
H267 C287 0.950 . S
H268 C289 0.950 . S
H269 C292 0.950 . S
H270 C293 0.950 . S
H271 C295 0.950 . S
H272 C296 0.950 . S
H273 C297 0.951 . S
H274 C299 0.951 . S
H275 C301 0.950 . S
H276 C302 0.950 . S
H277 C304 0.950 . S
H278 C307 0.950 . S
H279 C308 0.950 . S
H280 C310 0.950 . S
H281 C311 0.950 . S
C282 H264 0.951 . S
C282 C283 1.366 . S
C282 C284 1.388 . S
C283 C282 1.366 . S
C283 C287 1.385 . S
C284 H265 0.951 . S
C284 C282 1.388 . S
C284 C285 1.366 . S
C285 C284 1.366 . S
C285 C286 1.414 . S
C285 C288 1.499 . S
C286 H266 0.950 . S
C286 C285 1.414 . S
C286 C287 1.374 . S
C287 H267 0.950 . S
C287 C283 1.385 . S
C287 C286 1.374 . S
C288 C285 1.499 . S
C288 C289 1.373 . S
C288 C290 1.389 . S
C289 H268 0.950 . S
C289 C288 1.373 . S
C289 C305 1.377 . S
C290 C288 1.389 . S
C290 C291 1.524 . S
C290 C304 1.377 . S
C291 C290 1.524 . S
C291 C292 1.397 . S
C291 C296 1.363 . S
C292 H269 0.950 . S
C292 C291 1.397 . S
C292 C293 1.334 . S
C293 H270 0.950 . S
C293 C292 1.334 . S
C293 C294 1.287 . S
C294 C293 1.287 . S
C294 C295 1.524 . S
C294 H313 0.913 . S
C295 H271 0.950 . S
C295 C294 1.524 . S
C295 C296 1.415 . S
C296 H272 0.950 . S
C296 C291 1.363 . S
C296 C295 1.415 . S
C297 H273 0.951 . S
C297 C298 1.366 . S
C297 C299 1.388 . S
C298 C297 1.366 . S
C298 C302 1.385 . S
C299 H274 0.951 . S
C299 C297 1.388 . S
C299 C300 1.366 . S
C300 C299 1.366 . S
C300 C301 1.414 . S
C300 C303 1.499 . S
C301 H275 0.950 . S
C301 C300 1.414 . S
C301 C302 1.374 . S
C302 H276 0.950 . S
C302 C298 1.385 . S
C302 C301 1.374 . S
C303 C300 1.499 . S
C303 C304 1.373 . S
C303 C305 1.389 . S
C304 H277 0.950 . S
C304 C290 1.377 . S
C304 C303 1.373 . S
C305 C289 1.377 . S
C305 C303 1.389 . S
C305 C306 1.524 . S
C306 C305 1.524 . S
C306 C307 1.397 . S
C306 C311 1.363 . S
C307 H278 0.950 . S
C307 C306 1.397 . S
C307 C308 1.334 . S
C308 H279 0.950 . S
C308 C307 1.334 . S
C308 C309 1.287 . S
C309 C308 1.287 . S
C309 C310 1.524 . S
C309 H312 0.999 . S
C310 H280 0.950 . S
C310 C309 1.524 . S
C310 C311 1.415 . S
C311 H281 0.950 . S
C311 C306 1.363 . S
C311 C310 1.415 . S
H312 C309 0.999 . S
H313 C294 0.913 . S
H314 C332 0.951 . S
H315 C334 0.951 . S
H316 C336 0.950 . S
H317 C337 0.950 . S
H318 C339 0.950 . S
H319 C342 0.950 . S
H320 C343 0.950 . S
H321 C345 0.950 . S
H322 C346 0.950 . S
H323 C347 0.951 . S
H324 C349 0.951 . S
H325 C351 0.950 . S
H326 C352 0.950 . S
H327 C354 0.950 . S
H328 C357 0.950 . S
H329 C358 0.950 . S
H330 C360 0.950 . S
H331 C361 0.950 . S
C332 H314 0.951 . S
C332 C333 1.366 . S
C332 C334 1.388 . S
C333 C332 1.366 . S
C333 C337 1.385 . S
C334 H315 0.951 . S
C334 C332 1.388 . S
C334 C335 1.366 . S
C335 C334 1.366 . S
C335 C336 1.414 . S
C335 C338 1.499 . S
C336 H316 0.950 . S
C336 C335 1.414 . S
C336 C337 1.374 . S
C337 H317 0.950 . S
C337 C333 1.385 . S
C337 C336 1.374 . S
C338 C335 1.499 . S
C338 C339 1.373 . S
C338 C340 1.389 . S
C339 H318 0.950 . S
C339 C338 1.373 . S
C339 C355 1.377 . S
C340 C338 1.389 . S
C340 C341 1.524 . S
C340 C354 1.377 . S
C341 C340 1.524 . S
C341 C342 1.397 . S
C341 C346 1.363 . S
C342 H319 0.950 . S
C342 C341 1.397 . S
C342 C343 1.334 . S
C343 H320 0.950 . S
C343 C342 1.334 . S
C343 C344 1.287 . S
C344 C343 1.287 . S
C344 C345 1.524 . S
C344 H363 0.913 . S
C345 H321 0.950 . S
C345 C344 1.524 . S
C345 C346 1.415 . S
C346 H322 0.950 . S
C346 C341 1.363 . S
C346 C345 1.415 . S
C347 H323 0.951 . S
C347 C348 1.366 . S
C347 C349 1.388 . S
C348 C347 1.366 . S
C348 C352 1.385 . S
C349 H324 0.951 . S
C349 C347 1.388 . S
C349 C350 1.366 . S
C350 C349 1.366 . S
C350 C351 1.414 . S
C350 C353 1.499 . S
C351 H325 0.950 . S
C351 C350 1.414 . S
C351 C352 1.374 . S
C352 H326 0.950 . S
C352 C348 1.385 . S
C352 C351 1.374 . S
C353 C350 1.499 . S
C353 C354 1.373 . S
C353 C355 1.389 . S
C354 H327 0.950 . S
C354 C340 1.377 . S
C354 C353 1.373 . S
C355 C339 1.377 . S
C355 C353 1.389 . S
C355 C356 1.524 . S
C356 C355 1.524 . S
C356 C357 1.397 . S
C356 C361 1.363 . S
C357 H328 0.950 . S
C357 C356 1.397 . S
C357 C358 1.334 . S
C358 H329 0.950 . S
C358 C357 1.334 . S
C358 C359 1.287 . S
C359 C358 1.287 . S
C359 C360 1.524 . S
C359 H362 0.999 . S
C360 H330 0.950 . S
C360 C359 1.524 . S
C360 C361 1.415 . S
C361 H331 0.950 . S
C361 C356 1.363 . S
C361 C360 1.415 . S
H362 C359 0.999 . S
H363 C344 0.913 . S
H364 C382 0.951 . S
H365 C384 0.951 . S
H366 C386 0.950 . S
H367 C387 0.950 . S
H368 C389 0.950 . S
H369 C392 0.950 . S
H370 C393 0.950 . S
H371 C395 0.950 . S
H372 C396 0.950 . S
H373 C397 0.951 . S
H374 C399 0.951 . S
H375 C401 0.950 . S
H376 C402 0.950 . S
H377 C404 0.950 . S
H378 C407 0.950 . S
H379 C408 0.950 . S
H380 C410 0.950 . S
H381 C411 0.950 . S
C382 H364 0.951 . S
C382 C383 1.366 . S
C382 C384 1.388 . S
C383 C382 1.366 . S
C383 C387 1.385 . S
C384 H365 0.951 . S
C384 C382 1.388 . S
C384 C385 1.366 . S
C385 C384 1.366 . S
C385 C386 1.414 . S
C385 C388 1.499 . S
C386 H366 0.950 . S
C386 C385 1.414 . S
C386 C387 1.374 . S
C387 H367 0.950 . S
C387 C383 1.385 . S
C387 C386 1.374 . S
C388 C385 1.499 . S
C388 C389 1.373 . S
C388 C390 1.389 . S
C389 H368 0.950 . S
C389 C388 1.373 . S
C389 C405 1.377 . S
C390 C388 1.389 . S
C390 C391 1.524 . S
C390 C404 1.377 . S
C391 C390 1.524 . S
C391 C392 1.397 . S
C391 C396 1.363 . S
C392 H369 0.950 . S
C392 C391 1.397 . S
C392 C393 1.334 . S
C393 H370 0.950 . S
C393 C392 1.334 . S
C393 C394 1.287 . S
C394 C393 1.287 . S
C394 C395 1.524 . S
C394 H413 0.913 . S
C395 H371 0.950 . S
C395 C394 1.524 . S
C395 C396 1.415 . S
C396 H372 0.950 . S
C396 C391 1.363 . S
C396 C395 1.415 . S
C397 H373 0.951 . S
C397 C398 1.366 . S
C397 C399 1.388 . S
C398 C397 1.366 . S
C398 C402 1.385 . S
C399 H374 0.951 . S
C399 C397 1.388 . S
C399 C400 1.366 . S
C400 C399 1.366 . S
C400 C401 1.414 . S
C400 C403 1.499 . S
C401 H375 0.950 . S
C401 C400 1.414 . S
C401 C402 1.374 . S
C402 H376 0.950 . S
C402 C398 1.385 . S
C402 C401 1.374 . S
C403 C400 1.499 . S
C403 C404 1.373 . S
C403 C405 1.389 . S
C404 H377 0.950 . S
C404 C390 1.377 . S
C404 C403 1.373 . S
C405 C389 1.377 . S
C405 C403 1.389 . S
C405 C406 1.524 . S
C406 C405 1.524 . S
C406 C407 1.397 . S
C406 C411 1.363 . S
C407 H378 0.950 . S
C407 C406 1.397 . S
C407 C408 1.334 . S
C408 H379 0.950 . S
C408 C407 1.334 . S
C408 C409 1.287 . S
C409 C408 1.287 . S
C409 C410 1.524 . S
C409 H412 0.999 . S
C410 H380 0.950 . S
C410 C409 1.524 . S
C410 C411 1.415 . S
C411 H381 0.950 . S
C411 C406 1.363 . S
C411 C410 1.415 . S
H412 C409 0.999 . S
H413 C394 0.913 . S
H414 C432 0.951 . S
H415 C434 0.951 . S
H416 C436 0.950 . S
H417 C437 0.950 . S
H418 C439 0.950 . S
H419 C442 0.950 . S
H420 C443 0.950 . S
H421 C445 0.950 . S
H422 C446 0.950 . S
H423 C447 0.951 . S
H424 C449 0.951 . S
H425 C451 0.950 . S
H426 C452 0.950 . S
H427 C454 0.950 . S
H428 C457 0.950 . S
H429 C458 0.950 . S
H430 C460 0.950 . S
H431 C461 0.950 . S
C432 H414 0.951 . S
C432 C433 1.366 . S
C432 C434 1.388 . S
C433 C432 1.366 . S
C433 C437 1.385 . S
C434 H415 0.951 . S
C434 C432 1.388 . S
C434 C435 1.366 . S
C435 C434 1.366 . S
C435 C436 1.414 . S
C435 C438 1.499 . S
C436 H416 0.950 . S
C436 C435 1.414 . S
C436 C437 1.374 . S
C437 H417 0.950 . S
C437 C433 1.385 . S
C437 C436 1.374 . S
C438 C435 1.499 . S
C438 C439 1.373 . S
C438 C440 1.389 . S
C439 H418 0.950 . S
C439 C438 1.373 . S
C439 C455 1.377 . S
C440 C438 1.389 . S
C440 C441 1.524 . S
C440 C454 1.377 . S
C441 C440 1.524 . S
C441 C442 1.397 . S
C441 C446 1.363 . S
C442 H419 0.950 . S
C442 C441 1.397 . S
C442 C443 1.334 . S
C443 H420 0.950 . S
C443 C442 1.334 . S
C443 C444 1.287 . S
C444 C443 1.287 . S
C444 C445 1.524 . S
C444 H463 0.913 . S
C445 H421 0.950 . S
C445 C444 1.524 . S
C445 C446 1.415 . S
C446 H422 0.950 . S
C446 C441 1.363 . S
C446 C445 1.415 . S
C447 H423 0.951 . S
C447 C448 1.366 . S
C447 C449 1.388 . S
C448 C447 1.366 . S
C448 C452 1.385 . S
C449 H424 0.951 . S
C449 C447 1.388 . S
C449 C450 1.366 . S
C450 C449 1.366 . S
C450 C451 1.414 . S
C450 C453 1.499 . S
C451 H425 0.950 . S
C451 C450 1.414 . S
C451 C452 1.374 . S
C452 H426 0.950 . S
C452 C448 1.385 . S
C452 C451 1.374 . S
C453 C450 1.499 . S
C453 C454 1.373 . S
C453 C455 1.389 . S
C454 H427 0.950 . S
C454 C440 1.377 . S
C454 C453 1.373 . S
C455 C439 1.377 . S
C455 C453 1.389 . S
C455 C456 1.524 . S
C456 C455 1.524 . S
C456 C457 1.397 . S
C456 C461 1.363 . S
C457 H428 0.950 . S
C457 C456 1.397 . S
C457 C458 1.334 . S
C458 H429 0.950 . S
C458 C457 1.334 . S
C458 C459 1.287 . S
C459 C458 1.287 . S
C459 C460 1.524 . S
C459 H462 0.999 . S
C460 H430 0.950 . S
C460 C459 1.524 . S
C460 C461 1.415 . S
C461 H431 0.950 . S
C461 C456 1.363 . S
C461 C460 1.415 . S
H462 C459 0.999 . S
H463 C444 0.913 . S
H464 C482 0.951 . S
H465 C484 0.951 . S
H466 C486 0.950 . S
H467 C487 0.950 . S
H468 C489 0.950 . S
H469 C492 0.950 . S
H470 C493 0.950 . S
H471 C495 0.950 . S
H472 C496 0.950 . S
H473 C497 0.951 . S
H474 C499 0.951 . S
H475 C501 0.950 . S
H476 C502 0.950 . S
H477 C504 0.950 . S
H478 C507 0.950 . S
H479 C508 0.950 . S
H480 C510 0.950 . S
H481 C511 0.950 . S
C482 H464 0.951 . S
C482 C483 1.366 . S
C482 C484 1.388 . S
C483 C482 1.366 . S
C483 C487 1.385 . S
C484 H465 0.951 . S
C484 C482 1.388 . S
C484 C485 1.366 . S
C485 C484 1.366 . S
C485 C486 1.414 . S
C485 C488 1.499 . S
C486 H466 0.950 . S
C486 C485 1.414 . S
C486 C487 1.374 . S
C487 H467 0.950 . S
C487 C483 1.385 . S
C487 C486 1.374 . S
C488 C485 1.499 . S
C488 C489 1.373 . S
C488 C490 1.389 . S
C489 H468 0.950 . S
C489 C488 1.373 . S
C489 C505 1.377 . S
C490 C488 1.389 . S
C490 C491 1.524 . S
C490 C504 1.377 . S
C491 C490 1.524 . S
C491 C492 1.397 . S
C491 C496 1.363 . S
C492 H469 0.950 . S
C492 C491 1.397 . S
C492 C493 1.334 . S
C493 H470 0.950 . S
C493 C492 1.334 . S
C493 C494 1.287 . S
C494 C493 1.287 . S
C494 C495 1.524 . S
C494 H513 0.913 . S
C495 H471 0.950 . S
C495 C494 1.524 . S
C495 C496 1.415 . S
C496 H472 0.950 . S
C496 C491 1.363 . S
C496 C495 1.415 . S
C497 H473 0.951 . S
C497 C498 1.366 . S
C497 C499 1.388 . S
C498 C497 1.366 . S
C498 C502 1.385 . S
C499 H474 0.951 . S
C499 C497 1.388 . S
C499 C500 1.366 . S
C500 C499 1.366 . S
C500 C501 1.414 . S
C500 C503 1.499 . S
C501 H475 0.950 . S
C501 C500 1.414 . S
C501 C502 1.374 . S
C502 H476 0.950 . S
C502 C498 1.385 . S
C502 C501 1.374 . S
C503 C500 1.499 . S
C503 C504 1.373 . S
C503 C505 1.389 . S
C504 H477 0.950 . S
C504 C490 1.377 . S
C504 C503 1.373 . S
C505 C489 1.377 . S
C505 C503 1.389 . S
C505 C506 1.524 . S
C506 C505 1.524 . S
C506 C507 1.397 . S
C506 C511 1.363 . S
C507 H478 0.950 . S
C507 C506 1.397 . S
C507 C508 1.334 . S
C508 H479 0.950 . S
C508 C507 1.334 . S
C508 C509 1.287 . S
C509 C508 1.287 . S
C509 C510 1.524 . S
C509 H512 0.999 . S
C510 H480 0.950 . S
C510 C509 1.524 . S
C510 C511 1.415 . S
C511 H481 0.950 . S
C511 C506 1.363 . S
C511 C510 1.415 . S
H512 C509 0.999 . S
H513 C494 0.913 . S
H514 C532 0.951 . S
H515 C534 0.951 . S
H516 C536 0.950 . S
H517 C537 0.950 . S
H518 C539 0.950 . S
H519 C542 0.950 . S
H520 C543 0.950 . S
H521 C545 0.950 . S
H522 C546 0.950 . S
H523 C547 0.951 . S
H524 C549 0.951 . S
H525 C551 0.950 . S
H526 C552 0.950 . S
H527 C554 0.950 . S
H528 C557 0.950 . S
H529 C558 0.950 . S
H530 C560 0.950 . S
H531 C561 0.950 . S
C532 H514 0.951 . S
C532 C533 1.366 . S
C532 C534 1.388 . S
C533 C532 1.366 . S
C533 C537 1.385 . S
C534 H515 0.951 . S
C534 C532 1.388 . S
C534 C535 1.366 . S
C535 C534 1.366 . S
C535 C536 1.414 . S
C535 C538 1.499 . S
C536 H516 0.950 . S
C536 C535 1.414 . S
C536 C537 1.374 . S
C537 H517 0.950 . S
C537 C533 1.385 . S
C537 C536 1.374 . S
C538 C535 1.499 . S
C538 C539 1.373 . S
C538 C540 1.389 . S
C539 H518 0.950 . S
C539 C538 1.373 . S
C539 C555 1.377 . S
C540 C538 1.389 . S
C540 C541 1.524 . S
C540 C554 1.377 . S
C541 C540 1.524 . S
C541 C542 1.397 . S
C541 C546 1.363 . S
C542 H519 0.950 . S
C542 C541 1.397 . S
C542 C543 1.334 . S
C543 H520 0.950 . S
C543 C542 1.334 . S
C543 C544 1.287 . S
C544 C543 1.287 . S
C544 C545 1.524 . S
C544 H563 0.913 . S
C545 H521 0.950 . S
C545 C544 1.524 . S
C545 C546 1.415 . S
C546 H522 0.950 . S
C546 C541 1.363 . S
C546 C545 1.415 . S
C547 H523 0.951 . S
C547 C548 1.366 . S
C547 C549 1.388 . S
C548 C547 1.366 . S
C548 C552 1.385 . S
C549 H524 0.951 . S
C549 C547 1.388 . S
C549 C550 1.366 . S
C550 C549 1.366 . S
C550 C551 1.414 . S
C550 C553 1.499 . S
C551 H525 0.950 . S
C551 C550 1.414 . S
C551 C552 1.374 . S
C552 H526 0.950 . S
C552 C548 1.385 . S
C552 C551 1.374 . S
C553 C550 1.499 . S
C553 C554 1.373 . S
C553 C555 1.389 . S
C554 H527 0.950 . S
C554 C540 1.377 . S
C554 C553 1.373 . S
C555 C539 1.377 . S
C555 C553 1.389 . S
C555 C556 1.524 . S
C556 C555 1.524 . S
C556 C557 1.397 . S
C556 C561 1.363 . S
C557 H528 0.950 . S
C557 C556 1.397 . S
C557 C558 1.334 . S
C558 H529 0.950 . S
C558 C557 1.334 . S
C558 C559 1.287 . S
C559 C558 1.287 . S
C559 C560 1.524 . S
C559 H562 0.999 . S
C560 H530 0.950 . S
C560 C559 1.524 . S
C560 C561 1.415 . S
C561 H531 0.950 . S
C561 C556 1.363 . S
C561 C560 1.415 . S
H562 C559 0.999 . S
H563 C544 0.913 . S
H564 C582 0.951 . S
H565 C584 0.951 . S
H566 C586 0.950 . S
H567 C587 0.950 . S
H568 C589 0.950 . S
H569 C592 0.950 . S
H570 C593 0.950 . S
H571 C595 0.950 . S
H572 C596 0.950 . S
H573 C597 0.951 . S
H574 C599 0.951 . S
H575 C601 0.950 . S
H576 C602 0.950 . S
H577 C604 0.950 . S
H578 C607 0.950 . S
H579 C608 0.950 . S
H580 C610 0.950 . S
H581 C611 0.950 . S
C582 H564 0.951 . S
C582 C583 1.366 . S
C582 C584 1.388 . S
C583 C582 1.366 . S
C583 C587 1.385 . S
C584 H565 0.951 . S
C584 C582 1.388 . S
C584 C585 1.366 . S
C585 C584 1.366 . S
C585 C586 1.414 . S
C585 C588 1.499 . S
C586 H566 0.950 . S
C586 C585 1.414 . S
C586 C587 1.374 . S
C587 H567 0.950 . S
C587 C583 1.385 . S
C587 C586 1.374 . S
C588 C585 1.499 . S
C588 C589 1.373 . S
C588 C590 1.389 . S
C589 H568 0.950 . S
C589 C588 1.373 . S
C589 C605 1.377 . S
C590 C588 1.389 . S
C590 C591 1.524 . S
C590 C604 1.377 . S
C591 C590 1.524 . S
C591 C592 1.397 . S
C591 C596 1.363 . S
C592 H569 0.950 . S
C592 C591 1.397 . S
C592 C593 1.334 . S
C593 H570 0.950 . S
C593 C592 1.334 . S
C593 C594 1.287 . S
C594 C593 1.287 . S
C594 C595 1.524 . S
C594 H613 0.913 . S
C595 H571 0.950 . S
C595 C594 1.524 . S
C595 C596 1.415 . S
C596 H572 0.950 . S
C596 C591 1.363 . S
C596 C595 1.415 . S
C597 H573 0.951 . S
C597 C598 1.366 . S
C597 C599 1.388 . S
C598 C597 1.366 . S
C598 C602 1.385 . S
C599 H574 0.951 . S
C599 C597 1.388 . S
C599 C600 1.366 . S
C600 C599 1.366 . S
C600 C601 1.414 . S
C600 C603 1.499 . S
C601 H575 0.950 . S
C601 C600 1.414 . S
C601 C602 1.374 . S
C602 H576 0.950 . S
C602 C598 1.385 . S
C602 C601 1.374 . S
C603 C600 1.499 . S
C603 C604 1.373 . S
C603 C605 1.389 . S
C604 H577 0.950 . S
C604 C590 1.377 . S
C604 C603 1.373 . S
C605 C589 1.377 . S
C605 C603 1.389 . S
C605 C606 1.524 . S
C606 C605 1.524 . S
C606 C607 1.397 . S
C606 C611 1.363 . S
C607 H578 0.950 . S
C607 C606 1.397 . S
C607 C608 1.334 . S
C608 H579 0.950 . S
C608 C607 1.334 . S
C608 C609 1.287 . S
C609 C608 1.287 . S
C609 C610 1.524 . S
C609 H612 0.999 . S
C610 H580 0.950 . S
C610 C609 1.524 . S
C610 C611 1.415 . S
C611 H581 0.950 . S
C611 C606 1.363 . S
C611 C610 1.415 . S
H612 C609 0.999 . S
H613 C594 0.913 . S
H614 C632 0.951 . S
H615 C634 0.951 . S
H616 C636 0.950 . S
H617 C637 0.950 . S
H618 C639 0.950 . S
H619 C642 0.950 . S
H620 C643 0.950 . S
H621 C645 0.950 . S
H622 C646 0.950 . S
H623 C647 0.951 . S
H624 C649 0.951 . S
H625 C651 0.950 . S
H626 C652 0.950 . S
H627 C654 0.950 . S
H628 C657 0.950 . S
H629 C658 0.950 . S
H630 C660 0.950 . S
H631 C661 0.950 . S
C632 H614 0.951 . S
C632 C633 1.366 . S
C632 C634 1.388 . S
C633 C632 1.366 . S
C633 C637 1.385 . S
C634 H615 0.951 . S
C634 C632 1.388 . S
C634 C635 1.366 . S
C635 C634 1.366 . S
C635 C636 1.414 . S
C635 C638 1.499 . S
C636 H616 0.950 . S
C636 C635 1.414 . S
C636 C637 1.374 . S
C637 H617 0.950 . S
C637 C633 1.385 . S
C637 C636 1.374 . S
C638 C635 1.499 . S
C638 C639 1.373 . S
C638 C640 1.389 . S
C639 H618 0.950 . S
C639 C638 1.373 . S
C639 C655 1.377 . S
C640 C638 1.389 . S
C640 C641 1.524 . S
C640 C654 1.377 . S
C641 C640 1.524 . S
C641 C642 1.397 . S
C641 C646 1.363 . S
C642 H619 0.950 . S
C642 C641 1.397 . S
C642 C643 1.334 . S
C643 H620 0.950 . S
C643 C642 1.334 . S
C643 C644 1.287 . S
C644 C643 1.287 . S
C644 C645 1.524 . S
C644 H663 0.913 . S
C645 H621 0.950 . S
C645 C644 1.524 . S
C645 C646 1.415 . S
C646 H622 0.950 . S
C646 C641 1.363 . S
C646 C645 1.415 . S
C647 H623 0.951 . S
C647 C648 1.366 . S
C647 C649 1.388 . S
C648 C647 1.366 . S
C648 C652 1.385 . S
C649 H624 0.951 . S
C649 C647 1.388 . S
C649 C650 1.366 . S
C650 C649 1.366 . S
C650 C651 1.414 . S
C650 C653 1.499 . S
C651 H625 0.950 . S
C651 C650 1.414 . S
C651 C652 1.374 . S
C652 H626 0.950 . S
C652 C648 1.385 . S
C652 C651 1.374 . S
C653 C650 1.499 . S
C653 C654 1.373 . S
C653 C655 1.389 . S
C654 H627 0.950 . S
C654 C640 1.377 . S
C654 C653 1.373 . S
C655 C639 1.377 . S
C655 C653 1.389 . S
C655 C656 1.524 . S
C656 C655 1.524 . S
C656 C657 1.397 . S
C656 C661 1.363 . S
C657 H628 0.950 . S
C657 C656 1.397 . S
C657 C658 1.334 . S
C658 H629 0.950 . S
C658 C657 1.334 . S
C658 C659 1.287 . S
C659 C658 1.287 . S
C659 C660 1.524 . S
C659 H662 0.999 . S
C660 H630 0.950 . S
C660 C659 1.524 . S
C660 C661 1.415 . S
C661 H631 0.950 . S
C661 C656 1.363 . S
C661 C660 1.415 . S
H662 C659 0.999 . S
H663 C644 0.913 . S
H664 C682 0.951 . S
H665 C684 0.951 . S
H666 C686 0.950 . S
H667 C687 0.950 . S
H668 C689 0.950 . S
H669 C692 0.950 . S
H670 C693 0.950 . S
H671 C695 0.950 . S
H672 C696 0.950 . S
H673 C697 0.951 . S
H674 C699 0.951 . S
H675 C701 0.950 . S
H676 C702 0.950 . S
H677 C704 0.950 . S
H678 C707 0.950 . S
H679 C708 0.950 . S
H680 C710 0.950 . S
H681 C711 0.950 . S
C682 H664 0.951 . S
C682 C683 1.366 . S
C682 C684 1.388 . S
C683 C682 1.366 . S
C683 C687 1.385 . S
C684 H665 0.951 . S
C684 C682 1.388 . S
C684 C685 1.366 . S
C685 C684 1.366 . S
C685 C686 1.414 . S
C685 C688 1.499 . S
C686 H666 0.950 . S
C686 C685 1.414 . S
C686 C687 1.374 . S
C687 H667 0.950 . S
C687 C683 1.385 . S
C687 C686 1.374 . S
C688 C685 1.499 . S
C688 C689 1.373 . S
C688 C690 1.389 . S
C689 H668 0.950 . S
C689 C688 1.373 . S
C689 C705 1.377 . S
C690 C688 1.389 . S
C690 C691 1.524 . S
C690 C704 1.377 . S
C691 C690 1.524 . S
C691 C692 1.397 . S
C691 C696 1.363 . S
C692 H669 0.950 . S
C692 C691 1.397 . S
C692 C693 1.334 . S
C693 H670 0.950 . S
C693 C692 1.334 . S
C693 C694 1.287 . S
C694 C693 1.287 . S
C694 C695 1.524 . S
C694 H713 0.913 . S
C695 H671 0.950 . S
C695 C694 1.524 . S
C695 C696 1.415 . S
C696 H672 0.950 . S
C696 C691 1.363 . S
C696 C695 1.415 . S
C697 H673 0.951 . S
C697 C698 1.366 . S
C697 C699 1.388 . S
C698 C697 1.366 . S
C698 C702 1.385 . S
C699 H674 0.951 . S
C699 C697 1.388 . S
C699 C700 1.366 . S
C700 C699 1.366 . S
C700 C701 1.414 . S
C700 C703 1.499 . S
C701 H675 0.950 . S
C701 C700 1.414 . S
C701 C702 1.374 . S
C702 H676 0.950 . S
C702 C698 1.385 . S
C702 C701 1.374 . S
C703 C700 1.499 . S
C703 C704 1.373 . S
C703 C705 1.389 . S
C704 H677 0.950 . S
C704 C690 1.377 . S
C704 C703 1.373 . S
C705 C689 1.377 . S
C705 C703 1.389 . S
C705 C706 1.524 . S
C706 C705 1.524 . S
C706 C707 1.397 . S
C706 C711 1.363 . S
C707 H678 0.950 . S
C707 C706 1.397 . S
C707 C708 1.334 . S
C708 H679 0.950 . S
C708 C707 1.334 . S
C708 C709 1.287 . S
C709 C708 1.287 . S
C709 C710 1.524 . S
C709 H712 0.999 . S
C710 H680 0.950 . S
C710 C709 1.524 . S
C710 C711 1.415 . S
C711 H681 0.950 . S
C711 C706 1.363 . S
C711 C710 1.415 . S
H712 C709 0.999 . S
H713 C694 0.913 . S
H714 C732 0.951 1_655 S
H715 C734 0.951 1_655 S
H716 C736 0.950 . S
H717 C737 0.950 . S
H718 C739 0.950 . S
H719 C742 0.982 . S
H720 C743 0.950 . S
H721 C745 0.950 . S
H722 C746 0.950 . S
H723 C747 0.951 . S
H724 C749 0.951 . S
H725 C751 0.950 1_655 S
H726 C752 0.950 . S
H727 C754 0.950 1_655 S
H728 C757 0.950 . S
H729 C758 0.950 . S
H730 C760 0.950 . S
H731 C761 0.950 . S
C732 H714 0.951 1_455 S
C732 C733 1.366 . S
C732 C734 1.388 . S
C733 C732 1.366 . S
C733 C737 1.385 . S
C734 H715 0.951 1_455 S
C734 C732 1.388 . S
C734 C735 1.366 . S
C735 C734 1.366 . S
C735 C736 1.414 . S
C735 C738 1.499 . S
C736 H716 0.950 . S
C736 C735 1.414 . S
C736 C737 1.374 . S
C737 H717 0.950 . S
C737 C733 1.385 . S
C737 C736 1.374 . S
C738 C735 1.499 . S
C738 C739 1.373 . S
C738 C740 1.389 . S
C739 H718 0.950 . S
C739 C738 1.373 . S
C739 C755 1.377 . S
C740 C738 1.389 . S
C740 C741 1.524 1_455 S
C740 C754 1.377 . S
C741 C740 1.524 1_655 S
C741 C742 1.397 . S
C741 C746 1.363 . S
C742 H719 0.982 . S
C742 C741 1.397 . S
C742 C743 1.334 . S
C743 H720 0.950 . S
C743 C742 1.334 . S
C743 C744 1.287 . S
C744 C743 1.287 . S
C744 C745 1.524 . S
C744 H763 0.913 . S
C745 H721 0.950 . S
C745 C744 1.524 . S
C745 C746 1.415 . S
C746 H722 0.950 . S
C746 C741 1.363 . S
C746 C745 1.415 . S
C747 H723 0.951 . S
C747 C748 1.366 . S
C747 C749 1.388 . S
C748 C747 1.366 . S
C748 C752 1.385 . S
C749 H724 0.951 . S
C749 C747 1.388 . S
C749 C750 1.366 . S
C750 C749 1.366 . S
C750 C751 1.414 . S
C750 C753 1.484 1_556 S
C751 H725 0.950 1_455 S
C751 C750 1.414 . S
C751 C752 1.374 . S
C752 H726 0.950 . S
C752 C748 1.385 . S
C752 C751 1.374 . S
C753 C750 1.484 1_554 S
C753 C754 1.379 . S
C753 C755 1.398 . S
C754 H727 0.950 1_455 S
C754 C740 1.377 . S
C754 C753 1.379 . S
C755 C739 1.377 . S
C755 C753 1.398 . S
C755 C756 1.524 . S
C756 C755 1.524 . S
C756 C757 1.397 1_554 S
C756 C761 1.363 . S
C757 H728 0.950 . S
C757 C756 1.397 1_556 S
C757 C758 1.334 . S
C758 H729 0.950 . S
C758 C757 1.334 . S
C758 C759 1.287 . S
C759 C758 1.287 . S
C759 C760 1.524 1_556 S
C759 H762 0.999 . S
C760 H730 0.950 . S
C760 C759 1.524 1_554 S
C760 C761 1.415 . S
C761 H731 0.950 . S
C761 C756 1.363 . S
C761 C760 1.415 . S
H762 C759 0.999 . S
H763 C744 0.913 . S
H764 C782 0.951 . S
H765 C784 0.951 . S
H766 C786 0.950 . S
H767 C787 0.950 . S
H768 C789 0.950 . S
H769 C792 0.950 1_545 S
H770 C793 0.950 . S
H771 C795 0.950 . S
H772 C796 0.950 . S
H773 C797 0.951 . S
H774 C799 0.951 . S
H775 C801 0.950 . S
H776 C802 0.950 . S
H777 C804 0.950 . S
H778 C807 0.950 . S
H779 C808 0.950 . S
H780 C810 0.950 . S
H781 C811 0.950 . S
C782 H764 0.951 . S
C782 C783 1.366 1_565 S
C782 C784 1.388 . S
C783 C782 1.366 1_545 S
C783 C787 1.385 . S
C784 H765 0.951 . S
C784 C782 1.388 . S
C784 C785 1.366 1_565 S
C785 C784 1.366 1_545 S
C785 C786 1.414 . S
C785 C788 1.499 . S
C786 H766 0.950 . S
C786 C785 1.414 . S
C786 C787 1.374 . S
C787 H767 0.950 . S
C787 C783 1.385 . S
C787 C786 1.374 . S
C788 C785 1.499 . S
C788 C789 1.373 . S
C788 C790 1.389 1_545 S
C789 H768 0.950 . S
C789 C788 1.373 . S
C789 C805 1.377 . S
C790 C788 1.389 1_565 S
C790 C791 1.524 . S
C790 C804 1.377 . S
C791 C790 1.524 . S
C791 C792 1.397 . S
C791 C796 1.363 . S
C792 H769 0.950 1_565 S
C792 C791 1.397 . S
C792 C793 1.334 . S
C793 H770 0.950 . S
C793 C792 1.334 . S
C793 C794 1.287 . S
C794 C793 1.287 . S
C794 C795 1.524 . S
C794 H813 0.913 . S
C795 H771 0.950 . S
C795 C794 1.524 . S
C795 C796 1.415 . S
C796 H772 0.950 . S
C796 C791 1.363 . S
C796 C795 1.415 . S
C797 H773 0.951 . S
C797 C798 1.366 . S
C797 C799 1.388 . S
C798 C797 1.366 . S
C798 C802 1.385 1_545 S
C799 H774 0.951 . S
C799 C797 1.388 . S
C799 C800 1.366 . S
C800 C799 1.366 . S
C800 C801 1.414 1_545 S
C800 C803 1.499 . S
C801 H775 0.950 . S
C801 C800 1.414 1_565 S
C801 C802 1.374 . S
C802 H776 0.950 . S
C802 C798 1.385 1_565 S
C802 C801 1.374 . S
C803 C800 1.499 . S
C803 C804 1.373 1_545 S
C803 C805 1.389 . S
C804 H777 0.950 . S
C804 C790 1.377 . S
C804 C803 1.373 1_565 S
C805 C789 1.377 . S
C805 C803 1.389 . S
C805 C806 1.524 . S
C806 C805 1.524 . S
C806 C807 1.397 . S
C806 C811 1.363 . S
C807 H778 0.950 . S
C807 C806 1.397 . S
C807 C808 1.334 . S
C808 H779 0.950 . S
C808 C807 1.334 . S
C808 C809 1.287 . S
C809 C808 1.287 . S
C809 C810 1.524 . S
C809 H812 0.999 . S
C810 H780 0.950 . S
C810 C809 1.524 . S
C810 C811 1.415 . S
C811 H781 0.950 . S
C811 C806 1.363 . S
C811 C810 1.415 . S
H812 C809 0.999 . S
H813 C794 0.913 . S
H814 C832 0.951 . S
H815 C834 0.951 . S
H816 C836 0.950 . S
H817 C837 0.950 . S
H818 C839 0.950 . S
H819 C842 0.950 . S
H820 C843 0.950 . S
H821 C845 0.950 . S
H822 C846 0.950 . S
H823 C847 0.951 . S
H824 C849 0.951 . S
H825 C851 0.950 . S
H826 C852 0.950 . S
H827 C854 0.950 . S
H828 C857 0.950 . S
H829 C858 0.950 . S
H830 C860 0.950 . S
H831 C861 0.950 . S
C832 H814 0.951 . S
C832 C833 1.366 . S
C832 C834 1.388 . S
C833 C832 1.366 . S
C833 C837 1.385 . S
C834 H815 0.951 . S
C834 C832 1.388 . S
C834 C835 1.366 . S
C835 C834 1.366 . S
C835 C836 1.414 . S
C835 C838 1.499 . S
C836 H816 0.950 . S
C836 C835 1.414 . S
C836 C837 1.374 . S
C837 H817 0.950 . S
C837 C833 1.385 . S
C837 C836 1.374 . S
C838 C835 1.499 . S
C838 C839 1.373 . S
C838 C840 1.389 . S
C839 H818 0.950 . S
C839 C838 1.373 . S
C839 C855 1.377 . S
C840 C838 1.389 . S
C840 C841 1.524 . S
C840 C854 1.377 . S
C841 C840 1.524 . S
C841 C842 1.397 . S
C841 C846 1.363 . S
C842 H819 0.950 . S
C842 C841 1.397 . S
C842 C843 1.334 . S
C843 H820 0.950 . S
C843 C842 1.334 . S
C843 C844 1.287 . S
C844 C843 1.287 . S
C844 C845 1.524 . S
C844 H863 0.913 . S
C845 H821 0.950 . S
C845 C844 1.524 . S
C845 C846 1.415 . S
C846 H822 0.950 . S
C846 C841 1.363 . S
C846 C845 1.415 . S
C847 H823 0.951 . S
C847 C848 1.366 . S
C847 C849 1.388 . S
C848 C847 1.366 . S
C848 C852 1.385 . S
C849 H824 0.951 . S
C849 C847 1.388 . S
C849 C850 1.366 . S
C850 C849 1.366 . S
C850 C851 1.414 . S
C850 C853 1.499 . S
C851 H825 0.950 . S
C851 C850 1.414 . S
C851 C852 1.374 . S
C852 H826 0.950 . S
C852 C848 1.385 . S
C852 C851 1.374 . S
C853 C850 1.499 . S
C853 C854 1.373 . S
C853 C855 1.389 . S
C854 H827 0.950 . S
C854 C840 1.377 . S
C854 C853 1.373 . S
C855 C839 1.377 . S
C855 C853 1.389 . S
C855 C856 1.524 . S
C856 C855 1.524 . S
C856 C857 1.397 . S
C856 C861 1.363 . S
C857 H828 0.950 . S
C857 C856 1.397 . S
C857 C858 1.334 . S
C858 H829 0.950 . S
C858 C857 1.334 . S
C858 C859 1.287 . S
C859 C858 1.287 . S
C859 C860 1.524 . S
C859 H862 0.999 . S
C860 H830 0.950 . S
C860 C859 1.524 . S
C860 C861 1.415 . S
C861 H831 0.950 . S
C861 C856 1.363 . S
C861 C860 1.415 . S
H862 C859 0.999 . S
H863 C844 0.913 . S
H864 C882 0.951 1_565 S
H865 C884 0.951 1_565 S
H866 C886 0.950 . S
H867 C887 0.950 . S
H868 C889 0.950 . S
H869 C892 0.950 . S
H870 C893 0.945 1_545 S
H871 C895 0.950 . S
H872 C896 0.950 . S
H873 C897 0.951 . S
H874 C899 0.951 . S
H875 C901 0.950 1_565 S
H876 C902 0.950 1_565 S
H877 C904 0.950 . S
H878 C907 0.950 . S
H879 C908 0.950 . S
H880 C910 0.950 . S
H881 C911 0.950 . S
C882 H864 0.951 1_545 S
C882 C883 1.366 . S
C882 C884 1.388 . S
C883 C882 1.366 . S
C883 C887 1.385 . S
C884 H865 0.951 1_545 S
C884 C882 1.388 . S
C884 C885 1.366 . S
C885 C884 1.366 . S
C885 C886 1.414 . S
C885 C888 1.499 . S
C886 H866 0.950 . S
C886 C885 1.414 . S
C886 C887 1.374 . S
C887 H867 0.950 . S
C887 C883 1.385 . S
C887 C886 1.374 . S
C888 C885 1.499 . S
C888 C889 1.373 . S
C888 C890 1.389 . S
C889 H868 0.950 . S
C889 C888 1.373 . S
C889 C905 1.377 . S
C890 C888 1.389 . S
C890 C891 1.524 1_545 S
C890 C904 1.377 . S
C891 C890 1.524 1_565 S
C891 C892 1.397 1_565 S
C891 C896 1.363 . S
C892 H869 0.950 . S
C892 C891 1.397 1_545 S
C892 C893 1.334 1_545 S
C893 H870 0.945 1_565 S
C893 C892 1.334 1_565 S
C893 C894 1.292 . S
C894 C893 1.292 . S
C894 C895 1.524 . S
C894 H913 0.913 . S
C895 H871 0.950 . S
C895 C894 1.524 . S
C895 C896 1.415 . S
C896 H872 0.950 . S
C896 C891 1.363 . S
C896 C895 1.415 . S
C897 H873 0.951 . S
C897 C898 1.366 . S
C897 C899 1.388 . S
C898 C897 1.366 . S
C898 C902 1.385 . S
C899 H874 0.951 . S
C899 C897 1.388 . S
C899 C900 1.366 . S
C900 C899 1.366 . S
C900 C901 1.414 . S
C900 C903 1.499 . S
C901 H875 0.950 1_545 S
C901 C900 1.414 . S
C901 C902 1.374 . S
C902 H876 0.950 1_545 S
C902 C898 1.385 . S
C902 C901 1.374 . S
C903 C900 1.499 . S
C903 C904 1.373 . S
C903 C905 1.389 . S
C904 H877 0.950 . S
C904 C890 1.377 . S
C904 C903 1.373 . S
C905 C889 1.377 . S
C905 C903 1.389 . S
C905 C906 1.524 . S
C906 C905 1.524 . S
C906 C907 1.397 . S
C906 C911 1.363 . S
C907 H878 0.950 . S
C907 C906 1.397 . S
C907 C908 1.334 . S
C908 H879 0.950 . S
C908 C907 1.334 . S
C908 C909 1.287 . S
C909 C908 1.287 . S
C909 C910 1.524 . S
C909 H912 0.999 . S
C910 H880 0.950 . S
C910 C909 1.524 . S
C910 C911 1.415 . S
C911 H881 0.950 . S
C911 C906 1.363 . S
C911 C910 1.415 . S
H912 C909 0.999 . S
H913 C894 0.913 . S
H914 C932 0.951 . S
H915 C934 0.951 . S
H916 C936 0.950 . S
H917 C937 0.950 . S
H918 C939 0.950 . S
H919 C942 0.950 . S
H920 C943 0.950 . S
H921 C945 0.950 . S
H922 C946 0.950 . S
H923 C947 0.951 . S
H924 C949 0.951 . S
H925 C951 0.950 . S
H926 C952 0.950 . S
H927 C954 0.943 1_554 S
H928 C957 0.950 . S
H929 C958 0.950 . S
H930 C960 0.942 1_556 S
H931 C961 0.950 . S
C932 H914 0.951 . S
C932 C933 1.366 . S
C932 C934 1.388 . S
C933 C932 1.366 . S
C933 C937 1.385 . S
C934 H915 0.951 . S
C934 C932 1.388 . S
C934 C935 1.366 . S
C935 C934 1.366 . S
C935 C936 1.414 . S
C935 C938 1.499 . S
C936 H916 0.950 . S
C936 C935 1.414 . S
C936 C937 1.374 . S
C937 H917 0.950 . S
C937 C933 1.385 . S
C937 C936 1.374 . S
C938 C935 1.499 . S
C938 C939 1.373 . S
C938 C940 1.389 . S
C939 H918 0.950 . S
C939 C938 1.373 . S
C939 C955 1.377 . S
C940 C938 1.389 . S
C940 C941 1.524 . S
C940 C954 1.377 . S
C941 C940 1.524 . S
C941 C942 1.397 . S
C941 C946 1.363 . S
C942 H919 0.950 . S
C942 C941 1.397 . S
C942 C943 1.334 . S
C943 H920 0.950 . S
C943 C942 1.334 . S
C943 C944 1.287 . S
C944 C943 1.287 . S
C944 C945 1.524 . S
C944 H963 0.913 . S
C945 H921 0.950 . S
C945 C944 1.524 . S
C945 C946 1.415 . S
C946 H922 0.950 . S
C946 C941 1.363 . S
C946 C945 1.415 . S
C947 H923 0.951 . S
C947 C948 1.366 . S
C947 C949 1.388 . S
C948 C947 1.366 . S
C948 C952 1.385 . S
C949 H924 0.951 . S
C949 C947 1.388 . S
C949 C950 1.366 . S
C950 C949 1.366 . S
C950 C951 1.414 . S
C950 C953 1.499 . S
C951 H925 0.950 . S
C951 C950 1.414 . S
C951 C952 1.374 . S
C952 H926 0.950 . S
C952 C948 1.385 . S
C952 C951 1.374 . S
C953 C950 1.499 . S
C953 C954 1.373 1_554 S
C953 C955 1.389 1_554 S
C954 H927 0.943 1_556 S
C954 C940 1.377 . S
C954 C953 1.373 1_556 S
C955 C939 1.377 . S
C955 C953 1.389 1_556 S
C955 C956 1.536 . S
C956 C955 1.536 . S
C956 C957 1.378 1_556 S
C956 C961 1.372 . S
C957 H928 0.950 . S
C957 C956 1.378 1_554 S
C957 C958 1.334 . S
C958 H929 0.950 . S
C958 C957 1.334 . S
C958 C959 1.287 . S
C959 C958 1.287 . S
C959 C960 1.546 . S
C959 H962 0.999 . S
C960 H930 0.942 1_554 S
C960 C959 1.546 . S
C960 C961 1.403 1_554 S
C961 H931 0.950 . S
C961 C956 1.372 . S
C961 C960 1.403 1_556 S
H962 C959 0.999 . S
H963 C944 0.913 . S
H964 C982 0.951 . S
H965 C984 0.951 . S
H966 C986 0.950 . S
H967 C987 0.941 1_655 S
H968 C989 0.950 . S
H969 C992 0.950 . S
H970 C993 0.950 . S
H971 C995 0.950 . S
H972 C996 0.950 . S
H973 C997 0.951 . S
H974 C999 0.951 . S
H975 C1001 0.950 . S
H976 C1002 0.950 . S
H977 C1004 0.950 . S
H978 C1007 0.950 . S
H979 C1008 0.950 . S
H980 C1010 0.950 . S
H981 C1011 0.950 1_655 S
C982 H964 0.951 . S
C982 C983 1.366 . S
C982 C984 1.388 . S
C983 C982 1.366 . S
C983 C987 1.395 . S
C984 H965 0.951 . S
C984 C982 1.388 . S
C984 C985 1.366 . S
C985 C984 1.366 . S
C985 C986 1.414 1_455 S
C985 C988 1.499 . S
C986 H966 0.950 . S
C986 C985 1.414 1_655 S
C986 C987 1.373 1_655 S
C987 H967 0.941 1_455 S
C987 C983 1.395 . S
C987 C986 1.373 1_455 S
C988 C985 1.499 . S
C988 C989 1.373 . S
C988 C990 1.389 . S
C989 H968 0.950 . S
C989 C988 1.373 . S
C989 C1005 1.377 . S
C990 C988 1.389 . S
C990 C991 1.532 1_455 S
C990 C1004 1.377 . S
C991 C990 1.532 1_655 S
C991 C992 1.416 . S
C991 C996 1.339 1_655 S
C992 H969 0.950 . S
C992 C991 1.416 . S
C992 C993 1.334 . S
C993 H970 0.950 . S
C993 C992 1.334 . S
C993 C994 1.287 . S
C994 C993 1.287 . S
C994 C995 1.524 1_655 S
C994 H1013 0.913 . S
C995 H971 0.950 . S
C995 C994 1.524 1_455 S
C995 C996 1.415 . S
C996 H972 0.950 . S
C996 C991 1.339 1_455 S
C996 C995 1.415 . S
C997 H973 0.951 . S
C997 C998 1.366 1_655 S
C997 C999 1.388 . S
C998 C997 1.366 1_455 S
C998 C1002 1.385 . S
C999 H974 0.951 . S
C999 C997 1.388 . S
C999 C1000 1.366 1_655 S
C1000 C999 1.366 1_455 S
C1000 C1001 1.414 . S
C1000 C1003 1.499 . S
C1001 H975 0.950 . S
C1001 C1000 1.414 . S
C1001 C1002 1.374 . S
C1002 H976 0.950 . S
C1002 C998 1.385 . S
C1002 C1001 1.374 . S
C1003 C1000 1.499 . S
C1003 C1004 1.373 . S
C1003 C1005 1.389 . S
C1004 H977 0.950 . S
C1004 C990 1.377 . S
C1004 C1003 1.373 . S
C1005 C989 1.377 . S
C1005 C1003 1.389 . S
C1005 C1006 1.524 . S
C1006 C1005 1.524 . S
C1006 C1007 1.397 . S
C1006 C1011 1.363 . S
C1007 H978 0.950 . S
C1007 C1006 1.397 . S
C1007 C1008 1.334 . S
C1008 H979 0.950 . S
C1008 C1007 1.334 . S
C1008 C1009 1.287 . S
C1009 C1008 1.287 . S
C1009 C1010 1.524 . S
C1009 H1012 0.999 . S
C1010 H980 0.950 . S
C1010 C1009 1.524 . S
C1010 C1011 1.415 . S
C1011 H981 0.950 1_455 S
C1011 C1006 1.363 . S
C1011 C1010 1.415 . S
H1012 C1009 0.999 . S
H1013 C994 0.913 . S
C133 C2 0.974 . S
C148 C109 0.978 . S
C183 C21 0.919 . S
C198 C91 0.930 . S
C233 C42 0.958 . S
C248 C103 0.959 . S
C283 C1 0.903 . S
C298 C112 0.910 . S
C348 C94 0.958 . S
C333 C22 0.957 . S
C398 C100 0.929 . S
C383 C41 0.918 . S
C433 C38 1.730 . S
C448 C73 1.746 . S
C483 C59 1.817 . S
C498 C82 1.795 1_655 S
C533 C18 1.730 . S
C548 C64 1.745 . S
C598 C76 1.772 . S
C583 C39 1.799 . S
C648 C85 1.722 . S
C633 C58 1.713 . S
C683 C19 1.799 . S
C698 C67 1.772 . S
C748 C83 1.571 . S
C733 C9 1.507 . S
C783 C29 1.508 . S
C798 C65 1.571 . S
C833 C49 1.508 . S
C848 C74 1.570 . S
C898 C101 1.388 . S
C883 C28 1.358 . S
C948 C110 1.388 . S
C933 C48 1.358 . S
C983 C8 1.358 . S
C998 C92 1.388 . S
