# Generated by pormake.
# Topology pyr, (3,6)-cn, num edge types: 1
# Building blocks:
#     Node 0, Type 0, BuildingBlock: VETTIZ_charged_linker_0, # of connection points: 3
#     Node 1, Type 0, BuildingBlock: VETTIZ_charged_linker_0, # of connection points: 3
#     Node 2, Type 0, BuildingBlock: VETTIZ_charged_linker_0, # of connection points: 3
#     Node 3, Type 0, BuildingBlock: VETTIZ_charged_linker_0, # of connection points: 3
#     Node 4, Type 0, BuildingBlock: VETTIZ_charged_linker_0, # of connection points: 3
#     Node 5, Type 0, BuildingBlock: VETTIZ_charged_linker_0, # of connection points: 3
#     Node 6, Type 0, BuildingBlock: VETTIZ_charged_linker_0, # of connection points: 3
#     Node 7, Type 0, BuildingBlock: VETTIZ_charged_linker_0, # of connection points: 3
#     Node 8, Type 1, BuildingBlock: BETGAK_clean_sbu_0, # of connection points: 6
#     Node 9, Type 1, BuildingBlock: BETGAK_clean_sbu_0, # of connection points: 6
#     Node 10, Type 1, BuildingBlock: BETGAK_clean_sbu_0, # of connection points: 6
#     Node 11, Type 1, BuildingBlock: BETGAK_clean_sbu_0, # of connection points: 6
#     Edge 12, Type (0, 1), BuildingBlock: CIFDUS_clean_linker_0, # of connection points: 2
#     Edge 13, Type (0, 1), BuildingBlock: CIFDUS_clean_linker_0, # of connection points: 2
#     Edge 14, Type (0, 1), BuildingBlock: CIFDUS_clean_linker_0, # of connection points: 2
#     Edge 15, Type (0, 1), BuildingBlock: CIFDUS_clean_linker_0, # of connection points: 2
#     Edge 16, Type (0, 1), BuildingBlock: CIFDUS_clean_linker_0, # of connection points: 2
#     Edge 17, Type (0, 1), BuildingBlock: CIFDUS_clean_linker_0, # of connection points: 2
#     Edge 18, Type (0, 1), BuildingBlock: CIFDUS_clean_linker_0, # of connection points: 2
#     Edge 19, Type (0, 1), BuildingBlock: CIFDUS_clean_linker_0, # of connection points: 2
#     Edge 20, Type (0, 1), BuildingBlock: CIFDUS_clean_linker_0, # of connection points: 2
#     Edge 21, Type (0, 1), BuildingBlock: CIFDUS_clean_linker_0, # of connection points: 2
#     Edge 22, Type (0, 1), BuildingBlock: CIFDUS_clean_linker_0, # of connection points: 2
#     Edge 23, Type (0, 1), BuildingBlock: CIFDUS_clean_linker_0, # of connection points: 2
#     Edge 24, Type (0, 1), BuildingBlock: CIFDUS_clean_linker_0, # of connection points: 2
#     Edge 25, Type (0, 1), BuildingBlock: CIFDUS_clean_linker_0, # of connection points: 2
#     Edge 26, Type (0, 1), BuildingBlock: CIFDUS_clean_linker_0, # of connection points: 2
#     Edge 27, Type (0, 1), BuildingBlock: CIFDUS_clean_linker_0, # of connection points: 2
#     Edge 28, Type (0, 1), BuildingBlock: CIFDUS_clean_linker_0, # of connection points: 2
#     Edge 29, Type (0, 1), BuildingBlock: CIFDUS_clean_linker_0, # of connection points: 2
#     Edge 30, Type (0, 1), BuildingBlock: CIFDUS_clean_linker_0, # of connection points: 2
#     Edge 31, Type (0, 1), BuildingBlock: CIFDUS_clean_linker_0, # of connection points: 2
#     Edge 32, Type (0, 1), BuildingBlock: CIFDUS_clean_linker_0, # of connection points: 2
#     Edge 33, Type (0, 1), BuildingBlock: CIFDUS_clean_linker_0, # of connection points: 2
#     Edge 34, Type (0, 1), BuildingBlock: CIFDUS_clean_linker_0, # of connection points: 2
#     Edge 35, Type (0, 1), BuildingBlock: CIFDUS_clean_linker_0, # of connection points: 2
# Relax obj value: 0.112
# Max RMSD: 0.125
# Mean RMSD: 0.061
data_MOF--net-pyr--node1-BETGAK_clean_sbu_0--node2-VETTIZ_charged_linker_0--edge1-CIFDUS_clean_linker_0
_symmetry_space_group_name_H-M    P1
_symmetry_Int_Tables_number       1
_symmetry_cell_setting            triclinic
loop_
_symmetry_equiv_pos_as_xyz
'x, y, z'
_cell_length_a     41.336263
_cell_length_b     44.628185
_cell_length_c     41.004945
_cell_angle_alpha  90.850548
_cell_angle_beta   88.568413
_cell_angle_gamma 100.31554
loop_
_atom_site_label
_atom_site_type_symbol
_atom_site_fract_x
_atom_site_fract_y
_atom_site_fract_z
_atom_type_partial_charge
C0 C 0.29998 0.24201 0.32606 0.0
C1 C 0.28194 0.26114 0.34376 0.0
C2 C 0.28451 0.29161 0.33371 0.0
C3 C 0.31313 0.28018 0.28426 0.0
C4 C 0.31573 0.25218 0.29657 0.0
C5 C 0.33428 0.23448 0.27342 0.0
H6 H 0.38354 0.20947 0.11892 0.0
C7 C 0.32474 0.28118 0.24997 0.0
C8 C 0.3383 0.255 0.24368 0.0
H9 H 0.4022 0.16293 0.2064 0.0
H10 H 0.37708 0.19815 0.23927 0.0
H11 H 0.40424 0.27846 0.14852 0.0
H12 H 0.3101 0.21896 0.14124 0.0
H13 H 0.30484 0.25587 0.13147 0.0
H14 H 0.33159 0.23709 0.10621 0.0
H15 H 0.38487 0.26852 0.11016 0.0
H16 H 0.37527 0.29972 0.13478 0.0
C17 C 0.36781 0.23236 0.28864 0.0
C18 C 0.31259 0.20313 0.26628 0.0
C19 C 0.27806 0.35039 0.17479 0.0
C20 C 0.27492 0.35064 0.14087 0.0
C21 C 0.29386 0.334 0.12105 0.0
C22 C 0.31364 0.31535 0.13524 0.0
C23 C 0.31394 0.31309 0.16949 0.0
C24 C 0.29704 0.3312 0.18858 0.0
C25 C 0.29792 0.32468 0.22431 0.0
C26 C 0.31807 0.29938 0.22372 0.0
C27 C 0.32713 0.2924 0.19155 0.0
C28 C 0.31562 0.3537 0.24212 0.0
C29 C 0.26191 0.31354 0.23631 0.0
C30 C 0.38203 0.20683 0.14516 0.0
C31 C 0.39474 0.18333 0.1601 0.0
C32 C 0.39281 0.18094 0.19436 0.0
C33 C 0.37817 0.20132 0.21342 0.0
C34 C 0.36511 0.22429 0.19818 0.0
C35 C 0.3677 0.22724 0.16469 0.0
C36 C 0.35325 0.25383 0.15317 0.0
C37 C 0.34276 0.26688 0.18543 0.0
C38 C 0.34893 0.2488 0.21152 0.0
C39 C 0.38064 0.27638 0.13549 0.0
C40 C 0.3235 0.24107 0.13169 0.0
H41 H 0.29975 0.3241 0.29662 0.0
H42 H 0.29963 0.21878 0.33338 0.0
H43 H 0.28739 0.20601 0.2597 0.0
H44 H 0.32216 0.19079 0.24577 0.0
H45 H 0.3105 0.18823 0.28797 0.0
H46 H 0.37369 0.24852 0.30948 0.0
H47 H 0.36803 0.20916 0.29798 0.0
H48 H 0.3886 0.23851 0.27093 0.0
H49 H 0.26403 0.36338 0.19043 0.0
H50 H 0.29187 0.33406 0.09476 0.0
H51 H 0.32673 0.30237 0.11906 0.0
H52 H 0.33095 0.36978 0.22501 0.0
H53 H 0.2977 0.3662 0.25439 0.0
H54 H 0.33306 0.34837 0.26037 0.0
H55 H 0.24926 0.29541 0.21977 0.0
H56 H 0.25962 0.30375 0.26081 0.0
H57 H 0.2478 0.33252 0.23677 0.0
H58 H 0.27256 0.30747 0.34768 0.0
C59 C 0.30018 0.30125 0.30406 0.0
C60 C 0.1736 0.86994 0.59008 0.0
C61 C 0.15214 0.88482 0.60878 0.0
C62 C 0.15359 0.88438 0.64312 0.0
C63 C 0.19977 0.85786 0.63921 0.0
C64 C 0.19695 0.85656 0.60571 0.0
C65 C 0.22228 0.8409 0.58922 0.0
H66 H 0.36054 0.78177 0.60014 0.0
C67 C 0.2283 0.84407 0.64751 0.0
C68 C 0.24125 0.83365 0.61835 0.0
H69 H 0.30341 0.78673 0.51431 0.0
H70 H 0.26392 0.80953 0.54653 0.0
H71 H 0.35016 0.84915 0.63504 0.0
H72 H 0.30523 0.75479 0.64252 0.0
H73 H 0.29838 0.77097 0.6808 0.0
H74 H 0.34001 0.77042 0.6665 0.0
H75 H 0.3705 0.81906 0.64777 0.0
H76 H 0.34751 0.83811 0.67634 0.0
C77 C 0.24365 0.86399 0.5661 0.0
C78 C 0.20431 0.81167 0.572 0.0
C79 C 0.27475 0.85754 0.76147 0.0
C80 C 0.30241 0.84871 0.77533 0.0
C81 C 0.319 0.82841 0.75773 0.0
C82 C 0.31033 0.81951 0.72585 0.0
C83 C 0.28468 0.83082 0.71135 0.0
C84 C 0.26617 0.84809 0.7296 0.0
C85 C 0.23826 0.8561 0.71054 0.0
C86 C 0.24446 0.84223 0.67736 0.0
C87 C 0.2722 0.82821 0.67792 0.0
C88 C 0.24247 0.89124 0.70924 0.0
C89 C 0.20535 0.84032 0.72658 0.0
C90 C 0.34005 0.78869 0.58812 0.0
C91 C 0.33545 0.78352 0.5546 0.0
C92 C 0.30763 0.7912 0.54003 0.0
C93 C 0.28472 0.80415 0.55884 0.0
C94 C 0.28959 0.80896 0.59253 0.0
C95 C 0.31677 0.80097 0.60658 0.0
C96 C 0.31692 0.80537 0.64293 0.0
C97 C 0.28543 0.81786 0.64849 0.0
C98 C 0.26987 0.82035 0.61888 0.0
C99 C 0.34788 0.82906 0.65125 0.0
C100 C 0.31526 0.77391 0.65921 0.0
H101 H 0.17775 0.87199 0.68454 0.0
H102 H 0.17343 0.86991 0.56368 0.0
H103 H 0.18049 0.80252 0.58456 0.0
H104 H 0.21836 0.79279 0.57251 0.0
H105 H 0.19894 0.8162 0.54631 0.0
H106 H 0.24963 0.88679 0.57807 0.0
H107 H 0.23048 0.86666 0.54333 0.0
H108 H 0.26758 0.85775 0.55942 0.0
H109 H 0.2611 0.87277 0.77435 0.0
H110 H 0.3395 0.82016 0.76821 0.0
H111 H 0.32465 0.80494 0.71339 0.0
H112 H 0.26837 0.90142 0.70279 0.0
H113 H 0.23624 0.90082 0.73327 0.0
H114 H 0.22725 0.89929 0.69073 0.0
H115 H 0.20849 0.81995 0.74067 0.0
H116 H 0.18666 0.83147 0.70829 0.0
H117 H 0.1952 0.85601 0.74368 0.0
H118 H 0.13686 0.89501 0.65819 0.0
C119 C 0.17728 0.87096 0.65841 0.0
C120 C 0.63296 0.26076 0.90791 0.0
C121 C 0.60578 0.2393 0.89635 0.0
C122 C 0.58982 0.24891 0.86892 0.0
C123 C 0.62775 0.29835 0.86505 0.0
C124 C 0.64342 0.28952 0.892 0.0
C125 C 0.67241 0.31391 0.90092 0.0
H126 H 0.77563 0.44986 0.87564 0.0
C127 C 0.6453 0.32986 0.85388 0.0
C128 C 0.67179 0.33864 0.87539 0.0
H129 H 0.77821 0.38429 0.95196 0.0
H130 H 0.73066 0.35255 0.93037 0.0
H131 H 0.69413 0.44504 0.88156 0.0
H132 H 0.75315 0.39998 0.81501 0.0
H133 H 0.72389 0.41589 0.79355 0.0
H134 H 0.75547 0.4406 0.81543 0.0
H135 H 0.72054 0.46563 0.85086 0.0
H136 H 0.67971 0.44599 0.84161 0.0
C137 C 0.66589 0.32556 0.9358 0.0
C138 C 0.70395 0.29984 0.8973 0.0
C139 C 0.60707 0.3866 0.75395 0.0
C140 C 0.61812 0.41576 0.73899 0.0
C141 C 0.6459 0.43389 0.75359 0.0
C142 C 0.66183 0.42406 0.78086 0.0
C143 C 0.65051 0.39533 0.79526 0.0
C144 C 0.62327 0.37708 0.78187 0.0
C145 C 0.61441 0.34732 0.80104 0.0
C146 C 0.64054 0.35057 0.82782 0.0
C147 C 0.66209 0.37908 0.82412 0.0
C148 C 0.57953 0.34552 0.81595 0.0
C149 C 0.61734 0.32054 0.77766 0.0
C150 C 0.76619 0.42879 0.88805 0.0
C151 C 0.78268 0.42015 0.91584 0.0
C152 C 0.76809 0.39205 0.93025 0.0
C153 C 0.73965 0.37337 0.91771 0.0
C154 C 0.72405 0.38215 0.89009 0.0
C155 C 0.73719 0.40971 0.87587 0.0
C156 C 0.71634 0.41576 0.84729 0.0
C157 C 0.68918 0.38722 0.84626 0.0
C158 C 0.69391 0.36736 0.87162 0.0
C159 C 0.70198 0.44474 0.85543 0.0
C160 C 0.73825 0.41842 0.81604 0.0
H161 H 0.58678 0.28272 0.83301 0.0
H162 H 0.6465 0.25504 0.92848 0.0
H163 H 0.70268 0.28453 0.87552 0.0
H164 H 0.7264 0.31702 0.89327 0.0
H165 H 0.70721 0.28614 0.91898 0.0
H166 H 0.63934 0.32635 0.93983 0.0
H167 H 0.67305 0.31041 0.95455 0.0
H168 H 0.67867 0.34913 0.94031 0.0
H169 H 0.58591 0.37151 0.74441 0.0
H170 H 0.6561 0.4559 0.74345 0.0
H171 H 0.68282 0.43941 0.78977 0.0
H172 H 0.57727 0.36729 0.8286 0.0
H173 H 0.56075 0.34131 0.7967 0.0
H174 H 0.57357 0.32748 0.83435 0.0
H175 H 0.64118 0.32506 0.76385 0.0
H176 H 0.61671 0.299 0.7907 0.0
H177 H 0.59722 0.31718 0.75977 0.0
H178 H 0.5686 0.2341 0.85908 0.0
C179 C 0.60037 0.27765 0.85357 0.0
C180 C 0.93291 0.79431 0.38428 0.0
C181 C 0.92154 0.80976 0.41213 0.0
C182 C 0.89161 0.79572 0.42694 0.0
C183 C 0.88533 0.75248 0.38862 0.0
C184 C 0.91439 0.76561 0.37301 0.0
C185 C 0.92216 0.74476 0.34468 0.0
H186 H 0.87413 0.60988 0.25572 0.0
C187 C 0.87178 0.72254 0.37236 0.0
C188 C 0.89313 0.71748 0.34607 0.0
H189 H 0.96289 0.67574 0.23821 0.0
H190 H 0.9472 0.7071 0.28315 0.0
H191 H 0.88017 0.61109 0.33517 0.0
H192 H 0.82504 0.6581 0.27105 0.0
H193 H 0.79951 0.64275 0.304 0.0
H194 H 0.81592 0.6175 0.27598 0.0
H195 H 0.8465 0.59131 0.31191 0.0
H196 H 0.83975 0.60869 0.35083 0.0
C197 C 0.95508 0.73463 0.35118 0.0
C198 C 0.92288 0.76222 0.31252 0.0
C199 C 0.76545 0.66012 0.42112 0.0
C200 C 0.74536 0.63168 0.4138 0.0
C201 C 0.75477 0.61581 0.38593 0.0
C202 C 0.78331 0.62739 0.36675 0.0
C203 C 0.80335 0.65552 0.37499 0.0
C204 C 0.79382 0.67136 0.40173 0.0
C205 C 0.81727 0.70098 0.40712 0.0
C206 C 0.84287 0.70044 0.37966 0.0
C207 C 0.8349 0.67369 0.36065 0.0
C208 C 0.83245 0.69971 0.44118 0.0
C209 C 0.79784 0.72734 0.40295 0.0
C210 C 0.89095 0.63068 0.2613 0.0
C211 C 0.92045 0.63928 0.2423 0.0
C212 C 0.94001 0.66771 0.25131 0.0
C213 C 0.93095 0.68608 0.27787 0.0
C214 C 0.90175 0.67655 0.29663 0.0
C215 C 0.88244 0.64902 0.28785 0.0
C216 C 0.85245 0.64137 0.31014 0.0
C217 C 0.85635 0.66851 0.33372 0.0
C218 C 0.88545 0.68984 0.32611 0.0
C219 C 0.85448 0.61144 0.32792 0.0
C220 C 0.82144 0.63958 0.28936 0.0
H221 H 0.85147 0.75913 0.42876 0.0
H222 H 0.95594 0.80387 0.37219 0.0
H223 H 0.89991 0.77165 0.31023 0.0
H224 H 0.92473 0.7474 0.29102 0.0
H225 H 0.94404 0.78148 0.31165 0.0
H226 H 0.95477 0.72505 0.37609 0.0
H227 H 0.97581 0.75423 0.34937 0.0
H228 H 0.96003 0.71674 0.33388 0.0
H229 H 0.75925 0.6737 0.44165 0.0
H230 H 0.74048 0.59391 0.37929 0.0
H231 H 0.78889 0.61381 0.34623 0.0
H232 H 0.83601 0.67618 0.44668 0.0
H233 H 0.81626 0.70679 0.46076 0.0
H234 H 0.85725 0.71372 0.44295 0.0
H235 H 0.77799 0.72115 0.38494 0.0
H236 H 0.81324 0.74819 0.39304 0.0
H237 H 0.7861 0.73297 0.42637 0.0
H238 H 0.88193 0.80637 0.44806 0.0
C239 C 0.87376 0.76786 0.41556 0.0
C240 C 0.74821 0.72372 0.90542 0.0
C241 C 0.7699 0.7057 0.89151 0.0
C242 C 0.77242 0.70335 0.85725 0.0
C243 C 0.73558 0.73919 0.8514 0.0
C244 C 0.731 0.73998 0.88483 0.0
C245 C 0.70731 0.76075 0.89489 0.0
H246 H 0.61651 0.86611 0.85089 0.0
C247 C 0.71703 0.76069 0.83685 0.0
C248 C 0.69946 0.77283 0.86197 0.0
H249 H 0.62931 0.83417 0.94774 0.0
H250 H 0.6619 0.79826 0.92563 0.0
H251 H 0.61001 0.79795 0.8109 0.0
H252 H 0.68469 0.87495 0.83147 0.0
H253 H 0.69963 0.85886 0.79627 0.0
H254 H 0.66148 0.87307 0.79501 0.0
H255 H 0.6123 0.83552 0.79482 0.0
H256 H 0.63335 0.80807 0.77476 0.0
C257 C 0.67669 0.74119 0.91125 0.0
C258 C 0.72566 0.78629 0.91709 0.0
C259 C 0.7484 0.79819 0.72284 0.0
C260 C 0.7402 0.82228 0.70491 0.0
C261 C 0.71209 0.83432 0.7147 0.0
C262 C 0.69488 0.82493 0.74376 0.0
C263 C 0.70593 0.80337 0.76328 0.0
C264 C 0.73117 0.78926 0.7519 0.0
C265 C 0.73989 0.76705 0.77594 0.0
C266 C 0.71742 0.77198 0.80467 0.0
C267 C 0.69779 0.79343 0.7972 0.0
C268 C 0.73092 0.73448 0.76114 0.0
C269 C 0.77679 0.77684 0.78404 0.0
C270 C 0.62572 0.85081 0.86715 0.0
C271 C 0.62014 0.85255 0.90094 0.0
C272 C 0.63331 0.83303 0.92157 0.0
C273 C 0.65226 0.8123 0.90869 0.0
C274 C 0.6587 0.81157 0.87488 0.0
C275 C 0.64534 0.83056 0.85473 0.0
C276 C 0.65692 0.82865 0.81986 0.0
C277 C 0.6787 0.80479 0.82218 0.0
C278 C 0.67962 0.79471 0.85445 0.0
C279 C 0.62664 0.81711 0.79873 0.0
C280 C 0.67654 0.8604 0.80988 0.0
H281 H 0.75891 0.71756 0.81145 0.0
H282 H 0.74522 0.72555 0.93165 0.0
H283 H 0.75133 0.79394 0.90792 0.0
H284 H 0.71453 0.80698 0.91767 0.0
H285 H 0.72684 0.77817 0.94244 0.0
H286 H 0.67027 0.71874 0.89863 0.0
H287 H 0.68122 0.73683 0.9372 0.0
H288 H 0.65446 0.75157 0.90987 0.0
H289 H 0.7697 0.78828 0.71614 0.0
H290 H 0.70447 0.85221 0.70083 0.0
H291 H 0.67468 0.83592 0.75077 0.0
H292 H 0.71354 0.73348 0.74069 0.0
H293 H 0.75311 0.72624 0.7514 0.0
H294 H 0.71806 0.71792 0.77915 0.0
H295 H 0.78276 0.80185 0.78855 0.0
H296 H 0.78401 0.76627 0.80614 0.0
H297 H 0.79281 0.77121 0.76356 0.0
H298 H 0.789 0.68993 0.84575 0.0
C299 C 0.75519 0.71972 0.83724 0.0
C300 C 0.86014 0.19754 0.47971 0.0
C301 C 0.88527 0.18677 0.46164 0.0
C302 C 0.88859 0.1926 0.42791 0.0
C303 C 0.83863 0.21361 0.42978 0.0
C304 C 0.83731 0.21114 0.46331 0.0
C305 C 0.80842 0.22314 0.47829 0.0
H306 H 0.66443 0.27099 0.45523 0.0
C307 C 0.80876 0.2242 0.41959 0.0
C308 C 0.7912 0.23048 0.44788 0.0
H309 H 0.71495 0.26974 0.54612 0.0
H310 H 0.75887 0.24962 0.51772 0.0
H311 H 0.67857 0.20637 0.42821 0.0
H312 H 0.72516 0.29938 0.4136 0.0
H313 H 0.72453 0.28107 0.37531 0.0
H314 H 0.68626 0.28324 0.3965 0.0
H315 H 0.66204 0.23118 0.40175 0.0
H316 H 0.69175 0.20866 0.38725 0.0
C317 C 0.78706 0.19746 0.4983 0.0
C318 C 0.82167 0.25214 0.49857 0.0
C319 C 0.77537 0.20934 0.30156 0.0
C320 C 0.74551 0.20994 0.28611 0.0
C321 C 0.7209 0.22249 0.30309 0.0
C322 C 0.72513 0.23233 0.33553 0.0
C323 C 0.75405 0.22918 0.35141 0.0
C324 C 0.77888 0.21851 0.33423 0.0
C325 C 0.80699 0.21488 0.35551 0.0
C326 C 0.79462 0.22471 0.38848 0.0
C327 C 0.76361 0.23292 0.38588 0.0
C328 C 0.81002 0.18072 0.3547 0.0
C329 C 0.83827 0.23677 0.34336 0.0
C330 C 0.68447 0.26568 0.46931 0.0
C331 C 0.68596 0.27147 0.50306 0.0
C332 C 0.7132 0.2653 0.52013 0.0
C333 C 0.73868 0.25384 0.50359 0.0
C334 C 0.73698 0.2488 0.46966 0.0
C335 C 0.71012 0.25472 0.45321 0.0
C336 C 0.71276 0.24933 0.41711 0.0
C337 C 0.74635 0.2404 0.41429 0.0
C338 C 0.76018 0.2395 0.44512 0.0
C339 C 0.68483 0.2227 0.40779 0.0
C340 C 0.71193 0.27966 0.39946 0.0
H341 H 0.86861 0.20893 0.38608 0.0
H342 H 0.85714 0.19399 0.50574 0.0
H343 H 0.84642 0.2634 0.48956 0.0
H344 H 0.80612 0.26978 0.4967 0.0
H345 H 0.82389 0.24666 0.52466 0.0
H346 H 0.78285 0.17581 0.48395 0.0
H347 H 0.79935 0.19336 0.52118 0.0
H348 H 0.7625 0.20238 0.50485 0.0
H349 H 0.79499 0.20033 0.28904 0.0
H350 H 0.69752 0.22307 0.29202 0.0
H351 H 0.7051 0.24077 0.34738 0.0
H352 H 0.78535 0.16607 0.35756 0.0
H353 H 0.82105 0.17454 0.33113 0.0
H354 H 0.82474 0.17411 0.37444 0.0
H355 H 0.832 0.25625 0.32972 0.0
H356 H 0.85344 0.24745 0.36375 0.0
H357 H 0.85359 0.22485 0.3268 0.0
H358 H 0.90849 0.1858 0.4136 0.0
C359 C 0.86545 0.20604 0.41193 0.0
C360 C 0.43056 0.66368 0.29727 0.0
C361 C 0.41753 0.63445 0.31132 0.0
C362 C 0.3879 0.619 0.2975 0.0
C363 C 0.38569 0.65923 0.25739 0.0
C364 C 0.41444 0.67543 0.27034 0.0
C365 C 0.42477 0.70541 0.25155 0.0
H366 H 0.39592 0.79822 0.12265 0.0
C367 C 0.37488 0.67664 0.22912 0.0
C368 C 0.39819 0.70418 0.2253 0.0
H369 H 0.4751 0.81997 0.19032 0.0
H370 H 0.45517 0.7721 0.219 0.0
H371 H 0.34131 0.77583 0.17613 0.0
H372 H 0.39969 0.72825 0.11298 0.0
H373 H 0.36008 0.70613 0.1139 0.0
H374 H 0.36609 0.74452 0.09862 0.0
H375 H 0.33347 0.77015 0.13345 0.0
H376 H 0.31496 0.74272 0.16345 0.0
C377 C 0.42414 0.73224 0.27543 0.0
C378 C 0.45905 0.70592 0.23581 0.0
C379 C 0.26727 0.63371 0.1657 0.0
C380 C 0.25161 0.64491 0.13879 0.0
C381 C 0.26854 0.67214 0.12453 0.0
C382 C 0.29842 0.6882 0.13661 0.0
C383 C 0.31306 0.67758 0.16379 0.0
C384 C 0.29785 0.65047 0.17775 0.0
C385 C 0.31819 0.64281 0.20616 0.0
C386 C 0.34727 0.66997 0.2073 0.0
C387 C 0.34388 0.69033 0.18215 0.0
C388 C 0.29654 0.64126 0.23754 0.0
C389 C 0.33006 0.61267 0.19759 0.0
C390 C 0.40955 0.79301 0.14339 0.0
C391 C 0.43777 0.8139 0.15329 0.0
C392 C 0.45336 0.8052 0.18145 0.0
C393 C 0.44177 0.77705 0.1982 0.0
C394 C 0.41362 0.75654 0.18755 0.0
C395 C 0.39811 0.76534 0.16053 0.0
C396 C 0.36798 0.74234 0.15238 0.0
C397 C 0.36755 0.71795 0.17823 0.0
C398 C 0.39455 0.72557 0.19941 0.0
C399 C 0.33774 0.7584 0.15623 0.0
C400 C 0.37337 0.72967 0.1176 0.0
H401 H 0.34998 0.61725 0.26295 0.0
H402 H 0.45319 0.67675 0.30639 0.0
H403 H 0.45929 0.68493 0.22093 0.0
H404 H 0.46625 0.72553 0.21944 0.0
H405 H 0.47798 0.70711 0.25479 0.0
H406 H 0.40002 0.72953 0.28871 0.0
H407 H 0.44373 0.73337 0.29373 0.0
H408 H 0.42759 0.75424 0.26272 0.0
H409 H 0.25567 0.61292 0.1776 0.0
H410 H 0.25848 0.68143 0.10358 0.0
H411 H 0.30892 0.70871 0.12413 0.0
H412 H 0.28298 0.66066 0.23868 0.0
H413 H 0.27813 0.61982 0.23824 0.0
H414 H 0.311 0.64307 0.25996 0.0
H415 H 0.33782 0.61222 0.17143 0.0
H416 H 0.35185 0.60967 0.21131 0.0
H417 H 0.31012 0.59276 0.20187 0.0
H418 H 0.37639 0.59706 0.30703 0.0
C419 C 0.37227 0.6309 0.27143 0.0
C420 C 0.107 0.2661 0.68558 0.0
C421 C 0.11788 0.25001 0.65795 0.0
C422 C 0.14714 0.2644 0.64195 0.0
C423 C 0.15332 0.30875 0.67884 0.0
C424 C 0.125 0.2954 0.69546 0.0
C425 C 0.11748 0.31635 0.72367 0.0
H426 H 0.16345 0.45187 0.81099 0.0
C427 C 0.16681 0.33904 0.6945 0.0
C428 C 0.14595 0.34397 0.72122 0.0
H429 H 0.07657 0.38393 0.82947 0.0
H430 H 0.0927 0.35318 0.78452 0.0
H431 H 0.15713 0.44981 0.7306 0.0
H432 H 0.21433 0.40452 0.79455 0.0
H433 H 0.23904 0.421 0.7615 0.0
H434 H 0.22193 0.4452 0.79017 0.0
H435 H 0.18972 0.47057 0.75455 0.0
H436 H 0.19808 0.4537 0.71581 0.0
C437 C 0.08402 0.32569 0.7177 0.0
C438 C 0.11805 0.29934 0.75599 0.0
C439 C 0.27177 0.40193 0.64359 0.0
C440 C 0.29184 0.43053 0.65034 0.0
C441 C 0.28271 0.44659 0.67822 0.0
C442 C 0.25449 0.43502 0.69793 0.0
C443 C 0.23449 0.4067 0.69028 0.0
C444 C 0.24375 0.3907 0.6635 0.0
C445 C 0.2205 0.36085 0.65875 0.0
C446 C 0.19533 0.3614 0.68659 0.0
C447 C 0.20329 0.38837 0.70533 0.0
C448 C 0.20463 0.36158 0.62496 0.0
C449 C 0.24033 0.33478 0.66278 0.0
C450 C 0.14719 0.4307 0.8056 0.0
C451 C 0.11803 0.4213 0.82499 0.0
C452 C 0.09916 0.39253 0.81616 0.0
C453 C 0.10849 0.37451 0.78953 0.0
C454 C 0.13728 0.38472 0.77044 0.0
C455 C 0.15601 0.41261 0.77891 0.0
C456 C 0.18571 0.4207 0.75616 0.0
C457 C 0.18215 0.39345 0.73264 0.0
C458 C 0.15354 0.37175 0.74083 0.0
C459 C 0.18283 0.45037 0.73836 0.0
C460 C 0.21707 0.42323 0.77651 0.0
H461 H 0.18634 0.30185 0.6381 0.0
H462 H 0.08481 0.25636 0.69897 0.0
H463 H 0.14104 0.28979 0.7574 0.0
H464 H 0.11737 0.31445 0.77743 0.0
H465 H 0.09684 0.2802 0.75794 0.0
H466 H 0.08324 0.33413 0.6924 0.0
H467 H 0.06364 0.30597 0.72096 0.0
H468 H 0.07934 0.34427 0.73418 0.0
H469 H 0.27774 0.38819 0.62311 0.0
H470 H 0.29699 0.4686 0.68448 0.0
H471 H 0.24911 0.44874 0.71842 0.0
H472 H 0.2003 0.38488 0.61952 0.0
H473 H 0.22078 0.35484 0.60514 0.0
H474 H 0.18011 0.347 0.62361 0.0
H475 H 0.26039 0.34127 0.68053 0.0
H476 H 0.22529 0.31387 0.67294 0.0
H477 H 0.25186 0.32914 0.63925 0.0
H478 H 0.15741 0.25323 0.62161 0.0
C479 C 0.16448 0.29303 0.65196 0.0
La480 La 0.03564 0.045 0.49547 0.0
La481 La 1.00583 1.02146 0.55804 0.0
C482 C 0.0578 0.0766 0.44689 0.0
C483 C 0.08738 0.10018 0.44135 0.0
C484 C 0.11444 0.09246 0.42392 0.0
C485 C 0.14333 0.11371 0.41985 0.0
C486 C 0.14573 0.14331 0.43278 0.0
C487 C 0.11852 0.1513 0.4498 0.0
C488 C 0.0896 0.1299 0.45412 0.0
C489 C 0.07094 1.01346 0.52929 0.0
C490 C 0.04743 0.08842 0.5605 0.0
C491 C 0.98505 0.9886 0.60608 0.0
C492 C 0.95334 0.96821 0.6115 0.0
C493 C 0.92484 0.97471 0.59721 0.0
C494 C 0.89422 0.957 0.60435 0.0
C495 C 0.89166 0.93209 0.62528 0.0
C496 C 0.92033 0.92459 0.63821 0.0
C497 C 0.95103 0.94269 0.63149 0.0
C498 C 0.96996 0.05335 0.52577 0.0
C499 C 0.99336 0.97933 0.49144 0.0
O500 O 0.06356 0.04921 0.45199 0.0
O501 O 0.03469 0.08343 0.46662 0.0
O502 O 0.06931 1.01241 0.49792 0.0
O503 O 0.05473 0.03256 0.54039 0.0
O504 O 0.04709 0.08594 0.52804 0.0
O505 O 0.0365 0.06373 0.57831 0.0
O506 O 0.98334 1.01748 0.60442 0.0
O507 O 1.0043 0.98032 0.58316 0.0
O508 O 0.97003 0.05183 0.55713 0.0
O509 O 0.98656 0.03487 0.51363 0.0
O510 O 0.99444 0.98038 0.52407 0.0
O511 O 1.00348 1.00481 0.47493 0.0
H512 H 0.11335 0.06985 0.41353 0.0
H513 H 0.16361 0.10713 0.40594 0.0
H514 H 0.11969 0.17403 0.45988 0.0
H515 H 0.06912 0.13662 0.46756 0.0
H516 H 0.92614 0.99402 0.58122 0.0
H517 H 0.87242 0.96307 0.59403 0.0
H518 H 0.91881 0.90554 0.6546 0.0
H519 H 0.97278 0.93721 0.64248 0.0
La520 La 0.55342 0.03483 0.05313 0.0
La521 La 0.50183 1.02497 1.01384 0.0
C522 C 0.60998 0.04958 0.07678 0.0
C523 C 0.62795 0.07642 0.09357 0.0
C524 C 0.66228 0.08074 0.09461 0.0
C525 C 0.6796 0.10493 0.1126 0.0
C526 C 0.66276 0.12506 0.12996 0.0
C527 C 0.62839 0.12144 0.12753 0.0
C528 C 0.61113 0.09732 0.10941 0.0
C529 C 0.51021 0.98598 0.07598 0.0
C530 C 0.49814 0.06739 0.07536 0.0
C531 C 0.44641 1.01129 0.9874 0.0
C532 C 0.43235 0.98915 0.96218 0.0
C533 C 0.44434 0.99165 0.92978 0.0
C534 C 0.43086 0.97068 0.90613 0.0
C535 C 0.40521 0.94659 0.91428 0.0
C536 C 0.39316 0.94411 0.94669 0.0
C537 C 0.40657 0.96526 0.97039 0.0
C538 C 0.54541 0.07477 0.99318 0.0
C539 C 0.55711 0.99141 0.99218 0.0
O540 O 0.58462 0.03448 0.09261 0.0
O541 O 0.60358 0.05328 0.04628 0.0
O542 O 0.52568 1.00866 0.09267 0.0
O543 O 0.51831 0.99174 0.04595 0.0
O544 O 0.53017 0.06981 0.07554 0.0
O545 O 0.48105 0.04786 0.05517 0.0
O546 O 0.46956 0.03336 0.97786 0.0
O547 O 0.45338 1.00009 1.01502 0.0
O548 O 0.53097 0.05262 0.975 0.0
O549 O 0.53623 0.06772 1.02248 0.0
O550 O 0.52549 0.99088 0.98937 0.0
O551 O 0.57358 1.00988 1.01361 0.0
H552 H 0.67563 0.06497 0.08216 0.0
H553 H 0.70611 0.10741 0.11363 0.0
H554 H 0.61465 0.13633 0.14089 0.0
H555 H 0.58459 0.09443 0.10866 0.0
H556 H 0.46409 1.00986 0.92254 0.0
H557 H 0.44026 0.97365 0.88127 0.0
H558 H 0.37358 0.92568 0.95379 0.0
H559 H 0.39686 0.9629 0.99519 0.0
La560 La 0.51436 0.50412 0.51171 0.0
La561 La 0.52099 0.55777 0.54768 0.0
C562 C 0.52556 0.45665 0.48252 0.0
C563 C 0.53181 0.4266 0.49177 0.0
C564 C 0.53638 0.40553 0.46726 0.0
C565 C 0.54605 0.3782 0.47522 0.0
C566 C 0.55169 0.37173 0.50784 0.0
C567 C 0.54579 0.39234 0.53253 0.0
C568 C 0.53552 0.41945 0.52454 0.0
C569 C 0.46012 0.50543 0.54869 0.0
C570 C 0.54631 0.50514 0.58497 0.0
C571 C 0.50663 0.60426 0.57629 0.0
C572 C 0.49384 0.6309 0.56496 0.0
C573 C 0.50291 0.65923 0.58039 0.0
C574 C 0.48977 0.6843 0.5704 0.0
C575 C 0.46791 0.68161 0.54417 0.0
C576 C 0.46025 0.65338 0.52791 0.0
C577 C 0.47223 0.62819 0.53883 0.0
C578 C 0.57551 0.55623 0.51181 0.0
C579 C 0.49172 0.55858 0.47391 0.0
O580 O 0.49611 0.46217 0.48894 0.0
O581 O 0.54838 0.47975 0.4902 0.0
O582 O 0.46059 0.49585 0.51875 0.0
O583 O 0.48988 0.51423 0.55678 0.0
O584 O 0.53982 0.4903 0.5566 0.0
O585 O 0.5393 0.53295 0.58769 0.0
O586 O 0.5364 0.60215 0.56635 0.0
O587 O 0.48651 0.57818 0.574 0.0
O588 O 0.57467 0.56592 0.54176 0.0
O589 O 0.54591 0.54747 0.50295 0.0
O590 O 0.49684 0.57194 0.50306 0.0
O591 O 0.49903 0.53085 0.47034 0.0
H592 H 0.53356 0.41067 0.44185 0.0
H593 H 0.55085 0.36286 0.45568 0.0
H594 H 0.54987 0.3878 0.55784 0.0
H595 H 0.53141 0.43509 0.54386 0.0
H596 H 0.51941 0.66176 0.60077 0.0
H597 H 0.49582 0.70537 0.58413 0.0
H598 H 0.44423 0.65031 0.50719 0.0
H599 H 0.46386 0.60649 0.52711 0.0
La600 La 1.01561 0.50228 0.05354 0.0
La601 La 1.01735 0.55311 1.01442 0.0
C602 C 0.02834 0.4557 0.08128 0.0
C603 C 0.05822 0.44367 0.089 0.0
C604 C 0.06351 0.43661 0.12138 0.0
C605 C 0.09062 0.42366 0.12918 0.0
C606 C 0.11286 0.41712 0.10466 0.0
C607 C 0.10805 0.42501 0.0723 0.0
C608 C 0.08102 0.43823 0.06453 0.0
C609 C 0.98631 0.54467 0.08478 0.0
C610 C 0.08093 0.5535 0.05547 0.0
C611 C 1.00153 0.60018 0.9904 0.0
C612 C 0.97067 0.60817 0.97827 0.0
C613 C 0.96232 0.60397 0.94531 0.0
C614 C 0.93317 0.61173 0.93421 0.0
C615 C 0.91176 0.62395 0.95581 0.0
C616 C 0.9202 0.62815 0.98875 0.0
C617 C 0.94932 0.6205 0.9998 0.0
C618 C 0.04788 0.51201 0.98311 0.0
C619 C 0.95348 0.4986 1.00982 0.0
O620 O 0.0238 0.48032 0.09691 0.0
O621 O 0.02123 0.45656 0.05053 0.0
O622 O 0.97586 0.51548 0.08493 0.0
O623 O 1.01242 0.54897 0.06691 0.0
O624 O 0.06815 0.52417 0.05836 0.0
O625 O 0.06375 0.5712 0.04014 0.0
O626 O 1.01529 0.58068 0.97337 0.0
O627 O 1.00184 0.59489 1.02157 0.0
O628 O 0.05736 0.54142 0.98275 0.0
O629 O 0.02163 0.50663 1.00094 0.0
O630 O 0.96644 0.52744 1.0031 0.0
O631 O 0.96962 0.48336 0.02923 0.0
H632 H 0.04641 0.44079 0.14066 0.0
H633 H 0.09397 0.41852 0.15447 0.0
H634 H 0.12456 0.42013 0.05281 0.0
H635 H 0.07769 0.44363 0.0393 0.0
H636 H 0.97836 0.59485 0.92802 0.0
H637 H 0.92773 0.60868 0.90855 0.0
H638 H 0.90417 0.63719 1.00612 0.0
H639 H 0.95507 0.62425 1.02533 0.0
H640 H 0.28355 0.21517 0.3873 0.0
H641 H 0.22151 0.27674 0.35489 0.0
H642 H 0.17502 0.24822 0.38468 0.0
H643 H 0.14943 0.20088 0.41126 0.0
H644 H 0.20959 0.13641 0.43929 0.0
H645 H 0.25891 0.17046 0.41929 0.0
C646 C 0.25995 0.22253 0.3869 0.0
C647 C 0.25628 0.24794 0.36829 0.0
C648 C 0.2326 0.20504 0.40275 0.0
C649 C 0.22558 0.25756 0.36909 0.0
C650 C 0.19862 0.24095 0.3858 0.0
C651 C 0.17344 0.19467 0.41377 0.0
C652 C 0.17588 0.16608 0.42632 0.0
C653 C 0.2015 0.21394 0.40146 0.0
C654 C 0.20711 0.15816 0.4292 0.0
C655 C 0.23528 0.17762 0.41782 0.0
H656 H 0.36676 0.86621 0.7895 0.0
H657 H 0.26906 0.86432 0.83025 0.0
H658 H 0.29239 0.89345 0.87772 0.0
H659 H 0.34048 0.92233 0.90562 0.0
H660 H 0.43789 0.9215 0.86539 0.0
H661 H 0.41451 0.88997 0.81984 0.0
C662 C 0.35043 0.87132 0.80909 0.0
C663 C 0.31614 0.86305 0.80615 0.0
C664 C 0.36395 0.8878 0.8363 0.0
C665 C 0.29553 0.87074 0.83157 0.0
C666 C 0.30885 0.8873 0.8588 0.0
C667 C 0.35663 0.91476 0.88724 0.0
C668 C 0.39087 0.92468 0.88868 0.0
C669 C 0.34303 0.8964 0.86113 0.0
C670 C 0.41141 0.91482 0.86448 0.0
C671 C 0.39809 0.89665 0.83851 0.0
H672 H 0.61335 0.47574 0.71993 0.0
H673 H 0.58586 0.38279 0.68668 0.0
H674 H 0.56287 0.40055 0.63747 0.0
H675 H 0.55017 0.44318 0.60192 0.0
H676 H 0.57674 0.53554 0.6375 0.0
H677 H 0.59998 0.51741 0.68584 0.0
C678 C 0.60259 0.459 0.70208 0.0
C679 C 0.60208 0.42735 0.70832 0.0
C680 C 0.58889 0.46953 0.6732 0.0
C681 C 0.58694 0.40704 0.68397 0.0
C682 C 0.57374 0.41736 0.65521 0.0
C683 C 0.56114 0.45954 0.62002 0.0
C684 C 0.56132 0.49136 0.61472 0.0
C685 C 0.57451 0.44867 0.64919 0.0
C686 C 0.57569 0.51124 0.63972 0.0
C687 C 0.58923 0.50075 0.66789 0.0
H688 H 0.96281 0.6527 0.18598 0.0
H689 H 0.90245 0.57641 0.23447 0.0
H690 H 0.91541 0.54256 0.1914 0.0
H691 H 0.94422 0.5326 0.13932 0.0
H692 H 1.0075 0.6071 0.09169 0.0
H693 H 0.99349 0.6423 0.13423 0.0
C694 C 0.95243 0.6287 0.18756 0.0
C695 C 0.93056 0.61825 0.21442 0.0
C696 C 0.96072 0.6083 0.16223 0.0
C697 C 0.91813 0.5865 0.21459 0.0
C698 C 0.92594 0.56654 0.18968 0.0
C699 C 0.95501 0.55655 0.13799 0.0
C700 C 0.97704 0.56667 0.11143 0.0
C701 C 0.9471 0.57697 0.16321 0.0
C702 C 0.99054 0.59808 0.11118 0.0
C703 C 0.98245 0.61843 0.13583 0.0
H704 H 0.45237 0.16453 0.17075 0.0
H705 H 0.37097 0.15244 0.10522 0.0
H706 H 0.39498 0.11436 0.07392 0.0
H707 H 0.43924 0.08447 0.06533 0.0
H708 H 0.52157 0.09831 0.1299 0.0
H709 H 0.49684 0.13537 0.16175 0.0
C710 C 0.43983 0.15343 0.1497 0.0
C711 C 0.40991 0.16117 0.14036 0.0
C712 C 0.45384 0.13174 0.13181 0.0
C713 C 0.39417 0.14702 0.11272 0.0
C714 C 0.40778 0.12512 0.09497 0.0
C715 C 0.45158 0.09541 0.08655 0.0
C716 C 0.48205 0.08852 0.0954 0.0
C717 C 0.43757 0.11724 0.10434 0.0
C718 C 0.49806 0.10322 0.12263 0.0
C719 C 0.48397 0.12444 0.14082 0.0
H720 H 0.13845 0.9398 0.62808 0.0
H721 H 0.11844 0.87141 0.55204 0.0
H722 H 0.09183 0.90559 0.52041 0.0
H723 H 0.0775 0.95616 0.51286 0.0
H724 H 0.09363 1.02283 0.59061 0.0
H725 H 0.11819 0.98776 0.62349 0.0
C726 C 0.12752 0.93194 0.60503 0.0
C727 C 0.13094 0.9032 0.59228 0.0
C728 C 0.11195 0.95153 0.58714 0.0
C729 C 0.11689 0.89369 0.56211 0.0
C730 C 0.10159 0.91317 0.54402 0.0
C731 C 0.08647 0.96289 0.53701 0.0
C732 C 0.0846 0.99204 0.54923 0.0
C733 C 0.09975 0.94241 0.55595 0.0
C734 C 0.09532 1.00048 0.58077 0.0
C735 C 0.10925 0.98048 0.5995 0.0
H736 H 0.83119 0.40299 0.95522 0.0
H737 H 0.80751 0.48292 0.91008 0.0
H738 H 0.85646 0.51374 0.93356 0.0
H739 H 0.90718 0.519 0.96841 0.0
H740 H 0.92695 0.4383 1.01513 0.0
H741 H 0.87887 0.40815 0.99056 0.0
C742 C 0.83582 0.4272 0.95062 0.0
C743 C 0.81414 0.43979 0.93033 0.0
C744 C 0.8641 0.44535 0.96501 0.0
C745 C 0.82286 0.47154 0.92481 0.0
C746 C 0.85118 0.48958 0.93866 0.0
C747 C 0.90099 0.49486 0.97343 0.0
C748 C 0.92169 0.48153 0.99424 0.0
C749 C 0.8722 0.4769 0.95902 0.0
C750 C 0.91234 0.44992 0.99975 0.0
C751 C 0.88448 0.43231 0.98546 0.0
H752 H 0.68435 0.59592 0.39801 0.0
H753 H 0.73923 0.63674 0.48056 0.0
H754 H 0.69317 0.61723 0.51697 0.0
H755 H 0.63668 0.58879 0.52655 0.0
H756 H 0.58081 0.54772 0.44503 0.0
H757 H 0.62737 0.56649 0.40789 0.0
C758 C 0.68648 0.60048 0.42397 0.0
C759 C 0.71592 0.61847 0.4359 0.0
C760 C 0.65937 0.5889 0.44538 0.0
C761 C 0.71726 0.62385 0.46992 0.0
C762 C 0.69076 0.61237 0.49108 0.0
C763 C 0.63459 0.58375 0.50067 0.0
C764 C 0.6048 0.56659 0.48894 0.0
C765 C 0.66158 0.59496 0.47923 0.0
C766 C 0.60309 0.56065 0.45511 0.0
C767 C 0.62988 0.57153 0.43373 0.0
H768 H 0.21148 0.33865 0.15913 0.0
H769 H 0.27878 0.39337 0.0925 0.0
H770 H 0.23415 0.41869 0.07455 0.0
H771 H 0.17645 0.42684 0.08054 0.0
H772 H 0.10998 0.37019 0.14684 0.0
H773 H 0.15409 0.34441 0.16268 0.0
C774 C 0.21635 0.35614 0.14064 0.0
C775 C 0.24829 0.36455 0.12742 0.0
C776 C 0.19084 0.37043 0.13073 0.0
C777 C 0.2543 0.38669 0.10302 0.0
C778 C 0.22886 0.40119 0.09294 0.0
C779 C 0.17155 0.40864 0.09818 0.0
C780 C 0.13999 0.40089 0.11288 0.0
C781 C 0.19708 0.3935 0.10699 0.0
C782 C 0.13416 0.37727 0.13578 0.0
C783 C 0.15931 0.36228 0.14468 0.0
H784 H 0.60443 0.21743 0.96199 0.0
H785 H 0.58171 0.18555 0.8639 0.0
H786 H 0.56209 0.13438 0.88399 0.0
H787 H 0.5502 0.09687 0.92921 0.0
H788 H 0.57167 0.12738 1.02768 0.0
H789 H 0.59248 0.17917 1.00791 0.0
C790 C 0.59535 0.19941 0.94479 0.0
C791 C 0.59463 0.20677 0.91086 0.0
C792 C 0.58356 0.16891 0.95678 0.0
C793 C 0.58235 0.18202 0.88991 0.0
C794 C 0.57113 0.15215 0.90149 0.0
C795 C 0.55947 0.1147 0.94656 0.0
C796 C 0.55905 0.10724 0.98037 0.0
C797 C 0.57135 0.14508 0.93487 0.0
C798 C 0.57134 0.13154 1.00175 0.0
C799 C 0.58338 0.16155 0.99028 0.0
H800 H 0.93873 0.87038 0.38963 0.0
H801 H 0.94459 0.81551 0.47402 0.0
H802 H 0.96587 0.86116 0.50599 0.0
H803 H 0.98139 0.91791 0.51164 0.0
H804 H 0.97608 0.97287 0.42706 0.0
H805 H 0.95649 0.92716 0.39472 0.0
C806 C 0.94535 0.86824 0.41479 0.0
C807 C 0.94027 0.8387 0.42881 0.0
C808 C 0.95744 0.89523 0.43369 0.0
C809 C 0.94842 0.83735 0.46198 0.0
C810 C 0.96047 0.86375 0.48057 0.0
C811 C 0.9759 0.92006 0.48617 0.0
C812 C 0.98033 0.94971 0.47243 0.0
C813 C 0.96475 0.89305 0.46701 0.0
C814 C 0.97313 0.95103 0.43898 0.0
C815 C 0.96183 0.92456 0.42015 0.0
H816 H 0.40178 0.79712 0.54945 0.0
H817 H 0.31805 0.73019 0.52189 0.0
H818 H 0.35372 0.69294 0.51097 0.0
H819 H 0.40543 0.67692 0.52194 0.0
H820 H 0.49026 0.7436 0.54864 0.0
H821 H 0.45701 0.78352 0.54789 0.0
C822 C 0.39167 0.77469 0.53988 0.0
C823 C 0.35747 0.76607 0.5369 0.0
C824 C 0.41218 0.75318 0.53469 0.0
C825 C 0.34437 0.7372 0.52429 0.0
C826 C 0.3647 0.71581 0.51851 0.0
C827 C 0.41735 0.70023 0.52635 0.0
C828 C 0.45027 0.70688 0.53636 0.0
C829 C 0.39826 0.7231 0.52551 0.0
C830 C 0.46468 0.73747 0.54218 0.0
C831 C 0.44576 0.76042 0.54146 0.0
H832 H 0.7566 0.88316 0.69491 0.0
H833 H 0.77887 0.79711 0.66027 0.0
H834 H 0.82761 0.82376 0.63114 0.0
H835 H 0.86734 0.87138 0.62099 0.0
H836 H 0.8431 0.95698 0.65401 0.0
H837 H 0.79123 0.93058 0.67786 0.0
C838 C 0.7713 0.87011 0.68011 0.0
C839 C 0.76425 0.83807 0.68037 0.0
C840 C 0.79925 0.88552 0.66348 0.0
C841 C 0.78408 0.82176 0.6612 0.0
C842 C 0.812 0.83697 0.64452 0.0
C843 C 0.8504 0.88412 0.63309 0.0
C844 C 0.85896 0.91592 0.63615 0.0
C845 C 0.82048 0.86879 0.64652 0.0
C846 C 0.83686 0.93243 0.65146 0.0
C847 C 0.8073 0.91737 0.66514 0.0
H848 H 0.71097 0.22641 0.23525 0.0
H849 H 0.76293 0.15635 0.26635 0.0
H850 H 0.74509 0.12586 0.21844 0.0
H851 H 0.70946 0.11604 0.17175 0.0
H852 H 0.65476 0.18412 0.14132 0.0
H853 H 0.67838 0.21811 0.18537 0.0
C854 C 0.71854 0.20456 0.23142 0.0
C855 C 0.73825 0.19379 0.25449 0.0
C856 C 0.7073 0.18653 0.20424 0.0
C857 C 0.74826 0.16559 0.24885 0.0
C858 C 0.73774 0.14788 0.22159 0.0
C859 C 0.70333 0.13862 0.17415 0.0
C860 C 0.68033 0.14751 0.15336 0.0
C861 C 0.7166 0.15776 0.19964 0.0
C862 C 0.67215 0.17663 0.15728 0.0
C863 C 0.68568 0.19607 0.18239 0.0
H864 H 0.4455 0.65494 0.37339 0.0
H865 H 0.42665 0.57487 0.31191 0.0
H866 H 0.44659 0.54505 0.35388 0.0
H867 H 0.46878 0.53976 0.40987 0.0
H868 H 0.48795 0.61968 0.47143 0.0
H869 H 0.46899 0.64986 0.42918 0.0
C870 C 0.44601 0.63107 0.36877 0.0
C871 C 0.43397 0.61789 0.33829 0.0
C872 C 0.45757 0.61318 0.39396 0.0
C873 C 0.43509 0.58643 0.33435 0.0
C874 C 0.44671 0.56899 0.35875 0.0
C875 C 0.46893 0.56377 0.41431 0.0
C876 C 0.47978 0.57657 0.4453 0.0
C877 C 0.45783 0.58178 0.38902 0.0
C878 C 0.4794 0.60815 0.44906 0.0
C879 C 0.46863 0.62587 0.42433 0.0
H880 H 0.07615 0.40626 0.88128 0.0
H881 H 0.1343 0.48425 0.83362 0.0
H882 H 0.11978 0.51718 0.87696 0.0
H883 H 0.09001 0.52574 0.92892 0.0
H884 H 0.0292 0.44931 0.97584 0.0
H885 H 0.04484 0.41513 0.93302 0.0
C886 C 0.08571 0.43043 0.87991 0.0
C887 C 0.10735 0.44171 0.85315 0.0
C888 C 0.07652 0.45021 0.90538 0.0
C889 C 0.11877 0.47362 0.85334 0.0
C890 C 0.11006 0.493 0.8784 0.0
C891 C 0.08011 0.50159 0.93003 0.0
C892 C 0.05822 0.49061 0.95642 0.0
C893 C 0.08901 0.48177 0.9047 0.0
C894 C 0.04594 0.45897 0.95644 0.0
C895 C 0.05498 0.43922 0.93165 0.0
H896 H 0.64483 0.89713 0.94299 0.0
H897 H 0.55812 0.86212 0.88869 0.0
H898 H 0.53083 0.90276 0.91109 0.0
H899 H 0.53164 0.94786 0.94726 0.0
H900 H 0.62029 0.98362 0.99901 0.0
H901 H 0.64685 0.94345 0.9762 0.0
C902 C 0.61988 0.89837 0.93629 0.0
C903 C 0.60321 0.87655 0.91477 0.0
C904 C 0.6048 0.92209 0.9486 0.0
C905 C 0.57121 0.87865 0.90552 0.0
C906 C 0.5557 0.90187 0.91825 0.0
C907 C 0.55686 0.94701 0.95328 0.0
C908 C 0.57378 0.96873 0.975 0.0
C909 C 0.57226 0.92374 0.93991 0.0
C910 C 0.60653 0.96729 0.98243 0.0
C911 C 0.6218 0.94419 0.9695 0.0
H912 H 0.90535 0.13685 0.43503 0.0
H913 H 0.91049 0.19156 0.52322 0.0
H914 H 0.9374 0.15483 0.5506 0.0
H915 H 0.95664 0.10597 0.55028 0.0
H916 H 0.95453 0.05275 0.4615 0.0
H917 H 0.92972 0.09071 0.43309 0.0
C918 C 0.91307 0.14128 0.45997 0.0
C919 C 0.90561 0.1669 0.47708 0.0
C920 C 0.92881 0.12027 0.47544 0.0
C921 C 0.91533 0.17179 0.50963 0.0
C922 C 0.93082 0.15086 0.52528 0.0
C923 C 0.95075 0.10275 0.52469 0.0
C924 C 0.9567 0.07653 0.50798 0.0
C925 C 0.93705 0.12476 0.50859 0.0
C926 C 0.94976 0.07275 0.47475 0.0
C927 C 0.93564 0.0944 0.4586 0.0
H928 H 0.22248 0.58318 0.12534 0.0
H929 H 0.20211 0.67452 0.12155 0.0
H930 H 0.15043 0.6558 0.09488 0.0
H931 H 0.10978 0.61371 0.07105 0.0
H932 H 0.12792 0.52184 0.07647 0.0
H933 H 0.18012 0.54029 0.10322 0.0
C934 C 0.20668 0.59904 0.11907 0.0
C935 C 0.21746 0.63072 0.12555 0.0
C936 C 0.17594 0.58794 0.10334 0.0
C937 C 0.19574 0.65028 0.11672 0.0
C938 C 0.16569 0.63951 0.10131 0.0
C939 C 0.12514 0.59761 0.07779 0.0
C940 C 0.11423 0.56612 0.07094 0.0
C941 C 0.15547 0.60843 0.09402 0.0
C942 C 0.135 0.5461 0.08083 0.0
C943 C 0.16519 0.55673 0.09642 0.0
H944 H 0.35315 0.46681 0.66471 0.0
H945 H 0.29695 0.42473 0.58354 0.0
H946 H 0.34235 0.44385 0.54622 0.0
H947 H 0.39868 0.47231 0.53536 0.0
H948 H 0.45589 0.51459 0.61547 0.0
H949 H 0.41 0.49621 0.65354 0.0
C950 C 0.35059 0.46188 0.63886 0.0
C951 C 0.32094 0.44363 0.62763 0.0
C952 C 0.37736 0.47322 0.61687 0.0
C953 C 0.31907 0.43781 0.5937 0.0
C954 C 0.34521 0.44907 0.57199 0.0
C955 C 0.40122 0.4777 0.56114 0.0
C956 C 0.43122 0.4951 0.57216 0.0
C957 C 0.37459 0.4667 0.58315 0.0
C958 C 0.43347 0.50145 0.6059 0.0
C959 C 0.40704 0.49081 0.62782 0.0
H960 H 0.78616 0.64941 0.88401 0.0
H961 H 0.80463 0.73054 0.94418 0.0
H962 H 0.8488 0.71137 0.97103 0.0
H963 H 0.88616 0.67439 0.97292 0.0
H964 H 0.86848 0.59378 0.9118 0.0
H965 H 0.82066 0.61041 0.88913 0.0
C966 C 0.7997 0.66281 0.90318 0.0
C967 C 0.79227 0.69152 0.91182 0.0
C968 C 0.82569 0.65205 0.91784 0.0
C969 C 0.8096 0.70828 0.93718 0.0
C970 C 0.83516 0.69749 0.95229 0.0
C971 C 0.87154 0.66015 0.95508 0.0
C972 C 0.88122 0.63302 0.94383 0.0
C973 C 0.844 0.66981 0.94216 0.0
C974 C 0.86208 0.61508 0.9204 0.0
C975 C 0.83456 0.62445 0.90759 0.0
H976 H 0.468 0.87274 0.17494 0.0
H977 H 0.43708 0.82392 0.08641 0.0
H978 H 0.45555 0.87009 0.05481 0.0
H979 H 0.48119 0.92622 0.05103 0.0
H980 H 0.50987 0.97426 0.14077 0.0
H981 H 0.49225 0.92795 0.17149 0.0
C982 C 0.46533 0.87185 0.14872 0.0
C983 C 0.45057 0.84372 0.13386 0.0
C984 C 0.47594 0.89922 0.1301 0.0
C985 C 0.44759 0.84446 0.09948 0.0
C986 C 0.45847 0.87126 0.081 0.0
C987 C 0.48366 0.92673 0.07728 0.0
C988 C 0.49753 0.9549 0.09284 0.0
C989 C 0.47272 0.89912 0.09582 0.0
C990 C 0.49978 0.95384 0.12723 0.0
C991 C 0.48954 0.92692 0.14526 0.0
H992 H 0.11365 0.22666 0.59428 0.0
H993 H 0.0818 0.20068 0.69237 0.0
H994 H 0.0579 0.14949 0.67241 0.0
H995 H 0.04691 0.11039 0.62639 0.0
H996 H 0.08048 0.13862 0.5292 0.0
H997 H 0.10286 0.18916 0.54962 0.0
C998 C 0.10188 0.20997 0.61175 0.0
C999 C 0.10035 0.21848 0.64536 0.0
C1000 C 0.08834 0.18012 0.60005 0.0
C1001 C 0.08366 0.19579 0.66653 0.0
C1002 C 0.07005 0.16607 0.65501 0.0
C1003 C 0.05921 0.12749 0.60961 0.0
C1004 C 0.06165 0.11965 0.57577 0.0
C1005 C 0.07239 0.15764 0.62173 0.0
C1006 C 0.07772 0.14299 0.55506 0.0
C1007 C 0.09074 0.17236 0.56682 0.0
H1008 H 0.61993 0.25851 0.49561 0.0
H1009 H 0.69587 0.32027 0.54495 0.0
H1010 H 0.65738 0.3548 0.55697 0.0
H1011 H 0.60637 0.37222 0.54276 0.0
H1012 H 0.53277 0.31273 0.48817 0.0
H1013 H 0.56596 0.27257 0.48872 0.0
C1014 C 0.62781 0.27925 0.5096 0.0
C1015 C 0.66083 0.28717 0.51875 0.0
C1016 C 0.6061 0.29969 0.51484 0.0
C1017 C 0.6706 0.31368 0.53755 0.0
C1018 C 0.64869 0.33363 0.54407 0.0
C1019 C 0.59718 0.3501 0.53194 0.0
C1020 C 0.56744 0.34542 0.51512 0.0
C1021 C 0.61698 0.32762 0.53126 0.0
C1022 C 0.55581 0.31683 0.50091 0.0
C1023 C 0.5748 0.29395 0.50117 0.0
loop_
_geom_bond_atom_site_label_1
_geom_bond_atom_site_label_2
_geom_bond_distance
_geom_bond_site_symmetry_2
_ccdc_geom_bond_type
C0 C1 1.391 . S
C0 C4 1.391 . S
C0 H42 0.948 . S
C1 C0 1.391 . S
C1 C2 1.391 . S
C2 C1 1.391 . S
C2 H58 0.947 . S
C2 C59 1.392 . S
C3 C4 1.391 . S
C3 C7 1.397 . S
C3 C59 1.419 . S
C4 C0 1.391 . S
C4 C3 1.391 . S
C4 C5 1.399 . S
C5 C4 1.399 . S
C5 C8 1.396 . S
C5 C17 1.453 . S
C5 C18 1.684 . S
H6 C30 0.948 . S
C7 C3 1.397 . S
C7 C8 1.394 . S
C7 C26 1.723 . S
C8 C5 1.396 . S
C8 C7 1.394 . S
C8 C38 1.723 . S
H9 C32 0.947 . S
H10 C33 0.948 . S
H11 C39 0.982 . S
H12 C40 0.979 . S
H13 C40 0.980 . S
H14 C40 0.983 . S
H15 C39 0.979 . S
H16 C39 0.977 . S
C17 C5 1.453 . S
C17 H46 0.982 . S
C17 H47 0.979 . S
C17 H48 0.977 . S
C18 C5 1.684 . S
C18 H43 0.979 . S
C18 H44 0.980 . S
C18 H45 0.983 . S
C19 C20 1.391 . S
C19 C24 1.391 . S
C19 H49 0.948 . S
C20 C19 1.391 . S
C20 C21 1.391 . S
C21 C20 1.391 . S
C21 C22 1.392 . S
C21 H50 0.947 . S
C22 C21 1.392 . S
C22 C23 1.419 . S
C22 H51 0.948 . S
C23 C22 1.419 . S
C23 C24 1.391 . S
C23 C27 1.397 . S
C24 C19 1.391 . S
C24 C23 1.391 . S
C24 C25 1.399 . S
C25 C24 1.399 . S
C25 C26 1.396 . S
C25 C28 1.453 . S
C25 C29 1.684 . S
C26 C7 1.723 . S
C26 C25 1.396 . S
C26 C27 1.394 . S
C27 C23 1.397 . S
C27 C26 1.394 . S
C27 C37 1.723 . S
C28 C25 1.453 . S
C28 H52 0.982 . S
C28 H53 0.979 . S
C28 H54 0.977 . S
C29 C25 1.684 . S
C29 H55 0.979 . S
C29 H56 0.980 . S
C29 H57 0.983 . S
C30 H6 0.948 . S
C30 C31 1.391 . S
C30 C35 1.391 . S
C31 C30 1.391 . S
C31 C32 1.391 . S
C32 H9 0.947 . S
C32 C31 1.391 . S
C32 C33 1.392 . S
C33 H10 0.948 . S
C33 C32 1.392 . S
C33 C34 1.419 . S
C34 C33 1.419 . S
C34 C35 1.391 . S
C34 C38 1.397 . S
C35 C30 1.391 . S
C35 C34 1.391 . S
C35 C36 1.399 . S
C36 C35 1.399 . S
C36 C37 1.396 . S
C36 C39 1.453 . S
C36 C40 1.684 . S
C37 C27 1.723 . S
C37 C36 1.396 . S
C37 C38 1.394 . S
C38 C8 1.723 . S
C38 C34 1.397 . S
C38 C37 1.394 . S
C39 H11 0.982 . S
C39 H15 0.979 . S
C39 H16 0.977 . S
C39 C36 1.453 . S
C40 H12 0.979 . S
C40 H13 0.980 . S
C40 H14 0.983 . S
C40 C36 1.684 . S
H41 C59 0.948 . S
H42 C0 0.948 . S
H43 C18 0.979 . S
H44 C18 0.980 . S
H45 C18 0.983 . S
H46 C17 0.982 . S
H47 C17 0.979 . S
H48 C17 0.977 . S
H49 C19 0.948 . S
H50 C21 0.947 . S
H51 C22 0.948 . S
H52 C28 0.982 . S
H53 C28 0.979 . S
H54 C28 0.977 . S
H55 C29 0.979 . S
H56 C29 0.980 . S
H57 C29 0.983 . S
H58 C2 0.947 . S
C59 C2 1.392 . S
C59 C3 1.419 . S
C59 H41 0.948 . S
C60 C61 1.391 . S
C60 C64 1.391 . S
C60 H102 0.948 . S
C61 C60 1.391 . S
C61 C62 1.391 . S
C62 C61 1.391 . S
C62 H118 0.947 . S
C62 C119 1.392 . S
C63 C64 1.391 . S
C63 C67 1.397 . S
C63 C119 1.419 . S
C64 C60 1.391 . S
C64 C63 1.391 . S
C64 C65 1.399 . S
C65 C64 1.399 . S
C65 C68 1.396 . S
C65 C77 1.453 . S
C65 C78 1.684 . S
H66 C90 0.948 . S
C67 C63 1.397 . S
C67 C68 1.394 . S
C67 C86 1.723 . S
C68 C65 1.396 . S
C68 C67 1.394 . S
C68 C98 1.723 . S
H69 C92 0.947 . S
H70 C93 0.948 . S
H71 C99 0.982 . S
H72 C100 0.979 . S
H73 C100 0.980 . S
H74 C100 0.983 . S
H75 C99 0.979 . S
H76 C99 0.977 . S
C77 C65 1.453 . S
C77 H106 0.982 . S
C77 H107 0.979 . S
C77 H108 0.977 . S
C78 C65 1.684 . S
C78 H103 0.979 . S
C78 H104 0.980 . S
C78 H105 0.983 . S
C79 C80 1.391 . S
C79 C84 1.391 . S
C79 H109 0.948 . S
C80 C79 1.391 . S
C80 C81 1.391 . S
C81 C80 1.391 . S
C81 C82 1.392 . S
C81 H110 0.947 . S
C82 C81 1.392 . S
C82 C83 1.419 . S
C82 H111 0.948 . S
C83 C82 1.419 . S
C83 C84 1.391 . S
C83 C87 1.397 . S
C84 C79 1.391 . S
C84 C83 1.391 . S
C84 C85 1.399 . S
C85 C84 1.399 . S
C85 C86 1.396 . S
C85 C88 1.453 . S
C85 C89 1.684 . S
C86 C67 1.723 . S
C86 C85 1.396 . S
C86 C87 1.394 . S
C87 C83 1.397 . S
C87 C86 1.394 . S
C87 C97 1.723 . S
C88 C85 1.453 . S
C88 H112 0.982 . S
C88 H113 0.979 . S
C88 H114 0.977 . S
C89 C85 1.684 . S
C89 H115 0.979 . S
C89 H116 0.980 . S
C89 H117 0.983 . S
C90 H66 0.948 . S
C90 C91 1.391 . S
C90 C95 1.391 . S
C91 C90 1.391 . S
C91 C92 1.391 . S
C92 H69 0.947 . S
C92 C91 1.391 . S
C92 C93 1.392 . S
C93 H70 0.948 . S
C93 C92 1.392 . S
C93 C94 1.419 . S
C94 C93 1.419 . S
C94 C95 1.391 . S
C94 C98 1.397 . S
C95 C90 1.391 . S
C95 C94 1.391 . S
C95 C96 1.399 . S
C96 C95 1.399 . S
C96 C97 1.396 . S
C96 C99 1.453 . S
C96 C100 1.684 . S
C97 C87 1.723 . S
C97 C96 1.396 . S
C97 C98 1.394 . S
C98 C68 1.723 . S
C98 C94 1.397 . S
C98 C97 1.394 . S
C99 H71 0.982 . S
C99 H75 0.979 . S
C99 H76 0.977 . S
C99 C96 1.453 . S
C100 H72 0.979 . S
C100 H73 0.980 . S
C100 H74 0.983 . S
C100 C96 1.684 . S
H101 C119 0.948 . S
H102 C60 0.948 . S
H103 C78 0.979 . S
H104 C78 0.980 . S
H105 C78 0.983 . S
H106 C77 0.982 . S
H107 C77 0.979 . S
H108 C77 0.977 . S
H109 C79 0.948 . S
H110 C81 0.947 . S
H111 C82 0.948 . S
H112 C88 0.982 . S
H113 C88 0.979 . S
H114 C88 0.977 . S
H115 C89 0.979 . S
H116 C89 0.980 . S
H117 C89 0.983 . S
H118 C62 0.947 . S
C119 C62 1.392 . S
C119 C63 1.419 . S
C119 H101 0.948 . S
C120 C121 1.391 . S
C120 C124 1.391 . S
C120 H162 0.948 . S
C121 C120 1.391 . S
C121 C122 1.391 . S
C122 C121 1.391 . S
C122 H178 0.947 . S
C122 C179 1.392 . S
C123 C124 1.391 . S
C123 C127 1.397 . S
C123 C179 1.419 . S
C124 C120 1.391 . S
C124 C123 1.391 . S
C124 C125 1.399 . S
C125 C124 1.399 . S
C125 C128 1.396 . S
C125 C137 1.453 . S
C125 C138 1.684 . S
H126 C150 0.948 . S
C127 C123 1.397 . S
C127 C128 1.394 . S
C127 C146 1.723 . S
C128 C125 1.396 . S
C128 C127 1.394 . S
C128 C158 1.723 . S
H129 C152 0.947 . S
H130 C153 0.948 . S
H131 C159 0.982 . S
H132 C160 0.979 . S
H133 C160 0.980 . S
H134 C160 0.983 . S
H135 C159 0.979 . S
H136 C159 0.977 . S
C137 C125 1.453 . S
C137 H166 0.982 . S
C137 H167 0.979 . S
C137 H168 0.977 . S
C138 C125 1.684 . S
C138 H163 0.979 . S
C138 H164 0.980 . S
C138 H165 0.983 . S
C139 C140 1.391 . S
C139 C144 1.391 . S
C139 H169 0.948 . S
C140 C139 1.391 . S
C140 C141 1.391 . S
C141 C140 1.391 . S
C141 C142 1.392 . S
C141 H170 0.947 . S
C142 C141 1.392 . S
C142 C143 1.419 . S
C142 H171 0.948 . S
C143 C142 1.419 . S
C143 C144 1.391 . S
C143 C147 1.397 . S
C144 C139 1.391 . S
C144 C143 1.391 . S
C144 C145 1.399 . S
C145 C144 1.399 . S
C145 C146 1.396 . S
C145 C148 1.453 . S
C145 C149 1.684 . S
C146 C127 1.723 . S
C146 C145 1.396 . S
C146 C147 1.394 . S
C147 C143 1.397 . S
C147 C146 1.394 . S
C147 C157 1.723 . S
C148 C145 1.453 . S
C148 H172 0.982 . S
C148 H173 0.979 . S
C148 H174 0.977 . S
C149 C145 1.684 . S
C149 H175 0.979 . S
C149 H176 0.980 . S
C149 H177 0.983 . S
C150 H126 0.948 . S
C150 C151 1.391 . S
C150 C155 1.391 . S
C151 C150 1.391 . S
C151 C152 1.391 . S
C152 H129 0.947 . S
C152 C151 1.391 . S
C152 C153 1.392 . S
C153 H130 0.948 . S
C153 C152 1.392 . S
C153 C154 1.419 . S
C154 C153 1.419 . S
C154 C155 1.391 . S
C154 C158 1.397 . S
C155 C150 1.391 . S
C155 C154 1.391 . S
C155 C156 1.399 . S
C156 C155 1.399 . S
C156 C157 1.396 . S
C156 C159 1.453 . S
C156 C160 1.684 . S
C157 C147 1.723 . S
C157 C156 1.396 . S
C157 C158 1.394 . S
C158 C128 1.723 . S
C158 C154 1.397 . S
C158 C157 1.394 . S
C159 H131 0.982 . S
C159 H135 0.979 . S
C159 H136 0.977 . S
C159 C156 1.453 . S
C160 H132 0.979 . S
C160 H133 0.980 . S
C160 H134 0.983 . S
C160 C156 1.684 . S
H161 C179 0.948 . S
H162 C120 0.948 . S
H163 C138 0.979 . S
H164 C138 0.980 . S
H165 C138 0.983 . S
H166 C137 0.982 . S
H167 C137 0.979 . S
H168 C137 0.977 . S
H169 C139 0.948 . S
H170 C141 0.947 . S
H171 C142 0.948 . S
H172 C148 0.982 . S
H173 C148 0.979 . S
H174 C148 0.977 . S
H175 C149 0.979 . S
H176 C149 0.980 . S
H177 C149 0.983 . S
H178 C122 0.947 . S
C179 C122 1.392 . S
C179 C123 1.419 . S
C179 H161 0.948 . S
C180 C181 1.391 . S
C180 C184 1.391 . S
C180 H222 0.948 . S
C181 C180 1.391 . S
C181 C182 1.391 . S
C182 C181 1.391 . S
C182 H238 0.947 . S
C182 C239 1.392 . S
C183 C184 1.391 . S
C183 C187 1.397 . S
C183 C239 1.419 . S
C184 C180 1.391 . S
C184 C183 1.391 . S
C184 C185 1.399 . S
C185 C184 1.399 . S
C185 C188 1.396 . S
C185 C197 1.453 . S
C185 C198 1.684 . S
H186 C210 0.948 . S
C187 C183 1.397 . S
C187 C188 1.394 . S
C187 C206 1.723 . S
C188 C185 1.396 . S
C188 C187 1.394 . S
C188 C218 1.723 . S
H189 C212 0.947 . S
H190 C213 0.948 . S
H191 C219 0.982 . S
H192 C220 0.979 . S
H193 C220 0.980 . S
H194 C220 0.983 . S
H195 C219 0.979 . S
H196 C219 0.977 . S
C197 C185 1.453 . S
C197 H226 0.982 . S
C197 H227 0.979 . S
C197 H228 0.977 . S
C198 C185 1.684 . S
C198 H223 0.979 . S
C198 H224 0.980 . S
C198 H225 0.983 . S
C199 C200 1.391 . S
C199 C204 1.391 . S
C199 H229 0.948 . S
C200 C199 1.391 . S
C200 C201 1.391 . S
C201 C200 1.391 . S
C201 C202 1.392 . S
C201 H230 0.947 . S
C202 C201 1.392 . S
C202 C203 1.419 . S
C202 H231 0.948 . S
C203 C202 1.419 . S
C203 C204 1.391 . S
C203 C207 1.397 . S
C204 C199 1.391 . S
C204 C203 1.391 . S
C204 C205 1.399 . S
C205 C204 1.399 . S
C205 C206 1.396 . S
C205 C208 1.453 . S
C205 C209 1.684 . S
C206 C187 1.723 . S
C206 C205 1.396 . S
C206 C207 1.394 . S
C207 C203 1.397 . S
C207 C206 1.394 . S
C207 C217 1.723 . S
C208 C205 1.453 . S
C208 H232 0.982 . S
C208 H233 0.979 . S
C208 H234 0.977 . S
C209 C205 1.684 . S
C209 H235 0.979 . S
C209 H236 0.980 . S
C209 H237 0.983 . S
C210 H186 0.948 . S
C210 C211 1.391 . S
C210 C215 1.391 . S
C211 C210 1.391 . S
C211 C212 1.391 . S
C212 H189 0.947 . S
C212 C211 1.391 . S
C212 C213 1.392 . S
C213 H190 0.948 . S
C213 C212 1.392 . S
C213 C214 1.419 . S
C214 C213 1.419 . S
C214 C215 1.391 . S
C214 C218 1.397 . S
C215 C210 1.391 . S
C215 C214 1.391 . S
C215 C216 1.399 . S
C216 C215 1.399 . S
C216 C217 1.396 . S
C216 C219 1.453 . S
C216 C220 1.684 . S
C217 C207 1.723 . S
C217 C216 1.396 . S
C217 C218 1.394 . S
C218 C188 1.723 . S
C218 C214 1.397 . S
C218 C217 1.394 . S
C219 H191 0.982 . S
C219 H195 0.979 . S
C219 H196 0.977 . S
C219 C216 1.453 . S
C220 H192 0.979 . S
C220 H193 0.980 . S
C220 H194 0.983 . S
C220 C216 1.684 . S
H221 C239 0.948 . S
H222 C180 0.948 . S
H223 C198 0.979 . S
H224 C198 0.980 . S
H225 C198 0.983 . S
H226 C197 0.982 . S
H227 C197 0.979 . S
H228 C197 0.977 . S
H229 C199 0.948 . S
H230 C201 0.947 . S
H231 C202 0.948 . S
H232 C208 0.982 . S
H233 C208 0.979 . S
H234 C208 0.977 . S
H235 C209 0.979 . S
H236 C209 0.980 . S
H237 C209 0.983 . S
H238 C182 0.947 . S
C239 C182 1.392 . S
C239 C183 1.419 . S
C239 H221 0.948 . S
C240 C241 1.391 . S
C240 C244 1.391 . S
C240 H282 0.948 . S
C241 C240 1.391 . S
C241 C242 1.391 . S
C242 C241 1.391 . S
C242 H298 0.947 . S
C242 C299 1.392 . S
C243 C244 1.391 . S
C243 C247 1.397 . S
C243 C299 1.419 . S
C244 C240 1.391 . S
C244 C243 1.391 . S
C244 C245 1.399 . S
C245 C244 1.399 . S
C245 C248 1.396 . S
C245 C257 1.453 . S
C245 C258 1.684 . S
H246 C270 0.948 . S
C247 C243 1.397 . S
C247 C248 1.394 . S
C247 C266 1.723 . S
C248 C245 1.396 . S
C248 C247 1.394 . S
C248 C278 1.723 . S
H249 C272 0.947 . S
H250 C273 0.948 . S
H251 C279 0.982 . S
H252 C280 0.979 . S
H253 C280 0.980 . S
H254 C280 0.983 . S
H255 C279 0.979 . S
H256 C279 0.977 . S
C257 C245 1.453 . S
C257 H286 0.982 . S
C257 H287 0.979 . S
C257 H288 0.977 . S
C258 C245 1.684 . S
C258 H283 0.979 . S
C258 H284 0.980 . S
C258 H285 0.983 . S
C259 C260 1.391 . S
C259 C264 1.391 . S
C259 H289 0.948 . S
C260 C259 1.391 . S
C260 C261 1.391 . S
C261 C260 1.391 . S
C261 C262 1.392 . S
C261 H290 0.947 . S
C262 C261 1.392 . S
C262 C263 1.419 . S
C262 H291 0.948 . S
C263 C262 1.419 . S
C263 C264 1.391 . S
C263 C267 1.397 . S
C264 C259 1.391 . S
C264 C263 1.391 . S
C264 C265 1.399 . S
C265 C264 1.399 . S
C265 C266 1.396 . S
C265 C268 1.453 . S
C265 C269 1.684 . S
C266 C247 1.723 . S
C266 C265 1.396 . S
C266 C267 1.394 . S
C267 C263 1.397 . S
C267 C266 1.394 . S
C267 C277 1.723 . S
C268 C265 1.453 . S
C268 H292 0.982 . S
C268 H293 0.979 . S
C268 H294 0.977 . S
C269 C265 1.684 . S
C269 H295 0.979 . S
C269 H296 0.980 . S
C269 H297 0.983 . S
C270 H246 0.948 . S
C270 C271 1.391 . S
C270 C275 1.391 . S
C271 C270 1.391 . S
C271 C272 1.391 . S
C272 H249 0.947 . S
C272 C271 1.391 . S
C272 C273 1.392 . S
C273 H250 0.948 . S
C273 C272 1.392 . S
C273 C274 1.419 . S
C274 C273 1.419 . S
C274 C275 1.391 . S
C274 C278 1.397 . S
C275 C270 1.391 . S
C275 C274 1.391 . S
C275 C276 1.399 . S
C276 C275 1.399 . S
C276 C277 1.396 . S
C276 C279 1.453 . S
C276 C280 1.684 . S
C277 C267 1.723 . S
C277 C276 1.396 . S
C277 C278 1.394 . S
C278 C248 1.723 . S
C278 C274 1.397 . S
C278 C277 1.394 . S
C279 H251 0.982 . S
C279 H255 0.979 . S
C279 H256 0.977 . S
C279 C276 1.453 . S
C280 H252 0.979 . S
C280 H253 0.980 . S
C280 H254 0.983 . S
C280 C276 1.684 . S
H281 C299 0.948 . S
H282 C240 0.948 . S
H283 C258 0.979 . S
H284 C258 0.980 . S
H285 C258 0.983 . S
H286 C257 0.982 . S
H287 C257 0.979 . S
H288 C257 0.977 . S
H289 C259 0.948 . S
H290 C261 0.947 . S
H291 C262 0.948 . S
H292 C268 0.982 . S
H293 C268 0.979 . S
H294 C268 0.977 . S
H295 C269 0.979 . S
H296 C269 0.980 . S
H297 C269 0.983 . S
H298 C242 0.947 . S
C299 C242 1.392 . S
C299 C243 1.419 . S
C299 H281 0.948 . S
C300 C301 1.391 . S
C300 C304 1.391 . S
C300 H342 0.948 . S
C301 C300 1.391 . S
C301 C302 1.391 . S
C302 C301 1.391 . S
C302 H358 0.947 . S
C302 C359 1.392 . S
C303 C304 1.391 . S
C303 C307 1.397 . S
C303 C359 1.419 . S
C304 C300 1.391 . S
C304 C303 1.391 . S
C304 C305 1.399 . S
C305 C304 1.399 . S
C305 C308 1.396 . S
C305 C317 1.453 . S
C305 C318 1.684 . S
H306 C330 0.948 . S
C307 C303 1.397 . S
C307 C308 1.394 . S
C307 C326 1.723 . S
C308 C305 1.396 . S
C308 C307 1.394 . S
C308 C338 1.723 . S
H309 C332 0.947 . S
H310 C333 0.948 . S
H311 C339 0.982 . S
H312 C340 0.979 . S
H313 C340 0.980 . S
H314 C340 0.983 . S
H315 C339 0.979 . S
H316 C339 0.977 . S
C317 C305 1.453 . S
C317 H346 0.982 . S
C317 H347 0.979 . S
C317 H348 0.977 . S
C318 C305 1.684 . S
C318 H343 0.979 . S
C318 H344 0.980 . S
C318 H345 0.983 . S
C319 C320 1.391 . S
C319 C324 1.391 . S
C319 H349 0.948 . S
C320 C319 1.391 . S
C320 C321 1.391 . S
C321 C320 1.391 . S
C321 C322 1.392 . S
C321 H350 0.947 . S
C322 C321 1.392 . S
C322 C323 1.419 . S
C322 H351 0.948 . S
C323 C322 1.419 . S
C323 C324 1.391 . S
C323 C327 1.397 . S
C324 C319 1.391 . S
C324 C323 1.391 . S
C324 C325 1.399 . S
C325 C324 1.399 . S
C325 C326 1.396 . S
C325 C328 1.453 . S
C325 C329 1.684 . S
C326 C307 1.723 . S
C326 C325 1.396 . S
C326 C327 1.394 . S
C327 C323 1.397 . S
C327 C326 1.394 . S
C327 C337 1.723 . S
C328 C325 1.453 . S
C328 H352 0.982 . S
C328 H353 0.979 . S
C328 H354 0.977 . S
C329 C325 1.684 . S
C329 H355 0.979 . S
C329 H356 0.980 . S
C329 H357 0.983 . S
C330 H306 0.948 . S
C330 C331 1.391 . S
C330 C335 1.391 . S
C331 C330 1.391 . S
C331 C332 1.391 . S
C332 H309 0.947 . S
C332 C331 1.391 . S
C332 C333 1.392 . S
C333 H310 0.948 . S
C333 C332 1.392 . S
C333 C334 1.419 . S
C334 C333 1.419 . S
C334 C335 1.391 . S
C334 C338 1.397 . S
C335 C330 1.391 . S
C335 C334 1.391 . S
C335 C336 1.399 . S
C336 C335 1.399 . S
C336 C337 1.396 . S
C336 C339 1.453 . S
C336 C340 1.684 . S
C337 C327 1.723 . S
C337 C336 1.396 . S
C337 C338 1.394 . S
C338 C308 1.723 . S
C338 C334 1.397 . S
C338 C337 1.394 . S
C339 H311 0.982 . S
C339 H315 0.979 . S
C339 H316 0.977 . S
C339 C336 1.453 . S
C340 H312 0.979 . S
C340 H313 0.980 . S
C340 H314 0.983 . S
C340 C336 1.684 . S
H341 C359 0.948 . S
H342 C300 0.948 . S
H343 C318 0.979 . S
H344 C318 0.980 . S
H345 C318 0.983 . S
H346 C317 0.982 . S
H347 C317 0.979 . S
H348 C317 0.977 . S
H349 C319 0.948 . S
H350 C321 0.947 . S
H351 C322 0.948 . S
H352 C328 0.982 . S
H353 C328 0.979 . S
H354 C328 0.977 . S
H355 C329 0.979 . S
H356 C329 0.980 . S
H357 C329 0.983 . S
H358 C302 0.947 . S
C359 C302 1.392 . S
C359 C303 1.419 . S
C359 H341 0.948 . S
C360 C361 1.391 . S
C360 C364 1.391 . S
C360 H402 0.948 . S
C361 C360 1.391 . S
C361 C362 1.391 . S
C362 C361 1.391 . S
C362 H418 0.947 . S
C362 C419 1.392 . S
C363 C364 1.391 . S
C363 C367 1.397 . S
C363 C419 1.419 . S
C364 C360 1.391 . S
C364 C363 1.391 . S
C364 C365 1.399 . S
C365 C364 1.399 . S
C365 C368 1.396 . S
C365 C377 1.453 . S
C365 C378 1.684 . S
H366 C390 0.948 . S
C367 C363 1.397 . S
C367 C368 1.394 . S
C367 C386 1.723 . S
C368 C365 1.396 . S
C368 C367 1.394 . S
C368 C398 1.723 . S
H369 C392 0.947 . S
H370 C393 0.948 . S
H371 C399 0.982 . S
H372 C400 0.979 . S
H373 C400 0.980 . S
H374 C400 0.983 . S
H375 C399 0.979 . S
H376 C399 0.977 . S
C377 C365 1.453 . S
C377 H406 0.982 . S
C377 H407 0.979 . S
C377 H408 0.977 . S
C378 C365 1.684 . S
C378 H403 0.979 . S
C378 H404 0.980 . S
C378 H405 0.983 . S
C379 C380 1.391 . S
C379 C384 1.391 . S
C379 H409 0.948 . S
C380 C379 1.391 . S
C380 C381 1.391 . S
C381 C380 1.391 . S
C381 C382 1.392 . S
C381 H410 0.947 . S
C382 C381 1.392 . S
C382 C383 1.419 . S
C382 H411 0.948 . S
C383 C382 1.419 . S
C383 C384 1.391 . S
C383 C387 1.397 . S
C384 C379 1.391 . S
C384 C383 1.391 . S
C384 C385 1.399 . S
C385 C384 1.399 . S
C385 C386 1.396 . S
C385 C388 1.453 . S
C385 C389 1.684 . S
C386 C367 1.723 . S
C386 C385 1.396 . S
C386 C387 1.394 . S
C387 C383 1.397 . S
C387 C386 1.394 . S
C387 C397 1.723 . S
C388 C385 1.453 . S
C388 H412 0.982 . S
C388 H413 0.979 . S
C388 H414 0.977 . S
C389 C385 1.684 . S
C389 H415 0.979 . S
C389 H416 0.980 . S
C389 H417 0.983 . S
C390 H366 0.948 . S
C390 C391 1.391 . S
C390 C395 1.391 . S
C391 C390 1.391 . S
C391 C392 1.391 . S
C392 H369 0.947 . S
C392 C391 1.391 . S
C392 C393 1.392 . S
C393 H370 0.948 . S
C393 C392 1.392 . S
C393 C394 1.419 . S
C394 C393 1.419 . S
C394 C395 1.391 . S
C394 C398 1.397 . S
C395 C390 1.391 . S
C395 C394 1.391 . S
C395 C396 1.399 . S
C396 C395 1.399 . S
C396 C397 1.396 . S
C396 C399 1.453 . S
C396 C400 1.684 . S
C397 C387 1.723 . S
C397 C396 1.396 . S
C397 C398 1.394 . S
C398 C368 1.723 . S
C398 C394 1.397 . S
C398 C397 1.394 . S
C399 H371 0.982 . S
C399 H375 0.979 . S
C399 H376 0.977 . S
C399 C396 1.453 . S
C400 H372 0.979 . S
C400 H373 0.980 . S
C400 H374 0.983 . S
C400 C396 1.684 . S
H401 C419 0.948 . S
H402 C360 0.948 . S
H403 C378 0.979 . S
H404 C378 0.980 . S
H405 C378 0.983 . S
H406 C377 0.982 . S
H407 C377 0.979 . S
H408 C377 0.977 . S
H409 C379 0.948 . S
H410 C381 0.947 . S
H411 C382 0.948 . S
H412 C388 0.982 . S
H413 C388 0.979 . S
H414 C388 0.977 . S
H415 C389 0.979 . S
H416 C389 0.980 . S
H417 C389 0.983 . S
H418 C362 0.947 . S
C419 C362 1.392 . S
C419 C363 1.419 . S
C419 H401 0.948 . S
C420 C421 1.391 . S
C420 C424 1.391 . S
C420 H462 0.948 . S
C421 C420 1.391 . S
C421 C422 1.391 . S
C422 C421 1.391 . S
C422 H478 0.947 . S
C422 C479 1.392 . S
C423 C424 1.391 . S
C423 C427 1.397 . S
C423 C479 1.419 . S
C424 C420 1.391 . S
C424 C423 1.391 . S
C424 C425 1.399 . S
C425 C424 1.399 . S
C425 C428 1.396 . S
C425 C437 1.453 . S
C425 C438 1.684 . S
H426 C450 0.948 . S
C427 C423 1.397 . S
C427 C428 1.394 . S
C427 C446 1.723 . S
C428 C425 1.396 . S
C428 C427 1.394 . S
C428 C458 1.723 . S
H429 C452 0.947 . S
H430 C453 0.948 . S
H431 C459 0.982 . S
H432 C460 0.979 . S
H433 C460 0.980 . S
H434 C460 0.983 . S
H435 C459 0.979 . S
H436 C459 0.977 . S
C437 C425 1.453 . S
C437 H466 0.982 . S
C437 H467 0.979 . S
C437 H468 0.977 . S
C438 C425 1.684 . S
C438 H463 0.979 . S
C438 H464 0.980 . S
C438 H465 0.983 . S
C439 C440 1.391 . S
C439 C444 1.391 . S
C439 H469 0.948 . S
C440 C439 1.391 . S
C440 C441 1.391 . S
C441 C440 1.391 . S
C441 C442 1.392 . S
C441 H470 0.947 . S
C442 C441 1.392 . S
C442 C443 1.419 . S
C442 H471 0.948 . S
C443 C442 1.419 . S
C443 C444 1.391 . S
C443 C447 1.397 . S
C444 C439 1.391 . S
C444 C443 1.391 . S
C444 C445 1.399 . S
C445 C444 1.399 . S
C445 C446 1.396 . S
C445 C448 1.453 . S
C445 C449 1.684 . S
C446 C427 1.723 . S
C446 C445 1.396 . S
C446 C447 1.394 . S
C447 C443 1.397 . S
C447 C446 1.394 . S
C447 C457 1.723 . S
C448 C445 1.453 . S
C448 H472 0.982 . S
C448 H473 0.979 . S
C448 H474 0.977 . S
C449 C445 1.684 . S
C449 H475 0.979 . S
C449 H476 0.980 . S
C449 H477 0.983 . S
C450 H426 0.948 . S
C450 C451 1.391 . S
C450 C455 1.391 . S
C451 C450 1.391 . S
C451 C452 1.391 . S
C452 H429 0.947 . S
C452 C451 1.391 . S
C452 C453 1.392 . S
C453 H430 0.948 . S
C453 C452 1.392 . S
C453 C454 1.419 . S
C454 C453 1.419 . S
C454 C455 1.391 . S
C454 C458 1.397 . S
C455 C450 1.391 . S
C455 C454 1.391 . S
C455 C456 1.399 . S
C456 C455 1.399 . S
C456 C457 1.396 . S
C456 C459 1.453 . S
C456 C460 1.684 . S
C457 C447 1.723 . S
C457 C456 1.396 . S
C457 C458 1.394 . S
C458 C428 1.723 . S
C458 C454 1.397 . S
C458 C457 1.394 . S
C459 H431 0.982 . S
C459 H435 0.979 . S
C459 H436 0.977 . S
C459 C456 1.453 . S
C460 H432 0.979 . S
C460 H433 0.980 . S
C460 H434 0.983 . S
C460 C456 1.684 . S
H461 C479 0.948 . S
H462 C420 0.948 . S
H463 C438 0.979 . S
H464 C438 0.980 . S
H465 C438 0.983 . S
H466 C437 0.982 . S
H467 C437 0.979 . S
H468 C437 0.977 . S
H469 C439 0.948 . S
H470 C441 0.947 . S
H471 C442 0.948 . S
H472 C448 0.982 . S
H473 C448 0.979 . S
H474 C448 0.977 . S
H475 C449 0.979 . S
H476 C449 0.980 . S
H477 C449 0.983 . S
H478 C422 0.947 . S
C479 C422 1.392 . S
C479 C423 1.419 . S
C479 H461 0.948 . S
La480 C482 2.928 . S
La480 O500 2.521 . S
La480 O501 2.628 . S
La480 O502 2.554 1_545 S
La480 O503 2.757 1_545 S
La480 O504 2.470 . S
La480 O509 2.482 1_455 S
La480 O511 2.503 1_445 S
La481 C491 2.928 . S
La481 O503 2.482 1_655 S
La481 O505 2.503 1_665 S
La481 O506 2.521 . S
La481 O507 2.628 . S
La481 O508 2.554 1_565 S
La481 O509 2.757 1_565 S
La481 O510 2.470 . S
C482 La480 2.928 . S
C482 C483 1.503 . S
C482 O500 1.261 . S
C482 O501 1.243 . S
C483 C482 1.503 . S
C483 C484 1.394 . S
C483 C488 1.373 . S
C484 C483 1.394 . S
C484 C485 1.380 . S
C484 H512 0.930 . S
C485 C484 1.380 . S
C485 C486 1.376 . S
C485 H513 0.930 . S
C486 C485 1.376 . S
C486 C487 1.370 . S
C487 C486 1.370 . S
C487 C488 1.396 . S
C487 H514 0.929 . S
C488 C483 1.373 . S
C488 C487 1.396 . S
C488 H515 0.929 . S
C489 O502 1.240 . S
C489 O503 1.289 . S
C490 O504 1.258 . S
C490 O505 1.256 . S
C491 La481 2.928 . S
C491 C492 1.503 . S
C491 O506 1.261 . S
C491 O507 1.243 . S
C492 C491 1.503 . S
C492 C493 1.394 . S
C492 C497 1.373 . S
C493 C492 1.394 . S
C493 C494 1.380 . S
C493 H516 0.930 . S
C494 C493 1.380 . S
C494 C495 1.376 . S
C494 H517 0.930 . S
C495 C494 1.376 . S
C495 C496 1.370 . S
C496 C495 1.370 . S
C496 C497 1.396 . S
C496 H518 0.929 . S
C497 C492 1.373 . S
C497 C496 1.396 . S
C497 H519 0.929 . S
C498 O508 1.240 . S
C498 O509 1.289 . S
C499 O510 1.258 . S
C499 O511 1.256 . S
O500 La480 2.521 . S
O500 C482 1.261 . S
O501 La480 2.628 . S
O501 C482 1.243 . S
O502 La480 2.554 1_565 S
O502 C489 1.240 . S
O503 La480 2.757 1_565 S
O503 La481 2.482 1_455 S
O503 C489 1.289 . S
O504 La480 2.470 . S
O504 C490 1.258 . S
O505 La481 2.503 1_445 S
O505 C490 1.256 . S
O506 La481 2.521 . S
O506 C491 1.261 . S
O507 La481 2.628 . S
O507 C491 1.243 . S
O508 La481 2.554 1_545 S
O508 C498 1.240 . S
O509 La480 2.482 1_655 S
O509 La481 2.757 1_545 S
O509 C498 1.289 . S
O510 La481 2.470 . S
O510 C499 1.258 . S
O511 La480 2.503 1_665 S
O511 C499 1.256 . S
H512 C484 0.930 . S
H513 C485 0.930 . S
H514 C487 0.929 . S
H515 C488 0.929 . S
H516 C493 0.930 . S
H517 C494 0.930 . S
H518 C496 0.929 . S
H519 C497 0.929 . S
La520 C522 2.928 1_565 S
La520 O540 2.521 1_565 S
La520 O541 2.628 1_565 S
La520 O542 2.554 . S
La520 O543 2.757 . S
La520 O544 2.470 1_565 S
La520 O549 2.482 1_564 S
La520 O551 2.503 1_554 S
La521 C531 2.928 1_545 S
La521 O543 2.482 1_546 S
La521 O545 2.503 1_556 S
La521 O546 2.521 1_545 S
La521 O547 2.628 1_545 S
La521 O548 2.554 . S
La521 O549 2.757 . S
La521 O550 2.470 1_545 S
C522 La520 2.928 1_545 S
C522 C523 1.503 . S
C522 O540 1.261 . S
C522 O541 1.243 . S
C523 C522 1.503 . S
C523 C524 1.394 . S
C523 C528 1.373 . S
C524 C523 1.394 . S
C524 C525 1.380 . S
C524 H552 0.930 . S
C525 C524 1.380 . S
C525 C526 1.376 . S
C525 H553 0.930 . S
C526 C525 1.376 . S
C526 C527 1.370 . S
C527 C526 1.370 . S
C527 C528 1.396 . S
C527 H554 0.929 . S
C528 C523 1.373 . S
C528 C527 1.396 . S
C528 H555 0.929 . S
C529 O542 1.240 . S
C529 O543 1.289 . S
C530 O544 1.258 . S
C530 O545 1.256 . S
C531 La521 2.928 1_565 S
C531 C532 1.503 . S
C531 O546 1.261 . S
C531 O547 1.243 . S
C532 C531 1.503 . S
C532 C533 1.394 . S
C532 C537 1.373 . S
C533 C532 1.394 . S
C533 C534 1.380 . S
C533 H556 0.930 . S
C534 C533 1.380 . S
C534 C535 1.376 . S
C534 H557 0.930 . S
C535 C534 1.376 . S
C535 C536 1.370 . S
C536 C535 1.370 . S
C536 C537 1.396 . S
C536 H558 0.929 . S
C537 C532 1.373 . S
C537 C536 1.396 . S
C537 H559 0.929 . S
C538 O548 1.240 . S
C538 O549 1.289 . S
C539 O550 1.258 . S
C539 O551 1.256 . S
O540 La520 2.521 1_545 S
O540 C522 1.261 . S
O541 La520 2.628 1_545 S
O541 C522 1.243 . S
O542 La520 2.554 . S
O542 C529 1.240 . S
O543 La520 2.757 . S
O543 La521 2.482 1_564 S
O543 C529 1.289 . S
O544 La520 2.470 1_545 S
O544 C530 1.258 . S
O545 La521 2.503 1_554 S
O545 C530 1.256 . S
O546 La521 2.521 1_565 S
O546 C531 1.261 . S
O547 La521 2.628 1_565 S
O547 C531 1.243 . S
O548 La521 2.554 . S
O548 C538 1.240 . S
O549 La520 2.482 1_546 S
O549 La521 2.757 . S
O549 C538 1.289 . S
O550 La521 2.470 1_565 S
O550 C539 1.258 . S
O551 La520 2.503 1_556 S
O551 C539 1.256 . S
H552 C524 0.930 . S
H553 C525 0.930 . S
H554 C527 0.929 . S
H555 C528 0.929 . S
H556 C533 0.930 . S
H557 C534 0.930 . S
H558 C536 0.929 . S
H559 C537 0.929 . S
La560 C562 2.928 . S
La560 O580 2.521 . S
La560 O581 2.628 . S
La560 O582 2.554 . S
La560 O583 2.757 . S
La560 O584 2.470 . S
La560 O589 2.482 . S
La560 O591 2.503 . S
La561 C571 2.928 . S
La561 O583 2.482 . S
La561 O585 2.503 . S
La561 O586 2.521 . S
La561 O587 2.628 . S
La561 O588 2.554 . S
La561 O589 2.757 . S
La561 O590 2.470 . S
C562 La560 2.928 . S
C562 C563 1.503 . S
C562 O580 1.261 . S
C562 O581 1.243 . S
C563 C562 1.503 . S
C563 C564 1.394 . S
C563 C568 1.373 . S
C564 C563 1.394 . S
C564 C565 1.380 . S
C564 H592 0.930 . S
C565 C564 1.380 . S
C565 C566 1.376 . S
C565 H593 0.930 . S
C566 C565 1.376 . S
C566 C567 1.370 . S
C567 C566 1.370 . S
C567 C568 1.396 . S
C567 H594 0.929 . S
C568 C563 1.373 . S
C568 C567 1.396 . S
C568 H595 0.929 . S
C569 O582 1.240 . S
C569 O583 1.289 . S
C570 O584 1.258 . S
C570 O585 1.256 . S
C571 La561 2.928 . S
C571 C572 1.503 . S
C571 O586 1.261 . S
C571 O587 1.243 . S
C572 C571 1.503 . S
C572 C573 1.394 . S
C572 C577 1.373 . S
C573 C572 1.394 . S
C573 C574 1.380 . S
C573 H596 0.930 . S
C574 C573 1.380 . S
C574 C575 1.376 . S
C574 H597 0.930 . S
C575 C574 1.376 . S
C575 C576 1.370 . S
C576 C575 1.370 . S
C576 C577 1.396 . S
C576 H598 0.929 . S
C577 C572 1.373 . S
C577 C576 1.396 . S
C577 H599 0.929 . S
C578 O588 1.240 . S
C578 O589 1.289 . S
C579 O590 1.258 . S
C579 O591 1.256 . S
O580 La560 2.521 . S
O580 C562 1.261 . S
O581 La560 2.628 . S
O581 C562 1.243 . S
O582 La560 2.554 . S
O582 C569 1.240 . S
O583 La560 2.757 . S
O583 La561 2.482 . S
O583 C569 1.289 . S
O584 La560 2.470 . S
O584 C570 1.258 . S
O585 La561 2.503 . S
O585 C570 1.256 . S
O586 La561 2.521 . S
O586 C571 1.261 . S
O587 La561 2.628 . S
O587 C571 1.243 . S
O588 La561 2.554 . S
O588 C578 1.240 . S
O589 La560 2.482 . S
O589 La561 2.757 . S
O589 C578 1.289 . S
O590 La561 2.470 . S
O590 C579 1.258 . S
O591 La560 2.503 . S
O591 C579 1.256 . S
H592 C564 0.930 . S
H593 C565 0.930 . S
H594 C567 0.929 . S
H595 C568 0.929 . S
H596 C573 0.930 . S
H597 C574 0.930 . S
H598 C576 0.929 . S
H599 C577 0.929 . S
La600 C602 2.928 . S
La600 O620 2.521 . S
La600 O621 2.628 . S
La600 O622 2.554 1_455 S
La600 O623 2.757 1_455 S
La600 O624 2.470 . S
La600 O629 2.482 1_554 S
La600 O631 2.503 1_454 S
La601 C611 2.928 . S
La601 O623 2.482 1_556 S
La601 O625 2.503 1_656 S
La601 O626 2.521 . S
La601 O627 2.628 . S
La601 O628 2.554 1_655 S
La601 O629 2.757 1_655 S
La601 O630 2.470 . S
C602 La600 2.928 . S
C602 C603 1.503 . S
C602 O620 1.261 . S
C602 O621 1.243 . S
C603 C602 1.503 . S
C603 C604 1.394 . S
C603 C608 1.373 . S
C604 C603 1.394 . S
C604 C605 1.380 . S
C604 H632 0.930 . S
C605 C604 1.380 . S
C605 C606 1.376 . S
C605 H633 0.930 . S
C606 C605 1.376 . S
C606 C607 1.370 . S
C607 C606 1.370 . S
C607 C608 1.396 . S
C607 H634 0.929 . S
C608 C603 1.373 . S
C608 C607 1.396 . S
C608 H635 0.929 . S
C609 O622 1.240 . S
C609 O623 1.289 . S
C610 O624 1.258 . S
C610 O625 1.256 . S
C611 La601 2.928 . S
C611 C612 1.503 . S
C611 O626 1.261 . S
C611 O627 1.243 . S
C612 C611 1.503 . S
C612 C613 1.394 . S
C612 C617 1.373 . S
C613 C612 1.394 . S
C613 C614 1.380 . S
C613 H636 0.930 . S
C614 C613 1.380 . S
C614 C615 1.376 . S
C614 H637 0.930 . S
C615 C614 1.376 . S
C615 C616 1.370 . S
C616 C615 1.370 . S
C616 C617 1.396 . S
C616 H638 0.929 . S
C617 C612 1.373 . S
C617 C616 1.396 . S
C617 H639 0.929 . S
C618 O628 1.240 . S
C618 O629 1.289 . S
C619 O630 1.258 . S
C619 O631 1.256 . S
O620 La600 2.521 . S
O620 C602 1.261 . S
O621 La600 2.628 . S
O621 C602 1.243 . S
O622 La600 2.554 1_655 S
O622 C609 1.240 . S
O623 La600 2.757 1_655 S
O623 La601 2.482 1_554 S
O623 C609 1.289 . S
O624 La600 2.470 . S
O624 C610 1.258 . S
O625 La601 2.503 1_454 S
O625 C610 1.256 . S
O626 La601 2.521 . S
O626 C611 1.261 . S
O627 La601 2.628 . S
O627 C611 1.243 . S
O628 La601 2.554 1_455 S
O628 C618 1.240 . S
O629 La600 2.482 1_556 S
O629 La601 2.757 1_455 S
O629 C618 1.289 . S
O630 La601 2.470 . S
O630 C619 1.258 . S
O631 La600 2.503 1_656 S
O631 C619 1.256 . S
H632 C604 0.930 . S
H633 C605 0.930 . S
H634 C607 0.929 . S
H635 C608 0.929 . S
H636 C613 0.930 . S
H637 C614 0.930 . S
H638 C616 0.929 . S
H639 C617 0.929 . S
H640 C646 0.930 . S
H641 C649 0.930 . S
H642 C650 0.930 . S
H643 C651 0.930 . S
H644 C654 0.930 . S
H645 C655 0.930 . S
C646 H640 0.930 . S
C646 C647 1.355 . S
C646 C648 1.415 . S
C647 C646 1.355 . S
C647 C649 1.419 . S
C648 C646 1.415 . S
C648 C653 1.425 . S
C648 C655 1.409 . S
C649 H641 0.930 . S
C649 C647 1.419 . S
C649 C650 1.362 . S
C650 H642 0.930 . S
C650 C649 1.362 . S
C650 C653 1.409 . S
C651 H643 0.930 . S
C651 C652 1.355 . S
C651 C653 1.415 . S
C652 C651 1.355 . S
C652 C654 1.419 . S
C653 C648 1.425 . S
C653 C650 1.409 . S
C653 C651 1.415 . S
C654 H644 0.930 . S
C654 C652 1.419 . S
C654 C655 1.362 . S
C655 H645 0.930 . S
C655 C648 1.409 . S
C655 C654 1.362 . S
H656 C662 0.930 . S
H657 C665 0.930 . S
H658 C666 0.930 . S
H659 C667 0.930 . S
H660 C670 0.930 . S
H661 C671 0.930 . S
C662 H656 0.930 . S
C662 C663 1.355 . S
C662 C664 1.415 . S
C663 C662 1.355 . S
C663 C665 1.419 . S
C664 C662 1.415 . S
C664 C669 1.425 . S
C664 C671 1.409 . S
C665 H657 0.930 . S
C665 C663 1.419 . S
C665 C666 1.362 . S
C666 H658 0.930 . S
C666 C665 1.362 . S
C666 C669 1.409 . S
C667 H659 0.930 . S
C667 C668 1.355 . S
C667 C669 1.415 . S
C668 C667 1.355 . S
C668 C670 1.419 . S
C669 C664 1.425 . S
C669 C666 1.409 . S
C669 C667 1.415 . S
C670 H660 0.930 . S
C670 C668 1.419 . S
C670 C671 1.362 . S
C671 H661 0.930 . S
C671 C664 1.409 . S
C671 C670 1.362 . S
H672 C678 0.930 . S
H673 C681 0.930 . S
H674 C682 0.930 . S
H675 C683 0.930 . S
H676 C686 0.930 . S
H677 C687 0.930 . S
C678 H672 0.930 . S
C678 C679 1.355 . S
C678 C680 1.415 . S
C679 C678 1.355 . S
C679 C681 1.419 . S
C680 C678 1.415 . S
C680 C685 1.425 . S
C680 C687 1.409 . S
C681 H673 0.930 . S
C681 C679 1.419 . S
C681 C682 1.362 . S
C682 H674 0.930 . S
C682 C681 1.362 . S
C682 C685 1.409 . S
C683 H675 0.930 . S
C683 C684 1.355 . S
C683 C685 1.415 . S
C684 C683 1.355 . S
C684 C686 1.419 . S
C685 C680 1.425 . S
C685 C682 1.409 . S
C685 C683 1.415 . S
C686 H676 0.930 . S
C686 C684 1.419 . S
C686 C687 1.362 . S
C687 H677 0.930 . S
C687 C680 1.409 . S
C687 C686 1.362 . S
H688 C694 0.930 . S
H689 C697 0.930 . S
H690 C698 0.930 . S
H691 C699 0.930 . S
H692 C702 0.930 . S
H693 C703 0.930 . S
C694 H688 0.930 . S
C694 C695 1.355 . S
C694 C696 1.415 . S
C695 C694 1.355 . S
C695 C697 1.419 . S
C696 C694 1.415 . S
C696 C701 1.425 . S
C696 C703 1.409 . S
C697 H689 0.930 . S
C697 C695 1.419 . S
C697 C698 1.362 . S
C698 H690 0.930 . S
C698 C697 1.362 . S
C698 C701 1.409 . S
C699 H691 0.930 . S
C699 C700 1.355 . S
C699 C701 1.415 . S
C700 C699 1.355 . S
C700 C702 1.419 . S
C701 C696 1.425 . S
C701 C698 1.409 . S
C701 C699 1.415 . S
C702 H692 0.930 . S
C702 C700 1.419 . S
C702 C703 1.362 . S
C703 H693 0.930 . S
C703 C696 1.409 . S
C703 C702 1.362 . S
H704 C710 0.930 . S
H705 C713 0.930 . S
H706 C714 0.930 . S
H707 C715 0.930 . S
H708 C718 0.930 . S
H709 C719 0.930 . S
C710 H704 0.930 . S
C710 C711 1.355 . S
C710 C712 1.415 . S
C711 C710 1.355 . S
C711 C713 1.419 . S
C712 C710 1.415 . S
C712 C717 1.425 . S
C712 C719 1.409 . S
C713 H705 0.930 . S
C713 C711 1.419 . S
C713 C714 1.362 . S
C714 H706 0.930 . S
C714 C713 1.362 . S
C714 C717 1.409 . S
C715 H707 0.930 . S
C715 C716 1.355 . S
C715 C717 1.415 . S
C716 C715 1.355 . S
C716 C718 1.419 . S
C717 C712 1.425 . S
C717 C714 1.409 . S
C717 C715 1.415 . S
C718 H708 0.930 . S
C718 C716 1.419 . S
C718 C719 1.362 . S
C719 H709 0.930 . S
C719 C712 1.409 . S
C719 C718 1.362 . S
H720 C726 0.930 . S
H721 C729 0.930 . S
H722 C730 0.930 . S
H723 C731 0.930 . S
H724 C734 0.930 . S
H725 C735 0.930 . S
C726 H720 0.930 . S
C726 C727 1.355 . S
C726 C728 1.415 . S
C727 C726 1.355 . S
C727 C729 1.419 . S
C728 C726 1.415 . S
C728 C733 1.425 . S
C728 C735 1.409 . S
C729 H721 0.930 . S
C729 C727 1.419 . S
C729 C730 1.362 . S
C730 H722 0.930 . S
C730 C729 1.362 . S
C730 C733 1.409 . S
C731 H723 0.930 . S
C731 C732 1.355 . S
C731 C733 1.415 . S
C732 C731 1.355 . S
C732 C734 1.419 . S
C733 C728 1.425 . S
C733 C730 1.409 . S
C733 C731 1.415 . S
C734 H724 0.930 . S
C734 C732 1.419 . S
C734 C735 1.362 . S
C735 H725 0.930 . S
C735 C728 1.409 . S
C735 C734 1.362 . S
H736 C742 0.930 . S
H737 C745 0.930 . S
H738 C746 0.930 . S
H739 C747 0.930 . S
H740 C750 0.930 . S
H741 C751 0.930 . S
C742 H736 0.930 . S
C742 C743 1.355 . S
C742 C744 1.415 . S
C743 C742 1.355 . S
C743 C745 1.419 . S
C744 C742 1.415 . S
C744 C749 1.425 . S
C744 C751 1.409 . S
C745 H737 0.930 . S
C745 C743 1.419 . S
C745 C746 1.362 . S
C746 H738 0.930 . S
C746 C745 1.362 . S
C746 C749 1.409 . S
C747 H739 0.930 . S
C747 C748 1.355 . S
C747 C749 1.415 . S
C748 C747 1.355 . S
C748 C750 1.419 . S
C749 C744 1.425 . S
C749 C746 1.409 . S
C749 C747 1.415 . S
C750 H740 0.930 . S
C750 C748 1.419 . S
C750 C751 1.362 . S
C751 H741 0.930 . S
C751 C744 1.409 . S
C751 C750 1.362 . S
H752 C758 0.930 . S
H753 C761 0.930 . S
H754 C762 0.930 . S
H755 C763 0.930 . S
H756 C766 0.930 . S
H757 C767 0.930 . S
C758 H752 0.930 . S
C758 C759 1.355 . S
C758 C760 1.415 . S
C759 C758 1.355 . S
C759 C761 1.419 . S
C760 C758 1.415 . S
C760 C765 1.425 . S
C760 C767 1.409 . S
C761 H753 0.930 . S
C761 C759 1.419 . S
C761 C762 1.362 . S
C762 H754 0.930 . S
C762 C761 1.362 . S
C762 C765 1.409 . S
C763 H755 0.930 . S
C763 C764 1.355 . S
C763 C765 1.415 . S
C764 C763 1.355 . S
C764 C766 1.419 . S
C765 C760 1.425 . S
C765 C762 1.409 . S
C765 C763 1.415 . S
C766 H756 0.930 . S
C766 C764 1.419 . S
C766 C767 1.362 . S
C767 H757 0.930 . S
C767 C760 1.409 . S
C767 C766 1.362 . S
H768 C774 0.930 . S
H769 C777 0.930 . S
H770 C778 0.930 . S
H771 C779 0.930 . S
H772 C782 0.930 . S
H773 C783 0.930 . S
C774 H768 0.930 . S
C774 C775 1.355 . S
C774 C776 1.415 . S
C775 C774 1.355 . S
C775 C777 1.419 . S
C776 C774 1.415 . S
C776 C781 1.425 . S
C776 C783 1.409 . S
C777 H769 0.930 . S
C777 C775 1.419 . S
C777 C778 1.362 . S
C778 H770 0.930 . S
C778 C777 1.362 . S
C778 C781 1.409 . S
C779 H771 0.930 . S
C779 C780 1.355 . S
C779 C781 1.415 . S
C780 C779 1.355 . S
C780 C782 1.419 . S
C781 C776 1.425 . S
C781 C778 1.409 . S
C781 C779 1.415 . S
C782 H772 0.930 . S
C782 C780 1.419 . S
C782 C783 1.362 . S
C783 H773 0.930 . S
C783 C776 1.409 . S
C783 C782 1.362 . S
H784 C790 0.930 . S
H785 C793 0.930 . S
H786 C794 0.930 . S
H787 C795 0.930 . S
H788 C798 0.930 . S
H789 C799 0.930 . S
C790 H784 0.930 . S
C790 C791 1.355 . S
C790 C792 1.415 . S
C791 C790 1.355 . S
C791 C793 1.419 . S
C792 C790 1.415 . S
C792 C797 1.425 . S
C792 C799 1.409 . S
C793 H785 0.930 . S
C793 C791 1.419 . S
C793 C794 1.362 . S
C794 H786 0.930 . S
C794 C793 1.362 . S
C794 C797 1.409 . S
C795 H787 0.930 . S
C795 C796 1.355 . S
C795 C797 1.415 . S
C796 C795 1.355 . S
C796 C798 1.419 . S
C797 C792 1.425 . S
C797 C794 1.409 . S
C797 C795 1.415 . S
C798 H788 0.930 . S
C798 C796 1.419 . S
C798 C799 1.362 . S
C799 H789 0.930 . S
C799 C792 1.409 . S
C799 C798 1.362 . S
H800 C806 0.930 . S
H801 C809 0.930 . S
H802 C810 0.930 . S
H803 C811 0.930 . S
H804 C814 0.930 . S
H805 C815 0.930 . S
C806 H800 0.930 . S
C806 C807 1.355 . S
C806 C808 1.415 . S
C807 C806 1.355 . S
C807 C809 1.419 . S
C808 C806 1.415 . S
C808 C813 1.425 . S
C808 C815 1.409 . S
C809 H801 0.930 . S
C809 C807 1.419 . S
C809 C810 1.362 . S
C810 H802 0.930 . S
C810 C809 1.362 . S
C810 C813 1.409 . S
C811 H803 0.930 . S
C811 C812 1.355 . S
C811 C813 1.415 . S
C812 C811 1.355 . S
C812 C814 1.419 . S
C813 C808 1.425 . S
C813 C810 1.409 . S
C813 C811 1.415 . S
C814 H804 0.930 . S
C814 C812 1.419 . S
C814 C815 1.362 . S
C815 H805 0.930 . S
C815 C808 1.409 . S
C815 C814 1.362 . S
H816 C822 0.930 . S
H817 C825 0.930 . S
H818 C826 0.930 . S
H819 C827 0.930 . S
H820 C830 0.930 . S
H821 C831 0.930 . S
C822 H816 0.930 . S
C822 C823 1.355 . S
C822 C824 1.415 . S
C823 C822 1.355 . S
C823 C825 1.419 . S
C824 C822 1.415 . S
C824 C829 1.425 . S
C824 C831 1.409 . S
C825 H817 0.930 . S
C825 C823 1.419 . S
C825 C826 1.362 . S
C826 H818 0.930 . S
C826 C825 1.362 . S
C826 C829 1.409 . S
C827 H819 0.930 . S
C827 C828 1.355 . S
C827 C829 1.415 . S
C828 C827 1.355 . S
C828 C830 1.419 . S
C829 C824 1.425 . S
C829 C826 1.409 . S
C829 C827 1.415 . S
C830 H820 0.930 . S
C830 C828 1.419 . S
C830 C831 1.362 . S
C831 H821 0.930 . S
C831 C824 1.409 . S
C831 C830 1.362 . S
H832 C838 0.930 . S
H833 C841 0.930 . S
H834 C842 0.930 . S
H835 C843 0.930 . S
H836 C846 0.930 . S
H837 C847 0.930 . S
C838 H832 0.930 . S
C838 C839 1.355 . S
C838 C840 1.415 . S
C839 C838 1.355 . S
C839 C841 1.419 . S
C840 C838 1.415 . S
C840 C845 1.425 . S
C840 C847 1.409 . S
C841 H833 0.930 . S
C841 C839 1.419 . S
C841 C842 1.362 . S
C842 H834 0.930 . S
C842 C841 1.362 . S
C842 C845 1.409 . S
C843 H835 0.930 . S
C843 C844 1.355 . S
C843 C845 1.415 . S
C844 C843 1.355 . S
C844 C846 1.419 . S
C845 C840 1.425 . S
C845 C842 1.409 . S
C845 C843 1.415 . S
C846 H836 0.930 . S
C846 C844 1.419 . S
C846 C847 1.362 . S
C847 H837 0.930 . S
C847 C840 1.409 . S
C847 C846 1.362 . S
H848 C854 0.930 . S
H849 C857 0.930 . S
H850 C858 0.930 . S
H851 C859 0.930 . S
H852 C862 0.930 . S
H853 C863 0.930 . S
C854 H848 0.930 . S
C854 C855 1.355 . S
C854 C856 1.415 . S
C855 C854 1.355 . S
C855 C857 1.419 . S
C856 C854 1.415 . S
C856 C861 1.425 . S
C856 C863 1.409 . S
C857 H849 0.930 . S
C857 C855 1.419 . S
C857 C858 1.362 . S
C858 H850 0.930 . S
C858 C857 1.362 . S
C858 C861 1.409 . S
C859 H851 0.930 . S
C859 C860 1.355 . S
C859 C861 1.415 . S
C860 C859 1.355 . S
C860 C862 1.419 . S
C861 C856 1.425 . S
C861 C858 1.409 . S
C861 C859 1.415 . S
C862 H852 0.930 . S
C862 C860 1.419 . S
C862 C863 1.362 . S
C863 H853 0.930 . S
C863 C856 1.409 . S
C863 C862 1.362 . S
H864 C870 0.930 . S
H865 C873 0.930 . S
H866 C874 0.930 . S
H867 C875 0.930 . S
H868 C878 0.930 . S
H869 C879 0.930 . S
C870 H864 0.930 . S
C870 C871 1.355 . S
C870 C872 1.415 . S
C871 C870 1.355 . S
C871 C873 1.419 . S
C872 C870 1.415 . S
C872 C877 1.425 . S
C872 C879 1.409 . S
C873 H865 0.930 . S
C873 C871 1.419 . S
C873 C874 1.362 . S
C874 H866 0.930 . S
C874 C873 1.362 . S
C874 C877 1.409 . S
C875 H867 0.930 . S
C875 C876 1.355 . S
C875 C877 1.415 . S
C876 C875 1.355 . S
C876 C878 1.419 . S
C877 C872 1.425 . S
C877 C874 1.409 . S
C877 C875 1.415 . S
C878 H868 0.930 . S
C878 C876 1.419 . S
C878 C879 1.362 . S
C879 H869 0.930 . S
C879 C872 1.409 . S
C879 C878 1.362 . S
H880 C886 0.930 . S
H881 C889 0.930 . S
H882 C890 0.930 . S
H883 C891 0.930 . S
H884 C894 0.930 . S
H885 C895 0.930 . S
C886 H880 0.930 . S
C886 C887 1.355 . S
C886 C888 1.415 . S
C887 C886 1.355 . S
C887 C889 1.419 . S
C888 C886 1.415 . S
C888 C893 1.425 . S
C888 C895 1.409 . S
C889 H881 0.930 . S
C889 C887 1.419 . S
C889 C890 1.362 . S
C890 H882 0.930 . S
C890 C889 1.362 . S
C890 C893 1.409 . S
C891 H883 0.930 . S
C891 C892 1.355 . S
C891 C893 1.415 . S
C892 C891 1.355 . S
C892 C894 1.419 . S
C893 C888 1.425 . S
C893 C890 1.409 . S
C893 C891 1.415 . S
C894 H884 0.930 . S
C894 C892 1.419 . S
C894 C895 1.362 . S
C895 H885 0.930 . S
C895 C888 1.409 . S
C895 C894 1.362 . S
H896 C902 0.930 . S
H897 C905 0.930 . S
H898 C906 0.930 . S
H899 C907 0.930 . S
H900 C910 0.930 . S
H901 C911 0.930 . S
C902 H896 0.930 . S
C902 C903 1.355 . S
C902 C904 1.415 . S
C903 C902 1.355 . S
C903 C905 1.419 . S
C904 C902 1.415 . S
C904 C909 1.425 . S
C904 C911 1.409 . S
C905 H897 0.930 . S
C905 C903 1.419 . S
C905 C906 1.362 . S
C906 H898 0.930 . S
C906 C905 1.362 . S
C906 C909 1.409 . S
C907 H899 0.930 . S
C907 C908 1.355 . S
C907 C909 1.415 . S
C908 C907 1.355 . S
C908 C910 1.419 . S
C909 C904 1.425 . S
C909 C906 1.409 . S
C909 C907 1.415 . S
C910 H900 0.930 . S
C910 C908 1.419 . S
C910 C911 1.362 . S
C911 H901 0.930 . S
C911 C904 1.409 . S
C911 C910 1.362 . S
H912 C918 0.930 . S
H913 C921 0.930 . S
H914 C922 0.930 . S
H915 C923 0.930 . S
H916 C926 0.930 1_565 S
H917 C927 0.930 . S
C918 H912 0.930 . S
C918 C919 1.355 . S
C918 C920 1.415 . S
C919 C918 1.355 . S
C919 C921 1.419 . S
C920 C918 1.415 . S
C920 C925 1.425 . S
C920 C927 1.409 . S
C921 H913 0.930 . S
C921 C919 1.419 . S
C921 C922 1.362 . S
C922 H914 0.930 . S
C922 C921 1.362 . S
C922 C925 1.409 . S
C923 H915 0.930 . S
C923 C924 1.355 . S
C923 C925 1.415 . S
C924 C923 1.355 . S
C924 C926 1.419 . S
C925 C920 1.425 . S
C925 C922 1.409 . S
C925 C923 1.415 . S
C926 H916 0.930 1_545 S
C926 C924 1.419 . S
C926 C927 1.362 . S
C927 H917 0.930 . S
C927 C920 1.409 . S
C927 C926 1.362 . S
H928 C934 0.930 . S
H929 C937 0.930 . S
H930 C938 0.930 . S
H931 C939 0.930 . S
H932 C942 0.930 . S
H933 C943 0.930 . S
C934 H928 0.930 . S
C934 C935 1.355 . S
C934 C936 1.415 . S
C935 C934 1.355 . S
C935 C937 1.419 . S
C936 C934 1.415 . S
C936 C941 1.425 . S
C936 C943 1.409 . S
C937 H929 0.930 . S
C937 C935 1.419 . S
C937 C938 1.362 . S
C938 H930 0.930 . S
C938 C937 1.362 . S
C938 C941 1.409 . S
C939 H931 0.930 . S
C939 C940 1.355 . S
C939 C941 1.415 . S
C940 C939 1.355 . S
C940 C942 1.419 . S
C941 C936 1.425 . S
C941 C938 1.409 . S
C941 C939 1.415 . S
C942 H932 0.930 . S
C942 C940 1.419 . S
C942 C943 1.362 . S
C943 H933 0.930 . S
C943 C936 1.409 . S
C943 C942 1.362 . S
H944 C950 0.930 . S
H945 C953 0.930 . S
H946 C954 0.930 . S
H947 C955 0.930 . S
H948 C958 0.930 . S
H949 C959 0.930 . S
C950 H944 0.930 . S
C950 C951 1.355 . S
C950 C952 1.415 . S
C951 C950 1.355 . S
C951 C953 1.419 . S
C952 C950 1.415 . S
C952 C957 1.425 . S
C952 C959 1.409 . S
C953 H945 0.930 . S
C953 C951 1.419 . S
C953 C954 1.362 . S
C954 H946 0.930 . S
C954 C953 1.362 . S
C954 C957 1.409 . S
C955 H947 0.930 . S
C955 C956 1.355 . S
C955 C957 1.415 . S
C956 C955 1.355 . S
C956 C958 1.419 . S
C957 C952 1.425 . S
C957 C954 1.409 . S
C957 C955 1.415 . S
C958 H948 0.930 . S
C958 C956 1.419 . S
C958 C959 1.362 . S
C959 H949 0.930 . S
C959 C952 1.409 . S
C959 C958 1.362 . S
H960 C966 0.930 . S
H961 C969 0.930 . S
H962 C970 0.930 . S
H963 C971 0.930 . S
H964 C974 0.930 . S
H965 C975 0.930 . S
C966 H960 0.930 . S
C966 C967 1.355 . S
C966 C968 1.415 . S
C967 C966 1.355 . S
C967 C969 1.419 . S
C968 C966 1.415 . S
C968 C973 1.425 . S
C968 C975 1.409 . S
C969 H961 0.930 . S
C969 C967 1.419 . S
C969 C970 1.362 . S
C970 H962 0.930 . S
C970 C969 1.362 . S
C970 C973 1.409 . S
C971 H963 0.930 . S
C971 C972 1.355 . S
C971 C973 1.415 . S
C972 C971 1.355 . S
C972 C974 1.419 . S
C973 C968 1.425 . S
C973 C970 1.409 . S
C973 C971 1.415 . S
C974 H964 0.930 . S
C974 C972 1.419 . S
C974 C975 1.362 . S
C975 H965 0.930 . S
C975 C968 1.409 . S
C975 C974 1.362 . S
H976 C982 0.930 . S
H977 C985 0.930 . S
H978 C986 0.930 . S
H979 C987 0.930 . S
H980 C990 0.930 . S
H981 C991 0.930 . S
C982 H976 0.930 . S
C982 C983 1.355 . S
C982 C984 1.415 . S
C983 C982 1.355 . S
C983 C985 1.419 . S
C984 C982 1.415 . S
C984 C989 1.425 . S
C984 C991 1.409 . S
C985 H977 0.930 . S
C985 C983 1.419 . S
C985 C986 1.362 . S
C986 H978 0.930 . S
C986 C985 1.362 . S
C986 C989 1.409 . S
C987 H979 0.930 . S
C987 C988 1.355 . S
C987 C989 1.415 . S
C988 C987 1.355 . S
C988 C990 1.419 . S
C989 C984 1.425 . S
C989 C986 1.409 . S
C989 C987 1.415 . S
C990 H980 0.930 . S
C990 C988 1.419 . S
C990 C991 1.362 . S
C991 H981 0.930 . S
C991 C984 1.409 . S
C991 C990 1.362 . S
H992 C998 0.930 . S
H993 C1001 0.930 . S
H994 C1002 0.930 . S
H995 C1003 0.930 . S
H996 C1006 0.934 . S
H997 C1007 0.930 . S
C998 H992 0.930 . S
C998 C999 1.355 . S
C998 C1000 1.415 . S
C999 C998 1.355 . S
C999 C1001 1.419 . S
C1000 C998 1.415 . S
C1000 C1005 1.425 . S
C1000 C1007 1.409 . S
C1001 H993 0.930 . S
C1001 C999 1.419 . S
C1001 C1002 1.362 . S
C1002 H994 0.930 . S
C1002 C1001 1.362 . S
C1002 C1005 1.409 . S
C1003 H995 0.930 . S
C1003 C1004 1.355 . S
C1003 C1005 1.415 . S
C1004 C1003 1.355 . S
C1004 C1006 1.419 . S
C1005 C1000 1.425 . S
C1005 C1002 1.409 . S
C1005 C1003 1.415 . S
C1006 H996 0.934 . S
C1006 C1004 1.419 . S
C1006 C1007 1.362 . S
C1007 H997 0.930 . S
C1007 C1000 1.409 . S
C1007 C1006 1.362 . S
H1008 C1014 0.930 . S
H1009 C1017 0.930 . S
H1010 C1018 0.930 . S
H1011 C1019 0.930 . S
H1012 C1022 0.930 . S
H1013 C1023 0.930 . S
C1014 H1008 0.930 . S
C1014 C1015 1.355 . S
C1014 C1016 1.415 . S
C1015 C1014 1.355 . S
C1015 C1017 1.419 . S
C1016 C1014 1.415 . S
C1016 C1021 1.425 . S
C1016 C1023 1.409 . S
C1017 H1009 0.930 . S
C1017 C1015 1.419 . S
C1017 C1018 1.362 . S
C1018 H1010 0.930 . S
C1018 C1017 1.362 . S
C1018 C1021 1.409 . S
C1019 H1011 0.930 . S
C1019 C1020 1.355 . S
C1019 C1021 1.415 . S
C1020 C1019 1.355 . S
C1020 C1022 1.419 . S
C1021 C1016 1.425 . S
C1021 C1018 1.409 . S
C1021 C1019 1.415 . S
C1022 H1012 0.930 . S
C1022 C1020 1.419 . S
C1022 C1023 1.362 . S
C1023 H1013 0.930 . S
C1023 C1016 1.409 . S
C1023 C1022 1.362 . S
C647 C1 1.072 . S
C652 C486 1.263 . S
C663 C80 0.948 . S
C668 C535 0.990 . S
C684 C570 2.490 . S
C679 C140 2.506 . S
C695 C211 2.410 . S
C700 C609 2.390 . S
C716 C530 2.493 . S
C711 C31 2.158 . S
C732 C489 0.727 . S
C727 C61 0.750 . S
C748 C619 1.869 . S
C743 C151 1.939 . S
C764 C578 1.677 . S
C759 C200 1.687 . S
C775 C20 1.636 . S
C780 C606 1.748 . S
C796 C538 2.337 . S
C791 C121 2.407 . S
C807 C181 2.318 . S
C812 C499 2.331 . S
C823 C91 0.939 . S
C828 C575 0.963 . S
C844 C495 1.287 . S
C839 C260 1.255 . S
C855 C320 0.960 . S
C860 C526 0.981 . S
C871 C361 2.481 . S
C876 C579 2.479 . S
C887 C451 2.420 . S
C892 C618 2.399 . S
C903 C271 2.286 . S
C908 C539 2.495 . S
C924 C498 0.828 . S
C919 C301 0.863 . S
C940 C610 1.915 . S
C935 C380 1.909 . S
C956 C569 1.646 . S
C951 C440 1.675 . S
C967 C241 1.546 . S
C972 C615 1.741 . S
C988 C529 2.303 . S
C983 C391 2.420 . S
C1004 C490 2.344 . S
C999 C421 2.286 . S
C1015 C331 0.948 . S
C1020 C566 0.973 . S
