# Generated by pormake.
# Topology pyr, (3,6)-cn, num edge types: 1
# Building blocks:
#     Node 0, Type 0, BuildingBlock: BELTOD_clean_linker_0, # of connection points: 3
#     Node 1, Type 0, BuildingBlock: BELTOD_clean_linker_0, # of connection points: 3
#     Node 2, Type 0, BuildingBlock: BELTOD_clean_linker_0, # of connection points: 3
#     Node 3, Type 0, BuildingBlock: BELTOD_clean_linker_0, # of connection points: 3
#     Node 4, Type 0, BuildingBlock: BELTOD_clean_linker_0, # of connection points: 3
#     Node 5, Type 0, BuildingBlock: BELTOD_clean_linker_0, # of connection points: 3
#     Node 6, Type 0, BuildingBlock: BELTOD_clean_linker_0, # of connection points: 3
#     Node 7, Type 0, BuildingBlock: BELTOD_clean_linker_0, # of connection points: 3
#     Node 8, Type 1, BuildingBlock: PAMTOO_clean_sbu_0, # of connection points: 6
#     Node 9, Type 1, BuildingBlock: PAMTOO_clean_sbu_0, # of connection points: 6
#     Node 10, Type 1, BuildingBlock: PAMTOO_clean_sbu_0, # of connection points: 6
#     Node 11, Type 1, BuildingBlock: PAMTOO_clean_sbu_0, # of connection points: 6
#     Edge 12, Type (0, 1), BuildingBlock: KIFKEQ_clean_linker_1, # of connection points: 2
#     Edge 13, Type (0, 1), BuildingBlock: KIFKEQ_clean_linker_1, # of connection points: 2
#     Edge 14, Type (0, 1), BuildingBlock: KIFKEQ_clean_linker_1, # of connection points: 2
#     Edge 15, Type (0, 1), BuildingBlock: KIFKEQ_clean_linker_1, # of connection points: 2
#     Edge 16, Type (0, 1), BuildingBlock: KIFKEQ_clean_linker_1, # of connection points: 2
#     Edge 17, Type (0, 1), BuildingBlock: KIFKEQ_clean_linker_1, # of connection points: 2
#     Edge 18, Type (0, 1), BuildingBlock: KIFKEQ_clean_linker_1, # of connection points: 2
#     Edge 19, Type (0, 1), BuildingBlock: KIFKEQ_clean_linker_1, # of connection points: 2
#     Edge 20, Type (0, 1), BuildingBlock: KIFKEQ_clean_linker_1, # of connection points: 2
#     Edge 21, Type (0, 1), BuildingBlock: KIFKEQ_clean_linker_1, # of connection points: 2
#     Edge 22, Type (0, 1), BuildingBlock: KIFKEQ_clean_linker_1, # of connection points: 2
#     Edge 23, Type (0, 1), BuildingBlock: KIFKEQ_clean_linker_1, # of connection points: 2
#     Edge 24, Type (0, 1), BuildingBlock: KIFKEQ_clean_linker_1, # of connection points: 2
#     Edge 25, Type (0, 1), BuildingBlock: KIFKEQ_clean_linker_1, # of connection points: 2
#     Edge 26, Type (0, 1), BuildingBlock: KIFKEQ_clean_linker_1, # of connection points: 2
#     Edge 27, Type (0, 1), BuildingBlock: KIFKEQ_clean_linker_1, # of connection points: 2
#     Edge 28, Type (0, 1), BuildingBlock: KIFKEQ_clean_linker_1, # of connection points: 2
#     Edge 29, Type (0, 1), BuildingBlock: KIFKEQ_clean_linker_1, # of connection points: 2
#     Edge 30, Type (0, 1), BuildingBlock: KIFKEQ_clean_linker_1, # of connection points: 2
#     Edge 31, Type (0, 1), BuildingBlock: KIFKEQ_clean_linker_1, # of connection points: 2
#     Edge 32, Type (0, 1), BuildingBlock: KIFKEQ_clean_linker_1, # of connection points: 2
#     Edge 33, Type (0, 1), BuildingBlock: KIFKEQ_clean_linker_1, # of connection points: 2
#     Edge 34, Type (0, 1), BuildingBlock: KIFKEQ_clean_linker_1, # of connection points: 2
#     Edge 35, Type (0, 1), BuildingBlock: KIFKEQ_clean_linker_1, # of connection points: 2
# Relax obj value: 0.099
# Max RMSD: 0.161
# Mean RMSD: 0.069
data_MOF--net-pyr--node1-PAMTOO_clean_sbu_0--node2-BELTOD_clean_linker_0--edge1-KIFKEQ_clean_linker_1
_symmetry_space_group_name_H-M    P1
_symmetry_Int_Tables_number       1
_symmetry_cell_setting            triclinic
loop_
_symmetry_equiv_pos_as_xyz
'x, y, z'
_cell_length_a     42.807149
_cell_length_b     45.246916
_cell_length_c     44.424256
_cell_angle_alpha  89.880146
_cell_angle_beta   90.139315
_cell_angle_gamma 103.03514
loop_
_atom_site_label
_atom_site_type_symbol
_atom_site_fract_x
_atom_site_fract_y
_atom_site_fract_z
_atom_type_partial_charge
P0 P 0.37425 0.3175 0.24309 0.0
H1 H 0.39056 0.31286 0.17876 0.0
H2 H 0.41363 0.2758 0.15162 0.0
H3 H 0.42872 0.23362 0.23619 0.0
H4 H 0.40622 0.27081 0.26297 0.0
H5 H 0.35506 0.37531 0.24466 0.0
H6 H 0.31131 0.39291 0.22015 0.0
H7 H 0.28721 0.30973 0.16909 0.0
H8 H 0.33072 0.2921 0.1939 0.0
H9 H 0.36024 0.32628 0.30698 0.0
H10 H 0.33314 0.25726 0.23901 0.0
O11 O 0.40066 0.34534 0.25994 0.0
H12 H 0.32658 0.29297 0.34384 0.0
H13 H 0.29971 0.2242 0.27537 0.0
C14 C 0.39563 0.29386 0.22278 0.0
C15 C 0.39895 0.2957 0.19141 0.0
C16 C 0.4121 0.27447 0.17593 0.0
C17 C 0.42256 0.25144 0.1917 0.0
C18 C 0.42105 0.25106 0.22331 0.0
C19 C 0.40794 0.27222 0.23866 0.0
C20 C 0.34676 0.3328 0.22045 0.0
C21 C 0.34092 0.3612 0.22761 0.0
C22 C 0.31575 0.37112 0.21381 0.0
C23 C 0.29595 0.3527 0.19268 0.0
C24 C 0.30241 0.32459 0.18494 0.0
C25 C 0.32736 0.31456 0.19902 0.0
C26 C 0.34971 0.29388 0.27053 0.0
C27 C 0.34719 0.30396 0.30005 0.0
C28 C 0.32787 0.28504 0.32099 0.0
C29 C 0.31097 0.25585 0.31254 0.0
C30 C 0.31303 0.2463 0.2827 0.0
C31 C 0.33204 0.26521 0.26187 0.0
P32 P 0.20862 0.80649 0.69208 0.0
H33 H 0.27048 0.82269 0.72103 0.0
H34 H 0.28733 0.83044 0.77338 0.0
H35 H 0.18828 0.80641 0.80164 0.0
H36 H 0.17152 0.79826 0.74881 0.0
H37 H 0.23045 0.78737 0.63484 0.0
H38 H 0.25343 0.74446 0.62184 0.0
H39 H 0.22545 0.70412 0.70876 0.0
H40 H 0.20271 0.74742 0.72171 0.0
H41 H 0.17261 0.84822 0.71638 0.0
H42 H 0.15906 0.77803 0.64895 0.0
O43 O 0.23348 0.834 0.67323 0.0
H44 H 0.12569 0.86452 0.69762 0.0
H45 H 0.11207 0.79448 0.62982 0.0
C46 C 0.21978 0.81103 0.73107 0.0
C47 C 0.25237 0.81906 0.73847 0.0
C48 C 0.26197 0.8231 0.76843 0.0
C49 C 0.23908 0.81907 0.79158 0.0
C50 C 0.20637 0.80993 0.78418 0.0
C51 C 0.19679 0.80551 0.75407 0.0
C52 C 0.21577 0.77092 0.67951 0.0
C53 C 0.2285 0.76891 0.65079 0.0
C54 C 0.24146 0.74422 0.64332 0.0
C55 C 0.24179 0.72117 0.66453 0.0
C56 C 0.22608 0.72185 0.69221 0.0
C57 C 0.21301 0.74654 0.69959 0.0
C58 C 0.16894 0.81149 0.6845 0.0
C59 C 0.15869 0.83542 0.6984 0.0
C60 C 0.13184 0.84477 0.68761 0.0
C61 C 0.11526 0.83079 0.66223 0.0
C62 C 0.12447 0.80566 0.64941 0.0
C63 C 0.15121 0.79615 0.66042 0.0
P64 P 0.67189 0.33939 0.83262 0.0
H65 H 0.71301 0.32182 0.87777 0.0
H66 H 0.75442 0.35012 0.91104 0.0
H67 H 0.73461 0.4342 0.87874 0.0
H68 H 0.69322 0.40551 0.8451 0.0
H69 H 0.6387 0.2777 0.81644 0.0
H70 H 0.61007 0.23475 0.84639 0.0
H71 H 0.61526 0.29334 0.92376 0.0
H72 H 0.64349 0.33634 0.89344 0.0
H73 H 0.69973 0.3787 0.78355 0.0
H74 H 0.60632 0.35029 0.82391 0.0
O75 O 0.69373 0.32121 0.8115 0.0
H76 H 0.67749 0.40592 0.74442 0.0
H77 H 0.58367 0.37774 0.78452 0.0
C78 C 0.69995 0.36147 0.85898 0.0
C79 C 0.71731 0.34635 0.87807 0.0
C80 C 0.74093 0.36261 0.89724 0.0
C81 C 0.74791 0.39452 0.89771 0.0
C82 C 0.7301 0.40967 0.87878 0.0
C83 C 0.70628 0.39327 0.85961 0.0
C84 C 0.64368 0.31019 0.85275 0.0
C85 C 0.63312 0.28147 0.83968 0.0
C86 C 0.61703 0.2568 0.85697 0.0
C87 C 0.61091 0.26034 0.88773 0.0
C88 C 0.61954 0.28969 0.90019 0.0
C89 C 0.63573 0.31437 0.88284 0.0
C90 C 0.65469 0.36223 0.80653 0.0
C91 C 0.67439 0.37852 0.78411 0.0
C92 C 0.66159 0.39396 0.76161 0.0
C93 C 0.62869 0.39373 0.76103 0.0
C94 C 0.60912 0.37843 0.78431 0.0
C95 C 0.622 0.36267 0.80682 0.0
P96 P 0.83284 0.68677 0.32303 0.0
H97 H 0.84948 0.75064 0.30501 0.0
H98 H 0.87601 0.79667 0.33109 0.0
H99 H 0.90065 0.74261 0.404 0.0
H100 H 0.87267 0.69644 0.37799 0.0
H101 H 0.80855 0.63942 0.27953 0.0
H102 H 0.83395 0.61256 0.24284 0.0
H103 H 0.92713 0.65763 0.27701 0.0
H104 H 0.90122 0.68513 0.31335 0.0
H105 H 0.79557 0.70517 0.37093 0.0
H106 H 0.81415 0.62107 0.33847 0.0
O107 O 0.80738 0.69923 0.3004 0.0
H108 H 0.75652 0.67733 0.40651 0.0
H109 H 0.77515 0.5929 0.37435 0.0
C110 C 0.85872 0.72003 0.33967 0.0
C111 C 0.86091 0.74859 0.32644 0.0
C112 C 0.87635 0.77507 0.34143 0.0
C113 C 0.89037 0.77368 0.36998 0.0
C114 C 0.88959 0.74478 0.38242 0.0
C115 C 0.87392 0.71826 0.3674 0.0
C116 C 0.8529 0.66429 0.29926 0.0
C117 C 0.83446 0.64327 0.2794 0.0
C118 C 0.84911 0.62774 0.25843 0.0
C119 C 0.88274 0.63278 0.25672 0.0
C120 C 0.90121 0.65339 0.27728 0.0
C121 C 0.88642 0.66899 0.29833 0.0
C122 C 0.80805 0.66533 0.35213 0.0
C123 C 0.79173 0.68069 0.37188 0.0
C124 C 0.76937 0.66468 0.39233 0.0
C125 C 0.76257 0.63278 0.39341 0.0
C126 C 0.7795 0.61742 0.37396 0.0
C127 C 0.80202 0.63355 0.3535 0.0
P128 P 0.70833 0.82585 0.88307 0.0
H129 H 0.68034 0.81927 0.94281 0.0
H130 H 0.63066 0.83039 0.96132 0.0
H131 H 0.59757 0.83458 0.86977 0.0
H132 H 0.64742 0.82382 0.85145 0.0
H133 H 0.77595 0.83137 0.89225 0.0
H134 H 0.808 0.79551 0.9066 0.0
H135 H 0.7216 0.72579 0.91888 0.0
H136 H 0.68931 0.76236 0.90464 0.0
H137 H 0.70949 0.87281 0.83829 0.0
H138 H 0.71151 0.77794 0.8391 0.0
O139 O 0.72728 0.86035 0.89456 0.0
H140 H 0.71933 0.87495 0.78434 0.0
H141 H 0.72105 0.77975 0.7847 0.0
C142 C 0.66769 0.82082 0.89583 0.0
C143 C 0.66181 0.82127 0.92678 0.0
C144 C 0.63332 0.82765 0.93732 0.0
C145 C 0.61036 0.83387 0.91696 0.0
C146 C 0.61502 0.83038 0.88598 0.0
C147 C 0.64353 0.82402 0.8755 0.0
C148 C 0.73031 0.79964 0.89795 0.0
C149 C 0.7638 0.80854 0.89857 0.0
C150 C 0.78212 0.78792 0.90644 0.0
C151 C 0.76733 0.75777 0.91359 0.0
C152 C 0.73361 0.74895 0.91365 0.0
C153 C 0.71517 0.76976 0.9056 0.0
C154 C 0.71074 0.82549 0.84273 0.0
C155 C 0.71164 0.85231 0.82671 0.0
C156 C 0.71687 0.85337 0.79575 0.0
C157 C 0.72115 0.82752 0.78021 0.0
C158 C 0.71824 0.80012 0.79612 0.0
C159 C 0.71286 0.79908 0.82719 0.0
P160 P 0.87039 0.31242 0.33545 0.0
H161 H 0.86344 0.36616 0.36948 0.0
H162 H 0.81688 0.38062 0.39204 0.0
H163 H 0.75673 0.29524 0.36338 0.0
H164 H 0.80296 0.28144 0.34035 0.0
H165 H 0.9355 0.30406 0.34503 0.0
H166 H 0.9558 0.2646 0.37145 0.0
H167 H 0.86073 0.22713 0.4057 0.0
H168 H 0.84065 0.26609 0.37915 0.0
H169 H 0.83123 0.32495 0.28522 0.0
H170 H 0.87931 0.2544 0.31062 0.0
O171 O 0.89833 0.34339 0.32687 0.0
H172 H 0.80416 0.2931 0.2442 0.0
H173 H 0.85294 0.22294 0.26957 0.0
C174 C 0.83652 0.32303 0.35276 0.0
C175 C 0.84017 0.35068 0.36797 0.0
C176 C 0.81358 0.3588 0.38104 0.0
C177 C 0.78299 0.3392 0.37927 0.0
C178 C 0.77974 0.31118 0.36459 0.0
C179 C 0.80623 0.3032 0.35149 0.0
C180 C 0.88667 0.28836 0.36048 0.0
C181 C 0.91926 0.28785 0.35892 0.0
C182 C 0.9308 0.26525 0.37395 0.0
C183 C 0.90977 0.24263 0.39041 0.0
C184 C 0.87742 0.24402 0.39285 0.0
C185 C 0.86597 0.26657 0.37791 0.0
C186 C 0.85665 0.29183 0.30147 0.0
C187 C 0.8365 0.30292 0.28158 0.0
C188 C 0.82115 0.28474 0.25807 0.0
C189 C 0.82598 0.25528 0.25402 0.0
C190 C 0.84816 0.24526 0.27258 0.0
C191 C 0.86337 0.26337 0.29608 0.0
P192 P 0.37362 0.66977 0.21595 0.0
H193 H 0.3538 0.6717 0.15387 0.0
H194 H 0.3031 0.65425 0.12747 0.0
H195 H 0.25677 0.62416 0.21207 0.0
H196 H 0.30739 0.64358 0.23846 0.0
H197 H 0.43479 0.70626 0.19423 0.0
H198 H 0.45168 0.75907 0.17824 0.0
H199 H 0.36134 0.77565 0.20826 0.0
H200 H 0.34436 0.72233 0.22417 0.0
H201 H 0.34745 0.61218 0.24638 0.0
H202 H 0.40892 0.69834 0.26944 0.0
O203 O 0.39762 0.65246 0.19649 0.0
H204 H 0.35858 0.5915 0.29482 0.0
H205 H 0.42177 0.67737 0.31746 0.0
C206 C 0.33468 0.6583 0.19807 0.0
C207 C 0.33265 0.66149 0.16678 0.0
C208 C 0.30357 0.65118 0.15163 0.0
C209 C 0.27565 0.63708 0.16737 0.0
C210 C 0.27757 0.63489 0.19901 0.0
C211 C 0.30673 0.64567 0.21422 0.0
C212 C 0.38811 0.71018 0.21007 0.0
C213 C 0.41868 0.72124 0.19778 0.0
C214 C 0.4283 0.75148 0.18848 0.0
C215 C 0.40769 0.77149 0.19155 0.0
C216 C 0.37779 0.76084 0.20561 0.0
C217 C 0.36805 0.73038 0.2147 0.0
C218 C 0.37633 0.65722 0.25452 0.0
C219 C 0.36266 0.62699 0.26223 0.0
C220 C 0.36967 0.61495 0.28987 0.0
C221 C 0.39144 0.63252 0.31028 0.0
C222 C 0.40455 0.66311 0.30274 0.0
C223 C 0.39717 0.67524 0.27515 0.0
P224 P 0.1695 0.33612 0.7431 0.0
H225 H 0.17278 0.27222 0.74256 0.0
H226 H 0.14601 0.22876 0.71312 0.0
H227 H 0.08895 0.28394 0.66926 0.0
H228 H 0.11494 0.32724 0.70046 0.0
H229 H 0.22609 0.38504 0.75257 0.0
H230 H 0.2678 0.41266 0.71895 0.0
H231 H 0.21762 0.36485 0.64282 0.0
H232 H 0.17584 0.33764 0.67633 0.0
H233 H 0.11419 0.31586 0.78245 0.0
H234 H 0.17396 0.40145 0.75502 0.0
O235 O 0.19241 0.32337 0.76821 0.0
H236 H 0.08955 0.34169 0.82093 0.0
H237 H 0.15075 0.42723 0.79415 0.0
C238 C 0.14585 0.30312 0.7239 0.0
C239 C 0.1541 0.27498 0.72706 0.0
C240 C 0.13898 0.25006 0.70973 0.0
C241 C 0.11557 0.25265 0.68815 0.0
C242 C 0.10662 0.28076 0.68569 0.0
C243 C 0.1215 0.30567 0.70351 0.0
C244 C 0.19738 0.35947 0.71718 0.0
C245 C 0.2236 0.38099 0.72857 0.0
C246 C 0.24752 0.39675 0.7093 0.0
C247 C 0.24609 0.39093 0.67817 0.0
C248 C 0.21956 0.3697 0.66671 0.0
C249 C 0.19541 0.35424 0.68598 0.0
C250 C 0.14576 0.35657 0.76541 0.0
C251 C 0.12159 0.34031 0.78425 0.0
C252 C 0.10789 0.35514 0.8067 0.0
C253 C 0.11833 0.38668 0.81123 0.0
C254 C 0.14169 0.40304 0.79143 0.0
C255 C 0.1552 0.38818 0.76887 0.0
Dy256 Dy 0.02902 0.0253 0.50134 0.0
Dy257 Dy 0.96137 1.01592 0.53898 0.0
C258 C 0.02118 0.06995 0.55597 0.0
O259 O 0.02404 0.98242 0.52734 0.0
O260 O 0.99305 0.99284 0.56608 0.0
O261 O 0.08001 0.02769 0.50085 0.0
O262 O 0.05421 0.03024 0.45912 0.0
O263 O 0.95743 0.97313 0.51259 0.0
O264 O 0.99225 0.99237 0.47466 0.0
O265 O 0.95609 0.04347 0.4983 0.0
O266 O 0.00889 0.06479 0.48848 0.0
O267 O 0.90964 1.00435 0.53873 0.0
O268 O 0.93553 1.01796 0.58028 0.0
C269 C 0.01237 0.97716 0.55455 0.0
O270 O 0.0404 0.05561 0.54185 0.0
O271 O 0.98984 0.06137 0.55345 0.0
C272 C 0.10803 0.05657 0.46109 0.0
C273 C 0.15563 0.10269 0.43526 0.0
C274 C 0.13017 0.11002 0.45141 0.0
C275 C 0.10644 0.08705 0.4642 0.0
C276 C 0.13391 0.04929 0.446 0.0
C277 C 0.15755 0.07213 0.43322 0.0
C278 C 0.08209 0.03197 0.47179 0.0
C279 C 0.96915 0.97083 0.48562 0.0
C280 C 0.97836 0.06468 0.48583 0.0
C281 C 0.88714 0.98068 0.58398 0.0
C282 C 0.84873 0.93184 0.6158 0.0
C283 C 0.84974 0.93135 0.58422 0.0
C284 C 0.8689 0.95552 0.56842 0.0
C285 C 0.88562 0.98128 0.6155 0.0
C286 C 0.86676 0.95707 0.63125 0.0
C287 C 0.90777 1.00642 0.56793 0.0
H288 H 0.12797 0.13333 0.4532 0.0
H289 H 0.08647 0.09297 0.47582 0.0
H290 H 0.13547 0.02584 0.44351 0.0
H291 H 0.17716 0.06584 0.42135 0.0
H292 H 0.83603 0.91216 0.57181 0.0
H293 H 0.86944 0.95441 0.54408 0.0
H294 H 0.8991 1.00052 0.62803 0.0
H295 H 0.86592 0.95831 0.65558 0.0
Dy296 Dy 0.46177 0.0232 0.03771 0.0
Dy297 Dy 0.53053 0.03181 0.07344 0.0
C298 C 0.47085 0.97744 0.09019 0.0
O299 O 0.45796 0.05042 0.079 0.0
O300 O 0.51124 0.07171 0.08616 0.0
O301 O 0.41001 1.01089 0.0384 0.0
O302 O 0.43523 0.02759 0.99731 0.0
O303 O 0.54075 0.06077 1.03174 0.0
O304 O 0.49042 0.06861 1.02347 0.0
O305 O 0.52487 0.98898 0.04768 0.0
O306 O 0.49142 0.99822 1.01024 0.0
O307 O 0.58139 0.03334 0.0725 0.0
O308 O 0.55755 0.03808 0.11477 0.0
C309 C 0.48097 0.07176 0.09034 0.0
O310 O 0.45843 0.98028 0.06359 0.0
O311 O 0.49451 0.99863 0.10093 0.0
C312 C 0.38749 0.98979 0.99204 0.0
C313 C 0.35141 0.94164 0.95771 0.0
C314 C 0.35097 0.94009 0.98927 0.0
C315 C 0.36897 0.96393 1.00633 0.0
C316 C 0.38705 0.99162 0.9605 0.0
C317 C 0.36937 0.96774 0.94352 0.0
C318 C 0.40773 1.01479 1.00941 0.0
C319 C 0.52152 0.07617 1.01907 0.0
C320 C 0.51162 0.9829 1.02114 0.0
C321 C 0.6118 0.06441 0.10977 0.0
C322 C 0.66424 0.10958 0.13005 0.0
C323 C 0.63266 0.11339 0.13317 0.0
C324 C 0.60668 0.09107 0.12301 0.0
C325 C 0.64323 0.06098 0.10568 0.0
C326 C 0.66922 0.08339 0.1156 0.0
C327 C 0.58486 0.03942 0.10117 0.0
H328 H 0.33727 0.92019 1.0007 0.0
H329 H 0.36861 0.9619 1.03063 0.0
H330 H 0.40071 1.01143 0.9489 0.0
H331 H 0.36962 0.96975 0.91921 0.0
H332 H 0.62786 0.13308 0.14446 0.0
H333 H 0.58261 0.09436 0.12621 0.0
H334 H 0.64767 0.04067 0.0953 0.0
H335 H 0.69322 0.07997 0.11231 0.0
Dy336 Dy 0.50412 0.48161 0.51849 0.0
Dy337 Dy 0.50791 0.54378 0.55718 0.0
C338 C 0.5371 0.49042 0.58432 0.0
O339 O 0.45382 0.47777 0.53503 0.0
O340 O 0.4667 0.50931 0.57561 0.0
O341 O 0.4967 0.43282 0.51555 0.0
O342 O 0.50778 0.46039 0.47556 0.0
O343 O 0.47254 0.54483 0.51995 0.0
O344 O 0.49314 0.51621 0.4865 0.0
O345 O 0.54952 0.55439 0.52551 0.0
O346 O 0.55571 0.50617 0.51662 0.0
O347 O 0.51288 0.59231 0.55871 0.0
O348 O 0.50583 0.56602 0.59989 0.0
C349 C 0.44648 0.48782 0.56126 0.0
O350 O 0.51964 0.47178 0.56493 0.0
O351 O 0.54102 0.52 0.58176 0.0
C352 C 0.53204 0.41936 0.4803 0.0
C353 C 0.58612 0.39794 0.46265 0.0
C354 C 0.58707 0.41563 0.48878 0.0
C355 C 0.56032 0.42634 0.49745 0.0
C356 C 0.53061 0.4011 0.45471 0.0
C357 C 0.55742 0.39041 0.44595 0.0
C358 C 0.5054 0.43365 0.48741 0.0
C359 C 0.4763 0.53645 0.49215 0.0
C360 C 0.56645 0.53573 0.5152 0.0
C361 C 0.47857 0.60522 0.59548 0.0
C362 C 0.42381 0.62542 0.61352 0.0
C363 C 0.42567 0.61369 0.58446 0.0
C364 C 0.45267 0.60351 0.57559 0.0
C365 C 0.47709 0.61728 0.62431 0.0
C366 C 0.44994 0.62727 0.6333 0.0
C367 C 0.50575 0.592 0.58726 0.0
H368 H 0.60862 0.4215 0.50236 0.0
H369 H 0.56196 0.44069 0.51716 0.0
H370 H 0.50909 0.39587 0.44102 0.0
H371 H 0.55601 0.37719 0.4255 0.0
H372 H 0.40626 0.61238 0.56848 0.0
H373 H 0.45307 0.59392 0.55331 0.0
H374 H 0.49664 0.61834 0.64011 0.0
H375 H 0.44915 0.6358 0.65598 0.0
Dy376 Dy 0.01033 0.54662 1.01552 0.0
Dy377 Dy 0.00795 0.48475 0.05456 0.0
C378 C 0.9779 0.53759 0.08143 0.0
O379 O 0.06085 0.55079 1.03185 0.0
O380 O 0.04847 0.52003 0.07309 0.0
O381 O 0.01925 0.59546 1.0119 0.0
O382 O 0.00364 0.56745 0.97293 0.0
O383 O 0.04273 0.48403 1.01688 0.0
O384 O 0.02124 0.51219 0.98342 0.0
O385 O 0.96571 0.47373 1.02347 0.0
O386 O 0.95884 0.52181 1.01485 0.0
O387 O 0.00495 0.43645 0.05606 0.0
O388 O 0.00951 0.46235 0.09736 0.0
C389 C 0.06832 0.54161 0.05849 0.0
O390 O 0.99505 0.55638 0.06196 0.0
O391 O 0.97438 0.50803 0.07892 0.0
C392 C 0.98259 0.61043 0.9788 0.0
C393 C 0.93093 0.63733 0.96525 0.0
C394 C 0.9297 0.61842 0.99058 0.0
C395 C 0.95527 0.60496 0.99722 0.0
C396 C 0.98412 0.62954 0.95377 0.0
C397 C 0.95851 0.6429 0.94703 0.0
C398 C 0.00839 0.59455 0.9844 0.0
C399 C 0.03824 0.49203 0.98903 0.0
C400 C 0.94831 0.49223 1.01355 0.0
C401 C 0.03802 0.42368 0.09472 0.0
C402 C 0.09309 0.40515 0.11503 0.0
C403 C 0.08772 0.40817 0.08408 0.0
C404 C 0.06054 0.41754 0.074 0.0
C405 C 0.04281 0.41958 0.12556 0.0
C406 C 0.07017 0.41055 0.13565 0.0
C407 C 0.01098 0.43667 0.08488 0.0
H408 H 0.90868 0.61347 1.00485 0.0
H409 H 0.9535 0.58989 1.01644 0.0
H410 H 0.00494 0.63379 0.93922 0.0
H411 H 0.96032 0.65766 0.92758 0.0
H412 H 0.10514 0.40436 0.06774 0.0
H413 H 0.05767 0.42074 0.05007 0.0
H414 H 0.0258 0.42419 0.14193 0.0
H415 H 0.07358 0.40808 0.15961 0.0
H416 H 0.26724 0.26847 0.35268 0.0
H417 H 0.31006 0.19631 0.3217 0.0
H418 H 0.23047 0.23228 0.38455 0.0
H419 H 0.27383 0.16038 0.35361 0.0
H420 H 0.17772 0.09994 0.37831 0.0
H421 H 0.21678 0.13802 0.3514 0.0
H422 H 0.22579 0.19759 0.42838 0.0
H423 H 0.18624 0.15918 0.45547 0.0
C424 C 0.26913 0.245 0.35311 0.0
C425 C 0.29113 0.23506 0.33443 0.0
C426 C 0.24814 0.22431 0.37134 0.0
C427 C 0.24893 0.19339 0.37121 0.0
C428 C 0.27208 0.18389 0.35364 0.0
C429 C 0.29287 0.20446 0.33542 0.0
C430 C 0.18828 0.12101 0.38966 0.0
C431 C 0.17922 0.12642 0.41913 0.0
C432 C 0.21069 0.14285 0.37424 0.0
C433 C 0.22471 0.17067 0.38791 0.0
C434 C 0.2153 0.1764 0.41723 0.0
C435 C 0.19271 0.15445 0.43271 0.0
H436 H 0.21447 0.85373 0.83115 0.0
H437 H 0.28814 0.80302 0.82216 0.0
H438 H 0.23961 0.87662 0.87736 0.0
H439 H 0.31322 0.82572 0.86857 0.0
H440 H 0.37338 0.91555 0.90963 0.0
H441 H 0.34267 0.87828 0.87524 0.0
H442 H 0.25806 0.87268 0.9298 0.0
H443 H 0.289 0.9107 0.96413 0.0
C444 C 0.2354 0.84668 0.83964 0.0
C445 C 0.24971 0.82704 0.82284 0.0
C446 C 0.24981 0.85976 0.86614 0.0
C447 C 0.27871 0.85335 0.87629 0.0
C448 C 0.29131 0.83155 0.86093 0.0
C449 C 0.27698 0.81855 0.83442 0.0
C450 C 0.3483 0.90613 0.91443 0.0
C451 C 0.33343 0.91625 0.93926 0.0
C452 C 0.33077 0.88449 0.89496 0.0
C453 C 0.29791 0.87252 0.89981 0.0
C454 C 0.28331 0.88164 0.92543 0.0
C455 C 0.301 0.90323 0.94511 0.0
H456 H 0.64106 0.39006 0.70101 0.0
H457 H 0.5854 0.43054 0.76296 0.0
H458 H 0.61993 0.41427 0.65892 0.0
H459 H 0.56397 0.45476 0.72056 0.0
H460 H 0.56088 0.51797 0.63746 0.0
H461 H 0.5826 0.49509 0.68053 0.0
H462 H 0.56778 0.41008 0.63278 0.0
H463 H 0.54613 0.43275 0.58997 0.0
C464 C 0.62438 0.40425 0.70568 0.0
C465 C 0.61503 0.4084 0.73545 0.0
C466 C 0.61207 0.41797 0.68148 0.0
C467 C 0.59023 0.4365 0.68628 0.0
C468 C 0.58094 0.44083 0.71606 0.0
C469 C 0.59299 0.42674 0.74033 0.0
C470 C 0.56244 0.49445 0.63609 0.0
C471 C 0.55177 0.47727 0.61015 0.0
C472 C 0.57464 0.48127 0.66089 0.0
C473 C 0.57694 0.45071 0.66017 0.0
C474 C 0.56663 0.43371 0.63407 0.0
C475 C 0.55407 0.44673 0.60951 0.0
H476 H 0.93749 0.65612 0.22419 0.0
H477 H 0.86293 0.57473 0.2344 0.0
H478 H 0.96069 0.63242 0.18336 0.0
H479 H 0.88511 0.55164 0.19248 0.0
H480 H 0.94914 0.50824 0.13203 0.0
H481 H 0.9277 0.53033 0.1753 0.0
H482 H 0.95125 0.6183 0.13235 0.0
H483 H 0.97341 0.59643 0.08971 0.0
C484 C 0.9261 0.6331 0.21794 0.0
C485 C 0.89814 0.61753 0.23274 0.0
C486 C 0.93917 0.61959 0.19408 0.0
C487 C 0.92469 0.5901 0.18415 0.0
C488 C 0.89717 0.57426 0.19944 0.0
C489 C 0.88416 0.58772 0.22336 0.0
C490 C 0.94964 0.53228 0.13178 0.0
C491 C 0.96315 0.55049 0.10729 0.0
C492 C 0.93722 0.54499 0.15662 0.0
C493 C 0.93781 0.57627 0.15764 0.0
C494 C 0.95092 0.59431 0.13288 0.0
C495 C 0.96345 0.58165 0.10818 0.0
H496 H 0.39647 0.2216 0.14092 0.0
H497 H 0.47236 0.22507 0.20603 0.0
H498 H 0.41124 0.17857 0.11647 0.0
H499 H 0.48618 0.1812 0.18242 0.0
H500 H 0.52224 0.12126 0.11407 0.0
H501 H 0.50914 0.16552 0.13734 0.0
H502 H 0.40817 0.12528 0.12654 0.0
H503 H 0.42125 0.0812 0.10253 0.0
C504 C 0.41651 0.21338 0.14985 0.0
C505 C 0.43322 0.22679 0.17545 0.0
C506 C 0.42465 0.18841 0.13611 0.0
C507 C 0.44968 0.17624 0.14766 0.0
C508 C 0.46689 0.1901 0.17282 0.0
C509 C 0.45878 0.21509 0.18653 0.0
C510 C 0.49721 0.12172 0.11676 0.0
C511 C 0.47278 0.09765 0.10638 0.0
C512 C 0.48972 0.14711 0.13021 0.0
C513 C 0.45762 0.14902 0.13369 0.0
C514 C 0.43316 0.12475 0.12374 0.0
C515 C 0.44066 0.09935 0.11022 0.0
H516 H 0.11421 0.8437 0.60278 0.0
H517 H 0.0659 0.85266 0.6863 0.0
H518 H 0.08402 0.87574 0.57775 0.0
H519 H 0.03429 0.88413 0.66089 0.0
H520 H 0.02268 0.97369 0.61506 0.0
H521 H 0.04181 0.9338 0.64163 0.0
H522 H 0.0359 0.88269 0.55876 0.0
H523 H 0.01894 0.92344 0.5322 0.0
C524 C 0.09623 0.85169 0.61555 0.0
C525 C 0.09235 0.8456 0.64646 0.0
C526 C 0.07878 0.87014 0.60118 0.0
C527 C 0.05661 0.88271 0.61723 0.0
C528 C 0.05154 0.87533 0.64791 0.0
C529 C 0.06941 0.85712 0.66243 0.0
C530 C 0.02531 0.95375 0.60275 0.0
C531 C 0.02007 0.9518 0.57158 0.0
C532 C 0.03601 0.93074 0.61795 0.0
C533 C 0.04094 0.90511 0.60229 0.0
C534 C 0.03342 0.90246 0.57142 0.0
C535 C 0.02356 0.92573 0.55618 0.0
H536 H 0.76331 0.38135 0.95542 0.0
H537 H 0.79302 0.44628 0.88385 0.0
H538 H 0.80967 0.4062 0.98521 0.0
H539 H 0.83938 0.47122 0.91373 0.0
H540 H 0.90783 0.52262 0.98504 0.0
H541 H 0.85753 0.50092 0.95909 0.0
H542 H 0.86725 0.41093 0.98327 0.0
H543 H 0.91712 0.4325 1.00949 0.0
C544 C 0.77971 0.40095 0.94601 0.0
C545 C 0.77451 0.41159 0.91706 0.0
C546 C 0.80633 0.41521 0.96312 0.0
C547 C 0.8285 0.44057 0.9518 0.0
C548 C 0.82268 0.45193 0.92331 0.0
C549 C 0.79603 0.43762 0.90615 0.0
C550 C 0.8991 0.49821 0.98508 0.0
C551 C 0.91664 0.47933 0.99939 0.0
C552 C 0.87033 0.48576 0.97 0.0
C553 C 0.85829 0.45415 0.96901 0.0
C554 C 0.87553 0.43537 0.98387 0.0
C555 C 0.9043 0.44778 0.9988 0.0
H556 H 0.74912 0.64676 0.45139 0.0
H557 H 0.71728 0.58057 0.38147 0.0
H558 H 0.70403 0.62206 0.4827 0.0
H559 H 0.67222 0.55582 0.41284 0.0
H560 H 0.60612 0.50514 0.48592 0.0
H561 H 0.65555 0.52669 0.45866 0.0
H562 H 0.64653 0.61682 0.4827 0.0
H563 H 0.59761 0.59541 0.51023 0.0
C564 C 0.73253 0.62692 0.44267 0.0
C565 C 0.7368 0.61587 0.41373 0.0
C566 C 0.70663 0.61274 0.46065 0.0
C567 C 0.68423 0.58706 0.45025 0.0
C568 C 0.68912 0.57534 0.42176 0.0
C569 C 0.71505 0.58956 0.40373 0.0
C570 C 0.61484 0.52955 0.48565 0.0
C571 C 0.59774 0.5485 0.50031 0.0
C572 C 0.64311 0.54192 0.46982 0.0
C573 C 0.65509 0.57354 0.46838 0.0
C574 C 0.63833 0.59238 0.48361 0.0
C575 C 0.61007 0.58006 0.4993 0.0
H576 H 0.25104 0.37384 0.22394 0.0
H577 H 0.27575 0.35122 0.13409 0.0
H578 H 0.20229 0.38631 0.20484 0.0
H579 H 0.22737 0.3647 0.11456 0.0
H580 H 0.12117 0.36017 0.09522 0.0
H581 H 0.17066 0.34799 0.11345 0.0
H582 H 0.18294 0.42242 0.17653 0.0
H583 H 0.13302 0.43375 0.15894 0.0
C584 C 0.24626 0.37207 0.19997 0.0
C585 C 0.26722 0.36172 0.18047 0.0
C586 C 0.21833 0.37927 0.18897 0.0
C587 C 0.21083 0.37664 0.15809 0.0
C588 C 0.23206 0.36655 0.13852 0.0
C589 C 0.25986 0.35899 0.14963 0.0
C590 C 0.13456 0.37387 0.11297 0.0
C591 C 0.12316 0.39771 0.12587 0.0
C592 C 0.163 0.36703 0.12332 0.0
C593 C 0.18085 0.38415 0.14656 0.0
C594 C 0.16954 0.40831 0.15908 0.0
C595 C 0.14096 0.41487 0.14898 0.0
H596 H 0.62562 0.20444 0.88668 0.0
H597 H 0.56585 0.25493 0.9328 0.0
H598 H 0.6043 0.16039 0.91821 0.0
H599 H 0.54511 0.21102 0.96495 0.0
H600 H 0.48944 0.11593 0.99358 0.0
H601 H 0.51087 0.16005 0.96232 0.0
H602 H 0.60559 0.14247 0.97006 0.0
H603 H 0.58407 0.09795 1.0012 0.0
C604 C 0.60777 0.20613 0.90343 0.0
C605 C 0.59733 0.2333 0.90697 0.0
C606 C 0.59584 0.18093 0.92182 0.0
C607 C 0.57298 0.18205 0.94423 0.0
C608 C 0.56246 0.20918 0.94776 0.0
C609 C 0.57456 0.23449 0.92947 0.0
C610 C 0.51486 0.12136 0.98866 0.0
C611 C 0.53497 0.10318 0.99995 0.0
C612 C 0.5272 0.14689 0.97084 0.0
C613 C 0.56 0.15496 0.96362 0.0
C614 C 0.58014 0.13678 0.97487 0.0
C615 C 0.56782 0.11129 0.99287 0.0
H616 H 0.88867 0.78356 0.43109 0.0
H617 H 0.92315 0.82905 0.34799 0.0
H618 H 0.90863 0.83042 0.45859 0.0
H619 H 0.94106 0.87638 0.37518 0.0
H620 H 0.99617 0.95177 0.43543 0.0
H621 H 0.97899 0.90412 0.40837 0.0
H622 H 0.89804 0.87811 0.46834 0.0
H623 H 0.91606 0.92525 0.49611 0.0
C624 C 0.90065 0.80345 0.4186 0.0
C625 C 0.90413 0.80223 0.38713 0.0
C626 C 0.91165 0.83063 0.4344 0.0
C627 C 0.92629 0.85758 0.41925 0.0
C628 C 0.93024 0.85623 0.38785 0.0
C629 C 0.91949 0.829 0.37209 0.0
C630 C 0.97461 0.93595 0.44278 0.0
C631 C 0.95751 0.94247 0.46798 0.0
C632 C 0.96463 0.90854 0.42713 0.0
C633 C 0.93704 0.88693 0.43602 0.0
C634 C 0.91974 0.89372 0.46105 0.0
C635 C 0.92992 0.92099 0.47688 0.0
H636 H 0.28283 0.70445 0.70459 0.0
H637 H 0.2489 0.69006 0.61292 0.0
H638 H 0.32439 0.67701 0.69419 0.0
H639 H 0.29114 0.6631 0.60235 0.0
H640 H 0.36087 0.59919 0.60091 0.0
H641 H 0.31338 0.61739 0.61503 0.0
H642 H 0.37341 0.69253 0.66233 0.0
H643 H 0.42086 0.67492 0.64773 0.0
C644 C 0.28368 0.69473 0.68242 0.0
C645 C 0.26264 0.69954 0.65951 0.0
C646 C 0.30777 0.67935 0.67639 0.0
C647 C 0.31128 0.66834 0.64737 0.0
C648 C 0.28896 0.67133 0.62495 0.0
C649 C 0.26492 0.68689 0.63094 0.0
C650 C 0.36397 0.61972 0.61415 0.0
C651 C 0.39474 0.63567 0.62309 0.0
C652 C 0.33675 0.63 0.62234 0.0
C653 C 0.33971 0.65625 0.63989 0.0
C654 C 0.37035 0.6719 0.64924 0.0
C655 C 0.39755 0.66179 0.64087 0.0
H656 H 0.70076 0.85892 0.73417 0.0
H657 H 0.76808 0.80358 0.75503 0.0
H658 H 0.72963 0.87557 0.68785 0.0
H659 H 0.79609 0.81912 0.70799 0.0
H660 H 0.86557 0.90352 0.66522 0.0
H661 H 0.83037 0.86854 0.69856 0.0
H662 H 0.7507 0.86768 0.63831 0.0
H663 H 0.78613 0.9036 0.60519 0.0
C664 C 0.72116 0.84961 0.7284 0.0
C665 C 0.73261 0.83056 0.74862 0.0
C666 C 0.73752 0.85887 0.70165 0.0
C667 C 0.76557 0.84913 0.69455 0.0
C668 C 0.77491 0.82747 0.71317 0.0
C669 C 0.75863 0.81832 0.73999 0.0
C670 C 0.84064 0.89552 0.6589 0.0
C671 C 0.82843 0.90663 0.63295 0.0
C672 C 0.8205 0.87513 0.67778 0.0
C673 C 0.78764 0.8654 0.67116 0.0
C674 C 0.77585 0.87499 0.64413 0.0
C675 C 0.79612 0.89538 0.62511 0.0
H676 H 0.79698 0.19618 0.26391 0.0
H677 H 0.80849 0.2665 0.19624 0.0
H678 H 0.76092 0.16174 0.23088 0.0
H679 H 0.77231 0.23167 0.16274 0.0
H680 H 0.67404 0.17172 0.13191 0.0
H681 H 0.71568 0.20714 0.15942 0.0
H682 H 0.75869 0.13317 0.18534 0.0
H683 H 0.71624 0.09765 0.15941 0.0
C684 C 0.79235 0.20409 0.24166 0.0
C685 C 0.8058 0.23401 0.23261 0.0
C686 C 0.77163 0.1843 0.22268 0.0
C687 C 0.76385 0.19387 0.19406 0.0
C688 C 0.7776 0.2237 0.18477 0.0
C689 C 0.79834 0.24361 0.20389 0.0
C690 C 0.69237 0.16302 0.14352 0.0
C691 C 0.69157 0.13177 0.14366 0.0
C692 C 0.71649 0.18339 0.15896 0.0
C693 C 0.74037 0.17295 0.1748 0.0
C694 C 0.74035 0.1419 0.17379 0.0
C695 C 0.7162 0.12156 0.15853 0.0
H696 H 0.40026 0.57458 0.31755 0.0
H697 H 0.40702 0.65822 0.36647 0.0
H698 H 0.418 0.55158 0.36179 0.0
H699 H 0.42683 0.6356 0.41047 0.0
H700 H 0.43628 0.57659 0.49352 0.0
H701 H 0.4144 0.59956 0.45073 0.0
H702 H 0.46455 0.55224 0.3897 0.0
H703 H 0.48532 0.52874 0.43207 0.0
C704 C 0.40529 0.58814 0.33777 0.0
C705 C 0.40191 0.6184 0.33815 0.0
C706 C 0.41608 0.57499 0.36319 0.0
C707 C 0.42429 0.59167 0.3899 0.0
C708 C 0.42058 0.62184 0.39051 0.0
C709 C 0.40955 0.63499 0.36503 0.0
C710 C 0.44247 0.57098 0.47094 0.0
C711 C 0.46244 0.55057 0.46639 0.0
C712 C 0.43008 0.58435 0.44633 0.0
C713 C 0.43742 0.57774 0.41649 0.0
C714 C 0.45762 0.55749 0.41214 0.0
C715 C 0.46979 0.54406 0.43662 0.0
H716 H 0.10722 0.44447 0.8137 0.0
H717 H 0.10203 0.36442 0.86833 0.0
H718 H 0.09012 0.47025 0.85649 0.0
H719 H 0.08298 0.38954 0.91055 0.0
H720 H 0.07795 0.45174 0.99047 0.0
H721 H 0.09769 0.42702 0.94801 0.0
H722 H 0.04617 0.47314 0.88665 0.0
H723 H 0.02755 0.49852 0.92884 0.0
C724 C 0.10238 0.43223 0.83476 0.0
C725 C 0.10613 0.40217 0.83722 0.0
C726 C 0.09209 0.44698 0.85937 0.0
C727 C 0.08498 0.43215 0.8873 0.0
C728 C 0.08856 0.40203 0.88971 0.0
C729 C 0.09903 0.38735 0.86515 0.0
C730 C 0.07102 0.45676 0.9679 0.0
C731 C 0.05121 0.47731 0.96324 0.0
C732 C 0.08214 0.44234 0.94344 0.0
C733 C 0.07362 0.44788 0.91358 0.0
C734 C 0.05386 0.46854 0.90906 0.0
C735 C 0.04295 0.48306 0.93344 0.0
H736 H 0.59239 0.88261 0.89206 0.0
H737 H 0.57202 0.82005 0.96682 0.0
H738 H 0.56087 0.91462 0.91544 0.0
H739 H 0.54008 0.85214 0.99023 0.0
H740 H 0.49553 0.96556 0.96264 0.0
H741 H 0.51037 0.92401 0.93485 0.0
H742 H 0.5592 0.90111 1.01381 0.0
H743 H 0.54419 0.94174 0.04137 0.0
C744 C 0.58019 0.87506 0.91297 0.0
C745 C 0.58505 0.84893 0.92778 0.0
C746 C 0.56208 0.89351 0.92641 0.0
C747 C 0.54842 0.88622 0.95494 0.0
C748 C 0.55092 0.85871 0.96851 0.0
C749 C 0.56914 0.84029 0.95511 0.0
C750 C 0.50918 0.95143 0.97405 0.0
C751 C 0.51899 0.95722 1.0041 0.0
C752 C 0.51767 0.92766 0.95816 0.0
C753 C 0.53583 0.90914 0.97216 0.0
C754 C 0.5447 0.9145 1.00245 0.0
C755 C 0.53642 0.93818 1.01817 0.0
H756 H 0.87985 0.18293 0.38715 0.0
H757 H 0.96486 0.24329 0.42232 0.0
H758 H 0.89714 0.13969 0.40847 0.0
H759 H 0.9821 0.1999 0.44417 0.0
H760 H 0.91816 0.07499 0.48039 0.0
H761 H 0.90264 0.11808 0.45697 0.0
H762 H 1.00108 0.15481 0.43131 0.0
H763 H 0.01686 0.11195 0.45551 0.0
C764 C 0.9021 0.18697 0.39976 0.0
C765 C 0.92083 0.21653 0.40337 0.0
C766 C 0.91203 0.16218 0.41197 0.0
C767 C 0.94089 0.16633 0.42822 0.0
C768 C 0.9599 0.19588 0.43149 0.0
C769 C 0.95001 0.22074 0.41909 0.0
C770 C 0.93652 0.09211 0.4696 0.0
C771 C 0.96876 0.08996 0.46982 0.0
C772 C 0.92758 0.11681 0.45605 0.0
C773 C 0.9506 0.13991 0.44222 0.0
C774 C 0.98281 0.1376 0.44211 0.0
C775 C 0.99181 0.11291 0.45578 0.0
H776 H 0.21334 0.63463 0.18523 0.0
H777 H 0.2681 0.61009 0.11144 0.0
H778 H 0.16381 0.61246 0.15845 0.0
H779 H 0.21855 0.58902 0.08442 0.0
H780 H 0.12118 0.58066 0.03407 0.0
H781 H 0.17119 0.60482 0.05979 0.0
H782 H 0.13463 0.56029 0.14262 0.0
H783 H 0.08509 0.53618 0.1172 0.0
C784 C 0.21498 0.62448 0.16341 0.0
C785 C 0.24504 0.62427 0.1507 0.0
C786 C 0.18649 0.61189 0.14797 0.0
C787 C 0.18721 0.59901 0.11924 0.0
C788 C 0.21714 0.59914 0.1063 0.0
C789 C 0.24562 0.61138 0.12187 0.0
C790 C 0.12385 0.57603 0.05775 0.0
C791 C 0.09905 0.5564 0.07347 0.0
C792 C 0.15253 0.58979 0.07246 0.0
C793 C 0.15684 0.58459 0.10332 0.0
C794 C 0.13198 0.56509 0.11897 0.0
C795 C 0.1036 0.55108 0.10425 0.0
H796 H 0.27583 0.36502 0.63415 0.0
H797 H 0.27714 0.45085 0.67684 0.0
H798 H 0.32247 0.38877 0.60416 0.0
H799 H 0.32309 0.47492 0.64629 0.0
H800 H 0.42732 0.49971 0.61756 0.0
H801 H 0.3781 0.47693 0.64338 0.0
H802 H 0.34472 0.42277 0.56476 0.0
H803 H 0.39506 0.44505 0.53903 0.0
C804 C 0.28575 0.38911 0.63673 0.0
C805 C 0.2729 0.40599 0.65808 0.0
C806 C 0.3125 0.4028 0.61944 0.0
C807 C 0.32696 0.43381 0.62286 0.0
C808 C 0.31325 0.45086 0.64347 0.0
C809 C 0.28676 0.4371 0.66096 0.0
C810 C 0.40954 0.48302 0.60557 0.0
C811 C 0.41534 0.47425 0.5761 0.0
C812 C 0.381 0.47006 0.62041 0.0
C813 C 0.35706 0.44803 0.60624 0.0
C814 C 0.36267 0.43939 0.5766 0.0
C815 C 0.39149 0.45229 0.56173 0.0
H816 H 0.81926 0.75016 0.8821 0.0
H817 H 0.76103 0.71584 0.95924 0.0
H818 H 0.85595 0.71811 0.89462 0.0
H819 H 0.79746 0.68276 0.97142 0.0
H820 H 0.89549 0.66412 1.00342 0.0
H821 H 0.85252 0.68933 0.99032 0.0
H822 H 0.86115 0.66622 0.89686 0.0
H823 H 0.90426 0.64133 0.90994 0.0
C824 C 0.8142 0.73553 0.90165 0.0
C825 C 0.7875 0.73578 0.91991 0.0
C826 C 0.83504 0.71688 0.90865 0.0
C827 C 0.8297 0.69789 0.93407 0.0
C828 C 0.80241 0.69739 0.95187 0.0
C829 C 0.78141 0.71608 0.94476 0.0
C830 C 0.88791 0.66411 0.98014 0.0
C831 C 0.90352 0.65108 0.95765 0.0
C832 C 0.8632 0.67845 0.97265 0.0
C833 C 0.85354 0.67997 0.94251 0.0
C834 C 0.86843 0.66596 0.9202 0.0
C835 C 0.89317 0.65175 0.92768 0.0
H836 H 0.43259 0.78732 0.13588 0.0
H837 H 0.40278 0.8259 0.21673 0.0
H838 H 0.44686 0.83761 0.11308 0.0
H839 H 0.4172 0.87661 0.19374 0.0
H840 H 0.48419 0.96396 0.14878 0.0
H841 H 0.46808 0.9149 0.17462 0.0
H842 H 0.41655 0.87624 0.09522 0.0
H843 H 0.43222 0.92489 0.06957 0.0
C844 C 0.4293 0.80661 0.1489 0.0
C845 C 0.41665 0.80257 0.1782 0.0
C846 C 0.43723 0.83542 0.13571 0.0
C847 C 0.43309 0.86113 0.15155 0.0
C848 C 0.42082 0.85727 0.18102 0.0
C849 C 0.41238 0.82824 0.1941 0.0
C850 C 0.4692 0.94506 0.13694 0.0
C851 C 0.45961 0.94847 0.10704 0.0
C852 C 0.45989 0.91699 0.15179 0.0
C853 C 0.44122 0.89162 0.13689 0.0
C854 C 0.43122 0.89523 0.10723 0.0
C855 C 0.44011 0.92325 0.09258 0.0
H856 H 0.14514 0.20963 0.66491 0.0
H857 H 0.05409 0.23579 0.66488 0.0
H858 H 0.12235 0.16598 0.63414 0.0
H859 H 0.03191 0.19326 0.63196 0.0
H860 H 0.99087 0.097 0.59859 0.0
H861 H 0.01332 0.14075 0.62985 0.0
H862 H 0.10517 0.14889 0.58645 0.0
H863 H 0.08292 0.10422 0.55621 0.0
C864 C 0.12019 0.20616 0.65843 0.0
C865 C 0.1015 0.22636 0.66795 0.0
C866 C 0.10719 0.18122 0.64014 0.0
C867 C 0.07513 0.17575 0.63027 0.0
C868 C 0.05652 0.19621 0.63937 0.0
C869 C 0.06945 0.22103 0.65799 0.0
C870 C 0.01589 0.1081 0.59574 0.0
C871 C 0.03509 0.09691 0.57492 0.0
C872 C 0.02879 0.13347 0.61358 0.0
C873 C 0.06122 0.14873 0.6109 0.0
C874 C 0.0803 0.13761 0.58979 0.0
C875 C 0.06749 0.11197 0.57223 0.0
H876 H 0.77844 0.36806 0.43282 0.0
H877 H 0.72278 0.3301 0.35513 0.0
H878 H 0.73109 0.3817 0.45418 0.0
H879 H 0.67555 0.3434 0.37662 0.0
H880 H 0.59051 0.34333 0.43848 0.0
H881 H 0.6383 0.32892 0.41922 0.0
H882 H 0.69564 0.41687 0.44378 0.0
H883 H 0.64792 0.43144 0.46274 0.0
C884 C 0.7562 0.36281 0.42021 0.0
C885 C 0.7544 0.34789 0.39231 0.0
C886 C 0.72907 0.37056 0.43248 0.0
C887 C 0.69955 0.36346 0.41716 0.0
C888 C 0.6978 0.34866 0.38924 0.0
C889 C 0.72489 0.34104 0.37693 0.0
C890 C 0.61328 0.35964 0.43965 0.0
C891 C 0.61536 0.38854 0.45213 0.0
C892 C 0.64065 0.35137 0.42864 0.0
C893 C 0.67072 0.37179 0.42994 0.0
C894 C 0.6729 0.4005 0.44284 0.0
C895 C 0.64553 0.40881 0.45375 0.0
loop_
_geom_bond_atom_site_label_1
_geom_bond_atom_site_label_2
_geom_bond_distance
_geom_bond_site_symmetry_2
_ccdc_geom_bond_type
P0 O11 1.490 . S
P0 C14 1.812 . S
P0 C20 1.803 . S
P0 C26 1.819 . S
H1 C15 0.941 . S
H2 C16 0.939 . S
H3 C18 0.940 . S
H4 C19 0.940 . S
H5 C21 0.939 . S
H6 C22 0.942 . S
H7 C24 0.940 . S
H8 C25 0.939 . S
H9 C27 0.941 . S
H10 C31 0.939 . S
O11 P0 1.490 . S
H12 C28 0.939 . S
H13 C30 0.940 . S
C14 P0 1.812 . S
C14 C15 1.389 . S
C14 C19 1.391 . S
C15 H1 0.941 . S
C15 C14 1.389 . S
C15 C16 1.397 . S
C16 H2 0.939 . S
C16 C15 1.397 . S
C16 C17 1.378 . S
C17 C16 1.378 . S
C17 C18 1.378 . S
C18 H3 0.940 . S
C18 C17 1.378 . S
C18 C19 1.396 . S
C19 H4 0.940 . S
C19 C14 1.391 . S
C19 C18 1.396 . S
C20 P0 1.803 . S
C20 C21 1.378 . S
C20 C25 1.400 . S
C21 H5 0.939 . S
C21 C20 1.378 . S
C21 C22 1.361 . S
C22 H6 0.942 . S
C22 C21 1.361 . S
C22 C23 1.369 . S
C23 C22 1.369 . S
C23 C24 1.404 . S
C24 H7 0.940 . S
C24 C23 1.404 . S
C24 C25 1.389 . S
C25 H8 0.939 . S
C25 C20 1.400 . S
C25 C24 1.389 . S
C26 P0 1.819 . S
C26 C27 1.391 . S
C26 C31 1.391 . S
C27 H9 0.941 . S
C27 C26 1.391 . S
C27 C28 1.396 . S
C28 H12 0.939 . S
C28 C27 1.396 . S
C28 C29 1.397 . S
C29 C28 1.397 . S
C29 C30 1.385 . S
C30 H13 0.940 . S
C30 C29 1.385 . S
C30 C31 1.388 . S
C31 H10 0.939 . S
C31 C26 1.391 . S
C31 C30 1.388 . S
P32 O43 1.490 . S
P32 C46 1.812 . S
P32 C52 1.803 . S
P32 C58 1.819 . S
H33 C47 0.941 . S
H34 C48 0.939 . S
H35 C50 0.940 . S
H36 C51 0.940 . S
H37 C53 0.939 . S
H38 C54 0.942 . S
H39 C56 0.940 . S
H40 C57 0.939 . S
H41 C59 0.941 . S
H42 C63 0.939 . S
O43 P32 1.490 . S
H44 C60 0.939 . S
H45 C62 0.940 . S
C46 P32 1.812 . S
C46 C47 1.389 . S
C46 C51 1.391 . S
C47 H33 0.941 . S
C47 C46 1.389 . S
C47 C48 1.397 . S
C48 H34 0.939 . S
C48 C47 1.397 . S
C48 C49 1.378 . S
C49 C48 1.378 . S
C49 C50 1.378 . S
C50 H35 0.940 . S
C50 C49 1.378 . S
C50 C51 1.396 . S
C51 H36 0.940 . S
C51 C46 1.391 . S
C51 C50 1.396 . S
C52 P32 1.803 . S
C52 C53 1.378 . S
C52 C57 1.400 . S
C53 H37 0.939 . S
C53 C52 1.378 . S
C53 C54 1.361 . S
C54 H38 0.942 . S
C54 C53 1.361 . S
C54 C55 1.369 . S
C55 C54 1.369 . S
C55 C56 1.404 . S
C56 H39 0.940 . S
C56 C55 1.404 . S
C56 C57 1.389 . S
C57 H40 0.939 . S
C57 C52 1.400 . S
C57 C56 1.389 . S
C58 P32 1.819 . S
C58 C59 1.391 . S
C58 C63 1.391 . S
C59 H41 0.941 . S
C59 C58 1.391 . S
C59 C60 1.396 . S
C60 H44 0.939 . S
C60 C59 1.396 . S
C60 C61 1.397 . S
C61 C60 1.397 . S
C61 C62 1.385 . S
C62 H45 0.940 . S
C62 C61 1.385 . S
C62 C63 1.388 . S
C63 H42 0.939 . S
C63 C58 1.391 . S
C63 C62 1.388 . S
P64 O75 1.490 . S
P64 C78 1.812 . S
P64 C84 1.803 . S
P64 C90 1.819 . S
H65 C79 0.941 . S
H66 C80 0.939 . S
H67 C82 0.940 . S
H68 C83 0.940 . S
H69 C85 0.939 . S
H70 C86 0.942 . S
H71 C88 0.940 . S
H72 C89 0.939 . S
H73 C91 0.941 . S
H74 C95 0.939 . S
O75 P64 1.490 . S
H76 C92 0.939 . S
H77 C94 0.940 . S
C78 P64 1.812 . S
C78 C79 1.389 . S
C78 C83 1.391 . S
C79 H65 0.941 . S
C79 C78 1.389 . S
C79 C80 1.397 . S
C80 H66 0.939 . S
C80 C79 1.397 . S
C80 C81 1.378 . S
C81 C80 1.378 . S
C81 C82 1.378 . S
C82 H67 0.940 . S
C82 C81 1.378 . S
C82 C83 1.396 . S
C83 H68 0.940 . S
C83 C78 1.391 . S
C83 C82 1.396 . S
C84 P64 1.803 . S
C84 C85 1.378 . S
C84 C89 1.400 . S
C85 H69 0.939 . S
C85 C84 1.378 . S
C85 C86 1.361 . S
C86 H70 0.942 . S
C86 C85 1.361 . S
C86 C87 1.369 . S
C87 C86 1.369 . S
C87 C88 1.404 . S
C88 H71 0.940 . S
C88 C87 1.404 . S
C88 C89 1.389 . S
C89 H72 0.939 . S
C89 C84 1.400 . S
C89 C88 1.389 . S
C90 P64 1.819 . S
C90 C91 1.391 . S
C90 C95 1.391 . S
C91 H73 0.941 . S
C91 C90 1.391 . S
C91 C92 1.396 . S
C92 H76 0.939 . S
C92 C91 1.396 . S
C92 C93 1.397 . S
C93 C92 1.397 . S
C93 C94 1.385 . S
C94 H77 0.940 . S
C94 C93 1.385 . S
C94 C95 1.388 . S
C95 H74 0.939 . S
C95 C90 1.391 . S
C95 C94 1.388 . S
P96 O107 1.490 . S
P96 C110 1.812 . S
P96 C116 1.803 . S
P96 C122 1.819 . S
H97 C111 0.941 . S
H98 C112 0.939 . S
H99 C114 0.940 . S
H100 C115 0.940 . S
H101 C117 0.939 . S
H102 C118 0.942 . S
H103 C120 0.940 . S
H104 C121 0.939 . S
H105 C123 0.941 . S
H106 C127 0.939 . S
O107 P96 1.490 . S
H108 C124 0.939 . S
H109 C126 0.940 . S
C110 P96 1.812 . S
C110 C111 1.389 . S
C110 C115 1.391 . S
C111 H97 0.941 . S
C111 C110 1.389 . S
C111 C112 1.397 . S
C112 H98 0.939 . S
C112 C111 1.397 . S
C112 C113 1.378 . S
C113 C112 1.378 . S
C113 C114 1.378 . S
C114 H99 0.940 . S
C114 C113 1.378 . S
C114 C115 1.396 . S
C115 H100 0.940 . S
C115 C110 1.391 . S
C115 C114 1.396 . S
C116 P96 1.803 . S
C116 C117 1.378 . S
C116 C121 1.400 . S
C117 H101 0.939 . S
C117 C116 1.378 . S
C117 C118 1.361 . S
C118 H102 0.942 . S
C118 C117 1.361 . S
C118 C119 1.369 . S
C119 C118 1.369 . S
C119 C120 1.404 . S
C120 H103 0.940 . S
C120 C119 1.404 . S
C120 C121 1.389 . S
C121 H104 0.939 . S
C121 C116 1.400 . S
C121 C120 1.389 . S
C122 P96 1.819 . S
C122 C123 1.391 . S
C122 C127 1.391 . S
C123 H105 0.941 . S
C123 C122 1.391 . S
C123 C124 1.396 . S
C124 H108 0.939 . S
C124 C123 1.396 . S
C124 C125 1.397 . S
C125 C124 1.397 . S
C125 C126 1.385 . S
C126 H109 0.940 . S
C126 C125 1.385 . S
C126 C127 1.388 . S
C127 H106 0.939 . S
C127 C122 1.391 . S
C127 C126 1.388 . S
P128 O139 1.490 . S
P128 C142 1.812 . S
P128 C148 1.803 . S
P128 C154 1.819 . S
H129 C143 0.941 . S
H130 C144 0.939 . S
H131 C146 0.940 . S
H132 C147 0.940 . S
H133 C149 0.939 . S
H134 C150 0.942 . S
H135 C152 0.940 . S
H136 C153 0.939 . S
H137 C155 0.941 . S
H138 C159 0.939 . S
O139 P128 1.490 . S
H140 C156 0.939 . S
H141 C158 0.940 . S
C142 P128 1.812 . S
C142 C143 1.389 . S
C142 C147 1.391 . S
C143 H129 0.941 . S
C143 C142 1.389 . S
C143 C144 1.397 . S
C144 H130 0.939 . S
C144 C143 1.397 . S
C144 C145 1.378 . S
C145 C144 1.378 . S
C145 C146 1.378 . S
C146 H131 0.940 . S
C146 C145 1.378 . S
C146 C147 1.396 . S
C147 H132 0.940 . S
C147 C142 1.391 . S
C147 C146 1.396 . S
C148 P128 1.803 . S
C148 C149 1.378 . S
C148 C153 1.400 . S
C149 H133 0.939 . S
C149 C148 1.378 . S
C149 C150 1.361 . S
C150 H134 0.942 . S
C150 C149 1.361 . S
C150 C151 1.369 . S
C151 C150 1.369 . S
C151 C152 1.404 . S
C152 H135 0.940 . S
C152 C151 1.404 . S
C152 C153 1.389 . S
C153 H136 0.939 . S
C153 C148 1.400 . S
C153 C152 1.389 . S
C154 P128 1.819 . S
C154 C155 1.391 . S
C154 C159 1.391 . S
C155 H137 0.941 . S
C155 C154 1.391 . S
C155 C156 1.396 . S
C156 H140 0.939 . S
C156 C155 1.396 . S
C156 C157 1.397 . S
C157 C156 1.397 . S
C157 C158 1.385 . S
C158 H141 0.940 . S
C158 C157 1.385 . S
C158 C159 1.388 . S
C159 H138 0.939 . S
C159 C154 1.391 . S
C159 C158 1.388 . S
P160 O171 1.490 . S
P160 C174 1.812 . S
P160 C180 1.803 . S
P160 C186 1.819 . S
H161 C175 0.941 . S
H162 C176 0.939 . S
H163 C178 0.940 . S
H164 C179 0.940 . S
H165 C181 0.939 . S
H166 C182 0.942 . S
H167 C184 0.940 . S
H168 C185 0.939 . S
H169 C187 0.941 . S
H170 C191 0.939 . S
O171 P160 1.490 . S
H172 C188 0.939 . S
H173 C190 0.940 . S
C174 P160 1.812 . S
C174 C175 1.389 . S
C174 C179 1.391 . S
C175 H161 0.941 . S
C175 C174 1.389 . S
C175 C176 1.397 . S
C176 H162 0.939 . S
C176 C175 1.397 . S
C176 C177 1.378 . S
C177 C176 1.378 . S
C177 C178 1.378 . S
C178 H163 0.940 . S
C178 C177 1.378 . S
C178 C179 1.396 . S
C179 H164 0.940 . S
C179 C174 1.391 . S
C179 C178 1.396 . S
C180 P160 1.803 . S
C180 C181 1.378 . S
C180 C185 1.400 . S
C181 H165 0.939 . S
C181 C180 1.378 . S
C181 C182 1.361 . S
C182 H166 0.942 . S
C182 C181 1.361 . S
C182 C183 1.369 . S
C183 C182 1.369 . S
C183 C184 1.404 . S
C184 H167 0.940 . S
C184 C183 1.404 . S
C184 C185 1.389 . S
C185 H168 0.939 . S
C185 C180 1.400 . S
C185 C184 1.389 . S
C186 P160 1.819 . S
C186 C187 1.391 . S
C186 C191 1.391 . S
C187 H169 0.941 . S
C187 C186 1.391 . S
C187 C188 1.396 . S
C188 H172 0.939 . S
C188 C187 1.396 . S
C188 C189 1.397 . S
C189 C188 1.397 . S
C189 C190 1.385 . S
C190 H173 0.940 . S
C190 C189 1.385 . S
C190 C191 1.388 . S
C191 H170 0.939 . S
C191 C186 1.391 . S
C191 C190 1.388 . S
P192 O203 1.490 . S
P192 C206 1.812 . S
P192 C212 1.803 . S
P192 C218 1.819 . S
H193 C207 0.941 . S
H194 C208 0.939 . S
H195 C210 0.940 . S
H196 C211 0.940 . S
H197 C213 0.939 . S
H198 C214 0.942 . S
H199 C216 0.940 . S
H200 C217 0.939 . S
H201 C219 0.941 . S
H202 C223 0.939 . S
O203 P192 1.490 . S
H204 C220 0.939 . S
H205 C222 0.940 . S
C206 P192 1.812 . S
C206 C207 1.389 . S
C206 C211 1.391 . S
C207 H193 0.941 . S
C207 C206 1.389 . S
C207 C208 1.397 . S
C208 H194 0.939 . S
C208 C207 1.397 . S
C208 C209 1.378 . S
C209 C208 1.378 . S
C209 C210 1.378 . S
C210 H195 0.940 . S
C210 C209 1.378 . S
C210 C211 1.396 . S
C211 H196 0.940 . S
C211 C206 1.391 . S
C211 C210 1.396 . S
C212 P192 1.803 . S
C212 C213 1.378 . S
C212 C217 1.400 . S
C213 H197 0.939 . S
C213 C212 1.378 . S
C213 C214 1.361 . S
C214 H198 0.942 . S
C214 C213 1.361 . S
C214 C215 1.369 . S
C215 C214 1.369 . S
C215 C216 1.404 . S
C216 H199 0.940 . S
C216 C215 1.404 . S
C216 C217 1.389 . S
C217 H200 0.939 . S
C217 C212 1.400 . S
C217 C216 1.389 . S
C218 P192 1.819 . S
C218 C219 1.391 . S
C218 C223 1.391 . S
C219 H201 0.941 . S
C219 C218 1.391 . S
C219 C220 1.396 . S
C220 H204 0.939 . S
C220 C219 1.396 . S
C220 C221 1.397 . S
C221 C220 1.397 . S
C221 C222 1.385 . S
C222 H205 0.940 . S
C222 C221 1.385 . S
C222 C223 1.388 . S
C223 H202 0.939 . S
C223 C218 1.391 . S
C223 C222 1.388 . S
P224 O235 1.490 . S
P224 C238 1.812 . S
P224 C244 1.803 . S
P224 C250 1.819 . S
H225 C239 0.941 . S
H226 C240 0.939 . S
H227 C242 0.940 . S
H228 C243 0.940 . S
H229 C245 0.939 . S
H230 C246 0.942 . S
H231 C248 0.940 . S
H232 C249 0.939 . S
H233 C251 0.941 . S
H234 C255 0.939 . S
O235 P224 1.490 . S
H236 C252 0.939 . S
H237 C254 0.940 . S
C238 P224 1.812 . S
C238 C239 1.389 . S
C238 C243 1.391 . S
C239 H225 0.941 . S
C239 C238 1.389 . S
C239 C240 1.397 . S
C240 H226 0.939 . S
C240 C239 1.397 . S
C240 C241 1.378 . S
C241 C240 1.378 . S
C241 C242 1.378 . S
C242 H227 0.940 . S
C242 C241 1.378 . S
C242 C243 1.396 . S
C243 H228 0.940 . S
C243 C238 1.391 . S
C243 C242 1.396 . S
C244 P224 1.803 . S
C244 C245 1.378 . S
C244 C249 1.400 . S
C245 H229 0.939 . S
C245 C244 1.378 . S
C245 C246 1.361 . S
C246 H230 0.942 . S
C246 C245 1.361 . S
C246 C247 1.369 . S
C247 C246 1.369 . S
C247 C248 1.404 . S
C248 H231 0.940 . S
C248 C247 1.404 . S
C248 C249 1.389 . S
C249 H232 0.939 . S
C249 C244 1.400 . S
C249 C248 1.389 . S
C250 P224 1.819 . S
C250 C251 1.391 . S
C250 C255 1.391 . S
C251 H233 0.941 . S
C251 C250 1.391 . S
C251 C252 1.396 . S
C252 H236 0.939 . S
C252 C251 1.396 . S
C252 C253 1.397 . S
C253 C252 1.397 . S
C253 C254 1.385 . S
C254 H237 0.940 . S
C254 C253 1.385 . S
C254 C255 1.388 . S
C255 H234 0.939 . S
C255 C250 1.391 . S
C255 C254 1.388 . S
Dy256 O259 2.307 1_545 S
Dy256 O261 2.395 . S
Dy256 O262 2.379 . S
Dy256 O264 2.339 1_545 S
Dy256 O266 2.298 . S
Dy256 O270 2.275 . S
Dy256 C278 2.738 . S
Dy257 O260 2.298 1_655 S
Dy257 O263 2.275 . S
Dy257 O265 2.307 1_565 S
Dy257 O267 2.395 . S
Dy257 O268 2.379 . S
Dy257 O271 2.339 1_565 S
Dy257 C287 2.738 . S
C258 O270 1.254 . S
C258 O271 1.257 1_455 S
O259 Dy256 2.307 1_565 S
O259 C269 1.266 . S
O260 Dy257 2.298 1_455 S
O260 C269 1.236 . S
O261 Dy256 2.395 . S
O261 C278 1.255 . S
O262 Dy256 2.379 . S
O262 C278 1.249 . S
O263 Dy257 2.275 . S
O263 C279 1.254 . S
O264 Dy256 2.339 1_565 S
O264 C279 1.257 1_455 S
O265 Dy257 2.307 1_545 S
O265 C280 1.266 . S
O266 Dy256 2.298 . S
O266 C280 1.236 1_455 S
O267 Dy257 2.395 . S
O267 C287 1.255 . S
O268 Dy257 2.379 . S
O268 C287 1.249 . S
C269 O259 1.266 . S
C269 O260 1.236 . S
O270 Dy256 2.275 . S
O270 C258 1.254 . S
O271 Dy257 2.339 1_545 S
O271 C258 1.257 1_655 S
C272 C275 1.344 . S
C272 C276 1.328 . S
C272 C278 1.516 . S
C273 C274 1.304 . S
C273 C277 1.323 . S
C274 C273 1.304 . S
C274 C275 1.371 . S
C274 H288 0.930 . S
C275 C272 1.344 . S
C275 C274 1.371 . S
C275 H289 0.931 . S
C276 C272 1.328 . S
C276 C277 1.433 . S
C276 H290 0.931 . S
C277 C273 1.323 . S
C277 C276 1.433 . S
C277 H291 0.933 . S
C278 Dy256 2.738 . S
C278 O261 1.255 . S
C278 O262 1.249 . S
C278 C272 1.516 . S
C279 O263 1.254 . S
C279 O264 1.257 1_655 S
C280 O265 1.266 . S
C280 O266 1.236 1_655 S
C281 C284 1.344 . S
C281 C285 1.328 . S
C281 C287 1.516 . S
C282 C283 1.304 . S
C282 C286 1.323 . S
C283 C282 1.304 . S
C283 C284 1.371 . S
C283 H292 0.930 . S
C284 C281 1.344 . S
C284 C283 1.371 . S
C284 H293 0.931 . S
C285 C281 1.328 . S
C285 C286 1.433 . S
C285 H294 0.931 . S
C286 C282 1.323 . S
C286 C285 1.433 . S
C286 H295 0.933 . S
C287 Dy257 2.738 . S
C287 O267 1.255 . S
C287 O268 1.249 . S
C287 C281 1.516 . S
H288 C274 0.930 . S
H289 C275 0.931 . S
H290 C276 0.931 . S
H291 C277 0.933 . S
H292 C283 0.930 . S
H293 C284 0.931 . S
H294 C285 0.931 . S
H295 C286 0.933 . S
Dy296 O299 2.307 1_556 S
Dy296 O301 2.395 1_545 S
Dy296 O302 2.379 1_545 S
Dy296 O304 2.339 . S
Dy296 O306 2.298 1_545 S
Dy296 O310 2.275 1_546 S
Dy296 C318 2.738 1_545 S
Dy297 O300 2.298 . S
Dy297 O303 2.275 1_554 S
Dy297 O305 2.307 1_544 S
Dy297 O307 2.395 . S
Dy297 O308 2.379 . S
Dy297 O311 2.339 1_545 S
Dy297 C327 2.738 . S
C298 O310 1.254 . S
C298 O311 1.257 . S
O299 Dy296 2.307 1_554 S
O299 C309 1.266 . S
O300 Dy297 2.298 . S
O300 C309 1.236 . S
O301 Dy296 2.395 1_565 S
O301 C318 1.255 . S
O302 Dy296 2.379 1_565 S
O302 C318 1.249 . S
O303 Dy297 2.275 1_556 S
O303 C319 1.254 . S
O304 Dy296 2.339 . S
O304 C319 1.257 . S
O305 Dy297 2.307 1_566 S
O305 C320 1.266 . S
O306 Dy296 2.298 1_565 S
O306 C320 1.236 . S
O307 Dy297 2.395 . S
O307 C327 1.255 . S
O308 Dy297 2.379 . S
O308 C327 1.249 . S
C309 O299 1.266 . S
C309 O300 1.236 . S
O310 Dy296 2.275 1_564 S
O310 C298 1.254 . S
O311 Dy297 2.339 1_565 S
O311 C298 1.257 . S
C312 C315 1.344 . S
C312 C316 1.328 . S
C312 C318 1.516 . S
C313 C314 1.304 . S
C313 C317 1.323 . S
C314 C313 1.304 . S
C314 C315 1.371 . S
C314 H328 0.930 . S
C315 C312 1.344 . S
C315 C314 1.371 . S
C315 H329 0.931 . S
C316 C312 1.328 . S
C316 C317 1.433 . S
C316 H330 0.931 . S
C317 C313 1.323 . S
C317 C316 1.433 . S
C317 H331 0.933 . S
C318 Dy296 2.738 1_565 S
C318 O301 1.255 . S
C318 O302 1.249 . S
C318 C312 1.516 . S
C319 O303 1.254 . S
C319 O304 1.257 . S
C320 O305 1.266 . S
C320 O306 1.236 . S
C321 C324 1.344 . S
C321 C325 1.328 . S
C321 C327 1.516 . S
C322 C323 1.304 . S
C322 C326 1.323 . S
C323 C322 1.304 . S
C323 C324 1.371 . S
C323 H332 0.930 . S
C324 C321 1.344 . S
C324 C323 1.371 . S
C324 H333 0.931 . S
C325 C321 1.328 . S
C325 C326 1.433 . S
C325 H334 0.931 . S
C326 C322 1.323 . S
C326 C325 1.433 . S
C326 H335 0.933 . S
C327 Dy297 2.738 . S
C327 O307 1.255 . S
C327 O308 1.249 . S
C327 C321 1.516 . S
H328 C314 0.930 . S
H329 C315 0.931 . S
H330 C316 0.931 . S
H331 C317 0.933 . S
H332 C323 0.930 . S
H333 C324 0.931 . S
H334 C325 0.931 . S
H335 C326 0.933 . S
Dy336 O339 2.307 . S
Dy336 O341 2.395 . S
Dy336 O342 2.379 . S
Dy336 O344 2.339 . S
Dy336 O346 2.298 . S
Dy336 O350 2.275 . S
Dy336 C358 2.738 . S
Dy337 O340 2.298 . S
Dy337 O343 2.275 . S
Dy337 O345 2.307 . S
Dy337 O347 2.395 . S
Dy337 O348 2.379 . S
Dy337 O351 2.339 . S
Dy337 C367 2.738 . S
C338 O350 1.254 . S
C338 O351 1.257 . S
O339 Dy336 2.307 . S
O339 C349 1.266 . S
O340 Dy337 2.298 . S
O340 C349 1.236 . S
O341 Dy336 2.395 . S
O341 C358 1.255 . S
O342 Dy336 2.379 . S
O342 C358 1.249 . S
O343 Dy337 2.275 . S
O343 C359 1.254 . S
O344 Dy336 2.339 . S
O344 C359 1.257 . S
O345 Dy337 2.307 . S
O345 C360 1.266 . S
O346 Dy336 2.298 . S
O346 C360 1.236 . S
O347 Dy337 2.395 . S
O347 C367 1.255 . S
O348 Dy337 2.379 . S
O348 C367 1.249 . S
C349 O339 1.266 . S
C349 O340 1.236 . S
O350 Dy336 2.275 . S
O350 C338 1.254 . S
O351 Dy337 2.339 . S
O351 C338 1.257 . S
C352 C355 1.344 . S
C352 C356 1.328 . S
C352 C358 1.516 . S
C353 C354 1.304 . S
C353 C357 1.323 . S
C354 C353 1.304 . S
C354 C355 1.371 . S
C354 H368 0.930 . S
C355 C352 1.344 . S
C355 C354 1.371 . S
C355 H369 0.931 . S
C356 C352 1.328 . S
C356 C357 1.433 . S
C356 H370 0.931 . S
C357 C353 1.323 . S
C357 C356 1.433 . S
C357 H371 0.933 . S
C358 Dy336 2.738 . S
C358 O341 1.255 . S
C358 O342 1.249 . S
C358 C352 1.516 . S
C359 O343 1.254 . S
C359 O344 1.257 . S
C360 O345 1.266 . S
C360 O346 1.236 . S
C361 C364 1.344 . S
C361 C365 1.328 . S
C361 C367 1.516 . S
C362 C363 1.304 . S
C362 C366 1.323 . S
C363 C362 1.304 . S
C363 C364 1.371 . S
C363 H372 0.930 . S
C364 C361 1.344 . S
C364 C363 1.371 . S
C364 H373 0.931 . S
C365 C361 1.328 . S
C365 C366 1.433 . S
C365 H374 0.931 . S
C366 C362 1.323 . S
C366 C365 1.433 . S
C366 H375 0.933 . S
C367 Dy337 2.738 . S
C367 O347 1.255 . S
C367 O348 1.249 . S
C367 C361 1.516 . S
H368 C354 0.930 . S
H369 C355 0.931 . S
H370 C356 0.931 . S
H371 C357 0.933 . S
H372 C363 0.930 . S
H373 C364 0.931 . S
H374 C365 0.931 . S
H375 C366 0.933 . S
Dy376 O379 2.305 1_556 S
Dy376 O381 2.397 1_455 S
Dy376 O382 2.380 1_455 S
Dy376 O384 2.337 . S
Dy376 O386 2.299 1_455 S
Dy376 O390 2.276 1_456 S
Dy376 C398 2.740 1_455 S
Dy377 O380 2.298 . S
Dy377 O383 2.275 1_554 S
Dy377 O385 2.307 1_455 S
Dy377 O387 2.395 . S
Dy377 O388 2.379 . S
Dy377 O391 2.339 1_455 S
Dy377 C407 2.738 . S
C378 O390 1.254 . S
C378 O391 1.257 . S
O379 Dy376 2.305 1_554 S
O379 C389 1.266 . S
O380 Dy377 2.298 . S
O380 C389 1.236 . S
O381 Dy376 2.397 1_655 S
O381 C398 1.255 . S
O382 Dy376 2.380 1_655 S
O382 C398 1.249 . S
O383 Dy377 2.275 1_556 S
O383 C399 1.254 . S
O384 Dy376 2.337 . S
O384 C399 1.257 . S
O385 Dy377 2.307 1_655 S
O385 C400 1.266 1_554 S
O386 Dy376 2.299 1_655 S
O386 C400 1.236 . S
O387 Dy377 2.395 . S
O387 C407 1.255 . S
O388 Dy377 2.379 . S
O388 C407 1.249 . S
C389 O379 1.266 . S
C389 O380 1.236 . S
O390 Dy376 2.276 1_654 S
O390 C378 1.254 . S
O391 Dy377 2.339 1_655 S
O391 C378 1.257 . S
C392 C395 1.344 . S
C392 C396 1.328 . S
C392 C398 1.516 . S
C393 C394 1.304 . S
C393 C397 1.323 . S
C394 C393 1.304 . S
C394 C395 1.371 . S
C394 H408 0.930 . S
C395 C392 1.344 . S
C395 C394 1.371 . S
C395 H409 0.931 . S
C396 C392 1.328 . S
C396 C397 1.433 . S
C396 H410 0.931 . S
C397 C393 1.323 . S
C397 C396 1.433 . S
C397 H411 0.933 . S
C398 Dy376 2.740 1_655 S
C398 O381 1.255 . S
C398 O382 1.249 . S
C398 C392 1.516 . S
C399 O383 1.254 . S
C399 O384 1.257 . S
C400 O385 1.266 1_556 S
C400 O386 1.236 . S
C401 C404 1.344 . S
C401 C405 1.328 . S
C401 C407 1.516 . S
C402 C403 1.304 . S
C402 C406 1.323 . S
C403 C402 1.304 . S
C403 C404 1.371 . S
C403 H412 0.930 . S
C404 C401 1.344 . S
C404 C403 1.371 . S
C404 H413 0.931 . S
C405 C401 1.328 . S
C405 C406 1.433 . S
C405 H414 0.931 . S
C406 C402 1.323 . S
C406 C405 1.433 . S
C406 H415 0.933 . S
C407 Dy377 2.738 . S
C407 O387 1.255 . S
C407 O388 1.249 . S
C407 C401 1.516 . S
H408 C394 0.930 . S
H409 C395 0.931 . S
H410 C396 0.931 . S
H411 C397 0.933 . S
H412 C403 0.930 . S
H413 C404 0.931 . S
H414 C405 0.931 . S
H415 C406 0.933 . S
H416 C424 0.950 . S
H417 C429 0.950 . S
H418 C426 0.950 . S
H419 C428 0.950 . S
H420 C430 0.950 . S
H421 C432 0.950 . S
H422 C434 0.950 . S
H423 C435 0.950 . S
C424 H416 0.950 . S
C424 C425 1.386 . S
C424 C426 1.391 . S
C425 C424 1.386 . S
C425 C429 1.393 . S
C426 H418 0.950 . S
C426 C424 1.391 . S
C426 C427 1.400 . S
C427 C426 1.400 . S
C427 C428 1.398 . S
C427 C433 1.491 . S
C428 H419 0.950 . S
C428 C427 1.398 . S
C428 C429 1.391 . S
C429 H417 0.950 . S
C429 C425 1.393 . S
C429 C428 1.391 . S
C430 H420 0.950 . S
C430 C431 1.386 . S
C430 C432 1.391 . S
C431 C430 1.386 . S
C431 C435 1.393 . S
C432 H421 0.950 . S
C432 C430 1.391 . S
C432 C433 1.400 . S
C433 C427 1.491 . S
C433 C432 1.400 . S
C433 C434 1.398 . S
C434 H422 0.950 . S
C434 C433 1.398 . S
C434 C435 1.391 . S
C435 H423 0.950 . S
C435 C431 1.393 . S
C435 C434 1.391 . S
H436 C444 0.950 . S
H437 C449 0.950 . S
H438 C446 0.950 . S
H439 C448 0.950 . S
H440 C450 0.950 . S
H441 C452 0.950 . S
H442 C454 0.950 . S
H443 C455 0.950 . S
C444 H436 0.950 . S
C444 C445 1.386 . S
C444 C446 1.391 . S
C445 C444 1.386 . S
C445 C449 1.393 . S
C446 H438 0.950 . S
C446 C444 1.391 . S
C446 C447 1.400 . S
C447 C446 1.400 . S
C447 C448 1.398 . S
C447 C453 1.491 . S
C448 H439 0.950 . S
C448 C447 1.398 . S
C448 C449 1.391 . S
C449 H437 0.950 . S
C449 C445 1.393 . S
C449 C448 1.391 . S
C450 H440 0.950 . S
C450 C451 1.386 . S
C450 C452 1.391 . S
C451 C450 1.386 . S
C451 C455 1.393 . S
C452 H441 0.950 . S
C452 C450 1.391 . S
C452 C453 1.400 . S
C453 C447 1.491 . S
C453 C452 1.400 . S
C453 C454 1.398 . S
C454 H442 0.950 . S
C454 C453 1.398 . S
C454 C455 1.391 . S
C455 H443 0.950 . S
C455 C451 1.393 . S
C455 C454 1.391 . S
H456 C464 0.950 . S
H457 C469 0.950 . S
H458 C466 0.950 . S
H459 C468 0.950 . S
H460 C470 0.950 . S
H461 C472 0.950 . S
H462 C474 0.950 . S
H463 C475 0.950 . S
C464 H456 0.950 . S
C464 C465 1.386 . S
C464 C466 1.391 . S
C465 C464 1.386 . S
C465 C469 1.393 . S
C466 H458 0.950 . S
C466 C464 1.391 . S
C466 C467 1.400 . S
C467 C466 1.400 . S
C467 C468 1.398 . S
C467 C473 1.491 . S
C468 H459 0.950 . S
C468 C467 1.398 . S
C468 C469 1.391 . S
C469 H457 0.950 . S
C469 C465 1.393 . S
C469 C468 1.391 . S
C470 H460 0.950 . S
C470 C471 1.386 . S
C470 C472 1.391 . S
C471 C470 1.386 . S
C471 C475 1.393 . S
C472 H461 0.950 . S
C472 C470 1.391 . S
C472 C473 1.400 . S
C473 C467 1.491 . S
C473 C472 1.400 . S
C473 C474 1.398 . S
C474 H462 0.950 . S
C474 C473 1.398 . S
C474 C475 1.391 . S
C475 H463 0.950 . S
C475 C471 1.393 . S
C475 C474 1.391 . S
H476 C484 0.950 . S
H477 C489 0.950 . S
H478 C486 0.950 . S
H479 C488 0.950 . S
H480 C490 0.950 . S
H481 C492 0.950 . S
H482 C494 0.950 . S
H483 C495 0.950 . S
C484 H476 0.950 . S
C484 C485 1.386 . S
C484 C486 1.391 . S
C485 C484 1.386 . S
C485 C489 1.393 . S
C486 H478 0.950 . S
C486 C484 1.391 . S
C486 C487 1.400 . S
C487 C486 1.400 . S
C487 C488 1.398 . S
C487 C493 1.491 . S
C488 H479 0.950 . S
C488 C487 1.398 . S
C488 C489 1.391 . S
C489 H477 0.950 . S
C489 C485 1.393 . S
C489 C488 1.391 . S
C490 H480 0.950 . S
C490 C491 1.386 . S
C490 C492 1.391 . S
C491 C490 1.386 . S
C491 C495 1.393 . S
C492 H481 0.950 . S
C492 C490 1.391 . S
C492 C493 1.400 . S
C493 C487 1.491 . S
C493 C492 1.400 . S
C493 C494 1.398 . S
C494 H482 0.950 . S
C494 C493 1.398 . S
C494 C495 1.391 . S
C495 H483 0.950 . S
C495 C491 1.393 . S
C495 C494 1.391 . S
H496 C504 0.950 . S
H497 C509 0.950 . S
H498 C506 0.950 . S
H499 C508 0.950 . S
H500 C510 0.950 . S
H501 C512 0.950 . S
H502 C514 0.950 . S
H503 C515 0.950 . S
C504 H496 0.950 . S
C504 C505 1.386 . S
C504 C506 1.391 . S
C505 C504 1.386 . S
C505 C509 1.393 . S
C506 H498 0.950 . S
C506 C504 1.391 . S
C506 C507 1.400 . S
C507 C506 1.400 . S
C507 C508 1.398 . S
C507 C513 1.491 . S
C508 H499 0.950 . S
C508 C507 1.398 . S
C508 C509 1.391 . S
C509 H497 0.950 . S
C509 C505 1.393 . S
C509 C508 1.391 . S
C510 H500 0.950 . S
C510 C511 1.386 . S
C510 C512 1.391 . S
C511 C510 1.386 . S
C511 C515 1.393 . S
C512 H501 0.950 . S
C512 C510 1.391 . S
C512 C513 1.400 . S
C513 C507 1.491 . S
C513 C512 1.400 . S
C513 C514 1.398 . S
C514 H502 0.950 . S
C514 C513 1.398 . S
C514 C515 1.391 . S
C515 H503 0.950 . S
C515 C511 1.393 . S
C515 C514 1.391 . S
H516 C524 0.950 . S
H517 C529 0.950 . S
H518 C526 0.950 . S
H519 C528 0.950 . S
H520 C530 0.950 . S
H521 C532 0.950 . S
H522 C534 0.950 . S
H523 C535 0.950 . S
C524 H516 0.950 . S
C524 C525 1.386 . S
C524 C526 1.391 . S
C525 C524 1.386 . S
C525 C529 1.393 . S
C526 H518 0.950 . S
C526 C524 1.391 . S
C526 C527 1.400 . S
C527 C526 1.400 . S
C527 C528 1.398 . S
C527 C533 1.491 . S
C528 H519 0.950 . S
C528 C527 1.398 . S
C528 C529 1.391 . S
C529 H517 0.950 . S
C529 C525 1.393 . S
C529 C528 1.391 . S
C530 H520 0.950 . S
C530 C531 1.386 . S
C530 C532 1.391 . S
C531 C530 1.386 . S
C531 C535 1.393 . S
C532 H521 0.950 . S
C532 C530 1.391 . S
C532 C533 1.400 . S
C533 C527 1.491 . S
C533 C532 1.400 . S
C533 C534 1.398 . S
C534 H522 0.950 . S
C534 C533 1.398 . S
C534 C535 1.391 . S
C535 H523 0.950 . S
C535 C531 1.393 . S
C535 C534 1.391 . S
H536 C544 0.950 . S
H537 C549 0.950 . S
H538 C546 0.950 . S
H539 C548 0.950 . S
H540 C550 0.950 . S
H541 C552 0.950 . S
H542 C554 0.950 . S
H543 C555 0.950 . S
C544 H536 0.950 . S
C544 C545 1.386 . S
C544 C546 1.391 . S
C545 C544 1.386 . S
C545 C549 1.393 . S
C546 H538 0.950 . S
C546 C544 1.391 . S
C546 C547 1.400 . S
C547 C546 1.400 . S
C547 C548 1.398 . S
C547 C553 1.491 . S
C548 H539 0.950 . S
C548 C547 1.398 . S
C548 C549 1.391 . S
C549 H537 0.950 . S
C549 C545 1.393 . S
C549 C548 1.391 . S
C550 H540 0.950 . S
C550 C551 1.386 . S
C550 C552 1.391 . S
C551 C550 1.386 . S
C551 C555 1.393 . S
C552 H541 0.950 . S
C552 C550 1.391 . S
C552 C553 1.400 . S
C553 C547 1.491 . S
C553 C552 1.400 . S
C553 C554 1.398 . S
C554 H542 0.950 . S
C554 C553 1.398 . S
C554 C555 1.391 . S
C555 H543 0.950 . S
C555 C551 1.393 . S
C555 C554 1.391 . S
H556 C564 0.950 . S
H557 C569 0.950 . S
H558 C566 0.950 . S
H559 C568 0.950 . S
H560 C570 0.950 . S
H561 C572 0.950 . S
H562 C574 0.950 . S
H563 C575 0.950 . S
C564 H556 0.950 . S
C564 C565 1.386 . S
C564 C566 1.391 . S
C565 C564 1.386 . S
C565 C569 1.393 . S
C566 H558 0.950 . S
C566 C564 1.391 . S
C566 C567 1.400 . S
C567 C566 1.400 . S
C567 C568 1.398 . S
C567 C573 1.491 . S
C568 H559 0.950 . S
C568 C567 1.398 . S
C568 C569 1.391 . S
C569 H557 0.950 . S
C569 C565 1.393 . S
C569 C568 1.391 . S
C570 H560 0.950 . S
C570 C571 1.386 . S
C570 C572 1.391 . S
C571 C570 1.386 . S
C571 C575 1.393 . S
C572 H561 0.950 . S
C572 C570 1.391 . S
C572 C573 1.400 . S
C573 C567 1.491 . S
C573 C572 1.400 . S
C573 C574 1.398 . S
C574 H562 0.950 . S
C574 C573 1.398 . S
C574 C575 1.391 . S
C575 H563 0.950 . S
C575 C571 1.393 . S
C575 C574 1.391 . S
H576 C584 0.950 . S
H577 C589 0.950 . S
H578 C586 0.950 . S
H579 C588 0.950 . S
H580 C590 0.950 . S
H581 C592 0.950 . S
H582 C594 0.950 . S
H583 C595 0.950 . S
C584 H576 0.950 . S
C584 C585 1.386 . S
C584 C586 1.391 . S
C585 C584 1.386 . S
C585 C589 1.393 . S
C586 H578 0.950 . S
C586 C584 1.391 . S
C586 C587 1.400 . S
C587 C586 1.400 . S
C587 C588 1.398 . S
C587 C593 1.491 . S
C588 H579 0.950 . S
C588 C587 1.398 . S
C588 C589 1.391 . S
C589 H577 0.950 . S
C589 C585 1.393 . S
C589 C588 1.391 . S
C590 H580 0.950 . S
C590 C591 1.386 . S
C590 C592 1.391 . S
C591 C590 1.386 . S
C591 C595 1.393 . S
C592 H581 0.950 . S
C592 C590 1.391 . S
C592 C593 1.400 . S
C593 C587 1.491 . S
C593 C592 1.400 . S
C593 C594 1.398 . S
C594 H582 0.950 . S
C594 C593 1.398 . S
C594 C595 1.391 . S
C595 H583 0.950 . S
C595 C591 1.393 . S
C595 C594 1.391 . S
H596 C604 0.950 . S
H597 C609 0.950 . S
H598 C606 0.950 . S
H599 C608 0.950 . S
H600 C610 0.950 . S
H601 C612 0.950 . S
H602 C614 0.950 . S
H603 C615 0.950 . S
C604 H596 0.950 . S
C604 C605 1.386 . S
C604 C606 1.391 . S
C605 C604 1.386 . S
C605 C609 1.393 . S
C606 H598 0.950 . S
C606 C604 1.391 . S
C606 C607 1.400 . S
C607 C606 1.400 . S
C607 C608 1.398 . S
C607 C613 1.491 . S
C608 H599 0.950 . S
C608 C607 1.398 . S
C608 C609 1.391 . S
C609 H597 0.950 . S
C609 C605 1.393 . S
C609 C608 1.391 . S
C610 H600 0.950 . S
C610 C611 1.386 . S
C610 C612 1.391 . S
C611 C610 1.386 . S
C611 C615 1.393 . S
C612 H601 0.950 . S
C612 C610 1.391 . S
C612 C613 1.400 . S
C613 C607 1.491 . S
C613 C612 1.400 . S
C613 C614 1.398 . S
C614 H602 0.950 . S
C614 C613 1.398 . S
C614 C615 1.391 . S
C615 H603 0.950 . S
C615 C611 1.393 . S
C615 C614 1.391 . S
H616 C624 0.950 . S
H617 C629 0.950 . S
H618 C626 0.950 . S
H619 C628 0.950 . S
H620 C630 0.950 1_455 S
H621 C632 0.950 . S
H622 C634 0.950 . S
H623 C635 0.950 . S
C624 H616 0.950 . S
C624 C625 1.386 . S
C624 C626 1.391 . S
C625 C624 1.386 . S
C625 C629 1.393 . S
C626 H618 0.950 . S
C626 C624 1.391 . S
C626 C627 1.400 . S
C627 C626 1.400 . S
C627 C628 1.398 . S
C627 C633 1.491 . S
C628 H619 0.950 . S
C628 C627 1.398 . S
C628 C629 1.391 . S
C629 H617 0.950 . S
C629 C625 1.393 . S
C629 C628 1.391 . S
C630 H620 0.950 1_655 S
C630 C631 1.386 . S
C630 C632 1.391 . S
C631 C630 1.386 . S
C631 C635 1.393 . S
C632 H621 0.950 . S
C632 C630 1.391 . S
C632 C633 1.400 . S
C633 C627 1.491 . S
C633 C632 1.400 . S
C633 C634 1.398 . S
C634 H622 0.950 . S
C634 C633 1.398 . S
C634 C635 1.391 . S
C635 H623 0.950 . S
C635 C631 1.393 . S
C635 C634 1.391 . S
H636 C644 0.950 . S
H637 C649 0.950 . S
H638 C646 0.950 . S
H639 C648 0.950 . S
H640 C650 0.950 . S
H641 C652 0.950 . S
H642 C654 0.950 . S
H643 C655 0.950 . S
C644 H636 0.950 . S
C644 C645 1.386 . S
C644 C646 1.391 . S
C645 C644 1.386 . S
C645 C649 1.393 . S
C646 H638 0.950 . S
C646 C644 1.391 . S
C646 C647 1.400 . S
C647 C646 1.400 . S
C647 C648 1.398 . S
C647 C653 1.491 . S
C648 H639 0.950 . S
C648 C647 1.398 . S
C648 C649 1.391 . S
C649 H637 0.950 . S
C649 C645 1.393 . S
C649 C648 1.391 . S
C650 H640 0.950 . S
C650 C651 1.386 . S
C650 C652 1.391 . S
C651 C650 1.386 . S
C651 C655 1.393 . S
C652 H641 0.950 . S
C652 C650 1.391 . S
C652 C653 1.400 . S
C653 C647 1.491 . S
C653 C652 1.400 . S
C653 C654 1.398 . S
C654 H642 0.950 . S
C654 C653 1.398 . S
C654 C655 1.391 . S
C655 H643 0.950 . S
C655 C651 1.393 . S
C655 C654 1.391 . S
H656 C664 0.950 . S
H657 C669 0.950 . S
H658 C666 0.950 . S
H659 C668 0.950 . S
H660 C670 0.950 . S
H661 C672 0.950 . S
H662 C674 0.950 . S
H663 C675 0.950 . S
C664 H656 0.950 . S
C664 C665 1.386 . S
C664 C666 1.391 . S
C665 C664 1.386 . S
C665 C669 1.393 . S
C666 H658 0.950 . S
C666 C664 1.391 . S
C666 C667 1.400 . S
C667 C666 1.400 . S
C667 C668 1.398 . S
C667 C673 1.491 . S
C668 H659 0.950 . S
C668 C667 1.398 . S
C668 C669 1.391 . S
C669 H657 0.950 . S
C669 C665 1.393 . S
C669 C668 1.391 . S
C670 H660 0.950 . S
C670 C671 1.386 . S
C670 C672 1.391 . S
C671 C670 1.386 . S
C671 C675 1.393 . S
C672 H661 0.950 . S
C672 C670 1.391 . S
C672 C673 1.400 . S
C673 C667 1.491 . S
C673 C672 1.400 . S
C673 C674 1.398 . S
C674 H662 0.950 . S
C674 C673 1.398 . S
C674 C675 1.391 . S
C675 H663 0.950 . S
C675 C671 1.393 . S
C675 C674 1.391 . S
H676 C684 0.950 . S
H677 C689 0.950 . S
H678 C686 0.950 . S
H679 C688 0.950 . S
H680 C690 0.950 . S
H681 C692 0.950 . S
H682 C694 0.950 . S
H683 C695 0.950 . S
C684 H676 0.950 . S
C684 C685 1.386 . S
C684 C686 1.391 . S
C685 C684 1.386 . S
C685 C689 1.393 . S
C686 H678 0.950 . S
C686 C684 1.391 . S
C686 C687 1.400 . S
C687 C686 1.400 . S
C687 C688 1.398 . S
C687 C693 1.491 . S
C688 H679 0.950 . S
C688 C687 1.398 . S
C688 C689 1.391 . S
C689 H677 0.950 . S
C689 C685 1.393 . S
C689 C688 1.391 . S
C690 H680 0.950 . S
C690 C691 1.386 . S
C690 C692 1.391 . S
C691 C690 1.386 . S
C691 C695 1.393 . S
C692 H681 0.950 . S
C692 C690 1.391 . S
C692 C693 1.400 . S
C693 C687 1.491 . S
C693 C692 1.400 . S
C693 C694 1.398 . S
C694 H682 0.950 . S
C694 C693 1.398 . S
C694 C695 1.391 . S
C695 H683 0.950 . S
C695 C691 1.393 . S
C695 C694 1.391 . S
H696 C704 0.950 . S
H697 C709 0.950 . S
H698 C706 0.950 . S
H699 C708 0.950 . S
H700 C710 0.950 . S
H701 C712 0.950 . S
H702 C714 0.950 . S
H703 C715 0.950 . S
C704 H696 0.950 . S
C704 C705 1.386 . S
C704 C706 1.391 . S
C705 C704 1.386 . S
C705 C709 1.393 . S
C706 H698 0.950 . S
C706 C704 1.391 . S
C706 C707 1.400 . S
C707 C706 1.400 . S
C707 C708 1.398 . S
C707 C713 1.491 . S
C708 H699 0.950 . S
C708 C707 1.398 . S
C708 C709 1.391 . S
C709 H697 0.950 . S
C709 C705 1.393 . S
C709 C708 1.391 . S
C710 H700 0.950 . S
C710 C711 1.386 . S
C710 C712 1.391 . S
C711 C710 1.386 . S
C711 C715 1.393 . S
C712 H701 0.950 . S
C712 C710 1.391 . S
C712 C713 1.400 . S
C713 C707 1.491 . S
C713 C712 1.400 . S
C713 C714 1.398 . S
C714 H702 0.950 . S
C714 C713 1.398 . S
C714 C715 1.391 . S
C715 H703 0.950 . S
C715 C711 1.393 . S
C715 C714 1.391 . S
H716 C724 0.950 . S
H717 C729 0.950 . S
H718 C726 0.950 . S
H719 C728 0.950 . S
H720 C730 0.950 . S
H721 C732 0.950 . S
H722 C734 0.950 . S
H723 C735 0.950 . S
C724 H716 0.950 . S
C724 C725 1.386 . S
C724 C726 1.391 . S
C725 C724 1.386 . S
C725 C729 1.393 . S
C726 H718 0.950 . S
C726 C724 1.391 . S
C726 C727 1.400 . S
C727 C726 1.400 . S
C727 C728 1.398 . S
C727 C733 1.491 . S
C728 H719 0.950 . S
C728 C727 1.398 . S
C728 C729 1.391 . S
C729 H717 0.950 . S
C729 C725 1.393 . S
C729 C728 1.391 . S
C730 H720 0.950 . S
C730 C731 1.386 . S
C730 C732 1.391 . S
C731 C730 1.386 . S
C731 C735 1.393 . S
C732 H721 0.950 . S
C732 C730 1.391 . S
C732 C733 1.400 . S
C733 C727 1.491 . S
C733 C732 1.400 . S
C733 C734 1.398 . S
C734 H722 0.950 . S
C734 C733 1.398 . S
C734 C735 1.391 . S
C735 H723 0.950 . S
C735 C731 1.393 . S
C735 C734 1.391 . S
H736 C744 0.950 . S
H737 C749 0.950 . S
H738 C746 0.950 . S
H739 C748 0.950 . S
H740 C750 0.950 . S
H741 C752 0.950 . S
H742 C754 0.950 . S
H743 C755 0.950 . S
C744 H736 0.950 . S
C744 C745 1.386 . S
C744 C746 1.391 . S
C745 C744 1.386 . S
C745 C749 1.393 . S
C746 H738 0.950 . S
C746 C744 1.391 . S
C746 C747 1.400 . S
C747 C746 1.400 . S
C747 C748 1.398 . S
C747 C753 1.491 . S
C748 H739 0.950 . S
C748 C747 1.398 . S
C748 C749 1.391 . S
C749 H737 0.950 . S
C749 C745 1.393 . S
C749 C748 1.391 . S
C750 H740 0.950 . S
C750 C751 1.386 . S
C750 C752 1.391 . S
C751 C750 1.386 . S
C751 C755 1.393 . S
C752 H741 0.950 . S
C752 C750 1.391 . S
C752 C753 1.400 . S
C753 C747 1.491 . S
C753 C752 1.400 . S
C753 C754 1.398 . S
C754 H742 0.950 . S
C754 C753 1.398 . S
C754 C755 1.391 . S
C755 H743 0.950 . S
C755 C751 1.393 . S
C755 C754 1.391 . S
H756 C764 0.950 . S
H757 C769 0.950 . S
H758 C766 0.950 . S
H759 C768 0.950 . S
H760 C770 0.950 . S
H761 C772 0.950 . S
H762 C774 0.950 . S
H763 C775 0.950 . S
C764 H756 0.950 . S
C764 C765 1.386 . S
C764 C766 1.391 . S
C765 C764 1.386 . S
C765 C769 1.393 . S
C766 H758 0.950 . S
C766 C764 1.391 . S
C766 C767 1.400 . S
C767 C766 1.400 . S
C767 C768 1.398 . S
C767 C773 1.491 . S
C768 H759 0.950 . S
C768 C767 1.398 . S
C768 C769 1.391 . S
C769 H757 0.950 . S
C769 C765 1.393 . S
C769 C768 1.391 . S
C770 H760 0.950 . S
C770 C771 1.386 . S
C770 C772 1.391 . S
C771 C770 1.386 . S
C771 C775 1.393 . S
C772 H761 0.950 . S
C772 C770 1.391 . S
C772 C773 1.400 . S
C773 C767 1.491 . S
C773 C772 1.400 . S
C773 C774 1.398 . S
C774 H762 0.950 . S
C774 C773 1.398 . S
C774 C775 1.391 . S
C775 H763 0.950 . S
C775 C771 1.393 . S
C775 C774 1.391 . S
H776 C784 0.950 . S
H777 C789 0.950 . S
H778 C786 0.950 . S
H779 C788 0.950 . S
H780 C790 0.950 . S
H781 C792 0.950 . S
H782 C794 0.950 . S
H783 C795 0.950 . S
C784 H776 0.950 . S
C784 C785 1.386 . S
C784 C786 1.391 . S
C785 C784 1.386 . S
C785 C789 1.393 . S
C786 H778 0.950 . S
C786 C784 1.391 . S
C786 C787 1.400 . S
C787 C786 1.400 . S
C787 C788 1.398 . S
C787 C793 1.491 . S
C788 H779 0.950 . S
C788 C787 1.398 . S
C788 C789 1.391 . S
C789 H777 0.950 . S
C789 C785 1.393 . S
C789 C788 1.391 . S
C790 H780 0.950 . S
C790 C791 1.386 . S
C790 C792 1.391 . S
C791 C790 1.386 . S
C791 C795 1.393 . S
C792 H781 0.950 . S
C792 C790 1.391 . S
C792 C793 1.400 . S
C793 C787 1.491 . S
C793 C792 1.400 . S
C793 C794 1.398 . S
C794 H782 0.950 . S
C794 C793 1.398 . S
C794 C795 1.391 . S
C795 H783 0.950 . S
C795 C791 1.393 . S
C795 C794 1.391 . S
H796 C804 0.950 . S
H797 C809 0.950 . S
H798 C806 0.950 . S
H799 C808 0.950 . S
H800 C810 0.950 . S
H801 C812 0.950 . S
H802 C814 0.950 . S
H803 C815 0.950 . S
C804 H796 0.950 . S
C804 C805 1.386 . S
C804 C806 1.391 . S
C805 C804 1.386 . S
C805 C809 1.393 . S
C806 H798 0.950 . S
C806 C804 1.391 . S
C806 C807 1.400 . S
C807 C806 1.400 . S
C807 C808 1.398 . S
C807 C813 1.491 . S
C808 H799 0.950 . S
C808 C807 1.398 . S
C808 C809 1.391 . S
C809 H797 0.950 . S
C809 C805 1.393 . S
C809 C808 1.391 . S
C810 H800 0.950 . S
C810 C811 1.386 . S
C810 C812 1.391 . S
C811 C810 1.386 . S
C811 C815 1.393 . S
C812 H801 0.950 . S
C812 C810 1.391 . S
C812 C813 1.400 . S
C813 C807 1.491 . S
C813 C812 1.400 . S
C813 C814 1.398 . S
C814 H802 0.950 . S
C814 C813 1.398 . S
C814 C815 1.391 . S
C815 H803 0.950 . S
C815 C811 1.393 . S
C815 C814 1.391 . S
H816 C824 0.950 . S
H817 C829 0.950 . S
H818 C826 0.950 . S
H819 C828 0.950 . S
H820 C830 0.950 . S
H821 C832 0.950 . S
H822 C834 0.950 . S
H823 C835 0.950 . S
C824 H816 0.950 . S
C824 C825 1.386 . S
C824 C826 1.391 . S
C825 C824 1.386 . S
C825 C829 1.393 . S
C826 H818 0.950 . S
C826 C824 1.391 . S
C826 C827 1.400 . S
C827 C826 1.400 . S
C827 C828 1.398 . S
C827 C833 1.491 . S
C828 H819 0.950 . S
C828 C827 1.398 . S
C828 C829 1.391 . S
C829 H817 0.950 . S
C829 C825 1.393 . S
C829 C828 1.391 . S
C830 H820 0.950 . S
C830 C831 1.386 . S
C830 C832 1.391 . S
C831 C830 1.386 . S
C831 C835 1.393 . S
C832 H821 0.950 . S
C832 C830 1.391 . S
C832 C833 1.400 . S
C833 C827 1.491 . S
C833 C832 1.400 . S
C833 C834 1.398 . S
C834 H822 0.950 . S
C834 C833 1.398 . S
C834 C835 1.391 . S
C835 H823 0.950 . S
C835 C831 1.393 . S
C835 C834 1.391 . S
H836 C844 0.950 . S
H837 C849 0.950 . S
H838 C846 0.950 . S
H839 C848 0.950 . S
H840 C850 0.950 . S
H841 C852 0.950 . S
H842 C854 0.950 . S
H843 C855 0.950 . S
C844 H836 0.950 . S
C844 C845 1.386 . S
C844 C846 1.391 . S
C845 C844 1.386 . S
C845 C849 1.393 . S
C846 H838 0.950 . S
C846 C844 1.391 . S
C846 C847 1.400 . S
C847 C846 1.400 . S
C847 C848 1.398 . S
C847 C853 1.491 . S
C848 H839 0.950 . S
C848 C847 1.398 . S
C848 C849 1.391 . S
C849 H837 0.950 . S
C849 C845 1.393 . S
C849 C848 1.391 . S
C850 H840 0.950 . S
C850 C851 1.386 . S
C850 C852 1.391 . S
C851 C850 1.386 . S
C851 C855 1.393 . S
C852 H841 0.950 . S
C852 C850 1.391 . S
C852 C853 1.400 . S
C853 C847 1.491 . S
C853 C852 1.400 . S
C853 C854 1.398 . S
C854 H842 0.950 . S
C854 C853 1.398 . S
C854 C855 1.391 . S
C855 H843 0.950 . S
C855 C851 1.393 . S
C855 C854 1.391 . S
H856 C864 0.950 . S
H857 C869 0.950 . S
H858 C866 0.950 . S
H859 C868 0.950 . S
H860 C870 0.950 1_655 S
H861 C872 0.950 . S
H862 C874 0.950 . S
H863 C875 0.950 . S
C864 H856 0.950 . S
C864 C865 1.386 . S
C864 C866 1.391 . S
C865 C864 1.386 . S
C865 C869 1.393 . S
C866 H858 0.950 . S
C866 C864 1.391 . S
C866 C867 1.400 . S
C867 C866 1.400 . S
C867 C868 1.398 . S
C867 C873 1.491 . S
C868 H859 0.950 . S
C868 C867 1.398 . S
C868 C869 1.391 . S
C869 H857 0.950 . S
C869 C865 1.393 . S
C869 C868 1.391 . S
C870 H860 0.950 1_455 S
C870 C871 1.386 . S
C870 C872 1.391 . S
C871 C870 1.386 . S
C871 C875 1.393 . S
C872 H861 0.950 . S
C872 C870 1.391 . S
C872 C873 1.400 . S
C873 C867 1.491 . S
C873 C872 1.400 . S
C873 C874 1.398 . S
C874 H862 0.950 . S
C874 C873 1.398 . S
C874 C875 1.391 . S
C875 H863 0.950 . S
C875 C871 1.393 . S
C875 C874 1.391 . S
H876 C884 0.950 . S
H877 C889 0.950 . S
H878 C886 0.950 . S
H879 C888 0.950 . S
H880 C890 0.950 . S
H881 C892 0.950 . S
H882 C894 0.950 . S
H883 C895 0.950 . S
C884 H876 0.950 . S
C884 C885 1.386 . S
C884 C886 1.391 . S
C885 C884 1.386 . S
C885 C889 1.393 . S
C886 H878 0.950 . S
C886 C884 1.391 . S
C886 C887 1.400 . S
C887 C886 1.400 . S
C887 C888 1.398 . S
C887 C893 1.491 . S
C888 H879 0.950 . S
C888 C887 1.398 . S
C888 C889 1.391 . S
C889 H877 0.950 . S
C889 C885 1.393 . S
C889 C888 1.391 . S
C890 H880 0.950 . S
C890 C891 1.386 . S
C890 C892 1.391 . S
C891 C890 1.386 . S
C891 C895 1.393 . S
C892 H881 0.950 . S
C892 C890 1.391 . S
C892 C893 1.400 . S
C893 C887 1.491 . S
C893 C892 1.400 . S
C893 C894 1.398 . S
C894 H882 0.950 . S
C894 C893 1.398 . S
C894 C895 1.391 . S
C895 H883 0.950 . S
C895 C891 1.393 . S
C895 C894 1.391 . S
C425 C29 1.173 . S
C431 C273 1.180 . S
C445 C49 1.032 . S
C451 C313 1.122 . S
C471 C338 2.428 . S
C465 C93 2.431 . S
C485 C119 2.353 . S
C491 C378 2.342 . S
C511 C309 1.678 . S
C505 C17 1.673 . S
C531 C269 1.744 . S
C525 C61 1.570 . S
C551 C400 1.697 . S
C545 C81 1.667 . S
C571 C360 1.724 . S
C565 C125 1.707 . S
C585 C23 1.322 . S
C591 C402 1.308 . S
C611 C319 2.126 . S
C605 C87 2.119 . S
C625 C113 2.185 . S
C631 C279 2.173 . S
C645 C55 1.224 . S
C651 C362 1.332 . S
C671 C282 1.159 . S
C665 C157 1.040 . S
C685 C189 1.183 . S
C691 C322 1.172 . S
C705 C221 2.421 . S
C711 C359 2.389 . S
C725 C253 2.412 . S
C731 C399 2.416 . S
C745 C145 1.602 . S
C751 C320 1.769 . S
C771 C280 1.709 . S
C765 C183 1.703 . S
C791 C389 1.722 . S
C785 C209 1.704 . S
C811 C349 1.684 . S
C805 C247 1.680 . S
C825 C151 1.191 . S
C831 C393 1.302 . S
C851 C298 2.113 . S
C845 C215 2.128 . S
C871 C258 2.153 . S
C865 C241 2.130 . S
C885 C177 1.351 . S
C891 C353 1.332 . S
