# Generated by pormake.
# Topology tsx, (6,3)-cn, num edge types: 1
# Building blocks:
#     Node 0, Type 0, BuildingBlock: JUFBIX_clean_sbu_0, # of connection points: 6
#     Node 1, Type 0, BuildingBlock: JUFBIX_clean_sbu_0, # of connection points: 6
#     Node 2, Type 1, BuildingBlock: VETTIZ_charged_linker_0, # of connection points: 3
#     Node 3, Type 1, BuildingBlock: VETTIZ_charged_linker_0, # of connection points: 3
#     Node 4, Type 1, BuildingBlock: VETTIZ_charged_linker_0, # of connection points: 3
#     Node 5, Type 1, BuildingBlock: VETTIZ_charged_linker_0, # of connection points: 3
#     Edge 6, Type (0, 1), BuildingBlock: MIFKUJ_clean_linker_0, # of connection points: 2
#     Edge 7, Type (0, 1), BuildingBlock: MIFKUJ_clean_linker_0, # of connection points: 2
#     Edge 8, Type (0, 1), BuildingBlock: MIFKUJ_clean_linker_0, # of connection points: 2
#     Edge 9, Type (0, 1), BuildingBlock: MIFKUJ_clean_linker_0, # of connection points: 2
#     Edge 10, Type (0, 1), BuildingBlock: MIFKUJ_clean_linker_0, # of connection points: 2
#     Edge 11, Type (0, 1), BuildingBlock: MIFKUJ_clean_linker_0, # of connection points: 2
#     Edge 12, Type (0, 1), BuildingBlock: MIFKUJ_clean_linker_0, # of connection points: 2
#     Edge 13, Type (0, 1), BuildingBlock: MIFKUJ_clean_linker_0, # of connection points: 2
#     Edge 14, Type (0, 1), BuildingBlock: MIFKUJ_clean_linker_0, # of connection points: 2
#     Edge 15, Type (0, 1), BuildingBlock: MIFKUJ_clean_linker_0, # of connection points: 2
#     Edge 16, Type (0, 1), BuildingBlock: MIFKUJ_clean_linker_0, # of connection points: 2
#     Edge 17, Type (0, 1), BuildingBlock: MIFKUJ_clean_linker_0, # of connection points: 2
# Relax obj value: 0.163
# Max RMSD: 0.168
# Mean RMSD: 0.135
data_MOF--net-tsx--node1-JUFBIX_clean_sbu_0--node2-VETTIZ_charged_linker_0--edge1-MIFKUJ_clean_linker_0
_symmetry_space_group_name_H-M    P1
_symmetry_Int_Tables_number       1
_symmetry_cell_setting            triclinic
loop_
_symmetry_equiv_pos_as_xyz
'x, y, z'
_cell_length_a     29.191257
_cell_length_b     34.488033
_cell_length_c     54.908589
_cell_angle_alpha  92.134353
_cell_angle_beta   89.74666
_cell_angle_gamma 96.510667
loop_
_atom_site_label
_atom_site_type_symbol
_atom_site_fract_x
_atom_site_fract_y
_atom_site_fract_z
_atom_type_partial_charge
Co0 Co 0.05096 0.9993 0.00195 0.0
C1 C 0.00615 0.02438 0.96116 0.0
Co2 Co 0.99489 0.0363 0.00995 0.0
C3 C 0.10908 0.93528 5e-05 0.0
C4 C 0.13157 0.98163 0.97638 0.0
N5 N 0.09903 0.97057 0.993 0.0
N6 N 0.14643 0.92389 0.98825 0.0
C7 C 0.16062 0.9532 0.97345 0.0
H8 H 0.0887 0.9179 0.01307 0.0
H9 H 0.13372 0.00856 0.96673 0.0
C10 C 0.03957 0.01128 0.05076 0.0
N11 N 0.94717 0.06526 0.01901 0.0
C12 C 0.93355 0.09722 0.00889 0.0
C13 C 0.91994 0.05944 0.03878 0.0
N14 N 0.89948 0.11172 0.02183 0.0
C15 C 0.89088 0.08809 0.04065 0.0
C16 C 0.96651 0.95605 0.0063 0.0
O17 O 0.06395 0.99418 0.03545 0.0
O18 O 0.00839 0.03071 0.04321 0.0
O19 O 0.95334 0.98972 0.00988 0.0
O20 O 0.00899 0.95302 0.00249 0.0
O21 O 0.9825 0.04184 0.97663 0.0
H22 H 0.92146 0.03605 0.05124 0.0
H23 H 0.94905 0.11018 0.99272 0.0
O24 O 0.03707 1.00432 0.96842 0.0
O25 O 0.09246 0.04663 0.00163 0.0
O26 O 0.0363 0.08225 0.00985 0.0
C27 C 0.0787 0.08004 0.00552 0.0
H28 H 0.19005 0.95415 0.96134 0.0
H29 H 0.86511 0.09118 0.05462 0.0
Co30 Co 0.55504 0.4988 0.50361 0.0
C31 C 0.51415 0.52204 0.46131 0.0
Co32 Co 0.49598 0.53324 0.50971 0.0
C33 C 0.61523 0.43646 0.5035 0.0
C34 C 0.64347 0.48629 0.48402 0.0
N35 N 0.60616 0.47228 0.49692 0.0
N36 N 0.65696 0.42804 0.49545 0.0
C37 C 0.67475 0.45937 0.48323 0.0
H38 H 0.59201 0.41716 0.51422 0.0
H39 H 0.64766 0.51431 0.47557 0.0
C40 C 0.5366 0.51 0.552 0.0
N41 N 0.44498 0.55947 0.51671 0.0
C42 C 0.43146 0.59199 0.50724 0.0
C43 C 0.41277 0.54873 0.53356 0.0
N44 N 0.39192 0.60183 0.51754 0.0
C45 C 0.38032 0.57458 0.53414 0.0
C46 C 0.47237 0.45217 0.50542 0.0
O47 O 0.56322 0.49362 0.53753 0.0
O48 O 0.50577 0.52884 0.54344 0.0
O49 O 0.45726 0.48508 0.50877 0.0
O50 O 0.51541 0.45084 0.50247 0.0
O51 O 0.48696 0.53735 0.47598 0.0
H52 H 0.413 0.52371 0.54485 0.0
H53 H 0.45003 0.6078 0.49292 0.0
O54 O 0.54613 0.5041 0.46967 0.0
O55 O 0.59388 0.54756 0.50499 0.0
O56 O 0.53488 0.58104 0.51048 0.0
C57 C 0.57806 0.58033 0.5079 0.0
H58 H 0.70772 0.46225 0.47397 0.0
H59 H 0.35084 0.57359 0.54621 0.0
C60 C 0.09884 0.93032 0.46462 0.0
C61 C 0.12924 0.90645 0.45311 0.0
C62 C 0.13093 0.90379 0.42751 0.0
C63 C 0.07204 0.94747 0.42501 0.0
C64 C 0.07099 0.95107 0.45014 0.0
C65 C 0.03786 0.9793 0.45882 0.0
H66 H 0.87531 0.09728 0.429 0.0
C67 C 0.03791 0.97115 0.41519 0.0
C68 C 0.01698 0.98965 0.43482 0.0
H69 H 0.92701 0.08039 0.5008 0.0
H70 H 0.97567 0.03316 0.48403 0.0
H71 H 0.97134 0.1046 0.40371 0.0
H72 H 0.86764 0.00628 0.40971 0.0
H73 H 0.88928 1.00466 0.37982 0.0
H74 H 0.86095 0.04606 0.39036 0.0
H75 H 0.91856 0.10008 0.38668 0.0
H76 H 0.96879 0.07927 0.37537 0.0
C77 C 0.06676 0.01495 0.47105 0.0
C78 C 1.00178 0.95798 0.4758 0.0
C79 C 0.01986 0.97477 0.32357 0.0
C80 C 0.99136 0.99367 0.30847 0.0
C81 C 0.95794 0.01533 0.31933 0.0
C82 C 0.9539 0.0189 0.34476 0.0
C83 C 0.98361 1.00068 0.35958 0.0
C84 C 0.0153 0.97855 0.34887 0.0
C85 C 0.04363 0.9608 0.36729 0.0
C86 C 0.02446 0.97661 0.39089 0.0
C87 C 0.98955 1.00007 0.38632 0.0
C88 C 0.09496 0.97681 0.36349 0.0
C89 C 0.03308 0.91572 0.36442 0.0
C90 C 0.89673 0.08303 0.44114 0.0
C91 C 0.89735 0.09224 0.46623 0.0
C92 C 0.92638 0.07374 0.48139 0.0
C93 C 0.95472 0.04661 0.47158 0.0
C94 C 0.95474 0.03858 0.44624 0.0
C95 C 0.92579 0.05668 0.43157 0.0
C96 C 0.93132 0.04636 0.40502 0.0
C97 C 0.96838 0.0191 0.406 0.0
C98 C 0.98202 0.01422 0.43018 0.0
C99 C 0.94806 0.08437 0.39179 0.0
C100 C 0.88495 0.02494 0.3955 0.0
H101 H 0.1052 0.92009 0.39407 0.0
H102 H 0.09715 0.93297 0.48431 0.0
H103 H 0.99264 0.92711 0.46938 0.0
H104 H 0.969 0.97102 0.47607 0.0
H105 H 0.01515 0.95788 0.49471 0.0
H106 H 0.09501 0.02648 0.45872 0.0
H107 H 0.0829 0.00642 0.48799 0.0
H108 H 0.04679 0.03951 0.47545 0.0
H109 H 0.04627 0.95824 0.31596 0.0
H110 H 0.93494 0.02965 0.30815 0.0
H111 H 0.92812 0.03608 0.35188 0.0
H112 H 0.09815 0.00732 0.35722 0.0
H113 H 0.11156 0.95887 0.34954 0.0
H114 H 0.11541 0.97864 0.38046 0.0
H115 H 0.99703 0.90706 0.35816 0.0
H116 H 0.0354 0.90087 0.38179 0.0
H117 H 0.05635 0.90348 0.35083 0.0
H118 H 0.15379 0.88532 0.41833 0.0
C119 C 0.10242 0.92388 0.41345 0.0
C120 C 0.10614 0.11042 0.55181 0.0
C121 C 0.13925 0.13617 0.56459 0.0
C122 C 0.13719 0.13909 0.59019 0.0
C123 C 0.06939 0.09164 0.59007 0.0
C124 C 0.0719 0.08804 0.56496 0.0
C125 C 0.03494 0.0579 0.55462 0.0
H126 H 0.84851 0.92607 0.57557 0.0
C127 C 0.02931 0.0653 0.59821 0.0
C128 C 0.00854 0.04554 0.57752 0.0
H129 H 0.91258 0.95183 0.50622 0.0
H130 H 0.96715 1.00173 0.52588 0.0
H131 H 0.93835 0.92416 0.60399 0.0
H132 H 0.85214 0.01593 0.59609 0.0
H133 H 0.86911 0.01767 0.62679 0.0
H134 H 0.83603 0.97426 0.61416 0.0
H135 H 0.88501 0.92515 0.62022 0.0
H136 H 0.93868 0.94897 0.63244 0.0
C137 C 0.05915 0.02416 0.54304 0.0
C138 C 1.0052 0.07774 0.53663 0.0
C139 C 0.99237 0.05875 0.68862 0.0
C140 C 0.95869 0.03586 0.70181 0.0
C141 C 0.92527 0.01028 0.68908 0.0
C142 C 0.92579 0.00706 0.66359 0.0
C143 C 0.96035 0.02941 0.65064 0.0
C144 C 0.99268 0.05491 0.66314 0.0
C145 C 0.02745 0.07556 0.64638 0.0
C146 C 0.01069 0.05814 0.62175 0.0
C147 C 0.97145 0.03123 0.6244 0.0
C148 C 0.07577 0.06422 0.65287 0.0
C149 C 0.02298 0.11988 0.64881 0.0
C150 C 0.87391 0.94282 0.56455 0.0
C151 C 0.87632 0.93532 0.53934 0.0
C152 C 0.91053 0.9571 0.52572 0.0
C153 C 0.94217 0.98581 0.5372 0.0
C154 C 0.94003 0.99223 0.56264 0.0
C155 C 0.90595 0.97096 0.57575 0.0
C156 C 0.90899 0.98046 0.60259 0.0
C157 C 0.95054 0.01099 0.60364 0.0
C158 C 0.96879 0.01801 0.58025 0.0
C159 C 0.91789 0.94288 0.61569 0.0
C160 C 0.86425 0.99776 0.61056 0.0
H161 H 0.1025 0.12115 0.62242 0.0
H162 H 0.1072 0.10753 0.53211 0.0
H163 H 1.00172 0.10835 0.5428 0.0
H164 H 0.96955 0.06327 0.5354 0.0
H165 H 0.02084 0.07845 0.51815 0.0
H166 H 0.08444 0.01461 0.55601 0.0
H167 H 0.07836 0.03393 0.5265 0.0
H168 H 0.03536 0.99794 0.5382 0.0
H169 H 0.01889 0.07827 0.69794 0.0
H170 H 0.89878 0.99261 0.69889 0.0
H171 H 0.89958 0.98687 0.65502 0.0
H172 H 0.0733 0.0342 0.65989 0.0
H173 H 0.09279 0.08448 0.66714 0.0
H174 H 0.09884 0.06328 0.6369 0.0
H175 H 0.98625 0.12513 0.65107 0.0
H176 H 0.0348 0.13581 0.63245 0.0
H177 H 0.04222 0.1335 0.66494 0.0
H178 H 0.16213 0.15904 0.60033 0.0
C179 C 0.10236 0.1172 0.60297 0.0
C180 C 0.58671 0.4216 0.9626 0.0
C181 C 0.61077 0.39275 0.95101 0.0
C182 C 0.60865 0.38791 0.92544 0.0
C183 C 0.55675 0.43745 0.9234 0.0
C184 C 0.55983 0.44363 0.94837 0.0
C185 C 0.5307 0.47493 0.95719 0.0
H186 H 0.37558 0.6001 0.92784 0.0
C187 C 0.52407 0.46272 0.91392 0.0
C188 C 0.50768 0.48451 0.93359 0.0
H189 H 0.43265 0.58721 -0.00098 0.0
H190 H 0.47594 0.53575 0.98268 0.0
H191 H 0.4688 0.59898 0.89946 0.0
H192 H 0.35737 0.50981 0.91312 0.0
H193 H 0.3756 0.50102 0.88311 0.0
H194 H 0.35301 0.54644 0.89115 0.0
H195 H 0.41365 0.59699 0.88487 0.0
H196 H 0.45907 0.57127 0.87218 0.0
C197 C 0.56361 0.50992 0.96731 0.0
C198 C 0.49554 0.45748 0.97601 0.0
C199 C 0.49632 0.46116 0.82278 0.0
C200 C 0.46773 0.48076 0.80811 0.0
C201 C 0.43641 0.50399 0.81949 0.0
C202 C 0.43518 0.50903 0.84492 0.0
C203 C 0.46556 0.49065 0.85923 0.0
C204 C 0.49447 0.46637 0.84812 0.0
C205 C 0.52325 0.44819 0.86616 0.0
C206 C 0.50806 0.46675 0.88992 0.0
C207 C 0.47471 0.49182 0.88574 0.0
C208 C 0.57473 0.4612 0.86053 0.0
C209 C 0.50934 0.40332 0.86468 0.0
C210 C 0.39765 0.58652 0.93997 0.0
C211 C 0.40143 0.59827 0.96468 0.0
C212 C 0.42948 0.5788 0.97989 0.0
C213 C 0.45476 0.54917 0.9703 0.0
C214 C 0.45167 0.53877 0.94524 0.0
C215 C 0.42298 0.55733 0.9307 0.0
C216 C 0.42391 0.54382 0.90449 0.0
C217 C 0.45818 0.51419 0.90537 0.0
C218 C 0.47452 0.51091 0.92925 0.0
C219 C 0.44195 0.57942 0.88926 0.0
C220 C 0.375 0.52447 0.89736 0.0
H221 H 0.58156 0.40417 0.89238 0.0
H222 H 0.58787 0.4262 0.98221 0.0
H223 H 0.48233 0.42683 0.97065 0.0
H224 H 0.46487 0.47332 0.97721 0.0
H225 H 0.51143 0.45748 -0.00564 0.0
H226 H 0.59063 0.51887 0.95364 0.0
H227 H 0.5813 0.50186 0.98394 0.0
H228 H 0.54606 0.53594 0.97171 0.0
H229 H 0.52103 0.44326 0.81478 0.0
H230 H 0.41318 0.51874 0.80872 0.0
H231 H 0.41121 0.52766 0.8524 0.0
H232 H 0.57959 0.49205 0.85489 0.0
H233 H 0.58751 0.44286 0.84549 0.0
H234 H 0.59746 0.46062 0.87651 0.0
H235 H 0.47364 0.39579 0.85761 0.0
H236 H 0.50874 0.3901 0.88275 0.0
H237 H 0.5327 0.38845 0.85238 0.0
H238 H 0.62791 0.36691 0.91594 0.0
C239 C 0.58177 0.40981 0.91169 0.0
C240 C 0.60181 0.61152 0.04977 0.0
C241 C 0.63689 0.63562 0.06223 0.0
C242 C 0.63946 0.63476 0.08779 0.0
C243 C 0.57165 0.58745 0.08836 0.0
C244 C 0.56993 0.58727 0.06321 0.0
C245 C 0.53157 0.55824 0.05313 0.0
H246 H 0.35081 0.42184 0.07548 0.0
C247 C 0.53277 0.56028 0.09693 0.0
C248 C 0.50899 0.54292 0.07641 0.0
H249 H 0.40854 0.45283 0.00556 0.0
H250 H 0.46263 0.50337 0.02502 0.0
H251 H 0.4453 0.422 0.10249 0.0
H252 H 0.35213 0.50944 0.09779 0.0
H253 H 0.37496 0.51446 0.1274 0.0
H254 H 0.34138 0.46932 0.11768 0.0
H255 H 0.38977 0.41825 0.11695 0.0
H256 H 0.44016 0.44297 0.13189 0.0
C257 C 0.55384 0.52619 0.03838 0.0
C258 C 0.49882 0.58028 0.03813 0.0
C259 C 0.50612 0.5469 0.1878 0.0
C260 C 0.47155 0.52578 0.20139 0.0
C261 C 0.435 0.50311 0.1891 0.0
C262 C 0.43343 0.50084 0.16359 0.0
C263 C 0.46871 0.52159 0.15021 0.0
C264 C 0.50383 0.54461 0.16235 0.0
C265 C 0.53729 0.56584 0.14521 0.0
C266 C 0.51687 0.55123 0.12073 0.0
C267 C 0.47707 0.5251 0.12379 0.0
C268 C 0.58545 0.55223 0.14925 0.0
C269 C 0.53523 0.61028 0.14966 0.0
C270 C 0.37479 0.43988 0.06437 0.0
C271 C 0.37597 0.43355 0.03903 0.0
C272 C 0.40789 0.45716 0.02515 0.0
C273 C 0.43921 0.48615 0.03652 0.0
C274 C 0.43904 0.49094 0.0621 0.0
C275 C 0.40668 0.46825 0.07549 0.0
C276 C 0.41192 0.47627 0.10243 0.0
C277 C 0.45351 0.5068 0.10316 0.0
C278 C 0.46929 0.51557 0.07955 0.0
C279 C 0.42204 0.438 0.11427 0.0
C280 C 0.36785 0.493 0.11203 0.0
H281 H 0.61057 0.61206 0.12035 0.0
H282 H 0.59955 0.61137 0.03008 0.0
H283 H 0.49353 0.60868 0.04738 0.0
H284 H 0.46408 0.5642 0.03616 0.0
H285 H 0.51324 0.58643 0.01974 0.0
H286 H 0.58538 0.51884 0.04766 0.0
H287 H 0.56413 0.5364 0.02003 0.0
H288 H 0.53136 0.49833 0.03651 0.0
H289 H 0.53421 0.5651 0.1968 0.0
H290 H 0.40809 0.48651 0.19926 0.0
H291 H 0.40504 0.4827 0.15529 0.0
H292 H 0.58235 0.52117 0.15446 0.0
H293 H 0.60454 0.56997 0.16403 0.0
H294 H 0.60683 0.55307 0.13257 0.0
H295 H 0.49952 0.61648 0.15421 0.0
H296 H 0.54451 0.62741 0.13342 0.0
H297 H 0.55786 0.62196 0.16507 0.0
H298 H 0.66615 0.65327 0.09768 0.0
C299 C 0.60698 0.61098 0.10091 0.0
H300 H 0.17113 0.08679 -0.00495 0.0
H301 H 0.22473 0.14676 -0.00531 0.0
H302 H 0.1139 0.21446 0.0147 0.0
H303 H 0.06009 0.15495 0.01467 0.0
H304 H 0.16613 0.24988 0.98052 0.0
H305 H 0.19134 0.19226 0.05695 0.0
H306 H 0.20891 0.14021 0.08388 0.0
H307 H 0.34092 0.13733 0.04946 0.0
H308 H 0.32388 0.18909 0.02212 0.0
H309 H 0.28279 0.41784 0.04283 0.0
H310 H 0.23543 0.35739 0.02986 0.0
H311 H 0.35535 0.31277 -0.00175 0.0
H312 H 0.40274 0.37366 0.0108 0.0
H313 H 0.30459 0.26405 0.03359 0.0
H314 H 0.27986 0.33022 0.96063 0.0
H315 H 0.26003 0.38481 0.93649 0.0
H316 H 0.12408 0.37418 0.96749 0.0
H317 H 0.14332 0.31989 0.99212 0.0
C318 C 0.15818 0.11446 -0.00067 0.0
C319 C 0.1114 0.11607 0.00503 0.0
C320 C 0.18886 0.14869 -0.00085 0.0
C321 C 0.17339 0.18507 0.00487 0.0
C322 C 0.12659 0.18675 0.01017 0.0
C323 C 0.09591 0.15263 0.01027 0.0
C324 C 0.20595 0.22142 0.00599 0.0
C325 C 0.19628 0.25303 0.99221 0.0
C326 C 0.24577 0.22532 0.0209 0.0
C327 C 0.2561 0.19419 0.03729 0.0
C328 C 0.22395 0.18028 0.05499 0.0
C329 C 0.23384 0.15089 0.07035 0.0
C330 C 0.27593 0.13538 0.06832 0.0
C331 C 0.30828 0.14932 0.05097 0.0
C332 C 0.29855 0.1787 0.03555 0.0
C333 C 0.29872 0.39546 0.03261 0.0
C334 C 0.34623 0.40027 0.02772 0.0
C335 C 0.27174 0.36104 0.02521 0.0
C336 C 0.29199 0.33071 0.01313 0.0
C337 C 0.33917 0.33595 0.00751 0.0
C338 C 0.36605 0.37072 0.01452 0.0
C339 C 0.26441 0.29251 0.00835 0.0
C340 C 0.2749 0.26061 0.02155 0.0
C341 C 0.22499 0.28859 0.99323 0.0
C342 C 0.21318 0.32115 0.97838 0.0
C343 C 0.24586 0.33973 0.96247 0.0
C344 C 0.2347 0.37058 0.94866 0.0
C345 C 0.19085 0.38301 0.95049 0.0
C346 C 0.15804 0.36454 0.9661 0.0
C347 C 0.16904 0.33369 0.97997 0.0
H348 H 0.18227 0.40689 0.93978 0.0
H349 H 0.28354 0.11263 0.08023 0.0
H350 H 0.14706 0.878 0.02757 0.0
H351 H 0.18459 0.81795 0.03034 0.0
H352 H 0.22938 0.8285 0.95567 0.0
H353 H 0.19134 0.8873 0.95266 0.0
H354 H 0.19715 0.75514 0.96396 0.0
H355 H 0.30179 0.85679 0.00414 0.0
H356 H 0.32382 0.90874 0.03536 0.0
H357 H 0.29361 0.82685 0.09186 0.0
H358 H 0.27083 0.7745 0.06093 0.0
H359 H 0.39501 0.6667 0.94252 0.0
H360 H 0.3461 0.71721 0.95375 0.0
H361 H 0.30374 0.65704 0.01893 0.0
H362 H 0.35221 0.60523 0.00742 0.0
H363 H 0.32438 0.7467 0.02252 0.0
H364 H 0.23078 0.64258 0.97999 0.0
H365 H 0.2142 0.5922 0.94721 0.0
H366 H 0.22685 0.68066 0.89382 0.0
H367 H 0.24432 0.73154 0.92627 0.0
C368 C 0.16453 0.86721 0.01172 0.0
C369 C 0.16657 0.8877 0.98997 0.0
C370 C 0.18625 0.83308 0.01337 0.0
C371 C 0.21021 0.81885 0.99327 0.0
C372 C 0.21123 0.83884 0.97145 0.0
C373 C 0.18978 0.87278 0.96982 0.0
C374 C 0.23494 0.7835 -0.00547 0.0
C375 C 0.22483 0.75332 0.97684 0.0
C376 C 0.27038 0.78047 0.0117 0.0
C377 C 0.28402 0.81189 0.03026 0.0
C378 C 0.29945 0.84996 0.02323 0.0
C379 C 0.31215 0.87945 0.04087 0.0
C380 C 0.30995 0.87114 0.06559 0.0
C381 C 0.29518 0.83327 0.07271 0.0
C382 C 0.28238 0.80368 0.05514 0.0
C383 C 0.37542 0.66409 0.9593 0.0
C384 C 0.37674 0.63144 0.97381 0.0
C385 C 0.34771 0.69317 0.96576 0.0
C386 C 0.32089 0.6906 0.98699 0.0
C387 C 0.32418 0.65945 0.00243 0.0
C388 C 0.35189 0.62996 -0.00414 0.0
C389 C 0.28724 0.71923 0.99154 0.0
C390 C 0.29576 0.74808 0.01016 0.0
C391 C 0.25045 0.72129 0.97513 0.0
C392 C 0.23913 0.69086 0.95557 0.0
C393 C 0.23034 0.65128 0.96125 0.0
C394 C 0.22075 0.62262 0.94273 0.0
C395 C 0.21954 0.63321 0.91844 0.0
C396 C 0.2278 0.6725 0.91264 0.0
C397 C 0.2375 0.70126 0.9311 0.0
H398 H 0.21212 0.61099 0.90413 0.0
H399 H 0.31982 0.894 0.07921 0.0
H400 H 0.8734 0.95217 0.00108 0.0
H401 H 0.81656 0.89508 0.00465 0.0
H402 H 0.9256 0.82379 0.01789 0.0
H403 H 0.98289 0.88069 0.01327 0.0
H404 H 0.86242 0.78344 0.99099 0.0
H405 H 0.86058 0.86077 0.065 0.0
H406 H 0.85552 0.9205 0.09053 0.0
H407 H 0.71866 0.92746 0.06398 0.0
H408 H 0.72316 0.86804 0.03802 0.0
H409 H 0.73045 0.64043 0.06332 0.0
H410 H 0.78536 0.69225 0.04704 0.0
H411 H 0.6727 0.74565 0.01687 0.0
H412 H 0.61768 0.69328 0.0327 0.0
H413 H 0.73494 0.79447 0.05003 0.0
H414 H 0.73802 0.71056 0.97837 0.0
H415 H 0.74621 0.64862 0.95577 0.0
H416 H 0.88485 0.65124 0.98209 0.0
H417 H 0.87727 0.71293 0.00517 0.0
C418 C 0.8853 0.92428 0.0046 0.0
C419 C 0.93255 0.92095 0.00715 0.0
C420 C 0.85275 0.89167 0.00672 0.0
C421 C 0.86667 0.85526 0.01209 0.0
C422 C 0.91399 0.85159 0.01382 0.0
C423 C 0.94669 0.88412 0.01126 0.0
C424 C 0.8318 0.82151 0.0168 0.0
C425 C 0.83481 0.78579 0.00406 0.0
C426 C 0.79536 0.82459 0.03367 0.0
C427 C 0.7924 0.86019 0.04937 0.0
C428 C 0.82953 0.8752 0.06448 0.0
C429 C 0.82675 0.90897 0.07904 0.0
C430 C 0.78685 0.92783 0.07882 0.0
C431 C 0.74958 0.91286 0.06409 0.0
C432 C 0.75221 0.87912 0.04946 0.0
C433 C 0.71762 0.66277 0.05271 0.0
C434 C 0.67004 0.66301 0.04916 0.0
C435 C 0.7489 0.69223 0.04342 0.0
C436 C 0.73298 0.72266 0.03077 0.0
C437 C 0.68555 0.72226 0.02651 0.0
C438 C 0.65428 0.69235 0.03542 0.0
C439 C 0.76557 0.75668 0.02417 0.0
C440 C 0.76228 0.79237 0.03675 0.0
C441 C 0.80221 0.75326 0.0076 0.0
C442 C 0.80691 0.71621 0.99368 0.0
C443 C 0.77012 0.69776 0.97953 0.0
C444 C 0.77468 0.66272 0.96659 0.0
C445 C 0.81598 0.64595 0.96754 0.0
C446 C 0.85286 0.66424 0.98139 0.0
C447 C 0.84846 0.69927 -0.00562 0.0
H448 H 0.81945 0.61883 0.9575 0.0
H449 H 0.78476 0.95397 0.09011 0.0
H450 H 0.87891 0.16777 0.05414 0.0
H451 H 0.83488 0.22241 0.04644 0.0
H452 H 0.82125 0.18409 0.97075 0.0
H453 H 0.86782 0.13091 0.97835 0.0
H454 H 0.83114 0.25749 0.97195 0.0
H455 H 0.7333 0.16399 0.01695 0.0
H456 H 0.71098 0.12159 0.05124 0.0
H457 H 0.71999 0.22192 0.10044 0.0
H458 H 0.74292 0.26487 0.06646 0.0
H459 H 0.61233 0.31446 0.94386 0.0
H460 H 0.66605 0.27367 0.96108 0.0
H461 H 0.72382 0.37066 0.00717 0.0
H462 H 0.67091 0.41258 0.98923 0.0
H463 H 0.69578 0.27575 0.02442 0.0
H464 H 0.79196 0.36856 0.9742 0.0
H465 H 0.80511 0.40513 0.93656 0.0
H466 H 0.78909 0.29764 0.8938 0.0
H467 H 0.7751 0.26051 0.9312 0.0
C468 C 0.86675 0.1714 0.03586 0.0
C469 C 0.87636 0.14519 0.01684 0.0
C470 C 0.84133 0.20241 0.03147 0.0
C471 C 0.82353 0.20696 0.00813 0.0
C472 C 0.83439 0.18131 0.98895 0.0
C473 C 0.86093 0.15092 0.99324 0.0
C474 C 0.7928 0.23772 0.00371 0.0
C475 C 0.80169 0.26134 0.98354 0.0
C476 C 0.75427 0.24332 0.01882 0.0
C477 C 0.74034 0.21757 0.03923 0.0
C478 C 0.73082 0.17696 0.03511 0.0
C479 C 0.71802 0.15285 0.05448 0.0
C480 C 0.71421 0.16904 0.07801 0.0
C481 C 0.72305 0.20941 0.08221 0.0
C482 C 0.73592 0.23365 0.06291 0.0
C483 C 0.63631 0.32722 0.95772 0.0
C484 C 0.63801 0.367 0.96482 0.0
C485 C 0.66675 0.30377 0.96763 0.0
C486 C 0.69908 0.31934 0.98513 0.0
C487 C 0.69906 0.35827 0.99358 0.0
C488 C 0.66875 0.38207 0.98342 0.0
C489 C 0.73459 0.29507 0.99292 0.0
C490 C 0.72615 0.27238 0.01342 0.0
C491 C 0.77286 0.28962 0.97787 0.0
C492 C 0.78207 0.31184 0.95545 0.0
C493 C 0.79084 0.35278 0.95675 0.0
C494 C 0.79853 0.37359 0.93547 0.0
C495 C 0.79782 0.35373 0.9128 0.0
C496 C 0.78958 0.31299 0.91137 0.0
C497 C 0.78182 0.29206 0.9326 0.0
H498 H 0.80376 0.36989 0.89634 0.0
H499 H 0.7043 0.15032 0.09299 0.0
H500 H 0.55733 0.65425 0.51919 0.0
H501 H 0.60912 0.71502 0.51907 0.0
H502 H 0.72129 0.65103 0.49576 0.0
H503 H 0.66994 0.58993 0.49655 0.0
H504 H 0.75014 0.70218 0.52993 0.0
H505 H 0.66594 0.7078 0.45612 0.0
H506 H 0.59681 0.70496 0.43019 0.0
H507 H 0.55186 0.80233 0.47102 0.0
H508 H 0.62042 0.80542 0.49743 0.0
H509 H 0.89883 0.87481 0.50988 0.0
H510 H 0.84866 0.81512 0.4981 0.0
H511 H 0.733 0.86286 0.53226 0.0
H512 H 0.78295 0.92241 0.54408 0.0
H513 H 0.7096 0.81909 0.48845 0.0
H514 H 0.79069 0.80818 0.56428 0.0
H515 H 0.86047 0.81111 0.58973 0.0
H516 H 0.91205 0.72271 0.54347 0.0
H517 H 0.84284 0.71975 0.51749 0.0
C518 C 0.59301 0.65308 0.51401 0.0
C519 C 0.60948 0.61722 0.50786 0.0
C520 C 0.62255 0.68793 0.51378 0.0
C521 C 0.66901 0.68778 0.50699 0.0
C522 C 0.68559 0.65196 0.50098 0.0
C523 C 0.65616 0.61703 0.50143 0.0
C524 C 0.70056 0.72485 0.50692 0.0
C525 C 0.7416 0.72743 0.52043 0.0
C526 C 0.68928 0.75816 0.49485 0.0
C527 C 0.64817 0.75663 0.47888 0.0
C528 C 0.64117 0.72845 0.45968 0.0
C529 C 0.6021 0.72682 0.44488 0.0
C530 C 0.56992 0.7534 0.44899 0.0
C531 C 0.57681 0.78174 0.46787 0.0
C532 C 0.6158 0.78348 0.48274 0.0
C533 C 0.86244 0.87295 0.51425 0.0
C534 C 0.84476 0.90302 0.52803 0.0
C535 C 0.8339 0.83882 0.50764 0.0
C536 C 0.78726 0.83444 0.51458 0.0
C537 C 0.76888 0.86563 0.52676 0.0
C538 C 0.79744 0.89953 0.53358 0.0
C539 C 0.75869 0.79618 0.5115 0.0
C540 C 0.71825 0.7935 0.49755 0.0
C541 C 0.77057 0.76268 0.52302 0.0
C542 C 0.81187 0.76407 0.53879 0.0
C543 C 0.81708 0.78959 0.55943 0.0
C544 C 0.8565 0.79123 0.57396 0.0
C545 C 0.89074 0.76719 0.56818 0.0
C546 C 0.88554 0.74137 0.5479 0.0
C547 C 0.84623 0.7397 0.53326 0.0
H548 H 0.92123 0.76849 0.57946 0.0
H549 H 0.53968 0.75208 0.43752 0.0
H550 H 0.74669 0.42322 0.5043 0.0
H551 H 0.78531 0.364 0.50483 0.0
H552 H 0.65482 0.29385 0.49255 0.0
H553 H 0.61586 0.35346 0.49302 0.0
H554 H 0.70497 0.25702 0.52145 0.0
H555 H 0.73234 0.31736 0.44524 0.0
H556 H 0.75577 0.37059 0.41746 0.0
H557 H 0.89354 0.38111 0.44597 0.0
H558 H 0.87075 0.32828 0.47419 0.0
H559 H 0.80529 0.09635 0.46029 0.0
H560 H 0.76221 0.15161 0.47128 0.0
H561 H 0.88488 0.21365 0.50361 0.0
H562 H 0.92783 0.15803 0.49316 0.0
H563 H 0.83845 0.25322 0.46547 0.0
H564 H 0.80744 0.18733 0.54054 0.0
H565 H 0.78058 0.13109 0.56536 0.0
H566 H 0.645 0.12717 0.53469 0.0
H567 H 0.67126 0.18304 0.50938 0.0
C568 C 0.72626 0.39512 0.50195 0.0
C569 C 0.67842 0.39287 0.49834 0.0
C570 C 0.74833 0.36126 0.50216 0.0
C571 C 0.72326 0.32436 0.49804 0.0
C572 C 0.67503 0.32193 0.49561 0.0
C573 C 0.65276 0.35593 0.49589 0.0
C574 C 0.74782 0.2888 0.49512 0.0
C575 C 0.73383 0.25611 0.50902 0.0
C576 C 0.78579 0.28744 0.47901 0.0
C577 C 0.79971 0.31913 0.462 0.0
C578 C 0.76755 0.33121 0.44571 0.0
C579 C 0.78072 0.36129 0.42987 0.0
C580 C 0.82608 0.37929 0.42999 0.0
C581 C 0.85839 0.36718 0.44592 0.0
C582 C 0.84538 0.33715 0.46183 0.0
C583 C 0.82273 0.12148 0.4702 0.0
C584 C 0.8698 0.12297 0.47594 0.0
C585 C 0.79813 0.15295 0.47648 0.0
C586 C 0.82039 0.18668 0.48825 0.0
C587 C 0.86708 0.18781 0.4946 0.0
C588 C 0.89147 0.15601 0.48876 0.0
C589 C 0.79594 0.2219 0.49199 0.0
C590 C 0.80979 0.25438 0.47804 0.0
C591 C 0.75736 0.22263 0.5076 0.0
C592 C 0.74146 0.18913 0.52287 0.0
C593 C 0.77202 0.17424 0.5389 0.0
C594 C 0.75688 0.14248 0.5531 0.0
C595 C 0.71115 0.1255 0.55156 0.0
C596 C 0.68044 0.14032 0.53585 0.0
C597 C 0.69542 0.17206 0.52158 0.0
H598 H 0.69948 0.10092 0.56257 0.0
H599 H 0.83622 0.40257 0.41771 0.0
H600 H 0.49089 0.37855 0.51595 0.0
H601 H 0.43511 0.32074 0.52076 0.0
H602 H 0.32501 0.38653 0.5001 0.0
H603 H 0.38025 0.44464 0.49645 0.0
H604 H 0.29942 0.34963 0.53756 0.0
H605 H 0.36706 0.31166 0.4623 0.0
H606 H 0.42987 0.29906 0.43395 0.0
H607 H 0.47019 0.21152 0.48049 0.0
H608 H 0.40797 0.22396 0.5093 0.0
H609 H 0.12704 0.18758 0.52935 0.0
H610 H 0.18539 0.23714 0.51331 0.0
H611 H 0.29042 0.19114 0.55499 0.0
H612 H 0.23209 0.14211 0.57143 0.0
H613 H 0.31682 0.21618 0.50456 0.0
H614 H 0.25016 0.26005 0.58077 0.0
H615 H 0.18476 0.27259 0.60737 0.0
H616 H 0.13978 0.35018 0.55535 0.0
H617 H 0.20454 0.33753 0.52824 0.0
C618 C 0.45484 0.38046 0.51216 0.0
C619 C 0.43987 0.41608 0.50589 0.0
C620 C 0.42296 0.34734 0.51479 0.0
C621 C 0.37572 0.34902 0.51057 0.0
C622 C 0.36113 0.38441 0.50357 0.0
C623 C 0.39277 0.41761 0.50142 0.0
C624 C 0.34103 0.31486 0.51495 0.0
C625 C 0.30302 0.32067 0.5299 0.0
C626 C 0.34579 0.27673 0.50542 0.0
C627 C 0.38309 0.269 0.48807 0.0
C628 C 0.38952 0.28991 0.46658 0.0
C629 C 0.42498 0.28277 0.45041 0.0
C630 C 0.45407 0.25457 0.45544 0.0
C631 C 0.44766 0.23338 0.47663 0.0
C632 C 0.41226 0.24043 0.49287 0.0
C633 C 0.16277 0.18752 0.53458 0.0
C634 C 0.1752 0.16128 0.55166 0.0
C635 C 0.19597 0.2158 0.52547 0.0
C636 C 0.2421 0.21778 0.53306 0.0
C637 C 0.25505 0.18993 0.54886 0.0
C638 C 0.22176 0.16213 0.5583 0.0
C639 C 0.27567 0.25143 0.52684 0.0
C640 C 0.31337 0.24539 0.51182 0.0
C641 C 0.27041 0.28953 0.53595 0.0
C642 C 0.23183 0.29748 0.55236 0.0
C643 C 0.22607 0.2795 0.57491 0.0
C644 C 0.18917 0.28667 0.5901 0.0
C645 C 0.15805 0.31208 0.58303 0.0
C646 C 0.16386 0.33045 0.56078 0.0
C647 C 0.20065 0.32329 0.5455 0.0
H648 H 0.12951 0.31761 0.59481 0.0
H649 H 0.48152 0.24909 0.44291 0.0
H650 H 0.30086 0.60684 0.52505 0.0
H651 H 0.2586 0.66203 0.51761 0.0
H652 H 0.38214 0.72578 0.48965 0.0
H653 H 0.42546 0.67086 0.49802 0.0
H654 H 0.33589 0.77246 0.51887 0.0
H655 H 0.29805 0.68402 0.45118 0.0
H656 H 0.2721 0.62094 0.43022 0.0
H657 H 0.14005 0.61914 0.46519 0.0
H658 H 0.16546 0.68198 0.48665 0.0
H659 H 0.22231 0.90742 0.45083 0.0
H660 H 0.26847 0.8589 0.46662 0.0
H661 H 0.14744 0.80158 0.5011 0.0
H662 H 0.10119 0.85052 0.48545 0.0
H663 H 0.19243 0.75254 0.46967 0.0
H664 H 0.23146 0.84433 0.53593 0.0
H665 H 0.25891 0.90848 0.55508 0.0
H666 H 0.39057 0.90543 0.52033 0.0
H667 H 0.36368 0.84147 0.50066 0.0
C668 C 0.31938 0.63264 0.51756 0.0
C669 C 0.36676 0.63428 0.51222 0.0
C670 C 0.29493 0.66413 0.51307 0.0
C671 C 0.317 0.69795 0.50281 0.0
C672 C 0.36434 0.69993 0.49753 0.0
C673 C 0.38897 0.66835 0.5021 0.0
C674 C 0.29031 0.73096 0.49759 0.0
C675 C 0.30486 0.76822 0.50785 0.0
C676 C 0.24928 0.72533 0.4836 0.0
C677 C 0.23383 0.68753 0.47071 0.0
C678 C 0.26361 0.67002 0.45456 0.0
C679 C 0.24897 0.63434 0.44256 0.0
C680 C 0.2045 0.61599 0.44642 0.0
C681 C 0.17452 0.63336 0.46224 0.0
C682 C 0.18901 0.66903 0.47432 0.0
C683 C 0.20593 0.8851 0.46238 0.0
C684 C 0.15833 0.88267 0.46704 0.0
C685 C 0.23227 0.85742 0.47138 0.0
C686 C 0.21138 0.82661 0.48501 0.0
C687 C 0.16421 0.82519 0.49065 0.0
C688 C 0.13793 0.85325 0.4819 0.0
C689 C 0.23779 0.79392 0.49109 0.0
C690 C 0.2233 0.75671 0.48084 0.0
C691 C 0.27908 0.79979 0.50481 0.0
C692 C 0.29539 0.83824 0.51663 0.0
C693 C 0.26613 0.85748 0.53219 0.0
C694 C 0.28162 0.89379 0.54318 0.0
C695 C 0.32641 0.91107 0.53888 0.0
C696 C 0.35586 0.89203 0.52362 0.0
C697 C 0.34052 0.85572 0.51256 0.0
H698 H 0.33834 0.93918 0.54741 0.0
H699 H 0.19322 0.58837 0.4371 0.0
H700 H 0.0167 0.06197 0.08639 0.0
H701 H 0.01927 0.0544 0.13033 0.0
H702 H 0.07674 0.94531 0.11903 0.0
H703 H 0.07501 0.95304 0.07468 0.0
H704 H 0.99536 0.94374 0.15022 0.0
H705 H 0.14483 0.01392 0.14207 0.0
H706 H 0.20124 0.06658 0.12739 0.0
H707 H 0.13039 0.15199 0.16647 0.0
H708 H 0.07304 0.09992 0.18105 0.0
H709 H 0.01092 0.93126 0.27933 0.0
H710 H 0.02791 0.93047 0.23575 0.0
H711 H 1.0023 0.05103 0.23305 0.0
H712 H 0.98772 0.05269 0.27684 0.0
H713 H 0.07767 0.04033 0.20865 0.0
H714 H 0.92348 0.97416 0.21178 0.0
H715 H 0.86201 0.92401 0.2246 0.0
H716 H 0.9369 0.83381 0.19377 0.0
H717 H 0.99914 0.88344 0.18104 0.0
C718 C 0.03046 0.03659 0.09324 0.0
C719 C 0.04564 0.00805 0.07718 0.0
C720 C 0.03201 0.03239 0.11832 0.0
C721 C 0.04832 0.99939 0.12783 0.0
C722 C 0.0642 0.97103 0.11193 0.0
C723 C 0.0634 0.97556 0.08671 0.0
C724 C 0.0459 0.99404 0.15437 0.0
C725 C 0.01416 0.9642 0.1631 0.0
C726 C 0.06954 0.02153 0.17094 0.0
C727 C 0.10442 0.05297 0.16254 0.0
C728 C 0.14106 0.04395 0.14741 0.0
C729 C 0.17324 0.0737 0.13911 0.0
C730 C 0.16935 0.11261 0.14596 0.0
C731 C 0.13335 0.12184 0.16118 0.0
C732 C 0.10102 0.0922 0.16949 0.0
C733 C 0.00917 0.9577 0.2695 0.0
C734 C 0.99798 0.99208 0.28162 0.0
C735 C 0.01847 0.95708 0.24453 0.0
C736 C 0.01609 0.99062 0.23109 0.0
C737 C 1.0044 0.02481 0.24307 0.0
C738 C 0.99547 0.02556 0.26806 0.0
C739 C 0.02627 0.99044 0.2046 0.0
C740 C 0.05945 0.01933 0.19587 0.0
C741 C 1.00349 0.96235 0.18799 0.0
C742 C 0.96623 0.93247 0.19574 0.0
C743 C 0.92704 0.94361 0.20794 0.0
C744 C 0.89202 0.91528 0.21514 0.0
C745 C 0.89563 0.87574 0.21008 0.0
C746 C 0.93421 0.86444 0.19774 0.0
C747 C 0.96936 0.89266 0.19051 0.0
H748 H 0.86847 0.85386 0.21566 0.0
H749 H 0.19427 0.1356 0.13949 0.0
H750 H 0.98282 0.08729 0.93751 0.0
H751 H 0.97387 0.09295 0.89353 0.0
H752 H 0.99985 0.97271 0.88218 0.0
H753 H 0.01226 0.96815 0.92589 0.0
H754 H 0.04317 0.01072 0.85022 0.0
H755 H 0.88673 0.0089 0.87893 0.0
H756 H 0.82381 0.0311 0.90409 0.0
H757 H 0.8472 0.14457 0.87368 0.0
H758 H 0.91064 0.12318 0.84855 0.0
H759 H 0.95194 0.97418 0.7316 0.0
H760 H 0.9577 0.97586 0.77607 0.0
H761 H 0.97418 0.10177 0.77737 0.0
H762 H 0.96844 0.10032 0.73271 0.0
H763 H 0.91057 0.06553 0.81358 0.0
H764 H 0.06575 0.06257 0.78315 0.0
H765 H 0.12539 0.03637 0.75743 0.0
H766 H 0.09896 0.92563 0.79107 0.0
H767 H 0.03864 0.951 0.81673 0.0
C768 C 0.98642 0.06213 0.92553 0.0
C769 C 0.99815 0.02729 0.93493 0.0
C770 C 0.98099 0.06525 0.90043 0.0
C771 C 0.98534 0.03304 0.88444 0.0
C772 C 0.99644 0.99805 0.89403 0.0
C773 C 1.00336 0.99537 0.919 0.0
C774 C 0.97989 0.03584 0.85766 0.0
C775 C 0.01374 0.02224 0.84232 0.0
C776 C 0.94219 0.05179 0.84716 0.0
C777 C 0.9037 0.06454 0.86204 0.0
C778 C 0.87861 0.03865 0.87772 0.0
C779 C 0.84284 0.05108 0.89196 0.0
C780 C 0.8316 0.08925 0.89053 0.0
C781 C 0.85598 0.11503 0.87479 0.0
C782 C 0.89181 0.10275 0.86053 0.0
C783 C 0.9562 1.00221 0.74138 0.0
C784 C 0.95978 0.03713 0.72877 0.0
C785 C 0.95969 1.00312 0.76672 0.0
C786 C 0.96658 0.03893 0.77987 0.0
C787 C 0.96886 0.07389 0.76744 0.0
C788 C 0.96588 0.07301 0.74202 0.0
C789 C 0.97317 0.03961 0.80654 0.0
C790 C 0.93979 0.05404 0.82172 0.0
C791 C 0.01076 0.02374 0.81694 0.0
C792 C 0.04741 0.0086 0.80171 0.0
C793 C 0.07241 0.03254 0.78493 0.0
C794 C 0.10638 0.01785 0.77038 0.0
C795 C 0.11589 0.97933 0.77258 0.0
C796 C 0.09154 0.95545 0.78938 0.0
C797 C 0.05749 0.96999 0.80394 0.0
H798 H 0.1422 0.96801 0.7613 0.0
H799 H 0.80393 0.09884 0.9016 0.0
H800 H 0.56897 0.45109 0.57649 0.0
H801 H 0.56416 0.44129 0.62059 0.0
H802 H 0.50559 0.55005 0.63102 0.0
H803 H 0.5094 0.55962 0.58717 0.0
H804 H 0.57639 0.53644 0.6658 0.0
H805 H 0.43499 0.47377 0.62759 0.0
H806 H 0.39272 0.42724 0.59818 0.0
H807 H 0.45068 0.33223 0.63037 0.0
H808 H 0.49393 0.37835 0.65974 0.0
H809 H 0.46344 0.54014 0.77686 0.0
H810 H 0.47947 0.53968 0.73336 0.0
H811 H 0.50368 0.41869 0.73482 0.0
H812 H 0.48481 0.41814 0.77826 0.0
H813 H 0.46003 0.4315 0.6942 0.0
H814 H 0.59411 0.49114 0.73548 0.0
H815 H 0.63915 0.53628 0.7646 0.0
H816 H 0.60049 0.63436 0.72678 0.0
H817 H 0.55462 0.58981 0.69763 0.0
C818 C 0.55578 0.47313 0.58829 0.0
C819 C 0.53936 0.50601 0.57852 0.0
C820 C 0.55292 0.46745 0.61337 0.0
C821 C 0.53435 0.49491 0.62889 0.0
C822 C 0.52007 0.52861 0.61926 0.0
C823 C 0.52211 0.53394 0.59425 0.0
C824 C 0.52695 0.48786 0.65501 0.0
C825 C 0.55094 0.51359 0.67209 0.0
C826 C 0.4947 0.45729 0.66304 0.0
C827 C 0.46812 0.42954 0.64566 0.0
C828 C 0.43902 0.443 0.62826 0.0
C829 C 0.41484 0.4167 0.61162 0.0
C830 C 0.41912 0.37681 0.61235 0.0
C831 C 0.44747 0.36314 0.62979 0.0
C832 C 0.47182 0.38934 0.64644 0.0
C833 C 0.47101 0.51309 0.76792 0.0
C834 C 0.47314 0.47924 0.78118 0.0
C835 C 0.48088 0.51305 0.74306 0.0
C836 C 0.49401 0.47945 0.731 0.0
C837 C 0.49417 0.44508 0.74385 0.0
C838 C 0.48376 0.44495 0.76872 0.0
C839 C 0.50865 0.48082 0.70514 0.0
C840 C 0.4861 0.45399 0.68807 0.0
C841 C 0.54273 0.51013 0.69711 0.0
C842 C 0.57067 0.5371 0.71446 0.0
C843 C 0.59498 0.52233 0.73346 0.0
C844 C 0.62068 0.54782 0.74996 0.0
C845 C 0.62262 0.58816 0.74756 0.0
C846 C 0.59895 0.6031 0.72862 0.0
C847 C 0.57313 0.57774 0.71208 0.0
H848 H 0.64253 0.60785 0.76037 0.0
H849 H 0.40039 0.3565 0.59944 0.0
H850 H 0.44183 0.54666 0.43703 0.0
H851 H 0.43248 0.54993 0.39289 0.0
H852 H 0.56464 0.50749 0.38158 0.0
H853 H 0.57424 0.5039 0.42561 0.0
H854 H 0.55072 0.57236 0.35365 0.0
H855 H 0.47258 0.44613 0.37337 0.0
H856 H 0.41607 0.40208 0.39568 0.0
H857 H 0.30571 0.4607 0.36849 0.0
H858 H 0.36168 0.5055 0.34629 0.0
H859 H 0.54561 0.51585 0.22937 0.0
H860 H 0.55031 0.51789 0.27381 0.0
H861 H 0.40821 0.54108 0.27847 0.0
H862 H 0.40309 0.53797 0.23388 0.0
H863 H 0.42378 0.48991 0.31043 0.0
H864 H 0.49913 0.61404 0.28909 0.0
H865 H 0.55418 0.66 0.26725 0.0
H866 H 0.66748 0.6091 0.29789 0.0
H867 H 0.61309 0.56243 0.31965 0.0
C868 C 0.46894 0.5381 0.42514 0.0
C869 C 0.50868 0.52485 0.43476 0.0
C870 C 0.46349 0.53992 0.39997 0.0
C871 C 0.49778 0.52874 0.38408 0.0
C872 C 0.53783 0.51623 0.39362 0.0
C873 C 0.54314 0.51404 0.41875 0.0
C874 C 0.49176 0.52953 0.35742 0.0
C875 C 0.52327 0.55411 0.3441 0.0
C876 C 0.45504 0.50657 0.34524 0.0
C877 C 0.42135 0.47942 0.35839 0.0
C878 C 0.4363 0.44983 0.37231 0.0
C879 C 0.40436 0.42469 0.38491 0.0
C880 C 0.35734 0.42866 0.38356 0.0
C881 C 0.34215 0.4577 0.36955 0.0
C882 C 0.37396 0.48295 0.35694 0.0
C883 C 0.51549 0.52158 0.23991 0.0
C884 C 0.47408 0.527 0.22828 0.0
C885 C 0.51821 0.52286 0.26528 0.0
C886 C 0.47986 0.53039 0.27948 0.0
C887 C 0.43826 0.53535 0.26787 0.0
C888 C 0.43535 0.53356 0.24246 0.0
C889 C 0.48315 0.53248 0.30644 0.0
C890 C 0.45109 0.50846 0.31988 0.0
C891 C 0.51913 0.55632 0.31878 0.0
C892 C 0.55199 0.58452 0.30585 0.0
C893 C 0.53578 0.61247 0.29104 0.0
C894 C 0.56687 0.63867 0.27869 0.0
C895 C 0.61429 0.63741 0.28114 0.0
C896 C 0.63073 0.61001 0.296 0.0
C897 C 0.59979 0.58371 0.30836 0.0
H898 H 0.63831 0.65772 0.27156 0.0
H899 H 0.33267 0.40918 0.39333 0.0
loop_
_geom_bond_atom_site_label_1
_geom_bond_atom_site_label_2
_geom_bond_distance
_geom_bond_site_symmetry_2
_ccdc_geom_bond_type
Co0 N5 2.057 . S
Co0 O17 2.021 . S
Co0 O20 2.062 1_455 S
Co0 O24 2.117 1_554 S
Co0 O25 2.020 1_565 S
C1 O21 1.259 1_455 S
C1 O24 1.258 1_545 S
Co2 N11 2.057 . S
Co2 O18 2.117 . S
Co2 O19 2.020 1_545 S
Co2 O21 2.021 1_554 S
Co2 O26 2.062 1_655 S
C3 N5 1.316 . S
C3 N6 1.347 . S
C3 H8 0.931 . S
C4 N5 1.375 1_556 S
C4 C7 1.350 . S
C4 H9 0.930 . S
N5 Co0 2.057 . S
N5 C3 1.316 . S
N5 C4 1.375 1_554 S
N6 C3 1.347 . S
N6 C7 1.373 1_554 S
C7 C4 1.350 . S
C7 N6 1.373 1_556 S
C7 H28 0.931 . S
H8 C3 0.931 . S
H9 C4 0.930 . S
C10 O17 1.259 1_545 S
C10 O18 1.258 1_455 S
N11 Co2 2.057 . S
N11 C12 1.316 . S
N11 C13 1.375 . S
C12 N11 1.316 . S
C12 N14 1.347 . S
C12 H23 0.931 1_554 S
C13 N11 1.375 . S
C13 C15 1.350 . S
C13 H22 0.930 . S
N14 C12 1.347 . S
N14 C15 1.373 . S
C15 C13 1.350 . S
C15 N14 1.373 . S
C15 H29 0.931 . S
C16 O19 1.256 . S
C16 O20 1.255 . S
O17 Co0 2.021 . S
O17 C10 1.259 1_565 S
O18 Co2 2.117 . S
O18 C10 1.258 1_655 S
O19 Co2 2.020 1_565 S
O19 C16 1.256 . S
O20 Co0 2.062 1_655 S
O20 C16 1.255 . S
O21 C1 1.259 1_655 S
O21 Co2 2.021 1_556 S
H22 C13 0.930 . S
H23 C12 0.931 1_556 S
O24 Co0 2.117 1_556 S
O24 C1 1.258 1_565 S
O25 Co0 2.020 1_545 S
O25 C27 1.256 . S
O26 Co2 2.062 1_455 S
O26 C27 1.255 . S
C27 O25 1.256 . S
C27 O26 1.255 . S
H28 C7 0.931 . S
H29 C15 0.931 . S
Co30 N35 2.057 . S
Co30 O47 2.021 . S
Co30 O50 2.062 . S
Co30 O54 2.117 . S
Co30 O55 2.020 . S
C31 O51 1.259 . S
C31 O54 1.258 . S
Co32 N41 2.057 . S
Co32 O48 2.117 . S
Co32 O49 2.020 . S
Co32 O51 2.021 . S
Co32 O56 2.062 . S
C33 N35 1.316 . S
C33 N36 1.347 . S
C33 H38 0.931 . S
C34 N35 1.375 . S
C34 C37 1.350 . S
C34 H39 0.930 . S
N35 Co30 2.057 . S
N35 C33 1.316 . S
N35 C34 1.375 . S
N36 C33 1.347 . S
N36 C37 1.373 . S
C37 C34 1.350 . S
C37 N36 1.373 . S
C37 H58 0.931 . S
H38 C33 0.931 . S
H39 C34 0.930 . S
C40 O47 1.259 . S
C40 O48 1.258 . S
N41 Co32 2.057 . S
N41 C42 1.316 . S
N41 C43 1.375 . S
C42 N41 1.316 . S
C42 N44 1.347 . S
C42 H53 0.931 . S
C43 N41 1.375 . S
C43 C45 1.350 . S
C43 H52 0.930 . S
N44 C42 1.347 . S
N44 C45 1.373 . S
C45 C43 1.350 . S
C45 N44 1.373 . S
C45 H59 0.931 . S
C46 O49 1.256 . S
C46 O50 1.255 . S
O47 Co30 2.021 . S
O47 C40 1.259 . S
O48 Co32 2.117 . S
O48 C40 1.258 . S
O49 Co32 2.020 . S
O49 C46 1.256 . S
O50 Co30 2.062 . S
O50 C46 1.255 . S
O51 C31 1.259 . S
O51 Co32 2.021 . S
H52 C43 0.930 . S
H53 C42 0.931 . S
O54 Co30 2.117 . S
O54 C31 1.258 . S
O55 Co30 2.020 . S
O55 C57 1.256 . S
O56 Co32 2.062 . S
O56 C57 1.255 . S
C57 O55 1.256 . S
C57 O56 1.255 . S
H58 C37 0.931 . S
H59 C45 0.931 . S
C60 C61 1.391 . S
C60 C64 1.391 . S
C60 H102 0.948 . S
C61 C60 1.391 . S
C61 C62 1.391 . S
C62 C61 1.391 . S
C62 H118 0.947 . S
C62 C119 1.392 . S
C63 C64 1.391 . S
C63 C67 1.397 . S
C63 C119 1.419 . S
C64 C60 1.391 . S
C64 C63 1.391 . S
C64 C65 1.399 . S
C65 C64 1.399 . S
C65 C68 1.396 . S
C65 C77 1.453 1_565 S
C65 C78 1.684 1_455 S
H66 C90 0.948 . S
C67 C63 1.397 . S
C67 C68 1.394 . S
C67 C86 1.723 . S
C68 C65 1.396 . S
C68 C67 1.394 . S
C68 C98 1.723 1_465 S
H69 C92 0.947 . S
H70 C93 0.948 . S
H71 C99 0.982 . S
H72 C100 0.979 . S
H73 C100 0.980 . S
H74 C100 0.983 . S
H75 C99 0.979 . S
H76 C99 0.977 . S
C77 C65 1.453 1_545 S
C77 H106 0.982 . S
C77 H107 0.979 1_545 S
C77 H108 0.977 . S
C78 C65 1.684 1_655 S
C78 H103 0.979 . S
C78 H104 0.980 . S
C78 H105 0.983 . S
C79 C80 1.391 1_465 S
C79 C84 1.391 . S
C79 H109 0.948 . S
C80 C79 1.391 1_645 S
C80 C81 1.391 . S
C81 C80 1.391 . S
C81 C82 1.392 . S
C81 H110 0.947 . S
C82 C81 1.392 . S
C82 C83 1.419 . S
C82 H111 0.948 . S
C83 C82 1.419 . S
C83 C84 1.391 1_645 S
C83 C87 1.397 . S
C84 C79 1.391 . S
C84 C83 1.391 1_465 S
C84 C85 1.399 . S
C85 C84 1.399 . S
C85 C86 1.396 . S
C85 C88 1.453 . S
C85 C89 1.684 . S
C86 C67 1.723 . S
C86 C85 1.396 . S
C86 C87 1.394 1_465 S
C87 C83 1.397 . S
C87 C86 1.394 1_645 S
C87 C97 1.723 . S
C88 C85 1.453 . S
C88 H112 0.982 . S
C88 H113 0.979 . S
C88 H114 0.977 . S
C89 C85 1.684 . S
C89 H115 0.979 . S
C89 H116 0.980 . S
C89 H117 0.983 . S
C90 H66 0.948 . S
C90 C91 1.391 . S
C90 C95 1.391 . S
C91 C90 1.391 . S
C91 C92 1.391 . S
C92 H69 0.947 . S
C92 C91 1.391 . S
C92 C93 1.392 . S
C93 H70 0.948 . S
C93 C92 1.392 . S
C93 C94 1.419 . S
C94 C93 1.419 . S
C94 C95 1.391 . S
C94 C98 1.397 . S
C95 C90 1.391 . S
C95 C94 1.391 . S
C95 C96 1.399 . S
C96 C95 1.399 . S
C96 C97 1.396 . S
C96 C99 1.453 . S
C96 C100 1.684 . S
C97 C87 1.723 . S
C97 C96 1.396 . S
C97 C98 1.394 . S
C98 C68 1.723 1_645 S
C98 C94 1.397 . S
C98 C97 1.394 . S
C99 H71 0.982 . S
C99 H75 0.979 . S
C99 H76 0.977 . S
C99 C96 1.453 . S
C100 H72 0.979 . S
C100 H73 0.980 . S
C100 H74 0.983 . S
C100 C96 1.684 . S
H101 C119 0.948 . S
H102 C60 0.948 . S
H103 C78 0.979 . S
H104 C78 0.980 . S
H105 C78 0.983 . S
H106 C77 0.982 . S
H107 C77 0.979 1_565 S
H108 C77 0.977 . S
H109 C79 0.948 . S
H110 C81 0.947 . S
H111 C82 0.948 . S
H112 C88 0.982 . S
H113 C88 0.979 . S
H114 C88 0.977 . S
H115 C89 0.979 . S
H116 C89 0.980 . S
H117 C89 0.983 . S
H118 C62 0.947 . S
C119 C62 1.392 . S
C119 C63 1.419 . S
C119 H101 0.948 . S
C120 C121 1.391 . S
C120 C124 1.391 . S
C120 H162 0.948 . S
C121 C120 1.391 . S
C121 C122 1.391 . S
C122 C121 1.391 . S
C122 H178 0.947 . S
C122 C179 1.392 . S
C123 C124 1.391 . S
C123 C127 1.397 . S
C123 C179 1.419 . S
C124 C120 1.391 . S
C124 C123 1.391 . S
C124 C125 1.399 . S
C125 C124 1.399 . S
C125 C128 1.396 . S
C125 C137 1.453 . S
C125 C138 1.684 1_455 S
H126 C150 0.948 . S
C127 C123 1.397 . S
C127 C128 1.394 . S
C127 C146 1.723 . S
C128 C125 1.396 . S
C128 C127 1.394 . S
C128 C158 1.723 1_445 S
H129 C152 0.947 . S
H130 C153 0.948 . S
H131 C159 0.982 . S
H132 C160 0.979 . S
H133 C160 0.980 . S
H134 C160 0.983 . S
H135 C159 0.979 . S
H136 C159 0.977 . S
C137 C125 1.453 . S
C137 H166 0.982 . S
C137 H167 0.979 . S
C137 H168 0.977 1_545 S
C138 C125 1.684 1_655 S
C138 H163 0.979 . S
C138 H164 0.980 . S
C138 H165 0.983 1_655 S
C139 C140 1.391 1_455 S
C139 C144 1.391 . S
C139 H169 0.948 . S
C140 C139 1.391 1_655 S
C140 C141 1.391 1_545 S
C141 C140 1.391 1_565 S
C141 C142 1.392 . S
C141 H170 0.947 . S
C142 C141 1.392 . S
C142 C143 1.419 1_565 S
C142 H171 0.948 . S
C143 C142 1.419 1_545 S
C143 C144 1.391 1_655 S
C143 C147 1.397 . S
C144 C139 1.391 . S
C144 C143 1.391 1_455 S
C144 C145 1.399 . S
C145 C144 1.399 . S
C145 C146 1.396 . S
C145 C148 1.453 . S
C145 C149 1.684 . S
C146 C127 1.723 . S
C146 C145 1.396 . S
C146 C147 1.394 1_455 S
C147 C143 1.397 . S
C147 C146 1.394 1_655 S
C147 C157 1.723 1_545 S
C148 C145 1.453 . S
C148 H172 0.982 . S
C148 H173 0.979 . S
C148 H174 0.977 . S
C149 C145 1.684 . S
C149 H175 0.979 . S
C149 H176 0.980 . S
C149 H177 0.983 . S
C150 H126 0.948 . S
C150 C151 1.391 . S
C150 C155 1.391 . S
C151 C150 1.391 . S
C151 C152 1.391 . S
C152 H129 0.947 . S
C152 C151 1.391 . S
C152 C153 1.392 . S
C153 H130 0.948 . S
C153 C152 1.392 . S
C153 C154 1.419 . S
C154 C153 1.419 . S
C154 C155 1.391 . S
C154 C158 1.397 . S
C155 C150 1.391 . S
C155 C154 1.391 . S
C155 C156 1.399 . S
C156 C155 1.399 . S
C156 C157 1.396 . S
C156 C159 1.453 . S
C156 C160 1.684 . S
C157 C147 1.723 1_565 S
C157 C156 1.396 . S
C157 C158 1.394 . S
C158 C128 1.723 1_665 S
C158 C154 1.397 . S
C158 C157 1.394 . S
C159 H131 0.982 . S
C159 H135 0.979 . S
C159 H136 0.977 . S
C159 C156 1.453 . S
C160 H132 0.979 . S
C160 H133 0.980 . S
C160 H134 0.983 . S
C160 C156 1.684 . S
H161 C179 0.948 . S
H162 C120 0.948 . S
H163 C138 0.979 . S
H164 C138 0.980 . S
H165 C138 0.983 1_455 S
H166 C137 0.982 . S
H167 C137 0.979 . S
H168 C137 0.977 1_565 S
H169 C139 0.948 . S
H170 C141 0.947 . S
H171 C142 0.948 . S
H172 C148 0.982 . S
H173 C148 0.979 . S
H174 C148 0.977 . S
H175 C149 0.979 . S
H176 C149 0.980 . S
H177 C149 0.983 . S
H178 C122 0.947 . S
C179 C122 1.392 . S
C179 C123 1.419 . S
C179 H161 0.948 . S
C180 C181 1.391 . S
C180 C184 1.391 . S
C180 H222 0.948 . S
C181 C180 1.391 . S
C181 C182 1.391 . S
C182 C181 1.391 . S
C182 H238 0.947 . S
C182 C239 1.392 . S
C183 C184 1.391 . S
C183 C187 1.397 . S
C183 C239 1.419 . S
C184 C180 1.391 . S
C184 C183 1.391 . S
C184 C185 1.399 . S
C185 C184 1.399 . S
C185 C188 1.396 . S
C185 C197 1.453 . S
C185 C198 1.684 . S
H186 C210 0.948 . S
C187 C183 1.397 . S
C187 C188 1.394 . S
C187 C206 1.723 . S
C188 C185 1.396 . S
C188 C187 1.394 . S
C188 C218 1.723 . S
H189 C212 0.947 1_554 S
H190 C213 0.948 . S
H191 C219 0.982 . S
H192 C220 0.979 . S
H193 C220 0.980 . S
H194 C220 0.983 . S
H195 C219 0.979 . S
H196 C219 0.977 . S
C197 C185 1.453 . S
C197 H226 0.982 . S
C197 H227 0.979 1_556 S
C197 H228 0.977 . S
C198 C185 1.684 . S
C198 H223 0.979 . S
C198 H224 0.986 . S
C198 H225 0.983 1_556 S
C199 C200 1.391 . S
C199 C204 1.391 . S
C199 H229 0.948 . S
C200 C199 1.391 . S
C200 C201 1.391 . S
C201 C200 1.391 . S
C201 C202 1.392 . S
C201 H230 0.947 . S
C202 C201 1.392 . S
C202 C203 1.419 . S
C202 H231 0.948 . S
C203 C202 1.419 . S
C203 C204 1.391 . S
C203 C207 1.397 . S
C204 C199 1.391 . S
C204 C203 1.391 . S
C204 C205 1.399 . S
C205 C204 1.399 . S
C205 C206 1.396 . S
C205 C208 1.453 . S
C205 C209 1.684 . S
C206 C187 1.723 . S
C206 C205 1.396 . S
C206 C207 1.394 . S
C207 C203 1.397 . S
C207 C206 1.394 . S
C207 C217 1.723 . S
C208 C205 1.453 . S
C208 H232 0.982 . S
C208 H233 0.979 . S
C208 H234 0.977 . S
C209 C205 1.684 . S
C209 H235 0.979 . S
C209 H236 0.980 . S
C209 H237 0.983 . S
C210 H186 0.948 . S
C210 C211 1.391 . S
C210 C215 1.391 . S
C211 C210 1.391 . S
C211 C212 1.391 . S
C212 H189 0.947 1_556 S
C212 C211 1.391 . S
C212 C213 1.392 . S
C213 H190 0.948 . S
C213 C212 1.392 . S
C213 C214 1.419 . S
C214 C213 1.419 . S
C214 C215 1.391 . S
C214 C218 1.397 . S
C215 C210 1.391 . S
C215 C214 1.391 . S
C215 C216 1.399 . S
C216 C215 1.399 . S
C216 C217 1.396 . S
C216 C219 1.453 . S
C216 C220 1.684 . S
C217 C207 1.723 . S
C217 C216 1.396 . S
C217 C218 1.394 . S
C218 C188 1.723 . S
C218 C214 1.397 . S
C218 C217 1.394 . S
C219 H191 0.982 . S
C219 H195 0.979 . S
C219 H196 0.977 . S
C219 C216 1.453 . S
C220 H192 0.979 . S
C220 H193 0.980 . S
C220 H194 0.983 . S
C220 C216 1.684 . S
H221 C239 0.948 . S
H222 C180 0.948 . S
H223 C198 0.979 . S
H224 C198 0.986 . S
H225 C198 0.983 1_554 S
H226 C197 0.982 . S
H227 C197 0.979 1_554 S
H228 C197 0.977 . S
H229 C199 0.948 . S
H230 C201 0.947 . S
H231 C202 0.948 . S
H232 C208 0.982 . S
H233 C208 0.979 . S
H234 C208 0.977 . S
H235 C209 0.979 . S
H236 C209 0.980 . S
H237 C209 0.983 . S
H238 C182 0.947 . S
C239 C182 1.392 . S
C239 C183 1.419 . S
C239 H221 0.948 . S
C240 C241 1.391 . S
C240 C244 1.391 . S
C240 H282 0.948 . S
C241 C240 1.391 . S
C241 C242 1.391 . S
C242 C241 1.391 . S
C242 H298 0.947 . S
C242 C299 1.392 . S
C243 C244 1.391 . S
C243 C247 1.397 . S
C243 C299 1.419 . S
C244 C240 1.391 . S
C244 C243 1.391 . S
C244 C245 1.399 . S
C245 C244 1.399 . S
C245 C248 1.396 . S
C245 C257 1.453 . S
C245 C258 1.684 . S
H246 C270 0.948 . S
C247 C243 1.397 . S
C247 C248 1.394 . S
C247 C266 1.723 . S
C248 C245 1.396 . S
C248 C247 1.394 . S
C248 C278 1.723 . S
H249 C272 0.947 . S
H250 C273 0.948 . S
H251 C279 0.982 . S
H252 C280 0.979 . S
H253 C280 0.980 . S
H254 C280 0.983 . S
H255 C279 0.979 . S
H256 C279 0.977 . S
C257 C245 1.453 . S
C257 H286 0.982 . S
C257 H287 0.979 . S
C257 H288 0.977 . S
C258 C245 1.684 . S
C258 H283 0.979 . S
C258 H284 0.980 . S
C258 H285 0.983 . S
C259 C260 1.391 . S
C259 C264 1.391 . S
C259 H289 0.948 . S
C260 C259 1.391 . S
C260 C261 1.391 . S
C261 C260 1.391 . S
C261 C262 1.392 . S
C261 H290 0.947 . S
C262 C261 1.392 . S
C262 C263 1.419 . S
C262 H291 0.948 . S
C263 C262 1.419 . S
C263 C264 1.391 . S
C263 C267 1.397 . S
C264 C259 1.391 . S
C264 C263 1.391 . S
C264 C265 1.399 . S
C265 C264 1.399 . S
C265 C266 1.396 . S
C265 C268 1.453 . S
C265 C269 1.684 . S
C266 C247 1.723 . S
C266 C265 1.396 . S
C266 C267 1.394 . S
C267 C263 1.397 . S
C267 C266 1.394 . S
C267 C277 1.723 . S
C268 C265 1.453 . S
C268 H292 0.982 . S
C268 H293 0.979 . S
C268 H294 0.977 . S
C269 C265 1.684 . S
C269 H295 0.979 . S
C269 H296 0.980 . S
C269 H297 0.983 . S
C270 H246 0.948 . S
C270 C271 1.391 . S
C270 C275 1.391 . S
C271 C270 1.391 . S
C271 C272 1.391 . S
C272 H249 0.947 . S
C272 C271 1.391 . S
C272 C273 1.392 . S
C273 H250 0.948 . S
C273 C272 1.392 . S
C273 C274 1.419 . S
C274 C273 1.419 . S
C274 C275 1.391 . S
C274 C278 1.397 . S
C275 C270 1.391 . S
C275 C274 1.391 . S
C275 C276 1.399 . S
C276 C275 1.399 . S
C276 C277 1.396 . S
C276 C279 1.453 . S
C276 C280 1.684 . S
C277 C267 1.723 . S
C277 C276 1.396 . S
C277 C278 1.394 . S
C278 C248 1.723 . S
C278 C274 1.397 . S
C278 C277 1.394 . S
C279 H251 0.982 . S
C279 H255 0.979 . S
C279 H256 0.977 . S
C279 C276 1.453 . S
C280 H252 0.979 . S
C280 H253 0.980 . S
C280 H254 0.983 . S
C280 C276 1.684 . S
H281 C299 0.948 . S
H282 C240 0.948 . S
H283 C258 0.979 . S
H284 C258 0.980 . S
H285 C258 0.983 . S
H286 C257 0.982 . S
H287 C257 0.979 . S
H288 C257 0.977 . S
H289 C259 0.948 . S
H290 C261 0.947 . S
H291 C262 0.948 . S
H292 C268 0.982 . S
H293 C268 0.979 . S
H294 C268 0.977 . S
H295 C269 0.979 . S
H296 C269 0.980 . S
H297 C269 0.983 . S
H298 C242 0.947 . S
C299 C242 1.392 . S
C299 C243 1.419 . S
C299 H281 0.948 . S
H300 C318 0.951 . S
H301 C320 0.951 . S
H302 C322 0.950 . S
H303 C323 0.950 . S
H304 C325 0.958 . S
H305 C328 0.950 . S
H306 C329 0.950 . S
H307 C331 0.950 . S
H308 C332 0.950 . S
H309 C333 0.951 . S
H310 C335 0.951 . S
H311 C337 0.950 . S
H312 C338 0.950 . S
H313 C340 0.950 . S
H314 C343 0.950 . S
H315 C344 0.950 . S
H316 C346 0.950 . S
H317 C347 0.950 1_554 S
C318 H300 0.951 . S
C318 C319 1.366 . S
C318 C320 1.388 . S
C319 C318 1.366 . S
C319 C323 1.385 . S
C320 H301 0.951 . S
C320 C318 1.388 . S
C320 C321 1.366 . S
C321 C320 1.366 . S
C321 C322 1.414 . S
C321 C324 1.499 . S
C322 H302 0.950 . S
C322 C321 1.414 . S
C322 C323 1.374 . S
C323 H303 0.950 . S
C323 C319 1.385 . S
C323 C322 1.374 . S
C324 C321 1.499 . S
C324 C325 1.373 . S
C324 C326 1.389 . S
C325 H304 0.958 . S
C325 C324 1.373 . S
C325 C341 1.377 . S
C326 C324 1.389 . S
C326 C327 1.524 . S
C326 C340 1.377 . S
C327 C326 1.524 . S
C327 C328 1.397 . S
C327 C332 1.363 . S
C328 H305 0.950 . S
C328 C327 1.397 . S
C328 C329 1.334 . S
C329 H306 0.950 . S
C329 C328 1.334 . S
C329 C330 1.287 . S
C330 C329 1.287 . S
C330 C331 1.524 . S
C330 H349 0.913 . S
C331 H307 0.950 . S
C331 C330 1.524 . S
C331 C332 1.415 . S
C332 H308 0.950 . S
C332 C327 1.363 . S
C332 C331 1.415 . S
C333 H309 0.951 . S
C333 C334 1.366 . S
C333 C335 1.388 . S
C334 C333 1.366 . S
C334 C338 1.385 . S
C335 H310 0.951 . S
C335 C333 1.388 . S
C335 C336 1.366 . S
C336 C335 1.366 . S
C336 C337 1.414 . S
C336 C339 1.499 . S
C337 H311 0.950 . S
C337 C336 1.414 . S
C337 C338 1.374 . S
C338 H312 0.950 . S
C338 C334 1.385 . S
C338 C337 1.374 . S
C339 C336 1.499 . S
C339 C340 1.373 . S
C339 C341 1.389 . S
C340 H313 0.950 . S
C340 C326 1.377 . S
C340 C339 1.373 . S
C341 C325 1.377 . S
C341 C339 1.389 . S
C341 C342 1.524 1_554 S
C342 C341 1.524 1_556 S
C342 C343 1.397 . S
C342 C347 1.363 . S
C343 H314 0.950 . S
C343 C342 1.397 . S
C343 C344 1.334 . S
C344 H315 0.950 . S
C344 C343 1.334 . S
C344 C345 1.287 . S
C345 C344 1.287 . S
C345 C346 1.524 . S
C345 H348 0.999 . S
C346 H316 0.950 . S
C346 C345 1.524 . S
C346 C347 1.415 . S
C347 H317 0.950 1_556 S
C347 C342 1.363 . S
C347 C346 1.415 . S
H348 C345 0.999 . S
H349 C330 0.913 . S
H350 C368 0.951 . S
H351 C370 0.951 . S
H352 C372 0.950 . S
H353 C373 0.950 . S
H354 C375 0.950 . S
H355 C378 0.950 . S
H356 C379 0.950 . S
H357 C381 0.950 . S
H358 C382 0.950 . S
H359 C383 0.951 . S
H360 C385 0.951 . S
H361 C387 0.950 . S
H362 C388 0.950 . S
H363 C390 0.950 . S
H364 C393 0.950 . S
H365 C394 0.950 . S
H366 C396 0.950 . S
H367 C397 0.950 . S
C368 H350 0.951 . S
C368 C369 1.366 . S
C368 C370 1.388 . S
C369 C368 1.366 . S
C369 C373 1.385 1_554 S
C370 H351 0.951 . S
C370 C368 1.388 . S
C370 C371 1.366 . S
C371 C370 1.366 . S
C371 C372 1.414 1_554 S
C371 C374 1.500 . S
C372 H352 0.950 . S
C372 C371 1.414 1_556 S
C372 C373 1.374 . S
C373 H353 0.950 . S
C373 C369 1.385 1_556 S
C373 C372 1.374 . S
C374 C371 1.500 . S
C374 C375 1.369 1_554 S
C374 C376 1.393 . S
C375 H354 0.950 . S
C375 C374 1.369 1_556 S
C375 C391 1.377 . S
C376 C374 1.393 . S
C376 C377 1.524 . S
C376 C390 1.377 . S
C377 C376 1.524 . S
C377 C378 1.397 . S
C377 C382 1.363 . S
C378 H355 0.950 . S
C378 C377 1.397 . S
C378 C379 1.334 . S
C379 H356 0.950 . S
C379 C378 1.334 . S
C379 C380 1.287 . S
C380 C379 1.287 . S
C380 C381 1.524 . S
C380 H399 0.913 . S
C381 H357 0.950 . S
C381 C380 1.524 . S
C381 C382 1.415 . S
C382 H358 0.950 . S
C382 C377 1.363 . S
C382 C381 1.415 . S
C383 H359 0.951 . S
C383 C384 1.366 . S
C383 C385 1.388 . S
C384 C383 1.366 . S
C384 C388 1.385 1_556 S
C385 H360 0.951 . S
C385 C383 1.388 . S
C385 C386 1.366 . S
C386 C385 1.366 . S
C386 C387 1.414 1_556 S
C386 C389 1.499 . S
C387 H361 0.950 . S
C387 C386 1.414 1_554 S
C387 C388 1.374 . S
C388 H362 0.950 . S
C388 C384 1.385 1_554 S
C388 C387 1.374 . S
C389 C386 1.499 . S
C389 C390 1.373 1_556 S
C389 C391 1.389 . S
C390 H363 0.950 . S
C390 C376 1.377 . S
C390 C389 1.373 1_554 S
C391 C375 1.377 . S
C391 C389 1.389 . S
C391 C392 1.524 . S
C392 C391 1.524 . S
C392 C393 1.397 . S
C392 C397 1.363 . S
C393 H364 0.950 . S
C393 C392 1.397 . S
C393 C394 1.334 . S
C394 H365 0.950 . S
C394 C393 1.334 . S
C394 C395 1.287 . S
C395 C394 1.287 . S
C395 C396 1.524 . S
C395 H398 0.999 . S
C396 H366 0.950 . S
C396 C395 1.524 . S
C396 C397 1.415 . S
C397 H367 0.950 . S
C397 C392 1.363 . S
C397 C396 1.415 . S
H398 C395 0.999 . S
H399 C380 0.913 . S
H400 C418 0.951 . S
H401 C420 0.951 . S
H402 C422 0.950 . S
H403 C423 0.950 . S
H404 C425 0.950 . S
H405 C428 0.950 . S
H406 C429 0.950 . S
H407 C431 0.950 . S
H408 C432 0.950 . S
H409 C433 0.951 . S
H410 C435 0.951 . S
H411 C437 0.950 . S
H412 C438 0.950 . S
H413 C440 0.950 . S
H414 C443 0.950 . S
H415 C444 0.950 . S
H416 C446 0.950 . S
H417 C447 0.950 . S
C418 H400 0.951 . S
C418 C419 1.366 . S
C418 C420 1.388 . S
C419 C418 1.366 . S
C419 C423 1.385 . S
C420 H401 0.951 . S
C420 C418 1.388 . S
C420 C421 1.366 . S
C421 C420 1.366 . S
C421 C422 1.414 . S
C421 C424 1.499 . S
C422 H402 0.950 . S
C422 C421 1.414 . S
C422 C423 1.374 . S
C423 H403 0.950 . S
C423 C419 1.385 . S
C423 C422 1.374 . S
C424 C421 1.499 . S
C424 C425 1.373 . S
C424 C426 1.389 . S
C425 H404 0.950 . S
C425 C424 1.373 . S
C425 C441 1.377 . S
C426 C424 1.389 . S
C426 C427 1.524 . S
C426 C440 1.377 . S
C427 C426 1.524 . S
C427 C428 1.397 . S
C427 C432 1.363 . S
C428 H405 0.950 . S
C428 C427 1.397 . S
C428 C429 1.334 . S
C429 H406 0.950 . S
C429 C428 1.334 . S
C429 C430 1.287 . S
C430 C429 1.287 . S
C430 C431 1.524 . S
C430 H449 0.913 . S
C431 H407 0.950 . S
C431 C430 1.524 . S
C431 C432 1.415 . S
C432 H408 0.950 . S
C432 C427 1.363 . S
C432 C431 1.415 . S
C433 H409 0.951 . S
C433 C434 1.366 . S
C433 C435 1.388 . S
C434 C433 1.366 . S
C434 C438 1.385 . S
C435 H410 0.951 . S
C435 C433 1.388 . S
C435 C436 1.366 . S
C436 C435 1.366 . S
C436 C437 1.414 . S
C436 C439 1.499 . S
C437 H411 0.950 . S
C437 C436 1.414 . S
C437 C438 1.374 . S
C438 H412 0.950 . S
C438 C434 1.385 . S
C438 C437 1.374 . S
C439 C436 1.499 . S
C439 C440 1.373 . S
C439 C441 1.389 . S
C440 H413 0.950 . S
C440 C426 1.377 . S
C440 C439 1.373 . S
C441 C425 1.377 . S
C441 C439 1.389 . S
C441 C442 1.524 1_554 S
C442 C441 1.524 1_556 S
C442 C443 1.397 . S
C442 C447 1.363 1_556 S
C443 H414 0.950 . S
C443 C442 1.397 . S
C443 C444 1.334 . S
C444 H415 0.950 . S
C444 C443 1.334 . S
C444 C445 1.287 . S
C445 C444 1.287 . S
C445 C446 1.524 . S
C445 H448 0.999 . S
C446 H416 0.950 . S
C446 C445 1.524 . S
C446 C447 1.415 1_556 S
C447 H417 0.950 . S
C447 C442 1.363 1_554 S
C447 C446 1.415 1_554 S
H448 C445 0.999 . S
H449 C430 0.913 . S
H450 C468 0.951 . S
H451 C470 0.951 . S
H452 C472 0.950 . S
H453 C473 0.950 . S
H454 C475 0.950 . S
H455 C478 0.950 . S
H456 C479 0.950 . S
H457 C481 0.950 . S
H458 C482 0.950 . S
H459 C483 0.951 . S
H460 C485 0.951 . S
H461 C487 0.950 . S
H462 C488 0.950 . S
H463 C490 0.950 . S
H464 C493 0.950 . S
H465 C494 0.950 . S
H466 C496 0.950 . S
H467 C497 0.950 . S
C468 H450 0.951 . S
C468 C469 1.366 . S
C468 C470 1.388 . S
C469 C468 1.366 . S
C469 C473 1.385 1_554 S
C470 H451 0.951 . S
C470 C468 1.388 . S
C470 C471 1.366 . S
C471 C470 1.366 . S
C471 C472 1.414 1_554 S
C471 C474 1.493 1_554 S
C472 H452 0.950 . S
C472 C471 1.414 1_556 S
C472 C473 1.374 . S
C473 H453 0.950 . S
C473 C469 1.385 1_556 S
C473 C472 1.374 . S
C474 C471 1.493 1_556 S
C474 C475 1.403 . S
C474 C476 1.366 1_556 S
C475 H454 0.950 . S
C475 C474 1.403 . S
C475 C491 1.377 . S
C476 C474 1.366 1_554 S
C476 C477 1.524 . S
C476 C490 1.377 . S
C477 C476 1.524 . S
C477 C478 1.397 . S
C477 C482 1.363 . S
C478 H455 0.950 . S
C478 C477 1.397 . S
C478 C479 1.334 . S
C479 H456 0.950 . S
C479 C478 1.334 . S
C479 C480 1.287 . S
C480 C479 1.287 . S
C480 C481 1.524 . S
C480 H499 0.913 . S
C481 H457 0.950 . S
C481 C480 1.524 . S
C481 C482 1.415 . S
C482 H458 0.950 . S
C482 C477 1.363 . S
C482 C481 1.415 . S
C483 H459 0.951 . S
C483 C484 1.366 . S
C483 C485 1.388 . S
C484 C483 1.366 . S
C484 C488 1.385 1_556 S
C485 H460 0.951 . S
C485 C483 1.388 . S
C485 C486 1.366 . S
C486 C485 1.366 . S
C486 C487 1.414 1_556 S
C486 C489 1.499 . S
C487 H461 0.950 . S
C487 C486 1.414 1_554 S
C487 C488 1.374 . S
C488 H462 0.950 . S
C488 C484 1.385 1_554 S
C488 C487 1.374 . S
C489 C486 1.499 . S
C489 C490 1.373 1_556 S
C489 C491 1.389 . S
C490 H463 0.950 . S
C490 C476 1.377 . S
C490 C489 1.373 1_554 S
C491 C475 1.377 . S
C491 C489 1.389 . S
C491 C492 1.524 . S
C492 C491 1.524 . S
C492 C493 1.397 . S
C492 C497 1.363 . S
C493 H464 0.950 . S
C493 C492 1.397 . S
C493 C494 1.334 . S
C494 H465 0.950 . S
C494 C493 1.334 . S
C494 C495 1.287 . S
C495 C494 1.287 . S
C495 C496 1.524 . S
C495 H498 0.999 . S
C496 H466 0.950 . S
C496 C495 1.524 . S
C496 C497 1.415 . S
C497 H467 0.950 . S
C497 C492 1.363 . S
C497 C496 1.415 . S
H498 C495 0.999 . S
H499 C480 0.913 . S
H500 C518 0.951 . S
H501 C520 0.951 . S
H502 C522 0.950 . S
H503 C523 0.950 . S
H504 C525 0.950 . S
H505 C528 0.950 . S
H506 C529 0.950 . S
H507 C531 0.950 . S
H508 C532 0.950 . S
H509 C533 0.951 . S
H510 C535 0.951 . S
H511 C537 0.950 . S
H512 C538 0.950 . S
H513 C540 0.950 . S
H514 C543 0.950 . S
H515 C544 0.950 . S
H516 C546 0.950 . S
H517 C547 0.950 . S
C518 H500 0.951 . S
C518 C519 1.366 . S
C518 C520 1.388 . S
C519 C518 1.366 . S
C519 C523 1.385 . S
C520 H501 0.951 . S
C520 C518 1.388 . S
C520 C521 1.366 . S
C521 C520 1.366 . S
C521 C522 1.414 . S
C521 C524 1.499 . S
C522 H502 0.950 . S
C522 C521 1.414 . S
C522 C523 1.374 . S
C523 H503 0.950 . S
C523 C519 1.385 . S
C523 C522 1.374 . S
C524 C521 1.499 . S
C524 C525 1.373 . S
C524 C526 1.389 . S
C525 H504 0.950 . S
C525 C524 1.373 . S
C525 C541 1.377 . S
C526 C524 1.389 . S
C526 C527 1.524 . S
C526 C540 1.377 . S
C527 C526 1.524 . S
C527 C528 1.397 . S
C527 C532 1.363 . S
C528 H505 0.950 . S
C528 C527 1.397 . S
C528 C529 1.334 . S
C529 H506 0.950 . S
C529 C528 1.334 . S
C529 C530 1.287 . S
C530 C529 1.287 . S
C530 C531 1.524 . S
C530 H549 0.913 . S
C531 H507 0.950 . S
C531 C530 1.524 . S
C531 C532 1.415 . S
C532 H508 0.950 . S
C532 C527 1.363 . S
C532 C531 1.415 . S
C533 H509 0.951 . S
C533 C534 1.366 . S
C533 C535 1.388 . S
C534 C533 1.366 . S
C534 C538 1.385 . S
C535 H510 0.951 . S
C535 C533 1.388 . S
C535 C536 1.366 . S
C536 C535 1.366 . S
C536 C537 1.414 . S
C536 C539 1.499 . S
C537 H511 0.950 . S
C537 C536 1.414 . S
C537 C538 1.374 . S
C538 H512 0.950 . S
C538 C534 1.385 . S
C538 C537 1.374 . S
C539 C536 1.499 . S
C539 C540 1.373 . S
C539 C541 1.389 . S
C540 H513 0.950 . S
C540 C526 1.377 . S
C540 C539 1.373 . S
C541 C525 1.377 . S
C541 C539 1.389 . S
C541 C542 1.524 . S
C542 C541 1.524 . S
C542 C543 1.397 . S
C542 C547 1.363 . S
C543 H514 0.950 . S
C543 C542 1.397 . S
C543 C544 1.334 . S
C544 H515 0.950 . S
C544 C543 1.334 . S
C544 C545 1.287 . S
C545 C544 1.287 . S
C545 C546 1.524 . S
C545 H548 0.999 . S
C546 H516 0.950 . S
C546 C545 1.524 . S
C546 C547 1.415 . S
C547 H517 0.950 . S
C547 C542 1.363 . S
C547 C546 1.415 . S
H548 C545 0.999 . S
H549 C530 0.913 . S
H550 C568 0.951 . S
H551 C570 0.951 . S
H552 C572 0.950 . S
H553 C573 0.950 . S
H554 C575 0.950 . S
H555 C578 0.950 . S
H556 C579 0.950 . S
H557 C581 0.950 . S
H558 C582 0.950 . S
H559 C583 0.951 . S
H560 C585 0.951 . S
H561 C587 0.950 . S
H562 C588 0.950 . S
H563 C590 0.950 . S
H564 C593 0.950 . S
H565 C594 0.950 . S
H566 C596 0.950 . S
H567 C597 0.950 . S
C568 H550 0.951 . S
C568 C569 1.366 . S
C568 C570 1.388 . S
C569 C568 1.366 . S
C569 C573 1.385 . S
C570 H551 0.951 . S
C570 C568 1.388 . S
C570 C571 1.366 . S
C571 C570 1.366 . S
C571 C572 1.414 . S
C571 C574 1.499 . S
C572 H552 0.950 . S
C572 C571 1.414 . S
C572 C573 1.374 . S
C573 H553 0.950 . S
C573 C569 1.385 . S
C573 C572 1.374 . S
C574 C571 1.499 . S
C574 C575 1.373 . S
C574 C576 1.389 . S
C575 H554 0.950 . S
C575 C574 1.373 . S
C575 C591 1.377 . S
C576 C574 1.389 . S
C576 C577 1.524 . S
C576 C590 1.377 . S
C577 C576 1.524 . S
C577 C578 1.397 . S
C577 C582 1.363 . S
C578 H555 0.950 . S
C578 C577 1.397 . S
C578 C579 1.334 . S
C579 H556 0.950 . S
C579 C578 1.334 . S
C579 C580 1.287 . S
C580 C579 1.287 . S
C580 C581 1.524 . S
C580 H599 0.913 . S
C581 H557 0.950 . S
C581 C580 1.524 . S
C581 C582 1.415 . S
C582 H558 0.950 . S
C582 C577 1.363 . S
C582 C581 1.415 . S
C583 H559 0.951 . S
C583 C584 1.366 . S
C583 C585 1.388 . S
C584 C583 1.366 . S
C584 C588 1.385 . S
C585 H560 0.951 . S
C585 C583 1.388 . S
C585 C586 1.366 . S
C586 C585 1.366 . S
C586 C587 1.414 . S
C586 C589 1.499 . S
C587 H561 0.950 . S
C587 C586 1.414 . S
C587 C588 1.374 . S
C588 H562 0.950 . S
C588 C584 1.385 . S
C588 C587 1.374 . S
C589 C586 1.499 . S
C589 C590 1.373 . S
C589 C591 1.389 . S
C590 H563 0.950 . S
C590 C576 1.377 . S
C590 C589 1.373 . S
C591 C575 1.377 . S
C591 C589 1.389 . S
C591 C592 1.524 . S
C592 C591 1.524 . S
C592 C593 1.397 . S
C592 C597 1.363 . S
C593 H564 0.950 . S
C593 C592 1.397 . S
C593 C594 1.334 . S
C594 H565 0.950 . S
C594 C593 1.334 . S
C594 C595 1.287 . S
C595 C594 1.287 . S
C595 C596 1.524 . S
C595 H598 0.999 . S
C596 H566 0.950 . S
C596 C595 1.524 . S
C596 C597 1.415 . S
C597 H567 0.950 . S
C597 C592 1.363 . S
C597 C596 1.415 . S
H598 C595 0.999 . S
H599 C580 0.913 . S
H600 C618 0.951 . S
H601 C620 0.951 . S
H602 C622 0.950 . S
H603 C623 0.950 . S
H604 C625 0.950 . S
H605 C628 0.950 . S
H606 C629 0.950 . S
H607 C631 0.950 . S
H608 C632 0.950 . S
H609 C633 0.951 . S
H610 C635 0.951 . S
H611 C637 0.950 . S
H612 C638 0.950 . S
H613 C640 0.950 . S
H614 C643 0.950 . S
H615 C644 0.950 . S
H616 C646 0.950 . S
H617 C647 0.950 . S
C618 H600 0.951 . S
C618 C619 1.366 . S
C618 C620 1.388 . S
C619 C618 1.366 . S
C619 C623 1.385 . S
C620 H601 0.951 . S
C620 C618 1.388 . S
C620 C621 1.366 . S
C621 C620 1.366 . S
C621 C622 1.414 . S
C621 C624 1.499 . S
C622 H602 0.950 . S
C622 C621 1.414 . S
C622 C623 1.374 . S
C623 H603 0.950 . S
C623 C619 1.385 . S
C623 C622 1.374 . S
C624 C621 1.499 . S
C624 C625 1.373 . S
C624 C626 1.389 . S
C625 H604 0.950 . S
C625 C624 1.373 . S
C625 C641 1.377 . S
C626 C624 1.389 . S
C626 C627 1.524 . S
C626 C640 1.377 . S
C627 C626 1.524 . S
C627 C628 1.397 . S
C627 C632 1.363 . S
C628 H605 0.950 . S
C628 C627 1.397 . S
C628 C629 1.334 . S
C629 H606 0.950 . S
C629 C628 1.334 . S
C629 C630 1.287 . S
C630 C629 1.287 . S
C630 C631 1.524 . S
C630 H649 0.913 . S
C631 H607 0.950 . S
C631 C630 1.524 . S
C631 C632 1.415 . S
C632 H608 0.950 . S
C632 C627 1.363 . S
C632 C631 1.415 . S
C633 H609 0.951 . S
C633 C634 1.366 . S
C633 C635 1.388 . S
C634 C633 1.366 . S
C634 C638 1.385 . S
C635 H610 0.951 . S
C635 C633 1.388 . S
C635 C636 1.366 . S
C636 C635 1.366 . S
C636 C637 1.414 . S
C636 C639 1.499 . S
C637 H611 0.950 . S
C637 C636 1.414 . S
C637 C638 1.374 . S
C638 H612 0.950 . S
C638 C634 1.385 . S
C638 C637 1.374 . S
C639 C636 1.499 . S
C639 C640 1.373 . S
C639 C641 1.389 . S
C640 H613 0.950 . S
C640 C626 1.377 . S
C640 C639 1.373 . S
C641 C625 1.377 . S
C641 C639 1.389 . S
C641 C642 1.524 . S
C642 C641 1.524 . S
C642 C643 1.397 . S
C642 C647 1.363 . S
C643 H614 0.950 . S
C643 C642 1.397 . S
C643 C644 1.334 . S
C644 H615 0.950 . S
C644 C643 1.334 . S
C644 C645 1.287 . S
C645 C644 1.287 . S
C645 C646 1.524 . S
C645 H648 0.999 . S
C646 H616 0.950 . S
C646 C645 1.524 . S
C646 C647 1.415 . S
C647 H617 0.950 . S
C647 C642 1.363 . S
C647 C646 1.415 . S
H648 C645 0.999 . S
H649 C630 0.913 . S
H650 C668 0.951 . S
H651 C670 0.951 . S
H652 C672 0.950 . S
H653 C673 0.950 . S
H654 C675 0.950 . S
H655 C678 0.950 . S
H656 C679 0.950 . S
H657 C681 0.950 . S
H658 C682 0.950 . S
H659 C683 0.951 . S
H660 C685 0.951 . S
H661 C687 0.950 . S
H662 C688 0.950 . S
H663 C690 0.950 . S
H664 C693 0.950 . S
H665 C694 0.950 . S
H666 C696 0.950 . S
H667 C697 0.950 . S
C668 H650 0.951 . S
C668 C669 1.366 . S
C668 C670 1.388 . S
C669 C668 1.366 . S
C669 C673 1.385 . S
C670 H651 0.951 . S
C670 C668 1.388 . S
C670 C671 1.366 . S
C671 C670 1.366 . S
C671 C672 1.414 . S
C671 C674 1.499 . S
C672 H652 0.950 . S
C672 C671 1.414 . S
C672 C673 1.374 . S
C673 H653 0.950 . S
C673 C669 1.385 . S
C673 C672 1.374 . S
C674 C671 1.499 . S
C674 C675 1.373 . S
C674 C676 1.389 . S
C675 H654 0.950 . S
C675 C674 1.373 . S
C675 C691 1.377 . S
C676 C674 1.389 . S
C676 C677 1.524 . S
C676 C690 1.377 . S
C677 C676 1.524 . S
C677 C678 1.397 . S
C677 C682 1.363 . S
C678 H655 0.950 . S
C678 C677 1.397 . S
C678 C679 1.334 . S
C679 H656 0.950 . S
C679 C678 1.334 . S
C679 C680 1.287 . S
C680 C679 1.287 . S
C680 C681 1.524 . S
C680 H699 0.913 . S
C681 H657 0.950 . S
C681 C680 1.524 . S
C681 C682 1.415 . S
C682 H658 0.950 . S
C682 C677 1.363 . S
C682 C681 1.415 . S
C683 H659 0.951 . S
C683 C684 1.366 . S
C683 C685 1.388 . S
C684 C683 1.366 . S
C684 C688 1.385 . S
C685 H660 0.951 . S
C685 C683 1.388 . S
C685 C686 1.366 . S
C686 C685 1.366 . S
C686 C687 1.414 . S
C686 C689 1.499 . S
C687 H661 0.950 . S
C687 C686 1.414 . S
C687 C688 1.374 . S
C688 H662 0.950 . S
C688 C684 1.385 . S
C688 C687 1.374 . S
C689 C686 1.499 . S
C689 C690 1.373 . S
C689 C691 1.389 . S
C690 H663 0.950 . S
C690 C676 1.377 . S
C690 C689 1.373 . S
C691 C675 1.377 . S
C691 C689 1.389 . S
C691 C692 1.524 . S
C692 C691 1.524 . S
C692 C693 1.397 . S
C692 C697 1.363 . S
C693 H664 0.950 . S
C693 C692 1.397 . S
C693 C694 1.334 . S
C694 H665 0.950 . S
C694 C693 1.334 . S
C694 C695 1.287 . S
C695 C694 1.287 . S
C695 C696 1.524 . S
C695 H698 0.999 . S
C696 H666 0.950 . S
C696 C695 1.524 . S
C696 C697 1.415 . S
C697 H667 0.950 . S
C697 C692 1.363 . S
C697 C696 1.415 . S
H698 C695 0.999 . S
H699 C680 0.913 . S
H700 C718 0.952 . S
H701 C720 0.951 . S
H702 C722 0.950 . S
H703 C723 0.950 . S
H704 C725 0.950 . S
H705 C728 0.950 . S
H706 C729 0.950 . S
H707 C731 0.950 . S
H708 C732 0.950 . S
H709 C733 0.951 . S
H710 C735 0.951 . S
H711 C737 0.950 . S
H712 C738 0.950 . S
H713 C740 0.950 . S
H714 C743 0.950 . S
H715 C744 0.950 . S
H716 C746 0.950 . S
H717 C747 0.950 . S
C718 H700 0.952 . S
C718 C719 1.366 . S
C718 C720 1.388 . S
C719 C718 1.366 . S
C719 C723 1.385 1_545 S
C720 H701 0.951 . S
C720 C718 1.388 . S
C720 C721 1.366 . S
C721 C720 1.366 . S
C721 C722 1.414 1_545 S
C721 C724 1.499 . S
C722 H702 0.950 . S
C722 C721 1.414 1_565 S
C722 C723 1.374 . S
C723 H703 0.950 . S
C723 C719 1.385 1_565 S
C723 C722 1.374 . S
C724 C721 1.499 . S
C724 C725 1.373 1_445 S
C724 C726 1.389 . S
C725 H704 0.950 . S
C725 C724 1.373 1_665 S
C725 C741 1.377 . S
C726 C724 1.389 . S
C726 C727 1.524 . S
C726 C740 1.377 . S
C727 C726 1.524 . S
C727 C728 1.397 . S
C727 C732 1.363 . S
C728 H705 0.950 . S
C728 C727 1.397 . S
C728 C729 1.334 . S
C729 H706 0.950 . S
C729 C728 1.334 . S
C729 C730 1.287 . S
C730 C729 1.287 . S
C730 C731 1.524 . S
C730 H749 0.913 . S
C731 H707 0.950 . S
C731 C730 1.524 . S
C731 C732 1.415 . S
C732 H708 0.950 . S
C732 C727 1.363 . S
C732 C731 1.415 . S
C733 H709 0.951 . S
C733 C734 1.369 . S
C733 C735 1.388 . S
C734 C733 1.369 . S
C734 C738 1.382 1_465 S
C735 H710 0.951 . S
C735 C733 1.388 . S
C735 C736 1.370 1_565 S
C736 C735 1.370 1_545 S
C736 C737 1.411 1_455 S
C736 C739 1.499 . S
C737 H711 0.950 . S
C737 C736 1.411 1_655 S
C737 C738 1.374 . S
C738 H712 0.950 . S
C738 C734 1.382 1_645 S
C738 C737 1.374 . S
C739 C736 1.499 . S
C739 C740 1.373 . S
C739 C741 1.389 1_445 S
C740 H713 0.950 . S
C740 C726 1.377 . S
C740 C739 1.373 . S
C741 C725 1.377 . S
C741 C739 1.389 1_665 S
C741 C742 1.524 . S
C742 C741 1.524 . S
C742 C743 1.397 . S
C742 C747 1.363 . S
C743 H714 0.950 . S
C743 C742 1.397 . S
C743 C744 1.334 . S
C744 H715 0.950 . S
C744 C743 1.334 . S
C744 C745 1.287 . S
C745 C744 1.287 . S
C745 C746 1.524 . S
C745 H748 0.999 . S
C746 H716 0.950 . S
C746 C745 1.524 . S
C746 C747 1.415 . S
C747 H717 0.950 . S
C747 C742 1.363 . S
C747 C746 1.415 . S
H748 C745 0.999 . S
H749 C730 0.913 . S
H750 C768 0.951 . S
H751 C770 0.951 . S
H752 C772 0.950 . S
H753 C773 0.950 . S
H754 C775 0.950 . S
H755 C778 0.950 . S
H756 C779 0.950 . S
H757 C781 0.949 1_455 S
H758 C782 0.950 . S
H759 C783 0.951 . S
H760 C785 0.951 . S
H761 C787 0.950 . S
H762 C788 0.950 . S
H763 C790 0.947 1_655 S
H764 C793 0.950 . S
H765 C794 0.950 . S
H766 C796 0.950 1_655 S
H767 C797 0.952 . S
C768 H750 0.951 . S
C768 C769 1.366 . S
C768 C770 1.388 . S
C769 C768 1.366 . S
C769 C773 1.385 1_445 S
C770 H751 0.951 . S
C770 C768 1.388 . S
C770 C771 1.366 . S
C771 C770 1.366 . S
C771 C772 1.414 1_445 S
C771 C774 1.499 . S
C772 H752 0.950 . S
C772 C771 1.414 1_665 S
C772 C773 1.374 . S
C773 H753 0.950 . S
C773 C769 1.385 1_665 S
C773 C772 1.374 . S
C774 C771 1.499 . S
C774 C775 1.373 1_545 S
C774 C776 1.389 1_455 S
C775 H754 0.950 . S
C775 C774 1.373 1_565 S
C775 C791 1.377 . S
C776 C774 1.389 1_655 S
C776 C777 1.524 . S
C776 C790 1.377 1_655 S
C777 C776 1.524 . S
C777 C778 1.397 . S
C777 C782 1.363 1_655 S
C778 H755 0.950 . S
C778 C777 1.397 . S
C778 C779 1.334 . S
C779 H756 0.950 . S
C779 C778 1.334 . S
C779 C780 1.287 . S
C780 C779 1.287 . S
C780 C781 1.524 . S
C780 H799 0.913 . S
C781 H757 0.949 1_655 S
C781 C780 1.524 . S
C781 C782 1.415 1_655 S
C782 H758 0.950 . S
C782 C777 1.363 1_455 S
C782 C781 1.415 1_455 S
C783 H759 0.951 . S
C783 C784 1.366 1_665 S
C783 C785 1.388 . S
C784 C783 1.366 1_445 S
C784 C788 1.385 . S
C785 H760 0.951 . S
C785 C783 1.388 . S
C785 C786 1.366 1_665 S
C786 C785 1.366 1_445 S
C786 C787 1.414 . S
C786 C789 1.499 . S
C787 H761 0.950 . S
C787 C786 1.414 . S
C787 C788 1.374 . S
C788 H762 0.950 . S
C788 C784 1.385 . S
C788 C787 1.374 . S
C789 C786 1.499 . S
C789 C790 1.373 . S
C789 C791 1.389 1_545 S
C790 H763 0.947 1_455 S
C790 C776 1.377 1_455 S
C790 C789 1.373 . S
C791 C775 1.377 . S
C791 C789 1.389 1_565 S
C791 C792 1.524 . S
C792 C791 1.524 . S
C792 C793 1.397 . S
C792 C797 1.362 1_455 S
C793 H764 0.950 . S
C793 C792 1.397 . S
C793 C794 1.334 . S
C794 H765 0.950 . S
C794 C793 1.334 . S
C794 C795 1.287 . S
C795 C794 1.287 . S
C795 C796 1.524 . S
C795 H798 0.999 . S
C796 H766 0.950 1_455 S
C796 C795 1.524 . S
C796 C797 1.414 1_455 S
C797 H767 0.952 . S
C797 C792 1.362 1_655 S
C797 C796 1.414 1_655 S
H798 C795 0.999 . S
H799 C780 0.913 . S
H800 C818 0.951 . S
H801 C820 0.951 . S
H802 C822 0.950 . S
H803 C823 0.950 . S
H804 C825 0.950 . S
H805 C828 0.950 . S
H806 C829 0.950 . S
H807 C831 0.950 . S
H808 C832 0.950 . S
H809 C833 0.951 . S
H810 C835 0.951 . S
H811 C837 0.950 . S
H812 C838 0.950 . S
H813 C840 0.950 . S
H814 C843 0.950 . S
H815 C844 0.950 . S
H816 C846 0.950 . S
H817 C847 0.950 . S
C818 H800 0.951 . S
C818 C819 1.366 . S
C818 C820 1.388 . S
C819 C818 1.366 . S
C819 C823 1.385 . S
C820 H801 0.951 . S
C820 C818 1.388 . S
C820 C821 1.366 . S
C821 C820 1.366 . S
C821 C822 1.414 . S
C821 C824 1.499 . S
C822 H802 0.950 . S
C822 C821 1.414 . S
C822 C823 1.374 . S
C823 H803 0.950 . S
C823 C819 1.385 . S
C823 C822 1.374 . S
C824 C821 1.499 . S
C824 C825 1.373 . S
C824 C826 1.389 . S
C825 H804 0.950 . S
C825 C824 1.373 . S
C825 C841 1.377 . S
C826 C824 1.389 . S
C826 C827 1.524 . S
C826 C840 1.377 . S
C827 C826 1.524 . S
C827 C828 1.397 . S
C827 C832 1.363 . S
C828 H805 0.950 . S
C828 C827 1.397 . S
C828 C829 1.334 . S
C829 H806 0.950 . S
C829 C828 1.334 . S
C829 C830 1.287 . S
C830 C829 1.287 . S
C830 C831 1.524 . S
C830 H849 0.913 . S
C831 H807 0.950 . S
C831 C830 1.524 . S
C831 C832 1.415 . S
C832 H808 0.950 . S
C832 C827 1.363 . S
C832 C831 1.415 . S
C833 H809 0.951 . S
C833 C834 1.366 . S
C833 C835 1.388 . S
C834 C833 1.366 . S
C834 C838 1.385 . S
C835 H810 0.951 . S
C835 C833 1.388 . S
C835 C836 1.366 . S
C836 C835 1.366 . S
C836 C837 1.414 . S
C836 C839 1.499 . S
C837 H811 0.950 . S
C837 C836 1.414 . S
C837 C838 1.374 . S
C838 H812 0.950 . S
C838 C834 1.385 . S
C838 C837 1.374 . S
C839 C836 1.499 . S
C839 C840 1.373 . S
C839 C841 1.389 . S
C840 H813 0.950 . S
C840 C826 1.377 . S
C840 C839 1.373 . S
C841 C825 1.377 . S
C841 C839 1.389 . S
C841 C842 1.524 . S
C842 C841 1.524 . S
C842 C843 1.397 . S
C842 C847 1.363 . S
C843 H814 0.950 . S
C843 C842 1.397 . S
C843 C844 1.334 . S
C844 H815 0.950 . S
C844 C843 1.334 . S
C844 C845 1.287 . S
C845 C844 1.287 . S
C845 C846 1.524 . S
C845 H848 0.999 . S
C846 H816 0.950 . S
C846 C845 1.524 . S
C846 C847 1.415 . S
C847 H817 0.950 . S
C847 C842 1.363 . S
C847 C846 1.415 . S
H848 C845 0.999 . S
H849 C830 0.913 . S
H850 C868 0.951 . S
H851 C870 0.951 . S
H852 C872 0.950 . S
H853 C873 0.950 . S
H854 C875 0.950 . S
H855 C878 0.950 . S
H856 C879 0.950 . S
H857 C881 0.950 . S
H858 C882 0.950 . S
H859 C883 0.951 . S
H860 C885 0.951 . S
H861 C887 0.950 . S
H862 C888 0.950 . S
H863 C890 0.950 . S
H864 C893 0.950 . S
H865 C894 0.950 . S
H866 C896 0.950 . S
H867 C897 0.950 . S
C868 H850 0.951 . S
C868 C869 1.366 . S
C868 C870 1.388 . S
C869 C868 1.366 . S
C869 C873 1.385 . S
C870 H851 0.951 . S
C870 C868 1.388 . S
C870 C871 1.366 . S
C871 C870 1.366 . S
C871 C872 1.414 . S
C871 C874 1.499 . S
C872 H852 0.950 . S
C872 C871 1.414 . S
C872 C873 1.374 . S
C873 H853 0.950 . S
C873 C869 1.385 . S
C873 C872 1.374 . S
C874 C871 1.499 . S
C874 C875 1.373 . S
C874 C876 1.389 . S
C875 H854 0.950 . S
C875 C874 1.373 . S
C875 C891 1.377 . S
C876 C874 1.389 . S
C876 C877 1.524 . S
C876 C890 1.377 . S
C877 C876 1.524 . S
C877 C878 1.397 . S
C877 C882 1.363 . S
C878 H855 0.950 . S
C878 C877 1.397 . S
C878 C879 1.334 . S
C879 H856 0.950 . S
C879 C878 1.334 . S
C879 C880 1.287 . S
C880 C879 1.287 . S
C880 C881 1.524 . S
C880 H899 0.913 . S
C881 H857 0.950 . S
C881 C880 1.524 . S
C881 C882 1.415 . S
C882 H858 0.950 . S
C882 C877 1.363 . S
C882 C881 1.415 . S
C883 H859 0.951 . S
C883 C884 1.366 . S
C883 C885 1.388 . S
C884 C883 1.366 . S
C884 C888 1.385 . S
C885 H860 0.951 . S
C885 C883 1.388 . S
C885 C886 1.366 . S
C886 C885 1.366 . S
C886 C887 1.414 . S
C886 C889 1.499 . S
C887 H861 0.950 . S
C887 C886 1.414 . S
C887 C888 1.374 . S
C888 H862 0.950 . S
C888 C884 1.385 . S
C888 C887 1.374 . S
C889 C886 1.499 . S
C889 C890 1.373 . S
C889 C891 1.389 . S
C890 H863 0.950 . S
C890 C876 1.377 . S
C890 C889 1.373 . S
C891 C875 1.377 . S
C891 C889 1.389 . S
C891 C892 1.524 . S
C892 C891 1.524 . S
C892 C893 1.397 . S
C892 C897 1.363 . S
C893 H864 0.950 . S
C893 C892 1.397 . S
C893 C894 1.334 . S
C894 H865 0.950 . S
C894 C893 1.334 . S
C894 C895 1.287 . S
C895 C894 1.287 . S
C895 C896 1.524 . S
C895 H898 0.999 . S
C896 H866 0.950 . S
C896 C895 1.524 . S
C896 C897 1.415 . S
C897 H867 0.950 . S
C897 C892 1.363 . S
C897 C896 1.415 . S
H898 C895 0.999 . S
H899 C880 0.913 . S
C334 C271 1.404 . S
C319 C27 1.410 . S
C369 N6 1.316 . S
C384 C211 1.360 . S
C419 C16 1.393 . S
C434 C241 1.307 . S
C469 N14 1.336 . S
C484 C181 1.274 . S
C519 C57 1.410 . S
C534 C151 1.405 . S
C569 N36 1.316 . S
C584 C91 1.360 . S
C634 C121 1.308 . S
C619 C46 1.393 . S
C684 C61 1.273 . S
C669 N44 1.335 . S
C719 C10 1.383 . S
C734 C80 1.363 1_465 S
C769 C1 1.524 . S
C784 C140 1.502 1_455 S
C834 C200 1.362 . S
C819 C40 1.383 . S
C869 C31 1.524 . S
C884 C260 1.501 . S
