# Generated by pormake.
# Topology anh, (6,3)-cn, num edge types: 1
# Building blocks:
#     Node 0, Type 0, BuildingBlock: CUWYAW_clean_sbu_0, # of connection points: 6
#     Node 1, Type 0, BuildingBlock: CUWYAW_clean_sbu_0, # of connection points: 6
#     Node 2, Type 0, BuildingBlock: CUWYAW_clean_sbu_0, # of connection points: 6
#     Node 3, Type 1, BuildingBlock: MIDCAF_clean_linker_0, # of connection points: 3
#     Node 4, Type 1, BuildingBlock: MIDCAF_clean_linker_0, # of connection points: 3
#     Node 5, Type 1, BuildingBlock: MIDCAF_clean_linker_0, # of connection points: 3
#     Node 6, Type 1, BuildingBlock: MIDCAF_clean_linker_0, # of connection points: 3
#     Node 7, Type 1, BuildingBlock: MIDCAF_clean_linker_0, # of connection points: 3
#     Node 8, Type 1, BuildingBlock: MIDCAF_clean_linker_0, # of connection points: 3
#     Edge 9, Type (0, 1), BuildingBlock: AJUNOK_clean_linker_0, # of connection points: 2
#     Edge 10, Type (0, 1), BuildingBlock: AJUNOK_clean_linker_0, # of connection points: 2
#     Edge 11, Type (0, 1), BuildingBlock: AJUNOK_clean_linker_0, # of connection points: 2
#     Edge 12, Type (0, 1), BuildingBlock: AJUNOK_clean_linker_0, # of connection points: 2
#     Edge 13, Type (0, 1), BuildingBlock: AJUNOK_clean_linker_0, # of connection points: 2
#     Edge 14, Type (0, 1), BuildingBlock: AJUNOK_clean_linker_0, # of connection points: 2
#     Edge 15, Type (0, 1), BuildingBlock: AJUNOK_clean_linker_0, # of connection points: 2
#     Edge 16, Type (0, 1), BuildingBlock: AJUNOK_clean_linker_0, # of connection points: 2
#     Edge 17, Type (0, 1), BuildingBlock: AJUNOK_clean_linker_0, # of connection points: 2
#     Edge 18, Type (0, 1), BuildingBlock: AJUNOK_clean_linker_0, # of connection points: 2
#     Edge 19, Type (0, 1), BuildingBlock: AJUNOK_clean_linker_0, # of connection points: 2
#     Edge 20, Type (0, 1), BuildingBlock: AJUNOK_clean_linker_0, # of connection points: 2
#     Edge 21, Type (0, 1), BuildingBlock: AJUNOK_clean_linker_0, # of connection points: 2
#     Edge 22, Type (0, 1), BuildingBlock: AJUNOK_clean_linker_0, # of connection points: 2
#     Edge 23, Type (0, 1), BuildingBlock: AJUNOK_clean_linker_0, # of connection points: 2
#     Edge 24, Type (0, 1), BuildingBlock: AJUNOK_clean_linker_0, # of connection points: 2
#     Edge 25, Type (0, 1), BuildingBlock: AJUNOK_clean_linker_0, # of connection points: 2
#     Edge 26, Type (0, 1), BuildingBlock: AJUNOK_clean_linker_0, # of connection points: 2
# Relax obj value: 0.307
# Max RMSD: 0.194
# Mean RMSD: 0.164
data_MOF--net-anh--node1-CUWYAW_clean_sbu_0--node2-MIDCAF_clean_linker_0--edge1-AJUNOK_clean_linker_0
_symmetry_space_group_name_H-M    P1
_symmetry_Int_Tables_number       1
_symmetry_cell_setting            triclinic
loop_
_symmetry_equiv_pos_as_xyz
'x, y, z'
_cell_length_a     29.408281
_cell_length_b     29.498418
_cell_length_c     52.645156
_cell_angle_alpha  89.982677
_cell_angle_beta   89.88536
_cell_angle_gamma 120.06154
loop_
_atom_site_label
_atom_site_type_symbol
_atom_site_fract_x
_atom_site_fract_y
_atom_site_fract_z
_atom_type_partial_charge
C0 C 1.03364 0.41109 0.14987 0.0
Eu1 Eu 0.10294 0.50782 0.15835 0.0
C2 C 0.97714 0.38947 0.15531 0.0
C3 C 0.96056 0.38692 0.18062 0.0
C4 C 0.91469 0.38782 0.18604 0.0
C5 C 0.88417 0.39049 0.16632 0.0
C6 C 0.8967 0.38593 0.14108 0.0
C7 C 0.94312 0.38566 0.13558 0.0
C8 C 0.1241 0.54373 0.20753 0.0
C9 C 1.02706 0.56455 0.15563 0.0
C10 C 0.21399 0.71621 0.17078 0.0
Eu11 Eu 0.15406 0.61787 0.15988 0.0
C12 C 0.26787 0.75965 0.1668 0.0
C13 C 0.2866 0.78056 0.14246 0.0
C14 C 0.33333 0.82834 0.13978 0.0
C15 C 0.36168 0.85564 0.16139 0.0
C16 C 0.34531 0.83212 0.18542 0.0
C17 C 0.2987 0.78465 0.1881 0.0
C18 C 0.12916 0.57857 0.1123 0.0
C19 C 0.23065 0.56211 0.15223 0.0
O20 O 1.05222 0.44635 0.13187 0.0
O21 O 1.06485 0.42551 0.16958 0.0
O22 O 0.13164 0.50751 0.19804 0.0
O23 O 0.10624 0.5609 0.19034 0.0
O24 O 1.0316 0.52238 0.15107 0.0
O25 O 1.07036 0.60759 0.16308 0.0
O26 O 0.20759 0.67842 0.18607 0.0
O27 O 0.1832 0.69957 0.15099 0.0
O28 O 0.12317 0.61676 0.12028 0.0
O29 O 0.14971 0.56499 0.12934 0.0
O30 O 0.22802 0.6052 0.15789 0.0
O31 O 0.1851 0.5176 0.14935 0.0
H32 H 0.98521 0.38901 0.19636 0.0
H33 H 0.90445 0.38918 0.2057 0.0
H34 H 0.87287 0.38674 0.12561 0.0
H35 H 0.95474 0.38741 0.11589 0.0
H36 H 0.26382 0.76169 0.12563 0.0
H37 H 0.34553 0.84548 0.12105 0.0
H38 H 0.36616 0.85249 0.20245 0.0
H39 H 0.28508 0.76923 0.20701 0.0
C40 C 0.54147 0.17828 0.48633 0.0
Eu41 Eu 0.57048 0.10967 0.49271 0.0
C42 C 0.57601 0.23426 0.49256 0.0
C43 C 0.59072 0.24893 0.51798 0.0
C44 C 0.63731 0.29473 0.52362 0.0
C45 C 0.66967 0.32702 0.50402 0.0
C46 C 0.65198 0.31609 0.47885 0.0
C47 C 0.6054 0.26987 0.47313 0.0
C48 C 0.58908 0.0877 0.54094 0.0
C49 C 0.70319 0.18674 0.48832 0.0
C50 C 0.67622 1.00515 0.50268 0.0
Eu51 Eu 0.63152 1.05963 0.49196 0.0
C52 C 0.67692 0.95566 0.5017 0.0
C53 C 0.69065 0.93943 0.47926 0.0
C54 C 0.70583 0.9015 0.48021 0.0
C55 C 0.70781 0.87967 0.50359 0.0
C56 C 0.68934 0.89244 0.52554 0.0
C57 C 0.67418 0.93019 0.5246 0.0
C58 C 0.61408 0.08578 0.4453 0.0
C59 C 0.4987 0.98187 0.48565 0.0
O60 O 0.55836 0.16149 0.46762 0.0
O61 O 0.52514 0.14565 0.50552 0.0
O62 O 0.54442 0.08036 0.53271 0.0
O63 O 0.62284 0.10621 0.52311 0.0
O64 O 0.6559 0.18188 0.48483 0.0
O65 O 0.70397 0.14359 0.4948 0.0
O66 O 0.64339 1.00905 0.51815 0.0
O67 O 0.68479 1.03193 0.48169 0.0
O68 O 0.65876 0.09095 0.45209 0.0
O69 O 0.58079 0.0648 0.46277 0.0
O70 O 0.54537 0.98509 0.48992 0.0
O71 O 0.49837 1.02694 0.48419 0.0
H72 H 0.56885 0.22296 0.53352 0.0
H73 H 0.64941 0.30359 0.54327 0.0
H74 H 0.676 0.34121 0.4635 0.0
H75 H 0.59501 0.25972 0.45337 0.0
H76 H 0.69306 0.95836 0.46128 0.0
H77 H 0.71893 0.89152 0.46295 0.0
H78 H 0.69062 0.87639 0.54387 0.0
H79 H 0.66419 0.94228 0.54219 0.0
C80 C 0.8077 0.6727 0.82658 0.0
Eu81 Eu 0.70788 0.6394 0.82735 0.0
C82 C 0.83118 0.64196 0.83589 0.0
C83 C 0.81569 0.61721 0.85972 0.0
C84 C 0.82112 0.57407 0.86523 0.0
C85 C 0.84194 0.55473 0.84704 0.0
C86 C 0.86302 0.58293 0.82444 0.0
C87 C 0.85727 0.62614 0.81879 0.0
C88 C 0.65771 0.61834 0.87349 0.0
C89 C 0.65416 0.50741 0.81869 0.0
C90 C 0.49597 0.52755 0.82614 0.0
Eu91 Eu 0.59762 0.5787 0.82131 0.0
C92 C 0.44538 0.52029 0.8351 0.0
C93 C 0.40309 0.50042 0.8181 0.0
C94 C 0.35168 0.47856 0.82716 0.0
C95 C 0.3419 0.47571 0.85341 0.0
C96 C 0.38455 0.49994 0.87022 0.0
C97 C 0.43594 0.52212 0.86115 0.0
C98 C 0.65137 0.59778 0.77715 0.0
C99 C 0.65224 0.71077 0.81857 0.0
O100 O 0.7778 0.65255 0.80668 0.0
O101 O 0.78589 0.68789 0.84369 0.0
O102 O 0.69532 0.66372 0.86632 0.0
O103 O 0.64658 0.58582 0.85546 0.0
O104 O 0.69747 0.55477 0.82045 0.0
O105 O 0.60825 0.50573 0.82002 0.0
O106 O 0.52845 0.5279 0.84315 0.0
O107 O 0.51939 0.55656 0.80624 0.0
O108 O 0.61088 0.55281 0.78274 0.0
O109 O 0.65978 0.63047 0.7944 0.0
O110 O 0.6086 0.6645 0.82326 0.0
O111 O 0.69734 0.71038 0.81677 0.0
H112 H 0.79541 0.62827 0.8734 0.0
H113 H 0.80646 0.5541 0.88323 0.0
H114 H 0.88039 0.56934 0.81038 0.0
H115 H 0.8692 0.64436 0.80025 0.0
H116 H 0.40948 0.49851 0.79794 0.0
H117 H 0.31949 0.46152 0.81375 0.0
H118 H 0.37813 0.49859 0.89055 0.0
H119 H 0.46788 0.53725 0.8747 0.0
C120 C 0.46142 1.05648 0.21838 0.0
C121 C 0.47216 1.06411 0.19229 0.0
C122 C 0.49434 0.11467 0.18205 0.0
C123 C 0.50784 0.15746 0.19805 0.0
H124 H 0.57601 0.32574 0.20291 0.0
H125 H 0.65408 0.37952 0.17734 0.0
H126 H 0.75094 0.40809 0.24367 0.0
H127 H 0.67343 0.35575 0.26917 0.0
H128 H 0.62278 0.28731 0.31944 0.0
H129 H 0.6388 0.2582 0.3603 0.0
H130 H 0.50429 0.10457 0.34805 0.0
H131 H 0.48687 0.13379 0.30819 0.0
H132 H 0.46641 0.09131 0.25439 0.0
H133 H 0.44302 1.01749 0.22654 0.0
H134 H 0.50218 0.1211 0.16186 0.0
H135 H 0.52673 0.19637 0.18984 0.0
N136 N 0.5496 0.24444 0.23317 0.0
N137 N 0.57892 0.27545 0.27444 0.0
N138 N 0.52037 0.18633 0.26736 0.0
C139 C 0.57841 0.28504 0.24913 0.0
C140 C 0.54889 0.22602 0.28373 0.0
C141 C 0.52057 0.19497 0.2421 0.0
C142 C 0.61892 0.33486 0.23779 0.0
C143 C 0.61384 0.34587 0.21228 0.0
C144 C 0.65851 0.37664 0.19761 0.0
C145 C 0.70862 0.39659 0.2083 0.0
C146 C 0.71293 0.39327 0.23477 0.0
C147 C 0.66823 0.36287 0.24949 0.0
C148 C 0.55395 0.21274 0.31033 0.0
C149 C 0.59598 0.24771 0.32575 0.0
C150 C 0.60562 0.23083 0.34897 0.0
C151 C 0.57357 0.1787 0.35706 0.0
C152 C 0.52982 0.14492 0.34235 0.0
C153 C 0.51999 0.16174 0.31938 0.0
C154 C 0.49881 0.14999 0.22444 0.0
C155 C 0.47431 0.09881 0.23426 0.0
C156 C 0.85211 0.49918 0.57073 0.0
C157 C 0.85556 0.50213 0.54408 0.0
C158 C 0.88693 0.55104 0.53251 0.0
C159 C 0.90816 0.59671 0.54703 0.0
H160 H 0.88495 0.71343 0.53037 0.0
H161 H 0.8425 0.75152 0.50512 0.0
H162 H 0.8288 0.82836 0.57189 0.0
H163 H 0.8715 0.79143 0.59724 0.0
H164 H 0.84963 0.73567 0.64723 0.0
H165 H 0.79779 0.71538 0.68562 0.0
H166 H 0.80898 0.5761 0.69621 0.0
H167 H 0.8591 0.59491 0.65669 0.0
H168 H 0.86539 0.54119 0.60547 0.0
H169 H 0.82795 0.46203 0.58021 0.0
H170 H 0.89081 0.55425 0.51203 0.0
H171 H 0.92805 0.63406 0.53726 0.0
N172 N 0.90183 0.67856 0.57204 0.0
N173 N 0.88168 0.71231 0.60765 0.0
N174 N 0.88887 0.63712 0.6116 0.0
C175 C 0.89252 0.71509 0.58248 0.0
C176 C 0.88001 0.67386 0.62244 0.0
C177 C 0.9007 0.63975 0.58641 0.0
C178 C 0.88078 0.74857 0.56599 0.0
C179 C 0.87437 0.73969 0.53958 0.0
C180 C 0.84991 0.76114 0.5251 0.0
C181 C 0.83182 0.79171 0.53686 0.0
C182 C 0.84206 0.8042 0.56265 0.0
C183 C 0.86667 0.78316 0.57707 0.0
C184 C 0.85789 0.66643 0.64849 0.0
C185 C 0.84166 0.70086 0.65773 0.0
C186 C 0.81194 0.68935 0.6799 0.0
C187 C 0.79815 0.64348 0.69368 0.0
C188 C 0.81748 0.61086 0.68554 0.0
C189 C 0.84682 0.62205 0.66306 0.0
C190 C 0.89789 0.59404 0.57329 0.0
C191 C 0.87341 0.54482 0.58526 0.0
C192 C 0.82452 0.35755 0.90504 0.0
C193 C 0.84084 0.36818 0.87957 0.0
C194 C 0.8703 0.34712 0.86927 0.0
C195 C 0.88852 0.32142 0.88494 0.0
H196 H 1.0065 0.29353 0.88427 0.0
H197 H 1.09192 0.32878 0.86378 0.0
H198 H 0.167 0.36233 0.93712 0.0
H199 H 1.08192 0.3274 0.95787 0.0
H200 H 0.98807 0.30798 0.01351 0.0
H201 H 1.02353 0.36704 0.04991 0.0
H202 H 0.98773 0.47588 0.01237 0.0
H203 H 0.94807 0.41479 0.97757 0.0
H204 H 0.83303 0.32841 0.94074 0.0
H205 H 0.80209 0.37359 0.91359 0.0
H206 H 0.88284 0.35431 0.84959 0.0
H207 H 0.91488 0.30964 0.87683 0.0
N208 N 0.9499 0.29964 0.91963 0.0
N209 N 0.99094 0.3181 0.95933 0.0
N210 N 0.91501 0.32368 0.9536 0.0
C211 C 0.98938 0.30402 0.93466 0.0
C212 C 0.95376 0.32761 0.96897 0.0
C213 C 0.91213 0.30872 0.92897 0.0
C214 C 1.0373 0.30881 0.92276 0.0
C215 C 1.0409 0.30684 0.89614 0.0
C216 C 1.08984 0.32701 0.88433 0.0
C217 C 0.13584 0.34908 0.89894 0.0
C218 C 0.13194 0.34624 0.92551 0.0
C219 C 1.08309 0.3259 0.93734 0.0
C220 C 0.96472 0.35657 0.99302 0.0
C221 C 0.98598 0.34362 0.0137 0.0
C222 C 1.00686 0.3778 0.03431 0.0
C223 C 1.00859 0.42641 0.03418 0.0
C224 C 0.98561 0.43826 0.01373 0.0
C225 C 0.96303 0.40326 0.99362 0.0
C226 C 0.87804 0.31708 0.91121 0.0
C227 C 0.84271 0.33194 0.9207 0.0
C228 C 0.29306 0.73412 0.44809 0.0
C229 C 0.29412 0.77109 0.46573 0.0
C230 C 0.24389 0.7559 0.47672 0.0
C231 C 0.19646 0.70732 0.47051 0.0
H232 H 1.03452 0.48632 0.48923 0.0
H233 H 0.95296 0.40607 0.50208 0.0
H234 H 0.8824 0.40576 0.43054 0.0
H235 H 0.96206 0.485 0.41816 0.0
H236 H 1.04344 0.49606 0.37045 0.0
H237 H 1.04764 0.48981 0.32431 0.0
H238 H 0.17515 0.64933 0.32108 0.0
H239 H 0.17164 0.65576 0.36751 0.0
H240 H 0.24902 0.66179 0.42734 0.0
H241 H 0.32881 0.7427 0.43823 0.0
H242 H 0.24095 0.78189 0.49028 0.0
H243 H 0.15977 0.69946 0.47914 0.0
N244 N 0.10135 0.58343 0.45404 0.0
N245 N 1.0635 0.54179 0.41499 0.0
N246 N 0.14543 0.61908 0.41494 0.0
C247 C 1.0595 0.54186 0.44085 0.0
C248 C 0.10538 0.57938 0.40182 0.0
C249 C 0.14522 0.62295 0.44083 0.0
C250 C 1.00733 0.49475 0.45231 0.0
C251 C 1.00162 0.46992 0.47625 0.0
C252 C 0.95398 0.4223 0.48353 0.0
C253 C 0.90864 0.39631 0.46748 0.0
C254 C 0.91438 0.42239 0.44404 0.0
C255 C 0.96154 0.4691 0.43676 0.0
C256 C 0.1074 0.57637 0.37314 0.0
C257 C 1.07245 0.53006 0.36008 0.0
C258 C 1.0749 0.52635 0.33347 0.0
C259 C 0.11191 0.56895 0.31879 0.0
C260 C 0.14604 0.61574 0.33166 0.0
C261 C 0.14416 0.61926 0.3584 0.0
C262 C 0.19587 0.6709 0.45255 0.0
C263 C 0.24603 0.68651 0.44167 0.0
C264 C 0.6807 0.29554 0.77596 0.0
C265 C 0.65753 0.30177 0.7984 0.0
C266 C 0.63334 0.25576 0.81406 0.0
C267 C 0.6327 0.20751 0.80763 0.0
H268 H 0.70547 1.0492 0.81335 0.0
H269 H 0.70768 0.96911 0.82495 0.0
H270 H 0.58353 0.88032 0.77176 0.0
H271 H 0.58155 0.95953 0.76034 0.0
H272 H 0.65494 1.03906 0.70082 0.0
H273 H 0.64659 1.03622 0.65436 0.0
H274 H 0.60777 0.1589 0.65729 0.0
H275 H 0.61674 0.16247 0.7035 0.0
H276 H 0.69753 0.24709 0.75164 0.0
H277 H 0.6986 0.3274 0.76244 0.0
H278 H 0.6145 0.25684 0.83155 0.0
H279 H 0.61246 0.17415 0.8202 0.0
N280 N 0.64944 0.10738 0.78712 0.0
N281 N 0.64077 1.06305 0.74819 0.0
N282 N 0.64558 0.14486 0.74794 0.0
C283 C 0.64488 1.06339 0.77408 0.0
C284 C 0.64117 0.10295 0.73494 0.0
C285 C 0.64972 0.14908 0.77377 0.0
C286 C 0.64257 1.01297 0.78592 0.0
C287 C 0.67771 1.01265 0.80439 0.0
C288 C 0.67956 0.96575 0.81079 0.0
C289 C 0.64617 0.91568 0.79934 0.0
C290 C 0.61024 0.91622 0.78153 0.0
C291 C 0.60903 0.96284 0.7749 0.0
C292 C 0.63654 0.10099 0.70629 0.0
C293 C 0.64484 0.06567 0.69163 0.0
C294 C 0.64045 0.06427 0.66486 0.0
C295 C 0.6268 0.09756 0.65187 0.0
C296 C 0.61835 0.13266 0.66651 0.0
C297 C 0.62361 0.13472 0.69315 0.0
C298 C 0.65568 0.20173 0.78487 0.0
C299 C 0.67968 0.24786 0.76952 0.0
C300 C 0.79323 0.5418 0.10996 0.0
C301 C 0.81829 0.56129 0.13367 0.0
C302 C 0.79139 0.57966 0.14972 0.0
C303 C 0.74371 0.57931 0.14223 0.0
H304 H 0.57002 0.6139 0.15084 0.0
H305 H 0.48883 0.61443 0.16267 0.0
H306 H 0.40786 0.51145 0.10018 0.0
H307 H 0.48767 0.51069 0.08876 0.0
H308 H 0.57508 0.59786 0.03652 0.0
H309 H 0.57768 0.60545 0.99019 0.0
H310 H 0.69337 0.55675 0.98689 0.0
H311 H 0.69144 0.5497 0.03335 0.0
H312 H 0.73137 0.52716 0.0837 0.0
H313 H 0.81062 0.52722 0.09645 0.0
H314 H 0.8069 0.59424 0.16843 0.0
H315 H 0.72642 0.59477 0.1553 0.0
N316 N 0.63014 0.56426 0.12013 0.0
N317 N 0.59179 0.56837 0.08121 0.0
N318 N 0.67087 0.5671 0.08073 0.0
C319 C 0.5889 0.56563 0.10711 0.0
C320 C 0.63197 0.56947 0.06781 0.0
C321 C 0.67194 0.56465 0.10668 0.0
C322 C 0.53745 0.56149 0.11877 0.0
C323 C 0.53484 0.59038 0.13983 0.0
C324 C 0.48742 0.59139 0.1464 0.0
C325 C 0.43927 0.56338 0.13248 0.0
C326 C 0.44213 0.53369 0.11196 0.0
C327 C 0.48915 0.53323 0.10529 0.0
C328 C 0.63305 0.57312 0.03909 0.0
C329 C 0.60102 0.58848 0.02605 0.0
C330 C 0.60255 0.59298 -0.00066 0.0
C331 C 0.63535 0.58128 0.98454 0.0
C332 C 0.66697 0.56534 -0.00253 0.0
C333 C 0.66613 0.56168 0.02427 0.0
C334 C 0.71983 0.56095 0.11806 0.0
C335 C 0.74652 0.54199 0.10246 0.0
C336 C 0.28732 0.51939 0.13912 0.0
C337 C 0.28473 0.56373 0.14794 0.0
C338 C 0.33589 0.51973 0.13453 0.0
C339 C 0.38673 0.56426 0.1386 0.0
H340 H 0.25096 0.48338 0.13545 0.0
H341 H 0.33315 0.48377 0.12783 0.0
S342 S 0.40474 0.69228 0.16118 0.0
N343 N 0.34018 0.65465 0.16018 0.0
N344 N 0.4292 0.65529 0.15194 0.0
C345 C 0.38476 0.60894 0.14757 0.0
C346 C 0.33512 0.6087 0.15202 0.0
C347 C 0.75773 0.28316 0.47037 0.0
C348 C 0.75581 0.24061 0.4841 0.0
C349 C 0.80566 0.33195 0.46557 0.0
C350 C 0.85632 0.34313 0.47422 0.0
H351 H 0.72154 0.27856 0.46274 0.0
H352 H 0.80252 0.36161 0.45489 0.0
S353 S 0.87548 0.24624 0.51146 0.0
N354 N 0.81146 0.21492 0.50645 0.0
N355 N 0.89915 0.30413 0.49775 0.0
C356 C 0.8548 0.301 0.48826 0.0
C357 C 0.80595 0.25109 0.49295 0.0
C358 C 0.60384 0.765 0.81036 0.0
C359 C 0.65099 0.76349 0.81451 0.0
C360 C 0.60269 0.81281 0.80569 0.0
C361 C 0.64844 0.86385 0.80521 0.0
H362 H 0.56685 0.72842 0.81035 0.0
H363 H 0.56474 0.80943 0.80258 0.0
S364 S 0.78326 0.88439 0.81464 0.0
N365 N 0.74555 0.82025 0.81738 0.0
N366 N 0.74331 0.90746 0.80925 0.0
C367 C 0.69579 0.86286 0.80956 0.0
C368 C 0.69704 0.81413 0.81394 0.0
C369 C 0.93103 0.52344 0.1373 0.0
C370 C 0.97348 0.56384 0.15121 0.0
C371 C 0.88247 0.52274 0.13217 0.0
C372 C 0.87128 0.56212 0.14073 0.0
H373 H 0.93565 0.49195 0.12971 0.0
H374 H 0.85297 0.49012 0.12132 0.0
S375 S 0.9678 0.6777 0.17838 0.0
N376 N 0.99908 0.64501 0.17358 0.0
N377 N 0.91007 0.64366 0.16441 0.0
C378 C 0.91324 0.60252 0.15499 0.0
C379 C 0.96303 0.60347 0.15996 0.0
C380 C 0.39594 0.92253 0.47922 0.0
C381 C 0.44667 0.92745 0.48128 0.0
C382 C 0.34807 0.8733 0.47491 0.0
C383 C 0.34652 0.82448 0.4718 0.0
H384 H 0.39288 0.95747 0.48096 0.0
H385 H 0.31168 0.87393 0.47348 0.0
S386 S 0.46692 0.81261 0.47647 0.0
N387 N 0.4901 0.87596 0.48051 0.0
N388 N 0.40292 0.78617 0.4724 0.0
C389 C 0.39698 0.82885 0.47404 0.0
C390 C 0.44557 0.87884 0.47873 0.0
C391 C 0.61364 0.40454 0.81999 0.0
C392 C 0.65654 0.45552 0.81424 0.0
C393 C 0.61458 0.35654 0.81562 0.0
C394 C 0.65809 0.35489 0.80457 0.0
H395 H 0.57836 0.40141 0.82815 0.0
H396 H 0.57983 0.31993 0.82056 0.0
S397 S 0.78165 0.47633 0.78569 0.0
N398 N 0.74464 0.49944 0.7967 0.0
N399 N 0.74656 0.41204 0.78864 0.0
C400 C 0.7013 0.40575 0.79881 0.0
C401 C 0.70052 0.45458 0.80354 0.0
C402 C 0.71423 0.80499 0.52174 0.0
C403 C 0.73588 0.85002 0.50633 0.0
C404 C 0.74498 0.78408 0.53017 0.0
C405 C 0.79815 0.80723 0.52326 0.0
H406 H 0.67414 0.78771 0.52854 0.0
H407 H 0.72787 0.75128 0.54325 0.0
S408 S 0.87253 0.92221 0.48152 0.0
N409 N 0.81308 0.91483 0.48314 0.0
N410 N 0.87032 0.87434 0.49874 0.0
C411 C 0.81933 0.84964 0.50642 0.0
C412 C 0.78821 0.87129 0.49793 0.0
C413 C 0.88399 0.49933 0.84914 0.0
C414 C 0.83882 0.50374 0.85135 0.0
C415 C 0.88311 0.45325 0.85642 0.0
C416 C 0.83691 0.40998 0.86595 0.0
H417 H 0.92091 0.53265 0.84314 0.0
H418 H 0.91976 0.45288 0.85618 0.0
S419 S 0.70589 0.39861 0.87074 0.0
N420 N 0.74502 0.45887 0.86041 0.0
N421 N 0.74337 0.37196 0.8738 0.0
C422 C 0.79051 0.41248 0.86621 0.0
C423 C 0.79147 0.45946 0.85898 0.0
C424 C 0.44737 0.93084 0.17485 0.0
C425 C 0.40149 0.91195 0.16022 0.0
C426 C 0.47462 0.98302 0.18284 0.0
C427 C 0.45697 1.0178 0.17625 0.0
H428 H 0.45907 0.90396 0.18229 0.0
H429 H 0.50662 0.99493 0.1962 0.0
S430 S 0.34587 0.99054 0.13395 0.0
N431 N 0.34477 0.93415 0.13608 0.0
N432 N 0.3967 1.03255 0.151 0.0
C433 C 0.41565 1.00132 0.15889 0.0
C434 C 0.38768 0.94812 0.15082 0.0
C435 C 0.73688 0.42205 0.50316 0.0
C436 C 0.72257 0.37073 0.51012 0.0
C437 C 0.78311 0.46465 0.51247 0.0
C438 C 0.81665 0.45717 0.52888 0.0
H439 H 0.71057 0.42949 0.49184 0.0
H440 H 0.79047 0.50373 0.50831 0.0
S441 S 0.80201 0.32966 0.54801 0.0
N442 N 0.74897 0.31405 0.53105 0.0
N443 N 0.83651 0.39433 0.54823 0.0
C444 C 0.80516 0.40578 0.53392 0.0
C445 C 0.75789 0.36246 0.52463 0.0
C446 C 0.2702 0.46351 0.88312 0.0
C447 C 0.28788 0.44367 0.86357 0.0
C448 C 0.22103 0.4324 0.89448 0.0
C449 C 0.18776 0.38037 0.88668 0.0
H450 H 0.29466 0.50333 0.88975 0.0
H451 H 0.20877 0.44933 0.90938 0.0
S452 S 0.21622 0.309 0.83709 0.0
N453 N 0.26881 0.36805 0.83746 0.0
N454 N 0.17584 0.30999 0.85864 0.0
C455 C 0.20462 0.36009 0.86707 0.0
C456 C 0.25483 0.39165 0.85556 0.0
C457 C 0.78944 0.36422 0.16458 0.0
C458 C 0.84064 0.39996 0.17244 0.0
C459 C 0.74657 0.36699 0.17429 0.0
C460 C 0.75367 0.40591 0.192 0.0
H461 H 0.78216 0.33171 0.15237 0.0
H462 H 0.70751 0.33565 0.16956 0.0
S463 S 0.88119 0.51617 0.21346 0.0
N464 N 0.89711 0.4804 0.19543 0.0
N465 N 0.81637 0.48645 0.21312 0.0
C466 C 0.80513 0.44527 0.19766 0.0
C467 C 0.8487 0.44202 0.18806 0.0
C468 C 0.11667 0.51069 0.0809 0.0
C469 C 0.09992 0.54393 0.09096 0.0
C470 C 1.08692 0.47307 0.0626 0.0
C471 C 1.03855 0.46634 0.05403 0.0
H472 H 0.15299 0.51355 0.08735 0.0
H473 H 0.1023 0.44929 0.05502 0.0
S474 S 0.97654 0.54295 0.07528 0.0
N475 N 1.03242 0.56851 0.09109 0.0
N476 N 0.97471 0.49563 0.0578 0.0
C477 C 1.02128 0.49943 0.0641 0.0
C478 C 1.05239 0.53874 0.08228 0.0
C479 C 0.55501 0.10209 0.41782 0.0
C480 C 0.60545 0.10985 0.42257 0.0
C481 C 0.54556 0.12587 0.39709 0.0
C482 C 0.58607 0.15807 0.38014 0.0
H483 H 0.52244 0.07754 0.43027 0.0
H484 H 0.50604 0.11878 0.39426 0.0
S485 S 0.72516 0.19028 0.38396 0.0
N486 N 0.69661 0.15221 0.4088 0.0
N487 N 0.67855 0.19575 0.36929 0.0
C488 C 0.6368 0.16625 0.38469 0.0
C489 C 0.64651 0.14224 0.40596 0.0
C490 C 0.73219 0.65778 0.75277 0.0
C491 C 0.68806 0.6076 0.75588 0.0
C492 C 0.76845 0.66841 0.7332 0.0
C493 C 0.76182 0.62943 0.71575 0.0
H494 H 0.7389 0.68928 0.76558 0.0
H495 H 0.80182 0.7077 0.73163 0.0
S496 S 0.65258 0.49139 0.71565 0.0
N497 N 0.64007 0.51813 0.74027 0.0
N498 N 0.70724 0.53847 0.70284 0.0
C499 C 0.71799 0.57885 0.71877 0.0
C500 C 0.68126 0.56792 0.73892 0.0
C501 C 0.56305 0.0863 0.58679 0.0
C502 C 0.60069 0.08979 0.56897 0.0
C503 C 0.57204 0.08904 0.6132 0.0
C504 C 0.61877 0.0944 0.62338 0.0
H505 H 0.52614 0.08194 0.5803 0.0
H506 H 0.54168 0.08639 0.62584 0.0
S507 S 0.73036 0.10512 0.58534 0.0
N508 N 0.68709 0.0993 0.56372 0.0
N509 N 0.70352 0.1032 0.61323 0.0
C510 C 0.65665 0.09735 0.60586 0.0
C511 C 0.64781 0.09545 0.57881 0.0
C512 C 0.65091 0.64372 0.9185 0.0
C513 C 0.64677 0.60511 0.90132 0.0
C514 C 0.646 0.6352 0.94503 0.0
C515 C 0.63803 0.58803 0.95592 0.0
H516 H 0.65856 0.68136 0.91136 0.0
H517 H 0.64998 0.66657 0.95721 0.0
S518 S 0.62383 0.47366 0.91953 0.0
N519 N 0.63301 0.5171 0.89734 0.0
N520 N 0.62509 0.5015 0.94697 0.0
C521 C 0.63345 0.54884 0.93894 0.0
C522 C 0.63738 0.55718 0.91181 0.0
C523 C 0.11546 0.59173 0.24616 0.0
C524 C 0.12186 0.55102 0.23588 0.0
C525 C 0.11318 0.59809 0.27281 0.0
C526 C 0.11611 0.5634 0.29041 0.0
H527 H 0.11237 0.61905 0.23352 0.0
H528 H 0.10816 0.62991 0.27968 0.0
S529 S 0.1345 0.45134 0.27382 0.0
N530 N 0.13262 0.47642 0.24607 0.0
N531 N 0.12729 0.48786 0.29538 0.0
C532 C 0.12274 0.52287 0.28036 0.0
C533 C 0.12589 0.51685 0.25342 0.0
loop_
_geom_bond_atom_site_label_1
_geom_bond_atom_site_label_2
_geom_bond_distance
_geom_bond_site_symmetry_2
_ccdc_geom_bond_type
C0 Eu1 2.835 . S
C0 C2 1.500 . S
C0 O20 1.257 . S
C0 O21 1.260 . S
Eu1 C0 2.835 . S
Eu1 O20 2.473 . S
Eu1 O21 2.480 . S
Eu1 O22 2.430 1_655 S
Eu1 O23 2.670 1_655 S
Eu1 O24 2.394 . S
Eu1 O29 2.355 1_655 S
Eu1 O31 2.374 1_655 S
C2 C0 1.500 . S
C2 C3 1.377 . S
C2 C7 1.377 . S
C3 C2 1.377 . S
C3 C4 1.395 . S
C3 H32 0.931 . S
C4 C3 1.395 . S
C4 C5 1.383 . S
C4 H33 0.931 . S
C5 C4 1.383 . S
C5 C6 1.394 . S
C6 C5 1.394 . S
C6 C7 1.378 . S
C6 H34 0.931 . S
C7 C2 1.377 . S
C7 C6 1.378 . S
C7 H35 0.931 . S
C8 O22 1.259 . S
C8 O23 1.270 . S
C9 O24 1.251 . S
C9 O25 1.251 . S
C10 Eu11 2.835 . S
C10 C12 1.500 . S
C10 O26 1.257 . S
C10 O27 1.260 . S
Eu11 C10 2.835 . S
Eu11 O23 2.355 . S
Eu11 O25 2.374 1_455 S
Eu11 O26 2.473 . S
Eu11 O27 2.480 . S
Eu11 O28 2.430 . S
Eu11 O29 2.670 . S
Eu11 O30 2.394 . S
C12 C10 1.500 . S
C12 C13 1.377 . S
C12 C17 1.377 . S
C13 C12 1.377 . S
C13 C14 1.395 . S
C13 H36 0.931 . S
C14 C13 1.395 . S
C14 C15 1.383 . S
C14 H37 0.931 . S
C15 C14 1.383 . S
C15 C16 1.394 . S
C16 C15 1.394 . S
C16 C17 1.378 . S
C16 H38 0.931 . S
C17 C12 1.377 . S
C17 C16 1.378 . S
C17 H39 0.931 . S
C18 O28 1.259 . S
C18 O29 1.270 . S
C19 O30 1.251 . S
C19 O31 1.251 . S
O20 C0 1.257 . S
O20 Eu1 2.473 . S
O21 C0 1.260 . S
O21 Eu1 2.480 . S
O22 Eu1 2.430 1_455 S
O22 C8 1.259 . S
O23 Eu1 2.670 1_455 S
O23 C8 1.270 . S
O23 Eu11 2.355 . S
O24 Eu1 2.394 . S
O24 C9 1.251 . S
O25 C9 1.251 . S
O25 Eu11 2.374 1_655 S
O26 C10 1.257 . S
O26 Eu11 2.473 . S
O27 C10 1.260 . S
O27 Eu11 2.480 . S
O28 Eu11 2.430 . S
O28 C18 1.259 . S
O29 Eu1 2.355 1_455 S
O29 Eu11 2.670 . S
O29 C18 1.270 . S
O30 Eu11 2.394 . S
O30 C19 1.251 . S
O31 Eu1 2.374 1_455 S
O31 C19 1.251 . S
H32 C3 0.931 . S
H33 C4 0.931 . S
H34 C6 0.931 . S
H35 C7 0.931 . S
H36 C13 0.931 . S
H37 C14 0.931 . S
H38 C16 0.931 . S
H39 C17 0.931 . S
C40 Eu41 2.835 . S
C40 C42 1.500 . S
C40 O60 1.257 . S
C40 O61 1.260 . S
Eu41 C40 2.835 . S
Eu41 O60 2.473 . S
Eu41 O61 2.480 . S
Eu41 O62 2.430 . S
Eu41 O63 2.670 . S
Eu41 O64 2.394 . S
Eu41 O69 2.355 . S
Eu41 O71 2.374 1_545 S
C42 C40 1.500 . S
C42 C43 1.377 . S
C42 C47 1.377 . S
C43 C42 1.377 . S
C43 C44 1.395 . S
C43 H72 0.931 . S
C44 C43 1.395 . S
C44 C45 1.383 . S
C44 H73 0.931 . S
C45 C44 1.383 . S
C45 C46 1.394 . S
C46 C45 1.394 . S
C46 C47 1.378 . S
C46 H74 0.931 . S
C47 C42 1.377 . S
C47 C46 1.378 . S
C47 H75 0.931 . S
C48 O62 1.259 . S
C48 O63 1.270 . S
C49 O64 1.251 . S
C49 O65 1.251 . S
C50 Eu51 2.835 . S
C50 C52 1.500 . S
C50 O66 1.257 . S
C50 O67 1.260 . S
Eu51 C50 2.835 . S
Eu51 O63 2.355 1_565 S
Eu51 O65 2.374 1_565 S
Eu51 O66 2.473 . S
Eu51 O67 2.480 . S
Eu51 O68 2.430 1_565 S
Eu51 O69 2.670 1_565 S
Eu51 O70 2.394 . S
C52 C50 1.500 . S
C52 C53 1.377 . S
C52 C57 1.377 . S
C53 C52 1.377 . S
C53 C54 1.395 . S
C53 H76 0.931 . S
C54 C53 1.395 . S
C54 C55 1.383 . S
C54 H77 0.931 . S
C55 C54 1.383 . S
C55 C56 1.394 . S
C56 C55 1.394 . S
C56 C57 1.378 . S
C56 H78 0.931 . S
C57 C52 1.377 . S
C57 C56 1.378 . S
C57 H79 0.931 . S
C58 O68 1.259 . S
C58 O69 1.270 . S
C59 O70 1.251 . S
C59 O71 1.251 . S
O60 C40 1.257 . S
O60 Eu41 2.473 . S
O61 C40 1.260 . S
O61 Eu41 2.480 . S
O62 Eu41 2.430 . S
O62 C48 1.259 . S
O63 Eu41 2.670 . S
O63 C48 1.270 . S
O63 Eu51 2.355 1_545 S
O64 Eu41 2.394 . S
O64 C49 1.251 . S
O65 C49 1.251 . S
O65 Eu51 2.374 1_545 S
O66 C50 1.257 . S
O66 Eu51 2.473 . S
O67 C50 1.260 . S
O67 Eu51 2.480 . S
O68 Eu51 2.430 1_545 S
O68 C58 1.259 . S
O69 Eu41 2.355 . S
O69 Eu51 2.670 1_545 S
O69 C58 1.270 . S
O70 Eu51 2.394 . S
O70 C59 1.251 . S
O71 Eu41 2.374 1_565 S
O71 C59 1.251 . S
H72 C43 0.931 . S
H73 C44 0.931 . S
H74 C46 0.931 . S
H75 C47 0.931 . S
H76 C53 0.931 . S
H77 C54 0.931 . S
H78 C56 0.931 . S
H79 C57 0.931 . S
C80 Eu81 2.835 . S
C80 C82 1.500 . S
C80 O100 1.257 . S
C80 O101 1.260 . S
Eu81 C80 2.835 . S
Eu81 O100 2.473 . S
Eu81 O101 2.480 . S
Eu81 O102 2.430 . S
Eu81 O103 2.670 . S
Eu81 O104 2.394 . S
Eu81 O109 2.355 . S
Eu81 O111 2.374 . S
C82 C80 1.500 . S
C82 C83 1.377 . S
C82 C87 1.377 . S
C83 C82 1.377 . S
C83 C84 1.395 . S
C83 H112 0.931 . S
C84 C83 1.395 . S
C84 C85 1.383 . S
C84 H113 0.931 . S
C85 C84 1.383 . S
C85 C86 1.394 . S
C86 C85 1.394 . S
C86 C87 1.378 . S
C86 H114 0.931 . S
C87 C82 1.377 . S
C87 C86 1.378 . S
C87 H115 0.931 . S
C88 O102 1.259 . S
C88 O103 1.270 . S
C89 O104 1.251 . S
C89 O105 1.251 . S
C90 Eu91 2.835 . S
C90 C92 1.500 . S
C90 O106 1.257 . S
C90 O107 1.260 . S
Eu91 C90 2.835 . S
Eu91 O103 2.355 . S
Eu91 O105 2.374 . S
Eu91 O106 2.473 . S
Eu91 O107 2.480 . S
Eu91 O108 2.430 . S
Eu91 O109 2.670 . S
Eu91 O110 2.394 . S
C92 C90 1.500 . S
C92 C93 1.377 . S
C92 C97 1.377 . S
C93 C92 1.377 . S
C93 C94 1.395 . S
C93 H116 0.931 . S
C94 C93 1.395 . S
C94 C95 1.383 . S
C94 H117 0.931 . S
C95 C94 1.383 . S
C95 C96 1.394 . S
C96 C95 1.394 . S
C96 C97 1.378 . S
C96 H118 0.931 . S
C97 C92 1.377 . S
C97 C96 1.378 . S
C97 H119 0.931 . S
C98 O108 1.259 . S
C98 O109 1.270 . S
C99 O110 1.251 . S
C99 O111 1.251 . S
O100 C80 1.257 . S
O100 Eu81 2.473 . S
O101 C80 1.260 . S
O101 Eu81 2.480 . S
O102 Eu81 2.430 . S
O102 C88 1.259 . S
O103 Eu81 2.670 . S
O103 C88 1.270 . S
O103 Eu91 2.355 . S
O104 Eu81 2.394 . S
O104 C89 1.251 . S
O105 C89 1.251 . S
O105 Eu91 2.374 . S
O106 C90 1.257 . S
O106 Eu91 2.473 . S
O107 C90 1.260 . S
O107 Eu91 2.480 . S
O108 Eu91 2.430 . S
O108 C98 1.259 . S
O109 Eu81 2.355 . S
O109 Eu91 2.670 . S
O109 C98 1.270 . S
O110 Eu91 2.394 . S
O110 C99 1.251 . S
O111 Eu81 2.374 . S
O111 C99 1.251 . S
H112 C83 0.931 . S
H113 C84 0.931 . S
H114 C86 0.931 . S
H115 C87 0.931 . S
H116 C93 0.931 . S
H117 C94 0.931 . S
H118 C96 0.931 . S
H119 C97 0.931 . S
C120 C121 1.384 . S
C120 H133 0.947 . S
C120 C155 1.382 . S
C121 C120 1.384 . S
C121 C122 1.378 . S
C122 C121 1.378 . S
C122 C123 1.378 . S
C122 H134 0.952 . S
C123 C122 1.378 . S
C123 H135 0.950 . S
C123 C154 1.383 . S
H124 C143 0.947 . S
H125 C144 0.946 . S
H126 C146 0.953 . S
H127 C147 0.945 . S
H128 C149 0.952 . S
H129 C150 0.949 . S
H130 C152 0.950 1_565 S
H131 C153 0.948 1_565 S
H132 C155 0.951 . S
H133 C120 0.947 . S
H134 C122 0.952 . S
H135 C123 0.950 . S
N136 C139 1.382 . S
N136 C141 1.363 . S
N137 C139 1.371 . S
N137 C140 1.372 . S
N138 C140 1.361 . S
N138 C141 1.377 . S
C139 N136 1.382 . S
C139 N137 1.371 . S
C139 C142 1.480 . S
C140 N137 1.372 . S
C140 N138 1.361 . S
C140 C148 1.457 . S
C141 N136 1.363 . S
C141 N138 1.377 . S
C141 C154 1.479 1_545 S
C142 C139 1.480 . S
C142 C143 1.383 . S
C142 C147 1.385 . S
C143 H124 0.947 . S
C143 C142 1.383 . S
C143 C144 1.388 . S
C144 H125 0.946 . S
C144 C143 1.388 . S
C144 C145 1.384 . S
C145 C144 1.384 . S
C145 C146 1.377 . S
C146 H126 0.953 . S
C146 C145 1.377 . S
C146 C147 1.369 . S
C147 H127 0.945 . S
C147 C142 1.385 . S
C147 C146 1.369 . S
C148 C140 1.457 . S
C148 C149 1.372 . S
C148 C153 1.364 . S
C149 H128 0.952 . S
C149 C148 1.372 . S
C149 C150 1.389 . S
C150 H129 0.949 . S
C150 C149 1.389 . S
C150 C151 1.387 . S
C151 C150 1.387 . S
C151 C152 1.372 . S
C152 H130 0.950 1_545 S
C152 C151 1.372 . S
C152 C153 1.379 . S
C153 H131 0.948 1_545 S
C153 C148 1.364 . S
C153 C152 1.379 . S
C154 C123 1.383 . S
C154 C141 1.479 1_565 S
C154 C155 1.398 . S
C155 C120 1.382 . S
C155 H132 0.951 . S
C155 C154 1.398 . S
C156 C157 1.384 . S
C156 H169 0.947 . S
C156 C191 1.382 . S
C157 C156 1.384 . S
C157 C158 1.378 . S
C158 C157 1.378 . S
C158 C159 1.378 . S
C158 H170 0.952 . S
C159 C158 1.378 . S
C159 H171 0.950 . S
C159 C190 1.383 . S
H160 C179 0.947 . S
H161 C180 0.946 . S
H162 C182 0.953 . S
H163 C183 0.945 . S
H164 C185 0.952 . S
H165 C186 0.949 . S
H166 C188 0.950 . S
H167 C189 0.948 . S
H168 C191 0.951 . S
H169 C156 0.947 . S
H170 C158 0.952 . S
H171 C159 0.950 . S
N172 C175 1.382 . S
N172 C177 1.363 . S
N173 C175 1.371 . S
N173 C176 1.372 . S
N174 C176 1.361 . S
N174 C177 1.377 . S
C175 N172 1.382 . S
C175 N173 1.371 . S
C175 C178 1.480 . S
C176 N173 1.372 . S
C176 N174 1.361 . S
C176 C184 1.457 . S
C177 N172 1.363 . S
C177 N174 1.377 . S
C177 C190 1.479 . S
C178 C175 1.480 . S
C178 C179 1.383 . S
C178 C183 1.385 . S
C179 H160 0.947 . S
C179 C178 1.383 . S
C179 C180 1.388 . S
C180 H161 0.946 . S
C180 C179 1.388 . S
C180 C181 1.384 . S
C181 C180 1.384 . S
C181 C182 1.377 . S
C182 H162 0.953 . S
C182 C181 1.377 . S
C182 C183 1.369 . S
C183 H163 0.945 . S
C183 C178 1.385 . S
C183 C182 1.369 . S
C184 C176 1.457 . S
C184 C185 1.372 . S
C184 C189 1.364 . S
C185 H164 0.952 . S
C185 C184 1.372 . S
C185 C186 1.389 . S
C186 H165 0.949 . S
C186 C185 1.389 . S
C186 C187 1.387 . S
C187 C186 1.387 . S
C187 C188 1.372 . S
C188 H166 0.950 . S
C188 C187 1.372 . S
C188 C189 1.379 . S
C189 H167 0.948 . S
C189 C184 1.364 . S
C189 C188 1.379 . S
C190 C159 1.383 . S
C190 C177 1.479 . S
C190 C191 1.398 . S
C191 C156 1.382 . S
C191 H168 0.951 . S
C191 C190 1.398 . S
C192 C193 1.384 . S
C192 H205 0.947 . S
C192 C227 1.382 . S
C193 C192 1.384 . S
C193 C194 1.378 . S
C194 C193 1.378 . S
C194 C195 1.378 . S
C194 H206 0.952 . S
C195 C194 1.378 . S
C195 H207 0.950 . S
C195 C226 1.383 . S
H196 C215 0.947 . S
H197 C216 0.946 . S
H198 C218 0.953 . S
H199 C219 0.945 . S
H200 C221 0.952 . S
H201 C222 0.949 . S
H202 C224 0.950 . S
H203 C225 0.948 . S
H204 C227 0.951 . S
H205 C192 0.947 . S
H206 C194 0.952 . S
H207 C195 0.950 . S
N208 C211 1.382 1_655 S
N208 C213 1.363 . S
N209 C211 1.371 . S
N209 C212 1.383 . S
N210 C212 1.350 1_655 S
N210 C213 1.377 . S
C211 N208 1.382 1_455 S
C211 N209 1.371 . S
C211 C214 1.480 . S
C212 N209 1.383 . S
C212 N210 1.350 1_455 S
C212 C220 1.457 1_455 S
C213 N208 1.363 . S
C213 N210 1.377 . S
C213 C226 1.479 . S
C214 C211 1.480 . S
C214 C215 1.383 . S
C214 C219 1.385 . S
C215 H196 0.947 . S
C215 C214 1.383 . S
C215 C216 1.388 . S
C216 H197 0.946 . S
C216 C215 1.388 . S
C216 C217 1.384 . S
C217 C216 1.384 . S
C217 C218 1.377 . S
C218 H198 0.953 . S
C218 C217 1.377 . S
C218 C219 1.369 . S
C219 H199 0.945 . S
C219 C214 1.385 . S
C219 C218 1.369 . S
C220 C212 1.457 1_655 S
C220 C221 1.373 1_655 S
C220 C225 1.362 . S
C221 H200 0.952 . S
C221 C220 1.373 1_455 S
C221 C222 1.389 1_556 S
C222 H201 0.949 . S
C222 C221 1.389 1_554 S
C222 C223 1.387 . S
C223 C222 1.387 . S
C223 C224 1.372 1_455 S
C224 H202 0.950 . S
C224 C223 1.372 1_655 S
C224 C225 1.379 1_554 S
C225 H203 0.948 . S
C225 C220 1.362 . S
C225 C224 1.379 1_556 S
C226 C195 1.383 . S
C226 C213 1.479 . S
C226 C227 1.398 . S
C227 C192 1.382 . S
C227 H204 0.951 . S
C227 C226 1.398 . S
C228 C229 1.384 . S
C228 H241 0.947 . S
C228 C263 1.382 . S
C229 C228 1.384 . S
C229 C230 1.378 . S
C230 C229 1.378 . S
C230 C231 1.378 . S
C230 H242 0.952 . S
C231 C230 1.378 . S
C231 H243 0.950 . S
C231 C262 1.383 . S
H232 C251 0.947 1_455 S
H233 C252 0.946 . S
H234 C254 0.953 . S
H235 C255 0.945 . S
H236 C257 0.952 1_655 S
H237 C258 0.949 1_655 S
H238 C260 0.950 . S
H239 C261 0.948 . S
H240 C263 0.951 . S
H241 C228 0.947 . S
H242 C230 0.952 . S
H243 C231 0.950 . S
N244 C247 1.382 . S
N244 C249 1.363 . S
N245 C247 1.371 . S
N245 C248 1.372 . S
N246 C248 1.361 . S
N246 C249 1.377 . S
C247 N244 1.382 . S
C247 N245 1.371 . S
C247 C250 1.480 1_455 S
C248 N245 1.372 . S
C248 N246 1.361 . S
C248 C256 1.457 . S
C249 N244 1.363 . S
C249 N246 1.377 . S
C249 C262 1.479 . S
C250 C247 1.480 1_655 S
C250 C251 1.383 . S
C250 C255 1.385 . S
C251 H232 0.947 1_655 S
C251 C250 1.383 . S
C251 C252 1.388 . S
C252 H233 0.946 . S
C252 C251 1.388 . S
C252 C253 1.384 . S
C253 C252 1.384 . S
C253 C254 1.377 . S
C254 H234 0.953 . S
C254 C253 1.377 . S
C254 C255 1.369 . S
C255 H235 0.945 . S
C255 C250 1.385 . S
C255 C254 1.369 . S
C256 C248 1.457 . S
C256 C257 1.372 . S
C256 C261 1.364 . S
C257 H236 0.952 1_455 S
C257 C256 1.372 . S
C257 C258 1.389 . S
C258 H237 0.949 1_455 S
C258 C257 1.389 . S
C258 C259 1.387 . S
C259 C258 1.387 . S
C259 C260 1.372 . S
C260 H238 0.950 . S
C260 C259 1.372 . S
C260 C261 1.379 . S
C261 H239 0.948 . S
C261 C256 1.364 . S
C261 C260 1.379 . S
C262 C231 1.383 . S
C262 C249 1.479 . S
C262 C263 1.398 . S
C263 C228 1.382 . S
C263 H240 0.951 . S
C263 C262 1.398 . S
C264 C265 1.384 . S
C264 H277 0.947 . S
C264 C299 1.382 . S
C265 C264 1.384 . S
C265 C266 1.378 . S
C266 C265 1.378 . S
C266 C267 1.378 . S
C266 H278 0.952 . S
C267 C266 1.378 . S
C267 H279 0.950 . S
C267 C298 1.383 . S
H268 C287 0.947 . S
H269 C288 0.946 . S
H270 C290 0.953 . S
H271 C291 0.945 . S
H272 C293 0.952 . S
H273 C294 0.949 . S
H274 C296 0.950 . S
H275 C297 0.948 . S
H276 C299 0.951 . S
H277 C264 0.947 . S
H278 C266 0.952 . S
H279 C267 0.950 . S
N280 C283 1.382 1_545 S
N280 C285 1.363 . S
N281 C283 1.371 . S
N281 C284 1.372 1_565 S
N282 C284 1.361 . S
N282 C285 1.377 . S
C283 N280 1.382 1_565 S
C283 N281 1.371 . S
C283 C286 1.480 . S
C284 N281 1.372 1_545 S
C284 N282 1.361 . S
C284 C292 1.457 . S
C285 N280 1.363 . S
C285 N282 1.377 . S
C285 C298 1.479 . S
C286 C283 1.480 . S
C286 C287 1.383 . S
C286 C291 1.385 . S
C287 H268 0.947 . S
C287 C286 1.383 . S
C287 C288 1.388 . S
C288 H269 0.946 . S
C288 C287 1.388 . S
C288 C289 1.384 . S
C289 C288 1.384 . S
C289 C290 1.377 . S
C290 H270 0.953 . S
C290 C289 1.377 . S
C290 C291 1.369 . S
C291 H271 0.945 . S
C291 C286 1.385 . S
C291 C290 1.369 . S
C292 C284 1.457 . S
C292 C293 1.372 1_545 S
C292 C297 1.364 . S
C293 H272 0.952 . S
C293 C292 1.372 1_565 S
C293 C294 1.389 . S
C294 H273 0.949 . S
C294 C293 1.389 . S
C294 C295 1.387 1_565 S
C295 C294 1.387 1_545 S
C295 C296 1.372 . S
C296 H274 0.950 . S
C296 C295 1.372 . S
C296 C297 1.379 . S
C297 H275 0.948 . S
C297 C292 1.364 . S
C297 C296 1.379 . S
C298 C267 1.383 . S
C298 C285 1.479 . S
C298 C299 1.398 . S
C299 C264 1.382 . S
C299 H276 0.951 . S
C299 C298 1.398 . S
C300 C301 1.384 . S
C300 H313 0.947 . S
C300 C335 1.382 . S
C301 C300 1.384 . S
C301 C302 1.378 . S
C302 C301 1.378 . S
C302 C303 1.378 . S
C302 H314 0.952 . S
C303 C302 1.378 . S
C303 H315 0.950 . S
C303 C334 1.383 . S
H304 C323 0.947 . S
H305 C324 0.946 . S
H306 C326 0.953 . S
H307 C327 0.945 . S
H308 C329 0.952 . S
H309 C330 0.949 . S
H310 C332 0.950 . S
H311 C333 0.948 . S
H312 C335 0.951 . S
H313 C300 0.947 . S
H314 C302 0.952 . S
H315 C303 0.950 . S
N316 C319 1.382 . S
N316 C321 1.363 . S
N317 C319 1.371 . S
N317 C320 1.372 . S
N318 C320 1.361 . S
N318 C321 1.377 . S
C319 N316 1.382 . S
C319 N317 1.371 . S
C319 C322 1.480 . S
C320 N317 1.372 . S
C320 N318 1.361 . S
C320 C328 1.457 . S
C321 N316 1.363 . S
C321 N318 1.377 . S
C321 C334 1.479 . S
C322 C319 1.480 . S
C322 C323 1.383 . S
C322 C327 1.385 . S
C323 H304 0.947 . S
C323 C322 1.383 . S
C323 C324 1.388 . S
C324 H305 0.946 . S
C324 C323 1.388 . S
C324 C325 1.384 . S
C325 C324 1.384 . S
C325 C326 1.377 . S
C326 H306 0.953 . S
C326 C325 1.377 . S
C326 C327 1.369 . S
C327 H307 0.945 . S
C327 C322 1.385 . S
C327 C326 1.369 . S
C328 C320 1.457 . S
C328 C329 1.372 . S
C328 C333 1.364 . S
C329 H308 0.952 . S
C329 C328 1.372 . S
C329 C330 1.389 . S
C330 H309 0.949 . S
C330 C329 1.389 . S
C330 C331 1.387 . S
C331 C330 1.387 . S
C331 C332 1.372 . S
C332 H310 0.950 . S
C332 C331 1.372 . S
C332 C333 1.379 . S
C333 H311 0.948 . S
C333 C328 1.364 . S
C333 C332 1.379 . S
C334 C303 1.383 . S
C334 C321 1.479 . S
C334 C335 1.398 . S
C335 C300 1.382 . S
C335 H312 0.951 . S
C335 C334 1.398 . S
C336 C337 1.369 . S
C336 C338 1.419 . S
C336 H340 0.930 . S
C337 C336 1.369 . S
C337 C346 1.429 . S
C338 C336 1.419 . S
C338 C339 1.363 . S
C338 H341 0.929 . S
C339 C338 1.363 . S
C339 C345 1.428 . S
H340 C336 0.930 . S
H341 C338 0.929 . S
S342 N343 1.613 . S
S342 N344 1.610 . S
N343 S342 1.613 . S
N343 C346 1.350 . S
N344 S342 1.610 . S
N344 C345 1.351 . S
C345 C339 1.428 . S
C345 N344 1.351 . S
C345 C346 1.434 . S
C346 C337 1.429 . S
C346 N343 1.350 . S
C346 C345 1.434 . S
C347 C348 1.369 . S
C347 C349 1.419 . S
C347 H351 0.930 . S
C348 C347 1.369 . S
C348 C357 1.429 . S
C349 C347 1.419 . S
C349 C350 1.363 . S
C349 H352 0.929 . S
C350 C349 1.363 . S
C350 C356 1.428 . S
H351 C347 0.930 . S
H352 C349 0.929 . S
S353 N354 1.613 . S
S353 N355 1.610 . S
N354 S353 1.613 . S
N354 C357 1.350 . S
N355 S353 1.610 . S
N355 C356 1.351 . S
C356 C350 1.428 . S
C356 N355 1.351 . S
C356 C357 1.434 . S
C357 C348 1.429 . S
C357 N354 1.350 . S
C357 C356 1.434 . S
C358 C359 1.369 . S
C358 C360 1.419 . S
C358 H362 0.930 . S
C359 C358 1.369 . S
C359 C368 1.429 . S
C360 C358 1.419 . S
C360 C361 1.363 . S
C360 H363 0.929 . S
C361 C360 1.363 . S
C361 C367 1.428 . S
H362 C358 0.930 . S
H363 C360 0.929 . S
S364 N365 1.613 . S
S364 N366 1.610 . S
N365 S364 1.613 . S
N365 C368 1.350 . S
N366 S364 1.610 . S
N366 C367 1.351 . S
C367 C361 1.428 . S
C367 N366 1.351 . S
C367 C368 1.434 . S
C368 C359 1.429 . S
C368 N365 1.350 . S
C368 C367 1.434 . S
C369 C370 1.369 . S
C369 C371 1.419 . S
C369 H373 0.930 . S
C370 C369 1.369 . S
C370 C379 1.429 . S
C371 C369 1.419 . S
C371 C372 1.363 . S
C371 H374 0.929 . S
C372 C371 1.363 . S
C372 C378 1.428 . S
H373 C369 0.930 . S
H374 C371 0.929 . S
S375 N376 1.613 . S
S375 N377 1.610 . S
N376 S375 1.613 . S
N376 C379 1.350 . S
N377 S375 1.610 . S
N377 C378 1.351 . S
C378 C372 1.428 . S
C378 N377 1.351 . S
C378 C379 1.434 . S
C379 C370 1.429 . S
C379 N376 1.350 . S
C379 C378 1.434 . S
C380 C381 1.369 . S
C380 C382 1.419 . S
C380 H384 0.930 . S
C381 C380 1.369 . S
C381 C390 1.429 . S
C382 C380 1.419 . S
C382 C383 1.363 . S
C382 H385 0.929 . S
C383 C382 1.363 . S
C383 C389 1.428 . S
H384 C380 0.930 . S
H385 C382 0.929 . S
S386 N387 1.613 . S
S386 N388 1.610 . S
N387 S386 1.613 . S
N387 C390 1.350 . S
N388 S386 1.610 . S
N388 C389 1.351 . S
C389 C383 1.428 . S
C389 N388 1.351 . S
C389 C390 1.434 . S
C390 C381 1.429 . S
C390 N387 1.350 . S
C390 C389 1.434 . S
C391 C392 1.369 . S
C391 C393 1.419 . S
C391 H395 0.930 . S
C392 C391 1.369 . S
C392 C401 1.429 . S
C393 C391 1.419 . S
C393 C394 1.363 . S
C393 H396 0.929 . S
C394 C393 1.363 . S
C394 C400 1.428 . S
H395 C391 0.930 . S
H396 C393 0.929 . S
S397 N398 1.613 . S
S397 N399 1.610 . S
N398 S397 1.613 . S
N398 C401 1.350 . S
N399 S397 1.610 . S
N399 C400 1.351 . S
C400 C394 1.428 . S
C400 N399 1.351 . S
C400 C401 1.434 . S
C401 C392 1.429 . S
C401 N398 1.350 . S
C401 C400 1.434 . S
C402 C403 1.369 . S
C402 C404 1.419 . S
C402 H406 0.930 . S
C403 C402 1.369 . S
C403 C412 1.429 . S
C404 C402 1.419 . S
C404 C405 1.363 . S
C404 H407 0.929 . S
C405 C404 1.363 . S
C405 C411 1.428 . S
H406 C402 0.930 . S
H407 C404 0.929 . S
S408 N409 1.613 . S
S408 N410 1.610 . S
N409 S408 1.613 . S
N409 C412 1.350 . S
N410 S408 1.610 . S
N410 C411 1.351 . S
C411 C405 1.428 . S
C411 N410 1.351 . S
C411 C412 1.434 . S
C412 C403 1.429 . S
C412 N409 1.350 . S
C412 C411 1.434 . S
C413 C414 1.369 . S
C413 C415 1.419 . S
C413 H417 0.930 . S
C414 C413 1.369 . S
C414 C423 1.429 . S
C415 C413 1.419 . S
C415 C416 1.363 . S
C415 H418 0.929 . S
C416 C415 1.363 . S
C416 C422 1.428 . S
H417 C413 0.930 . S
H418 C415 0.929 . S
S419 N420 1.613 . S
S419 N421 1.610 . S
N420 S419 1.613 . S
N420 C423 1.350 . S
N421 S419 1.610 . S
N421 C422 1.351 . S
C422 C416 1.428 . S
C422 N421 1.351 . S
C422 C423 1.434 . S
C423 C414 1.429 . S
C423 N420 1.350 . S
C423 C422 1.434 . S
C424 C425 1.369 . S
C424 C426 1.419 . S
C424 H428 0.930 . S
C425 C424 1.369 . S
C425 C434 1.429 . S
C426 C424 1.419 . S
C426 C427 1.363 . S
C426 H429 0.929 . S
C427 C426 1.363 . S
C427 C433 1.428 . S
H428 C424 0.930 . S
H429 C426 0.929 . S
S430 N431 1.613 . S
S430 N432 1.610 . S
N431 S430 1.613 . S
N431 C434 1.350 . S
N432 S430 1.610 . S
N432 C433 1.351 . S
C433 C427 1.428 . S
C433 N432 1.351 . S
C433 C434 1.434 . S
C434 C425 1.429 . S
C434 N431 1.350 . S
C434 C433 1.434 . S
C435 C436 1.369 . S
C435 C437 1.419 . S
C435 H439 0.930 . S
C436 C435 1.369 . S
C436 C445 1.429 . S
C437 C435 1.419 . S
C437 C438 1.363 . S
C437 H440 0.929 . S
C438 C437 1.363 . S
C438 C444 1.428 . S
H439 C435 0.930 . S
H440 C437 0.929 . S
S441 N442 1.613 . S
S441 N443 1.610 . S
N442 S441 1.613 . S
N442 C445 1.350 . S
N443 S441 1.610 . S
N443 C444 1.351 . S
C444 C438 1.428 . S
C444 N443 1.351 . S
C444 C445 1.434 . S
C445 C436 1.429 . S
C445 N442 1.350 . S
C445 C444 1.434 . S
C446 C447 1.369 . S
C446 C448 1.419 . S
C446 H450 0.930 . S
C447 C446 1.369 . S
C447 C456 1.429 . S
C448 C446 1.419 . S
C448 C449 1.363 . S
C448 H451 0.929 . S
C449 C448 1.363 . S
C449 C455 1.428 . S
H450 C446 0.930 . S
H451 C448 0.929 . S
S452 N453 1.613 . S
S452 N454 1.610 . S
N453 S452 1.613 . S
N453 C456 1.350 . S
N454 S452 1.610 . S
N454 C455 1.351 . S
C455 C449 1.428 . S
C455 N454 1.351 . S
C455 C456 1.434 . S
C456 C447 1.429 . S
C456 N453 1.350 . S
C456 C455 1.434 . S
C457 C458 1.369 . S
C457 C459 1.419 . S
C457 H461 0.930 . S
C458 C457 1.369 . S
C458 C467 1.429 . S
C459 C457 1.419 . S
C459 C460 1.363 . S
C459 H462 0.929 . S
C460 C459 1.363 . S
C460 C466 1.428 . S
H461 C457 0.930 . S
H462 C459 0.929 . S
S463 N464 1.613 . S
S463 N465 1.610 . S
N464 S463 1.613 . S
N464 C467 1.350 . S
N465 S463 1.610 . S
N465 C466 1.351 . S
C466 C460 1.428 . S
C466 N465 1.351 . S
C466 C467 1.434 . S
C467 C458 1.429 . S
C467 N464 1.350 . S
C467 C466 1.434 . S
C468 C469 1.369 . S
C468 C470 1.419 . S
C468 H472 0.930 . S
C469 C468 1.369 . S
C469 C478 1.429 1_455 S
C470 C468 1.419 . S
C470 C471 1.363 . S
C470 H473 0.929 . S
C471 C470 1.363 . S
C471 C477 1.428 1_455 S
H472 C468 0.930 . S
H473 C470 0.929 . S
S474 N475 1.613 . S
S474 N476 1.610 . S
N475 S474 1.613 . S
N475 C478 1.350 . S
N476 S474 1.610 . S
N476 C477 1.351 . S
C477 C471 1.428 1_655 S
C477 N476 1.351 . S
C477 C478 1.434 . S
C478 C469 1.429 1_655 S
C478 N475 1.350 . S
C478 C477 1.434 . S
C479 C480 1.369 . S
C479 C481 1.419 . S
C479 H483 0.930 . S
C480 C479 1.369 . S
C480 C489 1.429 . S
C481 C479 1.419 . S
C481 C482 1.363 . S
C481 H484 0.929 . S
C482 C481 1.363 . S
C482 C488 1.428 . S
H483 C479 0.930 . S
H484 C481 0.929 . S
S485 N486 1.613 1_565 S
S485 N487 1.610 1_565 S
N486 S485 1.613 1_545 S
N486 C489 1.350 . S
N487 S485 1.610 1_545 S
N487 C488 1.351 . S
C488 C482 1.428 . S
C488 N487 1.351 . S
C488 C489 1.434 . S
C489 C480 1.429 . S
C489 N486 1.350 . S
C489 C488 1.434 . S
C490 C491 1.369 . S
C490 C492 1.419 . S
C490 H494 0.930 . S
C491 C490 1.369 . S
C491 C500 1.429 . S
C492 C490 1.419 . S
C492 C493 1.363 . S
C492 H495 0.929 . S
C493 C492 1.363 . S
C493 C499 1.428 . S
H494 C490 0.930 . S
H495 C492 0.929 . S
S496 N497 1.613 . S
S496 N498 1.610 . S
N497 S496 1.613 . S
N497 C500 1.350 . S
N498 S496 1.610 . S
N498 C499 1.351 . S
C499 C493 1.428 . S
C499 N498 1.351 . S
C499 C500 1.434 . S
C500 C491 1.429 . S
C500 N497 1.350 . S
C500 C499 1.434 . S
C501 C502 1.369 . S
C501 C503 1.419 . S
C501 H505 0.930 . S
C502 C501 1.369 . S
C502 C511 1.429 1_545 S
C503 C501 1.419 . S
C503 C504 1.363 . S
C503 H506 0.929 . S
C504 C503 1.363 . S
C504 C510 1.428 1_545 S
H505 C501 0.930 . S
H506 C503 0.929 . S
S507 N508 1.613 . S
S507 N509 1.610 . S
N508 S507 1.613 . S
N508 C511 1.350 . S
N509 S507 1.610 . S
N509 C510 1.351 . S
C510 C504 1.428 1_565 S
C510 N509 1.351 . S
C510 C511 1.434 . S
C511 C502 1.429 1_565 S
C511 N508 1.350 . S
C511 C510 1.434 . S
C512 C513 1.369 . S
C512 C514 1.419 . S
C512 H516 0.930 . S
C513 C512 1.369 . S
C513 C522 1.429 . S
C514 C512 1.419 . S
C514 C515 1.363 . S
C514 H517 0.929 . S
C515 C514 1.363 . S
C515 C521 1.428 . S
H516 C512 0.930 . S
H517 C514 0.929 . S
S518 N519 1.613 . S
S518 N520 1.610 . S
N519 S518 1.613 . S
N519 C522 1.350 . S
N520 S518 1.610 . S
N520 C521 1.351 . S
C521 C515 1.428 . S
C521 N520 1.351 . S
C521 C522 1.434 . S
C522 C513 1.429 . S
C522 N519 1.350 . S
C522 C521 1.434 . S
C523 C524 1.369 . S
C523 C525 1.419 . S
C523 H527 0.930 . S
C524 C523 1.369 . S
C524 C533 1.429 . S
C525 C523 1.419 . S
C525 C526 1.363 . S
C525 H528 0.929 . S
C526 C525 1.363 . S
C526 C532 1.428 . S
H527 C523 0.930 . S
H528 C525 0.929 . S
S529 N530 1.613 . S
S529 N531 1.610 . S
N530 S529 1.613 . S
N530 C533 1.350 1_655 S
N531 S529 1.610 . S
N531 C532 1.351 1_655 S
C532 C526 1.428 . S
C532 N531 1.351 1_455 S
C532 C533 1.434 . S
C533 C524 1.429 . S
C533 N530 1.350 1_455 S
C533 C532 1.434 . S
C337 C19 3.094 . S
C339 C325 3.001 . S
C348 C49 3.159 . S
C350 C253 3.067 . S
C359 C99 3.093 . S
C361 C289 2.999 . S
C370 C9 3.157 . S
C372 C301 3.110 . S
C383 C229 3.036 . S
C381 C59 3.090 . S
C394 C265 3.108 . S
C392 C89 3.159 . S
C403 C55 0.617 . S
C405 C181 0.601 . S
C414 C85 0.646 . S
C416 C193 0.595 . S
C425 C15 0.612 . S
C427 C121 0.622 . S
C438 C157 0.596 . S
C436 C45 0.647 . S
C449 C217 0.602 . S
C447 C95 0.621 . S
C458 C5 0.645 . S
C460 C145 0.599 . S
C471 C223 1.042 . S
C469 C18 1.038 . S
C480 C58 1.029 . S
C482 C151 1.023 . S
C491 C98 1.034 . S
C493 C187 1.040 . S
C504 C295 1.812 . S
C502 C48 1.728 . S
C515 C331 1.812 1_556 S
C513 C88 1.730 . S
C524 C8 1.723 . S
C526 C259 1.818 . S
