# Generated by pormake.
# Topology ctn, (3,4)-cn, num edge types: 1
# Building blocks:
#     Node 0, Type 0, BuildingBlock: QEWDON_clean_linker_0, # of connection points: 3
#     Node 1, Type 0, BuildingBlock: QEWDON_clean_linker_0, # of connection points: 3
#     Node 2, Type 0, BuildingBlock: QEWDON_clean_linker_0, # of connection points: 3
#     Node 3, Type 0, BuildingBlock: QEWDON_clean_linker_0, # of connection points: 3
#     Node 4, Type 0, BuildingBlock: QEWDON_clean_linker_0, # of connection points: 3
#     Node 5, Type 0, BuildingBlock: QEWDON_clean_linker_0, # of connection points: 3
#     Node 6, Type 0, BuildingBlock: QEWDON_clean_linker_0, # of connection points: 3
#     Node 7, Type 0, BuildingBlock: QEWDON_clean_linker_0, # of connection points: 3
#     Node 8, Type 0, BuildingBlock: QEWDON_clean_linker_0, # of connection points: 3
#     Node 9, Type 0, BuildingBlock: QEWDON_clean_linker_0, # of connection points: 3
#     Node 10, Type 0, BuildingBlock: QEWDON_clean_linker_0, # of connection points: 3
#     Node 11, Type 0, BuildingBlock: QEWDON_clean_linker_0, # of connection points: 3
#     Node 12, Type 0, BuildingBlock: QEWDON_clean_linker_0, # of connection points: 3
#     Node 13, Type 0, BuildingBlock: QEWDON_clean_linker_0, # of connection points: 3
#     Node 14, Type 0, BuildingBlock: QEWDON_clean_linker_0, # of connection points: 3
#     Node 15, Type 0, BuildingBlock: QEWDON_clean_linker_0, # of connection points: 3
#     Node 16, Type 1, BuildingBlock: QUQFOY_clean_sbu_1, # of connection points: 4
#     Node 17, Type 1, BuildingBlock: QUQFOY_clean_sbu_1, # of connection points: 4
#     Node 18, Type 1, BuildingBlock: QUQFOY_clean_sbu_1, # of connection points: 4
#     Node 19, Type 1, BuildingBlock: QUQFOY_clean_sbu_1, # of connection points: 4
#     Node 20, Type 1, BuildingBlock: QUQFOY_clean_sbu_1, # of connection points: 4
#     Node 21, Type 1, BuildingBlock: QUQFOY_clean_sbu_1, # of connection points: 4
#     Node 22, Type 1, BuildingBlock: QUQFOY_clean_sbu_1, # of connection points: 4
#     Node 23, Type 1, BuildingBlock: QUQFOY_clean_sbu_1, # of connection points: 4
#     Node 24, Type 1, BuildingBlock: QUQFOY_clean_sbu_1, # of connection points: 4
#     Node 25, Type 1, BuildingBlock: QUQFOY_clean_sbu_1, # of connection points: 4
#     Node 26, Type 1, BuildingBlock: QUQFOY_clean_sbu_1, # of connection points: 4
#     Node 27, Type 1, BuildingBlock: QUQFOY_clean_sbu_1, # of connection points: 4
#     Edge 28, Type (0, 1), BuildingBlock: KIFKEQ_clean_linker_1, # of connection points: 2
#     Edge 29, Type (0, 1), BuildingBlock: KIFKEQ_clean_linker_1, # of connection points: 2
#     Edge 30, Type (0, 1), BuildingBlock: KIFKEQ_clean_linker_1, # of connection points: 2
#     Edge 31, Type (0, 1), BuildingBlock: KIFKEQ_clean_linker_1, # of connection points: 2
#     Edge 32, Type (0, 1), BuildingBlock: KIFKEQ_clean_linker_1, # of connection points: 2
#     Edge 33, Type (0, 1), BuildingBlock: KIFKEQ_clean_linker_1, # of connection points: 2
#     Edge 34, Type (0, 1), BuildingBlock: KIFKEQ_clean_linker_1, # of connection points: 2
#     Edge 35, Type (0, 1), BuildingBlock: KIFKEQ_clean_linker_1, # of connection points: 2
#     Edge 36, Type (0, 1), BuildingBlock: KIFKEQ_clean_linker_1, # of connection points: 2
#     Edge 37, Type (0, 1), BuildingBlock: KIFKEQ_clean_linker_1, # of connection points: 2
#     Edge 38, Type (0, 1), BuildingBlock: KIFKEQ_clean_linker_1, # of connection points: 2
#     Edge 39, Type (0, 1), BuildingBlock: KIFKEQ_clean_linker_1, # of connection points: 2
#     Edge 40, Type (0, 1), BuildingBlock: KIFKEQ_clean_linker_1, # of connection points: 2
#     Edge 41, Type (0, 1), BuildingBlock: KIFKEQ_clean_linker_1, # of connection points: 2
#     Edge 42, Type (0, 1), BuildingBlock: KIFKEQ_clean_linker_1, # of connection points: 2
#     Edge 43, Type (0, 1), BuildingBlock: KIFKEQ_clean_linker_1, # of connection points: 2
#     Edge 44, Type (0, 1), BuildingBlock: KIFKEQ_clean_linker_1, # of connection points: 2
#     Edge 45, Type (0, 1), BuildingBlock: KIFKEQ_clean_linker_1, # of connection points: 2
#     Edge 46, Type (0, 1), BuildingBlock: KIFKEQ_clean_linker_1, # of connection points: 2
#     Edge 47, Type (0, 1), BuildingBlock: KIFKEQ_clean_linker_1, # of connection points: 2
#     Edge 48, Type (0, 1), BuildingBlock: KIFKEQ_clean_linker_1, # of connection points: 2
#     Edge 49, Type (0, 1), BuildingBlock: KIFKEQ_clean_linker_1, # of connection points: 2
#     Edge 50, Type (0, 1), BuildingBlock: KIFKEQ_clean_linker_1, # of connection points: 2
#     Edge 51, Type (0, 1), BuildingBlock: KIFKEQ_clean_linker_1, # of connection points: 2
#     Edge 52, Type (0, 1), BuildingBlock: KIFKEQ_clean_linker_1, # of connection points: 2
#     Edge 53, Type (0, 1), BuildingBlock: KIFKEQ_clean_linker_1, # of connection points: 2
#     Edge 54, Type (0, 1), BuildingBlock: KIFKEQ_clean_linker_1, # of connection points: 2
#     Edge 55, Type (0, 1), BuildingBlock: KIFKEQ_clean_linker_1, # of connection points: 2
#     Edge 56, Type (0, 1), BuildingBlock: KIFKEQ_clean_linker_1, # of connection points: 2
#     Edge 57, Type (0, 1), BuildingBlock: KIFKEQ_clean_linker_1, # of connection points: 2
#     Edge 58, Type (0, 1), BuildingBlock: KIFKEQ_clean_linker_1, # of connection points: 2
#     Edge 59, Type (0, 1), BuildingBlock: KIFKEQ_clean_linker_1, # of connection points: 2
#     Edge 60, Type (0, 1), BuildingBlock: KIFKEQ_clean_linker_1, # of connection points: 2
#     Edge 61, Type (0, 1), BuildingBlock: KIFKEQ_clean_linker_1, # of connection points: 2
#     Edge 62, Type (0, 1), BuildingBlock: KIFKEQ_clean_linker_1, # of connection points: 2
#     Edge 63, Type (0, 1), BuildingBlock: KIFKEQ_clean_linker_1, # of connection points: 2
#     Edge 64, Type (0, 1), BuildingBlock: KIFKEQ_clean_linker_1, # of connection points: 2
#     Edge 65, Type (0, 1), BuildingBlock: KIFKEQ_clean_linker_1, # of connection points: 2
#     Edge 66, Type (0, 1), BuildingBlock: KIFKEQ_clean_linker_1, # of connection points: 2
#     Edge 67, Type (0, 1), BuildingBlock: KIFKEQ_clean_linker_1, # of connection points: 2
#     Edge 68, Type (0, 1), BuildingBlock: KIFKEQ_clean_linker_1, # of connection points: 2
#     Edge 69, Type (0, 1), BuildingBlock: KIFKEQ_clean_linker_1, # of connection points: 2
#     Edge 70, Type (0, 1), BuildingBlock: KIFKEQ_clean_linker_1, # of connection points: 2
#     Edge 71, Type (0, 1), BuildingBlock: KIFKEQ_clean_linker_1, # of connection points: 2
#     Edge 72, Type (0, 1), BuildingBlock: KIFKEQ_clean_linker_1, # of connection points: 2
#     Edge 73, Type (0, 1), BuildingBlock: KIFKEQ_clean_linker_1, # of connection points: 2
#     Edge 74, Type (0, 1), BuildingBlock: KIFKEQ_clean_linker_1, # of connection points: 2
#     Edge 75, Type (0, 1), BuildingBlock: KIFKEQ_clean_linker_1, # of connection points: 2
# Relax obj value: 0.130
# Max RMSD: 0.256
# Mean RMSD: 0.171
data_MOF--net-ctn--node1-QUQFOY_clean_sbu_1--node2-QEWDON_clean_linker_0--edge1-KIFKEQ_clean_linker_1
_symmetry_space_group_name_H-M    P1
_symmetry_Int_Tables_number       1
_symmetry_cell_setting            triclinic
loop_
_symmetry_equiv_pos_as_xyz
'x, y, z'
_cell_length_a     53.233177
_cell_length_b     55.239827
_cell_length_c     60.063042
_cell_angle_alpha  101.6015
_cell_angle_beta   92.169198
_cell_angle_gamma 101.48247
loop_
_atom_site_label
_atom_site_type_symbol
_atom_site_fract_x
_atom_site_fract_y
_atom_site_fract_z
_atom_type_partial_charge
H0 H 0.1312 0.0618 0.07088 0.0
C1 C 0.11615 0.05938 0.08239 0.0
C2 C 0.10899 0.03637 0.08948 0.0
C3 C 0.10502 0.07995 0.09101 0.0
H4 H 0.08395 0.01656 0.11042 0.0
C5 C 0.0902 0.03434 0.10523 0.0
C6 C 0.07945 0.05506 0.11457 0.0
C7 C 0.08677 0.07782 0.10714 0.0
C8 C 0.11487 0.1045 0.08501 0.0
H9 H 0.0791 0.09414 0.11452 0.0
C10 C 0.10508 0.11034 0.06512 0.0
C11 C 0.11586 0.13321 0.05873 0.0
C12 C 0.13529 0.12158 0.09871 0.0
H13 H 0.14312 0.11722 0.114 0.0
C14 C 0.14614 0.14413 0.09252 0.0
H15 H 0.08905 0.0971 0.05484 0.0
C16 C 0.1367 0.14986 0.07265 0.0
H17 H 0.14606 0.16724 0.06807 0.0
H18 H 0.16214 0.15711 0.10301 0.0
H19 H 0.36005 0.75513 0.25382 0.0
C20 C 0.34521 0.73843 0.25338 0.0
C21 C 0.3515 0.71692 0.25958 0.0
C22 C 0.31956 0.73887 0.24748 0.0
H23 H 0.3359 0.67951 0.26502 0.0
C24 C 0.33164 0.69587 0.25952 0.0
C25 C 0.30601 0.69608 0.25344 0.0
C26 C 0.30011 0.71757 0.24722 0.0
C27 C 0.31241 0.76271 0.24507 0.0
H28 H 0.28022 0.71827 0.24341 0.0
C29 C 0.31139 0.76958 0.22381 0.0
C30 C 0.30306 0.79182 0.22168 0.0
C31 C 0.3054 0.77814 0.26429 0.0
H32 H 0.30598 0.77299 0.28076 0.0
C33 C 0.29723 0.80013 0.26237 0.0
H34 H 0.31708 0.75763 0.20909 0.0
C35 C 0.2959 0.80688 0.24126 0.0
H36 H 0.28879 0.82371 0.24027 0.0
H37 H 0.29161 0.81184 0.27725 0.0
H38 H 0.95693 0.44581 0.07124 0.0
C39 C 0.95143 0.4621 0.06657 0.0
C40 C 0.96236 0.48648 0.07926 0.0
C41 C 0.9329 0.45852 0.04826 0.0
H42 H 0.96329 0.52642 0.08268 0.0
C43 C 0.95476 0.50746 0.07327 0.0
C44 C 0.93603 0.50409 0.05525 0.0
C45 C 0.92509 0.47963 0.04291 0.0
C46 C 0.92235 0.4329 0.03418 0.0
H47 H 0.9111 0.47717 0.02861 0.0
C48 C 0.93886 0.4164 0.02702 0.0
C49 C 0.92947 0.39271 0.01235 0.0
C50 C 0.89602 0.42518 0.02705 0.0
H51 H 0.88282 0.4374 0.0325 0.0
C52 C 0.88646 0.40158 0.01281 0.0
H53 H 0.95914 0.42228 0.0326 0.0
C54 C 0.90301 0.3855 0.00535 0.0
H55 H 0.89511 0.36766 0.99372 0.0
H56 H 0.86616 0.39584 0.00728 0.0
H57 H 0.78592 0.79102 0.25833 0.0
C58 C 0.78781 0.78232 0.2408 0.0
C59 C 0.79584 0.79763 0.22523 0.0
C60 C 0.78245 0.7558 0.23392 0.0
H61 H 0.8056 0.79766 0.19074 0.0
C62 C 0.7984 0.78605 0.20262 0.0
C63 C 0.79258 0.75966 0.19528 0.0
C64 C 0.78478 0.74464 0.2111 0.0
C65 C 0.77438 0.73974 0.25056 0.0
H66 H 0.77986 0.72424 0.20552 0.0
C67 C 0.75598 0.74548 0.26587 0.0
C68 C 0.74798 0.73013 0.28147 0.0
C69 C 0.78499 0.71851 0.25115 0.0
H70 H 0.79939 0.71378 0.23974 0.0
C71 C 0.77736 0.70335 0.26671 0.0
H72 H 0.74774 0.76184 0.2655 0.0
C73 C 0.75897 0.70903 0.28175 0.0
H74 H 0.753 0.69661 0.29328 0.0
H75 H 0.78564 0.68703 0.26702 0.0
H76 H 0.1212 0.95658 0.47141 0.0
C77 C 0.10719 0.96092 0.46006 0.0
C78 C 0.11387 0.98205 0.45019 0.0
C79 C 0.08304 0.94444 0.45405 0.0
H80 H 0.10093 0.004 0.42809 0.0
C81 C 0.09591 0.98724 0.43515 0.0
C82 C 0.07168 0.97118 0.4291 0.0
C83 C 0.06533 0.94976 0.43865 0.0
C84 C 0.07713 0.92047 0.4621 0.0
H85 H 0.04689 0.93685 0.43369 0.0
C86 C 0.07901 0.92024 0.48551 0.0
C87 C 0.07336 0.89718 0.49282 0.0
C88 C 0.06971 0.8975 0.44608 0.0
H89 H 0.06831 0.89724 0.42798 0.0
C90 C 0.06439 0.87466 0.45321 0.0
H91 H 0.08464 0.93793 0.49794 0.0
C92 C 0.06616 0.87444 0.47638 0.0
H93 H 0.06129 0.85644 0.48146 0.0
H94 H 0.0587 0.85705 0.44074 0.0
H95 H 0.2964 0.71962 0.77916 0.0
C96 C 0.28996 0.72745 0.79542 0.0
C97 C 0.29413 0.71729 0.81459 0.0
C98 C 0.27696 0.74742 0.79687 0.0
H99 H 0.28957 0.72112 0.85059 0.0
C100 C 0.28521 0.7277 0.83538 0.0
C101 C 0.27148 0.74716 0.83702 0.0
C102 C 0.26734 0.75682 0.81757 0.0
C103 C 0.27422 0.75908 0.77697 0.0
H104 H 0.25702 0.772 0.81858 0.0
C105 C 0.25034 0.76359 0.77005 0.0
C106 C 0.24787 0.77526 0.75148 0.0
C107 C 0.29573 0.76625 0.76509 0.0
H108 H 0.31438 0.76317 0.77021 0.0
C109 C 0.29351 0.778 0.74683 0.0
H110 H 0.23361 0.7574 0.77882 0.0
C111 C 0.26983 0.78258 0.74009 0.0
H112 H 0.2688 0.79206 0.72606 0.0
H113 H 0.31026 0.78372 0.73795 0.0
H114 H 0.956 0.6229 0.47598 0.0
C115 C 0.94552 0.60564 0.48013 0.0
C116 C 0.94363 0.60383 0.50302 0.0
C117 C 0.93353 0.5854 0.46257 0.0
H118 H 0.92748 0.5803 0.52583 0.0
C119 C 0.92976 0.58149 0.50819 0.0
C120 C 0.91699 0.56152 0.49066 0.0
C121 C 0.91914 0.56349 0.46786 0.0
C122 C 0.93459 0.58769 0.43865 0.0
H123 H 0.9091 0.54821 0.45424 0.0
C124 C 0.95326 0.57855 0.42547 0.0
C125 C 0.954 0.58029 0.40243 0.0
C126 C 0.91654 0.5986 0.42887 0.0
H127 H 0.90199 0.60564 0.43889 0.0
C128 C 0.91706 0.60029 0.40603 0.0
H129 H 0.96733 0.57043 0.4333 0.0
C130 C 0.93559 0.59118 0.39285 0.0
H131 H 0.9353 0.59241 0.37508 0.0
H132 H 0.90298 0.60859 0.39848 0.0
H133 H 0.85336 0.86444 0.8161 0.0
C134 C 0.85074 0.84932 0.82538 0.0
C135 C 0.86152 0.82804 0.81809 0.0
C136 C 0.83742 0.85165 0.84517 0.0
H137 H 0.8666 0.79246 0.82539 0.0
C138 C 0.85813 0.80878 0.83061 0.0
C139 C 0.8444 0.81065 0.85017 0.0
C140 C 0.83416 0.8322 0.85732 0.0
C141 C 0.82885 0.87532 0.85446 0.0
H142 H 0.82419 0.83422 0.87278 0.0
C143 C 0.81316 0.8855 0.84102 0.0
C144 C 0.80536 0.9081 0.85027 0.0
C145 C 0.83665 0.88791 0.87715 0.0
H146 H 0.84887 0.88052 0.88775 0.0
C147 C 0.82907 0.91032 0.8863 0.0
H148 H 0.80702 0.87585 0.82352 0.0
C149 C 0.81354 0.92038 0.87301 0.0
H150 H 0.80759 0.93763 0.88064 0.0
H151 H 0.83519 0.9199 0.9038 0.0
H152 H 0.36646 0.36168 0.30653 0.0
C153 C 0.36075 0.34821 0.31723 0.0
C154 C 0.37096 0.32639 0.31464 0.0
C155 C 0.34407 0.3534 0.3342 0.0
H156 H 0.37248 0.29301 0.32753 0.0
C157 C 0.36419 0.30963 0.32923 0.0
C158 C 0.34734 0.31447 0.3463 0.0
C159 C 0.33722 0.33647 0.34859 0.0
C160 C 0.3361 0.37786 0.33809 0.0
H161 H 0.32446 0.34073 0.3618 0.0
C162 C 0.31124 0.37959 0.33075 0.0
C163 C 0.30508 0.40346 0.33233 0.0
C164 C 0.35439 0.39995 0.34763 0.0
H165 H 0.37365 0.39889 0.35324 0.0
C166 C 0.34808 0.42358 0.34969 0.0
H167 H 0.29718 0.3626 0.32302 0.0
C168 C 0.32365 0.42538 0.3419 0.0
H169 H 0.3192 0.44391 0.34333 0.0
H170 H 0.36229 0.44055 0.35702 0.0
H171 H 0.45974 0.95021 0.56025 0.0
C172 C 0.45413 0.96648 0.55564 0.0
C173 C 0.46565 0.99091 0.56782 0.0
C174 C 0.43558 0.96284 0.53738 0.0
H175 H 0.46744 0.03081 0.57061 0.0
C176 C 0.4585 0.0119 0.5614 0.0
C177 C 0.43999 0.00864 0.54312 0.0
C178 C 0.42847 0.98397 0.5314 0.0
C179 C 0.42431 0.93704 0.52391 0.0
H180 H 0.41407 0.98115 0.51736 0.0
C181 C 0.4402 0.91983 0.51702 0.0
C182 C 0.43008 0.89589 0.50299 0.0
C183 C 0.39787 0.92983 0.51712 0.0
H184 H 0.38514 0.94259 0.52238 0.0
C185 C 0.38761 0.90603 0.50348 0.0
H186 H 0.46055 0.92531 0.52235 0.0
C187 C 0.40354 0.88922 0.4963 0.0
H188 H 0.39509 0.87122 0.48514 0.0
H189 H 0.36724 0.90069 0.49821 0.0
H190 H 0.29705 0.29335 0.76635 0.0
C191 C 0.29711 0.28487 0.74843 0.0
C192 C 0.30766 0.29991 0.73347 0.0
C193 C 0.28781 0.25872 0.7405 0.0
H194 H 0.31645 0.30067 0.69897 0.0
C195 C 0.3082 0.28892 0.71042 0.0
C196 C 0.29824 0.26306 0.70201 0.0
C197 C 0.28838 0.24797 0.71722 0.0
C198 C 0.27796 0.24249 0.75652 0.0
H199 H 0.28055 0.22797 0.71088 0.0
C200 C 0.26059 0.24969 0.77238 0.0
C201 C 0.25099 0.2341 0.78738 0.0
C202 C 0.28592 0.21962 0.75596 0.0
H203 H 0.29946 0.21375 0.74406 0.0
C204 C 0.27674 0.20426 0.77095 0.0
H205 H 0.25438 0.26731 0.77287 0.0
C206 C 0.25938 0.21136 0.78653 0.0
H207 H 0.2521 0.19876 0.79757 0.0
H208 H 0.28298 0.18667 0.77038 0.0
H209 H 0.87441 0.26685 0.76162 0.0
C210 C 0.8587 0.25065 0.75583 0.0
C211 C 0.86115 0.22683 0.75935 0.0
C212 C 0.83561 0.25389 0.74586 0.0
H213 H 0.84204 0.18808 0.75623 0.0
C214 C 0.84036 0.20621 0.75271 0.0
C215 C 0.81718 0.20902 0.7426 0.0
C216 C 0.81511 0.23293 0.73891 0.0
C217 C 0.83182 0.27955 0.74504 0.0
H218 H 0.79719 0.23551 0.73153 0.0
C219 C 0.8229 0.28506 0.72465 0.0
C220 C 0.81792 0.30917 0.72428 0.0
C221 C 0.83598 0.29835 0.76513 0.0
H222 H 0.84262 0.29445 0.78106 0.0
C223 C 0.83081 0.32208 0.76503 0.0
H224 H 0.8204 0.27064 0.70911 0.0
C225 C 0.82167 0.32743 0.74488 0.0
H226 H 0.81731 0.34588 0.74559 0.0
H227 H 0.83364 0.33632 0.7807 0.0
H228 H 0.6171 0.56144 0.57059 0.0
C229 C 0.60287 0.55986 0.58295 0.0
C230 C 0.59603 0.53741 0.59102 0.0
C231 C 0.59254 0.58095 0.59163 0.0
H232 H 0.57268 0.51918 0.61398 0.0
C233 C 0.57815 0.53635 0.60766 0.0
C234 C 0.56767 0.55742 0.61662 0.0
C235 C 0.57515 0.57976 0.60853 0.0
C236 C 0.60147 0.60482 0.58411 0.0
H237 H 0.56738 0.59622 0.61525 0.0
C238 C 0.59412 0.60726 0.56207 0.0
C239 C 0.6038 0.62969 0.55469 0.0
C240 C 0.61828 0.62495 0.59881 0.0
H241 H 0.62414 0.62332 0.61582 0.0
C242 C 0.62806 0.64714 0.59147 0.0
H243 H 0.58104 0.59176 0.5507 0.0
C244 C 0.621 0.64949 0.5695 0.0
H245 H 0.62858 0.66697 0.56421 0.0
H246 H 0.64116 0.66256 0.60283 0.0
H247 H 0.6166 0.45332 0.96981 0.0
C248 C 0.60226 0.46087 0.96169 0.0
C249 C 0.60985 0.48244 0.95259 0.0
C250 C 0.57637 0.44816 0.95905 0.0
H251 H 0.59738 0.50818 0.93435 0.0
C252 C 0.59127 0.49169 0.94156 0.0
C253 C 0.56514 0.47981 0.93949 0.0
C254 C 0.5579 0.45783 0.9482 0.0
C255 C 0.56885 0.42357 0.96575 0.0
H256 H 0.5379 0.44814 0.94661 0.0
C257 C 0.57356 0.42121 0.98836 0.0
C258 C 0.56653 0.39749 0.99428 0.0
C259 C 0.55712 0.40212 0.94915 0.0
H260 H 0.55343 0.40356 0.93165 0.0
C261 C 0.55044 0.37858 0.95489 0.0
H262 H 0.58247 0.43775 0.00126 0.0
C263 C 0.5551 0.37623 0.97728 0.0
H264 H 0.5492 0.35782 0.9814 0.0
H265 H 0.54146 0.36213 0.94198 0.0
H266 H 0.80934 0.22119 0.28981 0.0
C267 C 0.80275 0.22821 0.30623 0.0
C268 C 0.80703 0.21726 0.3249 0.0
C269 C 0.78925 0.24784 0.30829 0.0
H270 H 0.80143 0.21913 0.36067 0.0
C271 C 0.79776 0.22669 0.34586 0.0
C272 C 0.7836 0.24582 0.34798 0.0
C273 C 0.77925 0.25619 0.32905 0.0
C274 C 0.78615 0.26004 0.28886 0.0
H275 H 0.76894 0.27144 0.33071 0.0
C276 C 0.7617 0.26239 0.28109 0.0
C277 C 0.75878 0.27408 0.26266 0.0
C278 C 0.80777 0.26957 0.27809 0.0
H279 H 0.82682 0.26804 0.28385 0.0
C280 C 0.80503 0.28154 0.26004 0.0
H281 H 0.74495 0.25495 0.2893 0.0
C282 C 0.78071 0.28386 0.25236 0.0
H283 H 0.77898 0.29279 0.23805 0.0
H284 H 0.8218 0.28895 0.2519 0.0
H285 H 0.47386 0.11341 0.97677 0.0
C286 C 0.46536 0.09511 0.98014 0.0
C287 C 0.46325 0.09192 0.0027 0.0
C288 C 0.45532 0.07509 0.96172 0.0
H289 H 0.44866 0.06563 0.02368 0.0
C290 C 0.45083 0.06824 0.00642 0.0
C291 C 0.4399 0.04828 0.98806 0.0
C292 C 0.44277 0.05175 0.96569 0.0
C293 C 0.45522 0.07942 0.93834 0.0
H294 H 0.43443 0.03662 0.95129 0.0
C295 C 0.47428 0.07303 0.92412 0.0
C296 C 0.47396 0.0772 0.90174 0.0
C297 C 0.43571 0.08986 0.93022 0.0
H298 H 0.42087 0.0948 0.94104 0.0
C299 C 0.43513 0.09382 0.90802 0.0
H300 H 0.48949 0.06526 0.93065 0.0
C301 C 0.45406 0.08753 0.89384 0.0
H302 H 0.45294 0.09052 0.87658 0.0
H303 H 0.41992 0.10174 0.90176 0.0
O304 O 0.26829 0.83466 0.00836 0.0
Cd305 Cd 0.2836 0.86036 0.03794 0.0
Cd306 Cd 0.24892 0.88692 0.02374 0.0
O307 O 0.23984 0.85511 0.9978 0.0
O308 O 0.30079 0.8413 0.05653 0.0
O309 O 0.26863 0.85937 0.06807 0.0
C310 C 0.28529 0.84629 0.07197 0.0
C311 C 0.21585 0.90706 0.0369 0.0
C312 C 0.25064 0.83628 0.99421 0.0
C313 C 0.30609 0.91017 0.02712 0.0
O314 O 0.28303 0.91157 0.02234 0.0
O315 O 0.31089 0.89123 0.03416 0.0
O316 O 0.22289 0.90627 0.01657 0.0
O317 O 0.2271 0.89571 0.04985 0.0
O318 O 0.16415 0.54044 0.28565 0.0
Cd319 Cd 0.13862 0.50963 0.29201 0.0
Cd320 Cd 0.10804 0.52175 0.25421 0.0
O321 O 0.14247 0.54699 0.25608 0.0
O322 O 0.15892 0.49633 0.31349 0.0
O323 O 0.14514 0.47513 0.27845 0.0
C324 C 0.15798 0.47663 0.29755 0.0
C325 C 0.0845 0.51317 0.21865 0.0
C326 C 0.1624 0.55246 0.26989 0.0
C327 C 0.08681 0.52213 0.30115 0.0
O328 O 0.08508 0.52547 0.28089 0.0
O329 O 0.10628 0.51525 0.30874 0.0
O330 O 0.0883 0.53489 0.2323 0.0
O331 O 0.09428 0.49584 0.22503 0.0
O332 O 0.81142 0.68567 0.96733 0.0
Cd333 Cd 0.80231 0.66334 0.99093 0.0
Cd334 Cd 0.82842 0.6338 0.96314 0.0
O335 O 0.83482 0.66297 0.94596 0.0
O336 O 0.7855 0.68404 0.01448 0.0
O337 O 0.82158 0.6722 0.02204 0.0
C338 C 0.80355 0.6836 0.02918 0.0
C339 C 0.85999 0.6231 0.98444 0.0
C340 C 0.82512 0.68248 0.95051 0.0
C341 C 0.77495 0.60977 0.96769 0.0
O342 O 0.79425 0.60749 0.95627 0.0
O343 O 0.77517 0.63 0.98224 0.0
O344 O 0.85752 0.61603 0.96246 0.0
O345 O 0.84539 0.63753 0.9941 0.0
O346 O 0.9561 0.00871 0.29413 0.0
Cd347 Cd 0.93454 0.01101 0.26552 0.0
Cd348 Cd 0.90498 0.02785 0.2997 0.0
O349 O 0.93403 0.02462 0.3217 0.0
O350 O 0.95684 0.0004 0.24114 0.0
O351 O 0.94687 0.03789 0.24738 0.0
C352 C 0.95892 0.02209 0.23586 0.0
C353 C 0.88971 0.06497 0.30447 0.0
C354 C 0.95309 0.01514 0.31525 0.0
C355 C 0.88167 0.97954 0.26664 0.0
O356 O 0.87962 0.9947 0.28507 0.0
O357 O 0.90138 0.98361 0.25557 0.0
O358 O 0.88327 0.04895 0.31724 0.0
O359 O 0.90544 0.06022 0.2891 0.0
O360 O 0.30494 0.19836 0.47102 0.0
Cd361 Cd 0.29579 0.17581 0.49443 0.0
Cd362 Cd 0.3245 0.14723 0.4693 0.0
O363 O 0.33021 0.17615 0.45171 0.0
O364 O 0.28072 0.19627 0.51944 0.0
O365 O 0.31647 0.18272 0.52458 0.0
C366 C 0.29921 0.1945 0.5331 0.0
C367 C 0.35806 0.13474 0.48656 0.0
C368 C 0.31968 0.19518 0.45498 0.0
C369 C 0.27031 0.12203 0.4721 0.0
O370 O 0.29089 0.12009 0.46252 0.0
O371 O 0.26867 0.14256 0.4854 0.0
O372 O 0.35326 0.1291 0.46469 0.0
O373 O 0.3446 0.14877 0.49858 0.0
O374 O 0.45908 0.52928 0.81172 0.0
Cd375 Cd 0.43919 0.52381 0.78017 0.0
Cd376 Cd 0.40169 0.53583 0.80818 0.0
O377 O 0.42811 0.53622 0.8341 0.0
O378 O 0.46562 0.5156 0.75894 0.0
O379 O 0.44766 0.54827 0.75903 0.0
C380 C 0.46339 0.53465 0.75034 0.0
C381 C 0.38331 0.57054 0.80798 0.0
C382 C 0.45092 0.53315 0.8315 0.0
C383 C 0.389 0.48521 0.77731 0.0
O384 O 0.38104 0.50071 0.79253 0.0
O385 O 0.41105 0.49114 0.77011 0.0
O386 O 0.37576 0.55491 0.8209 0.0
O387 O 0.4018 0.5667 0.79526 0.0
O388 O 0.75867 0.34083 0.51284 0.0
Cd389 Cd 0.76919 0.36918 0.54188 0.0
Cd390 Cd 0.73307 0.38783 0.52073 0.0
O391 O 0.72631 0.35355 0.49808 0.0
O392 O 0.78975 0.35361 0.56124 0.0
O393 O 0.75459 0.36669 0.57209 0.0
C394 C 0.77347 0.35637 0.57638 0.0
C395 C 0.69965 0.40641 0.53513 0.0
C396 C 0.74068 0.33764 0.49731 0.0
C397 C 0.78801 0.41649 0.5254 0.0
O398 O 0.76538 0.41305 0.51612 0.0
O399 O 0.79349 0.40209 0.53807 0.0
O400 O 0.70406 0.40381 0.51393 0.0
O401 O 0.71359 0.39739 0.54815 0.0
O402 O 0.67696 0.05185 0.76477 0.0
Cd403 Cd 0.65437 0.02238 0.77598 0.0
Cd404 Cd 0.61765 0.03425 0.73992 0.0
O405 O 0.65111 0.05977 0.73869 0.0
O406 O 0.67869 0.0178 0.8 0.0
O407 O 0.66453 0.98821 0.76917 0.0
C408 C 0.67893 0.99575 0.78807 0.0
C409 C 0.59091 0.02341 0.70597 0.0
C410 C 0.67283 0.0643 0.74988 0.0
C411 C 0.60258 0.03459 0.78884 0.0
O412 O 0.59806 0.03776 0.76882 0.0
O413 O 0.62319 0.02819 0.79448 0.0
O414 O 0.59457 0.04545 0.71912 0.0
O415 O 0.60246 0.00705 0.71206 0.0
O416 O 0.022 0.25064 0.92936 0.0
Cd417 Cd 0.03087 0.22023 0.90751 0.0
Cd418 Cd 0.05985 0.25692 0.8914 0.0
O419 O 0.0509 0.28057 0.91974 0.0
O420 O 0.02407 0.19133 0.92336 0.0
O421 O 0.06303 0.20971 0.91638 0.0
C422 C 0.04867 0.19347 0.92578 0.0
C423 C 0.10166 0.25874 0.88053 0.0
C424 C 0.03317 0.27376 0.9322 0.0
C425 C 0.01372 0.2249 0.86134 0.0
O426 O 0.03133 0.24481 0.86524 0.0
O427 O 0.0113 0.21025 0.87537 0.0
O428 O 0.08939 0.27615 0.87834 0.0
O429 O 0.09053 0.24079 0.88993 0.0
O430 O 0.51807 0.74824 0.42297 0.0
Cd431 Cd 0.52648 0.71723 0.40157 0.0
Cd432 Cd 0.55604 0.75275 0.38468 0.0
O433 O 0.54722 0.77729 0.41246 0.0
O434 O 0.51877 0.68857 0.4176 0.0
O435 O 0.55815 0.70608 0.41086 0.0
C436 C 0.54327 0.69009 0.42014 0.0
C437 C 0.59788 0.75416 0.37405 0.0
C438 C 0.5295 0.77121 0.42518 0.0
C439 C 0.50983 0.72081 0.35484 0.0
O440 O 0.52779 0.74042 0.35831 0.0
O441 O 0.50695 0.70683 0.36942 0.0
O442 O 0.58567 0.77147 0.37143 0.0
O443 O 0.58669 0.73654 0.38378 0.0
O444 O 0.00207 0.79251 0.70026 0.0
Cd445 Cd 0.02868 0.78104 0.67889 0.0
Cd446 Cd 0.00958 0.81061 0.65322 0.0
O447 O 0.98863 0.81844 0.68127 0.0
O448 O 0.05173 0.76778 0.69802 0.0
O449 O 0.06542 0.80023 0.68199 0.0
C450 C 0.07044 0.78497 0.69446 0.0
C451 C 0.02816 0.84246 0.63487 0.0
C452 C 0.98786 0.80805 0.69839 0.0
C453 C 0.00365 0.75457 0.63295 0.0
O454 O 0.99911 0.77581 0.63098 0.0
O455 O 0.01552 0.75236 0.65092 0.0
O456 O 0.00361 0.83449 0.6338 0.0
O457 O 0.04233 0.83333 0.6476 0.0
O458 O 0.51395 0.28171 0.19986 0.0
Cd459 Cd 0.54095 0.27071 0.17878 0.0
Cd460 Cd 0.52077 0.29951 0.15219 0.0
O461 O 0.49987 0.30685 0.18034 0.0
O462 O 0.56323 0.25721 0.19837 0.0
O463 O 0.57773 0.29003 0.18306 0.0
C464 C 0.58215 0.27463 0.1956 0.0
C465 C 0.53685 0.33202 0.13364 0.0
C466 C 0.4994 0.29686 0.19768 0.0
C467 C 0.51674 0.2436 0.1325 0.0
O468 O 0.51152 0.26448 0.13017 0.0
O469 O 0.52861 0.24198 0.1507 0.0
O470 O 0.51258 0.32266 0.13284 0.0
O471 O 0.5522 0.32369 0.14598 0.0
H472 H 0.2716 0.79687 0.85525 0.0
H473 H 0.25124 0.72205 0.86949 0.0
H474 H 0.26004 0.81488 0.89287 0.0
H475 H 0.24044 0.74034 0.90751 0.0
H476 H 0.26773 0.79236 0.98115 0.0
H477 H 0.2675 0.76835 0.94232 0.0
H478 H 0.22266 0.81594 0.91751 0.0
H479 H 0.2228 0.84001 0.9563 0.0
C480 C 0.26421 0.78418 0.86619 0.0
C481 C 0.26252 0.75799 0.85932 0.0
C482 C 0.2576 0.79454 0.88779 0.0
C483 C 0.24935 0.779 0.90311 0.0
C484 C 0.24696 0.75277 0.8961 0.0
C485 C 0.2533 0.74235 0.87438 0.0
C486 C 0.25728 0.79734 0.96751 0.0
C487 C 0.24559 0.81833 0.97182 0.0
C488 C 0.25709 0.78352 0.94526 0.0
C489 C 0.24538 0.79054 0.92688 0.0
C490 C 0.23214 0.81037 0.93135 0.0
C491 C 0.2321 0.82403 0.95361 0.0
H492 H 0.98064 0.60229 0.37112 0.0
H493 H 0.97264 0.53726 0.40208 0.0
H494 H 0.01213 0.5865 0.34707 0.0
H495 H 0.00463 0.52166 0.37814 0.0
H496 H 0.04319 0.53727 0.28997 0.0
H497 H 0.01128 0.55012 0.31497 0.0
H498 H 0.05188 0.53317 0.37158 0.0
H499 H 0.08407 0.52001 0.34642 0.0
C500 C 0.98546 0.58454 0.3727 0.0
C501 C 0.97391 0.57094 0.38839 0.0
C502 C 0.00356 0.57552 0.35895 0.0
C503 C 0.01068 0.55274 0.3606 0.0
C504 C -0.00038 0.53936 0.37662 0.0
C505 C 0.98135 0.54833 0.39033 0.0
C506 C 0.04535 0.53608 0.3077 0.0
C507 C 0.06638 0.5278 0.31622 0.0
C508 C 0.02708 0.5436 0.32205 0.0
C509 C 0.02927 0.54298 0.34528 0.0
C510 C 0.0497 0.5338 0.35372 0.0
C511 C 0.06815 0.52634 0.33933 0.0
H512 H 0.88113 0.78623 0.86232 0.0
H513 H 0.80144 0.79012 0.86896 0.0
H514 H 0.877 0.75502 0.88626 0.0
H515 H 0.79729 0.75893 0.89284 0.0
H516 H 0.80734 0.72623 0.95553 0.0
H517 H 0.81235 0.75649 0.93085 0.0
H518 H 0.85621 0.71153 0.88714 0.0
H519 H 0.85161 0.68135 0.91211 0.0
C520 C 0.86264 0.78017 0.86863 0.0
C521 C 0.84162 0.79071 0.86379 0.0
C522 C 0.86028 0.7623 0.88237 0.0
C523 C 0.83686 0.7546 0.89159 0.0
C524 C 0.81574 0.76481 0.88638 0.0
C525 C 0.81809 0.78266 0.87267 0.0
C526 C 0.81814 0.72278 0.94071 0.0
C527 C 0.82903 0.70129 0.9358 0.0
C528 C 0.82085 0.74007 0.92646 0.0
C529 C 0.83451 0.73634 0.90692 0.0
C530 C 0.84574 0.71506 0.90215 0.0
C531 C 0.84301 0.69771 0.91643 0.0
H532 H 0.08322 0.9865 0.38964 0.0
H533 H 0.01964 0.96812 0.43017 0.0
H534 H 0.05489 0.99829 0.36297 0.0
H535 H 0.99081 0.97883 0.40271 0.0
H536 H 0.95353 0.02651 0.36193 0.0
H537 H 0.98181 0.01543 0.38948 0.0
H538 H 0.02049 0.9795 0.33427 0.0
H539 H 0.9929 0.99111 0.30691 0.0
C540 C 0.06313 0.98493 0.39283 0.0
C541 C 0.05372 0.9766 0.41215 0.0
C542 C 0.04681 0.99142 0.37737 0.0
C543 C 0.02057 0.98953 0.38069 0.0
C544 C 0.011 0.98082 0.39983 0.0
C545 C 0.02742 0.97437 0.41539 0.0
C546 C 0.96822 0.01643 0.35571 0.0
C547 C 0.97101 0.00981 0.33221 0.0
C548 C 0.98426 0.00987 0.37148 0.0
C549 C 0.00338 0.99653 0.36408 0.0
C550 C 0.00622 0.99009 0.3406 0.0
C551 C 0.99031 0.99671 0.32488 0.0
H552 H 0.31061 0.21834 0.68149 0.0
H553 H 0.2853 0.28341 0.6666 0.0
H554 H 0.31105 0.20146 0.64062 0.0
H555 H 0.28678 0.26719 0.62608 0.0
H556 H 0.26431 0.21816 0.55538 0.0
H557 H 0.26377 0.23359 0.59613 0.0
H558 H 0.33489 0.20992 0.60783 0.0
H559 H 0.33511 0.19382 0.56683 0.0
C560 C 0.30509 0.22898 0.6695 0.0
C561 C 0.29798 0.25223 0.67727 0.0
C562 C 0.30565 0.21948 0.64613 0.0
C563 C 0.29901 0.23301 0.63009 0.0
C564 C 0.29175 0.25615 0.63793 0.0
C565 C 0.29117 0.26559 0.66119 0.0
C566 C 0.27992 0.2163 0.56659 0.0
C567 C 0.29982 0.20485 0.55785 0.0
C568 C 0.27965 0.22525 0.58998 0.0
C569 C 0.29932 0.22306 0.60524 0.0
C570 C 0.31929 0.21163 0.59653 0.0
C571 C 0.31954 0.20261 0.57305 0.0
H572 H 0.52852 0.51819 0.61995 0.0
H573 H 0.56616 0.59375 0.65496 0.0
H574 H 0.50225 0.51418 0.65189 0.0
H575 H 0.53931 0.58984 0.68675 0.0
H576 H 0.4686 0.57631 0.73087 0.0
H577 H 0.49219 0.58344 0.69758 0.0
H578 H 0.51421 0.51151 0.69223 0.0
H579 H 0.49102 0.50443 0.72518 0.0
C580 C 0.53116 0.53399 0.63442 0.0
C581 C 0.54974 0.55615 0.635 0.0
C582 C 0.51603 0.53171 0.65267 0.0
C583 C 0.51893 0.55161 0.6719 0.0
C584 C 0.53657 0.57426 0.67208 0.0
C585 C 0.55191 0.57648 0.65385 0.0
C586 C 0.47853 0.56209 0.72256 0.0
C587 C 0.47791 0.5398 0.73064 0.0
C588 C 0.49205 0.5662 0.70358 0.0
C589 C 0.5048 0.54791 0.6922 0.0
C590 C 0.50423 0.52576 0.70041 0.0
C591 C 0.49107 0.52181 0.71943 0.0
H592 H 0.82889 0.35502 0.71147 0.0
H593 H 0.78703 0.27776 0.68751 0.0
H594 H 0.81446 0.36545 0.67633 0.0
H595 H 0.77426 0.28818 0.65169 0.0
H596 H 0.79721 0.31907 0.58348 0.0
H597 H 0.8052 0.30661 0.61951 0.0
H598 H 0.76625 0.36291 0.65423 0.0
H599 H 0.75746 0.37495 0.61795 0.0
C600 C 0.81642 0.34026 0.69895 0.0
C601 C 0.80912 0.31548 0.7026 0.0
C602 C 0.8083 0.3463 0.67875 0.0
C603 C 0.79321 0.32763 0.66147 0.0
C604 C 0.78595 0.30287 0.66484 0.0
C605 C 0.79354 0.29691 0.68529 0.0
C606 C 0.79011 0.32861 0.59876 0.0
C607 C 0.77677 0.34802 0.59797 0.0
C608 C 0.79457 0.32138 0.61929 0.0
C609 C 0.78632 0.33383 0.63952 0.0
C610 C 0.77276 0.35307 0.63878 0.0
C611 C 0.7677 0.35988 0.61808 0.0
H612 H 0.51067 0.02637 0.57821 0.0
H613 H 0.46515 0.96337 0.60106 0.0
H614 H 0.54214 0.03306 0.6106 0.0
H615 H 0.49693 0.96985 0.63323 0.0
H616 H 0.57078 0.0565 0.68668 0.0
H617 H 0.54171 0.0475 0.65251 0.0
H618 H 0.54317 0.96819 0.64273 0.0
H619 H 0.57246 0.9772 0.67728 0.0
C620 C 0.50731 0.01401 0.59017 0.0
C621 C 0.48527 0.99447 0.58713 0.0
C622 C 0.5254 0.01777 0.60865 0.0
C623 C 0.52195 0.002 0.62445 0.0
C624 C 0.50025 0.9821 0.62116 0.0
C625 C 0.48206 0.97842 0.60275 0.0
C626 C 0.56503 0.03712 0.67725 0.0
C627 C 0.57389 0.01754 0.68471 0.0
C628 C 0.54849 0.03201 0.65757 0.0
C629 C 0.54025 0.00717 0.64491 0.0
C630 C 0.54913 0.98751 0.65226 0.0
C631 C 0.56595 0.99267 0.67194 0.0
H632 H 0.91117 0.24124 0.7502 0.0
H633 H 0.86381 0.20553 0.79617 0.0
H634 H 0.94971 0.23654 0.77094 0.0
H635 H 0.90204 0.20176 0.81753 0.0
H636 H 0.97278 0.18483 0.84685 0.0
H637 H 0.9372 0.18213 0.819 0.0
H638 H 0.97415 0.25428 0.80554 0.0
H639 H 0.00998 0.2563 0.83229 0.0
C640 C 0.90909 0.23248 0.76482 0.0
C641 C 0.8846 0.22375 0.77161 0.0
C642 C 0.93111 0.22981 0.77675 0.0
C643 C 0.92911 0.21876 0.796 0.0
C644 C 0.90446 0.20983 0.80255 0.0
C645 C 0.88249 0.21217 0.79042 0.0
C646 C 0.97352 0.19981 0.83755 0.0
C647 C 0.99413 0.22088 0.842 0.0
C648 C 0.95299 0.19842 0.82174 0.0
C649 C 0.95249 0.21819 0.81022 0.0
C650 C 0.97383 0.23854 0.81381 0.0
C651 C 0.99442 0.23977 0.82936 0.0
H652 H 0.41944 0.84407 0.49594 0.0
H653 H 0.47981 0.90762 0.49126 0.0
H654 H 0.44609 0.81529 0.47967 0.0
H655 H 0.50735 0.87889 0.47705 0.0
H656 H 0.50249 0.7665 0.46236 0.0
H657 H 0.48151 0.79762 0.48454 0.0
H658 H 0.51233 0.85122 0.44381 0.0
H659 H 0.53439 0.8206 0.4227 0.0
C660 C 0.43847 0.85196 0.49164 0.0
C661 C 0.44725 0.87826 0.49477 0.0
C662 C 0.45403 0.8354 0.48269 0.0
C663 C 0.47901 0.84465 0.47698 0.0
C664 C 0.48812 0.87097 0.48086 0.0
C665 C 0.47238 0.88753 0.48942 0.0
C666 C 0.50515 0.78513 0.45851 0.0
C667 C 0.51997 0.79108 0.44074 0.0
C668 C 0.49291 0.80292 0.47106 0.0
C669 C 0.49478 0.8269 0.4658 0.0
C670 C 0.51061 0.83314 0.44865 0.0
C671 C 0.52324 0.81552 0.43641 0.0
H672 H 0.20954 0.25421 0.77886 0.0
H673 H 0.24822 0.2292 0.83182 0.0
H674 H 0.17604 0.26273 0.80393 0.0
H675 H 0.21452 0.23764 0.85692 0.0
H676 H 0.13078 0.22295 0.87949 0.0
H677 H 0.16893 0.21944 0.85885 0.0
H678 H 0.1674 0.29003 0.83882 0.0
H679 H 0.12904 0.29334 0.85912 0.0
C680 C 0.21115 0.25095 0.796 0.0
C681 C 0.23154 0.24095 0.80329 0.0
C682 C 0.19192 0.25584 0.81039 0.0
C683 C 0.19258 0.25083 0.83244 0.0
C684 C 0.21327 0.24137 0.83993 0.0
C685 C 0.23255 0.23652 0.82554 0.0
C686 C 0.1388 0.2379 0.87096 0.0
C687 C 0.12674 0.25831 0.87079 0.0
C688 C 0.16074 0.23595 0.8592 0.0
C689 C 0.17106 0.25434 0.847 0.0
C690 C 0.15966 0.27532 0.84772 0.0
C691 C 0.13776 0.27729 0.85948 0.0
H692 H 0.55488 0.62537 0.53718 0.0
H693 H 0.63392 0.64209 0.52129 0.0
H694 H 0.54124 0.63636 0.50204 0.0
H695 H 0.62043 0.65162 0.48531 0.0
H696 H 0.59135 0.70136 0.44175 0.0
H697 H 0.60635 0.68326 0.47204 0.0
H698 H 0.53451 0.62814 0.46284 0.0
H699 H 0.51902 0.6475 0.43346 0.0
C700 C 0.56925 0.63078 0.52577 0.0
C701 C 0.59541 0.63306 0.53193 0.0
C702 C 0.56147 0.63696 0.5055 0.0
C703 C 0.57969 0.64512 0.49067 0.0
C704 C 0.60583 0.64608 0.49644 0.0
C705 C 0.61361 0.64042 0.51696 0.0
C706 C 0.57894 0.68511 0.44595 0.0
C707 C 0.55393 0.67599 0.43537 0.0
C708 C 0.58758 0.67457 0.46333 0.0
C709 C 0.5716 0.65428 0.47027 0.0
C710 C 0.54716 0.64416 0.45853 0.0
C711 C 0.53833 0.65507 0.44147 0.0
H712 H 0.89664 0.86616 0.80638 0.0
H713 H 0.86328 0.78628 0.78513 0.0
H714 H 0.92617 0.86248 0.77632 0.0
H715 H 0.89338 0.78261 0.75565 0.0
H716 H 0.97426 0.78163 0.73132 0.0
H717 H 0.94222 0.78743 0.75859 0.0
H718 H 0.927 0.85066 0.73219 0.0
H719 H 0.95914 0.84479 0.7045 0.0
C720 C 0.89526 0.84792 0.79509 0.0
C721 C 0.87769 0.82645 0.79835 0.0
C722 C 0.91226 0.84583 0.77794 0.0
C723 C 0.91223 0.82222 0.76387 0.0
C724 C 0.89408 0.80098 0.76653 0.0
C725 C 0.87692 0.80309 0.78347 0.0
C726 C 0.96422 0.79687 0.7313 0.0
C727 C 0.96926 0.81274 0.71568 0.0
C728 C 0.94571 0.80004 0.74684 0.0
C729 C 0.93198 0.81933 0.74734 0.0
C730 C 0.93734 0.83563 0.73213 0.0
C731 C 0.95569 0.83224 0.71629 0.0
H732 H 0.05327 0.92695 0.52666 0.0
H733 H 0.09344 0.86551 0.51448 0.0
H734 H 0.04722 0.92089 0.56548 0.0
H735 H 0.08679 0.85894 0.55287 0.0
H736 H 0.07844 0.85405 0.62493 0.0
H737 H 0.0947 0.87404 0.59402 0.0
H738 H 0.01924 0.88745 0.57911 0.0
H739 H 0.00321 0.86798 0.61005 0.0
C740 C 0.0613 0.91253 0.53244 0.0
C741 C 0.07353 0.89648 0.51743 0.0
C742 C 0.05765 0.90892 0.5546 0.0
C743 C 0.06627 0.88926 0.56223 0.0
C744 C 0.08006 0.87439 0.54768 0.0
C745 C 0.08362 0.87795 0.52556 0.0
C746 C 0.06553 0.8619 0.61544 0.0
C747 C 0.03946 0.85914 0.61974 0.0
C748 C 0.0748 0.8732 0.59763 0.0
C749 C 0.0582 0.88206 0.58389 0.0
C750 C 0.03264 0.88102 0.58941 0.0
C751 C 0.02338 0.86967 0.6071 0.0
H752 H 0.20974 0.78894 0.77777 0.0
H753 H 0.22815 0.77093 0.70764 0.0
H754 H 0.16729 0.79361 0.76485 0.0
H755 H 0.18606 0.77648 0.69494 0.0
H756 H 0.11578 0.81047 0.6825 0.0
H757 H 0.15944 0.81054 0.69707 0.0
H758 H 0.12813 0.76309 0.74266 0.0
H759 H 0.0847 0.76286 0.72812 0.0
C760 C 0.2048 0.78595 0.75963 0.0
C761 C 0.22241 0.7794 0.74377 0.0
C762 C 0.18053 0.78878 0.75226 0.0
C763 C 0.17343 0.78544 0.7289 0.0
C764 C 0.19117 0.77952 0.71307 0.0
C765 C 0.21532 0.77639 0.72039 0.0
C766 C 0.11826 0.80024 0.69576 0.0
C767 C 0.09684 0.78657 0.7041 0.0
C768 C 0.14321 0.80019 0.704 0.0
C769 C 0.14713 0.78681 0.72097 0.0
C770 C 0.12568 0.77376 0.72973 0.0
C771 C 0.10082 0.77351 0.72129 0.0
H772 H 0.93386 0.65079 0.50771 0.0
H773 H 0.97614 0.60655 0.54009 0.0
H774 H 0.94837 0.68693 0.53918 0.0
H775 H 0.99212 0.64314 0.57117 0.0
H776 H 0.99423 0.7046 0.63481 0.0
H777 H 0.98026 0.66824 0.60332 0.0
H778 H 0.98281 0.71851 0.55634 0.0
H779 H 0.9952 0.7547 0.58802 0.0
C780 C 0.94673 0.64905 0.52144 0.0
C781 C 0.95401 0.62604 0.52152 0.0
C782 C 0.95519 0.66979 0.53947 0.0
C783 C 0.97157 0.66814 0.55782 0.0
C784 C 0.97917 0.64507 0.55761 0.0
C785 C 0.97024 0.62416 0.53975 0.0
C786 C 0.9917 0.70779 0.61772 0.0
C787 C 0.99559 0.73246 0.61388 0.0
C788 C 0.9839 0.68694 0.5996 0.0
C789 C 0.98031 0.69029 0.57715 0.0
C790 C 0.98473 0.71508 0.57337 0.0
C791 C 0.99199 0.73589 0.59154 0.0
H792 H 0.78573 0.83253 0.20142 0.0
H793 H 0.8213 0.82631 0.26539 0.0
H794 H 0.80175 0.87824 0.21111 0.0
H795 H 0.83641 0.87208 0.2753 0.0
H796 H 0.84655 0.95727 0.29234 0.0
H797 H 0.82079 0.91418 0.28282 0.0
H798 H 0.84838 0.90398 0.21561 0.0
H799 H 0.87435 0.94693 0.2251 0.0
C800 C 0.79677 0.84089 0.21762 0.0
C801 C 0.80255 0.82566 0.23248 0.0
C802 C 0.80578 0.86706 0.22318 0.0
C803 C 0.82036 0.87861 0.24388 0.0
C804 C 0.82496 0.86365 0.25931 0.0
C805 C 0.81625 0.83742 0.25363 0.0
C806 C 0.84671 0.94604 0.27536 0.0
C807 C 0.86265 0.95542 0.25952 0.0
C808 C 0.83208 0.92135 0.27 0.0
C809 C 0.83278 0.90577 0.24857 0.0
C810 C 0.8474 0.91567 0.23222 0.0
C811 C 0.86233 0.94022 0.23769 0.0
H812 H 0.84579 0.2076 0.29724 0.0
H813 H 0.79913 0.17755 0.34688 0.0
H814 H 0.86527 0.171 0.29139 0.0
H815 H 0.8209 0.14287 0.34321 0.0
H816 H 0.84205 0.06878 0.31648 0.0
H817 H 0.82262 0.10538 0.32064 0.0
H818 H 0.8935 0.14957 0.30416 0.0
H819 H 0.912 0.11193 0.29814 0.0
C820 C 0.83971 0.19335 0.30705 0.0
C821 C 0.82056 0.1957 0.32242 0.0
C822 C 0.85136 0.17246 0.30401 0.0
C823 C 0.8447 0.15361 0.31668 0.0
C824 C 0.8262 0.15646 0.3326 0.0
C825 C 0.81403 0.17689 0.33514 0.0
C826 C 0.8534 0.08635 0.3137 0.0
C827 C 0.8785 0.08761 0.30706 0.0
C828 C 0.84238 0.10752 0.31632 0.0
C829 C 0.85648 0.13084 0.31311 0.0
C830 C 0.88177 0.132 0.30647 0.0
C831 C 0.89252 0.1105 0.30316 0.0
H832 H 0.44701 0.02132 0.02082 0.0
H833 H 0.39375 0.02337 0.96543 0.0
H834 H 0.41567 0.98736 0.03111 0.0
H835 H 0.36317 0.9889 0.97504 0.0
H836 H 0.30217 0.95484 0.0162 0.0
H837 H 0.33606 0.98647 0.00651 0.0
H838 H 0.39204 0.94273 0.01863 0.0
H839 H 0.35795 0.91097 0.0288 0.0
C840 C 0.4288 0.0143 0.01066 0.0
C841 C 0.42284 0.02519 0.99239 0.0
C842 C 0.41095 0.99473 0.01644 0.0
C843 C 0.38681 0.98573 0.00409 0.0
C844 C 0.38141 0.99577 0.98517 0.0
C845 C 0.39915 0.0153 0.97943 0.0
C846 C 0.32169 0.95193 0.01694 0.0
C847 C 0.3273 0.93024 0.02312 0.0
C848 C 0.34111 0.97001 0.0112 0.0
C849 C 0.36666 0.96688 0.0114 0.0
C850 C 0.37252 0.94565 0.01832 0.0
C851 C 0.353 0.92747 0.02412 0.0
H852 H 0.25811 0.38729 0.34717 0.0
H853 H 0.29544 0.42626 0.29803 0.0
H854 H 0.21739 0.39824 0.33654 0.0
H855 H 0.25494 0.43688 0.28714 0.0
H856 H 0.17605 0.44396 0.26464 0.0
H857 H 0.20824 0.4192 0.27038 0.0
H858 H 0.2068 0.44243 0.34329 0.0
H859 H 0.17499 0.46731 0.33761 0.0
C860 C 0.25736 0.3976 0.33369 0.0
C861 C 0.27974 0.40607 0.32343 0.0
C862 C 0.23418 0.40392 0.32767 0.0
C863 C 0.23303 0.4184 0.31101 0.0
C864 C 0.25515 0.42546 0.29982 0.0
C865 C 0.27834 0.41953 0.30611 0.0
C866 C 0.18213 0.44323 0.28187 0.0
C867 C 0.17322 0.45776 0.30069 0.0
C868 C 0.20061 0.42916 0.28514 0.0
C869 C 0.21009 0.429 0.30727 0.0
C870 C 0.19971 0.44201 0.32604 0.0
C871 C 0.18161 0.45639 0.32278 0.0
H872 H 0.13993 0.00658 0.49121 0.0
H873 H 0.14592 0.99481 0.41855 0.0
H874 H 0.18001 0.03883 0.49739 0.0
H875 H 0.18554 0.02703 0.42456 0.0
H876 H 0.26608 0.07523 0.44435 0.0
H877 H 0.23079 0.03846 0.44052 0.0
H878 H 0.19044 0.082 0.48921 0.0
H879 H 0.22564 0.11859 0.49325 0.0
C880 C 0.15011 0.01058 0.47665 0.0
C881 C 0.13985 0.99849 0.45443 0.0
C882 C 0.17285 0.02913 0.48012 0.0
C883 C 0.18575 0.0356 0.46142 0.0
C884 C 0.17616 0.02237 0.4393 0.0
C885 C 0.15342 0.00406 0.43585 0.0
C886 C 0.24967 0.07696 0.45421 0.0
C887 C 0.24863 0.09991 0.46899 0.0
C888 C 0.2295 0.0559 0.45204 0.0
C889 C 0.20795 0.05732 0.4647 0.0
C890 C 0.20699 0.0802 0.47955 0.0
C891 C 0.22706 0.10126 0.48163 0.0
H892 H 0.76707 0.21024 0.75061 0.0
H893 H 0.81616 0.15897 0.72519 0.0
H894 H 0.73149 0.17436 0.74898 0.0
H895 H 0.78066 0.12309 0.72427 0.0
H896 H 0.72411 0.0727 0.76279 0.0
H897 H 0.75811 0.10708 0.75698 0.0
H898 H 0.7026 0.13643 0.7218 0.0
H899 H 0.66846 0.10194 0.72747 0.0
C900 C 0.77015 0.19138 0.74416 0.0
C901 C 0.79458 0.1875 0.73823 0.0
C902 C 0.74976 0.17083 0.74333 0.0
C903 C 0.75345 0.14599 0.73676 0.0
C904 C 0.77745 0.14207 0.72974 0.0
C905 C 0.79775 0.16261 0.73032 0.0
C906 C 0.71915 0.08639 0.75372 0.0
C907 C 0.69358 0.08465 0.74568 0.0
C908 C 0.73864 0.10595 0.75024 0.0
C909 C 0.73295 0.12434 0.73889 0.0
C910 C 0.70745 0.12252 0.73067 0.0
C911 C 0.68798 0.10275 0.73387 0.0
H912 H 0.43003 0.01457 0.49975 0.0
H913 H 0.43365 0.05313 0.5703 0.0
H914 H 0.41434 0.04862 0.48801 0.0
H915 H 0.41985 0.0884 0.55841 0.0
H916 H 0.35867 0.12577 0.52954 0.0
H917 H 0.38237 0.09828 0.54438 0.0
H918 H 0.42305 0.09002 0.48321 0.0
H919 H 0.39812 0.11633 0.46792 0.0
C920 C 0.42767 0.03043 0.5128 0.0
C921 C 0.43272 0.03082 0.53602 0.0
C922 C 0.41912 0.05032 0.50601 0.0
C923 C 0.41578 0.07145 0.52222 0.0
C924 C 0.42181 0.07232 0.54543 0.0
C925 C 0.43006 0.0522 0.55225 0.0
C926 C 0.37305 0.11847 0.51949 0.0
C927 C 0.37632 0.1229 0.49746 0.0
C928 C 0.38676 0.10272 0.52802 0.0
C929 C 0.40436 0.09142 0.51484 0.0
C930 C 0.40909 0.09767 0.49356 0.0
C931 C 0.395 0.11298 0.48486 0.0
H932 H 0.61058 0.5047 0.61553 0.0
H933 H 0.60983 0.52056 0.54793 0.0
H934 H 0.63156 0.46984 0.60242 0.0
H935 H 0.63282 0.48718 0.53535 0.0
H936 H 0.65872 0.41523 0.51184 0.0
H937 H 0.6308 0.444 0.52559 0.0
H938 H 0.67131 0.4615 0.59256 0.0
H939 H 0.69817 0.43156 0.57896 0.0
C940 C 0.61472 0.50072 0.59782 0.0
C941 C 0.60839 0.51557 0.58282 0.0
C942 C 0.62721 0.48089 0.59037 0.0
C943 C 0.6341 0.47558 0.5678 0.0
C944 C 0.62753 0.4903 0.55276 0.0
C945 C 0.61469 0.50985 0.56011 0.0
C946 C 0.66132 0.42492 0.5296 0.0
C947 C 0.68066 0.42122 0.54431 0.0
C948 C 0.64548 0.44166 0.53746 0.0
C949 C 0.64897 0.45555 0.56014 0.0
C950 C 0.66775 0.45102 0.57507 0.0
C951 C 0.68326 0.43388 0.56728 0.0
H952 H 0.73539 0.25377 0.35625 0.0
H953 H 0.81018 0.25967 0.38977 0.0
H954 H 0.72 0.27057 0.39281 0.0
H955 H 0.79528 0.27714 0.42608 0.0
H956 H 0.76241 0.29616 0.4917 0.0
H957 H 0.76899 0.2696 0.45572 0.0
H958 H 0.72483 0.30932 0.41939 0.0
H959 H 0.71733 0.33498 0.45536 0.0
C960 C 0.74853 0.25874 0.37147 0.0
C961 C 0.77398 0.25545 0.3702 0.0
C962 C 0.73975 0.26838 0.39241 0.0
C963 C 0.75633 0.27519 0.41251 0.0
C964 C 0.78172 0.27157 0.41115 0.0
C965 C 0.79038 0.26171 0.39029 0.0
C966 C 0.75354 0.29874 0.47605 0.0
C967 C 0.73961 0.31789 0.47638 0.0
C968 C 0.75754 0.2837 0.45538 0.0
C969 C 0.74801 0.2877 0.43454 0.0
C970 C 0.73241 0.30556 0.43503 0.0
C971 C 0.72812 0.32037 0.45573 0.0
H972 H 0.498 0.10473 0.87271 0.0
H973 H 0.49594 0.0356 0.8965 0.0
H974 H 0.52928 0.09357 0.84611 0.0
H975 H 0.52766 0.0246 0.86995 0.0
H976 H 0.60412 0.02894 0.83332 0.0
H977 H 0.57376 0.03898 0.86161 0.0
H978 H 0.52812 0.06079 0.81108 0.0
H979 H 0.55826 0.05104 0.78299 0.0
C980 C 0.50413 0.08709 0.8722 0.0
C981 C 0.49422 0.07092 0.88655 0.0
C982 C 0.5221 0.08072 0.85698 0.0
C983 C 0.53072 0.05809 0.85579 0.0
C984 C 0.52147 0.04224 0.8706 0.0
C985 C 0.50334 0.04857 0.88581 0.0
C986 C 0.58755 0.03578 0.82824 0.0
C987 C 0.58375 0.03933 0.8059 0.0
C988 C 0.57013 0.04143 0.84442 0.0
C989 C 0.54872 0.0509 0.8386 0.0
C990 C 0.54469 0.05395 0.81618 0.0
C991 C 0.56193 0.0482 0.80004 0.0
H992 H 0.33652 0.26273 0.33626 0.0
H993 H 0.34523 0.32697 0.39261 0.0
H994 H 0.32977 0.23432 0.36274 0.0
H995 H 0.33843 0.29854 0.41911 0.0
H996 H 0.30021 0.23781 0.45679 0.0
H997 H 0.3058 0.26656 0.43057 0.0
H998 H 0.35457 0.22254 0.39228 0.0
H999 H 0.34867 0.19354 0.41823 0.0
C1000 C 0.33704 0.27079 0.35432 0.0
C1001 C 0.34149 0.29713 0.36232 0.0
C1002 C 0.33323 0.25451 0.3695 0.0
C1003 C 0.33374 0.26415 0.39307 0.0
C1004 C 0.33765 0.29047 0.40104 0.0
C1005 C 0.34149 0.30677 0.38584 0.0
C1006 C 0.31219 0.23428 0.44282 0.0
C1007 C 0.32394 0.2133 0.43961 0.0
C1008 C 0.31547 0.25084 0.42784 0.0
C1009 C 0.33053 0.2468 0.40926 0.0
C1010 C 0.3425 0.22598 0.4062 0.0
C1011 C 0.33927 0.20945 0.42119 0.0
H1012 H 0.52239 0.45313 0.91139 0.0
H1013 H 0.56426 0.52948 0.93978 0.0
H1014 H 0.49339 0.46972 0.88887 0.0
H1015 H 0.53616 0.5456 0.91596 0.0
H1016 H 0.50333 0.54249 0.8371 0.0
H1017 H 0.52958 0.53205 0.86676 0.0
H1018 H 0.46113 0.5062 0.89886 0.0
H1019 H 0.43483 0.51736 0.8697 0.0
C1020 C 0.52526 0.47341 0.91317 0.0
C1021 C 0.54594 0.48989 0.92731 0.0
C1022 C 0.50871 0.48284 0.90015 0.0
C1023 C 0.51277 0.50884 0.90071 0.0
C1024 C 0.53285 0.52544 0.91522 0.0
C1025 C 0.54904 0.51611 0.92864 0.0
C1026 C 0.49396 0.53514 0.85079 0.0
C1027 C 0.46707 0.53076 0.85113 0.0
C1028 C 0.50894 0.52922 0.86771 0.0
C1029 C 0.49722 0.51828 0.88489 0.0
C1030 C 0.47048 0.51464 0.88571 0.0
C1031 C 0.45553 0.52116 0.86913 0.0
H1032 H 0.81145 0.71751 0.17787 0.0
H1033 H 0.77783 0.77563 0.15766 0.0
H1034 H 0.81443 0.69894 0.13779 0.0
H1035 H 0.78205 0.75798 0.11793 0.0
H1036 H 0.76559 0.70454 0.04897 0.0
H1037 H 0.76307 0.722 0.08905 0.0
H1038 H 0.83743 0.70654 0.10484 0.0
H1039 H 0.83959 0.68823 0.06452 0.0
C1040 C 0.80469 0.72631 0.1649 0.0
C1041 C 0.79441 0.74806 0.17098 0.0
C1042 C 0.80672 0.71587 0.14196 0.0
C1043 C 0.79849 0.72697 0.12463 0.0
C1044 C 0.78827 0.74873 0.13078 0.0
C1045 C 0.78614 0.75906 0.15362 0.0
C1046 C 0.78148 0.70492 0.06094 0.0
C1047 C 0.80285 0.69509 0.05355 0.0
C1048 C 0.78008 0.71505 0.08395 0.0
C1049 C 0.8001 0.7158 0.10018 0.0
C1050 C 0.82154 0.706 0.09281 0.0
C1051 C 0.82288 0.69569 0.06971 0.0
H1052 H 0.03417 0.07174 0.11999 0.0
H1053 H 0.08533 0.03429 0.15129 0.0
H1054 H 0.00426 0.06552 0.14947 0.0
H1055 H 0.05574 0.02814 0.18046 0.0
H1056 H 0.9701 0.06692 0.22109 0.0
H1057 H 0.99919 0.07701 0.19193 0.0
H1058 H 0.01306 0.00122 0.18 0.0
H1059 H 0.9846 0.9913 0.20895 0.0
C1060 C 0.03913 0.06242 0.13326 0.0
C1061 C 0.06185 0.05305 0.13306 0.0
C1062 C 0.02205 0.05891 0.15013 0.0
C1063 C 0.02746 0.04597 0.16706 0.0
C1064 C 0.0507 0.03761 0.16733 0.0
C1065 C 0.06765 0.0411 0.15058 0.0
C1066 C 0.97932 0.05244 0.21214 0.0
C1067 C 0.97521 0.02838 0.21749 0.0
C1068 C 0.99588 0.05819 0.19541 0.0
C1069 C 0.00868 0.04001 0.18389 0.0
C1070 C 0.00394 0.01582 0.18889 0.0
C1071 C 0.98747 0.0101 0.20545 0.0
H1072 H 0.28863 0.76095 0.17921 0.0
H1073 H 0.31334 0.83961 0.21303 0.0
H1074 H 0.28409 0.77354 0.14278 0.0
H1075 H 0.30768 0.85199 0.17679 0.0
H1076 H 0.26479 0.86271 0.11194 0.0
H1077 H 0.26925 0.84902 0.14795 0.0
H1078 H 0.31382 0.79602 0.11663 0.0
H1079 H 0.30969 0.80984 0.08075 0.0
C1080 C 0.29331 0.78087 0.17893 0.0
C1081 C 0.30124 0.79922 0.1992 0.0
C1082 C 0.29053 0.78806 0.15806 0.0
C1083 C 0.29528 0.81374 0.15704 0.0
C1084 C 0.30344 0.83207 0.17716 0.0
C1085 C 0.3066 0.82492 0.19794 0.0
C1086 C 0.27545 0.84807 0.11272 0.0
C1087 C 0.28695 0.83741 0.09354 0.0
C1088 C 0.2781 0.84034 0.13334 0.0
C1089 C 0.29192 0.8215 0.13505 0.0
C1090 C 0.30295 0.81047 0.11574 0.0
C1091 C 0.30067 0.81848 0.09525 0.0
H1092 H 0.00287 0.46313 0.0823 0.0
H1093 H 0.96419 0.51739 0.12107 0.0
H1094 H 0.03362 0.46886 0.11519 0.0
H1095 H 0.99469 0.52302 0.15384 0.0
H1096 H 0.06557 0.468 0.1885 0.0
H1097 H 0.03657 0.46097 0.15408 0.0
H1098 H 0.03958 0.54127 0.16514 0.0
H1099 H 0.06782 0.54818 0.19948 0.0
C1100 C 0.00086 0.47616 0.09788 0.0
C1101 C 0.98122 0.48996 0.09906 0.0
C1102 C 0.01843 0.47941 0.11671 0.0
C1103 C 0.01671 0.49651 0.13707 0.0
C1104 C 0.9969 0.51008 0.13826 0.0
C1105 C 0.97941 0.50688 0.11948 0.0
C1106 C 0.06013 0.4841 0.18344 0.0
C1107 C 0.06876 0.50859 0.19682 0.0
C1108 C 0.04361 0.48011 0.16371 0.0
C1109 C 0.03552 0.50054 0.15705 0.0
C1110 C 0.04495 0.52506 0.17007 0.0
C1111 C 0.06128 0.52902 0.18971 0.0
H1112 H 0.37704 0.6777 0.25291 0.0
H1113 H 0.3862 0.75624 0.2866 0.0
H1114 H 0.4178 0.67627 0.27219 0.0
H1115 H 0.42727 0.75493 0.30494 0.0
H1116 H 0.50809 0.75002 0.32341 0.0
H1117 H 0.47226 0.74797 0.29622 0.0
H1118 H 0.43133 0.68026 0.31489 0.0
H1119 H 0.46716 0.68228 0.34238 0.0
C1120 C 0.38781 0.69473 0.2642 0.0
C1121 C 0.37811 0.71704 0.26834 0.0
C1122 C 0.41118 0.69388 0.27514 0.0
C1123 C 0.42561 0.71545 0.29007 0.0
C1124 C 0.41666 0.73808 0.29329 0.0
C1125 C 0.39313 0.73884 0.28265 0.0
C1126 C 0.49171 0.73437 0.32148 0.0
C1127 C 0.49037 0.71649 0.33535 0.0
C1128 C 0.47116 0.73331 0.30593 0.0
C1129 C 0.44895 0.71416 0.30366 0.0
C1130 C 0.4483 0.6952 0.31626 0.0
C1131 C 0.46879 0.6964 0.33204 0.0
H1132 H 0.97913 0.40645 0.00116 0.0
H1133 H 0.92041 0.34087 0.00396 0.0
H1134 H 0.00783 0.37915 0.9864 0.0
H1135 H 0.94823 0.31355 0.98721 0.0
H1136 H 0.00655 0.26728 0.96923 0.0
H1137 H 0.98456 0.29708 0.992 0.0
H1138 H 0.0137 0.35265 0.95262 0.0
H1139 H 0.03675 0.32333 0.93088 0.0
C1140 C 0.97232 0.38622 0.99879 0.0
C1141 C 0.94732 0.37595 0.00378 0.0
C1142 C 0.98872 0.37049 0.98993 0.0
C1143 C 0.98042 0.34405 0.98541 0.0
C1144 C 0.95556 0.33379 0.99074 0.0
C1145 C 0.93933 0.34952 -3e-05 0.0
C1146 C 0.00863 0.28608 0.9658 0.0
C1147 C 0.02324 0.29295 0.94821 0.0
C1148 C 0.99582 0.3031 0.97869 0.0
C1149 C 0.9969 0.32721 0.97395 0.0
C1150 C 0.01257 0.33443 0.95703 0.0
C1151 C 0.02578 0.31756 0.94445 0.0
H1152 H 0.70418 0.74606 0.27162 0.0
H1153 H 0.74569 0.72647 0.32633 0.0
H1154 H 0.67041 0.7541 0.29648 0.0
H1155 H 0.7115 0.73416 0.35114 0.0
H1156 H 0.62739 0.71881 0.3743 0.0
H1157 H 0.66548 0.71474 0.3536 0.0
H1158 H 0.66295 0.78372 0.33101 0.0
H1159 H 0.62482 0.7877 0.35144 0.0
C1160 C 0.70631 0.74381 0.28905 0.0
C1161 C 0.72772 0.73567 0.29696 0.0
C1162 C 0.6869 0.7484 0.3033 0.0
C1163 C 0.68834 0.74485 0.32581 0.0
C1164 C 0.70976 0.73683 0.33381 0.0
C1165 C 0.72929 0.73237 0.31957 0.0
C1166 C 0.63519 0.7333 0.3652 0.0
C1167 C 0.62294 0.75345 0.36435 0.0
C1168 C 0.65706 0.73101 0.3534 0.0
C1169 C 0.66702 0.74876 0.34046 0.0
C1170 C 0.65545 0.76951 0.34051 0.0
C1171 C 0.63369 0.77186 0.35234 0.0
H1172 H 0.09604 0.1014 0.0175 0.0
H1173 H 0.11239 0.18018 0.05205 0.0
H1174 H 0.08037 0.11299 0.98309 0.0
H1175 H 0.09819 0.19155 0.01736 0.0
H1176 H 0.09804 0.20432 0.9447 0.0
H1177 H 0.1147 0.18757 0.97556 0.0
H1178 H 0.04184 0.13582 0.97306 0.0
H1179 H 0.02484 0.15288 0.94241 0.0
C1180 C 0.09625 0.12111 0.0179 0.0
C1181 C 0.10575 0.13983 0.03768 0.0
C1182 C 0.08746 0.12771 0.9981 0.0
C1183 C 0.08846 0.15316 0.99754 0.0
C1184 C 0.09772 0.17182 0.01723 0.0
C1185 C 0.10599 0.16524 0.03709 0.0
C1186 C 0.08571 0.18901 0.95037 0.0
C1187 C 0.06007 0.18003 0.94122 0.0
C1188 C 0.09522 0.17955 0.96811 0.0
C1189 C 0.07945 0.1606 0.97676 0.0
C1190 C 0.05437 0.15041 0.96663 0.0
C1191 C 0.04467 0.1602 0.94914 0.0
H1192 H 0.41732 0.31376 0.32079 0.0
H1193 H 0.36699 0.32925 0.26982 0.0
H1194 H 0.44887 0.30776 0.29296 0.0
H1195 H 0.39816 0.32251 0.24166 0.0
H1196 H 0.46987 0.33276 0.20253 0.0
H1197 H 0.43926 0.34038 0.23101 0.0
H1198 H 0.45622 0.27935 0.26008 0.0
H1199 H 0.48738 0.27243 0.23229 0.0
C1200 C 0.41289 0.31552 0.30351 0.0
C1201 C 0.38969 0.32186 0.29743 0.0
C1202 C 0.43094 0.31206 0.28752 0.0
C1203 C 0.4261 0.31459 0.26499 0.0
C1204 C 0.40277 0.32083 0.25892 0.0
C1205 C 0.38483 0.32455 0.275 0.0
C1206 C 0.46713 0.32108 0.21509 0.0
C1207 C 0.48114 0.30205 0.21516 0.0
C1208 C 0.44944 0.32532 0.23133 0.0
C1209 C 0.4452 0.31047 0.24788 0.0
C1210 C 0.45927 0.29147 0.24789 0.0
C1211 C 0.47709 0.2874 0.23183 0.0
H1212 H 0.58681 0.36192 0.01002 0.0
H1213 H 0.55276 0.42645 0.03244 0.0
H1214 H 0.58465 0.35247 0.04792 0.0
H1215 H 0.55086 0.41718 0.07061 0.0
H1216 H 0.50977 0.35971 0.11336 0.0
H1217 H 0.52271 0.3816 0.083 0.0
H1218 H 0.59856 0.3657 0.08942 0.0
H1219 H 0.58551 0.34359 0.11995 0.0
C1220 C 0.57936 0.37439 0.02323 0.0
C1221 C 0.56967 0.39473 0.01823 0.0
C1222 C 0.57834 0.36913 0.04501 0.0
C1223 C 0.56743 0.38399 0.06223 0.0
C1224 C 0.55919 0.40528 0.05762 0.0
C1225 C 0.56043 0.41068 0.03584 0.0
C1226 C 0.52941 0.36139 0.10869 0.0
C1227 C 0.54653 0.34967 0.11886 0.0
C1228 C 0.53689 0.3741 0.09137 0.0
C1229 C 0.5616 0.3752 0.08366 0.0
C1230 C 0.5793 0.36493 0.09486 0.0
C1231 C 0.57188 0.35241 0.11242 0.0
H1232 H 0.743 0.31471 0.25163 0.0
H1233 H 0.71621 0.23604 0.25312 0.0
H1234 H 0.70031 0.3163 0.23632 0.0
H1235 H 0.67387 0.23727 0.23725 0.0
H1236 H 0.59449 0.25195 0.22943 0.0
H1237 H 0.63691 0.25333 0.24661 0.0
H1238 H 0.67109 0.30205 0.20291 0.0
H1239 H 0.62828 0.30144 0.18632 0.0
C1240 C 0.72798 0.29774 0.24855 0.0
C1241 C 0.73284 0.27529 0.25368 0.0
C1242 C 0.70356 0.29859 0.23969 0.0
C1243 C 0.68355 0.27694 0.23559 0.0
C1244 C 0.68859 0.25447 0.24065 0.0
C1245 C 0.71288 0.25371 0.2497 0.0
C1246 C 0.61105 0.26305 0.22353 0.0
C1247 C 0.60806 0.27647 0.20642 0.0
C1248 C 0.63543 0.26371 0.2333 0.0
C1249 C 0.65753 0.27755 0.22599 0.0
C1250 C 0.6545 0.29139 0.20913 0.0
C1251 C 0.62999 0.29095 0.19952 0.0
H1252 H 0.4408 0.10327 0.04289 0.0
H1253 H 0.5059 0.1305 0.00692 0.0
H1254 H 0.45507 0.13928 0.07456 0.0
H1255 H 0.51912 0.16734 0.03828 0.0
H1256 H 0.50748 0.24259 0.08731 0.0
H1257 H 0.49588 0.2054 0.05602 0.0
H1258 H 0.49745 0.15682 0.1038 0.0
H1259 H 0.50961 0.19396 0.13513 0.0
C1260 C 0.45832 0.11666 0.04176 0.0
C1261 C 0.47228 0.11373 0.02228 0.0
C1262 C 0.46632 0.1374 0.05988 0.0
C1263 C 0.48812 0.15597 0.05876 0.0
C1264 C 0.50211 0.15327 0.0394 0.0
C1265 C 0.49442 0.13224 0.02144 0.0
C1266 C 0.50535 0.22398 0.09114 0.0
C1267 C 0.50939 0.22115 0.11366 0.0
C1268 C 0.4989 0.20277 0.07324 0.0
C1269 C 0.49586 0.17838 0.0776 0.0
C1270 C 0.49967 0.17549 0.10009 0.0
C1271 C 0.50666 0.1967 0.11795 0.0
H1272 H 0.35616 0.3243 0.72977 0.0
H1273 H 0.28394 0.33655 0.75497 0.0
H1274 H 0.37403 0.36955 0.74007 0.0
H1275 H 0.30127 0.38223 0.76442 0.0
H1276 H 0.35105 0.46027 0.79882 0.0
H1277 H 0.33061 0.41556 0.78897 0.0
H1278 H 0.37153 0.40683 0.72798 0.0
H1279 H 0.39287 0.45123 0.7385 0.0
C1280 C 0.34415 0.33684 0.73753 0.0
C1281 C 0.31876 0.32712 0.74161 0.0
C1282 C 0.35422 0.36278 0.74319 0.0
C1283 C 0.33897 0.37968 0.75271 0.0
C1284 C 0.31364 0.36981 0.75727 0.0
C1285 C 0.30368 0.34371 0.75188 0.0
C1286 C 0.35542 0.44884 0.78316 0.0
C1287 C 0.37375 0.45918 0.76953 0.0
C1288 C 0.34364 0.42318 0.77747 0.0
C1289 C 0.3497 0.40741 0.75786 0.0
C1290 C 0.36697 0.41819 0.74359 0.0
C1291 C 0.37903 0.44372 0.74947 0.0
H1292 H 0.28555 0.67859 0.8376 0.0
H1293 H 0.33354 0.70699 0.78804 0.0
H1294 H 0.30819 0.64469 0.83634 0.0
H1295 H 0.35429 0.67124 0.78482 0.0
H1296 H 0.40414 0.61701 0.79972 0.0
H1297 H 0.38328 0.65284 0.80143 0.0
H1298 H 0.31224 0.60674 0.81539 0.0
H1299 H 0.33377 0.57197 0.81537 0.0
C1300 C 0.3009 0.67766 0.82635 0.0
C1301 C 0.30768 0.69584 0.81303 0.0
C1302 C 0.31361 0.65773 0.82524 0.0
C1303 C 0.33302 0.65481 0.81026 0.0
C1304 C 0.33971 0.67287 0.79679 0.0
C1305 C 0.3274 0.69323 0.79832 0.0
C1306 C 0.38408 0.61472 0.80319 0.0
C1307 C 0.37061 0.59188 0.80765 0.0
C1308 C 0.372 0.63518 0.80402 0.0
C1309 C 0.34599 0.63297 0.80876 0.0
C1310 C 0.33245 0.60965 0.81243 0.0
C1311 C 0.34471 0.58953 0.81221 0.0
H1312 H 0.9276 0.52772 0.51534 0.0
H1313 H 0.86607 0.54729 0.47861 0.0
H1314 H 0.89739 0.49159 0.52365 0.0
H1315 H 0.83558 0.51252 0.48794 0.0
H1316 H 0.79018 0.43548 0.4872 0.0
H1317 H 0.8225 0.46922 0.47867 0.0
H1318 H 0.86296 0.47843 0.5447 0.0
H1319 H 0.83116 0.44326 0.55251 0.0
C1320 C 0.90753 0.52428 0.50922 0.0
C1321 C 0.89908 0.53989 0.49611 0.0
C1322 C 0.89017 0.50377 0.51409 0.0
C1323 C 0.86397 0.49886 0.50631 0.0
C1324 C 0.85564 0.51509 0.49366 0.0
C1325 C 0.87304 0.53515 0.48841 0.0
C1326 C 0.80601 0.4447 0.49988 0.0
C1327 C 0.80807 0.43693 0.52059 0.0
C1328 C 0.82451 0.46422 0.49507 0.0
C1329 C 0.84524 0.47698 0.51112 0.0
C1330 C 0.84746 0.46894 0.5318 0.0
C1331 C 0.82917 0.44891 0.53638 0.0
H1332 H 0.76047 0.88387 0.8244 0.0
H1333 H 0.81163 0.95692 0.84593 0.0
H1334 H 0.72929 0.9035 0.80731 0.0
H1335 H 0.78085 0.97641 0.82876 0.0
H1336 H 0.70838 0.00676 0.8281 0.0
H1337 H 0.73913 0.9841 0.84022 0.0
H1338 H 0.7201 0.92761 0.77757 0.0
H1339 H 0.68868 0.95038 0.76537 0.0
C1340 C 0.76526 0.90401 0.82502 0.0
C1341 C 0.78827 0.91896 0.83678 0.0
C1342 C 0.74743 0.91524 0.81527 0.0
C1343 C 0.75239 0.94158 0.8171 0.0
C1344 C 0.77616 0.95617 0.82759 0.0
C1345 C 0.79383 0.94501 0.83736 0.0
C1346 C 0.71059 0.98947 0.81686 0.0
C1347 C 0.69618 0.98049 0.79568 0.0
C1348 C 0.72841 0.97656 0.82376 0.0
C1349 C 0.73242 0.9543 0.80968 0.0
C1350 C 0.71746 0.94475 0.78877 0.0
C1351 C 0.69951 0.95778 0.78179 0.0
H1352 H 0.63757 0.49627 0.91836 0.0
H1353 H 0.6433 0.49873 0.99069 0.0
H1354 H 0.67983 0.5244 0.92204 0.0
H1355 H 0.68587 0.52668 0.99439 0.0
H1356 H 0.73459 0.60623 0.9942 0.0
H1357 H 0.69757 0.57161 0.99063 0.0
H1358 H 0.72708 0.53021 0.93216 0.0
H1359 H 0.76445 0.56513 0.93564 0.0
C1360 C 0.64815 0.50251 0.93498 0.0
C1361 C 0.63713 0.49566 0.95431 0.0
C1362 C 0.67239 0.51843 0.93705 0.0
C1363 C 0.686 0.52794 0.95853 0.0
C1364 C 0.67562 0.51986 0.97766 0.0
C1365 C 0.65141 0.50375 0.97555 0.0
C1366 C 0.7333 0.58978 0.98055 0.0
C1367 C 0.75243 0.58854 0.96509 0.0
C1368 C 0.71219 0.5698 0.9787 0.0
C1369 C 0.70955 0.54812 0.96125 0.0
C1370 C 0.72865 0.54674 0.94577 0.0
C1371 C 0.74999 0.56672 0.94775 0.0
H1372 H 0.29815 0.67427 0.29 0.0
H1373 H 0.26709 0.66988 0.22157 0.0
H1374 H 0.26359 0.63959 0.29401 0.0
H1375 H 0.23298 0.63436 0.22504 0.0
H1376 H 0.16041 0.5899 0.24691 0.0
H1377 H 0.19505 0.62437 0.24298 0.0
H1378 H 0.24759 0.59582 0.28252 0.0
H1379 H 0.21249 0.56196 0.28733 0.0
C1380 C 0.28405 0.66557 0.2757 0.0
C1381 C 0.28525 0.67463 0.25546 0.0
C1382 C 0.2643 0.64561 0.27792 0.0
C1383 C 0.24545 0.63403 0.25983 0.0
C1384 C 0.24686 0.64306 0.23948 0.0
C1385 C 0.26644 0.6633 0.2374 0.0
C1386 C 0.17936 0.59099 0.25478 0.0
C1387 C 0.1837 0.57324 0.26748 0.0
C1388 C 0.19932 0.61068 0.25238 0.0
C1389 C 0.22423 0.61292 0.26234 0.0
C1390 C 0.22859 0.595 0.27492 0.0
C1391 C 0.2085 0.57549 0.27761 0.0
H1392 H 0.88775 0.51285 0.05352 0.0
H1393 H 0.96601 0.54418 0.04232 0.0
H1394 H 0.87335 0.54698 0.03971 0.0
H1395 H 0.95152 0.57819 0.02798 0.0
H1396 H 0.899 0.59973 0.97029 0.0
H1397 H 0.92089 0.57507 0.99108 0.0
H1398 H 0.87998 0.59663 0.05004 0.0
H1399 H 0.85837 0.62166 0.02948 0.0
C1400 C 0.90185 0.52726 0.04832 0.0
C1401 C 0.92791 0.52601 0.04891 0.0
C1402 C 0.89368 0.54682 0.04057 0.0
C1403 C 0.91138 0.5652 0.03287 0.0
C1404 C 0.93756 0.56424 0.03387 0.0
C1405 C 0.94582 0.54492 0.0421 0.0
C1406 C 0.89517 0.59973 0.98788 0.0
C1407 C 0.87682 0.61244 0.99819 0.0
C1408 C 0.90777 0.58571 -0.00022 0.0
C1409 C 0.90192 0.58385 0.02205 0.0
C1410 C 0.88468 0.5977 0.03282 0.0
C1411 C 0.87243 0.61209 0.02107 0.0
H1412 H 0.12166 0.00246 0.11356 0.0
H1413 H 0.12651 0.02185 0.04738 0.0
H1414 H 0.14361 0.9683 0.1009 0.0
H1415 H 0.15063 0.98928 0.03545 0.0
H1416 H 0.17781 0.918 0.01171 0.0
H1417 H 0.14933 0.94652 0.02436 0.0
H1418 H 0.18384 0.9602 0.09335 0.0
H1419 H 0.21112 0.93034 0.08071 0.0
C1420 C 0.12725 -0.00058 0.09624 0.0
C1421 C 0.12211 0.01503 0.0815 0.0
C1422 C 0.14034 0.98001 0.08909 0.0
C1423 C 0.14913 0.9759 0.06713 0.0
C1424 C 0.14386 0.99143 0.05236 0.0
C1425 C 0.13036 0.01054 0.05936 0.0
C1426 C 0.17896 0.92682 0.02964 0.0
C1427 C 0.19669 0.92202 0.04523 0.0
C1428 C 0.16283 0.94343 0.0369 0.0
C1429 C 0.16444 0.95616 0.05987 0.0
C1430 C 0.18169 0.95062 0.07559 0.0
C1431 C 0.19745 0.93354 0.06837 0.0
loop_
_geom_bond_atom_site_label_1
_geom_bond_atom_site_label_2
_geom_bond_distance
_geom_bond_site_symmetry_2
_ccdc_geom_bond_type
H0 C1 0.949 . S
C1 H0 0.949 . S
C1 C2 1.395 . S
C1 C3 1.391 . S
C2 C1 1.395 . S
C2 C5 1.390 . S
C3 C1 1.391 . S
C3 C7 1.387 . S
C3 C8 1.491 . S
H4 C5 0.950 . S
C5 C2 1.390 . S
C5 H4 0.950 . S
C5 C6 1.378 . S
C6 C5 1.378 . S
C6 C7 1.409 . S
C7 C3 1.387 . S
C7 C6 1.409 . S
C7 H9 0.951 . S
C8 C3 1.491 . S
C8 C10 1.382 . S
C8 C12 1.404 . S
H9 C7 0.951 . S
C10 C8 1.382 . S
C10 C11 1.390 . S
C10 H15 0.949 . S
C11 C10 1.390 . S
C11 C16 1.399 . S
C12 C8 1.404 . S
C12 H13 0.950 . S
C12 C14 1.375 . S
H13 C12 0.950 . S
C14 C12 1.375 . S
C14 C16 1.382 . S
C14 H18 0.950 . S
H15 C10 0.949 . S
C16 C11 1.399 . S
C16 C14 1.382 . S
C16 H17 0.952 . S
H17 C16 0.952 . S
H18 C14 0.950 . S
H19 C20 0.949 . S
C20 H19 0.949 . S
C20 C21 1.395 . S
C20 C22 1.391 . S
C21 C20 1.395 . S
C21 C24 1.390 . S
C22 C20 1.391 . S
C22 C26 1.387 . S
C22 C27 1.491 . S
H23 C24 0.950 . S
C24 C21 1.390 . S
C24 H23 0.950 . S
C24 C25 1.378 . S
C25 C24 1.378 . S
C25 C26 1.409 . S
C26 C22 1.387 . S
C26 C25 1.409 . S
C26 H28 0.951 . S
C27 C22 1.491 . S
C27 C29 1.382 . S
C27 C31 1.404 . S
H28 C26 0.951 . S
C29 C27 1.382 . S
C29 C30 1.390 . S
C29 H34 0.949 . S
C30 C29 1.390 . S
C30 C35 1.399 . S
C31 C27 1.404 . S
C31 H32 0.950 . S
C31 C33 1.375 . S
H32 C31 0.950 . S
C33 C31 1.375 . S
C33 C35 1.382 . S
C33 H37 0.950 . S
H34 C29 0.949 . S
C35 C30 1.399 . S
C35 C33 1.382 . S
C35 H36 0.952 . S
H36 C35 0.952 . S
H37 C33 0.950 . S
H38 C39 0.949 . S
C39 H38 0.949 . S
C39 C40 1.395 . S
C39 C41 1.391 . S
C40 C39 1.395 . S
C40 C43 1.390 . S
C41 C39 1.391 . S
C41 C45 1.387 . S
C41 C46 1.491 . S
H42 C43 0.950 . S
C43 C40 1.390 . S
C43 H42 0.950 . S
C43 C44 1.378 . S
C44 C43 1.378 . S
C44 C45 1.409 . S
C45 C41 1.387 . S
C45 C44 1.409 . S
C45 H47 0.951 . S
C46 C41 1.491 . S
C46 C48 1.382 . S
C46 C50 1.404 1_554 S
H47 C45 0.951 . S
C48 C46 1.382 . S
C48 C49 1.390 1_554 S
C48 H53 0.949 . S
C49 C48 1.390 1_556 S
C49 C54 1.399 . S
C50 C46 1.404 1_556 S
C50 H51 0.950 . S
C50 C52 1.375 . S
H51 C50 0.950 . S
C52 C50 1.375 . S
C52 C54 1.382 . S
C52 H56 0.950 . S
H53 C48 0.949 . S
C54 C49 1.399 . S
C54 C52 1.382 . S
C54 H55 0.952 . S
H55 C54 0.952 . S
H56 C52 0.950 . S
H57 C58 0.949 . S
C58 H57 0.949 . S
C58 C59 1.395 . S
C58 C60 1.391 . S
C59 C58 1.395 . S
C59 C62 1.390 . S
C60 C58 1.391 . S
C60 C64 1.387 . S
C60 C65 1.491 . S
H61 C62 0.950 . S
C62 C59 1.390 . S
C62 H61 0.950 . S
C62 C63 1.378 . S
C63 C62 1.378 . S
C63 C64 1.409 . S
C64 C60 1.387 . S
C64 C63 1.409 . S
C64 H66 0.951 . S
C65 C60 1.491 . S
C65 C67 1.382 . S
C65 C69 1.404 . S
H66 C64 0.951 . S
C67 C65 1.382 . S
C67 C68 1.390 . S
C67 H72 0.949 . S
C68 C67 1.390 . S
C68 C73 1.399 . S
C69 C65 1.404 . S
C69 H70 0.950 . S
C69 C71 1.375 . S
H70 C69 0.950 . S
C71 C69 1.375 . S
C71 C73 1.382 . S
C71 H75 0.950 . S
H72 C67 0.949 . S
C73 C68 1.399 . S
C73 C71 1.382 . S
C73 H74 0.952 . S
H74 C73 0.952 . S
H75 C71 0.950 . S
H76 C77 0.949 . S
C77 H76 0.949 . S
C77 C78 1.395 . S
C77 C79 1.391 . S
C78 C77 1.395 . S
C78 C81 1.390 . S
C79 C77 1.391 . S
C79 C83 1.387 . S
C79 C84 1.491 . S
H80 C81 0.950 . S
C81 C78 1.390 . S
C81 H80 0.950 . S
C81 C82 1.378 . S
C82 C81 1.378 . S
C82 C83 1.409 . S
C83 C79 1.387 . S
C83 C82 1.409 . S
C83 H85 0.951 . S
C84 C79 1.491 . S
C84 C86 1.382 . S
C84 C88 1.404 . S
H85 C83 0.951 . S
C86 C84 1.382 . S
C86 C87 1.390 . S
C86 H91 0.949 . S
C87 C86 1.390 . S
C87 C92 1.399 . S
C88 C84 1.404 . S
C88 H89 0.950 . S
C88 C90 1.375 . S
H89 C88 0.950 . S
C90 C88 1.375 . S
C90 C92 1.382 . S
C90 H94 0.950 . S
H91 C86 0.949 . S
C92 C87 1.399 . S
C92 C90 1.382 . S
C92 H93 0.952 . S
H93 C92 0.952 . S
H94 C90 0.950 . S
H95 C96 0.949 . S
C96 H95 0.949 . S
C96 C97 1.395 . S
C96 C98 1.391 . S
C97 C96 1.395 . S
C97 C100 1.390 . S
C98 C96 1.391 . S
C98 C102 1.387 . S
C98 C103 1.491 . S
H99 C100 0.950 . S
C100 C97 1.390 . S
C100 H99 0.950 . S
C100 C101 1.378 . S
C101 C100 1.378 . S
C101 C102 1.409 . S
C102 C98 1.387 . S
C102 C101 1.409 . S
C102 H104 0.951 . S
C103 C98 1.491 . S
C103 C105 1.382 . S
C103 C107 1.404 . S
H104 C102 0.951 . S
C105 C103 1.382 . S
C105 C106 1.390 . S
C105 H110 0.949 . S
C106 C105 1.390 . S
C106 C111 1.399 . S
C107 C103 1.404 . S
C107 H108 0.950 . S
C107 C109 1.375 . S
H108 C107 0.950 . S
C109 C107 1.375 . S
C109 C111 1.382 . S
C109 H113 0.950 . S
H110 C105 0.949 . S
C111 C106 1.399 . S
C111 C109 1.382 . S
C111 H112 0.952 . S
H112 C111 0.952 . S
H113 C109 0.950 . S
H114 C115 0.949 . S
C115 H114 0.949 . S
C115 C116 1.395 . S
C115 C117 1.391 . S
C116 C115 1.395 . S
C116 C119 1.390 . S
C117 C115 1.391 . S
C117 C121 1.387 . S
C117 C122 1.491 . S
H118 C119 0.950 . S
C119 C116 1.390 . S
C119 H118 0.950 . S
C119 C120 1.378 . S
C120 C119 1.378 . S
C120 C121 1.409 . S
C121 C117 1.387 . S
C121 C120 1.409 . S
C121 H123 0.951 . S
C122 C117 1.491 . S
C122 C124 1.382 . S
C122 C126 1.404 . S
H123 C121 0.951 . S
C124 C122 1.382 . S
C124 C125 1.390 . S
C124 H129 0.949 . S
C125 C124 1.390 . S
C125 C130 1.399 . S
C126 C122 1.404 . S
C126 H127 0.950 . S
C126 C128 1.375 . S
H127 C126 0.950 . S
C128 C126 1.375 . S
C128 C130 1.382 . S
C128 H132 0.950 . S
H129 C124 0.949 . S
C130 C125 1.399 . S
C130 C128 1.382 . S
C130 H131 0.952 . S
H131 C130 0.952 . S
H132 C128 0.950 . S
H133 C134 0.949 . S
C134 H133 0.949 . S
C134 C135 1.395 . S
C134 C136 1.391 . S
C135 C134 1.395 . S
C135 C138 1.390 . S
C136 C134 1.391 . S
C136 C140 1.387 . S
C136 C141 1.491 . S
H137 C138 0.950 . S
C138 C135 1.390 . S
C138 H137 0.950 . S
C138 C139 1.378 . S
C139 C138 1.378 . S
C139 C140 1.409 . S
C140 C136 1.387 . S
C140 C139 1.409 . S
C140 H142 0.951 . S
C141 C136 1.491 . S
C141 C143 1.382 . S
C141 C145 1.404 . S
H142 C140 0.951 . S
C143 C141 1.382 . S
C143 C144 1.390 . S
C143 H148 0.949 . S
C144 C143 1.390 . S
C144 C149 1.399 . S
C145 C141 1.404 . S
C145 H146 0.950 . S
C145 C147 1.375 . S
H146 C145 0.950 . S
C147 C145 1.375 . S
C147 C149 1.382 . S
C147 H151 0.950 . S
H148 C143 0.949 . S
C149 C144 1.399 . S
C149 C147 1.382 . S
C149 H150 0.952 . S
H150 C149 0.952 . S
H151 C147 0.950 . S
H152 C153 0.949 . S
C153 H152 0.949 . S
C153 C154 1.395 . S
C153 C155 1.391 . S
C154 C153 1.395 . S
C154 C157 1.390 . S
C155 C153 1.391 . S
C155 C159 1.387 . S
C155 C160 1.491 . S
H156 C157 0.950 . S
C157 C154 1.390 . S
C157 H156 0.950 . S
C157 C158 1.378 . S
C158 C157 1.378 . S
C158 C159 1.409 . S
C159 C155 1.387 . S
C159 C158 1.409 . S
C159 H161 0.951 . S
C160 C155 1.491 . S
C160 C162 1.382 . S
C160 C164 1.404 . S
H161 C159 0.951 . S
C162 C160 1.382 . S
C162 C163 1.390 . S
C162 H167 0.949 . S
C163 C162 1.390 . S
C163 C168 1.399 . S
C164 C160 1.404 . S
C164 H165 0.950 . S
C164 C166 1.375 . S
H165 C164 0.950 . S
C166 C164 1.375 . S
C166 C168 1.382 . S
C166 H170 0.950 . S
H167 C162 0.949 . S
C168 C163 1.399 . S
C168 C166 1.382 . S
C168 H169 0.952 . S
H169 C168 0.952 . S
H170 C166 0.950 . S
H171 C172 0.949 . S
C172 H171 0.949 . S
C172 C173 1.395 . S
C172 C174 1.391 . S
C173 C172 1.395 . S
C173 C176 1.390 . S
C174 C172 1.391 . S
C174 C178 1.387 . S
C174 C179 1.491 . S
H175 C176 0.950 . S
C176 C173 1.390 . S
C176 H175 0.950 . S
C176 C177 1.378 . S
C177 C176 1.378 . S
C177 C178 1.409 . S
C178 C174 1.387 . S
C178 C177 1.409 . S
C178 H180 0.951 . S
C179 C174 1.491 . S
C179 C181 1.382 . S
C179 C183 1.404 . S
H180 C178 0.951 . S
C181 C179 1.382 . S
C181 C182 1.390 . S
C181 H186 0.949 . S
C182 C181 1.390 . S
C182 C187 1.399 . S
C183 C179 1.404 . S
C183 H184 0.950 . S
C183 C185 1.375 . S
H184 C183 0.950 . S
C185 C183 1.375 . S
C185 C187 1.382 . S
C185 H189 0.950 . S
H186 C181 0.949 . S
C187 C182 1.399 . S
C187 C185 1.382 . S
C187 H188 0.952 . S
H188 C187 0.952 . S
H189 C185 0.950 . S
H190 C191 0.949 . S
C191 H190 0.949 . S
C191 C192 1.395 . S
C191 C193 1.391 . S
C192 C191 1.395 . S
C192 C195 1.390 . S
C193 C191 1.391 . S
C193 C197 1.387 . S
C193 C198 1.491 . S
H194 C195 0.950 . S
C195 C192 1.390 . S
C195 H194 0.950 . S
C195 C196 1.378 . S
C196 C195 1.378 . S
C196 C197 1.409 . S
C197 C193 1.387 . S
C197 C196 1.409 . S
C197 H199 0.951 . S
C198 C193 1.491 . S
C198 C200 1.382 . S
C198 C202 1.404 . S
H199 C197 0.951 . S
C200 C198 1.382 . S
C200 C201 1.390 . S
C200 H205 0.949 . S
C201 C200 1.390 . S
C201 C206 1.399 . S
C202 C198 1.404 . S
C202 H203 0.950 . S
C202 C204 1.375 . S
H203 C202 0.950 . S
C204 C202 1.375 . S
C204 C206 1.382 . S
C204 H208 0.950 . S
H205 C200 0.949 . S
C206 C201 1.399 . S
C206 C204 1.382 . S
C206 H207 0.952 . S
H207 C206 0.952 . S
H208 C204 0.950 . S
H209 C210 0.949 . S
C210 H209 0.949 . S
C210 C211 1.395 . S
C210 C212 1.391 . S
C211 C210 1.395 . S
C211 C214 1.390 . S
C212 C210 1.391 . S
C212 C216 1.387 . S
C212 C217 1.491 . S
H213 C214 0.950 . S
C214 C211 1.390 . S
C214 H213 0.950 . S
C214 C215 1.378 . S
C215 C214 1.378 . S
C215 C216 1.409 . S
C216 C212 1.387 . S
C216 C215 1.409 . S
C216 H218 0.951 . S
C217 C212 1.491 . S
C217 C219 1.382 . S
C217 C221 1.404 . S
H218 C216 0.951 . S
C219 C217 1.382 . S
C219 C220 1.390 . S
C219 H224 0.949 . S
C220 C219 1.390 . S
C220 C225 1.399 . S
C221 C217 1.404 . S
C221 H222 0.950 . S
C221 C223 1.375 . S
H222 C221 0.950 . S
C223 C221 1.375 . S
C223 C225 1.382 . S
C223 H227 0.950 . S
H224 C219 0.949 . S
C225 C220 1.399 . S
C225 C223 1.382 . S
C225 H226 0.952 . S
H226 C225 0.952 . S
H227 C223 0.950 . S
H228 C229 0.949 . S
C229 H228 0.949 . S
C229 C230 1.395 . S
C229 C231 1.391 . S
C230 C229 1.395 . S
C230 C233 1.390 . S
C231 C229 1.391 . S
C231 C235 1.387 . S
C231 C236 1.491 . S
H232 C233 0.950 . S
C233 C230 1.390 . S
C233 H232 0.950 . S
C233 C234 1.378 . S
C234 C233 1.378 . S
C234 C235 1.409 . S
C235 C231 1.387 . S
C235 C234 1.409 . S
C235 H237 0.951 . S
C236 C231 1.491 . S
C236 C238 1.382 . S
C236 C240 1.404 . S
H237 C235 0.951 . S
C238 C236 1.382 . S
C238 C239 1.390 . S
C238 H243 0.949 . S
C239 C238 1.390 . S
C239 C244 1.399 . S
C240 C236 1.404 . S
C240 H241 0.950 . S
C240 C242 1.375 . S
H241 C240 0.950 . S
C242 C240 1.375 . S
C242 C244 1.382 . S
C242 H246 0.950 . S
H243 C238 0.949 . S
C244 C239 1.399 . S
C244 C242 1.382 . S
C244 H245 0.952 . S
H245 C244 0.952 . S
H246 C242 0.950 . S
H247 C248 0.949 . S
C248 H247 0.949 . S
C248 C249 1.395 . S
C248 C250 1.391 . S
C249 C248 1.395 . S
C249 C252 1.390 . S
C250 C248 1.391 . S
C250 C254 1.387 . S
C250 C255 1.491 . S
H251 C252 0.950 . S
C252 C249 1.390 . S
C252 H251 0.950 . S
C252 C253 1.378 . S
C253 C252 1.378 . S
C253 C254 1.409 . S
C254 C250 1.387 . S
C254 C253 1.409 . S
C254 H256 0.951 . S
C255 C250 1.491 . S
C255 C257 1.382 . S
C255 C259 1.404 . S
H256 C254 0.951 . S
C257 C255 1.382 . S
C257 C258 1.390 . S
C257 H262 0.949 . S
C258 C257 1.390 . S
C258 C263 1.399 . S
C259 C255 1.404 . S
C259 H260 0.950 . S
C259 C261 1.375 . S
H260 C259 0.950 . S
C261 C259 1.375 . S
C261 C263 1.382 . S
C261 H265 0.950 . S
H262 C257 0.949 . S
C263 C258 1.399 . S
C263 C261 1.382 . S
C263 H264 0.952 . S
H264 C263 0.952 . S
H265 C261 0.950 . S
H266 C267 0.949 . S
C267 H266 0.949 . S
C267 C268 1.395 . S
C267 C269 1.391 . S
C268 C267 1.395 . S
C268 C271 1.390 . S
C269 C267 1.391 . S
C269 C273 1.387 . S
C269 C274 1.491 . S
H270 C271 0.950 . S
C271 C268 1.390 . S
C271 H270 0.950 . S
C271 C272 1.378 . S
C272 C271 1.378 . S
C272 C273 1.409 . S
C273 C269 1.387 . S
C273 C272 1.409 . S
C273 H275 0.951 . S
C274 C269 1.491 . S
C274 C276 1.382 . S
C274 C278 1.404 . S
H275 C273 0.951 . S
C276 C274 1.382 . S
C276 C277 1.390 . S
C276 H281 0.949 . S
C277 C276 1.390 . S
C277 C282 1.399 . S
C278 C274 1.404 . S
C278 H279 0.950 . S
C278 C280 1.375 . S
H279 C278 0.950 . S
C280 C278 1.375 . S
C280 C282 1.382 . S
C280 H284 0.950 . S
H281 C276 0.949 . S
C282 C277 1.399 . S
C282 C280 1.382 . S
C282 H283 0.952 . S
H283 C282 0.952 . S
H284 C280 0.950 . S
H285 C286 0.949 . S
C286 H285 0.949 . S
C286 C287 1.395 . S
C286 C288 1.391 . S
C287 C286 1.395 . S
C287 C290 1.390 . S
C288 C286 1.391 . S
C288 C292 1.387 . S
C288 C293 1.491 . S
H289 C290 0.950 . S
C290 C287 1.390 . S
C290 H289 0.950 . S
C290 C291 1.378 . S
C291 C290 1.378 . S
C291 C292 1.409 . S
C292 C288 1.387 . S
C292 C291 1.409 . S
C292 H294 0.951 . S
C293 C288 1.491 . S
C293 C295 1.382 . S
C293 C297 1.404 . S
H294 C292 0.951 . S
C295 C293 1.382 . S
C295 C296 1.390 . S
C295 H300 0.949 . S
C296 C295 1.390 . S
C296 C301 1.399 . S
C297 C293 1.404 . S
C297 H298 0.950 . S
C297 C299 1.375 . S
H298 C297 0.950 . S
C299 C297 1.375 . S
C299 C301 1.382 . S
C299 H303 0.950 . S
H300 C295 0.949 . S
C301 C296 1.399 . S
C301 C299 1.382 . S
C301 H302 0.952 . S
H302 C301 0.952 . S
H303 C299 0.950 . S
O304 Cd305 2.223 . S
O304 C312 1.315 . S
Cd305 O304 2.223 . S
Cd305 O308 2.297 . S
Cd305 O309 2.439 . S
Cd305 O315 2.240 . S
Cd306 O307 2.240 . S
Cd306 O314 2.223 . S
Cd306 O316 2.297 . S
Cd306 O317 2.439 . S
O307 Cd306 2.240 . S
O307 C312 1.279 . S
O308 Cd305 2.297 . S
O308 C310 1.247 . S
O309 Cd305 2.439 . S
O309 C310 1.208 . S
C310 O308 1.247 . S
C310 O309 1.208 . S
C311 O316 1.247 . S
C311 O317 1.208 . S
C312 O304 1.315 . S
C312 O307 1.279 . S
C313 O314 1.315 . S
C313 O315 1.279 . S
O314 Cd306 2.223 . S
O314 C313 1.315 . S
O315 Cd305 2.240 . S
O315 C313 1.279 . S
O316 Cd306 2.297 . S
O316 C311 1.247 . S
O317 Cd306 2.439 . S
O317 C311 1.208 . S
O318 Cd319 2.223 . S
O318 C326 1.315 . S
Cd319 O318 2.223 . S
Cd319 O322 2.297 . S
Cd319 O323 2.439 . S
Cd319 O329 2.240 . S
Cd320 O321 2.240 . S
Cd320 O328 2.223 . S
Cd320 O330 2.297 . S
Cd320 O331 2.439 . S
O321 Cd320 2.240 . S
O321 C326 1.279 . S
O322 Cd319 2.297 . S
O322 C324 1.247 . S
O323 Cd319 2.439 . S
O323 C324 1.208 . S
C324 O322 1.247 . S
C324 O323 1.208 . S
C325 O330 1.247 . S
C325 O331 1.208 . S
C326 O318 1.315 . S
C326 O321 1.279 . S
C327 O328 1.315 . S
C327 O329 1.279 . S
O328 Cd320 2.223 . S
O328 C327 1.315 . S
O329 Cd319 2.240 . S
O329 C327 1.279 . S
O330 Cd320 2.297 . S
O330 C325 1.247 . S
O331 Cd320 2.439 . S
O331 C325 1.208 . S
O332 Cd333 2.223 1_556 S
O332 C340 1.315 . S
Cd333 O332 2.223 1_554 S
Cd333 O336 2.297 . S
Cd333 O337 2.439 . S
Cd333 O343 2.234 1_554 S
Cd334 O335 2.240 . S
Cd334 O342 2.223 . S
Cd334 O344 2.297 . S
Cd334 O345 2.439 1_556 S
O335 Cd334 2.240 . S
O335 C340 1.279 . S
O336 Cd333 2.297 . S
O336 C338 1.247 . S
O337 Cd333 2.439 . S
O337 C338 1.208 . S
C338 O336 1.247 . S
C338 O337 1.208 . S
C339 O344 1.247 1_554 S
C339 O345 1.208 . S
C340 O332 1.315 . S
C340 O335 1.279 . S
C341 O342 1.315 . S
C341 O343 1.302 . S
O342 Cd334 2.223 . S
O342 C341 1.315 . S
O343 Cd333 2.234 1_556 S
O343 C341 1.302 . S
O344 Cd334 2.297 . S
O344 C339 1.247 1_556 S
O345 Cd334 2.439 1_554 S
O345 C339 1.208 . S
O346 Cd347 2.223 1_455 S
O346 C354 1.315 . S
Cd347 O346 2.223 1_655 S
Cd347 O350 2.297 1_655 S
Cd347 O351 2.439 1_655 S
Cd347 O357 2.240 . S
Cd348 O349 2.240 . S
Cd348 O356 2.223 . S
Cd348 O358 2.297 . S
Cd348 O359 2.439 . S
O349 Cd348 2.240 . S
O349 C354 1.279 1_655 S
O350 Cd347 2.297 1_455 S
O350 C352 1.247 . S
O351 Cd347 2.439 1_455 S
O351 C352 1.208 . S
C352 O350 1.247 . S
C352 O351 1.208 . S
C353 O358 1.247 . S
C353 O359 1.208 . S
C354 O346 1.315 . S
C354 O349 1.279 1_455 S
C355 O356 1.315 . S
C355 O357 1.279 . S
O356 Cd348 2.223 . S
O356 C355 1.315 . S
O357 Cd347 2.240 . S
O357 C355 1.279 . S
O358 Cd348 2.297 . S
O358 C353 1.247 . S
O359 Cd348 2.439 . S
O359 C353 1.208 . S
O360 Cd361 2.223 . S
O360 C368 1.315 . S
Cd361 O360 2.223 . S
Cd361 O364 2.297 . S
Cd361 O365 2.439 . S
Cd361 O371 2.240 . S
Cd362 O363 2.240 . S
Cd362 O370 2.223 . S
Cd362 O372 2.297 . S
Cd362 O373 2.439 . S
O363 Cd362 2.240 . S
O363 C368 1.279 . S
O364 Cd361 2.297 . S
O364 C366 1.247 . S
O365 Cd361 2.439 . S
O365 C366 1.208 . S
C366 O364 1.247 . S
C366 O365 1.208 . S
C367 O372 1.247 . S
C367 O373 1.208 . S
C368 O360 1.315 . S
C368 O363 1.279 . S
C369 O370 1.315 . S
C369 O371 1.279 . S
O370 Cd362 2.223 . S
O370 C369 1.315 . S
O371 Cd361 2.240 . S
O371 C369 1.279 . S
O372 Cd362 2.297 . S
O372 C367 1.247 . S
O373 Cd362 2.439 . S
O373 C367 1.208 . S
O374 Cd375 2.223 . S
O374 C382 1.315 . S
Cd375 O374 2.223 . S
Cd375 O378 2.297 . S
Cd375 O379 2.439 . S
Cd375 O385 2.240 . S
Cd376 O377 2.240 . S
Cd376 O384 2.223 . S
Cd376 O386 2.297 . S
Cd376 O387 2.439 . S
O377 Cd376 2.240 . S
O377 C382 1.279 . S
O378 Cd375 2.297 . S
O378 C380 1.247 . S
O379 Cd375 2.439 . S
O379 C380 1.208 . S
C380 O378 1.247 . S
C380 O379 1.208 . S
C381 O386 1.247 . S
C381 O387 1.208 . S
C382 O374 1.315 . S
C382 O377 1.279 . S
C383 O384 1.315 . S
C383 O385 1.279 . S
O384 Cd376 2.223 . S
O384 C383 1.315 . S
O385 Cd375 2.240 . S
O385 C383 1.279 . S
O386 Cd376 2.297 . S
O386 C381 1.247 . S
O387 Cd376 2.439 . S
O387 C381 1.208 . S
O388 Cd389 2.223 . S
O388 C396 1.315 . S
Cd389 O388 2.223 . S
Cd389 O392 2.297 . S
Cd389 O393 2.439 . S
Cd389 O399 2.240 . S
Cd390 O391 2.240 . S
Cd390 O398 2.223 . S
Cd390 O400 2.297 . S
Cd390 O401 2.439 . S
O391 Cd390 2.240 . S
O391 C396 1.279 . S
O392 Cd389 2.297 . S
O392 C394 1.247 . S
O393 Cd389 2.439 . S
O393 C394 1.208 . S
C394 O392 1.247 . S
C394 O393 1.208 . S
C395 O400 1.247 . S
C395 O401 1.208 . S
C396 O388 1.315 . S
C396 O391 1.279 . S
C397 O398 1.315 . S
C397 O399 1.279 . S
O398 Cd390 2.223 . S
O398 C397 1.315 . S
O399 Cd389 2.240 . S
O399 C397 1.279 . S
O400 Cd390 2.297 . S
O400 C395 1.247 . S
O401 Cd390 2.439 . S
O401 C395 1.208 . S
O402 Cd403 2.223 1_545 S
O402 C410 1.315 . S
Cd403 O402 2.223 1_565 S
Cd403 O406 2.297 . S
Cd403 O407 2.439 . S
Cd403 O413 2.240 1_565 S
Cd404 O405 2.240 . S
Cd404 O412 2.223 . S
Cd404 O414 2.294 1_545 S
Cd404 O415 2.439 1_545 S
O405 Cd404 2.240 . S
O405 C410 1.279 . S
O406 Cd403 2.297 . S
O406 C408 1.247 . S
O407 Cd403 2.439 . S
O407 C408 1.208 . S
C408 O406 1.247 . S
C408 O407 1.208 . S
C409 O414 1.271 . S
C409 O415 1.208 . S
C410 O402 1.315 . S
C410 O405 1.279 . S
C411 O412 1.315 . S
C411 O413 1.279 . S
O412 Cd404 2.223 . S
O412 C411 1.315 . S
O413 Cd403 2.240 1_545 S
O413 C411 1.279 . S
O414 Cd404 2.294 1_565 S
O414 C409 1.271 . S
O415 Cd404 2.439 1_565 S
O415 C409 1.208 . S
O416 Cd417 2.223 . S
O416 C424 1.315 . S
Cd417 O416 2.223 . S
Cd417 O420 2.297 1_655 S
Cd417 O421 2.439 1_655 S
Cd417 O427 2.240 . S
Cd418 O419 2.240 . S
Cd418 O426 2.223 1_455 S
Cd418 O428 2.297 . S
Cd418 O429 2.439 . S
O419 Cd418 2.240 . S
O419 C424 1.279 1_455 S
O420 Cd417 2.297 1_455 S
O420 C422 1.247 . S
O421 Cd417 2.439 1_455 S
O421 C422 1.208 . S
C422 O420 1.247 . S
C422 O421 1.208 . S
C423 O428 1.247 . S
C423 O429 1.208 . S
C424 O416 1.315 . S
C424 O419 1.279 1_655 S
C425 O426 1.315 . S
C425 O427 1.279 . S
O426 Cd418 2.223 1_655 S
O426 C425 1.315 . S
O427 Cd417 2.240 . S
O427 C425 1.279 . S
O428 Cd418 2.297 . S
O428 C423 1.247 . S
O429 Cd418 2.439 . S
O429 C423 1.208 . S
O430 Cd431 2.223 . S
O430 C438 1.315 . S
Cd431 O430 2.223 . S
Cd431 O434 2.297 . S
Cd431 O435 2.439 . S
Cd431 O441 2.240 . S
Cd432 O433 2.240 . S
Cd432 O440 2.223 . S
Cd432 O442 2.297 . S
Cd432 O443 2.439 . S
O433 Cd432 2.240 . S
O433 C438 1.279 . S
O434 Cd431 2.297 . S
O434 C436 1.247 . S
O435 Cd431 2.439 . S
O435 C436 1.208 . S
C436 O434 1.247 . S
C436 O435 1.208 . S
C437 O442 1.247 . S
C437 O443 1.208 . S
C438 O430 1.315 . S
C438 O433 1.279 . S
C439 O440 1.315 . S
C439 O441 1.279 . S
O440 Cd432 2.223 . S
O440 C439 1.315 . S
O441 Cd431 2.240 . S
O441 C439 1.279 . S
O442 Cd432 2.297 . S
O442 C437 1.247 . S
O443 Cd432 2.439 . S
O443 C437 1.208 . S
O444 Cd445 2.223 1_655 S
O444 C452 1.315 . S
Cd445 O444 2.223 1_455 S
Cd445 O448 2.297 . S
Cd445 O449 2.439 . S
Cd445 O455 2.240 . S
Cd446 O447 2.240 . S
Cd446 O454 2.223 1_455 S
Cd446 O456 2.297 . S
Cd446 O457 2.439 . S
O447 Cd446 2.240 . S
O447 C452 1.279 1_455 S
O448 Cd445 2.297 . S
O448 C450 1.247 . S
O449 Cd445 2.439 . S
O449 C450 1.208 . S
C450 O448 1.247 . S
C450 O449 1.208 . S
C451 O456 1.247 . S
C451 O457 1.208 . S
C452 O444 1.315 . S
C452 O447 1.279 1_655 S
C453 O454 1.315 . S
C453 O455 1.279 1_655 S
O454 Cd446 2.223 1_655 S
O454 C453 1.315 . S
O455 Cd445 2.240 . S
O455 C453 1.279 1_455 S
O456 Cd446 2.297 . S
O456 C451 1.247 . S
O457 Cd446 2.439 . S
O457 C451 1.208 . S
O458 Cd459 2.223 . S
O458 C466 1.315 . S
Cd459 O458 2.223 . S
Cd459 O462 2.297 . S
Cd459 O463 2.439 . S
Cd459 O469 2.240 . S
Cd460 O461 2.240 . S
Cd460 O468 2.223 . S
Cd460 O470 2.297 . S
Cd460 O471 2.439 . S
O461 Cd460 2.240 . S
O461 C466 1.279 . S
O462 Cd459 2.297 . S
O462 C464 1.247 . S
O463 Cd459 2.439 . S
O463 C464 1.208 . S
C464 O462 1.247 . S
C464 O463 1.208 . S
C465 O470 1.247 . S
C465 O471 1.208 . S
C466 O458 1.315 . S
C466 O461 1.279 . S
C467 O468 1.315 . S
C467 O469 1.279 . S
O468 Cd460 2.223 . S
O468 C467 1.315 . S
O469 Cd459 2.240 . S
O469 C467 1.279 . S
O470 Cd460 2.297 . S
O470 C465 1.247 . S
O471 Cd460 2.439 . S
O471 C465 1.208 . S
H472 C480 0.950 . S
H473 C485 0.950 . S
H474 C482 0.950 . S
H475 C484 0.950 . S
H476 C486 0.950 . S
H477 C488 0.950 . S
H478 C490 0.950 . S
H479 C491 0.964 . S
C480 H472 0.950 . S
C480 C481 1.386 . S
C480 C482 1.391 . S
C481 C480 1.386 . S
C481 C485 1.393 . S
C482 H474 0.950 . S
C482 C480 1.391 . S
C482 C483 1.400 . S
C483 C482 1.400 . S
C483 C484 1.398 . S
C483 C489 1.491 . S
C484 H475 0.950 . S
C484 C483 1.398 . S
C484 C485 1.391 . S
C485 H473 0.950 . S
C485 C481 1.393 . S
C485 C484 1.391 . S
C486 H476 0.950 . S
C486 C487 1.386 . S
C486 C488 1.391 . S
C487 C486 1.386 . S
C487 C491 1.347 1_554 S
C488 H477 0.950 . S
C488 C486 1.391 . S
C488 C489 1.400 1_554 S
C489 C483 1.491 . S
C489 C488 1.400 1_556 S
C489 C490 1.398 . S
C490 H478 0.950 . S
C490 C489 1.398 . S
C490 C491 1.425 . S
C491 H479 0.964 . S
C491 C487 1.347 1_556 S
C491 C490 1.425 . S
H492 C500 0.950 . S
H493 C505 0.950 . S
H494 C502 0.950 . S
H495 C504 0.950 . S
H496 C506 0.950 . S
H497 C508 0.950 . S
H498 C510 0.950 . S
H499 C511 0.950 . S
C500 H492 0.950 . S
C500 C501 1.386 . S
C500 C502 1.391 1_655 S
C501 C500 1.386 . S
C501 C505 1.393 . S
C502 H494 0.950 . S
C502 C500 1.391 1_455 S
C502 C503 1.400 . S
C503 C502 1.400 . S
C503 C504 1.398 1_455 S
C503 C509 1.491 . S
C504 H495 0.950 . S
C504 C503 1.398 1_655 S
C504 C505 1.391 . S
C505 H493 0.950 . S
C505 C501 1.393 . S
C505 C504 1.391 . S
C506 H496 0.950 . S
C506 C507 1.386 . S
C506 C508 1.391 . S
C507 C506 1.386 . S
C507 C511 1.393 . S
C508 H497 0.950 . S
C508 C506 1.391 . S
C508 C509 1.400 . S
C509 C503 1.491 . S
C509 C508 1.400 . S
C509 C510 1.398 . S
C510 H498 0.950 . S
C510 C509 1.398 . S
C510 C511 1.391 . S
C511 H499 0.950 . S
C511 C507 1.393 . S
C511 C510 1.391 . S
H512 C520 0.950 . S
H513 C525 0.950 . S
H514 C522 0.950 . S
H515 C524 0.950 . S
H516 C526 0.950 . S
H517 C528 0.950 . S
H518 C530 0.950 . S
H519 C531 0.950 . S
C520 H512 0.950 . S
C520 C521 1.386 . S
C520 C522 1.391 . S
C521 C520 1.386 . S
C521 C525 1.393 . S
C522 H514 0.950 . S
C522 C520 1.391 . S
C522 C523 1.400 . S
C523 C522 1.400 . S
C523 C524 1.398 . S
C523 C529 1.491 . S
C524 H515 0.950 . S
C524 C523 1.398 . S
C524 C525 1.391 . S
C525 H513 0.950 . S
C525 C521 1.393 . S
C525 C524 1.391 . S
C526 H516 0.950 . S
C526 C527 1.386 . S
C526 C528 1.391 . S
C527 C526 1.386 . S
C527 C531 1.393 . S
C528 H517 0.950 . S
C528 C526 1.391 . S
C528 C529 1.400 . S
C529 C523 1.491 . S
C529 C528 1.400 . S
C529 C530 1.398 . S
C530 H518 0.950 . S
C530 C529 1.398 . S
C530 C531 1.391 . S
C531 H519 0.950 . S
C531 C527 1.393 . S
C531 C530 1.391 . S
H532 C540 0.950 . S
H533 C545 0.950 . S
H534 C542 0.950 . S
H535 C544 0.950 . S
H536 C546 0.950 1_655 S
H537 C548 0.950 1_565 S
H538 C550 0.950 . S
H539 C551 0.950 . S
C540 H532 0.950 . S
C540 C541 1.386 . S
C540 C542 1.391 1_565 S
C541 C540 1.386 . S
C541 C545 1.393 . S
C542 H534 0.950 . S
C542 C540 1.391 1_545 S
C542 C543 1.400 1_545 S
C543 C542 1.400 1_565 S
C543 C544 1.398 . S
C543 C549 1.491 1_565 S
C544 H535 0.950 . S
C544 C543 1.398 . S
C544 C545 1.391 . S
C545 H533 0.950 . S
C545 C541 1.393 . S
C545 C544 1.391 . S
C546 H536 0.950 1_455 S
C546 C547 1.386 . S
C546 C548 1.391 . S
C547 C546 1.386 . S
C547 C551 1.393 . S
C548 H537 0.950 1_545 S
C548 C546 1.391 . S
C548 C549 1.400 . S
C549 C543 1.491 1_545 S
C549 C548 1.400 . S
C549 C550 1.398 . S
C550 H538 0.950 . S
C550 C549 1.398 . S
C550 C551 1.391 . S
C551 H539 0.950 . S
C551 C547 1.393 . S
C551 C550 1.391 . S
H552 C560 0.950 . S
H553 C565 0.950 . S
H554 C562 0.950 . S
H555 C564 0.950 . S
H556 C566 0.950 . S
H557 C568 0.950 . S
H558 C570 0.950 . S
H559 C571 0.950 . S
C560 H552 0.950 . S
C560 C561 1.386 . S
C560 C562 1.391 . S
C561 C560 1.386 . S
C561 C565 1.393 . S
C562 H554 0.950 . S
C562 C560 1.391 . S
C562 C563 1.400 . S
C563 C562 1.400 . S
C563 C564 1.398 . S
C563 C569 1.491 . S
C564 H555 0.950 . S
C564 C563 1.398 . S
C564 C565 1.391 . S
C565 H553 0.950 . S
C565 C561 1.393 . S
C565 C564 1.391 . S
C566 H556 0.950 . S
C566 C567 1.386 . S
C566 C568 1.391 . S
C567 C566 1.386 . S
C567 C571 1.393 . S
C568 H557 0.950 . S
C568 C566 1.391 . S
C568 C569 1.400 . S
C569 C563 1.491 . S
C569 C568 1.400 . S
C569 C570 1.398 . S
C570 H558 0.950 . S
C570 C569 1.398 . S
C570 C571 1.391 . S
C571 H559 0.950 . S
C571 C567 1.393 . S
C571 C570 1.391 . S
H572 C580 0.950 . S
H573 C585 0.950 . S
H574 C582 0.950 . S
H575 C584 0.950 . S
H576 C586 0.950 . S
H577 C588 0.950 . S
H578 C590 0.950 . S
H579 C591 0.950 . S
C580 H572 0.950 . S
C580 C581 1.386 . S
C580 C582 1.391 . S
C581 C580 1.386 . S
C581 C585 1.393 . S
C582 H574 0.950 . S
C582 C580 1.391 . S
C582 C583 1.400 . S
C583 C582 1.400 . S
C583 C584 1.398 . S
C583 C589 1.491 . S
C584 H575 0.950 . S
C584 C583 1.398 . S
C584 C585 1.391 . S
C585 H573 0.950 . S
C585 C581 1.393 . S
C585 C584 1.391 . S
C586 H576 0.950 . S
C586 C587 1.386 . S
C586 C588 1.391 . S
C587 C586 1.386 . S
C587 C591 1.393 . S
C588 H577 0.950 . S
C588 C586 1.391 . S
C588 C589 1.400 . S
C589 C583 1.491 . S
C589 C588 1.400 . S
C589 C590 1.398 . S
C590 H578 0.950 . S
C590 C589 1.398 . S
C590 C591 1.391 . S
C591 H579 0.950 . S
C591 C587 1.393 . S
C591 C590 1.391 . S
H592 C600 0.950 . S
H593 C605 0.950 . S
H594 C602 0.950 . S
H595 C604 0.950 . S
H596 C606 0.950 . S
H597 C608 0.950 . S
H598 C610 0.950 . S
H599 C611 0.950 . S
C600 H592 0.950 . S
C600 C601 1.386 . S
C600 C602 1.391 . S
C601 C600 1.386 . S
C601 C605 1.393 . S
C602 H594 0.950 . S
C602 C600 1.391 . S
C602 C603 1.400 . S
C603 C602 1.400 . S
C603 C604 1.398 . S
C603 C609 1.491 . S
C604 H595 0.950 . S
C604 C603 1.398 . S
C604 C605 1.391 . S
C605 H593 0.950 . S
C605 C601 1.393 . S
C605 C604 1.391 . S
C606 H596 0.950 . S
C606 C607 1.386 . S
C606 C608 1.391 . S
C607 C606 1.386 . S
C607 C611 1.393 . S
C608 H597 0.950 . S
C608 C606 1.391 . S
C608 C609 1.400 . S
C609 C603 1.491 . S
C609 C608 1.400 . S
C609 C610 1.398 . S
C610 H598 0.950 . S
C610 C609 1.398 . S
C610 C611 1.391 . S
C611 H599 0.950 . S
C611 C607 1.393 . S
C611 C610 1.391 . S
H612 C620 0.950 . S
H613 C625 0.950 . S
H614 C622 0.950 . S
H615 C624 0.950 . S
H616 C626 0.950 . S
H617 C628 0.950 . S
H618 C630 0.950 . S
H619 C631 0.950 . S
C620 H612 0.950 . S
C620 C621 1.386 . S
C620 C622 1.391 . S
C621 C620 1.386 . S
C621 C625 1.393 . S
C622 H614 0.950 . S
C622 C620 1.391 . S
C622 C623 1.400 . S
C623 C622 1.400 . S
C623 C624 1.398 . S
C623 C629 1.491 . S
C624 H615 0.950 . S
C624 C623 1.398 . S
C624 C625 1.391 . S
C625 H613 0.950 . S
C625 C621 1.393 . S
C625 C624 1.391 . S
C626 H616 0.950 . S
C626 C627 1.386 . S
C626 C628 1.391 . S
C627 C626 1.386 . S
C627 C631 1.393 . S
C628 H617 0.950 . S
C628 C626 1.391 . S
C628 C629 1.400 . S
C629 C623 1.491 . S
C629 C628 1.400 . S
C629 C630 1.398 . S
C630 H618 0.950 . S
C630 C629 1.398 . S
C630 C631 1.391 . S
C631 H619 0.950 . S
C631 C627 1.393 . S
C631 C630 1.391 . S
H632 C640 0.950 . S
H633 C645 0.950 . S
H634 C642 0.950 . S
H635 C644 0.950 . S
H636 C646 0.950 . S
H637 C648 0.950 . S
H638 C650 0.950 . S
H639 C651 0.950 . S
C640 H632 0.950 . S
C640 C641 1.386 . S
C640 C642 1.391 . S
C641 C640 1.386 . S
C641 C645 1.393 . S
C642 H634 0.950 . S
C642 C640 1.391 . S
C642 C643 1.400 . S
C643 C642 1.400 . S
C643 C644 1.398 . S
C643 C649 1.491 . S
C644 H635 0.950 . S
C644 C643 1.398 . S
C644 C645 1.391 . S
C645 H633 0.950 . S
C645 C641 1.393 . S
C645 C644 1.391 . S
C646 H636 0.950 . S
C646 C647 1.386 . S
C646 C648 1.391 . S
C647 C646 1.386 . S
C647 C651 1.393 . S
C648 H637 0.950 . S
C648 C646 1.391 . S
C648 C649 1.400 . S
C649 C643 1.491 . S
C649 C648 1.400 . S
C649 C650 1.398 . S
C650 H638 0.950 . S
C650 C649 1.398 . S
C650 C651 1.391 . S
C651 H639 0.950 . S
C651 C647 1.393 . S
C651 C650 1.391 . S
H652 C660 0.950 . S
H653 C665 0.950 . S
H654 C662 0.950 . S
H655 C664 0.950 . S
H656 C666 0.950 . S
H657 C668 0.950 . S
H658 C670 0.950 . S
H659 C671 0.950 . S
C660 H652 0.950 . S
C660 C661 1.386 . S
C660 C662 1.391 . S
C661 C660 1.386 . S
C661 C665 1.393 . S
C662 H654 0.950 . S
C662 C660 1.391 . S
C662 C663 1.400 . S
C663 C662 1.400 . S
C663 C664 1.398 . S
C663 C669 1.491 . S
C664 H655 0.950 . S
C664 C663 1.398 . S
C664 C665 1.391 . S
C665 H653 0.950 . S
C665 C661 1.393 . S
C665 C664 1.391 . S
C666 H656 0.950 . S
C666 C667 1.386 . S
C666 C668 1.391 . S
C667 C666 1.386 . S
C667 C671 1.393 . S
C668 H657 0.950 . S
C668 C666 1.391 . S
C668 C669 1.400 . S
C669 C663 1.491 . S
C669 C668 1.400 . S
C669 C670 1.398 . S
C670 H658 0.950 . S
C670 C669 1.398 . S
C670 C671 1.391 . S
C671 H659 0.950 . S
C671 C667 1.393 . S
C671 C670 1.391 . S
H672 C680 0.950 . S
H673 C685 0.950 . S
H674 C682 0.950 . S
H675 C684 0.950 . S
H676 C686 0.950 . S
H677 C688 0.950 . S
H678 C690 0.950 . S
H679 C691 0.950 . S
C680 H672 0.950 . S
C680 C681 1.386 . S
C680 C682 1.391 . S
C681 C680 1.386 . S
C681 C685 1.393 . S
C682 H674 0.950 . S
C682 C680 1.391 . S
C682 C683 1.400 . S
C683 C682 1.400 . S
C683 C684 1.398 . S
C683 C689 1.491 . S
C684 H675 0.950 . S
C684 C683 1.398 . S
C684 C685 1.391 . S
C685 H673 0.950 . S
C685 C681 1.393 . S
C685 C684 1.391 . S
C686 H676 0.950 . S
C686 C687 1.386 . S
C686 C688 1.391 . S
C687 C686 1.386 . S
C687 C691 1.393 . S
C688 H677 0.950 . S
C688 C686 1.391 . S
C688 C689 1.400 . S
C689 C683 1.491 . S
C689 C688 1.400 . S
C689 C690 1.398 . S
C690 H678 0.950 . S
C690 C689 1.398 . S
C690 C691 1.391 . S
C691 H679 0.950 . S
C691 C687 1.393 . S
C691 C690 1.391 . S
H692 C700 0.950 . S
H693 C705 0.950 . S
H694 C702 0.950 . S
H695 C704 0.950 . S
H696 C706 0.950 . S
H697 C708 0.950 . S
H698 C710 0.950 . S
H699 C711 0.950 . S
C700 H692 0.950 . S
C700 C701 1.386 . S
C700 C702 1.391 . S
C701 C700 1.386 . S
C701 C705 1.393 . S
C702 H694 0.950 . S
C702 C700 1.391 . S
C702 C703 1.400 . S
C703 C702 1.400 . S
C703 C704 1.398 . S
C703 C709 1.491 . S
C704 H695 0.950 . S
C704 C703 1.398 . S
C704 C705 1.391 . S
C705 H693 0.950 . S
C705 C701 1.393 . S
C705 C704 1.391 . S
C706 H696 0.950 . S
C706 C707 1.386 . S
C706 C708 1.391 . S
C707 C706 1.386 . S
C707 C711 1.393 . S
C708 H697 0.950 . S
C708 C706 1.391 . S
C708 C709 1.400 . S
C709 C703 1.491 . S
C709 C708 1.400 . S
C709 C710 1.398 . S
C710 H698 0.950 . S
C710 C709 1.398 . S
C710 C711 1.391 . S
C711 H699 0.950 . S
C711 C707 1.393 . S
C711 C710 1.391 . S
H712 C720 0.950 . S
H713 C725 0.950 . S
H714 C722 0.950 . S
H715 C724 0.950 . S
H716 C726 0.950 . S
H717 C728 0.950 . S
H718 C730 0.950 . S
H719 C731 0.950 . S
C720 H712 0.950 . S
C720 C721 1.386 . S
C720 C722 1.391 . S
C721 C720 1.386 . S
C721 C725 1.393 . S
C722 H714 0.950 . S
C722 C720 1.391 . S
C722 C723 1.400 . S
C723 C722 1.400 . S
C723 C724 1.398 . S
C723 C729 1.491 . S
C724 H715 0.950 . S
C724 C723 1.398 . S
C724 C725 1.391 . S
C725 H713 0.950 . S
C725 C721 1.393 . S
C725 C724 1.391 . S
C726 H716 0.950 . S
C726 C727 1.386 . S
C726 C728 1.391 . S
C727 C726 1.386 . S
C727 C731 1.393 . S
C728 H717 0.950 . S
C728 C726 1.391 . S
C728 C729 1.400 . S
C729 C723 1.491 . S
C729 C728 1.400 . S
C729 C730 1.398 . S
C730 H718 0.950 . S
C730 C729 1.398 . S
C730 C731 1.391 . S
C731 H719 0.950 . S
C731 C727 1.393 . S
C731 C730 1.391 . S
H732 C740 0.950 . S
H733 C745 0.950 . S
H734 C742 0.950 . S
H735 C744 0.950 . S
H736 C746 0.950 . S
H737 C748 0.950 . S
H738 C750 0.950 . S
H739 C751 0.950 . S
C740 H732 0.950 . S
C740 C741 1.386 . S
C740 C742 1.391 . S
C741 C740 1.386 . S
C741 C745 1.393 . S
C742 H734 0.950 . S
C742 C740 1.391 . S
C742 C743 1.400 . S
C743 C742 1.400 . S
C743 C744 1.398 . S
C743 C749 1.491 . S
C744 H735 0.950 . S
C744 C743 1.398 . S
C744 C745 1.391 . S
C745 H733 0.950 . S
C745 C741 1.393 . S
C745 C744 1.391 . S
C746 H736 0.950 . S
C746 C747 1.386 . S
C746 C748 1.391 . S
C747 C746 1.386 . S
C747 C751 1.393 . S
C748 H737 0.950 . S
C748 C746 1.391 . S
C748 C749 1.400 . S
C749 C743 1.491 . S
C749 C748 1.400 . S
C749 C750 1.398 . S
C750 H738 0.950 . S
C750 C749 1.398 . S
C750 C751 1.391 . S
C751 H739 0.950 . S
C751 C747 1.393 . S
C751 C750 1.391 . S
H752 C760 0.950 . S
H753 C765 0.950 . S
H754 C762 0.950 . S
H755 C764 0.950 . S
H756 C766 0.950 . S
H757 C768 0.950 . S
H758 C770 0.950 . S
H759 C771 0.950 . S
C760 H752 0.950 . S
C760 C761 1.386 . S
C760 C762 1.391 . S
C761 C760 1.386 . S
C761 C765 1.393 . S
C762 H754 0.950 . S
C762 C760 1.391 . S
C762 C763 1.400 . S
C763 C762 1.400 . S
C763 C764 1.398 . S
C763 C769 1.491 . S
C764 H755 0.950 . S
C764 C763 1.398 . S
C764 C765 1.391 . S
C765 H753 0.950 . S
C765 C761 1.393 . S
C765 C764 1.391 . S
C766 H756 0.950 . S
C766 C767 1.386 . S
C766 C768 1.391 . S
C767 C766 1.386 . S
C767 C771 1.393 . S
C768 H757 0.950 . S
C768 C766 1.391 . S
C768 C769 1.400 . S
C769 C763 1.491 . S
C769 C768 1.400 . S
C769 C770 1.398 . S
C770 H758 0.950 . S
C770 C769 1.398 . S
C770 C771 1.391 . S
C771 H759 0.950 . S
C771 C767 1.393 . S
C771 C770 1.391 . S
H772 C780 0.950 . S
H773 C785 0.950 . S
H774 C782 0.950 . S
H775 C784 0.950 . S
H776 C786 0.950 . S
H777 C788 0.950 . S
H778 C790 0.950 . S
H779 C791 0.950 . S
C780 H772 0.950 . S
C780 C781 1.386 . S
C780 C782 1.391 . S
C781 C780 1.386 . S
C781 C785 1.393 . S
C782 H774 0.950 . S
C782 C780 1.391 . S
C782 C783 1.400 . S
C783 C782 1.400 . S
C783 C784 1.398 . S
C783 C789 1.491 . S
C784 H775 0.950 . S
C784 C783 1.398 . S
C784 C785 1.391 . S
C785 H773 0.950 . S
C785 C781 1.393 . S
C785 C784 1.391 . S
C786 H776 0.950 . S
C786 C787 1.386 . S
C786 C788 1.391 . S
C787 C786 1.386 . S
C787 C791 1.393 . S
C788 H777 0.950 . S
C788 C786 1.391 . S
C788 C789 1.400 . S
C789 C783 1.491 . S
C789 C788 1.400 . S
C789 C790 1.398 . S
C790 H778 0.950 . S
C790 C789 1.398 . S
C790 C791 1.391 . S
C791 H779 0.950 . S
C791 C787 1.393 . S
C791 C790 1.391 . S
H792 C800 0.950 . S
H793 C805 0.950 . S
H794 C802 0.950 . S
H795 C804 0.950 . S
H796 C806 0.950 . S
H797 C808 0.950 . S
H798 C810 0.950 . S
H799 C811 0.950 . S
C800 H792 0.950 . S
C800 C801 1.386 . S
C800 C802 1.391 . S
C801 C800 1.386 . S
C801 C805 1.393 . S
C802 H794 0.950 . S
C802 C800 1.391 . S
C802 C803 1.400 . S
C803 C802 1.400 . S
C803 C804 1.398 . S
C803 C809 1.491 . S
C804 H795 0.950 . S
C804 C803 1.398 . S
C804 C805 1.391 . S
C805 H793 0.950 . S
C805 C801 1.393 . S
C805 C804 1.391 . S
C806 H796 0.950 . S
C806 C807 1.386 . S
C806 C808 1.391 . S
C807 C806 1.386 . S
C807 C811 1.393 . S
C808 H797 0.950 . S
C808 C806 1.391 . S
C808 C809 1.400 . S
C809 C803 1.491 . S
C809 C808 1.400 . S
C809 C810 1.398 . S
C810 H798 0.950 . S
C810 C809 1.398 . S
C810 C811 1.391 . S
C811 H799 0.950 . S
C811 C807 1.393 . S
C811 C810 1.391 . S
H812 C820 0.950 . S
H813 C825 0.950 . S
H814 C822 0.950 . S
H815 C824 0.950 . S
H816 C826 0.950 . S
H817 C828 0.950 . S
H818 C830 0.950 . S
H819 C831 0.950 . S
C820 H812 0.950 . S
C820 C821 1.386 . S
C820 C822 1.391 . S
C821 C820 1.386 . S
C821 C825 1.393 . S
C822 H814 0.950 . S
C822 C820 1.391 . S
C822 C823 1.400 . S
C823 C822 1.400 . S
C823 C824 1.398 . S
C823 C829 1.491 . S
C824 H815 0.950 . S
C824 C823 1.398 . S
C824 C825 1.391 . S
C825 H813 0.950 . S
C825 C821 1.393 . S
C825 C824 1.391 . S
C826 H816 0.950 . S
C826 C827 1.386 . S
C826 C828 1.391 . S
C827 C826 1.386 . S
C827 C831 1.393 . S
C828 H817 0.950 . S
C828 C826 1.391 . S
C828 C829 1.400 . S
C829 C823 1.491 . S
C829 C828 1.400 . S
C829 C830 1.398 . S
C830 H818 0.950 . S
C830 C829 1.398 . S
C830 C831 1.391 . S
C831 H819 0.950 . S
C831 C827 1.393 . S
C831 C830 1.391 . S
H832 C840 0.950 . S
H833 C845 0.950 . S
H834 C842 0.950 . S
H835 C844 0.950 . S
H836 C846 0.950 . S
H837 C848 0.950 . S
H838 C850 0.950 1_556 S
H839 C851 0.950 . S
C840 H832 0.950 . S
C840 C841 1.386 . S
C840 C842 1.391 . S
C841 C840 1.386 . S
C841 C845 1.393 . S
C842 H834 0.950 . S
C842 C840 1.391 . S
C842 C843 1.390 1_556 S
C843 C842 1.390 1_554 S
C843 C844 1.399 . S
C843 C849 1.500 . S
C844 H835 0.950 . S
C844 C843 1.399 . S
C844 C845 1.391 1_554 S
C845 H833 0.950 . S
C845 C841 1.393 . S
C845 C844 1.391 1_556 S
C846 H836 0.950 . S
C846 C847 1.386 1_545 S
C846 C848 1.391 . S
C847 C846 1.386 1_565 S
C847 C851 1.393 . S
C848 H837 0.950 . S
C848 C846 1.391 . S
C848 C849 1.400 . S
C849 C843 1.500 . S
C849 C848 1.400 . S
C849 C850 1.398 1_545 S
C850 H838 0.950 1_554 S
C850 C849 1.398 1_565 S
C850 C851 1.391 . S
C851 H839 0.950 . S
C851 C847 1.393 . S
C851 C850 1.391 . S
H852 C860 0.950 . S
H853 C865 0.950 . S
H854 C862 0.950 . S
H855 C864 0.950 . S
H856 C866 0.950 . S
H857 C868 0.950 . S
H858 C870 0.950 . S
H859 C871 0.950 . S
C860 H852 0.950 . S
C860 C861 1.386 . S
C860 C862 1.391 . S
C861 C860 1.386 . S
C861 C865 1.393 . S
C862 H854 0.950 . S
C862 C860 1.391 . S
C862 C863 1.400 . S
C863 C862 1.400 . S
C863 C864 1.398 . S
C863 C869 1.491 . S
C864 H855 0.950 . S
C864 C863 1.398 . S
C864 C865 1.391 . S
C865 H853 0.950 . S
C865 C861 1.393 . S
C865 C864 1.391 . S
C866 H856 0.950 . S
C866 C867 1.386 . S
C866 C868 1.391 . S
C867 C866 1.386 . S
C867 C871 1.393 . S
C868 H857 0.950 . S
C868 C866 1.391 . S
C868 C869 1.400 . S
C869 C863 1.491 . S
C869 C868 1.400 . S
C869 C870 1.398 . S
C870 H858 0.950 . S
C870 C869 1.398 . S
C870 C871 1.391 . S
C871 H859 0.950 . S
C871 C867 1.393 . S
C871 C870 1.391 . S
H872 C880 0.950 . S
H873 C885 0.950 . S
H874 C882 0.950 . S
H875 C884 0.950 . S
H876 C886 0.950 . S
H877 C888 0.950 . S
H878 C890 0.950 . S
H879 C891 0.950 . S
C880 H872 0.950 . S
C880 C881 1.386 1_545 S
C880 C882 1.391 . S
C881 C880 1.386 1_565 S
C881 C885 1.393 . S
C882 H874 0.950 . S
C882 C880 1.391 . S
C882 C883 1.400 . S
C883 C882 1.400 . S
C883 C884 1.398 . S
C883 C889 1.491 . S
C884 H875 0.950 . S
C884 C883 1.398 . S
C884 C885 1.391 1_545 S
C885 H873 0.950 . S
C885 C881 1.393 . S
C885 C884 1.391 1_565 S
C886 H876 0.950 . S
C886 C887 1.386 . S
C886 C888 1.391 . S
C887 C886 1.386 . S
C887 C891 1.393 . S
C888 H877 0.950 . S
C888 C886 1.391 . S
C888 C889 1.400 . S
C889 C883 1.491 . S
C889 C888 1.400 . S
C889 C890 1.398 . S
C890 H878 0.950 . S
C890 C889 1.398 . S
C890 C891 1.391 . S
C891 H879 0.950 . S
C891 C887 1.393 . S
C891 C890 1.391 . S
H892 C900 0.950 . S
H893 C905 0.950 . S
H894 C902 0.950 . S
H895 C904 0.950 . S
H896 C906 0.950 . S
H897 C908 0.950 . S
H898 C910 0.950 . S
H899 C911 0.950 . S
C900 H892 0.950 . S
C900 C901 1.386 . S
C900 C902 1.391 . S
C901 C900 1.386 . S
C901 C905 1.393 . S
C902 H894 0.950 . S
C902 C900 1.391 . S
C902 C903 1.400 . S
C903 C902 1.400 . S
C903 C904 1.398 . S
C903 C909 1.491 . S
C904 H895 0.950 . S
C904 C903 1.398 . S
C904 C905 1.391 . S
C905 H893 0.950 . S
C905 C901 1.393 . S
C905 C904 1.391 . S
C906 H896 0.950 . S
C906 C907 1.386 . S
C906 C908 1.391 . S
C907 C906 1.386 . S
C907 C911 1.393 . S
C908 H897 0.950 . S
C908 C906 1.391 . S
C908 C909 1.400 . S
C909 C903 1.491 . S
C909 C908 1.400 . S
C909 C910 1.398 . S
C910 H898 0.950 . S
C910 C909 1.398 . S
C910 C911 1.391 . S
C911 H899 0.950 . S
C911 C907 1.393 . S
C911 C910 1.391 . S
H912 C920 0.950 . S
H913 C925 0.950 . S
H914 C922 0.950 . S
H915 C924 0.950 . S
H916 C926 0.950 . S
H917 C928 0.950 . S
H918 C930 0.950 . S
H919 C931 0.950 . S
C920 H912 0.950 . S
C920 C921 1.386 . S
C920 C922 1.391 . S
C921 C920 1.386 . S
C921 C925 1.393 . S
C922 H914 0.950 . S
C922 C920 1.391 . S
C922 C923 1.400 1_565 S
C923 C922 1.400 1_545 S
C923 C924 1.398 . S
C923 C929 1.491 . S
C924 H915 0.950 . S
C924 C923 1.398 . S
C924 C925 1.391 1_545 S
C925 H913 0.950 . S
C925 C921 1.393 . S
C925 C924 1.391 1_565 S
C926 H916 0.950 . S
C926 C927 1.386 . S
C926 C928 1.391 . S
C927 C926 1.386 . S
C927 C931 1.393 . S
C928 H917 0.950 . S
C928 C926 1.391 . S
C928 C929 1.400 . S
C929 C923 1.491 . S
C929 C928 1.400 . S
C929 C930 1.398 . S
C930 H918 0.950 . S
C930 C929 1.398 . S
C930 C931 1.391 . S
C931 H919 0.950 . S
C931 C927 1.393 . S
C931 C930 1.391 . S
H932 C940 0.950 . S
H933 C945 0.950 . S
H934 C942 0.950 . S
H935 C944 0.950 . S
H936 C946 0.950 . S
H937 C948 0.950 . S
H938 C950 0.950 . S
H939 C951 0.950 . S
C940 H932 0.950 . S
C940 C941 1.386 . S
C940 C942 1.391 . S
C941 C940 1.386 . S
C941 C945 1.393 . S
C942 H934 0.950 . S
C942 C940 1.391 . S
C942 C943 1.400 . S
C943 C942 1.400 . S
C943 C944 1.398 . S
C943 C949 1.491 . S
C944 H935 0.950 . S
C944 C943 1.398 . S
C944 C945 1.391 . S
C945 H933 0.950 . S
C945 C941 1.393 . S
C945 C944 1.391 . S
C946 H936 0.950 . S
C946 C947 1.386 . S
C946 C948 1.391 . S
C947 C946 1.386 . S
C947 C951 1.393 . S
C948 H937 0.950 . S
C948 C946 1.391 . S
C948 C949 1.400 . S
C949 C943 1.491 . S
C949 C948 1.400 . S
C949 C950 1.398 . S
C950 H938 0.950 . S
C950 C949 1.398 . S
C950 C951 1.391 . S
C951 H939 0.950 . S
C951 C947 1.393 . S
C951 C950 1.391 . S
H952 C960 0.950 . S
H953 C965 0.950 . S
H954 C962 0.950 . S
H955 C964 0.950 . S
H956 C966 0.950 . S
H957 C968 0.950 . S
H958 C970 0.950 . S
H959 C971 0.950 . S
C960 H952 0.950 . S
C960 C961 1.386 . S
C960 C962 1.391 . S
C961 C960 1.386 . S
C961 C965 1.393 . S
C962 H954 0.950 . S
C962 C960 1.391 . S
C962 C963 1.400 . S
C963 C962 1.400 . S
C963 C964 1.398 . S
C963 C969 1.491 . S
C964 H955 0.950 . S
C964 C963 1.398 . S
C964 C965 1.391 . S
C965 H953 0.950 . S
C965 C961 1.393 . S
C965 C964 1.391 . S
C966 H956 0.950 . S
C966 C967 1.386 . S
C966 C968 1.391 . S
C967 C966 1.386 . S
C967 C971 1.393 . S
C968 H957 0.950 . S
C968 C966 1.391 . S
C968 C969 1.400 . S
C969 C963 1.491 . S
C969 C968 1.400 . S
C969 C970 1.398 . S
C970 H958 0.950 . S
C970 C969 1.398 . S
C970 C971 1.391 . S
C971 H959 0.950 . S
C971 C967 1.393 . S
C971 C970 1.391 . S
H972 C980 0.950 . S
H973 C985 0.950 . S
H974 C982 0.950 . S
H975 C984 0.950 . S
H976 C986 0.950 . S
H977 C988 0.950 . S
H978 C990 0.950 . S
H979 C991 0.950 . S
C980 H972 0.950 . S
C980 C981 1.386 . S
C980 C982 1.391 . S
C981 C980 1.386 . S
C981 C985 1.393 . S
C982 H974 0.950 . S
C982 C980 1.391 . S
C982 C983 1.400 . S
C983 C982 1.400 . S
C983 C984 1.398 . S
C983 C989 1.491 . S
C984 H975 0.950 . S
C984 C983 1.398 . S
C984 C985 1.391 . S
C985 H973 0.950 . S
C985 C981 1.393 . S
C985 C984 1.391 . S
C986 H976 0.950 . S
C986 C987 1.386 . S
C986 C988 1.391 . S
C987 C986 1.386 . S
C987 C991 1.393 . S
C988 H977 0.950 . S
C988 C986 1.391 . S
C988 C989 1.400 . S
C989 C983 1.491 . S
C989 C988 1.400 . S
C989 C990 1.398 . S
C990 H978 0.950 . S
C990 C989 1.398 . S
C990 C991 1.391 . S
C991 H979 0.950 . S
C991 C987 1.393 . S
C991 C990 1.391 . S
H992 C1000 0.950 . S
H993 C1005 0.950 . S
H994 C1002 0.950 . S
H995 C1004 0.950 . S
H996 C1006 0.950 . S
H997 C1008 0.950 . S
H998 C1010 0.950 . S
H999 C1011 0.950 . S
C1000 H992 0.950 . S
C1000 C1001 1.386 . S
C1000 C1002 1.391 . S
C1001 C1000 1.386 . S
C1001 C1005 1.393 . S
C1002 H994 0.950 . S
C1002 C1000 1.391 . S
C1002 C1003 1.400 . S
C1003 C1002 1.400 . S
C1003 C1004 1.398 . S
C1003 C1009 1.491 . S
C1004 H995 0.950 . S
C1004 C1003 1.398 . S
C1004 C1005 1.391 . S
C1005 H993 0.950 . S
C1005 C1001 1.393 . S
C1005 C1004 1.391 . S
C1006 H996 0.950 . S
C1006 C1007 1.386 . S
C1006 C1008 1.391 . S
C1007 C1006 1.386 . S
C1007 C1011 1.393 . S
C1008 H997 0.950 . S
C1008 C1006 1.391 . S
C1008 C1009 1.400 . S
C1009 C1003 1.491 . S
C1009 C1008 1.400 . S
C1009 C1010 1.398 . S
C1010 H998 0.950 . S
C1010 C1009 1.398 . S
C1010 C1011 1.391 . S
C1011 H999 0.950 . S
C1011 C1007 1.393 . S
C1011 C1010 1.391 . S
H1012 C1020 0.950 . S
H1013 C1025 0.950 . S
H1014 C1022 0.950 . S
H1015 C1024 0.950 . S
H1016 C1026 0.950 . S
H1017 C1028 0.950 . S
H1018 C1030 0.950 . S
H1019 C1031 0.950 . S
C1020 H1012 0.950 . S
C1020 C1021 1.386 . S
C1020 C1022 1.391 . S
C1021 C1020 1.386 . S
C1021 C1025 1.393 . S
C1022 H1014 0.950 . S
C1022 C1020 1.391 . S
C1022 C1023 1.400 . S
C1023 C1022 1.400 . S
C1023 C1024 1.398 . S
C1023 C1029 1.491 . S
C1024 H1015 0.950 . S
C1024 C1023 1.398 . S
C1024 C1025 1.391 . S
C1025 H1013 0.950 . S
C1025 C1021 1.393 . S
C1025 C1024 1.391 . S
C1026 H1016 0.950 . S
C1026 C1027 1.386 . S
C1026 C1028 1.391 . S
C1027 C1026 1.386 . S
C1027 C1031 1.393 . S
C1028 H1017 0.950 . S
C1028 C1026 1.391 . S
C1028 C1029 1.400 . S
C1029 C1023 1.491 . S
C1029 C1028 1.400 . S
C1029 C1030 1.398 . S
C1030 H1018 0.950 . S
C1030 C1029 1.398 . S
C1030 C1031 1.391 . S
C1031 H1019 0.950 . S
C1031 C1027 1.393 . S
C1031 C1030 1.391 . S
H1032 C1040 0.950 . S
H1033 C1045 0.950 . S
H1034 C1042 0.950 . S
H1035 C1044 0.950 . S
H1036 C1046 0.950 . S
H1037 C1048 0.950 . S
H1038 C1050 0.950 . S
H1039 C1051 0.950 . S
C1040 H1032 0.950 . S
C1040 C1041 1.386 . S
C1040 C1042 1.391 . S
C1041 C1040 1.386 . S
C1041 C1045 1.393 . S
C1042 H1034 0.950 . S
C1042 C1040 1.391 . S
C1042 C1043 1.400 . S
C1043 C1042 1.400 . S
C1043 C1044 1.398 . S
C1043 C1049 1.491 . S
C1044 H1035 0.950 . S
C1044 C1043 1.398 . S
C1044 C1045 1.391 . S
C1045 H1033 0.950 . S
C1045 C1041 1.393 . S
C1045 C1044 1.391 . S
C1046 H1036 0.950 . S
C1046 C1047 1.386 . S
C1046 C1048 1.391 . S
C1047 C1046 1.386 . S
C1047 C1051 1.393 . S
C1048 H1037 0.950 . S
C1048 C1046 1.391 . S
C1048 C1049 1.400 . S
C1049 C1043 1.491 . S
C1049 C1048 1.400 . S
C1049 C1050 1.398 . S
C1050 H1038 0.950 . S
C1050 C1049 1.398 . S
C1050 C1051 1.391 . S
C1051 H1039 0.950 . S
C1051 C1047 1.393 . S
C1051 C1050 1.391 . S
H1052 C1060 0.950 . S
H1053 C1065 0.950 . S
H1054 C1062 0.950 . S
H1055 C1064 0.950 . S
H1056 C1066 0.950 . S
H1057 C1068 0.950 . S
H1058 C1070 0.950 . S
H1059 C1071 0.950 . S
C1060 H1052 0.950 . S
C1060 C1061 1.386 . S
C1060 C1062 1.391 . S
C1061 C1060 1.386 . S
C1061 C1065 1.393 . S
C1062 H1054 0.950 . S
C1062 C1060 1.391 . S
C1062 C1063 1.400 . S
C1063 C1062 1.400 . S
C1063 C1064 1.398 . S
C1063 C1069 1.491 . S
C1064 H1055 0.950 . S
C1064 C1063 1.398 . S
C1064 C1065 1.391 . S
C1065 H1053 0.950 . S
C1065 C1061 1.393 . S
C1065 C1064 1.391 . S
C1066 H1056 0.950 . S
C1066 C1067 1.386 . S
C1066 C1068 1.391 . S
C1067 C1066 1.386 . S
C1067 C1071 1.393 . S
C1068 H1057 0.950 . S
C1068 C1066 1.391 . S
C1068 C1069 1.400 . S
C1069 C1063 1.491 . S
C1069 C1068 1.400 . S
C1069 C1070 1.398 . S
C1070 H1058 0.950 . S
C1070 C1069 1.398 . S
C1070 C1071 1.391 . S
C1071 H1059 0.950 . S
C1071 C1067 1.393 . S
C1071 C1070 1.391 . S
H1072 C1080 0.950 . S
H1073 C1085 0.950 . S
H1074 C1082 0.950 . S
H1075 C1084 0.950 . S
H1076 C1086 0.950 . S
H1077 C1088 0.950 . S
H1078 C1090 0.950 . S
H1079 C1091 0.950 . S
C1080 H1072 0.950 . S
C1080 C1081 1.386 . S
C1080 C1082 1.391 . S
C1081 C1080 1.386 . S
C1081 C1085 1.393 . S
C1082 H1074 0.950 . S
C1082 C1080 1.391 . S
C1082 C1083 1.400 . S
C1083 C1082 1.400 . S
C1083 C1084 1.398 . S
C1083 C1089 1.491 . S
C1084 H1075 0.950 . S
C1084 C1083 1.398 . S
C1084 C1085 1.391 . S
C1085 H1073 0.950 . S
C1085 C1081 1.393 . S
C1085 C1084 1.391 . S
C1086 H1076 0.950 . S
C1086 C1087 1.386 . S
C1086 C1088 1.391 . S
C1087 C1086 1.386 . S
C1087 C1091 1.393 . S
C1088 H1077 0.950 . S
C1088 C1086 1.391 . S
C1088 C1089 1.400 . S
C1089 C1083 1.491 . S
C1089 C1088 1.400 . S
C1089 C1090 1.398 . S
C1090 H1078 0.950 . S
C1090 C1089 1.398 . S
C1090 C1091 1.391 . S
C1091 H1079 0.950 . S
C1091 C1087 1.393 . S
C1091 C1090 1.391 . S
H1092 C1100 0.950 . S
H1093 C1105 0.950 . S
H1094 C1102 0.950 . S
H1095 C1104 0.950 . S
H1096 C1106 0.950 . S
H1097 C1108 0.950 . S
H1098 C1110 0.950 . S
H1099 C1111 0.950 . S
C1100 H1092 0.950 . S
C1100 C1101 1.386 . S
C1100 C1102 1.391 . S
C1101 C1100 1.386 . S
C1101 C1105 1.393 . S
C1102 H1094 0.950 . S
C1102 C1100 1.391 . S
C1102 C1103 1.400 . S
C1103 C1102 1.400 . S
C1103 C1104 1.398 . S
C1103 C1109 1.497 . S
C1104 H1095 0.950 . S
C1104 C1103 1.398 . S
C1104 C1105 1.391 . S
C1105 H1093 0.950 . S
C1105 C1101 1.393 . S
C1105 C1104 1.391 . S
C1106 H1096 0.950 . S
C1106 C1107 1.386 . S
C1106 C1108 1.391 1_455 S
C1107 C1106 1.386 . S
C1107 C1111 1.393 . S
C1108 H1097 0.950 . S
C1108 C1106 1.391 1_655 S
C1108 C1109 1.401 . S
C1109 C1103 1.497 . S
C1109 C1108 1.401 . S
C1109 C1110 1.391 1_655 S
C1110 H1098 0.950 . S
C1110 C1109 1.391 1_455 S
C1110 C1111 1.391 . S
C1111 H1099 0.950 . S
C1111 C1107 1.393 . S
C1111 C1110 1.391 . S
H1112 C1120 0.950 . S
H1113 C1125 0.950 . S
H1114 C1122 0.950 . S
H1115 C1124 0.950 . S
H1116 C1126 0.950 . S
H1117 C1128 0.950 . S
H1118 C1130 0.950 . S
H1119 C1131 0.950 . S
C1120 H1112 0.950 . S
C1120 C1121 1.386 . S
C1120 C1122 1.391 . S
C1121 C1120 1.386 . S
C1121 C1125 1.393 . S
C1122 H1114 0.950 . S
C1122 C1120 1.391 . S
C1122 C1123 1.400 . S
C1123 C1122 1.400 . S
C1123 C1124 1.398 . S
C1123 C1129 1.491 . S
C1124 H1115 0.950 . S
C1124 C1123 1.398 . S
C1124 C1125 1.391 . S
C1125 H1113 0.950 . S
C1125 C1121 1.393 . S
C1125 C1124 1.391 . S
C1126 H1116 0.950 . S
C1126 C1127 1.386 . S
C1126 C1128 1.391 . S
C1127 C1126 1.386 . S
C1127 C1131 1.393 . S
C1128 H1117 0.950 . S
C1128 C1126 1.391 . S
C1128 C1129 1.400 . S
C1129 C1123 1.491 . S
C1129 C1128 1.400 . S
C1129 C1130 1.398 . S
C1130 H1118 0.950 . S
C1130 C1129 1.398 . S
C1130 C1131 1.391 . S
C1131 H1119 0.950 . S
C1131 C1127 1.393 . S
C1131 C1130 1.391 . S
H1132 C1140 0.950 1_554 S
H1133 C1145 0.950 . S
H1134 C1142 0.950 . S
H1135 C1144 0.950 . S
H1136 C1146 0.950 . S
H1137 C1148 0.950 . S
H1138 C1150 0.950 . S
H1139 C1151 0.950 1_455 S
C1140 H1132 0.950 1_556 S
C1140 C1141 1.386 . S
C1140 C1142 1.391 . S
C1141 C1140 1.386 . S
C1141 C1145 1.393 . S
C1142 H1134 0.950 . S
C1142 C1140 1.391 . S
C1142 C1143 1.400 . S
C1143 C1142 1.400 . S
C1143 C1144 1.398 . S
C1143 C1149 1.491 . S
C1144 H1135 0.950 . S
C1144 C1143 1.398 . S
C1144 C1145 1.391 . S
C1145 H1133 0.950 . S
C1145 C1141 1.393 . S
C1145 C1144 1.391 . S
C1146 H1136 0.950 . S
C1146 C1147 1.386 . S
C1146 C1148 1.391 . S
C1147 C1146 1.386 . S
C1147 C1151 1.393 . S
C1148 H1137 0.950 . S
C1148 C1146 1.391 . S
C1148 C1149 1.400 . S
C1149 C1143 1.491 . S
C1149 C1148 1.400 . S
C1149 C1150 1.398 . S
C1150 H1138 0.950 . S
C1150 C1149 1.398 . S
C1150 C1151 1.391 . S
C1151 H1139 0.950 1_655 S
C1151 C1147 1.393 . S
C1151 C1150 1.391 . S
H1152 C1160 0.950 . S
H1153 C1165 0.950 . S
H1154 C1162 0.950 . S
H1155 C1164 0.950 . S
H1156 C1166 0.950 . S
H1157 C1168 0.950 . S
H1158 C1170 0.950 . S
H1159 C1171 0.950 . S
C1160 H1152 0.950 . S
C1160 C1161 1.386 . S
C1160 C1162 1.391 . S
C1161 C1160 1.386 . S
C1161 C1165 1.393 . S
C1162 H1154 0.950 . S
C1162 C1160 1.391 . S
C1162 C1163 1.400 . S
C1163 C1162 1.400 . S
C1163 C1164 1.398 . S
C1163 C1169 1.491 . S
C1164 H1155 0.950 . S
C1164 C1163 1.398 . S
C1164 C1165 1.391 . S
C1165 H1153 0.950 . S
C1165 C1161 1.393 . S
C1165 C1164 1.391 . S
C1166 H1156 0.950 . S
C1166 C1167 1.386 . S
C1166 C1168 1.391 . S
C1167 C1166 1.386 . S
C1167 C1171 1.393 . S
C1168 H1157 0.950 . S
C1168 C1166 1.391 . S
C1168 C1169 1.400 . S
C1169 C1163 1.491 . S
C1169 C1168 1.400 . S
C1169 C1170 1.398 . S
C1170 H1158 0.950 . S
C1170 C1169 1.398 . S
C1170 C1171 1.391 . S
C1171 H1159 0.950 . S
C1171 C1167 1.393 . S
C1171 C1170 1.391 . S
H1172 C1180 0.950 . S
H1173 C1185 0.950 . S
H1174 C1182 0.950 1_556 S
H1175 C1184 0.950 . S
H1176 C1186 0.950 . S
H1177 C1188 0.950 . S
H1178 C1190 0.950 . S
H1179 C1191 0.950 . S
C1180 H1172 0.950 . S
C1180 C1181 1.386 . S
C1180 C1182 1.391 . S
C1181 C1180 1.386 . S
C1181 C1185 1.393 . S
C1182 H1174 0.950 1_554 S
C1182 C1180 1.391 . S
C1182 C1183 1.395 1_554 S
C1183 C1182 1.395 1_556 S
C1183 C1184 1.387 1_556 S
C1183 C1189 1.506 . S
C1184 H1175 0.950 . S
C1184 C1183 1.387 1_554 S
C1184 C1185 1.391 . S
C1185 H1173 0.950 . S
C1185 C1181 1.393 . S
C1185 C1184 1.391 . S
C1186 H1176 0.950 . S
C1186 C1187 1.386 . S
C1186 C1188 1.391 . S
C1187 C1186 1.386 . S
C1187 C1191 1.393 . S
C1188 H1177 0.950 . S
C1188 C1186 1.391 . S
C1188 C1189 1.400 . S
C1189 C1183 1.506 . S
C1189 C1188 1.400 . S
C1189 C1190 1.398 . S
C1190 H1178 0.950 . S
C1190 C1189 1.398 . S
C1190 C1191 1.391 . S
C1191 H1179 0.950 . S
C1191 C1187 1.393 . S
C1191 C1190 1.391 . S
H1192 C1200 0.950 . S
H1193 C1205 0.950 . S
H1194 C1202 0.950 . S
H1195 C1204 0.950 . S
H1196 C1206 0.950 . S
H1197 C1208 0.950 . S
H1198 C1210 0.950 . S
H1199 C1211 0.950 . S
C1200 H1192 0.950 . S
C1200 C1201 1.386 . S
C1200 C1202 1.391 . S
C1201 C1200 1.386 . S
C1201 C1205 1.393 . S
C1202 H1194 0.950 . S
C1202 C1200 1.391 . S
C1202 C1203 1.400 . S
C1203 C1202 1.400 . S
C1203 C1204 1.398 . S
C1203 C1209 1.491 . S
C1204 H1195 0.950 . S
C1204 C1203 1.398 . S
C1204 C1205 1.391 . S
C1205 H1193 0.950 . S
C1205 C1201 1.393 . S
C1205 C1204 1.391 . S
C1206 H1196 0.950 . S
C1206 C1207 1.386 . S
C1206 C1208 1.391 . S
C1207 C1206 1.386 . S
C1207 C1211 1.393 . S
C1208 H1197 0.950 . S
C1208 C1206 1.391 . S
C1208 C1209 1.400 . S
C1209 C1203 1.491 . S
C1209 C1208 1.400 . S
C1209 C1210 1.398 . S
C1210 H1198 0.950 . S
C1210 C1209 1.398 . S
C1210 C1211 1.391 . S
C1211 H1199 0.950 . S
C1211 C1207 1.393 . S
C1211 C1210 1.391 . S
H1212 C1220 0.950 . S
H1213 C1225 0.960 . S
H1214 C1222 0.950 . S
H1215 C1224 0.950 . S
H1216 C1226 0.950 . S
H1217 C1228 0.950 . S
H1218 C1230 0.950 . S
H1219 C1231 0.950 . S
C1220 H1212 0.950 . S
C1220 C1221 1.386 1_554 S
C1220 C1222 1.391 . S
C1221 C1220 1.386 1_556 S
C1221 C1225 1.395 . S
C1222 H1214 0.950 . S
C1222 C1220 1.391 . S
C1222 C1223 1.400 . S
C1223 C1222 1.400 . S
C1223 C1224 1.398 . S
C1223 C1229 1.491 . S
C1224 H1215 0.950 . S
C1224 C1223 1.398 . S
C1224 C1225 1.378 1_554 S
C1225 H1213 0.960 . S
C1225 C1221 1.395 . S
C1225 C1224 1.378 1_556 S
C1226 H1216 0.950 . S
C1226 C1227 1.386 . S
C1226 C1228 1.391 . S
C1227 C1226 1.386 . S
C1227 C1231 1.393 . S
C1228 H1217 0.950 . S
C1228 C1226 1.391 . S
C1228 C1229 1.400 . S
C1229 C1223 1.491 . S
C1229 C1228 1.400 . S
C1229 C1230 1.398 . S
C1230 H1218 0.950 . S
C1230 C1229 1.398 . S
C1230 C1231 1.391 . S
C1231 H1219 0.950 . S
C1231 C1227 1.393 . S
C1231 C1230 1.391 . S
H1232 C1240 0.950 . S
H1233 C1245 0.950 . S
H1234 C1242 0.950 . S
H1235 C1244 0.950 . S
H1236 C1246 0.950 . S
H1237 C1248 0.950 . S
H1238 C1250 0.950 . S
H1239 C1251 0.950 . S
C1240 H1232 0.950 . S
C1240 C1241 1.386 . S
C1240 C1242 1.391 . S
C1241 C1240 1.386 . S
C1241 C1245 1.393 . S
C1242 H1234 0.950 . S
C1242 C1240 1.391 . S
C1242 C1243 1.400 . S
C1243 C1242 1.400 . S
C1243 C1244 1.398 . S
C1243 C1249 1.491 . S
C1244 H1235 0.950 . S
C1244 C1243 1.398 . S
C1244 C1245 1.391 . S
C1245 H1233 0.950 . S
C1245 C1241 1.393 . S
C1245 C1244 1.391 . S
C1246 H1236 0.950 . S
C1246 C1247 1.386 . S
C1246 C1248 1.391 . S
C1247 C1246 1.386 . S
C1247 C1251 1.393 . S
C1248 H1237 0.950 . S
C1248 C1246 1.391 . S
C1248 C1249 1.400 . S
C1249 C1243 1.491 . S
C1249 C1248 1.400 . S
C1249 C1250 1.398 . S
C1250 H1238 0.950 . S
C1250 C1249 1.398 . S
C1250 C1251 1.391 . S
C1251 H1239 0.950 . S
C1251 C1247 1.393 . S
C1251 C1250 1.391 . S
H1252 C1260 0.950 . S
H1253 C1265 0.950 . S
H1254 C1262 0.950 . S
H1255 C1264 0.950 . S
H1256 C1266 0.950 . S
H1257 C1268 0.950 . S
H1258 C1270 0.950 . S
H1259 C1271 0.950 . S
C1260 H1252 0.950 . S
C1260 C1261 1.386 . S
C1260 C1262 1.391 1_556 S
C1261 C1260 1.386 . S
C1261 C1265 1.393 . S
C1262 H1254 0.950 . S
C1262 C1260 1.391 1_554 S
C1262 C1263 1.400 . S
C1263 C1262 1.400 . S
C1263 C1264 1.398 . S
C1263 C1269 1.491 . S
C1264 H1255 0.950 . S
C1264 C1263 1.398 . S
C1264 C1265 1.391 1_554 S
C1265 H1253 0.950 . S
C1265 C1261 1.393 . S
C1265 C1264 1.391 1_556 S
C1266 H1256 0.950 . S
C1266 C1267 1.386 . S
C1266 C1268 1.391 . S
C1267 C1266 1.386 . S
C1267 C1271 1.393 . S
C1268 H1257 0.950 . S
C1268 C1266 1.391 . S
C1268 C1269 1.400 . S
C1269 C1263 1.491 . S
C1269 C1268 1.400 . S
C1269 C1270 1.398 . S
C1270 H1258 0.950 . S
C1270 C1269 1.398 . S
C1270 C1271 1.391 . S
C1271 H1259 0.950 . S
C1271 C1267 1.393 . S
C1271 C1270 1.391 . S
H1272 C1280 0.950 . S
H1273 C1285 0.950 . S
H1274 C1282 0.950 . S
H1275 C1284 0.950 . S
H1276 C1286 0.950 . S
H1277 C1288 0.950 . S
H1278 C1290 0.950 . S
H1279 C1291 0.950 . S
C1280 H1272 0.950 . S
C1280 C1281 1.386 . S
C1280 C1282 1.391 . S
C1281 C1280 1.386 . S
C1281 C1285 1.393 . S
C1282 H1274 0.950 . S
C1282 C1280 1.391 . S
C1282 C1283 1.400 . S
C1283 C1282 1.400 . S
C1283 C1284 1.398 . S
C1283 C1289 1.491 . S
C1284 H1275 0.950 . S
C1284 C1283 1.398 . S
C1284 C1285 1.391 . S
C1285 H1273 0.950 . S
C1285 C1281 1.393 . S
C1285 C1284 1.391 . S
C1286 H1276 0.950 . S
C1286 C1287 1.386 . S
C1286 C1288 1.391 . S
C1287 C1286 1.386 . S
C1287 C1291 1.393 . S
C1288 H1277 0.950 . S
C1288 C1286 1.391 . S
C1288 C1289 1.400 . S
C1289 C1283 1.491 . S
C1289 C1288 1.400 . S
C1289 C1290 1.398 . S
C1290 H1278 0.950 . S
C1290 C1289 1.398 . S
C1290 C1291 1.391 . S
C1291 H1279 0.950 . S
C1291 C1287 1.393 . S
C1291 C1290 1.391 . S
H1292 C1300 0.950 . S
H1293 C1305 0.950 . S
H1294 C1302 0.950 . S
H1295 C1304 0.950 . S
H1296 C1306 0.950 . S
H1297 C1308 0.950 . S
H1298 C1310 0.950 . S
H1299 C1311 0.950 . S
C1300 H1292 0.950 . S
C1300 C1301 1.386 . S
C1300 C1302 1.391 . S
C1301 C1300 1.386 . S
C1301 C1305 1.393 . S
C1302 H1294 0.950 . S
C1302 C1300 1.391 . S
C1302 C1303 1.400 . S
C1303 C1302 1.400 . S
C1303 C1304 1.398 . S
C1303 C1309 1.491 . S
C1304 H1295 0.950 . S
C1304 C1303 1.398 . S
C1304 C1305 1.391 . S
C1305 H1293 0.950 . S
C1305 C1301 1.393 . S
C1305 C1304 1.391 . S
C1306 H1296 0.950 . S
C1306 C1307 1.386 . S
C1306 C1308 1.391 . S
C1307 C1306 1.386 . S
C1307 C1311 1.393 . S
C1308 H1297 0.950 . S
C1308 C1306 1.391 . S
C1308 C1309 1.400 . S
C1309 C1303 1.491 . S
C1309 C1308 1.400 . S
C1309 C1310 1.398 . S
C1310 H1298 0.950 . S
C1310 C1309 1.398 . S
C1310 C1311 1.391 . S
C1311 H1299 0.950 . S
C1311 C1307 1.393 . S
C1311 C1310 1.391 . S
H1312 C1320 0.950 . S
H1313 C1325 0.950 . S
H1314 C1322 0.950 . S
H1315 C1324 0.950 . S
H1316 C1326 0.950 . S
H1317 C1328 0.950 . S
H1318 C1330 0.950 . S
H1319 C1331 0.950 . S
C1320 H1312 0.950 . S
C1320 C1321 1.386 . S
C1320 C1322 1.391 . S
C1321 C1320 1.386 . S
C1321 C1325 1.393 . S
C1322 H1314 0.950 . S
C1322 C1320 1.391 . S
C1322 C1323 1.400 . S
C1323 C1322 1.400 . S
C1323 C1324 1.398 . S
C1323 C1329 1.491 . S
C1324 H1315 0.950 . S
C1324 C1323 1.398 . S
C1324 C1325 1.391 . S
C1325 H1313 0.950 . S
C1325 C1321 1.393 . S
C1325 C1324 1.391 . S
C1326 H1316 0.950 . S
C1326 C1327 1.386 . S
C1326 C1328 1.391 . S
C1327 C1326 1.386 . S
C1327 C1331 1.393 . S
C1328 H1317 0.950 . S
C1328 C1326 1.391 . S
C1328 C1329 1.400 . S
C1329 C1323 1.491 . S
C1329 C1328 1.400 . S
C1329 C1330 1.398 . S
C1330 H1318 0.950 . S
C1330 C1329 1.398 . S
C1330 C1331 1.391 . S
C1331 H1319 0.950 . S
C1331 C1327 1.393 . S
C1331 C1330 1.391 . S
H1332 C1340 0.950 . S
H1333 C1345 0.950 . S
H1334 C1342 0.950 . S
H1335 C1344 0.950 . S
H1336 C1346 0.950 . S
H1337 C1348 0.950 . S
H1338 C1350 0.950 . S
H1339 C1351 0.950 . S
C1340 H1332 0.950 . S
C1340 C1341 1.386 . S
C1340 C1342 1.391 . S
C1341 C1340 1.386 . S
C1341 C1345 1.393 . S
C1342 H1334 0.950 . S
C1342 C1340 1.391 . S
C1342 C1343 1.400 . S
C1343 C1342 1.400 . S
C1343 C1344 1.398 . S
C1343 C1349 1.491 . S
C1344 H1335 0.950 . S
C1344 C1343 1.398 . S
C1344 C1345 1.391 . S
C1345 H1333 0.950 . S
C1345 C1341 1.393 . S
C1345 C1344 1.391 . S
C1346 H1336 0.950 . S
C1346 C1347 1.386 . S
C1346 C1348 1.391 . S
C1347 C1346 1.386 . S
C1347 C1351 1.393 . S
C1348 H1337 0.950 . S
C1348 C1346 1.391 . S
C1348 C1349 1.400 . S
C1349 C1343 1.491 . S
C1349 C1348 1.400 . S
C1349 C1350 1.398 . S
C1350 H1338 0.950 . S
C1350 C1349 1.398 . S
C1350 C1351 1.391 . S
C1351 H1339 0.950 . S
C1351 C1347 1.393 . S
C1351 C1350 1.391 . S
H1352 C1360 0.950 . S
H1353 C1365 0.950 . S
H1354 C1362 0.950 . S
H1355 C1364 0.950 . S
H1356 C1366 0.950 1_554 S
H1357 C1368 0.950 . S
H1358 C1370 0.950 . S
H1359 C1371 0.950 . S
C1360 H1352 0.950 . S
C1360 C1361 1.386 . S
C1360 C1362 1.391 . S
C1361 C1360 1.386 . S
C1361 C1365 1.393 . S
C1362 H1354 0.950 . S
C1362 C1360 1.391 . S
C1362 C1363 1.400 . S
C1363 C1362 1.400 . S
C1363 C1364 1.398 . S
C1363 C1369 1.491 . S
C1364 H1355 0.950 . S
C1364 C1363 1.398 . S
C1364 C1365 1.391 . S
C1365 H1353 0.950 . S
C1365 C1361 1.393 . S
C1365 C1364 1.391 . S
C1366 H1356 0.950 1_556 S
C1366 C1367 1.386 . S
C1366 C1368 1.391 . S
C1367 C1366 1.386 . S
C1367 C1371 1.393 . S
C1368 H1357 0.950 . S
C1368 C1366 1.391 . S
C1368 C1369 1.400 . S
C1369 C1363 1.491 . S
C1369 C1368 1.400 . S
C1369 C1370 1.398 . S
C1370 H1358 0.950 . S
C1370 C1369 1.398 . S
C1370 C1371 1.391 . S
C1371 H1359 0.950 . S
C1371 C1367 1.393 . S
C1371 C1370 1.391 . S
H1372 C1380 0.950 . S
H1373 C1385 0.950 . S
H1374 C1382 0.950 . S
H1375 C1384 0.950 . S
H1376 C1386 0.950 . S
H1377 C1388 0.950 . S
H1378 C1390 0.950 . S
H1379 C1391 0.950 . S
C1380 H1372 0.950 . S
C1380 C1381 1.386 . S
C1380 C1382 1.391 . S
C1381 C1380 1.386 . S
C1381 C1385 1.393 . S
C1382 H1374 0.950 . S
C1382 C1380 1.391 . S
C1382 C1383 1.400 . S
C1383 C1382 1.400 . S
C1383 C1384 1.398 . S
C1383 C1389 1.491 . S
C1384 H1375 0.950 . S
C1384 C1383 1.398 . S
C1384 C1385 1.391 . S
C1385 H1373 0.950 . S
C1385 C1381 1.393 . S
C1385 C1384 1.391 . S
C1386 H1376 0.950 . S
C1386 C1387 1.386 . S
C1386 C1388 1.391 . S
C1387 C1386 1.386 . S
C1387 C1391 1.393 . S
C1388 H1377 0.950 . S
C1388 C1386 1.391 . S
C1388 C1389 1.400 . S
C1389 C1383 1.491 . S
C1389 C1388 1.400 . S
C1389 C1390 1.398 . S
C1390 H1378 0.950 . S
C1390 C1389 1.398 . S
C1390 C1391 1.391 . S
C1391 H1379 0.950 . S
C1391 C1387 1.393 . S
C1391 C1390 1.391 . S
H1392 C1400 0.950 . S
H1393 C1405 0.950 . S
H1394 C1402 0.950 . S
H1395 C1404 0.950 . S
H1396 C1406 0.950 . S
H1397 C1408 0.950 . S
H1398 C1410 0.950 . S
H1399 C1411 0.950 . S
C1400 H1392 0.950 . S
C1400 C1401 1.386 . S
C1400 C1402 1.391 . S
C1401 C1400 1.386 . S
C1401 C1405 1.393 . S
C1402 H1394 0.950 . S
C1402 C1400 1.391 . S
C1402 C1403 1.400 . S
C1403 C1402 1.400 . S
C1403 C1404 1.398 . S
C1403 C1409 1.491 . S
C1404 H1395 0.950 . S
C1404 C1403 1.398 . S
C1404 C1405 1.391 . S
C1405 H1393 0.950 . S
C1405 C1401 1.393 . S
C1405 C1404 1.391 . S
C1406 H1396 0.950 . S
C1406 C1407 1.386 . S
C1406 C1408 1.391 . S
C1407 C1406 1.386 . S
C1407 C1411 1.393 . S
C1408 H1397 0.950 . S
C1408 C1406 1.391 . S
C1408 C1409 1.400 . S
C1409 C1403 1.491 . S
C1409 C1408 1.400 . S
C1409 C1410 1.398 . S
C1410 H1398 0.950 . S
C1410 C1409 1.398 . S
C1410 C1411 1.391 . S
C1411 H1399 0.950 . S
C1411 C1407 1.393 . S
C1411 C1410 1.391 . S
H1412 C1420 0.950 . S
H1413 C1425 0.950 . S
H1414 C1422 0.950 . S
H1415 C1424 0.950 . S
H1416 C1426 0.950 1_565 S
H1417 C1428 0.950 . S
H1418 C1430 0.950 . S
H1419 C1431 0.950 . S
C1420 H1412 0.950 . S
C1420 C1421 1.386 . S
C1420 C1422 1.391 . S
C1421 C1420 1.386 . S
C1421 C1425 1.393 . S
C1422 H1414 0.950 . S
C1422 C1420 1.391 . S
C1422 C1423 1.400 . S
C1423 C1422 1.400 . S
C1423 C1424 1.398 . S
C1423 C1429 1.491 . S
C1424 H1415 0.950 . S
C1424 C1423 1.398 . S
C1424 C1425 1.391 . S
C1425 H1413 0.950 . S
C1425 C1421 1.393 . S
C1425 C1424 1.391 . S
C1426 H1416 0.950 1_545 S
C1426 C1427 1.386 . S
C1426 C1428 1.391 . S
C1427 C1426 1.386 . S
C1427 C1431 1.393 . S
C1428 H1417 0.950 . S
C1428 C1426 1.391 . S
C1428 C1429 1.400 . S
C1429 C1423 1.491 . S
C1429 C1428 1.400 . S
C1429 C1430 1.398 . S
C1430 H1418 0.950 . S
C1430 C1429 1.398 . S
C1430 C1431 1.391 . S
C1431 H1419 0.950 . S
C1431 C1427 1.393 . S
C1431 C1430 1.391 . S
C487 C312 2.054 . S
C481 C101 2.061 . S
C507 C327 1.481 . S
C501 C125 1.467 . S
C521 C139 2.236 . S
C527 C340 2.208 . S
C547 C354 1.705 . S
C541 C82 1.727 . S
C567 C366 1.793 . S
C561 C196 1.946 . S
C587 C380 1.579 . S
C581 C234 1.650 . S
C601 C220 1.131 . S
C607 C394 1.169 . S
C627 C409 1.525 . S
C621 C173 1.542 . S
C641 C211 1.410 . S
C647 C425 1.352 . S
C667 C438 1.165 . S
C661 C182 1.023 . S
C681 C201 1.471 . S
C687 C423 1.577 . S
C707 C436 1.661 . S
C701 C239 1.635 . S
C721 C135 2.045 . S
C727 C452 2.044 . S
C741 C87 1.834 . S
C747 C451 1.885 . S
C761 C106 1.321 . S
C767 C450 1.461 . S
C781 C116 1.309 . S
C787 C453 1.323 . S
C801 C59 2.111 . S
C807 C355 2.110 1_565 S
C821 C268 2.062 . S
C827 C353 2.044 . S
C847 C313 1.164 . S
C841 C291 1.218 . S
C867 C324 1.697 . S
C861 C163 1.607 . S
C881 C78 1.858 . S
C887 C369 1.861 . S
C907 C410 1.651 . S
C901 C215 1.655 . S
C927 C367 1.921 . S
C921 C177 1.937 . S
C947 C395 1.641 . S
C941 C230 1.673 . S
C967 C396 2.059 . S
C961 C272 2.064 . S
C981 C296 1.474 . S
C987 C411 1.490 . S
C1001 C158 2.236 . S
C1007 C368 2.197 . S
C1027 C382 1.690 . S
C1021 C253 1.715 . S
C1041 C63 1.945 . S
C1047 C338 1.802 . S
C1067 C352 1.597 . S
C1061 C6 1.644 . S
C1087 C310 1.164 . S
C1081 C30 1.102 . S
C1107 C325 1.528 . S
C1101 C40 1.538 . S
C1121 C21 1.403 . S
C1127 C439 1.344 . S
C1141 C49 1.063 . S
C1147 C424 1.178 . S
C1161 C68 1.473 . S
C1167 C437 1.578 . S
C1181 C11 1.632 . S
C1187 C422 1.656 . S
C1207 C466 2.039 . S
C1201 C154 2.049 . S
C1227 C465 1.882 . S
C1221 C258 1.851 . S
C1247 C464 1.464 . S
C1241 C277 1.326 . S
C1261 C287 1.307 . S
C1267 C467 1.322 . S
C1281 C192 2.109 . S
C1287 C383 2.109 . S
C1307 C381 2.047 . S
C1301 C97 2.070 . S
C1327 C397 1.193 . S
C1321 C120 1.237 . S
C1347 C408 1.712 . S
C1341 C144 1.595 . S
C1361 C249 1.842 . S
C1367 C341 1.846 . S
C1387 C326 1.650 . S
C1381 C25 1.661 . S
C1401 C44 1.928 . S
C1407 C339 1.900 . S
C1427 C311 1.638 1_545 S
C1421 C2 1.674 . S
