# Generated by pormake.
# Topology apo, (3,6)-cn, num edge types: 1
# Building blocks:
#     Node 0, Type 0, BuildingBlock: VETTIZ_charged_linker_0, # of connection points: 3
#     Node 1, Type 0, BuildingBlock: VETTIZ_charged_linker_0, # of connection points: 3
#     Node 2, Type 0, BuildingBlock: VETTIZ_charged_linker_0, # of connection points: 3
#     Node 3, Type 0, BuildingBlock: VETTIZ_charged_linker_0, # of connection points: 3
#     Node 4, Type 0, BuildingBlock: VETTIZ_charged_linker_0, # of connection points: 3
#     Node 5, Type 0, BuildingBlock: VETTIZ_charged_linker_0, # of connection points: 3
#     Node 6, Type 0, BuildingBlock: VETTIZ_charged_linker_0, # of connection points: 3
#     Node 7, Type 0, BuildingBlock: VETTIZ_charged_linker_0, # of connection points: 3
#     Node 8, Type 1, BuildingBlock: KUMBUR_clean_sbu_1, # of connection points: 6
#     Node 9, Type 1, BuildingBlock: KUMBUR_clean_sbu_1, # of connection points: 6
#     Node 10, Type 1, BuildingBlock: KUMBUR_clean_sbu_1, # of connection points: 6
#     Node 11, Type 1, BuildingBlock: KUMBUR_clean_sbu_1, # of connection points: 6
#     Edge 12, Type (0, 1), BuildingBlock: MIFKUJ_clean_linker_0, # of connection points: 2
#     Edge 13, Type (0, 1), BuildingBlock: MIFKUJ_clean_linker_0, # of connection points: 2
#     Edge 14, Type (0, 1), BuildingBlock: MIFKUJ_clean_linker_0, # of connection points: 2
#     Edge 15, Type (0, 1), BuildingBlock: MIFKUJ_clean_linker_0, # of connection points: 2
#     Edge 16, Type (0, 1), BuildingBlock: MIFKUJ_clean_linker_0, # of connection points: 2
#     Edge 17, Type (0, 1), BuildingBlock: MIFKUJ_clean_linker_0, # of connection points: 2
#     Edge 18, Type (0, 1), BuildingBlock: MIFKUJ_clean_linker_0, # of connection points: 2
#     Edge 19, Type (0, 1), BuildingBlock: MIFKUJ_clean_linker_0, # of connection points: 2
#     Edge 20, Type (0, 1), BuildingBlock: MIFKUJ_clean_linker_0, # of connection points: 2
#     Edge 21, Type (0, 1), BuildingBlock: MIFKUJ_clean_linker_0, # of connection points: 2
#     Edge 22, Type (0, 1), BuildingBlock: MIFKUJ_clean_linker_0, # of connection points: 2
#     Edge 23, Type (0, 1), BuildingBlock: MIFKUJ_clean_linker_0, # of connection points: 2
#     Edge 24, Type (0, 1), BuildingBlock: MIFKUJ_clean_linker_0, # of connection points: 2
#     Edge 25, Type (0, 1), BuildingBlock: MIFKUJ_clean_linker_0, # of connection points: 2
#     Edge 26, Type (0, 1), BuildingBlock: MIFKUJ_clean_linker_0, # of connection points: 2
#     Edge 27, Type (0, 1), BuildingBlock: MIFKUJ_clean_linker_0, # of connection points: 2
#     Edge 28, Type (0, 1), BuildingBlock: MIFKUJ_clean_linker_0, # of connection points: 2
#     Edge 29, Type (0, 1), BuildingBlock: MIFKUJ_clean_linker_0, # of connection points: 2
#     Edge 30, Type (0, 1), BuildingBlock: MIFKUJ_clean_linker_0, # of connection points: 2
#     Edge 31, Type (0, 1), BuildingBlock: MIFKUJ_clean_linker_0, # of connection points: 2
#     Edge 32, Type (0, 1), BuildingBlock: MIFKUJ_clean_linker_0, # of connection points: 2
#     Edge 33, Type (0, 1), BuildingBlock: MIFKUJ_clean_linker_0, # of connection points: 2
#     Edge 34, Type (0, 1), BuildingBlock: MIFKUJ_clean_linker_0, # of connection points: 2
#     Edge 35, Type (0, 1), BuildingBlock: MIFKUJ_clean_linker_0, # of connection points: 2
# Relax obj value: 0.011
# Max RMSD: 0.085
# Mean RMSD: 0.069
data_MOF--net-apo--node1-KUMBUR_clean_sbu_1--node2-VETTIZ_charged_linker_0--edge1-MIFKUJ_clean_linker_0
_symmetry_space_group_name_H-M    P1
_symmetry_Int_Tables_number       1
_symmetry_cell_setting            triclinic
loop_
_symmetry_equiv_pos_as_xyz
'x, y, z'
_cell_length_a     35.893955
_cell_length_b     65.033529
_cell_length_c     77.314565
_cell_angle_alpha  90.041224
_cell_angle_beta   89.94565
_cell_angle_gamma 90.302531
loop_
_atom_site_label
_atom_site_type_symbol
_atom_site_fract_x
_atom_site_fract_y
_atom_site_fract_z
_atom_type_partial_charge
C0 C 0.3045 0.36494 0.47518 0.0
C1 C 0.32509 0.37914 0.4852 0.0
C2 C 0.34013 0.39667 0.47693 0.0
C3 C 0.3134 0.38604 0.44953 0.0
C4 C 0.29919 0.36864 0.45745 0.0
C5 C 0.27874 0.35494 0.44485 0.0
H6 H 0.21314 0.33892 0.36351 0.0
C7 C 0.30265 0.38546 0.43106 0.0
C8 C 0.28242 0.36722 0.42819 0.0
H9 H 0.2054 0.29795 0.4073 0.0
H10 H 0.23922 0.32248 0.42502 0.0
H11 H 0.1992 0.38226 0.38472 0.0
H12 H 0.29681 0.34917 0.36872 0.0
H13 H 0.30814 0.37535 0.36702 0.0
H14 H 0.27101 0.36483 0.35392 0.0
H15 H 0.21311 0.37951 0.36252 0.0
H16 H 0.231 0.40005 0.37583 0.0
C17 C 0.2377 0.35312 0.45083 0.0
C18 C 0.29949 0.33414 0.4438 0.0
C19 C 0.33933 0.44468 0.39132 0.0
C20 C 0.33395 0.44829 0.37355 0.0
C21 C 0.31371 0.43375 0.36375 0.0
C22 C 0.29917 0.41593 0.37146 0.0
C23 C 0.30505 0.41242 0.38918 0.0
C24 C 0.3249 0.42666 0.3988 0.0
C25 C 0.32921 0.42007 0.41735 0.0
C26 C 0.30868 0.39956 0.41727 0.0
C27 C 0.29442 0.39523 0.40076 0.0
C28 C 0.30944 0.43615 0.4289 0.0
C29 C 0.37134 0.41749 0.42115 0.0
C30 C 0.21837 0.33539 0.37698 0.0
C31 C 0.20629 0.31664 0.38411 0.0
C32 C 0.21445 0.31233 0.40156 0.0
C33 C 0.23405 0.32659 0.41181 0.0
C34 C 0.24614 0.34527 0.40447 0.0
C35 C 0.23851 0.34929 0.38727 0.0
C36 C 0.25532 0.36931 0.38133 0.0
C37 C 0.27385 0.37682 0.39783 0.0
C38 C 0.2681 0.3628 0.41142 0.0
C39 C 0.22321 0.38361 0.37566 0.0
C40 C 0.28417 0.36461 0.36692 0.0
H41 H 0.34649 0.41386 0.45386 0.0
H42 H 0.29233 0.35134 0.48099 0.0
H43 H 0.32992 0.33624 0.44595 0.0
H44 H 0.29742 0.3269 0.43089 0.0
H45 H 0.28906 0.32319 0.45373 0.0
H46 H 0.22696 0.36839 0.45492 0.0
H47 H 0.23506 0.3425 0.46201 0.0
H48 H 0.21879 0.34783 0.44049 0.0
H49 H 0.35514 0.45542 0.39916 0.0
H50 H 0.30885 0.43627 0.35009 0.0
H51 H 0.28398 0.40553 0.36328 0.0
H52 H 0.28303 0.44132 0.4228 0.0
H53 H 0.32732 0.44995 0.43086 0.0
H54 H 0.30112 0.43002 0.44164 0.0
H55 H 0.38665 0.41239 0.40939 0.0
H56 H 0.37698 0.40543 0.43085 0.0
H57 H 0.3841 0.4322 0.42551 0.0
H58 H 0.3569 0.40765 0.48407 0.0
C59 C 0.33431 0.40021 0.45926 0.0
C60 C 0.28914 0.1691 0.88328 0.0
C61 C 0.30479 0.18638 0.89151 0.0
C62 C 0.30056 0.1885 0.90956 0.0
C63 C 0.26555 0.15645 0.9108 0.0
C64 C 0.26954 0.1545 0.89309 0.0
C65 C 0.24996 0.13575 0.88614 0.0
H66 H 0.15017 0.0488 0.90045 0.0
C67 C 0.24306 0.13874 0.91704 0.0
C68 C 0.23366 0.12667 0.90258 0.0
H69 H 0.18853 0.07338 0.85162 0.0
H70 H 0.2153 0.10269 0.86625 0.0
H71 H 0.22533 0.06069 0.92315 0.0
H72 H 0.12018 0.09053 0.91473 0.0
H73 H 0.13353 0.09659 0.93596 0.0
H74 H 0.12494 0.07008 0.93011 0.0
H75 H 0.18151 0.05073 0.93075 0.0
H76 H 0.20779 0.06909 0.94324 0.0
C77 C 0.27971 0.12154 0.87798 0.0
C78 C 0.2192 0.14288 0.87343 0.0
C79 C 0.21603 0.13007 0.9814 0.0
C80 C 0.19483 0.11563 0.99092 0.0
C81 C 0.17657 0.09968 0.98177 0.0
C82 C 0.17988 0.0979 0.96376 0.0
C83 C 0.20134 0.11231 0.95455 0.0
C84 C 0.21857 0.12823 0.96334 0.0
C85 C 0.2386 0.14272 0.95124 0.0
C86 C 0.23104 0.13266 0.93383 0.0
C87 C 0.20946 0.11472 0.93589 0.0
C88 C 0.28055 0.14253 0.95583 0.0
C89 C 0.22017 0.16416 0.95269 0.0
C90 C 0.16458 0.06047 0.89297 0.0
C91 C 0.16744 0.05874 0.87487 0.0
C92 C 0.18577 0.07443 0.86555 0.0
C93 C 0.20147 0.0914 0.87409 0.0
C94 C 0.19869 0.09286 0.89219 0.0
C95 C 0.1801 0.07767 0.90131 0.0
C96 C 0.17866 0.08226 0.9204 0.0
C97 C 0.20013 0.10246 0.92125 0.0
C98 C 0.212 0.10849 0.9047 0.0
C99 C 0.19915 0.06479 0.93003 0.0
C100 C 0.13728 0.08489 0.92573 0.0
H101 H 0.27911 0.17604 0.93294 0.0
H102 H 0.29129 0.16722 0.86939 0.0
H103 H 0.20818 0.15823 0.87713 0.0
H104 H 0.19448 0.13267 0.8735 0.0
H105 H 0.23009 0.14411 0.86002 0.0
H106 H 0.30539 0.12134 0.88603 0.0
H107 H 0.28766 0.12695 0.86486 0.0
H108 H 0.27069 0.10533 0.87715 0.0
H109 H 0.23065 0.14251 0.98781 0.0
H110 H 0.15912 0.08864 0.98846 0.0
H111 H 0.16536 0.08538 0.95769 0.0
H112 H 0.29001 0.12656 0.95843 0.0
H113 H 0.28617 0.15186 0.9676 0.0
H114 H 0.29846 0.14819 0.94524 0.0
H115 H 0.18989 0.16272 0.95557 0.0
H116 H 0.22146 0.17295 0.94048 0.0
H117 H 0.23302 0.17342 0.9632 0.0
H118 H 0.31246 0.20166 0.9162 0.0
C119 C 0.28123 0.1736 0.91925 0.0
C120 C 0.82154 0.13944 0.53476 0.0
C121 C 0.84175 0.12488 0.52509 0.0
C122 C 0.85617 0.10751 0.53366 0.0
C123 C 0.83066 0.11935 0.56093 0.0
C124 C 0.81633 0.13636 0.55259 0.0
C125 C 0.79545 0.15022 0.56483 0.0
H126 H 0.74308 0.17236 0.6471 0.0
C127 C 0.82118 0.12089 0.5795 0.0
C128 C 0.80066 0.13902 0.58192 0.0
H129 H 0.71357 0.20497 0.60031 0.0
H130 H 0.74925 0.18091 0.58338 0.0
H131 H 0.72661 0.12762 0.63086 0.0
H132 H 0.82665 0.16331 0.63791 0.0
H133 H 0.83859 0.13763 0.64199 0.0
H134 H 0.8044 0.15011 0.6555 0.0
H135 H 0.74711 0.13215 0.65169 0.0
H136 H 0.76114 0.11082 0.63835 0.0
C137 C 0.75403 0.15064 0.55921 0.0
C138 C 0.8148 0.17153 0.56484 0.0
C139 C 0.86263 0.06494 0.62129 0.0
C140 C 0.86053 0.06309 0.63939 0.0
C141 C 0.84402 0.07897 0.64907 0.0
C142 C 0.82924 0.09631 0.64087 0.0
C143 C 0.83118 0.09791 0.62276 0.0
C144 C 0.84821 0.08255 0.61329 0.0
C145 C 0.84976 0.08757 0.59429 0.0
C146 C 0.82973 0.10811 0.59387 0.0
C147 C 0.81861 0.11395 0.61056 0.0
C148 C 0.82787 0.07071 0.58438 0.0
C149 C 0.89127 0.08964 0.58892 0.0
C150 C 0.74375 0.17431 0.6332 0.0
C151 C 0.72525 0.19079 0.62517 0.0
C152 C 0.72789 0.19272 0.607 0.0
C153 C 0.74841 0.17859 0.59711 0.0
C154 C 0.76637 0.16215 0.60539 0.0
C155 C 0.76354 0.16017 0.62313 0.0
C156 C 0.78292 0.14132 0.62974 0.0
C157 C 0.79794 0.13228 0.61305 0.0
C158 C 0.78856 0.14463 0.59881 0.0
C159 C 0.7532 0.12718 0.63823 0.0
C160 C 0.81468 0.14828 0.64204 0.0
H161 H 0.86249 0.09116 0.55714 0.0
H162 H 0.80967 0.15282 0.52857 0.0
H163 H 0.84561 0.16979 0.56527 0.0
H164 H 0.80759 0.18095 0.57621 0.0
H165 H 0.8078 0.18029 0.55296 0.0
H166 H 0.74545 0.13573 0.55333 0.0
H167 H 0.74905 0.16288 0.54948 0.0
H168 H 0.73478 0.15277 0.57022 0.0
H169 H 0.8758 0.0531 0.61358 0.0
H170 H 0.84208 0.07781 0.66302 0.0
H171 H 0.81682 0.10778 0.64897 0.0
H172 H 0.80175 0.06665 0.59138 0.0
H173 H 0.84464 0.05648 0.58309 0.0
H174 H 0.81889 0.07566 0.57139 0.0
H175 H 0.90889 0.09469 0.59999 0.0
H176 H 0.89587 0.10153 0.57893 0.0
H177 H 0.90247 0.07475 0.58423 0.0
H178 H 0.87226 0.09619 0.52665 0.0
C179 C 0.85072 0.10467 0.55145 0.0
C180 C 0.76724 0.3337 0.13196 0.0
C181 C 0.7767 0.31445 0.12493 0.0
C182 C 0.76702 0.31035 0.10754 0.0
C183 C 0.73913 0.34417 0.1048 0.0
C184 C 0.74825 0.34805 0.12185 0.0
C185 C 0.73464 0.36861 0.12794 0.0
H186 H 0.65001 0.45886 0.11127 0.0
C187 C 0.7194 0.36247 0.09802 0.0
C188 C 0.71653 0.37671 0.11162 0.0
H189 H 0.69137 0.43593 0.16018 0.0
H190 H 0.71134 0.40494 0.14639 0.0
H191 H 0.71741 0.44187 0.08732 0.0
H192 H 0.61011 0.41669 0.10078 0.0
H193 H 0.61786 0.41091 0.07889 0.0
H194 H 0.61531 0.43743 0.08565 0.0
H195 H 0.67462 0.452 0.07897 0.0
H196 H 0.69824 0.43097 0.0685 0.0
C197 C 0.76899 0.38169 0.13325 0.0
C198 C 0.70584 0.36499 0.14265 0.0
C199 C 0.67926 0.36585 0.0348 0.0
C200 C 0.66169 0.3812 0.02489 0.0
C201 C 0.65146 0.39973 0.03309 0.0
C202 C 0.65881 0.40304 0.05066 0.0
C203 C 0.6766 0.38768 0.06032 0.0
C204 C 0.68649 0.36944 0.0524 0.0
C205 C 0.70529 0.35492 0.0648 0.0
C206 C 0.70508 0.36749 0.08139 0.0
C207 C 0.68815 0.38668 0.07866 0.0
C208 C 0.74533 0.351 0.05818 0.0
C209 C 0.68097 0.33527 0.06637 0.0
C210 C 0.66312 0.44713 0.11907 0.0
C211 C 0.66949 0.45022 0.1369 0.0
C212 C 0.68693 0.43443 0.14639 0.0
C213 C 0.69816 0.4162 0.13838 0.0
C214 C 0.69159 0.41337 0.12065 0.0
C215 C 0.6741 0.4286 0.1113 0.0
C216 C 0.66825 0.42244 0.09269 0.0
C217 C 0.68507 0.401 0.09251 0.0
C218 C 0.69896 0.39593 0.10889 0.0
C219 C 0.69047 0.4376 0.08114 0.0
C220 C 0.62576 0.42193 0.08914 0.0
H221 H 0.74187 0.32101 0.08435 0.0
H222 H 0.7745 0.33772 0.14512 0.0
H223 H 0.69251 0.34955 0.14165 0.0
H224 H 0.68226 0.37587 0.1421 0.0
H225 H 0.71918 0.36601 0.15558 0.0
H226 H 0.79222 0.37953 0.12389 0.0
H227 H 0.77926 0.37716 0.14624 0.0
H228 H 0.76351 0.39837 0.13327 0.0
H229 H 0.68777 0.3515 0.02892 0.0
H230 H 0.63734 0.41167 0.02591 0.0
H231 H 0.65029 0.41747 0.05604 0.0
H232 H 0.75821 0.36553 0.05341 0.0
H233 H 0.74527 0.33981 0.04732 0.0
H234 H 0.76422 0.34539 0.06836 0.0
H235 H 0.65083 0.33909 0.06568 0.0
H236 H 0.68438 0.3274 0.07891 0.0
H237 H 0.68711 0.32428 0.05575 0.0
H238 H 0.77321 0.2956 0.10174 0.0
C239 C 0.74848 0.32509 0.09745 0.0
C240 C 0.6869 0.566 0.63555 0.0
C241 C 0.6628 0.55052 0.62946 0.0
C242 C 0.64903 0.5518 0.61243 0.0
C243 C 0.68314 0.58368 0.60791 0.0
C244 C 0.6963 0.58248 0.62468 0.0
C245 C 0.71969 0.60085 0.62951 0.0
H246 H 0.79227 0.69402 0.60904 0.0
C247 C 0.69764 0.60297 0.60018 0.0
C248 C 0.71875 0.61318 0.61284 0.0
H249 H 0.79987 0.66078 0.65734 0.0
H250 H 0.76524 0.6326 0.64516 0.0
H251 H 0.80873 0.65421 0.58492 0.0
H252 H 0.70505 0.68204 0.60043 0.0
H253 H 0.70365 0.67684 0.57806 0.0
H254 H 0.73786 0.69461 0.58635 0.0
H255 H 0.79318 0.67808 0.57588 0.0
H256 H 0.77847 0.65364 0.56709 0.0
C257 C 0.7595 0.59322 0.63372 0.0
C258 C 0.69999 0.61218 0.64461 0.0
C259 C 0.66919 0.61951 0.53735 0.0
C260 C 0.67898 0.63591 0.52634 0.0
C261 C 0.70078 0.65216 0.53309 0.0
C262 C 0.71251 0.65209 0.55044 0.0
C263 C 0.70252 0.63554 0.56123 0.0
C264 C 0.68122 0.61962 0.55459 0.0
C265 C 0.6733 0.60323 0.56781 0.0
C266 C 0.6938 0.61173 0.58344 0.0
C267 C 0.71077 0.63074 0.57959 0.0
C268 C 0.69062 0.58286 0.56133 0.0
C269 C 0.6306 0.60223 0.57081 0.0
C270 C 0.78622 0.68068 0.61696 0.0
C271 C 0.79891 0.67964 0.6342 0.0
C272 C 0.79089 0.66189 0.644 0.0
C273 C 0.77049 0.64555 0.63692 0.0
C274 C 0.75778 0.64681 0.61979 0.0
C275 C 0.76597 0.66404 0.61001 0.0
C276 C 0.75093 0.66219 0.59184 0.0
C277 C 0.7315 0.64133 0.59257 0.0
C278 C 0.73561 0.63248 0.60903 0.0
C279 C 0.78435 0.66216 0.57915 0.0
C280 C 0.72302 0.67987 0.58884 0.0
H281 H 0.64789 0.56825 0.58877 0.0
H282 H 0.69738 0.5656 0.64869 0.0
H283 H 0.66917 0.61058 0.64365 0.0
H284 H 0.70502 0.62895 0.64453 0.0
H285 H 0.70854 0.60584 0.65733 0.0
H286 H 0.76747 0.58029 0.62506 0.0
H287 H 0.76135 0.58762 0.64726 0.0
H288 H 0.78115 0.60508 0.63157 0.0
H289 H 0.65294 0.60662 0.53259 0.0
H290 H 0.70844 0.6651 0.525 0.0
H291 H 0.72885 0.66494 0.5548 0.0
H292 H 0.71844 0.58574 0.55542 0.0
H293 H 0.67272 0.5755 0.55136 0.0
H294 H 0.69563 0.5717 0.57179 0.0
H295 H 0.61754 0.61753 0.56879 0.0
H296 H 0.62316 0.59804 0.58424 0.0
H297 H 0.61706 0.59124 0.56176 0.0
H298 H 0.63049 0.54 0.60747 0.0
C299 C 0.65921 0.56821 0.60161 0.0
C300 C 0.72539 0.83221 0.12857 0.0
C301 C 0.70843 0.8151 0.12064 0.0
C302 C 0.71444 0.8119 0.10278 0.0
C303 C 0.75316 0.8427 0.10125 0.0
C304 C 0.7473 0.84568 0.11874 0.0
C305 C 0.76666 0.86456 0.12547 0.0
H306 H 0.87929 0.94653 0.11228 0.0
C307 C 0.77763 0.85965 0.09498 0.0
C308 C 0.78556 0.87241 0.10921 0.0
H309 H 0.82155 0.92845 0.15913 0.0
H310 H 0.79545 0.89929 0.14457 0.0
H311 H 0.9028 0.90094 0.09971 0.0
H312 H 0.80833 0.93888 0.0878 0.0
H313 H 0.82172 0.92671 0.06853 0.0
H314 H 0.85385 0.94399 0.07916 0.0
H315 H 0.90635 0.92345 0.08638 0.0
H316 H 0.89418 0.8987 0.0774 0.0
C317 C 0.79532 0.85773 0.13929 0.0
C318 C 0.73654 0.87967 0.13217 0.0
C319 C 0.81471 0.8646 0.03129 0.0
C320 C 0.8366 0.87886 0.02195 0.0
C321 C 0.85456 0.89485 0.03112 0.0
C322 C 0.8501 0.897 0.04904 0.0
C323 C 0.82736 0.88304 0.05808 0.0
C324 C 0.81045 0.867 0.04928 0.0
C325 C 0.78754 0.85358 0.06119 0.0
C326 C 0.7929 0.86447 0.07844 0.0
C327 C 0.81629 0.88176 0.07651 0.0
C328 C 0.80475 0.83181 0.06123 0.0
C329 C 0.7465 0.85419 0.05511 0.0
C330 C 0.86088 0.93638 0.11941 0.0
C331 C 0.8532 0.93984 0.13709 0.0
C332 C 0.82906 0.92603 0.14572 0.0
C333 C 0.81344 0.90911 0.13715 0.0
C334 C 0.82147 0.90585 0.1196 0.0
C335 C 0.84456 0.91943 0.11095 0.0
C336 C 0.84858 0.91385 0.0921 0.0
C337 C 0.82436 0.89459 0.09098 0.0
C338 C 0.80883 0.88997 0.10717 0.0
C339 C 0.89011 0.90909 0.08854 0.0
C340 C 0.83261 0.93175 0.0812 0.0
H341 H 0.73995 0.82239 0.07953 0.0
H342 H 0.72212 0.83503 0.1423 0.0
H343 H 0.70974 0.87759 0.12514 0.0
H344 H 0.74409 0.89597 0.12997 0.0
H345 H 0.73083 0.87726 0.14614 0.0
H346 H 0.80892 0.84309 0.13541 0.0
H347 H 0.78162 0.85513 0.15199 0.0
H348 H 0.81846 0.86878 0.141 0.0
H349 H 0.80041 0.85216 0.02471 0.0
H350 H 0.87224 0.90579 0.02441 0.0
H351 H 0.8644 0.90957 0.05514 0.0
H352 H 0.83571 0.83272 0.0608 0.0
H353 H 0.7954 0.8228 0.0498 0.0
H354 H 0.79825 0.82307 0.07309 0.0
H355 H 0.73871 0.87003 0.05114 0.0
H356 H 0.72657 0.84998 0.0654 0.0
H357 H 0.742 0.84387 0.04384 0.0
H358 H 0.70156 0.79895 0.09626 0.0
C359 C 0.73664 0.82559 0.09306 0.0
C360 C 0.16586 0.93707 0.37681 0.0
C361 C 0.14681 0.95392 0.38392 0.0
C362 C 0.13697 0.95334 0.4016 0.0
C363 C 0.16484 0.91955 0.40457 0.0
C364 C 0.17456 0.92022 0.38728 0.0
C365 C 0.19462 0.9012 0.38152 0.0
H366 H 0.25801 0.80576 0.39848 0.0
C367 C 0.17767 0.8996 0.41165 0.0
C368 C 0.19514 0.88885 0.39816 0.0
H369 H 0.26682 0.8408 0.35101 0.0
H370 H 0.23589 0.86916 0.36439 0.0
H371 H 0.28287 0.84376 0.4228 0.0
H372 H 0.17437 0.8201 0.40927 0.0
H373 H 0.17505 0.82508 0.43165 0.0
H374 H 0.20639 0.80629 0.42274 0.0
H375 H 0.26476 0.82041 0.43196 0.0
H376 H 0.25488 0.8452 0.44138 0.0
C377 C 0.23443 0.90754 0.37565 0.0
C378 C 0.17074 0.89063 0.36734 0.0
C379 C 0.15471 0.88162 0.47493 0.0
C380 C 0.16371 0.8644 0.48511 0.0
C381 C 0.18192 0.84767 0.47719 0.0
C382 C 0.19127 0.84811 0.45957 0.0
C383 C 0.18248 0.86549 0.44963 0.0
C384 C 0.16443 0.88187 0.45733 0.0
C385 C 0.15762 0.89913 0.44476 0.0
C386 C 0.17482 0.89051 0.42834 0.0
C387 C 0.18926 0.87073 0.43125 0.0
C388 C 0.17876 0.91846 0.45127 0.0
C389 C 0.11499 0.90199 0.443 0.0
C390 C 0.25348 0.81957 0.39098 0.0
C391 C 0.26434 0.82067 0.37345 0.0
C392 C 0.25783 0.83909 0.36431 0.0
C393 C 0.24009 0.85575 0.37218 0.0
C394 C 0.22882 0.85428 0.38952 0.0
C395 C 0.236 0.83655 0.39874 0.0
C396 C 0.22329 0.83829 0.41729 0.0
C397 C 0.2067 0.85981 0.4175 0.0
C398 C 0.20986 0.86895 0.40113 0.0
C399 C 0.25802 0.8367 0.4291 0.0
C400 C 0.19335 0.82153 0.42058 0.0
H401 H 0.13769 0.93681 0.42529 0.0
H402 H 0.17341 0.93676 0.36325 0.0
H403 H 0.14055 0.89172 0.37048 0.0
H404 H 0.17613 0.874 0.36611 0.0
H405 H 0.17519 0.89803 0.35456 0.0
H406 H 0.24429 0.92154 0.38259 0.0
H407 H 0.23529 0.91094 0.36158 0.0
H408 H 0.25553 0.89574 0.37869 0.0
H409 H 0.14107 0.89483 0.4806 0.0
H410 H 0.18871 0.83408 0.48462 0.0
H411 H 0.20504 0.83487 0.45437 0.0
H412 H 0.20607 0.91416 0.45699 0.0
H413 H 0.16253 0.9266 0.46139 0.0
H414 H 0.18565 0.92937 0.44081 0.0
H415 H 0.10032 0.88688 0.44334 0.0
H416 H 0.10684 0.90894 0.43056 0.0
H417 H 0.10384 0.9115 0.45374 0.0
H418 H 0.12267 0.96618 0.40751 0.0
C419 C 0.14588 0.93629 0.41194 0.0
C420 C 0.23305 0.67205 0.8794 0.0
C421 C 0.22219 0.69064 0.88717 0.0
C422 C 0.22974 0.6937 0.9049 0.0
C423 C 0.2592 0.66023 0.90659 0.0
C424 C 0.25138 0.65718 0.88928 0.0
C425 C 0.26484 0.6367 0.88285 0.0
H426 H 0.35713 0.54794 0.89728 0.0
C427 C 0.27918 0.64185 0.91298 0.0
C428 C 0.2825 0.62804 0.89909 0.0
H429 H 0.30305 0.56808 0.85034 0.0
H430 H 0.28311 0.59909 0.86452 0.0
H431 H 0.39225 0.59226 0.90781 0.0
H432 H 0.2905 0.5616 0.92267 0.0
H433 H 0.30862 0.57357 0.94122 0.0
H434 H 0.33515 0.55372 0.93063 0.0
H435 H 0.39158 0.57018 0.92173 0.0
H436 H 0.38617 0.59584 0.93017 0.0
C437 C 0.29404 0.64069 0.86844 0.0
C438 C 0.23047 0.6239 0.87703 0.0
C439 C 0.32332 0.63862 0.9755 0.0
C440 C 0.34376 0.62398 0.9849 0.0
C441 C 0.35512 0.60582 0.97646 0.0
C442 C 0.34642 0.60231 0.95902 0.0
C443 C 0.32618 0.61712 0.94978 0.0
C444 C 0.31499 0.63492 0.95803 0.0
C445 C 0.29428 0.64911 0.94608 0.0
C446 C 0.29455 0.63679 0.92937 0.0
C447 C 0.31328 0.61805 0.93162 0.0
C448 C 0.31695 0.66936 0.94445 0.0
C449 C 0.25431 0.65187 0.95324 0.0
C450 C 0.34116 0.55912 0.89007 0.0
C451 C 0.33166 0.55555 0.87265 0.0
C452 C 0.31039 0.57034 0.8638 0.0
C453 C 0.299 0.58843 0.87205 0.0
C454 C 0.30883 0.59187 0.8894 0.0
C455 C 0.32925 0.57726 0.89819 0.0
C456 C 0.3361 0.58337 0.91673 0.0
C457 C 0.31675 0.6041 0.91752 0.0
C458 C 0.30113 0.60903 0.90142 0.0
C459 C 0.3787 0.58543 0.91943 0.0
C460 C 0.31693 0.56724 0.92855 0.0
H461 H 0.25328 0.68194 0.92802 0.0
H462 H 0.22713 0.66901 0.8659 0.0
H463 H 0.20528 0.62799 0.88467 0.0
H464 H 0.23399 0.60722 0.87921 0.0
H465 H 0.22396 0.62661 0.86318 0.0
H466 H 0.31193 0.65415 0.87173 0.0
H467 H 0.28028 0.64399 0.85589 0.0
H468 H 0.31361 0.62783 0.86666 0.0
H469 H 0.31457 0.65286 0.9815 0.0
H470 H 0.37051 0.59418 0.98341 0.0
H471 H 0.35588 0.58818 0.95339 0.0
H472 H 0.3474 0.66627 0.94471 0.0
H473 H 0.31061 0.68001 0.95529 0.0
H474 H 0.31223 0.67739 0.93208 0.0
H475 H 0.24351 0.63717 0.95869 0.0
H476 H 0.23403 0.65619 0.94317 0.0
H477 H 0.25375 0.66356 0.96372 0.0
H478 H 0.22194 0.70792 0.9112 0.0
C479 C 0.24816 0.67863 0.91463 0.0
Tb480 Tb 0.04372 0.14256 0.23531 0.0
C481 C 0.88123 0.1278 0.2555 0.0
N482 N 0.90117 0.14565 0.25556 0.0
C483 C 0.85073 0.16265 0.24106 0.0
C484 C 0.84579 0.12652 0.2477 0.0
C485 C 0.88515 0.16327 0.24953 0.0
C486 C 0.83123 0.14409 0.23986 0.0
C487 C 0.87381 0.09312 0.26657 0.0
C488 C 0.89488 0.11131 0.26474 0.0
C489 C 0.83911 0.0915 0.25834 0.0
C490 C 0.82518 0.10813 0.24884 0.0
Tb491 Tb 0.95754 0.14459 0.26967 0.0
N492 N 0.92831 0.11359 0.27272 0.0
C493 C 0.88764 0.07748 0.27717 0.0
C494 C 0.94097 0.0989 0.28382 0.0
C495 C 0.92114 0.08053 0.28603 0.0
H496 H 0.89799 0.17803 0.25173 0.0
H497 H 0.93143 0.0689 0.29476 0.0
H498 H 0.10722 0.12147 0.26055 0.0
H499 H 0.04347 0.21358 0.19876 0.0
H500 H 0.96628 0.10144 0.291 0.0
H501 H 0.87221 0.06328 0.279 0.0
H502 H 0.02031 0.17957 0.20728 0.0
H503 H 0.83875 0.17662 0.23596 0.0
H504 H 0.82237 0.07769 0.25971 0.0
H505 H 0.79784 0.10689 0.243 0.0
H506 H 0.16912 0.13057 0.27216 0.0
H507 H 0.80414 0.14375 0.23369 0.0
H508 H 0.10277 0.22678 0.21081 0.0
N509 N 0.1 0.15 0.24757 0.0
C510 C 0.11583 0.1682 0.24299 0.0
C511 C 0.1543 0.14137 0.26408 0.0
C512 C 0.15144 0.17388 0.24902 0.0
C513 C 0.11898 0.13635 0.25766 0.0
C514 C 0.17056 0.16026 0.2598 0.0
N515 N 0.06239 0.17456 0.22618 0.0
C516 C 0.0444 0.18569 0.21377 0.0
C517 C 0.11167 0.19998 0.22685 0.0
C518 C 0.09607 0.18106 0.23216 0.0
C519 C 0.09179 0.21213 0.21518 0.0
C520 C 0.05821 0.20481 0.20845 0.0
H521 H 0.19801 0.16406 0.26471 0.0
H522 H 0.19449 0.19729 0.24826 0.0
H523 H 0.15971 0.22015 0.22873 0.0
O524 O 0.06099 0.14166 0.20939 0.0
O525 O 0.05181 0.15814 0.2604 0.0
O526 O 0.99433 0.17148 0.26705 0.0
O527 O 0.07132 0.11604 0.22606 0.0
O528 O 0.99071 0.15633 0.22696 0.0
O529 O 0.96261 0.1704 0.25121 0.0
O530 O 0.96365 0.14375 0.2969 0.0
O531 O 0.96482 0.11707 0.25323 0.0
O532 O 0.98804 0.1315 0.22869 0.0
O533 O 0.91869 0.16005 0.28523 0.0
O534 O 0.01097 0.13165 0.27801 0.0
O535 O 0.03904 0.11698 0.25385 0.0
C536 C 0.03087 0.1718 0.26827 0.0
C537 C 0.11412 0.12253 0.2029 0.0
C538 C 0.15236 0.12283 0.17671 0.0
C539 C 0.1845 0.12404 0.18701 0.0
C540 C 0.14661 0.12333 0.21297 0.0
C541 C 0.18157 0.12408 0.20503 0.0
C542 C 0.11722 0.12195 0.18475 0.0
C543 C 0.96915 0.17015 0.23439 0.0
C544 C 0.07672 0.12387 0.21076 0.0
C545 C 0.16696 0.19277 0.24392 0.0
C546 C 0.14712 0.20579 0.23285 0.0
C547 C 0.9709 0.11637 0.23651 0.0
C548 C 0.90564 0.14314 0.31156 0.0
C549 C 0.88648 0.13335 0.34085 0.0
C550 C 0.85486 0.12356 0.33386 0.0
C551 C 0.87333 0.1336 0.30505 0.0
C552 C 0.91195 0.14314 0.32956 0.0
C553 C 0.84838 0.12374 0.31611 0.0
C554 C 0.03159 0.11734 0.27063 0.0
C555 C 0.93239 0.15319 0.29962 0.0
H556 H 0.21184 0.12475 0.18109 0.0
H557 H 0.14508 0.12358 0.2269 0.0
H558 H 0.20649 0.12486 0.21288 0.0
H559 H 0.09225 0.12146 0.17687 0.0
H560 H 0.83455 0.11616 0.34219 0.0
H561 H 0.86701 0.13392 0.29141 0.0
H562 H 0.93659 0.15063 0.33473 0.0
H563 H 0.82367 0.11641 0.3109 0.0
Tb564 Tb 0.45232 0.35833 0.73777 0.0
C565 C 0.62087 0.36936 0.75823 0.0
N566 N 0.59952 0.35211 0.75964 0.0
C567 C 0.65015 0.33165 0.74917 0.0
C568 C 0.65763 0.36848 0.75192 0.0
C569 C 0.61379 0.33333 0.75549 0.0
C570 C 0.67212 0.34932 0.74728 0.0
C571 C 0.62697 0.4062 0.76236 0.0
C572 C 0.60584 0.38794 0.76348 0.0
C573 C 0.66346 0.40549 0.75581 0.0
C574 C 0.67878 0.38666 0.75062 0.0
Tb575 Tb 0.54059 0.35674 0.77002 0.0
N576 N 0.57003 0.38806 0.76928 0.0
C577 C 0.61075 0.4246 0.76786 0.0
C578 C 0.55487 0.40577 0.77553 0.0
C579 C 0.5747 0.42432 0.77467 0.0
H580 H 0.59746 0.31954 0.75746 0.0
H581 H 0.56227 0.43835 0.77943 0.0
H582 H 0.38926 0.3857 0.75871 0.0
H583 H 0.4528 0.27932 0.71532 0.0
H584 H 0.52786 0.40573 0.78148 0.0
H585 H 0.62599 0.439 0.76718 0.0
H586 H 0.47628 0.31458 0.71732 0.0
H587 H 0.6613 0.31671 0.74596 0.0
H588 H 0.68012 0.41937 0.75477 0.0
H589 H 0.70705 0.38632 0.74572 0.0
H590 H 0.32705 0.37989 0.7715 0.0
H591 H 0.70038 0.34801 0.74251 0.0
H592 H 0.39296 0.26993 0.72911 0.0
N593 N 0.39565 0.35465 0.75064 0.0
C594 C 0.37999 0.33562 0.74959 0.0
C595 C 0.3417 0.3673 0.76543 0.0
C596 C 0.34415 0.33177 0.75627 0.0
C597 C 0.3771 0.3705 0.75832 0.0
C598 C 0.3251 0.34786 0.76437 0.0
N599 N 0.43434 0.32461 0.73492 0.0
C600 C 0.45219 0.31048 0.72482 0.0
C601 C 0.3842 0.30032 0.73975 0.0
C602 C 0.40006 0.32009 0.74156 0.0
C603 C 0.40418 0.2853 0.73079 0.0
C604 C 0.43809 0.29051 0.72309 0.0
H605 H 0.2975 0.34547 0.76973 0.0
H606 H 0.30022 0.30914 0.75885 0.0
H607 H 0.33552 0.28141 0.74475 0.0
O608 O 0.44999 0.35643 0.71057 0.0
O609 O 0.44576 0.34535 0.76396 0.0
O610 O 0.50221 0.33042 0.76924 0.0
O611 O 0.4112 0.3751 0.72446 0.0
O612 O 0.50534 0.34516 0.72869 0.0
O613 O 0.53127 0.33045 0.75292 0.0
O614 O 0.53677 0.36246 0.79686 0.0
O615 O 0.54738 0.3737 0.74541 0.0
O616 O 0.48905 0.38515 0.73728 0.0
O617 O 0.57489 0.34006 0.78697 0.0
O618 O 0.49024 0.3733 0.77843 0.0
O619 O 0.45899 0.38554 0.75417 0.0
C620 C 0.46611 0.33149 0.77177 0.0
C621 C 0.39013 0.3596 0.69838 0.0
C622 C 0.36506 0.35286 0.66948 0.0
C623 C 0.33445 0.34275 0.67707 0.0
C624 C 0.35879 0.34988 0.70562 0.0
C625 C 0.33131 0.34139 0.69502 0.0
C626 C 0.39291 0.36128 0.68026 0.0
C627 C 0.52851 0.33216 0.73603 0.0
C628 C 0.42038 0.36774 0.70944 0.0
C629 C 0.32827 0.31215 0.75438 0.0
C630 C 0.34832 0.29642 0.74627 0.0
C631 C 0.5256 0.38606 0.73655 0.0
C632 C 0.59357 0.35842 0.812 0.0
C633 C 0.6159 0.3677 0.84091 0.0
C634 C 0.64946 0.37468 0.83351 0.0
C635 C 0.62768 0.36515 0.80506 0.0
C636 C 0.58792 0.35954 0.83002 0.0
C637 C 0.65526 0.37335 0.81573 0.0
C638 C 0.46752 0.38636 0.77078 0.0
C639 C 0.56402 0.3501 0.80058 0.0
H640 H 0.31252 0.33627 0.6691 0.0
H641 H 0.35531 0.3489 0.71943 0.0
H642 H 0.30735 0.33384 0.70074 0.0
H643 H 0.41689 0.36889 0.67455 0.0
H644 H 0.67164 0.38077 0.84154 0.0
H645 H 0.63335 0.3639 0.79144 0.0
H646 H 0.56181 0.35422 0.83553 0.0
H647 H 0.6814 0.37851 0.8102 0.0
Tb648 Tb 0.05223 0.85722 0.74185 0.0
C649 C 0.89285 0.83513 0.75785 0.0
N650 N 0.90669 0.85455 0.75685 0.0
C651 C 0.85592 0.86447 0.73862 0.0
C652 C 0.86076 0.82931 0.74856 0.0
C653 C 0.8882 0.86943 0.7479 0.0
C654 C 0.84236 0.84427 0.73879 0.0
C655 C 0.8985 0.80066 0.76923 0.0
C656 C 0.91163 0.82108 0.76798 0.0
C657 C 0.86719 0.79451 0.75957 0.0
C658 C 0.8483 0.80882 0.74929 0.0
Tb659 Tb 0.95964 0.86119 0.77208 0.0
N660 N 0.94191 0.82765 0.77707 0.0
C661 C 0.91669 0.7872 0.78046 0.0
C662 C 0.95721 0.81508 0.7893 0.0
C663 C 0.94572 0.79457 0.79076 0.0
H664 H 0.8987 0.88503 0.74775 0.0
H665 H 0.95889 0.78455 0.80003 0.0
H666 H 0.09903 0.81683 0.75712 0.0
H667 H 0.10499 0.9316 0.72367 0.0
H668 H 0.9777 0.82075 0.79832 0.0
H669 H 0.90761 0.77136 0.78177 0.0
H670 H 0.06038 0.90237 0.7235 0.0
H671 H 0.84162 0.87619 0.73128 0.0
H672 H 0.85695 0.77882 0.76023 0.0
H673 H 0.82393 0.80393 0.74209 0.0
H674 H 0.15533 0.81088 0.7746 0.0
H675 H 0.81756 0.84042 0.73146 0.0
H676 H 0.16085 0.93044 0.74237 0.0
N677 N 0.10567 0.8494 0.7567 0.0
C678 C 0.12963 0.86526 0.75952 0.0
C679 C 0.14818 0.82634 0.77067 0.0
C680 C 0.1633 0.86245 0.76856 0.0
C681 C 0.11579 0.82985 0.76108 0.0
C682 C 0.17173 0.8428 0.77472 0.0
N683 N 0.09043 0.88531 0.74226 0.0
C684 C 0.0846 0.9019 0.73178 0.0
C685 C 0.14817 0.90007 0.7523 0.0
C686 C 0.12212 0.88383 0.7517 0.0
C687 C 0.14135 0.91767 0.74239 0.0
C688 C 0.10979 0.9184 0.73182 0.0
H689 H 0.19722 0.83998 0.78181 0.0
H690 H 0.21428 0.87718 0.77722 0.0
H691 H 0.20123 0.91011 0.7627 0.0
O692 O 0.04565 0.85872 0.71468 0.0
O693 O 0.04619 0.8845 0.75876 0.0
O694 O 0.01268 0.8727 0.78222 0.0
O695 O 0.0903 0.84172 0.7259 0.0
O696 O 0.00578 0.87575 0.73192 0.0
O697 O 0.97003 0.88778 0.75515 0.0
O698 O 0.92946 0.85945 0.79574 0.0
O699 O 0.95776 0.85003 0.74516 0.0
O700 O 0.01178 0.8321 0.74307 0.0
O701 O 0.93279 0.88788 0.78093 0.0
O702 O 0.00983 0.8475 0.78352 0.0
O703 O 0.03792 0.83224 0.76001 0.0
C704 C 0.03537 0.88611 0.77501 0.0
C705 C 0.10283 0.85823 0.69935 0.0
C706 C 0.12413 0.86432 0.66969 0.0
C707 C 0.15508 0.87512 0.67626 0.0
C708 C 0.1345 0.86869 0.7055 0.0
C709 C 0.1601 0.8773 0.69403 0.0
C710 C 0.09758 0.85619 0.68134 0.0
C711 C 0.98292 0.8892 0.73913 0.0
C712 C 0.07621 0.84874 0.71164 0.0
C713 C 0.18834 0.87902 0.77025 0.0
C714 C 0.1809 0.89777 0.76202 0.0
C715 C 0.97668 0.83447 0.73901 0.0
C716 C 0.8963 0.88928 0.8074 0.0
C717 C 0.87425 0.89462 0.8371 0.0
C718 C 0.85109 0.91045 0.831 0.0
C719 C 0.87333 0.90534 0.80181 0.0
C720 C 0.89646 0.88379 0.82508 0.0
C721 C 0.85071 0.91572 0.81353 0.0
C722 C 0.03335 0.83418 0.77682 0.0
C723 C 0.92 0.87864 0.79463 0.0
H724 H 0.17558 0.88181 0.66762 0.0
H725 H 0.13989 0.86999 0.71919 0.0
H726 H 0.18425 0.88545 0.69894 0.0
H727 H 0.07364 0.84778 0.67646 0.0
H728 H 0.83298 0.91874 0.83974 0.0
H729 H 0.87261 0.90975 0.7883 0.0
H730 H 0.91458 0.8716 0.82951 0.0
H731 H 0.8328 0.92795 0.80905 0.0
Tb732 Tb 0.46035 0.64471 0.2393 0.0
C733 C 0.62358 0.66553 0.26371 0.0
N734 N 0.60597 0.64697 0.26344 0.0
C735 C 0.66128 0.63108 0.25239 0.0
C736 C 0.66078 0.66762 0.25809 0.0
C737 C 0.62439 0.62976 0.25814 0.0
C738 C 0.67954 0.65009 0.25231 0.0
C739 C 0.62101 0.70213 0.26964 0.0
C740 C 0.60382 0.6826 0.26926 0.0
C741 C 0.65815 0.70427 0.26416 0.0
C742 C 0.67793 0.68708 0.25833 0.0
Tb743 Tb 0.54597 0.64688 0.27322 0.0
N744 N 0.56748 0.68006 0.27392 0.0
C745 C 0.60041 0.71889 0.27563 0.0
C746 C 0.54783 0.69624 0.28043 0.0
C747 C 0.56375 0.71589 0.28113 0.0
H748 H 0.61112 0.61489 0.25876 0.0
H749 H 0.54791 0.72867 0.28621 0.0
H750 H 0.40049 0.68313 0.24298 0.0
H751 H 0.44253 0.56216 0.2397 0.0
H752 H 0.52037 0.69414 0.28561 0.0
H753 H 0.61272 0.73409 0.27639 0.0
H754 H 0.47793 0.59456 0.23713 0.0
H755 H 0.67572 0.61739 0.24818 0.0
H756 H 0.67187 0.71914 0.2644 0.0
H757 H 0.7065 0.689 0.25406 0.0
H758 H 0.33331 0.6872 0.24911 0.0
H759 H 0.70813 0.65106 0.24786 0.0
H760 H 0.37478 0.563 0.2456 0.0
N761 N 0.39893 0.65056 0.2447 0.0
C762 C 0.37733 0.63348 0.24646 0.0
C763 C 0.3454 0.67201 0.24852 0.0
C764 C 0.33868 0.63501 0.24935 0.0
C765 C 0.38354 0.66969 0.24537 0.0
C766 C 0.32286 0.65458 0.25051 0.0
N767 N 0.43146 0.61358 0.24252 0.0
C768 C 0.44871 0.59515 0.24002 0.0
C769 C 0.37247 0.59625 0.24635 0.0
C770 C 0.39399 0.61436 0.24508 0.0
C771 C 0.39032 0.57728 0.24465 0.0
C772 C 0.42857 0.57674 0.24134 0.0
H773 H 0.29324 0.65639 0.25264 0.0
H774 H 0.28727 0.61785 0.25285 0.0
H775 H 0.31679 0.58394 0.24987 0.0
O776 O 0.46513 0.63135 0.21475 0.0
O777 O 0.45218 0.62908 0.26444 0.0
O778 O 0.51125 0.61928 0.27236 0.0
O779 O 0.43292 0.65875 0.21824 0.0
O780 O 0.51629 0.63357 0.23283 0.0
O781 O 0.5436 0.61936 0.25678 0.0
O782 O 0.54135 0.65233 0.29999 0.0
O783 O 0.55211 0.66354 0.24848 0.0
O784 O 0.4931 0.67324 0.2397 0.0
O785 O 0.58403 0.63264 0.29005 0.0
O786 O 0.49179 0.65988 0.28085 0.0
O787 O 0.46138 0.67166 0.25627 0.0
C788 C 0.47504 0.61857 0.27432 0.0
C789 C 0.46414 0.65438 0.19152 0.0
C790 C 0.46574 0.65894 0.16012 0.0
C791 C 0.50061 0.66876 0.16176 0.0
C792 C 0.49945 0.66353 0.19269 0.0
C793 C 0.51728 0.67103 0.17795 0.0
C794 C 0.44729 0.65209 0.1752 0.0
C795 C 0.53578 0.61896 0.24011 0.0
C796 C 0.44628 0.64574 0.20708 0.0
C797 C 0.31706 0.617 0.2507 0.0
C798 C 0.33388 0.59768 0.24906 0.0
C799 C 0.52961 0.67535 0.23943 0.0
C800 C 0.56005 0.62487 0.31773 0.0
C801 C 0.56231 0.61532 0.34835 0.0
C802 C 0.5434 0.59691 0.34429 0.0
C803 C 0.54158 0.60633 0.31403 0.0
C804 C 0.57044 0.62929 0.33489 0.0
C805 C 0.53314 0.5925 0.32727 0.0
C806 C 0.46677 0.67154 0.27315 0.0
C807 C 0.56819 0.63981 0.30389 0.0
H808 H 0.5152 0.67454 0.15047 0.0
H809 H 0.5135 0.66445 0.20498 0.0
H810 H 0.54441 0.67827 0.17903 0.0
H811 H 0.42063 0.64427 0.17421 0.0
H812 H 0.53711 0.5857 0.35424 0.0
H813 H 0.53388 0.60248 0.30091 0.0
H814 H 0.58447 0.6437 0.33774 0.0
H815 H 0.51882 0.57823 0.3243 0.0
H816 H 0.18891 0.97192 0.3584 0.0
H817 H 0.17126 0.99971 0.33896 0.0
H818 H 0.06539 0.00485 0.36501 0.0
H819 H 0.08218 0.97635 0.38404 0.0
H820 H 0.05499 0.00623 0.33144 0.0
H821 H 0.13652 0.0404 0.37105 0.0
H822 H 0.19412 0.04625 0.38774 0.0
H823 H 0.25646 0.05225 0.34057 0.0
H824 H 0.19928 0.04615 0.32358 0.0
H825 H 0.02563 0.11384 0.30582 0.0
H826 H 0.04748 0.08585 0.32413 0.0
H827 H 0.09647 0.0563 0.27978 0.0
H828 H 0.0733 0.08383 0.26107 0.0
H829 H 0.13555 0.06743 0.32183 0.0
H830 H 0.05019 0.02773 0.28301 0.0
H831 H 0.98979 0.02384 0.26813 0.0
H832 H 0.93242 0.03062 0.31655 0.0
H833 H 0.99257 0.03508 0.33163 0.0
C834 C 0.16175 0.97885 0.35996 0.0
C835 C 0.13694 0.9718 0.3728 0.0
C836 C 0.15185 0.99493 0.34893 0.0
C837 C 0.11711 0.00456 0.3506 0.0
C838 C 0.09238 0.9977 0.36348 0.0
C839 C 0.10219 0.98152 0.37448 0.0
C840 C 0.10627 0.02143 0.33864 0.0
C841 C 0.07267 0.0196 0.32944 0.0
C842 C 0.12924 0.03894 0.33588 0.0
C843 C 0.16368 0.04261 0.34605 0.0
C844 C 0.16257 0.0428 0.36424 0.0
C845 C 0.19513 0.04619 0.37375 0.0
C846 C 0.22895 0.04956 0.36522 0.0
C847 C 0.23025 0.0496 0.34716 0.0
C848 C 0.19777 0.04619 0.33758 0.0
C849 C 0.04089 0.10139 0.29986 0.0
C850 C 0.04718 0.10099 0.28187 0.0
C851 C 0.05341 0.08543 0.31039 0.0
C852 C 0.07306 0.06894 0.30324 0.0
C853 C 0.08082 0.0688 0.28546 0.0
C854 C 0.06767 0.08459 0.27482 0.0
C855 C 0.08501 0.05183 0.31451 0.0
C856 C 0.11842 0.05382 0.32373 0.0
C857 C 0.06183 0.03458 0.31742 0.0
C858 C 0.02577 0.03206 0.30837 0.0
C859 C 0.02467 0.0287 0.29043 0.0
C860 C 0.9905 0.02632 0.28197 0.0
C861 C 0.95728 0.02699 0.29139 0.0
C862 C 0.95818 0.03008 0.30927 0.0
C863 C 0.99228 0.0326 0.31777 0.0
H864 H 0.93085 0.02514 0.28482 0.0
H865 H 0.25412 0.05219 0.37261 0.0
H866 H 0.40106 0.53831 0.87281 0.0
H867 H 0.42258 0.50868 0.85597 0.0
H868 H 0.31227 0.50084 0.83483 0.0
H869 H 0.29055 0.53031 0.85171 0.0
H870 H 0.34432 0.46375 0.84384 0.0
H871 H 0.37569 0.52444 0.81138 0.0
H872 H 0.40412 0.55859 0.80675 0.0
H873 H 0.51237 0.53383 0.81735 0.0
H874 H 0.48449 0.49957 0.82232 0.0
H875 H 0.43518 0.42193 0.75948 0.0
H876 H 0.41029 0.45 0.77706 0.0
H877 H 0.43914 0.41706 0.82351 0.0
H878 H 0.46396 0.3889 0.80606 0.0
H879 H 0.44546 0.47472 0.80094 0.0
H880 H 0.37074 0.42696 0.85375 0.0
H881 H 0.34038 0.39304 0.85689 0.0
H882 H 0.31399 0.39265 0.80274 0.0
H883 H 0.3437 0.42668 0.79931 0.0
C884 C 0.3813 0.53009 0.86476 0.0
C885 C 0.34417 0.5367 0.8635 0.0
C886 C 0.39367 0.51326 0.85507 0.0
C887 C 0.36909 0.50268 0.84403 0.0
C888 C 0.33171 0.5088 0.84324 0.0
C889 C 0.31941 0.52572 0.85279 0.0
C890 C 0.3826 0.48575 0.8328 0.0
C891 C 0.36652 0.46612 0.83451 0.0
C892 C 0.41112 0.48892 0.82041 0.0
C893 C 0.42795 0.5095 0.81741 0.0
C894 C 0.40551 0.52632 0.81288 0.0
C895 C 0.42153 0.54569 0.81016 0.0
C896 C 0.46001 0.54839 0.8118 0.0
C897 C 0.48256 0.53172 0.81612 0.0
C898 C 0.46667 0.51232 0.81888 0.0
C899 C 0.43599 0.42058 0.77343 0.0
C900 C 0.4514 0.40312 0.78136 0.0
C901 C 0.42197 0.43669 0.78346 0.0
C902 C 0.42268 0.43556 0.80158 0.0
C903 C 0.43799 0.41816 0.80954 0.0
C904 C 0.45225 0.4021 0.79954 0.0
C905 C 0.40763 0.45265 0.81218 0.0
C906 C 0.4234 0.47231 0.81034 0.0
C907 C 0.37853 0.44955 0.82428 0.0
C908 C 0.35978 0.42929 0.82626 0.0
C909 C 0.35829 0.41968 0.84253 0.0
C910 C 0.34123 0.40042 0.84435 0.0
C911 C 0.3254 0.39066 0.83001 0.0
C912 C 0.32642 0.40018 0.81382 0.0
C913 C 0.3434 0.41945 0.81193 0.0
H914 H 0.31226 0.37574 0.83144 0.0
H915 H 0.47237 0.5634 0.80969 0.0
H916 H 0.70739 0.52524 0.64849 0.0
H917 H 0.68792 0.49694 0.66759 0.0
H918 H 0.57285 0.50939 0.65579 0.0
H919 H 0.59218 0.53738 0.63643 0.0
H920 H 0.59259 0.50466 0.69301 0.0
H921 H 0.60576 0.47144 0.63698 0.0
H922 H 0.64039 0.46189 0.61064 0.0
H923 H 0.72319 0.4319 0.64158 0.0
H924 H 0.68929 0.44156 0.66814 0.0
H925 H 0.49133 0.41965 0.72279 0.0
H926 H 0.51912 0.44715 0.70571 0.0
H927 H 0.62673 0.41832 0.70986 0.0
H928 H 0.59861 0.39004 0.72623 0.0
H929 H 0.61716 0.43171 0.67819 0.0
H930 H 0.60521 0.46157 0.73378 0.0
H931 H 0.57429 0.47106 0.7611 0.0
H932 H 0.49523 0.50748 0.73313 0.0
H933 H 0.52549 0.49809 0.70559 0.0
C934 C 0.67796 0.5219 0.65 0.0
C935 C 0.65125 0.5334 0.64096 0.0
C936 C 0.66691 0.50576 0.66086 0.0
C937 C 0.62897 0.50112 0.66307 0.0
C938 C 0.60226 0.51277 0.65425 0.0
C939 C 0.61331 0.52863 0.64314 0.0
C940 C 0.61699 0.48402 0.67449 0.0
C941 C 0.59762 0.48869 0.68974 0.0
C942 C 0.62493 0.46328 0.6705 0.0
C943 C 0.64525 0.45745 0.65455 0.0
C944 C 0.63155 0.463 0.63818 0.0
C945 C 0.651 0.45752 0.62321 0.0
C946 C 0.68404 0.44635 0.62444 0.0
C947 C 0.69764 0.44059 0.64065 0.0
C948 C 0.67831 0.44605 0.65566 0.0
C949 C 0.52092 0.41907 0.72007 0.0
C950 C 0.54285 0.40276 0.72617 0.0
C951 C 0.53686 0.43495 0.7104 0.0
C952 C 0.57521 0.43509 0.70679 0.0
C953 C 0.59714 0.41867 0.71261 0.0
C954 C 0.58109 0.40261 0.72215 0.0
C955 C 0.59193 0.45225 0.69664 0.0
C956 C 0.61233 0.44765 0.68163 0.0
C957 C 0.58559 0.4731 0.70104 0.0
C958 C 0.56749 0.47901 0.71759 0.0
C959 C 0.5811 0.47151 0.73343 0.0
C960 C 0.5637 0.47687 0.74896 0.0
C961 C 0.53272 0.48979 0.74885 0.0
C962 C 0.5192 0.49746 0.7332 0.0
C963 C 0.53653 0.49216 0.71762 0.0
H964 H 0.51926 0.4939 0.76089 0.0
H965 H 0.69905 0.44212 0.61284 0.0
H966 H 0.86789 0.9789 0.12478 0.0
H967 H 0.8907 0.0087 0.14107 0.0
H968 H 0.89607 0.97193 0.18732 0.0
H969 H 0.87541 0.94181 0.17108 0.0
H970 H 0.85382 0.01094 0.18944 0.0
H971 H 0.97272 0.9833 0.17137 0.0
H972 H 0.01826 0.97118 0.14981 0.0
H973 H 0.01656 0.03016 0.1249 0.0
H974 H 0.97053 0.04254 0.14617 0.0
H975 H 0.94441 0.07909 0.24802 0.0
H976 H 0.92399 0.04974 0.2306 0.0
H977 H 0.94879 0.08361 0.184 0.0
H978 H 0.96889 0.11302 0.20132 0.0
H979 H 0.97528 0.04633 0.18118 0.0
H980 H 0.85819 0.07465 0.19561 0.0
H981 H 0.80561 0.0881 0.21263 0.0
H982 H 0.79829 0.03116 0.24054 0.0
H983 H 0.85093 0.01734 0.22365 0.0
C984 C 0.87468 0.97695 0.13832 0.0
C985 C 0.86934 0.95785 0.14658 0.0
C986 C 0.88749 0.99408 0.14763 0.0
C987 C 0.89484 0.99251 0.1654 0.0
C988 C 0.89024 0.97348 0.17363 0.0
C989 C 0.87811 0.9563 0.16431 0.0
C990 C 0.90586 0.01085 0.17564 0.0
C991 C 0.88062 0.01852 0.18787 0.0
C992 C 0.94013 0.02118 0.173 0.0
C993 C 0.96786 0.01377 0.16025 0.0
C994 C 0.98176 0.99362 0.16119 0.0
C995 C 0.00773 0.98672 0.14905 0.0
C996 C 0.02021 0.99987 0.13596 0.0
C997 C 0.00682 0.01998 0.13502 0.0
C998 C 0.98081 0.02695 0.14713 0.0
C999 C 0.94493 0.08043 0.23409 0.0
C1000 C 0.95789 0.09853 0.22611 0.0
C1001 C 0.93331 0.0636 0.22411 0.0
C1002 C 0.93453 0.06448 0.20594 0.0
C1003 C 0.94759 0.08251 0.19797 0.0
C1004 C 0.95905 0.09935 0.20793 0.0
C1005 C 0.92335 0.0464 0.19525 0.0
C1006 C 0.94851 0.03877 0.18288 0.0
C1007 C 0.88856 0.03637 0.19744 0.0
C1008 C 0.85872 0.04504 0.20848 0.0
C1009 C 0.8457 0.06509 0.20553 0.0
C1010 C 0.81571 0.07272 0.21506 0.0
C1011 C 0.7985 0.06045 0.22759 0.0
C1012 C 0.81154 0.0406 0.23076 0.0
C1013 C 0.84142 0.03285 0.2212 0.0
H1014 H 0.77518 0.06636 0.23491 0.0
H1015 H 0.04033 0.9945 0.12657 0.0
H1016 H 0.84425 0.02279 0.63283 0.0
H1017 H 0.86566 0.99253 0.64899 0.0
H1018 H 0.93173 0.03181 0.68199 0.0
H1019 H 0.9098 0.06208 0.66613 0.0
H1020 H 0.96896 0.99473 0.66923 0.0
H1021 H 0.85704 0.01751 0.69807 0.0
H1022 H 0.79083 0.02729 0.6994 0.0
H1023 H 0.75898 0.96743 0.68098 0.0
H1024 H 0.82511 0.9574 0.67927 0.0
H1025 H 0.94355 0.92318 0.74932 0.0
H1026 H 0.92389 0.95216 0.73148 0.0
H1027 H 0.97255 0.92349 0.68655 0.0
H1028 H 0.9931 0.89474 0.70431 0.0
H1029 H 0.87816 0.95543 0.70484 0.0
H1030 H 0.00363 0.95736 0.65935 0.0
H1031 H 0.07069 0.94903 0.65934 0.0
H1032 H 0.07671 0.96269 0.71364 0.0
H1033 H 0.00964 0.97065 0.714 0.0
C1034 C 0.8636 0.02489 0.64344 0.0
C1035 C 0.87535 0.04471 0.6483 0.0
C1036 C 0.87569 0.00766 0.65266 0.0
C1037 C 0.90019 0.00999 0.66668 0.0
C1038 C 0.91287 0.02972 0.67119 0.0
C1039 C 0.90023 0.04696 0.6622 0.0
C1040 C 0.91161 0.99197 0.67709 0.0
C1041 C 0.94911 0.98605 0.67694 0.0
C1042 C 0.88576 0.98083 0.68729 0.0
C1043 C 0.84602 0.9868 0.68834 0.0
C1044 C 0.83594 0.0065 0.69413 0.0
C1045 C 0.79842 0.01208 0.69499 0.0
C1046 C 0.77072 0.99801 0.69022 0.0
C1047 C 0.78047 0.97832 0.68463 0.0
C1048 C 0.81797 0.97268 0.68372 0.0
C1049 C 0.95014 0.92302 0.73565 0.0
C1050 C 0.97015 0.90664 0.72831 0.0
C1051 C 0.93878 0.9396 0.72545 0.0
C1052 C 0.94714 0.94018 0.7077 0.0
C1053 C 0.96644 0.92365 0.70027 0.0
C1054 C 0.97804 0.90714 0.71047 0.0
C1055 C 0.93564 0.95807 0.697 0.0
C1056 C 0.89804 0.96396 0.69703 0.0
C1057 C 0.96146 0.96931 0.68681 0.0
C1058 C 0.0017 0.96446 0.68672 0.0
C1059 C 0.01933 0.95853 0.67128 0.0
C1060 C 0.05728 0.95376 0.67123 0.0
C1061 C 0.07792 0.95515 0.68651 0.0
C1062 C 0.06065 0.96133 0.70186 0.0
C1063 C 0.02265 0.96589 0.70201 0.0
H1064 H 0.10732 0.95153 0.68645 0.0
H1065 H 0.74168 0.00235 0.69091 0.0
H1066 H 0.70407 0.4705 0.16371 0.0
H1067 H 0.68103 0.49979 0.1802 0.0
H1068 H 0.586 0.50398 0.14644 0.0
H1069 H 0.60739 0.47379 0.13042 0.0
H1070 H 0.63584 0.54412 0.15764 0.0
H1071 H 0.55905 0.4859 0.17699 0.0
H1072 H 0.55161 0.45039 0.18769 0.0
H1073 H 0.6209 0.46449 0.23141 0.0
H1074 H 0.62922 0.50002 0.22079 0.0
H1075 H 0.5277 0.61424 0.20515 0.0
H1076 H 0.5497 0.58628 0.18711 0.0
H1077 H 0.60251 0.55856 0.23142 0.0
H1078 H 0.57716 0.58549 0.24994 0.0
H1079 H 0.57497 0.53 0.2141 0.0
H1080 H 0.65111 0.58725 0.19747 0.0
H1081 H 0.66399 0.62273 0.18784 0.0
H1082 H 0.60482 0.61126 0.14053 0.0
H1083 H 0.59119 0.57578 0.14997 0.0
C1084 C 0.67803 0.47741 0.15982 0.0
C1085 C 0.65737 0.46944 0.14581 0.0
C1086 C 0.66517 0.49432 0.16918 0.0
C1087 C 0.63184 0.50392 0.16453 0.0
C1088 C 0.6119 0.49674 0.15015 0.0
C1089 C 0.62435 0.47954 0.14095 0.0
C1090 C 0.61704 0.52078 0.17533 0.0
C1091 C 0.62203 0.54114 0.16988 0.0
C1092 C 0.60039 0.51677 0.19154 0.0
C1093 C 0.59511 0.49551 0.19799 0.0
C1094 C 0.57301 0.48136 0.18879 0.0
C1095 C 0.56856 0.46125 0.19485 0.0
C1096 C 0.58587 0.45517 0.21019 0.0
C1097 C 0.60757 0.46921 0.21952 0.0
C1098 C 0.61213 0.48933 0.21349 0.0
C1099 C 0.54379 0.60218 0.21116 0.0
C1100 C 0.55102 0.60234 0.22904 0.0
C1101 C 0.55686 0.58626 0.20071 0.0
C1102 C 0.57879 0.57051 0.20772 0.0
C1103 C 0.58593 0.57058 0.2256 0.0
C1104 C 0.57182 0.58618 0.23618 0.0
C1105 C 0.59345 0.55373 0.1965 0.0
C1106 C 0.58865 0.53324 0.20187 0.0
C1107 C 0.61106 0.55771 0.18037 0.0
C1108 C 0.61989 0.5789 0.17449 0.0
C1109 C 0.64073 0.59232 0.18504 0.0
C1110 C 0.64816 0.61243 0.17962 0.0
C1111 C 0.63517 0.61926 0.1636 0.0
C1112 C 0.61485 0.60596 0.15294 0.0
C1113 C 0.60731 0.58583 0.15831 0.0
H1114 H 0.64089 0.63484 0.15943 0.0
H1115 H 0.58239 0.43959 0.21487 0.0
H1116 H 0.3721 0.45057 0.34305 0.0
H1117 H 0.39679 0.4813 0.32874 0.0
H1118 H 0.3562 0.51894 0.37058 0.0
H1119 H 0.33127 0.48815 0.38499 0.0
H1120 H 0.33871 0.53452 0.33789 0.0
H1121 H 0.44591 0.51092 0.36827 0.0
H1122 H 0.49257 0.48568 0.37783 0.0
H1123 H 0.52728 0.47661 0.32522 0.0
H1124 H 0.48042 0.50157 0.31531 0.0
H1125 H 0.42735 0.62321 0.30131 0.0
H1126 H 0.40459 0.59639 0.32099 0.0
H1127 H 0.46297 0.5506 0.29099 0.0
H1128 H 0.48837 0.57771 0.27247 0.0
H1129 H 0.47186 0.54121 0.32157 0.0
H1130 H 0.35767 0.56076 0.29084 0.0
H1131 H 0.30863 0.58478 0.28147 0.0
H1132 H 0.28704 0.60122 0.33424 0.0
H1133 H 0.33546 0.57706 0.344 0.0
C1134 C 0.36837 0.46539 0.34919 0.0
C1135 C 0.34969 0.46696 0.36513 0.0
C1136 C 0.38271 0.48292 0.34106 0.0
C1137 C 0.37855 0.50239 0.34865 0.0
C1138 C 0.3598 0.50405 0.36453 0.0
C1139 C 0.34578 0.48646 0.37278 0.0
C1140 C 0.39312 0.52098 0.3397 0.0
C1141 C 0.36792 0.53616 0.33448 0.0
C1142 C 0.43111 0.52299 0.33512 0.0
C1143 C 0.45942 0.508 0.34104 0.0
C1144 C 0.46327 0.50342 0.35872 0.0
C1145 C 0.4898 0.48919 0.3642 0.0
C1146 C 0.51282 0.47951 0.35213 0.0
C1147 C 0.50941 0.4841 0.33455 0.0
C1148 C 0.48289 0.49831 0.329 0.0
C1149 C 0.43504 0.60735 0.29899 0.0
C1150 C 0.45923 0.60236 0.2854 0.0
C1151 C 0.42181 0.59197 0.31013 0.0
C1152 C 0.4312 0.57122 0.30735 0.0
C1153 C 0.45519 0.56639 0.29354 0.0
C1154 C 0.46951 0.58183 0.28286 0.0
C1155 C 0.41717 0.55448 0.31894 0.0
C1156 C 0.44259 0.53967 0.32486 0.0
C1157 C 0.37928 0.55274 0.32405 0.0
C1158 C 0.35039 0.56729 0.31813 0.0
C1159 C 0.34257 0.56958 0.30043 0.0
C1160 C 0.31491 0.5832 0.29504 0.0
C1161 C 0.29504 0.59467 0.3072 0.0
C1162 C 0.30253 0.59239 0.32482 0.0
C1163 C 0.32993 0.57867 0.3303 0.0
H1164 H 0.27372 0.60523 0.30297 0.0
H1165 H 0.53335 0.4685 0.35641 0.0
H1166 H 0.12396 0.0583 0.84586 0.0
H1167 H 0.10059 0.02822 0.82998 0.0
H1168 H 0.15311 0.98816 0.86697 0.0
H1169 H 0.17632 0.01819 0.88298 0.0
H1170 H 0.16763 0.97787 0.83185 0.0
H1171 H 0.06395 0.99283 0.86931 0.0
H1172 H 0.01546 0.01477 0.88221 0.0
H1173 H 0.96811 0.02492 0.83197 0.0
H1174 H 0.01668 0.00327 0.81874 0.0
H1175 H 0.02562 0.89186 0.80981 0.0
H1176 H 0.04792 0.92046 0.82758 0.0
H1177 H 0.09966 0.94795 0.78283 0.0
H1178 H 0.07603 0.9199 0.76484 0.0
H1179 H 0.03307 0.96333 0.82322 0.0
H1180 H 0.18448 0.96876 0.79869 0.0
H1181 H 0.23445 0.94659 0.78735 0.0
H1182 H 0.18638 0.89447 0.8133 0.0
H1183 H 0.13644 0.91638 0.82501 0.0
C1184 C 0.13043 0.04306 0.85061 0.0
C1185 C 0.15194 0.04057 0.86565 0.0
C1186 C 0.11697 0.02592 0.84158 0.0
C1187 C 0.12509 0.00597 0.84732 0.0
C1188 C 0.14654 0.00343 0.86234 0.0
C1189 C 0.15956 0.02057 0.87152 0.0
C1190 C 0.11177 0.98776 0.83748 0.0
C1191 C 0.13821 0.9747 0.82994 0.0
C1192 C 0.0734 0.98358 0.83508 0.0
C1193 C 0.04418 0.9966 0.84302 0.0
C1194 C 0.04341 0.99989 0.861 0.0
C1195 C 0.01586 0.01225 0.86837 0.0
C1196 C 0.98878 0.02128 0.85791 0.0
C1197 C 0.98914 0.01794 0.84005 0.0
C1198 C 0.01665 0.00561 0.83261 0.0
C1199 C 0.04173 0.90396 0.80368 0.0
C1200 C 0.04962 0.90332 0.78584 0.0
C1201 C 0.05443 0.92031 0.8139 0.0
C1202 C 0.07572 0.93621 0.80656 0.0
C1203 C 0.08369 0.93567 0.7888 0.0
C1204 C 0.07045 0.9195 0.77853 0.0
C1205 C 0.08895 0.95357 0.81743 0.0
C1206 C 0.06249 0.96653 0.82509 0.0
C1207 C 0.12731 0.95765 0.81995 0.0
C1208 C 0.15659 0.9442 0.81262 0.0
C1209 C 0.18461 0.95258 0.80199 0.0
C1210 C 0.21296 0.94007 0.79554 0.0
C1211 C 0.2137 0.91918 0.7997 0.0
C1212 C 0.18583 0.91068 0.81015 0.0
C1213 C 0.15742 0.92313 0.81665 0.0
H1214 H 0.23581 0.90956 0.79477 0.0
H1215 H 0.96747 0.03083 0.86364 0.0
H1216 H 0.18822 0.08414 0.0146 0.0
H1217 H 0.17962 0.08667 0.04582 0.0
H1218 H 0.18748 0.15267 0.04277 0.0
H1219 H 0.19371 0.15054 0.01133 0.0
H1220 H 0.23434 0.12991 0.07 0.0
H1221 H 0.10871 0.13859 0.0482 0.0
H1222 H 0.05437 0.12843 0.03061 0.0
H1223 H 0.04771 0.07086 0.05763 0.0
H1224 H 0.10242 0.08056 0.0752 0.0
H1225 H 0.18384 0.15231 0.15636 0.0
H1226 H 0.19012 0.15227 0.12483 0.0
H1227 H 0.13637 0.09274 0.12266 0.0
H1228 H 0.12806 0.09349 0.15414 0.0
H1229 H 0.11293 0.11287 0.09733 0.0
H1230 H 0.23607 0.1014 0.11852 0.0
H1231 H 0.2927 0.10814 0.1357 0.0
H1232 H 0.30784 0.16602 0.10987 0.0
H1233 H 0.251 0.15975 0.0927 0.0
C1234 C 0.18749 0.09928 0.0204 0.0
C1235 C 0.19137 0.11714 0.0102 0.0
C1236 C 0.18293 0.10064 0.03833 0.0
C1237 C 0.18283 0.11984 0.04656 0.0
C1238 C 0.18762 0.13769 0.03663 0.0
C1239 C 0.19144 0.13639 0.01862 0.0
C1240 C 0.17731 0.12119 0.06555 0.0
C1241 C 0.20771 0.1265 0.07603 0.0
C1242 C 0.14292 0.11599 0.07336 0.0
C1243 C 0.1099 0.11021 0.06288 0.0
C1244 C 0.09589 0.12368 0.05027 0.0
C1245 C 0.06497 0.11803 0.04033 0.0
C1246 C 0.04766 0.09899 0.04296 0.0
C1247 C 0.06118 0.08559 0.05558 0.0
C1248 C 0.09212 0.09117 0.06554 0.0
C1249 C 0.17331 0.13928 0.14908 0.0
C1250 C 0.15564 0.12286 0.1576 0.0
C1251 C 0.17715 0.13916 0.13107 0.0
C1252 C 0.16458 0.12226 0.12125 0.0
C1253 C 0.14644 0.10596 0.12983 0.0
C1254 C 0.14175 0.10634 0.14782 0.0
C1255 C 0.17009 0.12162 0.10208 0.0
C1256 C 0.13968 0.11637 0.09147 0.0
C1257 C 0.20481 0.12639 0.09418 0.0
C1258 C 0.23906 0.13019 0.10445 0.0
C1259 C 0.25133 0.11563 0.11659 0.0
C1260 C 0.28349 0.11936 0.12631 0.0
C1261 C 0.3038 0.13752 0.12391 0.0
C1262 C 0.29205 0.15197 0.11174 0.0
C1263 C 0.25988 0.14833 0.102 0.0
H1264 H 0.32869 0.14038 0.13145 0.0
H1265 H 0.02372 0.09464 0.03526 0.0
H1266 H 0.33583 0.34262 0.50255 0.0
H1267 H 0.34519 0.33755 0.53359 0.0
H1268 H 0.3386 0.40296 0.54185 0.0
H1269 H 0.3277 0.4082 0.51103 0.0
H1270 H 0.39932 0.384 0.55914 0.0
H1271 H 0.26651 0.37521 0.55189 0.0
H1272 H 0.21013 0.3598 0.53896 0.0
H1273 H 0.24393 0.30005 0.55635 0.0
H1274 H 0.30082 0.31508 0.56918 0.0
H1275 H 0.37664 0.38776 0.65052 0.0
H1276 H 0.37326 0.39154 0.61906 0.0
H1277 H 0.35504 0.32615 0.61388 0.0
H1278 H 0.35693 0.32254 0.64537 0.0
H1279 H 0.3087 0.34426 0.59441 0.0
H1280 H 0.44002 0.3517 0.60231 0.0
H1281 H 0.49802 0.36578 0.61475 0.0
H1282 H 0.47045 0.42581 0.59571 0.0
H1283 H 0.412 0.41214 0.58335 0.0
C1284 C 0.33584 0.35595 0.51095 0.0
C1285 C 0.33097 0.37585 0.50415 0.0
C1286 C 0.34149 0.35301 0.5287 0.0
C1287 C 0.34262 0.36989 0.54002 0.0
C1288 C 0.33813 0.38974 0.53332 0.0
C1289 C 0.33206 0.39269 0.51563 0.0
C1290 C 0.34788 0.36687 0.55892 0.0
C1291 C 0.37938 0.37549 0.56693 0.0
C1292 C 0.32239 0.35527 0.56895 0.0
C1293 C 0.2881 0.34624 0.56133 0.0
C1294 C 0.26207 0.35876 0.55283 0.0
C1295 C 0.23 0.3501 0.54554 0.0
C1296 C 0.2235 0.32895 0.54679 0.0
C1297 C 0.24902 0.31643 0.55537 0.0
C1298 C 0.28118 0.32501 0.56266 0.0
C1299 C 0.37246 0.37418 0.64262 0.0
C1300 C 0.36707 0.35486 0.65037 0.0
C1301 C 0.37063 0.37632 0.62461 0.0
C1302 C 0.36427 0.3591 0.61396 0.0
C1303 C 0.35983 0.33971 0.62174 0.0
C1304 C 0.36103 0.33763 0.63973 0.0
C1305 C 0.36035 0.36137 0.59483 0.0
C1306 C 0.32896 0.35266 0.58671 0.0
C1307 C 0.38627 0.37265 0.58468 0.0
C1308 C 0.42145 0.38092 0.59205 0.0
C1309 C 0.44618 0.36793 0.60089 0.0
C1310 C 0.47917 0.37584 0.6079 0.0
C1311 C 0.48787 0.39669 0.60606 0.0
C1312 C 0.46365 0.40967 0.59715 0.0
C1313 C 0.43061 0.40184 0.59012 0.0
H1314 H 0.51341 0.40278 0.6115 0.0
H1315 H 0.19865 0.32227 0.54114 0.0
H1316 H 0.67019 0.40916 0.99875 0.0
H1317 H 0.65554 0.40485 0.96816 0.0
H1318 H 0.62191 0.34209 0.9776 0.0
H1319 H 0.6364 0.34633 0.00839 0.0
H1320 H 0.66351 0.34503 0.94858 0.0
H1321 H 0.55668 0.37901 0.97122 0.0
H1322 H 0.52235 0.40543 0.98753 0.0
H1323 H 0.56612 0.45237 0.95407 0.0
H1324 H 0.60117 0.42626 0.9377 0.0
H1325 H 0.59123 0.33727 0.86271 0.0
H1326 H 0.59175 0.33762 0.89448 0.0
H1327 H 0.63175 0.40027 0.89387 0.0
H1328 H 0.63083 0.40007 0.86227 0.0
H1329 H 0.57995 0.39441 0.9191 0.0
H1330 H 0.69161 0.36082 0.89869 0.0
H1331 H 0.72662 0.33455 0.88251 0.0
H1332 H 0.67323 0.28681 0.91198 0.0
H1333 H 0.6375 0.31283 0.92818 0.0
C1334 C 0.65936 0.39447 0.99439 0.0
C1335 C 0.65411 0.37816 0.0061 0.0
C1336 C 0.65101 0.39203 0.97686 0.0
C1337 C 0.63696 0.37326 0.9706 0.0
C1338 C 0.63256 0.35675 0.98214 0.0
C1339 C 0.64099 0.35917 0.99973 0.0
C1340 C 0.62723 0.371 0.95197 0.0
C1341 C 0.64465 0.35558 0.94221 0.0
C1342 C 0.603 0.38492 0.94356 0.0
C1343 C 0.58178 0.40068 0.95331 0.0
C1344 C 0.5592 0.39498 0.96741 0.0
C1345 C 0.53958 0.4099 0.97666 0.0
C1346 C 0.54211 0.43057 0.97186 0.0
C1347 C 0.5642 0.43635 0.95778 0.0
C1348 C 0.58392 0.4215 0.94849 0.0
C1349 C 0.5994 0.35123 0.86939 0.0
C1350 C 0.61126 0.36859 0.86001 0.0
C1351 C 0.59999 0.35136 0.88752 0.0
C1352 C 0.61231 0.36889 0.89656 0.0
C1353 C 0.62228 0.38656 0.8872 0.0
C1354 C 0.62191 0.38639 0.86914 0.0
C1355 C 0.61674 0.3687 0.9157 0.0
C1356 C 0.59835 0.38368 0.92554 0.0
C1357 C 0.64003 0.35437 0.92418 0.0
C1358 C 0.66156 0.33874 0.91449 0.0
C1359 C 0.68711 0.34471 0.90162 0.0
C1360 C 0.70712 0.32987 0.89246 0.0
C1361 C 0.70206 0.30902 0.89617 0.0
C1362 C 0.67705 0.30297 0.90909 0.0
C1363 C 0.65692 0.31775 0.91827 0.0
H1364 H 0.71759 0.29755 0.88907 0.0
H1365 H 0.5269 0.4421 0.97904 0.0
H1366 H 0.8381 0.09565 0.49967 0.0
H1367 H 0.85195 0.09961 0.46894 0.0
H1368 H 0.87358 0.16425 0.47672 0.0
H1369 H 0.8598 0.16037 0.50763 0.0
H1370 H 0.83351 0.15788 0.44769 0.0
H1371 H 0.94547 0.1309 0.4716 0.0
H1372 H 0.98388 0.10712 0.48875 0.0
H1373 H 0.94964 0.0568 0.45638 0.0
H1374 H 0.91056 0.08022 0.43918 0.0
H1375 H 0.90444 0.16616 0.36164 0.0
H1376 H 0.90383 0.16724 0.39339 0.0
H1377 H 0.87789 0.10242 0.3948 0.0
H1378 H 0.87921 0.1012 0.36324 0.0
H1379 H 0.92659 0.11239 0.41986 0.0
H1380 H 0.80969 0.13877 0.39819 0.0
H1381 H 0.7705 0.16234 0.38121 0.0
H1382 H 0.8144 0.21386 0.40953 0.0
H1383 H 0.85425 0.19058 0.42653 0.0
C1384 C 0.84604 0.1107 0.4949 0.0
C1385 C 0.8482 0.12765 0.50618 0.0
C1386 C 0.85395 0.11294 0.4773 0.0
C1387 C 0.86452 0.13215 0.47054 0.0
C1388 C 0.86566 0.14926 0.48164 0.0
C1389 C 0.85764 0.14703 0.49929 0.0
C1390 C 0.87426 0.13422 0.45189 0.0
C1391 C 0.85439 0.14821 0.44167 0.0
C1392 C 0.90117 0.12144 0.44395 0.0
C1393 C 0.92487 0.10731 0.45418 0.0
C1394 C 0.94593 0.11474 0.46821 0.0
C1395 C 0.96785 0.10132 0.47793 0.0
C1396 C 0.96915 0.08046 0.47368 0.0
C1397 C 0.94859 0.07297 0.45967 0.0
C1398 C 0.92658 0.08631 0.44991 0.0
C1399 C 0.89942 0.15208 0.36875 0.0
C1400 C 0.89153 0.13363 0.35995 0.0
C1401 C 0.89873 0.15274 0.38688 0.0
C1402 C 0.89018 0.13497 0.39649 0.0
C1403 C 0.88436 0.11635 0.3877 0.0
C1404 C 0.88493 0.11569 0.36965 0.0
C1405 C 0.88533 0.13574 0.41561 0.0
C1406 C 0.90612 0.12227 0.42593 0.0
C1407 C 0.85928 0.149 0.42363 0.0
C1408 C 0.83526 0.16297 0.41347 0.0
C1409 C 0.81119 0.15514 0.4007 0.0
C1410 C 0.78883 0.16844 0.39109 0.0
C1411 C 0.79004 0.18959 0.39425 0.0
C1412 C 0.81355 0.19748 0.40707 0.0
C1413 C 0.83602 0.18424 0.41669 0.0
H1414 H 0.7727 0.19987 0.3868 0.0
H1415 H 0.98613 0.0701 0.48122 0.0
H1416 H 0.84551 0.84448 1.00146 0.0
H1417 H 0.85204 0.84313 0.96987 0.0
H1418 H 0.84282 0.90916 0.96749 0.0
H1419 H 0.83521 0.91056 0.99879 0.0
H1420 H 0.80126 0.89182 0.94314 0.0
H1421 H 0.92753 0.88406 0.96385 0.0
H1422 H 0.9778 0.86745 0.98038 0.0
H1423 H 0.9602 0.81128 0.95225 0.0
H1424 H 0.90947 0.82749 0.9357 0.0
H1425 H 0.87516 0.92202 0.86385 0.0
H1426 H 0.86899 0.91504 0.89468 0.0
H1427 H 0.8696 0.84987 0.8845 0.0
H1428 H 0.87521 0.85677 0.85331 0.0
H1429 H 0.9118 0.86157 0.91434 0.0
H1430 H 0.78928 0.87056 0.89179 0.0
H1431 H 0.73996 0.8876 0.87498 0.0
H1432 H 0.75061 0.94155 0.90668 0.0
H1433 H 0.80044 0.92494 0.92351 0.0
C1434 C 0.84459 0.85869 0.99418 0.0
C1435 C 0.84011 0.87765 1.00272 0.0
C1436 C 0.84867 0.85791 0.97612 0.0
C1437 C 0.84835 0.87607 0.96625 0.0
C1438 C 0.8433 0.89493 0.97476 0.0
C1439 C 0.83928 0.89572 0.99273 0.0
C1440 C 0.85284 0.87572 0.94706 0.0
C1441 C 0.82558 0.8853 0.9369 0.0
C1442 C 0.88394 0.86665 0.93876 0.0
C1443 C 0.91441 0.85691 0.94869 0.0
C1444 C 0.93416 0.86811 0.96129 0.0
C1445 C 0.96278 0.85879 0.97064 0.0
C1446 C 0.9721 0.83831 0.96741 0.0
C1447 C 0.9529 0.82713 0.95477 0.0
C1448 C 0.92422 0.83638 0.9454 0.0
C1449 C 0.87392 0.90617 0.86809 0.0
C1450 C 0.87496 0.88996 0.85602 0.0
C1451 C 0.87055 0.90221 0.88577 0.0
C1452 C 0.86816 0.88194 0.8919 0.0
C1453 C 0.87121 0.86563 0.88005 0.0
C1454 C 0.87451 0.8696 0.86224 0.0
C1455 C 0.86074 0.87818 0.9106 0.0
C1456 C 0.88729 0.86782 0.92062 0.0
C1457 C 0.82897 0.88654 0.91884 0.0
C1458 C 0.7988 0.89655 0.90883 0.0
C1459 C 0.7813 0.88611 0.8951 0.0
C1460 C 0.75323 0.89568 0.88558 0.0
C1461 C 0.7422 0.91566 0.88974 0.0
C1462 C 0.75919 0.92608 0.90346 0.0
C1463 C 0.78733 0.91659 0.91301 0.0
H1464 H 0.72046 0.92305 0.88235 0.0
H1465 H 0.99428 0.83111 0.97465 0.0
H1466 H 0.61097 0.62448 0.51333 0.0
H1467 H 0.59184 0.62258 0.48306 0.0
H1468 H 0.69962 0.64537 0.46723 0.0
H1469 H 0.71906 0.64726 0.49755 0.0
H1470 H 0.64464 0.66302 0.44854 0.0
H1471 H 0.67881 0.59444 0.46434 0.0
H1472 H 0.67772 0.56298 0.48212 0.0
H1473 H 0.56086 0.55532 0.47199 0.0
H1474 H 0.56113 0.58692 0.45435 0.0
H1475 H 0.62827 0.63192 0.35994 0.0
H1476 H 0.64804 0.63725 0.3899 0.0
H1477 H 0.54241 0.61366 0.40793 0.0
H1478 H 0.52243 0.60838 0.37805 0.0
H1479 H 0.59814 0.59656 0.42531 0.0
H1480 H 0.56397 0.66535 0.40958 0.0
H1481 H 0.56526 0.69682 0.39181 0.0
H1482 H 0.68235 0.70397 0.4016 0.0
H1483 H 0.68186 0.67237 0.41924 0.0
C1484 C 0.63072 0.629 0.50342 0.0
C1485 C 0.66671 0.63584 0.5079 0.0
C1486 C 0.6197 0.62794 0.4861 0.0
C1487 C 0.64446 0.63353 0.47281 0.0
C1488 C 0.68003 0.64095 0.47724 0.0
C1489 C 0.69107 0.64207 0.4946 0.0
C1490 C 0.63342 0.6312 0.45433 0.0
C1491 C 0.63494 0.64842 0.4434 0.0
C1492 C 0.62013 0.61225 0.44765 0.0
C1493 C 0.61993 0.59316 0.45816 0.0
C1494 C 0.65282 0.58613 0.46601 0.0
C1495 C 0.65236 0.56826 0.47605 0.0
C1496 C 0.61922 0.55719 0.47822 0.0
C1497 C 0.5865 0.56393 0.47032 0.0
C1498 C 0.58679 0.58181 0.46029 0.0
C1499 C 0.60902 0.62815 0.37027 0.0
C1500 C 0.57376 0.61967 0.36655 0.0
C1501 C 0.6204 0.63118 0.38742 0.0
C1502 C 0.59666 0.62596 0.40122 0.0
C1503 C 0.56131 0.61772 0.39753 0.0
C1504 C 0.54996 0.61466 0.38041 0.0
C1505 C 0.60896 0.62843 0.41952 0.0
C1506 C 0.60781 0.61117 0.43043 0.0
C1507 C 0.62262 0.64734 0.42614 0.0
C1508 C 0.62295 0.66638 0.41559 0.0
C1509 C 0.59005 0.67354 0.40783 0.0
C1510 C 0.59063 0.69142 0.3978 0.0
C1511 C 0.62388 0.70236 0.39554 0.0
C1512 C 0.65662 0.69547 0.40334 0.0
C1513 C 0.65621 0.67758 0.41337 0.0
H1514 H 0.62427 0.7162 0.38777 0.0
H1515 H 0.61892 0.54335 0.486 0.0
H1516 H 0.29948 0.63932 0.01076 0.0
H1517 H 0.31597 0.645 0.04112 0.0
H1518 H 0.42695 0.62279 0.03104 0.0
H1519 H 0.41051 0.61691 1.00078 0.0
H1520 H 0.40182 0.60685 0.06004 0.0
H1521 H 0.40669 0.67497 0.03571 0.0
H1522 H 0.38211 0.70505 0.02012 0.0
H1523 H 0.29498 0.71117 0.05784 0.0
H1524 H 0.31877 0.68094 0.07353 0.0
H1525 H 0.50221 0.64527 0.13139 0.0
H1526 H 0.47693 0.63919 0.10254 0.0
H1527 H 0.36794 0.65722 0.12029 0.0
H1528 H 0.39333 0.66372 0.14929 0.0
H1529 H 0.38643 0.67462 0.08862 0.0
H1530 H 0.38518 0.60762 0.11404 0.0
H1531 H 0.41148 0.57803 0.12968 0.0
H1532 H 0.49345 0.5702 0.08976 0.0
H1533 H 0.46798 0.59995 0.074 0.0
C1534 C 0.32747 0.6358 0.015 0.0
C1535 C 0.35368 0.62766 1.00334 0.0
C1536 C 0.33688 0.63905 0.03237 0.0
C1537 C 0.37286 0.63452 0.03839 0.0
C1538 C 0.39899 0.62634 0.02676 0.0
C1539 C 0.38953 0.62295 0.00945 0.0
C1540 C 0.38342 0.63809 0.05679 0.0
C1541 C 0.39877 0.62174 0.06621 0.0
C1542 C 0.37852 0.65735 0.06507 0.0
C1543 C 0.36426 0.67556 0.05568 0.0
C1544 C 0.38211 0.68263 0.0406 0.0
C1545 C 0.36836 0.69972 0.03176 0.0
C1546 C 0.33693 0.70998 0.03795 0.0
C1547 C 0.31927 0.70319 0.05304 0.0
C1548 C 0.33289 0.68609 0.06192 0.0
C1549 C 0.4729 0.64811 0.12916 0.0
C1550 C 0.4498 0.65505 0.14264 0.0
C1551 C 0.45842 0.64445 0.11268 0.0
C1552 C 0.42047 0.64756 0.10928 0.0
C1553 C 0.39729 0.65465 0.12264 0.0
C1554 C 0.41177 0.65823 0.13922 0.0
C1555 C 0.40538 0.64348 0.0917 0.0
C1556 C 0.38916 0.6597 0.08246 0.0
C1557 C 0.40964 0.62414 0.08354 0.0
C1558 C 0.42483 0.60612 0.09291 0.0
C1559 C 0.40898 0.59968 0.10866 0.0
C1560 C 0.42371 0.58287 0.11753 0.0
C1561 C 0.45416 0.57227 0.11073 0.0
C1562 C 0.46988 0.57843 0.09502 0.0
C1563 C 0.45528 0.59526 0.0861 0.0
H1564 H 0.46554 0.55926 0.11763 0.0
H1565 H 0.32633 0.72321 0.03109 0.0
H1566 H 0.20776 0.85087 0.51155 0.0
H1567 H 0.19307 0.84938 0.54234 0.0
H1568 H 0.08488 0.87533 0.53233 0.0
H1569 H 0.09961 0.87702 0.50138 0.0
H1570 H 0.11431 0.89247 0.5604 0.0
H1571 H 0.09491 0.8237 0.54126 0.0
H1572 H 0.10983 0.79118 0.52644 0.0
H1573 H 0.2041 0.78277 0.5598 0.0
H1574 H 0.19008 0.8154 0.57466 0.0
H1575 H 0.06359 0.87108 0.64868 0.0
H1576 H 0.06176 0.86927 0.61688 0.0
H1577 H 0.17599 0.849 0.61628 0.0
H1578 H 0.17782 0.85066 0.64781 0.0
H1579 H 0.13307 0.82768 0.59304 0.0
H1580 H 0.15517 0.89878 0.60967 0.0
H1581 H 0.13888 0.93096 0.62473 0.0
H1582 H 0.0367 0.93424 0.59604 0.0
H1583 H 0.05216 0.90189 0.581 0.0
C1584 C 0.18069 0.8561 0.51585 0.0
C1585 C 0.15474 0.86388 0.50395 0.0
C1586 C 0.1723 0.85524 0.5335 0.0
C1587 C 0.13755 0.86187 0.53969 0.0
C1588 C 0.11181 0.87004 0.52789 0.0
C1589 C 0.1203 0.87103 0.5102 0.0
C1590 C 0.12853 0.86038 0.55849 0.0
C1591 C 0.11772 0.87819 0.56746 0.0
C1592 C 0.13313 0.84181 0.56782 0.0
C1593 C 0.14157 0.82209 0.55899 0.0
C1594 C 0.11897 0.81499 0.54536 0.0
C1595 C 0.12725 0.79653 0.53696 0.0
C1596 C 0.15793 0.78494 0.54216 0.0
C1597 C 0.18035 0.79177 0.55578 0.0
C1598 C 0.17222 0.81024 0.56421 0.0
C1599 C 0.08804 0.86595 0.64172 0.0
C1600 C 0.12097 0.86121 0.65069 0.0
C1601 C 0.08707 0.86503 0.62358 0.0
C1602 C 0.11891 0.85922 0.61418 0.0
C1603 C 0.15114 0.85358 0.62322 0.0
C1604 C 0.15221 0.85465 0.64124 0.0
C1605 C 0.1198 0.85983 0.59494 0.0
C1606 C 0.1291 0.84185 0.5859 0.0
C1607 C 0.11357 0.87818 0.58556 0.0
C1608 C 0.10461 0.8978 0.59436 0.0
C1609 C 0.12912 0.90629 0.60666 0.0
C1610 C 0.12004 0.92457 0.61518 0.0
C1611 C 0.08671 0.9346 0.61139 0.0
C1612 C 0.06246 0.92642 0.599 0.0
C1613 C 0.07137 0.90813 0.59047 0.0
H1614 H 0.07971 0.94873 0.61802 0.0
H1615 H 0.1643 0.77064 0.53564 0.0
H1616 H 0.14412 0.32281 0.36452 0.0
H1617 H 0.11257 0.29799 0.34545 0.0
H1618 H 0.19261 0.25173 0.35945 0.0
H1619 H 0.22363 0.27632 0.3789 0.0
H1620 H 0.17809 0.26105 0.3209 0.0
H1621 H 0.11822 0.24319 0.37519 0.0
H1622 H 0.08287 0.25111 0.4017 0.0
H1623 H 0.99228 0.27391 0.37111 0.0
H1624 H 0.02737 0.26642 0.3444 0.0
H1625 H 0.1021 0.1722 0.281 0.0
H1626 H 0.13098 0.19763 0.29997 0.0
H1627 H 0.02898 0.23242 0.30045 0.0
H1628 H -6e-05 0.20697 0.28136 0.0
H1629 H 0.05378 0.22998 0.33182 0.0
H1630 H 0.10766 0.25057 0.27873 0.0
H1631 H 0.14153 0.2498 0.251 0.0
H1632 H 0.23931 0.22772 0.27683 0.0
H1633 H 0.20597 0.22835 0.30476 0.0
C1634 C 0.15474 0.30729 0.36361 0.0
C1635 C 0.18622 0.30143 0.37319 0.0
C1636 C 0.13669 0.29315 0.35278 0.0
C1637 C 0.15026 0.27305 0.3511 0.0
C1638 C 0.18169 0.26716 0.36064 0.0
C1639 C 0.19925 0.28116 0.37177 0.0
C1640 C 0.13255 0.25844 0.33882 0.0
C1641 C 0.15121 0.25392 0.32337 0.0
C1642 C 0.09673 0.25001 0.34176 0.0
C1643 C 0.07561 0.25447 0.3578 0.0
C1644 C 0.09094 0.2501 0.37412 0.0
C1645 C 0.0709 0.25446 0.38918 0.0
C1646 C 0.0354 0.26307 0.3881 0.0
C1647 C 0.01981 0.26728 0.37194 0.0
C1648 C 0.03975 0.26296 0.35683 0.0
C1649 C 0.08599 0.18543 0.28484 0.0
C1650 C 0.0488 0.1876 0.27945 0.0
C1651 C 0.10256 0.20001 0.29576 0.0
C1652 C 0.08237 0.21715 0.30156 0.0
C1653 C 0.04521 0.21936 0.29619 0.0
C1654 C 0.02863 0.20478 0.28525 0.0
C1655 C 0.09956 0.23221 0.3138 0.0
C1656 C 0.08077 0.23693 0.32927 0.0
C1657 C 0.13492 0.24128 0.31068 0.0
C1658 C 0.15422 0.23934 0.2938 0.0
C1659 C 0.13623 0.24528 0.27847 0.0
C1660 C 0.15542 0.24503 0.26274 0.0
C1661 C 0.19262 0.23883 0.26218 0.0
C1662 C 0.21056 0.23262 0.27731 0.0
C1663 C 0.19155 0.23295 0.29309 0.0
H1664 H 0.20749 0.23874 0.25 0.0
H1665 H 0.01993 0.26643 0.39978 0.0
H1666 H 0.35784 0.18071 0.86659 0.0
H1667 H 0.38682 0.20683 0.84804 0.0
H1668 H 0.32458 0.25414 0.87418 0.0
H1669 H 0.29563 0.22806 0.89284 0.0
H1670 H 0.31864 0.25511 0.83793 0.0
H1671 H 0.41431 0.25213 0.88097 0.0
H1672 H 0.46019 0.23511 0.89978 0.0
H1673 H 0.51795 0.21227 0.85513 0.0
H1674 H 0.47209 0.22891 0.83603 0.0
H1675 H 0.40325 0.33728 0.79107 0.0
H1676 H 0.37597 0.31397 0.81238 0.0
H1677 H 0.45918 0.26852 0.79995 0.0
H1678 H 0.48798 0.29248 0.77955 0.0
H1679 H 0.45412 0.26812 0.83151 0.0
H1680 H 0.35078 0.26047 0.78991 0.0
H1681 H 0.29857 0.27042 0.77096 0.0
H1682 H 0.25537 0.30958 0.81088 0.0
H1683 H 0.30641 0.29908 0.83032 0.0
C1684 C 0.35058 0.1967 0.86847 0.0
C1685 C 0.32444 0.20235 0.88115 0.0
C1686 C 0.36733 0.21162 0.85794 0.0
C1687 C 0.35801 0.23245 0.85979 0.0
C1688 C 0.33228 0.23816 0.87259 0.0
C1689 C 0.31591 0.22328 0.88329 0.0
C1690 C 0.3732 0.24801 0.84757 0.0
C1691 C 0.34826 0.25824 0.8367 0.0
C1692 C 0.41185 0.25159 0.84562 0.0
C1693 C 0.43955 0.24163 0.85707 0.0
C1694 C 0.43661 0.24333 0.87516 0.0
C1695 C 0.46265 0.23378 0.88588 0.0
C1696 C 0.49192 0.22258 0.87866 0.0
C1697 C 0.49525 0.22094 0.8607 0.0
C1698 C 0.46926 0.23045 0.84993 0.0
C1699 C 0.41554 0.32225 0.79284 0.0
C1700 C 0.44792 0.31675 0.78374 0.0
C1701 C 0.39962 0.30875 0.80491 0.0
C1702 C 0.41495 0.28915 0.80776 0.0
C1703 C 0.44676 0.28352 0.79822 0.0
C1704 C 0.46325 0.29722 0.7865 0.0
C1705 C 0.39957 0.27501 0.82134 0.0
C1706 C 0.42448 0.2651 0.83264 0.0
C1707 C 0.36086 0.27137 0.8235 0.0
C1708 C 0.33261 0.2793 0.81139 0.0
C1709 C 0.33036 0.27139 0.79453 0.0
C1710 C 0.30076 0.27692 0.7838 0.0
C1711 C 0.27383 0.29073 0.78967 0.0
C1712 C 0.27629 0.29893 0.80634 0.0
C1713 C 0.30533 0.29306 0.81726 0.0
H1714 H 0.25101 0.29505 0.7813 0.0
H1715 H 0.51205 0.2152 0.88698 0.0
H1716 H 0.68433 0.18321 0.65463 0.0
H1717 H 0.65147 0.20771 0.67271 0.0
H1718 H 0.68023 0.25655 0.6373 0.0
H1719 H 0.71598 0.23238 0.61986 0.0
H1720 H 0.68865 0.2703 0.66773 0.0
H1721 H 0.58895 0.23402 0.64061 0.0
H1722 H 0.55207 0.204 0.63107 0.0
H1723 H 0.53456 0.18624 0.68395 0.0
H1724 H 0.57178 0.21601 0.69381 0.0
H1725 H 0.55391 0.33981 0.70346 0.0
H1726 H 0.5878 0.31643 0.68427 0.0
H1727 H 0.5854 0.26965 0.72377 0.0
H1728 H 0.55155 0.29304 0.74305 0.0
H1729 H 0.56183 0.25597 0.69043 0.0
H1730 H 0.67484 0.28868 0.71541 0.0
H1731 H 0.71352 0.31854 0.7238 0.0
H1732 H 0.69982 0.34458 0.6732 0.0
H1733 H 0.66243 0.31436 0.6643 0.0
C1734 C 0.68424 0.19919 0.65073 0.0
C1735 C 0.7032 0.20571 0.63572 0.0
C1736 C 0.66472 0.21319 0.66098 0.0
C1737 C 0.66262 0.23401 0.65627 0.0
C1738 C 0.68119 0.24057 0.64123 0.0
C1739 C 0.70134 0.22663 0.63112 0.0
C1740 C 0.64229 0.24902 0.66739 0.0
C1741 C 0.66065 0.26721 0.67239 0.0
C1742 C 0.60589 0.24507 0.67381 0.0
C1743 C 0.58345 0.22715 0.66794 0.0
C1744 C 0.57747 0.22363 0.6502 0.0
C1745 C 0.55646 0.20667 0.64474 0.0
C1746 C 0.54105 0.1932 0.6569 0.0
C1747 C 0.54654 0.19668 0.67455 0.0
C1748 C 0.56756 0.21361 0.68008 0.0
C1749 C 0.56081 0.32458 0.70807 0.0
C1750 C 0.55029 0.31826 0.72477 0.0
C1751 C 0.58034 0.31129 0.69715 0.0
C1752 C 0.58937 0.29136 0.70264 0.0
C1753 C 0.57885 0.285 0.71931 0.0
C1754 C 0.55969 0.29838 0.73032 0.0
C1755 C 0.60842 0.27689 0.69073 0.0
C1756 C 0.58974 0.2589 0.6856 0.0
C1757 C 0.64414 0.28113 0.68391 0.0
C1758 C 0.66569 0.29946 0.68928 0.0
C1759 C 0.67999 0.30085 0.70613 0.0
C1760 C 0.70177 0.31778 0.71095 0.0
C1761 C 0.70867 0.33361 0.69914 0.0
C1762 C 0.69432 0.33236 0.68237 0.0
C1763 C 0.67314 0.31525 0.67737 0.0
H1764 H 0.72534 0.34677 0.70295 0.0
H1765 H 0.5248 0.18008 0.65264 0.0
H1766 H 0.82888 0.28576 0.11487 0.0
H1767 H 0.86125 0.26078 0.13306 0.0
H1768 H 0.80327 0.28346 0.17792 0.0
H1769 H 0.7689 0.30747 0.15987 0.0
H1770 H 0.88986 0.27924 0.1788 0.0
H1771 H 0.77232 0.24356 0.1673 0.0
H1772 H 0.72421 0.22947 0.1478 0.0
H1773 H 0.8061 0.19154 0.12307 0.0
H1774 H 0.85483 0.20566 0.14227 0.0
H1775 H 0.93948 0.20748 0.24327 0.0
H1776 H 0.90645 0.23151 0.22451 0.0
H1777 H 0.9239 0.19103 0.181 0.0
H1778 H 0.95422 0.16632 0.19995 0.0
H1779 H 0.85909 0.20478 0.17834 0.0
H1780 H 0.97633 0.23736 0.18867 0.0
H1781 H 0.02842 0.25135 0.20592 0.0
H1782 H 0.95473 0.29482 0.22969 0.0
H1783 H 0.90208 0.28097 0.21272 0.0
C1784 C 0.82239 0.28525 0.12854 0.0
C1785 C 0.79625 0.29887 0.13581 0.0
C1786 C 0.84126 0.27108 0.13893 0.0
C1787 C 0.83479 0.27045 0.15682 0.0
C1788 C 0.80889 0.28391 0.16416 0.0
C1789 C 0.78946 0.29775 0.15377 0.0
C1790 C 0.8548 0.25565 0.16793 0.0
C1791 C 0.88303 0.26297 0.17888 0.0
C1792 C 0.84658 0.2344 0.16753 0.0
C1793 C 0.81727 0.22585 0.15607 0.0
C1794 C 0.78013 0.23238 0.15758 0.0
C1795 C 0.75274 0.22435 0.14661 0.0
C1796 C 0.76211 0.20967 0.13416 0.0
C1797 C 0.79889 0.20294 0.13269 0.0
C1798 C 0.8264 0.21094 0.14362 0.0
C1799 C 0.93591 0.20363 0.22973 0.0
C1800 C 0.94953 0.18501 0.22311 0.0
C1801 C 0.91742 0.21751 0.21895 0.0
C1802 C 0.91325 0.21336 0.20119 0.0
C1803 C 0.92674 0.19469 0.1946 0.0
C1804 C 0.94438 0.18062 0.20545 0.0
C1805 C 0.89443 0.22826 0.18948 0.0
C1806 C 0.86633 0.221 0.17834 0.0
C1807 C 0.9035 0.24952 0.1894 0.0
C1808 C 0.93518 0.258 0.19953 0.0
C1809 C 0.97117 0.24982 0.19765 0.0
C1810 C 0.0008 0.25772 0.20737 0.0
C1811 C 0.99485 0.2739 0.21893 0.0
C1812 C 0.95928 0.28227 0.22074 0.0
C1813 C 0.92954 0.27441 0.21107 0.0
H1814 H 0.01782 0.27999 0.22644 0.0
H1815 H 0.74086 0.20347 0.12568 0.0
H1816 H 0.86179 0.6774 0.6539 0.0
H1817 H 0.89195 0.705 0.67022 0.0
H1818 H 0.81354 0.74857 0.64955 0.0
H1819 H 0.78333 0.7209 0.63299 0.0
H1820 H 0.88314 0.7653 0.65174 0.0
H1821 H 0.80065 0.72858 0.68955 0.0
H1822 H 0.77377 0.69793 0.70369 0.0
H1823 H 0.87975 0.68447 0.72664 0.0
H1824 H 0.90743 0.71487 0.71242 0.0
H1825 H 0.917 0.84058 0.71775 0.0
H1826 H 0.88637 0.81532 0.6989 0.0
H1827 H 0.96465 0.76916 0.71526 0.0
H1828 H 0.99504 0.79429 0.73426 0.0
H1829 H 0.89225 0.75489 0.71519 0.0
H1830 H 0.97495 0.7913 0.67688 0.0
H1831 H 0.0016 0.82217 0.66299 0.0
H1832 H 0.89475 0.8366 0.64136 0.0
H1833 H 0.86731 0.80597 0.65536 0.0
C1834 C 0.85108 0.69288 0.65274 0.0
C1835 C 0.81986 0.69693 0.64233 0.0
C1836 C 0.86833 0.70865 0.66209 0.0
C1837 C 0.85452 0.72879 0.66143 0.0
C1838 C 0.82457 0.73312 0.65034 0.0
C1839 C 0.80738 0.71732 0.64086 0.0
C1840 C 0.87036 0.74498 0.67295 0.0
C1841 C 0.88465 0.76315 0.66564 0.0
C1842 C 0.87283 0.7421 0.69109 0.0
C1843 C 0.85618 0.72391 0.69979 0.0
C1844 C 0.81829 0.719 0.69752 0.0
C1845 C 0.8029 0.70168 0.70556 0.0
C1846 C 0.82506 0.68923 0.71603 0.0
C1847 C 0.86263 0.69411 0.71852 0.0
C1848 C 0.87818 0.7114 0.71048 0.0
C1849 C 0.92751 0.82501 0.71738 0.0
C1850 C 0.95833 0.81937 0.72748 0.0
C1851 C 0.91016 0.81064 0.70653 0.0
C1852 C 0.92342 0.79038 0.70557 0.0
C1853 C 0.954 0.7847 0.71578 0.0
C1854 C 0.97147 0.7991 0.72654 0.0
C1855 C 0.90546 0.77504 0.69397 0.0
C1856 C 0.89064 0.75706 0.7013 0.0
C1857 C 0.90247 0.77814 0.67589 0.0
C1858 C 0.91898 0.79645 0.66732 0.0
C1859 C 0.95706 0.80114 0.66928 0.0
C1860 C 0.97232 0.81859 0.66137 0.0
C1861 C 0.94986 0.83137 0.65134 0.0
C1862 C 0.9121 0.8267 0.64916 0.0
C1863 C 0.89668 0.80929 0.65707 0.0
H1864 H 0.96173 0.84487 0.64522 0.0
H1865 H 0.81309 0.67583 0.72224 0.0
H1866 H 0.70444 0.77282 0.11883 0.0
H1867 H 0.66983 0.7495 0.13797 0.0
H1868 H 0.62568 0.80151 0.16568 0.0
H1869 H 0.65925 0.82485 0.14645 0.0
H1870 H 0.65604 0.77335 0.18742 0.0
H1871 H 0.57102 0.77403 0.13955 0.0
H1872 H 0.55125 0.76974 0.10923 0.0
H1873 H 0.58075 0.70587 0.11103 0.0
H1874 H 0.6013 0.70986 0.14129 0.0
H1875 H 0.4936 0.70504 0.22068 0.0
H1876 H 0.52077 0.72912 0.19981 0.0
H1877 H 0.63016 0.70537 0.21064 0.0
H1878 H 0.60327 0.68076 0.23095 0.0
H1879 H 0.56411 0.72016 0.16967 0.0
H1880 H 0.68924 0.74784 0.21034 0.0
H1881 H 0.70614 0.75393 0.24086 0.0
H1882 H 0.59104 0.76351 0.25354 0.0
H1883 H 0.57352 0.75766 0.2231 0.0
C1884 C 0.6868 0.77931 0.12878 0.0
C1885 C 0.68502 0.80075 0.13118 0.0
C1886 C 0.66712 0.76594 0.13975 0.0
C1887 C 0.64526 0.77376 0.15332 0.0
C1888 C 0.64262 0.79512 0.15541 0.0
C1889 C 0.66203 0.80845 0.14443 0.0
C1890 C 0.62663 0.7598 0.16593 0.0
C1891 C 0.636 0.7617 0.18349 0.0
C1892 C 0.60022 0.7447 0.16087 0.0
C1893 C 0.58816 0.74232 0.14263 0.0
C1894 C 0.5737 0.75913 0.13342 0.0
C1895 C 0.56226 0.75673 0.11626 0.0
C1896 C 0.56487 0.73756 0.10819 0.0
C1897 C 0.57884 0.72073 0.11728 0.0
C1898 C 0.59038 0.72305 0.13444 0.0
C1899 C 0.52348 0.70499 0.21872 0.0
C1900 C 0.54626 0.69106 0.22773 0.0
C1901 C 0.53891 0.7187 0.20671 0.0
C1902 C 0.57746 0.71907 0.20373 0.0
C1903 C 0.60035 0.70545 0.21285 0.0
C1904 C 0.5849 0.6915 0.22463 0.0
C1905 C 0.5939 0.73365 0.19103 0.0
C1906 C 0.58426 0.73179 0.1735 0.0
C1907 C 0.61991 0.7489 0.19609 0.0
C1908 C 0.63008 0.75216 0.21447 0.0
C1909 C 0.66757 0.75128 0.21965 0.0
C1910 C 0.67725 0.75471 0.23692 0.0
C1911 C 0.64969 0.75916 0.24911 0.0
C1912 C 0.61236 0.76007 0.24408 0.0
C1913 C 0.60253 0.75663 0.22683 0.0
H1914 H 0.65727 0.76185 0.26247 0.0
H1915 H 0.55595 0.73574 0.0949 0.0
H1916 H 0.31421 0.7927 0.38682 0.0
H1917 H 0.34608 0.765 0.37151 0.0
H1918 H 0.28963 0.78169 0.32435 0.0
H1919 H 0.25564 0.80821 0.33978 0.0
H1920 H 0.29325 0.74284 0.32518 0.0
H1921 H 0.38342 0.79657 0.33465 0.0
H1922 H 0.42088 0.82113 0.35175 0.0
H1923 H 0.4697 0.77116 0.37988 0.0
H1924 H 0.43215 0.74631 0.36308 0.0
H1925 H 0.42531 0.70496 0.26327 0.0
H1926 H 0.3883 0.72758 0.28173 0.0
H1927 H 0.42398 0.69402 0.32675 0.0
H1928 H 0.45944 0.6706 0.30835 0.0
H1929 H 0.43108 0.73908 0.32836 0.0
H1930 H 0.34244 0.68545 0.31544 0.0
H1931 H 0.30579 0.66252 0.29649 0.0
H1932 H 0.25543 0.71487 0.27231 0.0
H1933 H 0.29235 0.73814 0.29087 0.0
C1934 C 0.308 0.79025 0.37327 0.0
C1935 C 0.28264 0.803 0.36453 0.0
C1936 C 0.3267 0.77455 0.36445 0.0
C1937 C 0.32104 0.7715 0.34662 0.0
C1938 C 0.29483 0.78375 0.33804 0.0
C1939 C 0.27572 0.79917 0.34689 0.0
C1940 C 0.3427 0.7559 0.33672 0.0
C1941 C 0.32341 0.74221 0.32579 0.0
C1942 C 0.3821 0.75471 0.33763 0.0
C1943 C 0.40466 0.76961 0.34775 0.0
C1944 C 0.40193 0.79084 0.34457 0.0
C1945 C 0.42321 0.80481 0.35419 0.0
C1946 C 0.44756 0.79772 0.36693 0.0
C1947 C 0.45076 0.77663 0.37003 0.0
C1948 C 0.42951 0.7626 0.36047 0.0
C1949 C 0.42448 0.70198 0.27702 0.0
C1950 C 0.44461 0.6856 0.28423 0.0
C1951 C 0.40366 0.71509 0.28758 0.0
C1952 C 0.40323 0.71235 0.30557 0.0
C1953 C 0.42391 0.69634 0.31288 0.0
C1954 C 0.44415 0.68298 0.30231 0.0
C1955 C 0.38156 0.72641 0.31677 0.0
C1956 C 0.40089 0.73974 0.3279 0.0
C1957 C 0.34232 0.72755 0.31577 0.0
C1958 C 0.3204 0.71355 0.30447 0.0
C1959 C 0.32387 0.69209 0.30595 0.0
C1960 C 0.30298 0.67902 0.29531 0.0
C1961 C 0.27824 0.68724 0.28324 0.0
C1962 C 0.27455 0.70853 0.28169 0.0
C1963 C 0.29546 0.72166 0.29227 0.0
H1964 H 0.26183 0.67712 0.27512 0.0
H1965 H 0.46402 0.80855 0.37436 0.0
H1966 H 0.23884 0.7032 0.85427 0.0
H1967 H 0.20656 0.72883 0.8368 0.0
H1968 H 0.13096 0.74048 0.87904 0.0
H1969 H 0.16254 0.71442 0.89646 0.0
H1970 H 0.09381 0.73697 0.84914 0.0
H1971 H 0.19993 0.77442 0.86949 0.0
H1972 H 0.26661 0.78108 0.87486 0.0
H1973 H 0.28799 0.78047 0.82021 0.0
H1974 H 0.2215 0.77351 0.81451 0.0
H1975 H 0.06477 0.84381 0.80765 0.0
H1976 H 0.09693 0.82065 0.82769 0.0
H1977 H 0.0766 0.76978 0.79308 0.0
H1978 H 0.04508 0.79303 0.77281 0.0
H1979 H 0.16063 0.79513 0.82118 0.0
H1980 H 0.05189 0.72923 0.82064 0.0
H1981 H 0.98386 0.72438 0.81806 0.0
H1982 H 0.96611 0.78548 0.83735 0.0
H1983 H 0.03395 0.79065 0.84012 0.0
C1984 C 0.21521 0.71113 0.85982 0.0
C1985 C 0.20323 0.70673 0.87677 0.0
C1986 C 0.197 0.72592 0.84987 0.0
C1987 C 0.16653 0.73672 0.85665 0.0
C1988 C 0.15446 0.73237 0.87355 0.0
C1989 C 0.17273 0.7176 0.88354 0.0
C1990 C 0.14683 0.75222 0.84596 0.0
C1991 C 0.10848 0.74967 0.84304 0.0
C1992 C 0.16577 0.76902 0.83821 0.0
C1993 C 0.20577 0.77325 0.84159 0.0
C1994 C 0.2189 0.77554 0.85862 0.0
C1995 C 0.25665 0.7794 0.86172 0.0
C1996 C 0.28154 0.78115 0.84789 0.0
C1997 C 0.26869 0.77909 0.83091 0.0
C1998 C 0.23096 0.77521 0.82774 0.0
C1999 C 0.06726 0.82767 0.80436 0.0
C2000 C 0.05271 0.82013 0.78872 0.0
C2001 C 0.0857 0.81452 0.81574 0.0
C2002 C 0.08901 0.79353 0.81187 0.0
C2003 C 0.07421 0.78594 0.7963 0.0
C2004 C 0.05639 0.79918 0.78474 0.0
C2005 C 0.10797 0.77954 0.82412 0.0
C2006 C 0.14611 0.78238 0.82728 0.0
C2007 C 0.08877 0.76323 0.83234 0.0
C2008 C 0.04798 0.76037 0.83042 0.0
C2009 C 0.03344 0.74162 0.82432 0.0
C2010 C 0.99492 0.73882 0.82283 0.0
C2011 C 0.97069 0.75461 0.82754 0.0
C2012 C 0.98491 0.77326 0.83371 0.0
C2013 C 0.02339 0.77618 0.83515 0.0
H2014 H 0.94088 0.75242 0.82638 0.0
H2015 H 0.31076 0.78414 0.85031 0.0
loop_
_geom_bond_atom_site_label_1
_geom_bond_atom_site_label_2
_geom_bond_distance
_geom_bond_site_symmetry_2
_ccdc_geom_bond_type
C0 C1 1.391 . S
C0 C4 1.391 . S
C0 H42 0.948 . S
C1 C0 1.391 . S
C1 C2 1.391 . S
C2 C1 1.391 . S
C2 H58 0.947 . S
C2 C59 1.392 . S
C3 C4 1.391 . S
C3 C7 1.397 . S
C3 C59 1.419 . S
C4 C0 1.391 . S
C4 C3 1.391 . S
C4 C5 1.399 . S
C5 C4 1.399 . S
C5 C8 1.396 . S
C5 C17 1.453 . S
C5 C18 1.684 . S
H6 C30 0.948 . S
C7 C3 1.397 . S
C7 C8 1.394 . S
C7 C26 1.723 . S
C8 C5 1.396 . S
C8 C7 1.394 . S
C8 C38 1.723 . S
H9 C32 0.947 . S
H10 C33 0.948 . S
H11 C39 0.982 . S
H12 C40 0.979 . S
H13 C40 0.980 . S
H14 C40 0.983 . S
H15 C39 0.979 . S
H16 C39 0.977 . S
C17 C5 1.453 . S
C17 H46 0.982 . S
C17 H47 0.979 . S
C17 H48 0.977 . S
C18 C5 1.684 . S
C18 H43 0.979 . S
C18 H44 0.980 . S
C18 H45 0.983 . S
C19 C20 1.391 . S
C19 C24 1.391 . S
C19 H49 0.948 . S
C20 C19 1.391 . S
C20 C21 1.391 . S
C21 C20 1.391 . S
C21 C22 1.392 . S
C21 H50 0.947 . S
C22 C21 1.392 . S
C22 C23 1.419 . S
C22 H51 0.948 . S
C23 C22 1.419 . S
C23 C24 1.391 . S
C23 C27 1.397 . S
C24 C19 1.391 . S
C24 C23 1.391 . S
C24 C25 1.399 . S
C25 C24 1.399 . S
C25 C26 1.396 . S
C25 C28 1.453 . S
C25 C29 1.684 . S
C26 C7 1.723 . S
C26 C25 1.396 . S
C26 C27 1.394 . S
C27 C23 1.397 . S
C27 C26 1.394 . S
C27 C37 1.723 . S
C28 C25 1.453 . S
C28 H52 0.982 . S
C28 H53 0.979 . S
C28 H54 0.977 . S
C29 C25 1.684 . S
C29 H55 0.979 . S
C29 H56 0.980 . S
C29 H57 0.983 . S
C30 H6 0.948 . S
C30 C31 1.391 . S
C30 C35 1.391 . S
C31 C30 1.391 . S
C31 C32 1.391 . S
C32 H9 0.947 . S
C32 C31 1.391 . S
C32 C33 1.392 . S
C33 H10 0.948 . S
C33 C32 1.392 . S
C33 C34 1.419 . S
C34 C33 1.419 . S
C34 C35 1.391 . S
C34 C38 1.397 . S
C35 C30 1.391 . S
C35 C34 1.391 . S
C35 C36 1.399 . S
C36 C35 1.399 . S
C36 C37 1.396 . S
C36 C39 1.453 . S
C36 C40 1.684 . S
C37 C27 1.723 . S
C37 C36 1.396 . S
C37 C38 1.394 . S
C38 C8 1.723 . S
C38 C34 1.397 . S
C38 C37 1.394 . S
C39 H11 0.982 . S
C39 H15 0.979 . S
C39 H16 0.977 . S
C39 C36 1.453 . S
C40 H12 0.979 . S
C40 H13 0.980 . S
C40 H14 0.983 . S
C40 C36 1.684 . S
H41 C59 0.948 . S
H42 C0 0.948 . S
H43 C18 0.979 . S
H44 C18 0.980 . S
H45 C18 0.983 . S
H46 C17 0.982 . S
H47 C17 0.979 . S
H48 C17 0.977 . S
H49 C19 0.948 . S
H50 C21 0.947 . S
H51 C22 0.948 . S
H52 C28 0.982 . S
H53 C28 0.979 . S
H54 C28 0.977 . S
H55 C29 0.979 . S
H56 C29 0.980 . S
H57 C29 0.983 . S
H58 C2 0.947 . S
C59 C2 1.392 . S
C59 C3 1.419 . S
C59 H41 0.948 . S
C60 C61 1.391 . S
C60 C64 1.391 . S
C60 H102 0.948 . S
C61 C60 1.391 . S
C61 C62 1.391 . S
C62 C61 1.391 . S
C62 H118 0.947 . S
C62 C119 1.392 . S
C63 C64 1.391 . S
C63 C67 1.397 . S
C63 C119 1.419 . S
C64 C60 1.391 . S
C64 C63 1.391 . S
C64 C65 1.399 . S
C65 C64 1.399 . S
C65 C68 1.396 . S
C65 C77 1.453 . S
C65 C78 1.684 . S
H66 C90 0.948 . S
C67 C63 1.397 . S
C67 C68 1.394 . S
C67 C86 1.723 . S
C68 C65 1.396 . S
C68 C67 1.394 . S
C68 C98 1.723 . S
H69 C92 0.947 . S
H70 C93 0.948 . S
H71 C99 0.982 . S
H72 C100 0.979 . S
H73 C100 0.980 . S
H74 C100 0.983 . S
H75 C99 0.979 . S
H76 C99 0.977 . S
C77 C65 1.453 . S
C77 H106 0.982 . S
C77 H107 0.979 . S
C77 H108 0.977 . S
C78 C65 1.684 . S
C78 H103 0.979 . S
C78 H104 0.980 . S
C78 H105 0.983 . S
C79 C80 1.391 . S
C79 C84 1.391 . S
C79 H109 0.948 . S
C80 C79 1.391 . S
C80 C81 1.391 . S
C81 C80 1.391 . S
C81 C82 1.392 . S
C81 H110 0.947 . S
C82 C81 1.392 . S
C82 C83 1.419 . S
C82 H111 0.948 . S
C83 C82 1.419 . S
C83 C84 1.391 . S
C83 C87 1.397 . S
C84 C79 1.391 . S
C84 C83 1.391 . S
C84 C85 1.399 . S
C85 C84 1.399 . S
C85 C86 1.396 . S
C85 C88 1.453 . S
C85 C89 1.684 . S
C86 C67 1.723 . S
C86 C85 1.396 . S
C86 C87 1.394 . S
C87 C83 1.397 . S
C87 C86 1.394 . S
C87 C97 1.723 . S
C88 C85 1.453 . S
C88 H112 0.982 . S
C88 H113 0.979 . S
C88 H114 0.977 . S
C89 C85 1.684 . S
C89 H115 0.979 . S
C89 H116 0.980 . S
C89 H117 0.983 . S
C90 H66 0.948 . S
C90 C91 1.391 . S
C90 C95 1.391 . S
C91 C90 1.391 . S
C91 C92 1.391 . S
C92 H69 0.947 . S
C92 C91 1.391 . S
C92 C93 1.392 . S
C93 H70 0.948 . S
C93 C92 1.392 . S
C93 C94 1.419 . S
C94 C93 1.419 . S
C94 C95 1.391 . S
C94 C98 1.397 . S
C95 C90 1.391 . S
C95 C94 1.391 . S
C95 C96 1.399 . S
C96 C95 1.399 . S
C96 C97 1.396 . S
C96 C99 1.453 . S
C96 C100 1.684 . S
C97 C87 1.723 . S
C97 C96 1.396 . S
C97 C98 1.394 . S
C98 C68 1.723 . S
C98 C94 1.397 . S
C98 C97 1.394 . S
C99 H71 0.982 . S
C99 H75 0.979 . S
C99 H76 0.977 . S
C99 C96 1.453 . S
C100 H72 0.979 . S
C100 H73 0.980 . S
C100 H74 0.983 . S
C100 C96 1.684 . S
H101 C119 0.948 . S
H102 C60 0.948 . S
H103 C78 0.979 . S
H104 C78 0.980 . S
H105 C78 0.983 . S
H106 C77 0.982 . S
H107 C77 0.979 . S
H108 C77 0.977 . S
H109 C79 0.948 . S
H110 C81 0.947 . S
H111 C82 0.948 . S
H112 C88 0.982 . S
H113 C88 0.979 . S
H114 C88 0.977 . S
H115 C89 0.979 . S
H116 C89 0.980 . S
H117 C89 0.983 . S
H118 C62 0.947 . S
C119 C62 1.392 . S
C119 C63 1.419 . S
C119 H101 0.948 . S
C120 C121 1.391 . S
C120 C124 1.391 . S
C120 H162 0.948 . S
C121 C120 1.391 . S
C121 C122 1.391 . S
C122 C121 1.391 . S
C122 H178 0.947 . S
C122 C179 1.392 . S
C123 C124 1.391 . S
C123 C127 1.397 . S
C123 C179 1.419 . S
C124 C120 1.391 . S
C124 C123 1.391 . S
C124 C125 1.399 . S
C125 C124 1.399 . S
C125 C128 1.396 . S
C125 C137 1.453 . S
C125 C138 1.684 . S
H126 C150 0.948 . S
C127 C123 1.397 . S
C127 C128 1.394 . S
C127 C146 1.723 . S
C128 C125 1.396 . S
C128 C127 1.394 . S
C128 C158 1.723 . S
H129 C152 0.947 . S
H130 C153 0.948 . S
H131 C159 0.982 . S
H132 C160 0.979 . S
H133 C160 0.980 . S
H134 C160 0.983 . S
H135 C159 0.979 . S
H136 C159 0.977 . S
C137 C125 1.453 . S
C137 H166 0.982 . S
C137 H167 0.979 . S
C137 H168 0.977 . S
C138 C125 1.684 . S
C138 H163 0.979 . S
C138 H164 0.980 . S
C138 H165 0.983 . S
C139 C140 1.391 . S
C139 C144 1.391 . S
C139 H169 0.948 . S
C140 C139 1.391 . S
C140 C141 1.391 . S
C141 C140 1.391 . S
C141 C142 1.392 . S
C141 H170 0.947 . S
C142 C141 1.392 . S
C142 C143 1.419 . S
C142 H171 0.948 . S
C143 C142 1.419 . S
C143 C144 1.391 . S
C143 C147 1.397 . S
C144 C139 1.391 . S
C144 C143 1.391 . S
C144 C145 1.399 . S
C145 C144 1.399 . S
C145 C146 1.396 . S
C145 C148 1.453 . S
C145 C149 1.684 . S
C146 C127 1.723 . S
C146 C145 1.396 . S
C146 C147 1.394 . S
C147 C143 1.397 . S
C147 C146 1.394 . S
C147 C157 1.723 . S
C148 C145 1.453 . S
C148 H172 0.982 . S
C148 H173 0.979 . S
C148 H174 0.977 . S
C149 C145 1.684 . S
C149 H175 0.979 . S
C149 H176 0.980 . S
C149 H177 0.983 . S
C150 H126 0.948 . S
C150 C151 1.391 . S
C150 C155 1.391 . S
C151 C150 1.391 . S
C151 C152 1.391 . S
C152 H129 0.947 . S
C152 C151 1.391 . S
C152 C153 1.392 . S
C153 H130 0.948 . S
C153 C152 1.392 . S
C153 C154 1.419 . S
C154 C153 1.419 . S
C154 C155 1.391 . S
C154 C158 1.397 . S
C155 C150 1.391 . S
C155 C154 1.391 . S
C155 C156 1.399 . S
C156 C155 1.399 . S
C156 C157 1.396 . S
C156 C159 1.453 . S
C156 C160 1.684 . S
C157 C147 1.723 . S
C157 C156 1.396 . S
C157 C158 1.394 . S
C158 C128 1.723 . S
C158 C154 1.397 . S
C158 C157 1.394 . S
C159 H131 0.982 . S
C159 H135 0.979 . S
C159 H136 0.977 . S
C159 C156 1.453 . S
C160 H132 0.979 . S
C160 H133 0.980 . S
C160 H134 0.983 . S
C160 C156 1.684 . S
H161 C179 0.948 . S
H162 C120 0.948 . S
H163 C138 0.979 . S
H164 C138 0.980 . S
H165 C138 0.983 . S
H166 C137 0.982 . S
H167 C137 0.979 . S
H168 C137 0.977 . S
H169 C139 0.948 . S
H170 C141 0.947 . S
H171 C142 0.948 . S
H172 C148 0.982 . S
H173 C148 0.979 . S
H174 C148 0.977 . S
H175 C149 0.979 . S
H176 C149 0.980 . S
H177 C149 0.983 . S
H178 C122 0.947 . S
C179 C122 1.392 . S
C179 C123 1.419 . S
C179 H161 0.948 . S
C180 C181 1.391 . S
C180 C184 1.391 . S
C180 H222 0.948 . S
C181 C180 1.391 . S
C181 C182 1.391 . S
C182 C181 1.391 . S
C182 H238 0.947 . S
C182 C239 1.392 . S
C183 C184 1.391 . S
C183 C187 1.397 . S
C183 C239 1.419 . S
C184 C180 1.391 . S
C184 C183 1.391 . S
C184 C185 1.399 . S
C185 C184 1.399 . S
C185 C188 1.396 . S
C185 C197 1.453 . S
C185 C198 1.684 . S
H186 C210 0.948 . S
C187 C183 1.397 . S
C187 C188 1.394 . S
C187 C206 1.723 . S
C188 C185 1.396 . S
C188 C187 1.394 . S
C188 C218 1.723 . S
H189 C212 0.947 . S
H190 C213 0.948 . S
H191 C219 0.982 . S
H192 C220 0.979 . S
H193 C220 0.980 . S
H194 C220 0.983 . S
H195 C219 0.979 . S
H196 C219 0.977 . S
C197 C185 1.453 . S
C197 H226 0.982 . S
C197 H227 0.979 . S
C197 H228 0.977 . S
C198 C185 1.684 . S
C198 H223 0.979 . S
C198 H224 0.980 . S
C198 H225 0.983 . S
C199 C200 1.391 . S
C199 C204 1.391 . S
C199 H229 0.948 . S
C200 C199 1.391 . S
C200 C201 1.391 . S
C201 C200 1.391 . S
C201 C202 1.392 . S
C201 H230 0.947 . S
C202 C201 1.392 . S
C202 C203 1.419 . S
C202 H231 0.948 . S
C203 C202 1.419 . S
C203 C204 1.391 . S
C203 C207 1.397 . S
C204 C199 1.391 . S
C204 C203 1.391 . S
C204 C205 1.399 . S
C205 C204 1.399 . S
C205 C206 1.396 . S
C205 C208 1.453 . S
C205 C209 1.684 . S
C206 C187 1.723 . S
C206 C205 1.396 . S
C206 C207 1.394 . S
C207 C203 1.397 . S
C207 C206 1.394 . S
C207 C217 1.723 . S
C208 C205 1.453 . S
C208 H232 0.982 . S
C208 H233 0.979 . S
C208 H234 0.977 . S
C209 C205 1.684 . S
C209 H235 0.979 . S
C209 H236 0.980 . S
C209 H237 0.983 . S
C210 H186 0.948 . S
C210 C211 1.391 . S
C210 C215 1.391 . S
C211 C210 1.391 . S
C211 C212 1.391 . S
C212 H189 0.947 . S
C212 C211 1.391 . S
C212 C213 1.392 . S
C213 H190 0.948 . S
C213 C212 1.392 . S
C213 C214 1.419 . S
C214 C213 1.419 . S
C214 C215 1.391 . S
C214 C218 1.397 . S
C215 C210 1.391 . S
C215 C214 1.391 . S
C215 C216 1.399 . S
C216 C215 1.399 . S
C216 C217 1.396 . S
C216 C219 1.453 . S
C216 C220 1.684 . S
C217 C207 1.723 . S
C217 C216 1.396 . S
C217 C218 1.394 . S
C218 C188 1.723 . S
C218 C214 1.397 . S
C218 C217 1.394 . S
C219 H191 0.982 . S
C219 H195 0.979 . S
C219 H196 0.977 . S
C219 C216 1.453 . S
C220 H192 0.979 . S
C220 H193 0.980 . S
C220 H194 0.983 . S
C220 C216 1.684 . S
H221 C239 0.948 . S
H222 C180 0.948 . S
H223 C198 0.979 . S
H224 C198 0.980 . S
H225 C198 0.983 . S
H226 C197 0.982 . S
H227 C197 0.979 . S
H228 C197 0.977 . S
H229 C199 0.948 . S
H230 C201 0.947 . S
H231 C202 0.948 . S
H232 C208 0.982 . S
H233 C208 0.979 . S
H234 C208 0.977 . S
H235 C209 0.979 . S
H236 C209 0.980 . S
H237 C209 0.983 . S
H238 C182 0.947 . S
C239 C182 1.392 . S
C239 C183 1.419 . S
C239 H221 0.948 . S
C240 C241 1.391 . S
C240 C244 1.391 . S
C240 H282 0.948 . S
C241 C240 1.391 . S
C241 C242 1.391 . S
C242 C241 1.391 . S
C242 H298 0.947 . S
C242 C299 1.392 . S
C243 C244 1.391 . S
C243 C247 1.397 . S
C243 C299 1.419 . S
C244 C240 1.391 . S
C244 C243 1.391 . S
C244 C245 1.399 . S
C245 C244 1.399 . S
C245 C248 1.396 . S
C245 C257 1.453 . S
C245 C258 1.684 . S
H246 C270 0.948 . S
C247 C243 1.397 . S
C247 C248 1.394 . S
C247 C266 1.723 . S
C248 C245 1.396 . S
C248 C247 1.394 . S
C248 C278 1.723 . S
H249 C272 0.947 . S
H250 C273 0.948 . S
H251 C279 0.982 . S
H252 C280 0.979 . S
H253 C280 0.980 . S
H254 C280 0.983 . S
H255 C279 0.979 . S
H256 C279 0.977 . S
C257 C245 1.453 . S
C257 H286 0.982 . S
C257 H287 0.979 . S
C257 H288 0.977 . S
C258 C245 1.684 . S
C258 H283 0.979 . S
C258 H284 0.980 . S
C258 H285 0.983 . S
C259 C260 1.391 . S
C259 C264 1.391 . S
C259 H289 0.948 . S
C260 C259 1.391 . S
C260 C261 1.391 . S
C261 C260 1.391 . S
C261 C262 1.392 . S
C261 H290 0.947 . S
C262 C261 1.392 . S
C262 C263 1.419 . S
C262 H291 0.948 . S
C263 C262 1.419 . S
C263 C264 1.391 . S
C263 C267 1.397 . S
C264 C259 1.391 . S
C264 C263 1.391 . S
C264 C265 1.399 . S
C265 C264 1.399 . S
C265 C266 1.396 . S
C265 C268 1.453 . S
C265 C269 1.684 . S
C266 C247 1.723 . S
C266 C265 1.396 . S
C266 C267 1.394 . S
C267 C263 1.397 . S
C267 C266 1.394 . S
C267 C277 1.723 . S
C268 C265 1.453 . S
C268 H292 0.982 . S
C268 H293 0.979 . S
C268 H294 0.977 . S
C269 C265 1.684 . S
C269 H295 0.979 . S
C269 H296 0.980 . S
C269 H297 0.983 . S
C270 H246 0.948 . S
C270 C271 1.391 . S
C270 C275 1.391 . S
C271 C270 1.391 . S
C271 C272 1.391 . S
C272 H249 0.947 . S
C272 C271 1.391 . S
C272 C273 1.392 . S
C273 H250 0.948 . S
C273 C272 1.392 . S
C273 C274 1.419 . S
C274 C273 1.419 . S
C274 C275 1.391 . S
C274 C278 1.397 . S
C275 C270 1.391 . S
C275 C274 1.391 . S
C275 C276 1.399 . S
C276 C275 1.399 . S
C276 C277 1.396 . S
C276 C279 1.453 . S
C276 C280 1.684 . S
C277 C267 1.723 . S
C277 C276 1.396 . S
C277 C278 1.394 . S
C278 C248 1.723 . S
C278 C274 1.397 . S
C278 C277 1.394 . S
C279 H251 0.982 . S
C279 H255 0.979 . S
C279 H256 0.977 . S
C279 C276 1.453 . S
C280 H252 0.979 . S
C280 H253 0.980 . S
C280 H254 0.983 . S
C280 C276 1.684 . S
H281 C299 0.948 . S
H282 C240 0.948 . S
H283 C258 0.979 . S
H284 C258 0.980 . S
H285 C258 0.983 . S
H286 C257 0.982 . S
H287 C257 0.979 . S
H288 C257 0.977 . S
H289 C259 0.948 . S
H290 C261 0.947 . S
H291 C262 0.948 . S
H292 C268 0.982 . S
H293 C268 0.979 . S
H294 C268 0.977 . S
H295 C269 0.979 . S
H296 C269 0.980 . S
H297 C269 0.983 . S
H298 C242 0.947 . S
C299 C242 1.392 . S
C299 C243 1.419 . S
C299 H281 0.948 . S
C300 C301 1.391 . S
C300 C304 1.391 . S
C300 H342 0.948 . S
C301 C300 1.391 . S
C301 C302 1.391 . S
C302 C301 1.391 . S
C302 H358 0.947 . S
C302 C359 1.392 . S
C303 C304 1.391 . S
C303 C307 1.397 . S
C303 C359 1.419 . S
C304 C300 1.391 . S
C304 C303 1.391 . S
C304 C305 1.399 . S
C305 C304 1.399 . S
C305 C308 1.396 . S
C305 C317 1.453 . S
C305 C318 1.684 . S
H306 C330 0.948 . S
C307 C303 1.397 . S
C307 C308 1.394 . S
C307 C326 1.723 . S
C308 C305 1.396 . S
C308 C307 1.394 . S
C308 C338 1.723 . S
H309 C332 0.947 . S
H310 C333 0.948 . S
H311 C339 0.982 . S
H312 C340 0.979 . S
H313 C340 0.980 . S
H314 C340 0.983 . S
H315 C339 0.979 . S
H316 C339 0.977 . S
C317 C305 1.453 . S
C317 H346 0.982 . S
C317 H347 0.979 . S
C317 H348 0.977 . S
C318 C305 1.684 . S
C318 H343 0.979 . S
C318 H344 0.980 . S
C318 H345 0.983 . S
C319 C320 1.391 . S
C319 C324 1.391 . S
C319 H349 0.948 . S
C320 C319 1.391 . S
C320 C321 1.391 . S
C321 C320 1.391 . S
C321 C322 1.392 . S
C321 H350 0.947 . S
C322 C321 1.392 . S
C322 C323 1.419 . S
C322 H351 0.948 . S
C323 C322 1.419 . S
C323 C324 1.391 . S
C323 C327 1.397 . S
C324 C319 1.391 . S
C324 C323 1.391 . S
C324 C325 1.399 . S
C325 C324 1.399 . S
C325 C326 1.396 . S
C325 C328 1.453 . S
C325 C329 1.684 . S
C326 C307 1.723 . S
C326 C325 1.396 . S
C326 C327 1.394 . S
C327 C323 1.397 . S
C327 C326 1.394 . S
C327 C337 1.723 . S
C328 C325 1.453 . S
C328 H352 0.982 . S
C328 H353 0.979 . S
C328 H354 0.977 . S
C329 C325 1.684 . S
C329 H355 0.979 . S
C329 H356 0.980 . S
C329 H357 0.983 . S
C330 H306 0.948 . S
C330 C331 1.391 . S
C330 C335 1.391 . S
C331 C330 1.391 . S
C331 C332 1.391 . S
C332 H309 0.947 . S
C332 C331 1.391 . S
C332 C333 1.392 . S
C333 H310 0.948 . S
C333 C332 1.392 . S
C333 C334 1.419 . S
C334 C333 1.419 . S
C334 C335 1.391 . S
C334 C338 1.397 . S
C335 C330 1.391 . S
C335 C334 1.391 . S
C335 C336 1.399 . S
C336 C335 1.399 . S
C336 C337 1.396 . S
C336 C339 1.453 . S
C336 C340 1.684 . S
C337 C327 1.723 . S
C337 C336 1.396 . S
C337 C338 1.394 . S
C338 C308 1.723 . S
C338 C334 1.397 . S
C338 C337 1.394 . S
C339 H311 0.982 . S
C339 H315 0.979 . S
C339 H316 0.977 . S
C339 C336 1.453 . S
C340 H312 0.979 . S
C340 H313 0.980 . S
C340 H314 0.983 . S
C340 C336 1.684 . S
H341 C359 0.948 . S
H342 C300 0.948 . S
H343 C318 0.979 . S
H344 C318 0.980 . S
H345 C318 0.983 . S
H346 C317 0.982 . S
H347 C317 0.979 . S
H348 C317 0.977 . S
H349 C319 0.948 . S
H350 C321 0.947 . S
H351 C322 0.948 . S
H352 C328 0.982 . S
H353 C328 0.979 . S
H354 C328 0.977 . S
H355 C329 0.979 . S
H356 C329 0.980 . S
H357 C329 0.983 . S
H358 C302 0.947 . S
C359 C302 1.392 . S
C359 C303 1.419 . S
C359 H341 0.948 . S
C360 C361 1.391 . S
C360 C364 1.391 . S
C360 H402 0.948 . S
C361 C360 1.391 . S
C361 C362 1.391 . S
C362 C361 1.391 . S
C362 H418 0.947 . S
C362 C419 1.392 . S
C363 C364 1.391 . S
C363 C367 1.397 . S
C363 C419 1.419 . S
C364 C360 1.391 . S
C364 C363 1.391 . S
C364 C365 1.399 . S
C365 C364 1.399 . S
C365 C368 1.396 . S
C365 C377 1.453 . S
C365 C378 1.684 . S
H366 C390 0.948 . S
C367 C363 1.397 . S
C367 C368 1.394 . S
C367 C386 1.723 . S
C368 C365 1.396 . S
C368 C367 1.394 . S
C368 C398 1.723 . S
H369 C392 0.947 . S
H370 C393 0.948 . S
H371 C399 0.982 . S
H372 C400 0.979 . S
H373 C400 0.980 . S
H374 C400 0.983 . S
H375 C399 0.979 . S
H376 C399 0.977 . S
C377 C365 1.453 . S
C377 H406 0.982 . S
C377 H407 0.979 . S
C377 H408 0.977 . S
C378 C365 1.684 . S
C378 H403 0.979 . S
C378 H404 0.980 . S
C378 H405 0.983 . S
C379 C380 1.391 . S
C379 C384 1.391 . S
C379 H409 0.948 . S
C380 C379 1.391 . S
C380 C381 1.391 . S
C381 C380 1.391 . S
C381 C382 1.392 . S
C381 H410 0.947 . S
C382 C381 1.392 . S
C382 C383 1.419 . S
C382 H411 0.948 . S
C383 C382 1.419 . S
C383 C384 1.391 . S
C383 C387 1.397 . S
C384 C379 1.391 . S
C384 C383 1.391 . S
C384 C385 1.399 . S
C385 C384 1.399 . S
C385 C386 1.396 . S
C385 C388 1.453 . S
C385 C389 1.684 . S
C386 C367 1.723 . S
C386 C385 1.396 . S
C386 C387 1.394 . S
C387 C383 1.397 . S
C387 C386 1.394 . S
C387 C397 1.723 . S
C388 C385 1.453 . S
C388 H412 0.982 . S
C388 H413 0.979 . S
C388 H414 0.977 . S
C389 C385 1.684 . S
C389 H415 0.979 . S
C389 H416 0.980 . S
C389 H417 0.983 . S
C390 H366 0.948 . S
C390 C391 1.391 . S
C390 C395 1.391 . S
C391 C390 1.391 . S
C391 C392 1.391 . S
C392 H369 0.947 . S
C392 C391 1.391 . S
C392 C393 1.392 . S
C393 H370 0.948 . S
C393 C392 1.392 . S
C393 C394 1.419 . S
C394 C393 1.419 . S
C394 C395 1.391 . S
C394 C398 1.397 . S
C395 C390 1.391 . S
C395 C394 1.391 . S
C395 C396 1.399 . S
C396 C395 1.399 . S
C396 C397 1.396 . S
C396 C399 1.453 . S
C396 C400 1.684 . S
C397 C387 1.723 . S
C397 C396 1.396 . S
C397 C398 1.394 . S
C398 C368 1.723 . S
C398 C394 1.397 . S
C398 C397 1.394 . S
C399 H371 0.982 . S
C399 H375 0.979 . S
C399 H376 0.977 . S
C399 C396 1.453 . S
C400 H372 0.979 . S
C400 H373 0.980 . S
C400 H374 0.983 . S
C400 C396 1.684 . S
H401 C419 0.948 . S
H402 C360 0.948 . S
H403 C378 0.979 . S
H404 C378 0.980 . S
H405 C378 0.983 . S
H406 C377 0.982 . S
H407 C377 0.979 . S
H408 C377 0.977 . S
H409 C379 0.948 . S
H410 C381 0.947 . S
H411 C382 0.948 . S
H412 C388 0.982 . S
H413 C388 0.979 . S
H414 C388 0.977 . S
H415 C389 0.979 . S
H416 C389 0.980 . S
H417 C389 0.983 . S
H418 C362 0.947 . S
C419 C362 1.392 . S
C419 C363 1.419 . S
C419 H401 0.948 . S
C420 C421 1.391 . S
C420 C424 1.391 . S
C420 H462 0.948 . S
C421 C420 1.391 . S
C421 C422 1.391 . S
C422 C421 1.391 . S
C422 H478 0.947 . S
C422 C479 1.392 . S
C423 C424 1.391 . S
C423 C427 1.397 . S
C423 C479 1.419 . S
C424 C420 1.391 . S
C424 C423 1.391 . S
C424 C425 1.399 . S
C425 C424 1.399 . S
C425 C428 1.396 . S
C425 C437 1.453 . S
C425 C438 1.684 . S
H426 C450 0.948 . S
C427 C423 1.397 . S
C427 C428 1.394 . S
C427 C446 1.723 . S
C428 C425 1.396 . S
C428 C427 1.394 . S
C428 C458 1.723 . S
H429 C452 0.947 . S
H430 C453 0.948 . S
H431 C459 0.982 . S
H432 C460 0.979 . S
H433 C460 0.980 . S
H434 C460 0.983 . S
H435 C459 0.979 . S
H436 C459 0.977 . S
C437 C425 1.453 . S
C437 H466 0.982 . S
C437 H467 0.979 . S
C437 H468 0.977 . S
C438 C425 1.684 . S
C438 H463 0.979 . S
C438 H464 0.980 . S
C438 H465 0.983 . S
C439 C440 1.391 . S
C439 C444 1.391 . S
C439 H469 0.948 . S
C440 C439 1.391 . S
C440 C441 1.391 . S
C441 C440 1.391 . S
C441 C442 1.392 . S
C441 H470 0.947 . S
C442 C441 1.392 . S
C442 C443 1.419 . S
C442 H471 0.948 . S
C443 C442 1.419 . S
C443 C444 1.391 . S
C443 C447 1.397 . S
C444 C439 1.391 . S
C444 C443 1.391 . S
C444 C445 1.399 . S
C445 C444 1.399 . S
C445 C446 1.396 . S
C445 C448 1.453 . S
C445 C449 1.684 . S
C446 C427 1.723 . S
C446 C445 1.396 . S
C446 C447 1.394 . S
C447 C443 1.397 . S
C447 C446 1.394 . S
C447 C457 1.723 . S
C448 C445 1.453 . S
C448 H472 0.982 . S
C448 H473 0.979 . S
C448 H474 0.977 . S
C449 C445 1.684 . S
C449 H475 0.979 . S
C449 H476 0.980 . S
C449 H477 0.983 . S
C450 H426 0.948 . S
C450 C451 1.391 . S
C450 C455 1.391 . S
C451 C450 1.391 . S
C451 C452 1.391 . S
C452 H429 0.947 . S
C452 C451 1.391 . S
C452 C453 1.392 . S
C453 H430 0.948 . S
C453 C452 1.392 . S
C453 C454 1.419 . S
C454 C453 1.419 . S
C454 C455 1.391 . S
C454 C458 1.397 . S
C455 C450 1.391 . S
C455 C454 1.391 . S
C455 C456 1.399 . S
C456 C455 1.399 . S
C456 C457 1.396 . S
C456 C459 1.453 . S
C456 C460 1.684 . S
C457 C447 1.723 . S
C457 C456 1.396 . S
C457 C458 1.394 . S
C458 C428 1.723 . S
C458 C454 1.397 . S
C458 C457 1.394 . S
C459 H431 0.982 . S
C459 H435 0.979 . S
C459 H436 0.977 . S
C459 C456 1.453 . S
C460 H432 0.979 . S
C460 H433 0.980 . S
C460 H434 0.983 . S
C460 C456 1.684 . S
H461 C479 0.948 . S
H462 C420 0.948 . S
H463 C438 0.979 . S
H464 C438 0.980 . S
H465 C438 0.983 . S
H466 C437 0.982 . S
H467 C437 0.979 . S
H468 C437 0.977 . S
H469 C439 0.948 . S
H470 C441 0.947 . S
H471 C442 0.948 . S
H472 C448 0.982 . S
H473 C448 0.979 . S
H474 C448 0.977 . S
H475 C449 0.979 . S
H476 C449 0.980 . S
H477 C449 0.983 . S
H478 C422 0.947 . S
C479 C422 1.392 . S
C479 C423 1.419 . S
C479 H461 0.948 . S
Tb480 N509 2.617 . S
Tb480 N515 2.572 . S
Tb480 O524 2.465 . S
Tb480 O525 2.387 . S
Tb480 O527 2.428 . S
Tb480 O528 2.308 . S
Tb480 O532 2.349 . S
Tb480 O535 2.393 . S
Tb480 C544 2.802 . S
C481 N482 1.379 . S
C481 C484 1.416 . S
C481 C488 1.424 . S
N482 C481 1.379 . S
N482 C485 1.334 . S
N482 Tb491 2.617 . S
C483 C485 1.390 . S
C483 C486 1.339 . S
C483 H503 0.930 . S
C484 C481 1.416 . S
C484 C486 1.416 . S
C484 C490 1.448 . S
C485 N482 1.334 . S
C485 C483 1.390 . S
C485 H496 0.930 . S
C486 C483 1.339 . S
C486 C484 1.416 . S
C486 H507 0.930 . S
C487 C488 1.413 . S
C487 C489 1.427 . S
C487 C493 1.416 . S
C488 C481 1.424 . S
C488 C487 1.413 . S
C488 N492 1.361 . S
C489 C487 1.427 . S
C489 C490 1.328 . S
C489 H504 0.929 . S
C490 C484 1.448 . S
C490 C489 1.328 . S
C490 H505 0.930 . S
Tb491 N482 2.617 . S
Tb491 N492 2.572 . S
Tb491 O526 2.349 1_655 S
Tb491 O529 2.393 . S
Tb491 O530 2.465 . S
Tb491 O531 2.387 . S
Tb491 O533 2.428 . S
Tb491 O534 2.308 1_655 S
Tb491 C555 2.802 . S
N492 C488 1.361 . S
N492 Tb491 2.572 . S
N492 C494 1.340 . S
C493 C487 1.416 . S
C493 C495 1.332 . S
C493 H501 0.931 . S
C494 N492 1.340 . S
C494 C495 1.407 . S
C494 H500 0.930 . S
C495 C493 1.332 . S
C495 C494 1.407 . S
C495 H497 0.929 . S
H496 C485 0.930 . S
H497 C495 0.929 . S
H498 C513 0.930 . S
H499 C520 0.929 . S
H500 C494 0.930 . S
H501 C493 0.931 . S
H502 C516 0.930 . S
H503 C483 0.930 . S
H504 C489 0.929 . S
H505 C490 0.930 . S
H506 C511 0.930 . S
H507 C486 0.930 . S
H508 C519 0.931 . S
N509 Tb480 2.617 . S
N509 C510 1.379 . S
N509 C513 1.334 . S
C510 N509 1.379 . S
C510 C512 1.416 . S
C510 C518 1.424 . S
C511 H506 0.930 . S
C511 C513 1.390 . S
C511 C514 1.339 . S
C512 C510 1.416 . S
C512 C514 1.416 . S
C512 C545 1.448 . S
C513 H498 0.930 . S
C513 N509 1.334 . S
C513 C511 1.390 . S
C514 C511 1.339 . S
C514 C512 1.416 . S
C514 H521 0.930 . S
N515 Tb480 2.572 . S
N515 C516 1.340 . S
N515 C518 1.361 . S
C516 H502 0.930 . S
C516 N515 1.340 . S
C516 C520 1.407 . S
C517 C518 1.413 . S
C517 C519 1.416 . S
C517 C546 1.427 . S
C518 C510 1.424 . S
C518 N515 1.361 . S
C518 C517 1.413 . S
C519 H508 0.931 . S
C519 C517 1.416 . S
C519 C520 1.332 . S
C520 H499 0.929 . S
C520 C516 1.407 . S
C520 C519 1.332 . S
H521 C514 0.930 . S
H522 C545 0.930 . S
H523 C546 0.929 . S
O524 Tb480 2.465 . S
O524 C544 1.264 . S
O525 Tb480 2.387 . S
O525 C536 1.264 . S
O526 Tb491 2.349 1_455 S
O526 C536 1.243 . S
O527 Tb480 2.428 . S
O527 C544 1.256 . S
O528 Tb480 2.308 . S
O528 C543 1.266 1_455 S
O529 Tb491 2.393 . S
O529 C543 1.248 . S
O530 Tb491 2.465 . S
O530 C555 1.264 . S
O531 Tb491 2.387 . S
O531 C547 1.264 . S
O532 Tb480 2.349 . S
O532 C547 1.243 1_455 S
O533 Tb491 2.428 . S
O533 C555 1.256 . S
O534 Tb491 2.308 1_455 S
O534 C554 1.266 . S
O535 Tb480 2.393 . S
O535 C554 1.248 . S
C536 O525 1.264 . S
C536 O526 1.243 . S
C537 C540 1.399 . S
C537 C542 1.383 . S
C537 C544 1.496 . S
C538 C539 1.399 . S
C538 C542 1.389 . S
C539 C538 1.399 . S
C539 C541 1.380 . S
C539 H556 0.929 . S
C540 C537 1.399 . S
C540 C541 1.392 . S
C540 H557 0.929 . S
C541 C539 1.380 . S
C541 C540 1.392 . S
C541 H558 0.929 . S
C542 C537 1.383 . S
C542 C538 1.389 . S
C542 H559 0.931 . S
C543 O528 1.266 1_655 S
C543 O529 1.248 . S
C544 Tb480 2.802 . S
C544 O524 1.264 . S
C544 O527 1.256 . S
C544 C537 1.496 . S
C545 C512 1.448 . S
C545 H522 0.930 . S
C545 C546 1.328 . S
C546 C517 1.427 . S
C546 H523 0.929 . S
C546 C545 1.328 . S
C547 O531 1.264 . S
C547 O532 1.243 1_655 S
C548 C551 1.399 . S
C548 C552 1.383 . S
C548 C555 1.496 . S
C549 C550 1.399 . S
C549 C552 1.389 . S
C550 C549 1.399 . S
C550 C553 1.380 . S
C550 H560 0.929 . S
C551 C548 1.399 . S
C551 C553 1.392 . S
C551 H561 0.929 . S
C552 C548 1.383 . S
C552 C549 1.389 . S
C552 H562 0.931 . S
C553 C550 1.380 . S
C553 C551 1.392 . S
C553 H563 0.929 . S
C554 O534 1.266 . S
C554 O535 1.248 . S
C555 Tb491 2.802 . S
C555 O530 1.264 . S
C555 O533 1.256 . S
C555 C548 1.496 . S
H556 C539 0.929 . S
H557 C540 0.929 . S
H558 C541 0.929 . S
H559 C542 0.931 . S
H560 C550 0.929 . S
H561 C551 0.929 . S
H562 C552 0.931 . S
H563 C553 0.929 . S
Tb564 N593 2.617 . S
Tb564 N599 2.572 . S
Tb564 O608 2.465 . S
Tb564 O609 2.387 . S
Tb564 O611 2.428 . S
Tb564 O612 2.308 . S
Tb564 O616 2.349 . S
Tb564 O619 2.393 . S
Tb564 C628 2.802 . S
C565 N566 1.379 . S
C565 C568 1.416 . S
C565 C572 1.424 . S
N566 C565 1.379 . S
N566 C569 1.334 . S
N566 Tb575 2.617 . S
C567 C569 1.390 . S
C567 C570 1.339 . S
C567 H587 0.930 . S
C568 C565 1.416 . S
C568 C570 1.416 . S
C568 C574 1.448 . S
C569 N566 1.334 . S
C569 C567 1.390 . S
C569 H580 0.930 . S
C570 C567 1.339 . S
C570 C568 1.416 . S
C570 H591 0.930 . S
C571 C572 1.413 . S
C571 C573 1.427 . S
C571 C577 1.416 . S
C572 C565 1.424 . S
C572 C571 1.413 . S
C572 N576 1.361 . S
C573 C571 1.427 . S
C573 C574 1.328 . S
C573 H588 0.929 . S
C574 C568 1.448 . S
C574 C573 1.328 . S
C574 H589 0.930 . S
Tb575 N566 2.617 . S
Tb575 N576 2.572 . S
Tb575 O610 2.349 . S
Tb575 O613 2.393 . S
Tb575 O614 2.465 . S
Tb575 O615 2.387 . S
Tb575 O617 2.428 . S
Tb575 O618 2.308 . S
Tb575 C639 2.802 . S
N576 C572 1.361 . S
N576 Tb575 2.572 . S
N576 C578 1.340 . S
C577 C571 1.416 . S
C577 C579 1.332 . S
C577 H585 0.931 . S
C578 N576 1.340 . S
C578 C579 1.407 . S
C578 H584 0.930 . S
C579 C577 1.332 . S
C579 C578 1.407 . S
C579 H581 0.929 . S
H580 C569 0.930 . S
H581 C579 0.929 . S
H582 C597 0.930 . S
H583 C604 0.929 . S
H584 C578 0.930 . S
H585 C577 0.931 . S
H586 C600 0.930 . S
H587 C567 0.930 . S
H588 C573 0.929 . S
H589 C574 0.930 . S
H590 C595 0.930 . S
H591 C570 0.930 . S
H592 C603 0.931 . S
N593 Tb564 2.617 . S
N593 C594 1.379 . S
N593 C597 1.334 . S
C594 N593 1.379 . S
C594 C596 1.416 . S
C594 C602 1.424 . S
C595 H590 0.930 . S
C595 C597 1.390 . S
C595 C598 1.339 . S
C596 C594 1.416 . S
C596 C598 1.416 . S
C596 C629 1.448 . S
C597 H582 0.930 . S
C597 N593 1.334 . S
C597 C595 1.390 . S
C598 C595 1.339 . S
C598 C596 1.416 . S
C598 H605 0.930 . S
N599 Tb564 2.572 . S
N599 C600 1.340 . S
N599 C602 1.361 . S
C600 H586 0.930 . S
C600 N599 1.340 . S
C600 C604 1.407 . S
C601 C602 1.413 . S
C601 C603 1.416 . S
C601 C630 1.427 . S
C602 C594 1.424 . S
C602 N599 1.361 . S
C602 C601 1.413 . S
C603 H592 0.931 . S
C603 C601 1.416 . S
C603 C604 1.332 . S
C604 H583 0.929 . S
C604 C600 1.407 . S
C604 C603 1.332 . S
H605 C598 0.930 . S
H606 C629 0.930 . S
H607 C630 0.929 . S
O608 Tb564 2.465 . S
O608 C628 1.264 . S
O609 Tb564 2.387 . S
O609 C620 1.264 . S
O610 Tb575 2.349 . S
O610 C620 1.243 . S
O611 Tb564 2.428 . S
O611 C628 1.256 . S
O612 Tb564 2.308 . S
O612 C627 1.266 . S
O613 Tb575 2.393 . S
O613 C627 1.248 . S
O614 Tb575 2.465 . S
O614 C639 1.264 . S
O615 Tb575 2.387 . S
O615 C631 1.264 . S
O616 Tb564 2.349 . S
O616 C631 1.243 . S
O617 Tb575 2.428 . S
O617 C639 1.256 . S
O618 Tb575 2.308 . S
O618 C638 1.266 . S
O619 Tb564 2.393 . S
O619 C638 1.248 . S
C620 O609 1.264 . S
C620 O610 1.243 . S
C621 C624 1.399 . S
C621 C626 1.383 . S
C621 C628 1.496 . S
C622 C623 1.399 . S
C622 C626 1.389 . S
C623 C622 1.399 . S
C623 C625 1.380 . S
C623 H640 0.929 . S
C624 C621 1.399 . S
C624 C625 1.392 . S
C624 H641 0.929 . S
C625 C623 1.380 . S
C625 C624 1.392 . S
C625 H642 0.929 . S
C626 C621 1.383 . S
C626 C622 1.389 . S
C626 H643 0.931 . S
C627 O612 1.266 . S
C627 O613 1.248 . S
C628 Tb564 2.802 . S
C628 O608 1.264 . S
C628 O611 1.256 . S
C628 C621 1.496 . S
C629 C596 1.448 . S
C629 H606 0.930 . S
C629 C630 1.328 . S
C630 C601 1.427 . S
C630 H607 0.929 . S
C630 C629 1.328 . S
C631 O615 1.264 . S
C631 O616 1.243 . S
C632 C635 1.399 . S
C632 C636 1.383 . S
C632 C639 1.496 . S
C633 C634 1.399 . S
C633 C636 1.389 . S
C634 C633 1.399 . S
C634 C637 1.380 . S
C634 H644 0.929 . S
C635 C632 1.399 . S
C635 C637 1.392 . S
C635 H645 0.929 . S
C636 C632 1.383 . S
C636 C633 1.389 . S
C636 H646 0.931 . S
C637 C634 1.380 . S
C637 C635 1.392 . S
C637 H647 0.929 . S
C638 O618 1.266 . S
C638 O619 1.248 . S
C639 Tb575 2.802 . S
C639 O614 1.264 . S
C639 O617 1.256 . S
C639 C632 1.496 . S
H640 C623 0.929 . S
H641 C624 0.929 . S
H642 C625 0.929 . S
H643 C626 0.931 . S
H644 C634 0.929 . S
H645 C635 0.929 . S
H646 C636 0.931 . S
H647 C637 0.929 . S
Tb648 N677 2.617 . S
Tb648 N683 2.572 . S
Tb648 O692 2.465 . S
Tb648 O693 2.387 . S
Tb648 O695 2.428 . S
Tb648 O696 2.308 . S
Tb648 O700 2.349 . S
Tb648 O703 2.393 . S
Tb648 C712 2.802 . S
C649 N650 1.379 . S
C649 C652 1.416 . S
C649 C656 1.424 . S
N650 C649 1.379 . S
N650 C653 1.334 . S
N650 Tb659 2.617 . S
C651 C653 1.390 . S
C651 C654 1.339 . S
C651 H671 0.930 . S
C652 C649 1.416 . S
C652 C654 1.416 . S
C652 C658 1.448 . S
C653 N650 1.334 . S
C653 C651 1.390 . S
C653 H664 0.930 . S
C654 C651 1.339 . S
C654 C652 1.416 . S
C654 H675 0.930 . S
C655 C656 1.413 . S
C655 C657 1.427 . S
C655 C661 1.416 . S
C656 C649 1.424 . S
C656 C655 1.413 . S
C656 N660 1.361 . S
C657 C655 1.427 . S
C657 C658 1.328 . S
C657 H672 0.929 . S
C658 C652 1.448 . S
C658 C657 1.328 . S
C658 H673 0.930 . S
Tb659 N650 2.617 . S
Tb659 N660 2.572 . S
Tb659 O694 2.349 1_655 S
Tb659 O697 2.393 . S
Tb659 O698 2.465 . S
Tb659 O699 2.387 . S
Tb659 O701 2.428 . S
Tb659 O702 2.308 1_655 S
Tb659 C723 2.802 . S
N660 C656 1.361 . S
N660 Tb659 2.572 . S
N660 C662 1.340 . S
C661 C655 1.416 . S
C661 C663 1.332 . S
C661 H669 0.931 . S
C662 N660 1.340 . S
C662 C663 1.407 . S
C662 H668 0.930 . S
C663 C661 1.332 . S
C663 C662 1.407 . S
C663 H665 0.929 . S
H664 C653 0.930 . S
H665 C663 0.929 . S
H666 C681 0.930 . S
H667 C688 0.929 . S
H668 C662 0.930 . S
H669 C661 0.931 . S
H670 C684 0.930 . S
H671 C651 0.930 . S
H672 C657 0.929 . S
H673 C658 0.930 . S
H674 C679 0.930 . S
H675 C654 0.930 . S
H676 C687 0.931 . S
N677 Tb648 2.617 . S
N677 C678 1.379 . S
N677 C681 1.334 . S
C678 N677 1.379 . S
C678 C680 1.416 . S
C678 C686 1.424 . S
C679 H674 0.930 . S
C679 C681 1.390 . S
C679 C682 1.339 . S
C680 C678 1.416 . S
C680 C682 1.416 . S
C680 C713 1.448 . S
C681 H666 0.930 . S
C681 N677 1.334 . S
C681 C679 1.390 . S
C682 C679 1.339 . S
C682 C680 1.416 . S
C682 H689 0.930 . S
N683 Tb648 2.572 . S
N683 C684 1.340 . S
N683 C686 1.361 . S
C684 H670 0.930 . S
C684 N683 1.340 . S
C684 C688 1.407 . S
C685 C686 1.413 . S
C685 C687 1.416 . S
C685 C714 1.427 . S
C686 C678 1.424 . S
C686 N683 1.361 . S
C686 C685 1.413 . S
C687 H676 0.931 . S
C687 C685 1.416 . S
C687 C688 1.332 . S
C688 H667 0.929 . S
C688 C684 1.407 . S
C688 C687 1.332 . S
H689 C682 0.930 . S
H690 C713 0.930 . S
H691 C714 0.929 . S
O692 Tb648 2.465 . S
O692 C712 1.264 . S
O693 Tb648 2.387 . S
O693 C704 1.264 . S
O694 Tb659 2.349 1_455 S
O694 C704 1.243 . S
O695 Tb648 2.428 . S
O695 C712 1.256 . S
O696 Tb648 2.308 . S
O696 C711 1.266 1_455 S
O697 Tb659 2.393 . S
O697 C711 1.248 . S
O698 Tb659 2.465 . S
O698 C723 1.264 . S
O699 Tb659 2.387 . S
O699 C715 1.264 . S
O700 Tb648 2.349 . S
O700 C715 1.243 1_455 S
O701 Tb659 2.428 . S
O701 C723 1.256 . S
O702 Tb659 2.308 1_455 S
O702 C722 1.266 . S
O703 Tb648 2.393 . S
O703 C722 1.248 . S
C704 O693 1.264 . S
C704 O694 1.243 . S
C705 C708 1.399 . S
C705 C710 1.383 . S
C705 C712 1.496 . S
C706 C707 1.399 . S
C706 C710 1.389 . S
C707 C706 1.399 . S
C707 C709 1.380 . S
C707 H724 0.929 . S
C708 C705 1.399 . S
C708 C709 1.392 . S
C708 H725 0.929 . S
C709 C707 1.380 . S
C709 C708 1.392 . S
C709 H726 0.929 . S
C710 C705 1.383 . S
C710 C706 1.389 . S
C710 H727 0.931 . S
C711 O696 1.266 1_655 S
C711 O697 1.248 . S
C712 Tb648 2.802 . S
C712 O692 1.264 . S
C712 O695 1.256 . S
C712 C705 1.496 . S
C713 C680 1.448 . S
C713 H690 0.930 . S
C713 C714 1.328 . S
C714 C685 1.427 . S
C714 H691 0.929 . S
C714 C713 1.328 . S
C715 O699 1.264 . S
C715 O700 1.243 1_655 S
C716 C719 1.399 . S
C716 C720 1.383 . S
C716 C723 1.496 . S
C717 C718 1.399 . S
C717 C720 1.389 . S
C718 C717 1.399 . S
C718 C721 1.380 . S
C718 H728 0.929 . S
C719 C716 1.399 . S
C719 C721 1.392 . S
C719 H729 0.929 . S
C720 C716 1.383 . S
C720 C717 1.389 . S
C720 H730 0.931 . S
C721 C718 1.380 . S
C721 C719 1.392 . S
C721 H731 0.929 . S
C722 O702 1.266 . S
C722 O703 1.248 . S
C723 Tb659 2.802 . S
C723 O698 1.264 . S
C723 O701 1.256 . S
C723 C716 1.496 . S
H724 C707 0.929 . S
H725 C708 0.929 . S
H726 C709 0.929 . S
H727 C710 0.931 . S
H728 C718 0.929 . S
H729 C719 0.929 . S
H730 C720 0.931 . S
H731 C721 0.929 . S
Tb732 N761 2.617 . S
Tb732 N767 2.572 . S
Tb732 O776 2.465 . S
Tb732 O777 2.387 . S
Tb732 O779 2.428 . S
Tb732 O780 2.308 . S
Tb732 O784 2.349 . S
Tb732 O787 2.393 . S
Tb732 C796 2.802 . S
C733 N734 1.379 . S
C733 C736 1.416 . S
C733 C740 1.424 . S
N734 C733 1.379 . S
N734 C737 1.334 . S
N734 Tb743 2.617 . S
C735 C737 1.390 . S
C735 C738 1.339 . S
C735 H755 0.930 . S
C736 C733 1.416 . S
C736 C738 1.416 . S
C736 C742 1.448 . S
C737 N734 1.334 . S
C737 C735 1.390 . S
C737 H748 0.930 . S
C738 C735 1.339 . S
C738 C736 1.416 . S
C738 H759 0.930 . S
C739 C740 1.413 . S
C739 C741 1.427 . S
C739 C745 1.416 . S
C740 C733 1.424 . S
C740 C739 1.413 . S
C740 N744 1.361 . S
C741 C739 1.427 . S
C741 C742 1.328 . S
C741 H756 0.929 . S
C742 C736 1.448 . S
C742 C741 1.328 . S
C742 H757 0.930 . S
Tb743 N734 2.617 . S
Tb743 N744 2.572 . S
Tb743 O778 2.349 . S
Tb743 O781 2.393 . S
Tb743 O782 2.465 . S
Tb743 O783 2.387 . S
Tb743 O785 2.428 . S
Tb743 O786 2.308 . S
Tb743 C807 2.802 . S
N744 C740 1.361 . S
N744 Tb743 2.572 . S
N744 C746 1.340 . S
C745 C739 1.416 . S
C745 C747 1.332 . S
C745 H753 0.931 . S
C746 N744 1.340 . S
C746 C747 1.407 . S
C746 H752 0.930 . S
C747 C745 1.332 . S
C747 C746 1.407 . S
C747 H749 0.929 . S
H748 C737 0.930 . S
H749 C747 0.929 . S
H750 C765 0.930 . S
H751 C772 0.929 . S
H752 C746 0.930 . S
H753 C745 0.931 . S
H754 C768 0.930 . S
H755 C735 0.930 . S
H756 C741 0.929 . S
H757 C742 0.930 . S
H758 C763 0.930 . S
H759 C738 0.930 . S
H760 C771 0.931 . S
N761 Tb732 2.617 . S
N761 C762 1.379 . S
N761 C765 1.334 . S
C762 N761 1.379 . S
C762 C764 1.416 . S
C762 C770 1.424 . S
C763 H758 0.930 . S
C763 C765 1.390 . S
C763 C766 1.339 . S
C764 C762 1.416 . S
C764 C766 1.416 . S
C764 C797 1.448 . S
C765 H750 0.930 . S
C765 N761 1.334 . S
C765 C763 1.390 . S
C766 C763 1.339 . S
C766 C764 1.416 . S
C766 H773 0.930 . S
N767 Tb732 2.572 . S
N767 C768 1.340 . S
N767 C770 1.361 . S
C768 H754 0.930 . S
C768 N767 1.340 . S
C768 C772 1.407 . S
C769 C770 1.413 . S
C769 C771 1.416 . S
C769 C798 1.427 . S
C770 C762 1.424 . S
C770 N767 1.361 . S
C770 C769 1.413 . S
C771 H760 0.931 . S
C771 C769 1.416 . S
C771 C772 1.332 . S
C772 H751 0.929 . S
C772 C768 1.407 . S
C772 C771 1.332 . S
H773 C766 0.930 . S
H774 C797 0.930 . S
H775 C798 0.929 . S
O776 Tb732 2.465 . S
O776 C796 1.264 . S
O777 Tb732 2.387 . S
O777 C788 1.264 . S
O778 Tb743 2.349 . S
O778 C788 1.243 . S
O779 Tb732 2.428 . S
O779 C796 1.256 . S
O780 Tb732 2.308 . S
O780 C795 1.266 . S
O781 Tb743 2.393 . S
O781 C795 1.248 . S
O782 Tb743 2.465 . S
O782 C807 1.264 . S
O783 Tb743 2.387 . S
O783 C799 1.264 . S
O784 Tb732 2.349 . S
O784 C799 1.243 . S
O785 Tb743 2.428 . S
O785 C807 1.256 . S
O786 Tb743 2.308 . S
O786 C806 1.266 . S
O787 Tb732 2.393 . S
O787 C806 1.248 . S
C788 O777 1.264 . S
C788 O778 1.243 . S
C789 C792 1.399 . S
C789 C794 1.383 . S
C789 C796 1.496 . S
C790 C791 1.399 . S
C790 C794 1.389 . S
C791 C790 1.399 . S
C791 C793 1.380 . S
C791 H808 0.929 . S
C792 C789 1.399 . S
C792 C793 1.392 . S
C792 H809 0.929 . S
C793 C791 1.380 . S
C793 C792 1.392 . S
C793 H810 0.929 . S
C794 C789 1.383 . S
C794 C790 1.389 . S
C794 H811 0.931 . S
C795 O780 1.266 . S
C795 O781 1.248 . S
C796 Tb732 2.802 . S
C796 O776 1.264 . S
C796 O779 1.256 . S
C796 C789 1.496 . S
C797 C764 1.448 . S
C797 H774 0.930 . S
C797 C798 1.328 . S
C798 C769 1.427 . S
C798 H775 0.929 . S
C798 C797 1.328 . S
C799 O783 1.264 . S
C799 O784 1.243 . S
C800 C803 1.399 . S
C800 C804 1.383 . S
C800 C807 1.496 . S
C801 C802 1.399 . S
C801 C804 1.389 . S
C802 C801 1.399 . S
C802 C805 1.380 . S
C802 H812 0.929 . S
C803 C800 1.399 . S
C803 C805 1.392 . S
C803 H813 0.929 . S
C804 C800 1.383 . S
C804 C801 1.389 . S
C804 H814 0.931 . S
C805 C802 1.380 . S
C805 C803 1.392 . S
C805 H815 0.929 . S
C806 O786 1.266 . S
C806 O787 1.248 . S
C807 Tb743 2.802 . S
C807 O782 1.264 . S
C807 O785 1.256 . S
C807 C800 1.496 . S
H808 C791 0.929 . S
H809 C792 0.929 . S
H810 C793 0.929 . S
H811 C794 0.931 . S
H812 C802 0.929 . S
H813 C803 0.929 . S
H814 C804 0.931 . S
H815 C805 0.929 . S
H816 C834 0.951 . S
H817 C836 0.951 . S
H818 C838 0.950 1_545 S
H819 C839 0.950 . S
H820 C841 0.950 . S
H821 C844 0.950 . S
H822 C845 0.950 . S
H823 C847 0.950 . S
H824 C848 0.950 . S
H825 C849 0.951 . S
H826 C851 0.951 . S
H827 C853 0.950 . S
H828 C854 0.950 . S
H829 C856 0.950 . S
H830 C859 0.950 . S
H831 C860 0.950 . S
H832 C862 0.950 . S
H833 C863 0.950 . S
C834 H816 0.951 . S
C834 C835 1.366 . S
C834 C836 1.388 . S
C835 C834 1.366 . S
C835 C839 1.385 . S
C836 H817 0.951 . S
C836 C834 1.388 . S
C836 C837 1.349 1_565 S
C837 C836 1.349 1_545 S
C837 C838 1.410 1_545 S
C837 C840 1.519 . S
C838 H818 0.950 1_565 S
C838 C837 1.410 1_565 S
C838 C839 1.374 . S
C839 H819 0.950 . S
C839 C835 1.385 . S
C839 C838 1.374 . S
C840 C837 1.519 . S
C840 C841 1.373 . S
C840 C842 1.389 . S
C841 H820 0.950 . S
C841 C840 1.373 . S
C841 C857 1.377 . S
C842 C840 1.389 . S
C842 C843 1.524 . S
C842 C856 1.377 . S
C843 C842 1.524 . S
C843 C844 1.397 . S
C843 C848 1.363 . S
C844 H821 0.950 . S
C844 C843 1.397 . S
C844 C845 1.334 . S
C845 H822 0.950 . S
C845 C844 1.334 . S
C845 C846 1.287 . S
C846 C845 1.287 . S
C846 C847 1.524 . S
C846 H865 0.913 . S
C847 H823 0.950 . S
C847 C846 1.524 . S
C847 C848 1.415 . S
C848 H824 0.950 . S
C848 C843 1.363 . S
C848 C847 1.415 . S
C849 H825 0.951 . S
C849 C850 1.366 . S
C849 C851 1.388 . S
C850 C849 1.366 . S
C850 C854 1.385 . S
C851 H826 0.951 . S
C851 C849 1.388 . S
C851 C852 1.366 . S
C852 C851 1.366 . S
C852 C853 1.414 . S
C852 C855 1.499 . S
C853 H827 0.950 . S
C853 C852 1.414 . S
C853 C854 1.374 . S
C854 H828 0.950 . S
C854 C850 1.385 . S
C854 C853 1.374 . S
C855 C852 1.499 . S
C855 C856 1.373 . S
C855 C857 1.389 . S
C856 H829 0.950 . S
C856 C842 1.377 . S
C856 C855 1.373 . S
C857 C841 1.377 . S
C857 C855 1.389 . S
C857 C858 1.524 . S
C858 C857 1.524 . S
C858 C859 1.397 . S
C858 C863 1.363 . S
C859 H830 0.950 . S
C859 C858 1.397 . S
C859 C860 1.334 1_455 S
C860 H831 0.950 . S
C860 C859 1.334 1_655 S
C860 C861 1.287 . S
C861 C860 1.287 . S
C861 C862 1.524 . S
C861 H864 0.999 . S
C862 H832 0.950 . S
C862 C861 1.524 . S
C862 C863 1.415 1_655 S
C863 H833 0.950 . S
C863 C858 1.363 . S
C863 C862 1.415 1_455 S
H864 C861 0.999 . S
H865 C846 0.913 . S
H866 C884 0.951 . S
H867 C886 0.951 . S
H868 C888 0.950 . S
H869 C889 0.950 . S
H870 C891 0.950 . S
H871 C894 0.950 . S
H872 C895 0.950 . S
H873 C897 0.950 . S
H874 C898 0.950 . S
H875 C899 0.951 . S
H876 C901 0.951 . S
H877 C903 0.950 . S
H878 C904 0.950 . S
H879 C906 0.950 . S
H880 C909 0.950 . S
H881 C910 0.950 . S
H882 C912 0.950 . S
H883 C913 0.950 . S
C884 H866 0.951 . S
C884 C885 1.366 . S
C884 C886 1.388 . S
C885 C884 1.366 . S
C885 C889 1.385 . S
C886 H867 0.951 . S
C886 C884 1.388 . S
C886 C887 1.366 . S
C887 C886 1.366 . S
C887 C888 1.414 . S
C887 C890 1.499 . S
C888 H868 0.950 . S
C888 C887 1.414 . S
C888 C889 1.374 . S
C889 H869 0.950 . S
C889 C885 1.385 . S
C889 C888 1.374 . S
C890 C887 1.499 . S
C890 C891 1.373 . S
C890 C892 1.389 . S
C891 H870 0.950 . S
C891 C890 1.373 . S
C891 C907 1.377 . S
C892 C890 1.389 . S
C892 C893 1.524 . S
C892 C906 1.377 . S
C893 C892 1.524 . S
C893 C894 1.397 . S
C893 C898 1.363 . S
C894 H871 0.950 . S
C894 C893 1.397 . S
C894 C895 1.334 . S
C895 H872 0.950 . S
C895 C894 1.334 . S
C895 C896 1.287 . S
C896 C895 1.287 . S
C896 C897 1.524 . S
C896 H915 0.913 . S
C897 H873 0.950 . S
C897 C896 1.524 . S
C897 C898 1.415 . S
C898 H874 0.950 . S
C898 C893 1.363 . S
C898 C897 1.415 . S
C899 H875 0.951 . S
C899 C900 1.366 . S
C899 C901 1.388 . S
C900 C899 1.366 . S
C900 C904 1.385 . S
C901 H876 0.951 . S
C901 C899 1.388 . S
C901 C902 1.366 . S
C902 C901 1.366 . S
C902 C903 1.414 . S
C902 C905 1.499 . S
C903 H877 0.950 . S
C903 C902 1.414 . S
C903 C904 1.374 . S
C904 H878 0.950 . S
C904 C900 1.385 . S
C904 C903 1.374 . S
C905 C902 1.499 . S
C905 C906 1.373 . S
C905 C907 1.389 . S
C906 H879 0.950 . S
C906 C892 1.377 . S
C906 C905 1.373 . S
C907 C891 1.377 . S
C907 C905 1.389 . S
C907 C908 1.524 . S
C908 C907 1.524 . S
C908 C909 1.397 . S
C908 C913 1.363 . S
C909 H880 0.950 . S
C909 C908 1.397 . S
C909 C910 1.334 . S
C910 H881 0.950 . S
C910 C909 1.334 . S
C910 C911 1.287 . S
C911 C910 1.287 . S
C911 C912 1.524 . S
C911 H914 0.999 . S
C912 H882 0.950 . S
C912 C911 1.524 . S
C912 C913 1.415 . S
C913 H883 0.950 . S
C913 C908 1.363 . S
C913 C912 1.415 . S
H914 C911 0.999 . S
H915 C896 0.913 . S
H916 C934 0.951 . S
H917 C936 0.951 . S
H918 C938 0.950 . S
H919 C939 0.950 . S
H920 C941 0.950 . S
H921 C944 0.950 . S
H922 C945 0.950 . S
H923 C947 0.950 . S
H924 C948 0.950 . S
H925 C949 0.951 . S
H926 C951 0.951 . S
H927 C953 0.950 . S
H928 C954 0.950 . S
H929 C956 0.950 . S
H930 C959 0.950 . S
H931 C960 0.950 . S
H932 C962 0.950 . S
H933 C963 0.950 . S
C934 H916 0.951 . S
C934 C935 1.366 . S
C934 C936 1.388 . S
C935 C934 1.366 . S
C935 C939 1.385 . S
C936 H917 0.951 . S
C936 C934 1.388 . S
C936 C937 1.366 . S
C937 C936 1.366 . S
C937 C938 1.414 . S
C937 C940 1.499 . S
C938 H918 0.950 . S
C938 C937 1.414 . S
C938 C939 1.374 . S
C939 H919 0.950 . S
C939 C935 1.385 . S
C939 C938 1.374 . S
C940 C937 1.499 . S
C940 C941 1.373 . S
C940 C942 1.389 . S
C941 H920 0.950 . S
C941 C940 1.373 . S
C941 C957 1.377 . S
C942 C940 1.389 . S
C942 C943 1.524 . S
C942 C956 1.377 . S
C943 C942 1.524 . S
C943 C944 1.397 . S
C943 C948 1.363 . S
C944 H921 0.950 . S
C944 C943 1.397 . S
C944 C945 1.334 . S
C945 H922 0.950 . S
C945 C944 1.334 . S
C945 C946 1.287 . S
C946 C945 1.287 . S
C946 C947 1.524 . S
C946 H965 0.913 . S
C947 H923 0.950 . S
C947 C946 1.524 . S
C947 C948 1.415 . S
C948 H924 0.950 . S
C948 C943 1.363 . S
C948 C947 1.415 . S
C949 H925 0.951 . S
C949 C950 1.366 . S
C949 C951 1.388 . S
C950 C949 1.366 . S
C950 C954 1.385 . S
C951 H926 0.951 . S
C951 C949 1.388 . S
C951 C952 1.366 . S
C952 C951 1.366 . S
C952 C953 1.414 . S
C952 C955 1.499 . S
C953 H927 0.950 . S
C953 C952 1.414 . S
C953 C954 1.374 . S
C954 H928 0.950 . S
C954 C950 1.385 . S
C954 C953 1.374 . S
C955 C952 1.499 . S
C955 C956 1.373 . S
C955 C957 1.389 . S
C956 H929 0.950 . S
C956 C942 1.377 . S
C956 C955 1.373 . S
C957 C941 1.377 . S
C957 C955 1.389 . S
C957 C958 1.524 . S
C958 C957 1.524 . S
C958 C959 1.397 . S
C958 C963 1.363 . S
C959 H930 0.950 . S
C959 C958 1.397 . S
C959 C960 1.334 . S
C960 H931 0.950 . S
C960 C959 1.334 . S
C960 C961 1.287 . S
C961 C960 1.287 . S
C961 C962 1.524 . S
C961 H964 0.999 . S
C962 H932 0.950 . S
C962 C961 1.524 . S
C962 C963 1.415 . S
C963 H933 0.950 . S
C963 C958 1.363 . S
C963 C962 1.415 . S
H964 C961 0.999 . S
H965 C946 0.913 . S
H966 C984 0.951 . S
H967 C986 0.951 . S
H968 C988 0.950 . S
H969 C989 0.950 . S
H970 C991 0.950 . S
H971 C994 0.950 . S
H972 C995 0.950 . S
H973 C997 0.950 1_455 S
H974 C998 0.950 . S
H975 C999 0.951 . S
H976 C1001 0.951 . S
H977 C1003 0.950 . S
H978 C1004 0.950 . S
H979 C1006 0.950 . S
H980 C1009 0.950 . S
H981 C1010 0.950 . S
H982 C1012 0.950 . S
H983 C1013 0.950 . S
C984 H966 0.951 . S
C984 C985 1.366 . S
C984 C986 1.388 1_565 S
C985 C984 1.366 . S
C985 C989 1.385 . S
C986 H967 0.951 . S
C986 C984 1.388 1_545 S
C986 C987 1.369 . S
C987 C986 1.369 . S
C987 C988 1.377 1_545 S
C987 C990 1.534 . S
C988 H968 0.950 . S
C988 C987 1.377 1_565 S
C988 C989 1.374 . S
C989 H969 0.950 . S
C989 C985 1.385 . S
C989 C988 1.374 . S
C990 C987 1.534 . S
C990 C991 1.373 . S
C990 C992 1.389 . S
C991 H970 0.950 . S
C991 C990 1.373 . S
C991 C1007 1.377 . S
C992 C990 1.389 . S
C992 C993 1.524 . S
C992 C1006 1.377 . S
C993 C992 1.524 . S
C993 C994 1.397 1_545 S
C993 C998 1.363 . S
C994 H971 0.950 . S
C994 C993 1.397 1_565 S
C994 C995 1.334 . S
C995 H972 0.950 . S
C995 C994 1.334 . S
C995 C996 1.287 . S
C996 C995 1.287 . S
C996 C997 1.524 1_565 S
C996 H1015 0.913 1_655 S
C997 H973 0.950 1_655 S
C997 C996 1.524 1_545 S
C997 C998 1.415 . S
C998 H974 0.950 . S
C998 C993 1.363 . S
C998 C997 1.415 . S
C999 H975 0.951 . S
C999 C1000 1.366 . S
C999 C1001 1.388 . S
C1000 C999 1.366 . S
C1000 C1004 1.385 . S
C1001 H976 0.951 . S
C1001 C999 1.388 . S
C1001 C1002 1.366 . S
C1002 C1001 1.366 . S
C1002 C1003 1.414 . S
C1002 C1005 1.499 . S
C1003 H977 0.950 . S
C1003 C1002 1.414 . S
C1003 C1004 1.374 . S
C1004 H978 0.950 . S
C1004 C1000 1.385 . S
C1004 C1003 1.374 . S
C1005 C1002 1.499 . S
C1005 C1006 1.373 . S
C1005 C1007 1.389 . S
C1006 H979 0.950 . S
C1006 C992 1.377 . S
C1006 C1005 1.373 . S
C1007 C991 1.377 . S
C1007 C1005 1.389 . S
C1007 C1008 1.524 . S
C1008 C1007 1.524 . S
C1008 C1009 1.397 . S
C1008 C1013 1.363 . S
C1009 H980 0.950 . S
C1009 C1008 1.397 . S
C1009 C1010 1.334 . S
C1010 H981 0.950 . S
C1010 C1009 1.334 . S
C1010 C1011 1.287 . S
C1011 C1010 1.287 . S
C1011 C1012 1.524 . S
C1011 H1014 0.999 . S
C1012 H982 0.950 . S
C1012 C1011 1.524 . S
C1012 C1013 1.415 . S
C1013 H983 0.950 . S
C1013 C1008 1.363 . S
C1013 C1012 1.415 . S
H1014 C1011 0.999 . S
H1015 C996 0.913 1_455 S
H1016 C1034 0.951 . S
H1017 C1036 0.951 . S
H1018 C1038 0.950 . S
H1019 C1039 0.950 . S
H1020 C1041 0.950 . S
H1021 C1044 0.950 . S
H1022 C1045 0.950 . S
H1023 C1047 0.950 . S
H1024 C1048 0.950 . S
H1025 C1049 0.951 1_455 S
H1026 C1051 0.951 . S
H1027 C1053 0.950 . S
H1028 C1054 0.950 . S
H1029 C1056 0.950 . S
H1030 C1059 0.950 . S
H1031 C1060 0.950 . S
H1032 C1062 0.950 . S
H1033 C1063 0.950 . S
C1034 H1016 0.951 . S
C1034 C1035 1.366 . S
C1034 C1036 1.388 1_545 S
C1035 C1034 1.366 . S
C1035 C1039 1.385 . S
C1036 H1017 0.951 . S
C1036 C1034 1.388 1_565 S
C1036 C1037 1.362 1_565 S
C1037 C1036 1.362 1_545 S
C1037 C1038 1.446 . S
C1037 C1040 1.472 1_545 S
C1038 H1018 0.950 . S
C1038 C1037 1.446 . S
C1038 C1039 1.374 . S
C1039 H1019 0.950 . S
C1039 C1035 1.385 . S
C1039 C1038 1.374 . S
C1040 C1037 1.472 1_565 S
C1040 C1041 1.373 . S
C1040 C1042 1.389 . S
C1041 H1020 0.950 . S
C1041 C1040 1.373 . S
C1041 C1057 1.377 . S
C1042 C1040 1.389 . S
C1042 C1043 1.524 . S
C1042 C1056 1.377 . S
C1043 C1042 1.524 . S
C1043 C1044 1.397 1_565 S
C1043 C1048 1.363 . S
C1044 H1021 0.950 . S
C1044 C1043 1.397 1_545 S
C1044 C1045 1.334 . S
C1045 H1022 0.950 . S
C1045 C1044 1.334 . S
C1045 C1046 1.287 1_545 S
C1046 C1045 1.287 1_565 S
C1046 C1047 1.524 . S
C1046 H1065 0.913 1_565 S
C1047 H1023 0.950 . S
C1047 C1046 1.524 . S
C1047 C1048 1.415 . S
C1048 H1024 0.950 . S
C1048 C1043 1.363 . S
C1048 C1047 1.415 . S
C1049 H1025 0.951 1_655 S
C1049 C1050 1.366 . S
C1049 C1051 1.388 . S
C1050 C1049 1.366 . S
C1050 C1054 1.385 . S
C1051 H1026 0.951 . S
C1051 C1049 1.388 . S
C1051 C1052 1.366 . S
C1052 C1051 1.366 . S
C1052 C1053 1.414 . S
C1052 C1055 1.499 . S
C1053 H1027 0.950 . S
C1053 C1052 1.414 . S
C1053 C1054 1.374 . S
C1054 H1028 0.950 . S
C1054 C1050 1.385 . S
C1054 C1053 1.374 . S
C1055 C1052 1.499 . S
C1055 C1056 1.373 . S
C1055 C1057 1.389 . S
C1056 H1029 0.950 . S
C1056 C1042 1.377 . S
C1056 C1055 1.373 . S
C1057 C1041 1.377 . S
C1057 C1055 1.389 . S
C1057 C1058 1.524 . S
C1058 C1057 1.524 . S
C1058 C1059 1.397 . S
C1058 C1063 1.363 . S
C1059 H1030 0.950 . S
C1059 C1058 1.397 . S
C1059 C1060 1.334 1_655 S
C1060 H1031 0.950 . S
C1060 C1059 1.334 1_455 S
C1060 C1061 1.287 . S
C1061 C1060 1.287 . S
C1061 C1062 1.524 . S
C1061 H1064 0.999 . S
C1062 H1032 0.950 . S
C1062 C1061 1.524 . S
C1062 C1063 1.415 1_455 S
C1063 H1033 0.950 . S
C1063 C1058 1.363 . S
C1063 C1062 1.415 1_655 S
H1064 C1061 0.999 . S
H1065 C1046 0.913 1_545 S
H1066 C1084 0.951 . S
H1067 C1086 0.951 . S
H1068 C1088 0.950 . S
H1069 C1089 0.950 . S
H1070 C1091 0.950 . S
H1071 C1094 0.950 . S
H1072 C1095 0.950 . S
H1073 C1097 0.950 . S
H1074 C1098 0.950 . S
H1075 C1099 0.951 . S
H1076 C1101 0.951 . S
H1077 C1103 0.950 . S
H1078 C1104 0.950 . S
H1079 C1106 0.950 . S
H1080 C1109 0.950 . S
H1081 C1110 0.950 . S
H1082 C1112 0.950 . S
H1083 C1113 0.950 . S
C1084 H1066 0.951 . S
C1084 C1085 1.366 . S
C1084 C1086 1.388 . S
C1085 C1084 1.366 . S
C1085 C1089 1.385 . S
C1086 H1067 0.951 . S
C1086 C1084 1.388 . S
C1086 C1087 1.366 . S
C1087 C1086 1.366 . S
C1087 C1088 1.414 . S
C1087 C1090 1.499 . S
C1088 H1068 0.950 . S
C1088 C1087 1.414 . S
C1088 C1089 1.374 . S
C1089 H1069 0.950 . S
C1089 C1085 1.385 . S
C1089 C1088 1.374 . S
C1090 C1087 1.499 . S
C1090 C1091 1.373 . S
C1090 C1092 1.389 . S
C1091 H1070 0.950 . S
C1091 C1090 1.373 . S
C1091 C1107 1.377 . S
C1092 C1090 1.389 . S
C1092 C1093 1.524 . S
C1092 C1106 1.377 . S
C1093 C1092 1.524 . S
C1093 C1094 1.397 . S
C1093 C1098 1.363 . S
C1094 H1071 0.950 . S
C1094 C1093 1.397 . S
C1094 C1095 1.334 . S
C1095 H1072 0.950 . S
C1095 C1094 1.334 . S
C1095 C1096 1.287 . S
C1096 C1095 1.287 . S
C1096 C1097 1.524 . S
C1096 H1115 0.913 . S
C1097 H1073 0.950 . S
C1097 C1096 1.524 . S
C1097 C1098 1.415 . S
C1098 H1074 0.950 . S
C1098 C1093 1.363 . S
C1098 C1097 1.415 . S
C1099 H1075 0.951 . S
C1099 C1100 1.366 . S
C1099 C1101 1.388 . S
C1100 C1099 1.366 . S
C1100 C1104 1.385 . S
C1101 H1076 0.951 . S
C1101 C1099 1.388 . S
C1101 C1102 1.366 . S
C1102 C1101 1.366 . S
C1102 C1103 1.414 . S
C1102 C1105 1.499 . S
C1103 H1077 0.950 . S
C1103 C1102 1.414 . S
C1103 C1104 1.374 . S
C1104 H1078 0.950 . S
C1104 C1100 1.385 . S
C1104 C1103 1.374 . S
C1105 C1102 1.499 . S
C1105 C1106 1.373 . S
C1105 C1107 1.389 . S
C1106 H1079 0.950 . S
C1106 C1092 1.377 . S
C1106 C1105 1.373 . S
C1107 C1091 1.377 . S
C1107 C1105 1.389 . S
C1107 C1108 1.524 . S
C1108 C1107 1.524 . S
C1108 C1109 1.397 . S
C1108 C1113 1.363 . S
C1109 H1080 0.950 . S
C1109 C1108 1.397 . S
C1109 C1110 1.334 . S
C1110 H1081 0.950 . S
C1110 C1109 1.334 . S
C1110 C1111 1.287 . S
C1111 C1110 1.287 . S
C1111 C1112 1.524 . S
C1111 H1114 0.999 . S
C1112 H1082 0.950 . S
C1112 C1111 1.524 . S
C1112 C1113 1.415 . S
C1113 H1083 0.950 . S
C1113 C1108 1.363 . S
C1113 C1112 1.415 . S
H1114 C1111 0.999 . S
H1115 C1096 0.913 . S
H1116 C1134 0.951 . S
H1117 C1136 0.951 . S
H1118 C1138 0.950 . S
H1119 C1139 0.950 . S
H1120 C1141 0.950 . S
H1121 C1144 0.950 . S
H1122 C1145 0.950 . S
H1123 C1147 0.950 . S
H1124 C1148 0.950 . S
H1125 C1149 0.951 . S
H1126 C1151 0.951 . S
H1127 C1153 0.950 . S
H1128 C1154 0.950 . S
H1129 C1156 0.950 . S
H1130 C1159 0.950 . S
H1131 C1160 0.950 . S
H1132 C1162 0.950 . S
H1133 C1163 0.950 . S
C1134 H1116 0.951 . S
C1134 C1135 1.366 . S
C1134 C1136 1.388 . S
C1135 C1134 1.366 . S
C1135 C1139 1.385 . S
C1136 H1117 0.951 . S
C1136 C1134 1.388 . S
C1136 C1137 1.366 . S
C1137 C1136 1.366 . S
C1137 C1138 1.414 . S
C1137 C1140 1.499 . S
C1138 H1118 0.950 . S
C1138 C1137 1.414 . S
C1138 C1139 1.374 . S
C1139 H1119 0.950 . S
C1139 C1135 1.385 . S
C1139 C1138 1.374 . S
C1140 C1137 1.499 . S
C1140 C1141 1.373 . S
C1140 C1142 1.389 . S
C1141 H1120 0.950 . S
C1141 C1140 1.373 . S
C1141 C1157 1.377 . S
C1142 C1140 1.389 . S
C1142 C1143 1.524 . S
C1142 C1156 1.377 . S
C1143 C1142 1.524 . S
C1143 C1144 1.397 . S
C1143 C1148 1.363 . S
C1144 H1121 0.950 . S
C1144 C1143 1.397 . S
C1144 C1145 1.334 . S
C1145 H1122 0.950 . S
C1145 C1144 1.334 . S
C1145 C1146 1.287 . S
C1146 C1145 1.287 . S
C1146 C1147 1.524 . S
C1146 H1165 0.913 . S
C1147 H1123 0.950 . S
C1147 C1146 1.524 . S
C1147 C1148 1.415 . S
C1148 H1124 0.950 . S
C1148 C1143 1.363 . S
C1148 C1147 1.415 . S
C1149 H1125 0.951 . S
C1149 C1150 1.366 . S
C1149 C1151 1.388 . S
C1150 C1149 1.366 . S
C1150 C1154 1.385 . S
C1151 H1126 0.951 . S
C1151 C1149 1.388 . S
C1151 C1152 1.366 . S
C1152 C1151 1.366 . S
C1152 C1153 1.414 . S
C1152 C1155 1.499 . S
C1153 H1127 0.950 . S
C1153 C1152 1.414 . S
C1153 C1154 1.374 . S
C1154 H1128 0.950 . S
C1154 C1150 1.385 . S
C1154 C1153 1.374 . S
C1155 C1152 1.499 . S
C1155 C1156 1.373 . S
C1155 C1157 1.389 . S
C1156 H1129 0.950 . S
C1156 C1142 1.377 . S
C1156 C1155 1.373 . S
C1157 C1141 1.377 . S
C1157 C1155 1.389 . S
C1157 C1158 1.524 . S
C1158 C1157 1.524 . S
C1158 C1159 1.397 . S
C1158 C1163 1.363 . S
C1159 H1130 0.950 . S
C1159 C1158 1.397 . S
C1159 C1160 1.334 . S
C1160 H1131 0.950 . S
C1160 C1159 1.334 . S
C1160 C1161 1.287 . S
C1161 C1160 1.287 . S
C1161 C1162 1.524 . S
C1161 H1164 0.999 . S
C1162 H1132 0.950 . S
C1162 C1161 1.524 . S
C1162 C1163 1.415 . S
C1163 H1133 0.950 . S
C1163 C1158 1.363 . S
C1163 C1162 1.415 . S
H1164 C1161 0.999 . S
H1165 C1146 0.913 . S
H1166 C1184 0.951 . S
H1167 C1186 0.951 . S
H1168 C1188 0.950 . S
H1169 C1189 0.950 . S
H1170 C1191 0.950 . S
H1171 C1194 0.950 . S
H1172 C1195 0.950 . S
H1173 C1197 0.950 1_655 S
H1174 C1198 0.950 . S
H1175 C1199 0.951 . S
H1176 C1201 0.951 . S
H1177 C1203 0.950 . S
H1178 C1204 0.950 . S
H1179 C1206 0.950 . S
H1180 C1209 0.950 . S
H1181 C1210 0.950 . S
H1182 C1212 0.950 . S
H1183 C1213 0.950 . S
C1184 H1166 0.951 . S
C1184 C1185 1.366 . S
C1184 C1186 1.388 . S
C1185 C1184 1.366 . S
C1185 C1189 1.385 . S
C1186 H1167 0.951 . S
C1186 C1184 1.388 . S
C1186 C1187 1.366 1_545 S
C1187 C1186 1.366 1_565 S
C1187 C1188 1.414 . S
C1187 C1190 1.499 . S
C1188 H1168 0.950 . S
C1188 C1187 1.414 . S
C1188 C1189 1.374 1_565 S
C1189 H1169 0.950 . S
C1189 C1185 1.385 . S
C1189 C1188 1.374 1_545 S
C1190 C1187 1.499 . S
C1190 C1191 1.373 . S
C1190 C1192 1.389 . S
C1191 H1170 0.950 . S
C1191 C1190 1.373 . S
C1191 C1207 1.377 . S
C1192 C1190 1.389 . S
C1192 C1193 1.524 . S
C1192 C1206 1.377 . S
C1193 C1192 1.524 . S
C1193 C1194 1.397 . S
C1193 C1198 1.363 1_565 S
C1194 H1171 0.950 . S
C1194 C1193 1.397 . S
C1194 C1195 1.334 1_565 S
C1195 H1172 0.950 . S
C1195 C1194 1.334 1_545 S
C1195 C1196 1.287 . S
C1196 C1195 1.287 . S
C1196 C1197 1.524 . S
C1196 H1215 0.913 1_455 S
C1197 H1173 0.950 1_455 S
C1197 C1196 1.524 . S
C1197 C1198 1.415 . S
C1198 H1174 0.950 . S
C1198 C1193 1.363 1_545 S
C1198 C1197 1.415 . S
C1199 H1175 0.951 . S
C1199 C1200 1.366 . S
C1199 C1201 1.388 . S
C1200 C1199 1.366 . S
C1200 C1204 1.385 . S
C1201 H1176 0.951 . S
C1201 C1199 1.388 . S
C1201 C1202 1.366 . S
C1202 C1201 1.366 . S
C1202 C1203 1.414 . S
C1202 C1205 1.499 . S
C1203 H1177 0.950 . S
C1203 C1202 1.414 . S
C1203 C1204 1.374 . S
C1204 H1178 0.950 . S
C1204 C1200 1.385 . S
C1204 C1203 1.374 . S
C1205 C1202 1.499 . S
C1205 C1206 1.373 . S
C1205 C1207 1.389 . S
C1206 H1179 0.950 . S
C1206 C1192 1.377 . S
C1206 C1205 1.373 . S
C1207 C1191 1.377 . S
C1207 C1205 1.389 . S
C1207 C1208 1.524 . S
C1208 C1207 1.524 . S
C1208 C1209 1.397 . S
C1208 C1213 1.363 . S
C1209 H1180 0.950 . S
C1209 C1208 1.397 . S
C1209 C1210 1.334 . S
C1210 H1181 0.950 . S
C1210 C1209 1.334 . S
C1210 C1211 1.287 . S
C1211 C1210 1.287 . S
C1211 C1212 1.524 . S
C1211 H1214 0.999 . S
C1212 H1182 0.950 . S
C1212 C1211 1.524 . S
C1212 C1213 1.415 . S
C1213 H1183 0.950 . S
C1213 C1208 1.363 . S
C1213 C1212 1.415 . S
H1214 C1211 0.999 . S
H1215 C1196 0.913 1_655 S
H1216 C1234 0.951 . S
H1217 C1236 0.951 . S
H1218 C1238 0.950 . S
H1219 C1239 0.950 . S
H1220 C1241 0.950 . S
H1221 C1244 0.950 . S
H1222 C1245 0.950 . S
H1223 C1247 0.950 . S
H1224 C1248 0.950 . S
H1225 C1249 0.951 . S
H1226 C1251 0.951 . S
H1227 C1253 0.950 . S
H1228 C1254 0.950 . S
H1229 C1256 0.950 . S
H1230 C1259 0.950 . S
H1231 C1260 0.950 . S
H1232 C1262 0.950 . S
H1233 C1263 0.950 . S
C1234 H1216 0.951 . S
C1234 C1235 1.366 . S
C1234 C1236 1.388 . S
C1235 C1234 1.366 . S
C1235 C1239 1.385 . S
C1236 H1217 0.951 . S
C1236 C1234 1.388 . S
C1236 C1237 1.366 . S
C1237 C1236 1.366 . S
C1237 C1238 1.414 . S
C1237 C1240 1.499 . S
C1238 H1218 0.950 . S
C1238 C1237 1.414 . S
C1238 C1239 1.374 . S
C1239 H1219 0.950 . S
C1239 C1235 1.385 . S
C1239 C1238 1.374 . S
C1240 C1237 1.499 . S
C1240 C1241 1.373 . S
C1240 C1242 1.389 . S
C1241 H1220 0.950 . S
C1241 C1240 1.373 . S
C1241 C1257 1.377 . S
C1242 C1240 1.389 . S
C1242 C1243 1.524 . S
C1242 C1256 1.377 . S
C1243 C1242 1.524 . S
C1243 C1244 1.397 . S
C1243 C1248 1.363 . S
C1244 H1221 0.950 . S
C1244 C1243 1.397 . S
C1244 C1245 1.334 . S
C1245 H1222 0.950 . S
C1245 C1244 1.334 . S
C1245 C1246 1.287 . S
C1246 C1245 1.287 . S
C1246 C1247 1.524 . S
C1246 H1265 0.913 . S
C1247 H1223 0.950 . S
C1247 C1246 1.524 . S
C1247 C1248 1.415 . S
C1248 H1224 0.950 . S
C1248 C1243 1.363 . S
C1248 C1247 1.415 . S
C1249 H1225 0.951 . S
C1249 C1250 1.366 . S
C1249 C1251 1.388 . S
C1250 C1249 1.366 . S
C1250 C1254 1.385 . S
C1251 H1226 0.951 . S
C1251 C1249 1.388 . S
C1251 C1252 1.366 . S
C1252 C1251 1.366 . S
C1252 C1253 1.414 . S
C1252 C1255 1.499 . S
C1253 H1227 0.950 . S
C1253 C1252 1.414 . S
C1253 C1254 1.374 . S
C1254 H1228 0.950 . S
C1254 C1250 1.385 . S
C1254 C1253 1.374 . S
C1255 C1252 1.499 . S
C1255 C1256 1.373 . S
C1255 C1257 1.389 . S
C1256 H1229 0.950 . S
C1256 C1242 1.377 . S
C1256 C1255 1.373 . S
C1257 C1241 1.377 . S
C1257 C1255 1.389 . S
C1257 C1258 1.524 . S
C1258 C1257 1.524 . S
C1258 C1259 1.397 . S
C1258 C1263 1.363 . S
C1259 H1230 0.950 . S
C1259 C1258 1.397 . S
C1259 C1260 1.334 . S
C1260 H1231 0.950 . S
C1260 C1259 1.334 . S
C1260 C1261 1.287 . S
C1261 C1260 1.287 . S
C1261 C1262 1.524 . S
C1261 H1264 0.999 . S
C1262 H1232 0.950 . S
C1262 C1261 1.524 . S
C1262 C1263 1.415 . S
C1263 H1233 0.950 . S
C1263 C1258 1.363 . S
C1263 C1262 1.415 . S
H1264 C1261 0.999 . S
H1265 C1246 0.913 . S
H1266 C1284 0.951 . S
H1267 C1286 0.951 . S
H1268 C1288 0.950 . S
H1269 C1289 0.950 . S
H1270 C1291 0.950 . S
H1271 C1294 0.950 . S
H1272 C1295 0.950 . S
H1273 C1297 0.950 . S
H1274 C1298 0.950 . S
H1275 C1299 0.951 . S
H1276 C1301 0.951 . S
H1277 C1303 0.950 . S
H1278 C1304 0.950 . S
H1279 C1306 0.950 . S
H1280 C1309 0.950 . S
H1281 C1310 0.950 . S
H1282 C1312 0.950 . S
H1283 C1313 0.950 . S
C1284 H1266 0.951 . S
C1284 C1285 1.366 . S
C1284 C1286 1.388 . S
C1285 C1284 1.366 . S
C1285 C1289 1.385 . S
C1286 H1267 0.951 . S
C1286 C1284 1.388 . S
C1286 C1287 1.366 . S
C1287 C1286 1.366 . S
C1287 C1288 1.414 . S
C1287 C1290 1.499 . S
C1288 H1268 0.950 . S
C1288 C1287 1.414 . S
C1288 C1289 1.374 . S
C1289 H1269 0.950 . S
C1289 C1285 1.385 . S
C1289 C1288 1.374 . S
C1290 C1287 1.499 . S
C1290 C1291 1.373 . S
C1290 C1292 1.389 . S
C1291 H1270 0.950 . S
C1291 C1290 1.373 . S
C1291 C1307 1.377 . S
C1292 C1290 1.389 . S
C1292 C1293 1.524 . S
C1292 C1306 1.377 . S
C1293 C1292 1.524 . S
C1293 C1294 1.397 . S
C1293 C1298 1.363 . S
C1294 H1271 0.950 . S
C1294 C1293 1.397 . S
C1294 C1295 1.334 . S
C1295 H1272 0.950 . S
C1295 C1294 1.334 . S
C1295 C1296 1.287 . S
C1296 C1295 1.287 . S
C1296 C1297 1.524 . S
C1296 H1315 0.913 . S
C1297 H1273 0.950 . S
C1297 C1296 1.524 . S
C1297 C1298 1.415 . S
C1298 H1274 0.950 . S
C1298 C1293 1.363 . S
C1298 C1297 1.415 . S
C1299 H1275 0.951 . S
C1299 C1300 1.366 . S
C1299 C1301 1.388 . S
C1300 C1299 1.366 . S
C1300 C1304 1.385 . S
C1301 H1276 0.951 . S
C1301 C1299 1.388 . S
C1301 C1302 1.366 . S
C1302 C1301 1.366 . S
C1302 C1303 1.414 . S
C1302 C1305 1.499 . S
C1303 H1277 0.950 . S
C1303 C1302 1.414 . S
C1303 C1304 1.374 . S
C1304 H1278 0.950 . S
C1304 C1300 1.385 . S
C1304 C1303 1.374 . S
C1305 C1302 1.499 . S
C1305 C1306 1.373 . S
C1305 C1307 1.389 . S
C1306 H1279 0.950 . S
C1306 C1292 1.377 . S
C1306 C1305 1.373 . S
C1307 C1291 1.377 . S
C1307 C1305 1.389 . S
C1307 C1308 1.524 . S
C1308 C1307 1.524 . S
C1308 C1309 1.397 . S
C1308 C1313 1.363 . S
C1309 H1280 0.950 . S
C1309 C1308 1.397 . S
C1309 C1310 1.334 . S
C1310 H1281 0.950 . S
C1310 C1309 1.334 . S
C1310 C1311 1.287 . S
C1311 C1310 1.287 . S
C1311 C1312 1.524 . S
C1311 H1314 0.999 . S
C1312 H1282 0.950 . S
C1312 C1311 1.524 . S
C1312 C1313 1.415 . S
C1313 H1283 0.950 . S
C1313 C1308 1.363 . S
C1313 C1312 1.415 . S
H1314 C1311 0.999 . S
H1315 C1296 0.913 . S
H1316 C1334 0.950 . S
H1317 C1336 0.951 . S
H1318 C1338 0.950 . S
H1319 C1339 0.950 . S
H1320 C1341 0.950 . S
H1321 C1344 0.950 . S
H1322 C1345 0.950 . S
H1323 C1347 0.950 . S
H1324 C1348 0.950 . S
H1325 C1349 0.951 . S
H1326 C1351 0.951 . S
H1327 C1353 0.950 . S
H1328 C1354 0.950 . S
H1329 C1356 0.950 . S
H1330 C1359 0.950 . S
H1331 C1360 0.950 . S
H1332 C1362 0.950 . S
H1333 C1363 0.950 . S
C1334 H1316 0.950 . S
C1334 C1335 1.366 1_556 S
C1334 C1336 1.388 . S
C1335 C1334 1.366 1_554 S
C1335 C1339 1.385 1_554 S
C1336 H1317 0.951 . S
C1336 C1334 1.388 . S
C1336 C1337 1.366 . S
C1337 C1336 1.366 . S
C1337 C1338 1.414 . S
C1337 C1340 1.499 . S
C1338 H1318 0.950 . S
C1338 C1337 1.414 . S
C1338 C1339 1.374 . S
C1339 H1319 0.950 . S
C1339 C1335 1.385 1_556 S
C1339 C1338 1.374 . S
C1340 C1337 1.499 . S
C1340 C1341 1.373 . S
C1340 C1342 1.389 . S
C1341 H1320 0.950 . S
C1341 C1340 1.373 . S
C1341 C1357 1.377 . S
C1342 C1340 1.389 . S
C1342 C1343 1.524 . S
C1342 C1356 1.377 . S
C1343 C1342 1.524 . S
C1343 C1344 1.397 . S
C1343 C1348 1.363 . S
C1344 H1321 0.950 . S
C1344 C1343 1.397 . S
C1344 C1345 1.334 . S
C1345 H1322 0.950 . S
C1345 C1344 1.334 . S
C1345 C1346 1.287 . S
C1346 C1345 1.287 . S
C1346 C1347 1.524 . S
C1346 H1365 0.913 . S
C1347 H1323 0.950 . S
C1347 C1346 1.524 . S
C1347 C1348 1.415 . S
C1348 H1324 0.950 . S
C1348 C1343 1.363 . S
C1348 C1347 1.415 . S
C1349 H1325 0.951 . S
C1349 C1350 1.366 . S
C1349 C1351 1.388 . S
C1350 C1349 1.366 . S
C1350 C1354 1.385 . S
C1351 H1326 0.951 . S
C1351 C1349 1.388 . S
C1351 C1352 1.366 . S
C1352 C1351 1.366 . S
C1352 C1353 1.414 . S
C1352 C1355 1.499 . S
C1353 H1327 0.950 . S
C1353 C1352 1.414 . S
C1353 C1354 1.374 . S
C1354 H1328 0.950 . S
C1354 C1350 1.385 . S
C1354 C1353 1.374 . S
C1355 C1352 1.499 . S
C1355 C1356 1.373 . S
C1355 C1357 1.389 . S
C1356 H1329 0.950 . S
C1356 C1342 1.377 . S
C1356 C1355 1.373 . S
C1357 C1341 1.377 . S
C1357 C1355 1.389 . S
C1357 C1358 1.524 . S
C1358 C1357 1.524 . S
C1358 C1359 1.397 . S
C1358 C1363 1.363 . S
C1359 H1330 0.950 . S
C1359 C1358 1.397 . S
C1359 C1360 1.334 . S
C1360 H1331 0.950 . S
C1360 C1359 1.334 . S
C1360 C1361 1.287 . S
C1361 C1360 1.287 . S
C1361 C1362 1.524 . S
C1361 H1364 0.999 . S
C1362 H1332 0.950 . S
C1362 C1361 1.524 . S
C1362 C1363 1.415 . S
C1363 H1333 0.950 . S
C1363 C1358 1.363 . S
C1363 C1362 1.415 . S
H1364 C1361 0.999 . S
H1365 C1346 0.913 . S
H1366 C1384 0.951 . S
H1367 C1386 0.951 . S
H1368 C1388 0.950 . S
H1369 C1389 0.950 . S
H1370 C1391 0.950 . S
H1371 C1394 0.950 . S
H1372 C1395 0.950 . S
H1373 C1397 0.950 . S
H1374 C1398 0.950 . S
H1375 C1399 0.951 . S
H1376 C1401 0.951 . S
H1377 C1403 0.950 . S
H1378 C1404 0.950 . S
H1379 C1406 0.950 . S
H1380 C1409 0.950 . S
H1381 C1410 0.950 . S
H1382 C1412 0.950 . S
H1383 C1413 0.950 . S
C1384 H1366 0.951 . S
C1384 C1385 1.366 . S
C1384 C1386 1.388 . S
C1385 C1384 1.366 . S
C1385 C1389 1.385 . S
C1386 H1367 0.951 . S
C1386 C1384 1.388 . S
C1386 C1387 1.366 . S
C1387 C1386 1.366 . S
C1387 C1388 1.414 . S
C1387 C1390 1.499 . S
C1388 H1368 0.950 . S
C1388 C1387 1.414 . S
C1388 C1389 1.374 . S
C1389 H1369 0.950 . S
C1389 C1385 1.385 . S
C1389 C1388 1.374 . S
C1390 C1387 1.499 . S
C1390 C1391 1.373 . S
C1390 C1392 1.389 . S
C1391 H1370 0.950 . S
C1391 C1390 1.373 . S
C1391 C1407 1.377 . S
C1392 C1390 1.389 . S
C1392 C1393 1.524 . S
C1392 C1406 1.377 . S
C1393 C1392 1.524 . S
C1393 C1394 1.397 . S
C1393 C1398 1.363 . S
C1394 H1371 0.950 . S
C1394 C1393 1.397 . S
C1394 C1395 1.334 . S
C1395 H1372 0.950 . S
C1395 C1394 1.334 . S
C1395 C1396 1.287 . S
C1396 C1395 1.287 . S
C1396 C1397 1.524 . S
C1396 H1415 0.913 . S
C1397 H1373 0.950 . S
C1397 C1396 1.524 . S
C1397 C1398 1.415 . S
C1398 H1374 0.950 . S
C1398 C1393 1.363 . S
C1398 C1397 1.415 . S
C1399 H1375 0.951 . S
C1399 C1400 1.366 . S
C1399 C1401 1.388 . S
C1400 C1399 1.366 . S
C1400 C1404 1.385 . S
C1401 H1376 0.951 . S
C1401 C1399 1.388 . S
C1401 C1402 1.366 . S
C1402 C1401 1.366 . S
C1402 C1403 1.414 . S
C1402 C1405 1.499 . S
C1403 H1377 0.950 . S
C1403 C1402 1.414 . S
C1403 C1404 1.374 . S
C1404 H1378 0.950 . S
C1404 C1400 1.385 . S
C1404 C1403 1.374 . S
C1405 C1402 1.499 . S
C1405 C1406 1.373 . S
C1405 C1407 1.389 . S
C1406 H1379 0.950 . S
C1406 C1392 1.377 . S
C1406 C1405 1.373 . S
C1407 C1391 1.377 . S
C1407 C1405 1.389 . S
C1407 C1408 1.524 . S
C1408 C1407 1.524 . S
C1408 C1409 1.397 . S
C1408 C1413 1.363 . S
C1409 H1380 0.950 . S
C1409 C1408 1.397 . S
C1409 C1410 1.334 . S
C1410 H1381 0.950 . S
C1410 C1409 1.334 . S
C1410 C1411 1.287 . S
C1411 C1410 1.287 . S
C1411 C1412 1.524 . S
C1411 H1414 0.999 . S
C1412 H1382 0.950 . S
C1412 C1411 1.524 . S
C1412 C1413 1.415 . S
C1413 H1383 0.950 . S
C1413 C1408 1.363 . S
C1413 C1412 1.415 . S
H1414 C1411 0.999 . S
H1415 C1396 0.913 . S
H1416 C1434 0.951 . S
H1417 C1436 0.951 . S
H1418 C1438 0.950 . S
H1419 C1439 0.950 . S
H1420 C1441 0.950 . S
H1421 C1444 0.950 . S
H1422 C1445 0.950 . S
H1423 C1447 0.950 . S
H1424 C1448 0.950 . S
H1425 C1449 0.951 . S
H1426 C1451 0.951 . S
H1427 C1453 0.950 . S
H1428 C1454 0.950 . S
H1429 C1456 0.950 . S
H1430 C1459 0.950 . S
H1431 C1460 0.950 . S
H1432 C1462 0.950 . S
H1433 C1463 0.950 . S
C1434 H1416 0.951 . S
C1434 C1435 1.366 . S
C1434 C1436 1.388 . S
C1435 C1434 1.366 . S
C1435 C1439 1.385 . S
C1436 H1417 0.951 . S
C1436 C1434 1.388 . S
C1436 C1437 1.366 . S
C1437 C1436 1.366 . S
C1437 C1438 1.414 . S
C1437 C1440 1.499 . S
C1438 H1418 0.950 . S
C1438 C1437 1.414 . S
C1438 C1439 1.374 . S
C1439 H1419 0.950 . S
C1439 C1435 1.385 . S
C1439 C1438 1.374 . S
C1440 C1437 1.499 . S
C1440 C1441 1.373 . S
C1440 C1442 1.389 . S
C1441 H1420 0.950 . S
C1441 C1440 1.373 . S
C1441 C1457 1.377 . S
C1442 C1440 1.389 . S
C1442 C1443 1.524 . S
C1442 C1456 1.377 . S
C1443 C1442 1.524 . S
C1443 C1444 1.397 . S
C1443 C1448 1.363 . S
C1444 H1421 0.950 . S
C1444 C1443 1.397 . S
C1444 C1445 1.334 . S
C1445 H1422 0.950 . S
C1445 C1444 1.334 . S
C1445 C1446 1.287 . S
C1446 C1445 1.287 . S
C1446 C1447 1.524 . S
C1446 H1465 0.913 . S
C1447 H1423 0.950 . S
C1447 C1446 1.524 . S
C1447 C1448 1.415 . S
C1448 H1424 0.950 . S
C1448 C1443 1.363 . S
C1448 C1447 1.415 . S
C1449 H1425 0.951 . S
C1449 C1450 1.366 . S
C1449 C1451 1.388 . S
C1450 C1449 1.366 . S
C1450 C1454 1.385 . S
C1451 H1426 0.951 . S
C1451 C1449 1.388 . S
C1451 C1452 1.366 . S
C1452 C1451 1.366 . S
C1452 C1453 1.414 . S
C1452 C1455 1.499 . S
C1453 H1427 0.950 . S
C1453 C1452 1.414 . S
C1453 C1454 1.374 . S
C1454 H1428 0.950 . S
C1454 C1450 1.385 . S
C1454 C1453 1.374 . S
C1455 C1452 1.499 . S
C1455 C1456 1.373 . S
C1455 C1457 1.389 . S
C1456 H1429 0.950 . S
C1456 C1442 1.377 . S
C1456 C1455 1.373 . S
C1457 C1441 1.377 . S
C1457 C1455 1.389 . S
C1457 C1458 1.524 . S
C1458 C1457 1.524 . S
C1458 C1459 1.397 . S
C1458 C1463 1.363 . S
C1459 H1430 0.950 . S
C1459 C1458 1.397 . S
C1459 C1460 1.334 . S
C1460 H1431 0.950 . S
C1460 C1459 1.334 . S
C1460 C1461 1.287 . S
C1461 C1460 1.287 . S
C1461 C1462 1.524 . S
C1461 H1464 0.999 . S
C1462 H1432 0.950 . S
C1462 C1461 1.524 . S
C1462 C1463 1.415 . S
C1463 H1433 0.950 . S
C1463 C1458 1.363 . S
C1463 C1462 1.415 . S
H1464 C1461 0.999 . S
H1465 C1446 0.913 . S
H1466 C1484 0.951 . S
H1467 C1486 0.951 . S
H1468 C1488 0.950 . S
H1469 C1489 0.950 . S
H1470 C1491 0.950 . S
H1471 C1494 0.950 . S
H1472 C1495 0.950 . S
H1473 C1497 0.950 . S
H1474 C1498 0.950 . S
H1475 C1499 0.951 . S
H1476 C1501 0.951 . S
H1477 C1503 0.950 . S
H1478 C1504 0.950 . S
H1479 C1506 0.950 . S
H1480 C1509 0.950 . S
H1481 C1510 0.950 . S
H1482 C1512 0.950 . S
H1483 C1513 0.950 . S
C1484 H1466 0.951 . S
C1484 C1485 1.366 . S
C1484 C1486 1.388 . S
C1485 C1484 1.366 . S
C1485 C1489 1.385 . S
C1486 H1467 0.951 . S
C1486 C1484 1.388 . S
C1486 C1487 1.366 . S
C1487 C1486 1.366 . S
C1487 C1488 1.414 . S
C1487 C1490 1.499 . S
C1488 H1468 0.950 . S
C1488 C1487 1.414 . S
C1488 C1489 1.374 . S
C1489 H1469 0.950 . S
C1489 C1485 1.385 . S
C1489 C1488 1.374 . S
C1490 C1487 1.499 . S
C1490 C1491 1.373 . S
C1490 C1492 1.389 . S
C1491 H1470 0.950 . S
C1491 C1490 1.373 . S
C1491 C1507 1.377 . S
C1492 C1490 1.389 . S
C1492 C1493 1.524 . S
C1492 C1506 1.377 . S
C1493 C1492 1.524 . S
C1493 C1494 1.397 . S
C1493 C1498 1.363 . S
C1494 H1471 0.950 . S
C1494 C1493 1.397 . S
C1494 C1495 1.334 . S
C1495 H1472 0.950 . S
C1495 C1494 1.334 . S
C1495 C1496 1.287 . S
C1496 C1495 1.287 . S
C1496 C1497 1.524 . S
C1496 H1515 0.913 . S
C1497 H1473 0.950 . S
C1497 C1496 1.524 . S
C1497 C1498 1.415 . S
C1498 H1474 0.950 . S
C1498 C1493 1.363 . S
C1498 C1497 1.415 . S
C1499 H1475 0.951 . S
C1499 C1500 1.366 . S
C1499 C1501 1.388 . S
C1500 C1499 1.366 . S
C1500 C1504 1.385 . S
C1501 H1476 0.951 . S
C1501 C1499 1.388 . S
C1501 C1502 1.366 . S
C1502 C1501 1.366 . S
C1502 C1503 1.414 . S
C1502 C1505 1.499 . S
C1503 H1477 0.950 . S
C1503 C1502 1.414 . S
C1503 C1504 1.374 . S
C1504 H1478 0.950 . S
C1504 C1500 1.385 . S
C1504 C1503 1.374 . S
C1505 C1502 1.499 . S
C1505 C1506 1.373 . S
C1505 C1507 1.389 . S
C1506 H1479 0.950 . S
C1506 C1492 1.377 . S
C1506 C1505 1.373 . S
C1507 C1491 1.377 . S
C1507 C1505 1.389 . S
C1507 C1508 1.524 . S
C1508 C1507 1.524 . S
C1508 C1509 1.397 . S
C1508 C1513 1.363 . S
C1509 H1480 0.950 . S
C1509 C1508 1.397 . S
C1509 C1510 1.334 . S
C1510 H1481 0.950 . S
C1510 C1509 1.334 . S
C1510 C1511 1.287 . S
C1511 C1510 1.287 . S
C1511 C1512 1.524 . S
C1511 H1514 0.999 . S
C1512 H1482 0.950 . S
C1512 C1511 1.524 . S
C1512 C1513 1.415 . S
C1513 H1483 0.950 . S
C1513 C1508 1.363 . S
C1513 C1512 1.415 . S
H1514 C1511 0.999 . S
H1515 C1496 0.913 . S
H1516 C1534 0.951 . S
H1517 C1536 0.951 . S
H1518 C1538 0.950 . S
H1519 C1539 0.950 1_556 S
H1520 C1541 0.950 . S
H1521 C1544 0.950 . S
H1522 C1545 0.950 . S
H1523 C1547 0.950 . S
H1524 C1548 0.950 . S
H1525 C1549 0.951 . S
H1526 C1551 0.951 . S
H1527 C1553 0.950 . S
H1528 C1554 0.950 . S
H1529 C1556 0.950 . S
H1530 C1559 0.950 . S
H1531 C1560 0.950 . S
H1532 C1562 0.950 . S
H1533 C1563 0.950 . S
C1534 H1516 0.951 . S
C1534 C1535 1.366 1_554 S
C1534 C1536 1.388 . S
C1535 C1534 1.366 1_556 S
C1535 C1539 1.385 1_556 S
C1536 H1517 0.951 . S
C1536 C1534 1.388 . S
C1536 C1537 1.366 . S
C1537 C1536 1.366 . S
C1537 C1538 1.414 . S
C1537 C1540 1.499 . S
C1538 H1518 0.950 . S
C1538 C1537 1.414 . S
C1538 C1539 1.374 . S
C1539 H1519 0.950 1_554 S
C1539 C1535 1.385 1_554 S
C1539 C1538 1.374 . S
C1540 C1537 1.499 . S
C1540 C1541 1.373 . S
C1540 C1542 1.389 . S
C1541 H1520 0.950 . S
C1541 C1540 1.373 . S
C1541 C1557 1.377 . S
C1542 C1540 1.389 . S
C1542 C1543 1.524 . S
C1542 C1556 1.377 . S
C1543 C1542 1.524 . S
C1543 C1544 1.397 . S
C1543 C1548 1.363 . S
C1544 H1521 0.950 . S
C1544 C1543 1.397 . S
C1544 C1545 1.334 . S
C1545 H1522 0.950 . S
C1545 C1544 1.334 . S
C1545 C1546 1.287 . S
C1546 C1545 1.287 . S
C1546 C1547 1.524 . S
C1546 H1565 0.913 . S
C1547 H1523 0.950 . S
C1547 C1546 1.524 . S
C1547 C1548 1.415 . S
C1548 H1524 0.950 . S
C1548 C1543 1.363 . S
C1548 C1547 1.415 . S
C1549 H1525 0.951 . S
C1549 C1550 1.366 . S
C1549 C1551 1.388 . S
C1550 C1549 1.366 . S
C1550 C1554 1.385 . S
C1551 H1526 0.951 . S
C1551 C1549 1.388 . S
C1551 C1552 1.366 . S
C1552 C1551 1.366 . S
C1552 C1553 1.414 . S
C1552 C1555 1.499 . S
C1553 H1527 0.950 . S
C1553 C1552 1.414 . S
C1553 C1554 1.374 . S
C1554 H1528 0.950 . S
C1554 C1550 1.385 . S
C1554 C1553 1.374 . S
C1555 C1552 1.499 . S
C1555 C1556 1.373 . S
C1555 C1557 1.389 . S
C1556 H1529 0.950 . S
C1556 C1542 1.377 . S
C1556 C1555 1.373 . S
C1557 C1541 1.377 . S
C1557 C1555 1.389 . S
C1557 C1558 1.524 . S
C1558 C1557 1.524 . S
C1558 C1559 1.397 . S
C1558 C1563 1.363 . S
C1559 H1530 0.950 . S
C1559 C1558 1.397 . S
C1559 C1560 1.334 . S
C1560 H1531 0.950 . S
C1560 C1559 1.334 . S
C1560 C1561 1.287 . S
C1561 C1560 1.287 . S
C1561 C1562 1.524 . S
C1561 H1564 0.999 . S
C1562 H1532 0.950 . S
C1562 C1561 1.524 . S
C1562 C1563 1.415 . S
C1563 H1533 0.950 . S
C1563 C1558 1.363 . S
C1563 C1562 1.415 . S
H1564 C1561 0.999 . S
H1565 C1546 0.913 . S
H1566 C1584 0.951 . S
H1567 C1586 0.951 . S
H1568 C1588 0.950 . S
H1569 C1589 0.950 . S
H1570 C1591 0.950 . S
H1571 C1594 0.950 . S
H1572 C1595 0.950 . S
H1573 C1597 0.950 . S
H1574 C1598 0.950 . S
H1575 C1599 0.951 . S
H1576 C1601 0.951 . S
H1577 C1603 0.950 . S
H1578 C1604 0.950 . S
H1579 C1606 0.950 . S
H1580 C1609 0.950 . S
H1581 C1610 0.950 . S
H1582 C1612 0.950 . S
H1583 C1613 0.950 . S
C1584 H1566 0.951 . S
C1584 C1585 1.366 . S
C1584 C1586 1.388 . S
C1585 C1584 1.366 . S
C1585 C1589 1.385 . S
C1586 H1567 0.951 . S
C1586 C1584 1.388 . S
C1586 C1587 1.366 . S
C1587 C1586 1.366 . S
C1587 C1588 1.414 . S
C1587 C1590 1.499 . S
C1588 H1568 0.950 . S
C1588 C1587 1.414 . S
C1588 C1589 1.374 . S
C1589 H1569 0.950 . S
C1589 C1585 1.385 . S
C1589 C1588 1.374 . S
C1590 C1587 1.499 . S
C1590 C1591 1.373 . S
C1590 C1592 1.389 . S
C1591 H1570 0.950 . S
C1591 C1590 1.373 . S
C1591 C1607 1.377 . S
C1592 C1590 1.389 . S
C1592 C1593 1.524 . S
C1592 C1606 1.377 . S
C1593 C1592 1.524 . S
C1593 C1594 1.397 . S
C1593 C1598 1.363 . S
C1594 H1571 0.950 . S
C1594 C1593 1.397 . S
C1594 C1595 1.334 . S
C1595 H1572 0.950 . S
C1595 C1594 1.334 . S
C1595 C1596 1.287 . S
C1596 C1595 1.287 . S
C1596 C1597 1.524 . S
C1596 H1615 0.913 . S
C1597 H1573 0.950 . S
C1597 C1596 1.524 . S
C1597 C1598 1.415 . S
C1598 H1574 0.950 . S
C1598 C1593 1.363 . S
C1598 C1597 1.415 . S
C1599 H1575 0.951 . S
C1599 C1600 1.366 . S
C1599 C1601 1.388 . S
C1600 C1599 1.366 . S
C1600 C1604 1.385 . S
C1601 H1576 0.951 . S
C1601 C1599 1.388 . S
C1601 C1602 1.366 . S
C1602 C1601 1.366 . S
C1602 C1603 1.414 . S
C1602 C1605 1.499 . S
C1603 H1577 0.950 . S
C1603 C1602 1.414 . S
C1603 C1604 1.374 . S
C1604 H1578 0.950 . S
C1604 C1600 1.385 . S
C1604 C1603 1.374 . S
C1605 C1602 1.499 . S
C1605 C1606 1.373 . S
C1605 C1607 1.389 . S
C1606 H1579 0.950 . S
C1606 C1592 1.377 . S
C1606 C1605 1.373 . S
C1607 C1591 1.377 . S
C1607 C1605 1.389 . S
C1607 C1608 1.524 . S
C1608 C1607 1.524 . S
C1608 C1609 1.397 . S
C1608 C1613 1.363 . S
C1609 H1580 0.950 . S
C1609 C1608 1.397 . S
C1609 C1610 1.334 . S
C1610 H1581 0.950 . S
C1610 C1609 1.334 . S
C1610 C1611 1.287 . S
C1611 C1610 1.287 . S
C1611 C1612 1.524 . S
C1611 H1614 0.999 . S
C1612 H1582 0.950 . S
C1612 C1611 1.524 . S
C1612 C1613 1.415 . S
C1613 H1583 0.950 . S
C1613 C1608 1.363 . S
C1613 C1612 1.415 . S
H1614 C1611 0.999 . S
H1615 C1596 0.913 . S
H1616 C1634 0.951 . S
H1617 C1636 0.951 . S
H1618 C1638 0.950 . S
H1619 C1639 0.950 . S
H1620 C1641 0.950 . S
H1621 C1644 0.950 . S
H1622 C1645 0.950 . S
H1623 C1647 0.950 1_655 S
H1624 C1648 0.950 . S
H1625 C1649 0.951 . S
H1626 C1651 0.951 . S
H1627 C1653 0.950 . S
H1628 C1654 0.950 . S
H1629 C1656 0.950 . S
H1630 C1659 0.950 . S
H1631 C1660 0.950 . S
H1632 C1662 0.950 . S
H1633 C1663 0.950 . S
C1634 H1616 0.951 . S
C1634 C1635 1.366 . S
C1634 C1636 1.388 . S
C1635 C1634 1.366 . S
C1635 C1639 1.385 . S
C1636 H1617 0.951 . S
C1636 C1634 1.388 . S
C1636 C1637 1.366 . S
C1637 C1636 1.366 . S
C1637 C1638 1.414 . S
C1637 C1640 1.499 . S
C1638 H1618 0.950 . S
C1638 C1637 1.414 . S
C1638 C1639 1.374 . S
C1639 H1619 0.950 . S
C1639 C1635 1.385 . S
C1639 C1638 1.374 . S
C1640 C1637 1.499 . S
C1640 C1641 1.373 . S
C1640 C1642 1.389 . S
C1641 H1620 0.950 . S
C1641 C1640 1.373 . S
C1641 C1657 1.377 . S
C1642 C1640 1.389 . S
C1642 C1643 1.524 . S
C1642 C1656 1.377 . S
C1643 C1642 1.524 . S
C1643 C1644 1.397 . S
C1643 C1648 1.363 . S
C1644 H1621 0.950 . S
C1644 C1643 1.397 . S
C1644 C1645 1.334 . S
C1645 H1622 0.950 . S
C1645 C1644 1.334 . S
C1645 C1646 1.287 . S
C1646 C1645 1.287 . S
C1646 C1647 1.524 . S
C1646 H1665 0.913 1_455 S
C1647 H1623 0.950 1_455 S
C1647 C1646 1.524 . S
C1647 C1648 1.415 . S
C1648 H1624 0.950 . S
C1648 C1643 1.363 . S
C1648 C1647 1.415 . S
C1649 H1625 0.951 . S
C1649 C1650 1.366 . S
C1649 C1651 1.388 . S
C1650 C1649 1.366 . S
C1650 C1654 1.385 . S
C1651 H1626 0.951 . S
C1651 C1649 1.388 . S
C1651 C1652 1.366 . S
C1652 C1651 1.366 . S
C1652 C1653 1.414 . S
C1652 C1655 1.499 . S
C1653 H1627 0.950 . S
C1653 C1652 1.414 . S
C1653 C1654 1.374 . S
C1654 H1628 0.950 . S
C1654 C1650 1.385 . S
C1654 C1653 1.374 . S
C1655 C1652 1.499 . S
C1655 C1656 1.373 . S
C1655 C1657 1.389 . S
C1656 H1629 0.950 . S
C1656 C1642 1.377 . S
C1656 C1655 1.373 . S
C1657 C1641 1.377 . S
C1657 C1655 1.389 . S
C1657 C1658 1.524 . S
C1658 C1657 1.524 . S
C1658 C1659 1.397 . S
C1658 C1663 1.363 . S
C1659 H1630 0.950 . S
C1659 C1658 1.397 . S
C1659 C1660 1.334 . S
C1660 H1631 0.950 . S
C1660 C1659 1.334 . S
C1660 C1661 1.287 . S
C1661 C1660 1.287 . S
C1661 C1662 1.524 . S
C1661 H1664 0.999 . S
C1662 H1632 0.950 . S
C1662 C1661 1.524 . S
C1662 C1663 1.415 . S
C1663 H1633 0.950 . S
C1663 C1658 1.363 . S
C1663 C1662 1.415 . S
H1664 C1661 0.999 . S
H1665 C1646 0.913 1_655 S
H1666 C1684 0.951 . S
H1667 C1686 0.951 . S
H1668 C1688 0.950 . S
H1669 C1689 0.950 . S
H1670 C1691 0.950 . S
H1671 C1694 0.950 . S
H1672 C1695 0.950 . S
H1673 C1697 0.950 . S
H1674 C1698 0.950 . S
H1675 C1699 0.951 . S
H1676 C1701 0.951 . S
H1677 C1703 0.950 . S
H1678 C1704 0.950 . S
H1679 C1706 0.950 . S
H1680 C1709 0.950 . S
H1681 C1710 0.950 . S
H1682 C1712 0.950 . S
H1683 C1713 0.950 . S
C1684 H1666 0.951 . S
C1684 C1685 1.366 . S
C1684 C1686 1.388 . S
C1685 C1684 1.366 . S
C1685 C1689 1.385 . S
C1686 H1667 0.951 . S
C1686 C1684 1.388 . S
C1686 C1687 1.366 . S
C1687 C1686 1.366 . S
C1687 C1688 1.414 . S
C1687 C1690 1.499 . S
C1688 H1668 0.950 . S
C1688 C1687 1.414 . S
C1688 C1689 1.374 . S
C1689 H1669 0.950 . S
C1689 C1685 1.385 . S
C1689 C1688 1.374 . S
C1690 C1687 1.499 . S
C1690 C1691 1.373 . S
C1690 C1692 1.389 . S
C1691 H1670 0.950 . S
C1691 C1690 1.373 . S
C1691 C1707 1.377 . S
C1692 C1690 1.389 . S
C1692 C1693 1.524 . S
C1692 C1706 1.377 . S
C1693 C1692 1.524 . S
C1693 C1694 1.397 . S
C1693 C1698 1.363 . S
C1694 H1671 0.950 . S
C1694 C1693 1.397 . S
C1694 C1695 1.334 . S
C1695 H1672 0.950 . S
C1695 C1694 1.334 . S
C1695 C1696 1.287 . S
C1696 C1695 1.287 . S
C1696 C1697 1.524 . S
C1696 H1715 0.913 . S
C1697 H1673 0.950 . S
C1697 C1696 1.524 . S
C1697 C1698 1.415 . S
C1698 H1674 0.950 . S
C1698 C1693 1.363 . S
C1698 C1697 1.415 . S
C1699 H1675 0.951 . S
C1699 C1700 1.366 . S
C1699 C1701 1.388 . S
C1700 C1699 1.366 . S
C1700 C1704 1.385 . S
C1701 H1676 0.951 . S
C1701 C1699 1.388 . S
C1701 C1702 1.366 . S
C1702 C1701 1.366 . S
C1702 C1703 1.414 . S
C1702 C1705 1.499 . S
C1703 H1677 0.950 . S
C1703 C1702 1.414 . S
C1703 C1704 1.374 . S
C1704 H1678 0.950 . S
C1704 C1700 1.385 . S
C1704 C1703 1.374 . S
C1705 C1702 1.499 . S
C1705 C1706 1.373 . S
C1705 C1707 1.389 . S
C1706 H1679 0.950 . S
C1706 C1692 1.377 . S
C1706 C1705 1.373 . S
C1707 C1691 1.377 . S
C1707 C1705 1.389 . S
C1707 C1708 1.524 . S
C1708 C1707 1.524 . S
C1708 C1709 1.397 . S
C1708 C1713 1.363 . S
C1709 H1680 0.950 . S
C1709 C1708 1.397 . S
C1709 C1710 1.334 . S
C1710 H1681 0.950 . S
C1710 C1709 1.334 . S
C1710 C1711 1.287 . S
C1711 C1710 1.287 . S
C1711 C1712 1.524 . S
C1711 H1714 0.999 . S
C1712 H1682 0.950 . S
C1712 C1711 1.524 . S
C1712 C1713 1.415 . S
C1713 H1683 0.950 . S
C1713 C1708 1.363 . S
C1713 C1712 1.415 . S
H1714 C1711 0.999 . S
H1715 C1696 0.913 . S
H1716 C1734 0.951 . S
H1717 C1736 0.951 . S
H1718 C1738 0.950 . S
H1719 C1739 0.950 . S
H1720 C1741 0.950 . S
H1721 C1744 0.950 . S
H1722 C1745 0.950 . S
H1723 C1747 0.950 . S
H1724 C1748 0.950 . S
H1725 C1749 0.951 . S
H1726 C1751 0.951 . S
H1727 C1753 0.950 . S
H1728 C1754 0.950 . S
H1729 C1756 0.950 . S
H1730 C1759 0.950 . S
H1731 C1760 0.950 . S
H1732 C1762 0.950 . S
H1733 C1763 0.950 . S
C1734 H1716 0.951 . S
C1734 C1735 1.366 . S
C1734 C1736 1.388 . S
C1735 C1734 1.366 . S
C1735 C1739 1.385 . S
C1736 H1717 0.951 . S
C1736 C1734 1.388 . S
C1736 C1737 1.366 . S
C1737 C1736 1.366 . S
C1737 C1738 1.414 . S
C1737 C1740 1.499 . S
C1738 H1718 0.950 . S
C1738 C1737 1.414 . S
C1738 C1739 1.374 . S
C1739 H1719 0.950 . S
C1739 C1735 1.385 . S
C1739 C1738 1.374 . S
C1740 C1737 1.499 . S
C1740 C1741 1.373 . S
C1740 C1742 1.389 . S
C1741 H1720 0.950 . S
C1741 C1740 1.373 . S
C1741 C1757 1.377 . S
C1742 C1740 1.389 . S
C1742 C1743 1.524 . S
C1742 C1756 1.377 . S
C1743 C1742 1.524 . S
C1743 C1744 1.397 . S
C1743 C1748 1.363 . S
C1744 H1721 0.950 . S
C1744 C1743 1.397 . S
C1744 C1745 1.334 . S
C1745 H1722 0.950 . S
C1745 C1744 1.334 . S
C1745 C1746 1.287 . S
C1746 C1745 1.287 . S
C1746 C1747 1.524 . S
C1746 H1765 0.913 . S
C1747 H1723 0.950 . S
C1747 C1746 1.524 . S
C1747 C1748 1.415 . S
C1748 H1724 0.950 . S
C1748 C1743 1.363 . S
C1748 C1747 1.415 . S
C1749 H1725 0.951 . S
C1749 C1750 1.366 . S
C1749 C1751 1.388 . S
C1750 C1749 1.366 . S
C1750 C1754 1.385 . S
C1751 H1726 0.951 . S
C1751 C1749 1.388 . S
C1751 C1752 1.366 . S
C1752 C1751 1.366 . S
C1752 C1753 1.414 . S
C1752 C1755 1.499 . S
C1753 H1727 0.950 . S
C1753 C1752 1.414 . S
C1753 C1754 1.374 . S
C1754 H1728 0.950 . S
C1754 C1750 1.385 . S
C1754 C1753 1.374 . S
C1755 C1752 1.499 . S
C1755 C1756 1.373 . S
C1755 C1757 1.389 . S
C1756 H1729 0.950 . S
C1756 C1742 1.377 . S
C1756 C1755 1.373 . S
C1757 C1741 1.377 . S
C1757 C1755 1.389 . S
C1757 C1758 1.524 . S
C1758 C1757 1.524 . S
C1758 C1759 1.397 . S
C1758 C1763 1.363 . S
C1759 H1730 0.950 . S
C1759 C1758 1.397 . S
C1759 C1760 1.334 . S
C1760 H1731 0.950 . S
C1760 C1759 1.334 . S
C1760 C1761 1.287 . S
C1761 C1760 1.287 . S
C1761 C1762 1.524 . S
C1761 H1764 0.999 . S
C1762 H1732 0.950 . S
C1762 C1761 1.524 . S
C1762 C1763 1.415 . S
C1763 H1733 0.950 . S
C1763 C1758 1.363 . S
C1763 C1762 1.415 . S
H1764 C1761 0.999 . S
H1765 C1746 0.913 . S
H1766 C1784 0.951 . S
H1767 C1786 0.951 . S
H1768 C1788 0.950 . S
H1769 C1789 0.950 . S
H1770 C1791 0.950 . S
H1771 C1794 0.950 . S
H1772 C1795 0.950 . S
H1773 C1797 0.950 . S
H1774 C1798 0.950 . S
H1775 C1799 0.951 . S
H1776 C1801 0.951 . S
H1777 C1803 0.950 . S
H1778 C1804 0.950 1_455 S
H1779 C1806 0.950 . S
H1780 C1809 0.950 . S
H1781 C1810 0.950 . S
H1782 C1812 0.950 . S
H1783 C1813 0.950 . S
C1784 H1766 0.951 . S
C1784 C1785 1.366 . S
C1784 C1786 1.388 . S
C1785 C1784 1.366 . S
C1785 C1789 1.385 . S
C1786 H1767 0.951 . S
C1786 C1784 1.388 . S
C1786 C1787 1.366 . S
C1787 C1786 1.366 . S
C1787 C1788 1.414 . S
C1787 C1790 1.499 . S
C1788 H1768 0.950 . S
C1788 C1787 1.414 . S
C1788 C1789 1.374 . S
C1789 H1769 0.950 . S
C1789 C1785 1.385 . S
C1789 C1788 1.374 . S
C1790 C1787 1.499 . S
C1790 C1791 1.373 . S
C1790 C1792 1.389 . S
C1791 H1770 0.950 . S
C1791 C1790 1.373 . S
C1791 C1807 1.377 . S
C1792 C1790 1.389 . S
C1792 C1793 1.524 . S
C1792 C1806 1.377 . S
C1793 C1792 1.524 . S
C1793 C1794 1.397 . S
C1793 C1798 1.363 . S
C1794 H1771 0.950 . S
C1794 C1793 1.397 . S
C1794 C1795 1.334 . S
C1795 H1772 0.950 . S
C1795 C1794 1.334 . S
C1795 C1796 1.287 . S
C1796 C1795 1.287 . S
C1796 C1797 1.524 . S
C1796 H1815 0.913 . S
C1797 H1773 0.950 . S
C1797 C1796 1.524 . S
C1797 C1798 1.415 . S
C1798 H1774 0.950 . S
C1798 C1793 1.363 . S
C1798 C1797 1.415 . S
C1799 H1775 0.951 . S
C1799 C1800 1.366 . S
C1799 C1801 1.388 . S
C1800 C1799 1.366 . S
C1800 C1804 1.385 . S
C1801 H1776 0.951 . S
C1801 C1799 1.388 . S
C1801 C1802 1.366 . S
C1802 C1801 1.366 . S
C1802 C1803 1.414 . S
C1802 C1805 1.499 . S
C1803 H1777 0.950 . S
C1803 C1802 1.414 . S
C1803 C1804 1.374 . S
C1804 H1778 0.950 1_655 S
C1804 C1800 1.385 . S
C1804 C1803 1.374 . S
C1805 C1802 1.499 . S
C1805 C1806 1.373 . S
C1805 C1807 1.389 . S
C1806 H1779 0.950 . S
C1806 C1792 1.377 . S
C1806 C1805 1.373 . S
C1807 C1791 1.377 . S
C1807 C1805 1.389 . S
C1807 C1808 1.524 . S
C1808 C1807 1.524 . S
C1808 C1809 1.397 . S
C1808 C1813 1.363 . S
C1809 H1780 0.950 . S
C1809 C1808 1.397 . S
C1809 C1810 1.334 . S
C1810 H1781 0.950 . S
C1810 C1809 1.334 . S
C1810 C1811 1.287 . S
C1811 C1810 1.287 . S
C1811 C1812 1.524 . S
C1811 H1814 0.999 . S
C1812 H1782 0.950 . S
C1812 C1811 1.524 . S
C1812 C1813 1.415 . S
C1813 H1783 0.950 . S
C1813 C1808 1.363 . S
C1813 C1812 1.415 . S
H1814 C1811 0.999 . S
H1815 C1796 0.913 . S
H1816 C1834 0.951 . S
H1817 C1836 0.951 . S
H1818 C1838 0.950 . S
H1819 C1839 0.950 . S
H1820 C1841 0.950 . S
H1821 C1844 0.950 . S
H1822 C1845 0.950 . S
H1823 C1847 0.950 . S
H1824 C1848 0.950 . S
H1825 C1849 0.951 . S
H1826 C1851 0.951 . S
H1827 C1853 0.950 . S
H1828 C1854 0.950 1_455 S
H1829 C1856 0.950 . S
H1830 C1859 0.950 . S
H1831 C1860 0.950 . S
H1832 C1862 0.950 . S
H1833 C1863 0.950 . S
C1834 H1816 0.951 . S
C1834 C1835 1.366 . S
C1834 C1836 1.388 . S
C1835 C1834 1.366 . S
C1835 C1839 1.385 . S
C1836 H1817 0.951 . S
C1836 C1834 1.388 . S
C1836 C1837 1.366 . S
C1837 C1836 1.366 . S
C1837 C1838 1.414 . S
C1837 C1840 1.499 . S
C1838 H1818 0.950 . S
C1838 C1837 1.414 . S
C1838 C1839 1.374 . S
C1839 H1819 0.950 . S
C1839 C1835 1.385 . S
C1839 C1838 1.374 . S
C1840 C1837 1.499 . S
C1840 C1841 1.373 . S
C1840 C1842 1.389 . S
C1841 H1820 0.950 . S
C1841 C1840 1.373 . S
C1841 C1857 1.377 . S
C1842 C1840 1.389 . S
C1842 C1843 1.524 . S
C1842 C1856 1.377 . S
C1843 C1842 1.524 . S
C1843 C1844 1.397 . S
C1843 C1848 1.363 . S
C1844 H1821 0.950 . S
C1844 C1843 1.397 . S
C1844 C1845 1.334 . S
C1845 H1822 0.950 . S
C1845 C1844 1.334 . S
C1845 C1846 1.287 . S
C1846 C1845 1.287 . S
C1846 C1847 1.524 . S
C1846 H1865 0.913 . S
C1847 H1823 0.950 . S
C1847 C1846 1.524 . S
C1847 C1848 1.415 . S
C1848 H1824 0.950 . S
C1848 C1843 1.363 . S
C1848 C1847 1.415 . S
C1849 H1825 0.951 . S
C1849 C1850 1.366 . S
C1849 C1851 1.388 . S
C1850 C1849 1.366 . S
C1850 C1854 1.385 . S
C1851 H1826 0.951 . S
C1851 C1849 1.388 . S
C1851 C1852 1.366 . S
C1852 C1851 1.366 . S
C1852 C1853 1.414 . S
C1852 C1855 1.499 . S
C1853 H1827 0.950 . S
C1853 C1852 1.414 . S
C1853 C1854 1.374 . S
C1854 H1828 0.950 1_655 S
C1854 C1850 1.385 . S
C1854 C1853 1.374 . S
C1855 C1852 1.499 . S
C1855 C1856 1.373 . S
C1855 C1857 1.389 . S
C1856 H1829 0.950 . S
C1856 C1842 1.377 . S
C1856 C1855 1.373 . S
C1857 C1841 1.377 . S
C1857 C1855 1.389 . S
C1857 C1858 1.524 . S
C1858 C1857 1.524 . S
C1858 C1859 1.397 . S
C1858 C1863 1.363 . S
C1859 H1830 0.950 . S
C1859 C1858 1.397 . S
C1859 C1860 1.334 . S
C1860 H1831 0.950 . S
C1860 C1859 1.334 . S
C1860 C1861 1.287 . S
C1861 C1860 1.287 . S
C1861 C1862 1.524 . S
C1861 H1864 0.999 . S
C1862 H1832 0.950 . S
C1862 C1861 1.524 . S
C1862 C1863 1.415 . S
C1863 H1833 0.950 . S
C1863 C1858 1.363 . S
C1863 C1862 1.415 . S
H1864 C1861 0.999 . S
H1865 C1846 0.913 . S
H1866 C1884 0.951 . S
H1867 C1886 0.951 . S
H1868 C1888 0.950 . S
H1869 C1889 0.950 . S
H1870 C1891 0.950 . S
H1871 C1894 0.950 . S
H1872 C1895 0.950 . S
H1873 C1897 0.950 . S
H1874 C1898 0.950 . S
H1875 C1899 0.951 . S
H1876 C1901 0.951 . S
H1877 C1903 0.950 . S
H1878 C1904 0.950 . S
H1879 C1906 0.950 . S
H1880 C1909 0.950 . S
H1881 C1910 0.950 . S
H1882 C1912 0.950 . S
H1883 C1913 0.950 . S
C1884 H1866 0.951 . S
C1884 C1885 1.366 . S
C1884 C1886 1.388 . S
C1885 C1884 1.366 . S
C1885 C1889 1.385 . S
C1886 H1867 0.951 . S
C1886 C1884 1.388 . S
C1886 C1887 1.366 . S
C1887 C1886 1.366 . S
C1887 C1888 1.414 . S
C1887 C1890 1.499 . S
C1888 H1868 0.950 . S
C1888 C1887 1.414 . S
C1888 C1889 1.374 . S
C1889 H1869 0.950 . S
C1889 C1885 1.385 . S
C1889 C1888 1.374 . S
C1890 C1887 1.499 . S
C1890 C1891 1.373 . S
C1890 C1892 1.389 . S
C1891 H1870 0.950 . S
C1891 C1890 1.373 . S
C1891 C1907 1.377 . S
C1892 C1890 1.389 . S
C1892 C1893 1.524 . S
C1892 C1906 1.377 . S
C1893 C1892 1.524 . S
C1893 C1894 1.397 . S
C1893 C1898 1.363 . S
C1894 H1871 0.950 . S
C1894 C1893 1.397 . S
C1894 C1895 1.334 . S
C1895 H1872 0.950 . S
C1895 C1894 1.334 . S
C1895 C1896 1.287 . S
C1896 C1895 1.287 . S
C1896 C1897 1.524 . S
C1896 H1915 0.913 . S
C1897 H1873 0.950 . S
C1897 C1896 1.524 . S
C1897 C1898 1.415 . S
C1898 H1874 0.950 . S
C1898 C1893 1.363 . S
C1898 C1897 1.415 . S
C1899 H1875 0.951 . S
C1899 C1900 1.366 . S
C1899 C1901 1.388 . S
C1900 C1899 1.366 . S
C1900 C1904 1.385 . S
C1901 H1876 0.951 . S
C1901 C1899 1.388 . S
C1901 C1902 1.366 . S
C1902 C1901 1.366 . S
C1902 C1903 1.414 . S
C1902 C1905 1.499 . S
C1903 H1877 0.950 . S
C1903 C1902 1.414 . S
C1903 C1904 1.374 . S
C1904 H1878 0.950 . S
C1904 C1900 1.385 . S
C1904 C1903 1.374 . S
C1905 C1902 1.499 . S
C1905 C1906 1.373 . S
C1905 C1907 1.389 . S
C1906 H1879 0.950 . S
C1906 C1892 1.377 . S
C1906 C1905 1.373 . S
C1907 C1891 1.377 . S
C1907 C1905 1.389 . S
C1907 C1908 1.524 . S
C1908 C1907 1.524 . S
C1908 C1909 1.397 . S
C1908 C1913 1.363 . S
C1909 H1880 0.950 . S
C1909 C1908 1.397 . S
C1909 C1910 1.334 . S
C1910 H1881 0.950 . S
C1910 C1909 1.334 . S
C1910 C1911 1.287 . S
C1911 C1910 1.287 . S
C1911 C1912 1.524 . S
C1911 H1914 0.999 . S
C1912 H1882 0.950 . S
C1912 C1911 1.524 . S
C1912 C1913 1.415 . S
C1913 H1883 0.950 . S
C1913 C1908 1.363 . S
C1913 C1912 1.415 . S
H1914 C1911 0.999 . S
H1915 C1896 0.913 . S
H1916 C1934 0.951 . S
H1917 C1936 0.951 . S
H1918 C1938 0.950 . S
H1919 C1939 0.950 . S
H1920 C1941 0.950 . S
H1921 C1944 0.950 . S
H1922 C1945 0.950 . S
H1923 C1947 0.950 . S
H1924 C1948 0.950 . S
H1925 C1949 0.951 . S
H1926 C1951 0.951 . S
H1927 C1953 0.950 . S
H1928 C1954 0.950 . S
H1929 C1956 0.950 . S
H1930 C1959 0.950 . S
H1931 C1960 0.950 . S
H1932 C1962 0.950 . S
H1933 C1963 0.950 . S
C1934 H1916 0.951 . S
C1934 C1935 1.366 . S
C1934 C1936 1.388 . S
C1935 C1934 1.366 . S
C1935 C1939 1.385 . S
C1936 H1917 0.951 . S
C1936 C1934 1.388 . S
C1936 C1937 1.366 . S
C1937 C1936 1.366 . S
C1937 C1938 1.414 . S
C1937 C1940 1.499 . S
C1938 H1918 0.950 . S
C1938 C1937 1.414 . S
C1938 C1939 1.374 . S
C1939 H1919 0.950 . S
C1939 C1935 1.385 . S
C1939 C1938 1.374 . S
C1940 C1937 1.499 . S
C1940 C1941 1.373 . S
C1940 C1942 1.389 . S
C1941 H1920 0.950 . S
C1941 C1940 1.373 . S
C1941 C1957 1.377 . S
C1942 C1940 1.389 . S
C1942 C1943 1.524 . S
C1942 C1956 1.377 . S
C1943 C1942 1.524 . S
C1943 C1944 1.397 . S
C1943 C1948 1.363 . S
C1944 H1921 0.950 . S
C1944 C1943 1.397 . S
C1944 C1945 1.334 . S
C1945 H1922 0.950 . S
C1945 C1944 1.334 . S
C1945 C1946 1.287 . S
C1946 C1945 1.287 . S
C1946 C1947 1.524 . S
C1946 H1965 0.913 . S
C1947 H1923 0.950 . S
C1947 C1946 1.524 . S
C1947 C1948 1.415 . S
C1948 H1924 0.950 . S
C1948 C1943 1.363 . S
C1948 C1947 1.415 . S
C1949 H1925 0.951 . S
C1949 C1950 1.366 . S
C1949 C1951 1.388 . S
C1950 C1949 1.366 . S
C1950 C1954 1.385 . S
C1951 H1926 0.951 . S
C1951 C1949 1.388 . S
C1951 C1952 1.366 . S
C1952 C1951 1.366 . S
C1952 C1953 1.414 . S
C1952 C1955 1.499 . S
C1953 H1927 0.950 . S
C1953 C1952 1.414 . S
C1953 C1954 1.374 . S
C1954 H1928 0.950 . S
C1954 C1950 1.385 . S
C1954 C1953 1.374 . S
C1955 C1952 1.499 . S
C1955 C1956 1.373 . S
C1955 C1957 1.389 . S
C1956 H1929 0.950 . S
C1956 C1942 1.377 . S
C1956 C1955 1.373 . S
C1957 C1941 1.377 . S
C1957 C1955 1.389 . S
C1957 C1958 1.524 . S
C1958 C1957 1.524 . S
C1958 C1959 1.397 . S
C1958 C1963 1.363 . S
C1959 H1930 0.950 . S
C1959 C1958 1.397 . S
C1959 C1960 1.334 . S
C1960 H1931 0.950 . S
C1960 C1959 1.334 . S
C1960 C1961 1.287 . S
C1961 C1960 1.287 . S
C1961 C1962 1.524 . S
C1961 H1964 0.999 . S
C1962 H1932 0.950 . S
C1962 C1961 1.524 . S
C1962 C1963 1.415 . S
C1963 H1933 0.950 . S
C1963 C1958 1.363 . S
C1963 C1962 1.415 . S
H1964 C1961 0.999 . S
H1965 C1946 0.913 . S
H1966 C1984 0.951 . S
H1967 C1986 0.951 . S
H1968 C1988 0.950 . S
H1969 C1989 0.950 . S
H1970 C1991 0.950 . S
H1971 C1994 0.950 . S
H1972 C1995 0.950 . S
H1973 C1997 0.950 . S
H1974 C1998 0.950 . S
H1975 C1999 0.951 . S
H1976 C2001 0.951 . S
H1977 C2003 0.950 . S
H1978 C2004 0.950 . S
H1979 C2006 0.950 . S
H1980 C2009 0.950 . S
H1981 C2010 0.950 1_655 S
H1982 C2012 0.950 . S
H1983 C2013 0.950 . S
C1984 H1966 0.951 . S
C1984 C1985 1.366 . S
C1984 C1986 1.388 . S
C1985 C1984 1.366 . S
C1985 C1989 1.385 . S
C1986 H1967 0.951 . S
C1986 C1984 1.388 . S
C1986 C1987 1.366 . S
C1987 C1986 1.366 . S
C1987 C1988 1.414 . S
C1987 C1990 1.499 . S
C1988 H1968 0.950 . S
C1988 C1987 1.414 . S
C1988 C1989 1.374 . S
C1989 H1969 0.950 . S
C1989 C1985 1.385 . S
C1989 C1988 1.374 . S
C1990 C1987 1.499 . S
C1990 C1991 1.373 . S
C1990 C1992 1.389 . S
C1991 H1970 0.950 . S
C1991 C1990 1.373 . S
C1991 C2007 1.377 . S
C1992 C1990 1.389 . S
C1992 C1993 1.524 . S
C1992 C2006 1.377 . S
C1993 C1992 1.524 . S
C1993 C1994 1.397 . S
C1993 C1998 1.363 . S
C1994 H1971 0.950 . S
C1994 C1993 1.397 . S
C1994 C1995 1.334 . S
C1995 H1972 0.950 . S
C1995 C1994 1.334 . S
C1995 C1996 1.287 . S
C1996 C1995 1.287 . S
C1996 C1997 1.524 . S
C1996 H2015 0.913 . S
C1997 H1973 0.950 . S
C1997 C1996 1.524 . S
C1997 C1998 1.415 . S
C1998 H1974 0.950 . S
C1998 C1993 1.363 . S
C1998 C1997 1.415 . S
C1999 H1975 0.951 . S
C1999 C2000 1.366 . S
C1999 C2001 1.388 . S
C2000 C1999 1.366 . S
C2000 C2004 1.385 . S
C2001 H1976 0.951 . S
C2001 C1999 1.388 . S
C2001 C2002 1.366 . S
C2002 C2001 1.366 . S
C2002 C2003 1.414 . S
C2002 C2005 1.499 . S
C2003 H1977 0.950 . S
C2003 C2002 1.414 . S
C2003 C2004 1.374 . S
C2004 H1978 0.950 . S
C2004 C2000 1.385 . S
C2004 C2003 1.374 . S
C2005 C2002 1.499 . S
C2005 C2006 1.373 . S
C2005 C2007 1.389 . S
C2006 H1979 0.950 . S
C2006 C1992 1.377 . S
C2006 C2005 1.373 . S
C2007 C1991 1.377 . S
C2007 C2005 1.389 . S
C2007 C2008 1.524 . S
C2008 C2007 1.524 . S
C2008 C2009 1.397 . S
C2008 C2013 1.363 . S
C2009 H1980 0.950 . S
C2009 C2008 1.397 . S
C2009 C2010 1.334 . S
C2010 H1981 0.950 1_455 S
C2010 C2009 1.334 . S
C2010 C2011 1.287 1_455 S
C2011 C2010 1.287 1_655 S
C2011 C2012 1.524 . S
C2011 H2014 0.999 . S
C2012 H1982 0.950 . S
C2012 C2011 1.524 . S
C2012 C2013 1.415 1_655 S
C2013 H1983 0.950 . S
C2013 C2008 1.363 . S
C2013 C2012 1.415 1_455 S
H2014 C2011 0.999 . S
H2015 C1996 0.913 . S
C835 C361 1.437 . S
C850 C554 1.447 . S
C900 C638 1.446 . S
C885 C451 1.446 . S
C950 C631 1.453 . S
C935 C241 1.426 . S
C985 C331 1.434 . S
C1000 C547 1.453 . S
C1050 C711 1.447 . S
C1035 C140 1.430 . S
C1100 C795 1.446 . S
C1085 C211 1.429 . S
C1135 C20 1.415 . S
C1150 C788 1.453 . S
C1185 C91 1.415 . S
C1200 C704 1.453 . S
C1250 C538 1.345 . S
C1235 C80 1.477 1_554 S
C1300 C622 1.343 . S
C1285 C1 1.475 . S
C1350 C633 1.410 . S
C1335 C200 1.503 . S
C1400 C549 1.410 . S
C1385 C121 1.503 . S
C1450 C717 1.346 . S
C1435 C320 1.497 1_556 S
C1485 C260 1.488 . S
C1500 C801 1.344 . S
C1550 C790 1.409 . S
C1535 C440 1.521 . S
C1585 C380 1.516 . S
C1600 C706 1.409 . S
C1650 C536 1.593 . S
C1635 C31 1.570 . S
C1700 C620 1.592 . S
C1685 C61 1.570 . S
C1735 C151 1.558 . S
C1750 C627 1.565 . S
C1800 C543 1.566 . S
C1785 C181 1.559 . S
C1850 C715 1.593 . S
C1835 C271 1.534 . S
C1885 C301 1.592 . S
C1900 C799 1.592 . S
C1935 C391 1.524 . S
C1950 C806 1.566 . S
C1985 C421 1.578 . S
C2000 C722 1.566 . S
