# Generated by pormake.
# Topology ssa, (4,4)-cn, num edge types: 1
# Building blocks:
#     Node 0, Type 0, BuildingBlock: ESEHIV_clean_sbu_0, # of connection points: 4
#     Node 1, Type 0, BuildingBlock: ESEHIV_clean_sbu_0, # of connection points: 4
#     Node 2, Type 0, BuildingBlock: ESEHIV_clean_sbu_0, # of connection points: 4
#     Node 3, Type 0, BuildingBlock: ESEHIV_clean_sbu_0, # of connection points: 4
#     Node 4, Type 0, BuildingBlock: ESEHIV_clean_sbu_0, # of connection points: 4
#     Node 5, Type 0, BuildingBlock: ESEHIV_clean_sbu_0, # of connection points: 4
#     Node 6, Type 1, BuildingBlock: MIFKUJ_clean_linker_1, # of connection points: 4
#     Node 7, Type 1, BuildingBlock: MIFKUJ_clean_linker_1, # of connection points: 4
#     Node 8, Type 1, BuildingBlock: MIFKUJ_clean_linker_1, # of connection points: 4
#     Node 9, Type 1, BuildingBlock: MIFKUJ_clean_linker_1, # of connection points: 4
#     Node 10, Type 1, BuildingBlock: MIFKUJ_clean_linker_1, # of connection points: 4
#     Node 11, Type 1, BuildingBlock: MIFKUJ_clean_linker_1, # of connection points: 4
#     Edge 12, Type (0, 1), BuildingBlock: EZIPEK_clean_linker_0, # of connection points: 2
#     Edge 13, Type (0, 1), BuildingBlock: EZIPEK_clean_linker_0, # of connection points: 2
#     Edge 14, Type (0, 1), BuildingBlock: EZIPEK_clean_linker_0, # of connection points: 2
#     Edge 15, Type (0, 1), BuildingBlock: EZIPEK_clean_linker_0, # of connection points: 2
#     Edge 16, Type (0, 1), BuildingBlock: EZIPEK_clean_linker_0, # of connection points: 2
#     Edge 17, Type (0, 1), BuildingBlock: EZIPEK_clean_linker_0, # of connection points: 2
#     Edge 18, Type (0, 1), BuildingBlock: EZIPEK_clean_linker_0, # of connection points: 2
#     Edge 19, Type (0, 1), BuildingBlock: EZIPEK_clean_linker_0, # of connection points: 2
#     Edge 20, Type (0, 1), BuildingBlock: EZIPEK_clean_linker_0, # of connection points: 2
#     Edge 21, Type (0, 1), BuildingBlock: EZIPEK_clean_linker_0, # of connection points: 2
#     Edge 22, Type (0, 1), BuildingBlock: EZIPEK_clean_linker_0, # of connection points: 2
#     Edge 23, Type (0, 1), BuildingBlock: EZIPEK_clean_linker_0, # of connection points: 2
#     Edge 24, Type (0, 1), BuildingBlock: EZIPEK_clean_linker_0, # of connection points: 2
#     Edge 25, Type (0, 1), BuildingBlock: EZIPEK_clean_linker_0, # of connection points: 2
#     Edge 26, Type (0, 1), BuildingBlock: EZIPEK_clean_linker_0, # of connection points: 2
#     Edge 27, Type (0, 1), BuildingBlock: EZIPEK_clean_linker_0, # of connection points: 2
#     Edge 28, Type (0, 1), BuildingBlock: EZIPEK_clean_linker_0, # of connection points: 2
#     Edge 29, Type (0, 1), BuildingBlock: EZIPEK_clean_linker_0, # of connection points: 2
#     Edge 30, Type (0, 1), BuildingBlock: EZIPEK_clean_linker_0, # of connection points: 2
#     Edge 31, Type (0, 1), BuildingBlock: EZIPEK_clean_linker_0, # of connection points: 2
#     Edge 32, Type (0, 1), BuildingBlock: EZIPEK_clean_linker_0, # of connection points: 2
#     Edge 33, Type (0, 1), BuildingBlock: EZIPEK_clean_linker_0, # of connection points: 2
#     Edge 34, Type (0, 1), BuildingBlock: EZIPEK_clean_linker_0, # of connection points: 2
#     Edge 35, Type (0, 1), BuildingBlock: EZIPEK_clean_linker_0, # of connection points: 2
# Relax obj value: 0.009
# Max RMSD: 0.108
# Mean RMSD: 0.056
data_MOF--net-ssa--node1-ESEHIV_clean_sbu_0--node2-MIFKUJ_clean_linker_1--edge1-EZIPEK_clean_linker_0
_symmetry_space_group_name_H-M    P1
_symmetry_Int_Tables_number       1
_symmetry_cell_setting            triclinic
loop_
_symmetry_equiv_pos_as_xyz
'x, y, z'
_cell_length_a     46.690531
_cell_length_b     49.948189
_cell_length_c     30.923411
_cell_angle_alpha  88.097455
_cell_angle_beta   91.241628
_cell_angle_gamma 122.09644
loop_
_atom_site_label
_atom_site_type_symbol
_atom_site_fract_x
_atom_site_fract_y
_atom_site_fract_z
_atom_type_partial_charge
Cu0 Cu 0.02735 0.55282 0.99687 0.0
N1 N 0.98346 0.51903 1.00433 0.0
N2 N 0.93679 0.47278 0.99166 0.0
C3 C 0.96813 0.49433 0.97807 0.0
C4 C 0.93185 0.48411 0.0278 0.0
C5 C 0.96099 0.51297 0.03562 0.0
O6 O 0.03339 0.56807 0.93644 0.0
C7 C 0.05264 0.51616 0.03698 0.0
O8 O 0.02075 0.4947 0.04463 0.0
H9 H 0.97988 0.49199 0.94986 0.0
H10 H 0.96563 0.52828 0.06229 0.0
N11 N 0.03791 0.58582 0.0335 0.0
N12 N 0.06446 0.61757 0.0887 0.0
C13 C 0.04962 0.58792 0.07421 0.0
C14 C 0.04586 0.61526 0.02199 0.0
C15 C 0.06198 0.63483 0.05618 0.0
C16 C 0.01542 0.5668 0.90358 0.0
O17 O 0.03161 0.58106 0.86764 0.0
H18 H 0.05084 0.56914 0.09087 0.0
H19 H 0.04343 0.62277 0.98965 0.0
O20 O 0.06007 0.54085 0.01428 0.0
H21 H 0.90905 0.4723 0.04703 0.0
H22 H 0.07408 0.66029 0.05568 0.0
Cu23 Cu 0.55098 0.02184 0.52618 0.0
N24 N 0.57123 0.0181 0.47654 0.0
N25 N 0.5841 0.99448 0.42682 0.0
C26 C 0.56335 0.99044 0.45947 0.0
C27 C 0.60597 0.02598 0.42284 0.0
C28 C 0.59794 0.04051 0.45352 0.0
O29 O 0.50872 0.98205 0.5343 0.0
C30 C 0.60643 0.05784 0.5779 0.0
O31 O 0.61402 0.07775 0.54501 0.0
H32 H 0.54373 0.96765 0.47182 0.0
H33 H 0.61133 0.06556 0.45945 0.0
N34 N 0.54269 0.05478 0.5224 0.0
N35 N 0.53225 0.09079 0.54542 0.0
C36 C 0.53099 0.06363 0.55505 0.0
C37 C 0.55128 0.07698 0.49087 0.0
C38 C 0.54486 0.09927 0.50503 0.0
C39 C 0.486 0.97554 0.506 0.0
O40 O 0.4914 0.99684 0.47583 0.0
H41 H 0.5231 0.05118 0.58599 0.0
H42 H 0.56273 0.07766 0.4605 0.0
O43 O 0.5801 0.03027 0.576 0.0
H44 H 0.62678 0.0375 0.40025 0.0
H45 H 0.55013 0.1206 0.48772 0.0
Cu46 Cu 0.53822 0.51582 0.03197 0.0
N47 N 0.52643 0.47351 0.03833 0.0
N48 N 0.51458 0.42701 0.01337 0.0
C49 C 0.53538 0.45879 0.01079 0.0
C50 C 0.49216 0.42134 0.04451 0.0
C51 C 0.49948 0.44999 0.0598 0.0
O52 O 0.55799 0.5304 0.97493 0.0
C53 C 0.48586 0.51376 0.07467 0.0
O54 O 0.50151 0.51001 0.10787 0.0
H55 H 0.55484 0.47106 0.98674 0.0
H56 H 0.48406 0.45334 0.08183 0.0
N57 N 0.56774 0.54281 0.07474 0.0
N58 N 0.58774 0.58246 0.12101 0.0
C59 C 0.57187 0.57101 0.08296 0.0
C60 C 0.58224 0.53652 0.1084 0.0
C61 C 0.59476 0.5611 0.13702 0.0
C62 C 0.58903 0.54011 0.97039 0.0
O63 O 0.60731 0.54306 1.00486 0.0
H64 H 0.56118 0.58178 0.06296 0.0
H65 H 0.58154 0.51465 0.11333 0.0
O66 O 0.49734 0.51666 0.0367 0.0
H67 H 0.4704 0.39832 0.05291 0.0
H68 H 0.60596 0.56216 0.16843 0.0
Cu69 Cu 1.00383 0.48391 0.49631 0.0
N70 N 1.00055 0.45934 0.45006 0.0
N71 N 0.01747 0.44243 0.39647 0.0
C72 C 0.02569 0.45688 0.43466 0.0
C73 C 0.98564 0.43469 0.38759 0.0
C74 C 0.97518 0.44515 0.42095 0.0
O75 O 0.04631 0.52516 0.4921 0.0
C76 C 0.96506 0.43209 0.55127 0.0
O77 O 0.95031 0.42046 0.51401 0.0
H78 H 0.05025 0.46699 0.44968 0.0
H79 H 0.95149 0.44408 0.42261 0.0
N80 N 0.97164 0.49441 0.48911 0.0
N81 N 0.93735 0.50979 0.5088 0.0
C82 C 0.95665 0.49866 0.5223 0.0
C83 C 0.96186 0.50362 0.45325 0.0
C84 C 0.94034 0.51311 0.46544 0.0
C85 C 0.07678 0.53212 0.49206 0.0
O86 O 0.08377 0.51036 0.50138 0.0
H87 H 0.96074 0.49475 0.55591 0.0
H88 H 0.97074 0.50451 0.4209 0.0
O89 O 0.9919 0.4597 0.55151 0.0
H90 H 0.972 0.42423 0.35794 0.0
H91 H 0.9287 0.52256 0.44457 0.0
Cu92 Cu 0.49945 0.99556 0.02091 0.0
N93 N 0.47252 0.99879 0.97826 0.0
N94 N 0.4561 0.0225 0.93069 0.0
C95 C 0.47898 0.02647 0.961 0.0
C96 C 0.43389 0.99108 0.92879 0.0
C97 C 0.44423 0.97638 0.95828 0.0
O98 O 0.5436 0.03529 0.01827 0.0
C99 C 0.4506 0.95428 0.07945 0.0
O100 O 0.44245 0.93646 0.04551 0.0
H101 H 0.49998 0.04924 0.97057 0.0
H102 H 0.43198 0.95124 0.96462 0.0
N103 N 0.50772 0.9641 1.00939 0.0
N104 N 0.5213 0.92862 0.02604 0.0
C105 C 0.5226 0.95476 0.0384 0.0
C106 C 0.49697 0.94341 0.97704 0.0
C107 C 0.50526 0.9212 0.98745 0.0
C108 C 0.5581 0.04103 0.98156 0.0
O109 O 0.54298 0.02027 0.95097 0.0
H110 H 0.53206 0.96559 0.06946 0.0
H111 H 0.48255 0.94345 0.94923 0.0
O112 O 0.47536 0.98301 0.0765 0.0
H113 H 0.41197 0.97975 0.90775 0.0
H114 H 0.49854 0.9004 0.96945 0.0
Cu115 Cu 0.49071 0.51252 0.54172 0.0
N116 N 0.49927 0.55334 0.54729 0.0
N117 N 0.51861 0.60301 0.52557 0.0
C118 C 0.51226 0.57459 0.51435 0.0
C119 C 0.50937 0.59987 0.56726 0.0
C120 C 0.49715 0.569 0.58061 0.0
O121 O 0.46536 0.49733 0.48692 0.0
C122 C 0.5531 0.53128 0.57928 0.0
O123 O 0.54381 0.54678 0.60276 0.0
H124 H 0.51759 0.56946 0.48283 0.0
H125 H 0.48831 0.5593 0.61262 0.0
N126 N 0.46538 0.48356 0.58609 0.0
N127 N 0.45653 0.44222 0.62736 0.0
C128 C 0.46013 0.45428 0.58673 0.0
C129 C 0.46318 0.48945 0.62769 0.0
C130 C 0.4576 0.46396 0.65314 0.0
C131 C 0.43989 0.5004 0.48307 0.0
O132 O 0.43219 0.51149 0.51583 0.0
H133 H 0.46402 0.44409 0.55878 0.0
H134 H 0.46956 0.51194 0.63973 0.0
O135 O 0.53453 0.51568 0.54714 0.0
H136 H 0.51154 0.61858 0.58654 0.0
H137 H 0.45797 0.4629 0.68816 0.0
H138 H 0.19357 0.45966 0.12737 0.0
H139 H 0.1519 0.46625 0.08616 0.0
H140 H 0.16644 0.53787 0.17382 0.0
H141 H 0.20746 0.53083 0.21546 0.0
H142 H 0.26192 0.50229 0.14816 0.0
H143 H 0.15775 0.43447 0.22042 0.0
H144 H 0.10417 0.42152 0.2531 0.0
H145 H 0.15943 0.49175 0.34952 0.0
H146 H 0.21303 0.50508 0.31666 0.0
H147 H 0.33693 0.53594 0.27776 0.0
H148 H 0.37735 0.53636 0.33055 0.0
H149 H 0.31633 0.43461 0.34115 0.0
H150 H 0.27508 0.43439 0.29006 0.0
H151 H 0.24163 0.47125 0.30388 0.0
H152 H 0.32537 0.54358 0.1548 0.0
H153 H 0.37418 0.55093 0.11517 0.0
H154 H 0.35541 0.46208 0.16819 0.0
H155 H 0.30576 0.45388 0.20609 0.0
C156 C 0.20355 0.4946 0.17471 0.0
C157 C 0.18795 0.47692 0.13757 0.0
C158 C 0.16418 0.48067 0.11407 0.0
C159 C 0.15604 0.50262 0.12677 0.0
C160 C 0.17229 0.52083 0.16332 0.0
C161 C 0.19564 0.51675 0.18714 0.0
C162 C 0.2276 0.4896 0.2011 0.0
C163 C 0.25759 0.49566 0.18224 0.0
C164 C 0.22151 0.47986 0.2452 0.0
C165 C 0.18929 0.47093 0.26597 0.0
C166 C 0.15833 0.4471 0.24856 0.0
C167 C 0.12788 0.43961 0.26718 0.0
C168 C 0.12814 0.45571 0.30357 0.0
C169 C 0.15899 0.47911 0.32145 0.0
C170 C 0.18942 0.48661 0.30284 0.0
C171 C 0.30288 0.48515 0.28003 0.0
C172 C 0.33235 0.51371 0.29123 0.0
C173 C 0.35546 0.51393 0.3213 0.0
C174 C 0.34993 0.48552 0.34017 0.0
C175 C 0.32117 0.45685 0.32734 0.0
C176 C 0.29759 0.45671 0.29823 0.0
C177 C 0.27673 0.48521 0.25139 0.0
C178 C 0.2462 0.47812 0.26987 0.0
C179 C 0.2821 0.49338 0.20669 0.0
C180 C 0.31235 0.49851 0.18422 0.0
C181 C 0.33167 0.52562 0.15781 0.0
C182 C 0.35939 0.52982 0.1352 0.0
C183 C 0.36832 0.50711 0.13911 0.0
C184 C 0.3489 0.47989 0.16509 0.0
C185 C 0.32093 0.47548 0.18717 0.0
H186 H 0.68972 0.18819 0.80796 0.0
H187 H 0.64389 0.14584 0.852 0.0
H188 H 0.71682 0.15231 0.94578 0.0
H189 H 0.76283 0.19413 0.90132 0.0
H190 H 0.77556 0.25116 0.8791 0.0
H191 H 0.72648 0.21439 0.70958 0.0
H192 H 0.68823 0.16761 0.66773 0.0
H193 H 0.70902 0.11028 0.754 0.0
H194 H 0.74772 0.15739 0.7962 0.0
H195 H 0.85776 0.27319 0.72671 0.0
H196 H 0.89773 0.31505 0.67673 0.0
H197 H 0.86562 0.37625 0.71955 0.0
H198 H 0.82425 0.33388 0.76787 0.0
H199 H 0.79308 0.24211 0.72417 0.0
H200 H 0.87416 0.31323 0.8333 0.0
H201 H 0.90521 0.36179 0.87522 0.0
H202 H 0.81104 0.35254 0.90838 0.0
H203 H 0.78011 0.30485 0.86549 0.0
C204 C 0.72991 0.19405 0.8508 0.0
C205 C 0.696 0.18023 0.8376 0.0
C206 C 0.6698 0.15628 0.86292 0.0
C207 C 0.67699 0.14594 0.90211 0.0
C208 C 0.71077 0.15994 0.91564 0.0
C209 C 0.73696 0.18375 0.89023 0.0
C210 C 0.75799 0.22038 0.82496 0.0
C211 C 0.77955 0.24913 0.84522 0.0
C212 C 0.76291 0.21806 0.78059 0.0
C213 C 0.73989 0.18934 0.75598 0.0
C214 C 0.72297 0.19183 0.71949 0.0
C215 C 0.70112 0.16521 0.69575 0.0
C216 C 0.69597 0.13571 0.70793 0.0
C217 C 0.71281 0.13298 0.74432 0.0
C218 C 0.73472 0.15973 0.7683 0.0
C219 C 0.8379 0.30017 0.75159 0.0
C220 C 0.85934 0.29563 0.72568 0.0
C221 C 0.88238 0.31961 0.6973 0.0
C222 C 0.88479 0.34886 0.69439 0.0
C223 C 0.86438 0.35396 0.72142 0.0
C224 C 0.84085 0.32975 0.74925 0.0
C225 C 0.81106 0.27317 0.77834 0.0
C226 C 0.78959 0.24418 0.7582 0.0
C227 C 0.80538 0.27567 0.82249 0.0
C228 C 0.82486 0.30556 0.84607 0.0
C229 C 0.86027 0.32191 0.84904 0.0
C230 C 0.8779 0.34941 0.87305 0.0
C231 C 0.86026 0.36051 0.89478 0.0
C232 C 0.82496 0.34422 0.89178 0.0
C233 C 0.80742 0.31705 0.86745 0.0
H234 H 0.63957 0.86984 0.32161 0.0
H235 H 0.63802 0.9131 0.35467 0.0
H236 H 0.53397 0.8711 0.31497 0.0
H237 H 0.53576 0.82811 0.28095 0.0
H238 H 0.59268 0.80251 0.3445 0.0
H239 H 0.62044 0.87584 0.21832 0.0
H240 H 0.60547 0.90441 0.16542 0.0
H241 H 0.51689 0.81625 0.12821 0.0
H242 H 0.53113 0.78777 0.1816 0.0
H243 H 0.54551 0.72217 0.19278 0.0
H244 H 0.54734 0.67814 0.16314 0.0
H245 H 0.63555 0.70319 0.24062 0.0
H246 H 0.63405 0.74755 0.27024 0.0
H247 H 0.5839 0.78167 0.18772 0.0
H248 H 0.54092 0.70854 0.29811 0.0
H249 H 0.52812 0.66984 0.35663 0.0
H250 H 0.61272 0.74071 0.43018 0.0
H251 H 0.62687 0.77938 0.37043 0.0
C252 C 0.58787 0.84581 0.29855 0.0
C253 C 0.61652 0.87009 0.31958 0.0
C254 C 0.61565 0.89477 0.33842 0.0
C255 C 0.58589 0.89539 0.33735 0.0
C256 C 0.55724 0.87121 0.31605 0.0
C257 C 0.55827 0.84672 0.29663 0.0
C258 C 0.58863 0.81877 0.28091 0.0
C259 C 0.59165 0.79831 0.31015 0.0
C260 C 0.58449 0.81186 0.23638 0.0
C261 C 0.57671 0.82971 0.20417 0.0
C262 C 0.5977 0.8627 0.19901 0.0
C263 C 0.58936 0.87893 0.16872 0.0
C264 C 0.56019 0.86227 0.14307 0.0
C265 C 0.53955 0.82935 0.14772 0.0
C266 C 0.54772 0.8132 0.17807 0.0
C267 C 0.58963 0.73834 0.2339 0.0
C268 C 0.5654 0.7184 0.20335 0.0
C269 C 0.56634 0.69319 0.18651 0.0
C270 C 0.59162 0.68748 0.19961 0.0
C271 C 0.61586 0.70725 0.2301 0.0
C272 C 0.61487 0.73245 0.2471 0.0
C273 C 0.58873 0.7655 0.25128 0.0
C274 C 0.58574 0.78604 0.22211 0.0
C275 C 0.59026 0.77106 0.29619 0.0
C276 C 0.58531 0.74683 0.32938 0.0
C277 C 0.55761 0.71562 0.32596 0.0
C278 C 0.55001 0.69359 0.35955 0.0
C279 C 0.56948 0.70253 0.39755 0.0
C280 C 0.59755 0.73345 0.40092 0.0
C281 C 0.60553 0.75543 0.36692 0.0
H282 H 0.70844 0.49323 0.67069 0.0
H283 H 0.66141 0.49093 0.63002 0.0
H284 H 0.68737 0.5802 0.682 0.0
H285 H 0.73414 0.58226 0.72346 0.0
H286 H 0.77786 0.5399 0.67009 0.0
H287 H 0.68168 0.50081 0.76033 0.0
H288 H 0.63954 0.50612 0.79724 0.0
H289 H 0.71547 0.56835 0.88839 0.0
H290 H 0.75895 0.56813 0.84641 0.0
H291 H 0.87286 0.58011 0.76641 0.0
H292 H 0.91913 0.57999 0.80534 0.0
H293 H 0.84691 0.4955 0.87613 0.0
H294 H 0.80039 0.49507 0.83651 0.0
H295 H 0.77743 0.5331 0.83032 0.0
H296 H 0.84302 0.58249 0.66544 0.0
H297 H 0.87761 0.57803 0.61112 0.0
H298 H 0.85873 0.49169 0.67377 0.0
H299 H 0.82319 0.49553 0.7275 0.0
C300 C 0.72456 0.53774 0.70055 0.0
C301 C 0.70428 0.51251 0.67298 0.0
C302 C 0.67755 0.51122 0.64968 0.0
C303 C 0.67106 0.53548 0.65275 0.0
C304 C 0.69217 0.56138 0.67891 0.0
C305 C 0.71867 0.56248 0.70272 0.0
C306 C 0.75145 0.53758 0.72723 0.0
C307 C 0.77799 0.53893 0.70522 0.0
C308 C 0.75111 0.53565 0.77321 0.0
C309 C 0.72416 0.5352 0.79898 0.0
C310 C 0.68985 0.5169 0.78685 0.0
C311 C 0.66548 0.51932 0.80861 0.0
C312 C 0.6742 0.5376 0.84572 0.0
C313 C 0.70807 0.55428 0.85963 0.0
C314 C 0.73287 0.55374 0.83594 0.0
C315 C 0.8329 0.53733 0.79788 0.0
C316 C 0.8668 0.56131 0.78994 0.0
C317 C 0.89328 0.56136 0.81231 0.0
C318 C 0.88655 0.53762 0.84343 0.0
C319 C 0.85274 0.51393 0.85208 0.0
C320 C 0.82619 0.51382 0.82958 0.0
C321 C 0.80465 0.53678 0.77296 0.0
C322 C 0.77762 0.53489 0.79528 0.0
C323 C 0.80458 0.5389 0.72721 0.0
C324 C 0.83059 0.53933 0.70041 0.0
C325 C 0.84682 0.5629 0.66796 0.0
C326 C 0.86647 0.5604 0.63707 0.0
C327 C 0.87037 0.53447 0.63856 0.0
C328 C 0.85585 0.51184 0.67238 0.0
C329 C 0.83586 0.51416 0.70309 0.0
H330 H 0.29025 0.8511 0.27318 0.0
H331 H 0.33099 0.89343 0.22397 0.0
H332 H 0.39251 0.85264 0.2283 0.0
H333 H 0.3528 0.81151 0.2798 0.0
H334 H 0.26093 0.78081 0.25046 0.0
H335 H 0.32102 0.86045 0.35166 0.0
H336 H 0.36713 0.90033 0.39543 0.0
H337 H 0.37589 0.82767 0.46183 0.0
H338 H 0.33297 0.78815 0.41386 0.0
H339 H 0.25788 0.7076 0.40111 0.0
H340 H 0.21876 0.6574 0.43884 0.0
H341 H 0.1343 0.66259 0.39159 0.0
H342 H 0.17337 0.71364 0.35546 0.0
H343 H 0.27321 0.76511 0.40718 0.0
H344 H 0.22017 0.68829 0.29173 0.0
H345 H 0.17473 0.65074 0.24354 0.0
H346 H 0.14873 0.7201 0.21262 0.0
H347 H 0.19363 0.75744 0.26106 0.0
C348 C 0.31866 0.82833 0.28055 0.0
C349 C 0.31292 0.85171 0.26435 0.0
C350 C 0.33615 0.87584 0.23625 0.0
C351 C 0.36479 0.87619 0.22202 0.0
C352 C 0.37074 0.85301 0.23879 0.0
C353 C 0.34808 0.82952 0.26814 0.0
C354 C 0.29228 0.80092 0.30667 0.0
C355 C 0.26358 0.77752 0.28486 0.0
C356 C 0.29577 0.79662 0.35161 0.0
C357 C 0.32414 0.82122 0.37792 0.0
C358 C 0.33386 0.85308 0.37391 0.0
C359 C 0.35968 0.87584 0.39972 0.0
C360 C 0.37511 0.867 0.43169 0.0
C361 C 0.36457 0.83505 0.43703 0.0
C362 C 0.33993 0.81251 0.40974 0.0
C363 C 0.21872 0.71435 0.37462 0.0
C364 C 0.231 0.69828 0.39924 0.0
C365 C 0.20872 0.66959 0.42075 0.0
C366 C 0.17367 0.65621 0.41778 0.0
C367 C 0.16127 0.67247 0.39409 0.0
C368 C 0.1836 0.70146 0.37313 0.0
C369 C 0.24292 0.74435 0.35051 0.0
C370 C 0.271 0.76836 0.3727 0.0
C371 C 0.23897 0.74938 0.30602 0.0
C372 C 0.21016 0.7256 0.27996 0.0
C373 C 0.20426 0.69518 0.27522 0.0
C374 C 0.17845 0.67381 0.24788 0.0
C375 C 0.15855 0.68282 0.22478 0.0
C376 C 0.16383 0.71283 0.23042 0.0
C377 C 0.18949 0.73411 0.25777 0.0
H378 H 0.54745 0.30983 0.84491 0.0
H379 H 0.55321 0.34873 0.89663 0.0
H380 H 0.44884 0.31865 0.87493 0.0
H381 H 0.44342 0.28034 0.82203 0.0
H382 H 0.49067 0.23787 0.84962 0.0
H383 H 0.52987 0.33734 0.76238 0.0
H384 H 0.51903 0.37713 0.73169 0.0
H385 H 0.42974 0.30394 0.66765 0.0
H386 H 0.43974 0.26396 0.69953 0.0
H387 H 0.44893 0.16132 0.72896 0.0
H388 H 0.45783 0.12753 0.68223 0.0
H389 H 0.55183 0.20889 0.63813 0.0
H390 H 0.54353 0.24259 0.68573 0.0
H391 H 0.49207 0.25542 0.69066 0.0
H392 H 0.43205 0.17175 0.82134 0.0
H393 H 0.42123 0.12157 0.85326 0.0
H394 H 0.52464 0.15065 0.82901 0.0
H395 H 0.53519 0.20064 0.79574 0.0
C396 C 0.49504 0.29227 0.82955 0.0
C397 C 0.52582 0.31166 0.85119 0.0
C398 C 0.52911 0.33383 0.88067 0.0
C399 C 0.50144 0.33656 0.88985 0.0
C400 C 0.47052 0.31696 0.8684 0.0
C401 C 0.4674 0.29513 0.83828 0.0
C402 C 0.49216 0.26886 0.79843 0.0
C403 C 0.49115 0.24186 0.81486 0.0
C404 C 0.49057 0.27286 0.75307 0.0
C405 C 0.48538 0.29758 0.73372 0.0
C406 C 0.50768 0.32974 0.74232 0.0
C407 C 0.5016 0.35243 0.72471 0.0
C408 C 0.47343 0.34334 0.69777 0.0
C409 C 0.45143 0.31132 0.68865 0.0
C410 C 0.45731 0.28863 0.70658 0.0
C411 C 0.49583 0.20455 0.71151 0.0
C412 C 0.47161 0.17193 0.70957 0.0
C413 C 0.47656 0.15264 0.68271 0.0
C414 C 0.50556 0.16568 0.6568 0.0
C415 C 0.52933 0.19834 0.6579 0.0
C416 C 0.52449 0.21756 0.68493 0.0
C417 C 0.49224 0.22522 0.74192 0.0
C418 C 0.49187 0.25162 0.72542 0.0
C419 C 0.49005 0.21958 0.7872 0.0
C420 C 0.48442 0.18978 0.80651 0.0
C421 C 0.45236 0.16727 0.82285 0.0
C422 C 0.44614 0.1387 0.84079 0.0
C423 C 0.47216 0.13256 0.84354 0.0
C424 C 0.5043 0.15506 0.82709 0.0
C425 C 0.51035 0.1835 0.80839 0.0
C426 C 0.10791 0.51754 0.03633 0.0
C427 C 0.07972 0.51329 0.05945 0.0
C428 C 0.09951 0.49805 0.1246 0.0
C429 C 0.12958 0.50581 0.10299 0.0
N430 N 0.16526 0.52885 0.04022 0.0
N431 N 0.05423 0.50776 0.12915 0.0
C432 C 0.13461 0.51724 0.05934 0.0
C433 C 0.07703 0.50582 0.1046 0.0
N434 N 0.10865 0.52056 0.99223 0.0
N435 N 0.09174 0.48232 0.16377 0.0
H436 H 0.0386 0.5152 0.11667 0.0
H437 H 0.05364 0.50558 0.1628 0.0
H438 H 0.10693 0.47527 0.17895 0.0
H439 H 0.06854 0.47338 0.17892 0.0
H440 H 0.12683 0.52045 0.97343 0.0
H441 H 0.08929 0.52005 0.9741 0.0
H442 H 0.17153 0.5405 0.01012 0.0
H443 H 0.18555 0.52951 0.05611 0.0
C444 C 0.61473 0.07429 0.65535 0.0
C445 C 0.62754 0.06901 0.61744 0.0
C446 C 0.68543 0.1013 0.64497 0.0
C447 C 0.67278 0.10807 0.68154 0.0
N448 N 0.62618 0.09495 0.72795 0.0
N449 N 0.67288 0.06943 0.58142 0.0
C450 C 0.63757 0.09229 0.68894 0.0
C451 C 0.66228 0.07984 0.61414 0.0
N452 N 0.58122 0.06403 0.65798 0.0
N453 N 0.71956 0.11664 0.63874 0.0
H454 H 0.65613 0.0534 0.55879 0.0
H455 H 0.69739 0.07426 0.57893 0.0
H456 H 0.73713 0.13153 0.66162 0.0
H457 H 0.73051 0.11579 0.61028 0.0
H458 H 0.57118 0.07085 0.68188 0.0
H459 H 0.56345 0.04985 0.63491 0.0
H460 H 0.60089 0.08184 0.73707 0.0
H461 H 0.64253 0.10833 0.75286 0.0
C462 C 0.61416 0.64006 0.12829 0.0
C463 C 0.59048 0.60884 0.14299 0.0
C464 C 0.57091 0.62952 0.19862 0.0
C465 C 0.59243 0.66058 0.18128 0.0
N466 N 0.63244 0.6956 0.12723 0.0
N467 N 0.54324 0.57308 0.18814 0.0
C468 C 0.61364 0.66594 0.14552 0.0
C469 C 0.56816 0.60336 0.17733 0.0
N470 N 0.6376 0.64478 0.09835 0.0
N471 N 0.5535 0.62512 0.23588 0.0
H472 H 0.54027 0.55347 0.17287 0.0
H473 H 0.52371 0.56741 0.20941 0.0
H474 H 0.55454 0.64366 0.25195 0.0
H475 H 0.54016 0.60357 0.25278 0.0
H476 H 0.6578 0.66697 0.0889 0.0
H477 H 0.63828 0.62611 0.08535 0.0
H478 H 0.64561 0.70058 0.09838 0.0
H479 H 0.6332 0.71517 0.13951 0.0
C480 C 0.88458 0.49807 0.5422 0.0
C481 C 0.91979 0.51855 0.53667 0.0
C482 C 0.92303 0.54944 0.59827 0.0
C483 C 0.88746 0.52973 0.6027 0.0
N484 N 0.83335 0.48993 0.57334 0.0
N485 N 0.97178 0.56678 0.55259 0.0
C486 C 0.86785 0.50542 0.57291 0.0
C487 C 0.93875 0.54533 0.56258 0.0
N488 N 0.86753 0.47086 0.51946 0.0
N489 N 0.94184 0.57105 0.62911 0.0
H490 H 0.98363 0.56412 0.5263 0.0
H491 H 0.98643 0.58836 0.5677 0.0
H492 H 0.93114 0.57453 0.65595 0.0
H493 H 0.96815 0.58382 0.62997 0.0
H494 H 0.84254 0.45305 0.52563 0.0
H495 H 0.87923 0.46508 0.4964 0.0
H496 H 0.81796 0.47418 0.5497 0.0
H497 H 0.82014 0.4949 0.59514 0.0
C498 C 0.44403 0.93809 0.15931 0.0
C499 C 0.42964 0.94002 0.11925 0.0
C500 C 0.37325 0.89967 0.14603 0.0
C501 C 0.38711 0.89931 0.18729 0.0
N502 N 0.43498 0.92416 0.23589 0.0
N503 N 0.37981 0.92951 0.07974 0.0
C504 C 0.42233 0.92043 0.19479 0.0
C505 C 0.39398 0.92307 0.11448 0.0
N506 N 0.47817 0.95147 0.16299 0.0
N507 N 0.34092 0.87648 0.13567 0.0
H508 H 0.39427 0.94715 0.05661 0.0
H509 H 0.35387 0.91989 0.07662 0.0
H510 H 0.32532 0.85763 0.15658 0.0
H511 H 0.3309 0.874 0.10457 0.0
H512 H 0.48954 0.94754 0.18975 0.0
H513 H 0.49493 0.96445 0.13797 0.0
H514 H 0.45982 0.94133 0.24383 0.0
H515 H 0.41977 0.91224 0.26268 0.0
C516 C 0.48842 0.41492 0.6312 0.0
C517 C 0.45952 0.41599 0.64185 0.0
C518 C 0.44035 0.37001 0.69092 0.0
C519 C 0.46778 0.3676 0.67761 0.0
N520 N 0.51306 0.38296 0.62734 0.0
N521 N 0.40461 0.39076 0.67441 0.0
C522 C 0.4903 0.38857 0.64531 0.0
C523 C 0.43445 0.39231 0.66953 0.0
N524 N 0.51508 0.43975 0.60984 0.0
N525 N 0.42071 0.35186 0.72499 0.0
H526 H 0.3994 0.40637 0.65821 0.0
H527 H 0.38399 0.37232 0.69095 0.0
H528 H 0.42443 0.33545 0.7417 0.0
H529 H 0.4026 0.35495 0.73899 0.0
H530 H 0.53822 0.44166 0.60607 0.0
H531 H 0.51565 0.46002 0.59963 0.0
H532 H 0.52757 0.39554 0.60038 0.0
H533 H 0.51508 0.36375 0.63657 0.0
C534 C 0.57757 0.96624 0.35914 0.0
C535 C 0.5847 0.9699 0.40409 0.0
C536 C 0.58796 0.9224 0.40603 0.0
C537 C 0.58455 0.92071 0.36023 0.0
N538 N 0.58135 0.94422 0.29227 0.0
N539 N 0.60335 0.95534 0.4687 0.0
C540 C 0.58074 0.94352 0.33647 0.0
C541 C 0.59173 0.949 0.42709 0.0
N542 N 0.56662 0.9838 0.33847 0.0
N543 N 0.58641 0.89804 0.42963 0.0
H544 H 0.60751 0.97524 0.48451 0.0
H545 H 0.61211 0.94277 0.48587 0.0
H546 H 0.58283 0.87777 0.41558 0.0
H547 H 0.5853 0.89652 0.4633 0.0
H548 H 0.55766 0.98007 0.30673 0.0
H549 H 0.56368 1.00026 0.35443 0.0
H550 H 0.58212 0.96221 0.27329 0.0
H551 H 0.58403 0.92829 0.27453 0.0
C552 C 0.59327 0.51387 0.90614 0.0
C553 C 0.60354 0.54222 0.92739 0.0
C554 C 0.65375 0.56911 0.8816 0.0
C555 C 0.6481 0.53923 0.87049 0.0
N556 N 0.61345 0.48209 0.88001 0.0
N557 N 0.64335 0.59802 0.93405 0.0
C558 C 0.61785 0.51119 0.88426 0.0
C559 C 0.63368 0.57035 0.91445 0.0
N560 N 0.56037 0.4895 0.90698 0.0
N561 N 0.67756 0.59603 0.86023 0.0
H562 H 0.62798 0.59978 0.95634 0.0
H563 H 0.66699 0.61859 0.92942 0.0
H564 H 0.69134 0.59567 0.83438 0.0
H565 H 0.68089 0.61807 0.86501 0.0
H566 H 0.55164 0.46917 0.88919 0.0
H567 H 0.54144 0.49142 0.92094 0.0
H568 H 0.59271 0.46151 0.89305 0.0
H569 H 0.63212 0.47881 0.86841 0.0
C570 C 0.11756 0.56651 0.43318 0.0
C571 C 0.10352 0.56382 0.47468 0.0
C572 C 0.13462 0.62185 0.47835 0.0
C573 C 0.14988 0.62442 0.4379 0.0
N574 N 0.15955 0.59967 0.3791 0.0
N575 N 0.10186 0.58827 0.53954 0.0
C576 C 0.14255 0.59685 0.41615 0.0
C577 C 0.11291 0.59136 0.498 0.0
N578 N 0.10562 0.54022 0.40887 0.0
N579 N 0.14053 0.64859 0.49763 0.0
H580 H 0.08604 0.56634 0.55478 0.0
H581 H 0.11029 0.60711 0.56015 0.0
H582 H 0.15746 0.67129 0.48527 0.0
H583 H 0.12734 0.64843 0.52443 0.0
H584 H 0.11175 0.5409 0.37653 0.0
H585 H 0.08737 0.5176 0.41984 0.0
H586 H 0.15877 0.58073 0.36476 0.0
H587 H 0.17635 0.62134 0.36391 0.0
C588 C 0.46455 0.05328 0.86275 0.0
C589 C 0.45579 0.04761 0.90709 0.0
C590 C 0.45941 0.09815 0.9103 0.0
C591 C 0.46593 0.10295 0.86516 0.0
N592 N 0.46791 0.08225 0.7966 0.0
N593 N 0.43759 0.06053 0.97074 0.0
C594 C 0.46643 0.07961 0.84075 0.0
C595 C 0.45086 0.06881 0.93006 0.0
N596 N 0.47265 0.03437 0.84232 0.0
N597 N 0.46305 0.12212 0.9347 0.0
H598 H 0.4307 0.03885 0.98556 0.0
H599 H 0.43038 0.07361 0.98787 0.0
H600 H 0.47028 0.14437 0.92174 0.0
H601 H 0.46198 0.12095 0.96836 0.0
H602 H 0.48283 0.0393 0.81133 0.0
H603 H 0.47166 0.01501 0.85773 0.0
H604 H 0.46508 0.06444 0.77695 0.0
H605 H 0.46899 0.10107 0.77936 0.0
C606 C 0.38221 0.47312 0.4496 0.0
C607 C 0.41775 0.49135 0.44358 0.0
C608 C 0.40809 0.49923 0.36679 0.0
C609 C 0.37315 0.48603 0.37517 0.0
N610 N 0.32836 0.46546 0.42802 0.0
N611 N 0.46493 0.52484 0.39647 0.0
C612 C 0.3605 0.47408 0.41745 0.0
C613 C 0.43089 0.50498 0.40202 0.0
N614 N 0.36909 0.45453 0.48609 0.0
N615 N 0.41943 0.50573 0.32511 0.0
H616 H 0.48249 0.52968 0.42108 0.0
H617 H 0.47557 0.53836 0.36828 0.0
H618 H 0.40341 0.50126 0.29862 0.0
H619 H 0.44392 0.51254 0.31666 0.0
H620 H 0.34327 0.43853 0.49046 0.0
H621 H 0.38424 0.45251 0.50965 0.0
H622 H 0.31922 0.4597 0.45957 0.0
H623 H 0.312 0.46729 0.40643 0.0
C624 C 0.89567 0.44362 0.9345 0.0
C625 C 0.91416 0.44352 0.9711 0.0
C626 C 0.89364 0.3878 0.96116 0.0
C627 C 0.87859 0.38905 0.92134 0.0
N628 N 0.86878 0.41919 0.86694 0.0
N629 N 0.93402 0.41743 0.01792 0.0
C630 C 0.88033 0.41721 0.9072 0.0
C631 C 0.91393 0.41605 0.98423 0.0
N632 N 0.89264 0.46902 0.92632 0.0
N633 N 0.88775 0.35952 0.97743 0.0
H634 H 0.94843 0.43771 0.03602 0.0
H635 H 0.93808 0.39931 0.02616 0.0
H636 H 0.87276 0.33826 0.96157 0.0
H637 H 0.89532 0.35666 1.00825 0.0
H638 H 0.87648 0.46924 0.90281 0.0
H639 H 0.90409 0.48878 0.94585 0.0
H640 H 0.87251 0.44014 0.85323 0.0
H641 H 0.85791 0.40049 0.84561 0.0
C642 C 0.95968 0.56078 0.92299 0.0
C643 C 0.97742 0.54929 0.90157 0.0
C644 C 0.93045 0.52265 0.8493 0.0
C645 C 0.91524 0.53807 0.86693 0.0
N646 N 0.91339 0.56998 0.92209 0.0
N647 N 0.97505 0.51111 0.85441 0.0
C648 C 0.92899 0.55614 0.90479 0.0
C649 C 0.96107 0.52745 0.86791 0.0
N650 N 0.97198 0.57546 0.96125 0.0
N651 N 0.91637 0.50465 0.81354 0.0
H652 H 0.99699 0.51401 0.86862 0.0
H653 H 0.96375 0.49298 0.83236 0.0
H654 H 0.89346 0.49986 0.80015 0.0
H655 H 0.92767 0.49527 0.79609 0.0
H656 H 0.96001 0.58316 0.98071 0.0
H657 H 0.99275 0.57653 0.97567 0.0
H658 H 0.92357 0.5862 0.94677 0.0
H659 H 0.89033 0.56603 0.91055 0.0
C660 C 0.42332 0.93934 0.50119 0.0
C661 C 0.4557 0.94337 0.50233 0.0
C662 C 0.4348 0.8958 0.46092 0.0
C663 C 0.40215 0.89142 0.45958 0.0
N664 N 0.36312 0.90306 0.49089 0.0
N665 N 0.48728 0.9178 0.50077 0.0
C666 C 0.39563 0.91129 0.48384 0.0
C667 C 0.45976 0.91895 0.48826 0.0
N668 N 0.41928 0.96261 0.51588 0.0
N669 N 0.44299 0.87973 0.434 0.0
H670 H 0.50478 0.93318 0.52324 0.0
H671 H 0.49012 0.89913 0.49332 0.0
H672 H 0.42634 0.86405 0.41109 0.0
H673 H 0.46756 0.88465 0.43123 0.0
H674 H 0.39721 0.96278 0.51119 0.0
H675 H 0.43874 0.98243 0.53133 0.0
H676 H 0.35685 0.91541 0.51119 0.0
H677 H 0.34227 0.88201 0.47997 0.0
C678 C 0.5182 0.38091 0.99553 0.0
C679 C 0.51152 0.40449 0.98248 0.0
C680 C 0.50146 0.38556 0.90811 0.0
C681 C 0.50495 0.36001 0.92191 0.0
N682 N 0.51044 0.33005 0.98087 0.0
N683 N 0.48866 0.42436 0.92912 0.0
C684 C 0.51168 0.35677 0.96628 0.0
C685 C 0.50087 0.40546 0.93949 0.0
N686 N 0.53141 0.38204 0.03572 0.0
N687 N 0.49991 0.39159 0.86497 0.0
H688 H 0.48679 0.43841 0.95169 0.0
H689 H 0.47743 0.42378 0.8994 0.0
H690 H 0.50106 0.37807 0.84087 0.0
H691 H 0.50082 0.41179 0.85309 0.0
H692 H 0.54013 0.36751 0.04587 0.0
H693 H 0.53623 0.39943 0.05763 0.0
H694 H 0.51186 0.32497 0.01349 0.0
H695 H 0.50485 0.31149 0.96079 0.0
C696 C 0.0581 0.46735 0.33665 0.0
C697 C 0.0411 0.4424 0.36768 0.0
C698 C 0.07916 0.42402 0.35375 0.0
C699 C 0.09613 0.44898 0.32258 0.0
N700 N 0.09807 0.4902 0.27744 0.0
N701 N 0.03054 0.39407 0.40105 0.0
C702 C 0.08428 0.46925 0.31169 0.0
C703 C 0.05007 0.41968 0.37451 0.0
N704 N 0.05039 0.49017 0.33292 0.0
N705 N 0.09172 0.40542 0.36465 0.0
H706 H 1.00932 0.39087 0.41673 0.0
H707 H 0.03367 0.375 0.40505 0.0
H708 H 0.11255 0.40755 0.34932 0.0
H709 H 0.08275 0.389 0.39026 0.0
H710 H 0.06435 0.51094 0.31452 0.0
H711 H 0.03129 0.48944 0.35074 0.0
H712 H 0.08829 0.50338 0.26505 0.0
H713 H 0.11779 0.49259 0.259 0.0
C714 C 0.59733 0.10036 0.97133 0.0
C715 C 0.59202 0.06958 0.97195 0.0
C716 C 0.64364 0.08931 0.92943 0.0
C717 C 0.64903 0.12009 0.92867 0.0
N718 N 0.63592 0.15664 0.95718 0.0
N719 N 0.61497 0.03691 0.96314 0.0
C720 C 0.6274 0.12615 0.95234 0.0
C721 C 0.61688 0.06485 0.95472 0.0
N722 N 0.573 0.10476 0.98682 0.0
N723 N 0.66299 0.083 0.90427 0.0
H724 H 0.59603 0.01886 0.98243 0.0
H725 H 0.6339 0.03291 0.95497 0.0
H726 H 0.68277 0.10018 0.88512 0.0
H727 H 0.65774 0.06026 0.89962 0.0
H728 H 0.57315 0.12556 0.98186 0.0
H729 H 0.55168 0.08705 1.0031 0.0
H730 H 0.62315 0.16298 0.97758 0.0
H731 H 0.65764 0.17598 0.94359 0.0
C732 C 0.56627 0.64366 0.48187 0.0
C733 C 0.53324 0.63086 0.49808 0.0
C734 C 0.528 0.67031 0.45597 0.0
C735 C 0.55875 0.67978 0.43471 0.0
N736 N 0.60585 0.67339 0.42406 0.0
N737 N 0.48055 0.62879 0.49667 0.0
C738 C 0.57777 0.66611 0.44696 0.0
C739 C 0.51359 0.6435 0.48443 0.0
N740 N 0.58666 0.63455 0.50047 0.0
N741 N 0.51289 0.68721 0.4494 0.0
H742 H 0.46896 0.60862 0.51673 0.0
H743 H 0.46389 0.63491 0.48394 0.0
H744 H 0.52305 0.70731 0.42919 0.0
H745 H 0.49217 0.68315 0.46714 0.0
H746 H 0.61209 0.645 0.49277 0.0
H747 H 0.57888 0.61856 0.5267 0.0
H748 H 0.61856 0.66157 0.42861 0.0
H749 H 0.61499 0.68962 0.39811 0.0
C750 C 0.49712 0.11211 0.56502 0.0
C751 C 0.52497 0.10879 0.57394 0.0
C752 C 0.53715 0.13906 0.64011 0.0
C753 C 0.51146 0.14519 0.62881 0.0
N754 N 0.46985 0.14115 0.57732 0.0
N755 N 0.57502 0.12331 0.61563 0.0
C756 C 0.49212 0.13262 0.59039 0.0
C757 C 0.54592 0.12335 0.61043 0.0
N758 N 0.47489 0.09483 0.53298 0.0
N759 N 0.55255 0.14748 0.67972 0.0
H760 H 0.58255 0.11274 0.59384 0.0
H761 H 0.59315 0.13609 0.63918 0.0
H762 H 0.54663 0.1588 0.7024 0.0
H763 H 0.56892 0.14075 0.69161 0.0
H764 H 0.45213 0.09357 0.52746 0.0
H765 H 0.4779 0.0795 0.51424 0.0
H766 H 0.45767 0.1355 0.54738 0.0
H767 H 0.4655 0.15609 0.59496 0.0
C768 C 0.42348 0.4919 0.06867 0.0
C769 C 0.45608 0.51584 0.08285 0.0
C770 C 0.43124 0.53539 0.13184 0.0
C771 C 0.39862 0.512 0.11705 0.0
N772 N 0.36381 0.4733 0.0641 0.0
N773 N 0.49111 0.56594 0.11689 0.0
C774 C 0.39479 0.49197 0.08296 0.0
C775 C 0.45996 0.53941 0.1109 0.0
N776 N 0.41973 0.46818 0.04364 0.0
N777 N 0.43494 0.55256 0.16738 0.0
H778 H 0.51246 0.56988 0.10089 0.0
H779 H 0.49505 0.58534 0.1338 0.0
H780 H 0.41457 0.55006 0.18435 0.0
H781 H 0.45819 0.56731 0.18233 0.0
H782 H 0.39636 0.4481 0.03667 0.0
H783 H 0.44014 0.46749 0.03212 0.0
H784 H 0.36004 0.46043 0.03647 0.0
H785 H 0.34236 0.473 0.07376 0.0
C786 C 0.96195 0.40637 0.62507 0.0
C787 C 0.9466 0.41495 0.59182 0.0
C788 C 0.89109 0.38015 0.62564 0.0
C789 C 0.90649 0.37292 0.66032 0.0
N790 N 0.95749 0.38451 0.69781 0.0
N791 N 0.89825 0.41735 0.56852 0.0
C792 C 0.94227 0.38774 0.66152 0.0
C793 C 0.9117 0.40414 0.5947 0.0
N794 N 0.99474 0.4146 0.62095 0.0
N795 N 0.85672 0.36298 0.62063 0.0
H796 H 0.91256 0.43558 0.54617 0.0
H797 H 0.87387 0.41268 0.57235 0.0
H798 H 0.84048 0.34438 0.64147 0.0
H799 H 0.84456 0.36506 0.59325 0.0
H800 H 1.00613 0.40602 0.64163 0.0
H801 H 1.00988 0.42815 0.59491 0.0
H802 H 0.98359 0.39716 0.70239 0.0
H803 H 0.94388 0.37134 0.72506 0.0
C804 C 0.55856 0.90881 0.04406 0.0
C805 C 0.52958 0.90977 0.05308 0.0
C806 C 0.52266 0.8823 0.12261 0.0
C807 C 0.55023 0.87924 0.11226 0.0
N808 N 0.5913 0.88495 0.06066 0.0
N809 N 0.48005 0.89243 0.09584 0.0
C810 C 0.56733 0.89116 0.07219 0.0
C811 C 0.51041 0.89496 0.09092 0.0
N812 N 0.57831 0.92582 1.0095 0.0
N813 N 0.50898 0.8741 0.16316 0.0
H814 H 0.4701 0.90077 0.07236 0.0
H815 H 0.46334 0.87952 0.12091 0.0
H816 H 0.51749 0.86494 0.18745 0.0
H817 H 0.49125 0.87893 0.17396 0.0
H818 H 0.60179 0.92896 1.00361 0.0
H819 H 0.5722 0.93876 0.9883 0.0
H820 H 0.60217 0.89025 0.03007 0.0
H821 H 0.59853 0.8723 0.08066 0.0
C822 C 0.61125 0.53978 0.56968 0.0
C823 C 0.58197 0.52867 0.59535 0.0
C824 C 0.6111 0.52169 0.6581 0.0
C825 C 0.64009 0.53217 0.63224 0.0
N826 N 0.6665 0.5465 0.56218 0.0
N827 N 0.5517 0.50349 0.66161 0.0
C828 C 0.63967 0.5396 0.58754 0.0
C829 C 0.5813 0.51807 0.63891 0.0
N830 N 0.61267 0.55225 0.52918 0.0
N831 N 0.61223 0.51568 0.70142 0.0
H832 H 0.52927 0.50027 0.649 0.0
H833 H 0.54827 0.49179 0.69133 0.0
H834 H 0.63251 0.5157 0.71624 0.0
H835 H 0.59399 0.51239 0.72338 0.0
H836 H 0.63452 0.56412 0.51059 0.0
H837 H 0.59243 0.55268 0.51505 0.0
H838 H 0.66639 0.54867 0.5286 0.0
H839 H 0.68826 0.54801 0.57453 0.0
C840 C 0.07555 0.63095 0.16567 0.0
C841 C 0.08761 0.63027 0.12447 0.0
C842 C 0.14611 0.66172 0.14994 0.0
C843 C 0.13412 0.66216 0.19154 0.0
N844 N 0.08815 0.64291 0.24183 0.0
N845 N 0.13289 0.63844 0.07912 0.0
C846 C 0.09895 0.64533 0.20033 0.0
C847 C 0.12251 0.64355 0.11725 0.0
N848 N 0.04179 0.61868 0.17093 0.0
N849 N 0.17993 0.67993 0.14106 0.0
H850 H 0.11616 0.62561 0.05427 0.0
H851 H 0.15758 0.64456 0.07345 0.0
H852 H 0.19821 0.69335 0.1642 0.0
H853 H 0.18982 0.68358 0.11006 0.0
H854 H 0.03134 0.62106 0.19882 0.0
H855 H 0.02429 0.60742 0.14604 0.0
H856 H 0.06298 0.6288 0.2512 0.0
H857 H 0.10482 0.65326 0.26776 0.0
loop_
_geom_bond_atom_site_label_1
_geom_bond_atom_site_label_2
_geom_bond_distance
_geom_bond_site_symmetry_2
_ccdc_geom_bond_type
Cu0 N1 1.999 1_454 S
Cu0 O6 1.961 1_454 S
Cu0 N11 1.986 . S
Cu0 O20 1.972 . S
N1 Cu0 1.999 1_656 S
N1 C3 1.263 . S
N1 C5 1.389 1_556 S
N2 C3 1.358 . S
N2 C4 1.400 . S
C3 N1 1.263 . S
C3 N2 1.358 . S
C3 H9 0.930 . S
C4 N2 1.400 . S
C4 C5 1.351 1_556 S
C4 H21 0.930 . S
C5 N1 1.389 1_554 S
C5 C4 1.351 1_554 S
C5 H10 0.930 . S
O6 Cu0 1.961 1_656 S
O6 C16 1.282 . S
C7 O8 1.261 1_554 S
C7 O20 1.251 . S
O8 C7 1.261 1_556 S
H9 C3 0.930 . S
H10 C5 0.930 . S
N11 Cu0 1.986 . S
N11 C13 1.335 . S
N11 C14 1.390 . S
N12 C13 1.345 . S
N12 C15 1.336 . S
C13 N11 1.335 . S
C13 N12 1.345 . S
C13 H18 0.930 . S
C14 N11 1.390 . S
C14 C15 1.346 . S
C14 H19 0.930 1_554 S
C15 N12 1.336 . S
C15 C14 1.346 . S
C15 H22 0.929 . S
C16 O6 1.282 . S
C16 O17 1.216 1_655 S
O17 C16 1.216 1_455 S
H18 C13 0.930 . S
H19 C14 0.930 1_556 S
O20 Cu0 1.972 . S
O20 C7 1.251 . S
H21 C4 0.930 . S
H22 C15 0.929 . S
Cu23 N24 1.999 . S
Cu23 O29 1.974 . S
Cu23 N34 1.985 1_565 S
Cu23 O43 1.959 1_565 S
N24 Cu23 1.999 . S
N24 C26 1.263 . S
N24 C28 1.389 . S
N25 C26 1.358 . S
N25 C27 1.400 . S
C26 N24 1.263 . S
C26 N25 1.358 . S
C26 H32 0.930 . S
C27 N25 1.400 . S
C27 C28 1.351 . S
C27 H44 0.930 . S
C28 N24 1.389 . S
C28 C27 1.351 . S
C28 H33 0.930 . S
O29 Cu23 1.974 . S
O29 C39 1.282 . S
C30 O31 1.261 . S
C30 O43 1.251 . S
O31 C30 1.261 . S
H32 C26 0.930 . S
H33 C28 0.930 . S
N34 Cu23 1.985 1_545 S
N34 C36 1.335 . S
N34 C37 1.390 . S
N35 C36 1.345 . S
N35 C38 1.336 . S
C36 N34 1.335 . S
C36 N35 1.345 . S
C36 H41 0.930 . S
C37 N34 1.390 . S
C37 C38 1.346 . S
C37 H42 0.930 . S
C38 N35 1.336 . S
C38 C37 1.346 . S
C38 H45 0.929 . S
C39 O29 1.282 . S
C39 O40 1.216 . S
O40 C39 1.216 . S
H41 C36 0.930 . S
H42 C37 0.930 . S
O43 Cu23 1.959 1_545 S
O43 C30 1.251 . S
H44 C27 0.930 . S
H45 C38 0.929 . S
Cu46 N47 1.999 1_554 S
Cu46 O52 1.974 1_554 S
Cu46 N57 1.985 . S
Cu46 O66 1.959 . S
N47 Cu46 1.999 1_556 S
N47 C49 1.263 . S
N47 C51 1.389 . S
N48 C49 1.358 . S
N48 C50 1.400 . S
C49 N47 1.263 . S
C49 N48 1.358 . S
C49 H55 0.930 . S
C50 N48 1.400 . S
C50 C51 1.351 . S
C50 H67 0.930 . S
C51 N47 1.389 . S
C51 C50 1.351 . S
C51 H56 0.930 . S
O52 Cu46 1.974 1_556 S
O52 C62 1.282 . S
C53 O54 1.261 . S
C53 O66 1.251 . S
O54 C53 1.261 . S
H55 C49 0.930 . S
H56 C51 0.930 . S
N57 Cu46 1.985 . S
N57 C59 1.335 . S
N57 C60 1.390 . S
N58 C59 1.345 . S
N58 C61 1.336 . S
C59 N57 1.335 . S
C59 N58 1.345 . S
C59 H64 0.930 . S
C60 N57 1.390 . S
C60 C61 1.346 . S
C60 H65 0.930 . S
C61 N58 1.336 . S
C61 C60 1.346 . S
C61 H68 0.929 . S
C62 O52 1.282 . S
C62 O63 1.216 1_556 S
O63 C62 1.216 1_554 S
H64 C59 0.930 . S
H65 C60 0.930 . S
O66 Cu46 1.959 . S
O66 C53 1.251 . S
H67 C50 0.930 . S
H68 C61 0.929 . S
Cu69 N70 1.999 1_655 S
Cu69 O75 1.974 1_655 S
Cu69 N80 1.985 . S
Cu69 O89 1.959 . S
N70 Cu69 1.999 1_455 S
N70 C72 1.263 . S
N70 C74 1.389 1_455 S
N71 C72 1.358 . S
N71 C73 1.400 . S
C72 N70 1.263 . S
C72 N71 1.358 . S
C72 H78 0.930 . S
C73 N71 1.400 . S
C73 C74 1.351 1_455 S
C73 H90 0.930 . S
C74 N70 1.389 1_655 S
C74 C73 1.351 1_655 S
C74 H79 0.930 . S
O75 Cu69 1.974 1_455 S
O75 C85 1.282 . S
C76 O77 1.261 . S
C76 O89 1.251 . S
O77 C76 1.261 . S
H78 C72 0.930 . S
H79 C74 0.930 . S
N80 Cu69 1.985 . S
N80 C82 1.335 . S
N80 C83 1.390 . S
N81 C82 1.345 . S
N81 C84 1.336 . S
C82 N80 1.335 . S
C82 N81 1.345 . S
C82 H87 0.930 . S
C83 N80 1.390 . S
C83 C84 1.346 . S
C83 H88 0.930 1_655 S
C84 N81 1.336 . S
C84 C83 1.346 . S
C84 H91 0.929 . S
C85 O75 1.282 . S
C85 O86 1.216 . S
O86 C85 1.216 . S
H87 C82 0.930 . S
H88 C83 0.930 1_455 S
O89 Cu69 1.959 . S
O89 C76 1.251 . S
H90 C73 0.930 . S
H91 C84 0.929 . S
Cu92 N93 1.999 . S
Cu92 O98 1.974 1_554 S
Cu92 N103 1.985 1_545 S
Cu92 O112 1.959 1_545 S
N93 Cu92 1.999 . S
N93 C95 1.263 1_554 S
N93 C97 1.389 . S
N94 C95 1.358 . S
N94 C96 1.400 1_556 S
C95 N93 1.263 1_556 S
C95 N94 1.358 . S
C95 H101 0.930 . S
C96 N94 1.400 1_554 S
C96 C97 1.351 . S
C96 H113 0.930 . S
C97 N93 1.389 . S
C97 C96 1.351 . S
C97 H102 0.930 . S
O98 Cu92 1.974 1_556 S
O98 C108 1.282 . S
C99 O100 1.261 . S
C99 O112 1.251 . S
O100 C99 1.261 . S
H101 C95 0.930 . S
H102 C97 0.930 . S
N103 Cu92 1.985 1_565 S
N103 C105 1.335 . S
N103 C106 1.390 . S
N104 C105 1.345 . S
N104 C107 1.336 . S
C105 N103 1.335 . S
C105 N104 1.345 . S
C105 H110 0.930 . S
C106 N103 1.390 . S
C106 C107 1.346 . S
C106 H111 0.923 1_565 S
C107 N104 1.336 . S
C107 C106 1.346 . S
C107 H114 0.929 . S
C108 O98 1.282 . S
C108 O109 1.216 . S
O109 C108 1.216 . S
H110 C105 0.930 . S
H111 C106 0.923 1_545 S
O112 Cu92 1.959 1_565 S
O112 C99 1.251 . S
H113 C96 0.930 . S
H114 C107 0.929 . S
Cu115 N116 1.999 . S
Cu115 O121 1.974 . S
Cu115 N126 1.985 . S
Cu115 O135 1.959 . S
N116 Cu115 1.999 . S
N116 C118 1.263 . S
N116 C120 1.389 . S
N117 C118 1.358 . S
N117 C119 1.400 . S
C118 N116 1.263 . S
C118 N117 1.358 . S
C118 H124 0.930 . S
C119 N117 1.400 . S
C119 C120 1.351 . S
C119 H136 0.930 . S
C120 N116 1.389 . S
C120 C119 1.351 . S
C120 H125 0.930 . S
O121 Cu115 1.974 . S
O121 C131 1.282 . S
C122 O123 1.261 . S
C122 O135 1.251 . S
O123 C122 1.261 . S
H124 C118 0.930 . S
H125 C120 0.930 . S
N126 Cu115 1.985 . S
N126 C128 1.335 . S
N126 C129 1.390 . S
N127 C128 1.345 . S
N127 C130 1.336 . S
C128 N126 1.335 . S
C128 N127 1.345 . S
C128 H133 0.930 . S
C129 N126 1.390 . S
C129 C130 1.346 . S
C129 H134 0.930 . S
C130 N127 1.336 . S
C130 C129 1.346 . S
C130 H137 0.929 . S
C131 O121 1.282 . S
C131 O132 1.216 . S
O132 C131 1.216 . S
H133 C128 0.930 . S
H134 C129 0.930 . S
O135 Cu115 1.959 . S
O135 C122 1.251 . S
H136 C119 0.930 . S
H137 C130 0.929 . S
H138 C157 0.949 . S
H139 C158 0.950 . S
H140 C160 0.950 . S
H141 C161 0.950 . S
H142 C163 0.950 . S
H143 C166 0.950 . S
H144 C167 0.950 . S
H145 C169 0.951 . S
H146 C170 0.949 . S
H147 C172 0.949 . S
H148 C173 0.950 . S
H149 C175 0.950 . S
H150 C176 0.950 . S
H151 C178 0.950 . S
H152 C181 0.950 . S
H153 C182 0.950 . S
H154 C184 0.951 . S
H155 C185 0.949 . S
C156 C157 1.376 . S
C156 C161 1.386 . S
C156 C162 1.483 . S
C157 H138 0.949 . S
C157 C156 1.376 . S
C157 C158 1.397 . S
C158 H139 0.950 . S
C158 C157 1.397 . S
C158 C159 1.391 . S
C159 C158 1.391 . S
C159 C160 1.405 . S
C160 H140 0.950 . S
C160 C159 1.405 . S
C160 C161 1.367 . S
C161 H141 0.950 . S
C161 C156 1.386 . S
C161 C160 1.367 . S
C162 C156 1.483 . S
C162 C163 1.382 . S
C162 C164 1.403 . S
C163 H142 0.950 . S
C163 C162 1.382 . S
C163 C179 1.411 . S
C164 C162 1.403 . S
C164 C165 1.489 . S
C164 C178 1.411 . S
C165 C164 1.489 . S
C165 C166 1.383 . S
C165 C170 1.382 . S
C166 H143 0.950 . S
C166 C165 1.383 . S
C166 C167 1.395 . S
C167 H144 0.950 . S
C167 C166 1.395 . S
C167 C168 1.288 . S
C168 C167 1.288 . S
C168 C169 1.392 . S
C169 H145 0.951 . S
C169 C168 1.392 . S
C169 C170 1.392 . S
C170 H146 0.949 . S
C170 C165 1.382 . S
C170 C169 1.392 . S
C171 C172 1.376 . S
C171 C176 1.386 . S
C171 C177 1.483 . S
C172 H147 0.949 . S
C172 C171 1.376 . S
C172 C173 1.397 . S
C173 H148 0.950 . S
C173 C172 1.397 . S
C173 C174 1.391 . S
C174 C173 1.391 . S
C174 C175 1.405 . S
C175 H149 0.950 . S
C175 C174 1.405 . S
C175 C176 1.367 . S
C176 H150 0.950 . S
C176 C171 1.386 . S
C176 C175 1.367 . S
C177 C171 1.483 . S
C177 C178 1.382 . S
C177 C179 1.403 . S
C178 H151 0.950 . S
C178 C164 1.411 . S
C178 C177 1.382 . S
C179 C163 1.411 . S
C179 C177 1.403 . S
C179 C180 1.489 . S
C180 C179 1.489 . S
C180 C181 1.383 . S
C180 C185 1.382 . S
C181 H152 0.950 . S
C181 C180 1.383 . S
C181 C182 1.395 . S
C182 H153 0.950 . S
C182 C181 1.395 . S
C182 C183 1.288 . S
C183 C182 1.288 . S
C183 C184 1.392 . S
C184 H154 0.951 . S
C184 C183 1.392 . S
C184 C185 1.392 . S
C185 H155 0.949 . S
C185 C180 1.382 . S
C185 C184 1.392 . S
H186 C205 0.949 . S
H187 C206 0.950 . S
H188 C208 0.950 . S
H189 C209 0.950 . S
H190 C211 0.950 . S
H191 C214 0.950 . S
H192 C215 0.950 . S
H193 C217 0.951 . S
H194 C218 0.949 . S
H195 C220 0.949 . S
H196 C221 0.950 . S
H197 C223 0.950 . S
H198 C224 0.950 . S
H199 C226 0.950 . S
H200 C229 0.950 . S
H201 C230 0.950 . S
H202 C232 0.951 . S
H203 C233 0.949 . S
C204 C205 1.376 . S
C204 C209 1.386 . S
C204 C210 1.483 . S
C205 H186 0.949 . S
C205 C204 1.376 . S
C205 C206 1.397 . S
C206 H187 0.950 . S
C206 C205 1.397 . S
C206 C207 1.391 . S
C207 C206 1.391 . S
C207 C208 1.405 . S
C208 H188 0.950 . S
C208 C207 1.405 . S
C208 C209 1.367 . S
C209 H189 0.950 . S
C209 C204 1.386 . S
C209 C208 1.367 . S
C210 C204 1.483 . S
C210 C211 1.382 . S
C210 C212 1.403 . S
C211 H190 0.950 . S
C211 C210 1.382 . S
C211 C227 1.411 . S
C212 C210 1.403 . S
C212 C213 1.489 . S
C212 C226 1.411 . S
C213 C212 1.489 . S
C213 C214 1.383 . S
C213 C218 1.382 . S
C214 H191 0.950 . S
C214 C213 1.383 . S
C214 C215 1.395 . S
C215 H192 0.950 . S
C215 C214 1.395 . S
C215 C216 1.288 . S
C216 C215 1.288 . S
C216 C217 1.392 . S
C217 H193 0.951 . S
C217 C216 1.392 . S
C217 C218 1.392 . S
C218 H194 0.949 . S
C218 C213 1.382 . S
C218 C217 1.392 . S
C219 C220 1.376 . S
C219 C224 1.386 . S
C219 C225 1.483 . S
C220 H195 0.949 . S
C220 C219 1.376 . S
C220 C221 1.397 . S
C221 H196 0.950 . S
C221 C220 1.397 . S
C221 C222 1.391 . S
C222 C221 1.391 . S
C222 C223 1.405 . S
C223 H197 0.950 . S
C223 C222 1.405 . S
C223 C224 1.367 . S
C224 H198 0.950 . S
C224 C219 1.386 . S
C224 C223 1.367 . S
C225 C219 1.483 . S
C225 C226 1.382 . S
C225 C227 1.403 . S
C226 H199 0.950 . S
C226 C212 1.411 . S
C226 C225 1.382 . S
C227 C211 1.411 . S
C227 C225 1.403 . S
C227 C228 1.489 . S
C228 C227 1.489 . S
C228 C229 1.383 . S
C228 C233 1.382 . S
C229 H200 0.950 . S
C229 C228 1.383 . S
C229 C230 1.395 . S
C230 H201 0.950 . S
C230 C229 1.395 . S
C230 C231 1.288 . S
C231 C230 1.288 . S
C231 C232 1.392 . S
C232 H202 0.951 . S
C232 C231 1.392 . S
C232 C233 1.392 . S
C233 H203 0.949 . S
C233 C228 1.382 . S
C233 C232 1.392 . S
H234 C253 0.949 . S
H235 C254 0.950 . S
H236 C256 0.950 . S
H237 C257 0.950 . S
H238 C259 0.950 . S
H239 C262 0.950 . S
H240 C263 0.950 . S
H241 C265 0.951 . S
H242 C266 0.949 . S
H243 C268 0.949 . S
H244 C269 0.950 . S
H245 C271 0.950 . S
H246 C272 0.950 . S
H247 C274 0.950 . S
H248 C277 0.950 . S
H249 C278 0.950 . S
H250 C280 0.951 . S
H251 C281 0.949 . S
C252 C253 1.376 . S
C252 C257 1.386 . S
C252 C258 1.483 . S
C253 H234 0.949 . S
C253 C252 1.376 . S
C253 C254 1.397 . S
C254 H235 0.950 . S
C254 C253 1.397 . S
C254 C255 1.391 . S
C255 C254 1.391 . S
C255 C256 1.405 . S
C256 H236 0.950 . S
C256 C255 1.405 . S
C256 C257 1.367 . S
C257 H237 0.950 . S
C257 C252 1.386 . S
C257 C256 1.367 . S
C258 C252 1.483 . S
C258 C259 1.382 . S
C258 C260 1.403 . S
C259 H238 0.950 . S
C259 C258 1.382 . S
C259 C275 1.411 . S
C260 C258 1.403 . S
C260 C261 1.489 . S
C260 C274 1.411 . S
C261 C260 1.489 . S
C261 C262 1.383 . S
C261 C266 1.382 . S
C262 H239 0.950 . S
C262 C261 1.383 . S
C262 C263 1.395 . S
C263 H240 0.950 . S
C263 C262 1.395 . S
C263 C264 1.288 . S
C264 C263 1.288 . S
C264 C265 1.392 . S
C265 H241 0.951 . S
C265 C264 1.392 . S
C265 C266 1.392 . S
C266 H242 0.949 . S
C266 C261 1.382 . S
C266 C265 1.392 . S
C267 C268 1.376 . S
C267 C272 1.386 . S
C267 C273 1.483 . S
C268 H243 0.949 . S
C268 C267 1.376 . S
C268 C269 1.397 . S
C269 H244 0.950 . S
C269 C268 1.397 . S
C269 C270 1.391 . S
C270 C269 1.391 . S
C270 C271 1.405 . S
C271 H245 0.950 . S
C271 C270 1.405 . S
C271 C272 1.367 . S
C272 H246 0.950 . S
C272 C267 1.386 . S
C272 C271 1.367 . S
C273 C267 1.483 . S
C273 C274 1.382 . S
C273 C275 1.403 . S
C274 H247 0.950 . S
C274 C260 1.411 . S
C274 C273 1.382 . S
C275 C259 1.411 . S
C275 C273 1.403 . S
C275 C276 1.489 . S
C276 C275 1.489 . S
C276 C277 1.383 . S
C276 C281 1.382 . S
C277 H248 0.950 . S
C277 C276 1.383 . S
C277 C278 1.395 . S
C278 H249 0.950 . S
C278 C277 1.395 . S
C278 C279 1.288 . S
C279 C278 1.288 . S
C279 C280 1.392 . S
C280 H250 0.951 . S
C280 C279 1.392 . S
C280 C281 1.392 . S
C281 H251 0.949 . S
C281 C276 1.382 . S
C281 C280 1.392 . S
H282 C301 0.949 . S
H283 C302 0.950 . S
H284 C304 0.950 . S
H285 C305 0.950 . S
H286 C307 0.950 . S
H287 C310 0.950 . S
H288 C311 0.950 . S
H289 C313 0.951 . S
H290 C314 0.949 . S
H291 C316 0.949 . S
H292 C317 0.950 . S
H293 C319 0.950 . S
H294 C320 0.950 . S
H295 C322 0.950 . S
H296 C325 0.950 . S
H297 C326 0.950 . S
H298 C328 0.951 . S
H299 C329 0.949 . S
C300 C301 1.376 . S
C300 C305 1.386 . S
C300 C306 1.483 . S
C301 H282 0.949 . S
C301 C300 1.376 . S
C301 C302 1.397 . S
C302 H283 0.950 . S
C302 C301 1.397 . S
C302 C303 1.391 . S
C303 C302 1.391 . S
C303 C304 1.405 . S
C304 H284 0.950 . S
C304 C303 1.405 . S
C304 C305 1.367 . S
C305 H285 0.950 . S
C305 C300 1.386 . S
C305 C304 1.367 . S
C306 C300 1.483 . S
C306 C307 1.382 . S
C306 C308 1.403 . S
C307 H286 0.950 . S
C307 C306 1.382 . S
C307 C323 1.411 . S
C308 C306 1.403 . S
C308 C309 1.489 . S
C308 C322 1.411 . S
C309 C308 1.489 . S
C309 C310 1.383 . S
C309 C314 1.382 . S
C310 H287 0.950 . S
C310 C309 1.383 . S
C310 C311 1.395 . S
C311 H288 0.950 . S
C311 C310 1.395 . S
C311 C312 1.288 . S
C312 C311 1.288 . S
C312 C313 1.392 . S
C313 H289 0.951 . S
C313 C312 1.392 . S
C313 C314 1.392 . S
C314 H290 0.949 . S
C314 C309 1.382 . S
C314 C313 1.392 . S
C315 C316 1.376 . S
C315 C320 1.386 . S
C315 C321 1.483 . S
C316 H291 0.949 . S
C316 C315 1.376 . S
C316 C317 1.397 . S
C317 H292 0.950 . S
C317 C316 1.397 . S
C317 C318 1.391 . S
C318 C317 1.391 . S
C318 C319 1.405 . S
C319 H293 0.950 . S
C319 C318 1.405 . S
C319 C320 1.367 . S
C320 H294 0.950 . S
C320 C315 1.386 . S
C320 C319 1.367 . S
C321 C315 1.483 . S
C321 C322 1.382 . S
C321 C323 1.403 . S
C322 H295 0.950 . S
C322 C308 1.411 . S
C322 C321 1.382 . S
C323 C307 1.411 . S
C323 C321 1.403 . S
C323 C324 1.489 . S
C324 C323 1.489 . S
C324 C325 1.383 . S
C324 C329 1.382 . S
C325 H296 0.950 . S
C325 C324 1.383 . S
C325 C326 1.395 . S
C326 H297 0.950 . S
C326 C325 1.395 . S
C326 C327 1.288 . S
C327 C326 1.288 . S
C327 C328 1.392 . S
C328 H298 0.951 . S
C328 C327 1.392 . S
C328 C329 1.392 . S
C329 H299 0.949 . S
C329 C324 1.382 . S
C329 C328 1.392 . S
H330 C349 0.949 . S
H331 C350 0.950 . S
H332 C352 0.950 . S
H333 C353 0.950 . S
H334 C355 0.950 . S
H335 C358 0.950 . S
H336 C359 0.950 . S
H337 C361 0.951 . S
H338 C362 0.949 . S
H339 C364 0.949 . S
H340 C365 0.950 . S
H341 C367 0.950 . S
H342 C368 0.950 . S
H343 C370 0.950 . S
H344 C373 0.950 . S
H345 C374 0.950 . S
H346 C376 0.951 . S
H347 C377 0.949 . S
C348 C349 1.376 . S
C348 C353 1.386 . S
C348 C354 1.483 . S
C349 H330 0.949 . S
C349 C348 1.376 . S
C349 C350 1.397 . S
C350 H331 0.950 . S
C350 C349 1.397 . S
C350 C351 1.391 . S
C351 C350 1.391 . S
C351 C352 1.405 . S
C352 H332 0.950 . S
C352 C351 1.405 . S
C352 C353 1.367 . S
C353 H333 0.950 . S
C353 C348 1.386 . S
C353 C352 1.367 . S
C354 C348 1.483 . S
C354 C355 1.382 . S
C354 C356 1.403 . S
C355 H334 0.950 . S
C355 C354 1.382 . S
C355 C371 1.411 . S
C356 C354 1.403 . S
C356 C357 1.489 . S
C356 C370 1.411 . S
C357 C356 1.489 . S
C357 C358 1.383 . S
C357 C362 1.382 . S
C358 H335 0.950 . S
C358 C357 1.383 . S
C358 C359 1.395 . S
C359 H336 0.950 . S
C359 C358 1.395 . S
C359 C360 1.288 . S
C360 C359 1.288 . S
C360 C361 1.392 . S
C361 H337 0.951 . S
C361 C360 1.392 . S
C361 C362 1.392 . S
C362 H338 0.949 . S
C362 C357 1.382 . S
C362 C361 1.392 . S
C363 C364 1.376 . S
C363 C368 1.386 . S
C363 C369 1.483 . S
C364 H339 0.949 . S
C364 C363 1.376 . S
C364 C365 1.397 . S
C365 H340 0.950 . S
C365 C364 1.397 . S
C365 C366 1.391 . S
C366 C365 1.391 . S
C366 C367 1.405 . S
C367 H341 0.950 . S
C367 C366 1.405 . S
C367 C368 1.367 . S
C368 H342 0.950 . S
C368 C363 1.386 . S
C368 C367 1.367 . S
C369 C363 1.483 . S
C369 C370 1.382 . S
C369 C371 1.403 . S
C370 H343 0.950 . S
C370 C356 1.411 . S
C370 C369 1.382 . S
C371 C355 1.411 . S
C371 C369 1.403 . S
C371 C372 1.489 . S
C372 C371 1.489 . S
C372 C373 1.383 . S
C372 C377 1.382 . S
C373 H344 0.950 . S
C373 C372 1.383 . S
C373 C374 1.395 . S
C374 H345 0.950 . S
C374 C373 1.395 . S
C374 C375 1.288 . S
C375 C374 1.288 . S
C375 C376 1.392 . S
C376 H346 0.951 . S
C376 C375 1.392 . S
C376 C377 1.392 . S
C377 H347 0.949 . S
C377 C372 1.382 . S
C377 C376 1.392 . S
H378 C397 0.949 . S
H379 C398 0.950 . S
H380 C400 0.950 . S
H381 C401 0.950 . S
H382 C403 0.950 . S
H383 C406 0.950 . S
H384 C407 0.950 . S
H385 C409 0.951 . S
H386 C410 0.949 . S
H387 C412 0.949 . S
H388 C413 0.950 . S
H389 C415 0.950 . S
H390 C416 0.950 . S
H391 C418 0.950 . S
H392 C421 0.950 . S
H393 C422 0.950 . S
H394 C424 0.951 . S
H395 C425 0.949 . S
C396 C397 1.376 . S
C396 C401 1.386 . S
C396 C402 1.483 . S
C397 H378 0.949 . S
C397 C396 1.376 . S
C397 C398 1.397 . S
C398 H379 0.950 . S
C398 C397 1.397 . S
C398 C399 1.391 . S
C399 C398 1.391 . S
C399 C400 1.405 . S
C400 H380 0.950 . S
C400 C399 1.405 . S
C400 C401 1.367 . S
C401 H381 0.950 . S
C401 C396 1.386 . S
C401 C400 1.367 . S
C402 C396 1.483 . S
C402 C403 1.382 . S
C402 C404 1.403 . S
C403 H382 0.950 . S
C403 C402 1.382 . S
C403 C419 1.411 . S
C404 C402 1.403 . S
C404 C405 1.489 . S
C404 C418 1.411 . S
C405 C404 1.489 . S
C405 C406 1.383 . S
C405 C410 1.382 . S
C406 H383 0.950 . S
C406 C405 1.383 . S
C406 C407 1.395 . S
C407 H384 0.950 . S
C407 C406 1.395 . S
C407 C408 1.288 . S
C408 C407 1.288 . S
C408 C409 1.392 . S
C409 H385 0.951 . S
C409 C408 1.392 . S
C409 C410 1.392 . S
C410 H386 0.949 . S
C410 C405 1.382 . S
C410 C409 1.392 . S
C411 C412 1.376 . S
C411 C416 1.386 . S
C411 C417 1.483 . S
C412 H387 0.949 . S
C412 C411 1.376 . S
C412 C413 1.397 . S
C413 H388 0.950 . S
C413 C412 1.397 . S
C413 C414 1.391 . S
C414 C413 1.391 . S
C414 C415 1.405 . S
C415 H389 0.950 . S
C415 C414 1.405 . S
C415 C416 1.367 . S
C416 H390 0.950 . S
C416 C411 1.386 . S
C416 C415 1.367 . S
C417 C411 1.483 . S
C417 C418 1.382 . S
C417 C419 1.403 . S
C418 H391 0.950 . S
C418 C404 1.411 . S
C418 C417 1.382 . S
C419 C403 1.411 . S
C419 C417 1.403 . S
C419 C420 1.489 . S
C420 C419 1.489 . S
C420 C421 1.383 . S
C420 C425 1.382 . S
C421 H392 0.950 . S
C421 C420 1.383 . S
C421 C422 1.395 . S
C422 H393 0.950 . S
C422 C421 1.395 . S
C422 C423 1.288 . S
C423 C422 1.288 . S
C423 C424 1.392 . S
C424 H394 0.951 . S
C424 C423 1.392 . S
C424 C425 1.392 . S
C425 H395 0.949 . S
C425 C420 1.382 . S
C425 C424 1.392 . S
C426 C427 1.363 . S
C426 C432 1.379 . S
C426 N434 1.356 . S
C427 C426 1.363 . S
C427 C433 1.363 . S
C428 C429 1.363 . S
C428 C433 1.379 . S
C428 N435 1.356 . S
C429 C428 1.363 . S
C429 C432 1.363 . S
N430 C432 1.356 . S
N430 H442 0.984 . S
N430 H443 0.985 . S
N431 C433 1.356 . S
N431 H436 0.984 . S
N431 H437 0.985 . S
C432 C426 1.379 . S
C432 C429 1.363 . S
C432 N430 1.356 . S
C433 C427 1.363 . S
C433 C428 1.379 . S
C433 N431 1.356 . S
N434 C426 1.356 . S
N434 H440 0.984 . S
N434 H441 0.984 . S
N435 C428 1.356 . S
N435 H438 0.984 . S
N435 H439 0.985 . S
H436 N431 0.984 . S
H437 N431 0.985 . S
H438 N435 0.984 . S
H439 N435 0.985 . S
H440 N434 0.984 . S
H441 N434 0.984 . S
H442 N430 0.984 . S
H443 N430 0.985 . S
C444 C445 1.363 . S
C444 C450 1.379 . S
C444 N452 1.356 . S
C445 C444 1.363 . S
C445 C451 1.363 . S
C446 C447 1.363 . S
C446 C451 1.379 . S
C446 N453 1.356 . S
C447 C446 1.363 . S
C447 C450 1.363 . S
N448 C450 1.356 . S
N448 H460 0.984 . S
N448 H461 0.985 . S
N449 C451 1.356 . S
N449 H454 0.984 . S
N449 H455 0.985 . S
C450 C444 1.379 . S
C450 C447 1.363 . S
C450 N448 1.356 . S
C451 C445 1.363 . S
C451 C446 1.379 . S
C451 N449 1.356 . S
N452 C444 1.356 . S
N452 H458 0.984 . S
N452 H459 0.984 . S
N453 C446 1.356 . S
N453 H456 0.984 . S
N453 H457 0.985 . S
H454 N449 0.984 . S
H455 N449 0.985 . S
H456 N453 0.984 . S
H457 N453 0.985 . S
H458 N452 0.984 . S
H459 N452 0.984 . S
H460 N448 0.984 . S
H461 N448 0.985 . S
C462 C463 1.363 . S
C462 C468 1.379 . S
C462 N470 1.356 . S
C463 C462 1.363 . S
C463 C469 1.363 . S
C464 C465 1.363 . S
C464 C469 1.379 . S
C464 N471 1.356 . S
C465 C464 1.363 . S
C465 C468 1.363 . S
N466 C468 1.356 . S
N466 H478 0.984 . S
N466 H479 0.985 . S
N467 C469 1.356 . S
N467 H472 0.984 . S
N467 H473 0.985 . S
C468 C462 1.379 . S
C468 C465 1.363 . S
C468 N466 1.356 . S
C469 C463 1.363 . S
C469 C464 1.379 . S
C469 N467 1.356 . S
N470 C462 1.356 . S
N470 H476 0.984 . S
N470 H477 0.984 . S
N471 C464 1.356 . S
N471 H474 0.984 . S
N471 H475 0.985 . S
H472 N467 0.984 . S
H473 N467 0.985 . S
H474 N471 0.984 . S
H475 N471 0.985 . S
H476 N470 0.984 . S
H477 N470 0.984 . S
H478 N466 0.984 . S
H479 N466 0.985 . S
C480 C481 1.363 . S
C480 C486 1.379 . S
C480 N488 1.356 . S
C481 C480 1.363 . S
C481 C487 1.363 . S
C482 C483 1.363 . S
C482 C487 1.379 . S
C482 N489 1.356 . S
C483 C482 1.363 . S
C483 C486 1.363 . S
N484 C486 1.356 . S
N484 H496 0.984 . S
N484 H497 0.985 . S
N485 C487 1.356 . S
N485 H490 0.984 . S
N485 H491 0.985 . S
C486 C480 1.379 . S
C486 C483 1.363 . S
C486 N484 1.356 . S
C487 C481 1.363 . S
C487 C482 1.379 . S
C487 N485 1.356 . S
N488 C480 1.356 . S
N488 H494 0.984 . S
N488 H495 0.984 . S
N489 C482 1.356 . S
N489 H492 0.984 . S
N489 H493 0.985 . S
H490 N485 0.984 . S
H491 N485 0.985 . S
H492 N489 0.984 . S
H493 N489 0.985 . S
H494 N488 0.984 . S
H495 N488 0.984 . S
H496 N484 0.984 . S
H497 N484 0.985 . S
C498 C499 1.363 . S
C498 C504 1.379 . S
C498 N506 1.356 . S
C499 C498 1.363 . S
C499 C505 1.363 . S
C500 C501 1.363 . S
C500 C505 1.379 . S
C500 N507 1.356 . S
C501 C500 1.363 . S
C501 C504 1.363 . S
N502 C504 1.356 . S
N502 H514 0.984 . S
N502 H515 0.985 . S
N503 C505 1.356 . S
N503 H508 0.984 . S
N503 H509 0.985 . S
C504 C498 1.379 . S
C504 C501 1.363 . S
C504 N502 1.356 . S
C505 C499 1.363 . S
C505 C500 1.379 . S
C505 N503 1.356 . S
N506 C498 1.356 . S
N506 H512 0.984 . S
N506 H513 0.984 . S
N507 C500 1.356 . S
N507 H510 0.984 . S
N507 H511 0.985 . S
H508 N503 0.984 . S
H509 N503 0.985 . S
H510 N507 0.984 . S
H511 N507 0.985 . S
H512 N506 0.984 . S
H513 N506 0.984 . S
H514 N502 0.984 . S
H515 N502 0.985 . S
C516 C517 1.363 . S
C516 C522 1.379 . S
C516 N524 1.356 . S
C517 C516 1.363 . S
C517 C523 1.363 . S
C518 C519 1.363 . S
C518 C523 1.379 . S
C518 N525 1.356 . S
C519 C518 1.363 . S
C519 C522 1.363 . S
N520 C522 1.356 . S
N520 H532 0.984 . S
N520 H533 0.985 . S
N521 C523 1.356 . S
N521 H526 0.984 . S
N521 H527 0.985 . S
C522 C516 1.379 . S
C522 C519 1.363 . S
C522 N520 1.356 . S
C523 C517 1.363 . S
C523 C518 1.379 . S
C523 N521 1.356 . S
N524 C516 1.356 . S
N524 H530 0.984 . S
N524 H531 0.984 . S
N525 C518 1.356 . S
N525 H528 0.984 . S
N525 H529 0.985 . S
H526 N521 0.984 . S
H527 N521 0.985 . S
H528 N525 0.984 . S
H529 N525 0.985 . S
H530 N524 0.984 . S
H531 N524 0.984 . S
H532 N520 0.984 . S
H533 N520 0.985 . S
C534 C535 1.363 . S
C534 C540 1.379 . S
C534 N542 1.356 . S
C535 C534 1.363 . S
C535 C541 1.363 . S
C536 C537 1.363 . S
C536 C541 1.379 . S
C536 N543 1.356 . S
C537 C536 1.363 . S
C537 C540 1.363 . S
N538 C540 1.356 . S
N538 H550 0.984 . S
N538 H551 0.985 . S
N539 C541 1.356 . S
N539 H544 0.984 . S
N539 H545 0.985 . S
C540 C534 1.379 . S
C540 C537 1.363 . S
C540 N538 1.356 . S
C541 C535 1.363 . S
C541 C536 1.379 . S
C541 N539 1.356 . S
N542 C534 1.356 . S
N542 H548 0.984 . S
N542 H549 0.984 . S
N543 C536 1.356 . S
N543 H546 0.984 . S
N543 H547 0.985 . S
H544 N539 0.984 . S
H545 N539 0.985 . S
H546 N543 0.984 . S
H547 N543 0.985 . S
H548 N542 0.984 . S
H549 N542 0.984 . S
H550 N538 0.984 . S
H551 N538 0.985 . S
C552 C553 1.363 . S
C552 C558 1.379 . S
C552 N560 1.356 . S
C553 C552 1.363 . S
C553 C559 1.363 . S
C554 C555 1.363 . S
C554 C559 1.379 . S
C554 N561 1.356 . S
C555 C554 1.363 . S
C555 C558 1.363 . S
N556 C558 1.356 . S
N556 H568 0.984 . S
N556 H569 0.985 . S
N557 C559 1.356 . S
N557 H562 0.984 . S
N557 H563 0.985 . S
C558 C552 1.379 . S
C558 C555 1.363 . S
C558 N556 1.356 . S
C559 C553 1.363 . S
C559 C554 1.379 . S
C559 N557 1.356 . S
N560 C552 1.356 . S
N560 H566 0.984 . S
N560 H567 0.984 . S
N561 C554 1.356 . S
N561 H564 0.984 . S
N561 H565 0.985 . S
H562 N557 0.984 . S
H563 N557 0.985 . S
H564 N561 0.984 . S
H565 N561 0.985 . S
H566 N560 0.984 . S
H567 N560 0.984 . S
H568 N556 0.984 . S
H569 N556 0.985 . S
C570 C571 1.363 . S
C570 C576 1.379 . S
C570 N578 1.356 . S
C571 C570 1.363 . S
C571 C577 1.363 . S
C572 C573 1.363 . S
C572 C577 1.379 . S
C572 N579 1.356 . S
C573 C572 1.363 . S
C573 C576 1.363 . S
N574 C576 1.356 . S
N574 H586 0.984 . S
N574 H587 0.985 . S
N575 C577 1.356 . S
N575 H580 0.984 . S
N575 H581 0.985 . S
C576 C570 1.379 . S
C576 C573 1.363 . S
C576 N574 1.356 . S
C577 C571 1.363 . S
C577 C572 1.379 . S
C577 N575 1.356 . S
N578 C570 1.356 . S
N578 H584 0.984 . S
N578 H585 0.984 . S
N579 C572 1.356 . S
N579 H582 0.984 . S
N579 H583 0.985 . S
H580 N575 0.984 . S
H581 N575 0.985 . S
H582 N579 0.984 . S
H583 N579 0.985 . S
H584 N578 0.984 . S
H585 N578 0.984 . S
H586 N574 0.984 . S
H587 N574 0.985 . S
C588 C589 1.363 . S
C588 C594 1.379 . S
C588 N596 1.356 . S
C589 C588 1.363 . S
C589 C595 1.363 . S
C590 C591 1.363 . S
C590 C595 1.379 . S
C590 N597 1.356 . S
C591 C590 1.363 . S
C591 C594 1.363 . S
N592 C594 1.356 . S
N592 H604 0.984 . S
N592 H605 0.985 . S
N593 C595 1.356 . S
N593 H598 0.984 1_556 S
N593 H599 0.985 1_556 S
C594 C588 1.379 . S
C594 C591 1.363 . S
C594 N592 1.356 . S
C595 C589 1.363 . S
C595 C590 1.379 . S
C595 N593 1.356 . S
N596 C588 1.356 . S
N596 H602 0.984 . S
N596 H603 0.984 . S
N597 C590 1.356 . S
N597 H600 0.984 . S
N597 H601 0.985 . S
H598 N593 0.984 1_554 S
H599 N593 0.985 1_554 S
H600 N597 0.984 . S
H601 N597 0.985 . S
H602 N596 0.984 . S
H603 N596 0.984 . S
H604 N592 0.984 . S
H605 N592 0.985 . S
C606 C607 1.363 . S
C606 C612 1.379 . S
C606 N614 1.356 . S
C607 C606 1.363 . S
C607 C613 1.363 . S
C608 C609 1.363 . S
C608 C613 1.379 . S
C608 N615 1.356 . S
C609 C608 1.363 . S
C609 C612 1.363 . S
N610 C612 1.356 . S
N610 H622 0.984 . S
N610 H623 0.985 . S
N611 C613 1.356 . S
N611 H616 0.984 . S
N611 H617 0.985 . S
C612 C606 1.379 . S
C612 C609 1.363 . S
C612 N610 1.356 . S
C613 C607 1.363 . S
C613 C608 1.379 . S
C613 N611 1.356 . S
N614 C606 1.356 . S
N614 H620 0.984 . S
N614 H621 0.984 . S
N615 C608 1.356 . S
N615 H618 0.984 . S
N615 H619 0.985 . S
H616 N611 0.984 . S
H617 N611 0.985 . S
H618 N615 0.984 . S
H619 N615 0.985 . S
H620 N614 0.984 . S
H621 N614 0.984 . S
H622 N610 0.984 . S
H623 N610 0.985 . S
C624 C625 1.363 . S
C624 C630 1.379 . S
C624 N632 1.356 . S
C625 C624 1.363 . S
C625 C631 1.363 . S
C626 C627 1.363 . S
C626 C631 1.379 . S
C626 N633 1.356 . S
C627 C626 1.363 . S
C627 C630 1.363 . S
N628 C630 1.356 . S
N628 H640 0.984 . S
N628 H641 0.985 . S
N629 C631 1.356 . S
N629 H634 0.984 . S
N629 H635 0.985 . S
C630 C624 1.379 . S
C630 C627 1.363 . S
C630 N628 1.356 . S
C631 C625 1.363 . S
C631 C626 1.379 . S
C631 N629 1.356 . S
N632 C624 1.356 . S
N632 H638 0.984 . S
N632 H639 0.984 . S
N633 C626 1.356 . S
N633 H636 0.984 . S
N633 H637 0.985 . S
H634 N629 0.984 . S
H635 N629 0.985 . S
H636 N633 0.984 . S
H637 N633 0.985 . S
H638 N632 0.984 . S
H639 N632 0.984 . S
H640 N628 0.984 . S
H641 N628 0.985 . S
C642 C643 1.363 . S
C642 C648 1.379 . S
C642 N650 1.356 . S
C643 C642 1.363 . S
C643 C649 1.363 . S
C644 C645 1.363 . S
C644 C649 1.379 . S
C644 N651 1.356 . S
C645 C644 1.363 . S
C645 C648 1.363 . S
N646 C648 1.356 . S
N646 H658 0.984 . S
N646 H659 0.985 . S
N647 C649 1.356 . S
N647 H652 0.984 . S
N647 H653 0.985 . S
C648 C642 1.379 . S
C648 C645 1.363 . S
C648 N646 1.356 . S
C649 C643 1.363 . S
C649 C644 1.379 . S
C649 N647 1.356 . S
N650 C642 1.356 . S
N650 H656 0.984 . S
N650 H657 0.984 . S
N651 C644 1.356 . S
N651 H654 0.984 . S
N651 H655 0.985 . S
H652 N647 0.984 . S
H653 N647 0.985 . S
H654 N651 0.984 . S
H655 N651 0.985 . S
H656 N650 0.984 . S
H657 N650 0.984 . S
H658 N646 0.984 . S
H659 N646 0.985 . S
C660 C661 1.363 . S
C660 C666 1.379 . S
C660 N668 1.356 . S
C661 C660 1.363 . S
C661 C667 1.363 . S
C662 C663 1.363 . S
C662 C667 1.379 . S
C662 N669 1.356 . S
C663 C662 1.363 . S
C663 C666 1.363 . S
N664 C666 1.356 . S
N664 H676 0.984 . S
N664 H677 0.985 . S
N665 C667 1.356 . S
N665 H670 0.984 . S
N665 H671 0.985 . S
C666 C660 1.379 . S
C666 C663 1.363 . S
C666 N664 1.356 . S
C667 C661 1.363 . S
C667 C662 1.379 . S
C667 N665 1.356 . S
N668 C660 1.356 . S
N668 H674 0.984 1_565 S
N668 H675 0.984 . S
N669 C662 1.356 . S
N669 H672 0.984 . S
N669 H673 0.985 . S
H670 N665 0.984 . S
H671 N665 0.985 . S
H672 N669 0.984 . S
H673 N669 0.985 . S
H674 N668 0.984 1_545 S
H675 N668 0.984 . S
H676 N664 0.984 . S
H677 N664 0.985 . S
C678 C679 1.363 . S
C678 C684 1.379 . S
C678 N686 1.356 . S
C679 C678 1.363 . S
C679 C685 1.363 . S
C680 C681 1.363 . S
C680 C685 1.379 . S
C680 N687 1.356 . S
C681 C680 1.363 . S
C681 C684 1.363 . S
N682 C684 1.356 . S
N682 H694 0.984 . S
N682 H695 0.985 . S
N683 C685 1.356 . S
N683 H688 0.984 . S
N683 H689 0.985 . S
C684 C678 1.379 . S
C684 C681 1.363 . S
C684 N682 1.356 . S
C685 C679 1.363 . S
C685 C680 1.379 . S
C685 N683 1.356 . S
N686 C678 1.356 . S
N686 H692 0.984 . S
N686 H693 0.984 . S
N687 C680 1.356 . S
N687 H690 0.984 . S
N687 H691 0.985 . S
H688 N683 0.984 . S
H689 N683 0.985 . S
H690 N687 0.984 . S
H691 N687 0.985 . S
H692 N686 0.984 . S
H693 N686 0.984 . S
H694 N682 0.984 . S
H695 N682 0.985 . S
C696 C697 1.363 . S
C696 C702 1.379 . S
C696 N704 1.356 . S
C697 C696 1.363 . S
C697 C703 1.363 . S
C698 C699 1.363 . S
C698 C703 1.379 . S
C698 N705 1.356 . S
C699 C698 1.363 . S
C699 C702 1.363 . S
N700 C702 1.356 . S
N700 H712 0.984 . S
N700 H713 0.985 . S
N701 C703 1.356 . S
N701 H706 0.984 . S
N701 H707 0.985 . S
C702 C696 1.379 . S
C702 C699 1.363 . S
C702 N700 1.356 . S
C703 C697 1.363 . S
C703 C698 1.379 . S
C703 N701 1.356 . S
N704 C696 1.356 . S
N704 H710 0.984 . S
N704 H711 0.984 . S
N705 C698 1.356 . S
N705 H708 0.984 . S
N705 H709 0.985 . S
H706 N701 0.984 . S
H707 N701 0.985 . S
H708 N705 0.984 . S
H709 N705 0.985 . S
H710 N704 0.984 . S
H711 N704 0.984 . S
H712 N700 0.984 . S
H713 N700 0.985 . S
C714 C715 1.363 . S
C714 C720 1.379 . S
C714 N722 1.356 . S
C715 C714 1.363 . S
C715 C721 1.363 . S
C716 C717 1.363 . S
C716 C721 1.379 . S
C716 N723 1.356 . S
C717 C716 1.363 . S
C717 C720 1.363 . S
N718 C720 1.356 . S
N718 H730 0.984 . S
N718 H731 0.985 . S
N719 C721 1.356 . S
N719 H724 0.984 . S
N719 H725 0.985 . S
C720 C714 1.379 . S
C720 C717 1.363 . S
C720 N718 1.356 . S
C721 C715 1.363 . S
C721 C716 1.379 . S
C721 N719 1.356 . S
N722 C714 1.356 . S
N722 H728 0.984 . S
N722 H729 0.984 . S
N723 C716 1.356 . S
N723 H726 0.984 . S
N723 H727 0.985 . S
H724 N719 0.984 . S
H725 N719 0.985 . S
H726 N723 0.984 . S
H727 N723 0.985 . S
H728 N722 0.984 . S
H729 N722 0.984 . S
H730 N718 0.984 . S
H731 N718 0.985 . S
C732 C733 1.363 . S
C732 C738 1.379 . S
C732 N740 1.356 . S
C733 C732 1.363 . S
C733 C739 1.363 . S
C734 C735 1.363 . S
C734 C739 1.379 . S
C734 N741 1.356 . S
C735 C734 1.363 . S
C735 C738 1.363 . S
N736 C738 1.356 . S
N736 H748 0.984 . S
N736 H749 0.985 . S
N737 C739 1.356 . S
N737 H742 0.984 . S
N737 H743 0.985 . S
C738 C732 1.379 . S
C738 C735 1.363 . S
C738 N736 1.356 . S
C739 C733 1.363 . S
C739 C734 1.379 . S
C739 N737 1.356 . S
N740 C732 1.356 . S
N740 H746 0.984 . S
N740 H747 0.984 . S
N741 C734 1.356 . S
N741 H744 0.984 . S
N741 H745 0.985 . S
H742 N737 0.984 . S
H743 N737 0.985 . S
H744 N741 0.984 . S
H745 N741 0.985 . S
H746 N740 0.984 . S
H747 N740 0.984 . S
H748 N736 0.984 . S
H749 N736 0.985 . S
C750 C751 1.363 . S
C750 C756 1.379 . S
C750 N758 1.356 . S
C751 C750 1.363 . S
C751 C757 1.363 . S
C752 C753 1.363 . S
C752 C757 1.379 . S
C752 N759 1.356 . S
C753 C752 1.363 . S
C753 C756 1.363 . S
N754 C756 1.356 . S
N754 H766 0.984 . S
N754 H767 0.985 . S
N755 C757 1.356 . S
N755 H760 0.984 . S
N755 H761 0.985 . S
C756 C750 1.379 . S
C756 C753 1.363 . S
C756 N754 1.356 . S
C757 C751 1.363 . S
C757 C752 1.379 . S
C757 N755 1.356 . S
N758 C750 1.356 . S
N758 H764 0.984 . S
N758 H765 0.984 . S
N759 C752 1.356 . S
N759 H762 0.984 . S
N759 H763 0.985 . S
H760 N755 0.984 . S
H761 N755 0.985 . S
H762 N759 0.984 . S
H763 N759 0.985 . S
H764 N758 0.984 . S
H765 N758 0.984 . S
H766 N754 0.984 . S
H767 N754 0.985 . S
C768 C769 1.363 . S
C768 C774 1.379 . S
C768 N776 1.356 . S
C769 C768 1.363 . S
C769 C775 1.363 . S
C770 C771 1.363 . S
C770 C775 1.379 . S
C770 N777 1.356 . S
C771 C770 1.363 . S
C771 C774 1.363 . S
N772 C774 1.356 . S
N772 H784 0.984 . S
N772 H785 0.985 . S
N773 C775 1.356 . S
N773 H778 0.984 . S
N773 H779 0.985 . S
C774 C768 1.379 . S
C774 C771 1.363 . S
C774 N772 1.356 . S
C775 C769 1.363 . S
C775 C770 1.379 . S
C775 N773 1.356 . S
N776 C768 1.356 . S
N776 H782 0.984 . S
N776 H783 0.984 . S
N777 C770 1.356 . S
N777 H780 0.984 . S
N777 H781 0.985 . S
H778 N773 0.984 . S
H779 N773 0.985 . S
H780 N777 0.984 . S
H781 N777 0.985 . S
H782 N776 0.984 . S
H783 N776 0.984 . S
H784 N772 0.984 . S
H785 N772 0.985 . S
C786 C787 1.363 . S
C786 C792 1.379 . S
C786 N794 1.356 . S
C787 C786 1.363 . S
C787 C793 1.363 . S
C788 C789 1.363 . S
C788 C793 1.379 . S
C788 N795 1.356 . S
C789 C788 1.363 . S
C789 C792 1.363 . S
N790 C792 1.356 . S
N790 H802 0.984 . S
N790 H803 0.985 . S
N791 C793 1.356 . S
N791 H796 0.984 . S
N791 H797 0.985 . S
C792 C786 1.379 . S
C792 C789 1.363 . S
C792 N790 1.356 . S
C793 C787 1.363 . S
C793 C788 1.379 . S
C793 N791 1.356 . S
N794 C786 1.356 . S
N794 H800 0.984 . S
N794 H801 0.984 . S
N795 C788 1.356 . S
N795 H798 0.984 . S
N795 H799 0.985 . S
H796 N791 0.984 . S
H797 N791 0.985 . S
H798 N795 0.984 . S
H799 N795 0.985 . S
H800 N794 0.984 . S
H801 N794 0.984 . S
H802 N790 0.984 . S
H803 N790 0.985 . S
C804 C805 1.363 . S
C804 C810 1.379 . S
C804 N812 1.356 . S
C805 C804 1.363 . S
C805 C811 1.363 . S
C806 C807 1.363 . S
C806 C811 1.379 . S
C806 N813 1.356 . S
C807 C806 1.363 . S
C807 C810 1.363 . S
N808 C810 1.356 . S
N808 H820 0.984 . S
N808 H821 0.985 . S
N809 C811 1.356 . S
N809 H814 0.984 . S
N809 H815 0.985 . S
C810 C804 1.379 . S
C810 C807 1.363 . S
C810 N808 1.356 . S
C811 C805 1.363 . S
C811 C806 1.379 . S
C811 N809 1.356 . S
N812 C804 1.356 . S
N812 H818 0.984 . S
N812 H819 0.984 . S
N813 C806 1.356 . S
N813 H816 0.984 . S
N813 H817 0.985 . S
H814 N809 0.984 . S
H815 N809 0.985 . S
H816 N813 0.984 . S
H817 N813 0.985 . S
H818 N812 0.984 . S
H819 N812 0.984 . S
H820 N808 0.984 . S
H821 N808 0.985 . S
C822 C823 1.363 . S
C822 C828 1.379 . S
C822 N830 1.356 . S
C823 C822 1.363 . S
C823 C829 1.363 . S
C824 C825 1.363 . S
C824 C829 1.379 . S
C824 N831 1.356 . S
C825 C824 1.363 . S
C825 C828 1.363 . S
N826 C828 1.356 . S
N826 H838 0.984 . S
N826 H839 0.985 . S
N827 C829 1.356 . S
N827 H832 0.984 . S
N827 H833 0.985 . S
C828 C822 1.379 . S
C828 C825 1.363 . S
C828 N826 1.356 . S
C829 C823 1.363 . S
C829 C824 1.379 . S
C829 N827 1.356 . S
N830 C822 1.356 . S
N830 H836 0.984 . S
N830 H837 0.984 . S
N831 C824 1.356 . S
N831 H834 0.984 . S
N831 H835 0.985 . S
H832 N827 0.984 . S
H833 N827 0.985 . S
H834 N831 0.984 . S
H835 N831 0.985 . S
H836 N830 0.984 . S
H837 N830 0.984 . S
H838 N826 0.984 . S
H839 N826 0.985 . S
C840 C841 1.363 . S
C840 C846 1.379 . S
C840 N848 1.356 . S
C841 C840 1.363 . S
C841 C847 1.363 . S
C842 C843 1.363 . S
C842 C847 1.379 . S
C842 N849 1.356 . S
C843 C842 1.363 . S
C843 C846 1.363 . S
N844 C846 1.356 . S
N844 H856 0.984 . S
N844 H857 0.985 . S
N845 C847 1.356 . S
N845 H850 0.984 . S
N845 H851 0.985 . S
C846 C840 1.379 . S
C846 C843 1.363 . S
C846 N844 1.356 . S
C847 C841 1.363 . S
C847 C842 1.379 . S
C847 N845 1.356 . S
N848 C840 1.356 . S
N848 H854 0.984 . S
N848 H855 0.984 . S
N849 C842 1.356 . S
N849 H852 0.984 . S
N849 H853 0.985 . S
H850 N845 0.984 . S
H851 N845 0.985 . S
H852 N849 0.984 . S
H853 N849 0.985 . S
H854 N848 0.984 . S
H855 N848 0.984 . S
H856 N844 0.984 . S
H857 N844 0.985 . S
C427 C7 1.889 . S
C429 C159 1.873 . S
C445 C30 1.648 . S
C447 C216 1.648 . S
C465 C270 1.747 . S
C463 N58 1.719 . S
C483 C327 1.469 . S
C481 N81 1.452 . S
C501 C351 1.779 . S
C499 C99 1.791 . S
C519 C408 1.595 . S
C517 N127 1.520 . S
C535 N25 1.748 . S
C537 C255 1.771 . S
C553 C62 1.650 . S
C555 C312 1.647 . S
C573 C366 1.794 . S
C571 C85 1.830 . S
C591 C423 1.523 . S
C589 N94 1.566 . S
C607 C131 1.843 . S
C609 C174 1.796 . S
C627 C231 1.463 . S
C625 N2 1.483 . S
C645 C318 1.816 . S
C643 C16 1.830 . S
C661 C39 1.600 . S
C663 C360 1.552 . S
C681 C399 1.725 . S
C679 N48 1.716 . S
C697 N71 1.443 . S
C699 C168 1.449 . S
C715 C108 1.771 . S
C717 C207 1.750 . S
C733 N117 1.514 . S
C735 C279 1.582 . S
C751 N35 1.708 . S
C753 C414 1.755 . S
C771 C183 1.641 . S
C769 C53 1.638 . S
C787 C76 1.861 . S
C789 C222 1.842 . S
C805 N104 1.505 . S
C807 C264 1.499 . S
C823 C122 1.765 . S
C825 C303 1.732 . S
C841 N12 1.424 . S
C843 C375 1.494 . S
