# Generated by pormake.
# Topology zzz, (3,6)-cn, num edge types: 1
# Building blocks:
#     Node 0, Type 0, BuildingBlock: BETDIP_clean_linker_0, # of connection points: 3
#     Node 1, Type 0, BuildingBlock: BETDIP_clean_linker_0, # of connection points: 3
#     Node 2, Type 0, BuildingBlock: BETDIP_clean_linker_0, # of connection points: 3
#     Node 3, Type 0, BuildingBlock: BETDIP_clean_linker_0, # of connection points: 3
#     Node 4, Type 0, BuildingBlock: BETDIP_clean_linker_0, # of connection points: 3
#     Node 5, Type 0, BuildingBlock: BETDIP_clean_linker_0, # of connection points: 3
#     Node 6, Type 0, BuildingBlock: BETDIP_clean_linker_0, # of connection points: 3
#     Node 7, Type 0, BuildingBlock: BETDIP_clean_linker_0, # of connection points: 3
#     Node 8, Type 1, BuildingBlock: CUKXOW_clean_sbu_0, # of connection points: 6
#     Node 9, Type 1, BuildingBlock: CUKXOW_clean_sbu_0, # of connection points: 6
#     Node 10, Type 1, BuildingBlock: CUKXOW_clean_sbu_0, # of connection points: 6
#     Node 11, Type 1, BuildingBlock: CUKXOW_clean_sbu_0, # of connection points: 6
#     Edge 12, Type (0, 1), BuildingBlock: XUDNAN_clean_linker_2, # of connection points: 2
#     Edge 13, Type (0, 1), BuildingBlock: XUDNAN_clean_linker_2, # of connection points: 2
#     Edge 14, Type (0, 1), BuildingBlock: XUDNAN_clean_linker_2, # of connection points: 2
#     Edge 15, Type (0, 1), BuildingBlock: XUDNAN_clean_linker_2, # of connection points: 2
#     Edge 16, Type (0, 1), BuildingBlock: XUDNAN_clean_linker_2, # of connection points: 2
#     Edge 17, Type (0, 1), BuildingBlock: XUDNAN_clean_linker_2, # of connection points: 2
#     Edge 18, Type (0, 1), BuildingBlock: XUDNAN_clean_linker_2, # of connection points: 2
#     Edge 19, Type (0, 1), BuildingBlock: XUDNAN_clean_linker_2, # of connection points: 2
#     Edge 20, Type (0, 1), BuildingBlock: XUDNAN_clean_linker_2, # of connection points: 2
#     Edge 21, Type (0, 1), BuildingBlock: XUDNAN_clean_linker_2, # of connection points: 2
#     Edge 22, Type (0, 1), BuildingBlock: XUDNAN_clean_linker_2, # of connection points: 2
#     Edge 23, Type (0, 1), BuildingBlock: XUDNAN_clean_linker_2, # of connection points: 2
#     Edge 24, Type (0, 1), BuildingBlock: XUDNAN_clean_linker_2, # of connection points: 2
#     Edge 25, Type (0, 1), BuildingBlock: XUDNAN_clean_linker_2, # of connection points: 2
#     Edge 26, Type (0, 1), BuildingBlock: XUDNAN_clean_linker_2, # of connection points: 2
#     Edge 27, Type (0, 1), BuildingBlock: XUDNAN_clean_linker_2, # of connection points: 2
#     Edge 28, Type (0, 1), BuildingBlock: XUDNAN_clean_linker_2, # of connection points: 2
#     Edge 29, Type (0, 1), BuildingBlock: XUDNAN_clean_linker_2, # of connection points: 2
#     Edge 30, Type (0, 1), BuildingBlock: XUDNAN_clean_linker_2, # of connection points: 2
#     Edge 31, Type (0, 1), BuildingBlock: XUDNAN_clean_linker_2, # of connection points: 2
#     Edge 32, Type (0, 1), BuildingBlock: XUDNAN_clean_linker_2, # of connection points: 2
#     Edge 33, Type (0, 1), BuildingBlock: XUDNAN_clean_linker_2, # of connection points: 2
#     Edge 34, Type (0, 1), BuildingBlock: XUDNAN_clean_linker_2, # of connection points: 2
#     Edge 35, Type (0, 1), BuildingBlock: XUDNAN_clean_linker_2, # of connection points: 2
# Relax obj value: 0.064
# Max RMSD: 0.116
# Mean RMSD: 0.081
data_MOF--net-zzz--node1-CUKXOW_clean_sbu_0--node2-BETDIP_clean_linker_0--edge1-XUDNAN_clean_linker_2
_symmetry_space_group_name_H-M    P1
_symmetry_Int_Tables_number       1
_symmetry_cell_setting            triclinic
loop_
_symmetry_equiv_pos_as_xyz
'x, y, z'
_cell_length_a     50.973872
_cell_length_b     52.853818
_cell_length_c     15.647519
_cell_angle_alpha  93.398362
_cell_angle_beta   86.505162
_cell_angle_gamma 93.787953
loop_
_atom_site_label
_atom_site_type_symbol
_atom_site_fract_x
_atom_site_fract_y
_atom_site_fract_z
_atom_type_partial_charge
H0 H 0.75255 0.52628 0.27525 0.0
H1 H 0.77103 0.50346 0.01011 0.0
H2 H 0.83222 0.5134 0.18789 0.0
H3 H 0.72619 0.48171 0.04575 0.0
C4 C 0.71888 0.50034 0.06242 0.0
C5 C 0.7668 0.52104 0.22413 0.0
C6 C 0.79343 0.52032 0.24094 0.0
C7 C 0.7586 0.51484 0.14087 0.0
C8 C 0.77721 0.50786 0.0746 0.0
C9 C 0.80386 0.50706 0.09134 0.0
C10 C 0.81161 0.5135 0.1744 0.0
N11 N 0.73183 0.5168 0.12368 0.0
H12 H 0.99549 0.76383 0.15744 0.0
H13 H 0.98453 0.78989 0.90568 0.0
H14 H 0.98615 0.84279 0.12318 0.0
H15 H 0.96164 0.75118 0.8964 0.0
C16 C 0.975 0.73883 0.92251 0.0
C17 C 0.99273 0.77902 0.11594 0.0
C18 C 0.99092 0.804 0.15081 0.0
C19 C 0.98963 0.7735 0.02771 0.0
C20 C 0.98622 0.79351 0.974 0.0
C21 C 0.98467 0.81837 0.00907 0.0
C22 C 0.98712 0.82338 0.09671 0.0
N23 N 0.98927 0.74777 0.99484 0.0
H24 H 0.73702 0.97856 0.24693 0.0
H25 H 0.72371 0.97731 0.97761 0.0
H26 H 0.65883 0.98363 0.16505 0.0
H27 H 0.76521 0.00951 0.01405 0.0
C28 C 0.77433 0.99257 0.03064 0.0
C29 C 0.72358 0.97824 0.19578 0.0
C30 C 0.69654 0.98026 0.21525 0.0
C31 C 0.7334 0.9772 0.10991 0.0
C32 C 0.71601 0.97795 0.04374 0.0
C33 C 0.68889 0.97984 0.0628 0.0
C34 C 0.67944 0.98067 0.14883 0.0
N35 N 0.76089 0.97638 0.09051 0.0
H36 H 0.56541 0.7523 0.25698 0.0
H37 H 0.53969 0.73089 0.00345 0.0
H38 H 0.55066 0.67368 0.17836 0.0
H39 H 0.56246 0.76803 0.97094 0.0
C40 C 0.55694 0.78039 0.02617 0.0
C41 C 0.56007 0.73778 0.20819 0.0
C42 C 0.55924 0.71206 0.22643 0.0
C43 C 0.55414 0.74476 0.12648 0.0
C44 C 0.54582 0.72579 0.06481 0.0
C45 C 0.54411 0.70013 0.08402 0.0
C46 C 0.55158 0.69354 0.16374 0.0
N47 N 0.55521 0.77097 0.10978 0.0
H48 H 0.25777 0.48156 0.13682 0.0
H49 H 0.24336 0.48681 0.41171 0.0
H50 H 0.1786 0.48204 0.24806 0.0
H51 H 0.28428 0.51883 0.37101 0.0
C52 C 0.29359 0.50166 0.34727 0.0
C53 C 0.2441 0.4819 0.19264 0.0
C54 C 0.21686 0.48089 0.1825 0.0
C55 C 0.25374 0.48422 0.27524 0.0
C56 C 0.23602 0.48514 0.34793 0.0
C57 C 0.20882 0.48342 0.33812 0.0
C58 C 0.19958 0.48156 0.25553 0.0
N59 N 0.28127 0.48519 0.28466 0.0
H60 H 0.03348 0.25679 0.23026 0.0
H61 H 0.02822 0.23037 0.48711 0.0
H62 H 0.02891 0.17694 0.26983 0.0
H63 H 0.05546 0.26776 0.50529 0.0
C64 C 0.04446 0.28085 0.47269 0.0
C65 C 0.03231 0.24139 0.27333 0.0
C66 C 0.03224 0.21617 0.24003 0.0
C67 C 0.03172 0.24676 0.36252 0.0
C68 C 0.02967 0.22652 0.41831 0.0
C69 C 0.02904 0.2012 0.385 0.0
C70 C 0.0304 0.19642 0.29615 0.0
N71 N 0.03299 0.27256 0.39449 0.0
H72 H 0.26882 0.02833 0.16935 0.0
H73 H 0.29119 0.03827 0.43168 0.0
H74 H 0.35048 0.0353 0.22479 0.0
H75 H 0.24948 0.00935 0.43789 0.0
C76 C 0.2388 0.02312 0.40723 0.0
C77 C 0.28393 0.03104 0.21544 0.0
C78 C 0.31057 0.03177 0.18716 0.0
C79 C 0.27676 0.03334 0.30365 0.0
C80 C 0.2965 0.0363 0.36363 0.0
C81 C 0.32317 0.03768 0.33506 0.0
C82 C 0.32988 0.03533 0.24704 0.0
N83 N 0.24967 0.03359 0.3304 0.0
H84 H 0.45447 0.25876 0.1283 0.0
H85 H 0.47853 0.28048 0.38311 0.0
H86 H 0.48016 0.33613 0.19353 0.0
H87 H 0.4337 0.25419 0.39643 0.0
C88 C 0.444 0.23842 0.36542 0.0
C89 C 0.46208 0.27307 0.17442 0.0
C90 C 0.46713 0.29828 0.15159 0.0
C91 C 0.46543 0.26681 0.25899 0.0
C92 C 0.47538 0.28553 0.31859 0.0
C93 C 0.48123 0.31057 0.29516 0.0
C94 C 0.47675 0.31666 0.21181 0.0
N95 N 0.45795 0.24197 0.28516 0.0
Tb96 Tb 0.00444 0.98518 0.64362 0.0
C97 C 0.05632 0.01954 0.64601 0.0
Tb98 Tb 0.00612 0.03345 0.76738 0.0
O99 O 0.00829 0.00999 0.53336 0.0
O100 O 0.99022 0.02165 0.64994 0.0
O101 O 0.04615 0.99606 0.63188 0.0
C102 C 0.01086 0.08119 0.83251 0.0
O103 O 0.04289 0.03776 0.68706 0.0
C104 C 0.0108 0.99037 0.83868 0.0
C105 C 0.95376 0.99908 0.76371 0.0
O106 O 0.02603 0.06331 0.8471 0.0
O107 O 0.99262 0.07203 0.78306 0.0
O108 O 0.00209 0.01054 0.87982 0.0
O109 O 0.01909 0.99632 0.76459 0.0
O110 O 0.96424 0.02247 0.78014 0.0
O111 O 0.96693 0.981 0.72024 0.0
C112 C 0.00322 0.93761 0.57537 0.0
O113 O 0.01997 0.94744 0.62902 0.0
O114 O 0.98707 0.95459 0.55982 0.0
C115 C 0.99768 0.02878 0.57724 0.0
Tb116 Tb 0.50284 0.04165 0.68951 0.0
C117 C 0.5522 0.0123 0.61718 0.0
Tb118 Tb 0.50702 0.98517 0.73546 0.0
O119 O 0.5348 0.05635 0.7673 0.0
O120 O 0.51482 0.02205 0.79322 0.0
O121 O 0.5376 0.03195 0.60845 0.0
C122 C 0.51798 0.94417 0.81452 0.0
O123 O 0.54498 0.99325 0.66725 0.0
C124 C 0.47673 0.99246 0.60996 0.0
C125 C 0.45571 0.01242 0.79451 0.0
O126 O 0.51809 0.94557 0.73167 0.0
O127 O 0.51211 0.9658 0.85168 0.0
O128 O 0.4738 0.97262 0.65588 0.0
O129 O 0.49738 0.005 0.63048 0.0
O130 O 0.47078 0.99373 0.80834 0.0
O131 O 0.46349 0.03147 0.74559 0.0
C132 C 0.48741 0.08495 0.63586 0.0
O133 O 0.48488 0.07791 0.71409 0.0
O134 O 0.4991 0.06777 0.5875 0.0
C135 C 0.53548 0.03584 0.80866 0.0
Tb136 Tb 0.51817 0.52619 0.62174 0.0
C137 C 0.46111 0.49967 0.62162 0.0
Tb138 Tb 0.50087 0.48532 0.75932 0.0
O139 O 0.51937 0.49699 0.51444 0.0
O140 O 0.5224 0.48786 0.64054 0.0
O141 O 0.47654 0.51971 0.59921 0.0
C142 C 0.49189 0.43992 0.82497 0.0
O143 O 0.46754 0.48312 0.6764 0.0
C144 C 0.49996 0.53307 0.81552 0.0
C145 C 0.55798 0.51159 0.75916 0.0
O146 O 0.47542 0.45787 0.83182 0.0
O147 O 0.51338 0.4479 0.78371 0.0
O148 O 0.49995 0.51448 0.86678 0.0
O149 O 0.49678 0.52369 0.74084 0.0
O150 O 0.54242 0.49162 0.78117 0.0
O151 O 0.55157 0.52839 0.70511 0.0
C152 C 0.52817 0.57116 0.55364 0.0
O153 O 0.54446 0.55312 0.55005 0.0
O154 O 0.50622 0.56355 0.59317 0.0
C155 C 0.51939 0.47846 0.56586 0.0
Tb156 Tb 0.98748 0.50671 0.62675 0.0
C157 C 0.01988 0.45991 0.65297 0.0
Tb158 Tb 0.02844 0.51196 0.76893 0.0
O159 O 0.01873 0.50296 0.52526 0.0
O160 O 0.02564 0.5228 0.64235 0.0
O161 O 0.99823 0.46743 0.62135 0.0
C162 C 0.07404 0.51112 0.84301 0.0
O163 O 0.03511 0.47495 0.70319 0.0
C164 C 0.97912 0.50419 0.82228 0.0
C165 C 0.99877 0.5599 0.73706 0.0
O166 O 0.05308 0.4966 0.86055 0.0
O167 O 0.06898 0.52678 0.7863 0.0
O168 O 0.99701 0.51443 0.87187 0.0
O169 O 0.99013 0.49621 0.75283 0.0
O170 O 0.01939 0.5516 0.77254 0.0
O171 O 0.98359 0.5453 0.68517 0.0
C172 C 0.94069 0.5052 0.55902 0.0
O173 O 0.96086 0.52033 0.53746 0.0
O174 O 0.94726 0.49026 0.61588 0.0
C175 C 0.03654 0.51432 0.57325 0.0
H176 H 0.20398 0.99089 0.4919 0.0
H177 H 0.21257 0.06608 0.39325 0.0
H178 H 0.16723 0.07422 0.44945 0.0
H179 H 0.13692 0.97814 0.43436 0.0
H180 H 0.12742 0.96027 0.5271 0.0
H181 H 0.16098 0.96113 0.48367 0.0
H182 H 0.17709 0.97753 0.63211 0.0
H183 H 0.14355 0.97682 0.67588 0.0
H184 H 0.16416 0.00582 0.68401 0.0
H185 H 0.12132 0.07447 0.52179 0.0
H186 H 0.07667 0.06492 0.58843 0.0
H187 H 0.09695 0.98817 0.62659 0.0
C188 C 0.19627 0.00908 0.48261 0.0
C189 C 0.21164 0.02795 0.43897 0.0
C190 C 0.20096 0.0514 0.42653 0.0
C191 C 0.17533 0.05622 0.45856 0.0
C192 C 0.16058 0.03718 0.50137 0.0
C193 C 0.17052 0.01392 0.51211 0.0
C194 C 0.15013 0.99611 0.55566 0.0
C195 C 0.14347 0.97252 0.49666 0.0
C196 C 0.15929 0.98864 0.64204 0.0
C197 C 0.12721 0.013 0.56826 0.0
C198 C 0.13373 0.03677 0.53789 0.0
C199 C 0.11594 0.05584 0.54504 0.0
C200 C 0.0907 0.05031 0.58313 0.0
C201 C 0.0834 0.02579 0.61165 0.0
C202 C 0.10196 0.007 0.60435 0.0
H203 H 0.47007 0.19488 0.31741 0.0
H204 H 0.42188 0.23047 0.52279 0.0
H205 H 0.42645 0.19423 0.61198 0.0
H206 H 0.44498 0.12903 0.35402 0.0
H207 H 0.47668 0.11632 0.32934 0.0
H208 H 0.46829 0.14429 0.27912 0.0
H209 H 0.51018 0.16872 0.33494 0.0
H210 H 0.51858 0.14089 0.38575 0.0
H211 H 0.51533 0.17041 0.44818 0.0
H212 H 0.43867 0.1563 0.68264 0.0
H213 H 0.45618 0.11722 0.72894 0.0
H214 H 0.49567 0.10502 0.47769 0.0
C215 C 0.4602 0.19483 0.38067 0.0
C216 C 0.44556 0.21541 0.4135 0.0
C217 C 0.43309 0.21479 0.49666 0.0
C218 C 0.43558 0.19433 0.54773 0.0
C219 C 0.45046 0.17452 0.51434 0.0
C220 C 0.46237 0.17439 0.43254 0.0
C221 C 0.47781 0.15092 0.41355 0.0
C222 C 0.46624 0.13415 0.33962 0.0
C223 C 0.50722 0.15818 0.3945 0.0
C224 C 0.47315 0.13827 0.49811 0.0
C225 C 0.45726 0.15223 0.55512 0.0
C226 C 0.45092 0.14504 0.63839 0.0
C227 C 0.46104 0.1229 0.66419 0.0
C228 C 0.47722 0.10821 0.60683 0.0
C229 C 0.48323 0.11591 0.5226 0.0
H230 H 0.32949 0.53545 0.41874 0.0
H231 H 0.31447 0.4553 0.35081 0.0
H232 H 0.35561 0.44599 0.41566 0.0
H233 H 0.4004 0.53622 0.37134 0.0
H234 H 0.40764 0.55913 0.458 0.0
H235 H 0.37696 0.55928 0.40674 0.0
H236 H 0.35142 0.55533 0.55422 0.0
H237 H 0.38201 0.55498 0.60583 0.0
H238 H 0.35717 0.5294 0.61915 0.0
H239 H 0.39671 0.4453 0.49696 0.0
H240 H 0.43783 0.4537 0.57297 0.0
H241 H 0.42791 0.53464 0.57691 0.0
C242 C 0.33503 0.51599 0.41715 0.0
C243 C 0.31896 0.49607 0.38007 0.0
C244 C 0.3267 0.47082 0.37851 0.0
C245 C 0.34992 0.46536 0.41555 0.0
C246 C 0.36529 0.48543 0.45236 0.0
C247 C 0.35842 0.51029 0.452 0.0
C248 C 0.37876 0.52845 0.49345 0.0
C249 C 0.39171 0.54685 0.42849 0.0
C250 C 0.3666 0.54288 0.57287 0.0
C251 C 0.39797 0.50989 0.51827 0.0
C252 C 0.38966 0.48514 0.49501 0.0
C253 C 0.40357 0.46461 0.51461 0.0
C254 C 0.42676 0.46954 0.55819 0.0
C255 C 0.43596 0.49479 0.58023 0.0
C256 C 0.42138 0.51518 0.5599 0.0
H257 H 0.01397 0.31908 0.42837 0.0
H258 H 0.07592 0.30303 0.59176 0.0
H259 H 0.07753 0.34748 0.65049 0.0
H260 H 0.03796 0.38398 0.38404 0.0
H261 H 0.00547 0.3957 0.38857 0.0
H262 H 0.01016 0.36302 0.35514 0.0
H263 H 0.97568 0.34841 0.47365 0.0
H264 H 0.97093 0.38104 0.50741 0.0
H265 H 0.97998 0.35932 0.58357 0.0
H266 H 0.07249 0.39304 0.69207 0.0
H267 H 0.0593 0.43668 0.72187 0.0
H268 H 0.99899 0.42361 0.5366 0.0
C269 C 0.02803 0.32504 0.47587 0.0
C270 C 0.04505 0.30775 0.50516 0.0
C271 C 0.06284 0.31608 0.56838 0.0
C272 C 0.06393 0.34126 0.60188 0.0
C273 C 0.04692 0.35786 0.57202 0.0
C274 C 0.02916 0.35015 0.51093 0.0
C275 C 0.01225 0.37167 0.4933 0.0
C276 C 0.01674 0.37902 0.39969 0.0
C277 C 0.98298 0.36468 0.51585 0.0
C278 C 0.02314 0.39253 0.55468 0.0
C279 C 0.04335 0.38416 0.59847 0.0
C280 C 0.05664 0.39981 0.65838 0.0
C281 C 0.04894 0.42465 0.67481 0.0
C282 C 0.02792 0.43365 0.63213 0.0
C283 C 0.01499 0.41731 0.5708 0.0
H284 H 0.81094 0.02763 0.9702 0.0
H285 H 0.7979 0.9472 0.00974 0.0
H286 H 0.84206 0.93978 0.94119 0.0
H287 H 0.84676 0.02288 0.76733 0.0
H288 H 0.86956 0.04956 0.79079 0.0
H289 H 0.83685 0.04839 0.84142 0.0
H290 H 0.8563 0.05356 0.99118 0.0
H291 H 0.88907 0.05497 0.94096 0.0
H292 H 0.87977 0.03177 0.01899 0.0
H293 H 0.88678 0.94117 0.86039 0.0
H294 H 0.93062 0.9517 0.79076 0.0
H295 H 0.91563 0.03177 0.81588 0.0
C296 C 0.81749 0.00849 0.96457 0.0
C297 C 0.80116 0.98796 0.9948 0.0
C298 C 0.81027 0.96317 0.98722 0.0
C299 C 0.83522 0.95878 0.94801 0.0
C300 C 0.85085 0.97947 0.91822 0.0
C301 C 0.8425 0.00389 0.92751 0.0
C302 C 0.86342 0.02298 0.89337 0.0
C303 C 0.85355 0.03675 0.81879 0.0
C304 C 0.87269 0.04193 0.96543 0.0
C305 C 0.88477 0.00547 0.86252 0.0
C306 C 0.87703 0.98042 0.8763 0.0
C307 C 0.89315 0.96075 0.85028 0.0
C308 C 0.91799 0.96693 0.81054 0.0
C309 C 0.92671 0.99259 0.799 0.0
C310 C 0.9097 0.01201 0.82482 0.0
H311 H 0.55839 0.80287 0.87394 0.0
H312 H 0.54248 0.8175 0.14741 0.0
H313 H 0.53144 0.86111 0.12198 0.0
H314 H 0.58773 0.86594 0.83093 0.0
H315 H 0.57335 0.86648 0.72869 0.0
H316 H 0.58089 0.83669 0.76874 0.0
H317 H 0.53247 0.81961 0.75325 0.0
H318 H 0.52476 0.84939 0.71365 0.0
H319 H 0.50623 0.83707 0.80557 0.0
H320 H 0.52077 0.90241 0.06697 0.0
H321 H 0.51204 0.93936 0.9862 0.0
H322 H 0.53498 0.89834 0.74781 0.0
C323 C 0.55276 0.81537 0.92841 0.0
C324 C 0.55131 0.80688 0.01255 0.0
C325 C 0.54376 0.82362 0.08239 0.0
C326 C 0.53745 0.84842 0.06858 0.0
C327 C 0.53885 0.85614 0.9847 0.0
C328 C 0.54641 0.84019 0.91575 0.0
C329 C 0.5459 0.85311 0.83193 0.0
C330 C 0.57362 0.85571 0.78748 0.0
C331 C 0.52616 0.83895 0.77263 0.0
C332 C 0.53658 0.87874 0.86447 0.0
C333 C 0.53271 0.88006 0.95283 0.0
C334 C 0.52383 0.90164 -0.00216 0.0
C335 C 0.51886 0.92248 0.95139 0.0
C336 C 0.5229 0.92164 0.86094 0.0
C337 C 0.53178 0.89945 0.81695 0.0
H338 H 0.68216 0.46888 0.98582 0.0
H339 H 0.70299 0.54846 0.04697 0.0
H340 H 0.6648 0.56033 0.97079 0.0
H341 H 0.65966 0.47514 0.77672 0.0
H342 H 0.63271 0.45152 0.78839 0.0
H343 H 0.6619 0.44944 0.84622 0.0
H344 H 0.63365 0.44879 0.9897 0.0
H345 H 0.60435 0.45065 0.93221 0.0
H346 H 0.61185 0.47388 0.01768 0.0
H347 H 0.62515 0.56326 0.88181 0.0
H348 H 0.58441 0.55685 0.80231 0.0
H349 H 0.58842 0.47527 0.80874 0.0
C350 C 0.67857 0.48879 0.98329 0.0
C351 C 0.69539 0.50777 0.0219 0.0
C352 C 0.69016 0.53364 0.01805 0.0
C353 C 0.66864 0.54055 0.97455 0.0
C354 C 0.65247 0.52131 0.93647 0.0
C355 C 0.65696 0.49595 0.94171 0.0
C356 C 0.63614 0.47889 0.89846 0.0
C357 C 0.64834 0.46281 0.82297 0.0
C358 C 0.62058 0.46207 0.9634 0.0
C359 C 0.61929 0.49859 0.86751 0.0
C360 C 0.62917 0.52297 0.88892 0.0
C361 C 0.61715 0.54425 0.86518 0.0
C362 C 0.59417 0.54045 0.81965 0.0
C363 C 0.58335 0.51559 0.79979 0.0
C364 C 0.59621 0.49449 0.82368 0.0
H365 H 0.00622 0.70056 0.96339 0.0
H366 H 0.94496 0.71759 0.79862 0.0
H367 H 0.94451 0.67386 0.73406 0.0
H368 H 0.04151 0.66073 0.80594 0.0
H369 H 0.04974 0.63859 0.88192 0.0
H370 H 0.04522 0.67121 0.91655 0.0
H371 H 0.00989 0.65657 0.03241 0.0
H372 H 0.01432 0.62391 -0.00186 0.0
H373 H 0.98204 0.63606 0.00101 0.0
H374 H 0.95004 0.62879 0.68834 0.0
H375 H 0.96184 0.58463 0.6609 0.0
H376 H 0.02034 0.59598 0.85273 0.0
C377 C 0.99271 0.69502 0.91387 0.0
C378 C 0.9755 0.71238 0.88601 0.0
C379 C 0.95823 0.70451 0.82081 0.0
C380 C 0.95782 0.67974 0.78381 0.0
C381 C 0.97493 0.66305 0.81247 0.0
C382 C 0.99212 0.67026 0.87574 0.0
C383 C 0.00856 0.64844 0.89374 0.0
C384 C 0.038 0.65515 0.8733 0.0
C385 C 0.00338 0.64079 0.98686 0.0
C386 C 0.99784 0.62792 0.8308 0.0
C387 C 0.97841 0.63684 0.78491 0.0
C388 C 0.96528 0.62156 0.72366 0.0
C389 C 0.97215 0.59642 0.70865 0.0
C390 C 0.99211 0.58671 0.75441 0.0
C391 C 0.00511 0.6028 0.81631 0.0
H392 H 0.0545 0.15699 0.36918 0.0
H393 H 0.99329 0.19513 0.52132 0.0
H394 H 0.97963 0.15497 0.5896 0.0
H395 H 0.01669 0.10194 0.32107 0.0
H396 H 0.04245 0.08038 0.32575 0.0
H397 H 0.05058 0.11272 0.29896 0.0
H398 H 0.08181 0.11965 0.42464 0.0
H399 H 0.07462 0.08688 0.44787 0.0
H400 H 0.06971 0.11156 0.53088 0.0
H401 H 0.96866 0.10993 0.62512 0.0
H402 H 0.96464 0.06369 0.64148 0.0
H403 H 0.03283 0.05426 0.46564 0.0
C404 C 0.03864 0.15703 0.41851 0.0
C405 C 0.02494 0.1792 0.44014 0.0
C406 C 0.00429 0.17852 0.50474 0.0
C407 C 0.99624 0.15572 0.54314 0.0
C408 C 0.00919 0.13391 0.51651 0.0
C409 C 0.03029 0.13446 0.45688 0.0
C410 C 0.03974 0.10808 0.43529 0.0
C411 C 0.03721 0.10034 0.3396 0.0
C412 C 0.06815 0.10646 0.46132 0.0
C413 C 0.02036 0.09246 0.49116 0.0
C414 C 0.00291 0.10781 0.53728 0.0
C415 C 0.98248 0.09781 0.59057 0.0
C416 C 0.98032 0.07155 0.59917 0.0
C417 C 0.99859 0.05558 0.55561 0.0
C418 C 0.01859 0.06609 0.49954 0.0
H419 H 0.33132 0.00817 0.46854 0.0
H420 H 0.36456 0.07252 0.33012 0.0
H421 H 0.40694 0.06945 0.39511 0.0
H422 H 0.37243 0.02396 0.66884 0.0
H423 H 0.37494 0.99063 0.68256 0.0
H424 H 0.34576 0.0015 0.6406 0.0
H425 H 0.35211 0.96998 0.50855 0.0
H426 H 0.38181 0.95984 0.5485 0.0
H427 H 0.38249 0.9721 0.44325 0.0
H428 H 0.44728 0.05306 0.44261 0.0
H429 H 0.48237 0.02993 0.49925 0.0
H430 H 0.42362 0.97862 0.62046 0.0
C431 C 0.34714 0.02238 0.45573 0.0
C432 C 0.34482 0.04056 0.39439 0.0
C433 C 0.36608 0.05847 0.37701 0.0
C434 C 0.3902 0.05685 0.41345 0.0
C435 C 0.39253 0.03759 0.46885 0.0
C436 C 0.3714 0.02124 0.49287 0.0
C437 C 0.37999 1.00116 0.54902 0.0
C438 C 0.36754 0.00453 0.64068 0.0
C439 C 0.37372 0.97418 0.50993 0.0
C440 C 0.40942 0.00771 0.54704 0.0
C441 C 0.41612 0.02891 0.50083 0.0
C442 C 0.44223 0.03715 0.48221 0.0
C443 C 0.46201 0.02399 0.51464 0.0
C444 C 0.4556 0.00328 0.56662 0.0
C445 C 0.42899 0.9947 0.5818 0.0
H446 H 0.51672 0.3511 0.26668 0.0
H447 H 0.46442 0.31736 0.46441 0.0
H448 H 0.4725 0.35548 0.55982 0.0
H449 H 0.56267 0.38834 0.40973 0.0
H450 H 0.56527 0.4149 0.34192 0.0
H451 H 0.55978 0.38307 0.29571 0.0
H452 H 0.51829 0.39659 0.22677 0.0
H453 H 0.52335 0.4283 0.27373 0.0
H454 H 0.49246 0.41046 0.29411 0.0
H455 H 0.47995 0.39894 0.62353 0.0
H456 H 0.4888 0.44428 0.65653 0.0
H457 H 0.53533 0.45155 0.41812 0.0
C458 C 0.50729 0.3515 0.3306 0.0
C459 C 0.4899 0.33116 0.35796 0.0
C460 C 0.47816 0.33242 0.44235 0.0
C461 C 0.48248 0.3541 0.49682 0.0
C462 C 0.49857 0.37429 0.46589 0.0
C463 C 0.51101 0.37315 0.38509 0.0
C464 C 0.52508 0.39843 0.36423 0.0
C465 C 0.55498 0.39603 0.35221 0.0
C466 C 0.51413 0.40906 0.28504 0.0
C467 C 0.51794 0.41421 0.44516 0.0
C468 C 0.50292 0.39972 0.50309 0.0
C469 C 0.49246 0.41023 0.58 0.0
C470 C 0.49789 0.43609 0.599 0.0
C471 C 0.51373 0.45128 0.54241 0.0
C472 C 0.52358 0.44025 0.46359 0.0
H473 H 0.16411 0.45365 0.36609 0.0
H474 H 0.20871 0.51976 0.47007 0.0
H475 H 0.1696 0.5316 0.56116 0.0
H476 H 0.11193 0.48335 0.32992 0.0
H477 H 0.08676 0.45898 0.35579 0.0
H478 H 0.11939 0.4504 0.32161 0.0
H479 H 0.12298 0.42664 0.46025 0.0
H480 H 0.08986 0.43436 0.49392 0.0
H481 H 0.11637 0.44279 0.5633 0.0
H482 H 0.12388 0.54145 0.61367 0.0
H483 H 0.0759 0.54677 0.63162 0.0
H484 H 0.06082 0.47565 0.48547 0.0
C485 C 0.16592 0.46992 0.41128 0.0
C486 C 0.18932 0.48577 0.41166 0.0
C487 C 0.19106 0.50717 0.47007 0.0
C488 C 0.16887 0.51409 0.52159 0.0
C489 C 0.14536 0.49922 0.51416 0.0
C490 C 0.14389 0.47722 0.46165 0.0
C491 C 0.11568 0.46682 0.45386 0.0
C492 C 0.10801 0.4648 0.35976 0.0
C493 C 0.11095 0.44113 0.49532 0.0
C494 C 0.10139 0.48726 0.50546 0.0
C495 C 0.11881 0.50541 0.54173 0.0
C496 C 0.1101 0.52704 0.5873 0.0
C497 C 0.08292 0.52998 0.59679 0.0
C498 C 0.06495 0.51155 0.56015 0.0
C499 C 0.07429 0.49 0.51392 0.0
H500 H 0.01875 0.84234 0.89402 0.0
H501 H 0.94062 0.84403 0.01851 0.0
H502 H 0.93749 0.88787 0.9761 0.0
H503 H 0.04073 0.90085 0.96007 0.0
H504 H 0.05935 0.90995 0.86388 0.0
H505 H 0.05384 0.87692 0.88538 0.0
H506 H 0.03236 0.86715 0.74007 0.0
H507 H 0.03907 0.90005 0.71721 0.0
H508 H 0.00599 0.88577 0.71284 0.0
H509 H 0.94751 0.93338 0.95682 0.0
H510 H 0.96555 0.97664 0.92847 0.0
H511 H 0.03554 0.94605 0.80168 0.0
C512 C 1.00046 0.85151 0.90755 0.0
C513 C 0.97968 0.83986 0.95786 0.0
C514 C 0.95642 0.85263 0.97831 0.0
C515 C 0.95458 0.87755 0.95512 0.0
C516 C 0.97604 0.88921 0.91025 0.0
C517 C 0.9982 0.87643 0.88384 0.0
C518 C 0.01926 0.8942 0.84264 0.0
C519 C 0.04479 0.89555 0.89092 0.0
C520 C 0.02445 0.88631 0.74746 0.0
C521 C 0.00592 0.91908 0.85375 0.0
C522 C 0.98111 0.91571 0.8938 0.0
C523 C 0.96642 0.93617 0.92219 0.0
C524 C 0.97694 0.96068 0.90656 0.0
C525 C 0.00153 0.96449 0.86075 0.0
C526 C 0.01629 0.94346 0.83439 0.0
H527 H 0.63738 0.96156 0.05066 0.0
H528 H 0.69871 0.0098 0.92621 0.0
H529 H 0.66609 0.025 0.83502 0.0
H530 H 0.59597 0.94873 0.8585 0.0
H531 H 0.56602 0.95042 0.92489 0.0
H532 H 0.59465 0.93861 0.96693 0.0
H533 H 0.59159 0.97202 0.0942 0.0
H534 H 0.56294 0.98384 0.05256 0.0
H535 H 0.59122 0.00517 0.07314 0.0
H536 H 0.62676 0.04117 0.77934 0.0
H537 H 0.58331 0.0549 0.7515 0.0
H538 H 0.54602 0.99756 0.91393 0.0
C539 C 0.64408 0.97483 0.00265 0.0
C540 C 0.67068 0.98442 0.99555 0.0
C541 C 0.67863 0.00176 0.9319 0.0
C542 C 0.66016 0.01066 0.88013 0.0
C543 C 0.63388 0.00193 0.89237 0.0
C544 C 0.62584 0.98413 0.95112 0.0
C545 C 0.59609 0.97987 0.95771 0.0
C546 C 0.58774 0.95276 0.92501 0.0
C547 C 0.58482 0.98558 0.04986 0.0
C548 C 0.58853 0.99921 0.89734 0.0
C549 C 0.61077 0.01133 0.85937 0.0
C550 C 0.60922 0.03138 0.80689 0.0
C551 C 0.58434 0.03916 0.79214 0.0
C552 C 0.56114 0.02684 0.82887 0.0
C553 C 0.56329 0.0066 0.88238 0.0
H554 H 0.5101 0.65937 0.11886 0.0
H555 H 0.55736 0.69416 0.9119 0.0
H556 H 0.54759 0.65606 0.81688 0.0
H557 H 0.53349 0.59977 0.08196 0.0
H558 H 0.50289 0.58217 0.10884 0.0
H559 H 0.5093 0.61368 0.15605 0.0
H560 H 0.46628 0.62796 0.09896 0.0
H561 H 0.45947 0.59636 0.05251 0.0
H562 H 0.46071 0.62323 0.98629 0.0
H563 H 0.53916 0.61241 0.75387 0.0
H564 H 0.52936 0.56713 0.72138 0.0
H565 H 0.48718 0.55973 0.96708 0.0
C566 C 0.51801 0.65917 0.05301 0.0
C567 C 0.53458 0.67966 0.02258 0.0
C568 C 0.54441 0.6788 0.93607 0.0
C569 C 0.53908 0.6572 0.88197 0.0
C570 C 0.52379 0.63684 0.91552 0.0
C571 C 0.51312 0.63773 -0.00129 0.0
C572 C 0.49931 0.61249 0.02134 0.0
C573 C 0.51201 0.60138 0.09647 0.0
C574 C 0.46968 0.61518 0.0409 0.0
C575 C 0.50448 0.59698 0.93836 0.0
C576 C 0.51845 0.61153 0.87824 0.0
C577 C 0.52732 0.60113 0.79914 0.0
C578 C 0.52127 0.57535 0.78029 0.0
C579 C 0.50628 0.56017 0.83892 0.0
C580 C 0.49812 0.57106 0.91989 0.0
H581 H 0.84643 0.47887 0.1033 0.0
H582 H 0.80869 0.52341 0.92735 0.0
H583 H 0.8485 0.52264 0.82925 0.0
H584 H 0.90441 0.51404 0.09262 0.0
H585 H 0.92559 0.48847 0.10182 0.0
H586 H 0.89229 0.4861 0.14692 0.0
H587 H 0.88285 0.4439 0.05807 0.0
H588 H 0.91637 0.44572 0.01389 0.0
H589 H 0.88951 0.44265 0.94346 0.0
H590 H 0.89443 0.52371 0.76424 0.0
H591 H 0.94222 0.52507 0.7336 0.0
H592 H 0.95158 0.48297 0.95762 0.0
C593 C 0.84625 0.48794 0.04307 0.0
C594 C 0.82447 0.50129 0.02308 0.0
C595 C 0.82496 0.51275 0.94349 0.0
C596 C 0.84758 0.51256 0.88768 0.0
C597 C 0.86941 0.50083 0.91266 0.0
C598 C 0.86884 0.48853 0.98821 0.0
C599 C 0.89586 0.48055 0.00655 0.0
C600 C 0.90506 0.49304 0.09199 0.0
C601 C 0.89616 0.45147 0.00538 0.0
C602 C 0.91197 0.49103 0.93086 0.0
C603 C 0.89623 0.50221 0.87668 0.0
C604 C 0.9068 0.51447 0.8051 0.0
C605 C 0.93408 0.51508 0.78794 0.0
C606 C 0.95051 0.50356 0.84187 0.0
C607 C 0.93933 0.49162 0.91475 0.0
H608 H 0.06733 0.18737 0.15225 0.0
H609 H 0.99668 0.22639 0.12474 0.0
H610 H 0.98814 0.19999 0.99222 0.0
H611 H 0.0835 0.16866 0.91311 0.0
H612 H 0.09294 0.13822 0.94265 0.0
H613 H 0.09871 0.16605 0.013 0.0
H614 H 0.07299 0.14289 0.13638 0.0
H615 H 0.06626 0.11541 0.0666 0.0
H616 H 0.03942 0.13103 0.12303 0.0
H617 H 0.98127 0.16255 0.88781 0.0
H618 H 0.97766 0.11916 0.8188 0.0
H619 H 0.05091 0.10263 0.92412 0.0
C620 C 0.05102 0.19137 0.11492 0.0
C621 C 0.03286 0.20905 0.14729 0.0
C622 C 0.01111 0.21333 0.09948 0.0
C623 C 0.00606 0.19824 0.02455 0.0
C624 C 0.02304 0.17917 -0.00129 0.0
C625 C 0.04541 0.17601 0.04194 0.0
C626 C 0.05758 0.15131 0.01351 0.0
C627 C 0.0848 0.15637 0.96781 0.0
C628 C 0.05912 0.13418 0.08936 0.0
C629 C 0.03777 0.14029 0.95137 0.0
C630 C 0.0184 0.15686 0.9416 0.0
C631 C 0.99668 0.14971 0.89347 0.0
C632 C 0.99467 0.125 0.85509 0.0
C633 C 0.01398 0.10768 0.86671 0.0
C634 C 0.03597 0.11562 0.91398 0.0
H635 H 0.33786 0.06448 0.08305 0.0
H636 H 0.30626 0.98677 0.09539 0.0
H637 H 0.33639 0.97404 0.97304 0.0
H638 H 0.35523 0.06158 0.83524 0.0
H639 H 0.38444 0.0819 0.85264 0.0
H640 H 0.35501 0.08599 0.92075 0.0
H641 H 0.38201 0.08153 0.05335 0.0
H642 H 0.41121 0.07649 0.98629 0.0
H643 H 0.39934 0.05317 0.06133 0.0
H644 H 0.37779 0.96799 0.88396 0.0
H645 H 0.42303 0.97011 0.817 0.0
H646 H 0.42718 0.05209 0.856 0.0
C647 C 0.33613 0.04517 0.05573 0.0
C648 C 0.31947 0.02665 0.09676 0.0
C649 C 0.31839 1.00127 0.06285 0.0
C650 C 0.3356 0.99389 0.99385 0.0
C651 C 0.35332 0.01227 0.95872 0.0
C652 C 0.35308 0.03762 0.98653 0.0
C653 C 0.3764 0.053 0.94693 0.0
C654 C 0.36722 0.07172 0.8852 0.0
C655 C 0.39321 0.06683 0.01611 0.0
C656 C 0.39093 0.03207 0.89847 0.0
C657 C 0.37715 0.00876 0.90499 0.0
C658 C 0.38833 0.98622 0.87584 0.0
C659 C 0.41413 0.98756 0.83901 0.0
C660 C 0.4284 0.01127 0.83132 0.0
C661 C 0.41642 0.03378 0.85977 0.0
H662 H 0.43273 0.332 0.11577 0.0
H663 H 0.4944 0.28651 0.00129 0.0
H664 H 0.50136 0.31549 0.88273 0.0
H665 H 0.41091 0.35918 0.90621 0.0
H666 H 0.40693 0.38942 0.96346 0.0
H667 H 0.39973 0.3604 0.01784 0.0
H668 H 0.43187 0.37706 0.13306 0.0
H669 H 0.44016 0.40554 0.07796 0.0
H670 H 0.46577 0.38543 0.10107 0.0
H671 H 0.51096 0.35492 0.80655 0.0
H672 H 0.51899 0.39934 0.76701 0.0
H673 H 0.45214 0.42091 0.93357 0.0
C674 C 0.4463 0.32724 0.0621 0.0
C675 C 0.4627 0.3069 0.0661 0.0
C676 C 0.48121 0.30162 -0.0023 0.0
C677 C 0.48542 0.31818 0.93066 0.0
C678 C 0.47079 0.33968 0.93322 0.0
C679 C 0.45106 0.34393 0.99619 0.0
C680 C 0.44177 0.37059 0.99503 0.0
C681 C 0.41313 0.36985 0.96904 0.0
C682 C 0.44512 0.3855 0.08188 0.0
C683 C 0.46054 0.38128 0.92574 0.0
C684 C 0.47675 0.363 0.88972 0.0
C685 C 0.49785 0.36914 0.8323 0.0
C686 C 0.50246 0.39448 0.8111 0.0
C687 C 0.48611 0.41341 0.84735 0.0
C688 C 0.46464 0.40665 0.90415 0.0
H689 H 0.17547 0.45167 0.12257 0.0
H690 H 0.23099 0.5141 0.05745 0.0
H691 H 0.20226 0.52538 0.94556 0.0
H692 H 0.14745 0.43761 0.90307 0.0
H693 H 0.11493 0.432 0.95289 0.0
H694 H 0.14338 0.42422 0.00673 0.0
H695 H 0.12786 0.45217 0.13939 0.0
H696 H 0.09993 0.46081 0.08555 0.0
H697 H 0.12283 0.48519 0.12752 0.0
H698 H 0.16336 0.53514 0.86336 0.0
H699 H 0.1192 0.54083 0.81208 0.0
H700 H 0.08798 0.47419 0.94213 0.0
C701 C 0.18215 0.46694 0.08174 0.0
C702 C 0.20547 0.48193 0.098 0.0
C703 C 0.21345 0.50209 0.04481 0.0
C704 C 0.1971 0.50875 0.98165 0.0
C705 C 0.17302 0.49493 0.97256 0.0
C706 C 0.1658 0.47413 0.02036 0.0
C707 C 0.1374 0.46489 0.00926 0.0
C708 C 0.1357 0.43809 0.96534 0.0
C709 C 0.12107 0.46584 0.09552 0.0
C710 C 0.12935 0.48439 0.95081 0.0
C711 C 0.15024 0.50125 0.92872 0.0
C712 C 0.14701 0.52179 0.87916 0.0
C713 C 0.12186 0.52502 0.85103 0.0
C714 C 0.10028 0.50805 0.87394 0.0
C715 C 0.10418 0.48747 0.92397 0.0
H716 H 0.95446 0.82705 0.25404 0.0
H717 H 0.03283 0.80012 0.24924 0.0
H718 H 0.04183 0.82717 0.38013 0.0
H719 H 0.97286 0.88697 0.28485 0.0
H720 H 0.94536 0.89707 0.35347 0.0
H721 H 0.94121 0.86969 0.28105 0.0
H722 H 0.92477 0.84176 0.40629 0.0
H723 H 0.92799 0.86929 0.47958 0.0
H724 H 0.9443 0.84106 0.49826 0.0
H725 H 0.04592 0.86444 0.48644 0.0
H726 H 0.04405 0.90658 0.56328 0.0
H727 H 0.96371 0.91101 0.49258 0.0
C728 C 0.9729 0.82574 0.28396 0.0
C729 C 0.99282 0.81126 0.24301 0.0
C730 C 0.01715 0.8106 0.2812 0.0
C731 C 0.02243 0.8261 0.3551 0.0
C732 C 0.00309 0.84191 0.3898 0.0
C733 C 0.97857 0.84147 0.3562 0.0
C734 C 0.9629 0.86322 0.39422 0.0
C735 C 0.95516 0.88022 0.32423 0.0
C736 C 0.93855 0.85323 0.4478 0.0
C737 C 0.98293 0.87691 0.45065 0.0
C738 C 0.00574 0.86401 0.4491 0.0
C739 C 0.02789 0.87427 0.49006 0.0
C740 C 0.02667 0.89822 0.53339 0.0
C741 C 0.0036 0.91174 0.53474 0.0
C742 C 0.98145 0.90084 0.49344 0.0
H743 H 0.66181 0.95043 0.30897 0.0
H744 H 0.70433 0.02403 0.31142 0.0
H745 H 0.67383 0.03969 0.42873 0.0
H746 H 0.60164 0.97063 0.32705 0.0
H747 H 0.58618 0.94748 0.39723 0.0
H748 H 0.61464 0.93979 0.3297 0.0
H749 H 0.63947 0.92912 0.46119 0.0
H750 H 0.61072 0.93589 0.52946 0.0
H751 H 0.64211 0.95199 0.55093 0.0
H752 H 0.63255 0.05004 0.51561 0.0
H753 H 0.58821 0.05199 0.589 0.0
H754 H 0.57418 0.97086 0.53909 0.0
C755 C 0.66558 0.96932 0.33819 0.0
C756 C 0.68564 0.98592 0.30313 0.0
C757 C 0.68948 0.01091 0.33954 0.0
C758 C 0.67209 0.02 0.40548 0.0
C759 C 0.65138 0.00363 0.43512 0.0
C760 C 0.6486 0.97851 0.40481 0.0
C761 C 0.62334 0.96553 0.44121 0.0
C762 C 0.60541 0.95527 0.36952 0.0
C763 C 0.62927 0.94438 0.49917 0.0
C764 C 0.61167 0.98758 0.49293 0.0
C765 C 0.62806 0.00942 0.48852 0.0
C766 C 0.61996 0.03287 0.52214 0.0
C767 C 0.59469 0.03388 0.56277 0.0
C768 C 0.57811 0.01152 0.57054 0.0
C769 C 0.5868 0.98813 0.53557 0.0
H770 H 0.59272 0.67752 0.26608 0.0
H771 H 0.53174 0.72476 0.37531 0.0
H772 H 0.52309 0.69609 0.49391 0.0
H773 H 0.5584 0.62494 0.27865 0.0
H774 H 0.58304 0.60417 0.30482 0.0
H775 H 0.59272 0.63244 0.25006 0.0
H776 H 0.62401 0.64839 0.36856 0.0
H777 H 0.61544 0.61954 0.4227 0.0
H778 H 0.61177 0.64995 0.47917 0.0
H779 H 0.51132 0.65676 0.56866 0.0
H780 H 0.50156 0.61246 0.6078 0.0
H781 H 0.5692 0.58917 0.44828 0.0
C782 C 0.57889 0.68267 0.31854 0.0
C783 C 0.56305 0.70336 0.31253 0.0
C784 C 0.54442 0.7093 0.37999 0.0
C785 C 0.53923 0.69291 0.44712 0.0
C786 C 0.55312 0.67097 0.44597 0.0
C787 C 0.57317 0.66617 0.38464 0.0
C788 C 0.58163 0.63925 0.38715 0.0
C789 C 0.57875 0.62435 0.30005 0.0
C790 C 0.60989 0.63929 0.41616 0.0
C791 C 0.56193 0.62905 0.45479 0.0
C792 C 0.54602 0.64778 0.48914 0.0
C793 C 0.5242 0.64218 0.54438 0.0
C794 C 0.5186 0.61691 0.56528 0.0
C795 C 0.5347 0.59755 0.53095 0.0
C796 C 0.55686 0.60377 0.47622 0.0
H797 H 0.83179 0.55489 0.288 0.0
H798 H 0.7798 0.49343 0.38181 0.0
H799 H 0.81019 0.48759 0.49518 0.0
H800 H 0.88432 0.52394 0.28486 0.0
H801 H 0.90791 0.54935 0.31479 0.0
H802 H 0.87864 0.55634 0.26513 0.0
H803 H 0.86534 0.58723 0.39262 0.0
H804 H 0.89529 0.58137 0.44174 0.0
H805 H 0.86397 0.57671 0.50041 0.0
H806 H 0.85098 0.48077 0.56982 0.0
H807 H 0.8967 0.47626 0.60875 0.0
H808 H 0.9236 0.53972 0.45597 0.0
C809 C 0.82604 0.54144 0.33639 0.0
C810 C 0.80343 0.52484 0.32744 0.0
C811 C 0.79675 0.5067 0.38916 0.0
C812 C 0.8141 0.5031 0.45312 0.0
C813 C 0.83782 0.51793 0.45421 0.0
C814 C 0.84355 0.53717 0.39839 0.0
C815 C 0.87211 0.547 0.40022 0.0
C816 C 0.88656 0.54395 0.31101 0.0
C817 C 0.8743 0.57472 0.43592 0.0
C818 C 0.88197 0.52939 0.46196 0.0
C819 C 0.86184 0.51315 0.49404 0.0
C820 C 0.86674 0.49378 0.5466 0.0
C821 C 0.89277 0.49116 0.56749 0.0
C822 C 0.91356 0.50755 0.53466 0.0
C823 C 0.90801 0.52696 0.48186 0.0
loop_
_geom_bond_atom_site_label_1
_geom_bond_atom_site_label_2
_geom_bond_distance
_geom_bond_site_symmetry_2
_ccdc_geom_bond_type
H0 C5 0.930 . S
H1 C8 0.920 1_556 S
H2 C10 0.930 . S
H3 C4 1.016 1_556 S
C4 H3 1.016 1_554 S
C4 N11 1.286 . S
C5 H0 0.930 . S
C5 C6 1.397 . S
C5 C7 1.361 . S
C6 C5 1.397 . S
C6 C10 1.390 . S
C7 C5 1.361 . S
C7 C8 1.401 . S
C7 N11 1.413 . S
C8 H1 0.920 1_554 S
C8 C7 1.401 . S
C8 C9 1.400 . S
C9 C8 1.400 . S
C9 C10 1.381 . S
C10 H2 0.930 . S
C10 C6 1.390 . S
C10 C9 1.381 . S
N11 C4 1.286 . S
N11 C7 1.413 . S
H12 C17 0.930 . S
H13 C20 0.930 . S
H14 C22 0.930 . S
H15 C16 1.016 . S
C16 H15 1.016 . S
C16 N23 1.286 1_556 S
C17 H12 0.930 . S
C17 C18 1.397 . S
C17 C19 1.361 . S
C18 C17 1.397 . S
C18 C22 1.390 . S
C19 C17 1.361 . S
C19 C20 1.393 1_554 S
C19 N23 1.413 . S
C20 H13 0.930 . S
C20 C19 1.393 1_556 S
C20 C21 1.399 . S
C21 C20 1.399 . S
C21 C22 1.381 1_556 S
C22 H14 0.930 . S
C22 C18 1.390 . S
C22 C21 1.381 1_554 S
N23 C16 1.286 1_554 S
N23 C19 1.413 . S
H24 C29 0.930 . S
H25 C32 0.930 1_556 S
H26 C34 0.930 . S
H27 C28 1.016 1_556 S
C28 H27 1.016 1_554 S
C28 N35 1.286 . S
C29 H24 0.930 . S
C29 C30 1.397 . S
C29 C31 1.361 . S
C30 C29 1.397 . S
C30 C34 1.390 . S
C31 C29 1.361 . S
C31 C32 1.393 . S
C31 N35 1.413 . S
C32 H25 0.930 1_554 S
C32 C31 1.393 . S
C32 C33 1.399 . S
C33 C32 1.399 . S
C33 C34 1.381 . S
C34 H26 0.930 . S
C34 C30 1.390 . S
C34 C33 1.381 . S
N35 C28 1.286 . S
N35 C31 1.413 . S
H36 C41 0.930 . S
H37 C44 0.930 1_556 S
H38 C46 0.930 . S
H39 C40 1.016 1_556 S
C40 H39 1.016 1_554 S
C40 N47 1.286 . S
C41 H36 0.930 . S
C41 C42 1.397 . S
C41 C43 1.361 . S
C42 C41 1.397 . S
C42 C46 1.390 . S
C43 C41 1.361 . S
C43 C44 1.393 . S
C43 N47 1.413 . S
C44 H37 0.930 1_554 S
C44 C43 1.393 . S
C44 C45 1.399 . S
C45 C44 1.399 . S
C45 C46 1.381 . S
C46 H38 0.930 . S
C46 C42 1.390 . S
C46 C45 1.381 . S
N47 C40 1.286 . S
N47 C43 1.413 . S
H48 C53 0.930 . S
H49 C56 0.930 . S
H50 C58 0.930 . S
H51 C52 1.016 . S
C52 H51 1.016 . S
C52 N59 1.286 . S
C53 H48 0.930 . S
C53 C54 1.397 . S
C53 C55 1.361 . S
C54 C53 1.397 . S
C54 C58 1.390 . S
C55 C53 1.361 . S
C55 C56 1.393 . S
C55 N59 1.413 . S
C56 H49 0.930 . S
C56 C55 1.393 . S
C56 C57 1.399 . S
C57 C56 1.399 . S
C57 C58 1.381 . S
C58 H50 0.930 . S
C58 C54 1.390 . S
C58 C57 1.381 . S
N59 C52 1.286 . S
N59 C55 1.413 . S
H60 C65 0.930 . S
H61 C68 0.930 . S
H62 C70 0.930 . S
H63 C64 1.016 . S
C64 H63 1.016 . S
C64 N71 1.286 . S
C65 H60 0.930 . S
C65 C66 1.397 . S
C65 C67 1.361 . S
C66 C65 1.397 . S
C66 C70 1.390 . S
C67 C65 1.361 . S
C67 C68 1.393 . S
C67 N71 1.413 . S
C68 H61 0.930 . S
C68 C67 1.393 . S
C68 C69 1.399 . S
C69 C68 1.399 . S
C69 C70 1.381 . S
C70 H62 0.930 . S
C70 C66 1.390 . S
C70 C69 1.381 . S
N71 C64 1.286 . S
N71 C67 1.413 . S
H72 C77 0.930 . S
H73 C80 0.930 . S
H74 C82 0.930 . S
H75 C76 1.016 . S
C76 H75 1.016 . S
C76 N83 1.286 . S
C77 H72 0.930 . S
C77 C78 1.397 . S
C77 C79 1.361 . S
C78 C77 1.397 . S
C78 C82 1.390 . S
C79 C77 1.361 . S
C79 C80 1.393 . S
C79 N83 1.413 . S
C80 H73 0.930 . S
C80 C79 1.393 . S
C80 C81 1.399 . S
C81 C80 1.399 . S
C81 C82 1.381 . S
C82 H74 0.930 . S
C82 C78 1.390 . S
C82 C81 1.381 . S
N83 C76 1.286 . S
N83 C79 1.413 . S
H84 C89 0.930 . S
H85 C92 0.930 . S
H86 C94 0.930 . S
H87 C88 1.016 . S
C88 H87 1.016 . S
C88 N95 1.286 . S
C89 H84 0.930 . S
C89 C90 1.397 . S
C89 C91 1.361 . S
C90 C89 1.397 . S
C90 C94 1.390 . S
C91 C89 1.361 . S
C91 C92 1.393 . S
C91 N95 1.413 . S
C92 H85 0.930 . S
C92 C91 1.393 . S
C92 C93 1.399 . S
C93 C92 1.399 . S
C93 C94 1.381 . S
C94 H86 0.930 . S
C94 C90 1.390 . S
C94 C93 1.381 . S
N95 C88 1.286 . S
N95 C91 1.413 . S
Tb96 O99 2.453 1_565 S
Tb96 O100 2.596 1_665 S
Tb96 O101 2.374 1_665 S
Tb96 O109 2.343 1_655 S
Tb96 O111 2.353 1_565 S
Tb96 O113 2.427 . S
Tb96 O114 2.513 1_655 S
C97 O101 1.258 . S
C97 O103 1.263 . S
Tb98 O100 2.343 . S
Tb98 O103 2.353 . S
Tb98 O106 2.427 . S
Tb98 O107 2.512 . S
Tb98 O108 2.453 1_545 S
Tb98 O109 2.596 1_545 S
Tb98 O110 2.374 1_455 S
O99 Tb96 2.453 1_545 S
O99 C115 1.245 1_655 S
O100 Tb96 2.596 1_445 S
O100 Tb98 2.343 . S
O100 C115 1.259 . S
O101 Tb96 2.374 1_445 S
O101 C97 1.258 . S
C102 O106 1.275 . S
C102 O107 1.245 . S
O103 C97 1.263 . S
O103 Tb98 2.353 . S
C104 O108 1.245 . S
C104 O109 1.259 . S
C105 O110 1.250 . S
C105 O111 1.263 . S
O106 Tb98 2.427 . S
O106 C102 1.275 . S
O107 Tb98 2.512 . S
O107 C102 1.245 . S
O108 Tb98 2.453 1_565 S
O108 C104 1.245 . S
O109 Tb96 2.343 1_455 S
O109 Tb98 2.596 1_565 S
O109 C104 1.259 . S
O110 Tb98 2.374 1_655 S
O110 C105 1.250 . S
O111 Tb96 2.353 1_545 S
O111 C105 1.263 . S
C112 O113 1.275 . S
C112 O114 1.246 1_655 S
O113 Tb96 2.427 . S
O113 C112 1.275 . S
O114 Tb96 2.513 1_455 S
O114 C112 1.246 1_455 S
C115 O99 1.245 1_455 S
C115 O100 1.259 . S
Tb116 O119 2.453 . S
Tb116 O120 2.596 1_545 S
Tb116 O121 2.374 . S
Tb116 O129 2.343 . S
Tb116 O131 2.353 . S
Tb116 O133 2.427 . S
Tb116 O134 2.513 . S
C117 O121 1.251 1_565 S
C117 O123 1.263 . S
Tb118 O120 2.343 . S
Tb118 O123 2.353 . S
Tb118 O126 2.427 . S
Tb118 O127 2.513 . S
Tb118 O128 2.453 . S
Tb118 O129 2.596 1_565 S
Tb118 O130 2.374 . S
O119 Tb116 2.453 . S
O119 C135 1.245 . S
O120 Tb116 2.596 1_565 S
O120 Tb118 2.343 . S
O120 C135 1.259 1_565 S
O121 Tb116 2.374 . S
O121 C117 1.251 1_545 S
C122 O126 1.275 . S
C122 O127 1.246 . S
O123 C117 1.263 . S
O123 Tb118 2.353 . S
C124 O128 1.245 1_545 S
C124 O129 1.259 . S
C125 O130 1.250 1_545 S
C125 O131 1.263 . S
O126 Tb118 2.427 . S
O126 C122 1.275 . S
O127 Tb118 2.513 . S
O127 C122 1.246 . S
O128 Tb118 2.453 . S
O128 C124 1.245 1_565 S
O129 Tb116 2.343 . S
O129 Tb118 2.596 1_545 S
O129 C124 1.259 . S
O130 Tb118 2.374 . S
O130 C125 1.250 1_565 S
O131 Tb116 2.353 . S
O131 C125 1.263 . S
C132 O133 1.275 . S
C132 O134 1.246 . S
O133 Tb116 2.427 . S
O133 C132 1.275 . S
O134 Tb116 2.513 . S
O134 C132 1.246 . S
C135 O119 1.245 . S
C135 O120 1.259 1_545 S
Tb136 O139 2.453 . S
Tb136 O140 2.596 . S
Tb136 O141 2.374 . S
Tb136 O149 2.343 . S
Tb136 O151 2.353 . S
Tb136 O153 2.427 . S
Tb136 O154 2.513 . S
C137 O141 1.251 . S
C137 O143 1.263 . S
Tb138 O140 2.343 . S
Tb138 O143 2.353 . S
Tb138 O146 2.427 . S
Tb138 O147 2.513 . S
Tb138 O148 2.453 . S
Tb138 O149 2.596 . S
Tb138 O150 2.374 . S
O139 Tb136 2.453 . S
O139 C155 1.245 . S
O140 Tb136 2.596 . S
O140 Tb138 2.343 . S
O140 C155 1.259 . S
O141 Tb136 2.374 . S
O141 C137 1.251 . S
C142 O146 1.275 . S
C142 O147 1.246 . S
O143 C137 1.263 . S
O143 Tb138 2.353 . S
C144 O148 1.245 . S
C144 O149 1.259 . S
C145 O150 1.250 . S
C145 O151 1.263 . S
O146 Tb138 2.427 . S
O146 C142 1.275 . S
O147 Tb138 2.513 . S
O147 C142 1.246 . S
O148 Tb138 2.453 . S
O148 C144 1.245 . S
O149 Tb136 2.343 . S
O149 Tb138 2.596 . S
O149 C144 1.259 . S
O150 Tb138 2.374 . S
O150 C145 1.250 . S
O151 Tb136 2.353 . S
O151 C145 1.263 . S
C152 O153 1.275 . S
C152 O154 1.246 . S
O153 Tb136 2.427 . S
O153 C152 1.275 . S
O154 Tb136 2.513 . S
O154 C152 1.246 . S
C155 O139 1.245 . S
C155 O140 1.259 . S
Tb156 O159 2.453 1_655 S
Tb156 O160 2.596 1_655 S
Tb156 O161 2.374 1_655 S
Tb156 O169 2.343 . S
Tb156 O171 2.353 1_655 S
Tb156 O173 2.427 . S
Tb156 O174 2.513 . S
C157 O161 1.251 . S
C157 O163 1.263 . S
Tb158 O160 2.343 . S
Tb158 O163 2.353 . S
Tb158 O166 2.427 . S
Tb158 O167 2.513 . S
Tb158 O168 2.453 1_455 S
Tb158 O169 2.596 1_455 S
Tb158 O170 2.374 . S
O159 Tb156 2.453 1_455 S
O159 C175 1.245 . S
O160 Tb156 2.596 1_455 S
O160 Tb158 2.343 . S
O160 C175 1.259 . S
O161 Tb156 2.374 1_455 S
O161 C157 1.251 . S
C162 O166 1.275 . S
C162 O167 1.246 . S
O163 C157 1.263 . S
O163 Tb158 2.353 . S
C164 O168 1.245 . S
C164 O169 1.259 . S
C165 O170 1.250 . S
C165 O171 1.263 . S
O166 Tb158 2.427 . S
O166 C162 1.275 . S
O167 Tb158 2.513 . S
O167 C162 1.246 . S
O168 Tb158 2.453 1_655 S
O168 C164 1.245 . S
O169 Tb156 2.343 . S
O169 Tb158 2.596 1_655 S
O169 C164 1.259 . S
O170 Tb158 2.374 . S
O170 C165 1.250 . S
O171 Tb156 2.353 1_455 S
O171 C165 1.263 . S
C172 O173 1.275 . S
C172 O174 1.246 . S
O173 Tb156 2.427 . S
O173 C172 1.275 . S
O174 Tb156 2.513 . S
O174 C172 1.246 . S
C175 O159 1.245 . S
C175 O160 1.259 . S
H176 C188 0.930 . S
H177 C190 0.930 . S
H178 C191 0.930 . S
H179 C195 0.959 . S
H180 C195 0.959 . S
H181 C195 0.961 . S
H182 C196 0.960 . S
H183 C196 0.961 . S
H184 C196 0.959 . S
H185 C199 0.929 . S
H186 C200 0.931 . S
H187 C202 0.930 1_565 S
C188 H176 0.930 . S
C188 C189 1.399 . S
C188 C193 1.399 . S
C189 C188 1.399 . S
C189 C190 1.376 . S
C190 H177 0.930 . S
C190 C189 1.376 . S
C190 C191 1.388 . S
C191 H178 0.930 . S
C191 C190 1.388 . S
C191 C192 1.390 . S
C192 C191 1.390 . S
C192 C193 1.394 . S
C192 C198 1.465 . S
C193 C188 1.399 . S
C193 C192 1.394 . S
C193 C194 1.516 . S
C194 C193 1.516 . S
C194 C195 1.502 1_545 S
C194 C196 1.561 . S
C194 C197 1.526 . S
C195 H179 0.959 . S
C195 H180 0.959 . S
C195 H181 0.961 . S
C195 C194 1.502 1_565 S
C196 H182 0.960 . S
C196 H183 0.961 . S
C196 H184 0.959 . S
C196 C194 1.561 . S
C197 C194 1.526 . S
C197 C198 1.396 . S
C197 C202 1.390 . S
C198 C192 1.465 . S
C198 C197 1.396 . S
C198 C199 1.399 . S
C199 H185 0.929 . S
C199 C198 1.399 . S
C199 C200 1.385 . S
C200 H186 0.931 . S
C200 C199 1.385 . S
C200 C201 1.389 . S
C201 C200 1.389 . S
C201 C202 1.387 . S
C202 H187 0.930 1_545 S
C202 C197 1.390 . S
C202 C201 1.387 . S
H203 C215 0.930 . S
H204 C217 0.930 . S
H205 C218 0.930 . S
H206 C222 0.959 . S
H207 C222 0.959 . S
H208 C222 0.961 . S
H209 C223 0.960 . S
H210 C223 0.961 . S
H211 C223 0.959 . S
H212 C226 0.929 . S
H213 C227 0.931 . S
H214 C229 0.930 . S
C215 H203 0.930 . S
C215 C216 1.399 . S
C215 C220 1.399 . S
C216 C215 1.399 . S
C216 C217 1.376 . S
C217 H204 0.930 . S
C217 C216 1.376 . S
C217 C218 1.388 . S
C218 H205 0.930 . S
C218 C217 1.388 . S
C218 C219 1.390 . S
C219 C218 1.390 . S
C219 C220 1.394 . S
C219 C225 1.465 . S
C220 C215 1.399 . S
C220 C219 1.394 . S
C220 C221 1.516 . S
C221 C220 1.516 . S
C221 C222 1.502 . S
C221 C223 1.561 . S
C221 C224 1.526 . S
C222 H206 0.959 . S
C222 H207 0.959 . S
C222 H208 0.961 . S
C222 C221 1.502 . S
C223 H209 0.960 . S
C223 H210 0.961 . S
C223 H211 0.959 . S
C223 C221 1.561 . S
C224 C221 1.526 . S
C224 C225 1.396 . S
C224 C229 1.390 . S
C225 C219 1.465 . S
C225 C224 1.396 . S
C225 C226 1.399 . S
C226 H212 0.929 . S
C226 C225 1.399 . S
C226 C227 1.385 . S
C227 H213 0.931 . S
C227 C226 1.385 . S
C227 C228 1.389 . S
C228 C227 1.389 . S
C228 C229 1.387 . S
C229 H214 0.930 . S
C229 C224 1.390 . S
C229 C228 1.387 . S
H230 C242 0.930 . S
H231 C244 0.930 . S
H232 C245 0.930 . S
H233 C249 0.959 . S
H234 C249 0.959 . S
H235 C249 0.961 . S
H236 C250 0.960 . S
H237 C250 0.961 . S
H238 C250 0.959 . S
H239 C253 0.929 . S
H240 C254 0.931 . S
H241 C256 0.930 . S
C242 H230 0.930 . S
C242 C243 1.399 . S
C242 C247 1.399 . S
C243 C242 1.399 . S
C243 C244 1.376 . S
C244 H231 0.930 . S
C244 C243 1.376 . S
C244 C245 1.388 . S
C245 H232 0.930 . S
C245 C244 1.388 . S
C245 C246 1.390 . S
C246 C245 1.390 . S
C246 C247 1.394 . S
C246 C252 1.465 . S
C247 C242 1.399 . S
C247 C246 1.394 . S
C247 C248 1.516 . S
C248 C247 1.516 . S
C248 C249 1.502 . S
C248 C250 1.561 . S
C248 C251 1.526 . S
C249 H233 0.959 . S
C249 H234 0.959 . S
C249 H235 0.961 . S
C249 C248 1.502 . S
C250 H236 0.960 . S
C250 H237 0.961 . S
C250 H238 0.959 . S
C250 C248 1.561 . S
C251 C248 1.526 . S
C251 C252 1.396 . S
C251 C256 1.390 . S
C252 C246 1.465 . S
C252 C251 1.396 . S
C252 C253 1.399 . S
C253 H239 0.929 . S
C253 C252 1.399 . S
C253 C254 1.385 . S
C254 H240 0.931 . S
C254 C253 1.385 . S
C254 C255 1.389 . S
C255 C254 1.389 . S
C255 C256 1.387 . S
C256 H241 0.930 . S
C256 C251 1.390 . S
C256 C255 1.387 . S
H257 C269 0.930 . S
H258 C271 0.930 . S
H259 C272 0.930 . S
H260 C276 0.959 . S
H261 C276 0.959 . S
H262 C276 0.961 . S
H263 C277 0.960 . S
H264 C277 0.961 . S
H265 C277 0.959 . S
H266 C280 0.929 . S
H267 C281 0.931 . S
H268 C283 0.930 . S
C269 H257 0.930 . S
C269 C270 1.399 . S
C269 C274 1.399 . S
C270 C269 1.399 . S
C270 C271 1.376 . S
C271 H258 0.930 . S
C271 C270 1.376 . S
C271 C272 1.388 . S
C272 H259 0.930 . S
C272 C271 1.388 . S
C272 C273 1.390 . S
C273 C272 1.390 . S
C273 C274 1.394 . S
C273 C279 1.465 . S
C274 C269 1.399 . S
C274 C273 1.394 . S
C274 C275 1.516 . S
C275 C274 1.516 . S
C275 C276 1.502 . S
C275 C277 1.561 . S
C275 C278 1.526 . S
C276 H260 0.959 . S
C276 H261 0.959 . S
C276 H262 0.961 . S
C276 C275 1.502 . S
C277 H263 0.960 . S
C277 H264 0.961 . S
C277 H265 0.959 . S
C277 C275 1.561 . S
C278 C275 1.526 . S
C278 C279 1.396 . S
C278 C283 1.390 . S
C279 C273 1.465 . S
C279 C278 1.396 . S
C279 C280 1.399 . S
C280 H266 0.929 . S
C280 C279 1.399 . S
C280 C281 1.385 . S
C281 H267 0.931 . S
C281 C280 1.385 . S
C281 C282 1.389 . S
C282 C281 1.389 . S
C282 C283 1.387 . S
C283 H268 0.930 . S
C283 C278 1.390 . S
C283 C282 1.387 . S
H284 C296 0.950 . S
H285 C298 0.937 . S
H286 C299 0.930 . S
H287 C303 0.959 . S
H288 C303 0.959 . S
H289 C303 0.961 . S
H290 C304 0.960 . S
H291 C304 0.961 . S
H292 C304 0.959 . S
H293 C307 0.929 . S
H294 C308 0.931 . S
H295 C310 0.930 . S
C296 H284 0.950 . S
C296 C297 1.399 . S
C296 C301 1.399 . S
C297 C296 1.399 . S
C297 C298 1.374 1_556 S
C298 H285 0.937 . S
C298 C297 1.374 1_554 S
C298 C299 1.385 1_554 S
C299 H286 0.930 . S
C299 C298 1.385 1_556 S
C299 C300 1.390 . S
C300 C299 1.390 . S
C300 C301 1.394 . S
C300 C306 1.465 . S
C301 C296 1.399 . S
C301 C300 1.394 . S
C301 C302 1.516 1_565 S
C302 C301 1.516 1_545 S
C302 C303 1.502 . S
C302 C304 1.561 . S
C302 C305 1.526 1_545 S
C303 H287 0.959 . S
C303 H288 0.959 . S
C303 H289 0.961 . S
C303 C302 1.502 . S
C304 H290 0.960 . S
C304 H291 0.961 . S
C304 H292 0.959 . S
C304 C302 1.561 . S
C305 C302 1.526 1_565 S
C305 C306 1.396 . S
C305 C310 1.390 1_565 S
C306 C300 1.465 . S
C306 C305 1.396 . S
C306 C307 1.399 . S
C307 H293 0.929 . S
C307 C306 1.399 . S
C307 C308 1.385 . S
C308 H294 0.931 . S
C308 C307 1.385 . S
C308 C309 1.389 . S
C309 C308 1.389 . S
C309 C310 1.387 1_565 S
C310 H295 0.930 . S
C310 C305 1.390 1_545 S
C310 C309 1.387 1_545 S
H311 C323 0.930 . S
H312 C325 0.930 . S
H313 C326 0.930 . S
H314 C330 0.959 . S
H315 C330 0.959 . S
H316 C330 0.961 . S
H317 C331 0.960 . S
H318 C331 0.961 . S
H319 C331 0.959 . S
H320 C334 0.929 . S
H321 C335 0.931 . S
H322 C337 0.930 . S
C323 H311 0.930 . S
C323 C324 1.399 1_556 S
C323 C328 1.399 . S
C324 C323 1.399 1_554 S
C324 C325 1.376 . S
C325 H312 0.930 . S
C325 C324 1.376 . S
C325 C326 1.388 . S
C326 H313 0.930 . S
C326 C325 1.388 . S
C326 C327 1.390 1_554 S
C327 C326 1.390 1_556 S
C327 C328 1.394 . S
C327 C333 1.465 . S
C328 C323 1.399 . S
C328 C327 1.394 . S
C328 C329 1.516 . S
C329 C328 1.516 . S
C329 C330 1.502 . S
C329 C331 1.561 . S
C329 C332 1.526 . S
C330 H314 0.959 . S
C330 H315 0.959 . S
C330 H316 0.961 . S
C330 C329 1.502 . S
C331 H317 0.960 . S
C331 H318 0.961 . S
C331 H319 0.959 . S
C331 C329 1.561 . S
C332 C329 1.526 . S
C332 C333 1.396 . S
C332 C337 1.390 . S
C333 C327 1.465 . S
C333 C332 1.396 . S
C333 C334 1.399 . S
C334 H320 0.929 . S
C334 C333 1.399 . S
C334 C335 1.385 . S
C335 H321 0.931 . S
C335 C334 1.385 . S
C335 C336 1.389 . S
C336 C335 1.389 . S
C336 C337 1.387 . S
C337 H322 0.930 . S
C337 C332 1.390 . S
C337 C336 1.387 . S
H338 C350 0.930 . S
H339 C352 0.930 . S
H340 C353 0.930 . S
H341 C357 0.959 . S
H342 C357 0.959 . S
H343 C357 0.961 . S
H344 C358 0.960 . S
H345 C358 0.961 . S
H346 C358 0.959 . S
H347 C361 0.929 . S
H348 C362 0.931 . S
H349 C364 0.930 . S
C350 H338 0.930 . S
C350 C351 1.399 . S
C350 C355 1.399 . S
C351 C350 1.399 . S
C351 C352 1.376 1_556 S
C352 H339 0.930 . S
C352 C351 1.376 1_554 S
C352 C353 1.388 . S
C353 H340 0.930 . S
C353 C352 1.388 . S
C353 C354 1.390 1_554 S
C354 C353 1.390 1_556 S
C354 C355 1.394 . S
C354 C360 1.465 . S
C355 C350 1.399 . S
C355 C354 1.394 . S
C355 C356 1.516 . S
C356 C355 1.516 . S
C356 C357 1.502 . S
C356 C358 1.561 . S
C356 C359 1.526 . S
C357 H341 0.959 . S
C357 H342 0.959 . S
C357 H343 0.961 . S
C357 C356 1.502 . S
C358 H344 0.960 . S
C358 H345 0.961 . S
C358 H346 0.959 . S
C358 C356 1.561 . S
C359 C356 1.526 . S
C359 C360 1.396 . S
C359 C364 1.390 . S
C360 C354 1.465 . S
C360 C359 1.396 . S
C360 C361 1.399 . S
C361 H347 0.929 . S
C361 C360 1.399 . S
C361 C362 1.385 . S
C362 H348 0.931 . S
C362 C361 1.385 . S
C362 C363 1.389 . S
C363 C362 1.389 . S
C363 C364 1.387 . S
C364 H349 0.930 . S
C364 C359 1.390 . S
C364 C363 1.387 . S
H365 C377 0.930 1_554 S
H366 C379 0.930 . S
H367 C380 0.930 . S
H368 C384 0.959 . S
H369 C384 0.959 . S
H370 C384 0.961 1_554 S
H371 C385 0.960 . S
H372 C385 0.961 . S
H373 C385 0.959 . S
H374 C388 0.929 . S
H375 C389 0.931 . S
H376 C391 0.930 1_455 S
C377 H365 0.930 1_556 S
C377 C378 1.399 . S
C377 C382 1.399 . S
C378 C377 1.399 . S
C378 C379 1.376 . S
C379 H366 0.930 . S
C379 C378 1.376 . S
C379 C380 1.388 . S
C380 H367 0.930 . S
C380 C379 1.388 . S
C380 C381 1.390 . S
C381 C380 1.390 . S
C381 C382 1.394 . S
C381 C387 1.465 . S
C382 C377 1.399 . S
C382 C381 1.394 . S
C382 C383 1.516 . S
C383 C382 1.516 . S
C383 C384 1.502 1_655 S
C383 C385 1.561 1_556 S
C383 C386 1.526 . S
C384 H368 0.959 . S
C384 H369 0.959 . S
C384 H370 0.961 1_556 S
C384 C383 1.502 1_455 S
C385 H371 0.960 . S
C385 H372 0.961 . S
C385 H373 0.959 . S
C385 C383 1.561 1_554 S
C386 C383 1.526 . S
C386 C387 1.396 . S
C386 C391 1.390 . S
C387 C381 1.465 . S
C387 C386 1.396 . S
C387 C388 1.399 . S
C388 H374 0.929 . S
C388 C387 1.399 . S
C388 C389 1.385 . S
C389 H375 0.931 . S
C389 C388 1.385 . S
C389 C390 1.389 . S
C390 C389 1.389 . S
C390 C391 1.387 . S
C391 H376 0.930 1_655 S
C391 C386 1.390 . S
C391 C390 1.387 . S
H392 C404 0.930 . S
H393 C406 0.930 . S
H394 C407 0.930 . S
H395 C411 0.959 . S
H396 C411 0.959 . S
H397 C411 0.961 . S
H398 C412 0.960 . S
H399 C412 0.961 . S
H400 C412 0.959 . S
H401 C415 0.929 . S
H402 C416 0.931 . S
H403 C418 0.930 . S
C404 H392 0.930 . S
C404 C405 1.399 . S
C404 C409 1.399 . S
C405 C404 1.399 . S
C405 C406 1.376 . S
C406 H393 0.930 . S
C406 C405 1.376 . S
C406 C407 1.388 . S
C407 H394 0.930 . S
C407 C406 1.388 . S
C407 C408 1.390 . S
C408 C407 1.390 . S
C408 C409 1.394 . S
C408 C414 1.465 . S
C409 C404 1.399 . S
C409 C408 1.394 . S
C409 C410 1.516 . S
C410 C409 1.516 . S
C410 C411 1.502 . S
C410 C412 1.561 . S
C410 C413 1.526 . S
C411 H395 0.959 . S
C411 H396 0.959 . S
C411 H397 0.961 . S
C411 C410 1.502 . S
C412 H398 0.960 . S
C412 H399 0.961 . S
C412 H400 0.959 . S
C412 C410 1.561 . S
C413 C410 1.526 . S
C413 C414 1.396 . S
C413 C418 1.390 . S
C414 C408 1.465 . S
C414 C413 1.396 . S
C414 C415 1.399 . S
C415 H401 0.929 . S
C415 C414 1.399 . S
C415 C416 1.385 . S
C416 H402 0.931 . S
C416 C415 1.385 . S
C416 C417 1.389 . S
C417 C416 1.389 . S
C417 C418 1.387 . S
C418 H403 0.930 . S
C418 C413 1.390 . S
C418 C417 1.387 . S
H419 C431 0.930 . S
H420 C433 0.930 . S
H421 C434 0.930 . S
H422 C438 0.959 . S
H423 C438 0.959 . S
H424 C438 0.961 . S
H425 C439 0.960 . S
H426 C439 0.961 1_565 S
H427 C439 0.959 . S
H428 C442 0.929 . S
H429 C443 0.931 . S
H430 C445 0.930 1_565 S
C431 H419 0.930 . S
C431 C432 1.399 . S
C431 C436 1.399 . S
C432 C431 1.399 . S
C432 C433 1.376 . S
C433 H420 0.930 . S
C433 C432 1.376 . S
C433 C434 1.388 . S
C434 H421 0.930 . S
C434 C433 1.388 . S
C434 C435 1.390 . S
C435 C434 1.390 . S
C435 C436 1.394 . S
C435 C441 1.465 . S
C436 C431 1.399 . S
C436 C435 1.394 . S
C436 C437 1.516 . S
C437 C436 1.516 . S
C437 C438 1.502 1_545 S
C437 C439 1.561 . S
C437 C440 1.526 . S
C438 H422 0.959 . S
C438 H423 0.959 . S
C438 H424 0.961 . S
C438 C437 1.502 1_565 S
C439 H425 0.960 . S
C439 H426 0.961 1_545 S
C439 H427 0.959 . S
C439 C437 1.561 . S
C440 C437 1.526 . S
C440 C441 1.396 . S
C440 C445 1.390 . S
C441 C435 1.465 . S
C441 C440 1.396 . S
C441 C442 1.399 . S
C442 H428 0.929 . S
C442 C441 1.399 . S
C442 C443 1.385 . S
C443 H429 0.931 . S
C443 C442 1.385 . S
C443 C444 1.389 . S
C444 C443 1.389 . S
C444 C445 1.387 . S
C445 H430 0.930 1_545 S
C445 C440 1.390 . S
C445 C444 1.387 . S
H446 C458 0.930 . S
H447 C460 0.930 . S
H448 C461 0.930 . S
H449 C465 0.959 . S
H450 C465 0.959 . S
H451 C465 0.961 . S
H452 C466 0.960 . S
H453 C466 0.961 . S
H454 C466 0.959 . S
H455 C469 0.929 . S
H456 C470 0.931 . S
H457 C472 0.930 . S
C458 H446 0.930 . S
C458 C459 1.399 . S
C458 C463 1.399 . S
C459 C458 1.399 . S
C459 C460 1.376 . S
C460 H447 0.930 . S
C460 C459 1.376 . S
C460 C461 1.388 . S
C461 H448 0.930 . S
C461 C460 1.388 . S
C461 C462 1.390 . S
C462 C461 1.390 . S
C462 C463 1.394 . S
C462 C468 1.465 . S
C463 C458 1.399 . S
C463 C462 1.394 . S
C463 C464 1.516 . S
C464 C463 1.516 . S
C464 C465 1.502 . S
C464 C466 1.561 . S
C464 C467 1.526 . S
C465 H449 0.959 . S
C465 H450 0.959 . S
C465 H451 0.961 . S
C465 C464 1.502 . S
C466 H452 0.960 . S
C466 H453 0.961 . S
C466 H454 0.959 . S
C466 C464 1.561 . S
C467 C464 1.526 . S
C467 C468 1.396 . S
C467 C472 1.390 . S
C468 C462 1.465 . S
C468 C467 1.396 . S
C468 C469 1.399 . S
C469 H455 0.929 . S
C469 C468 1.399 . S
C469 C470 1.385 . S
C470 H456 0.931 . S
C470 C469 1.385 . S
C470 C471 1.389 . S
C471 C470 1.389 . S
C471 C472 1.387 . S
C472 H457 0.930 . S
C472 C467 1.390 . S
C472 C471 1.387 . S
H473 C485 0.930 . S
H474 C487 0.930 . S
H475 C488 0.930 . S
H476 C492 0.959 . S
H477 C492 0.959 . S
H478 C492 0.961 . S
H479 C493 0.960 . S
H480 C493 0.961 . S
H481 C493 0.959 . S
H482 C496 0.929 . S
H483 C497 0.931 . S
H484 C499 0.930 . S
C485 H473 0.930 . S
C485 C486 1.399 . S
C485 C490 1.399 . S
C486 C485 1.399 . S
C486 C487 1.376 . S
C487 H474 0.930 . S
C487 C486 1.376 . S
C487 C488 1.388 . S
C488 H475 0.930 . S
C488 C487 1.388 . S
C488 C489 1.390 . S
C489 C488 1.390 . S
C489 C490 1.394 . S
C489 C495 1.465 . S
C490 C485 1.399 . S
C490 C489 1.394 . S
C490 C491 1.516 . S
C491 C490 1.516 . S
C491 C492 1.502 . S
C491 C493 1.561 . S
C491 C494 1.526 . S
C492 H476 0.959 . S
C492 H477 0.959 . S
C492 H478 0.961 . S
C492 C491 1.502 . S
C493 H479 0.960 . S
C493 H480 0.961 . S
C493 H481 0.959 . S
C493 C491 1.561 . S
C494 C491 1.526 . S
C494 C495 1.396 . S
C494 C499 1.390 . S
C495 C489 1.465 . S
C495 C494 1.396 . S
C495 C496 1.399 . S
C496 H482 0.929 . S
C496 C495 1.399 . S
C496 C497 1.385 . S
C497 H483 0.931 . S
C497 C496 1.385 . S
C497 C498 1.389 . S
C498 C497 1.389 . S
C498 C499 1.387 . S
C499 H484 0.930 . S
C499 C494 1.390 . S
C499 C498 1.387 . S
H500 C512 0.930 . S
H501 C514 0.930 1_554 S
H502 C515 0.930 1_554 S
H503 C519 0.959 . S
H504 C519 0.959 . S
H505 C519 0.961 . S
H506 C520 0.960 . S
H507 C520 0.961 . S
H508 C520 0.959 . S
H509 C523 0.929 . S
H510 C524 0.931 . S
H511 C526 0.930 . S
C512 H500 0.930 . S
C512 C513 1.399 . S
C512 C517 1.399 . S
C513 C512 1.399 . S
C513 C514 1.376 . S
C514 H501 0.930 1_556 S
C514 C513 1.376 . S
C514 C515 1.388 . S
C515 H502 0.930 1_556 S
C515 C514 1.388 . S
C515 C516 1.390 . S
C516 C515 1.390 . S
C516 C517 1.394 . S
C516 C522 1.465 . S
C517 C512 1.399 . S
C517 C516 1.394 . S
C517 C518 1.516 . S
C518 C517 1.516 . S
C518 C519 1.502 1_655 S
C518 C520 1.561 . S
C518 C521 1.526 . S
C519 H503 0.959 . S
C519 H504 0.959 . S
C519 H505 0.961 . S
C519 C518 1.502 1_455 S
C520 H506 0.960 . S
C520 H507 0.961 . S
C520 H508 0.959 . S
C520 C518 1.561 . S
C521 C518 1.526 . S
C521 C522 1.396 . S
C521 C526 1.390 . S
C522 C516 1.465 . S
C522 C521 1.396 . S
C522 C523 1.399 . S
C523 H509 0.929 . S
C523 C522 1.399 . S
C523 C524 1.385 . S
C524 H510 0.931 . S
C524 C523 1.385 . S
C524 C525 1.389 . S
C525 C524 1.389 . S
C525 C526 1.387 . S
C526 H511 0.930 . S
C526 C521 1.390 . S
C526 C525 1.387 . S
H527 C539 0.930 . S
H528 C541 0.930 . S
H529 C542 0.930 . S
H530 C546 0.959 1_545 S
H531 C546 0.959 . S
H532 C546 0.961 . S
H533 C547 0.960 . S
H534 C547 0.961 . S
H535 C547 0.959 . S
H536 C550 0.929 1_554 S
H537 C551 0.931 1_545 S
H538 C553 0.930 . S
C539 H527 0.930 . S
C539 C540 1.399 . S
C539 C544 1.399 . S
C540 C539 1.399 . S
C540 C541 1.376 1_556 S
C541 H528 0.930 . S
C541 C540 1.376 1_554 S
C541 C542 1.388 . S
C542 H529 0.930 . S
C542 C541 1.388 . S
C542 C543 1.390 1_554 S
C543 C542 1.390 1_556 S
C543 C544 1.394 . S
C543 C549 1.465 . S
C544 C539 1.399 . S
C544 C543 1.394 . S
C544 C545 1.516 . S
C545 C544 1.516 . S
C545 C546 1.502 . S
C545 C547 1.561 . S
C545 C548 1.526 . S
C546 H530 0.959 1_565 S
C546 H531 0.959 . S
C546 H532 0.961 . S
C546 C545 1.502 . S
C547 H533 0.960 . S
C547 H534 0.961 . S
C547 H535 0.959 . S
C547 C545 1.561 . S
C548 C545 1.526 . S
C548 C549 1.396 . S
C548 C553 1.390 . S
C549 C543 1.465 . S
C549 C548 1.396 . S
C549 C550 1.399 . S
C550 H536 0.929 1_556 S
C550 C549 1.399 . S
C550 C551 1.385 . S
C551 H537 0.931 1_565 S
C551 C550 1.385 . S
C551 C552 1.389 . S
C552 C551 1.389 . S
C552 C553 1.387 . S
C553 H538 0.930 . S
C553 C548 1.390 . S
C553 C552 1.387 . S
H554 C566 0.930 . S
H555 C568 0.930 . S
H556 C569 0.930 . S
H557 C573 0.959 . S
H558 C573 0.959 . S
H559 C573 0.961 . S
H560 C574 0.960 . S
H561 C574 0.961 . S
H562 C574 0.959 1_556 S
H563 C577 0.929 . S
H564 C578 0.931 . S
H565 C580 0.930 . S
C566 H554 0.930 . S
C566 C567 1.399 1_554 S
C566 C571 1.399 1_554 S
C567 C566 1.399 1_556 S
C567 C568 1.376 . S
C568 H555 0.930 . S
C568 C567 1.376 . S
C568 C569 1.388 . S
C569 H556 0.930 . S
C569 C568 1.388 . S
C569 C570 1.390 . S
C570 C569 1.390 . S
C570 C571 1.394 . S
C570 C576 1.465 . S
C571 C566 1.399 1_556 S
C571 C570 1.394 . S
C571 C572 1.516 . S
C572 C571 1.516 . S
C572 C573 1.502 1_556 S
C572 C574 1.561 1_556 S
C572 C575 1.526 . S
C573 H557 0.959 . S
C573 H558 0.959 . S
C573 H559 0.961 . S
C573 C572 1.502 1_554 S
C574 H560 0.960 . S
C574 H561 0.961 . S
C574 H562 0.959 1_554 S
C574 C572 1.561 1_554 S
C575 C572 1.526 . S
C575 C576 1.396 . S
C575 C580 1.390 . S
C576 C570 1.465 . S
C576 C575 1.396 . S
C576 C577 1.399 . S
C577 H563 0.929 . S
C577 C576 1.399 . S
C577 C578 1.385 . S
C578 H564 0.931 . S
C578 C577 1.385 . S
C578 C579 1.389 . S
C579 C578 1.389 . S
C579 C580 1.387 . S
C580 H565 0.930 . S
C580 C575 1.390 . S
C580 C579 1.387 . S
H581 C593 0.930 1_554 S
H582 C595 0.930 . S
H583 C596 0.930 . S
H584 C600 0.959 . S
H585 C600 0.959 . S
H586 C600 0.961 . S
H587 C601 0.960 1_554 S
H588 C601 0.961 1_554 S
H589 C601 0.959 . S
H590 C604 0.929 . S
H591 C605 0.931 . S
H592 C607 0.930 . S
C593 H581 0.930 1_556 S
C593 C594 1.399 . S
C593 C598 1.399 . S
C594 C593 1.399 . S
C594 C595 1.376 . S
C595 H582 0.930 . S
C595 C594 1.376 . S
C595 C596 1.388 . S
C596 H583 0.930 . S
C596 C595 1.388 . S
C596 C597 1.390 . S
C597 C596 1.390 . S
C597 C598 1.394 . S
C597 C603 1.465 . S
C598 C593 1.399 . S
C598 C597 1.394 . S
C598 C599 1.516 . S
C599 C598 1.516 . S
C599 C600 1.502 1_556 S
C599 C601 1.561 . S
C599 C602 1.526 . S
C600 H584 0.959 . S
C600 H585 0.959 . S
C600 H586 0.961 . S
C600 C599 1.502 1_554 S
C601 H587 0.960 1_556 S
C601 H588 0.961 1_556 S
C601 H589 0.959 . S
C601 C599 1.561 . S
C602 C599 1.526 . S
C602 C603 1.396 . S
C602 C607 1.390 . S
C603 C597 1.465 . S
C603 C602 1.396 . S
C603 C604 1.399 . S
C604 H590 0.929 . S
C604 C603 1.399 . S
C604 C605 1.385 . S
C605 H591 0.931 . S
C605 C604 1.385 . S
C605 C606 1.389 . S
C606 C605 1.389 . S
C606 C607 1.387 . S
C607 H592 0.930 . S
C607 C602 1.390 . S
C607 C606 1.387 . S
H608 C620 0.930 . S
H609 C622 0.930 . S
H610 C623 0.930 . S
H611 C627 0.959 . S
H612 C627 0.959 . S
H613 C627 0.961 . S
H614 C628 0.960 . S
H615 C628 0.961 . S
H616 C628 0.959 . S
H617 C631 0.929 1_655 S
H618 C632 0.931 1_655 S
H619 C634 0.930 . S
C620 H608 0.930 . S
C620 C621 1.399 . S
C620 C625 1.399 . S
C621 C620 1.399 . S
C621 C622 1.376 . S
C622 H609 0.930 . S
C622 C621 1.376 . S
C622 C623 1.388 . S
C623 H610 0.930 . S
C623 C622 1.388 . S
C623 C624 1.390 . S
C624 C623 1.390 . S
C624 C625 1.394 . S
C624 C630 1.465 . S
C625 C620 1.399 . S
C625 C624 1.394 . S
C625 C626 1.516 . S
C626 C625 1.516 . S
C626 C627 1.502 . S
C626 C628 1.561 . S
C626 C629 1.526 . S
C627 H611 0.959 . S
C627 H612 0.959 . S
C627 H613 0.961 . S
C627 C626 1.502 . S
C628 H614 0.960 . S
C628 H615 0.961 . S
C628 H616 0.959 . S
C628 C626 1.561 . S
C629 C626 1.526 . S
C629 C630 1.396 . S
C629 C634 1.390 1_554 S
C630 C624 1.465 . S
C630 C629 1.396 . S
C630 C631 1.399 1_554 S
C631 H617 0.929 1_455 S
C631 C630 1.399 1_556 S
C631 C632 1.385 . S
C632 H618 0.931 1_455 S
C632 C631 1.385 . S
C632 C633 1.389 . S
C633 C632 1.389 . S
C633 C634 1.387 . S
C634 H619 0.930 . S
C634 C629 1.390 1_556 S
C634 C633 1.387 . S
H635 C647 0.930 . S
H636 C649 0.930 . S
H637 C650 0.930 1_565 S
H638 C654 0.959 . S
H639 C654 0.959 . S
H640 C654 0.961 . S
H641 C655 0.960 . S
H642 C655 0.961 . S
H643 C655 0.959 . S
H644 C658 0.929 . S
H645 C659 0.931 . S
H646 C661 0.930 . S
C647 H635 0.930 . S
C647 C648 1.399 . S
C647 C652 1.399 . S
C648 C647 1.399 . S
C648 C649 1.376 . S
C649 H636 0.930 . S
C649 C648 1.376 . S
C649 C650 1.388 . S
C650 H637 0.930 1_545 S
C650 C649 1.388 . S
C650 C651 1.390 . S
C651 C650 1.390 . S
C651 C652 1.394 . S
C651 C657 1.465 . S
C652 C647 1.399 . S
C652 C651 1.394 . S
C652 C653 1.516 1_554 S
C653 C652 1.516 1_556 S
C653 C654 1.502 . S
C653 C655 1.561 1_556 S
C653 C656 1.526 . S
C654 H638 0.959 . S
C654 H639 0.959 . S
C654 H640 0.961 . S
C654 C653 1.502 . S
C655 H641 0.960 . S
C655 H642 0.961 . S
C655 H643 0.959 . S
C655 C653 1.561 1_554 S
C656 C653 1.526 . S
C656 C657 1.396 1_556 S
C656 C661 1.390 . S
C657 C651 1.465 . S
C657 C656 1.396 1_554 S
C657 C658 1.399 1_545 S
C658 H644 0.929 . S
C658 C657 1.399 1_565 S
C658 C659 1.385 1_554 S
C659 H645 0.931 . S
C659 C658 1.385 1_556 S
C659 C660 1.389 1_565 S
C660 C659 1.389 1_545 S
C660 C661 1.387 . S
C661 H646 0.930 . S
C661 C656 1.390 . S
C661 C660 1.387 . S
H662 C674 0.930 . S
H663 C676 0.930 . S
H664 C677 0.930 1_556 S
H665 C681 0.959 . S
H666 C681 0.959 . S
H667 C681 0.961 . S
H668 C682 0.960 . S
H669 C682 0.961 . S
H670 C682 0.959 . S
H671 C685 0.929 . S
H672 C686 0.931 . S
H673 C688 0.930 1_554 S
C674 H662 0.930 . S
C674 C675 1.399 . S
C674 C679 1.399 . S
C675 C674 1.399 . S
C675 C676 1.376 . S
C676 H663 0.930 . S
C676 C675 1.376 . S
C676 C677 1.388 . S
C677 H664 0.930 1_554 S
C677 C676 1.388 . S
C677 C678 1.390 . S
C678 C677 1.390 . S
C678 C679 1.394 . S
C678 C684 1.465 1_554 S
C679 C674 1.399 . S
C679 C678 1.394 . S
C679 C680 1.516 . S
C680 C679 1.516 . S
C680 C681 1.502 . S
C680 C682 1.561 . S
C680 C683 1.526 . S
C681 H665 0.959 . S
C681 H666 0.959 . S
C681 H667 0.961 . S
C681 C680 1.502 . S
C682 H668 0.960 . S
C682 H669 0.961 . S
C682 H670 0.959 . S
C682 C680 1.561 . S
C683 C680 1.526 . S
C683 C684 1.396 1_554 S
C683 C688 1.390 1_554 S
C684 C678 1.465 1_556 S
C684 C683 1.396 1_556 S
C684 C685 1.399 . S
C685 H671 0.929 . S
C685 C684 1.399 . S
C685 C686 1.385 . S
C686 H672 0.931 . S
C686 C685 1.385 . S
C686 C687 1.389 . S
C687 C686 1.389 . S
C687 C688 1.387 . S
C688 H673 0.930 1_556 S
C688 C683 1.390 1_556 S
C688 C687 1.387 . S
H689 C701 0.930 . S
H690 C703 0.930 . S
H691 C704 0.930 . S
H692 C708 0.959 . S
H693 C708 0.959 . S
H694 C708 0.961 . S
H695 C709 0.960 . S
H696 C709 0.961 . S
H697 C709 0.959 . S
H698 C712 0.929 . S
H699 C713 0.931 . S
H700 C715 0.930 . S
C701 H689 0.930 . S
C701 C702 1.399 . S
C701 C706 1.399 . S
C702 C701 1.399 . S
C702 C703 1.376 . S
C703 H690 0.930 . S
C703 C702 1.376 . S
C703 C704 1.388 . S
C704 H691 0.930 . S
C704 C703 1.388 . S
C704 C705 1.390 . S
C705 C704 1.390 . S
C705 C706 1.394 . S
C705 C711 1.465 . S
C706 C701 1.399 . S
C706 C705 1.394 . S
C706 C707 1.516 . S
C707 C706 1.516 . S
C707 C708 1.502 1_554 S
C707 C709 1.561 . S
C707 C710 1.526 1_554 S
C708 H692 0.959 . S
C708 H693 0.959 . S
C708 H694 0.961 . S
C708 C707 1.502 1_556 S
C709 H695 0.960 . S
C709 H696 0.961 . S
C709 H697 0.959 . S
C709 C707 1.561 . S
C710 C707 1.526 1_556 S
C710 C711 1.396 1_556 S
C710 C715 1.390 . S
C711 C705 1.465 . S
C711 C710 1.396 1_554 S
C711 C712 1.399 . S
C712 H698 0.929 . S
C712 C711 1.399 . S
C712 C713 1.385 1_554 S
C713 H699 0.931 . S
C713 C712 1.385 1_556 S
C713 C714 1.389 . S
C714 C713 1.389 . S
C714 C715 1.387 . S
C715 H700 0.930 . S
C715 C710 1.390 . S
C715 C714 1.387 . S
H716 C728 0.930 . S
H717 C730 0.930 . S
H718 C731 0.930 . S
H719 C735 0.959 . S
H720 C735 0.959 . S
H721 C735 0.961 . S
H722 C736 0.960 . S
H723 C736 0.961 . S
H724 C736 0.959 . S
H725 C739 0.929 . S
H726 C740 0.931 . S
H727 C742 0.930 . S
C728 H716 0.930 . S
C728 C729 1.399 . S
C728 C733 1.399 . S
C729 C728 1.399 . S
C729 C730 1.376 . S
C730 H717 0.930 . S
C730 C729 1.376 . S
C730 C731 1.388 . S
C731 H718 0.930 . S
C731 C730 1.388 . S
C731 C732 1.390 . S
C732 C731 1.390 . S
C732 C733 1.394 . S
C732 C738 1.465 . S
C733 C728 1.399 . S
C733 C732 1.394 . S
C733 C734 1.516 . S
C734 C733 1.516 . S
C734 C735 1.502 . S
C734 C736 1.561 1_655 S
C734 C737 1.526 . S
C735 H719 0.959 . S
C735 H720 0.959 . S
C735 H721 0.961 . S
C735 C734 1.502 . S
C736 H722 0.960 . S
C736 H723 0.961 . S
C736 H724 0.959 . S
C736 C734 1.561 1_455 S
C737 C734 1.526 . S
C737 C738 1.396 . S
C737 C742 1.390 . S
C738 C732 1.465 . S
C738 C737 1.396 . S
C738 C739 1.399 . S
C739 H725 0.929 . S
C739 C738 1.399 . S
C739 C740 1.385 . S
C740 H726 0.931 . S
C740 C739 1.385 . S
C740 C741 1.389 . S
C741 C740 1.389 . S
C741 C742 1.387 . S
C742 H727 0.930 . S
C742 C737 1.390 . S
C742 C741 1.387 . S
H743 C755 0.930 . S
H744 C757 0.930 . S
H745 C758 0.930 1_545 S
H746 C762 0.959 . S
H747 C762 0.959 . S
H748 C762 0.961 . S
H749 C763 0.960 . S
H750 C763 0.961 . S
H751 C763 0.959 . S
H752 C766 0.929 . S
H753 C767 0.931 . S
H754 C769 0.930 . S
C755 H743 0.930 . S
C755 C756 1.399 . S
C755 C760 1.399 . S
C756 C755 1.399 . S
C756 C757 1.376 . S
C757 H744 0.930 . S
C757 C756 1.376 . S
C757 C758 1.388 . S
C758 H745 0.930 1_565 S
C758 C757 1.388 . S
C758 C759 1.390 . S
C759 C758 1.390 . S
C759 C760 1.394 . S
C759 C765 1.465 . S
C760 C755 1.399 . S
C760 C759 1.394 . S
C760 C761 1.516 . S
C761 C760 1.516 . S
C761 C762 1.502 . S
C761 C763 1.561 . S
C761 C764 1.526 . S
C762 H746 0.959 . S
C762 H747 0.959 . S
C762 H748 0.961 . S
C762 C761 1.502 . S
C763 H749 0.960 . S
C763 H750 0.961 . S
C763 H751 0.959 . S
C763 C761 1.561 . S
C764 C761 1.526 . S
C764 C765 1.396 . S
C764 C769 1.390 . S
C765 C759 1.465 . S
C765 C764 1.396 . S
C765 C766 1.399 1_565 S
C766 H752 0.929 . S
C766 C765 1.399 1_545 S
C766 C767 1.385 . S
C767 H753 0.931 . S
C767 C766 1.385 . S
C767 C768 1.389 1_545 S
C768 C767 1.389 1_565 S
C768 C769 1.387 . S
C769 H754 0.930 . S
C769 C764 1.390 . S
C769 C768 1.387 . S
H770 C782 0.930 . S
H771 C784 0.930 . S
H772 C785 0.930 . S
H773 C789 0.959 . S
H774 C789 0.959 . S
H775 C789 0.961 . S
H776 C790 0.960 . S
H777 C790 0.961 . S
H778 C790 0.959 . S
H779 C793 0.929 . S
H780 C794 0.931 . S
H781 C796 0.930 . S
C782 H770 0.930 . S
C782 C783 1.399 . S
C782 C787 1.399 . S
C783 C782 1.399 . S
C783 C784 1.376 . S
C784 H771 0.930 . S
C784 C783 1.376 . S
C784 C785 1.388 . S
C785 H772 0.930 . S
C785 C784 1.388 . S
C785 C786 1.390 . S
C786 C785 1.390 . S
C786 C787 1.394 . S
C786 C792 1.465 . S
C787 C782 1.399 . S
C787 C786 1.394 . S
C787 C788 1.516 . S
C788 C787 1.516 . S
C788 C789 1.502 . S
C788 C790 1.561 . S
C788 C791 1.526 . S
C789 H773 0.959 . S
C789 H774 0.959 . S
C789 H775 0.961 . S
C789 C788 1.502 . S
C790 H776 0.960 . S
C790 H777 0.961 . S
C790 H778 0.959 . S
C790 C788 1.561 . S
C791 C788 1.526 . S
C791 C792 1.396 . S
C791 C796 1.390 . S
C792 C786 1.465 . S
C792 C791 1.396 . S
C792 C793 1.399 . S
C793 H779 0.929 . S
C793 C792 1.399 . S
C793 C794 1.385 . S
C794 H780 0.931 . S
C794 C793 1.385 . S
C794 C795 1.389 . S
C795 C794 1.389 . S
C795 C796 1.387 . S
C796 H781 0.930 . S
C796 C791 1.390 . S
C796 C795 1.387 . S
H797 C809 0.930 . S
H798 C811 0.930 . S
H799 C812 0.930 . S
H800 C816 0.959 . S
H801 C816 0.959 . S
H802 C816 0.961 . S
H803 C817 0.960 . S
H804 C817 0.961 . S
H805 C817 0.959 . S
H806 C820 0.929 . S
H807 C821 0.931 . S
H808 C823 0.930 . S
C809 H797 0.930 . S
C809 C810 1.399 . S
C809 C814 1.399 . S
C810 C809 1.399 . S
C810 C811 1.376 . S
C811 H798 0.930 . S
C811 C810 1.376 . S
C811 C812 1.388 . S
C812 H799 0.930 . S
C812 C811 1.388 . S
C812 C813 1.390 . S
C813 C812 1.390 . S
C813 C814 1.394 . S
C813 C819 1.465 . S
C814 C809 1.399 . S
C814 C813 1.394 . S
C814 C815 1.516 . S
C815 C814 1.516 . S
C815 C816 1.502 . S
C815 C817 1.561 . S
C815 C818 1.526 . S
C816 H800 0.959 . S
C816 H801 0.959 . S
C816 H802 0.961 . S
C816 C815 1.502 . S
C817 H803 0.960 . S
C817 H804 0.961 . S
C817 H805 0.959 . S
C817 C815 1.561 . S
C818 C815 1.526 . S
C818 C819 1.396 . S
C818 C823 1.390 . S
C819 C813 1.465 . S
C819 C818 1.396 . S
C819 C820 1.399 . S
C820 H806 0.929 . S
C820 C819 1.399 . S
C820 C821 1.385 . S
C821 H807 0.931 . S
C821 C820 1.385 . S
C821 C822 1.389 . S
C822 C821 1.389 . S
C822 C823 1.387 . S
C823 H808 0.930 . S
C823 C818 1.390 . S
C823 C822 1.387 . S
C189 C76 1.582 . S
C201 C97 1.604 . S
C228 C132 1.595 . S
C216 C88 1.505 . S
C255 C137 1.345 . S
C243 C52 1.307 . S
C282 C157 1.465 . S
C270 C64 1.403 . S
C309 C105 1.604 1_565 S
C297 C28 1.596 1_556 S
C324 C40 1.539 . S
C336 C122 1.593 . S
C351 C4 1.341 1_556 S
C363 C145 1.333 . S
C378 C16 1.449 . S
C390 C165 1.475 1_655 S
C417 C115 1.279 . S
C405 C69 1.273 . S
C444 C124 1.029 . S
C432 C81 0.999 . S
C471 C155 1.329 . S
C459 C93 1.317 . S
C486 C57 0.995 . S
C498 C175 0.964 . S
C513 C21 1.193 . S
C525 C104 1.209 1_655 S
C552 C135 0.980 1_565 S
C540 C33 0.929 1_556 S
C579 C144 1.348 . S
C567 C45 1.310 1_556 S
C594 C9 1.026 1_556 S
C606 C164 1.031 . S
C621 C66 1.469 . S
C633 C102 1.489 . S
C648 C78 1.424 . S
C660 C125 1.502 . S
C687 C142 1.600 . S
C675 C90 1.564 . S
C714 C162 1.571 . S
C702 C54 1.536 . S
C729 C18 1.416 . S
C741 C112 1.447 . S
C768 C117 1.511 . S
C756 C30 1.466 . S
C795 C152 1.600 . S
C783 C42 1.560 . S
C810 C6 1.575 . S
C822 C172 1.595 . S
