# Generated by pormake.
# Topology tsx, (6,3)-cn, num edge types: 1
# Building blocks:
#     Node 0, Type 0, BuildingBlock: LEVNOQ01_clean_sbu_1, # of connection points: 6
#     Node 1, Type 0, BuildingBlock: LEVNOQ01_clean_sbu_1, # of connection points: 6
#     Node 2, Type 1, BuildingBlock: INOVEN_clean_linker_0, # of connection points: 3
#     Node 3, Type 1, BuildingBlock: INOVEN_clean_linker_0, # of connection points: 3
#     Node 4, Type 1, BuildingBlock: INOVEN_clean_linker_0, # of connection points: 3
#     Node 5, Type 1, BuildingBlock: INOVEN_clean_linker_0, # of connection points: 3
#     Edge 6, Type (0, 1), BuildingBlock: FUNLAD_clean_linker_0, # of connection points: 2
#     Edge 7, Type (0, 1), BuildingBlock: FUNLAD_clean_linker_0, # of connection points: 2
#     Edge 8, Type (0, 1), BuildingBlock: FUNLAD_clean_linker_0, # of connection points: 2
#     Edge 9, Type (0, 1), BuildingBlock: FUNLAD_clean_linker_0, # of connection points: 2
#     Edge 10, Type (0, 1), BuildingBlock: FUNLAD_clean_linker_0, # of connection points: 2
#     Edge 11, Type (0, 1), BuildingBlock: FUNLAD_clean_linker_0, # of connection points: 2
#     Edge 12, Type (0, 1), BuildingBlock: FUNLAD_clean_linker_0, # of connection points: 2
#     Edge 13, Type (0, 1), BuildingBlock: FUNLAD_clean_linker_0, # of connection points: 2
#     Edge 14, Type (0, 1), BuildingBlock: FUNLAD_clean_linker_0, # of connection points: 2
#     Edge 15, Type (0, 1), BuildingBlock: FUNLAD_clean_linker_0, # of connection points: 2
#     Edge 16, Type (0, 1), BuildingBlock: FUNLAD_clean_linker_0, # of connection points: 2
#     Edge 17, Type (0, 1), BuildingBlock: FUNLAD_clean_linker_0, # of connection points: 2
# Relax obj value: 0.091
# Max RMSD: 0.142
# Mean RMSD: 0.105
data_MOF--net-tsx--node1-LEVNOQ01_clean_sbu_1--node2-INOVEN_clean_linker_0--edge1-FUNLAD_clean_linker_0
_symmetry_space_group_name_H-M    P1
_symmetry_Int_Tables_number       1
_symmetry_cell_setting            triclinic
loop_
_symmetry_equiv_pos_as_xyz
'x, y, z'
_cell_length_a     21.595958
_cell_length_b     26.520144
_cell_length_c     39.772117
_cell_angle_alpha  96.997205
_cell_angle_beta   101.00327
_cell_angle_gamma 91.375035
loop_
_atom_site_label
_atom_site_type_symbol
_atom_site_fract_x
_atom_site_fract_y
_atom_site_fract_z
_atom_type_partial_charge
O0 O 0.15971 0.04265 0.08577 0.0
Mg1 Mg 0.19981 0.03312 0.04123 0.0
O2 O 0.06383 0.01439 0.05745 0.0
Mg3 Mg 0.0578 0.0152 -0.00196 0.0
O4 O 0.14562 0.06922 0.00473 0.0
O5 O 0.24583 0.09374 0.02703 0.0
O6 O 0.05195 0.01669 0.93926 0.0
O7 O 0.00778 0.09443 0.00479 0.0
Mg8 Mg 0.93535 0.01824 0.97208 0.0
O9 O 0.9711 0.95354 0.99012 0.0
O10 O 0.95349 0.0373 0.92457 0.0
O11 O 0.91044 0.07464 0.00778 0.0
O12 O 0.87128 0.95988 0.96194 0.0
C13 C 0.17083 0.927 0.00307 0.0
C14 C 0.10314 0.02846 0.08561 0.0
C15 C 0.19305 0.10133 0.00731 0.0
C16 C 1.00683 0.02937 0.91673 0.0
C17 C 0.95499 0.10767 0.01218 0.0
C18 C 0.9141 0.93359 0.97796 0.0
O19 O 0.21326 0.95798 0.02136 0.0
O20 O 0.11464 0.94084 -0.00697 0.0
O21 O 0.68391 0.52703 0.58518 0.0
Mg22 Mg 0.70971 0.53134 0.53679 0.0
O23 O 0.5815 0.51146 0.56405 0.0
Mg24 Mg 0.56143 0.51489 0.5047 0.0
O25 O 0.64512 0.5715 0.50819 0.0
O26 O 0.7462 0.59777 0.52471 0.0
O27 O 0.54156 0.51885 0.44547 0.0
O28 O 0.50852 0.59099 0.51473 0.0
Mg29 Mg 0.42898 0.51187 0.48356 0.0
O30 O 0.47915 0.45275 0.50104 0.0
O31 O 0.4386 0.52745 0.43391 0.0
O32 O 0.41249 0.57088 0.52021 0.0
O33 O 0.37397 0.44895 0.48131 0.0
C34 C 0.67575 0.43052 0.49462 0.0
C35 C 0.62831 0.51723 0.5895 0.0
C36 C 0.68982 0.60535 0.50906 0.0
C37 C 0.49113 0.52549 0.42418 0.0
C38 C 0.45641 0.60415 0.52304 0.0
C39 C 0.42451 0.42786 0.49457 0.0
O40 O 0.72108 0.46253 0.50745 0.0
O41 O 0.61831 0.44166 0.49406 0.0
H42 H 0.0816 0.97269 0.48203 0.0
H43 H 0.15329 0.91571 0.39094 0.0
H44 H 0.01832 0.03167 0.38642 0.0
N45 N 0.01181 0.04255 0.45275 0.0
N46 N 0.00981 0.08643 0.44456 0.0
C47 C 0.08304 0.9723 0.45494 0.0
C48 C 0.12248 0.93939 0.4391 0.0
C49 C 0.04689 0.00633 0.43615 0.0
C50 C 0.04749 0.00596 0.401 0.0
C51 C 0.08459 0.97256 0.38443 0.0
C52 C 0.12232 0.93962 0.40358 0.0
H53 H 0.98387 0.00306 0.50511 0.0
H54 H 0.90419 0.97792 0.59327 0.0
H55 H 0.07639 0.06881 0.60686 0.0
N56 N 0.08322 0.05995 0.53937 0.0
N57 N 0.13231 0.0814 0.55778 0.0
C58 C 0.98551 0.0088 0.53262 0.0
C59 C 0.93732 0.98708 0.54632 0.0
C60 C 0.03605 0.03777 0.55421 0.0
C61 C 0.03813 0.04561 0.59002 0.0
C62 C 0.99012 0.02485 0.60417 0.0
C63 C 0.93998 -0.0044 0.58219 0.0
H64 H 0.59842 0.49101 -0.00651 0.0
H65 H 0.6895 0.44663 0.90783 0.0
H66 H 0.53099 0.5418 0.8951 0.0
N67 N 0.51069 0.54474 0.95979 0.0
N68 N 0.46345 0.55884 0.94053 0.0
C69 C 0.60201 0.49179 0.9668 0.0
C70 C 0.64976 0.46571 0.9534 0.0
C71 C 0.5584 0.51849 0.94576 0.0
C72 C 0.56342 0.51996 0.91118 0.0
C73 C 0.61123 0.49487 0.89749 0.0
C74 C 0.65404 0.4677 0.91873 0.0
H75 H 0.5017 0.50076 0.01653 0.0
H76 H 0.42112 0.48237 0.10569 0.0
H77 H 0.59205 0.57321 0.11701 0.0
N78 N 0.5961 0.56538 0.04954 0.0
N79 N 0.64582 0.58576 0.068 0.0
C80 C 0.50201 0.50902 0.04383 0.0
C81 C 0.45586 0.4858 0.05845 0.0
C82 C 0.55054 0.54138 0.0647 0.0
C83 C 0.55349 0.54985 0.1006 0.0
C84 C 0.50773 0.52771 0.11559 0.0
C85 C 0.45799 0.49747 0.09418 0.0
C86 C 0.23579 0.16354 0.97497 0.0
C87 C 0.18774 0.14871 0.9915 0.0
C88 C 0.24605 0.21466 0.97133 0.0
C89 C 0.20891 0.25199 0.9848 0.0
C90 C 0.1568 0.23617 -0.0019 0.0
C91 C 0.14625 0.18486 0.00138 0.0
C92 C 0.232 0.30624 -0.00679 0.0
C93 C 0.27746 0.32725 0.97958 0.0
C94 C 0.31916 0.37036 -0.00052 0.0
C95 C 0.34017 0.4098 0.98323 0.0
C96 C 0.38349 0.44814 0.00222 0.0
C97 C 0.40805 0.44669 0.03759 0.0
H98 H 0.33033 0.33789 0.04759 0.0
C99 C 0.3878 0.40604 0.05324 0.0
C100 C 0.34355 0.36898 0.03464 0.0
H101 H 0.40727 0.40169 0.07983 0.0
H102 H 0.26897 0.13625 0.96765 0.0
H103 H 0.28713 0.22496 0.96132 0.0
H104 H 0.12769 0.26402 0.00893 0.0
H105 H 0.11037 0.17446 0.01527 0.0
H106 H 0.21784 0.32758 0.01543 0.0
H107 H 0.28954 0.30935 0.95581 0.0
H108 H 0.32288 0.41107 0.95594 0.0
H109 H 0.39757 0.47873 0.98915 0.0
C110 C 0.24478 0.85718 0.01237 0.0
C111 C 0.18812 0.87395 -0.00565 0.0
C112 C 0.2642 0.80842 0.00387 0.0
C113 C 0.22737 0.77474 0.97711 0.0
C114 C 0.1703 0.79111 0.95923 0.0
C115 C 0.15042 0.84014 0.968 0.0
C116 C 0.25126 0.72486 0.96525 0.0
C117 C 0.2919 0.69936 0.98649 0.0
C118 C 0.33012 0.65704 0.97475 0.0
C119 C 0.38105 0.64238 -0.00124 0.0
C120 C 0.42413 0.60834 0.98818 0.0
C121 C 0.41675 0.58804 0.95328 0.0
H122 H 0.28197 0.64293 0.9208 0.0
C123 C 0.36419 0.60015 0.92968 0.0
C124 C 0.32103 0.63411 0.94018 0.0
H125 H 0.35776 0.58444 0.90273 0.0
H126 H 0.27504 0.88207 0.0329 0.0
H127 H 0.30953 0.79822 0.01749 0.0
H128 H 0.14148 0.76615 0.93816 0.0
H129 H 0.10659 0.85196 0.95361 0.0
H130 H 0.2376 0.7112 0.93797 0.0
H131 H 0.30192 0.7129 0.01397 0.0
H132 H 0.38925 0.65905 0.02558 0.0
H133 H 0.46438 0.59965 0.00699 0.0
C134 C 0.92656 0.85624 0.00932 0.0
C135 C 0.89663 0.88052 0.98156 0.0
C136 C 0.90341 0.80828 0.01422 0.0
C137 C 0.85043 0.78376 0.99114 0.0
C138 C 0.82357 0.80681 0.96227 0.0
C139 C 0.84591 0.85473 0.95771 0.0
C140 C 0.8193 0.7357 -0.00318 0.0
C141 C 0.81808 0.72321 0.02851 0.0
C142 C 0.7765 0.6816 0.03557 0.0
C143 C 0.78793 0.66695 0.06886 0.0
C144 C 0.74574 0.63343 0.07852 0.0
C145 C 0.69113 0.61377 0.05527 0.0
H146 H 0.71088 0.67089 0.98591 0.0
C147 C 0.68035 0.62636 0.02139 0.0
C148 C 0.72262 0.66012 0.01162 0.0
H149 H 0.63816 0.61193 0.00299 0.0
H150 H 0.96608 0.87509 0.02791 0.0
H151 H 0.92659 0.79092 0.03623 0.0
H152 H 0.78327 0.78867 0.94389 0.0
H153 H 0.82245 0.87208 0.93571 0.0
H154 H 0.79143 0.71297 0.97425 0.0
H155 H 0.84592 0.74651 0.05089 0.0
H156 H 0.82863 0.68284 0.08791 0.0
H157 H 0.75446 0.6242 0.10476 0.0
C158 C 0.89388 0.17506 0.03851 0.0
C159 C 0.94144 0.1617 0.0199 0.0
C160 C 0.87211 0.22431 0.04038 0.0
C161 C 0.89676 0.26101 0.02308 0.0
C162 C 0.9476 0.24859 0.00671 0.0
C163 C 0.96953 0.19932 0.00496 0.0
C164 C 0.8676 0.31078 0.01897 0.0
C165 C 0.80567 0.3174 0.01865 0.0
C166 C 0.77067 0.3617 0.00655 0.0
C167 C 0.70771 0.36566 0.01075 0.0
C168 C 0.6693 0.40127 -0.00496 0.0
C169 C 0.69295 0.43374 0.97459 0.0
H170 H 0.84318 0.39486 0.98338 0.0
C171 C 0.75692 0.43196 0.97203 0.0
C172 C 0.79536 0.39633 0.98771 0.0
H173 H 0.77681 0.45707 0.95689 0.0
H174 H 0.87191 0.14686 0.05061 0.0
H175 H 0.83481 0.23287 0.05457 0.0
H176 H 0.96786 0.27615 -0.00662 0.0
H177 H 1.00524 0.18986 0.98981 0.0
H178 H 0.89669 0.34057 0.01245 0.0
H179 H 0.77711 0.28692 0.02485 0.0
H180 H 0.68721 0.33959 0.02505 0.0
H181 H 0.62016 0.4014 -0.00259 0.0
C182 C 0.7184 0.66825 0.47318 0.0
C183 C 0.67866 0.65327 0.49454 0.0
C184 C 0.72505 0.71924 0.46854 0.0
C185 C 0.69242 0.75649 0.48567 0.0
C186 C 0.64798 0.7404 0.50433 0.0
C187 C 0.6412 0.68912 0.50878 0.0
C188 C 0.71289 0.81146 0.4908 0.0
C189 C 0.75293 0.8316 0.47321 0.0
C190 C 0.79463 0.87764 0.48777 0.0
C191 C 0.85498 0.8802 0.47959 0.0
C192 C 0.90049 0.91718 0.49748 0.0
C193 C 0.88637 0.95289 0.52376 0.0
H194 H 0.73214 0.91631 0.51821 0.0
C195 C 0.82435 0.95294 0.52995 0.0
C196 C 0.77888 0.91576 0.51214 0.0
H197 H 0.81138 0.98095 0.54926 0.0
H198 H 0.74835 0.6411 0.46236 0.0
H199 H 0.7603 0.72915 0.45421 0.0
H200 H 0.62231 0.76805 0.51792 0.0
H201 H 0.6116 0.67846 0.52616 0.0
H202 H 0.70194 0.83382 0.51347 0.0
H203 H 0.76332 0.80979 0.45024 0.0
H204 H 0.86837 0.85155 0.46079 0.0
H205 H 0.94771 0.91586 0.49201 0.0
C206 C 0.74264 0.37461 0.4643 0.0
C207 C 0.6923 0.3792 0.4819 0.0
C208 C 0.77076 0.32836 0.45962 0.0
C209 C 0.74998 0.28585 0.47313 0.0
C210 C 0.69577 0.28902 0.48784 0.0
C211 C 0.66699 0.33566 0.49229 0.0
C212 C 0.78706 0.23945 0.47328 0.0
C213 C 0.85068 0.24371 0.47997 0.0
C214 C 0.89243 0.20135 0.47433 0.0
C215 C 0.95003 0.21318 0.46502 0.0
C216 C 0.98918 0.17483 0.45641 0.0
C217 C 0.97265 0.1241 0.45792 0.0
H218 H 0.8329 0.14021 0.48474 0.0
C219 C 0.91672 0.11187 0.46903 0.0
C220 C 0.87641 0.15038 0.47695 0.0
H221 H 0.90301 0.07266 0.47017 0.0
H222 H 0.7624 0.40756 0.45566 0.0
H223 H 0.81065 0.3265 0.4467 0.0
H224 H 0.6782 0.25642 0.4978 0.0
H225 H 0.62823 0.3385 0.50605 0.0
H226 H 0.76213 0.20245 0.46721 0.0
H227 H 0.87375 0.28148 0.48685 0.0
H228 H 0.96366 0.25213 0.46301 0.0
H229 H 0.03205 0.18458 0.44775 0.0
C230 C 0.3812 0.34024 0.47371 0.0
C231 C 0.41883 0.3742 0.49981 0.0
C232 C 0.36452 0.29169 0.47996 0.0
C233 C 0.38335 0.27668 0.51301 0.0
C234 C 0.42547 0.30931 0.53823 0.0
C235 C 0.44339 0.35776 0.53164 0.0
C236 C 0.35578 0.22992 0.52299 0.0
C237 C 0.29995 0.20726 0.50599 0.0
C238 C 0.26353 0.16835 0.51922 0.0
C239 C 0.21304 0.14075 0.49623 0.0
C240 C 0.17092 0.10999 0.50835 0.0
C241 C 0.17841 0.10654 0.54385 0.0
H242 H 0.30965 0.18403 0.57337 0.0
C243 C 0.23026 0.13199 0.56661 0.0
C244 C 0.27248 0.16275 0.55457 0.0
H245 H 0.2364 0.12979 0.59406 0.0
H246 H 0.36287 0.35192 0.44867 0.0
H247 H 0.33518 0.26705 0.45903 0.0
H248 H 0.44167 0.29849 0.56374 0.0
H249 H 0.47273 0.38345 0.55208 0.0
H250 H 0.3793 0.21701 0.54681 0.0
H251 H 0.2764 0.22001 0.48216 0.0
H252 H 0.20475 0.14444 0.46891 0.0
H253 H 0.13144 0.09053 0.49015 0.0
C254 C 0.39006 0.67335 0.54248 0.0
C255 C 0.44033 0.65808 0.52641 0.0
C256 C 0.36197 0.71937 0.53702 0.0
C257 C 0.38357 0.7508 0.51516 0.0
C258 C 0.43725 0.73749 0.50159 0.0
C259 C 0.46557 0.69168 0.50726 0.0
C260 C 0.34515 0.79184 0.50102 0.0
C261 C 0.30092 0.81529 0.51603 0.0
C262 C 0.25462 0.84684 0.49673 0.0
C263 C 0.23816 0.89325 0.51273 0.0
C264 C 0.19492 0.92323 0.49423 0.0
C265 C 0.16591 0.90655 0.45964 0.0
H266 H 0.23524 0.79306 0.44996 0.0
C267 C 0.18071 0.85883 0.44434 0.0
C268 C 0.22492 0.8296 0.46253 0.0
H269 H 0.1581 0.84381 0.41823 0.0
H270 H 0.36949 0.648 0.55722 0.0
H271 H 0.32025 0.72782 0.54759 0.0
H272 H 0.45469 0.76087 0.48454 0.0
H273 H 0.5032 0.6805 0.49386 0.0
H274 H 0.3508 0.80094 0.47579 0.0
H275 H 0.29764 0.81082 0.54241 0.0
H276 H 0.26003 0.90694 0.53922 0.0
H277 H 0.18552 0.95997 0.50687 0.0
C278 C 0.05078 0.9857 0.12622 0.0
C279 C 0.08385 0.02808 0.11907 0.0
C280 C 0.04105 0.9829 0.15979 0.0
C281 C 0.06298 0.02308 0.18625 0.0
C282 C 0.09253 0.06658 0.17842 0.0
C283 C 0.10386 0.06872 0.14528 0.0
C284 C 0.05763 0.02068 0.22253 0.0
C285 C 0.06984 0.97861 0.23805 0.0
C286 C 0.07492 0.97782 0.27586 0.0
C287 C 0.07092 0.93086 0.28853 0.0
C288 C 0.07573 0.92877 0.32394 0.0
C289 C 0.0846 0.97369 0.3473 0.0
H290 H 0.09297 0.05941 0.29151 0.0
C291 C 0.09066 0.02045 0.33482 0.0
C292 C 0.08635 0.02256 0.29962 0.0
H293 H 0.09894 0.05558 0.35241 0.0
H294 H 0.03512 0.9539 0.10631 0.0
H295 H 0.017 0.94932 0.16509 0.0
H296 H 0.10933 0.09813 0.19837 0.0
H297 H 0.12924 0.10186 0.14023 0.0
H298 H 0.04912 0.05608 0.23729 0.0
H299 H 0.07831 0.94361 0.22268 0.0
H300 H 0.06323 0.89573 0.27095 0.0
H301 H 0.07089 0.8922 0.33295 0.0
C302 C 0.96356 0.04466 0.85621 0.0
C303 C 0.01504 0.03305 0.88099 0.0
C304 C 0.96928 0.04564 0.82197 0.0
C305 C 0.02705 0.03562 0.81163 0.0
C306 C 0.07871 0.02439 0.83646 0.0
C307 C 0.07291 0.02328 0.87084 0.0
C308 C 0.0337 0.0332 0.77491 0.0
C309 C 0.9945 0.05579 0.75124 0.0
C310 C 0.99579 0.04862 0.71378 0.0
C311 C 0.93983 0.05454 0.6903 0.0
C312 C 0.93799 0.04676 0.65478 0.0
C313 C 0.99242 0.03351 0.64194 0.0
H314 H 0.09515 0.03269 0.7182 0.0
C315 C 0.04892 0.02873 0.66538 0.0
C316 C 0.05067 0.0362 0.70097 0.0
H317 H 0.09162 0.01857 0.6562 0.0
H318 H 0.91809 0.05198 0.86302 0.0
H319 H 0.92746 0.0526 0.8037 0.0
H320 H 0.12359 0.01603 0.82919 0.0
H321 H 0.11346 0.01407 0.88929 0.0
H322 H 0.07114 0.0107 0.76719 0.0
H323 H 0.95743 0.07866 0.75901 0.0
H324 H 0.89702 0.06453 0.69946 0.0
H325 H 0.89404 0.05148 0.63733 0.0
C326 C 0.67107 0.51085 0.6517 0.0
C327 C 0.61861 0.51158 0.62474 0.0
C328 C 0.66298 0.50523 0.685 0.0
C329 C 0.60204 0.50094 0.69238 0.0
C330 C 0.54955 0.50077 0.66535 0.0
C331 C 0.55767 0.50614 0.63185 0.0
C332 C 0.59177 0.49513 0.72767 0.0
C333 C 0.6347 0.51165 0.75652 0.0
C334 C 0.6267 0.5055 0.79212 0.0
C335 C 0.68073 0.50992 0.81851 0.0
C336 C 0.67583 0.50575 0.85256 0.0
C337 C 0.61657 0.49744 0.86108 0.0
H338 H 0.5242 0.49464 0.78138 0.0
C339 C 0.56238 0.49297 0.83473 0.0
C340 C 0.56726 0.49706 0.80062 0.0
H341 H 0.51605 0.48629 0.84048 0.0
H342 H 0.71875 0.51403 0.64708 0.0
H343 H 0.70483 0.50332 0.70458 0.0
H344 H 0.50208 0.4969 0.6702 0.0
H345 H 0.51625 0.50622 0.61161 0.0
H346 H 0.54722 0.47704 0.72957 0.0
H347 H 0.67869 0.53039 0.75432 0.0
H348 H 0.72707 0.51679 0.81279 0.0
H349 H 0.71837 0.51009 0.87235 0.0
C350 C 0.54935 0.53489 0.37599 0.0
C351 C 0.49228 0.52828 0.38739 0.0
C352 C 0.54931 0.5352 0.34078 0.0
C353 C 0.49218 0.52838 0.31645 0.0
C354 C 0.43544 0.52208 0.32795 0.0
C355 C 0.43535 0.52253 0.36299 0.0
C356 C 0.48987 0.52407 0.27878 0.0
C357 C 0.53129 0.54833 0.26425 0.0
C358 C 0.52606 0.54272 0.22625 0.0
C359 C 0.54145 0.58436 0.21028 0.0
C360 C 0.53488 0.57994 0.17433 0.0
C361 C 0.51375 0.53346 0.15376 0.0
H362 H 0.49587 0.46272 0.21741 0.0
C363 C 0.50006 0.49149 0.17002 0.0
C364 C 0.50606 0.49605 0.20579 0.0
H365 H 0.48562 0.45471 0.15514 0.0
H366 H 0.59396 0.53932 0.39419 0.0
H367 H 0.59402 0.5391 0.33261 0.0
H368 H 0.39089 0.51646 0.3097 0.0
H369 H 0.39052 0.5171 0.3708 0.0
H370 H 0.45022 0.50177 0.26221 0.0
H371 H 0.56724 0.57495 0.28021 0.0
H372 H 0.55735 0.62061 0.22556 0.0
H373 H 0.54565 0.61307 0.16264 0.0
loop_
_geom_bond_atom_site_label_1
_geom_bond_atom_site_label_2
_geom_bond_distance
_geom_bond_site_symmetry_2
_ccdc_geom_bond_type
O0 Mg1 1.990 . S
O0 C14 1.253 . S
Mg1 O0 1.990 . S
Mg1 O4 2.180 . S
Mg1 O5 2.117 . S
Mg1 O19 2.030 1_545 S
O2 Mg3 2.072 . S
O2 C14 1.260 . S
Mg3 O2 2.072 . S
Mg3 O4 2.099 . S
Mg3 O6 2.079 1_554 S
Mg3 O7 2.072 . S
Mg3 O9 2.099 1_444 S
Mg3 O20 2.078 1_544 S
O4 Mg1 2.180 . S
O4 Mg3 2.099 . S
O4 C15 1.279 . S
O5 Mg1 2.117 . S
O5 C15 1.250 . S
O6 Mg3 2.079 1_556 S
O6 C16 1.264 . S
O7 Mg3 2.072 . S
O7 C17 1.260 1_454 S
Mg8 O9 2.180 . S
Mg8 O10 2.030 1_565 S
Mg8 O11 1.990 1_565 S
Mg8 O12 2.117 . S
O9 Mg3 2.099 1_666 S
O9 Mg8 2.180 . S
O9 C18 1.279 . S
O10 Mg8 2.030 1_545 S
O10 C16 1.248 1_655 S
O11 Mg8 1.990 1_545 S
O11 C17 1.253 . S
O12 Mg8 2.117 . S
O12 C18 1.250 . S
C13 O19 1.248 . S
C13 O20 1.255 1_554 S
C14 O0 1.253 . S
C14 O2 1.260 . S
C15 O4 1.279 . S
C15 O5 1.250 . S
C16 O6 1.264 . S
C16 O10 1.248 1_455 S
C17 O7 1.260 1_656 S
C17 O11 1.253 . S
C18 O9 1.279 . S
C18 O12 1.250 . S
O19 Mg1 2.030 1_565 S
O19 C13 1.248 . S
O20 Mg3 2.078 1_566 S
O20 C13 1.255 1_556 S
O21 Mg22 1.990 . S
O21 C35 1.253 . S
Mg22 O21 1.990 . S
Mg22 O25 2.180 . S
Mg22 O26 2.117 . S
Mg22 O40 2.030 . S
O23 Mg24 2.072 . S
O23 C35 1.260 . S
Mg24 O23 2.072 . S
Mg24 O25 2.099 . S
Mg24 O27 2.079 . S
Mg24 O28 2.072 . S
Mg24 O30 2.099 . S
Mg24 O41 2.079 . S
O25 Mg22 2.180 . S
O25 Mg24 2.099 . S
O25 C36 1.279 . S
O26 Mg22 2.117 . S
O26 C36 1.250 . S
O27 Mg24 2.079 . S
O27 C37 1.264 . S
O28 Mg24 2.072 . S
O28 C38 1.260 . S
Mg29 O30 2.180 . S
Mg29 O31 2.030 . S
Mg29 O32 1.990 . S
Mg29 O33 2.117 . S
O30 Mg24 2.099 . S
O30 Mg29 2.180 . S
O30 C39 1.279 . S
O31 Mg29 2.030 . S
O31 C37 1.248 . S
O32 Mg29 1.990 . S
O32 C38 1.253 . S
O33 Mg29 2.117 . S
O33 C39 1.250 . S
C34 O40 1.248 . S
C34 O41 1.264 . S
C35 O21 1.253 . S
C35 O23 1.260 . S
C36 O25 1.279 . S
C36 O26 1.250 . S
C37 O27 1.264 . S
C37 O31 1.248 . S
C38 O28 1.260 . S
C38 O32 1.253 . S
C39 O30 1.279 . S
C39 O33 1.250 . S
O40 Mg22 2.030 . S
O40 C34 1.248 . S
O41 Mg24 2.079 . S
O41 C34 1.264 . S
H42 C47 0.929 . S
H43 C52 0.931 . S
H44 C50 0.930 . S
N45 N46 1.234 1_455 S
N45 C49 1.453 . S
N46 N45 1.234 1_655 S
C47 H42 0.929 . S
C47 C48 1.373 . S
C47 C49 1.368 1_565 S
C48 C47 1.373 . S
C48 C52 1.397 . S
C49 N45 1.453 . S
C49 C47 1.368 1_545 S
C49 C50 1.373 . S
C50 H44 0.930 . S
C50 C49 1.373 . S
C50 C51 1.371 1_545 S
C51 C50 1.371 1_565 S
C51 C52 1.383 . S
C52 H43 0.931 . S
C52 C48 1.397 . S
C52 C51 1.383 . S
H53 C58 0.929 . S
H54 C63 0.931 1_565 S
H55 C61 0.930 . S
N56 N57 1.234 . S
N56 C60 1.453 . S
N57 N56 1.234 . S
C58 H53 0.929 . S
C58 C59 1.373 . S
C58 C60 1.368 1_655 S
C59 C58 1.373 . S
C59 C63 1.397 . S
C60 N56 1.453 . S
C60 C58 1.368 1_455 S
C60 C61 1.373 . S
C61 H55 0.930 . S
C61 C60 1.373 . S
C61 C62 1.371 1_455 S
C62 C61 1.371 1_655 S
C62 C63 1.383 . S
C63 H54 0.931 1_545 S
C63 C59 1.397 . S
C63 C62 1.383 . S
H64 C69 0.929 . S
H65 C74 0.931 . S
H66 C72 0.930 . S
N67 N68 1.234 . S
N67 C71 1.453 . S
N68 N67 1.234 . S
C69 H64 0.929 . S
C69 C70 1.373 . S
C69 C71 1.368 . S
C70 C69 1.373 . S
C70 C74 1.397 . S
C71 N67 1.453 . S
C71 C69 1.368 . S
C71 C72 1.373 . S
C72 H66 0.930 . S
C72 C71 1.373 . S
C72 C73 1.371 . S
C73 C72 1.371 . S
C73 C74 1.383 . S
C74 H65 0.931 . S
C74 C70 1.397 . S
C74 C73 1.383 . S
H75 C80 0.929 . S
H76 C85 0.931 . S
H77 C83 0.930 . S
N78 N79 1.234 . S
N78 C82 1.453 . S
N79 N78 1.234 . S
C80 H75 0.929 . S
C80 C81 1.373 . S
C80 C82 1.368 . S
C81 C80 1.373 . S
C81 C85 1.397 . S
C82 N78 1.453 . S
C82 C80 1.368 . S
C82 C83 1.373 . S
C83 H77 0.930 . S
C83 C82 1.373 . S
C83 C84 1.371 . S
C84 C83 1.371 . S
C84 C85 1.383 . S
C85 H76 0.931 . S
C85 C81 1.397 . S
C85 C84 1.383 . S
C86 C87 1.386 1_556 S
C86 C88 1.383 1_556 S
C86 H102 0.951 . S
C87 C86 1.386 1_554 S
C87 C91 1.383 . S
C88 C86 1.383 1_554 S
C88 C89 1.402 . S
C88 H103 0.951 1_554 S
C89 C88 1.402 . S
C89 C90 1.375 . S
C89 C92 1.481 . S
C90 C89 1.375 . S
C90 C91 1.367 . S
C90 H104 0.951 . S
C91 C87 1.383 . S
C91 C90 1.367 . S
C91 H105 0.950 . S
C92 C89 1.481 . S
C92 C93 1.297 . S
C92 H106 0.950 . S
C93 C92 1.297 . S
C93 C94 1.479 . S
C93 H107 0.950 . S
C94 C93 1.479 . S
C94 C95 1.375 . S
C94 C100 1.404 . S
C95 C94 1.375 . S
C95 C96 1.369 . S
C95 H108 0.950 1_554 S
C96 C95 1.369 . S
C96 C97 1.392 . S
C96 H109 0.951 1_554 S
C97 C96 1.392 . S
C97 C99 1.384 . S
H98 C100 0.949 . S
C99 C97 1.384 . S
C99 C100 1.385 . S
C99 H101 0.950 . S
C100 C94 1.404 . S
C100 H98 0.949 . S
C100 C99 1.385 . S
H101 C99 0.950 . S
H102 C86 0.951 . S
H103 C88 0.951 1_556 S
H104 C90 0.951 . S
H105 C91 0.950 . S
H106 C92 0.950 . S
H107 C93 0.950 . S
H108 C95 0.950 1_556 S
H109 C96 0.951 1_556 S
C110 C111 1.386 . S
C110 C112 1.383 . S
C110 H126 0.951 . S
C111 C110 1.386 . S
C111 C115 1.383 1_554 S
C112 C110 1.383 . S
C112 C113 1.402 1_554 S
C112 H127 0.951 . S
C113 C112 1.402 1_556 S
C113 C114 1.375 . S
C113 C116 1.481 . S
C114 C113 1.375 . S
C114 C115 1.367 . S
C114 H128 0.951 . S
C115 C111 1.383 1_556 S
C115 C114 1.367 . S
C115 H129 0.950 . S
C116 C113 1.481 . S
C116 C117 1.297 1_556 S
C116 H130 0.950 . S
C117 C116 1.297 1_554 S
C117 C118 1.479 . S
C117 H131 0.950 . S
C118 C117 1.479 . S
C118 C119 1.375 . S
C118 C124 1.404 1_554 S
C119 C118 1.375 . S
C119 C120 1.369 . S
C119 H132 0.950 . S
C120 C119 1.369 . S
C120 C121 1.392 1_554 S
C120 H133 0.951 . S
C121 C120 1.392 1_556 S
C121 C123 1.384 . S
H122 C124 0.949 . S
C123 C121 1.384 . S
C123 C124 1.385 . S
C123 H125 0.950 . S
C124 C118 1.404 1_556 S
C124 H122 0.949 . S
C124 C123 1.385 . S
H125 C123 0.950 . S
H126 C110 0.951 . S
H127 C112 0.951 . S
H128 C114 0.951 . S
H129 C115 0.950 . S
H130 C116 0.950 . S
H131 C117 0.950 . S
H132 C119 0.950 . S
H133 C120 0.951 . S
C134 C135 1.386 . S
C134 C136 1.383 . S
C134 H150 0.951 . S
C135 C134 1.386 . S
C135 C139 1.383 1_554 S
C136 C134 1.383 . S
C136 C137 1.402 . S
C136 H151 0.951 . S
C137 C136 1.402 . S
C137 C138 1.375 1_554 S
C137 C140 1.481 . S
C138 C137 1.375 1_556 S
C138 C139 1.367 . S
C138 H152 0.951 . S
C139 C135 1.383 1_556 S
C139 C138 1.367 . S
C139 H153 0.950 . S
C140 C137 1.481 . S
C140 C141 1.297 . S
C140 H154 0.950 1_554 S
C141 C140 1.297 . S
C141 C142 1.479 . S
C141 H155 0.950 . S
C142 C141 1.479 . S
C142 C143 1.375 . S
C142 C148 1.404 . S
C143 C142 1.375 . S
C143 C144 1.369 . S
C143 H156 0.950 . S
C144 C143 1.369 . S
C144 C145 1.392 . S
C144 H157 0.951 . S
C145 C144 1.392 . S
C145 C147 1.384 . S
H146 C148 0.949 . S
C147 C145 1.384 . S
C147 C148 1.385 . S
C147 H149 0.950 . S
C148 C142 1.404 . S
C148 H146 0.949 . S
C148 C147 1.385 . S
H149 C147 0.950 . S
H150 C134 0.951 . S
H151 C136 0.951 . S
H152 C138 0.951 . S
H153 C139 0.950 . S
H154 C140 0.950 1_556 S
H155 C141 0.950 . S
H156 C143 0.950 . S
H157 C144 0.951 . S
C158 C159 1.386 1_554 S
C158 C160 1.383 . S
C158 H174 0.951 . S
C159 C158 1.386 1_556 S
C159 C163 1.383 . S
C160 C158 1.383 . S
C160 C161 1.402 1_554 S
C160 H175 0.951 . S
C161 C160 1.402 1_556 S
C161 C162 1.375 . S
C161 C164 1.481 . S
C162 C161 1.375 . S
C162 C163 1.367 . S
C162 H176 0.951 . S
C163 C159 1.383 . S
C163 C162 1.367 . S
C163 H177 0.950 . S
C164 C161 1.481 . S
C164 C165 1.297 . S
C164 H178 0.950 . S
C165 C164 1.297 . S
C165 C166 1.479 . S
C165 H179 0.950 1_556 S
C166 C165 1.479 . S
C166 C167 1.375 1_556 S
C166 C172 1.404 . S
C167 C166 1.375 1_554 S
C167 C168 1.369 1_554 S
C167 H180 0.950 . S
C168 C167 1.369 1_556 S
C168 C169 1.392 . S
C168 H181 0.951 1_556 S
C169 C168 1.392 . S
C169 C171 1.384 . S
H170 C172 0.949 . S
C171 C169 1.384 . S
C171 C172 1.385 . S
C171 H173 0.950 . S
C172 C166 1.404 . S
C172 H170 0.949 . S
C172 C171 1.385 . S
H173 C171 0.950 . S
H174 C158 0.951 . S
H175 C160 0.951 . S
H176 C162 0.951 . S
H177 C163 0.950 . S
H178 C164 0.950 . S
H179 C165 0.950 1_554 S
H180 C167 0.950 . S
H181 C168 0.951 1_554 S
C182 C183 1.386 . S
C182 C184 1.383 . S
C182 H198 0.951 . S
C183 C182 1.386 . S
C183 C187 1.383 . S
C184 C182 1.383 . S
C184 C185 1.402 . S
C184 H199 0.951 . S
C185 C184 1.402 . S
C185 C186 1.375 . S
C185 C188 1.481 . S
C186 C185 1.375 . S
C186 C187 1.367 . S
C186 H200 0.951 . S
C187 C183 1.383 . S
C187 C186 1.367 . S
C187 H201 0.950 . S
C188 C185 1.481 . S
C188 C189 1.297 . S
C188 H202 0.950 . S
C189 C188 1.297 . S
C189 C190 1.479 . S
C189 H203 0.950 . S
C190 C189 1.479 . S
C190 C191 1.375 . S
C190 C196 1.404 . S
C191 C190 1.375 . S
C191 C192 1.369 . S
C191 H204 0.950 . S
C192 C191 1.369 . S
C192 C193 1.392 . S
C192 H205 0.951 . S
C193 C192 1.392 . S
C193 C195 1.384 . S
H194 C196 0.949 . S
C195 C193 1.384 . S
C195 C196 1.385 . S
C195 H197 0.950 . S
C196 C190 1.404 . S
C196 H194 0.949 . S
C196 C195 1.385 . S
H197 C195 0.950 . S
H198 C182 0.951 . S
H199 C184 0.951 . S
H200 C186 0.951 . S
H201 C187 0.950 . S
H202 C188 0.950 . S
H203 C189 0.950 . S
H204 C191 0.950 . S
H205 C192 0.951 . S
C206 C207 1.386 . S
C206 C208 1.383 . S
C206 H222 0.951 . S
C207 C206 1.386 . S
C207 C211 1.383 . S
C208 C206 1.383 . S
C208 C209 1.402 . S
C208 H223 0.951 . S
C209 C208 1.402 . S
C209 C210 1.375 . S
C209 C212 1.481 . S
C210 C209 1.375 . S
C210 C211 1.367 . S
C210 H224 0.951 . S
C211 C207 1.383 . S
C211 C210 1.367 . S
C211 H225 0.950 . S
C212 C209 1.481 . S
C212 C213 1.297 . S
C212 H226 0.950 . S
C213 C212 1.297 . S
C213 C214 1.479 . S
C213 H227 0.950 . S
C214 C213 1.479 . S
C214 C215 1.375 . S
C214 C220 1.404 . S
C215 C214 1.375 . S
C215 C216 1.369 . S
C215 H228 0.950 . S
C216 C215 1.369 . S
C216 C217 1.392 . S
C216 H229 0.951 . S
C217 C216 1.392 . S
C217 C219 1.384 . S
H218 C220 0.949 . S
C219 C217 1.384 . S
C219 C220 1.385 . S
C219 H221 0.950 . S
C220 C214 1.404 . S
C220 H218 0.949 . S
C220 C219 1.385 . S
H221 C219 0.950 . S
H222 C206 0.951 . S
H223 C208 0.951 . S
H224 C210 0.951 . S
H225 C211 0.950 . S
H226 C212 0.950 . S
H227 C213 0.950 . S
H228 C215 0.950 . S
H229 C216 0.951 . S
C230 C231 1.386 . S
C230 C232 1.383 . S
C230 H246 0.951 . S
C231 C230 1.386 . S
C231 C235 1.383 . S
C232 C230 1.383 . S
C232 C233 1.402 . S
C232 H247 0.951 . S
C233 C232 1.402 . S
C233 C234 1.375 . S
C233 C236 1.481 . S
C234 C233 1.375 . S
C234 C235 1.367 . S
C234 H248 0.951 . S
C235 C231 1.383 . S
C235 C234 1.367 . S
C235 H249 0.950 . S
C236 C233 1.481 . S
C236 C237 1.297 . S
C236 H250 0.950 . S
C237 C236 1.297 . S
C237 C238 1.479 . S
C237 H251 0.950 . S
C238 C237 1.479 . S
C238 C239 1.375 . S
C238 C244 1.404 . S
C239 C238 1.375 . S
C239 C240 1.369 . S
C239 H252 0.950 . S
C240 C239 1.369 . S
C240 C241 1.392 . S
C240 H253 0.951 . S
C241 C240 1.392 . S
C241 C243 1.384 . S
H242 C244 0.949 . S
C243 C241 1.384 . S
C243 C244 1.385 . S
C243 H245 0.950 . S
C244 C238 1.404 . S
C244 H242 0.949 . S
C244 C243 1.385 . S
H245 C243 0.950 . S
H246 C230 0.951 . S
H247 C232 0.951 . S
H248 C234 0.951 . S
H249 C235 0.950 . S
H250 C236 0.950 . S
H251 C237 0.950 . S
H252 C239 0.950 . S
H253 C240 0.951 . S
C254 C255 1.386 . S
C254 C256 1.383 . S
C254 H270 0.951 . S
C255 C254 1.386 . S
C255 C259 1.383 . S
C256 C254 1.383 . S
C256 C257 1.402 . S
C256 H271 0.951 . S
C257 C256 1.402 . S
C257 C258 1.375 . S
C257 C260 1.481 . S
C258 C257 1.375 . S
C258 C259 1.367 . S
C258 H272 0.951 . S
C259 C255 1.383 . S
C259 C258 1.367 . S
C259 H273 0.950 . S
C260 C257 1.481 . S
C260 C261 1.297 . S
C260 H274 0.950 . S
C261 C260 1.297 . S
C261 C262 1.479 . S
C261 H275 0.950 . S
C262 C261 1.479 . S
C262 C263 1.375 . S
C262 C268 1.404 . S
C263 C262 1.375 . S
C263 C264 1.369 . S
C263 H276 0.950 . S
C264 C263 1.369 . S
C264 C265 1.392 . S
C264 H277 0.951 . S
C265 C264 1.392 . S
C265 C267 1.384 . S
H266 C268 0.949 . S
C267 C265 1.384 . S
C267 C268 1.385 . S
C267 H269 0.950 . S
C268 C262 1.404 . S
C268 H266 0.949 . S
C268 C267 1.385 . S
H269 C267 0.950 . S
H270 C254 0.951 . S
H271 C256 0.951 . S
H272 C258 0.951 . S
H273 C259 0.950 . S
H274 C260 0.950 . S
H275 C261 0.950 . S
H276 C263 0.950 . S
H277 C264 0.951 . S
C278 C279 1.386 1_565 S
C278 C280 1.383 . S
C278 H294 0.951 . S
C279 C278 1.386 1_545 S
C279 C283 1.383 . S
C280 C278 1.383 . S
C280 C281 1.402 1_565 S
C280 H295 0.951 . S
C281 C280 1.402 1_545 S
C281 C282 1.375 . S
C281 C284 1.481 . S
C282 C281 1.375 . S
C282 C283 1.367 . S
C282 H296 0.951 . S
C283 C279 1.383 . S
C283 C282 1.367 . S
C283 H297 0.950 . S
C284 C281 1.481 . S
C284 C285 1.297 1_545 S
C284 H298 0.950 . S
C285 C284 1.297 1_565 S
C285 C286 1.479 . S
C285 H299 0.950 . S
C286 C285 1.479 . S
C286 C287 1.375 . S
C286 C292 1.404 1_565 S
C287 C286 1.375 . S
C287 C288 1.369 . S
C287 H300 0.950 . S
C288 C287 1.369 . S
C288 C289 1.392 . S
C288 H301 0.951 . S
C289 C288 1.392 . S
C289 C291 1.384 1_565 S
H290 C292 0.949 . S
C291 C289 1.384 1_545 S
C291 C292 1.385 . S
C291 H293 0.950 . S
C292 C286 1.404 1_545 S
C292 H290 0.949 . S
C292 C291 1.385 . S
H293 C291 0.950 . S
H294 C278 0.951 . S
H295 C280 0.951 . S
H296 C282 0.951 . S
H297 C283 0.950 . S
H298 C284 0.950 . S
H299 C285 0.950 . S
H300 C287 0.950 . S
H301 C288 0.951 . S
C302 C303 1.386 1_655 S
C302 C304 1.383 . S
C302 H318 0.951 . S
C303 C302 1.386 1_455 S
C303 C307 1.383 . S
C304 C302 1.383 . S
C304 C305 1.402 1_655 S
C304 H319 0.951 . S
C305 C304 1.402 1_455 S
C305 C306 1.375 . S
C305 C308 1.481 . S
C306 C305 1.375 . S
C306 C307 1.367 . S
C306 H320 0.951 . S
C307 C303 1.383 . S
C307 C306 1.367 . S
C307 H321 0.950 . S
C308 C305 1.481 . S
C308 C309 1.297 . S
C308 H322 0.950 . S
C309 C308 1.297 . S
C309 C310 1.479 . S
C309 H323 0.950 1_455 S
C310 C309 1.479 . S
C310 C311 1.375 1_455 S
C310 C316 1.404 . S
C311 C310 1.375 1_655 S
C311 C312 1.369 . S
C311 H324 0.950 . S
C312 C311 1.369 . S
C312 C313 1.384 1_655 S
C312 H325 0.951 . S
C313 C312 1.384 1_455 S
C313 C315 1.392 . S
H314 C316 0.949 . S
C315 C313 1.392 . S
C315 C316 1.385 . S
C315 H317 0.950 . S
C316 C310 1.404 . S
C316 H314 0.949 . S
C316 C315 1.385 . S
H317 C315 0.950 . S
H318 C302 0.951 . S
H319 C304 0.951 . S
H320 C306 0.951 . S
H321 C307 0.950 . S
H322 C308 0.950 . S
H323 C309 0.950 1_655 S
H324 C311 0.950 . S
H325 C312 0.951 . S
C326 C327 1.386 . S
C326 C328 1.383 . S
C326 H342 0.951 . S
C327 C326 1.386 . S
C327 C331 1.383 . S
C328 C326 1.383 . S
C328 C329 1.402 . S
C328 H343 0.951 . S
C329 C328 1.402 . S
C329 C330 1.375 . S
C329 C332 1.481 . S
C330 C329 1.375 . S
C330 C331 1.367 . S
C330 H344 0.951 . S
C331 C327 1.383 . S
C331 C330 1.367 . S
C331 H345 0.950 . S
C332 C329 1.481 . S
C332 C333 1.297 . S
C332 H346 0.950 . S
C333 C332 1.297 . S
C333 C334 1.479 . S
C333 H347 0.950 . S
C334 C333 1.479 . S
C334 C335 1.375 . S
C334 C340 1.404 . S
C335 C334 1.375 . S
C335 C336 1.369 . S
C335 H348 0.950 . S
C336 C335 1.369 . S
C336 C337 1.392 . S
C336 H349 0.951 . S
C337 C336 1.392 . S
C337 C339 1.384 . S
H338 C340 0.949 . S
C339 C337 1.384 . S
C339 C340 1.385 . S
C339 H341 0.950 . S
C340 C334 1.404 . S
C340 H338 0.949 . S
C340 C339 1.385 . S
H341 C339 0.950 . S
H342 C326 0.951 . S
H343 C328 0.951 . S
H344 C330 0.951 . S
H345 C331 0.950 . S
H346 C332 0.950 . S
H347 C333 0.950 . S
H348 C335 0.950 . S
H349 C336 0.951 . S
C350 C351 1.386 . S
C350 C352 1.383 . S
C350 H366 0.951 . S
C351 C350 1.386 . S
C351 C355 1.383 . S
C352 C350 1.383 . S
C352 C353 1.402 . S
C352 H367 0.951 . S
C353 C352 1.402 . S
C353 C354 1.375 . S
C353 C356 1.481 . S
C354 C353 1.375 . S
C354 C355 1.367 . S
C354 H368 0.951 . S
C355 C351 1.383 . S
C355 C354 1.367 . S
C355 H369 0.950 . S
C356 C353 1.481 . S
C356 C357 1.297 . S
C356 H370 0.950 . S
C357 C356 1.297 . S
C357 C358 1.479 . S
C357 H371 0.950 . S
C358 C357 1.479 . S
C358 C359 1.375 . S
C358 C364 1.404 . S
C359 C358 1.375 . S
C359 C360 1.369 . S
C359 H372 0.950 . S
C360 C359 1.369 . S
C360 C361 1.392 . S
C360 H373 0.951 . S
C361 C360 1.392 . S
C361 C363 1.384 . S
H362 C364 0.949 . S
C363 C361 1.384 . S
C363 C364 1.385 . S
C363 H365 0.950 . S
C364 C358 1.404 . S
C364 H362 0.949 . S
C364 C363 1.385 . S
H365 C363 0.950 . S
H366 C350 0.951 . S
H367 C352 0.951 . S
H368 C354 0.951 . S
H369 C355 0.950 . S
H370 C356 0.950 . S
H371 C357 0.950 . S
H372 C359 0.950 . S
H373 C360 0.951 . S
C97 C81 1.447 . S
C87 C15 1.275 . S
C111 C13 1.416 . S
C121 N68 1.400 . S
C135 C18 1.209 1_554 S
C145 N79 1.374 . S
C159 C17 1.429 . S
C169 C70 1.457 . S
C183 C36 1.307 . S
C193 C59 1.463 1_565 S
C207 C34 1.384 . S
C217 N46 1.378 . S
C241 N57 1.411 . S
C231 C39 1.316 . S
C265 C48 1.423 . S
C255 C38 1.391 . S
C279 C14 1.545 . S
C289 C51 1.602 . S
C303 C16 1.408 . S
C313 C62 1.428 1_455 S
C337 C73 1.607 . S
C327 C35 1.552 . S
C351 C37 1.365 . S
C361 C84 1.376 . S
