# Generated by pormake.
# Topology sit, (3,6)-cn, num edge types: 1
# Building blocks:
#     Node 0, Type 0, BuildingBlock: PAMTOO_clean_linker_0, # of connection points: 3
#     Node 1, Type 0, BuildingBlock: PAMTOO_clean_linker_0, # of connection points: 3
#     Node 2, Type 0, BuildingBlock: PAMTOO_clean_linker_0, # of connection points: 3
#     Node 3, Type 0, BuildingBlock: PAMTOO_clean_linker_0, # of connection points: 3
#     Node 4, Type 1, BuildingBlock: MIDCAF_clean_sbu_0, # of connection points: 6
#     Node 5, Type 1, BuildingBlock: MIDCAF_clean_sbu_0, # of connection points: 6
#     Edge 6, Type (0, 1), BuildingBlock: KIFKEQ_clean_linker_1, # of connection points: 2
#     Edge 7, Type (0, 1), BuildingBlock: KIFKEQ_clean_linker_1, # of connection points: 2
#     Edge 8, Type (0, 1), BuildingBlock: KIFKEQ_clean_linker_1, # of connection points: 2
#     Edge 9, Type (0, 1), BuildingBlock: KIFKEQ_clean_linker_1, # of connection points: 2
#     Edge 10, Type (0, 1), BuildingBlock: KIFKEQ_clean_linker_1, # of connection points: 2
#     Edge 11, Type (0, 1), BuildingBlock: KIFKEQ_clean_linker_1, # of connection points: 2
#     Edge 12, Type (0, 1), BuildingBlock: KIFKEQ_clean_linker_1, # of connection points: 2
#     Edge 13, Type (0, 1), BuildingBlock: KIFKEQ_clean_linker_1, # of connection points: 2
#     Edge 14, Type (0, 1), BuildingBlock: KIFKEQ_clean_linker_1, # of connection points: 2
#     Edge 15, Type (0, 1), BuildingBlock: KIFKEQ_clean_linker_1, # of connection points: 2
#     Edge 16, Type (0, 1), BuildingBlock: KIFKEQ_clean_linker_1, # of connection points: 2
#     Edge 17, Type (0, 1), BuildingBlock: KIFKEQ_clean_linker_1, # of connection points: 2
# Relax obj value: 0.078
# Max RMSD: 0.181
# Mean RMSD: 0.117
data_MOF--net-sit--node1-MIDCAF_clean_sbu_0--node2-PAMTOO_clean_linker_0--edge1-KIFKEQ_clean_linker_1
_symmetry_space_group_name_H-M    P1
_symmetry_Int_Tables_number       1
_symmetry_cell_setting            triclinic
loop_
_symmetry_equiv_pos_as_xyz
'x, y, z'
_cell_length_a     23.072746
_cell_length_b     30.782006
_cell_length_c     39.055115
_cell_angle_alpha  89.831446
_cell_angle_beta   89.90648
_cell_angle_gamma 86.0482
loop_
_atom_site_label
_atom_site_type_symbol
_atom_site_fract_x
_atom_site_fract_y
_atom_site_fract_z
_atom_type_partial_charge
H0 H 0.00239 0.45408 0.94382 0.0
H1 H 0.10705 0.36104 0.00383 0.0
H2 H 0.92237 0.35205 -0.00218 0.0
H3 H -0.04046 0.32983 0.06387 0.0
C4 C 0.00727 0.32456 0.06 0.0
O5 O 0.0189 0.31906 0.02559 0.0
H6 H 0.02767 0.35397 0.06959 0.0
C7 C 0.00605 0.42602 0.96074 0.0
C8 C -0.04398 0.40543 0.96971 0.0
C9 C 0.06092 0.40985 0.97215 0.0
C10 C 0.0651 0.37388 -0.00552 0.0
C11 C 0.01503 0.35329 0.00381 0.0
C12 C -0.03924 0.36847 -0.00917 0.0
H13 H -0.00894 0.67706 0.94989 0.0
H14 H 0.88205 0.77655 0.00012 0.0
H15 H 0.06657 0.77258 0.01335 0.0
H16 H -0.01778 0.78347 0.07532 0.0
C17 C -0.04344 0.81168 0.06356 0.0
O18 O -0.03233 0.81393 0.02898 0.0
H19 H 0.90978 0.80657 0.06764 0.0
C20 C -0.01377 0.70419 0.96755 0.0
C21 C 0.03585 0.72183 0.9811 0.0
C22 C 0.93058 0.72372 0.97411 0.0
C23 C 0.92462 0.76076 -0.00496 0.0
C24 C -0.02638 0.77784 0.00941 0.0
C25 C 0.02898 0.7584 0.00258 0.0
H26 H 0.53854 0.95545 0.45155 0.0
H27 H 0.65731 0.86087 0.50039 0.0
H28 H 0.47377 0.84822 0.50767 0.0
H29 H 0.55499 0.84139 0.57211 0.0
C30 C 0.58481 0.81564 0.56027 0.0
O31 O 0.57654 0.81438 0.52536 0.0
H32 H 0.63025 0.82371 0.56539 0.0
C33 C 0.54624 0.92673 0.46748 0.0
C34 C 0.49906 0.90415 0.47891 0.0
C35 C 0.60346 0.91146 0.47493 0.0
C36 C 0.61338 0.87361 0.49481 0.0
C37 C 0.56659 0.85117 0.50676 0.0
C38 C 0.50958 0.8663 0.49877 0.0
H39 H 0.52578 0.17185 0.44667 0.0
H40 H 0.43061 0.26139 0.51432 0.0
H41 H 0.61226 0.27309 0.49725 0.0
H42 H 0.57761 0.2882 0.56654 0.0
C43 C 0.53189 0.30159 0.56323 0.0
O44 O 0.51972 0.30586 0.52882 0.0
H45 H 0.50285 0.27846 0.57524 0.0
C46 C 0.5247 0.19859 0.46471 0.0
C47 C 0.57559 0.21981 0.4707 0.0
C48 C 0.47186 0.21331 0.48002 0.0
C49 C 0.47068 0.2495 0.50199 0.0
C50 C 0.52127 0.27087 0.50803 0.0
C51 C 0.57345 0.25621 0.49232 0.0
Zn52 Zn 0.04268 0.14424 0.3144 0.0
Zn53 Zn 0.04586 0.97943 0.31107 0.0
Zn54 Zn 0.04261 0.0629 0.31352 0.0
C55 C 0.02796 1.00717 0.24472 0.0
C56 C -0.04819 1.00655 0.35212 0.0
O57 O 0.11844 0.07979 0.34415 0.0
O58 O 0.09465 0.14942 0.35395 0.0
C59 C 0.06746 0.1229 0.24829 0.0
O60 O 0.03798 1.04367 0.25882 0.0
O61 O 0.02562 0.97313 0.26254 0.0
O62 O -0.01607 0.9728 0.3454 0.0
O63 O -0.03573 1.04389 0.34036 0.0
O64 O 0.0752 0.15393 0.26839 0.0
O65 O 0.04966 0.08695 0.25998 0.0
O66 O -0.03727 0.08993 0.33895 0.0
O67 O -0.04104 0.15897 0.32284 0.0
C68 C 0.93609 0.12809 0.33788 0.0
O69 O 0.12024 1.03404 0.34095 0.0
O70 O 0.12622 0.96458 0.32604 0.0
C71 C 0.12731 0.11565 0.35962 0.0
C72 C 0.14672 0.99576 0.34178 0.0
Zn73 Zn 0.48535 0.65505 0.80712 0.0
Zn74 Zn 0.49987 0.48998 0.81393 0.0
Zn75 Zn 0.49415 0.57037 0.81184 0.0
C76 C 0.4756 0.50768 0.74765 0.0
C77 C 0.41274 0.51325 0.85777 0.0
O78 O 0.57114 0.59346 0.83749 0.0
O79 O 0.56274 0.66434 0.82688 0.0
C80 C 0.4845 0.62686 0.74087 0.0
O81 O 0.49084 0.5447 0.75857 0.0
O82 O 0.4684 0.47727 0.76856 0.0
O83 O 0.44886 0.48114 0.85341 0.0
O84 O 0.41938 0.54944 0.84197 0.0
O85 O 0.4754 0.66159 0.75762 0.0
O86 O 0.49393 0.59008 0.75654 0.0
O87 O 0.4158 0.59545 0.84063 0.0
O88 O 0.4161 0.66709 0.83569 0.0
C89 C 0.39343 0.63401 0.84738 0.0
O90 O 0.57555 0.54699 0.83768 0.0
O91 O 0.58406 0.47813 0.8214 0.0
C92 C 0.59058 0.63156 0.83978 0.0
C93 C 0.60477 0.50982 0.83634 0.0
H94 H 0.08443 0.31992 0.11303 0.0
H95 H -0.02264 0.24044 0.05233 0.0
H96 H 0.10905 0.25869 0.1506 0.0
H97 H 0.00369 0.17772 0.08939 0.0
H98 H -0.01508 0.11545 0.19966 0.0
H99 H -0.02028 0.15624 0.14596 0.0
H100 H 0.15683 0.19025 0.16035 0.0
H101 H 0.15996 0.1519 0.21506 0.0
C102 C 0.06738 0.28884 0.10726 0.0
C103 C 0.02895 0.28483 0.0799 0.0
C104 C 0.08193 0.25342 0.12861 0.0
C105 C 0.05862 0.2129 0.12305 0.0
C106 C 0.02208 0.20844 0.09463 0.0
C107 C 0.00723 0.24416 0.07331 0.0
C108 C 0.02333 0.13027 0.19053 0.0
C109 C 0.07251 0.13125 0.21145 0.0
C110 C 0.02049 0.15374 0.15974 0.0
C111 C 0.06726 0.17786 0.14934 0.0
C112 C 0.11926 0.17344 0.16819 0.0
C113 C 0.12148 0.15098 0.19927 0.0
H114 H 0.05658 0.82799 0.09718 0.0
H115 H 0.89069 0.88895 0.06689 0.0
H116 H 0.07563 0.89171 0.13113 0.0
H117 H 0.91005 0.95374 0.10014 0.0
H118 H 0.92454 0.99893 0.21534 0.0
H119 H 0.90966 0.96307 0.16109 0.0
H120 H 0.09243 0.9677 0.13779 0.0
H121 H 0.10691 1.00318 0.19294 0.0
C122 C 0.0247 0.85553 0.09737 0.0
C123 C -0.0286 0.85322 0.08052 0.0
C124 C 0.03585 0.89236 0.11641 0.0
C125 C -0.00593 0.92781 0.11867 0.0
C126 C 0.9427 0.92674 0.09939 0.0
C127 C 0.93152 0.88975 0.08045 0.0
C128 C -0.03916 0.99424 0.19777 0.0
C129 C 0.01672 1.00365 0.20801 0.0
C130 C -0.04753 0.97359 0.16662 0.0
C131 C 0.00013 0.96161 0.14534 0.0
C132 C 0.05504 0.97576 0.15393 0.0
C133 C 0.06331 0.99656 0.18521 0.0
H134 H 0.48873 0.76911 0.55214 0.0
H135 H 0.65229 0.767 0.60562 0.0
H136 H 0.46197 0.70588 0.58527 0.0
H137 H 0.62536 0.70512 0.63944 0.0
H138 H 0.57681 0.59908 0.70161 0.0
H139 H 0.60186 0.63095 0.64659 0.0
H140 H 0.43329 0.70155 0.64379 0.0
H141 H 0.40818 0.66833 0.69774 0.0
C142 C 0.51942 0.7544 0.57045 0.0
C143 C 0.57257 0.77273 0.57632 0.0
C144 C 0.50411 0.71836 0.58951 0.0
C145 C 0.54134 0.70038 0.61516 0.0
C146 C 0.59594 0.71741 0.61954 0.0
C147 C 0.61127 0.75323 0.60039 0.0
C148 C 0.54398 0.61917 0.68802 0.0
C149 C 0.49047 0.63106 0.7036 0.0
C150 C 0.55864 0.63816 0.65685 0.0
C151 C 0.52017 0.66967 0.64113 0.0
C152 C 0.46405 0.67738 0.65492 0.0
C153 C 0.44949 0.65835 0.68593 0.0
H154 H 0.61009 0.34592 0.59975 0.0
H155 H 0.43158 0.35403 0.56638 0.0
H156 H 0.5905 0.4101 0.63528 0.0
H157 H 0.41183 0.41939 0.60126 0.0
H158 H 0.55356 0.52444 0.69779 0.0
H159 H 0.56388 0.48686 0.64279 0.0
H160 H 0.40372 0.4259 0.66231 0.0
H161 H 0.39298 0.4646 0.71626 0.0
C162 C 0.56697 0.36223 0.5994 0.0
C163 C 0.52214 0.34494 0.5807 0.0
C164 C 0.55578 0.39934 0.61946 0.0
C165 C 0.49946 0.41991 0.62125 0.0
C166 C 0.45551 0.40407 0.60073 0.0
C167 C 0.46672 0.36681 0.58075 0.0
C168 C 0.51905 0.50504 0.68924 0.0
C169 C 0.47235 0.49756 0.71098 0.0
C170 C 0.5254 0.48283 0.65808 0.0
C171 C 0.48519 0.45272 0.6484 0.0
C172 C 0.43538 0.44896 0.6687 0.0
C173 C 0.42921 0.47104 0.69973 0.0
H174 H 0.15729 0.43245 0.00736 0.0
H175 H 0.08247 0.43063 0.9061 0.0
H176 H 0.24225 0.46595 -0.01619 0.0
H177 H 0.16643 0.46364 0.88276 0.0
H178 H 0.30214 0.54895 0.84964 0.0
H179 H 0.21612 0.53079 0.88192 0.0
H180 H 0.32362 0.44358 0.94602 0.0
H181 H 0.40942 0.46315 0.91468 0.0
C182 C 0.15911 0.43915 0.98015 0.0
C183 C 0.1132 0.42929 0.9586 0.0
C184 C 0.20743 0.45845 0.96671 0.0
C185 C 0.21057 0.46803 0.93151 0.0
C186 C 0.16464 0.45789 0.91011 0.0
C187 C 0.11665 0.43872 0.92347 0.0
C188 C 0.30732 0.52687 0.87124 0.0
C189 C 0.36214 0.5075 0.8798 0.0
C190 C 0.25819 0.51616 0.88952 0.0
C191 C 0.26309 0.48537 0.91627 0.0
C192 C 0.31843 0.46769 0.9258 0.0
C193 C 0.36746 0.47857 0.90766 0.0
H194 H 0.89979 0.63973 0.96909 0.0
H195 H 0.84744 0.77162 0.93865 0.0
H196 H 0.81914 0.61321 0.93598 0.0
H197 H 0.76726 0.74522 0.90575 0.0
H198 H 0.67903 0.67802 0.81837 0.0
H199 H 0.76269 0.69793 0.85184 0.0
H200 H 0.70493 0.62248 0.93719 0.0
H201 H 0.61968 0.60453 0.90403 0.0
C202 C 0.87083 0.66297 0.95548 0.0
C203 C 0.8796 0.7077 0.95644 0.0
C204 C 0.82479 0.64785 0.93669 0.0
C205 C 0.78754 0.67719 0.91813 0.0
C206 C 0.79588 0.72192 0.91953 0.0
C207 C 0.84128 0.73705 0.93863 0.0
C208 C 0.68491 0.66517 0.84409 0.0
C209 C 0.64442 0.63838 0.85836 0.0
C210 C 0.73244 0.67666 0.86323 0.0
C211 C 0.74017 0.6616 0.89701 0.0
C212 C 0.70043 0.63384 0.91099 0.0
C213 C 0.65238 0.62287 0.89191 0.0
H214 H 0.90687 0.48828 0.9711 0.0
H215 H 0.88071 0.3592 0.93381 0.0
H216 H 0.82198 0.51739 0.9387 0.0
H217 H 0.79592 0.38825 0.90136 0.0
H218 H 0.70309 0.46522 0.81451 0.0
H219 H 0.78716 0.44065 0.84944 0.0
H220 H 0.7103 0.50884 0.93661 0.0
H221 H 0.62511 0.53133 0.90196 0.0
C222 C 0.88228 0.46615 0.95636 0.0
C223 C 0.89996 0.42159 0.95483 0.0
C224 C 0.83396 0.48274 0.9379 0.0
C225 C 0.8032 0.45507 0.91727 0.0
C226 C 0.81962 0.41026 0.91675 0.0
C227 C 0.86748 0.39359 0.93558 0.0
C228 C 0.70496 0.47562 0.84095 0.0
C229 C 0.65909 0.5017 0.85536 0.0
C230 C 0.75258 0.46133 0.86093 0.0
C231 C 0.7549 0.4729 0.89564 0.0
C232 C 0.7098 0.50009 0.90977 0.0
C233 C 0.66179 0.5138 0.88985 0.0
H234 H 0.07885 0.63699 0.97272 0.0
H235 H 0.12417 0.77017 0.961 0.0
H236 H 0.16833 0.61182 0.94265 0.0
H237 H 0.21335 0.74497 0.93184 0.0
H238 H 0.30263 0.69134 0.83521 0.0
H239 H 0.21979 0.70989 0.87238 0.0
H240 H 0.28377 0.61223 0.94518 0.0
H241 H 0.36829 0.59443 0.908 0.0
C242 C 0.10839 0.66075 0.96433 0.0
C243 C 0.09428 0.70558 0.96897 0.0
C244 C 0.1596 0.64632 0.94737 0.0
C245 C 0.19703 0.67657 0.93459 0.0
C246 C 0.18469 0.72107 0.94112 0.0
C247 C 0.13391 0.73544 0.95815 0.0
C248 C 0.29876 0.67363 0.85903 0.0
C249 C 0.34102 0.64098 0.86858 0.0
C250 C 0.25164 0.68436 0.88034 0.0
C251 C 0.24588 0.66276 0.91173 0.0
C252 C 0.28732 0.62922 0.92102 0.0
C253 C 0.33514 0.61879 0.89971 0.0
H254 H 0.61448 0.93846 0.40902 0.0
H255 H 0.70296 0.93354 0.50645 0.0
H256 H 0.69724 0.97009 0.38259 0.0
H257 H 0.78596 0.96606 0.48009 0.0
H258 H 0.94595 0.9555 0.40796 0.0
H259 H 0.85999 0.93986 0.44057 0.0
H260 H 0.75621 1.03161 0.3781 0.0
H261 H 0.84264 1.04554 0.34432 0.0
C262 C 0.65126 0.94503 0.42494 0.0
C263 C 0.65251 0.93337 0.45975 0.0
C264 C 0.6986 0.9634 0.40983 0.0
C265 C 0.74823 0.9706 0.42922 0.0
C266 C 0.74863 0.96035 0.46437 0.0
C267 C 0.7013 0.9417 0.47946 0.0
C268 C 0.9048 0.97264 0.4015 0.0
C269 C 0.90069 1.00193 0.3739 0.0
C270 C 0.85565 0.96408 0.42039 0.0
C271 C 0.80121 0.98453 0.41199 0.0
C272 C 0.79748 1.01503 0.38499 0.0
C273 C 0.84685 1.02339 0.36591 0.0
H274 H 0.45578 0.12653 0.47062 0.0
H275 H 0.36557 0.25431 0.46705 0.0
H276 H 0.37021 0.09499 0.44682 0.0
H277 H 0.28041 0.2228 0.44404 0.0
H278 H 0.12234 0.15693 0.42033 0.0
H279 H 0.20356 0.17384 0.45666 0.0
H280 H 0.32181 0.10012 0.38928 0.0
H281 H 0.23985 0.08289 0.35303 0.0
C282 C 0.41755 0.1478 0.46512 0.0
C283 C 0.41763 0.19302 0.47053 0.0
C284 C 0.36865 0.1297 0.45157 0.0
C285 C 0.31873 0.1564 0.44355 0.0
C286 C 0.31792 0.20123 0.45048 0.0
C287 C 0.36679 0.21934 0.46376 0.0
C288 C 0.16563 0.14368 0.41372 0.0
C289 C 0.17521 0.11879 0.38397 0.0
C290 C 0.21203 0.1534 0.43443 0.0
C291 C 0.26904 0.13883 0.42554 0.0
C292 C 0.27826 0.1116 0.39686 0.0
C293 C 0.23157 0.1018 0.37609 0.0
H294 H 0.4467 0.9866 0.47703 0.0
H295 H 0.41923 0.85297 0.45195 0.0
H296 H 0.35864 1.01069 0.44562 0.0
H297 H 0.33066 0.87695 0.42134 0.0
H298 H 0.23896 0.93945 0.32806 0.0
H299 H 0.31951 0.91741 0.36607 0.0
H300 H 0.24961 1.00741 0.44279 0.0
H301 H 0.16816 1.02881 0.40476 0.0
C302 C 0.42112 0.96237 0.46541 0.0
C303 C 0.44003 0.91796 0.46659 0.0
C304 C 0.3707 0.97614 0.44761 0.0
C305 C 0.33857 0.94572 0.43058 0.0
C306 C 0.35534 0.90112 0.43374 0.0
C307 C 0.40556 0.88735 0.45164 0.0
C308 C 0.24119 0.95476 0.35293 0.0
C309 C 0.19831 0.98652 0.36326 0.0
C310 C 0.28687 0.9419 0.37478 0.0
C311 C 0.29038 0.9604 0.40749 0.0
C312 C 0.24803 0.99281 0.41763 0.0
C313 C 0.20194 1.00541 0.39578 0.0
H314 H 0.6512 0.26989 0.4378 0.0
H315 H 0.62206 0.13637 0.463 0.0
H316 H 0.738 0.24539 0.40562 0.0
H317 H 0.70831 0.11174 0.43006 0.0
H318 H 0.84592 0.18387 0.31868 0.0
H319 H 0.75836 0.2048 0.35159 0.0
H320 H 0.81645 0.11569 0.43214 0.0
H321 H 0.90437 0.09516 0.39923 0.0
C322 C 0.66369 0.23535 0.43669 0.0
C323 C 0.62999 0.20503 0.45287 0.0
C324 C 0.7129 0.22129 0.41795 0.0
C325 C 0.72949 0.17666 0.41513 0.0
C326 C 0.69655 0.14634 0.43193 0.0
C327 C 0.64711 0.16041 0.45055 0.0
C328 C 0.83955 0.16853 0.34328 0.0
C329 C 0.88107 0.13736 0.35624 0.0
C330 C 0.78976 0.18064 0.36217 0.0
C331 C 0.78082 0.16198 0.39445 0.0
C332 C 0.82199 0.13025 0.40717 0.0
C333 C 0.87203 0.11835 0.38832 0.0
loop_
_geom_bond_atom_site_label_1
_geom_bond_atom_site_label_2
_geom_bond_distance
_geom_bond_site_symmetry_2
_ccdc_geom_bond_type
H0 C7 0.929 . S
H1 C10 0.930 . S
H2 C12 0.935 . S
H3 C4 0.969 . S
C4 H3 0.969 . S
C4 O5 1.550 . S
C4 H6 0.973 . S
O5 C4 1.550 . S
O5 C11 1.412 . S
H6 C4 0.973 . S
C7 H0 0.929 . S
C7 C8 1.400 . S
C7 C9 1.364 . S
C8 C7 1.400 . S
C8 C12 1.359 1_556 S
C9 C7 1.364 . S
C9 C10 1.374 1_556 S
C10 H1 0.930 . S
C10 C9 1.374 1_554 S
C10 C11 1.383 . S
C11 O5 1.412 . S
C11 C10 1.383 . S
C11 C12 1.406 . S
C12 H2 0.935 . S
C12 C8 1.359 1_554 S
C12 C11 1.406 . S
H13 C20 0.929 . S
H14 C23 0.930 . S
H15 C25 0.929 . S
H16 C17 0.969 . S
C17 H16 0.969 . S
C17 O18 1.550 1_655 S
C17 H19 0.973 . S
O18 C17 1.550 1_455 S
O18 C24 1.412 . S
H19 C17 0.973 . S
C20 H13 0.929 . S
C20 C21 1.400 . S
C20 C22 1.364 1_455 S
C21 C20 1.400 . S
C21 C25 1.377 1_556 S
C22 C20 1.364 1_655 S
C22 C23 1.374 1_556 S
C23 H14 0.930 . S
C23 C22 1.374 1_554 S
C23 C24 1.383 1_655 S
C24 O18 1.412 . S
C24 C23 1.383 1_455 S
C24 C25 1.394 . S
C25 H15 0.929 . S
C25 C21 1.377 1_554 S
C25 C24 1.394 . S
H26 C33 0.929 . S
H27 C36 0.930 . S
H28 C38 0.929 . S
H29 C30 0.969 . S
C30 H29 0.969 . S
C30 O31 1.550 . S
C30 H32 0.973 . S
O31 C30 1.550 . S
O31 C37 1.412 . S
H32 C30 0.973 . S
C33 H26 0.929 . S
C33 C34 1.400 . S
C33 C35 1.364 . S
C34 C33 1.400 . S
C34 C38 1.377 . S
C35 C33 1.364 . S
C35 C36 1.374 . S
C36 H27 0.930 . S
C36 C35 1.374 . S
C36 C37 1.383 . S
C37 O31 1.412 . S
C37 C36 1.383 . S
C37 C38 1.394 . S
C38 H28 0.929 . S
C38 C34 1.377 . S
C38 C37 1.394 . S
H39 C46 0.929 . S
H40 C49 0.930 . S
H41 C51 0.929 . S
H42 C43 0.969 . S
C43 H42 0.969 . S
C43 O44 1.550 . S
C43 H45 0.973 . S
O44 C43 1.550 . S
O44 C50 1.412 . S
H45 C43 0.973 . S
C46 H39 0.929 . S
C46 C47 1.400 . S
C46 C48 1.364 . S
C47 C46 1.400 . S
C47 C51 1.377 . S
C48 C46 1.364 . S
C48 C49 1.374 . S
C49 H40 0.930 . S
C49 C48 1.374 . S
C49 C50 1.383 . S
C50 O44 1.412 . S
C50 C49 1.383 . S
C50 C51 1.394 . S
C51 H41 0.929 . S
C51 C47 1.377 . S
C51 C50 1.394 . S
Zn52 O58 1.920 . S
Zn52 O64 1.898 . S
Zn52 O67 1.905 1_455 S
Zn53 O61 1.905 . S
Zn53 O62 1.898 . S
Zn53 O70 1.920 . S
Zn54 O57 2.080 . S
Zn54 O60 2.114 1_545 S
Zn54 O63 2.120 1_545 S
Zn54 O65 2.120 . S
Zn54 O66 2.114 1_455 S
Zn54 O69 2.080 1_545 S
C55 O60 1.166 . S
C55 O61 1.182 . S
C56 O62 1.167 . S
C56 O63 1.298 . S
O57 Zn54 2.080 . S
O57 C71 1.305 . S
O58 Zn52 1.920 . S
O58 C71 1.234 . S
C59 O64 1.167 . S
C59 O65 1.299 . S
O60 Zn54 2.114 1_565 S
O60 C55 1.166 . S
O61 Zn53 1.905 . S
O61 C55 1.182 . S
O62 Zn53 1.898 . S
O62 C56 1.167 . S
O63 Zn54 2.120 1_565 S
O63 C56 1.298 . S
O64 Zn52 1.898 . S
O64 C59 1.167 . S
O65 Zn54 2.120 . S
O65 C59 1.299 . S
O66 Zn54 2.114 1_655 S
O66 C68 1.166 . S
O67 Zn52 1.905 1_655 S
O67 C68 1.182 . S
C68 O66 1.166 . S
C68 O67 1.182 . S
O69 Zn54 2.080 1_565 S
O69 C72 1.305 . S
O70 Zn53 1.920 . S
O70 C72 1.234 . S
C71 O57 1.305 . S
C71 O58 1.234 . S
C72 O69 1.305 . S
C72 O70 1.234 . S
Zn73 O79 1.920 . S
Zn73 O85 1.898 . S
Zn73 O88 1.905 . S
Zn74 O82 1.905 . S
Zn74 O83 1.898 . S
Zn74 O91 1.920 . S
Zn75 O78 2.080 . S
Zn75 O81 2.114 . S
Zn75 O84 2.120 . S
Zn75 O86 2.120 . S
Zn75 O87 2.114 . S
Zn75 O90 2.080 . S
C76 O81 1.166 . S
C76 O82 1.182 . S
C77 O83 1.167 . S
C77 O84 1.299 . S
O78 Zn75 2.080 . S
O78 C92 1.305 . S
O79 Zn73 1.920 . S
O79 C92 1.234 . S
C80 O85 1.167 . S
C80 O86 1.299 . S
O81 Zn75 2.114 . S
O81 C76 1.166 . S
O82 Zn74 1.905 . S
O82 C76 1.182 . S
O83 Zn74 1.898 . S
O83 C77 1.167 . S
O84 Zn75 2.120 . S
O84 C77 1.299 . S
O85 Zn73 1.898 . S
O85 C80 1.167 . S
O86 Zn75 2.120 . S
O86 C80 1.299 . S
O87 Zn75 2.114 . S
O87 C89 1.166 . S
O88 Zn73 1.905 . S
O88 C89 1.182 . S
C89 O87 1.166 . S
C89 O88 1.182 . S
O90 Zn75 2.080 . S
O90 C93 1.305 . S
O91 Zn74 1.920 . S
O91 C93 1.234 . S
C92 O78 1.305 . S
C92 O79 1.234 . S
C93 O90 1.305 . S
C93 O91 1.234 . S
H94 C102 0.950 . S
H95 C107 0.950 . S
H96 C104 0.950 . S
H97 C106 0.950 . S
H98 C108 0.950 . S
H99 C110 0.950 . S
H100 C112 0.950 . S
H101 C113 0.950 . S
C102 H94 0.950 . S
C102 C103 1.386 . S
C102 C104 1.391 . S
C103 C102 1.386 . S
C103 C107 1.393 . S
C104 H96 0.950 . S
C104 C102 1.391 . S
C104 C105 1.400 . S
C105 C104 1.400 . S
C105 C106 1.398 . S
C105 C111 1.491 . S
C106 H97 0.950 . S
C106 C105 1.398 . S
C106 C107 1.391 . S
C107 H95 0.950 . S
C107 C103 1.393 . S
C107 C106 1.391 . S
C108 H98 0.950 . S
C108 C109 1.386 . S
C108 C110 1.391 . S
C109 C108 1.386 . S
C109 C113 1.393 . S
C110 H99 0.950 . S
C110 C108 1.391 . S
C110 C111 1.400 . S
C111 C105 1.491 . S
C111 C110 1.400 . S
C111 C112 1.398 . S
C112 H100 0.950 . S
C112 C111 1.398 . S
C112 C113 1.391 . S
C113 H101 0.950 . S
C113 C109 1.393 . S
C113 C112 1.391 . S
H114 C122 0.950 . S
H115 C127 0.950 . S
H116 C124 0.950 . S
H117 C126 0.950 . S
H118 C128 0.950 . S
H119 C130 0.950 . S
H120 C132 0.950 . S
H121 C133 0.950 . S
C122 H114 0.950 . S
C122 C123 1.386 1_455 S
C122 C124 1.391 . S
C123 C122 1.386 1_655 S
C123 C127 1.393 . S
C124 H116 0.950 . S
C124 C122 1.391 . S
C124 C125 1.400 . S
C125 C124 1.400 . S
C125 C126 1.398 1_455 S
C125 C131 1.491 . S
C126 H117 0.950 . S
C126 C125 1.398 1_655 S
C126 C127 1.391 . S
C127 H115 0.950 . S
C127 C123 1.393 . S
C127 C126 1.391 . S
C128 H118 0.950 . S
C128 C129 1.386 1_655 S
C128 C130 1.391 . S
C129 C128 1.386 1_455 S
C129 C133 1.393 . S
C130 H119 0.950 . S
C130 C128 1.391 . S
C130 C131 1.400 1_655 S
C131 C125 1.491 . S
C131 C130 1.400 1_455 S
C131 C132 1.398 . S
C132 H120 0.950 . S
C132 C131 1.398 . S
C132 C133 1.391 . S
C133 H121 0.950 . S
C133 C129 1.393 . S
C133 C132 1.391 . S
H134 C142 0.950 . S
H135 C147 0.950 . S
H136 C144 0.950 . S
H137 C146 0.950 . S
H138 C148 0.950 . S
H139 C150 0.950 . S
H140 C152 0.950 . S
H141 C153 0.950 . S
C142 H134 0.950 . S
C142 C143 1.386 . S
C142 C144 1.391 . S
C143 C142 1.386 . S
C143 C147 1.393 . S
C144 H136 0.950 . S
C144 C142 1.391 . S
C144 C145 1.400 . S
C145 C144 1.400 . S
C145 C146 1.398 . S
C145 C151 1.491 . S
C146 H137 0.950 . S
C146 C145 1.398 . S
C146 C147 1.391 . S
C147 H135 0.950 . S
C147 C143 1.393 . S
C147 C146 1.391 . S
C148 H138 0.950 . S
C148 C149 1.386 . S
C148 C150 1.391 . S
C149 C148 1.386 . S
C149 C153 1.393 . S
C150 H139 0.950 . S
C150 C148 1.391 . S
C150 C151 1.400 . S
C151 C145 1.491 . S
C151 C150 1.400 . S
C151 C152 1.398 . S
C152 H140 0.950 . S
C152 C151 1.398 . S
C152 C153 1.391 . S
C153 H141 0.950 . S
C153 C149 1.393 . S
C153 C152 1.391 . S
H154 C162 0.950 . S
H155 C167 0.950 . S
H156 C164 0.950 . S
H157 C166 0.950 . S
H158 C168 0.950 . S
H159 C170 0.950 . S
H160 C172 0.950 . S
H161 C173 0.950 . S
C162 H154 0.950 . S
C162 C163 1.386 . S
C162 C164 1.391 . S
C163 C162 1.386 . S
C163 C167 1.393 . S
C164 H156 0.950 . S
C164 C162 1.391 . S
C164 C165 1.400 . S
C165 C164 1.400 . S
C165 C166 1.398 . S
C165 C171 1.491 . S
C166 H157 0.950 . S
C166 C165 1.398 . S
C166 C167 1.391 . S
C167 H155 0.950 . S
C167 C163 1.393 . S
C167 C166 1.391 . S
C168 H158 0.950 . S
C168 C169 1.386 . S
C168 C170 1.391 . S
C169 C168 1.386 . S
C169 C173 1.393 . S
C170 H159 0.950 . S
C170 C168 1.391 . S
C170 C171 1.400 . S
C171 C165 1.491 . S
C171 C170 1.400 . S
C171 C172 1.398 . S
C172 H160 0.950 . S
C172 C171 1.398 . S
C172 C173 1.391 . S
C173 H161 0.950 . S
C173 C169 1.393 . S
C173 C172 1.391 . S
H174 C182 0.950 1_554 S
H175 C187 0.950 . S
H176 C184 0.950 . S
H177 C186 0.950 . S
H178 C188 0.950 . S
H179 C190 0.950 . S
H180 C192 0.950 . S
H181 C193 0.950 . S
C182 H174 0.950 1_556 S
C182 C183 1.386 . S
C182 C184 1.391 . S
C183 C182 1.386 . S
C183 C187 1.393 . S
C184 H176 0.950 . S
C184 C182 1.391 . S
C184 C185 1.400 . S
C185 C184 1.400 . S
C185 C186 1.398 . S
C185 C191 1.491 . S
C186 H177 0.950 . S
C186 C185 1.398 . S
C186 C187 1.391 . S
C187 H175 0.950 . S
C187 C183 1.393 . S
C187 C186 1.391 . S
C188 H178 0.950 . S
C188 C189 1.386 . S
C188 C190 1.391 . S
C189 C188 1.386 . S
C189 C193 1.393 . S
C190 H179 0.950 . S
C190 C188 1.391 . S
C190 C191 1.400 . S
C191 C185 1.491 . S
C191 C190 1.400 . S
C191 C192 1.398 . S
C192 H180 0.950 . S
C192 C191 1.398 . S
C192 C193 1.391 . S
C193 H181 0.950 . S
C193 C189 1.393 . S
C193 C192 1.391 . S
H194 C202 0.950 1_554 S
H195 C207 0.950 . S
H196 C204 0.950 . S
H197 C206 0.950 . S
H198 C208 0.950 . S
H199 C210 0.950 . S
H200 C212 0.950 . S
H201 C213 0.950 . S
C202 H194 0.950 1_556 S
C202 C203 1.386 . S
C202 C204 1.391 . S
C203 C202 1.386 . S
C203 C207 1.393 . S
C204 H196 0.950 . S
C204 C202 1.391 . S
C204 C205 1.400 . S
C205 C204 1.400 . S
C205 C206 1.398 . S
C205 C211 1.491 . S
C206 H197 0.950 . S
C206 C205 1.398 . S
C206 C207 1.391 . S
C207 H195 0.950 . S
C207 C203 1.393 . S
C207 C206 1.391 . S
C208 H198 0.950 . S
C208 C209 1.386 . S
C208 C210 1.391 . S
C209 C208 1.386 . S
C209 C213 1.393 . S
C210 H199 0.950 . S
C210 C208 1.391 . S
C210 C211 1.400 . S
C211 C205 1.491 . S
C211 C210 1.400 . S
C211 C212 1.398 . S
C212 H200 0.950 . S
C212 C211 1.398 . S
C212 C213 1.391 . S
C213 H201 0.950 . S
C213 C209 1.393 . S
C213 C212 1.391 . S
H214 C222 0.950 . S
H215 C227 0.950 . S
H216 C224 0.950 . S
H217 C226 0.950 . S
H218 C228 0.950 . S
H219 C230 0.950 . S
H220 C232 0.950 . S
H221 C233 0.950 . S
C222 H214 0.950 . S
C222 C223 1.386 1_655 S
C222 C224 1.391 . S
C223 C222 1.386 1_455 S
C223 C227 1.393 . S
C224 H216 0.950 . S
C224 C222 1.391 . S
C224 C225 1.400 . S
C225 C224 1.400 . S
C225 C226 1.398 . S
C225 C231 1.491 . S
C226 H217 0.950 . S
C226 C225 1.398 . S
C226 C227 1.391 1_655 S
C227 H215 0.950 . S
C227 C223 1.393 . S
C227 C226 1.391 1_455 S
C228 H218 0.950 . S
C228 C229 1.386 . S
C228 C230 1.391 . S
C229 C228 1.386 . S
C229 C233 1.393 . S
C230 H219 0.950 . S
C230 C228 1.391 . S
C230 C231 1.400 . S
C231 C225 1.491 . S
C231 C230 1.400 . S
C231 C232 1.398 . S
C232 H220 0.950 . S
C232 C231 1.398 . S
C232 C233 1.391 . S
C233 H221 0.950 . S
C233 C229 1.393 . S
C233 C232 1.391 . S
H234 C242 0.950 . S
H235 C247 0.950 . S
H236 C244 0.950 . S
H237 C246 0.950 . S
H238 C248 0.950 . S
H239 C250 0.950 . S
H240 C252 0.950 . S
H241 C253 0.950 . S
C242 H234 0.950 . S
C242 C243 1.386 . S
C242 C244 1.391 . S
C243 C242 1.386 . S
C243 C247 1.393 . S
C244 H236 0.950 . S
C244 C242 1.391 . S
C244 C245 1.400 . S
C245 C244 1.400 . S
C245 C246 1.398 . S
C245 C251 1.491 . S
C246 H237 0.950 . S
C246 C245 1.398 . S
C246 C247 1.391 . S
C247 H235 0.950 . S
C247 C243 1.393 . S
C247 C246 1.391 . S
C248 H238 0.950 . S
C248 C249 1.386 . S
C248 C250 1.391 . S
C249 C248 1.386 . S
C249 C253 1.393 . S
C250 H239 0.950 . S
C250 C248 1.391 . S
C250 C251 1.400 . S
C251 C245 1.491 . S
C251 C250 1.400 . S
C251 C252 1.398 . S
C252 H240 0.950 . S
C252 C251 1.398 . S
C252 C253 1.391 . S
C253 H241 0.950 . S
C253 C249 1.393 . S
C253 C252 1.391 . S
H254 C262 0.950 . S
H255 C267 0.950 . S
H256 C264 0.950 . S
H257 C266 0.950 . S
H258 C268 0.950 . S
H259 C270 0.950 . S
H260 C272 0.950 . S
H261 C273 0.950 . S
C262 H254 0.950 . S
C262 C263 1.386 . S
C262 C264 1.391 . S
C263 C262 1.386 . S
C263 C267 1.393 . S
C264 H256 0.950 . S
C264 C262 1.391 . S
C264 C265 1.400 . S
C265 C264 1.400 . S
C265 C266 1.398 . S
C265 C271 1.491 . S
C266 H257 0.950 . S
C266 C265 1.398 . S
C266 C267 1.391 . S
C267 H255 0.950 . S
C267 C263 1.393 . S
C267 C266 1.391 . S
C268 H258 0.950 . S
C268 C269 1.386 . S
C268 C270 1.391 . S
C269 C268 1.386 . S
C269 C273 1.393 . S
C270 H259 0.950 . S
C270 C268 1.391 . S
C270 C271 1.400 . S
C271 C265 1.491 . S
C271 C270 1.400 . S
C271 C272 1.398 . S
C272 H260 0.950 . S
C272 C271 1.398 . S
C272 C273 1.391 . S
C273 H261 0.950 . S
C273 C269 1.393 . S
C273 C272 1.391 . S
H274 C282 0.950 . S
H275 C287 0.950 . S
H276 C284 0.950 . S
H277 C286 0.950 . S
H278 C288 0.950 . S
H279 C290 0.950 . S
H280 C292 0.950 . S
H281 C293 0.950 . S
C282 H274 0.950 . S
C282 C283 1.386 . S
C282 C284 1.391 . S
C283 C282 1.386 . S
C283 C287 1.393 . S
C284 H276 0.950 . S
C284 C282 1.391 . S
C284 C285 1.400 . S
C285 C284 1.400 . S
C285 C286 1.398 . S
C285 C291 1.491 . S
C286 H277 0.950 . S
C286 C285 1.398 . S
C286 C287 1.391 . S
C287 H275 0.950 . S
C287 C283 1.393 . S
C287 C286 1.391 . S
C288 H278 0.950 . S
C288 C289 1.386 . S
C288 C290 1.391 . S
C289 C288 1.386 . S
C289 C293 1.393 . S
C290 H279 0.950 . S
C290 C288 1.391 . S
C290 C291 1.400 . S
C291 C285 1.491 . S
C291 C290 1.400 . S
C291 C292 1.398 . S
C292 H280 0.950 . S
C292 C291 1.398 . S
C292 C293 1.391 . S
C293 H281 0.950 . S
C293 C289 1.393 . S
C293 C292 1.391 . S
H294 C302 0.950 . S
H295 C307 0.950 . S
H296 C304 0.950 . S
H297 C306 0.950 . S
H298 C308 0.950 . S
H299 C310 0.950 . S
H300 C312 0.950 . S
H301 C313 0.950 . S
C302 H294 0.950 . S
C302 C303 1.386 . S
C302 C304 1.391 . S
C303 C302 1.386 . S
C303 C307 1.393 . S
C304 H296 0.950 . S
C304 C302 1.391 . S
C304 C305 1.400 . S
C305 C304 1.400 . S
C305 C306 1.398 . S
C305 C311 1.491 . S
C306 H297 0.950 . S
C306 C305 1.398 . S
C306 C307 1.391 . S
C307 H295 0.950 . S
C307 C303 1.393 . S
C307 C306 1.391 . S
C308 H298 0.950 . S
C308 C309 1.386 . S
C308 C310 1.391 . S
C309 C308 1.386 . S
C309 C313 1.393 . S
C310 H299 0.950 . S
C310 C308 1.391 . S
C310 C311 1.400 . S
C311 C305 1.491 . S
C311 C310 1.400 . S
C311 C312 1.398 . S
C312 H300 0.950 . S
C312 C311 1.398 . S
C312 C313 1.391 . S
C313 H301 0.950 . S
C313 C309 1.393 . S
C313 C312 1.391 . S
H314 C322 0.950 . S
H315 C327 0.950 . S
H316 C324 0.950 . S
H317 C326 0.950 . S
H318 C328 0.950 . S
H319 C330 0.950 . S
H320 C332 0.950 . S
H321 C333 0.950 . S
C322 H314 0.950 . S
C322 C323 1.386 . S
C322 C324 1.391 . S
C323 C322 1.386 . S
C323 C327 1.393 . S
C324 H316 0.950 . S
C324 C322 1.391 . S
C324 C325 1.400 . S
C325 C324 1.400 . S
C325 C326 1.398 . S
C325 C331 1.491 . S
C326 H317 0.950 . S
C326 C325 1.398 . S
C326 C327 1.391 . S
C327 H315 0.950 . S
C327 C323 1.393 . S
C327 C326 1.391 . S
C328 H318 0.950 . S
C328 C329 1.386 . S
C328 C330 1.391 . S
C329 C328 1.386 . S
C329 C333 1.393 . S
C330 H319 0.950 . S
C330 C328 1.391 . S
C330 C331 1.400 . S
C331 C325 1.491 . S
C331 C330 1.400 . S
C331 C332 1.398 . S
C332 H320 0.950 . S
C332 C331 1.398 . S
C332 C333 1.391 . S
C333 H321 0.950 . S
C333 C329 1.393 . S
C333 C332 1.391 . S
C109 C59 1.419 . S
C103 C4 1.474 . S
C129 C55 1.400 . S
C123 C17 1.493 . S
C149 C80 1.393 . S
C143 C30 1.473 . S
C163 C43 1.490 . S
C169 C76 1.414 . S
C183 C9 1.250 . S
C189 C77 1.149 . S
C209 C92 1.148 . S
C203 C22 1.267 . S
C223 C8 1.727 . S
C229 C93 1.564 . S
C249 C89 1.584 . S
C243 C21 1.739 . S
C269 C56 1.098 1_655 S
C263 C35 1.227 . S
C283 C48 1.255 . S
C289 C71 1.122 . S
C309 C72 1.575 . S
C303 C34 1.730 . S
C329 C68 1.588 . S
C323 C47 1.739 . S
