# Generated by pormake.
# Topology zzz, (3,6)-cn, num edge types: 1
# Building blocks:
#     Node 0, Type 0, BuildingBlock: QEWDON_clean_linker_0, # of connection points: 3
#     Node 1, Type 0, BuildingBlock: QEWDON_clean_linker_0, # of connection points: 3
#     Node 2, Type 0, BuildingBlock: QEWDON_clean_linker_0, # of connection points: 3
#     Node 3, Type 0, BuildingBlock: QEWDON_clean_linker_0, # of connection points: 3
#     Node 4, Type 0, BuildingBlock: QEWDON_clean_linker_0, # of connection points: 3
#     Node 5, Type 0, BuildingBlock: QEWDON_clean_linker_0, # of connection points: 3
#     Node 6, Type 0, BuildingBlock: QEWDON_clean_linker_0, # of connection points: 3
#     Node 7, Type 0, BuildingBlock: QEWDON_clean_linker_0, # of connection points: 3
#     Node 8, Type 1, BuildingBlock: BETGAK_clean_sbu_0, # of connection points: 6
#     Node 9, Type 1, BuildingBlock: BETGAK_clean_sbu_0, # of connection points: 6
#     Node 10, Type 1, BuildingBlock: BETGAK_clean_sbu_0, # of connection points: 6
#     Node 11, Type 1, BuildingBlock: BETGAK_clean_sbu_0, # of connection points: 6
#     Edge 12, Type (0, 1), BuildingBlock: XUDNAN_clean_linker_2, # of connection points: 2
#     Edge 13, Type (0, 1), BuildingBlock: XUDNAN_clean_linker_2, # of connection points: 2
#     Edge 14, Type (0, 1), BuildingBlock: XUDNAN_clean_linker_2, # of connection points: 2
#     Edge 15, Type (0, 1), BuildingBlock: XUDNAN_clean_linker_2, # of connection points: 2
#     Edge 16, Type (0, 1), BuildingBlock: XUDNAN_clean_linker_2, # of connection points: 2
#     Edge 17, Type (0, 1), BuildingBlock: XUDNAN_clean_linker_2, # of connection points: 2
#     Edge 18, Type (0, 1), BuildingBlock: XUDNAN_clean_linker_2, # of connection points: 2
#     Edge 19, Type (0, 1), BuildingBlock: XUDNAN_clean_linker_2, # of connection points: 2
#     Edge 20, Type (0, 1), BuildingBlock: XUDNAN_clean_linker_2, # of connection points: 2
#     Edge 21, Type (0, 1), BuildingBlock: XUDNAN_clean_linker_2, # of connection points: 2
#     Edge 22, Type (0, 1), BuildingBlock: XUDNAN_clean_linker_2, # of connection points: 2
#     Edge 23, Type (0, 1), BuildingBlock: XUDNAN_clean_linker_2, # of connection points: 2
#     Edge 24, Type (0, 1), BuildingBlock: XUDNAN_clean_linker_2, # of connection points: 2
#     Edge 25, Type (0, 1), BuildingBlock: XUDNAN_clean_linker_2, # of connection points: 2
#     Edge 26, Type (0, 1), BuildingBlock: XUDNAN_clean_linker_2, # of connection points: 2
#     Edge 27, Type (0, 1), BuildingBlock: XUDNAN_clean_linker_2, # of connection points: 2
#     Edge 28, Type (0, 1), BuildingBlock: XUDNAN_clean_linker_2, # of connection points: 2
#     Edge 29, Type (0, 1), BuildingBlock: XUDNAN_clean_linker_2, # of connection points: 2
#     Edge 30, Type (0, 1), BuildingBlock: XUDNAN_clean_linker_2, # of connection points: 2
#     Edge 31, Type (0, 1), BuildingBlock: XUDNAN_clean_linker_2, # of connection points: 2
#     Edge 32, Type (0, 1), BuildingBlock: XUDNAN_clean_linker_2, # of connection points: 2
#     Edge 33, Type (0, 1), BuildingBlock: XUDNAN_clean_linker_2, # of connection points: 2
#     Edge 34, Type (0, 1), BuildingBlock: XUDNAN_clean_linker_2, # of connection points: 2
#     Edge 35, Type (0, 1), BuildingBlock: XUDNAN_clean_linker_2, # of connection points: 2
# Relax obj value: 0.180
# Max RMSD: 0.177
# Mean RMSD: 0.123
data_MOF--net-zzz--node1-BETGAK_clean_sbu_0--node2-QEWDON_clean_linker_0--edge1-XUDNAN_clean_linker_2
_symmetry_space_group_name_H-M    P1
_symmetry_Int_Tables_number       1
_symmetry_cell_setting            triclinic
loop_
_symmetry_equiv_pos_as_xyz
'x, y, z'
_cell_length_a     55.410685
_cell_length_b     55.531542
_cell_length_c     12.923343
_cell_angle_alpha  90.027495
_cell_angle_beta   89.826187
_cell_angle_gamma 90.000166
loop_
_atom_site_label
_atom_site_type_symbol
_atom_site_fract_x
_atom_site_fract_y
_atom_site_fract_z
_atom_type_partial_charge
H0 H 0.76434 0.50467 0.22791 0.0
C1 C 0.77665 0.50806 0.29105 0.0
C2 C 0.79881 0.49585 0.29145 0.0
C3 C 0.7709 0.52501 0.369 0.0
H4 H 0.83356 0.49271 0.36436 0.0
C5 C 0.81597 0.5013 0.36729 0.0
C6 C 0.81152 0.51828 0.44445 0.0
C7 C 0.7886 0.52954 0.44751 0.0
C8 C 0.74735 0.53897 0.3635 0.0
H9 H 0.78505 0.54213 0.50955 0.0
C10 C 0.72649 0.53025 0.30993 0.0
C11 C 0.70505 0.54422 0.30389 0.0
C12 C 0.74592 0.56205 0.40865 0.0
H13 H 0.76129 0.57021 0.44612 0.0
C14 C 0.72477 0.57558 0.40393 0.0
H15 H 0.72652 0.5126 0.27455 0.0
C16 C 0.70457 0.56679 0.35257 0.0
H17 H 0.68855 0.57796 0.34912 0.0
H18 H 0.72415 0.59325 0.4393 0.0
H19 H 1.01165 0.75945 0.20726 0.0
C20 C 1.01341 0.77372 0.2637 0.0
C21 C 1.0169 0.79704 0.22729 0.0
C22 C 1.01207 0.76907 0.37083 0.0
H23 H 1.02093 0.83435 0.26525 0.0
C24 C 1.01793 0.81642 0.29611 0.0
C25 C 1.01596 0.81309 0.40299 0.0
C26 C 1.01369 0.78913 0.44053 0.0
C27 C 1.00825 0.74345 0.40744 0.0
H28 H 1.0131 0.78635 0.52329 0.0
C29 C 1.01487 0.72313 0.34561 0.0
C30 C 1.00992 0.69931 0.37836 0.0
C31 C 0.99683 0.739 0.50303 0.0
H32 H 0.99067 0.7536 0.55181 0.0
C33 C 0.99242 0.71552 0.5365 0.0
H34 H 1.02425 0.72549 0.27285 0.0
C35 C 0.99885 0.69588 0.47504 0.0
H36 H 0.99472 0.67791 0.50248 0.0
H37 H 0.98357 0.71252 0.61018 0.0
H38 H 0.80602 0.05416 0.21403 0.0
C39 C 0.7914 0.04973 0.26639 0.0
C40 C 0.76797 0.05516 0.23584 0.0
C41 C 0.79592 0.03952 0.36405 0.0
H42 H 0.73042 0.05456 0.27535 0.0
C43 C 0.74845 0.05021 0.3016 0.0
C44 C 0.75156 0.03969 0.39889 0.0
C45 C 0.77566 0.03456 0.43064 0.0
C46 C 0.82189 0.0358 0.39637 0.0
H47 H 0.77849 1.02642 0.50566 0.0
C48 C 0.84089 0.03152 0.32304 0.0
C49 C 0.86552 0.03088 0.35364 0.0
C50 C 0.82822 0.03868 0.50082 0.0
H51 H 0.81469 0.04252 0.55906 0.0
C52 C 0.85229 0.03785 0.5316 0.0
H53 H 0.83662 0.02849 0.24246 0.0
C54 C 0.87068 0.03429 0.4593 0.0
H55 H 0.88912 0.0347 0.48672 0.0
H56 H 0.8568 0.04053 0.61224 0.0
H57 H 0.49198 0.78908 0.18835 0.0
C58 C 0.50035 0.77475 0.23231 0.0
C59 C 0.48912 0.75213 0.2351 0.0
C60 C 0.52186 0.77904 0.28754 0.0
H61 H 0.49149 0.71573 0.29182 0.0
C62 C 0.49945 0.73357 0.29374 0.0
C63 C 0.52069 0.73688 0.34971 0.0
C64 C 0.53215 0.75967 0.34533 0.0
C65 C 0.53242 0.80408 0.28929 0.0
H66 H 0.54886 0.76226 0.38707 0.0
C67 C 0.53108 0.81991 0.20258 0.0
C68 C 0.53911 0.84418 0.20941 0.0
C69 C 0.54247 0.81296 0.38148 0.0
H70 H 0.54342 0.80181 0.45004 0.0
C71 C 0.55068 0.83666 0.38815 0.0
H72 H 0.5236 0.81352 0.13033 0.0
C73 C 0.54893 0.85214 0.30353 0.0
H74 H 0.55567 0.87035 0.31148 0.0
H75 H 0.55828 0.84316 0.45999 0.0
H76 H 0.29809 0.53584 0.26401 0.0
C77 C 0.28401 0.53205 0.2084 0.0
C78 C 0.26035 0.53135 0.24371 0.0
C79 C 0.28941 0.5287 0.10295 0.0
H80 H 0.22303 0.52889 0.20386 0.0
C81 C 0.24134 0.52808 0.17417 0.0
C82 C 0.24533 0.52522 0.0678 0.0
C83 C 0.26974 0.52568 0.03193 0.0
C84 C 0.31561 0.53007 0.07061 0.0
H85 H 0.27333 0.52347 0.95012 0.0
C86 C 0.33445 0.52276 0.13881 0.0
C87 C 0.35907 0.52754 0.11667 0.0
C88 C 0.32219 0.54095 0.97661 0.0
H89 H 0.30858 0.54709 0.92284 0.0
C90 C 0.34649 0.5451 0.95276 0.0
H91 H 0.32998 0.51389 0.2109 0.0
C92 C 0.36472 0.53879 0.02236 0.0
H93 H 0.38331 0.54245 0.00159 0.0
H94 H 0.35121 0.55372 0.88036 0.0
H95 H 0.99174 0.29158 0.22782 0.0
C96 C 1.00054 0.27799 0.18128 0.0
C97 C 0.98987 0.25509 0.17717 0.0
C98 C 1.02195 0.28314 0.12507 0.0
H99 H 0.99241 0.21925 0.11475 0.0
C100 C 1.00044 0.23706 0.11648 0.0
C101 C 1.02139 0.24109 0.0596 0.0
C102 C 0.03222 0.26411 0.06397 0.0
C103 C 0.03338 0.30806 0.13008 0.0
H104 H 0.04889 0.2666 0.02189 0.0
C105 C 1.02801 0.32502 0.21035 0.0
C106 C 0.03901 0.34808 0.21262 0.0
C107 C 0.04974 0.31542 0.05229 0.0
H108 H 0.05381 0.30419 0.98631 0.0
C109 C 0.061 0.33787 0.05613 0.0
H110 H 1.01567 0.32057 0.2723 0.0
C111 C 0.05583 0.35399 0.13563 0.0
H112 H 0.06445 0.37151 0.1351 0.0
H113 H 0.07357 0.34298 0.99573 0.0
H114 H 0.26174 0.05832 0.23365 0.0
C115 C 0.27641 0.0527 0.18365 0.0
C116 C 0.29991 0.05574 0.21843 0.0
C117 C 0.27195 0.04302 0.08499 0.0
H118 H 0.33743 0.0513 0.18782 0.0
C119 C 0.31952 0.04957 0.15535 0.0
C120 C 0.3165 0.04144 0.05348 0.0
C121 C 0.29229 0.03764 0.01938 0.0
C122 C 0.24601 0.04033 0.05061 0.0
H123 H 0.28932 0.03073 0.94226 0.0
C124 C 0.22668 0.03615 0.12239 0.0
C125 C 0.20225 0.03555 0.08954 0.0
C126 C 0.24013 0.04357 0.94583 0.0
H127 H 0.25391 0.04746 0.88878 0.0
C128 C 0.2162 0.04286 0.91307 0.0
H129 H 0.23052 0.033 0.20331 0.0
C130 C 0.19751 0.03905 0.98369 0.0
H131 H 0.17916 0.03919 0.95509 0.0
H132 H 0.21204 0.04567 0.83217 0.0
H133 H 0.5768 0.2619 0.21891 0.0
C134 C 0.56828 0.27595 0.17394 0.0
C135 C 0.57979 0.29838 0.16677 0.0
C136 C 0.54614 0.27168 0.12343 0.0
H137 H 0.57771 0.33432 0.10435 0.0
C138 C 0.56944 0.31662 0.10633 0.0
C139 C 0.54745 0.31339 0.05593 0.0
C140 C 0.53556 0.29093 0.06588 0.0
C141 C 0.5348 0.24696 0.12847 0.0
H142 H 0.51816 0.28859 0.02931 0.0
C143 C 0.53753 0.2315 0.21582 0.0
C144 C 0.5283 0.2076 0.21563 0.0
C145 C 0.52221 0.23804 0.04225 0.0
H146 H 0.52011 0.24881 0.97309 0.0
C147 C 0.51274 0.21477 0.04226 0.0
H148 H 0.54699 0.2379 0.28358 0.0
C149 C 0.51577 0.19969 0.12753 0.0
H150 H 0.5079 0.18185 0.12477 0.0
H151 H 0.5031 0.20827 0.97507 0.0
La152 La 0.04914 1.02597 0.7924 0.0
La153 La 1.01411 0.03497 0.61428 0.0
C154 C 0.06966 1.00806 0.94691 0.0
C155 C 0.06854 0.98268 0.98086 0.0
C156 C 0.08586 0.96617 0.94456 0.0
C157 C 0.08077 0.94155 0.94334 0.0
C158 C 0.05831 0.93316 0.97872 0.0
C159 C 0.04245 0.94932 0.02753 0.0
C160 C 0.04757 0.97387 0.02916 0.0
C161 C 0.06974 0.03723 0.61247 0.0
C162 C 1.02777 0.98108 0.66175 0.0
C163 C 0.99661 0.0493 0.44662 0.0
C164 C 0.97972 0.06929 0.42822 0.0
C165 C 0.96425 0.07701 0.50797 0.0
C166 C 0.95214 0.09896 0.50051 0.0
C167 C 0.9553 0.11364 0.41321 0.0
C168 C 0.96943 0.10507 0.33012 0.0
C169 C 0.98161 0.08307 0.33781 0.0
C170 C 0.98914 0.03189 0.79236 0.0
C171 C 0.03281 0.0789 0.75707 0.0
O172 O 0.08052 1.01155 0.8581 0.0
O173 O 0.04946 1.02028 0.95305 0.0
O174 O 0.07715 0.04446 0.70249 0.0
O175 O 0.0513 1.02406 0.62613 0.0
O176 O 0.03814 0.98914 0.74777 0.0
O177 O 1.0187 0.99607 0.59208 0.0
O178 O 0.98797 0.03086 0.49834 0.0
O179 O 1.01787 0.05604 0.48056 0.0
O180 O 0.97974 0.03561 0.70255 0.0
O181 O 1.01155 0.03013 0.77693 0.0
O182 O 1.02425 0.07163 0.66617 0.0
O183 O 0.04133 0.06351 0.82594 0.0
H184 H 0.10241 0.9724 0.90859 0.0
H185 H 0.09351 0.92943 0.90676 0.0
H186 H 1.02546 0.94315 0.05966 0.0
H187 H 0.03416 0.98602 0.06084 0.0
H188 H 0.96251 0.06679 0.57871 0.0
H189 H 0.94127 0.10503 0.56529 0.0
H190 H 0.97249 0.11613 0.26228 0.0
H191 H 0.99362 0.07755 0.27587 0.0
La192 La 0.53819 0.0322 0.83306 0.0
La193 La 0.52832 1.02031 0.60416 0.0
C194 C 0.55327 1.027 0.01329 0.0
C195 C 0.57613 0.03634 0.05376 0.0
C196 C 0.58373 0.05955 0.02482 0.0
C197 C 0.6082 0.06521 0.02262 0.0
C198 C 0.62535 0.04773 0.04916 0.0
C199 C 0.61759 1.02562 0.09033 0.0
C200 C 0.59306 1.01997 0.09287 0.0
C201 C 0.53699 0.07274 0.72061 0.0
C202 C 0.58264 0.02856 0.66821 0.0
C203 C 0.51024 1.02409 0.4286 0.0
C204 C 0.48831 0.03806 0.40706 0.0
C205 C 0.46897 1.02723 0.35534 0.0
C206 C 0.44595 0.03736 0.36198 0.0
C207 C 0.44208 0.05845 0.42024 0.0
C208 C 0.46174 0.07033 0.46442 0.0
C209 C 0.48461 0.06011 0.45869 0.0
C210 C 0.53837 0.98283 0.72296 0.0
C211 C 0.48382 0.02907 0.76646 0.0
O212 O 0.53681 0.04304 0.98877 0.0
O213 O 0.55632 1.01077 0.94056 0.0
O214 O 0.54014 0.072 0.81997 0.0
O215 O 0.53448 0.05119 0.69268 0.0
O216 O 0.57503 0.02949 0.76616 0.0
O217 O 0.56735 1.02629 0.5899 0.0
O218 O 0.50671 1.00522 0.48762 0.0
O219 O 0.529 0.03671 0.45798 0.0
O220 O 0.54382 0.98447 0.62515 0.0
O221 O 0.5262 1.00124 0.74827 0.0
O222 O 0.49165 1.02725 0.66906 0.0
O223 O 0.49894 0.02971 0.84561 0.0
H224 H 0.5711 0.07256 0.99396 0.0
H225 H 0.61372 0.08245 0.99133 0.0
H226 H 0.63054 1.01212 0.11412 0.0
H227 H 0.58758 1.00197 0.11522 0.0
H228 H 0.47132 1.01011 0.31632 0.0
H229 H 0.43096 0.02812 0.32577 0.0
H230 H 0.45915 0.08654 0.50982 0.0
H231 H 0.49893 0.06855 0.50188 0.0
La232 La 0.51471 0.53245 0.78277 0.0
La233 La 0.54895 0.51638 0.61846 0.0
C234 C 0.49097 0.55371 0.92209 0.0
C235 C 0.4789 0.57731 0.927 0.0
C236 C 0.45452 0.57872 0.95671 0.0
C237 C 0.44256 0.60093 0.95809 0.0
C238 C 0.45476 0.62196 0.92804 0.0
C239 C 0.47912 0.62044 0.89822 0.0
C240 C 0.49105 0.59836 0.89707 0.0
C241 C 0.4939 0.5141 0.616 0.0
C242 C 0.53638 0.5718 0.62454 0.0
C243 C 0.56575 0.4965 0.45948 0.0
C244 C 0.58279 0.47641 0.44966 0.0
C245 C 0.5952 0.46802 0.53708 0.0
C246 C 0.6091 0.4471 0.53159 0.0
C247 C 0.61054 0.43395 0.43887 0.0
C248 C 0.59887 0.44308 0.35021 0.0
C249 C 0.58516 0.46417 0.35565 0.0
C250 C 0.57483 0.52322 0.79023 0.0
C251 C 0.53066 0.47875 0.78915 0.0
O252 O 0.48151 0.53852 0.85681 0.0
O253 O 0.51461 0.55362 0.91766 0.0
O254 O 0.48778 0.50957 0.71051 0.0
O255 O 0.5118 0.52835 0.61658 0.0
O256 O 0.5224 0.56729 0.70591 0.0
O257 O 0.54782 0.55433 0.57504 0.0
O258 O 0.57463 0.51635 0.49889 0.0
O259 O 0.54484 0.49078 0.50052 0.0
O260 O 0.58347 0.51692 0.70157 0.0
O261 O 0.55236 0.5261 0.77863 0.0
O262 O 0.53895 0.48201 0.69376 0.0
O263 O 0.52326 0.49713 0.84614 0.0
H264 H 0.44473 0.56261 0.97858 0.0
H265 H 0.42388 0.60169 0.98276 0.0
H266 H 0.48925 0.6365 0.87909 0.0
H267 H 0.5098 0.59787 0.87325 0.0
H268 H 0.59342 0.47708 0.61077 0.0
H269 H 0.61794 0.44073 0.60102 0.0
H270 H 0.59909 0.43322 0.2779 0.0
H271 H 0.57556 0.47031 0.28767 0.0
La272 La 1.02286 0.50949 0.86952 0.0
La273 La 1.02784 0.54185 0.70008 0.0
C274 C 1.00709 0.4864 0.0222 0.0
C275 C 0.98489 0.47198 0.02451 0.0
C276 C 0.97558 0.46279 0.93139 0.0
C277 C 0.95218 0.45362 0.92744 0.0
C278 C 0.93761 0.45357 0.01643 0.0
C279 C 0.94756 0.46133 0.11107 0.0
C280 C 0.97103 0.47054 0.11494 0.0
C281 C 0.03187 0.4869 0.6917 0.0
C282 C 0.97517 0.52706 0.74355 0.0
C283 C 0.04328 0.56049 0.53597 0.0
C284 C 0.06797 0.55782 0.49665 0.0
C285 C 0.08151 0.57815 0.46969 0.0
C286 C 0.10671 0.57686 0.46695 0.0
C287 C 0.11875 0.55541 0.49504 0.0
C288 C 0.10472 0.53464 0.51271 0.0
C289 C 0.07975 0.53576 0.5113 0.0
C290 C 1.01802 0.56452 0.87605 0.0
C291 C 0.0751 0.52522 0.82675 0.0
O292 O 1.0241 0.47832 0.96124 0.0
O293 O 1.00361 0.50953 0.00997 0.0
O294 O 0.04124 0.48142 0.77991 0.0
O295 O 1.01787 0.50454 0.70591 0.0
O296 O 0.98441 0.51647 0.82675 0.0
O297 O 0.98944 0.53752 0.67557 0.0
O298 O 0.04182 0.57221 0.62345 0.0
O299 O 0.03044 0.54073 0.53795 0.0
O300 O 1.00938 0.57034 0.78634 0.0
O301 O 0.0322 0.54683 0.86458 0.0
O302 O 0.06575 0.5316 0.73636 0.0
O303 O 0.06051 0.51857 0.90252 0.0
H304 H 0.9859 0.46396 0.86018 0.0
H305 H 0.94506 0.4477 0.8537 0.0
H306 H 0.93667 0.46192 0.18077 0.0
H307 H 0.9778 0.47782 0.18705 0.0
H308 H 0.07272 0.59535 0.4575 0.0
H309 H 0.11656 0.59302 0.44706 0.0
H310 H 0.11254 0.51771 0.53623 0.0
H311 H 0.06978 0.51968 0.53238 0.0
H312 H 0.19356 0.05474 0.28695 0.0
H313 H 0.16283 1.00682 0.05699 0.0
H314 H 0.12585 1.00314 0.16172 0.0
H315 H 0.16777 1.0233 0.51311 0.0
H316 H 0.16231 0.05074 0.584 0.0
H317 H 0.18682 0.04918 0.49227 0.0
H318 H 0.16963 0.08638 0.39705 0.0
H319 H 0.14492 0.08786 0.48773 0.0
H320 H 0.13896 0.0858 0.35098 0.0
H321 H 0.09089 1.00595 0.28729 0.0
H322 H 0.06228 1.01231 0.43215 0.0
H323 H 0.11508 0.05745 0.58579 0.0
C324 C 0.17923 0.04314 0.25951 0.0
C325 C 0.18127 0.03128 0.16232 0.0
C326 C 0.1618 1.01647 0.12971 0.0
C327 C 0.14061 1.01419 0.18901 0.0
C328 C 0.13888 1.02664 0.28238 0.0
C329 C 0.15777 0.04058 0.31843 0.0
C330 C 0.15102 0.05204 0.42183 0.0
C331 C 0.16799 0.04329 0.5079 0.0
C332 C 0.15114 0.07966 0.41387 0.0
C333 C 0.12547 0.04246 0.43763 0.0
C334 C 0.11881 0.02792 0.35583 0.0
C335 C 0.09601 1.0172 0.35202 0.0
C336 C 0.07977 1.021 0.43459 0.0
C337 C 0.08627 0.03537 0.52073 0.0
C338 C 0.10944 0.0464 0.52118 0.0
H339 H 0.53691 0.15825 0.2151 0.0
H340 H 0.52551 0.21857 0.42349 0.0
H341 H 0.52718 0.19076 0.57239 0.0
H342 H 0.5002 0.11549 0.35446 0.0
H343 H 0.51991 0.09039 0.32809 0.0
H344 H 0.51845 0.11521 0.23871 0.0
H345 H 0.56485 0.1205 0.25402 0.0
H346 H 0.56609 0.09584 0.34441 0.0
H347 H 0.57811 0.12485 0.37988 0.0
H348 H 0.52821 0.15614 0.69909 0.0
H349 H 0.53014 0.11776 0.79452 0.0
H350 H 0.54176 0.07939 0.50659 0.0
C351 C 0.53472 0.1657 0.29197 0.0
C352 C 0.53105 0.19086 0.3067 0.0
C353 C 0.52867 0.19961 0.4093 0.0
C354 C 0.5294 0.18386 0.49462 0.0
C355 C 0.53264 0.15924 0.47697 0.0
C356 C 0.53544 0.15019 0.37819 0.0
C357 C 0.53859 0.12291 0.38067 0.0
C358 C 0.51806 0.11027 0.32201 0.0
C359 C 0.56339 0.1156 0.33718 0.0
C360 C 0.53694 0.11801 0.49631 0.0
C361 C 0.53343 0.13926 0.55015 0.0
C362 C 0.53099 0.13945 0.65748 0.0
C363 C 0.53212 0.11748 0.71111 0.0
C364 C 0.53561 0.09536 0.65822 0.0
C365 C 0.53837 0.09578 0.54918 0.0
H366 H 0.39969 0.55397 0.17363 0.0
H367 H 0.36352 0.48585 0.22938 0.0
H368 H 0.39576 0.47433 0.35103 0.0
H369 H 0.46117 0.53161 0.18545 0.0
H370 H 0.47307 0.55726 0.25411 0.0
H371 H 0.44757 0.56087 0.16953 0.0
H372 H 0.4221 0.57919 0.31604 0.0
H373 H 0.44752 0.57656 0.40182 0.0
H374 H 0.419 0.56316 0.43666 0.0
H375 H 0.43109 0.47038 0.47067 0.0
H376 H 0.46581 0.47519 0.58791 0.0
H377 H 0.48042 0.54559 0.45726 0.0
C378 C 0.39865 0.53651 0.21061 0.0
C379 C 0.37884 0.52081 0.19118 0.0
C380 C 0.37817 0.49834 0.24311 0.0
C381 C 0.39658 0.49154 0.31195 0.0
C382 C 0.41574 0.50736 0.32907 0.0
C383 C 0.41688 0.52948 0.28054 0.0
C384 C 0.43901 0.5435 0.31677 0.0
C385 C 0.45624 0.54858 0.22602 0.0
C386 C 0.43145 0.56699 0.37106 0.0
C387 C 0.45013 0.5258 0.39311 0.0
C388 C 0.43636 0.50504 0.39833 0.0
C389 C 0.44209 0.48645 0.46635 0.0
C390 C 0.46196 0.4893 0.53246 0.0
C391 C 0.47618 0.51049 0.5306 0.0
C392 C 0.47037 0.52886 0.45848 0.0
H393 H 0.06864 0.37147 0.35087 0.0
H394 H 0.99467 0.36846 0.24438 0.0
H395 H 0.98494 0.40455 0.34986 0.0
H396 H 0.05397 0.39013 0.61716 0.0
H397 H 0.0803 0.40904 0.62753 0.0
H398 H 0.08094 0.38283 0.54536 0.0
H399 H 0.09368 0.40967 0.39068 0.0
H400 H 0.09265 0.43601 0.47194 0.0
H401 H 0.07507 0.43494 0.35492 0.0
H402 H 0.98448 0.44361 0.45621 0.0
H403 H 0.99142 0.47779 0.57602 0.0
H404 H 0.06482 0.45345 0.62444 0.0
C405 C 0.05028 0.37815 0.35157 0.0
C406 C 0.03232 0.36701 0.29004 0.0
C407 C 1.00858 0.37644 0.2921 0.0
C408 C 1.00298 0.39709 0.35104 0.0
C409 C 1.02123 0.40797 0.40909 0.0
C410 C 0.04427 0.39844 0.41174 0.0
C411 C 0.06049 0.41319 0.4822 0.0
C412 C 0.06945 0.39788 0.57349 0.0
C413 C 0.08173 0.42409 0.42127 0.0
C414 C 0.0431 0.43263 0.51821 0.0
C415 C 1.02063 0.42957 0.4738 0.0
C416 C 1.00193 0.44593 0.49229 0.0
C417 C 1.00608 0.46543 0.55983 0.0
C418 C 1.02864 0.46828 0.60974 0.0
C419 C 0.04737 0.4517 0.58767 0.0
H420 H 0.8706 0.04696 0.1489 0.0
H421 H 0.90794 1.00603 0.3857 0.0
H422 H 0.94375 1.00337 0.27358 0.0
H423 H 0.89491 1.01258 0.93065 0.0
H424 H 0.89719 0.03853 0.8475 0.0
H425 H 0.87444 0.03753 0.94727 0.0
H426 H 0.89046 0.07779 0.0213 0.0
H427 H 0.91344 0.07877 0.92245 0.0
H428 H 0.9218 0.08026 0.05699 0.0
H429 H 0.97699 1.00631 0.1361 0.0
H430 H 1.00239 1.01139 0.97882 0.0
H431 H 0.94324 0.04801 0.82737 0.0
C432 C 0.88612 0.03712 0.17689 0.0
C433 C 0.88621 1.02713 0.27818 0.0
C434 C 0.90727 1.01452 0.31041 0.0
C435 C 0.92784 1.01276 0.24672 0.0
C436 C 0.92735 1.02331 0.14899 0.0
C437 C 0.90689 0.03492 0.11346 0.0
C438 C 0.91103 0.04431 0.00417 0.0
C439 C 0.89334 0.03253 0.92789 0.0
C440 C 0.90906 0.07192 0.00109 0.0
C441 C 0.93686 0.0361 0.98402 0.0
C442 C 0.94611 1.02426 0.06897 0.0
C443 C 0.96982 1.01548 0.06903 0.0
C444 C 0.98426 1.01857 0.97966 0.0
C445 C 0.97496 0.03012 0.89079 0.0
C446 C 0.95093 0.03903 0.89393 0.0
H447 H 0.52553 0.89226 0.20892 0.0
H448 H 0.55089 0.83533 0.0059 0.0
H449 H 0.55314 0.86445 0.86134 0.0
H450 H 0.48875 0.92337 0.01611 0.0
H451 H 0.496 0.95293 0.0647 0.0
H452 H 0.49567 0.92749 0.15119 0.0
H453 H 0.53954 0.93715 0.20556 0.0
H454 H 0.5401 0.96247 0.11847 0.0
H455 H 0.56273 0.93929 0.10781 0.0
H456 H 0.55558 0.90052 0.74175 0.0
H457 H 0.55427 0.93958 0.65142 0.0
H458 H 0.52533 0.97337 0.92797 0.0
C459 C 0.53146 0.88585 0.1339 0.0
C460 C 0.53808 0.86132 0.11931 0.0
C461 C 0.54547 0.85381 0.01932 0.0
C462 C 0.54698 0.87032 0.93678 0.0
C463 C 0.5408 0.89438 0.95452 0.0
C464 C 0.53284 0.90208 0.0503 0.0
C465 C 0.52716 0.92895 0.04851 0.0
C466 C 0.5003 0.93344 0.07147 0.0
C467 C 0.54335 0.94278 0.12462 0.0
C468 C 0.53339 0.93523 0.937 0.0
C469 C 0.54142 0.91502 0.88459 0.0
C470 C 0.54908 0.91635 0.78193 0.0
C471 C 0.54831 0.93873 0.73123 0.0
C472 C 0.53969 0.95969 0.78208 0.0
C473 C 0.53208 0.95779 0.88669 0.0
H474 H 0.7003 0.53245 0.0967 0.0
H475 H 0.65928 0.53994 0.38063 0.0
H476 H 0.62127 0.53445 0.2833 0.0
H477 H 0.6605 0.56568 0.94034 0.0
H478 H 0.66402 0.54727 0.82642 0.0
H479 H 0.68809 0.54916 0.91931 0.0
H480 H 0.68806 0.50276 0.93927 0.0
H481 H 0.66421 0.5007 0.84519 0.0
H482 H 0.66033 0.48747 0.97149 0.0
H483 H 0.58691 0.53168 0.14977 0.0
H484 H 0.5604 0.52904 0.99495 0.0
H485 H 0.62387 0.5234 0.7996 0.0
C486 C 0.68336 0.53217 0.13866 0.0
C487 C 0.68286 0.53627 0.24682 0.0
C488 C 0.66017 0.53657 0.29814 0.0
C489 C 0.63844 0.53358 0.24329 0.0
C490 C 0.63946 0.53036 0.13628 0.0
C491 C 0.6614 0.52937 0.08468 0.0
C492 C 0.65751 0.52686 0.96886 0.0
C493 C 0.66816 0.54853 0.91033 0.0
C494 C 0.66816 0.50303 0.92886 0.0
C495 C 0.6301 0.52676 0.96328 0.0
C496 C 0.6199 0.52884 0.06045 0.0
C497 C 0.59479 0.52987 0.07343 0.0
C498 C 0.57981 0.52849 0.98513 0.0
C499 C 0.58996 0.52602 0.88506 0.0
C500 C 0.61546 0.5252 0.87497 0.0
H501 H 0.99817 0.69058 0.17342 0.0
H502 H 0.03423 0.65875 0.43725 0.0
H503 H 0.04044 0.62114 0.33824 0.0
H504 H 0.96653 0.63757 0.0979 0.0
H505 H 0.96931 0.64277 0.96072 0.0
H506 H 0.96917 0.66786 0.04908 0.0
H507 H 1.01012 0.68245 0.9752 0.0
H508 H 1.01025 0.65754 0.88585 0.0
H509 H 0.0354 0.66202 0.9719 0.0
H510 H 0.04173 0.5862 0.21152 0.0
H511 H 0.03833 0.55719 0.06656 0.0
H512 H 1.00025 0.61088 0.88628 0.0
C513 C 1.0078 0.67585 0.20946 0.0
C514 C 1.01588 0.67774 0.31314 0.0
C515 C 1.02791 0.65779 0.35813 0.0
C516 C 0.03152 0.63632 0.30239 0.0
C517 C 1.02289 0.63483 0.20131 0.0
C518 C 1.01133 0.65409 0.15504 0.0
C519 C 1.00299 0.6474 0.04671 0.0
C520 C 0.97536 0.649 0.03815 0.0
C521 C 1.01544 0.6633 0.96509 0.0
C522 C 1.01159 0.62142 0.03949 0.0
C523 C 1.02314 0.61456 0.12936 0.0
C524 C 0.03272 0.59144 0.14082 0.0
C525 C 0.03066 0.57502 0.05814 0.0
C526 C 1.01897 0.58164 0.96509 0.0
C527 C 1.00919 0.60517 0.95649 0.0
H528 H 0.94937 0.23187 0.11838 0.0
H529 H 0.98607 0.26003 0.38658 0.0
H530 H 0.96588 0.22998 0.49613 0.0
H531 H 0.89491 0.19866 0.26241 0.0
H532 H 0.89874 0.17381 0.17409 0.0
H533 H 0.90319 0.20428 0.12959 0.0
H534 H 0.94574 0.19239 0.06353 0.0
H535 H 0.94174 0.16236 0.10957 0.0
H536 H 0.96719 0.17979 0.15332 0.0
H537 H 0.9571 0.18978 0.55973 0.0
H538 H 0.96041 0.14577 0.57095 0.0
H539 H 0.93377 0.13913 0.25767 0.0
C540 C 0.95166 0.2326 0.20151 0.0
C541 C 0.96933 0.24794 0.24419 0.0
C542 C 0.97243 0.24854 0.35248 0.0
C543 C 0.96111 0.23127 0.41518 0.0
C544 C 0.9469 0.21359 0.36803 0.0
C545 C 0.94177 0.21439 0.26309 0.0
C546 C 0.9326 0.19024 0.22448 0.0
C547 C 0.90576 0.19185 0.19601 0.0
C548 C 0.94774 0.18067 0.13253 0.0
C549 C 0.9361 0.17508 0.32043 0.0
C550 C 0.94301 0.18911 0.4039 0.0
C551 C 0.95085 0.17875 0.49616 0.0
C552 C 0.95271 0.15364 0.50184 0.0
C553 C 0.9472 0.13909 0.41505 0.0
C554 C 0.9378 0.14993 0.32521 0.0
H555 H 0.31017 0.0309 0.38864 0.0
H556 H 0.30458 0.10284 0.26758 0.0
H557 H 0.3382 0.11584 0.37679 0.0
H558 H 0.34751 0.04892 0.65309 0.0
H559 H 0.36491 1.02194 0.63185 0.0
H560 H 0.33284 1.0219 0.60791 0.0
H561 H 0.34165 1.00588 0.42403 0.0
H562 H 0.37332 1.00665 0.44652 0.0
H563 H 0.36095 1.02307 0.33863 0.0
H564 H 0.38077 0.11568 0.41345 0.0
H565 H 0.42361 0.10392 0.39913 0.0
H566 H 0.40528 0.03134 0.49136 0.0
C567 C 0.31486 0.04979 0.39352 0.0
C568 C 0.30529 0.06587 0.32065 0.0
C569 C 0.31172 0.0904 0.32434 0.0
C570 C 0.33107 0.09782 0.38575 0.0
C571 C 0.34349 0.08044 0.44275 0.0
C572 C 0.33498 0.05693 0.45099 0.0
C573 C 0.35453 0.04017 0.49003 0.0
C574 C 0.3496 0.03283 0.60251 0.0
C575 C 0.35779 1.0177 0.42046 0.0
C576 C 0.37603 0.05677 0.48419 0.0
C577 C 0.36923 0.08022 0.46276 0.0
C578 C 0.38624 0.09766 0.43474 0.0
C579 C 0.4105 0.09082 0.42559 0.0
C580 C 0.41736 0.06668 0.44279 0.0
C581 C 0.40016 0.04986 0.47713 0.0
H582 H 0.62006 0.32324 0.11304 0.0
H583 H 0.58435 0.28991 0.37369 0.0
H584 H 0.6053 0.31728 0.49182 0.0
H585 H 0.67577 0.35233 0.27122 0.0
H586 H 0.67277 0.37881 0.19163 0.0
H587 H 0.66814 0.34933 0.13635 0.0
H588 H 0.62621 0.36303 0.07147 0.0
H589 H 0.63037 0.39203 0.12771 0.0
H590 H 0.6044 0.3743 0.16353 0.0
H591 H 0.61275 0.35618 0.56702 0.0
H592 H 0.60702 0.39951 0.58973 0.0
H593 H 0.63622 0.41222 0.28331 0.0
C594 C 0.61803 0.32089 0.19576 0.0
C595 C 0.60039 0.3049 0.23433 0.0
C596 C 0.59787 0.30198 0.34233 0.0
C597 C 0.60971 0.31768 0.4102 0.0
C598 C 0.62394 0.33609 0.36869 0.0
C599 C 0.62874 0.33739 0.26335 0.0
C600 C 0.63841 0.36203 0.23375 0.0
C601 C 0.66538 0.36053 0.2067 0.0
C602 C 0.62395 0.37348 0.14411 0.0
C603 C 0.63467 0.37537 0.33469 0.0
C604 C 0.62779 0.3598 0.41315 0.0
C605 C 0.61902 0.36839 0.50752 0.0
C606 C 0.61575 0.39322 0.51976 0.0
C607 C 0.62096 0.40927 0.43757 0.0
C608 C 0.63203 0.40028 0.34702 0.0
H609 H 0.24082 0.49964 0.37336 0.0
H610 H 0.26424 0.57336 0.34987 0.0
H611 H 0.23467 0.58529 0.48213 0.0
H612 H 0.18993 0.508 0.32984 0.0
H613 H 0.17356 0.48791 0.41439 0.0
H614 H 0.20416 0.48154 0.3832 0.0
H615 H 0.2157 0.48101 0.57682 0.0
H616 H 0.18459 0.4869 0.60999 0.0
H617 H 0.2081 0.50619 0.65867 0.0
H618 H 0.194 0.59223 0.54544 0.0
H619 H 0.1499 0.59332 0.54021 0.0
H620 H 0.14911 0.51602 0.48743 0.0
C621 C 0.24073 0.51785 0.4034 0.0
C622 C 0.25435 0.53562 0.35288 0.0
C623 C 0.25399 0.55951 0.38942 0.0
C624 C 0.23709 0.56639 0.46449 0.0
C625 C 0.22075 0.54914 0.50075 0.0
C626 C 0.22295 0.52496 0.47375 0.0
C627 C 0.19969 0.51141 0.49413 0.0
C628 C 0.19136 0.49643 0.39972 0.0
C629 C 0.20217 0.49544 0.59065 0.0
C630 C 0.1831 0.53235 0.51617 0.0
C631 C 0.19578 0.55354 0.52879 0.0
C632 C 0.18398 0.57561 0.53779 0.0
C633 C 0.15875 0.5761 0.53129 0.0
C634 C 0.14548 0.55477 0.51077 0.0
C635 C 0.1581 0.53267 0.50581 0.0
H636 H 0.05939 0.8023 0.1342 0.0
H637 H 0.98272 0.80637 0.08338 0.0
H638 H 0.98906 0.83662 0.9477 0.0
H639 H 0.06858 0.8537 0.16915 0.0
H640 H 0.0968 0.86014 0.10485 0.0
H641 H 0.08997 0.82998 0.14157 0.0
H642 H 0.09519 0.8151 0.95347 0.0
H643 H 0.1031 0.84537 0.91568 0.0
H644 H 0.07911 0.82973 0.85005 0.0
H645 H 0.99973 0.87649 0.89534 0.0
H646 H 1.01426 0.91809 0.91058 0.0
H647 H 0.08476 0.89205 0.00081 0.0
C648 C 0.04437 0.80824 0.08728 0.0
C649 C 1.02074 0.8022 0.11724 0.0
C650 C 1.00099 0.81059 0.05931 0.0
C651 C 1.00453 0.82795 0.98242 0.0
C652 C 1.02789 0.83662 0.96545 0.0
C653 C 0.04779 0.82634 0.01345 0.0
C654 C 0.0697 0.84265 0.00563 0.0
C655 C 0.08189 0.84688 0.11159 0.0
C656 C 0.08784 0.83262 0.92646 0.0
C657 C 0.05793 0.86524 0.96471 0.0
C658 C 0.03425 0.86097 0.93585 0.0
C659 C 1.01845 0.87983 0.9141 0.0
C660 C 1.0267 0.90345 0.92531 0.0
C661 C 0.05058 0.90814 0.95811 0.0
C662 C 0.06658 0.88881 0.97387 0.0
H663 H 0.74762 0.0972 0.18162 0.0
H664 H 0.77403 0.03009 0.0587 0.0
H665 H 0.74093 0.0291 0.93424 0.0
H666 H 0.69857 0.08374 0.23079 0.0
H667 H 0.67963 0.10849 0.19222 0.0
H668 H 0.71083 0.11373 0.21624 0.0
H669 H 0.71632 0.13139 0.03227 0.0
H670 H 0.68458 0.12663 0.0091 0.0
H671 H 0.70667 0.11436 0.92108 0.0
H672 H 0.69884 1.02168 0.91593 0.0
H673 H 0.65572 1.01619 0.95361 0.0
H674 H 0.65255 0.0876 0.08717 0.0
C675 C 0.74734 0.08365 0.12142 0.0
C676 C 0.7625 0.06344 0.13045 0.0
C677 C 0.76229 0.04564 0.05285 0.0
C678 C 0.74325 0.04487 0.98242 0.0
C679 C 0.72515 0.06228 0.99046 0.0
C680 C 0.72769 0.08238 0.05383 0.0
C681 C 0.70364 0.09508 0.0689 0.0
C682 C 0.69789 0.10049 0.18379 0.0
C683 C 0.70275 0.11823 0.00391 0.0
C684 C 0.68687 0.0763 0.02471 0.0
C685 C 0.69961 0.05812 0.9755 0.0
C686 C 0.68861 0.03635 0.9494 0.0
C687 C 0.66422 0.03313 0.97344 0.0
C688 C 0.65098 0.05158 0.02305 0.0
C689 C 0.6623 0.07358 0.04653 0.0
H690 H 0.4495 0.72627 0.28816 0.0
H691 H 0.48295 0.763 0.03039 0.0
H692 H 0.45996 0.73797 0.9093 0.0
H693 H 0.46438 0.67583 0.21782 0.0
H694 H 0.43873 0.65784 0.25573 0.0
H695 H 0.44417 0.68585 0.31875 0.0
H696 H 0.40146 0.70076 0.26984 0.0
H697 H 0.3957 0.67232 0.207 0.0
H698 H 0.39183 0.70009 0.13678 0.0
H699 H 0.44918 0.70102 0.82256 0.0
H700 H 0.45361 0.65786 0.78391 0.0
H701 H 0.43195 0.64023 0.09619 0.0
C702 C 0.45078 0.72979 0.20594 0.0
C703 C 0.46819 0.74615 0.16837 0.0
C704 C 0.46961 0.75064 0.06103 0.0
C705 C 0.45657 0.73632 0.9915 0.0
C706 C 0.44239 0.71756 0.03064 0.0
C707 C 0.43906 0.71452 0.1363 0.0
C708 C 0.42957 0.68952 0.1609 0.0
C709 C 0.44518 0.67653 0.24282 0.0
C710 C 0.40306 0.69076 0.19563 0.0
C711 C 0.43165 0.67788 0.0553 0.0
C712 C 0.43733 0.69477 0.98 0.0
C713 C 0.44409 0.68782 0.88022 0.0
C714 C 0.44685 0.66326 0.85905 0.0
C715 C 0.44344 0.64598 0.9379 0.0
C716 C 0.43416 0.65324 0.03455 0.0
H717 H 0.81934 0.45206 0.31209 0.0
H718 H 0.79688 0.50399 0.08292 0.0
H719 H 0.82459 0.48574 0.95614 0.0
H720 H 0.87418 0.46253 0.28625 0.0
H721 H 0.88695 0.43299 0.30506 0.0
H722 H 0.8579 0.43977 0.35752 0.0
H723 H 0.83899 0.40394 0.25848 0.0
H724 H 0.86836 0.39658 0.20673 0.0
H725 H 0.84327 0.4013 0.12061 0.0
H726 H 0.86309 0.47369 0.88077 0.0
H727 H 0.90715 0.47021 0.86724 0.0
H728 H 0.90867 0.42856 0.15018 0.0
C729 C 0.81931 0.45848 0.23298 0.0
C730 C 0.80617 0.47935 0.20696 0.0
C731 C 0.80658 0.48778 0.10393 0.0
C732 C 0.82242 0.4775 0.03148 0.0
C733 C 0.83765 0.45888 0.06358 0.0
C734 C 0.83591 0.44912 0.16207 0.0
C735 C 0.85807 0.43436 0.18854 0.0
C736 C 0.86995 0.44297 0.29012 0.0
C737 C 0.85179 0.40744 0.19384 0.0
C738 C 0.87371 0.4397 0.09531 0.0
C739 C 0.86115 0.45269 0.02148 0.0
C740 C 0.87284 0.46286 0.93632 0.0
C741 C 0.89798 0.46084 0.92933 0.0
C742 C 0.91127 0.44923 0.00828 0.0
C743 C 0.89882 0.43743 0.08882 0.0
H744 H 0.03167 0.1953 0.12461 0.0
H745 H 0.0296 0.23978 0.84966 0.0
H746 H 0.03394 0.20319 0.74063 0.0
H747 H 0.07469 0.14926 0.0264 0.0
H748 H 0.05893 0.12522 0.09148 0.0
H749 H 0.05882 0.15511 0.14577 0.0
H750 H 1.01206 0.15454 0.14808 0.0
H751 H 1.012 0.12485 0.0922 0.0
H752 H 0.99594 0.14898 0.02954 0.0
H753 H 0.03271 0.16061 0.66198 0.0
H754 H 0.03125 0.11706 0.62144 0.0
H755 H 0.03502 0.1006 0.94902 0.0
C756 C 0.03301 0.19743 0.04147 0.0
C757 C 0.03067 0.22053 0.99567 0.0
C758 C 0.03192 0.22243 0.88656 0.0
C759 C 0.03408 0.20166 0.8241 0.0
C760 C 0.03519 0.17907 0.87185 0.0
C761 C 0.03516 0.17693 0.97838 0.0
C762 C 0.03531 0.15066 0.0112 0.0
C763 C 0.05831 0.14471 0.07231 0.0
C764 C 1.01248 0.1444 0.07393 0.0
C765 C 0.03525 0.1382 0.90662 0.0
C766 C 0.03498 0.15485 0.82705 0.0
C767 C 0.03339 0.14751 0.72387 0.0
C768 C 0.03244 0.12266 0.70154 0.0
C769 C 0.03333 0.10525 0.78171 0.0
C770 C 0.03474 0.11333 0.88559 0.0
H771 H 0.36147 0.06422 0.06608 0.0
H772 H 0.32393 1.00918 0.88959 0.0
H773 H 0.36173 1.00106 0.79329 0.0
H774 H 0.40172 0.08621 0.87357 0.0
H775 H 0.4269 0.08896 0.9608 0.0
H776 H 0.39652 0.0917 0.00935 0.0
H777 H 0.40459 0.05769 0.1418 0.0
H778 H 0.43504 0.05493 0.09427 0.0
H779 H 0.41554 0.02896 0.09677 0.0
H780 H 0.4047 1.00158 0.70531 0.0
H781 H 0.44832 1.00428 0.66306 0.0
H782 H 0.45844 0.05386 0.9181 0.0
C783 C 0.36082 0.05017 0.00825 0.0
C784 C 0.33901 0.03732 0.98726 0.0
C785 C 0.33979 1.01975 0.90737 0.0
C786 C 0.36139 1.01497 0.85191 0.0
C787 C 0.38239 0.02786 0.87604 0.0
C788 C 0.38225 0.04473 0.95435 0.0
C789 C 0.40748 0.05473 0.97285 0.0
C790 C 0.40818 0.08202 0.95294 0.0
C791 C 0.41617 0.04871 0.0829 0.0
C792 C 0.422 0.04114 0.89167 0.0
C793 C 0.40715 1.02613 0.83466 0.0
C794 C 0.41639 1.01294 0.75121 0.0
C795 C 0.44126 1.01467 0.72731 0.0
C796 C 0.45706 0.02899 0.78792 0.0
C797 C 0.44705 0.04243 0.87105 0.0
H798 H 0.56812 0.34122 0.90359 0.0
H799 H 0.50428 0.33566 0.09628 0.0
H800 H 0.49222 0.37686 0.04362 0.0
H801 H 0.58204 0.40072 0.95789 0.0
H802 H 0.59182 0.40888 0.82939 0.0
H803 H 0.594 0.3781 0.87185 0.0
H804 H 0.56894 0.3644 0.7146 0.0
H805 H 0.56621 0.39511 0.67102 0.0
H806 H 0.53952 0.37729 0.69275 0.0
H807 H 0.49064 0.42104 0.9908 0.0
H808 H 0.49607 0.46221 0.92189 0.0
H809 H 0.55962 0.43873 0.7533 0.0
C810 C 0.55112 0.34836 0.93156 0.0
C811 C 0.53689 0.33497 0.00291 0.0
C812 C 0.51513 0.34523 0.03985 0.0
C813 C 0.50832 0.36878 0.01114 0.0
C814 C 0.52325 0.38181 0.944 0.0
C815 C 0.54391 0.37171 0.9025 0.0
C816 C 0.55723 0.38979 0.83447 0.0
C817 C 0.58278 0.39466 0.87591 0.0
C818 C 0.55802 0.38112 0.72152 0.0
C819 C 0.5412 0.41187 0.84609 0.0
C820 C 0.5218 0.40692 0.91035 0.0
C821 C 0.50548 0.4249 0.93879 0.0
C822 C 0.50882 0.44834 0.89974 0.0
C823 C 0.52813 0.45377 0.83138 0.0
C824 C 0.54446 0.43513 0.80406 0.0
H825 H 0.203 0.49995 0.10401 0.0
H826 H 0.23653 0.54721 0.87845 0.0
H827 H 0.19727 0.55076 0.78764 0.0
H828 H 0.15993 0.47017 0.92778 0.0
H829 H 0.13652 0.46923 0.02487 0.0
H830 H 0.16778 0.46808 0.06278 0.0
H831 H 0.16092 0.50467 0.18249 0.0
H832 H 0.12981 0.50648 0.14383 0.0
H833 H 0.14924 0.5323 0.12935 0.0
H834 H 0.1524 0.55336 0.73582 0.0
H835 H 0.10807 0.5514 0.71565 0.0
H836 H 0.10352 0.50272 0.97668 0.0
C837 C 0.20231 0.51084 0.0346 0.0
C838 C 0.22322 0.52339 0.99912 0.0
C839 C 0.22116 0.53717 0.90717 0.0
C840 C 0.19874 0.5395 0.85566 0.0
C841 C 0.17834 0.52789 0.89636 0.0
C842 C 0.18008 0.51353 0.98313 0.0
C843 C 0.15539 0.50379 0.01463 0.0
C844 C 0.15488 0.47618 0.00704 0.0
C845 C 0.14844 0.51233 0.12404 0.0
C846 C 0.13924 0.5152 0.93322 0.0
C847 C 0.15285 0.52897 0.86546 0.0
C848 C 0.14179 0.54205 0.78659 0.0
C849 C 0.11649 0.54071 0.77536 0.0
C850 C 0.10208 0.52636 0.84221 0.0
C851 C 0.11383 0.51364 0.92306 0.0
H852 H 0.99366 0.85693 0.37337 0.0
H853 H 0.04181 0.81993 0.58416 0.0
H854 H 0.04902 0.85849 0.67638 0.0
H855 H 1.02842 0.90975 0.3467 0.0
H856 H 1.003 0.92994 0.34053 0.0
H857 H 0.99984 0.89922 0.29811 0.0
H858 H 0.96419 0.89306 0.42539 0.0
H859 H 0.96706 0.92386 0.46756 0.0
H860 H 0.96823 0.89975 0.56076 0.0
H861 H 0.05481 0.90257 0.73079 0.0
H862 H 0.05401 0.94646 0.76112 0.0
H863 H 1.00208 0.95492 0.51392 0.0
C864 C 1.00555 0.85679 0.43973 0.0
C865 C 1.01723 0.83516 0.471 0.0
C866 C 0.03243 0.83599 0.55895 0.0
C867 C 0.03682 0.85794 0.61115 0.0
C868 C 1.0258 0.87902 0.57506 0.0
C869 C 1.01015 0.87849 0.49224 0.0
C870 C 1.00099 0.90365 0.4667 0.0
C871 C 1.00851 0.91107 0.35649 0.0
C872 C 0.97348 0.90516 0.48098 0.0
C873 C 1.01405 0.91863 0.54753 0.0
C874 C 1.02837 0.90408 0.60888 0.0
C875 C 0.04304 0.91393 0.68537 0.0
C876 C 0.04247 0.93899 0.70208 0.0
C877 C 1.02762 0.95436 0.64197 0.0
C878 C 1.0134 0.94384 0.56269 0.0
H879 H 0.70661 1.02313 0.33518 0.0
H880 H 0.74467 0.04709 0.60951 0.0
H881 H 0.70608 0.04636 0.70739 0.0
H882 H 0.6542 0.05928 0.37345 0.0
H883 H 0.63335 0.03714 0.32459 0.0
H884 H 0.66404 0.03761 0.2784 0.0
H885 H 0.66946 0.9931 0.3316 0.0
H886 H 0.63869 0.99232 0.3769 0.0
H887 H 0.66291 0.98405 0.46269 0.0
H888 H 0.66205 0.04684 0.76997 0.0
H889 H 0.61832 0.04269 0.80251 0.0
H890 H 0.60824 1.01973 0.48449 0.0
C891 C 0.70702 0.02814 0.41612 0.0
C892 C 0.72909 0.03531 0.46397 0.0
C893 C 0.72839 0.04128 0.57064 0.0
C894 C 0.70638 0.04117 0.62665 0.0
C895 C 0.68496 0.03498 0.57555 0.0
C896 C 0.6852 0.0283 0.47274 0.0
C897 C 0.65969 1.02285 0.43489 0.0
C898 C 0.6524 0.04025 0.3477 0.0
C899 C 0.65757 0.99651 0.39945 0.0
C900 C 0.64491 1.02737 0.5327 0.0
C901 C 0.65986 0.0345 0.61261 0.0
C902 C 0.65037 0.04038 0.70941 0.0
C903 C 0.62532 0.03816 0.72665 0.0
C904 C 0.60945 0.03057 0.64685 0.0
C905 C 0.61963 1.02537 0.54798 0.0
H906 H 0.49677 0.70744 0.48637 0.0
H907 H 0.56592 0.71653 0.33417 0.0
H908 H 0.57826 0.67593 0.39469 0.0
H909 H 0.51931 0.67298 0.71154 0.0
H910 H 0.49321 0.65373 0.71541 0.0
H911 H 0.49036 0.68427 0.67012 0.0
H912 H 0.47198 0.66918 0.49882 0.0
H913 H 0.47421 0.63858 0.54363 0.0
H914 H 0.48802 0.64716 0.42266 0.0
H915 H 0.58058 0.63182 0.45274 0.0
H916 H 0.57491 0.59051 0.51933 0.0
H917 H 0.50467 0.61053 0.64075 0.0
C918 C 0.51482 0.70119 0.46838 0.0
C919 C 0.53052 0.7154 0.40632 0.0
C920 C 0.55379 0.70631 0.38318 0.0
C921 C 0.56081 0.68311 0.41639 0.0
C922 C 0.54448 0.66923 0.47384 0.0
C923 C 0.52211 0.67818 0.50129 0.0
C924 C 0.50753 0.65947 0.56044 0.0
C925 C 0.5023 0.66819 0.67099 0.0
C926 C 0.48405 0.65324 0.50293 0.0
C927 C 0.5249 0.63829 0.56059 0.0
C928 C 0.54608 0.64425 0.50967 0.0
C929 C 0.56423 0.6272 0.49419 0.0
C930 C 0.56077 0.60365 0.53201 0.0
C931 C 0.53944 0.59714 0.58628 0.0
C932 C 0.52135 0.61491 0.60111 0.0
H933 H 0.85659 0.53372 0.39079 0.0
H934 H 0.81357 0.51413 0.65788 0.0
H935 H 0.85042 0.51544 0.76741 0.0
H936 H 0.90651 0.49793 0.44951 0.0
H937 H 0.92876 0.51889 0.40198 0.0
H938 H 0.8988 0.51894 0.34866 0.0
H939 H 0.89407 0.56418 0.39334 0.0
H940 H 0.92419 0.5644 0.44548 0.0
H941 H 0.89914 0.57422 0.52418 0.0
H942 H 0.89405 0.51506 0.84341 0.0
H943 H 0.93803 0.51574 0.87909 0.0
H944 H 0.95162 0.53639 0.56063 0.0
C945 C 0.85478 0.5304 0.47304 0.0
C946 C 0.83203 0.52418 0.51601 0.0
C947 C 0.8306 0.51945 0.62357 0.0
C948 C 0.85155 0.51993 0.68606 0.0
C949 C 0.87385 0.52536 0.64014 0.0
C950 C 0.87541 0.53085 0.53601 0.0
C951 C 0.9014 0.53509 0.50326 0.0
C952 C 0.90933 0.51661 0.42102 0.0
C953 C 0.9049 0.56101 0.46429 0.0
C954 C 0.91446 0.53102 0.60479 0.0
C955 C 0.89838 0.52531 0.6831 0.0
C956 C 0.90663 0.51978 0.78253 0.0
C957 C 0.93173 0.52018 0.80217 0.0
C958 C 0.94849 0.52642 0.72331 0.0
C959 C 0.93946 0.5319 0.62346 0.0
loop_
_geom_bond_atom_site_label_1
_geom_bond_atom_site_label_2
_geom_bond_distance
_geom_bond_site_symmetry_2
_ccdc_geom_bond_type
H0 C1 0.949 . S
C1 H0 0.949 . S
C1 C2 1.395 . S
C1 C3 1.391 . S
C2 C1 1.395 . S
C2 C5 1.390 . S
C3 C1 1.391 . S
C3 C7 1.387 . S
C3 C8 1.491 . S
H4 C5 0.950 . S
C5 C2 1.390 . S
C5 H4 0.950 . S
C5 C6 1.378 . S
C6 C5 1.378 . S
C6 C7 1.409 . S
C7 C3 1.387 . S
C7 C6 1.409 . S
C7 H9 0.951 . S
C8 C3 1.491 . S
C8 C10 1.382 . S
C8 C12 1.404 . S
H9 C7 0.951 . S
C10 C8 1.382 . S
C10 C11 1.390 . S
C10 H15 0.949 . S
C11 C10 1.390 . S
C11 C16 1.399 . S
C12 C8 1.404 . S
C12 H13 0.950 . S
C12 C14 1.375 . S
H13 C12 0.950 . S
C14 C12 1.375 . S
C14 C16 1.382 . S
C14 H18 0.950 . S
H15 C10 0.949 . S
C16 C11 1.399 . S
C16 C14 1.382 . S
C16 H17 0.952 . S
H17 C16 0.952 . S
H18 C14 0.950 . S
H19 C20 0.949 . S
C20 H19 0.949 . S
C20 C21 1.395 . S
C20 C22 1.391 . S
C21 C20 1.395 . S
C21 C24 1.390 1_655 S
C22 C20 1.391 . S
C22 C26 1.387 . S
C22 C27 1.491 . S
H23 C24 0.950 . S
C24 C21 1.390 1_455 S
C24 H23 0.950 . S
C24 C25 1.377 1_455 S
C25 C24 1.377 1_655 S
C25 C26 1.413 . S
C26 C22 1.387 . S
C26 C25 1.413 . S
C26 H28 0.951 . S
C27 C22 1.491 . S
C27 C29 1.382 . S
C27 C31 1.404 . S
H28 C26 0.951 . S
C29 C27 1.382 . S
C29 C30 1.390 . S
C29 H34 0.949 1_655 S
C30 C29 1.390 . S
C30 C35 1.399 . S
C31 C27 1.404 . S
C31 H32 0.950 . S
C31 C33 1.375 . S
H32 C31 0.950 . S
C33 C31 1.375 . S
C33 C35 1.382 . S
C33 H37 0.950 . S
H34 C29 0.949 1_455 S
C35 C30 1.399 . S
C35 C33 1.382 . S
C35 H36 0.952 . S
H36 C35 0.952 . S
H37 C33 0.950 . S
H38 C39 0.949 . S
C39 H38 0.949 . S
C39 C40 1.395 . S
C39 C41 1.391 . S
C40 C39 1.395 . S
C40 C43 1.390 1_565 S
C41 C39 1.391 . S
C41 C45 1.387 . S
C41 C46 1.491 . S
H42 C43 0.950 . S
C43 C40 1.390 1_545 S
C43 H42 0.950 . S
C43 C44 1.377 1_545 S
C44 C43 1.377 1_565 S
C44 C45 1.413 . S
C45 C41 1.387 . S
C45 C44 1.413 . S
C45 H47 0.951 . S
C46 C41 1.491 . S
C46 C48 1.382 . S
C46 C50 1.404 . S
H47 C45 0.951 . S
C48 C46 1.382 . S
C48 C49 1.390 . S
C48 H53 0.949 1_565 S
C49 C48 1.390 . S
C49 C54 1.399 . S
C50 C46 1.404 . S
C50 H51 0.950 . S
C50 C52 1.375 . S
H51 C50 0.950 . S
C52 C50 1.375 . S
C52 C54 1.382 . S
C52 H56 0.950 . S
H53 C48 0.949 1_545 S
C54 C49 1.399 . S
C54 C52 1.382 . S
C54 H55 0.952 . S
H55 C54 0.952 . S
H56 C52 0.950 . S
H57 C58 0.949 . S
C58 H57 0.949 . S
C58 C59 1.395 . S
C58 C60 1.391 . S
C59 C58 1.395 . S
C59 C62 1.390 . S
C60 C58 1.391 . S
C60 C64 1.387 . S
C60 C65 1.491 . S
H61 C62 0.950 . S
C62 C59 1.390 . S
C62 H61 0.950 . S
C62 C63 1.378 . S
C63 C62 1.378 . S
C63 C64 1.409 . S
C64 C60 1.387 . S
C64 C63 1.409 . S
C64 H66 0.951 . S
C65 C60 1.491 . S
C65 C67 1.382 . S
C65 C69 1.404 . S
H66 C64 0.951 . S
C67 C65 1.382 . S
C67 C68 1.390 . S
C67 H72 0.949 . S
C68 C67 1.390 . S
C68 C73 1.399 . S
C69 C65 1.404 . S
C69 H70 0.950 . S
C69 C71 1.375 . S
H70 C69 0.950 . S
C71 C69 1.375 . S
C71 C73 1.382 . S
C71 H75 0.950 . S
H72 C67 0.949 . S
C73 C68 1.399 . S
C73 C71 1.382 . S
C73 H74 0.952 . S
H74 C73 0.952 . S
H75 C71 0.950 . S
H76 C77 0.949 . S
C77 H76 0.949 . S
C77 C78 1.395 . S
C77 C79 1.391 1_554 S
C78 C77 1.395 . S
C78 C81 1.390 1_554 S
C79 C77 1.391 1_556 S
C79 C83 1.387 . S
C79 C84 1.491 . S
H80 C81 0.950 . S
C81 C78 1.390 1_556 S
C81 H80 0.950 . S
C81 C82 1.378 . S
C82 C81 1.378 . S
C82 C83 1.409 . S
C83 C79 1.387 . S
C83 C82 1.409 . S
C83 H85 0.951 . S
C84 C79 1.491 . S
C84 C86 1.382 1_556 S
C84 C88 1.404 . S
H85 C83 0.951 . S
C86 C84 1.382 1_554 S
C86 C87 1.390 . S
C86 H91 0.949 . S
C87 C86 1.390 . S
C87 C92 1.399 1_554 S
C88 C84 1.404 . S
C88 H89 0.950 . S
C88 C90 1.375 . S
H89 C88 0.950 . S
C90 C88 1.375 . S
C90 C92 1.382 . S
C90 H94 0.950 . S
H91 C86 0.949 . S
C92 C87 1.399 1_556 S
C92 C90 1.382 . S
C92 H93 0.952 . S
H93 C92 0.952 . S
H94 C90 0.950 . S
H95 C96 0.949 . S
C96 H95 0.949 . S
C96 C97 1.395 1_655 S
C96 C98 1.391 1_554 S
C97 C96 1.395 1_455 S
C97 C100 1.390 1_554 S
C98 C96 1.391 1_556 S
C98 C102 1.387 . S
C98 C103 1.491 . S
H99 C100 0.950 . S
C100 C97 1.390 1_556 S
C100 H99 0.950 . S
C100 C101 1.377 1_455 S
C101 C100 1.377 1_655 S
C101 C102 1.411 . S
C102 C98 1.387 . S
C102 C101 1.411 . S
C102 H104 0.951 . S
C103 C98 1.491 . S
C103 C105 1.402 1_556 S
C103 C107 1.404 . S
H104 C102 0.951 . S
C105 C103 1.402 1_554 S
C105 C106 1.400 . S
C105 H110 0.920 1_655 S
C106 C105 1.400 . S
C106 C111 1.399 1_554 S
C107 C103 1.404 . S
C107 H108 0.950 . S
C107 C109 1.375 . S
H108 C107 0.950 . S
C109 C107 1.375 . S
C109 C111 1.382 . S
C109 H113 0.950 . S
H110 C105 0.920 1_455 S
C111 C106 1.399 1_556 S
C111 C109 1.382 . S
C111 H112 0.952 . S
H112 C111 0.952 . S
H113 C109 0.950 . S
H114 C115 0.949 . S
C115 H114 0.949 . S
C115 C116 1.395 1_565 S
C115 C117 1.391 1_554 S
C116 C115 1.395 1_545 S
C116 C119 1.390 1_554 S
C117 C115 1.391 1_556 S
C117 C121 1.387 . S
C117 C122 1.491 . S
H118 C119 0.950 . S
C119 C116 1.390 1_556 S
C119 H118 0.950 . S
C119 C120 1.377 1_545 S
C120 C119 1.377 1_565 S
C120 C121 1.411 . S
C121 C117 1.387 . S
C121 C120 1.411 . S
C121 H123 0.951 . S
C122 C117 1.491 . S
C122 C124 1.402 1_556 S
C122 C126 1.404 . S
H123 C121 0.951 . S
C124 C122 1.402 1_554 S
C124 C125 1.400 . S
C124 H129 0.920 1_565 S
C125 C124 1.400 . S
C125 C130 1.399 1_554 S
C126 C122 1.404 . S
C126 H127 0.950 . S
C126 C128 1.375 . S
H127 C126 0.950 . S
C128 C126 1.375 . S
C128 C130 1.382 . S
C128 H132 0.950 . S
H129 C124 0.920 1_545 S
C130 C125 1.399 1_556 S
C130 C128 1.382 . S
C130 H131 0.952 . S
H131 C130 0.952 . S
H132 C128 0.950 . S
H133 C134 0.949 . S
C134 H133 0.949 . S
C134 C135 1.395 . S
C134 C136 1.391 1_554 S
C135 C134 1.395 . S
C135 C138 1.390 1_554 S
C136 C134 1.391 1_556 S
C136 C140 1.387 . S
C136 C141 1.491 . S
H137 C138 0.950 . S
C138 C135 1.390 1_556 S
C138 H137 0.950 . S
C138 C139 1.378 . S
C139 C138 1.378 . S
C139 C140 1.409 . S
C140 C136 1.387 . S
C140 C139 1.409 . S
C140 H142 0.951 . S
C141 C136 1.491 . S
C141 C143 1.382 1_556 S
C141 C145 1.404 . S
H142 C140 0.951 . S
C143 C141 1.382 1_554 S
C143 C144 1.390 . S
C143 H148 0.949 . S
C144 C143 1.390 . S
C144 C149 1.399 1_554 S
C145 C141 1.404 . S
C145 H146 0.950 . S
C145 C147 1.375 . S
H146 C145 0.950 . S
C147 C145 1.375 . S
C147 C149 1.382 . S
C147 H151 0.950 . S
H148 C143 0.949 . S
C149 C144 1.399 1_556 S
C149 C147 1.382 . S
C149 H150 0.952 . S
H150 C149 0.952 . S
H151 C147 0.950 . S
La152 C154 2.928 . S
La152 O172 2.521 . S
La152 O173 2.628 1_455 S
La152 O174 2.554 . S
La152 O175 2.757 1_565 S
La152 O176 2.470 . S
La152 O181 2.482 1_455 S
La152 O183 2.503 1_565 S
La153 C163 2.928 . S
La153 O175 2.482 1_655 S
La153 O177 2.503 1_545 S
La153 O178 2.521 . S
La153 O179 2.624 1_655 S
La153 O180 2.554 . S
La153 O181 2.757 1_545 S
La153 O182 2.470 . S
C154 La152 2.928 . S
C154 C155 1.503 1_556 S
C154 O172 1.261 . S
C154 O173 1.243 1_455 S
C155 C154 1.503 1_554 S
C155 C156 1.394 . S
C155 C160 1.373 . S
C156 C155 1.394 . S
C156 C157 1.380 . S
C156 H184 0.930 . S
C157 C156 1.380 . S
C157 C158 1.376 . S
C157 H185 0.930 . S
C158 C157 1.376 . S
C158 C159 1.370 . S
C159 C158 1.370 . S
C159 C160 1.396 . S
C159 H186 0.929 1_455 S
C160 C155 1.373 . S
C160 C159 1.396 . S
C160 H187 0.929 1_455 S
C161 O174 1.267 . S
C161 O175 1.273 1_565 S
C162 O176 1.258 1_655 S
C162 O177 1.256 . S
C163 La153 2.928 . S
C163 C164 1.503 . S
C163 O178 1.261 . S
C163 O179 1.232 1_655 S
C164 C163 1.503 . S
C164 C165 1.394 . S
C164 C169 1.373 . S
C165 C164 1.394 . S
C165 C166 1.380 . S
C165 H188 0.930 . S
C166 C165 1.380 . S
C166 C167 1.376 . S
C166 H189 0.930 . S
C167 C166 1.376 . S
C167 C168 1.370 . S
C168 C167 1.370 . S
C168 C169 1.396 . S
C168 H190 0.929 1_655 S
C169 C164 1.373 . S
C169 C168 1.396 . S
C169 H191 0.929 1_655 S
C170 O180 1.240 . S
C170 O181 1.289 1_545 S
C171 O182 1.258 1_455 S
C171 O183 1.256 . S
O172 La152 2.521 . S
O172 C154 1.261 . S
O173 La152 2.628 1_655 S
O173 C154 1.243 1_655 S
O174 La152 2.554 . S
O174 C161 1.267 . S
O175 La152 2.757 1_545 S
O175 La153 2.482 1_455 S
O175 C161 1.273 1_545 S
O176 La152 2.470 . S
O176 C162 1.258 1_455 S
O177 La153 2.503 1_565 S
O177 C162 1.256 . S
O178 La153 2.521 . S
O178 C163 1.261 . S
O179 La153 2.624 1_455 S
O179 C163 1.232 1_455 S
O180 La153 2.554 . S
O180 C170 1.240 . S
O181 La152 2.482 1_655 S
O181 La153 2.757 1_565 S
O181 C170 1.289 1_565 S
O182 La153 2.470 . S
O182 C171 1.258 1_655 S
O183 La152 2.503 1_545 S
O183 C171 1.256 . S
H184 C156 0.930 . S
H185 C157 0.930 . S
H186 C159 0.929 1_655 S
H187 C160 0.929 1_655 S
H188 C165 0.930 . S
H189 C166 0.930 . S
H190 C168 0.929 1_455 S
H191 C169 0.929 1_455 S
La192 C194 2.928 . S
La192 O212 2.521 . S
La192 O213 2.626 1_545 S
La192 O214 2.554 . S
La192 O215 2.757 . S
La192 O216 2.470 . S
La192 O221 2.482 1_545 S
La192 O223 2.503 . S
La193 C203 2.928 . S
La193 O215 2.482 1_565 S
La193 O217 2.503 . S
La193 O218 2.521 . S
La193 O219 2.622 1_565 S
La193 O220 2.554 . S
La193 O221 2.757 . S
La193 O222 2.470 . S
C194 La192 2.928 . S
C194 C195 1.503 1_556 S
C194 O212 1.261 . S
C194 O213 1.239 1_545 S
C195 C194 1.503 1_554 S
C195 C196 1.394 . S
C195 C200 1.373 . S
C196 C195 1.394 . S
C196 C197 1.380 . S
C196 H224 0.930 . S
C197 C196 1.380 . S
C197 C198 1.376 . S
C197 H225 0.930 . S
C198 C197 1.376 . S
C198 C199 1.370 . S
C199 C198 1.370 . S
C199 C200 1.396 . S
C199 H226 0.929 1_545 S
C200 C195 1.373 . S
C200 C199 1.396 . S
C200 H227 0.929 1_545 S
C201 O214 1.240 . S
C201 O215 1.289 . S
C202 O216 1.258 1_565 S
C202 O217 1.256 . S
C203 La193 2.928 . S
C203 C204 1.503 . S
C203 O218 1.261 . S
C203 O219 1.229 1_565 S
C204 C203 1.503 . S
C204 C205 1.394 . S
C204 C209 1.373 . S
C205 C204 1.394 . S
C205 C206 1.380 . S
C205 H228 0.930 . S
C206 C205 1.380 . S
C206 C207 1.376 . S
C206 H229 0.930 . S
C207 C206 1.376 . S
C207 C208 1.370 . S
C208 C207 1.370 . S
C208 C209 1.396 . S
C208 H230 0.929 1_565 S
C209 C204 1.373 . S
C209 C208 1.396 . S
C209 H231 0.929 1_565 S
C210 O220 1.240 . S
C210 O221 1.289 . S
C211 O222 1.258 1_545 S
C211 O223 1.256 . S
O212 La192 2.521 . S
O212 C194 1.261 . S
O213 La192 2.626 1_565 S
O213 C194 1.239 1_565 S
O214 La192 2.554 . S
O214 C201 1.240 . S
O215 La192 2.757 . S
O215 La193 2.482 1_545 S
O215 C201 1.289 . S
O216 La192 2.470 . S
O216 C202 1.258 1_545 S
O217 La193 2.503 . S
O217 C202 1.256 . S
O218 La193 2.521 . S
O218 C203 1.261 . S
O219 La193 2.622 1_545 S
O219 C203 1.229 1_545 S
O220 La193 2.554 . S
O220 C210 1.240 . S
O221 La192 2.482 1_565 S
O221 La193 2.757 . S
O221 C210 1.289 . S
O222 La193 2.470 . S
O222 C211 1.258 1_565 S
O223 La192 2.503 . S
O223 C211 1.256 . S
H224 C196 0.930 . S
H225 C197 0.930 . S
H226 C199 0.929 1_565 S
H227 C200 0.929 1_565 S
H228 C205 0.930 . S
H229 C206 0.930 . S
H230 C208 0.929 1_545 S
H231 C209 0.929 1_545 S
La232 C234 2.928 . S
La232 O252 2.521 . S
La232 O253 2.628 . S
La232 O254 2.554 . S
La232 O255 2.757 . S
La232 O256 2.470 . S
La232 O261 2.482 . S
La232 O263 2.503 . S
La233 C243 2.928 . S
La233 O255 2.482 . S
La233 O257 2.503 . S
La233 O258 2.521 . S
La233 O259 2.628 . S
La233 O260 2.554 . S
La233 O261 2.757 . S
La233 O262 2.470 . S
C234 La232 2.928 . S
C234 C235 1.503 1_556 S
C234 O252 1.261 . S
C234 O253 1.243 . S
C235 C234 1.503 1_554 S
C235 C236 1.394 . S
C235 C240 1.373 . S
C236 C235 1.394 . S
C236 C237 1.380 . S
C236 H264 0.930 . S
C237 C236 1.380 . S
C237 C238 1.376 . S
C237 H265 0.930 . S
C238 C237 1.376 . S
C238 C239 1.370 . S
C239 C238 1.370 . S
C239 C240 1.396 . S
C239 H266 0.929 . S
C240 C235 1.373 . S
C240 C239 1.396 . S
C240 H267 0.929 . S
C241 O254 1.240 . S
C241 O255 1.289 . S
C242 O256 1.258 . S
C242 O257 1.256 . S
C243 La233 2.928 . S
C243 C244 1.503 . S
C243 O258 1.261 . S
C243 O259 1.243 . S
C244 C243 1.503 . S
C244 C245 1.394 . S
C244 C249 1.373 . S
C245 C244 1.394 . S
C245 C246 1.380 . S
C245 H268 0.930 . S
C246 C245 1.380 . S
C246 C247 1.376 . S
C246 H269 0.930 . S
C247 C246 1.376 . S
C247 C248 1.370 . S
C248 C247 1.370 . S
C248 C249 1.396 . S
C248 H270 0.929 . S
C249 C244 1.373 . S
C249 C248 1.396 . S
C249 H271 0.929 . S
C250 O260 1.240 . S
C250 O261 1.289 . S
C251 O262 1.258 . S
C251 O263 1.256 . S
O252 La232 2.521 . S
O252 C234 1.261 . S
O253 La232 2.628 . S
O253 C234 1.243 . S
O254 La232 2.554 . S
O254 C241 1.240 . S
O255 La232 2.757 . S
O255 La233 2.482 . S
O255 C241 1.289 . S
O256 La232 2.470 . S
O256 C242 1.258 . S
O257 La233 2.503 . S
O257 C242 1.256 . S
O258 La233 2.521 . S
O258 C243 1.261 . S
O259 La233 2.628 . S
O259 C243 1.243 . S
O260 La233 2.554 . S
O260 C250 1.240 . S
O261 La232 2.482 . S
O261 La233 2.757 . S
O261 C250 1.289 . S
O262 La233 2.470 . S
O262 C251 1.258 . S
O263 La232 2.503 . S
O263 C251 1.256 . S
H264 C236 0.930 . S
H265 C237 0.930 . S
H266 C239 0.929 . S
H267 C240 0.929 . S
H268 C245 0.930 . S
H269 C246 0.930 . S
H270 C248 0.929 . S
H271 C249 0.929 . S
La272 C274 2.928 . S
La272 O292 2.521 . S
La272 O293 2.628 . S
La272 O294 2.554 . S
La272 O295 2.757 1_655 S
La272 O296 2.470 . S
La272 O301 2.482 . S
La272 O303 2.503 1_655 S
La273 C283 2.928 . S
La273 O295 2.482 . S
La273 O297 2.503 1_455 S
La273 O298 2.521 . S
La273 O299 2.628 . S
La273 O300 2.554 . S
La273 O301 2.757 1_455 S
La273 O302 2.470 . S
C274 La272 2.928 . S
C274 C275 1.503 1_556 S
C274 O292 1.261 . S
C274 O293 1.243 . S
C275 C274 1.503 1_554 S
C275 C276 1.394 . S
C275 C280 1.373 . S
C276 C275 1.394 . S
C276 C277 1.380 . S
C276 H304 0.930 . S
C277 C276 1.380 . S
C277 C278 1.376 . S
C277 H305 0.930 . S
C278 C277 1.376 . S
C278 C279 1.370 . S
C279 C278 1.370 . S
C279 C280 1.396 . S
C279 H306 0.929 . S
C280 C275 1.373 . S
C280 C279 1.396 . S
C280 H307 0.929 . S
C281 O294 1.262 . S
C281 O295 1.276 1_655 S
C282 O296 1.258 . S
C282 O297 1.256 . S
C283 La273 2.928 . S
C283 C284 1.503 . S
C283 O298 1.261 . S
C283 O299 1.243 . S
C284 C283 1.503 . S
C284 C285 1.394 . S
C284 C289 1.373 . S
C285 C284 1.394 . S
C285 C286 1.380 . S
C285 H308 0.930 . S
C286 C285 1.380 . S
C286 C287 1.376 . S
C286 H309 0.930 . S
C287 C286 1.376 . S
C287 C288 1.370 . S
C288 C287 1.370 . S
C288 C289 1.396 . S
C288 H310 0.929 . S
C289 C284 1.373 . S
C289 C288 1.396 . S
C289 H311 0.929 . S
C290 O300 1.240 . S
C290 O301 1.289 1_455 S
C291 O302 1.258 . S
C291 O303 1.256 . S
O292 La272 2.521 . S
O292 C274 1.261 . S
O293 La272 2.628 . S
O293 C274 1.243 . S
O294 La272 2.554 . S
O294 C281 1.262 . S
O295 La272 2.757 1_455 S
O295 La273 2.482 . S
O295 C281 1.276 1_455 S
O296 La272 2.470 . S
O296 C282 1.258 . S
O297 La273 2.503 1_655 S
O297 C282 1.256 . S
O298 La273 2.521 . S
O298 C283 1.261 . S
O299 La273 2.628 . S
O299 C283 1.243 . S
O300 La273 2.554 . S
O300 C290 1.240 . S
O301 La272 2.482 . S
O301 La273 2.757 1_655 S
O301 C290 1.289 1_655 S
O302 La273 2.470 . S
O302 C291 1.258 . S
O303 La272 2.503 1_455 S
O303 C291 1.256 . S
H304 C276 0.930 . S
H305 C277 0.930 . S
H306 C279 0.929 . S
H307 C280 0.929 . S
H308 C285 0.930 . S
H309 C286 0.930 . S
H310 C288 0.929 . S
H311 C289 0.929 . S
H312 C324 0.930 . S
H313 C326 0.930 . S
H314 C327 0.930 . S
H315 C331 0.959 . S
H316 C331 0.959 . S
H317 C331 0.961 . S
H318 C332 0.960 . S
H319 C332 0.961 . S
H320 C332 0.959 . S
H321 C335 0.929 . S
H322 C336 0.931 . S
H323 C338 0.930 . S
C324 H312 0.930 . S
C324 C325 1.369 1_545 S
C324 C329 1.399 . S
C325 C324 1.369 1_565 S
C325 C326 1.413 . S
C326 H313 0.930 . S
C326 C325 1.413 . S
C326 C327 1.388 . S
C327 H314 0.930 . S
C327 C326 1.388 . S
C327 C328 1.390 . S
C328 C327 1.390 . S
C328 C329 1.394 1_565 S
C328 C334 1.465 . S
C329 C324 1.399 . S
C329 C328 1.394 1_545 S
C329 C330 1.516 . S
C330 C329 1.516 . S
C330 C331 1.502 . S
C330 C332 1.561 . S
C330 C333 1.526 . S
C331 H315 0.959 . S
C331 H316 0.959 . S
C331 H317 0.961 . S
C331 C330 1.502 . S
C332 H318 0.960 . S
C332 H319 0.961 . S
C332 H320 0.959 . S
C332 C330 1.561 . S
C333 C330 1.526 . S
C333 C334 1.396 1_545 S
C333 C338 1.390 . S
C334 C328 1.465 . S
C334 C333 1.396 1_565 S
C334 C335 1.399 . S
C335 H321 0.929 . S
C335 C334 1.399 . S
C335 C336 1.385 . S
C336 H322 0.931 . S
C336 C335 1.385 . S
C336 C337 1.410 . S
C337 C336 1.410 . S
C337 C338 1.370 1_565 S
C338 H323 0.930 . S
C338 C333 1.390 . S
C338 C337 1.370 1_545 S
H339 C351 0.930 . S
H340 C353 0.930 . S
H341 C354 0.930 . S
H342 C358 0.959 . S
H343 C358 0.959 . S
H344 C358 0.961 . S
H345 C359 0.960 . S
H346 C359 0.961 . S
H347 C359 0.959 . S
H348 C362 0.929 . S
H349 C363 0.931 . S
H350 C365 0.930 . S
C351 H339 0.930 . S
C351 C352 1.399 . S
C351 C356 1.399 . S
C352 C351 1.399 . S
C352 C353 1.376 . S
C353 H340 0.930 . S
C353 C352 1.376 . S
C353 C354 1.388 . S
C354 H341 0.930 . S
C354 C353 1.388 . S
C354 C355 1.390 . S
C355 C354 1.390 . S
C355 C356 1.394 . S
C355 C361 1.465 . S
C356 C351 1.399 . S
C356 C355 1.394 . S
C356 C357 1.516 . S
C357 C356 1.516 . S
C357 C358 1.502 . S
C357 C359 1.561 . S
C357 C360 1.526 . S
C358 H342 0.959 . S
C358 H343 0.959 . S
C358 H344 0.961 . S
C358 C357 1.502 . S
C359 H345 0.960 . S
C359 H346 0.961 . S
C359 H347 0.959 . S
C359 C357 1.561 . S
C360 C357 1.526 . S
C360 C361 1.396 . S
C360 C365 1.390 . S
C361 C355 1.465 . S
C361 C360 1.396 . S
C361 C362 1.399 . S
C362 H348 0.929 . S
C362 C361 1.399 . S
C362 C363 1.385 . S
C363 H349 0.931 . S
C363 C362 1.385 . S
C363 C364 1.389 . S
C364 C363 1.389 . S
C364 C365 1.387 . S
C365 H350 0.930 . S
C365 C360 1.390 . S
C365 C364 1.387 . S
H366 C378 0.930 . S
H367 C380 0.930 . S
H368 C381 0.930 . S
H369 C385 0.959 . S
H370 C385 0.959 . S
H371 C385 0.961 . S
H372 C386 0.960 . S
H373 C386 0.961 . S
H374 C386 0.959 . S
H375 C389 0.929 . S
H376 C390 0.931 . S
H377 C392 0.930 . S
C378 H366 0.930 . S
C378 C379 1.399 . S
C378 C383 1.399 . S
C379 C378 1.399 . S
C379 C380 1.376 . S
C380 H367 0.930 . S
C380 C379 1.376 . S
C380 C381 1.388 . S
C381 H368 0.930 . S
C381 C380 1.388 . S
C381 C382 1.390 . S
C382 C381 1.390 . S
C382 C383 1.394 . S
C382 C388 1.465 . S
C383 C378 1.399 . S
C383 C382 1.394 . S
C383 C384 1.516 . S
C384 C383 1.516 . S
C384 C385 1.502 . S
C384 C386 1.561 . S
C384 C387 1.526 . S
C385 H369 0.959 . S
C385 H370 0.959 . S
C385 H371 0.961 . S
C385 C384 1.502 . S
C386 H372 0.960 . S
C386 H373 0.961 . S
C386 H374 0.959 . S
C386 C384 1.561 . S
C387 C384 1.526 . S
C387 C388 1.396 . S
C387 C392 1.390 . S
C388 C382 1.465 . S
C388 C387 1.396 . S
C388 C389 1.399 . S
C389 H375 0.929 . S
C389 C388 1.399 . S
C389 C390 1.385 . S
C390 H376 0.931 . S
C390 C389 1.385 . S
C390 C391 1.389 . S
C391 C390 1.389 . S
C391 C392 1.387 . S
C392 H377 0.930 . S
C392 C387 1.390 . S
C392 C391 1.387 . S
H393 C405 0.930 . S
H394 C407 0.930 . S
H395 C408 0.930 . S
H396 C412 0.959 . S
H397 C412 0.959 . S
H398 C412 0.961 . S
H399 C413 0.965 . S
H400 C413 0.969 . S
H401 C413 0.935 1_655 S
H402 C416 0.929 . S
H403 C417 0.931 . S
H404 C419 0.930 . S
C405 H393 0.930 . S
C405 C406 1.399 1_455 S
C405 C410 1.399 . S
C406 C405 1.399 1_655 S
C406 C407 1.376 . S
C407 H394 0.930 . S
C407 C406 1.376 . S
C407 C408 1.388 . S
C408 H395 0.930 . S
C408 C407 1.388 . S
C408 C409 1.390 . S
C409 C408 1.390 . S
C409 C410 1.394 1_655 S
C409 C415 1.465 . S
C410 C405 1.399 . S
C410 C409 1.394 1_455 S
C410 C411 1.516 . S
C411 C410 1.516 . S
C411 C412 1.502 . S
C411 C413 1.573 . S
C411 C414 1.526 . S
C412 H396 0.959 . S
C412 H397 0.959 . S
C412 H398 0.961 . S
C412 C411 1.502 . S
C413 H399 0.965 . S
C413 H400 0.969 . S
C413 H401 0.935 1_455 S
C413 C411 1.573 . S
C414 C411 1.526 . S
C414 C415 1.396 1_455 S
C414 C419 1.390 . S
C415 C409 1.465 . S
C415 C414 1.396 1_655 S
C415 C416 1.399 . S
C416 H402 0.929 . S
C416 C415 1.399 . S
C416 C417 1.385 . S
C417 H403 0.931 . S
C417 C416 1.385 . S
C417 C418 1.394 . S
C418 C417 1.394 . S
C418 C419 1.383 1_655 S
C419 H404 0.930 . S
C419 C414 1.390 . S
C419 C418 1.383 1_455 S
H420 C432 0.930 . S
H421 C434 0.930 . S
H422 C435 0.930 . S
H423 C439 0.959 . S
H424 C439 0.959 . S
H425 C439 0.961 1_554 S
H426 C440 0.960 . S
H427 C440 0.961 . S
H428 C440 0.959 . S
H429 C443 0.929 . S
H430 C444 0.931 . S
H431 C446 0.930 . S
C432 H420 0.930 . S
C432 C433 1.399 1_545 S
C432 C437 1.399 . S
C433 C432 1.399 1_565 S
C433 C434 1.376 . S
C434 H421 0.930 . S
C434 C433 1.376 . S
C434 C435 1.388 . S
C435 H422 0.930 . S
C435 C434 1.388 . S
C435 C436 1.390 . S
C436 C435 1.390 . S
C436 C437 1.394 1_565 S
C436 C442 1.465 . S
C437 C432 1.399 . S
C437 C436 1.394 1_545 S
C437 C438 1.516 . S
C438 C437 1.516 . S
C438 C439 1.502 1_554 S
C438 C440 1.561 . S
C438 C441 1.526 . S
C439 H423 0.959 . S
C439 H424 0.959 . S
C439 H425 0.961 1_556 S
C439 C438 1.502 1_556 S
C440 H426 0.960 . S
C440 H427 0.961 . S
C440 H428 0.959 . S
C440 C438 1.561 . S
C441 C438 1.526 . S
C441 C442 1.396 1_545 S
C441 C446 1.390 1_554 S
C442 C436 1.465 . S
C442 C441 1.396 1_565 S
C442 C443 1.399 . S
C443 H429 0.929 . S
C443 C442 1.399 . S
C443 C444 1.385 1_554 S
C444 H430 0.931 . S
C444 C443 1.385 1_556 S
C444 C445 1.389 . S
C445 C444 1.389 . S
C445 C446 1.387 1_565 S
C446 H431 0.930 . S
C446 C441 1.390 1_556 S
C446 C445 1.387 1_545 S
H447 C459 0.930 . S
H448 C461 0.930 . S
H449 C462 0.930 . S
H450 C466 0.959 . S
H451 C466 0.959 . S
H452 C466 0.961 . S
H453 C467 0.960 . S
H454 C467 0.961 . S
H455 C467 0.959 . S
H456 C470 0.929 . S
H457 C471 0.931 . S
H458 C473 0.930 . S
C459 H447 0.930 . S
C459 C460 1.399 . S
C459 C464 1.399 . S
C460 C459 1.399 . S
C460 C461 1.376 . S
C461 H448 0.930 . S
C461 C460 1.376 . S
C461 C462 1.388 . S
C462 H449 0.930 . S
C462 C461 1.388 . S
C462 C463 1.390 . S
C463 C462 1.390 . S
C463 C464 1.394 . S
C463 C469 1.465 . S
C464 C459 1.399 . S
C464 C463 1.394 . S
C464 C465 1.516 . S
C465 C464 1.516 . S
C465 C466 1.502 . S
C465 C467 1.561 . S
C465 C468 1.526 . S
C466 H450 0.959 . S
C466 H451 0.959 . S
C466 H452 0.961 . S
C466 C465 1.502 . S
C467 H453 0.960 . S
C467 H454 0.961 . S
C467 H455 0.959 . S
C467 C465 1.561 . S
C468 C465 1.526 . S
C468 C469 1.396 . S
C468 C473 1.390 1_554 S
C469 C463 1.465 . S
C469 C468 1.396 . S
C469 C470 1.399 1_554 S
C470 H456 0.929 . S
C470 C469 1.399 1_556 S
C470 C471 1.385 . S
C471 H457 0.931 . S
C471 C470 1.385 . S
C471 C472 1.389 . S
C472 C471 1.389 . S
C472 C473 1.387 . S
C473 H458 0.930 . S
C473 C468 1.390 1_556 S
C473 C472 1.387 . S
H474 C486 0.930 . S
H475 C488 0.930 . S
H476 C489 0.930 . S
H477 C493 0.959 . S
H478 C493 0.959 . S
H479 C493 0.961 . S
H480 C494 0.960 . S
H481 C494 0.961 . S
H482 C494 0.959 . S
H483 C497 0.929 . S
H484 C498 0.931 . S
H485 C500 0.930 . S
C486 H474 0.930 . S
C486 C487 1.399 . S
C486 C491 1.399 . S
C487 C486 1.399 . S
C487 C488 1.376 . S
C488 H475 0.930 . S
C488 C487 1.376 . S
C488 C489 1.388 . S
C489 H476 0.930 . S
C489 C488 1.388 . S
C489 C490 1.390 . S
C490 C489 1.390 . S
C490 C491 1.394 . S
C490 C496 1.465 . S
C491 C486 1.399 . S
C491 C490 1.394 . S
C491 C492 1.516 . S
C492 C491 1.516 . S
C492 C493 1.502 . S
C492 C494 1.561 . S
C492 C495 1.526 . S
C493 H477 0.959 . S
C493 H478 0.959 . S
C493 H479 0.961 . S
C493 C492 1.502 . S
C494 H480 0.960 . S
C494 H481 0.961 . S
C494 H482 0.959 . S
C494 C492 1.561 . S
C495 C492 1.526 . S
C495 C496 1.396 . S
C495 C500 1.390 1_554 S
C496 C490 1.465 . S
C496 C495 1.396 . S
C496 C497 1.399 1_554 S
C497 H483 0.929 . S
C497 C496 1.399 1_556 S
C497 C498 1.385 . S
C498 H484 0.931 . S
C498 C497 1.385 . S
C498 C499 1.389 . S
C499 C498 1.389 . S
C499 C500 1.387 . S
C500 H485 0.930 . S
C500 C495 1.390 1_556 S
C500 C499 1.387 . S
H501 C513 0.930 . S
H502 C515 0.930 . S
H503 C516 0.930 . S
H504 C520 0.959 . S
H505 C520 0.959 . S
H506 C520 0.961 . S
H507 C521 0.960 . S
H508 C521 0.961 . S
H509 C521 0.959 . S
H510 C524 0.929 . S
H511 C525 0.931 . S
H512 C527 0.930 . S
C513 H501 0.930 . S
C513 C514 1.399 1_655 S
C513 C518 1.399 . S
C514 C513 1.399 1_455 S
C514 C515 1.376 . S
C515 H502 0.930 . S
C515 C514 1.376 . S
C515 C516 1.388 . S
C516 H503 0.930 . S
C516 C515 1.388 . S
C516 C517 1.390 . S
C517 C516 1.390 . S
C517 C518 1.394 1_455 S
C517 C523 1.465 . S
C518 C513 1.399 . S
C518 C517 1.394 1_655 S
C518 C519 1.516 . S
C519 C518 1.516 . S
C519 C520 1.502 . S
C519 C521 1.561 1_554 S
C519 C522 1.526 . S
C520 H504 0.959 . S
C520 H505 0.959 . S
C520 H506 0.961 . S
C520 C519 1.502 . S
C521 H507 0.960 . S
C521 H508 0.961 . S
C521 H509 0.959 . S
C521 C519 1.561 1_556 S
C522 C519 1.526 . S
C522 C523 1.396 1_655 S
C522 C527 1.390 1_554 S
C523 C517 1.465 . S
C523 C522 1.396 1_455 S
C523 C524 1.399 . S
C524 H510 0.929 . S
C524 C523 1.399 . S
C524 C525 1.385 1_554 S
C525 H511 0.931 . S
C525 C524 1.385 1_556 S
C525 C526 1.426 . S
C526 C525 1.426 . S
C526 C527 1.360 1_455 S
C527 H512 0.930 . S
C527 C522 1.390 1_556 S
C527 C526 1.360 1_655 S
H528 C540 0.930 . S
H529 C542 0.930 . S
H530 C543 0.930 . S
H531 C547 0.959 . S
H532 C547 0.959 . S
H533 C547 0.961 1_556 S
H534 C548 0.960 1_456 S
H535 C548 0.961 . S
H536 C548 0.959 1_455 S
H537 C551 0.929 . S
H538 C552 0.931 . S
H539 C554 0.930 . S
C540 H528 0.930 . S
C540 C541 1.399 1_655 S
C540 C545 1.399 . S
C541 C540 1.399 1_455 S
C541 C542 1.376 . S
C542 H529 0.930 . S
C542 C541 1.376 . S
C542 C543 1.388 . S
C543 H530 0.930 . S
C543 C542 1.388 . S
C543 C544 1.390 1_455 S
C544 C543 1.390 1_655 S
C544 C545 1.394 . S
C544 C550 1.465 . S
C545 C540 1.399 . S
C545 C544 1.394 . S
C545 C546 1.516 . S
C546 C545 1.516 . S
C546 C547 1.502 . S
C546 C548 1.561 . S
C546 C549 1.526 . S
C547 H531 0.959 . S
C547 H532 0.959 . S
C547 H533 0.961 1_554 S
C547 C546 1.502 . S
C548 H534 0.960 1_654 S
C548 H535 0.961 . S
C548 H536 0.959 1_655 S
C548 C546 1.561 . S
C549 C546 1.526 . S
C549 C550 1.396 . S
C549 C554 1.390 . S
C550 C544 1.465 . S
C550 C549 1.396 . S
C550 C551 1.399 . S
C551 H537 0.929 . S
C551 C550 1.399 . S
C551 C552 1.385 . S
C552 H538 0.931 . S
C552 C551 1.385 . S
C552 C553 1.389 . S
C553 C552 1.389 . S
C553 C554 1.387 . S
C554 H539 0.930 . S
C554 C549 1.390 . S
C554 C553 1.387 . S
H555 C567 0.930 . S
H556 C569 0.930 . S
H557 C570 0.930 . S
H558 C574 0.959 . S
H559 C574 0.959 . S
H560 C574 0.961 . S
H561 C575 0.960 . S
H562 C575 0.961 . S
H563 C575 0.959 . S
H564 C578 0.929 . S
H565 C579 0.931 1_545 S
H566 C581 0.930 . S
C567 H555 0.930 . S
C567 C568 1.399 1_565 S
C567 C572 1.399 . S
C568 C567 1.399 1_545 S
C568 C569 1.376 . S
C569 H556 0.930 . S
C569 C568 1.376 . S
C569 C570 1.388 . S
C570 H557 0.930 . S
C570 C569 1.388 . S
C570 C571 1.348 1_545 S
C571 C570 1.348 1_565 S
C571 C572 1.432 . S
C571 C577 1.478 . S
C572 C567 1.399 . S
C572 C571 1.432 . S
C572 C573 1.516 . S
C573 C572 1.516 . S
C573 C574 1.502 . S
C573 C575 1.561 . S
C573 C576 1.526 . S
C574 H558 0.959 . S
C574 H559 0.959 . S
C574 H560 0.961 . S
C574 C573 1.502 . S
C575 H561 0.960 . S
C575 H562 0.961 . S
C575 H563 0.959 . S
C575 C573 1.561 . S
C576 C573 1.526 . S
C576 C577 1.396 . S
C576 C581 1.390 . S
C577 C571 1.478 . S
C577 C576 1.396 . S
C577 C578 1.399 1_565 S
C578 H564 0.929 . S
C578 C577 1.399 1_545 S
C578 C579 1.385 1_545 S
C579 H565 0.931 1_565 S
C579 C578 1.385 1_565 S
C579 C580 1.389 . S
C580 C579 1.389 . S
C580 C581 1.387 . S
C581 H566 0.930 . S
C581 C576 1.390 . S
C581 C580 1.387 . S
H582 C594 0.930 . S
H583 C596 0.930 . S
H584 C597 0.930 . S
H585 C601 0.959 . S
H586 C601 0.959 . S
H587 C601 0.961 1_556 S
H588 C602 0.960 1_556 S
H589 C602 0.961 . S
H590 C602 0.959 . S
H591 C605 0.929 . S
H592 C606 0.931 . S
H593 C608 0.930 . S
C594 H582 0.930 . S
C594 C595 1.399 . S
C594 C599 1.399 . S
C595 C594 1.399 . S
C595 C596 1.376 . S
C596 H583 0.930 . S
C596 C595 1.376 . S
C596 C597 1.388 . S
C597 H584 0.930 . S
C597 C596 1.388 . S
C597 C598 1.390 . S
C598 C597 1.390 . S
C598 C599 1.394 . S
C598 C604 1.465 . S
C599 C594 1.399 . S
C599 C598 1.394 . S
C599 C600 1.516 . S
C600 C599 1.516 . S
C600 C601 1.502 . S
C600 C602 1.561 . S
C600 C603 1.526 . S
C601 H585 0.959 . S
C601 H586 0.959 . S
C601 H587 0.961 1_554 S
C601 C600 1.502 . S
C602 H588 0.960 1_554 S
C602 H589 0.961 . S
C602 H590 0.959 . S
C602 C600 1.561 . S
C603 C600 1.526 . S
C603 C604 1.396 . S
C603 C608 1.390 . S
C604 C598 1.465 . S
C604 C603 1.396 . S
C604 C605 1.399 . S
C605 H591 0.929 . S
C605 C604 1.399 . S
C605 C606 1.385 . S
C606 H592 0.931 . S
C606 C605 1.385 . S
C606 C607 1.389 . S
C607 C606 1.389 . S
C607 C608 1.387 . S
C608 H593 0.930 . S
C608 C603 1.390 . S
C608 C607 1.387 . S
H609 C621 0.930 . S
H610 C623 0.930 . S
H611 C624 0.930 . S
H612 C628 0.959 . S
H613 C628 0.959 . S
H614 C628 0.961 . S
H615 C629 0.960 . S
H616 C629 0.961 . S
H617 C629 0.959 . S
H618 C632 0.929 . S
H619 C633 0.931 . S
H620 C635 0.930 . S
C621 H609 0.930 . S
C621 C622 1.399 . S
C621 C626 1.399 . S
C622 C621 1.399 . S
C622 C623 1.376 . S
C623 H610 0.930 . S
C623 C622 1.376 . S
C623 C624 1.388 . S
C624 H611 0.930 . S
C624 C623 1.388 . S
C624 C625 1.390 . S
C625 C624 1.390 . S
C625 C626 1.394 . S
C625 C631 1.465 . S
C626 C621 1.399 . S
C626 C625 1.394 . S
C626 C627 1.516 . S
C627 C626 1.516 . S
C627 C628 1.502 . S
C627 C629 1.561 . S
C627 C630 1.526 . S
C628 H612 0.959 . S
C628 H613 0.959 . S
C628 H614 0.961 . S
C628 C627 1.502 . S
C629 H615 0.960 . S
C629 H616 0.961 . S
C629 H617 0.959 . S
C629 C627 1.561 . S
C630 C627 1.526 . S
C630 C631 1.396 . S
C630 C635 1.390 . S
C631 C625 1.465 . S
C631 C630 1.396 . S
C631 C632 1.399 . S
C632 H618 0.929 . S
C632 C631 1.399 . S
C632 C633 1.385 . S
C633 H619 0.931 . S
C633 C632 1.385 . S
C633 C634 1.389 . S
C634 C633 1.389 . S
C634 C635 1.387 . S
C635 H620 0.930 . S
C635 C630 1.390 . S
C635 C634 1.387 . S
H636 C648 0.930 . S
H637 C650 0.930 . S
H638 C651 0.930 . S
H639 C655 0.959 . S
H640 C655 0.959 . S
H641 C655 0.961 . S
H642 C656 0.960 . S
H643 C656 0.961 1_456 S
H644 C656 0.959 . S
H645 C659 0.929 . S
H646 C660 0.931 . S
H647 C662 0.930 . S
C648 H636 0.930 . S
C648 C649 1.399 1_455 S
C648 C653 1.399 . S
C649 C648 1.399 1_655 S
C649 C650 1.376 . S
C650 H637 0.930 . S
C650 C649 1.376 . S
C650 C651 1.388 . S
C651 H638 0.930 . S
C651 C650 1.388 . S
C651 C652 1.390 1_655 S
C652 C651 1.390 1_455 S
C652 C653 1.394 . S
C652 C658 1.465 . S
C653 C648 1.399 . S
C653 C652 1.394 . S
C653 C654 1.516 . S
C654 C653 1.516 . S
C654 C655 1.502 . S
C654 C656 1.561 1_455 S
C654 C657 1.526 . S
C655 H639 0.959 . S
C655 H640 0.959 . S
C655 H641 0.961 . S
C655 C654 1.502 . S
C656 H642 0.960 . S
C656 H643 0.961 1_654 S
C656 H644 0.959 . S
C656 C654 1.561 1_655 S
C657 C654 1.526 . S
C657 C658 1.396 . S
C657 C662 1.390 . S
C658 C652 1.465 . S
C658 C657 1.396 . S
C658 C659 1.399 . S
C659 H645 0.929 . S
C659 C658 1.399 . S
C659 C660 1.385 . S
C660 H646 0.931 . S
C660 C659 1.385 . S
C660 C661 1.389 . S
C661 C660 1.389 . S
C661 C662 1.387 . S
C662 H647 0.930 . S
C662 C657 1.390 . S
C662 C661 1.387 . S
H663 C675 0.930 . S
H664 C677 0.930 . S
H665 C678 0.930 . S
H666 C682 0.959 . S
H667 C682 0.959 . S
H668 C682 0.961 . S
H669 C683 0.960 . S
H670 C683 0.961 . S
H671 C683 0.959 . S
H672 C686 0.929 . S
H673 C687 0.931 1_565 S
H674 C689 0.930 . S
C675 H663 0.930 . S
C675 C676 1.399 1_545 S
C675 C680 1.399 . S
C676 C675 1.399 1_565 S
C676 C677 1.376 . S
C677 H664 0.930 . S
C677 C676 1.376 . S
C677 C678 1.388 . S
C678 H665 0.930 . S
C678 C677 1.388 . S
C678 C679 1.352 1_565 S
C679 C678 1.352 1_545 S
C679 C680 1.428 . S
C679 C685 1.477 . S
C680 C675 1.399 . S
C680 C679 1.428 . S
C680 C681 1.516 . S
C681 C680 1.516 . S
C681 C682 1.502 . S
C681 C683 1.561 . S
C681 C684 1.526 . S
C682 H666 0.959 . S
C682 H667 0.959 . S
C682 H668 0.961 . S
C682 C681 1.502 . S
C683 H669 0.960 . S
C683 H670 0.961 . S
C683 H671 0.959 . S
C683 C681 1.561 . S
C684 C681 1.526 . S
C684 C685 1.396 . S
C684 C689 1.390 . S
C685 C679 1.477 . S
C685 C684 1.396 . S
C685 C686 1.399 1_545 S
C686 H672 0.929 . S
C686 C685 1.399 1_565 S
C686 C687 1.385 1_565 S
C687 H673 0.931 1_545 S
C687 C686 1.385 1_545 S
C687 C688 1.389 . S
C688 C687 1.389 . S
C688 C689 1.387 . S
C689 H674 0.930 . S
C689 C684 1.390 . S
C689 C688 1.387 . S
H690 C702 0.930 . S
H691 C704 0.930 . S
H692 C705 0.930 . S
H693 C709 0.959 . S
H694 C709 0.959 . S
H695 C709 0.961 . S
H696 C710 0.960 . S
H697 C710 0.961 . S
H698 C710 0.959 . S
H699 C713 0.929 . S
H700 C714 0.931 1_556 S
H701 C716 0.930 . S
C702 H690 0.930 . S
C702 C703 1.399 . S
C702 C707 1.399 . S
C703 C702 1.399 . S
C703 C704 1.376 . S
C704 H691 0.930 . S
C704 C703 1.376 . S
C704 C705 1.388 . S
C705 H692 0.930 . S
C705 C704 1.388 . S
C705 C706 1.390 . S
C706 C705 1.390 . S
C706 C707 1.394 . S
C706 C712 1.465 . S
C707 C702 1.399 . S
C707 C706 1.394 . S
C707 C708 1.516 . S
C708 C707 1.516 . S
C708 C709 1.502 . S
C708 C710 1.561 . S
C708 C711 1.526 . S
C709 H693 0.959 . S
C709 H694 0.959 . S
C709 H695 0.961 . S
C709 C708 1.502 . S
C710 H696 0.960 . S
C710 H697 0.961 . S
C710 H698 0.959 . S
C710 C708 1.561 . S
C711 C708 1.526 . S
C711 C712 1.396 . S
C711 C716 1.390 . S
C712 C706 1.465 . S
C712 C711 1.396 . S
C712 C713 1.399 . S
C713 H699 0.929 . S
C713 C712 1.399 . S
C713 C714 1.385 . S
C714 H700 0.931 1_554 S
C714 C713 1.385 . S
C714 C715 1.389 . S
C715 C714 1.389 . S
C715 C716 1.387 . S
C716 H701 0.930 . S
C716 C711 1.390 . S
C716 C715 1.387 . S
H717 C729 0.930 . S
H718 C731 0.930 . S
H719 C732 0.930 . S
H720 C736 0.959 . S
H721 C736 0.959 . S
H722 C736 0.961 . S
H723 C737 0.960 . S
H724 C737 0.961 . S
H725 C737 0.959 . S
H726 C740 0.929 . S
H727 C741 0.931 . S
H728 C743 0.930 . S
C729 H717 0.930 . S
C729 C730 1.399 . S
C729 C734 1.399 . S
C730 C729 1.399 . S
C730 C731 1.376 . S
C731 H718 0.930 . S
C731 C730 1.376 . S
C731 C732 1.388 . S
C732 H719 0.930 . S
C732 C731 1.388 . S
C732 C733 1.390 . S
C733 C732 1.390 . S
C733 C734 1.394 . S
C733 C739 1.465 . S
C734 C729 1.399 . S
C734 C733 1.394 . S
C734 C735 1.516 . S
C735 C734 1.516 . S
C735 C736 1.502 . S
C735 C737 1.561 . S
C735 C738 1.526 . S
C736 H720 0.959 . S
C736 H721 0.959 . S
C736 H722 0.961 . S
C736 C735 1.502 . S
C737 H723 0.960 . S
C737 H724 0.961 . S
C737 H725 0.959 . S
C737 C735 1.561 . S
C738 C735 1.526 . S
C738 C739 1.396 . S
C738 C743 1.390 . S
C739 C733 1.465 . S
C739 C738 1.396 . S
C739 C740 1.399 . S
C740 H726 0.929 . S
C740 C739 1.399 . S
C740 C741 1.385 . S
C741 H727 0.931 . S
C741 C740 1.385 . S
C741 C742 1.389 . S
C742 C741 1.389 . S
C742 C743 1.387 . S
C743 H728 0.930 . S
C743 C738 1.390 . S
C743 C742 1.387 . S
H744 C756 0.930 . S
H745 C758 0.930 . S
H746 C759 0.930 . S
H747 C763 0.959 . S
H748 C763 0.959 . S
H749 C763 0.961 . S
H750 C764 0.960 . S
H751 C764 0.961 . S
H752 C764 0.959 1_655 S
H753 C767 0.929 . S
H754 C768 0.931 . S
H755 C770 0.930 . S
C756 H744 0.930 . S
C756 C757 1.393 1_455 S
C756 C761 1.399 . S
C757 C756 1.393 1_655 S
C757 C758 1.384 . S
C758 H745 0.930 . S
C758 C757 1.384 . S
C758 C759 1.388 . S
C759 H746 0.930 . S
C759 C758 1.388 . S
C759 C760 1.390 . S
C760 C759 1.390 . S
C760 C761 1.394 1_655 S
C760 C766 1.465 . S
C761 C756 1.399 . S
C761 C760 1.394 1_455 S
C761 C762 1.516 . S
C762 C761 1.516 . S
C762 C763 1.502 . S
C762 C764 1.561 1_556 S
C762 C765 1.526 . S
C763 H747 0.959 . S
C763 H748 0.959 . S
C763 H749 0.961 . S
C763 C762 1.502 . S
C764 H750 0.960 . S
C764 H751 0.961 . S
C764 H752 0.959 1_455 S
C764 C762 1.561 1_554 S
C765 C762 1.526 . S
C765 C766 1.396 1_455 S
C765 C770 1.390 . S
C766 C760 1.465 . S
C766 C765 1.396 1_655 S
C766 C767 1.399 . S
C767 H753 0.929 . S
C767 C766 1.399 . S
C767 C768 1.385 . S
C768 H754 0.931 . S
C768 C767 1.385 . S
C768 C769 1.389 1_655 S
C769 C768 1.389 1_455 S
C769 C770 1.387 . S
C770 H755 0.930 . S
C770 C765 1.390 . S
C770 C769 1.387 . S
H771 C783 0.930 . S
H772 C785 0.930 . S
H773 C786 0.930 1_554 S
H774 C790 0.959 1_565 S
H775 C790 0.959 . S
H776 C790 0.961 . S
H777 C791 0.960 . S
H778 C791 0.961 . S
H779 C791 0.959 . S
H780 C794 0.929 1_564 S
H781 C795 0.934 . S
H782 C797 0.930 . S
C783 H771 0.930 . S
C783 C784 1.399 . S
C783 C788 1.399 . S
C784 C783 1.399 . S
C784 C785 1.376 1_545 S
C785 H772 0.930 . S
C785 C784 1.376 1_565 S
C785 C786 1.388 . S
C786 H773 0.930 1_556 S
C786 C785 1.388 . S
C786 C787 1.390 1_565 S
C787 C786 1.390 1_545 S
C787 C788 1.394 . S
C787 C793 1.465 . S
C788 C783 1.399 . S
C788 C787 1.394 . S
C788 C789 1.516 . S
C789 C788 1.516 . S
C789 C790 1.502 . S
C789 C791 1.561 . S
C789 C792 1.526 . S
C790 H774 0.959 1_545 S
C790 H775 0.959 . S
C790 H776 0.961 . S
C790 C789 1.502 . S
C791 H777 0.960 . S
C791 H778 0.961 . S
C791 H779 0.959 . S
C791 C789 1.561 . S
C792 C789 1.526 . S
C792 C793 1.396 . S
C792 C797 1.390 . S
C793 C787 1.465 . S
C793 C792 1.396 . S
C793 C794 1.399 . S
C794 H780 0.929 1_546 S
C794 C793 1.399 . S
C794 C795 1.385 . S
C795 H781 0.934 . S
C795 C794 1.385 . S
C795 C796 1.389 . S
C796 C795 1.389 . S
C796 C797 1.387 . S
C797 H782 0.930 . S
C797 C792 1.390 . S
C797 C796 1.387 . S
H798 C810 0.930 . S
H799 C812 0.930 . S
H800 C813 0.930 . S
H801 C817 0.959 . S
H802 C817 0.959 . S
H803 C817 0.961 . S
H804 C818 0.960 . S
H805 C818 0.961 . S
H806 C818 0.959 . S
H807 C821 0.929 . S
H808 C822 0.931 . S
H809 C824 0.930 . S
C810 H798 0.930 . S
C810 C811 1.399 . S
C810 C815 1.399 . S
C811 C810 1.399 . S
C811 C812 1.376 . S
C812 H799 0.930 . S
C812 C811 1.376 . S
C812 C813 1.388 . S
C813 H800 0.930 . S
C813 C812 1.388 . S
C813 C814 1.390 . S
C814 C813 1.390 . S
C814 C815 1.394 . S
C814 C820 1.465 . S
C815 C810 1.399 . S
C815 C814 1.394 . S
C815 C816 1.516 . S
C816 C815 1.516 . S
C816 C817 1.502 . S
C816 C818 1.561 . S
C816 C819 1.526 . S
C817 H801 0.959 . S
C817 H802 0.959 . S
C817 H803 0.961 . S
C817 C816 1.502 . S
C818 H804 0.960 . S
C818 H805 0.961 . S
C818 H806 0.959 . S
C818 C816 1.561 . S
C819 C816 1.526 . S
C819 C820 1.396 . S
C819 C824 1.390 . S
C820 C814 1.465 . S
C820 C819 1.396 . S
C820 C821 1.399 . S
C821 H807 0.929 . S
C821 C820 1.399 . S
C821 C822 1.385 . S
C822 H808 0.931 . S
C822 C821 1.385 . S
C822 C823 1.389 . S
C823 C822 1.389 . S
C823 C824 1.387 . S
C824 H809 0.930 . S
C824 C819 1.390 . S
C824 C823 1.387 . S
H825 C837 0.930 . S
H826 C839 0.930 . S
H827 C840 0.930 . S
H828 C844 0.959 . S
H829 C844 0.959 . S
H830 C844 0.961 . S
H831 C845 0.960 . S
H832 C845 0.961 . S
H833 C845 0.959 . S
H834 C848 0.929 . S
H835 C849 0.931 . S
H836 C851 0.930 . S
C837 H825 0.930 . S
C837 C838 1.399 . S
C837 C842 1.399 . S
C838 C837 1.399 . S
C838 C839 1.376 . S
C839 H826 0.930 . S
C839 C838 1.376 . S
C839 C840 1.388 . S
C840 H827 0.930 . S
C840 C839 1.388 . S
C840 C841 1.390 . S
C841 C840 1.390 . S
C841 C842 1.394 . S
C841 C847 1.465 . S
C842 C837 1.399 . S
C842 C841 1.394 . S
C842 C843 1.516 . S
C843 C842 1.516 . S
C843 C844 1.502 . S
C843 C845 1.561 1_556 S
C843 C846 1.526 . S
C844 H828 0.959 . S
C844 H829 0.959 . S
C844 H830 0.961 . S
C844 C843 1.502 . S
C845 H831 0.960 . S
C845 H832 0.961 . S
C845 H833 0.959 . S
C845 C843 1.561 1_554 S
C846 C843 1.526 . S
C846 C847 1.396 . S
C846 C851 1.390 . S
C847 C841 1.465 . S
C847 C846 1.396 . S
C847 C848 1.399 . S
C848 H834 0.929 . S
C848 C847 1.399 . S
C848 C849 1.385 . S
C849 H835 0.931 . S
C849 C848 1.385 . S
C849 C850 1.389 . S
C850 C849 1.389 . S
C850 C851 1.387 . S
C851 H836 0.930 . S
C851 C846 1.390 . S
C851 C850 1.387 . S
H852 C864 0.930 . S
H853 C866 0.930 . S
H854 C867 0.930 . S
H855 C871 0.959 . S
H856 C871 0.959 . S
H857 C871 0.961 . S
H858 C872 0.960 . S
H859 C872 0.961 . S
H860 C872 0.959 . S
H861 C875 0.929 . S
H862 C876 0.931 . S
H863 C878 0.930 1_455 S
C864 H852 0.930 . S
C864 C865 1.399 1_455 S
C864 C869 1.397 1_455 S
C865 C864 1.399 1_655 S
C865 C866 1.376 . S
C866 H853 0.930 . S
C866 C865 1.376 . S
C866 C867 1.388 . S
C867 H854 0.930 . S
C867 C866 1.388 . S
C867 C868 1.390 . S
C868 C867 1.390 . S
C868 C869 1.399 . S
C868 C874 1.465 . S
C869 C864 1.397 1_655 S
C869 C868 1.399 . S
C869 C870 1.514 1_655 S
C870 C869 1.514 1_455 S
C870 C871 1.502 . S
C870 C872 1.561 1_455 S
C870 C873 1.526 1_455 S
C871 H855 0.959 . S
C871 H856 0.959 . S
C871 H857 0.961 . S
C871 C870 1.502 . S
C872 H858 0.960 . S
C872 H859 0.961 . S
C872 H860 0.959 . S
C872 C870 1.561 1_655 S
C873 C870 1.526 1_655 S
C873 C874 1.396 . S
C873 C878 1.390 . S
C874 C868 1.465 . S
C874 C873 1.396 . S
C874 C875 1.399 . S
C875 H861 0.929 . S
C875 C874 1.399 . S
C875 C876 1.385 . S
C876 H862 0.931 . S
C876 C875 1.385 . S
C876 C877 1.389 . S
C877 C876 1.389 . S
C877 C878 1.387 . S
C878 H863 0.930 1_655 S
C878 C873 1.390 . S
C878 C877 1.387 . S
H879 C891 0.930 . S
H880 C893 0.935 . S
H881 C894 0.927 1_545 S
H882 C898 0.978 . S
H883 C898 0.954 1_565 S
H884 C898 0.959 1_565 S
H885 C899 0.960 . S
H886 C899 0.961 . S
H887 C899 0.959 . S
H888 C902 0.934 . S
H889 C903 0.931 . S
H890 C905 0.930 . S
C891 H879 0.930 . S
C891 C892 1.399 . S
C891 C896 1.399 . S
C892 C891 1.399 . S
C892 C893 1.374 1_565 S
C893 H880 0.935 . S
C893 C892 1.374 1_545 S
C893 C894 1.387 1_545 S
C894 H881 0.927 1_565 S
C894 C893 1.387 1_565 S
C894 C895 1.394 . S
C895 C894 1.394 . S
C895 C896 1.394 . S
C895 C901 1.465 . S
C896 C891 1.399 . S
C896 C895 1.394 . S
C896 C897 1.516 . S
C897 C896 1.516 . S
C897 C898 1.491 1_565 S
C897 C899 1.561 . S
C897 C900 1.526 . S
C898 H882 0.978 . S
C898 H883 0.954 1_545 S
C898 H884 0.959 1_545 S
C898 C897 1.491 1_545 S
C899 H885 0.960 . S
C899 H886 0.961 . S
C899 H887 0.959 . S
C899 C897 1.561 . S
C900 C897 1.526 . S
C900 C901 1.396 . S
C900 C905 1.390 . S
C901 C895 1.465 . S
C901 C900 1.396 . S
C901 C902 1.399 . S
C902 H888 0.934 . S
C902 C901 1.399 . S
C902 C903 1.385 . S
C903 H889 0.931 . S
C903 C902 1.385 . S
C903 C904 1.389 . S
C904 C903 1.389 . S
C904 C905 1.387 . S
C905 H890 0.930 . S
C905 C900 1.390 . S
C905 C904 1.387 . S
H906 C918 0.930 . S
H907 C920 0.930 . S
H908 C921 0.930 . S
H909 C925 0.959 . S
H910 C925 0.959 . S
H911 C925 0.961 . S
H912 C926 0.960 . S
H913 C926 0.961 . S
H914 C926 0.959 . S
H915 C929 0.929 . S
H916 C930 0.931 . S
H917 C932 0.930 . S
C918 H906 0.930 . S
C918 C919 1.399 . S
C918 C923 1.399 . S
C919 C918 1.399 . S
C919 C920 1.376 . S
C920 H907 0.930 . S
C920 C919 1.376 . S
C920 C921 1.388 . S
C921 H908 0.930 . S
C921 C920 1.388 . S
C921 C922 1.390 . S
C922 C921 1.390 . S
C922 C923 1.394 . S
C922 C928 1.465 . S
C923 C918 1.399 . S
C923 C922 1.394 . S
C923 C924 1.516 . S
C924 C923 1.516 . S
C924 C925 1.502 . S
C924 C926 1.561 . S
C924 C927 1.526 . S
C925 H909 0.959 . S
C925 H910 0.959 . S
C925 H911 0.961 . S
C925 C924 1.502 . S
C926 H912 0.960 . S
C926 H913 0.961 . S
C926 H914 0.959 . S
C926 C924 1.561 . S
C927 C924 1.526 . S
C927 C928 1.396 . S
C927 C932 1.390 . S
C928 C922 1.465 . S
C928 C927 1.396 . S
C928 C929 1.399 . S
C929 H915 0.929 . S
C929 C928 1.399 . S
C929 C930 1.385 . S
C930 H916 0.931 . S
C930 C929 1.385 . S
C930 C931 1.389 . S
C931 C930 1.389 . S
C931 C932 1.387 . S
C932 H917 0.930 . S
C932 C927 1.390 . S
C932 C931 1.387 . S
H933 C945 0.930 . S
H934 C947 0.930 . S
H935 C948 0.930 . S
H936 C952 0.959 . S
H937 C952 0.959 . S
H938 C952 0.961 . S
H939 C953 0.960 . S
H940 C953 0.961 . S
H941 C953 0.959 . S
H942 C956 0.929 . S
H943 C957 0.931 . S
H944 C959 0.930 . S
C945 H933 0.930 . S
C945 C946 1.399 . S
C945 C950 1.399 . S
C946 C945 1.399 . S
C946 C947 1.376 . S
C947 H934 0.930 . S
C947 C946 1.376 . S
C947 C948 1.388 . S
C948 H935 0.930 . S
C948 C947 1.388 . S
C948 C949 1.390 . S
C949 C948 1.390 . S
C949 C950 1.394 . S
C949 C955 1.465 . S
C950 C945 1.399 . S
C950 C949 1.394 . S
C950 C951 1.516 . S
C951 C950 1.516 . S
C951 C952 1.502 . S
C951 C953 1.561 . S
C951 C954 1.526 . S
C952 H936 0.959 . S
C952 H937 0.959 . S
C952 H938 0.961 . S
C952 C951 1.502 . S
C953 H939 0.960 . S
C953 H940 0.961 . S
C953 H941 0.959 . S
C953 C951 1.561 . S
C954 C951 1.526 . S
C954 C955 1.396 . S
C954 C959 1.390 . S
C955 C949 1.465 . S
C955 C954 1.396 . S
C955 C956 1.399 . S
C956 H942 0.929 . S
C956 C955 1.399 . S
C956 C957 1.385 . S
C957 H943 0.931 . S
C957 C956 1.385 . S
C957 C958 1.389 . S
C958 C957 1.389 . S
C958 C959 1.387 . S
C959 H944 0.930 . S
C959 C954 1.390 . S
C959 C958 1.387 . S
C325 C125 1.906 . S
C337 C161 1.946 . S
C364 C201 1.942 . S
C352 C144 1.894 . S
C391 C241 1.964 . S
C379 C87 1.942 . S
C418 C281 1.940 . S
C406 C106 1.894 . S
C445 C170 1.965 1_565 S
C433 C49 1.897 . S
C460 C68 1.883 . S
C472 C210 1.966 . S
C487 C11 1.934 . S
C499 C250 1.943 . S
C514 C30 1.938 1_455 S
C526 C290 1.948 . S
C553 C167 0.481 . S
C541 C97 0.676 . S
C580 C207 0.468 . S
C568 C116 0.552 . S
C607 C247 0.502 . S
C595 C135 0.686 . S
C622 C78 0.590 . S
C634 C287 0.610 . S
C649 C21 0.516 . S
C661 C158 0.537 . S
C688 C198 0.450 . S
C676 C40 0.664 . S
C715 C238 0.503 . S
C703 C59 0.675 . S
C730 C2 0.682 . S
C742 C278 0.465 . S
C757 C101 2.092 . S
C769 C171 2.262 . S
C784 C120 2.015 1_545 S
C796 C211 2.272 . S
C823 C251 2.289 . S
C811 C139 2.084 . S
C850 C291 2.260 . S
C838 C82 2.069 . S
C865 C25 2.091 . S
C877 C162 2.301 . S
C904 C202 2.272 . S
C892 C44 2.103 . S
C931 C242 2.280 . S
C919 C63 2.082 . S
C946 C6 2.107 . S
C958 C282 2.281 . S
