# Generated by pormake.
# Topology tsx, (6,3)-cn, num edge types: 1
# Building blocks:
#     Node 0, Type 0, BuildingBlock: VOLQOD_clean_sbu_1, # of connection points: 6
#     Node 1, Type 0, BuildingBlock: VOLQOD_clean_sbu_1, # of connection points: 6
#     Node 2, Type 1, BuildingBlock: BETDAH_clean_linker_0, # of connection points: 3
#     Node 3, Type 1, BuildingBlock: BETDAH_clean_linker_0, # of connection points: 3
#     Node 4, Type 1, BuildingBlock: BETDAH_clean_linker_0, # of connection points: 3
#     Node 5, Type 1, BuildingBlock: BETDAH_clean_linker_0, # of connection points: 3
#     Edge 6, Type (0, 1), BuildingBlock: EZIPEK_clean_linker_0, # of connection points: 2
#     Edge 7, Type (0, 1), BuildingBlock: EZIPEK_clean_linker_0, # of connection points: 2
#     Edge 8, Type (0, 1), BuildingBlock: EZIPEK_clean_linker_0, # of connection points: 2
#     Edge 9, Type (0, 1), BuildingBlock: EZIPEK_clean_linker_0, # of connection points: 2
#     Edge 10, Type (0, 1), BuildingBlock: EZIPEK_clean_linker_0, # of connection points: 2
#     Edge 11, Type (0, 1), BuildingBlock: EZIPEK_clean_linker_0, # of connection points: 2
#     Edge 12, Type (0, 1), BuildingBlock: EZIPEK_clean_linker_0, # of connection points: 2
#     Edge 13, Type (0, 1), BuildingBlock: EZIPEK_clean_linker_0, # of connection points: 2
#     Edge 14, Type (0, 1), BuildingBlock: EZIPEK_clean_linker_0, # of connection points: 2
#     Edge 15, Type (0, 1), BuildingBlock: EZIPEK_clean_linker_0, # of connection points: 2
#     Edge 16, Type (0, 1), BuildingBlock: EZIPEK_clean_linker_0, # of connection points: 2
#     Edge 17, Type (0, 1), BuildingBlock: EZIPEK_clean_linker_0, # of connection points: 2
# Relax obj value: 0.054
# Max RMSD: 0.109
# Mean RMSD: 0.099
data_MOF--net-tsx--node1-VOLQOD_clean_sbu_1--node2-BETDAH_clean_linker_0--edge1-EZIPEK_clean_linker_0
_symmetry_space_group_name_H-M    P1
_symmetry_Int_Tables_number       1
_symmetry_cell_setting            triclinic
loop_
_symmetry_equiv_pos_as_xyz
'x, y, z'
_cell_length_a     15.729204
_cell_length_b     16.324906
_cell_length_c     27.516942
_cell_angle_alpha  90.164082
_cell_angle_beta   98.379636
_cell_angle_gamma 90.253471
loop_
_atom_site_label
_atom_site_type_symbol
_atom_site_fract_x
_atom_site_fract_y
_atom_site_fract_z
_atom_type_partial_charge
O0 O 0.02923 0.97599 0.12105 0.0
Zn1 Zn 0.07504 0.98496 0.0562 0.0
O2 O 0.98197 0.0137 0.00409 0.0
Zn3 Zn 0.96266 0.92542 0.95635 0.0
Zn4 Zn 0.87715 0.03185 0.03232 0.0
Zn5 Zn 0.01048 0.11199 0.97059 0.0
O6 O 0.96388 0.96619 0.88722 0.0
O7 O 0.03194 0.08577 0.90136 0.0
O8 O 0.13669 0.88137 0.03937 0.0
O9 O 0.06113 0.84729 0.9673 0.0
O10 O 0.85662 0.85935 0.96518 0.0
O11 O 0.8009 0.93348 0.02071 0.0
O12 O 0.81362 0.13282 0.00417 0.0
O13 O 0.16253 0.0763 0.0661 0.0
O14 O 0.9132 0.19258 0.96657 0.0
O15 O 0.11469 0.16619 0.00783 0.0
C16 C 0.96275 0.00662 0.1356 0.0
C17 C 0.00273 0.02796 0.87231 0.0
C18 C 0.80041 0.87038 0.99353 0.0
C19 C 0.12368 0.83568 0.00131 0.0
C20 C 0.83895 0.19236 0.97995 0.0
C21 C 0.1688 0.14429 0.04437 0.0
O22 O 0.90269 0.03932 0.10602 0.0
O23 O 0.56384 0.48616 0.62271 0.0
Zn24 Zn 0.61129 0.49202 0.55818 0.0
O25 O 0.51887 0.50926 0.50513 0.0
Zn26 Zn 0.50791 0.419 0.45945 0.0
Zn27 Zn 0.41394 0.51405 0.53206 0.0
Zn28 Zn 0.53166 0.61143 0.47171 0.0
O29 O 0.49513 0.4596 0.3899 0.0
O30 O 0.53941 0.5895 0.40027 0.0
O31 O 0.68031 0.39169 0.54453 0.0
O32 O 0.61501 0.35427 0.47029 0.0
O33 O 0.41592 0.3385 0.47287 0.0
O34 O 0.36065 0.40365 0.53186 0.0
O35 O 0.33301 0.59029 0.49234 0.0
O36 O 0.69112 0.589 0.56349 0.0
O37 O 0.42601 0.68133 0.47124 0.0
O38 O 0.63668 0.67284 0.50323 0.0
C39 C 0.49608 0.51815 0.63494 0.0
C40 C 0.51718 0.52775 0.37283 0.0
C41 C 0.3665 0.34051 0.50562 0.0
C42 C 0.67518 0.34685 0.50613 0.0
C43 C 0.34908 0.65896 0.47383 0.0
C44 C 0.69334 0.65559 0.53969 0.0
O45 O 0.43574 0.54522 0.60322 0.0
H46 H 0.05657 0.85879 0.32352 0.0
H47 H 0.90916 0.05652 0.37318 0.0
H48 H 0.07471 0.91253 0.47677 0.0
C49 C 0.03543 0.89348 0.3532 0.0
C50 C 0.07036 0.87658 0.40179 0.0
C51 C 0.97959 0.96003 0.34263 0.0
C52 C 0.9521 0.0051 0.38131 0.0
C53 C 0.98451 0.98507 0.43029 0.0
C54 C 0.04478 0.92304 0.43956 0.0
N55 N 0.96356 0.0278 0.47178 0.0
C56 C 0.90594 0.09159 0.47103 0.0
H57 H 0.92763 0.89968 0.67838 0.0
H58 H 0.15049 0.03843 0.65316 0.0
H59 H 0.0295 0.8694 0.54365 0.0
C60 C 0.97429 0.91659 0.65473 0.0
C61 C 0.96928 0.88124 0.6081 0.0
C62 C 0.03995 0.97259 0.67132 0.0
C63 C 0.09962 0.99543 0.64021 0.0
C64 C 0.09616 0.95783 0.5938 0.0
C65 C 0.03167 0.90017 0.57859 0.0
N66 N 0.15919 0.97206 0.56281 0.0
C67 C 0.19875 0.0471 0.55767 0.0
H68 H 0.61326 0.43811 0.83803 0.0
H69 H 0.37005 0.53752 0.85474 0.0
H70 H 0.52023 0.42215 0.97715 0.0
C71 C 0.57038 0.45598 0.86324 0.0
C72 C 0.58718 0.4369 0.91381 0.0
C73 C 0.494 0.49373 0.84244 0.0
C74 C 0.43029 0.51099 0.87135 0.0
C75 C 0.4413 0.48623 0.92041 0.0
C76 C 0.51753 0.44681 0.94064 0.0
N77 N 0.37325 0.4925 0.94871 0.0
C78 C 0.32748 0.56402 0.95371 0.0
H79 H 0.42369 0.389 0.18615 0.0
H80 H 0.54015 0.60402 0.13315 0.0
H81 H 0.41252 0.42614 0.0317 0.0
C82 C 0.44172 0.4244 0.15591 0.0
C83 C 0.41343 0.39944 0.10771 0.0
C84 C 0.48732 0.49813 0.1652 0.0
C85 C 0.50795 0.54559 0.12586 0.0
C86 C 0.48216 0.5187 0.07727 0.0
C87 C 0.43491 0.44601 0.06882 0.0
N88 N 0.49614 0.56524 0.03575 0.0
C89 C 0.55941 0.62439 0.0345 0.0
C90 C 0.32059 0.19664 0.0562 0.0
C91 C 0.23463 0.20395 0.06545 0.0
C92 C 0.26704 0.33684 0.10525 0.0
C93 C 0.3538 0.32894 0.09718 0.0
N94 N 0.46778 0.24621 0.07379 0.0
N95 N 0.12987 0.2702 0.1078 0.0
C96 C 0.38206 0.25702 0.07536 0.0
C97 C 0.20918 0.27069 0.09293 0.0
N98 N 0.34248 0.13363 0.02768 0.0
N99 N 0.23862 0.40914 0.12218 0.0
H100 H 0.08495 0.22343 0.0986 0.0
H101 H 0.11125 0.31223 0.13272 0.0
H102 H 0.27835 0.45969 0.13153 0.0
H103 H 0.17407 0.42178 0.12314 0.0
H104 H 0.40143 0.12965 0.0149 0.0
H105 H 0.29938 0.08735 0.01416 0.0
H106 H 0.49378 0.19209 0.0625 0.0
H107 H 0.51426 0.28935 0.0877 0.0
C108 C 0.24323 0.77983 0.96094 0.0
C109 C 0.18393 0.76868 0.99455 0.0
C110 C 0.22696 0.62496 0.00518 0.0
C111 C 0.27865 0.63392 0.96724 0.0
N112 N 0.32772 0.71657 0.9043 0.0
N113 N 0.1128 0.6804 0.04604 0.0
C114 C 0.28478 0.71052 0.94386 0.0
C115 C 0.17439 0.69125 0.01629 0.0
N116 N 0.26125 0.85714 0.9463 0.0
N117 N 0.22871 0.55336 0.03095 0.0
H118 H 0.07532 0.7283 0.05623 0.0
H119 H 0.09508 0.62339 0.05825 0.0
H120 H 0.26356 0.50222 0.02274 0.0
H121 H 0.20013 0.54636 0.06248 0.0
H122 H 0.30994 0.87037 0.9256 0.0
H123 H 0.23262 0.90922 0.95875 0.0
H124 H 0.32649 0.76851 0.88234 0.0
H125 H 0.35936 0.66722 0.89106 0.0
C126 C 0.66163 0.79437 0.97029 0.0
C127 C 0.74118 0.80293 0.00137 0.0
C128 C 0.70157 0.69296 0.05467 0.0
C129 C 0.6225 0.68377 0.02313 0.0
N130 N 0.53427 0.71148 0.94575 0.0
N131 N 0.84447 0.75357 0.06819 0.0
C132 C 0.60457 0.7303 0.97936 0.0
C133 C 0.76338 0.75015 0.04221 0.0
N134 N 0.63972 0.84901 0.93304 0.0
N135 N 0.71708 0.64749 0.09667 0.0
H136 H 0.8912 0.79504 0.06029 0.0
H137 H 0.86803 0.71196 0.09535 0.0
H138 H 0.67599 0.60093 0.10492 0.0
H139 H 0.76844 0.6578 0.12441 0.0
H140 H 0.57871 0.85223 0.91259 0.0
H141 H 0.68134 0.89501 0.9245 0.0
H142 H 0.52224 0.73719 0.91087 0.0
H143 H 0.49121 0.66485 0.9512 0.0
C144 C 0.77445 0.29478 0.91756 0.0
C145 C 0.78124 0.26321 0.966 0.0
C146 C 0.68867 0.37545 0.98685 0.0
C147 C 0.6707 0.39558 0.93622 0.0
N148 N 0.75972 0.42162 0.87372 0.0
N149 N 0.75221 0.28085 0.04952 0.0
C150 C 0.73174 0.36951 0.90665 0.0
C151 C 0.74062 0.30575 0.00168 0.0
N152 N 0.80513 0.25252 0.88101 0.0
N153 N 0.66846 0.43043 0.02071 0.0
H154 H 0.79712 0.23693 0.06332 0.0
H155 H 0.71513 0.30222 0.07528 0.0
H156 H 0.64486 0.48816 0.00995 0.0
H157 H 0.68535 0.42407 0.05851 0.0
H158 H 0.79639 0.2731 0.84474 0.0
H159 H 0.82953 0.19338 0.88571 0.0
H160 H 0.80965 0.4067 0.85417 0.0
H161 H 0.74085 0.48296 0.87167 0.0
C162 C 0.74467 0.79593 0.56821 0.0
C163 C 0.76377 0.71448 0.55532 0.0
C164 C 0.91697 0.74025 0.58171 0.0
C165 C 0.89855 0.82369 0.58995 0.0
N166 N 0.79703 0.93513 0.58071 0.0
N167 N 0.86921 0.61477 0.53915 0.0
C168 C 0.81296 0.85288 0.58012 0.0
C169 C 0.85034 0.68816 0.55901 0.0
N170 N 0.66191 0.81804 0.57138 0.0
N171 N 0.99729 0.71003 0.59705 0.0
H172 H 0.82223 0.57607 0.52072 0.0
H173 H 0.93167 0.59632 0.53646 0.0
H174 H 0.04757 0.74591 0.61476 0.0
H175 H 0.01185 0.64789 0.59635 0.0
H176 H 0.6458 0.87414 0.58562 0.0
H177 H 0.61001 0.77766 0.56437 0.0
H178 H 0.73665 0.96008 0.56917 0.0
H179 H 0.84551 0.97911 0.58825 0.0
C180 C 0.82133 0.30251 0.49134 0.0
C181 C 0.73862 0.28193 0.50249 0.0
C182 C 0.76397 0.1367 0.48792 0.0
C183 C 0.8481 0.15684 0.47929 0.0
N184 N 0.96295 0.25517 0.4794 0.0
N185 N 0.63599 0.18036 0.52028 0.0
C186 C 0.87874 0.23871 0.48303 0.0
C187 C 0.71133 0.19912 0.50339 0.0
N188 N 0.84341 0.3829 0.48662 0.0
N189 N 0.73389 0.05824 0.48028 0.0
H190 H 0.59629 0.22486 0.5323 0.0
H191 H 0.61636 0.12083 0.52654 0.0
H192 H 0.77132 0.01067 0.46959 0.0
H193 H 0.67023 0.04124 0.48099 0.0
H194 H 0.89866 0.40192 0.47306 0.0
H195 H 0.80351 0.43118 0.49339 0.0
H196 H 0.99178 0.31214 0.48725 0.0
H197 H 0.00594 0.21023 0.47148 0.0
C198 C 0.35209 0.22656 0.56425 0.0
C199 C 0.32364 0.26468 0.5184 0.0
C200 C 0.21814 0.15542 0.49719 0.0
C201 C 0.24052 0.12189 0.54488 0.0
N202 N 0.32192 0.12914 0.62602 0.0
N203 N 0.22201 0.27331 0.44416 0.0
C204 C 0.30535 0.15869 0.57917 0.0
C205 C 0.2545 0.23133 0.48561 0.0
N206 N 0.42611 0.25287 0.59246 0.0
N207 N 0.16456 0.11315 0.46233 0.0
H208 H 0.2479 0.32874 0.43429 0.0
H209 H 0.16537 0.25675 0.42171 0.0
H210 H 0.13831 0.05678 0.46952 0.0
H211 H 0.15249 0.13005 0.42553 0.0
H212 H 0.45505 0.22237 0.62368 0.0
H213 H 0.46312 0.30148 0.58246 0.0
H214 H 0.36119 0.15914 0.65436 0.0
H215 H 0.29164 0.07716 0.63747 0.0
C216 C 0.20104 0.71595 0.47615 0.0
C217 C 0.2765 0.71249 0.45338 0.0
C218 C 0.21763 0.81955 0.39633 0.0
C219 C 0.13812 0.81416 0.41473 0.0
N220 N 0.04789 0.73873 0.46304 0.0
N221 N 0.34175 0.74394 0.38069 0.0
C222 C 0.12763 0.75575 0.45145 0.0
C223 C 0.28056 0.75897 0.41004 0.0
N224 N 0.20048 0.68666 0.52257 0.0
N225 N 0.23582 0.88431 0.36816 0.0
H226 H 0.38575 0.69634 0.38675 0.0
H227 H 0.34153 0.7725 0.34681 0.0
H228 H 0.19428 0.93337 0.35959 0.0
H229 H 0.29648 0.89348 0.358 0.0
H230 H 0.14833 0.69436 0.54156 0.0
H231 H 0.25525 0.66488 0.54453 0.0
H232 H 0.03683 0.69215 0.48725 0.0
H233 H 0.99213 0.76512 0.44448 0.0
C234 C 0.89836 0.94949 0.20673 0.0
C235 C 0.956 0.00498 0.18862 0.0
C236 C 0.01744 0.0432 0.27257 0.0
C237 C 0.96069 0.98691 0.29076 0.0
N238 N 0.83564 0.90021 0.27701 0.0
N239 N 0.05499 0.11842 0.20272 0.0
C240 C 0.897 0.94477 0.25827 0.0
C241 C 0.01062 0.05636 0.22114 0.0
N242 N 0.8483 0.89849 0.17485 0.0
N243 N 0.08076 0.08084 0.30433 0.0
H244 H 0.05159 0.12928 0.16515 0.0
H245 H 0.08914 0.16334 0.22443 0.0
H246 H 0.08599 0.07517 0.34237 0.0
H247 H 0.13101 0.11406 0.29307 0.0
H248 H 0.81213 0.85033 0.18594 0.0
H249 H 0.84677 0.90102 0.13686 0.0
H250 H 0.78274 0.87349 0.25556 0.0
H251 H 0.83384 0.89593 0.31469 0.0
C252 C 0.08349 0.96533 0.80973 0.0
C253 C 0.02502 0.02571 0.82174 0.0
C254 C 0.99213 0.06486 0.73505 0.0
C255 C 0.04718 0.0018 0.72288 0.0
N256 N 0.15909 0.90402 0.74785 0.0
N257 N 0.93982 0.14549 0.79879 0.0
C258 C 0.09775 0.95621 0.76015 0.0
C259 C 0.98489 0.07996 0.7853 0.0
N260 N 0.12374 0.91548 0.84578 0.0
N261 N 0.9442 0.10774 0.69825 0.0
H262 H 0.93249 0.15723 0.83516 0.0
H263 H 0.91529 0.19167 0.77485 0.0
H264 H 0.95152 0.10081 0.66137 0.0
H265 H 0.895 0.14757 0.70372 0.0
H266 H 0.15861 0.86363 0.83922 0.0
H267 H 0.11991 0.92435 0.88293 0.0
H268 H 0.20383 0.87429 0.77327 0.0
H269 H 0.16983 0.89475 0.71174 0.0
C270 C 0.43443 0.45723 0.7053 0.0
C271 C 0.48499 0.51921 0.68725 0.0
C272 C 0.5205 0.57692 0.77004 0.0
C273 C 0.4799 0.50866 0.78879 0.0
N274 N 0.40248 0.38073 0.77588 0.0
N275 N 0.57772 0.63743 0.70095 0.0
C276 C 0.43691 0.44846 0.75681 0.0
C277 C 0.52803 0.57938 0.71918 0.0
N278 N 0.38432 0.40668 0.67315 0.0
N279 N 0.5511 0.63939 0.80103 0.0
H280 H 0.58159 0.643 0.66356 0.0
H281 H 0.61852 0.67745 0.72283 0.0
H282 H 0.54637 0.63882 0.83847 0.0
H283 H 0.5747 0.69445 0.78935 0.0
H284 H 0.33923 0.36595 0.68358 0.0
H285 H 0.38286 0.40958 0.63521 0.0
H286 H 0.38011 0.32963 0.75508 0.0
H287 H 0.40084 0.37312 0.81334 0.0
C288 C 0.43607 0.55464 0.28954 0.0
C289 C 0.51477 0.53563 0.31931 0.0
C290 C 0.58302 0.51021 0.24618 0.0
C291 C 0.50375 0.52768 0.21661 0.0
N292 N 0.3632 0.58812 0.2082 0.0
N293 N 0.66754 0.51322 0.32745 0.0
C294 C 0.43312 0.55757 0.23783 0.0
C295 C 0.58998 0.51974 0.29802 0.0
N296 N 0.36338 0.566 0.31057 0.0
N297 N 0.64988 0.48064 0.2248 0.0
H298 H 0.67421 0.51807 0.36564 0.0
H299 H 0.72596 0.50918 0.31408 0.0
H300 H 0.64752 0.47607 0.1868 0.0
H301 H 0.70603 0.45732 0.24449 0.0
H302 H 0.3022 0.57123 0.29054 0.0
H303 H 0.36319 0.56451 0.34845 0.0
H304 H 0.3125 0.61741 0.22141 0.0
H305 H 0.35992 0.59114 0.17008 0.0
loop_
_geom_bond_atom_site_label_1
_geom_bond_atom_site_label_2
_geom_bond_distance
_geom_bond_site_symmetry_2
_ccdc_geom_bond_type
O0 Zn1 1.953 . S
O0 C16 1.225 1_565 S
Zn1 O0 1.953 . S
Zn1 O2 1.949 1_565 S
Zn1 O8 1.919 . S
Zn1 O13 1.924 1_565 S
O2 Zn1 1.949 1_545 S
O2 Zn3 1.923 1_444 S
O2 Zn4 1.950 1_455 S
O2 Zn5 1.945 1_554 S
Zn3 O2 1.923 1_666 S
Zn3 O6 1.933 . S
Zn3 O9 1.941 1_655 S
Zn3 O10 1.965 . S
Zn4 O2 1.950 1_655 S
Zn4 O11 1.938 1_545 S
Zn4 O12 1.906 . S
Zn4 O22 1.953 . S
Zn5 O2 1.945 1_556 S
Zn5 O7 1.932 . S
Zn5 O14 1.977 1_455 S
Zn5 O15 1.910 . S
O6 Zn3 1.933 . S
O6 C17 1.226 1_565 S
O7 Zn5 1.932 . S
O7 C17 1.307 1_455 S
O8 Zn1 1.919 . S
O8 C19 1.244 1_554 S
O9 Zn3 1.941 1_455 S
O9 C19 1.287 . S
O10 Zn3 1.965 . S
O10 C18 1.303 1_556 S
O11 Zn4 1.938 1_565 S
O11 C18 1.247 . S
O12 Zn4 1.906 . S
O12 C20 1.304 1_554 S
O13 Zn1 1.924 1_545 S
O13 C21 1.311 . S
O14 Zn5 1.977 1_655 S
O14 C20 1.272 . S
O15 Zn5 1.910 . S
O15 C21 1.231 1_556 S
C16 O0 1.225 1_545 S
C16 O22 1.298 1_455 S
C17 O6 1.226 1_545 S
C17 O7 1.307 1_655 S
C18 O10 1.303 1_554 S
C18 O11 1.247 . S
C19 O8 1.244 1_556 S
C19 O9 1.287 . S
C20 O12 1.304 1_556 S
C20 O14 1.272 . S
C21 O13 1.311 . S
C21 O15 1.231 1_554 S
O22 Zn4 1.953 . S
O22 C16 1.298 1_655 S
O23 Zn24 1.953 . S
O23 C39 1.225 . S
Zn24 O23 1.953 . S
Zn24 O25 1.949 . S
Zn24 O31 1.919 . S
Zn24 O36 1.924 . S
O25 Zn24 1.949 . S
O25 Zn26 1.923 . S
O25 Zn27 1.950 . S
O25 Zn28 1.945 . S
Zn26 O25 1.923 . S
Zn26 O29 1.933 . S
Zn26 O32 1.941 . S
Zn26 O33 1.965 . S
Zn27 O25 1.950 . S
Zn27 O34 1.938 . S
Zn27 O35 1.906 . S
Zn27 O45 1.953 . S
Zn28 O25 1.945 . S
Zn28 O30 1.932 . S
Zn28 O37 1.977 . S
Zn28 O38 1.910 . S
O29 Zn26 1.933 . S
O29 C40 1.226 . S
O30 Zn28 1.932 . S
O30 C40 1.307 . S
O31 Zn24 1.919 . S
O31 C42 1.253 . S
O32 Zn26 1.941 . S
O32 C42 1.283 . S
O33 Zn26 1.965 . S
O33 C41 1.303 . S
O34 Zn27 1.938 . S
O34 C41 1.247 . S
O35 Zn27 1.906 . S
O35 C43 1.304 . S
O36 Zn24 1.924 . S
O36 C44 1.311 . S
O37 Zn28 1.977 . S
O37 C43 1.272 . S
O38 Zn28 1.910 . S
O38 C44 1.231 . S
C39 O23 1.225 . S
C39 O45 1.298 . S
C40 O29 1.226 . S
C40 O30 1.307 . S
C41 O33 1.303 . S
C41 O34 1.247 . S
C42 O31 1.253 . S
C42 O32 1.283 . S
C43 O35 1.304 . S
C43 O37 1.272 . S
C44 O36 1.311 . S
C44 O38 1.231 . S
O45 Zn27 1.953 . S
O45 C39 1.298 . S
H46 C49 0.929 . S
H47 C52 0.929 . S
H48 C54 0.930 . S
C49 H46 0.929 . S
C49 C50 1.398 . S
C49 C51 1.396 . S
C50 C49 1.398 . S
C50 C54 1.407 . S
C51 C49 1.396 . S
C51 C52 1.394 1_465 S
C52 H47 0.929 . S
C52 C51 1.394 1_645 S
C52 C53 1.382 . S
C53 C52 1.382 . S
C53 C54 1.392 1_645 S
C53 N55 1.420 . S
C54 H48 0.930 . S
C54 C50 1.407 . S
C54 C53 1.392 1_465 S
N55 C53 1.420 . S
N55 C56 1.244 . S
C56 N55 1.244 . S
H57 C60 0.929 . S
H58 C63 0.929 . S
H59 C65 0.930 . S
C60 H57 0.929 . S
C60 C61 1.398 . S
C60 C62 1.396 . S
C61 C60 1.398 . S
C61 C65 1.407 . S
C62 C60 1.396 . S
C62 C63 1.394 1_665 S
C63 H58 0.929 . S
C63 C62 1.394 1_445 S
C63 C64 1.382 . S
C64 C63 1.382 . S
C64 C65 1.392 1_445 S
C64 N66 1.420 . S
C65 H59 0.930 . S
C65 C61 1.407 . S
C65 C64 1.392 1_665 S
N66 C64 1.420 . S
N66 C67 1.244 . S
C67 N66 1.244 . S
H68 C71 0.929 . S
H69 C74 0.929 . S
H70 C76 0.930 . S
C71 H68 0.929 . S
C71 C72 1.398 . S
C71 C73 1.396 . S
C72 C71 1.398 . S
C72 C76 1.407 . S
C73 C71 1.396 . S
C73 C74 1.394 . S
C74 H69 0.929 . S
C74 C73 1.394 . S
C74 C75 1.382 . S
C75 C74 1.382 . S
C75 C76 1.392 . S
C75 N77 1.420 . S
C76 H70 0.930 . S
C76 C72 1.407 . S
C76 C75 1.392 . S
N77 C75 1.420 . S
N77 C78 1.244 . S
C78 N77 1.244 . S
H79 C82 0.929 . S
H80 C85 0.929 . S
H81 C87 0.930 . S
C82 H79 0.929 . S
C82 C83 1.398 . S
C82 C84 1.396 . S
C83 C82 1.398 . S
C83 C87 1.407 . S
C84 C82 1.396 . S
C84 C85 1.394 . S
C85 H80 0.929 . S
C85 C84 1.394 . S
C85 C86 1.382 . S
C86 C85 1.382 . S
C86 C87 1.392 . S
C86 N88 1.420 . S
C87 H81 0.930 . S
C87 C83 1.407 . S
C87 C86 1.392 . S
N88 C86 1.420 . S
N88 C89 1.244 . S
C89 N88 1.244 . S
C90 C91 1.363 . S
C90 C96 1.379 . S
C90 N98 1.356 1_554 S
C91 C90 1.363 . S
C91 C97 1.363 . S
C92 C93 1.363 . S
C92 C97 1.379 . S
C92 N99 1.356 . S
C93 C92 1.363 . S
C93 C96 1.363 . S
N94 C96 1.356 . S
N94 H106 0.985 . S
N94 H107 0.985 . S
N95 C97 1.356 . S
N95 H100 0.984 . S
N95 H101 0.985 . S
C96 C90 1.379 . S
C96 C93 1.363 . S
C96 N94 1.356 . S
C97 C91 1.363 . S
C97 C92 1.379 . S
C97 N95 1.356 . S
N98 C90 1.356 1_556 S
N98 H104 0.984 . S
N98 H105 0.984 . S
N99 C92 1.356 . S
N99 H102 0.984 . S
N99 H103 0.985 . S
H100 N95 0.984 . S
H101 N95 0.985 . S
H102 N99 0.984 . S
H103 N99 0.985 . S
H104 N98 0.984 . S
H105 N98 0.984 . S
H106 N94 0.985 . S
H107 N94 0.985 . S
C108 C109 1.363 . S
C108 C114 1.379 . S
C108 N116 1.356 . S
C109 C108 1.363 . S
C109 C115 1.363 1_556 S
C110 C111 1.363 1_554 S
C110 C115 1.379 . S
C110 N117 1.356 . S
C111 C110 1.363 1_556 S
C111 C114 1.363 . S
N112 C114 1.356 . S
N112 H124 0.984 . S
N112 H125 0.985 . S
N113 C115 1.356 . S
N113 H118 0.984 . S
N113 H119 0.985 . S
C114 C108 1.379 . S
C114 C111 1.363 . S
C114 N112 1.356 . S
C115 C109 1.363 1_554 S
C115 C110 1.379 . S
C115 N113 1.356 . S
N116 C108 1.356 . S
N116 H122 0.984 . S
N116 H123 0.984 . S
N117 C110 1.356 . S
N117 H120 0.984 . S
N117 H121 0.985 . S
H118 N113 0.984 . S
H119 N113 0.985 . S
H120 N117 0.984 . S
H121 N117 0.985 . S
H122 N116 0.984 . S
H123 N116 0.984 . S
H124 N112 0.984 . S
H125 N112 0.985 . S
C126 C127 1.363 1_556 S
C126 C132 1.379 1_556 S
C126 N134 1.356 . S
C127 C126 1.363 1_554 S
C127 C133 1.363 . S
C128 C129 1.363 . S
C128 C133 1.379 . S
C128 N135 1.356 . S
C129 C128 1.363 . S
C129 C132 1.363 . S
N130 C132 1.356 1_556 S
N130 H142 0.984 . S
N130 H143 0.985 . S
N131 C133 1.356 . S
N131 H136 0.984 . S
N131 H137 0.985 . S
C132 C126 1.379 1_554 S
C132 C129 1.363 . S
C132 N130 1.356 1_554 S
C133 C127 1.363 . S
C133 C128 1.379 . S
C133 N131 1.356 . S
N134 C126 1.356 . S
N134 H140 0.984 . S
N134 H141 0.984 . S
N135 C128 1.356 . S
N135 H138 0.984 . S
N135 H139 0.985 . S
H136 N131 0.984 . S
H137 N131 0.985 . S
H138 N135 0.984 . S
H139 N135 0.985 . S
H140 N134 0.984 . S
H141 N134 0.984 . S
H142 N130 0.984 . S
H143 N130 0.985 . S
C144 C145 1.363 . S
C144 C150 1.379 . S
C144 N152 1.356 . S
C145 C144 1.363 . S
C145 C151 1.363 . S
C146 C147 1.363 . S
C146 C151 1.379 . S
C146 N153 1.356 1_556 S
C147 C146 1.363 . S
C147 C150 1.363 . S
N148 C150 1.356 . S
N148 H160 0.984 . S
N148 H161 0.985 . S
N149 C151 1.356 1_554 S
N149 H154 0.984 . S
N149 H155 0.985 . S
C150 C144 1.379 . S
C150 C147 1.363 . S
C150 N148 1.356 . S
C151 C145 1.363 . S
C151 C146 1.379 . S
C151 N149 1.356 1_556 S
N152 C144 1.356 . S
N152 H158 0.984 . S
N152 H159 0.984 . S
N153 C146 1.356 1_554 S
N153 H156 0.984 1_554 S
N153 H157 0.985 . S
H154 N149 0.984 . S
H155 N149 0.985 . S
H156 N153 0.984 1_556 S
H157 N153 0.985 . S
H158 N152 0.984 . S
H159 N152 0.984 . S
H160 N148 0.984 . S
H161 N148 0.985 . S
C162 C163 1.363 . S
C162 C168 1.379 . S
C162 N170 1.356 . S
C163 C162 1.363 . S
C163 C169 1.363 . S
C164 C165 1.363 . S
C164 C169 1.379 . S
C164 N171 1.356 . S
C165 C164 1.363 . S
C165 C168 1.363 . S
N166 C168 1.356 . S
N166 H178 0.984 . S
N166 H179 0.985 . S
N167 C169 1.356 . S
N167 H172 0.984 . S
N167 H173 0.985 . S
C168 C162 1.379 . S
C168 C165 1.363 . S
C168 N166 1.356 . S
C169 C163 1.363 . S
C169 C164 1.379 . S
C169 N167 1.356 . S
N170 C162 1.356 . S
N170 H176 0.984 . S
N170 H177 0.984 . S
N171 C164 1.356 . S
N171 H174 0.984 . S
N171 H175 0.985 . S
H172 N167 0.984 . S
H173 N167 0.985 . S
H174 N171 0.984 . S
H175 N171 0.985 . S
H176 N170 0.984 . S
H177 N170 0.984 . S
H178 N166 0.984 . S
H179 N166 0.985 . S
C180 C181 1.363 . S
C180 C186 1.379 . S
C180 N188 1.356 . S
C181 C180 1.363 . S
C181 C187 1.363 . S
C182 C183 1.363 . S
C182 C187 1.379 . S
C182 N189 1.356 . S
C183 C182 1.363 . S
C183 C186 1.363 . S
N184 C186 1.356 . S
N184 H196 0.984 . S
N184 H197 0.985 . S
N185 C187 1.356 . S
N185 H190 0.984 . S
N185 H191 0.985 . S
C186 C180 1.379 . S
C186 C183 1.363 . S
C186 N184 1.356 . S
C187 C181 1.363 . S
C187 C182 1.379 . S
C187 N185 1.356 . S
N188 C180 1.356 . S
N188 H194 0.984 . S
N188 H195 0.984 . S
N189 C182 1.356 . S
N189 H192 0.984 . S
N189 H193 0.985 . S
H190 N185 0.984 . S
H191 N185 0.985 . S
H192 N189 0.984 . S
H193 N189 0.985 . S
H194 N188 0.984 . S
H195 N188 0.984 . S
H196 N184 0.984 . S
H197 N184 0.985 . S
C198 C199 1.363 . S
C198 C204 1.379 . S
C198 N206 1.356 . S
C199 C198 1.363 . S
C199 C205 1.363 . S
C200 C201 1.363 . S
C200 C205 1.379 . S
C200 N207 1.356 . S
C201 C200 1.363 . S
C201 C204 1.363 . S
N202 C204 1.356 . S
N202 H214 0.984 . S
N202 H215 0.985 . S
N203 C205 1.356 . S
N203 H208 0.984 . S
N203 H209 0.985 . S
C204 C198 1.379 . S
C204 C201 1.363 . S
C204 N202 1.356 . S
C205 C199 1.363 . S
C205 C200 1.379 . S
C205 N203 1.356 . S
N206 C198 1.356 . S
N206 H212 0.984 . S
N206 H213 0.984 . S
N207 C200 1.356 . S
N207 H210 0.984 . S
N207 H211 0.985 . S
H208 N203 0.984 . S
H209 N203 0.985 . S
H210 N207 0.984 . S
H211 N207 0.985 . S
H212 N206 0.984 . S
H213 N206 0.984 . S
H214 N202 0.984 . S
H215 N202 0.985 . S
C216 C217 1.363 . S
C216 C222 1.379 . S
C216 N224 1.356 . S
C217 C216 1.363 . S
C217 C223 1.363 . S
C218 C219 1.363 . S
C218 C223 1.379 . S
C218 N225 1.356 . S
C219 C218 1.363 . S
C219 C222 1.363 . S
N220 C222 1.356 . S
N220 H232 0.984 . S
N220 H233 0.985 . S
N221 C223 1.356 . S
N221 H226 0.984 . S
N221 H227 0.985 . S
C222 C216 1.379 . S
C222 C219 1.363 . S
C222 N220 1.356 . S
C223 C217 1.363 . S
C223 C218 1.379 . S
C223 N221 1.356 . S
N224 C216 1.356 . S
N224 H230 0.984 . S
N224 H231 0.984 . S
N225 C218 1.356 . S
N225 H228 0.984 . S
N225 H229 0.985 . S
H226 N221 0.984 . S
H227 N221 0.985 . S
H228 N225 0.984 . S
H229 N225 0.985 . S
H230 N224 0.984 . S
H231 N224 0.984 . S
H232 N220 0.984 . S
H233 N220 0.985 . S
C234 C235 1.363 1_665 S
C234 C240 1.379 . S
C234 N242 1.356 . S
C235 C234 1.363 1_445 S
C235 C241 1.363 . S
C236 C237 1.363 1_545 S
C236 C241 1.379 . S
C236 N243 1.356 . S
C237 C236 1.363 1_565 S
C237 C240 1.363 1_455 S
N238 C240 1.356 . S
N238 H250 0.984 . S
N238 H251 0.985 . S
N239 C241 1.356 . S
N239 H244 0.984 . S
N239 H245 0.985 . S
C240 C234 1.379 . S
C240 C237 1.363 1_655 S
C240 N238 1.356 . S
C241 C235 1.363 . S
C241 C236 1.379 . S
C241 N239 1.356 . S
N242 C234 1.356 . S
N242 H248 0.984 . S
N242 H249 0.984 . S
N243 C236 1.356 . S
N243 H246 0.984 . S
N243 H247 0.985 . S
H244 N239 0.984 . S
H245 N239 0.985 . S
H246 N243 0.984 . S
H247 N243 0.985 . S
H248 N242 0.984 . S
H249 N242 0.984 . S
H250 N238 0.984 . S
H251 N238 0.985 . S
C252 C253 1.363 1_465 S
C252 C258 1.379 . S
C252 N260 1.356 . S
C253 C252 1.363 1_645 S
C253 C259 1.363 . S
C254 C255 1.363 1_545 S
C254 C259 1.379 . S
C254 N261 1.356 . S
C255 C254 1.363 1_565 S
C255 C258 1.363 1_655 S
N256 C258 1.356 . S
N256 H268 0.984 . S
N256 H269 0.985 . S
N257 C259 1.356 . S
N257 H262 0.984 . S
N257 H263 0.985 . S
C258 C252 1.379 . S
C258 C255 1.363 1_455 S
C258 N256 1.356 . S
C259 C253 1.363 . S
C259 C254 1.379 . S
C259 N257 1.356 . S
N260 C252 1.356 . S
N260 H266 0.984 . S
N260 H267 0.984 . S
N261 C254 1.356 . S
N261 H264 0.984 . S
N261 H265 0.985 . S
H262 N257 0.984 . S
H263 N257 0.985 . S
H264 N261 0.984 . S
H265 N261 0.985 . S
H266 N260 0.984 . S
H267 N260 0.984 . S
H268 N256 0.984 . S
H269 N256 0.985 . S
C270 C271 1.363 . S
C270 C276 1.379 . S
C270 N278 1.356 . S
C271 C270 1.363 . S
C271 C277 1.363 . S
C272 C273 1.363 . S
C272 C277 1.379 . S
C272 N279 1.356 . S
C273 C272 1.363 . S
C273 C276 1.363 . S
N274 C276 1.356 . S
N274 H286 0.984 . S
N274 H287 0.985 . S
N275 C277 1.356 . S
N275 H280 0.984 . S
N275 H281 0.985 . S
C276 C270 1.379 . S
C276 C273 1.363 . S
C276 N274 1.356 . S
C277 C271 1.363 . S
C277 C272 1.379 . S
C277 N275 1.356 . S
N278 C270 1.356 . S
N278 H284 0.984 . S
N278 H285 0.984 . S
N279 C272 1.356 . S
N279 H282 0.984 . S
N279 H283 0.985 . S
H280 N275 0.984 . S
H281 N275 0.985 . S
H282 N279 0.984 . S
H283 N279 0.985 . S
H284 N278 0.984 . S
H285 N278 0.984 . S
H286 N274 0.984 . S
H287 N274 0.985 . S
C288 C289 1.363 . S
C288 C294 1.379 . S
C288 N296 1.356 . S
C289 C288 1.363 . S
C289 C295 1.363 . S
C290 C291 1.363 . S
C290 C295 1.379 . S
C290 N297 1.356 . S
C291 C290 1.363 . S
C291 C294 1.363 . S
N292 C294 1.356 . S
N292 H304 0.984 . S
N292 H305 0.985 . S
N293 C295 1.356 . S
N293 H298 0.984 . S
N293 H299 0.985 . S
C294 C288 1.379 . S
C294 C291 1.363 . S
C294 N292 1.356 . S
C295 C289 1.363 . S
C295 C290 1.379 . S
C295 N293 1.356 . S
N296 C288 1.356 . S
N296 H302 0.984 . S
N296 H303 0.984 . S
N297 C290 1.356 . S
N297 H300 0.984 . S
N297 H301 0.985 . S
H298 N293 0.984 . S
H299 N293 0.985 . S
H300 N297 0.984 . S
H301 N297 0.985 . S
H302 N296 0.984 . S
H303 N296 0.984 . S
H304 N292 0.984 . S
H305 N292 0.985 . S
C93 C83 1.511 . S
C91 C21 1.512 . S
C109 C19 1.449 . S
C111 C78 1.427 . S
C127 C18 1.414 . S
C129 C89 1.411 . S
C145 C20 1.498 . S
C147 C72 1.503 . S
C163 C44 1.512 . S
C165 C61 1.511 . S
C181 C42 1.444 . S
C183 C56 1.427 . S
C201 C67 1.411 . S
C199 C41 1.414 . S
C219 C50 1.503 . S
C217 C43 1.498 . S
C235 C16 1.529 . S
C237 C51 1.526 . S
C253 C17 1.498 . S
C255 C62 1.494 . S
C273 C73 1.526 . S
C271 C39 1.530 . S
C289 C40 1.498 . S
C291 C84 1.494 . S
