# Generated by pormake.
# Topology anh, (6,3)-cn, num edge types: 1
# Building blocks:
#     Node 0, Type 0, BuildingBlock: VOLQOD_clean_sbu_1, # of connection points: 6
#     Node 1, Type 0, BuildingBlock: VOLQOD_clean_sbu_1, # of connection points: 6
#     Node 2, Type 0, BuildingBlock: VOLQOD_clean_sbu_1, # of connection points: 6
#     Node 3, Type 1, BuildingBlock: MIDCAF_clean_linker_0, # of connection points: 3
#     Node 4, Type 1, BuildingBlock: MIDCAF_clean_linker_0, # of connection points: 3
#     Node 5, Type 1, BuildingBlock: MIDCAF_clean_linker_0, # of connection points: 3
#     Node 6, Type 1, BuildingBlock: MIDCAF_clean_linker_0, # of connection points: 3
#     Node 7, Type 1, BuildingBlock: MIDCAF_clean_linker_0, # of connection points: 3
#     Node 8, Type 1, BuildingBlock: MIDCAF_clean_linker_0, # of connection points: 3
#     Edge 9, Type (0, 1), BuildingBlock: OJICUG_clean_linker_0, # of connection points: 2
#     Edge 10, Type (0, 1), BuildingBlock: OJICUG_clean_linker_0, # of connection points: 2
#     Edge 11, Type (0, 1), BuildingBlock: OJICUG_clean_linker_0, # of connection points: 2
#     Edge 12, Type (0, 1), BuildingBlock: OJICUG_clean_linker_0, # of connection points: 2
#     Edge 13, Type (0, 1), BuildingBlock: OJICUG_clean_linker_0, # of connection points: 2
#     Edge 14, Type (0, 1), BuildingBlock: OJICUG_clean_linker_0, # of connection points: 2
#     Edge 15, Type (0, 1), BuildingBlock: OJICUG_clean_linker_0, # of connection points: 2
#     Edge 16, Type (0, 1), BuildingBlock: OJICUG_clean_linker_0, # of connection points: 2
#     Edge 17, Type (0, 1), BuildingBlock: OJICUG_clean_linker_0, # of connection points: 2
#     Edge 18, Type (0, 1), BuildingBlock: OJICUG_clean_linker_0, # of connection points: 2
#     Edge 19, Type (0, 1), BuildingBlock: OJICUG_clean_linker_0, # of connection points: 2
#     Edge 20, Type (0, 1), BuildingBlock: OJICUG_clean_linker_0, # of connection points: 2
#     Edge 21, Type (0, 1), BuildingBlock: OJICUG_clean_linker_0, # of connection points: 2
#     Edge 22, Type (0, 1), BuildingBlock: OJICUG_clean_linker_0, # of connection points: 2
#     Edge 23, Type (0, 1), BuildingBlock: OJICUG_clean_linker_0, # of connection points: 2
#     Edge 24, Type (0, 1), BuildingBlock: OJICUG_clean_linker_0, # of connection points: 2
#     Edge 25, Type (0, 1), BuildingBlock: OJICUG_clean_linker_0, # of connection points: 2
#     Edge 26, Type (0, 1), BuildingBlock: OJICUG_clean_linker_0, # of connection points: 2
# Relax obj value: 0.167
# Max RMSD: 0.230
# Mean RMSD: 0.115
data_MOF--net-anh--node1-VOLQOD_clean_sbu_1--node2-MIDCAF_clean_linker_0--edge1-OJICUG_clean_linker_0
_symmetry_space_group_name_H-M    P1
_symmetry_Int_Tables_number       1
_symmetry_cell_setting            triclinic
loop_
_symmetry_equiv_pos_as_xyz
'x, y, z'
_cell_length_a     27.552426
_cell_length_b     27.408806
_cell_length_c     58.286223
_cell_angle_alpha  89.677172
_cell_angle_beta   89.67287
_cell_angle_gamma 120.5213
loop_
_atom_site_label
_atom_site_type_symbol
_atom_site_fract_x
_atom_site_fract_y
_atom_site_fract_z
_atom_type_partial_charge
O0 O 0.97412 0.53725 0.21401 0.0
Zn1 Zn -0.01823 0.56194 0.18113 0.0
O2 O -0.00362 0.51297 0.16144 0.0
Zn3 Zn 0.93665 0.4761 0.13919 0.0
Zn4 Zn -0.00099 0.4553 0.18028 0.0
Zn5 Zn 0.06754 0.55744 0.14495 0.0
O6 O 0.96553 0.49274 0.10681 0.0
O7 O 0.05686 0.55487 0.1107 0.0
O8 O 0.91105 0.56242 0.17213 0.0
O9 O 0.88555 0.50674 0.14159 0.0
O10 O 0.88833 0.3921 0.14531 0.0
O11 O 0.93149 0.3791 0.17469 0.0
O12 O 0.06802 0.45076 0.17332 0.0
O13 O 0.04796 0.64159 0.18017 0.0
O14 O 0.11832 0.52652 0.15105 0.0
O15 O 0.10705 0.63852 0.15487 0.0
C16 C -0.01635 0.50239 0.22468 0.0
C17 C 0.01393 0.52628 0.09819 0.0
C18 C 0.89134 0.35999 0.16041 0.0
C19 C 0.87878 0.53888 0.15516 0.0
C20 C 0.11257 0.48343 0.1619 0.0
C21 C 0.0944 0.66561 0.16903 0.0
O22 O -0.00324 0.47023 0.21399 0.0
O23 O 0.44936 0.00464 0.44819 0.0
Zn24 Zn 0.42794 -0.00165 0.48154 0.0
O25 O 0.47963 0.98592 0.50029 0.0
Zn26 Zn 0.51613 0.04599 0.52253 0.0
Zn27 Zn 0.53702 0.98513 0.48073 0.0
Zn28 Zn 0.43815 0.91449 0.51692 0.0
O29 O 0.50434 0.01676 0.55483 0.0
O30 O 0.44192 0.92533 0.55118 0.0
O31 O 0.42775 0.06943 0.49055 0.0
O32 O 0.48298 0.09544 0.52116 0.0
O33 O 0.59874 0.09642 0.51561 0.0
O34 O 0.61239 0.05411 0.48601 0.0
O35 O 0.54426 0.91691 0.48722 0.0
O36 O 0.34863 0.93182 0.4844 0.0
O37 O 0.47064 0.86536 0.51023 0.0
O38 O 0.35723 0.87275 0.50794 0.0
C39 C 0.48511 -0.00247 0.43701 0.0
C40 C 0.47162 0.9682 0.56367 0.0
C41 C 0.63084 0.09436 0.50034 0.0
C42 C 0.45054 0.10166 0.50762 0.0
C43 C 0.51324 0.87208 0.49888 0.0
C44 C 0.32728 0.88476 0.49522 0.0
O45 O 0.51976 0.9872 0.44722 0.0
O46 O 0.46584 0.47599 0.77625 0.0
Zn47 Zn 0.43414 0.44496 0.80759 0.0
O48 O 0.48845 0.48972 0.83141 0.0
Zn49 Zn 0.45361 0.51598 0.85325 0.0
Zn50 Zn 0.55387 0.55493 0.81732 0.0
Zn51 Zn 0.51251 0.44391 0.84791 0.0
O52 O 0.45594 0.49208 0.88559 0.0
O53 O 0.49716 0.44083 0.88188 0.0
O54 O 0.35958 0.44221 0.81174 0.0
O55 O 0.37298 0.48284 0.84588 0.0
O56 O 0.48687 0.60034 0.85093 0.0
O57 O 0.55551 0.62679 0.82516 0.0
O58 O 0.62612 0.56025 0.82723 0.0
O59 O 0.41877 0.3649 0.80826 0.0
O60 O 0.59561 0.4764 0.84398 0.0
O61 O 0.47236 0.3642 0.83649 0.0
C62 C 0.51288 0.51661 0.76898 0.0
C63 C 0.47413 0.46175 0.89423 0.0
C64 C 0.52651 0.63855 0.83867 0.0
C65 C 0.34173 0.45706 0.82898 0.0
C66 C 0.63552 0.52379 0.83656 0.0
C67 C 0.43665 0.33906 0.82069 0.0
O68 O 0.55098 0.54953 0.78281 0.0
C69 C 0.28676 0.90779 0.21561 0.0
C70 C 0.28591 0.87586 0.19661 0.0
C71 C 0.33769 0.88693 0.18705 0.0
C72 C 0.38859 0.92675 0.19687 0.0
H73 H 0.55682 0.06299 0.18196 0.0
H74 H 0.64394 0.12614 0.1612 0.0
H75 H 0.73238 0.17952 0.2255 0.0
H76 H 0.64621 0.11595 0.24618 0.0
H77 H 0.58145 0.0706 0.29276 0.0
H78 H 0.58059 0.06595 0.33453 0.0
H79 H 0.3989 0.96428 0.33454 0.0
H80 H 0.39939 0.96954 0.29289 0.0
H81 H 0.33691 0.96875 0.24096 0.0
H82 H 0.24806 0.90186 0.22309 0.0
H83 H 0.33922 0.86284 0.17271 0.0
H84 H 0.42757 0.93269 0.18964 0.0
N85 N 0.49137 0.01998 0.21728 0.0
N86 N 0.53995 0.05105 0.25199 0.0
N87 N 0.44184 -0.00811 0.25229 0.0
C88 C 0.54062 0.05065 0.22866 0.0
C89 C 0.49076 0.02164 0.26394 0.0
C90 C 0.4419 -0.00917 0.22902 0.0
C91 C 0.59425 0.08479 0.2158 0.0
C92 C 0.59501 0.08763 0.19167 0.0
C93 C 0.6449 0.1239 0.17974 0.0
C94 C 0.69508 0.15796 0.19167 0.0
C95 C 0.69472 0.15328 0.21571 0.0
C96 C 0.64499 0.11712 0.22762 0.0
C97 C 0.49048 0.02044 0.28938 0.0
C98 C 0.54124 0.04744 0.30163 0.0
C99 C 0.54084 0.04449 0.32558 0.0
C100 C 0.4897 0.01466 0.33783 0.0
C101 C 0.43898 0.98814 0.32562 0.0
C102 C 0.43934 -0.00904 0.30169 0.0
C103 C 0.38887 0.95534 0.21678 0.0
C104 C 0.33767 0.94646 0.2258 0.0
C105 C 0.50156 0.32312 0.55832 0.0
C106 C 0.48081 0.31196 0.53581 0.0
C107 C 0.4831 0.35618 0.52264 0.0
C108 C 0.50524 0.41029 0.5319 0.0
H109 H 0.53206 0.56762 0.51854 0.0
H110 H 0.52615 0.64183 0.49781 0.0
H111 H 0.61815 0.75996 0.55162 0.0
H112 H 0.62371 0.68568 0.57271 0.0
H113 H 0.58987 0.62402 0.62511 0.0
H114 H 0.57953 0.62361 0.66687 0.0
H115 H 0.54465 0.45136 0.66998 0.0
H116 H 0.55488 0.4513 0.62864 0.0
H117 H 0.53884 0.38362 0.58499 0.0
H118 H 0.50207 0.29055 0.56874 0.0
H119 H 0.46744 0.34889 0.50525 0.0
H120 H 0.50595 0.44339 0.52141 0.0
N121 N 0.55588 0.52238 0.55188 0.0
N122 N 0.5799 0.57889 0.58477 0.0
N123 N 0.5542 0.48352 0.58789 0.0
C124 C 0.57292 0.57341 0.56163 0.0
C125 C 0.57071 0.53396 0.59802 0.0
C126 C 0.54678 0.47734 0.5649 0.0
C127 C 0.5776 0.62054 0.54749 0.0
C128 C 0.55211 0.60964 0.5258 0.0
C129 C 0.54868 0.65201 0.51388 0.0
C130 C 0.57155 0.70624 0.52321 0.0
C131 C 0.60059 0.71843 0.54404 0.0
C132 C 0.6033 0.6758 0.55617 0.0
C133 C 0.57239 0.53742 0.62341 0.0
C134 C 0.58079 0.58633 0.63472 0.0
C135 C 0.57498 0.58621 0.65862 0.0
C136 C 0.56035 0.53712 0.67154 0.0
C137 C 0.55483 0.48939 0.66037 0.0
C138 C 0.56094 0.48956 0.63663 0.0
C139 C 0.52536 0.42105 0.55453 0.0
C140 C 0.5233 0.37683 0.56759 0.0
C141 C 0.88009 0.60108 0.87848 0.0
C142 C 0.85843 0.5716 0.85797 0.0
C143 C 0.88593 0.54671 0.84706 0.0
C144 C 0.93274 0.54876 0.85712 0.0
H145 H 0.06953 0.52795 0.84482 0.0
H146 H 0.12304 0.49176 0.82503 0.0
H147 H 0.19081 0.47838 0.88987 0.0
H148 H 0.13736 0.51355 0.90963 0.0
H149 H 0.12457 0.60113 0.95478 0.0
H150 H 0.12192 0.59718 0.99662 0.0
H151 H 0.93995 0.51608 0.99506 0.0
H152 H 0.94386 0.52497 0.95365 0.0
H153 H 0.9407 0.62334 0.90509 0.0
H154 H 0.85926 0.62026 0.88727 0.0
H155 H 0.86992 0.52393 0.83116 0.0
H156 H 0.95173 0.52726 0.84874 0.0
N157 N 0.02876 0.55374 0.87956 0.0
N158 N 0.0689 0.54959 0.91434 0.0
N159 N -0.00155 0.57352 0.91408 0.0
C160 C 0.06574 0.54413 0.89115 0.0
C161 C 0.03534 0.56421 0.92587 0.0
C162 C -0.00457 0.56903 0.89089 0.0
C163 C 0.09913 0.52374 0.87886 0.0
C164 C 0.09573 0.51712 0.85487 0.0
C165 C 0.12623 0.4963 0.8435 0.0
C166 C 0.16034 0.48136 0.85592 0.0
C167 C 0.16371 0.48808 0.87986 0.0
C168 C 0.13353 0.50899 0.89118 0.0
C169 C 0.0345 0.56385 0.95112 0.0
C170 C 0.08427 0.58324 0.96358 0.0
C171 C 0.08251 0.58032 0.98757 0.0
C172 C 0.03066 0.55619 -0.00046 0.0
C173 C -0.01906 0.53649 0.98678 0.0
C174 C -0.01702 0.54115 0.96293 0.0
C175 C 0.95211 0.57487 0.87848 0.0
C176 C 0.92636 0.6024 0.88874 0.0
C177 C 0.10718 0.70127 0.44266 0.0
C178 C 0.11331 0.70204 0.46659 0.0
C179 C 0.07684 0.65317 0.47944 0.0
C180 C 0.03762 0.60355 0.46845 0.0
H181 H 0.92302 0.43325 0.47984 0.0
H182 H 0.86059 0.3454 0.50057 0.0
H183 H 0.81175 0.25569 0.43633 0.0
H184 H 0.8746 0.34236 0.41575 0.0
H185 H 0.92068 0.40538 0.36928 0.0
H186 H 0.92314 0.40535 0.32746 0.0
H187 H 0.02254 0.5881 0.32673 0.0
H188 H 0.01964 0.58853 0.36839 0.0
H189 H 0.0661 0.65251 0.41315 0.0
H190 H 0.13495 0.73784 0.43217 0.0
H191 H 0.07992 0.6527 0.49795 0.0
H192 H 0.01164 0.56605 0.47879 0.0
N193 N 0.96784 0.49863 0.4443 0.0
N194 N 0.93837 0.44854 0.40981 0.0
N195 N -0.00148 0.54682 0.40907 0.0
C196 C 0.93766 0.44874 0.43312 0.0
C197 C 0.96866 0.49742 0.39766 0.0
C198 C -0.00163 0.54791 0.43234 0.0
C199 C 0.90341 0.3951 0.44607 0.0
C200 C 0.89949 0.39462 0.47016 0.0
C201 C 0.86367 0.34432 0.48207 0.0
C202 C 0.83117 0.29354 0.47013 0.0
C203 C 0.83685 0.29377 0.44614 0.0
C204 C 0.87255 0.34383 0.43428 0.0
C205 C 0.96986 0.49697 0.37226 0.0
C206 C 0.94298 0.44561 0.36024 0.0
C207 C 0.94465 0.4455 0.33627 0.0
C208 C 0.97294 0.49671 0.32385 0.0
C209 C -0.00021 0.54798 0.33584 0.0
C210 C -0.00166 0.54814 0.35976 0.0
C211 C 0.03405 0.60191 0.44438 0.0
C212 C 0.06795 0.6519 0.4317 0.0
C213 C 0.36528 0.08572 0.77941 0.0
C214 C 0.39819 0.11818 0.79793 0.0
C215 C 0.43399 0.10251 0.80867 0.0
C216 C 0.43894 0.05756 0.80037 0.0
H217 H 0.4565 0.91282 0.81847 0.0
H218 H 0.48702 0.85665 0.84011 0.0
H219 H 0.53779 0.81319 0.77682 0.0
H220 H 0.50831 0.86939 0.75533 0.0
H221 H 0.45585 0.88019 0.70865 0.0
H222 H 0.4636 0.88243 0.66687 0.0
H223 H 0.41907 0.01229 0.66383 0.0
H224 H 0.41145 0.01054 0.70545 0.0
H225 H 0.34708 0.01892 0.75592 0.0
H226 H 0.3361 0.0954 0.77109 0.0
H227 H 0.4607 0.12676 0.82274 0.0
H228 H 0.46871 0.04824 0.80841 0.0
N229 N 0.44186 0.95967 0.78222 0.0
N230 N 0.45349 0.92034 0.74848 0.0
N231 N 0.41779 0.9816 0.74666 0.0
C232 C 0.4575 0.92567 0.77166 0.0
C233 C 0.43368 0.94814 0.73585 0.0
C234 C 0.42165 0.98746 0.76979 0.0
C235 C 0.47937 0.89512 0.78512 0.0
C236 C 0.47486 0.89185 0.80921 0.0
C237 C 0.49228 0.8597 0.82163 0.0
C238 C 0.515 0.8307 0.8102 0.0
C239 C 0.52139 0.8358 0.78621 0.0
C240 C 0.50375 0.86753 0.77383 0.0
C241 C 0.43348 0.94553 0.71047 0.0
C242 C 0.44726 0.90894 0.6991 0.0
C243 C 0.45149 0.90998 0.67517 0.0
C244 C 0.44249 0.94792 0.66218 0.0
C245 C 0.42707 0.98323 0.67347 0.0
C246 C 0.4224 0.98192 0.69733 0.0
C247 C 0.40913 0.02809 0.78086 0.0
C248 C 0.37122 0.0416 0.7708 0.0
C249 C 0.6544 0.47675 0.1054 0.0
C250 C 0.66645 0.50039 0.12745 0.0
C251 C 0.62316 0.49997 0.14043 0.0
C252 C 0.56921 0.47745 0.1313 0.0
H253 H 0.41852 0.46846 0.14238 0.0
H254 H 0.34613 0.47885 0.16229 0.0
H255 H 0.22409 0.37319 0.11195 0.0
H256 H 0.29642 0.3632 0.09173 0.0
H257 H 0.3906 0.44779 0.03836 0.0
H258 H 0.3956 0.45677 0.99691 0.0
H259 H 0.49391 0.37392 0.99442 0.0
H260 H 0.49243 0.36949 0.03619 0.0
H261 H 0.59328 0.43709 0.07916 0.0
H262 H 0.68636 0.47482 0.09521 0.0
H263 H 0.63117 0.5178 0.15748 0.0
H264 H 0.53697 0.47867 0.14157 0.0
N265 N 0.4586 0.43049 0.11139 0.0
N266 N 0.40242 0.40711 0.07859 0.0
N267 N 0.49493 0.42493 0.07571 0.0
C268 C 0.40856 0.41598 0.10157 0.0
C269 C 0.44541 0.41118 0.06561 0.0
C270 C 0.50189 0.43478 0.0986 0.0
C271 C 0.36325 0.41557 0.11532 0.0
C272 C 0.37603 0.44653 0.13577 0.0
C273 C 0.33477 0.45258 0.14718 0.0
C274 C 0.27988 0.42685 0.13858 0.0
C275 C 0.26614 0.39301 0.11897 0.0
C276 C 0.30761 0.38773 0.10733 0.0
C277 C 0.4413 0.40815 0.04042 0.0
C278 C 0.41265 0.4309 0.02888 0.0
C279 C 0.41538 0.43574 0.005 0.0
C280 C 0.44556 0.41647 0.99201 0.0
C281 C 0.47167 0.39085 0.00369 0.0
C282 C 0.4703 0.38759 0.02764 0.0
C283 C 0.55763 0.45499 0.10901 0.0
C284 C 0.60076 0.45451 0.09627 0.0
C285 C 0.14315 0.41206 0.15961 0.0
C286 C 0.15695 0.46897 0.15951 0.0
H287 H 0.17178 0.35388 0.15274 0.0
C288 C 0.2127 0.51175 0.15488 0.0
H289 H 0.10034 0.37829 0.16302 0.0
C290 C 0.25348 0.49783 0.14945 0.0
C291 C 0.23891 0.44088 0.14815 0.0
H292 H 0.2244 0.55594 0.15479 0.0
H293 H 0.2957 0.5315 0.14505 0.0
C294 C 0.18376 0.39807 0.15368 0.0
C295 C 0.72639 0.13923 0.48212 0.0
C296 C 0.68832 0.14329 0.49699 0.0
H297 H 0.80283 0.18369 0.46255 0.0
C298 C 0.7028 0.1964 0.50601 0.0
H299 H 0.71686 0.09875 0.47518 0.0
C300 C 0.75168 0.24517 0.4985 0.0
C301 C 0.78718 0.24163 0.48202 0.0
H302 H 0.67442 0.20093 0.51755 0.0
H303 H 0.75929 0.28587 0.50437 0.0
C304 C 0.7755 0.1879 0.4748 0.0
C305 C 0.57569 0.7377 0.8233 0.0
C306 C 0.53239 0.69516 0.83689 0.0
H307 H 0.60492 0.81525 0.80463 0.0
C308 C 0.4895 0.70387 0.84534 0.0
H309 H 0.60988 0.73278 0.81682 0.0
C310 C 0.48644 0.75093 0.83817 0.0
C311 C 0.52641 0.79021 0.82254 0.0
H312 H 0.45565 0.67212 0.85597 0.0
H313 H 0.45021 0.75388 0.84336 0.0
C314 C 0.57276 0.78483 0.81623 0.0
C315 C 0.78441 0.52129 0.1666 0.0
C316 C 0.83006 0.54537 0.15116 0.0
H317 H 0.69567 0.48716 0.171 0.0
C318 C 0.82362 0.56304 0.12939 0.0
H319 H 0.78857 0.50653 0.18335 0.0
C320 C 0.77103 0.55268 0.12239 0.0
C321 C 0.72372 0.52313 0.13687 0.0
H322 H 0.85848 0.58144 0.11723 0.0
H323 H 0.76677 0.56469 0.10511 0.0
C324 C 0.73133 0.51003 0.15946 0.0
C325 C 0.23421 0.85101 0.47626 0.0
C326 C 0.26795 0.84076 0.49122 0.0
H327 H 0.1576 0.8153 0.45726 0.0
C328 C 0.24628 0.78616 0.50062 0.0
H329 H 0.24931 0.89277 0.46896 0.0
C330 C 0.19409 0.74178 0.49376 0.0
C331 C 0.1622 0.75107 0.47745 0.0
H332 H 0.27091 0.7768 0.51234 0.0
H333 H 0.18065 0.69955 0.50012 0.0
C334 C 0.18175 0.80659 0.46949 0.0
C335 C 0.42065 0.24442 0.83276 0.0
C336 C 0.41896 0.27974 0.81564 0.0
H337 H 0.41243 0.16447 0.84091 0.0
C338 C 0.40448 0.25934 0.79323 0.0
H339 H 0.43095 0.25892 0.85027 0.0
C340 C 0.3955 0.20594 0.78768 0.0
C341 C 0.39963 0.17126 0.80456 0.0
H342 H 0.40317 0.28584 0.77967 0.0
H343 H 0.38824 0.19333 0.76988 0.0
C344 C 0.4104 0.19046 0.82733 0.0
C345 C 0.48697 0.77169 0.50437 0.0
C346 C 0.52904 0.82852 0.50108 0.0
H347 H 0.46804 0.68814 0.5135 0.0
C348 C 0.58596 0.84397 0.50259 0.0
H349 H 0.44281 0.75883 0.50326 0.0
C350 C 0.60038 0.80369 0.5089 0.0
C351 C 0.55806 0.74732 0.51313 0.0
H352 H 0.6191 0.88771 0.50027 0.0
H353 H 0.64434 0.8168 0.51118 0.0
C354 C 0.50139 0.7313 0.51011 0.0
C355 C 0.738 0.59337 0.84189 0.0
C356 C 0.69395 0.53704 0.83963 0.0
H357 H 0.82532 0.64864 0.8497 0.0
C358 C 0.70559 0.49293 0.84156 0.0
H359 H 0.73004 0.62813 0.84052 0.0
C360 C 0.75994 0.50473 0.84635 0.0
C361 C 0.80342 0.56077 0.84968 0.0
H362 H 0.67245 0.44916 0.83975 0.0
H363 H 0.76744 0.46981 0.84848 0.0
C364 C 0.79229 0.60512 0.84716 0.0
C365 C 0.1409 0.74373 0.19714 0.0
C366 C 0.13762 0.72411 0.17471 0.0
H367 H 0.19071 0.80564 0.22187 0.0
C368 C 0.17973 0.75823 0.15869 0.0
H369 H 0.10916 0.71806 0.20989 0.0
C370 C 0.22599 0.80973 0.16534 0.0
C371 C 0.23189 0.82731 0.18833 0.0
H372 H 0.17776 0.74429 0.14119 0.0
H373 H 0.25804 0.83464 0.15261 0.0
C374 C 0.18778 0.7944 0.20396 0.0
C375 C 0.4225 0.15461 0.53309 0.0
C376 C 0.44279 0.14982 0.51166 0.0
H377 H 0.41613 0.20957 0.55714 0.0
C378 C 0.46716 0.19637 0.49656 0.0
H379 H 0.40375 0.119 0.54496 0.0
C380 C 0.47602 0.24885 0.50376 0.0
C381 C 0.46012 0.25495 0.52607 0.0
H382 H 0.48383 0.19345 0.48007 0.0
H383 H 0.49921 0.2853 0.49255 0.0
C384 C 0.43031 0.20656 0.54011 0.0
C385 C 0.27334 0.48555 0.81777 0.0
C386 C 0.28473 0.44793 0.82965 0.0
H387 H 0.22424 0.52597 0.81696 0.0
C388 C 0.24812 0.41355 0.84717 0.0
H389 H 0.302 0.51324 0.80451 0.0
C390 C 0.20362 0.42048 0.85424 0.0
C391 C 0.19595 0.46279 0.84419 0.0
H392 H 0.25682 0.3848 0.85669 0.0
H393 H 0.17796 0.3958 0.86875 0.0
C394 C 0.22906 0.49297 0.825 0.0
C395 C 0.84809 0.26457 0.17916 0.0
C396 C 0.8433 0.3018 0.16392 0.0
H397 H 0.8049 0.18872 0.1994 0.0
C398 C 0.79015 0.28608 0.15492 0.0
H399 H 0.88857 0.27503 0.18613 0.0
C400 C 0.74208 0.23691 0.16277 0.0
C401 C 0.74636 0.20237 0.17961 0.0
H402 H 0.78501 0.31376 0.14312 0.0
H403 H 0.70132 0.22834 0.15686 0.0
C404 C 0.80012 0.21526 0.18686 0.0
C405 C 0.0641 0.53613 0.06111 0.0
C406 C 0.01933 0.53477 0.0732 0.0
H407 H 0.10151 0.54112 0.02837 0.0
C408 C 0.97951 0.54222 0.0613 0.0
H409 H 0.09523 0.53034 0.07004 0.0
C410 C -0.01569 0.55102 0.03762 0.0
C411 C 0.02794 0.55045 0.0251 0.0
H412 H 0.94518 0.54234 0.07042 0.0
H413 H 0.95374 0.55855 0.02924 0.0
C414 C 0.06788 0.54294 0.03724 0.0
C415 C 0.52667 -0.00364 0.39869 0.0
C416 C 0.48654 0.00191 0.41163 0.0
H417 H 0.55889 -0.00436 0.36525 0.0
C418 C 0.44784 0.01216 0.40009 0.0
H419 H 0.5571 0.98845 0.40701 0.0
C420 C 0.44909 0.01653 0.3762 0.0
C421 C 0.48909 0.01085 0.36326 0.0
H422 H 0.41647 0.01688 0.40949 0.0
H423 H 0.41903 0.02496 0.36786 0.0
C424 C 0.52797 0.00086 0.37476 0.0
C425 C 0.5727 0.57168 0.73496 0.0
C426 C 0.52415 0.52395 0.74395 0.0
H427 H 0.62219 0.61349 0.70486 0.0
C428 C 0.48699 0.48201 0.72882 0.0
H429 H 0.60209 0.60485 0.74615 0.0
C430 C 0.49873 0.48687 0.70535 0.0
C431 C 0.54766 0.53395 0.6964 0.0
H432 H 0.44916 0.44475 0.7351 0.0
H433 H 0.46941 0.45363 0.69415 0.0
C434 C 0.58416 0.57679 0.71135 0.0
C435 C 0.48989 0.01086 0.60272 0.0
C436 C 0.46611 0.96234 0.58894 0.0
H437 H 0.50102 0.04413 0.63662 0.0
C438 C 0.4355 0.90867 0.59952 0.0
H439 H 0.51371 0.05286 0.59516 0.0
C440 C 0.42835 0.90376 0.62336 0.0
C441 C 0.45113 0.95242 0.637 0.0
H442 H 0.41672 0.87046 0.58939 0.0
H443 H 0.40403 0.862 0.63108 0.0
C444 C 0.48229 0.00594 0.62646 0.0
C445 C 0.41738 0.43966 0.93021 0.0
C446 C 0.46659 0.44905 0.919 0.0
H447 H 0.37042 0.41858 0.96153 0.0
C448 C 0.50804 0.44573 0.93156 0.0
H449 H 0.38436 0.44106 0.92076 0.0
C450 C 0.5012 0.43497 0.95518 0.0
C451 C 0.45187 0.42553 0.96662 0.0
H452 H 0.54647 0.45305 0.92324 0.0
H453 H 0.53536 0.43547 0.96444 0.0
C454 C 0.40967 0.42712 0.95367 0.0
C455 C 0.96858 0.53738 0.26207 0.0
C456 C 0.97989 0.49986 0.25004 0.0
H457 H 0.95689 0.56528 0.29473 0.0
C458 C -0.01212 0.46044 0.2625 0.0
H459 H 0.96199 0.56817 0.25305 0.0
C460 C -0.01496 0.45894 0.28646 0.0
C461 C 0.97441 0.49696 0.29843 0.0
H462 H -0.00337 0.43091 0.25377 0.0
H463 H -0.00778 0.42873 0.29564 0.0
C464 C 0.96594 0.53598 0.28598 0.0
loop_
_geom_bond_atom_site_label_1
_geom_bond_atom_site_label_2
_geom_bond_distance
_geom_bond_site_symmetry_2
_ccdc_geom_bond_type
O0 Zn1 1.953 . S
O0 C16 1.225 1_655 S
Zn1 O0 1.953 . S
Zn1 O2 1.949 1_655 S
Zn1 O8 1.919 . S
Zn1 O13 1.924 1_655 S
O2 Zn1 1.949 1_455 S
O2 Zn3 1.923 1_455 S
O2 Zn4 1.950 . S
O2 Zn5 1.945 . S
Zn3 O2 1.923 1_655 S
Zn3 O6 1.933 . S
Zn3 O9 1.941 . S
Zn3 O10 1.965 . S
Zn4 O2 1.950 . S
Zn4 O11 1.938 1_455 S
Zn4 O12 1.906 . S
Zn4 O22 1.953 . S
Zn5 O2 1.945 . S
Zn5 O7 1.932 . S
Zn5 O14 1.977 . S
Zn5 O15 1.910 . S
O6 Zn3 1.933 . S
O6 C17 1.226 1_655 S
O7 Zn5 1.932 . S
O7 C17 1.307 . S
O8 Zn1 1.919 . S
O8 C19 1.253 . S
O9 Zn3 1.941 . S
O9 C19 1.283 . S
O10 Zn3 1.965 . S
O10 C18 1.303 . S
O11 Zn4 1.938 1_655 S
O11 C18 1.247 . S
O12 Zn4 1.906 . S
O12 C20 1.304 . S
O13 Zn1 1.924 1_455 S
O13 C21 1.311 . S
O14 Zn5 1.977 . S
O14 C20 1.272 . S
O15 Zn5 1.910 . S
O15 C21 1.231 . S
C16 O0 1.225 1_455 S
C16 O22 1.298 . S
C17 O6 1.226 1_455 S
C17 O7 1.307 . S
C18 O10 1.303 . S
C18 O11 1.247 . S
C19 O8 1.253 . S
C19 O9 1.283 . S
C20 O12 1.304 . S
C20 O14 1.272 . S
C21 O13 1.311 . S
C21 O15 1.231 . S
O22 Zn4 1.953 . S
O22 C16 1.298 . S
O23 Zn24 1.953 . S
O23 C39 1.225 . S
Zn24 O23 1.953 . S
Zn24 O25 1.949 . S
Zn24 O31 1.919 . S
Zn24 O36 1.924 1_545 S
O25 Zn24 1.949 . S
O25 Zn26 1.923 . S
O25 Zn27 1.950 1_545 S
O25 Zn28 1.945 1_545 S
Zn26 O25 1.923 . S
Zn26 O29 1.933 . S
Zn26 O32 1.941 . S
Zn26 O33 1.965 . S
Zn27 O25 1.950 1_565 S
Zn27 O34 1.938 1_565 S
Zn27 O35 1.906 . S
Zn27 O45 1.953 . S
Zn28 O25 1.945 1_565 S
Zn28 O30 1.932 . S
Zn28 O37 1.977 . S
Zn28 O38 1.910 . S
O29 Zn26 1.933 . S
O29 C40 1.226 . S
O30 Zn28 1.932 . S
O30 C40 1.307 1_565 S
O31 Zn24 1.919 . S
O31 C42 1.253 . S
O32 Zn26 1.941 . S
O32 C42 1.283 . S
O33 Zn26 1.965 . S
O33 C41 1.303 . S
O34 Zn27 1.938 1_545 S
O34 C41 1.247 . S
O35 Zn27 1.906 . S
O35 C43 1.304 . S
O36 Zn24 1.924 1_565 S
O36 C44 1.311 . S
O37 Zn28 1.977 . S
O37 C43 1.272 . S
O38 Zn28 1.910 . S
O38 C44 1.231 . S
C39 O23 1.225 . S
C39 O45 1.298 1_545 S
C40 O29 1.226 . S
C40 O30 1.307 1_545 S
C41 O33 1.303 . S
C41 O34 1.247 . S
C42 O31 1.253 . S
C42 O32 1.283 . S
C43 O35 1.304 . S
C43 O37 1.272 . S
C44 O36 1.311 . S
C44 O38 1.231 . S
O45 Zn27 1.953 . S
O45 C39 1.298 1_565 S
O46 Zn47 1.953 . S
O46 C62 1.225 . S
Zn47 O46 1.953 . S
Zn47 O48 1.949 . S
Zn47 O54 1.919 . S
Zn47 O59 1.924 . S
O48 Zn47 1.949 . S
O48 Zn49 1.923 . S
O48 Zn50 1.950 . S
O48 Zn51 1.945 . S
Zn49 O48 1.923 . S
Zn49 O52 1.933 . S
Zn49 O55 1.941 . S
Zn49 O56 1.965 . S
Zn50 O48 1.950 . S
Zn50 O57 1.938 . S
Zn50 O58 1.906 . S
Zn50 O68 1.953 . S
Zn51 O48 1.945 . S
Zn51 O53 1.932 . S
Zn51 O60 1.977 . S
Zn51 O61 1.910 . S
O52 Zn49 1.933 . S
O52 C63 1.226 . S
O53 Zn51 1.932 . S
O53 C63 1.307 . S
O54 Zn47 1.919 . S
O54 C65 1.253 . S
O55 Zn49 1.941 . S
O55 C65 1.283 . S
O56 Zn49 1.965 . S
O56 C64 1.303 . S
O57 Zn50 1.938 . S
O57 C64 1.247 . S
O58 Zn50 1.906 . S
O58 C66 1.304 . S
O59 Zn47 1.924 . S
O59 C67 1.311 . S
O60 Zn51 1.977 . S
O60 C66 1.272 . S
O61 Zn51 1.910 . S
O61 C67 1.231 . S
C62 O46 1.225 . S
C62 O68 1.298 . S
C63 O52 1.226 . S
C63 O53 1.307 . S
C64 O56 1.303 . S
C64 O57 1.247 . S
C65 O54 1.253 . S
C65 O55 1.283 . S
C66 O58 1.304 . S
C66 O60 1.272 . S
C67 O59 1.311 . S
C67 O61 1.231 . S
O68 Zn50 1.953 . S
O68 C62 1.298 . S
C69 C70 1.384 . S
C69 H82 0.947 . S
C69 C104 1.382 . S
C70 C69 1.384 . S
C70 C71 1.378 . S
C71 C70 1.378 . S
C71 C72 1.378 . S
C71 H83 0.952 . S
C72 C71 1.378 . S
C72 H84 0.950 . S
C72 C103 1.383 . S
H73 C92 0.947 . S
H74 C93 0.946 . S
H75 C95 0.953 . S
H76 C96 0.945 . S
H77 C98 0.952 . S
H78 C99 0.949 . S
H79 C101 0.950 . S
H80 C102 0.948 . S
H81 C104 0.951 . S
H82 C69 0.947 . S
H83 C71 0.952 . S
H84 C72 0.950 . S
N85 C88 1.382 . S
N85 C90 1.363 1_545 S
N86 C88 1.371 . S
N86 C89 1.372 . S
N87 C89 1.361 1_565 S
N87 C90 1.377 . S
C88 N85 1.382 . S
C88 N86 1.371 . S
C88 C91 1.480 . S
C89 N86 1.372 . S
C89 N87 1.361 1_545 S
C89 C97 1.457 . S
C90 N85 1.363 1_565 S
C90 N87 1.377 . S
C90 C103 1.479 . S
C91 C88 1.480 . S
C91 C92 1.383 . S
C91 C96 1.385 . S
C92 H73 0.947 . S
C92 C91 1.383 . S
C92 C93 1.388 . S
C93 H74 0.946 . S
C93 C92 1.388 . S
C93 C94 1.384 . S
C94 C93 1.384 . S
C94 C95 1.377 . S
C95 H75 0.953 . S
C95 C94 1.377 . S
C95 C96 1.369 . S
C96 H76 0.945 . S
C96 C91 1.385 . S
C96 C95 1.369 . S
C97 C89 1.457 . S
C97 C98 1.372 . S
C97 C102 1.364 1_545 S
C98 H77 0.952 . S
C98 C97 1.372 . S
C98 C99 1.389 . S
C99 H78 0.949 . S
C99 C98 1.389 . S
C99 C100 1.387 . S
C100 C99 1.387 . S
C100 C101 1.372 1_545 S
C101 H79 0.950 . S
C101 C100 1.372 1_565 S
C101 C102 1.379 . S
C102 H80 0.948 . S
C102 C97 1.364 1_565 S
C102 C101 1.379 . S
C103 C72 1.383 . S
C103 C90 1.479 . S
C103 C104 1.398 . S
C104 C69 1.382 . S
C104 H81 0.951 . S
C104 C103 1.398 . S
C105 C106 1.384 . S
C105 H118 0.947 . S
C105 C140 1.382 . S
C106 C105 1.384 . S
C106 C107 1.378 . S
C107 C106 1.378 . S
C107 C108 1.378 . S
C107 H119 0.952 . S
C108 C107 1.378 . S
C108 H120 0.950 . S
C108 C139 1.383 . S
H109 C128 0.947 . S
H110 C129 0.946 . S
H111 C131 0.953 . S
H112 C132 0.945 . S
H113 C134 0.952 . S
H114 C135 0.949 . S
H115 C137 0.950 . S
H116 C138 0.948 . S
H117 C140 0.951 . S
H118 C105 0.947 . S
H119 C107 0.952 . S
H120 C108 0.950 . S
N121 C124 1.382 . S
N121 C126 1.363 . S
N122 C124 1.371 . S
N122 C125 1.372 . S
N123 C125 1.361 . S
N123 C126 1.377 . S
C124 N121 1.382 . S
C124 N122 1.371 . S
C124 C127 1.480 . S
C125 N122 1.372 . S
C125 N123 1.361 . S
C125 C133 1.457 . S
C126 N121 1.363 . S
C126 N123 1.377 . S
C126 C139 1.479 . S
C127 C124 1.480 . S
C127 C128 1.383 . S
C127 C132 1.385 . S
C128 H109 0.947 . S
C128 C127 1.383 . S
C128 C129 1.388 . S
C129 H110 0.946 . S
C129 C128 1.388 . S
C129 C130 1.384 . S
C130 C129 1.384 . S
C130 C131 1.377 . S
C131 H111 0.953 . S
C131 C130 1.377 . S
C131 C132 1.369 . S
C132 H112 0.945 . S
C132 C127 1.385 . S
C132 C131 1.369 . S
C133 C125 1.457 . S
C133 C134 1.372 . S
C133 C138 1.364 . S
C134 H113 0.952 . S
C134 C133 1.372 . S
C134 C135 1.389 . S
C135 H114 0.949 . S
C135 C134 1.389 . S
C135 C136 1.387 . S
C136 C135 1.387 . S
C136 C137 1.372 . S
C137 H115 0.950 . S
C137 C136 1.372 . S
C137 C138 1.379 . S
C138 H116 0.948 . S
C138 C133 1.364 . S
C138 C137 1.379 . S
C139 C108 1.383 . S
C139 C126 1.479 . S
C139 C140 1.398 . S
C140 C105 1.382 . S
C140 H117 0.951 . S
C140 C139 1.398 . S
C141 C142 1.384 . S
C141 H154 0.947 . S
C141 C176 1.382 . S
C142 C141 1.384 . S
C142 C143 1.378 . S
C143 C142 1.378 . S
C143 C144 1.378 . S
C143 H155 0.952 . S
C144 C143 1.378 . S
C144 H156 0.950 . S
C144 C175 1.383 . S
H145 C164 0.947 . S
H146 C165 0.946 . S
H147 C167 0.953 . S
H148 C168 0.945 . S
H149 C170 0.952 . S
H150 C171 0.949 1_554 S
H151 C173 0.950 1_554 S
H152 C174 0.948 . S
H153 C176 0.951 . S
H154 C141 0.947 . S
H155 C143 0.952 . S
H156 C144 0.950 . S
N157 C160 1.382 . S
N157 C162 1.363 1_455 S
N158 C160 1.371 . S
N158 C161 1.372 . S
N159 C161 1.361 1_655 S
N159 C162 1.377 . S
C160 N157 1.382 . S
C160 N158 1.371 . S
C160 C163 1.480 . S
C161 N158 1.372 . S
C161 N159 1.361 1_455 S
C161 C169 1.457 . S
C162 N157 1.363 1_655 S
C162 N159 1.377 . S
C162 C175 1.479 . S
C163 C160 1.480 . S
C163 C164 1.383 . S
C163 C168 1.385 . S
C164 H145 0.947 . S
C164 C163 1.383 . S
C164 C165 1.388 . S
C165 H146 0.946 . S
C165 C164 1.388 . S
C165 C166 1.384 . S
C166 C165 1.384 . S
C166 C167 1.377 . S
C167 H147 0.953 . S
C167 C166 1.377 . S
C167 C168 1.369 . S
C168 H148 0.945 . S
C168 C163 1.385 . S
C168 C167 1.369 . S
C169 C161 1.457 . S
C169 C170 1.372 . S
C169 C174 1.364 1_455 S
C170 H149 0.952 . S
C170 C169 1.372 . S
C170 C171 1.389 . S
C171 H150 0.949 1_556 S
C171 C170 1.389 . S
C171 C172 1.387 1_556 S
C172 C171 1.387 1_554 S
C172 C173 1.372 1_454 S
C173 H151 0.950 1_556 S
C173 C172 1.372 1_656 S
C173 C174 1.379 . S
C174 H152 0.948 . S
C174 C169 1.364 1_655 S
C174 C173 1.379 . S
C175 C144 1.383 . S
C175 C162 1.479 . S
C175 C176 1.398 . S
C176 C141 1.382 . S
C176 H153 0.951 . S
C176 C175 1.398 . S
C177 C178 1.384 . S
C177 H190 0.947 . S
C177 C212 1.382 . S
C178 C177 1.384 . S
C178 C179 1.378 . S
C179 C178 1.378 . S
C179 C180 1.378 . S
C179 H191 0.952 . S
C180 C179 1.378 . S
C180 H192 0.950 . S
C180 C211 1.383 . S
H181 C200 0.947 . S
H182 C201 0.946 . S
H183 C203 0.953 . S
H184 C204 0.945 . S
H185 C206 0.952 . S
H186 C207 0.949 . S
H187 C209 0.950 . S
H188 C210 0.948 . S
H189 C212 0.951 . S
H190 C177 0.947 . S
H191 C179 0.952 . S
H192 C180 0.950 . S
N193 C196 1.382 1_455 S
N193 C198 1.363 . S
N194 C196 1.371 . S
N194 C197 1.372 1_655 S
N195 C197 1.361 . S
N195 C198 1.377 . S
C196 N193 1.382 1_655 S
C196 N194 1.371 . S
C196 C199 1.480 . S
C197 N194 1.372 1_455 S
C197 N195 1.361 . S
C197 C205 1.457 . S
C198 N193 1.363 . S
C198 N195 1.377 . S
C198 C211 1.479 . S
C199 C196 1.480 . S
C199 C200 1.383 . S
C199 C204 1.385 . S
C200 H181 0.947 . S
C200 C199 1.383 . S
C200 C201 1.388 . S
C201 H182 0.946 . S
C201 C200 1.388 . S
C201 C202 1.384 . S
C202 C201 1.384 . S
C202 C203 1.377 . S
C203 H183 0.953 . S
C203 C202 1.377 . S
C203 C204 1.369 . S
C204 H184 0.945 . S
C204 C199 1.385 . S
C204 C203 1.369 . S
C205 C197 1.457 . S
C205 C206 1.372 1_455 S
C205 C210 1.364 . S
C206 H185 0.952 . S
C206 C205 1.372 1_655 S
C206 C207 1.389 . S
C207 H186 0.949 . S
C207 C206 1.389 . S
C207 C208 1.387 1_655 S
C208 C207 1.387 1_455 S
C208 C209 1.372 . S
C209 H187 0.950 . S
C209 C208 1.372 . S
C209 C210 1.379 . S
C210 H188 0.948 . S
C210 C205 1.364 . S
C210 C209 1.379 . S
C211 C180 1.383 . S
C211 C198 1.479 . S
C211 C212 1.398 . S
C212 C177 1.382 . S
C212 H189 0.951 . S
C212 C211 1.398 . S
C213 C214 1.384 . S
C213 H226 0.947 . S
C213 C248 1.382 . S
C214 C213 1.384 . S
C214 C215 1.378 . S
C215 C214 1.378 . S
C215 C216 1.378 . S
C215 H227 0.952 . S
C216 C215 1.378 . S
C216 H228 0.950 . S
C216 C247 1.383 . S
H217 C236 0.947 . S
H218 C237 0.946 . S
H219 C239 0.953 . S
H220 C240 0.945 . S
H221 C242 0.952 . S
H222 C243 0.949 . S
H223 C245 0.950 . S
H224 C246 0.948 . S
H225 C248 0.951 . S
H226 C213 0.947 . S
H227 C215 0.952 . S
H228 C216 0.950 . S
N229 C232 1.382 1_545 S
N229 C234 1.363 . S
N230 C232 1.371 . S
N230 C233 1.372 1_565 S
N231 C233 1.361 . S
N231 C234 1.377 . S
C232 N229 1.382 1_565 S
C232 N230 1.371 . S
C232 C235 1.480 . S
C233 N230 1.372 1_545 S
C233 N231 1.361 . S
C233 C241 1.457 . S
C234 N229 1.363 . S
C234 N231 1.377 . S
C234 C247 1.479 . S
C235 C232 1.480 . S
C235 C236 1.383 . S
C235 C240 1.385 . S
C236 H217 0.947 . S
C236 C235 1.383 . S
C236 C237 1.388 . S
C237 H218 0.946 . S
C237 C236 1.388 . S
C237 C238 1.384 . S
C238 C237 1.384 . S
C238 C239 1.377 . S
C239 H219 0.953 . S
C239 C238 1.377 . S
C239 C240 1.369 . S
C240 H220 0.945 . S
C240 C235 1.385 . S
C240 C239 1.369 . S
C241 C233 1.457 . S
C241 C242 1.372 1_545 S
C241 C246 1.364 . S
C242 H221 0.952 . S
C242 C241 1.372 1_565 S
C242 C243 1.389 . S
C243 H222 0.949 . S
C243 C242 1.389 . S
C243 C244 1.387 1_565 S
C244 C243 1.387 1_545 S
C244 C245 1.372 . S
C245 H223 0.950 . S
C245 C244 1.372 . S
C245 C246 1.379 . S
C246 H224 0.948 . S
C246 C241 1.364 . S
C246 C245 1.379 . S
C247 C216 1.383 . S
C247 C234 1.479 . S
C247 C248 1.398 . S
C248 C213 1.382 . S
C248 H225 0.951 . S
C248 C247 1.398 . S
C249 C250 1.384 . S
C249 H262 0.947 . S
C249 C284 1.382 . S
C250 C249 1.384 . S
C250 C251 1.378 . S
C251 C250 1.378 . S
C251 C252 1.378 . S
C251 H263 0.952 . S
C252 C251 1.378 . S
C252 H264 0.950 . S
C252 C283 1.383 . S
H253 C272 0.947 . S
H254 C273 0.946 . S
H255 C275 0.953 . S
H256 C276 0.945 . S
H257 C278 0.952 . S
H258 C279 0.949 1_556 S
H259 C281 0.950 1_556 S
H260 C282 0.948 . S
H261 C284 0.951 . S
H262 C249 0.947 . S
H263 C251 0.952 . S
H264 C252 0.950 . S
N265 C268 1.382 . S
N265 C270 1.363 . S
N266 C268 1.371 . S
N266 C269 1.372 . S
N267 C269 1.361 . S
N267 C270 1.377 . S
C268 N265 1.382 . S
C268 N266 1.371 . S
C268 C271 1.480 . S
C269 N266 1.372 . S
C269 N267 1.361 . S
C269 C277 1.457 . S
C270 N265 1.363 . S
C270 N267 1.377 . S
C270 C283 1.479 . S
C271 C268 1.480 . S
C271 C272 1.383 . S
C271 C276 1.385 . S
C272 H253 0.947 . S
C272 C271 1.383 . S
C272 C273 1.388 . S
C273 H254 0.946 . S
C273 C272 1.388 . S
C273 C274 1.384 . S
C274 C273 1.384 . S
C274 C275 1.377 . S
C275 H255 0.953 . S
C275 C274 1.377 . S
C275 C276 1.369 . S
C276 H256 0.945 . S
C276 C271 1.385 . S
C276 C275 1.369 . S
C277 C269 1.457 . S
C277 C278 1.372 . S
C277 C282 1.364 . S
C278 H257 0.952 . S
C278 C277 1.372 . S
C278 C279 1.389 . S
C279 H258 0.949 1_554 S
C279 C278 1.389 . S
C279 C280 1.387 1_554 S
C280 C279 1.387 1_556 S
C280 C281 1.372 1_556 S
C281 H259 0.950 1_554 S
C281 C280 1.372 1_554 S
C281 C282 1.379 . S
C282 H260 0.948 . S
C282 C277 1.364 . S
C282 C281 1.379 . S
C283 C252 1.383 . S
C283 C270 1.479 . S
C283 C284 1.398 . S
C284 C249 1.382 . S
C284 H261 0.951 . S
C284 C283 1.398 . S
C285 C286 1.387 . S
C285 H289 0.950 . S
C285 C294 1.390 . S
C286 C285 1.387 . S
C286 C288 1.387 . S
H287 C294 0.950 . S
C288 C286 1.387 . S
C288 C290 1.390 . S
C288 H292 0.950 . S
H289 C285 0.950 . S
C290 C288 1.390 . S
C290 C291 1.387 . S
C290 H293 0.950 . S
C291 C290 1.387 . S
C291 C294 1.387 . S
H292 C288 0.950 . S
H293 C290 0.950 . S
C294 C285 1.390 . S
C294 H287 0.950 . S
C294 C291 1.387 . S
C295 C296 1.387 . S
C295 H299 0.950 . S
C295 C304 1.390 . S
C296 C295 1.387 . S
C296 C298 1.387 . S
H297 C304 0.950 . S
C298 C296 1.387 . S
C298 C300 1.390 . S
C298 H302 0.950 . S
H299 C295 0.950 . S
C300 C298 1.390 . S
C300 C301 1.387 . S
C300 H303 0.950 . S
C301 C300 1.387 . S
C301 C304 1.387 . S
H302 C298 0.950 . S
H303 C300 0.950 . S
C304 C295 1.390 . S
C304 H297 0.950 . S
C304 C301 1.387 . S
C305 C306 1.387 . S
C305 H309 0.950 . S
C305 C314 1.390 . S
C306 C305 1.387 . S
C306 C308 1.387 . S
H307 C314 0.950 . S
C308 C306 1.387 . S
C308 C310 1.390 . S
C308 H312 0.950 . S
H309 C305 0.950 . S
C310 C308 1.390 . S
C310 C311 1.387 . S
C310 H313 0.950 . S
C311 C310 1.387 . S
C311 C314 1.387 . S
H312 C308 0.950 . S
H313 C310 0.950 . S
C314 C305 1.390 . S
C314 H307 0.950 . S
C314 C311 1.387 . S
C315 C316 1.387 . S
C315 H319 0.950 . S
C315 C324 1.390 . S
C316 C315 1.387 . S
C316 C318 1.387 . S
H317 C324 0.950 . S
C318 C316 1.387 . S
C318 C320 1.390 . S
C318 H322 0.950 . S
H319 C315 0.950 . S
C320 C318 1.390 . S
C320 C321 1.387 . S
C320 H323 0.950 . S
C321 C320 1.387 . S
C321 C324 1.387 . S
H322 C318 0.950 . S
H323 C320 0.950 . S
C324 C315 1.390 . S
C324 H317 0.950 . S
C324 C321 1.387 . S
C325 C326 1.387 . S
C325 H329 0.950 . S
C325 C334 1.390 . S
C326 C325 1.387 . S
C326 C328 1.387 . S
H327 C334 0.950 . S
C328 C326 1.387 . S
C328 C330 1.390 . S
C328 H332 0.950 . S
H329 C325 0.950 . S
C330 C328 1.390 . S
C330 C331 1.387 . S
C330 H333 0.950 . S
C331 C330 1.387 . S
C331 C334 1.387 . S
H332 C328 0.950 . S
H333 C330 0.950 . S
C334 C325 1.390 . S
C334 H327 0.950 . S
C334 C331 1.387 . S
C335 C336 1.387 . S
C335 H339 0.950 . S
C335 C344 1.390 . S
C336 C335 1.387 . S
C336 C338 1.387 . S
H337 C344 0.950 . S
C338 C336 1.387 . S
C338 C340 1.390 . S
C338 H342 0.950 . S
H339 C335 0.950 . S
C340 C338 1.390 . S
C340 C341 1.387 . S
C340 H343 0.950 . S
C341 C340 1.387 . S
C341 C344 1.387 . S
H342 C338 0.950 . S
H343 C340 0.950 . S
C344 C335 1.390 . S
C344 H337 0.950 . S
C344 C341 1.387 . S
C345 C346 1.387 . S
C345 H349 0.950 . S
C345 C354 1.390 . S
C346 C345 1.387 . S
C346 C348 1.387 . S
H347 C354 0.950 . S
C348 C346 1.387 . S
C348 C350 1.390 . S
C348 H352 0.950 . S
H349 C345 0.950 . S
C350 C348 1.390 . S
C350 C351 1.387 . S
C350 H353 0.950 . S
C351 C350 1.387 . S
C351 C354 1.387 . S
H352 C348 0.950 . S
H353 C350 0.950 . S
C354 C345 1.390 . S
C354 H347 0.950 . S
C354 C351 1.387 . S
C355 C356 1.387 . S
C355 H359 0.950 . S
C355 C364 1.390 . S
C356 C355 1.387 . S
C356 C358 1.387 . S
H357 C364 0.950 . S
C358 C356 1.387 . S
C358 C360 1.390 . S
C358 H362 0.950 . S
H359 C355 0.950 . S
C360 C358 1.390 . S
C360 C361 1.387 . S
C360 H363 0.950 . S
C361 C360 1.387 . S
C361 C364 1.387 . S
H362 C358 0.950 . S
H363 C360 0.950 . S
C364 C355 1.390 . S
C364 H357 0.950 . S
C364 C361 1.387 . S
C365 C366 1.387 . S
C365 H369 0.950 . S
C365 C374 1.390 . S
C366 C365 1.387 . S
C366 C368 1.387 . S
H367 C374 0.950 . S
C368 C366 1.387 . S
C368 C370 1.390 . S
C368 H372 0.950 . S
H369 C365 0.950 . S
C370 C368 1.390 . S
C370 C371 1.387 . S
C370 H373 0.950 . S
C371 C370 1.387 . S
C371 C374 1.387 . S
H372 C368 0.950 . S
H373 C370 0.950 . S
C374 C365 1.390 . S
C374 H367 0.950 . S
C374 C371 1.387 . S
C375 C376 1.387 . S
C375 H379 0.950 . S
C375 C384 1.390 . S
C376 C375 1.387 . S
C376 C378 1.387 . S
H377 C384 0.950 . S
C378 C376 1.387 . S
C378 C380 1.390 . S
C378 H382 0.950 . S
H379 C375 0.950 . S
C380 C378 1.390 . S
C380 C381 1.387 . S
C380 H383 0.950 . S
C381 C380 1.387 . S
C381 C384 1.387 . S
H382 C378 0.950 . S
H383 C380 0.950 . S
C384 C375 1.390 . S
C384 H377 0.950 . S
C384 C381 1.387 . S
C385 C386 1.387 . S
C385 H389 0.950 . S
C385 C394 1.390 . S
C386 C385 1.387 . S
C386 C388 1.387 . S
H387 C394 0.950 . S
C388 C386 1.387 . S
C388 C390 1.390 . S
C388 H392 0.950 . S
H389 C385 0.950 . S
C390 C388 1.390 . S
C390 C391 1.387 . S
C390 H393 0.950 . S
C391 C390 1.387 . S
C391 C394 1.387 . S
H392 C388 0.950 . S
H393 C390 0.950 . S
C394 C385 1.390 . S
C394 H387 0.950 . S
C394 C391 1.387 . S
C395 C396 1.387 . S
C395 H399 0.950 . S
C395 C404 1.390 . S
C396 C395 1.387 . S
C396 C398 1.387 . S
H397 C404 0.950 . S
C398 C396 1.387 . S
C398 C400 1.390 . S
C398 H402 0.950 . S
H399 C395 0.950 . S
C400 C398 1.390 . S
C400 C401 1.387 . S
C400 H403 0.950 . S
C401 C400 1.387 . S
C401 C404 1.387 . S
H402 C398 0.950 . S
H403 C400 0.950 . S
C404 C395 1.390 . S
C404 H397 0.950 . S
C404 C401 1.387 . S
C405 C406 1.387 . S
C405 H409 0.950 . S
C405 C414 1.390 . S
C406 C405 1.387 . S
C406 C408 1.387 . S
H407 C414 0.950 . S
C408 C406 1.387 . S
C408 C410 1.390 . S
C408 H412 0.950 . S
H409 C405 0.950 . S
C410 C408 1.390 . S
C410 C411 1.387 . S
C410 H413 0.950 . S
C411 C410 1.387 . S
C411 C414 1.387 . S
H412 C408 0.950 . S
H413 C410 0.950 . S
C414 C405 1.390 . S
C414 H407 0.950 . S
C414 C411 1.387 . S
C415 C416 1.387 . S
C415 H419 0.950 . S
C415 C424 1.390 . S
C416 C415 1.387 . S
C416 C418 1.387 . S
H417 C424 0.950 . S
C418 C416 1.387 . S
C418 C420 1.390 . S
C418 H422 0.950 . S
H419 C415 0.950 . S
C420 C418 1.390 . S
C420 C421 1.387 . S
C420 H423 0.950 . S
C421 C420 1.387 . S
C421 C424 1.387 . S
H422 C418 0.950 . S
H423 C420 0.950 . S
C424 C415 1.390 . S
C424 H417 0.950 . S
C424 C421 1.387 . S
C425 C426 1.387 . S
C425 H429 0.950 . S
C425 C434 1.390 . S
C426 C425 1.387 . S
C426 C428 1.387 . S
H427 C434 0.950 . S
C428 C426 1.387 . S
C428 C430 1.390 . S
C428 H432 0.950 . S
H429 C425 0.950 . S
C430 C428 1.390 . S
C430 C431 1.387 . S
C430 H433 0.950 . S
C431 C430 1.387 . S
C431 C434 1.387 . S
H432 C428 0.950 . S
H433 C430 0.950 . S
C434 C425 1.390 . S
C434 H427 0.950 . S
C434 C431 1.387 . S
C435 C436 1.387 . S
C435 H439 0.950 . S
C435 C444 1.390 . S
C436 C435 1.387 . S
C436 C438 1.387 1_545 S
H437 C444 0.950 . S
C438 C436 1.387 1_565 S
C438 C440 1.390 . S
C438 H442 0.950 . S
H439 C435 0.950 . S
C440 C438 1.390 . S
C440 C441 1.387 1_565 S
C440 H443 0.950 . S
C441 C440 1.387 1_545 S
C441 C444 1.387 . S
H442 C438 0.950 . S
H443 C440 0.950 . S
C444 C435 1.390 . S
C444 H437 0.950 . S
C444 C441 1.387 . S
C445 C446 1.387 . S
C445 H449 0.950 . S
C445 C454 1.390 . S
C446 C445 1.387 . S
C446 C448 1.387 . S
H447 C454 0.950 . S
C448 C446 1.387 . S
C448 C450 1.390 . S
C448 H452 0.950 . S
H449 C445 0.950 . S
C450 C448 1.390 . S
C450 C451 1.387 . S
C450 H453 0.950 . S
C451 C450 1.387 . S
C451 C454 1.387 . S
H452 C448 0.950 . S
H453 C450 0.950 . S
C454 C445 1.390 . S
C454 H447 0.950 . S
C454 C451 1.387 . S
C455 C456 1.387 . S
C455 H459 0.950 . S
C455 C464 1.390 . S
C456 C455 1.387 . S
C456 C458 1.387 1_455 S
H457 C464 0.950 . S
C458 C456 1.387 1_655 S
C458 C460 1.390 . S
C458 H462 0.950 . S
H459 C455 0.950 . S
C460 C458 1.390 . S
C460 C461 1.387 1_655 S
C460 H463 0.950 . S
C461 C460 1.387 1_455 S
C461 C464 1.387 . S
H462 C458 0.950 . S
H463 C460 0.950 . S
C464 C455 1.390 . S
C464 H457 0.950 . S
C464 C461 1.387 . S
C286 C20 1.276 . S
C291 C274 1.296 . S
C296 C41 1.369 . S
C301 C202 1.325 . S
C306 C64 1.401 . S
C311 C238 1.352 . S
C316 C19 1.324 . S
C321 C250 1.407 . S
C331 C178 1.362 . S
C326 C44 1.348 . S
C341 C214 1.343 . S
C336 C67 1.331 . S
C346 C43 1.273 . S
C351 C130 1.299 . S
C356 C66 1.271 . S
C361 C142 1.326 . S
C366 C21 1.348 . S
C371 C70 1.362 . S
C381 C106 1.385 . S
C376 C42 1.312 . S
C391 C166 1.359 . S
C386 C65 1.324 . S
C396 C18 1.371 . S
C401 C94 1.326 . S
C411 C172 1.463 . S
C406 C17 1.471 . S
C416 C39 1.466 . S
C421 C100 1.462 . S
C426 C62 1.483 . S
C431 C136 1.481 . S
C441 C244 1.449 . S
C436 C40 1.454 . S
C451 C280 1.471 . S
C446 C63 1.472 . S
C456 C16 1.467 . S
C461 C208 1.463 . S
