# Generated by pormake.
# Topology anh, (6,3)-cn, num edge types: 1
# Building blocks:
#     Node 0, Type 0, BuildingBlock: HISSIN_clean_sbu_0, # of connection points: 6
#     Node 1, Type 0, BuildingBlock: HISSIN_clean_sbu_0, # of connection points: 6
#     Node 2, Type 0, BuildingBlock: HISSIN_clean_sbu_0, # of connection points: 6
#     Node 3, Type 1, BuildingBlock: BETDIP_clean_linker_0, # of connection points: 3
#     Node 4, Type 1, BuildingBlock: BETDIP_clean_linker_0, # of connection points: 3
#     Node 5, Type 1, BuildingBlock: BETDIP_clean_linker_0, # of connection points: 3
#     Node 6, Type 1, BuildingBlock: BETDIP_clean_linker_0, # of connection points: 3
#     Node 7, Type 1, BuildingBlock: BETDIP_clean_linker_0, # of connection points: 3
#     Node 8, Type 1, BuildingBlock: BETDIP_clean_linker_0, # of connection points: 3
#     Edge 9, Type (0, 1), BuildingBlock: XUDNAN_clean_linker_2, # of connection points: 2
#     Edge 10, Type (0, 1), BuildingBlock: XUDNAN_clean_linker_2, # of connection points: 2
#     Edge 11, Type (0, 1), BuildingBlock: XUDNAN_clean_linker_2, # of connection points: 2
#     Edge 12, Type (0, 1), BuildingBlock: XUDNAN_clean_linker_2, # of connection points: 2
#     Edge 13, Type (0, 1), BuildingBlock: XUDNAN_clean_linker_2, # of connection points: 2
#     Edge 14, Type (0, 1), BuildingBlock: XUDNAN_clean_linker_2, # of connection points: 2
#     Edge 15, Type (0, 1), BuildingBlock: XUDNAN_clean_linker_2, # of connection points: 2
#     Edge 16, Type (0, 1), BuildingBlock: XUDNAN_clean_linker_2, # of connection points: 2
#     Edge 17, Type (0, 1), BuildingBlock: XUDNAN_clean_linker_2, # of connection points: 2
#     Edge 18, Type (0, 1), BuildingBlock: XUDNAN_clean_linker_2, # of connection points: 2
#     Edge 19, Type (0, 1), BuildingBlock: XUDNAN_clean_linker_2, # of connection points: 2
#     Edge 20, Type (0, 1), BuildingBlock: XUDNAN_clean_linker_2, # of connection points: 2
#     Edge 21, Type (0, 1), BuildingBlock: XUDNAN_clean_linker_2, # of connection points: 2
#     Edge 22, Type (0, 1), BuildingBlock: XUDNAN_clean_linker_2, # of connection points: 2
#     Edge 23, Type (0, 1), BuildingBlock: XUDNAN_clean_linker_2, # of connection points: 2
#     Edge 24, Type (0, 1), BuildingBlock: XUDNAN_clean_linker_2, # of connection points: 2
#     Edge 25, Type (0, 1), BuildingBlock: XUDNAN_clean_linker_2, # of connection points: 2
#     Edge 26, Type (0, 1), BuildingBlock: XUDNAN_clean_linker_2, # of connection points: 2
# Relax obj value: 0.249
# Max RMSD: 0.191
# Mean RMSD: 0.125
data_MOF--net-anh--node1-HISSIN_clean_sbu_0--node2-BETDIP_clean_linker_0--edge1-XUDNAN_clean_linker_2
_symmetry_space_group_name_H-M    P1
_symmetry_Int_Tables_number       1
_symmetry_cell_setting            triclinic
loop_
_symmetry_equiv_pos_as_xyz
'x, y, z'
_cell_length_a     29.772872
_cell_length_b     29.732303
_cell_length_c     49.955612
_cell_angle_alpha  94.79946
_cell_angle_beta   90.228606
_cell_angle_gamma 120.14835
loop_
_atom_site_label
_atom_site_type_symbol
_atom_site_fract_x
_atom_site_fract_y
_atom_site_fract_z
_atom_type_partial_charge
Eu0 Eu 1.14483 0.51583 0.14689 0.0
Eu1 Eu 0.21411 0.64081 0.16504 0.0
C2 C 0.17002 0.55961 0.20845 0.0
C3 C 1.02898 0.38921 0.14927 0.0
C4 C 0.98573 0.38352 0.13458 0.0
C5 C 0.98122 0.37643 0.19003 0.0
C6 C 0.94226 0.37809 0.1478 0.0
C7 C 1.02467 0.38186 0.17683 0.0
C8 C 0.94106 0.37768 0.17591 0.0
C9 C 1.0811 0.41615 0.13799 0.0
O10 O 0.27132 0.61837 0.1473 0.0
O11 O 0.22665 0.53239 0.15562 0.0
C12 C 0.27022 0.57431 0.15055 0.0
O13 O 0.17986 0.55134 0.10836 0.0
O14 O 0.28328 0.70716 0.18595 0.0
O15 O 0.22397 0.7187 0.16784 0.0
O16 O 0.19609 0.63436 0.12106 0.0
C17 C 0.1915 0.59826 0.1025 0.0
O18 O 1.08811 0.54452 0.14445 0.0
O19 O 1.13058 0.61908 0.17349 0.0
O20 O 0.21196 0.59966 0.20096 0.0
O21 O 1.08705 0.44878 0.12049 0.0
O22 O 1.1208 0.43618 0.15543 0.0
O23 O 1.13183 0.52859 0.19092 0.0
C24 C 0.31061 0.78952 0.17033 0.0
C25 C 0.31027 0.80027 0.14347 0.0
C26 C 0.38472 0.87627 0.18132 0.0
C27 C 0.34633 0.8495 0.13578 0.0
C28 C 0.34874 0.82737 0.18896 0.0
C29 C 0.38333 0.88836 0.15479 0.0
C30 C 0.26994 0.74085 0.18001 0.0
C31 C 1.08811 0.58247 0.1598 0.0
H32 H 0.98752 0.38848 0.11329 0.0
H33 H 0.98068 0.37477 0.21162 0.0
H34 H 0.91184 0.37897 0.1363 0.0
H35 H 1.0568 0.38511 0.18877 0.0
H36 H 0.28129 0.77131 0.12869 0.0
H37 H 0.41189 0.9055 0.19664 0.0
H38 H 0.34447 0.85759 0.11519 0.0
H39 H 0.34949 0.81977 0.20975 0.0
Eu40 Eu 0.60028 1.07135 0.4703 0.0
Eu41 Eu 0.54558 0.1345 0.4977 0.0
C42 C 0.59361 1.08383 0.53473 0.0
C43 C 0.66807 0.99182 0.46229 0.0
C44 C 0.64012 0.95186 0.47894 0.0
C45 C 0.74487 0.98541 0.47116 0.0
C46 C 0.66454 0.92929 0.49181 0.0
C47 C 0.72029 1.00763 0.4581 0.0
C48 C 0.71752 0.94659 0.48855 0.0
C49 C 0.64473 1.01986 0.45067 0.0
O50 O 0.62118 0.19544 0.48243 0.0
O51 O 0.66611 0.15247 0.48554 0.0
C52 C 0.66543 0.196 0.48368 0.0
O53 O 0.59154 0.11272 0.43646 0.0
O54 O 0.54779 0.19283 0.52802 0.0
O55 O 0.48356 0.15354 0.49823 0.0
O56 O 0.52579 0.12346 0.45331 0.0
C57 C 0.55551 0.12534 0.43363 0.0
O58 O 0.51275 1.01711 0.46441 0.0
O59 O 0.48702 1.04942 0.50063 0.0
O60 O 0.58695 0.1237 0.53227 0.0
O61 O 0.59454 0.99947 0.45157 0.0
O62 O 0.66941 1.07024 0.4568 0.0
O63 O 0.59172 1.05315 0.51369 0.0
C64 C 0.52336 0.24493 0.50729 0.0
C65 C 0.54349 0.25722 0.48182 0.0
C66 C 0.55301 0.33649 0.51967 0.0
C67 C 0.56951 0.30889 0.4756 0.0
C68 C 0.52679 0.28461 0.52585 0.0
C69 C 0.57641 0.34934 0.49485 0.0
C70 C 0.50935 0.19375 0.51602 0.0
C71 C 0.47783 1.0114 0.482 0.0
H72 H 0.59974 0.93879 0.48256 0.0
H73 H 0.78583 1.00017 0.46841 0.0
H74 H 0.64204 0.8988 0.50465 0.0
H75 H 0.74261 1.03846 0.44538 0.0
H76 H 0.54227 0.22734 0.46738 0.0
H77 H 0.55828 0.36679 0.53512 0.0
H78 H 0.58674 0.31747 0.45627 0.0
H79 H 0.5124 0.27602 0.54576 0.0
Eu80 Eu 0.57468 0.52221 0.82479 0.0
Eu81 Eu 0.70191 0.57734 0.82009 0.0
C82 C 0.65355 0.57485 0.87789 0.0
C83 C 0.44861 0.51205 0.84051 0.0
C84 C 0.4498 0.55275 0.8275 0.0
C85 C 0.41914 0.54007 0.88045 0.0
C86 C 0.4381 0.58807 0.84125 0.0
C87 C 0.43046 0.50443 0.86662 0.0
C88 C 0.42527 0.58367 0.86832 0.0
C89 C 0.47521 0.48448 0.82937 0.0
O90 O 0.67632 0.49288 0.82559 0.0
O91 O 0.58822 0.45414 0.81502 0.0
C92 C 0.63019 0.45105 0.81963 0.0
O93 O 0.59637 0.5498 0.78342 0.0
O94 O 0.7797 0.59912 0.83479 0.0
O95 O 0.76861 0.62353 0.79653 0.0
O96 O 0.66147 0.53214 0.78107 0.0
C97 C 0.63008 0.54367 0.76917 0.0
O98 O 0.60199 0.60861 0.83166 0.0
O99 O 0.68319 0.64149 0.81456 0.0
O100 O 0.69249 0.60008 0.86266 0.0
O101 O 0.49798 0.49872 0.80685 0.0
O102 O 0.50463 0.47924 0.84673 0.0
O103 O 0.60757 0.53804 0.86772 0.0
C104 C 0.84688 0.62088 0.80361 0.0
C105 C 0.87018 0.64563 0.78064 0.0
C106 C 0.9241 0.61662 0.81452 0.0
C107 C 0.92097 0.65796 0.77537 0.0
C108 C 0.87326 0.60397 0.81964 0.0
C109 C 0.94962 0.6465 0.79325 0.0
C110 C 0.80164 0.62339 0.81377 0.0
C111 C 0.64419 0.64726 0.82281 0.0
H112 H 0.4633 0.5597 0.80733 0.0
H113 H 0.40816 0.53498 0.90111 0.0
H114 H 0.44292 0.62098 0.83124 0.0
H115 H 0.42869 0.4731 0.87705 0.0
H116 H 0.85084 0.65928 0.76795 0.0
H117 H 0.94483 0.60736 0.82888 0.0
H118 H 0.93918 0.68014 0.75854 0.0
H119 H 0.85647 0.58491 0.83753 0.0
H120 H 0.57112 0.30106 0.18768 0.0
H121 H 0.60493 0.35433 0.2718 0.0
H122 H 0.55647 0.19459 0.24502 0.0
H123 H 0.6552 0.46573 0.2365 0.0
C124 C 0.6526 0.42861 0.23026 0.0
C125 C 0.57413 0.29304 0.20817 0.0
C126 C 0.56386 0.24328 0.21362 0.0
C127 C 0.59042 0.33337 0.22901 0.0
C128 C 0.59383 0.32335 0.25568 0.0
C129 C 0.58124 0.27311 0.26159 0.0
C130 C 0.5675 0.23373 0.24042 0.0
N131 N 0.60291 0.38406 0.2231 0.0
H132 H 0.88237 0.7405 0.54492 0.0
H133 H 0.88634 0.77356 0.63077 0.0
H134 H 0.75054 0.64346 0.58989 0.0
H135 H 0.98899 0.86471 0.56068 0.0
C136 C 0.95082 0.84476 0.56887 0.0
C137 C 0.86347 0.73116 0.5638 0.0
C138 C 0.813 0.68812 0.56428 0.0
C139 C 0.88997 0.76206 0.58777 0.0
C140 C 0.86605 0.74965 0.61232 0.0
C141 C 0.81509 0.70775 0.61275 0.0
C142 C 0.78913 0.67711 0.58892 0.0
N143 N 0.94013 0.80677 0.58712 0.0
H144 H 0.32575 0.87679 0.88383 0.0
H145 H 0.35309 0.83685 0.96019 0.0
H146 H 0.2148 0.72911 0.91194 0.0
H147 H 0.47066 0.94574 0.94422 0.0
C148 C 0.4393 0.91035 0.93357 0.0
C149 C 0.31247 0.84955 0.89904 0.0
C150 C 0.26615 0.80094 0.89452 0.0
C151 C 0.34379 0.86232 0.92254 0.0
C152 C 0.32842 0.82686 0.94211 0.0
C153 C 0.28235 0.77828 0.93814 0.0
C154 C 0.25137 0.76575 0.9144 0.0
N155 N 0.39285 0.90929 0.92544 0.0
H156 H 1.11558 0.63993 0.47311 0.0
H157 H 1.06154 0.52477 0.40435 0.0
H158 H 0.20414 0.66954 0.40192 0.0
H159 H 1.03316 0.47082 0.44077 0.0
C160 C 1.01273 0.48901 0.45038 0.0
C161 C 1.12094 0.62804 0.45286 0.0
C162 C 0.16587 0.66143 0.4394 0.0
C163 C 1.08342 0.57818 0.44057 0.0
C164 C 1.09031 0.56241 0.41428 0.0
C165 C 1.1343 0.595 0.40064 0.0
C166 C 0.17134 0.64417 0.41317 0.0
N167 N 1.03859 0.54479 0.45456 0.0
H168 H 0.63378 1.0886 0.80873 0.0
H169 H 0.62989 1.00041 0.73529 0.0
H170 H 0.61786 0.13874 0.73284 0.0
H171 H 0.57583 0.93104 0.76627 0.0
C172 C 0.609 0.94768 0.78067 0.0
C173 C 0.63097 1.08318 0.78695 0.0
C174 C 0.62723 0.11983 0.77219 0.0
C175 C 0.63059 1.03918 0.77364 0.0
C176 C 0.62757 1.03281 0.74533 0.0
C177 C 0.62341 1.06859 0.73009 0.0
C178 C 0.62312 0.11181 0.74393 0.0
N179 N 0.63517 1.00265 0.78877 0.0
H180 H 0.63649 0.58075 0.15171 0.0
H181 H 0.7309 0.60467 0.08353 0.0
H182 H 0.58479 0.59949 0.07476 0.0
H183 H 0.79601 0.65417 0.12088 0.0
C184 C 0.78146 0.61988 0.13189 0.0
C185 C 0.64259 0.5872 0.13068 0.0
C186 C 0.60493 0.59036 0.11474 0.0
C187 C 0.68902 0.59393 0.11974 0.0
C188 C 0.69652 0.60181 0.09238 0.0
C189 C 0.65894 0.60341 0.076 0.0
C190 C 0.61368 0.59814 0.0874 0.0
N191 N 0.7269 0.5906 0.13593 0.0
H192 H 0.36184 0.63801 0.12616 0.0
H193 H 0.28873 0.50331 0.17197 0.0
H194 H 0.36763 0.4961 0.17013 0.0
H195 H 0.42454 0.58793 0.0818 0.0
H196 H 0.48257 0.65039 0.07999 0.0
H197 H 0.42152 0.64714 0.08623 0.0
H198 H 0.4628 0.70979 0.12974 0.0
H199 H 0.52398 0.71312 0.12366 0.0
H200 H 0.49395 0.69341 0.1551 0.0
H201 H 0.4547 0.50257 0.16304 0.0
H202 H 0.54024 0.51848 0.14824 0.0
H203 H 0.55678 0.6472 0.10592 0.0
C204 C 0.36263 0.6073 0.136 0.0
C205 C 0.31886 0.57135 0.14933 0.0
C206 C 0.32144 0.53128 0.16157 0.0
C207 C 0.36631 0.52697 0.16075 0.0
C208 C 0.40861 0.56273 0.1474 0.0
C209 C 0.40707 0.60191 0.13504 0.0
C210 C 0.45702 0.63358 0.12087 0.0
C211 C 0.44572 0.6295 0.09042 0.0
C212 C 0.48616 0.69088 0.13308 0.0
C213 C 0.4866 0.60595 0.1271 0.0
C214 C 0.45822 0.56556 0.1427 0.0
C215 C 0.4773 0.5342 0.15086 0.0
C216 C 0.52619 0.54375 0.1425 0.0
C217 C 0.55553 0.58401 0.12588 0.0
C218 C 0.53534 0.6158 0.11844 0.0
H219 H 0.7627 0.21226 0.4713 0.0
H220 H 0.67976 0.29471 0.4918 0.0
H221 H 0.75989 0.37883 0.48754 0.0
H222 H 0.88735 0.3085 0.50504 0.0
H223 H 0.92478 0.29998 0.47892 0.0
H224 H 0.86165 0.24641 0.48513 0.0
H225 H 0.83187 0.23766 0.43524 0.0
H226 H 0.89486 0.29117 0.42887 0.0
H227 H 0.83711 0.29377 0.42101 0.0
H228 H 0.85009 0.45511 0.48045 0.0
H229 H 0.9406 0.51545 0.46879 0.0
H230 H 0.96361 0.3834 0.45107 0.0
C231 C 0.76155 0.24803 0.47524 0.0
C232 C 0.71481 0.24663 0.48216 0.0
C233 C 0.71495 0.29449 0.4866 0.0
C234 C 0.76041 0.34265 0.48427 0.0
C235 C 0.8057 0.34265 0.47726 0.0
C236 C 0.80652 0.29653 0.47266 0.0
C237 C 0.85956 0.30714 0.46408 0.0
C238 C 0.88482 0.28946 0.48451 0.0
C239 C 0.85559 0.28088 0.43561 0.0
C240 C 0.88838 0.36629 0.46453 0.0
C241 C 0.85685 0.38618 0.47243 0.0
C242 C 0.87507 0.43986 0.47427 0.0
C243 C 0.92661 0.47393 0.46767 0.0
C244 C 0.95922 0.45419 0.45908 0.0
C245 C 0.93962 0.39966 0.45764 0.0
H246 H 0.56699 0.66644 0.80694 0.0
H247 H 0.72982 0.74448 0.83345 0.0
H248 H 0.73758 0.83031 0.82858 0.0
H249 H 0.58599 0.75019 0.75554 0.0
H250 H 0.5253 0.749 0.75969 0.0
H251 H 0.53132 0.69437 0.76789 0.0
H252 H 0.50225 0.7029 0.81574 0.0
H253 H 0.49647 0.75786 0.80794 0.0
H254 H 0.53716 0.7641 0.83652 0.0
H255 H 0.72724 0.90875 0.8206 0.0
H256 H 0.70223 0.97112 0.80575 0.0
H257 H 0.54865 0.84171 0.78046 0.0
C258 C 0.60403 0.70169 0.81214 0.0
C259 C 0.64766 0.69878 0.82104 0.0
C260 C 0.69582 0.74575 0.82683 0.0
C261 C 0.70053 0.79473 0.82417 0.0
C262 C 0.65696 0.79635 0.81515 0.0
C263 C 0.60979 0.75094 0.80886 0.0
C264 C 0.57014 0.76316 0.79745 0.0
C265 C 0.55215 0.73768 0.76842 0.0
C266 C 0.52376 0.74601 0.81551 0.0
C267 C 0.6022 0.82238 0.79835 0.0
C268 C 0.65196 0.84094 0.80905 0.0
C269 C 0.68837 0.89448 0.81213 0.0
C270 C 0.67381 0.92975 0.80375 0.0
C271 C 0.62352 0.9114 0.79195 0.0
C272 C 0.5874 0.85695 0.7894 0.0
H273 H 1.06728 0.66094 0.15173 0.0
H274 H 0.99493 0.50063 0.17094 0.0
H275 H 0.90874 0.49435 0.16999 0.0
H276 H 0.98019 0.69755 0.18773 0.0
H277 H 0.97912 0.73526 0.16155 0.0
H278 H 1.03555 0.72921 0.16739 0.0
H279 H 1.0288 0.69373 0.1175 0.0
H280 H 0.97235 0.69951 0.11153 0.0
H281 H 0.96888 0.6375 0.10376 0.0
H282 H 0.82897 0.50507 0.16519 0.0
H283 H 0.76322 0.52868 0.15259 0.0
H284 H 0.88693 0.67953 0.13316 0.0
C285 C 1.03341 0.6251 0.15646 0.0
C286 C 1.03788 0.58163 0.16204 0.0
C287 C 0.9924 0.53461 0.16704 0.0
C288 C 0.94328 0.53073 0.16657 0.0
C289 C 0.93991 0.57401 0.16059 0.0
C290 C 0.98379 0.62018 0.1554 0.0
C291 C 0.96905 0.65911 0.14686 0.0
C292 C 0.99236 0.70819 0.16709 0.0
C293 C 0.98575 0.67327 0.11821 0.0
C294 C 0.9102 0.62763 0.14778 0.0
C295 C 0.89406 0.57896 0.15623 0.0
C296 C 0.84127 0.54302 0.15843 0.0
C297 C 0.80412 0.55681 0.15134 0.0
C298 C 0.81987 0.60594 0.14188 0.0
C299 C 0.87368 0.64171 0.14038 0.0
H300 H 0.45107 0.9161 0.45447 0.0
H301 H 0.38821 0.99375 0.50592 0.0
H302 H 0.30274 0.91224 0.50258 0.0
H303 H 0.3387 0.83926 0.41041 0.0
H304 H 0.34602 0.78247 0.40724 0.0
H305 H 0.40236 0.84659 0.41418 0.0
H306 H 0.42682 0.81752 0.45668 0.0
H307 H 0.37053 0.75326 0.44984 0.0
H308 H 0.37988 0.7902 0.48194 0.0
H309 H 0.2217 0.82208 0.49137 0.0
H310 H 0.15429 0.73234 0.47411 0.0
H311 H 0.27216 0.71215 0.43295 0.0
C312 C 0.41939 0.91603 0.46508 0.0
C313 C 0.42657 0.9617 0.48037 0.0
C314 C 0.38396 0.95948 0.4941 0.0
C315 C 0.33512 0.91325 0.49231 0.0
C316 C 0.32934 0.86902 0.47699 0.0
C317 C 0.37053 0.86997 0.46381 0.0
C318 C 0.35422 0.81718 0.44871 0.0
C319 C 0.36071 0.82167 0.41834 0.0
C320 C 0.38467 0.79312 0.45997 0.0
C321 C 0.29723 0.78669 0.45497 0.0
C322 C 0.28348 0.81714 0.4713 0.0
C323 C 0.2323 0.79778 0.4788 0.0
C324 C 0.19418 0.74639 0.46902 0.0
C325 C 0.20717 0.71448 0.45194 0.0
C326 C 0.25999 0.73519 0.44547 0.0
H327 H 0.69134 0.41813 0.79309 0.0
H328 H 0.55583 0.36425 0.84088 0.0
H329 H 0.54458 0.27551 0.83705 0.0
H330 H 0.63586 0.30258 0.74663 0.0
H331 H 0.69627 0.30342 0.74199 0.0
H332 H 0.69671 0.36363 0.75074 0.0
H333 H 0.75878 0.38386 0.79217 0.0
H334 H 0.75837 0.32356 0.78359 0.0
H335 H 0.74035 0.33678 0.81646 0.0
H336 H 0.5484 0.19187 0.82803 0.0
H337 H 0.56001 0.11838 0.80986 0.0
H338 H 0.68777 0.22411 0.76434 0.0
C339 C 0.65981 0.38774 0.80306 0.0
C340 C 0.62493 0.39828 0.81772 0.0
C341 C 0.5832 0.35714 0.82977 0.0
C342 C 0.57664 0.30664 0.82776 0.0
C343 C 0.6115 0.29735 0.81311 0.0
C344 C 0.65179 0.33658 0.80058 0.0
C345 C 0.68102 0.31518 0.78411 0.0
C346 C 0.67722 0.32158 0.75409 0.0
C347 C 0.73802 0.34141 0.79472 0.0
C348 C 0.65102 0.25792 0.78935 0.0
C349 C 0.61167 0.24863 0.80655 0.0
C350 C 0.57904 0.19879 0.81451 0.0
C351 C 0.58609 0.15727 0.80423 0.0
C352 C 0.6248 0.1654 0.78576 0.0
C353 C 0.65787 0.21666 0.77847 0.0
H354 H 0.79394 0.92514 0.47245 0.0
H355 H 0.70424 0.9243 0.54101 0.0
H356 H 0.75243 0.89566 0.56837 0.0
H357 H 0.80547 0.813 0.48653 0.0
H358 H 0.87128 0.8414 0.47602 0.0
H359 H 0.82706 0.85813 0.46111 0.0
H360 H 0.89234 0.95633 0.47468 0.0
H361 H 0.93658 0.93988 0.48976 0.0
H362 H 0.91491 0.97839 0.50942 0.0
H363 H 0.81245 0.87129 0.58898 0.0
H364 H 0.88041 0.85142 0.60141 0.0
H365 H 0.93355 0.87055 0.52024 0.0
C366 C 0.78434 0.91891 0.49321 0.0
C367 C 0.7449 0.92663 0.50447 0.0
C368 C 0.73341 0.9176 0.53169 0.0
C369 C 0.76086 0.90171 0.54749 0.0
C370 C 0.79982 0.89514 0.53585 0.0
C371 C 0.81158 0.90332 0.50934 0.0
C372 C 0.85647 0.89507 0.50206 0.0
C373 C 0.83901 0.84916 0.48013 0.0
C374 C 0.90282 0.94542 0.49348 0.0
C375 C 0.8686 0.8818 0.52876 0.0
C376 C 0.83509 0.88163 0.54788 0.0
C377 C 0.83859 0.87077 0.57412 0.0
C378 C 0.87708 0.85925 0.58094 0.0
C379 C 0.91136 0.85855 0.56158 0.0
C380 C 0.90755 0.87069 0.5353 0.0
H381 H 1.01495 0.60977 0.80533 0.0
H382 H 1.0146 0.74816 0.78419 0.0
H383 H 1.10663 0.80192 0.79889 0.0
H384 H 1.07532 0.6592 0.86381 0.0
H385 H 1.11538 0.62965 0.86424 0.0
H386 H 1.05625 0.59864 0.84354 0.0
H387 H 1.10656 0.5996 0.80125 0.0
H388 H 0.16617 0.62973 0.82195 0.0
H389 H 0.1615 0.66016 0.79316 0.0
H390 H 0.18571 0.84299 0.8284 0.0
H391 H 0.24947 0.86695 0.86591 0.0
H392 H 0.20439 0.70363 0.86701 0.0
C393 C 1.03498 0.65104 0.80267 0.0
C394 C 1.00738 0.67454 0.79357 0.0
C395 C 1.03479 0.72879 0.79057 0.0
C396 C 1.08731 0.75991 0.79904 0.0
C397 C 1.11226 0.73622 0.81006 0.0
C398 C 1.08749 0.68271 0.81121 0.0
C399 C 1.12009 0.66807 0.82781 0.0
C400 C 1.08996 0.63712 0.85122 0.0
C401 C 1.13976 0.63759 0.80997 0.0
C402 C 0.16439 0.72189 0.83788 0.0
C403 C 0.15979 0.76061 0.8269 0.0
C404 C 0.19115 0.81316 0.8363 0.0
C405 C 0.22748 0.82643 0.85772 0.0
C406 C 0.23242 0.78732 0.86958 0.0
C407 C 0.20157 0.73462 0.85868 0.0
H408 H 0.48526 0.95597 0.17075 0.0
H409 H 0.35456 0.94508 0.12605 0.0
H410 H 0.40084 1.04087 0.12651 0.0
H411 H 0.50013 1.04888 0.21561 0.0
H412 H 0.57009 1.0846 0.21996 0.0
H413 H 0.5368 1.01657 0.20804 0.0
H414 H 0.59084 1.03691 0.1656 0.0
H415 H 0.62503 0.10544 0.17759 0.0
H416 H 0.5926 1.08415 0.1446 0.0
H417 H 0.44778 0.13485 0.14275 0.0
H418 H 0.49159 0.21745 0.17234 0.0
H419 H 0.59268 0.16942 0.20699 0.0
C420 C 0.46739 0.97375 0.16011 0.0
C421 C 0.41639 0.94313 0.14838 0.0
C422 C 0.39396 0.9676 0.13478 0.0
C423 C 0.42001 1.02216 0.135 0.0
C424 C 0.46872 1.05159 0.14855 0.0
C425 C 0.4927 1.02812 0.16044 0.0
C426 C 0.54028 1.06783 0.17782 0.0
C427 C 0.53652 1.05361 0.20706 0.0
C428 C 0.59014 1.07395 0.16567 0.0
C429 C 0.53655 0.11633 0.17585 0.0
C430 C 0.49613 0.10669 0.15816 0.0
C431 C 0.48061 0.14344 0.15594 0.0
C432 C 0.50575 0.19034 0.17284 0.0
C433 C 0.54551 0.19973 0.19193 0.0
C434 C 0.56246 0.1632 0.1925 0.0
H435 H 0.56726 0.43546 0.50854 0.0
H436 H 0.6721 0.38786 0.47402 0.0
H437 H 0.74216 0.47966 0.47698 0.0
H438 H 0.63124 0.57155 0.48127 0.0
H439 H 0.62036 0.59926 0.51232 0.0
H440 H 0.57434 0.53282 0.49946 0.0
H441 H 0.58414 0.50093 0.5447 0.0
H442 H 0.62994 0.56679 0.55757 0.0
H443 H 0.64799 0.51725 0.55721 0.0
H444 H 0.80526 0.56988 0.49507 0.0
H445 H 0.85441 0.64894 0.5267 0.0
H446 H 0.71034 0.64185 0.54832 0.0
C447 C 0.60442 0.44472 0.50062 0.0
C448 C 0.61402 0.40459 0.49086 0.0
C449 C 0.66334 0.41795 0.48102 0.0
C450 C 0.70354 0.47016 0.48263 0.0
C451 C 0.69368 0.50873 0.49376 0.0
C452 C 0.64496 0.49671 0.50218 0.0
C453 C 0.64655 0.54359 0.51756 0.0
C454 C 0.61633 0.56295 0.50169 0.0
C455 C 0.626 0.53138 0.54592 0.0
C456 C 0.7044 0.5822 0.51868 0.0
C457 C 0.73081 0.56204 0.5041 0.0
C458 C 0.78502 0.58697 0.50577 0.0
C459 C 0.81275 0.63206 0.52376 0.0
C460 C 0.7861 0.65139 0.53998 0.0
C461 C 0.73162 0.62787 0.53609 0.0
H462 H 0.38466 0.64366 0.85358 0.0
H463 H 0.4681 0.62505 0.91921 0.0
H464 H 0.4797 0.70602 0.94366 0.0
H465 H 0.46478 0.7796 0.85372 0.0
H466 H 0.41227 0.79071 0.8459 0.0
H467 H 0.4067 0.7287 0.83525 0.0
H468 H 0.32028 0.68254 0.86038 0.0
H469 H 0.32738 0.74528 0.87108 0.0
H470 H 0.32085 0.70165 0.89567 0.0
H471 H 0.48884 0.79344 0.95929 0.0
H472 H 0.48788 0.87669 0.96611 0.0
H473 H 0.40392 0.83964 0.8889 0.0
C474 C 0.40471 0.65619 0.87326 0.0
C475 C 0.42513 0.62776 0.88453 0.0
C476 C 0.45112 0.64551 0.91038 0.0
C477 C 0.45835 0.69175 0.92434 0.0
C478 C 0.4392 0.71969 0.91225 0.0
C479 C 0.41233 0.70224 0.88743 0.0
C480 C 0.39747 0.74051 0.87836 0.0
C481 C 0.42175 0.76104 0.85172 0.0
C482 C 0.33797 0.71602 0.87626 0.0
C483 C 0.42165 0.78287 0.90151 0.0
C484 C 0.44504 0.77006 0.92104 0.0
C485 C 0.47019 0.80366 0.94423 0.0
C486 C 0.46995 0.85092 0.94784 0.0
C487 C 0.44479 0.86368 0.92835 0.0
C488 C 0.42195 0.82998 0.90456 0.0
H489 H 0.83623 0.33243 0.16336 0.0
H490 H 0.95932 0.44454 0.22089 0.0
H491 H 0.89816 0.46763 0.24226 0.0
H492 H 0.78033 0.40899 0.15318 0.0
H493 H 0.71387 0.35597 0.15062 0.0
H494 H 0.76547 0.34377 0.14145 0.0
H495 H 0.73595 0.27367 0.17515 0.0
H496 H 0.68373 0.28506 0.18426 0.0
H497 H 0.72951 0.29058 0.20986 0.0
H498 H 0.82529 0.48384 0.25504 0.0
H499 H 0.74416 0.48746 0.25974 0.0
H500 H 0.67091 0.36733 0.19292 0.0
C501 C 0.85007 0.36123 0.1807 0.0
C502 C 0.90236 0.38618 0.19064 0.0
C503 C 0.9191 0.42394 0.21331 0.0
C504 C 0.88477 0.43768 0.22547 0.0
C505 C 0.83375 0.4131 0.21483 0.0
C506 C 0.81627 0.37526 0.19314 0.0
C507 C 0.76012 0.35622 0.18493 0.0
C508 C 0.75466 0.36691 0.15583 0.0
C509 C 0.72529 0.29793 0.18879 0.0
C510 C 0.74919 0.39008 0.20499 0.0
C511 C 0.79195 0.42242 0.22219 0.0
C512 C 0.7913 0.45814 0.24193 0.0
C513 C 0.74533 0.46012 0.24441 0.0
C514 C 0.70092 0.42644 0.22734 0.0
C515 C 0.70338 0.39177 0.20712 0.0
H516 H 0.23162 0.69598 0.08683 0.0
H517 H 0.17561 0.53511 0.0552 0.0
H518 H 0.19343 0.56322 0.00908 0.0
H519 H 0.17866 0.73068 0.034 0.0
H520 H 0.23351 0.79616 0.03502 0.0
H521 H 0.21673 0.7628 0.06503 0.0
H522 H 0.30994 0.77765 0.07034 0.0
H523 H 0.32716 0.81109 0.04033 0.0
H524 H 0.33574 0.75573 0.04294 0.0
H525 H 0.21638 0.61067 0.9661 0.0
H526 H 0.24377 0.6722 0.93096 0.0
H527 H 0.28426 0.8004 -0.00756 0.0
C528 C 0.22281 0.66627 0.07033 0.0
C529 C 0.20185 0.61315 0.07465 0.0
C530 C 0.19159 0.576 0.05236 0.0
C531 C 0.20157 0.59164 0.02614 0.0
C532 C 0.22208 0.6445 0.02272 0.0
C533 C 0.2327 0.68111 0.04433 0.0
C534 C 0.25465 0.73549 0.03575 0.0
C535 C 0.21873 0.75755 0.04287 0.0
C536 C 0.31016 0.77213 0.04807 0.0
C537 C 0.25457 0.72405 0.00574 0.0
C538 C 0.23565 0.67144 -0.00152 0.0
C539 C 0.23131 0.65189 0.97164 0.0
C540 C 0.24669 0.68704 0.95183 0.0
C541 C 0.26627 0.74108 0.95901 0.0
C542 C 0.27018 0.75948 0.98635 0.0
H543 H 0.60406 0.13067 0.38587 0.0
H544 H 0.49749 0.17106 0.42541 0.0
H545 H 0.49704 0.21704 0.38691 0.0
H546 H 0.6786 0.24937 0.35515 0.0
H547 H 0.68484 0.2182 0.324 0.0
H548 H 0.6777 0.18824 0.35479 0.0
H549 H 0.59738 0.10318 0.33334 0.0
H550 H 0.60468 0.13263 0.30238 0.0
H551 H 0.54377 0.10631 0.31859 0.0
H552 H 0.51082 0.26233 0.34548 0.0
H553 H 0.52853 0.29379 0.30036 0.0
H554 H 0.62183 0.22051 0.28587 0.0
C555 C 0.58029 0.14879 0.38632 0.0
C556 C 0.55119 0.14751 0.40887 0.0
C557 C 0.5204 0.17157 0.40854 0.0
C558 C 0.51997 0.19806 0.38677 0.0
C559 C 0.54989 0.19959 0.36518 0.0
C560 C 0.57867 0.17479 0.36446 0.0
C561 C 0.60584 0.18104 0.33824 0.0
C562 C 0.66528 0.211 0.34336 0.0
C563 C 0.58676 0.12761 0.32219 0.0
C564 C 0.58785 0.21329 0.32449 0.0
C565 C 0.55623 0.22417 0.34061 0.0
C566 C 0.53535 0.25392 0.33258 0.0
C567 C 0.54596 0.272 0.30705 0.0
C568 C 0.57664 0.25973 0.28975 0.0
C569 C 0.59824 0.23042 0.29874 0.0
H570 H 0.69907 0.53803 0.73531 0.0
H571 H 0.5962 0.60161 0.74486 0.0
H572 H 0.63469 0.65322 0.70638 0.0
H573 H 0.80961 0.65369 0.72127 0.0
H574 H 0.83271 0.62282 0.69694 0.0
H575 H 0.7937 0.58709 0.72346 0.0
H576 H 0.72726 0.514 0.68824 0.0
H577 H 0.76675 0.54915 0.66169 0.0
H578 H 0.69918 0.53104 0.66164 0.0
H579 H 0.68905 0.7026 0.66884 0.0
H580 H 0.74859 0.7384 0.63181 0.0
H581 H 0.81654 0.64379 0.64798 0.0
C582 C 0.68369 0.56184 0.72896 0.0
C583 C 0.64449 0.56564 0.74304 0.0
C584 C 0.6258 0.59761 0.7342 0.0
C585 C 0.64776 0.62744 0.71252 0.0
C586 C 0.68806 0.62455 0.6999 0.0
C587 C 0.7052 0.59187 0.70752 0.0
C588 C 0.74989 0.59674 0.69122 0.0
C589 C 0.79939 0.61623 0.70931 0.0
C590 C 0.73485 0.54465 0.67471 0.0
C591 C 0.75565 0.63771 0.67335 0.0
C592 C 0.71974 0.65341 0.6787 0.0
C593 C 0.71733 0.69066 0.66452 0.0
C594 C 0.75148 0.71114 0.6438 0.0
C595 C 0.78752 0.69452 0.63775 0.0
C596 C 0.79005 0.6579 0.65285 0.0
H597 H 0.63446 0.1518 0.58051 0.0
H598 H 0.56667 0.98821 0.55102 0.0
H599 H 0.56931 0.96648 0.59754 0.0
H600 H 0.72238 0.15107 0.63244 0.0
H601 H 0.71534 0.19659 0.6557 0.0
H602 H 0.70979 0.1991 0.61999 0.0
H603 H 0.61903 0.18987 0.62508 0.0
H604 H 0.62407 0.18678 0.66073 0.0
H605 H 0.56926 0.13499 0.6406 0.0
H606 H 0.5704 0.96188 0.64791 0.0
H607 H 0.57863 0.97515 0.69727 0.0
H608 H 0.65553 0.14329 0.69348 0.0
C609 C 0.62068 0.11147 0.58382 0.0
C610 C 0.60012 1.07161 0.56216 0.0
C611 C 0.58279 1.01938 0.56728 0.0
C612 C 0.58395 1.00666 0.59365 0.0
C613 C 0.60358 1.04677 0.61462 0.0
C614 C 0.62265 1.09827 0.60992 0.0
C615 C 0.64203 0.13403 0.63594 0.0
C616 C 0.70088 0.17246 0.63601 0.0
C617 C 0.61178 0.16312 0.64087 0.0
C618 C 0.62952 1.09447 0.65611 0.0
C619 C 0.60709 1.04436 0.64343 0.0
C620 C 0.58914 1.0011 0.658 0.0
C621 C 0.59449 1.00924 0.68622 0.0
C622 C 0.6185 1.06044 0.69985 0.0
C623 C 0.6365 0.10346 0.68421 0.0
H624 H 0.58428 0.53154 0.91774 0.0
H625 H 0.74379 0.64929 0.90523 0.0
H626 H 0.7609 0.67139 0.95412 0.0
H627 H 0.56636 0.60466 0.97505 0.0
H628 H 0.52796 0.54747 -0.00764 0.0
H629 H 0.52711 0.54184 0.95614 0.0
H630 H 0.55444 0.47179 0.9567 0.0
H631 H 0.55533 0.47716 -0.00711 0.0
H632 H 0.61243 0.48674 0.97599 0.0
H633 H 0.76251 0.6789 0.00426 0.0
H634 H 0.74785 0.67127 0.05268 0.0
H635 H 0.58777 0.54896 0.03332 0.0
C636 C 0.62272 0.56218 0.92525 0.0
C637 C 0.66263 0.58856 0.90748 0.0
C638 C 0.71243 0.62836 0.91827 0.0
C639 C 0.72262 0.64136 0.94609 0.0
C640 C 0.68265 0.61445 0.963 0.0
C641 C 0.63364 0.5758 0.95308 0.0
C642 C 0.59805 0.5522 0.97582 0.0
C643 C 0.55216 0.56215 0.97477 0.0
C644 C 0.57896 0.4935 0.97531 0.0
C645 C 0.63501 0.58312 1e-05 0.0
C646 C 0.68354 0.61896 0.99211 0.0
C647 C 0.72461 0.65111 0.01072 0.0
C648 C 0.71601 0.6463 0.03817 0.0
C649 C 0.66673 0.60957 0.04683 0.0
C650 C 0.62567 0.57792 0.02738 0.0
H651 H 1.08848 0.53664 0.24107 0.0
H652 H 0.24663 0.56629 0.24042 0.0
H653 H 0.24923 0.56589 0.28972 0.0
H654 H 1.10973 0.62282 0.29672 0.0
H655 H 1.04771 0.58484 0.31106 0.0
H656 H 1.05353 0.57664 0.27541 0.0
H657 H 1.01669 0.47756 0.27733 0.0
H658 H 1.01031 0.48526 0.31306 0.0
H659 H 1.04699 0.45572 0.30025 0.0
H660 H 0.24038 0.57504 0.33843 0.0
H661 H 0.22047 0.59357 0.38452 0.0
H662 H 1.06851 0.56031 0.35521 0.0
C663 C 1.12277 0.54105 0.25135 0.0
C664 C 0.16712 0.55064 0.23709 0.0
C665 C 0.21219 0.55838 0.25109 0.0
C666 C 0.21394 0.55805 0.27905 0.0
C667 C 0.17036 0.55025 0.29275 0.0
C668 C 1.12546 0.54172 0.27948 0.0
C669 C 1.08668 0.54077 0.29943 0.0
C670 C 1.07368 0.58384 0.29541 0.0
C671 C 1.03724 0.48659 0.29739 0.0
C672 C 1.11763 0.55198 0.32584 0.0
C673 C 0.16545 0.55644 0.32141 0.0
C674 C 0.20273 0.57073 0.34225 0.0
C675 C 0.19123 0.58144 0.36831 0.0
C676 C 1.14294 0.578 0.37335 0.0
C677 C 1.10529 0.56214 0.35191 0.0
loop_
_geom_bond_atom_site_label_1
_geom_bond_atom_site_label_2
_geom_bond_distance
_geom_bond_site_symmetry_2
_ccdc_geom_bond_type
Eu0 C9 2.828 . S
Eu0 O11 2.392 1_655 S
Eu0 O13 2.418 . S
Eu0 O18 2.373 . S
Eu0 O21 2.488 . S
Eu0 O22 2.471 . S
Eu0 O23 2.349 1_655 S
Eu1 O10 2.373 . S
Eu1 O14 2.488 . S
Eu1 O15 2.471 . S
Eu1 O16 2.349 . S
Eu1 O19 2.392 1_455 S
Eu1 O20 2.418 . S
Eu1 C30 2.828 . S
C2 O20 1.244 . S
C2 O23 1.265 . S
C3 C4 1.379 . S
C3 C7 1.373 . S
C3 C9 1.505 . S
C4 C3 1.379 . S
C4 C6 1.369 . S
C4 H32 0.930 . S
C5 C7 1.383 . S
C5 C8 1.382 . S
C5 H33 0.930 . S
C6 C4 1.369 . S
C6 C8 1.392 . S
C6 H34 0.930 . S
C7 C3 1.373 . S
C7 C5 1.383 . S
C7 H35 0.931 . S
C8 C5 1.382 . S
C8 C6 1.392 . S
C9 Eu0 2.828 . S
C9 C3 1.505 . S
C9 O21 1.249 . S
C9 O22 1.244 . S
O10 Eu1 2.373 . S
O10 C12 1.258 . S
O11 Eu0 2.392 1_455 S
O11 C12 1.242 . S
C12 O10 1.258 . S
C12 O11 1.242 . S
O13 Eu0 2.418 . S
O13 C17 1.244 1_655 S
O14 Eu1 2.488 . S
O14 C30 1.249 . S
O15 Eu1 2.471 . S
O15 C30 1.244 . S
O16 Eu1 2.349 . S
O16 C17 1.265 . S
C17 O13 1.244 1_455 S
C17 O16 1.265 . S
O18 Eu0 2.373 . S
O18 C31 1.258 . S
O19 Eu1 2.392 1_655 S
O19 C31 1.242 . S
O20 Eu1 2.418 . S
O20 C2 1.244 . S
O21 Eu0 2.488 . S
O21 C9 1.249 . S
O22 Eu0 2.471 . S
O22 C9 1.244 . S
O23 Eu0 2.349 1_455 S
O23 C2 1.265 . S
C24 C25 1.379 . S
C24 C28 1.373 . S
C24 C30 1.505 . S
C25 C24 1.379 . S
C25 C27 1.369 . S
C25 H36 0.930 . S
C26 C28 1.383 . S
C26 C29 1.382 . S
C26 H37 0.930 . S
C27 C25 1.369 . S
C27 C29 1.392 . S
C27 H38 0.930 . S
C28 C24 1.373 . S
C28 C26 1.383 . S
C28 H39 0.931 . S
C29 C26 1.382 . S
C29 C27 1.392 . S
C30 Eu1 2.828 . S
C30 O14 1.249 . S
C30 O15 1.244 . S
C30 C24 1.505 . S
C31 O18 1.258 . S
C31 O19 1.242 . S
H32 C4 0.930 . S
H33 C5 0.930 . S
H34 C6 0.930 . S
H35 C7 0.931 . S
H36 C25 0.930 . S
H37 C26 0.930 . S
H38 C27 0.930 . S
H39 C28 0.931 . S
Eu40 C49 2.828 . S
Eu40 O51 2.392 1_565 S
Eu40 O53 2.418 . S
Eu40 O58 2.373 . S
Eu40 O61 2.488 . S
Eu40 O62 2.471 . S
Eu40 O63 2.349 1_565 S
Eu41 O50 2.373 . S
Eu41 O54 2.488 . S
Eu41 O55 2.471 . S
Eu41 O56 2.349 . S
Eu41 O59 2.392 1_545 S
Eu41 O60 2.418 . S
Eu41 C70 2.828 . S
C42 O60 1.244 . S
C42 O63 1.265 . S
C43 C44 1.379 . S
C43 C47 1.373 . S
C43 C49 1.505 . S
C44 C43 1.379 . S
C44 C46 1.369 . S
C44 H72 0.930 . S
C45 C47 1.383 . S
C45 C48 1.382 . S
C45 H73 0.930 . S
C46 C44 1.369 . S
C46 C48 1.392 . S
C46 H74 0.930 . S
C47 C43 1.373 . S
C47 C45 1.383 . S
C47 H75 0.931 . S
C48 C45 1.382 . S
C48 C46 1.392 . S
C49 Eu40 2.828 . S
C49 C43 1.505 . S
C49 O61 1.249 . S
C49 O62 1.244 . S
O50 Eu41 2.373 . S
O50 C52 1.258 . S
O51 Eu40 2.392 1_545 S
O51 C52 1.242 . S
C52 O50 1.258 . S
C52 O51 1.242 . S
O53 Eu40 2.418 . S
O53 C57 1.244 1_565 S
O54 Eu41 2.488 . S
O54 C70 1.249 . S
O55 Eu41 2.471 . S
O55 C70 1.244 . S
O56 Eu41 2.349 . S
O56 C57 1.265 . S
C57 O53 1.244 1_545 S
C57 O56 1.265 . S
O58 Eu40 2.373 . S
O58 C71 1.258 . S
O59 Eu41 2.392 1_565 S
O59 C71 1.242 . S
O60 Eu41 2.418 . S
O60 C42 1.244 . S
O61 Eu40 2.488 . S
O61 C49 1.249 . S
O62 Eu40 2.471 . S
O62 C49 1.244 . S
O63 Eu40 2.349 1_545 S
O63 C42 1.265 . S
C64 C65 1.379 . S
C64 C68 1.373 . S
C64 C70 1.505 . S
C65 C64 1.379 . S
C65 C67 1.369 . S
C65 H76 0.930 . S
C66 C68 1.383 . S
C66 C69 1.382 . S
C66 H77 0.930 . S
C67 C65 1.369 . S
C67 C69 1.392 . S
C67 H78 0.930 . S
C68 C64 1.373 . S
C68 C66 1.383 . S
C68 H79 0.931 . S
C69 C66 1.382 . S
C69 C67 1.392 . S
C70 Eu41 2.828 . S
C70 O54 1.249 . S
C70 O55 1.244 . S
C70 C64 1.505 . S
C71 O58 1.258 . S
C71 O59 1.242 . S
H72 C44 0.930 . S
H73 C45 0.930 . S
H74 C46 0.930 . S
H75 C47 0.931 . S
H76 C65 0.930 . S
H77 C66 0.930 . S
H78 C67 0.930 . S
H79 C68 0.931 . S
Eu80 C89 2.828 . S
Eu80 O91 2.392 . S
Eu80 O93 2.418 . S
Eu80 O98 2.373 . S
Eu80 O101 2.488 . S
Eu80 O102 2.471 . S
Eu80 O103 2.349 . S
Eu81 O90 2.373 . S
Eu81 O94 2.488 . S
Eu81 O95 2.471 . S
Eu81 O96 2.349 . S
Eu81 O99 2.392 . S
Eu81 O100 2.418 . S
Eu81 C110 2.828 . S
C82 O100 1.244 . S
C82 O103 1.265 . S
C83 C84 1.379 . S
C83 C87 1.373 . S
C83 C89 1.505 . S
C84 C83 1.379 . S
C84 C86 1.369 . S
C84 H112 0.930 . S
C85 C87 1.383 . S
C85 C88 1.382 . S
C85 H113 0.930 . S
C86 C84 1.369 . S
C86 C88 1.392 . S
C86 H114 0.930 . S
C87 C83 1.373 . S
C87 C85 1.383 . S
C87 H115 0.931 . S
C88 C85 1.382 . S
C88 C86 1.392 . S
C89 Eu80 2.828 . S
C89 C83 1.505 . S
C89 O101 1.249 . S
C89 O102 1.244 . S
O90 Eu81 2.373 . S
O90 C92 1.258 . S
O91 Eu80 2.392 . S
O91 C92 1.242 . S
C92 O90 1.258 . S
C92 O91 1.242 . S
O93 Eu80 2.418 . S
O93 C97 1.244 . S
O94 Eu81 2.488 . S
O94 C110 1.249 . S
O95 Eu81 2.471 . S
O95 C110 1.244 . S
O96 Eu81 2.349 . S
O96 C97 1.265 . S
C97 O93 1.244 . S
C97 O96 1.265 . S
O98 Eu80 2.373 . S
O98 C111 1.258 . S
O99 Eu81 2.392 . S
O99 C111 1.242 . S
O100 Eu81 2.418 . S
O100 C82 1.244 . S
O101 Eu80 2.488 . S
O101 C89 1.249 . S
O102 Eu80 2.471 . S
O102 C89 1.244 . S
O103 Eu80 2.349 . S
O103 C82 1.265 . S
C104 C105 1.379 . S
C104 C108 1.373 . S
C104 C110 1.505 . S
C105 C104 1.379 . S
C105 C107 1.369 . S
C105 H116 0.930 . S
C106 C108 1.383 . S
C106 C109 1.382 . S
C106 H117 0.930 . S
C107 C105 1.369 . S
C107 C109 1.392 . S
C107 H118 0.930 . S
C108 C104 1.373 . S
C108 C106 1.383 . S
C108 H119 0.931 . S
C109 C106 1.382 . S
C109 C107 1.392 . S
C110 Eu81 2.828 . S
C110 O94 1.249 . S
C110 O95 1.244 . S
C110 C104 1.505 . S
C111 O98 1.258 . S
C111 O99 1.242 . S
H112 C84 0.930 . S
H113 C85 0.930 . S
H114 C86 0.930 . S
H115 C87 0.931 . S
H116 C105 0.930 . S
H117 C106 0.930 . S
H118 C107 0.930 . S
H119 C108 0.931 . S
H120 C125 0.930 . S
H121 C128 0.930 . S
H122 C130 0.930 1_565 S
H123 C124 1.016 . S
C124 H123 1.016 . S
C124 N131 1.286 . S
C125 H120 0.930 . S
C125 C126 1.397 . S
C125 C127 1.361 . S
C126 C125 1.397 . S
C126 C130 1.390 . S
C127 C125 1.361 . S
C127 C128 1.393 . S
C127 N131 1.413 . S
C128 H121 0.930 . S
C128 C127 1.393 . S
C128 C129 1.399 . S
C129 C128 1.399 . S
C129 C130 1.381 . S
C130 H122 0.930 1_545 S
C130 C126 1.390 . S
C130 C129 1.381 . S
N131 C124 1.286 . S
N131 C127 1.413 . S
H132 C137 0.930 . S
H133 C140 0.930 . S
H134 C142 0.930 . S
H135 C136 1.016 . S
C136 H135 1.016 . S
C136 N143 1.286 . S
C137 H132 0.930 . S
C137 C138 1.397 . S
C137 C139 1.361 . S
C138 C137 1.397 . S
C138 C142 1.390 . S
C139 C137 1.361 . S
C139 C140 1.393 . S
C139 N143 1.413 . S
C140 H133 0.930 . S
C140 C139 1.393 . S
C140 C141 1.399 . S
C141 C140 1.399 . S
C141 C142 1.381 . S
C142 H134 0.930 . S
C142 C138 1.390 . S
C142 C141 1.381 . S
N143 C136 1.286 . S
N143 C139 1.413 . S
H144 C149 0.930 . S
H145 C152 0.930 . S
H146 C154 0.930 . S
H147 C148 1.016 . S
C148 H147 1.016 . S
C148 N155 1.286 . S
C149 H144 0.930 . S
C149 C150 1.397 1_455 S
C149 C151 1.361 . S
C150 C149 1.397 1_655 S
C150 C154 1.390 . S
C151 C149 1.361 . S
C151 C152 1.393 . S
C151 N155 1.413 . S
C152 H145 0.930 . S
C152 C151 1.393 . S
C152 C153 1.399 . S
C153 C152 1.399 . S
C153 C154 1.381 1_455 S
C154 H146 0.930 . S
C154 C150 1.390 . S
C154 C153 1.381 1_655 S
N155 C148 1.286 . S
N155 C151 1.413 . S
H156 C161 0.930 . S
H157 C164 0.930 . S
H158 C166 0.930 . S
H159 C160 1.016 . S
C160 H159 1.016 . S
C160 N167 1.286 . S
C161 H156 0.930 . S
C161 C162 1.397 . S
C161 C163 1.361 1_455 S
C162 C161 1.397 . S
C162 C166 1.390 . S
C163 C161 1.361 1_655 S
C163 C164 1.393 . S
C163 N167 1.413 . S
C164 H157 0.930 . S
C164 C163 1.393 . S
C164 C165 1.399 1_655 S
C165 C164 1.399 1_455 S
C165 C166 1.381 . S
C166 H158 0.930 . S
C166 C162 1.390 . S
C166 C165 1.381 . S
N167 C160 1.286 . S
N167 C163 1.413 . S
H168 C173 0.930 . S
H169 C176 0.930 1_565 S
H170 C178 0.930 . S
H171 C172 1.016 . S
C172 H171 1.016 . S
C172 N179 1.286 . S
C173 H168 0.930 . S
C173 C174 1.397 . S
C173 C175 1.361 . S
C174 C173 1.397 . S
C174 C178 1.390 . S
C175 C173 1.361 . S
C175 C176 1.393 . S
C175 N179 1.413 1_545 S
C176 H169 0.930 1_545 S
C176 C175 1.393 . S
C176 C177 1.399 . S
C177 C176 1.399 . S
C177 C178 1.381 . S
C178 H170 0.930 . S
C178 C174 1.390 . S
C178 C177 1.381 . S
N179 C172 1.286 . S
N179 C175 1.413 1_565 S
H180 C185 0.930 . S
H181 C188 0.930 . S
H182 C190 0.930 . S
H183 C184 1.016 . S
C184 H183 1.016 . S
C184 N191 1.286 . S
C185 H180 0.930 . S
C185 C186 1.397 . S
C185 C187 1.361 . S
C186 C185 1.397 . S
C186 C190 1.390 . S
C187 C185 1.361 . S
C187 C188 1.393 . S
C187 N191 1.413 . S
C188 H181 0.930 . S
C188 C187 1.393 . S
C188 C189 1.399 . S
C189 C188 1.399 . S
C189 C190 1.381 . S
C190 H182 0.930 . S
C190 C186 1.390 . S
C190 C189 1.381 . S
N191 C184 1.286 . S
N191 C187 1.413 . S
H192 C204 0.930 . S
H193 C206 0.930 . S
H194 C207 0.930 . S
H195 C211 0.959 . S
H196 C211 0.959 . S
H197 C211 0.961 . S
H198 C212 0.960 . S
H199 C212 0.961 . S
H200 C212 0.959 . S
H201 C215 0.929 . S
H202 C216 0.931 . S
H203 C218 0.930 . S
C204 H192 0.930 . S
C204 C205 1.399 . S
C204 C209 1.399 . S
C205 C204 1.399 . S
C205 C206 1.376 . S
C206 H193 0.930 . S
C206 C205 1.376 . S
C206 C207 1.388 . S
C207 H194 0.930 . S
C207 C206 1.388 . S
C207 C208 1.390 . S
C208 C207 1.390 . S
C208 C209 1.394 . S
C208 C214 1.465 . S
C209 C204 1.399 . S
C209 C208 1.394 . S
C209 C210 1.516 . S
C210 C209 1.516 . S
C210 C211 1.502 . S
C210 C212 1.561 . S
C210 C213 1.526 . S
C211 H195 0.959 . S
C211 H196 0.959 . S
C211 H197 0.961 . S
C211 C210 1.502 . S
C212 H198 0.960 . S
C212 H199 0.961 . S
C212 H200 0.959 . S
C212 C210 1.561 . S
C213 C210 1.526 . S
C213 C214 1.396 . S
C213 C218 1.390 . S
C214 C208 1.465 . S
C214 C213 1.396 . S
C214 C215 1.399 . S
C215 H201 0.929 . S
C215 C214 1.399 . S
C215 C216 1.385 . S
C216 H202 0.931 . S
C216 C215 1.385 . S
C216 C217 1.389 . S
C217 C216 1.389 . S
C217 C218 1.387 . S
C218 H203 0.930 . S
C218 C213 1.390 . S
C218 C217 1.387 . S
H219 C231 0.930 . S
H220 C233 0.930 . S
H221 C234 0.930 . S
H222 C238 0.959 . S
H223 C238 0.959 . S
H224 C238 0.961 . S
H225 C239 0.960 . S
H226 C239 0.961 . S
H227 C239 0.959 . S
H228 C242 0.929 . S
H229 C243 0.931 . S
H230 C245 0.930 . S
C231 H219 0.930 . S
C231 C232 1.399 . S
C231 C236 1.399 . S
C232 C231 1.399 . S
C232 C233 1.376 . S
C233 H220 0.930 . S
C233 C232 1.376 . S
C233 C234 1.388 . S
C234 H221 0.930 . S
C234 C233 1.388 . S
C234 C235 1.390 . S
C235 C234 1.390 . S
C235 C236 1.394 . S
C235 C241 1.465 . S
C236 C231 1.399 . S
C236 C235 1.394 . S
C236 C237 1.516 . S
C237 C236 1.516 . S
C237 C238 1.502 . S
C237 C239 1.561 . S
C237 C240 1.526 . S
C238 H222 0.959 . S
C238 H223 0.959 . S
C238 H224 0.961 . S
C238 C237 1.502 . S
C239 H225 0.960 . S
C239 H226 0.961 . S
C239 H227 0.959 . S
C239 C237 1.561 . S
C240 C237 1.526 . S
C240 C241 1.396 . S
C240 C245 1.390 . S
C241 C235 1.465 . S
C241 C240 1.396 . S
C241 C242 1.399 . S
C242 H228 0.929 . S
C242 C241 1.399 . S
C242 C243 1.385 . S
C243 H229 0.931 . S
C243 C242 1.385 . S
C243 C244 1.389 . S
C244 C243 1.389 . S
C244 C245 1.387 . S
C245 H230 0.930 . S
C245 C240 1.390 . S
C245 C244 1.387 . S
H246 C258 0.930 . S
H247 C260 0.930 . S
H248 C261 0.930 . S
H249 C265 0.959 . S
H250 C265 0.959 . S
H251 C265 0.961 . S
H252 C266 0.960 . S
H253 C266 0.961 . S
H254 C266 0.959 . S
H255 C269 0.929 . S
H256 C270 0.931 . S
H257 C272 0.930 . S
C258 H246 0.930 . S
C258 C259 1.399 . S
C258 C263 1.399 . S
C259 C258 1.399 . S
C259 C260 1.376 . S
C260 H247 0.930 . S
C260 C259 1.376 . S
C260 C261 1.388 . S
C261 H248 0.930 . S
C261 C260 1.388 . S
C261 C262 1.390 . S
C262 C261 1.390 . S
C262 C263 1.394 . S
C262 C268 1.465 . S
C263 C258 1.399 . S
C263 C262 1.394 . S
C263 C264 1.516 . S
C264 C263 1.516 . S
C264 C265 1.502 . S
C264 C266 1.561 . S
C264 C267 1.526 . S
C265 H249 0.959 . S
C265 H250 0.959 . S
C265 H251 0.961 . S
C265 C264 1.502 . S
C266 H252 0.960 . S
C266 H253 0.961 . S
C266 H254 0.959 . S
C266 C264 1.561 . S
C267 C264 1.526 . S
C267 C268 1.396 . S
C267 C272 1.390 . S
C268 C262 1.465 . S
C268 C267 1.396 . S
C268 C269 1.399 . S
C269 H255 0.929 . S
C269 C268 1.399 . S
C269 C270 1.385 . S
C270 H256 0.931 . S
C270 C269 1.385 . S
C270 C271 1.389 . S
C271 C270 1.389 . S
C271 C272 1.387 . S
C272 H257 0.930 . S
C272 C267 1.390 . S
C272 C271 1.387 . S
H273 C285 0.930 . S
H274 C287 0.930 . S
H275 C288 0.930 . S
H276 C292 0.959 . S
H277 C292 0.959 . S
H278 C292 0.961 . S
H279 C293 0.960 . S
H280 C293 0.961 . S
H281 C293 0.959 . S
H282 C296 0.929 . S
H283 C297 0.931 . S
H284 C299 0.930 . S
C285 H273 0.930 . S
C285 C286 1.399 . S
C285 C290 1.399 . S
C286 C285 1.399 . S
C286 C287 1.376 . S
C287 H274 0.930 . S
C287 C286 1.376 . S
C287 C288 1.388 . S
C288 H275 0.930 . S
C288 C287 1.388 . S
C288 C289 1.390 . S
C289 C288 1.390 . S
C289 C290 1.394 . S
C289 C295 1.465 . S
C290 C285 1.399 . S
C290 C289 1.394 . S
C290 C291 1.516 . S
C291 C290 1.516 . S
C291 C292 1.502 . S
C291 C293 1.561 . S
C291 C294 1.526 . S
C292 H276 0.959 . S
C292 H277 0.959 . S
C292 H278 0.961 . S
C292 C291 1.502 . S
C293 H279 0.960 . S
C293 H280 0.961 . S
C293 H281 0.959 . S
C293 C291 1.561 . S
C294 C291 1.526 . S
C294 C295 1.396 . S
C294 C299 1.390 . S
C295 C289 1.465 . S
C295 C294 1.396 . S
C295 C296 1.399 . S
C296 H282 0.929 . S
C296 C295 1.399 . S
C296 C297 1.385 . S
C297 H283 0.931 . S
C297 C296 1.385 . S
C297 C298 1.389 . S
C298 C297 1.389 . S
C298 C299 1.387 . S
C299 H284 0.930 . S
C299 C294 1.390 . S
C299 C298 1.387 . S
H300 C312 0.930 . S
H301 C314 0.930 . S
H302 C315 0.930 . S
H303 C319 0.959 . S
H304 C319 0.959 . S
H305 C319 0.961 . S
H306 C320 0.960 . S
H307 C320 0.961 . S
H308 C320 0.959 . S
H309 C323 0.929 . S
H310 C324 0.931 . S
H311 C326 0.930 . S
C312 H300 0.930 . S
C312 C313 1.399 . S
C312 C317 1.399 . S
C313 C312 1.399 . S
C313 C314 1.376 . S
C314 H301 0.930 . S
C314 C313 1.376 . S
C314 C315 1.388 . S
C315 H302 0.930 . S
C315 C314 1.388 . S
C315 C316 1.390 . S
C316 C315 1.390 . S
C316 C317 1.394 . S
C316 C322 1.465 . S
C317 C312 1.399 . S
C317 C316 1.394 . S
C317 C318 1.516 . S
C318 C317 1.516 . S
C318 C319 1.502 . S
C318 C320 1.561 . S
C318 C321 1.526 . S
C319 H303 0.959 . S
C319 H304 0.959 . S
C319 H305 0.961 . S
C319 C318 1.502 . S
C320 H306 0.960 . S
C320 H307 0.961 . S
C320 H308 0.959 . S
C320 C318 1.561 . S
C321 C318 1.526 . S
C321 C322 1.396 . S
C321 C326 1.390 . S
C322 C316 1.465 . S
C322 C321 1.396 . S
C322 C323 1.399 . S
C323 H309 0.929 . S
C323 C322 1.399 . S
C323 C324 1.385 . S
C324 H310 0.931 . S
C324 C323 1.385 . S
C324 C325 1.389 . S
C325 C324 1.389 . S
C325 C326 1.387 . S
C326 H311 0.930 . S
C326 C321 1.390 . S
C326 C325 1.387 . S
H327 C339 0.930 . S
H328 C341 0.930 . S
H329 C342 0.930 . S
H330 C346 0.959 . S
H331 C346 0.959 . S
H332 C346 0.961 . S
H333 C347 0.960 . S
H334 C347 0.961 . S
H335 C347 0.959 . S
H336 C350 0.929 . S
H337 C351 0.931 . S
H338 C353 0.930 . S
C339 H327 0.930 . S
C339 C340 1.399 . S
C339 C344 1.399 . S
C340 C339 1.399 . S
C340 C341 1.376 . S
C341 H328 0.930 . S
C341 C340 1.376 . S
C341 C342 1.388 . S
C342 H329 0.930 . S
C342 C341 1.388 . S
C342 C343 1.390 . S
C343 C342 1.390 . S
C343 C344 1.394 . S
C343 C349 1.465 . S
C344 C339 1.399 . S
C344 C343 1.394 . S
C344 C345 1.516 . S
C345 C344 1.516 . S
C345 C346 1.502 . S
C345 C347 1.561 . S
C345 C348 1.526 . S
C346 H330 0.959 . S
C346 H331 0.959 . S
C346 H332 0.961 . S
C346 C345 1.502 . S
C347 H333 0.960 . S
C347 H334 0.961 . S
C347 H335 0.959 . S
C347 C345 1.561 . S
C348 C345 1.526 . S
C348 C349 1.396 . S
C348 C353 1.390 . S
C349 C343 1.465 . S
C349 C348 1.396 . S
C349 C350 1.399 . S
C350 H336 0.929 . S
C350 C349 1.399 . S
C350 C351 1.385 . S
C351 H337 0.931 . S
C351 C350 1.385 . S
C351 C352 1.389 . S
C352 C351 1.389 . S
C352 C353 1.387 . S
C353 H338 0.930 . S
C353 C348 1.390 . S
C353 C352 1.387 . S
H354 C366 0.930 . S
H355 C368 0.930 . S
H356 C369 0.930 . S
H357 C373 0.959 . S
H358 C373 0.959 . S
H359 C373 0.961 . S
H360 C374 0.960 . S
H361 C374 0.961 . S
H362 C374 0.959 . S
H363 C377 0.929 . S
H364 C378 0.931 . S
H365 C380 0.930 . S
C366 H354 0.930 . S
C366 C367 1.399 . S
C366 C371 1.399 . S
C367 C366 1.399 . S
C367 C368 1.376 . S
C368 H355 0.930 . S
C368 C367 1.376 . S
C368 C369 1.388 . S
C369 H356 0.930 . S
C369 C368 1.388 . S
C369 C370 1.390 . S
C370 C369 1.390 . S
C370 C371 1.394 . S
C370 C376 1.465 . S
C371 C366 1.399 . S
C371 C370 1.394 . S
C371 C372 1.516 . S
C372 C371 1.516 . S
C372 C373 1.502 . S
C372 C374 1.561 . S
C372 C375 1.526 . S
C373 H357 0.959 . S
C373 H358 0.959 . S
C373 H359 0.961 . S
C373 C372 1.502 . S
C374 H360 0.960 . S
C374 H361 0.961 . S
C374 H362 0.959 . S
C374 C372 1.561 . S
C375 C372 1.526 . S
C375 C376 1.396 . S
C375 C380 1.390 . S
C376 C370 1.465 . S
C376 C375 1.396 . S
C376 C377 1.399 . S
C377 H363 0.929 . S
C377 C376 1.399 . S
C377 C378 1.385 . S
C378 H364 0.931 . S
C378 C377 1.385 . S
C378 C379 1.389 . S
C379 C378 1.389 . S
C379 C380 1.387 . S
C380 H365 0.930 . S
C380 C375 1.390 . S
C380 C379 1.387 . S
H381 C393 0.930 . S
H382 C395 0.930 . S
H383 C396 0.930 . S
H384 C400 0.959 . S
H385 C400 0.959 . S
H386 C400 0.961 . S
H387 C401 0.960 . S
H388 C401 0.961 . S
H389 C401 0.959 . S
H390 C404 0.929 . S
H391 C405 0.931 . S
H392 C407 0.930 . S
C393 H381 0.930 . S
C393 C394 1.399 . S
C393 C398 1.399 . S
C394 C393 1.399 . S
C394 C395 1.376 . S
C395 H382 0.930 . S
C395 C394 1.376 . S
C395 C396 1.388 . S
C396 H383 0.930 . S
C396 C395 1.388 . S
C396 C397 1.390 . S
C397 C396 1.390 . S
C397 C398 1.394 . S
C397 C403 1.465 . S
C398 C393 1.399 . S
C398 C397 1.394 . S
C398 C399 1.516 . S
C399 C398 1.516 . S
C399 C400 1.502 . S
C399 C401 1.561 . S
C399 C402 1.526 . S
C400 H384 0.959 . S
C400 H385 0.959 . S
C400 H386 0.961 . S
C400 C399 1.502 . S
C401 H387 0.960 . S
C401 H388 0.961 . S
C401 H389 0.959 . S
C401 C399 1.561 . S
C402 C399 1.526 . S
C402 C403 1.396 . S
C402 C407 1.390 . S
C403 C397 1.465 . S
C403 C402 1.396 . S
C403 C404 1.399 . S
C404 H390 0.929 . S
C404 C403 1.399 . S
C404 C405 1.385 . S
C405 H391 0.931 . S
C405 C404 1.385 . S
C405 C406 1.389 . S
C406 C405 1.389 . S
C406 C407 1.387 . S
C407 H392 0.930 . S
C407 C402 1.390 . S
C407 C406 1.387 . S
H408 C420 0.930 . S
H409 C422 0.930 . S
H410 C423 0.930 . S
H411 C427 0.959 . S
H412 C427 0.959 . S
H413 C427 0.961 . S
H414 C428 0.960 . S
H415 C428 0.961 . S
H416 C428 0.959 . S
H417 C431 0.929 . S
H418 C432 0.931 1_545 S
H419 C434 0.930 . S
C420 H408 0.930 . S
C420 C421 1.399 . S
C420 C425 1.399 . S
C421 C420 1.399 . S
C421 C422 1.376 . S
C422 H409 0.930 . S
C422 C421 1.376 . S
C422 C423 1.388 . S
C423 H410 0.930 . S
C423 C422 1.388 . S
C423 C424 1.390 . S
C424 C423 1.390 . S
C424 C425 1.394 . S
C424 C430 1.465 . S
C425 C420 1.399 . S
C425 C424 1.394 . S
C425 C426 1.516 . S
C426 C425 1.516 . S
C426 C427 1.502 . S
C426 C428 1.561 . S
C426 C429 1.526 . S
C427 H411 0.959 . S
C427 H412 0.959 . S
C427 H413 0.961 . S
C427 C426 1.502 . S
C428 H414 0.960 . S
C428 H415 0.961 . S
C428 H416 0.959 . S
C428 C426 1.561 . S
C429 C426 1.526 . S
C429 C430 1.396 . S
C429 C434 1.390 . S
C430 C424 1.465 . S
C430 C429 1.396 . S
C430 C431 1.399 . S
C431 H417 0.929 . S
C431 C430 1.399 . S
C431 C432 1.385 . S
C432 H418 0.931 1_565 S
C432 C431 1.385 . S
C432 C433 1.389 1_565 S
C433 C432 1.389 1_545 S
C433 C434 1.387 1_545 S
C434 H419 0.930 . S
C434 C429 1.390 . S
C434 C433 1.387 1_565 S
H435 C447 0.930 . S
H436 C449 0.930 . S
H437 C450 0.930 . S
H438 C454 0.959 . S
H439 C454 0.959 . S
H440 C454 0.961 . S
H441 C455 0.960 . S
H442 C455 0.961 . S
H443 C455 0.959 . S
H444 C458 0.929 . S
H445 C459 0.931 . S
H446 C461 0.930 . S
C447 H435 0.930 . S
C447 C448 1.399 . S
C447 C452 1.399 . S
C448 C447 1.399 . S
C448 C449 1.376 . S
C449 H436 0.930 . S
C449 C448 1.376 . S
C449 C450 1.388 . S
C450 H437 0.930 . S
C450 C449 1.388 . S
C450 C451 1.390 . S
C451 C450 1.390 . S
C451 C452 1.394 . S
C451 C457 1.465 . S
C452 C447 1.399 . S
C452 C451 1.394 . S
C452 C453 1.516 . S
C453 C452 1.516 . S
C453 C454 1.502 . S
C453 C455 1.561 . S
C453 C456 1.526 . S
C454 H438 0.959 . S
C454 H439 0.959 . S
C454 H440 0.961 . S
C454 C453 1.502 . S
C455 H441 0.960 . S
C455 H442 0.961 . S
C455 H443 0.959 . S
C455 C453 1.561 . S
C456 C453 1.526 . S
C456 C457 1.396 . S
C456 C461 1.390 . S
C457 C451 1.465 . S
C457 C456 1.396 . S
C457 C458 1.399 . S
C458 H444 0.929 . S
C458 C457 1.399 . S
C458 C459 1.385 . S
C459 H445 0.931 . S
C459 C458 1.385 . S
C459 C460 1.389 . S
C460 C459 1.389 . S
C460 C461 1.387 . S
C461 H446 0.930 . S
C461 C456 1.390 . S
C461 C460 1.387 . S
H462 C474 0.930 . S
H463 C476 0.930 . S
H464 C477 0.930 . S
H465 C481 0.959 . S
H466 C481 0.959 . S
H467 C481 0.961 . S
H468 C482 0.960 . S
H469 C482 0.961 . S
H470 C482 0.959 . S
H471 C485 0.929 . S
H472 C486 0.931 . S
H473 C488 0.930 . S
C474 H462 0.930 . S
C474 C475 1.399 . S
C474 C479 1.399 . S
C475 C474 1.399 . S
C475 C476 1.376 . S
C476 H463 0.930 . S
C476 C475 1.376 . S
C476 C477 1.388 . S
C477 H464 0.930 . S
C477 C476 1.388 . S
C477 C478 1.390 . S
C478 C477 1.390 . S
C478 C479 1.394 . S
C478 C484 1.465 . S
C479 C474 1.399 . S
C479 C478 1.394 . S
C479 C480 1.516 . S
C480 C479 1.516 . S
C480 C481 1.502 . S
C480 C482 1.561 . S
C480 C483 1.526 . S
C481 H465 0.959 . S
C481 H466 0.959 . S
C481 H467 0.961 . S
C481 C480 1.502 . S
C482 H468 0.960 . S
C482 H469 0.961 . S
C482 H470 0.959 . S
C482 C480 1.561 . S
C483 C480 1.526 . S
C483 C484 1.396 . S
C483 C488 1.390 . S
C484 C478 1.465 . S
C484 C483 1.396 . S
C484 C485 1.399 . S
C485 H471 0.929 . S
C485 C484 1.399 . S
C485 C486 1.385 . S
C486 H472 0.931 . S
C486 C485 1.385 . S
C486 C487 1.389 . S
C487 C486 1.389 . S
C487 C488 1.387 . S
C488 H473 0.930 . S
C488 C483 1.390 . S
C488 C487 1.387 . S
H489 C501 0.930 . S
H490 C503 0.930 . S
H491 C504 0.930 . S
H492 C508 0.959 . S
H493 C508 0.959 . S
H494 C508 0.961 . S
H495 C509 0.960 . S
H496 C509 0.961 . S
H497 C509 0.959 . S
H498 C512 0.929 . S
H499 C513 0.931 . S
H500 C515 0.930 . S
C501 H489 0.930 . S
C501 C502 1.399 . S
C501 C506 1.399 . S
C502 C501 1.399 . S
C502 C503 1.376 . S
C503 H490 0.930 . S
C503 C502 1.376 . S
C503 C504 1.388 . S
C504 H491 0.930 . S
C504 C503 1.388 . S
C504 C505 1.390 . S
C505 C504 1.390 . S
C505 C506 1.394 . S
C505 C511 1.465 . S
C506 C501 1.399 . S
C506 C505 1.394 . S
C506 C507 1.516 . S
C507 C506 1.516 . S
C507 C508 1.502 . S
C507 C509 1.561 . S
C507 C510 1.526 . S
C508 H492 0.959 . S
C508 H493 0.959 . S
C508 H494 0.961 . S
C508 C507 1.502 . S
C509 H495 0.960 . S
C509 H496 0.961 . S
C509 H497 0.959 . S
C509 C507 1.561 . S
C510 C507 1.526 . S
C510 C511 1.396 . S
C510 C515 1.390 . S
C511 C505 1.465 . S
C511 C510 1.396 . S
C511 C512 1.399 . S
C512 H498 0.929 . S
C512 C511 1.399 . S
C512 C513 1.385 . S
C513 H499 0.931 . S
C513 C512 1.385 . S
C513 C514 1.389 . S
C514 C513 1.389 . S
C514 C515 1.387 . S
C515 H500 0.930 . S
C515 C510 1.390 . S
C515 C514 1.387 . S
H516 C528 0.930 . S
H517 C530 0.930 . S
H518 C531 0.930 . S
H519 C535 0.959 1_655 S
H520 C535 0.959 . S
H521 C535 0.961 . S
H522 C536 0.960 . S
H523 C536 0.961 . S
H524 C536 0.959 . S
H525 C539 0.929 . S
H526 C540 0.931 . S
H527 C542 0.930 . S
C528 H516 0.930 . S
C528 C529 1.399 . S
C528 C533 1.399 . S
C529 C528 1.399 . S
C529 C530 1.376 . S
C530 H517 0.930 . S
C530 C529 1.376 . S
C530 C531 1.388 . S
C531 H518 0.930 . S
C531 C530 1.388 . S
C531 C532 1.390 . S
C532 C531 1.390 . S
C532 C533 1.394 . S
C532 C538 1.465 . S
C533 C528 1.399 . S
C533 C532 1.394 . S
C533 C534 1.516 . S
C534 C533 1.516 . S
C534 C535 1.502 . S
C534 C536 1.561 . S
C534 C537 1.526 . S
C535 H519 0.959 1_455 S
C535 H520 0.959 . S
C535 H521 0.961 . S
C535 C534 1.502 . S
C536 H522 0.960 . S
C536 H523 0.961 . S
C536 H524 0.959 . S
C536 C534 1.561 . S
C537 C534 1.526 . S
C537 C538 1.396 . S
C537 C542 1.390 1_554 S
C538 C532 1.465 . S
C538 C537 1.396 . S
C538 C539 1.399 1_554 S
C539 H525 0.929 . S
C539 C538 1.399 1_556 S
C539 C540 1.385 . S
C540 H526 0.931 . S
C540 C539 1.385 . S
C540 C541 1.389 . S
C541 C540 1.389 . S
C541 C542 1.387 . S
C542 H527 0.930 . S
C542 C537 1.390 1_556 S
C542 C541 1.387 . S
H543 C555 0.930 1_565 S
H544 C557 0.930 . S
H545 C558 0.930 . S
H546 C562 0.959 1_545 S
H547 C562 0.959 . S
H548 C562 0.961 . S
H549 C563 0.960 . S
H550 C563 0.961 . S
H551 C563 0.959 . S
H552 C566 0.929 . S
H553 C567 0.931 . S
H554 C569 0.930 1_565 S
C555 H543 0.930 1_545 S
C555 C556 1.399 . S
C555 C560 1.399 . S
C556 C555 1.399 . S
C556 C557 1.376 . S
C557 H544 0.930 . S
C557 C556 1.376 . S
C557 C558 1.388 . S
C558 H545 0.930 . S
C558 C557 1.388 . S
C558 C559 1.390 . S
C559 C558 1.390 . S
C559 C560 1.394 . S
C559 C565 1.465 . S
C560 C555 1.399 . S
C560 C559 1.394 . S
C560 C561 1.516 1_545 S
C561 C560 1.516 1_565 S
C561 C562 1.502 . S
C561 C563 1.561 . S
C561 C564 1.526 1_565 S
C562 H546 0.959 1_565 S
C562 H547 0.959 . S
C562 H548 0.961 . S
C562 C561 1.502 . S
C563 H549 0.960 . S
C563 H550 0.961 . S
C563 H551 0.959 . S
C563 C561 1.561 . S
C564 C561 1.526 1_545 S
C564 C565 1.396 . S
C564 C569 1.390 . S
C565 C559 1.465 . S
C565 C564 1.396 . S
C565 C566 1.399 . S
C566 H552 0.929 . S
C566 C565 1.399 . S
C566 C567 1.385 . S
C567 H553 0.931 . S
C567 C566 1.385 . S
C567 C568 1.389 . S
C568 C567 1.389 . S
C568 C569 1.387 . S
C569 H554 0.930 1_545 S
C569 C564 1.390 . S
C569 C568 1.387 . S
H570 C582 0.930 . S
H571 C584 0.930 . S
H572 C585 0.930 . S
H573 C589 0.959 . S
H574 C589 0.959 . S
H575 C589 0.961 . S
H576 C590 0.960 . S
H577 C590 0.961 . S
H578 C590 0.959 . S
H579 C593 0.929 . S
H580 C594 0.931 . S
H581 C596 0.930 . S
C582 H570 0.930 . S
C582 C583 1.399 . S
C582 C587 1.399 . S
C583 C582 1.399 . S
C583 C584 1.376 . S
C584 H571 0.930 . S
C584 C583 1.376 . S
C584 C585 1.388 . S
C585 H572 0.930 . S
C585 C584 1.388 . S
C585 C586 1.390 . S
C586 C585 1.390 . S
C586 C587 1.394 . S
C586 C592 1.465 . S
C587 C582 1.399 . S
C587 C586 1.394 . S
C587 C588 1.516 . S
C588 C587 1.516 . S
C588 C589 1.502 . S
C588 C590 1.561 . S
C588 C591 1.526 . S
C589 H573 0.959 . S
C589 H574 0.959 . S
C589 H575 0.961 . S
C589 C588 1.502 . S
C590 H576 0.960 . S
C590 H577 0.961 . S
C590 H578 0.959 . S
C590 C588 1.561 . S
C591 C588 1.526 . S
C591 C592 1.396 . S
C591 C596 1.390 . S
C592 C586 1.465 . S
C592 C591 1.396 . S
C592 C593 1.399 . S
C593 H579 0.929 . S
C593 C592 1.399 . S
C593 C594 1.385 . S
C594 H580 0.931 . S
C594 C593 1.385 . S
C594 C595 1.389 . S
C595 C594 1.389 . S
C595 C596 1.387 . S
C596 H581 0.930 . S
C596 C591 1.390 . S
C596 C595 1.387 . S
H597 C609 0.930 . S
H598 C611 0.930 . S
H599 C612 0.930 . S
H600 C616 0.959 . S
H601 C616 0.959 . S
H602 C616 0.961 . S
H603 C617 0.960 . S
H604 C617 0.961 . S
H605 C617 0.959 . S
H606 C620 0.929 . S
H607 C621 0.931 . S
H608 C623 0.930 . S
C609 H597 0.930 . S
C609 C610 1.399 . S
C609 C614 1.399 . S
C610 C609 1.399 . S
C610 C611 1.376 1_545 S
C611 H598 0.930 . S
C611 C610 1.376 1_565 S
C611 C612 1.388 . S
C612 H599 0.930 . S
C612 C611 1.388 . S
C612 C613 1.390 1_565 S
C613 C612 1.390 1_545 S
C613 C614 1.394 . S
C613 C619 1.465 . S
C614 C609 1.399 . S
C614 C613 1.394 . S
C614 C615 1.516 . S
C615 C614 1.516 . S
C615 C616 1.502 . S
C615 C617 1.561 . S
C615 C618 1.526 . S
C616 H600 0.959 . S
C616 H601 0.959 . S
C616 H602 0.961 . S
C616 C615 1.502 . S
C617 H603 0.960 . S
C617 H604 0.961 . S
C617 H605 0.959 . S
C617 C615 1.561 . S
C618 C615 1.526 . S
C618 C619 1.396 . S
C618 C623 1.390 . S
C619 C613 1.465 . S
C619 C618 1.396 . S
C619 C620 1.399 1_545 S
C620 H606 0.929 . S
C620 C619 1.399 1_565 S
C620 C621 1.385 . S
C621 H607 0.931 . S
C621 C620 1.385 . S
C621 C622 1.389 1_565 S
C622 C621 1.389 1_545 S
C622 C623 1.387 . S
C623 H608 0.930 . S
C623 C618 1.390 . S
C623 C622 1.387 . S
H624 C636 0.930 . S
H625 C638 0.930 . S
H626 C639 0.930 . S
H627 C643 0.959 . S
H628 C643 0.959 . S
H629 C643 0.961 . S
H630 C644 0.960 . S
H631 C644 0.961 . S
H632 C644 0.959 . S
H633 C647 0.929 . S
H634 C648 0.931 . S
H635 C650 0.930 . S
C636 H624 0.930 . S
C636 C637 1.399 . S
C636 C641 1.399 . S
C637 C636 1.399 . S
C637 C638 1.376 . S
C638 H625 0.930 . S
C638 C637 1.376 . S
C638 C639 1.388 . S
C639 H626 0.930 . S
C639 C638 1.388 . S
C639 C640 1.390 . S
C640 C639 1.390 . S
C640 C641 1.394 . S
C640 C646 1.465 1_556 S
C641 C636 1.399 . S
C641 C640 1.394 . S
C641 C642 1.516 . S
C642 C641 1.516 . S
C642 C643 1.502 . S
C642 C644 1.561 . S
C642 C645 1.526 1_556 S
C643 H627 0.959 . S
C643 H628 0.959 . S
C643 H629 0.961 . S
C643 C642 1.502 . S
C644 H630 0.960 . S
C644 H631 0.961 . S
C644 H632 0.959 . S
C644 C642 1.561 . S
C645 C642 1.526 1_554 S
C645 C646 1.396 . S
C645 C650 1.390 . S
C646 C640 1.465 1_554 S
C646 C645 1.396 . S
C646 C647 1.399 . S
C647 H633 0.929 . S
C647 C646 1.399 . S
C647 C648 1.385 . S
C648 H634 0.931 . S
C648 C647 1.385 . S
C648 C649 1.389 . S
C649 C648 1.389 . S
C649 C650 1.387 . S
C650 H635 0.930 . S
C650 C645 1.390 . S
C650 C649 1.387 . S
H651 C663 0.930 . S
H652 C665 0.930 . S
H653 C666 0.930 . S
H654 C670 0.959 . S
H655 C670 0.959 . S
H656 C670 0.961 . S
H657 C671 0.960 . S
H658 C671 0.961 . S
H659 C671 0.959 1_455 S
H660 C674 0.929 . S
H661 C675 0.931 . S
H662 C677 0.930 . S
C663 H651 0.930 . S
C663 C664 1.399 1_655 S
C663 C668 1.399 1_655 S
C664 C663 1.399 1_455 S
C664 C665 1.376 . S
C665 H652 0.930 . S
C665 C664 1.376 . S
C665 C666 1.388 . S
C666 H653 0.930 . S
C666 C665 1.388 . S
C666 C667 1.390 . S
C667 C666 1.390 . S
C667 C668 1.394 . S
C667 C673 1.465 . S
C668 C663 1.399 1_455 S
C668 C667 1.394 . S
C668 C669 1.516 1_455 S
C669 C668 1.516 1_655 S
C669 C670 1.502 . S
C669 C671 1.561 . S
C669 C672 1.526 1_655 S
C670 H654 0.959 . S
C670 H655 0.959 . S
C670 H656 0.961 . S
C670 C669 1.502 . S
C671 H657 0.960 . S
C671 H658 0.961 . S
C671 H659 0.959 1_655 S
C671 C669 1.561 . S
C672 C669 1.526 1_455 S
C672 C673 1.396 . S
C672 C677 1.390 1_455 S
C673 C667 1.465 . S
C673 C672 1.396 . S
C673 C674 1.399 . S
C674 H660 0.929 . S
C674 C673 1.399 . S
C674 C675 1.385 . S
C675 H661 0.931 . S
C675 C674 1.385 . S
C675 C676 1.389 . S
C676 C675 1.389 . S
C676 C677 1.387 1_455 S
C677 H662 0.930 . S
C677 C672 1.390 1_655 S
C677 C676 1.387 1_655 S
C205 C12 3.207 . S
C217 C186 3.199 . S
C232 C52 3.015 . S
C244 C160 2.932 . S
C259 C111 3.054 . S
C271 C172 2.987 . S
C286 C31 2.873 . S
C298 C184 2.757 . S
C325 C162 2.948 . S
C313 C71 3.012 . S
C352 C174 2.924 . S
C340 C92 2.966 . S
C367 C48 0.543 . S
C379 C136 0.586 . S
C394 C109 0.681 . S
C406 C150 0.735 . S
C421 C29 0.230 . S
C433 C126 0.237 . S
C460 C138 0.349 . S
C448 C69 0.463 . S
C487 C148 0.255 . S
C475 C88 0.161 . S
C502 C8 0.302 . S
C514 C124 0.367 . S
C541 C153 1.199 . S
C529 C17 1.152 . S
C556 C57 1.219 . S
C568 C129 1.213 . S
C583 C97 1.197 . S
C595 C141 1.216 . S
C622 C177 1.735 . S
C610 C42 1.691 . S
C649 C189 1.790 . S
C637 C82 1.720 . S
C664 C2 1.696 . S
C676 C165 1.723 . S
