# Generated by pormake.
# Topology anh, (6,3)-cn, num edge types: 1
# Building blocks:
#     Node 0, Type 0, BuildingBlock: PAMTUU_clean_sbu_0, # of connection points: 6
#     Node 1, Type 0, BuildingBlock: PAMTUU_clean_sbu_0, # of connection points: 6
#     Node 2, Type 0, BuildingBlock: PAMTUU_clean_sbu_0, # of connection points: 6
#     Node 3, Type 1, BuildingBlock: MIDCAF_clean_linker_0, # of connection points: 3
#     Node 4, Type 1, BuildingBlock: MIDCAF_clean_linker_0, # of connection points: 3
#     Node 5, Type 1, BuildingBlock: MIDCAF_clean_linker_0, # of connection points: 3
#     Node 6, Type 1, BuildingBlock: MIDCAF_clean_linker_0, # of connection points: 3
#     Node 7, Type 1, BuildingBlock: MIDCAF_clean_linker_0, # of connection points: 3
#     Node 8, Type 1, BuildingBlock: MIDCAF_clean_linker_0, # of connection points: 3
#     Edge 9, Type (0, 1), None
#     Edge 10, Type (0, 1), None
#     Edge 11, Type (0, 1), None
#     Edge 12, Type (0, 1), None
#     Edge 13, Type (0, 1), None
#     Edge 14, Type (0, 1), None
#     Edge 15, Type (0, 1), None
#     Edge 16, Type (0, 1), None
#     Edge 17, Type (0, 1), None
#     Edge 18, Type (0, 1), None
#     Edge 19, Type (0, 1), None
#     Edge 20, Type (0, 1), None
#     Edge 21, Type (0, 1), None
#     Edge 22, Type (0, 1), None
#     Edge 23, Type (0, 1), None
#     Edge 24, Type (0, 1), None
#     Edge 25, Type (0, 1), None
#     Edge 26, Type (0, 1), None
# Relax obj value: 0.466
# Max RMSD: 0.225
# Mean RMSD: 0.182
data_MOF--net-anh--node1-PAMTUU_clean_sbu_0--node2-MIDCAF_clean_linker_0--edge1-none
_symmetry_space_group_name_H-M    P1
_symmetry_Int_Tables_number       1
_symmetry_cell_setting            triclinic
loop_
_symmetry_equiv_pos_as_xyz
'x, y, z'
_cell_length_a     18.678535
_cell_length_b     18.807698
_cell_length_c     37.255305
_cell_angle_alpha  90.775157
_cell_angle_beta   91.789171
_cell_angle_gamma 119.74927
loop_
_atom_site_label
_atom_site_type_symbol
_atom_site_fract_x
_atom_site_fract_y
_atom_site_fract_z
_atom_type_partial_charge
Tb0 Tb 0.30319 0.87483 0.14735 0.0
Tb1 Tb 0.40808 0.79175 0.17556 0.0
C2 C 0.36411 0.79341 0.09437 0.0
C3 C 1.11318 0.86234 0.12977 0.0
C4 C 0.97415 0.70506 0.12762 0.0
C5 C 0.99376 0.7538 0.09723 0.0
C6 C 1.06258 0.83231 0.09837 0.0
C7 C 1.08623 0.81813 0.16151 0.0
C8 C 1.01712 0.73972 0.1604 0.0
C9 C 1.20227 0.91691 0.12601 0.0
O10 O 1.21254 0.74207 0.15071 0.0
O11 O 0.28372 0.70852 0.19147 0.0
O12 O 0.40764 0.86526 0.22118 0.0
O13 O 0.28679 0.86099 0.20425 0.0
O14 O 0.42378 0.71479 0.21151 0.0
O15 O 0.50639 0.76986 0.1683 0.0
O16 O 0.50249 0.91751 0.16537 0.0
O17 O 0.42528 0.98224 0.16067 0.0
O18 O 0.36734 0.86287 0.10229 0.0
O19 O 0.36122 0.74594 0.12043 0.0
C20 C 1.21416 0.69218 0.17492 0.0
O21 O 0.24721 0.94697 0.15574 0.0
O22 O 1.23448 0.88619 0.10449 0.0
C23 C 0.34434 0.87453 0.22865 0.0
C24 C 0.45958 0.6303 0.17886 0.0
C25 C 0.42104 0.47259 0.15343 0.0
C26 C 0.42184 0.48926 0.19047 0.0
C27 C 0.44138 0.5676 0.20306 0.0
C28 C 0.454 0.61244 0.14185 0.0
C29 C 0.43548 0.53498 0.12934 0.0
C30 C 0.47918 0.71257 0.19193 0.0
C31 C 0.49725 0.98488 0.16439 0.0
H32 H 0.95981 0.72866 0.07183 0.0
H33 H 1.08202 0.86487 0.07359 0.0
H34 H 1.12386 0.83946 0.18624 0.0
H35 H 1.00243 0.70349 0.18423 0.0
H36 H 0.41001 0.44266 0.20983 0.0
H37 H 0.44321 0.57949 0.23171 0.0
H38 H 0.46577 0.65882 0.12236 0.0
H39 H 0.4374 0.52607 0.10069 0.0
Tb40 Tb 0.75065 0.16996 0.48477 0.0
Tb41 Tb 0.94542 0.24913 0.50291 0.0
C42 C 0.87345 0.23207 0.42531 0.0
C43 C 0.5445 1.15117 0.46841 0.0
C44 C 0.41231 0.18412 0.46773 0.0
C45 C 0.44989 0.18016 0.50055 0.0
C46 C 0.51463 0.16267 0.50087 0.0
C47 C 0.51543 0.16678 0.43611 0.0
C48 C 0.45119 0.18419 0.43573 0.0
C49 C 0.60152 1.11815 0.46697 0.0
O50 O 0.76454 1.06469 0.50088 0.0
O51 O 0.90303 1.11826 0.49211 0.0
O52 O 0.88186 0.18882 0.5504 0.0
O53 O 0.76804 0.20252 0.54143 0.0
O54 O 1.06356 0.28053 0.48591 0.0
O55 O 1.04444 0.30224 0.54081 0.0
O56 O 0.91997 0.34786 0.51776 0.0
O57 O 0.79661 0.30288 0.48632 0.0
O58 O 0.81154 0.16515 0.43687 0.0
O59 O 0.92821 0.2848 0.44893 0.0
C60 C 0.83031 1.05569 0.49934 0.0
O61 O 0.6615 1.15365 0.44506 0.0
O62 O 0.62575 1.10089 0.49719 0.0
C63 C 0.81709 0.18927 0.5626 0.0
C64 C 1.16042 0.40716 0.5142 0.0
C65 C 1.2336 0.57497 0.50098 0.0
C66 C 1.20443 0.5464 0.53504 0.0
C67 C 1.1685 0.46312 0.5417 0.0
C68 C 1.19967 0.43735 0.48191 0.0
C69 C 1.23567 0.52058 0.47527 0.0
C70 C 1.09865 0.31946 0.51639 0.0
C71 C 0.86056 0.36061 0.50519 0.0
H72 H 0.42484 0.18337 0.52593 0.0
H73 H 0.53792 1.15375 0.52641 0.0
H74 H 0.53878 0.16031 0.41072 0.0
H75 H 0.42717 0.18874 0.40961 0.0
H76 H 1.20395 0.5874 0.55561 0.0
H77 H 1.14081 0.44201 0.56732 0.0
H78 H 1.19593 0.39593 0.46049 0.0
H79 H 0.25787 0.54062 0.44872 0.0
Tb80 Tb 0.72426 0.5136 0.82566 0.0
Tb81 Tb 0.78431 0.69784 0.84864 0.0
C82 C 0.76416 0.6407 0.76586 0.0
C83 C 0.72553 0.32574 0.83387 0.0
C84 C 0.81683 0.2501 0.85486 0.0
C85 C 0.85364 0.33577 0.85689 0.0
C86 C 0.80814 0.37325 0.84658 0.0
C87 C 0.68609 0.24074 0.83559 0.0
C88 C 0.73103 0.20305 0.84627 0.0
C89 C 0.68165 0.3654 0.81847 0.0
O90 O 0.86051 0.57592 0.8238 0.0
O91 O 0.89724 0.69143 0.85893 0.0
O92 O 0.72799 0.61614 0.89376 0.0
O93 O 0.77934 0.53609 0.87864 0.0
O94 O 0.84423 0.82612 0.84413 0.0
O95 O 0.76737 0.76751 0.88856 0.0
O96 O 0.66149 0.65014 0.82394 0.0
O97 O 0.61489 0.52161 0.84237 0.0
O98 O 0.7155 0.56482 0.77512 0.0
O99 O 0.80485 0.70026 0.7904 0.0
C100 C 0.91679 0.64045 0.84302 0.0
O101 O 0.65056 0.39303 0.84202 0.0
O102 O 0.7206 0.4187 0.79401 0.0
C103 C 0.74714 0.56039 0.90264 0.0
C104 C 0.73487 0.85187 0.85539 0.0
C105 C 0.59103 0.85292 0.82998 0.0
C106 C 0.61275 0.86285 0.86696 0.0
C107 C 0.68385 0.8618 0.87958 0.0
C108 C 0.71321 0.84258 0.81855 0.0
C109 C 0.64284 0.84319 0.80609 0.0
C110 C 0.79718 0.83075 0.86827 0.0
C111 C 0.60049 0.58176 0.83464 0.0
H112 H 0.9191 0.37365 0.86344 0.0
H113 H 0.83886 0.43934 0.84665 0.0
H114 H 0.62178 0.20348 0.8269 0.0
H115 H 0.69979 1.1368 0.84424 0.0
H116 H 0.57503 0.87168 0.88602 0.0
H117 H 0.69775 0.86638 0.90824 0.0
H118 H 0.74952 0.8327 0.79906 0.0
H119 H 0.63097 0.83846 0.77729 0.0
C120 C 0.65281 1.06842 0.17127 0.0
C121 C 0.57579 1.06545 0.1709 0.0
C122 C 0.57519 1.13796 0.18059 0.0
C123 C 0.64853 0.20912 0.19268 0.0
H124 H 0.94405 0.46677 0.15735 0.0
H125 H 1.06568 0.59128 0.13646 0.0
H126 H 1.18812 0.62444 0.24026 0.0
H127 H 1.06993 0.50327 0.26095 0.0
H128 H 0.98389 0.40233 0.3278 0.0
H129 H 0.98741 0.36916 0.39096 0.0
H130 H 0.76263 1.13846 0.37118 0.0
H131 H 0.75878 0.17122 0.30863 0.0
H132 H 0.78264 1.13732 0.1853 0.0
H133 H 0.65653 1.01445 0.16397 0.0
H134 H 0.51746 1.13842 0.18087 0.0
H135 H 0.6451 0.26187 0.20236 0.0
N136 N 0.85797 0.34335 0.20332 0.0
N137 N 0.92752 0.37916 0.26028 0.0
N138 N 0.80112 0.25769 0.25234 0.0
C139 C 0.92457 0.39707 0.22499 0.0
C140 C 0.86638 0.30986 0.27423 0.0
C141 C 0.79573 0.27355 0.2172 0.0
C142 C 0.99611 0.47377 0.21099 0.0
C143 C 0.99679 0.50103 0.17574 0.0
C144 C 1.06623 0.57271 0.16376 0.0
C145 C 1.1369 0.61833 0.18656 0.0
C146 C 1.13548 0.5911 0.22166 0.0
C147 C 1.06674 0.52089 0.23365 0.0
C148 C 0.87077 0.28987 0.31281 0.0
C149 C 0.93535 0.34436 0.33686 0.0
C150 C 0.93755 0.32523 0.37315 0.0
C151 C 0.87542 0.25098 0.38635 0.0
C152 C 0.81178 0.19613 0.36216 0.0
C153 C 0.80943 0.21524 0.32607 0.0
C154 C 0.72438 0.20997 0.19481 0.0
C155 C 0.7257 1.13936 0.18315 0.0
C156 C 0.9159 0.49191 0.54309 0.0
C157 C 0.86265 0.44001 0.51493 0.0
C158 C 0.80827 0.46263 0.49811 0.0
C159 C 0.80552 0.53315 0.5099 0.0
H160 H 0.72199 0.82468 0.5704 0.0
H161 H 0.72258 0.94446 0.54545 0.0
H162 H 0.92736 0.98751 0.48109 0.0
H163 H 0.92435 0.8646 0.50515 0.0
H164 H 0.84038 0.80927 0.6657 0.0
H165 H 0.82028 0.78725 0.73056 0.0
H166 H 0.73506 0.52998 0.71173 0.0
H167 H 0.75647 0.55195 0.64808 0.0
H168 H 0.95097 0.59658 0.57825 0.0
H169 H 0.95864 0.4773 0.5569 0.0
H170 H 0.76621 0.42465 0.47635 0.0
H171 H 0.76071 0.54656 0.4973 0.0
N172 N 0.83979 0.70857 0.53979 0.0
N173 N 0.81361 0.75584 0.59432 0.0
N174 N 0.83001 0.64008 0.59342 0.0
C175 C 0.82582 0.76425 0.55822 0.0
C176 C 0.81562 0.69394 0.61212 0.0
C177 C 0.84195 0.64601 0.55754 0.0
C178 C 0.82287 0.83405 0.53984 0.0
C179 C 0.76632 0.85859 0.55043 0.0
C180 C 0.76639 0.92746 0.53588 0.0
C181 C 0.82469 0.97627 0.51092 0.0
C182 C 0.8811 0.95155 0.50002 0.0
C183 C 0.87928 0.88076 0.51379 0.0
C184 C 0.80042 0.68249 0.65148 0.0
C185 C 0.81704 0.74804 0.67551 0.0
C186 C 0.80586 0.73551 0.71272 0.0
C187 C 0.77588 0.65677 0.72657 0.0
C188 C 0.7578 0.59145 0.70228 0.0
C189 C 0.77053 0.60417 0.66555 0.0
C190 C 0.85595 0.58226 0.53929 0.0
C191 C 0.91176 0.56091 0.55532 0.0
C192 C 1.05831 0.71278 0.87452 0.0
C193 C 1.00122 0.6501 0.85068 0.0
C194 C 1.02374 0.59374 0.83691 0.0
C195 C 1.0993 0.59823 0.84785 0.0
H196 H 0.41143 0.67709 0.82654 0.0
H197 H 0.52281 0.65843 0.80294 0.0
H198 H 0.50659 0.50955 0.89264 0.0
H199 H 0.39822 0.53135 0.91697 0.0
H200 H 0.37229 0.6297 0.00019 0.0
H201 H 0.39386 0.67617 0.06374 0.0
H202 H 0.31121 0.84753 0.03769 0.0
H203 H 0.28767 0.79995 0.97521 0.0
H204 H 1.17312 0.76455 0.905 0.0
H205 H 1.04431 0.75764 0.88578 0.0
H206 H 0.98181 0.54437 0.81852 0.0
H207 H 1.11272 0.55193 0.83789 0.0
N208 N 0.27429 0.63088 0.87343 0.0
N209 N 0.3543 0.65285 0.92725 0.0
N210 N 0.24646 0.68258 0.92578 0.0
C211 C 0.33854 0.62894 0.89173 0.0
C212 C 0.30899 0.68046 0.94434 0.0
C213 C 1.22725 0.6572 0.89072 0.0
C214 C 0.39514 0.60542 0.8736 0.0
C215 C 0.43021 0.63879 0.84076 0.0
C216 C 0.49432 0.62816 0.82728 0.0
C217 C 0.52339 0.5815 0.84557 0.0
C218 C 0.48513 0.54452 0.87739 0.0
C219 C 0.42306 0.55741 0.89146 0.0
C220 C 0.32789 0.71082 0.98258 0.0
C221 C 0.35928 0.67761 0.00813 0.0
C222 C 0.37136 0.70402 0.04453 0.0
C223 C 0.35449 0.76578 0.05589 0.0
C224 C 0.32534 0.80022 0.03004 0.0
C225 C 0.31141 0.77258 0.9941 0.0
C226 C 1.15409 0.65869 0.87317 0.0
C227 C 1.13281 0.71672 0.88562 0.0
C228 C 0.27027 1.10086 0.48843 0.0
C229 C 0.32324 0.16263 0.46564 0.0
C230 C 0.28827 0.16372 0.43169 0.0
C231 C 1.22936 1.08867 0.41546 0.0
H232 H 1.14119 0.75969 0.48496 0.0
H233 H 1.14064 0.64604 0.51599 0.0
H234 H 0.35519 0.6846 0.4595 0.0
H235 H 0.35395 0.79624 0.42777 0.0
H236 H 1.21003 0.94714 0.3115 0.0
H237 H 0.24718 0.93583 0.25023 0.0
H238 H 0.41209 0.85332 0.29066 0.0
H239 H 0.37459 0.86403 0.3517 0.0
H240 H 1.1814 0.97355 0.48965 0.0
H241 H 0.28701 1.10156 0.51654 0.0
H242 H 0.3203 0.21563 0.41468 0.0
H243 H 1.21876 1.08527 0.38657 0.0
N244 N 1.20871 0.89107 0.441 0.0
N245 N 0.26204 0.84699 0.39534 0.0
N246 N 1.23009 0.9506 0.38443 0.0
C247 C 1.23718 0.8415 0.42932 0.0
C248 C 0.25802 0.90037 0.37263 0.0
C249 C 1.20547 0.94657 0.41883 0.0
C250 C 0.24604 0.78483 0.45335 0.0
C251 C 1.18927 0.745 0.47991 0.0
C252 C 1.18958 0.68044 0.49787 0.0
C253 C 0.24737 0.65576 0.48975 0.0
C254 C 0.30906 0.70127 0.46575 0.0
C255 C 0.30807 0.76488 0.44754 0.0
C256 C 0.28827 0.90517 0.3362 0.0
C257 C 0.25514 0.92795 0.30728 0.0
C258 C 0.27625 0.9211 0.27228 0.0
C259 C 0.3318 0.89265 0.26575 0.0
C260 C 0.36903 0.87514 0.29488 0.0
C261 C 0.34702 0.8808 0.32978 0.0
C262 C 1.20169 1.01703 0.43516 0.0
C263 C 1.20893 1.02643 0.47287 0.0
C264 C 0.91881 0.23837 0.82016 0.0
C265 C 0.86868 0.21135 0.85006 0.0
C266 C 0.8328 1.12782 0.85749 0.0
C267 C 0.81327 1.07233 0.82856 0.0
H268 H 0.55815 1.05973 0.80513 0.0
H269 H 0.55011 0.9688 0.85196 0.0
H270 H 0.47924 0.7751 0.77202 0.0
H271 H 0.49818 0.87067 0.72521 0.0
H272 H 0.63018 1.09419 0.6532 0.0
H273 H 0.66958 1.1441 0.59285 0.0
H274 H 0.91316 0.17789 0.61568 0.0
H275 H 0.87424 1.12825 0.67553 0.0
H276 H 0.92374 0.20776 0.76524 0.0
H277 H 0.95506 0.30316 0.81513 0.0
H278 H 0.79984 1.10516 0.88193 0.0
H279 H 0.76661 1.00943 0.83202 0.0
N280 N 0.69061 1.03369 0.77428 0.0
N281 N 0.64663 1.04078 0.71551 0.0
N282 N 0.78795 1.09322 0.7307 0.0
C283 C 0.62874 1.01948 0.75009 0.0
C284 C 0.72676 1.07816 0.70579 0.0
C285 C 0.77017 1.06989 0.76496 0.0
C286 C 0.54347 0.97482 0.7622 0.0
C287 C 0.53576 0.99611 0.79765 0.0
C288 C 0.53115 0.94346 0.8248 0.0
C289 C 0.52555 0.86844 0.8148 0.0
C290 C 0.49213 0.83609 0.77999 0.0
C291 C 0.50214 0.89093 0.75293 0.0
C292 C 0.74887 1.10678 0.66906 0.0
C293 C 0.69204 1.11216 0.64527 0.0
C294 C 0.71484 1.1415 0.61086 0.0
C295 C 0.79452 0.16511 0.59968 0.0
C296 C 0.85131 0.1602 0.62356 0.0
C297 C 0.82883 1.13155 0.65789 0.0
C298 C 0.8354 1.10252 0.7939 0.0
C299 C 0.90042 0.18323 0.79116 0.0
C300 C 0.92689 0.57134 0.09584 0.0
C301 C 0.91649 0.61614 0.1236 0.0
C302 C 0.84975 0.57605 0.14595 0.0
C303 C 0.78796 0.49553 0.1373 0.0
H304 H 0.54956 0.32143 0.15588 0.0
H305 H 0.48668 0.38751 0.18729 0.0
H306 H 0.3569 0.38586 0.08887 0.0
H307 H 0.42604 0.32577 0.05662 0.0
H308 H 0.57943 0.46544 0.00098 0.0
H309 H 0.63017 0.55176 0.94843 0.0
H310 H 0.78944 0.45135 0.92772 0.0
H311 H 0.73898 0.36626 0.97967 0.0
H312 H 0.87295 0.46035 0.06414 0.0
H313 H 0.98 0.60011 0.07923 0.0
H314 H 0.84189 0.60895 0.16817 0.0
H315 H 0.73257 0.46933 0.15253 0.0
N316 N 0.64305 0.3628 0.10257 0.0
N317 N 0.57236 0.34691 0.04717 0.0
N318 N 0.71534 0.40034 0.05002 0.0
C319 C 0.57063 0.33659 0.08339 0.0
C320 C 0.64478 0.37677 0.03032 0.0
C321 C 0.71583 0.39554 0.08617 0.0
C322 C 0.49846 0.32537 0.10325 0.0
C323 C 0.50546 0.33253 0.14101 0.0
C324 C 0.4685 0.37019 0.15926 0.0
C325 C 0.42189 0.39813 0.13995 0.0
C326 C 0.39729 0.37014 0.104 0.0
C327 C 0.4363 0.3347 0.08551 0.0
C328 C 0.65417 0.40802 0.99381 0.0
C329 C 0.62314 0.46009 0.98432 0.0
C330 C 0.65377 0.51102 0.95491 0.0
C331 C 0.71532 0.50993 0.93455 0.0
C332 C 0.74289 0.45466 0.94315 0.0
C333 C 0.71293 0.40463 0.97248 0.0
C334 C 0.79268 0.45488 0.10615 0.0
C335 C 0.86637 0.49075 0.08769 0.0
loop_
_geom_bond_atom_site_label_1
_geom_bond_atom_site_label_2
_geom_bond_distance
_geom_bond_site_symmetry_2
_ccdc_geom_bond_type
Tb0 C9 2.764 . S
Tb0 O10 2.325 . S
Tb0 O13 2.303 1_655 S
Tb0 O17 2.322 1_655 S
Tb0 O18 2.349 1_655 S
Tb0 O21 2.415 . S
Tb0 O22 2.399 . S
Tb1 O11 2.322 1_455 S
Tb1 O12 2.349 . S
Tb1 O14 2.415 . S
Tb1 O15 2.399 . S
Tb1 O16 2.325 . S
Tb1 O19 2.303 . S
Tb1 C30 2.764 . S
C2 O18 1.261 . S
C2 O19 1.257 . S
C3 C6 1.358 . S
C3 C7 1.332 . S
C3 C9 1.504 . S
C4 C5 1.373 . S
C4 C8 1.308 . S
C5 C4 1.373 . S
C5 C6 1.429 . S
C5 H32 0.932 . S
C6 C3 1.358 . S
C6 C5 1.429 . S
C6 H33 0.930 . S
C7 C3 1.332 . S
C7 C8 1.394 . S
C7 H34 0.932 . S
C8 C4 1.308 . S
C8 C7 1.394 . S
C8 H35 0.929 . S
C9 Tb0 2.764 . S
C9 C3 1.504 . S
C9 O21 1.239 . S
C9 O22 1.263 . S
O10 Tb0 2.325 . S
O10 C20 1.236 . S
O11 Tb1 2.322 1_655 S
O11 C20 1.257 . S
O12 Tb1 2.349 . S
O12 C23 1.261 . S
O13 Tb0 2.303 1_455 S
O13 C23 1.257 . S
O14 Tb1 2.415 . S
O14 C30 1.239 . S
O15 Tb1 2.399 . S
O15 C30 1.263 . S
O16 Tb1 2.325 . S
O16 C31 1.236 . S
O17 Tb0 2.322 1_455 S
O17 C31 1.257 . S
O18 Tb0 2.349 1_455 S
O18 C2 1.261 . S
O19 Tb1 2.303 . S
O19 C2 1.257 . S
C20 O10 1.236 . S
C20 O11 1.257 . S
O21 Tb0 2.415 . S
O21 C9 1.239 . S
O22 Tb0 2.399 . S
O22 C9 1.263 . S
C23 O12 1.261 . S
C23 O13 1.257 . S
C24 C27 1.358 . S
C24 C28 1.332 . S
C24 C30 1.504 . S
C25 C26 1.373 . S
C25 C29 1.308 . S
C26 C25 1.373 . S
C26 C27 1.429 . S
C26 H36 0.932 . S
C27 C24 1.358 . S
C27 C26 1.429 . S
C27 H37 0.930 . S
C28 C24 1.332 . S
C28 C29 1.394 . S
C28 H38 0.932 . S
C29 C25 1.308 . S
C29 C28 1.394 . S
C29 H39 0.929 . S
C30 Tb1 2.764 . S
C30 O14 1.239 . S
C30 O15 1.263 . S
C30 C24 1.504 . S
C31 O16 1.236 . S
C31 O17 1.257 . S
H32 C5 0.932 . S
H33 C6 0.930 . S
H34 C7 0.932 . S
H35 C8 0.929 . S
H36 C26 0.932 . S
H37 C27 0.930 . S
H38 C28 0.932 . S
H39 C29 0.929 . S
Tb40 C49 2.764 . S
Tb40 O50 2.325 . S
Tb40 O53 2.303 1_565 S
Tb40 O57 2.322 1_565 S
Tb40 O58 2.349 1_565 S
Tb40 O61 2.415 . S
Tb40 O62 2.399 . S
Tb41 O51 2.322 1_545 S
Tb41 O52 2.349 . S
Tb41 O54 2.415 . S
Tb41 O55 2.399 . S
Tb41 O56 2.325 . S
Tb41 O59 2.303 . S
Tb41 C70 2.764 . S
C42 O58 1.261 . S
C42 O59 1.257 . S
C43 C46 1.358 . S
C43 C47 1.332 . S
C43 C49 1.504 . S
C44 C45 1.373 . S
C44 C48 1.308 . S
C45 C44 1.373 . S
C45 C46 1.429 . S
C45 H72 0.932 . S
C46 C43 1.358 . S
C46 C45 1.429 . S
C46 H73 0.930 . S
C47 C43 1.332 . S
C47 C48 1.394 . S
C47 H74 0.932 . S
C48 C44 1.308 . S
C48 C47 1.394 . S
C48 H75 0.929 . S
C49 Tb40 2.764 . S
C49 C43 1.504 . S
C49 O61 1.239 . S
C49 O62 1.263 . S
O50 Tb40 2.325 . S
O50 C60 1.236 . S
O51 Tb41 2.322 1_565 S
O51 C60 1.257 . S
O52 Tb41 2.349 . S
O52 C63 1.261 . S
O53 Tb40 2.303 1_545 S
O53 C63 1.257 . S
O54 Tb41 2.415 . S
O54 C70 1.239 . S
O55 Tb41 2.399 . S
O55 C70 1.263 . S
O56 Tb41 2.325 . S
O56 C71 1.236 . S
O57 Tb40 2.322 1_545 S
O57 C71 1.257 . S
O58 Tb40 2.349 1_545 S
O58 C42 1.261 . S
O59 Tb41 2.303 . S
O59 C42 1.257 . S
C60 O50 1.236 . S
C60 O51 1.257 . S
O61 Tb40 2.415 . S
O61 C49 1.239 . S
O62 Tb40 2.399 . S
O62 C49 1.263 . S
C63 O52 1.261 . S
C63 O53 1.257 . S
C64 C67 1.358 . S
C64 C68 1.332 . S
C64 C70 1.504 . S
C65 C66 1.373 . S
C65 C69 1.308 . S
C66 C65 1.373 . S
C66 C67 1.429 . S
C66 H76 0.932 . S
C67 C64 1.358 . S
C67 C66 1.429 . S
C67 H77 0.930 . S
C68 C64 1.332 . S
C68 C69 1.394 . S
C68 H78 0.932 . S
C69 C65 1.308 . S
C69 C68 1.394 . S
C69 H79 0.929 . S
C70 Tb41 2.764 . S
C70 O54 1.239 . S
C70 O55 1.263 . S
C70 C64 1.504 . S
C71 O56 1.236 . S
C71 O57 1.257 . S
H72 C45 0.932 . S
H73 C46 0.930 . S
H74 C47 0.932 . S
H75 C48 0.929 . S
H76 C66 0.932 . S
H77 C67 0.930 . S
H78 C68 0.932 . S
H79 C69 0.929 . S
Tb80 C89 2.764 . S
Tb80 O90 2.325 . S
Tb80 O93 2.303 . S
Tb80 O97 2.322 . S
Tb80 O98 2.349 . S
Tb80 O101 2.415 . S
Tb80 O102 2.399 . S
Tb81 O91 2.322 . S
Tb81 O92 2.349 . S
Tb81 O94 2.415 . S
Tb81 O95 2.399 . S
Tb81 O96 2.325 . S
Tb81 O99 2.303 . S
Tb81 C110 2.764 . S
C82 O98 1.261 . S
C82 O99 1.257 . S
C83 C86 1.358 . S
C83 C87 1.332 . S
C83 C89 1.504 . S
C84 C85 1.373 . S
C84 C88 1.308 . S
C85 C84 1.373 . S
C85 C86 1.429 . S
C85 H112 0.932 . S
C86 C83 1.358 . S
C86 C85 1.429 . S
C86 H113 0.930 . S
C87 C83 1.332 . S
C87 C88 1.394 . S
C87 H114 0.932 . S
C88 C84 1.308 . S
C88 C87 1.394 . S
C88 H115 0.929 . S
C89 Tb80 2.764 . S
C89 C83 1.504 . S
C89 O101 1.239 . S
C89 O102 1.263 . S
O90 Tb80 2.325 . S
O90 C100 1.236 . S
O91 Tb81 2.322 . S
O91 C100 1.257 . S
O92 Tb81 2.349 . S
O92 C103 1.261 . S
O93 Tb80 2.303 . S
O93 C103 1.257 . S
O94 Tb81 2.415 . S
O94 C110 1.239 . S
O95 Tb81 2.399 . S
O95 C110 1.263 . S
O96 Tb81 2.325 . S
O96 C111 1.236 . S
O97 Tb80 2.322 . S
O97 C111 1.257 . S
O98 Tb80 2.349 . S
O98 C82 1.261 . S
O99 Tb81 2.303 . S
O99 C82 1.257 . S
C100 O90 1.236 . S
C100 O91 1.257 . S
O101 Tb80 2.415 . S
O101 C89 1.239 . S
O102 Tb80 2.399 . S
O102 C89 1.263 . S
C103 O92 1.261 . S
C103 O93 1.257 . S
C104 C107 1.358 . S
C104 C108 1.332 . S
C104 C110 1.504 . S
C105 C106 1.373 . S
C105 C109 1.308 . S
C106 C105 1.373 . S
C106 C107 1.429 . S
C106 H116 0.932 . S
C107 C104 1.358 . S
C107 C106 1.429 . S
C107 H117 0.930 . S
C108 C104 1.332 . S
C108 C109 1.394 . S
C108 H118 0.932 . S
C109 C105 1.308 . S
C109 C108 1.394 . S
C109 H119 0.929 . S
C110 Tb81 2.764 . S
C110 O94 1.239 . S
C110 O95 1.263 . S
C110 C104 1.504 . S
C111 O96 1.236 . S
C111 O97 1.257 . S
H112 C85 0.932 . S
H113 C86 0.930 . S
H114 C87 0.932 . S
H115 C88 0.929 . S
H116 C106 0.932 . S
H117 C107 0.930 . S
H118 C108 0.932 . S
H119 C109 0.929 . S
C120 C121 1.384 . S
C120 H133 0.947 . S
C120 C155 1.382 . S
C121 C120 1.384 . S
C121 C122 1.378 . S
C122 C121 1.378 . S
C122 C123 1.378 . S
C122 H134 0.952 . S
C123 C122 1.378 . S
C123 H135 0.950 . S
C123 C154 1.383 . S
H124 C143 0.947 . S
H125 C144 0.946 . S
H126 C146 0.953 . S
H127 C147 0.945 . S
H128 C149 0.952 . S
H129 C150 0.949 . S
H130 C152 0.940 1_565 S
H131 C153 0.948 . S
H132 C155 0.951 . S
H133 C120 0.947 . S
H134 C122 0.952 . S
H135 C123 0.950 . S
N136 C139 1.382 . S
N136 C141 1.363 1_545 S
N137 C139 1.371 . S
N137 C140 1.372 . S
N138 C140 1.361 1_565 S
N138 C141 1.377 . S
C139 N136 1.382 . S
C139 N137 1.371 . S
C139 C142 1.480 . S
C140 N137 1.372 . S
C140 N138 1.361 1_545 S
C140 C148 1.457 . S
C141 N136 1.363 1_565 S
C141 N138 1.377 . S
C141 C154 1.479 . S
C142 C139 1.480 . S
C142 C143 1.383 . S
C142 C147 1.385 . S
C143 H124 0.947 . S
C143 C142 1.383 . S
C143 C144 1.388 . S
C144 H125 0.946 . S
C144 C143 1.388 . S
C144 C145 1.384 . S
C145 C144 1.384 . S
C145 C146 1.377 . S
C146 H126 0.953 . S
C146 C145 1.377 . S
C146 C147 1.369 . S
C147 H127 0.945 . S
C147 C142 1.385 . S
C147 C146 1.369 . S
C148 C140 1.457 . S
C148 C149 1.372 . S
C148 C153 1.364 1_545 S
C149 H128 0.952 . S
C149 C148 1.372 . S
C149 C150 1.389 . S
C150 H129 0.949 . S
C150 C149 1.389 . S
C150 C151 1.387 . S
C151 C150 1.387 . S
C151 C152 1.383 . S
C152 H130 0.940 1_545 S
C152 C151 1.383 . S
C152 C153 1.378 1_545 S
C153 H131 0.948 . S
C153 C148 1.364 1_565 S
C153 C152 1.378 1_565 S
C154 C123 1.383 . S
C154 C141 1.479 . S
C154 C155 1.398 . S
C155 C120 1.382 . S
C155 H132 0.951 . S
C155 C154 1.398 . S
C156 C157 1.384 . S
C156 H169 0.947 . S
C156 C191 1.382 . S
C157 C156 1.384 . S
C157 C158 1.378 . S
C158 C157 1.378 . S
C158 C159 1.378 . S
C158 H170 0.952 . S
C159 C158 1.378 . S
C159 H171 0.950 . S
C159 C190 1.383 . S
H160 C179 0.947 . S
H161 C180 0.946 . S
H162 C182 0.953 . S
H163 C183 0.945 . S
H164 C185 0.952 . S
H165 C186 0.949 . S
H166 C188 0.950 . S
H167 C189 0.948 . S
H168 C191 0.951 . S
H169 C156 0.947 . S
H170 C158 0.952 . S
H171 C159 0.950 . S
N172 C175 1.382 . S
N172 C177 1.363 . S
N173 C175 1.371 . S
N173 C176 1.372 . S
N174 C176 1.361 . S
N174 C177 1.377 . S
C175 N172 1.382 . S
C175 N173 1.371 . S
C175 C178 1.480 . S
C176 N173 1.372 . S
C176 N174 1.361 . S
C176 C184 1.457 . S
C177 N172 1.363 . S
C177 N174 1.377 . S
C177 C190 1.479 . S
C178 C175 1.480 . S
C178 C179 1.383 . S
C178 C183 1.385 . S
C179 H160 0.947 . S
C179 C178 1.383 . S
C179 C180 1.388 . S
C180 H161 0.946 . S
C180 C179 1.388 . S
C180 C181 1.384 . S
C181 C180 1.384 . S
C181 C182 1.377 . S
C182 H162 0.953 . S
C182 C181 1.377 . S
C182 C183 1.369 . S
C183 H163 0.945 . S
C183 C178 1.385 . S
C183 C182 1.369 . S
C184 C176 1.457 . S
C184 C185 1.372 . S
C184 C189 1.364 . S
C185 H164 0.952 . S
C185 C184 1.372 . S
C185 C186 1.389 . S
C186 H165 0.949 . S
C186 C185 1.389 . S
C186 C187 1.387 . S
C187 C186 1.387 . S
C187 C188 1.372 . S
C188 H166 0.950 . S
C188 C187 1.372 . S
C188 C189 1.379 . S
C189 H167 0.948 . S
C189 C184 1.364 . S
C189 C188 1.379 . S
C190 C159 1.383 . S
C190 C177 1.479 . S
C190 C191 1.398 . S
C191 C156 1.382 . S
C191 H168 0.951 . S
C191 C190 1.398 . S
C192 C193 1.384 . S
C192 H205 0.947 . S
C192 C227 1.382 . S
C193 C192 1.384 . S
C193 C194 1.378 . S
C194 C193 1.378 . S
C194 C195 1.378 . S
C194 H206 0.952 . S
C195 C194 1.378 . S
C195 H207 0.950 . S
C195 C226 1.383 . S
H196 C215 0.947 . S
H197 C216 0.946 . S
H198 C218 0.953 . S
H199 C219 0.945 . S
H200 C221 0.952 1_556 S
H201 C222 0.949 . S
H202 C224 0.950 1_655 S
H203 C225 0.948 1_656 S
H204 C227 0.951 . S
H205 C192 0.947 . S
H206 C194 0.952 . S
H207 C195 0.950 . S
N208 C211 1.382 . S
N208 C213 1.363 . S
N209 C211 1.371 . S
N209 C212 1.372 . S
N210 C212 1.361 . S
N210 C213 1.377 . S
C211 N208 1.382 . S
C211 N209 1.371 . S
C211 C214 1.480 . S
C212 N209 1.372 . S
C212 N210 1.361 . S
C212 C220 1.457 . S
C213 N208 1.363 . S
C213 N210 1.377 . S
C213 C226 1.479 1_455 S
C214 C211 1.480 . S
C214 C215 1.383 . S
C214 C219 1.385 . S
C215 H196 0.947 . S
C215 C214 1.383 . S
C215 C216 1.388 . S
C216 H197 0.946 . S
C216 C215 1.388 . S
C216 C217 1.384 . S
C217 C216 1.384 . S
C217 C218 1.377 . S
C218 H198 0.953 . S
C218 C217 1.377 . S
C218 C219 1.369 . S
C219 H199 0.945 . S
C219 C214 1.385 . S
C219 C218 1.369 . S
C220 C212 1.457 . S
C220 C221 1.372 1_556 S
C220 C225 1.364 1_556 S
C221 H200 0.952 1_554 S
C221 C220 1.372 1_554 S
C221 C222 1.389 . S
C222 H201 0.949 . S
C222 C221 1.389 . S
C222 C223 1.387 . S
C223 C222 1.387 . S
C223 C224 1.372 . S
C224 H202 0.950 1_455 S
C224 C223 1.372 . S
C224 C225 1.379 . S
C225 H203 0.948 1_454 S
C225 C220 1.364 1_554 S
C225 C224 1.379 . S
C226 C195 1.383 . S
C226 C213 1.479 1_655 S
C226 C227 1.398 . S
C227 C192 1.382 . S
C227 H204 0.951 . S
C227 C226 1.398 . S
C228 C229 1.384 . S
C228 H241 0.947 . S
C228 C263 1.382 . S
C229 C228 1.384 . S
C229 C230 1.378 . S
C230 C229 1.378 . S
C230 C231 1.378 . S
C230 H242 0.952 . S
C231 C230 1.378 . S
C231 H243 0.950 . S
C231 C262 1.383 . S
H232 C251 0.947 . S
H233 C252 0.946 . S
H234 C254 0.953 . S
H235 C255 0.945 . S
H236 C257 0.952 . S
H237 C258 0.949 . S
H238 C260 0.950 . S
H239 C261 0.948 . S
H240 C263 0.951 . S
H241 C228 0.947 . S
H242 C230 0.952 . S
H243 C231 0.950 . S
N244 C247 1.382 1_455 S
N244 C249 1.363 . S
N245 C247 1.371 . S
N245 C248 1.372 1_655 S
N246 C248 1.361 . S
N246 C249 1.377 . S
C247 N244 1.382 1_655 S
C247 N245 1.371 . S
C247 C250 1.480 . S
C248 N245 1.372 1_455 S
C248 N246 1.361 . S
C248 C256 1.457 . S
C249 N244 1.363 . S
C249 N246 1.377 . S
C249 C262 1.479 . S
C250 C247 1.480 . S
C250 C251 1.383 . S
C250 C255 1.385 . S
C251 H232 0.947 . S
C251 C250 1.383 . S
C251 C252 1.388 . S
C252 H233 0.946 . S
C252 C251 1.388 . S
C252 C253 1.384 . S
C253 C252 1.384 . S
C253 C254 1.377 . S
C254 H234 0.953 . S
C254 C253 1.377 . S
C254 C255 1.369 . S
C255 H235 0.945 . S
C255 C250 1.385 . S
C255 C254 1.369 . S
C256 C248 1.457 . S
C256 C257 1.372 1_455 S
C256 C261 1.364 . S
C257 H236 0.952 . S
C257 C256 1.372 1_655 S
C257 C258 1.389 . S
C258 H237 0.949 . S
C258 C257 1.389 . S
C258 C259 1.385 . S
C259 C258 1.385 . S
C259 C260 1.373 1_655 S
C260 H238 0.950 . S
C260 C259 1.373 1_455 S
C260 C261 1.379 . S
C261 H239 0.948 . S
C261 C256 1.364 . S
C261 C260 1.379 . S
C262 C231 1.383 . S
C262 C249 1.479 . S
C262 C263 1.398 . S
C263 C228 1.382 . S
C263 H240 0.951 . S
C263 C262 1.398 . S
C264 C265 1.384 . S
C264 H277 0.947 . S
C264 C299 1.382 . S
C265 C264 1.384 . S
C265 C266 1.378 . S
C266 C265 1.378 . S
C266 C267 1.378 . S
C266 H278 0.952 . S
C267 C266 1.378 . S
C267 H279 0.950 . S
C267 C298 1.383 . S
H268 C287 0.947 . S
H269 C288 0.946 . S
H270 C290 0.953 . S
H271 C291 0.945 . S
H272 C293 0.952 . S
H273 C294 0.949 . S
H274 C296 0.950 . S
H275 C297 0.948 . S
H276 C299 0.951 . S
H277 C264 0.947 . S
H278 C266 0.952 . S
H279 C267 0.950 . S
N280 C283 1.382 1_545 S
N280 C285 1.363 . S
N281 C283 1.371 . S
N281 C284 1.372 1_565 S
N282 C284 1.361 . S
N282 C285 1.377 . S
C283 N280 1.382 1_565 S
C283 N281 1.371 . S
C283 C286 1.480 . S
C284 N281 1.372 1_545 S
C284 N282 1.361 . S
C284 C292 1.457 . S
C285 N280 1.363 . S
C285 N282 1.377 . S
C285 C298 1.479 . S
C286 C283 1.480 . S
C286 C287 1.383 . S
C286 C291 1.385 . S
C287 H268 0.947 . S
C287 C286 1.383 . S
C287 C288 1.388 . S
C288 H269 0.946 . S
C288 C287 1.388 . S
C288 C289 1.384 . S
C289 C288 1.384 . S
C289 C290 1.377 . S
C290 H270 0.953 . S
C290 C289 1.377 . S
C290 C291 1.369 . S
C291 H271 0.945 . S
C291 C286 1.385 . S
C291 C290 1.369 . S
C292 C284 1.457 . S
C292 C293 1.372 1_545 S
C292 C297 1.364 . S
C293 H272 0.952 . S
C293 C292 1.372 1_565 S
C293 C294 1.389 . S
C294 H273 0.949 . S
C294 C293 1.389 . S
C294 C295 1.387 . S
C295 C294 1.387 . S
C295 C296 1.372 1_565 S
C296 H274 0.950 . S
C296 C295 1.372 1_545 S
C296 C297 1.379 . S
C297 H275 0.948 . S
C297 C292 1.364 . S
C297 C296 1.379 . S
C298 C267 1.383 . S
C298 C285 1.479 . S
C298 C299 1.398 . S
C299 C264 1.382 . S
C299 H276 0.951 . S
C299 C298 1.398 . S
C300 C301 1.384 . S
C300 H313 0.947 . S
C300 C335 1.382 . S
C301 C300 1.384 . S
C301 C302 1.378 . S
C302 C301 1.378 . S
C302 C303 1.378 . S
C302 H314 0.952 . S
C303 C302 1.378 . S
C303 H315 0.950 . S
C303 C334 1.383 . S
H304 C323 0.947 . S
H305 C324 0.946 . S
H306 C326 0.953 . S
H307 C327 0.945 . S
H308 C329 0.952 . S
H309 C330 0.949 . S
H310 C332 0.950 . S
H311 C333 0.948 . S
H312 C335 0.951 . S
H313 C300 0.947 . S
H314 C302 0.952 . S
H315 C303 0.950 . S
N316 C319 1.382 . S
N316 C321 1.363 . S
N317 C319 1.371 . S
N317 C320 1.372 . S
N318 C320 1.361 . S
N318 C321 1.377 . S
C319 N316 1.382 . S
C319 N317 1.371 . S
C319 C322 1.480 . S
C320 N317 1.372 . S
C320 N318 1.361 . S
C320 C328 1.457 1_554 S
C321 N316 1.363 . S
C321 N318 1.377 . S
C321 C334 1.479 . S
C322 C319 1.480 . S
C322 C323 1.383 . S
C322 C327 1.385 . S
C323 H304 0.947 . S
C323 C322 1.383 . S
C323 C324 1.388 . S
C324 H305 0.946 . S
C324 C323 1.388 . S
C324 C325 1.384 . S
C325 C324 1.384 . S
C325 C326 1.377 . S
C326 H306 0.953 . S
C326 C325 1.377 . S
C326 C327 1.369 . S
C327 H307 0.945 . S
C327 C322 1.385 . S
C327 C326 1.369 . S
C328 C320 1.457 1_556 S
C328 C329 1.372 . S
C328 C333 1.364 . S
C329 H308 0.952 . S
C329 C328 1.372 . S
C329 C330 1.389 . S
C330 H309 0.949 . S
C330 C329 1.389 . S
C330 C331 1.387 . S
C331 C330 1.387 . S
C331 C332 1.372 . S
C332 H310 0.950 . S
C332 C331 1.372 . S
C332 C333 1.379 . S
C333 H311 0.948 . S
C333 C328 1.364 . S
C333 C332 1.379 . S
C334 C303 1.383 . S
C334 C321 1.479 . S
C334 C335 1.398 . S
C335 C300 1.382 . S
C335 H312 0.951 . S
C335 C334 1.398 . S
C25 C325 2.404 . S
C65 C253 2.437 . S
C105 C289 2.769 . S
C4 C301 2.728 . S
C229 C44 1.854 . S
C265 C84 2.031 . S
C60 C181 4.696 . S
C100 C193 5.034 . S
C31 C121 5.091 . S
C157 C71 5.096 . S
C217 C111 4.768 . S
C20 C145 4.707 . S
C223 C2 2.077 . S
C42 C151 2.141 . S
C82 C187 2.106 . S
C295 C63 1.483 1_565 S
C331 C103 1.933 . S
C23 C259 1.181 1_455 S
