# Generated by pormake.
# Topology the, (3,8)-cn, num edge types: 1
# Building blocks:
#     Node 0, Type 0, BuildingBlock: MIDCAF_clean_linker_0, # of connection points: 3
#     Node 1, Type 0, BuildingBlock: MIDCAF_clean_linker_0, # of connection points: 3
#     Node 2, Type 0, BuildingBlock: MIDCAF_clean_linker_0, # of connection points: 3
#     Node 3, Type 0, BuildingBlock: MIDCAF_clean_linker_0, # of connection points: 3
#     Node 4, Type 0, BuildingBlock: MIDCAF_clean_linker_0, # of connection points: 3
#     Node 5, Type 0, BuildingBlock: MIDCAF_clean_linker_0, # of connection points: 3
#     Node 6, Type 0, BuildingBlock: MIDCAF_clean_linker_0, # of connection points: 3
#     Node 7, Type 0, BuildingBlock: MIDCAF_clean_linker_0, # of connection points: 3
#     Node 8, Type 1, BuildingBlock: GIZVER_clean_sbu_0, # of connection points: 8
#     Node 9, Type 1, BuildingBlock: GIZVER_clean_sbu_0, # of connection points: 8
#     Node 10, Type 1, BuildingBlock: GIZVER_clean_sbu_0, # of connection points: 8
#     Edge 11, Type (0, 1), BuildingBlock: XIVTED_clean_linker_0, # of connection points: 2
#     Edge 12, Type (0, 1), BuildingBlock: XIVTED_clean_linker_0, # of connection points: 2
#     Edge 13, Type (0, 1), BuildingBlock: XIVTED_clean_linker_0, # of connection points: 2
#     Edge 14, Type (0, 1), BuildingBlock: XIVTED_clean_linker_0, # of connection points: 2
#     Edge 15, Type (0, 1), BuildingBlock: XIVTED_clean_linker_0, # of connection points: 2
#     Edge 16, Type (0, 1), BuildingBlock: XIVTED_clean_linker_0, # of connection points: 2
#     Edge 17, Type (0, 1), BuildingBlock: XIVTED_clean_linker_0, # of connection points: 2
#     Edge 18, Type (0, 1), BuildingBlock: XIVTED_clean_linker_0, # of connection points: 2
#     Edge 19, Type (0, 1), BuildingBlock: XIVTED_clean_linker_0, # of connection points: 2
#     Edge 20, Type (0, 1), BuildingBlock: XIVTED_clean_linker_0, # of connection points: 2
#     Edge 21, Type (0, 1), BuildingBlock: XIVTED_clean_linker_0, # of connection points: 2
#     Edge 22, Type (0, 1), BuildingBlock: XIVTED_clean_linker_0, # of connection points: 2
#     Edge 23, Type (0, 1), BuildingBlock: XIVTED_clean_linker_0, # of connection points: 2
#     Edge 24, Type (0, 1), BuildingBlock: XIVTED_clean_linker_0, # of connection points: 2
#     Edge 25, Type (0, 1), BuildingBlock: XIVTED_clean_linker_0, # of connection points: 2
#     Edge 26, Type (0, 1), BuildingBlock: XIVTED_clean_linker_0, # of connection points: 2
#     Edge 27, Type (0, 1), BuildingBlock: XIVTED_clean_linker_0, # of connection points: 2
#     Edge 28, Type (0, 1), BuildingBlock: XIVTED_clean_linker_0, # of connection points: 2
#     Edge 29, Type (0, 1), BuildingBlock: XIVTED_clean_linker_0, # of connection points: 2
#     Edge 30, Type (0, 1), BuildingBlock: XIVTED_clean_linker_0, # of connection points: 2
#     Edge 31, Type (0, 1), BuildingBlock: XIVTED_clean_linker_0, # of connection points: 2
#     Edge 32, Type (0, 1), BuildingBlock: XIVTED_clean_linker_0, # of connection points: 2
#     Edge 33, Type (0, 1), BuildingBlock: XIVTED_clean_linker_0, # of connection points: 2
#     Edge 34, Type (0, 1), BuildingBlock: XIVTED_clean_linker_0, # of connection points: 2
# Relax obj value: 0.045
# Max RMSD: 0.138
# Mean RMSD: 0.067
data_MOF--net-the--node1-GIZVER_clean_sbu_0--node2-MIDCAF_clean_linker_0--edge1-XIVTED_clean_linker_0
_symmetry_space_group_name_H-M    P1
_symmetry_Int_Tables_number       1
_symmetry_cell_setting            triclinic
loop_
_symmetry_equiv_pos_as_xyz
'x, y, z'
_cell_length_a     50.3314
_cell_length_b     47.472751
_cell_length_c     43.826428
_cell_angle_alpha  86.755518
_cell_angle_beta   94.257876
_cell_angle_gamma 101.6748
loop_
_atom_site_label
_atom_site_type_symbol
_atom_site_fract_x
_atom_site_fract_y
_atom_site_fract_z
_atom_type_partial_charge
C0 C 0.21265 0.35293 0.40106 0.0
C1 C 0.20543 0.33939 0.42943 0.0
C2 C 0.22242 0.32255 0.44505 0.0
C3 C 0.24636 0.31951 0.43265 0.0
H4 H 0.31415 0.28125 0.44921 0.0
H5 H 0.33428 0.2403 0.46812 0.0
H6 H 0.36934 0.23949 0.38132 0.0
H7 H 0.34968 0.28072 0.36244 0.0
H8 H 0.36431 0.35358 0.33601 0.0
H9 H 0.38251 0.38395 0.29291 0.0
H10 H 0.3063 0.41234 0.27562 0.0
H11 H 0.28781 0.38173 0.31888 0.0
H12 H 0.24185 0.36108 0.36701 0.0
H13 H 0.20007 0.36638 0.38875 0.0
H14 H 0.21723 0.31183 0.46692 0.0
H15 H 0.25913 0.30653 0.4454 0.0
N16 N 0.29324 0.31047 0.4038 0.0
N17 N 0.32657 0.32504 0.36849 0.0
N18 N 0.28973 0.34843 0.36812 0.0
C19 C 0.31663 0.30737 0.39217 0.0
C20 C 0.31334 0.34578 0.35647 0.0
C21 C 0.27961 0.33084 0.39185 0.0
C22 C 0.33031 0.28408 0.40433 0.0
C23 C 0.32633 0.27247 0.43426 0.0
C24 C 0.33788 0.24918 0.44513 0.0
C25 C 0.35311 0.23682 0.42603 0.0
C26 C 0.35746 0.24865 0.39632 0.0
C27 C 0.34637 0.27228 0.38564 0.0
C28 C 0.32454 0.36509 0.33084 0.0
C29 C 0.35138 0.36633 0.32317 0.0
C30 C 0.36194 0.38396 0.29863 0.0
C31 C 0.34586 0.40061 0.28103 0.0
C32 C 0.31909 0.39963 0.28877 0.0
C33 C 0.30858 0.38217 0.31358 0.0
C34 C 0.25392 0.33354 0.40454 0.0
C35 C 0.23672 0.35013 0.38878 0.0
C36 C 0.65831 0.22369 0.37234 0.0
C37 C 0.63763 0.20686 0.3539 0.0
C38 C 0.63299 0.21635 0.32336 0.0
C39 C 0.64762 0.2425 0.31197 0.0
H40 H 0.62677 0.31293 0.26445 0.0
H41 H 0.60231 0.33366 0.22233 0.0
H42 H 0.67551 0.39502 0.20218 0.0
H43 H 0.69999 0.37471 0.24558 0.0
H44 H 0.74024 0.38696 0.31514 0.0
H45 H 0.78197 0.41249 0.34122 0.0
H46 H 0.79431 0.33298 0.38739 0.0
H47 H 0.75258 0.30733 0.36142 0.0
H48 H 0.68845 0.26268 0.3758 0.0
H49 H 0.66235 0.21722 0.39603 0.0
H50 H 0.6178 0.20367 0.30817 0.0
H51 H 0.64302 0.24926 0.28849 0.0
N52 N 0.66889 0.30173 0.29508 0.0
N53 N 0.70416 0.34234 0.29731 0.0
N54 N 0.70507 0.30281 0.33208 0.0
C55 C 0.68008 0.32844 0.28411 0.0
C56 C 0.71683 0.32962 0.32133 0.0
C57 C 0.68112 0.2887 0.31891 0.0
C58 C 0.66548 0.342 0.25839 0.0
C59 C 0.6378 0.33082 0.25109 0.0
C60 C 0.62373 0.34263 0.22664 0.0
C61 C 0.63691 0.36582 0.20836 0.0
C62 C 0.66458 0.37731 0.21582 0.0
C63 C 0.67868 0.36561 0.24065 0.0
C64 C 0.74287 0.34505 0.33622 0.0
C65 C 0.75188 0.37482 0.3307 0.0
C66 C 0.77575 0.38952 0.34577 0.0
C67 C 0.79143 0.37478 0.36644 0.0
C68 C 0.78282 0.34492 0.37142 0.0
C69 C 0.75876 0.33027 0.35666 0.0
C70 C 0.6676 0.25981 0.33065 0.0
C71 C 0.67323 0.24983 0.36078 0.0
C72 C 0.67962 0.65457 0.23131 0.0
C73 C 0.65533 0.66116 0.21769 0.0
C74 C 0.64576 0.6844 0.22844 0.0
C75 C 0.65981 0.70019 0.25281 0.0
H76 H 0.64701 0.74681 0.3278 0.0
H77 H 0.62593 0.7809 0.35149 0.0
H78 H 0.70417 0.82085 0.3929 0.0
H79 H 0.72506 0.78554 0.37023 0.0
H80 H 0.7614 0.72632 0.38764 0.0
H81 H 0.80046 0.7071 0.41012 0.0
H82 H 0.80784 0.67047 0.32392 0.0
H83 H 0.76884 0.68895 0.30178 0.0
H84 H 0.71225 0.66444 0.26546 0.0
H85 H 0.68772 0.63703 0.22333 0.0
H86 H 0.62699 0.68988 0.2186 0.0
H87 H 0.65161 0.71763 0.26084 0.0
N88 N 0.68741 0.7286 0.30721 0.0
N89 N 0.72464 0.73637 0.34362 0.0
N90 N 0.72261 0.70339 0.30519 0.0
C91 C 0.70039 0.74243 0.33217 0.0
C92 C 0.73589 0.71683 0.33013 0.0
C93 C 0.69842 0.70907 0.29351 0.0
C94 C 0.68778 0.76346 0.34696 0.0
C95 C 0.65978 0.76286 0.34194 0.0
C96 C 0.64768 0.78267 0.35542 0.0
C97 C 0.66328 0.8041 0.37393 0.0
C98 C 0.69134 0.80457 0.37913 0.0
C99 C 0.7034 0.78438 0.36597 0.0
C100 C 0.76163 0.70876 0.34304 0.0
C101 C 0.7716 0.71449 0.3734 0.0
C102 C 0.79406 0.70357 0.38627 0.0
C103 C 0.80699 0.68681 0.36898 0.0
C104 C 0.79796 0.68266 0.33814 0.0
C105 C 0.77557 0.69337 0.3254 0.0
C106 C 0.6839 0.69325 0.26681 0.0
C107 C 0.69376 0.67044 0.25545 0.0
C108 C 0.21116 0.65683 0.37363 0.0
C109 C 0.19493 0.63515 0.35596 0.0
C110 C 0.20441 0.62899 0.32815 0.0
C111 C 0.22965 0.64359 0.31865 0.0
H112 H 0.28914 0.63393 0.2632 0.0
H113 H 0.31197 0.61047 0.22793 0.0
H114 H 0.38478 0.67559 0.24165 0.0
H115 H 0.36217 0.69891 0.27731 0.0
H116 H 0.35867 0.75421 0.3162 0.0
H117 H 0.38325 0.79657 0.34263 0.0
H118 H 0.32266 0.78293 0.40954 0.0
H119 H 0.29809 0.74058 0.38336 0.0
H120 H 0.24836 0.68787 0.37843 0.0
H121 H 0.20483 0.66191 0.3954 0.0
H122 H 0.19232 0.61289 0.31358 0.0
H123 H 0.2363 0.63807 0.29722 0.0
N124 N 0.28522 0.66869 0.3049 0.0
N125 N 0.32354 0.70595 0.31021 0.0
N126 N 0.28666 0.70404 0.34056 0.0
C127 C 0.31041 0.68155 0.29643 0.0
C128 C 0.31178 0.7174 0.33225 0.0
C129 C 0.27319 0.67976 0.32691 0.0
C130 C 0.32381 0.66829 0.27338 0.0
C131 C 0.30998 0.6434 0.25865 0.0
C132 C 0.32302 0.62999 0.23822 0.0
C133 C 0.35026 0.64103 0.23205 0.0
C134 C 0.36391 0.66626 0.24623 0.0
C135 C 0.35085 0.67974 0.26658 0.0
C136 C 0.3264 0.74379 0.34766 0.0
C137 C 0.3505 0.76024 0.33649 0.0
C138 C 0.36451 0.78468 0.3515 0.0
C139 C 0.35494 0.7931 0.37822 0.0
C140 C 0.33072 0.77686 0.38919 0.0
C141 C 0.31657 0.75262 0.37405 0.0
C142 C 0.24598 0.66498 0.33652 0.0
C143 C 0.23628 0.67164 0.36397 0.0
C144 C 0.23734 0.61865 0.68476 0.0
C145 C 0.22192 0.63279 0.66315 0.0
C146 C 0.2304 0.66257 0.65749 0.0
C147 C 0.254 0.67776 0.67264 0.0
H148 H 0.32294 0.74654 0.656 0.0
H149 H 0.34896 0.79181 0.6354 0.0
H150 H 0.39111 0.80792 0.72419 0.0
H151 H 0.36592 0.76247 0.74434 0.0
H152 H 0.36774 0.71083 0.79071 0.0
H153 H 0.39346 0.69052 0.83222 0.0
H154 H 0.35041 0.60501 0.8103 0.0
H155 H 0.3239 0.62557 0.76891 0.0
H156 H 0.27217 0.62222 0.71656 0.0
H157 H 0.23123 0.59575 0.68984 0.0
H158 H 0.21912 0.67405 0.64079 0.0
H159 H 0.26001 0.70064 0.66743 0.0
N160 N 0.30623 0.70674 0.69936 0.0
N161 N 0.3407 0.70958 0.73865 0.0
N162 N 0.30697 0.6677 0.73479 0.0
C163 C 0.32919 0.72178 0.71368 0.0
C164 C 0.3299 0.68265 0.74939 0.0
C165 C 0.29484 0.67975 0.70989 0.0
C166 C 0.34256 0.75066 0.70172 0.0
C167 C 0.33758 0.75991 0.67116 0.0
C168 C 0.35246 0.78596 0.65938 0.0
C169 C 0.37247 0.80345 0.67799 0.0
C170 C 0.37644 0.79473 0.70892 0.0
C171 C 0.36182 0.76866 0.72056 0.0
C172 C 0.34388 0.66984 0.77617 0.0
C173 C 0.36358 0.68767 0.79471 0.0
C174 C 0.3785 0.67598 0.81851 0.0
C175 C 0.3744 0.64605 0.8244 0.0
C176 C 0.35404 0.62818 0.80656 0.0
C177 C 0.33889 0.63995 0.78275 0.0
C178 C 0.26956 0.6636 0.69412 0.0
C179 C 0.26077 0.63388 0.70018 0.0
C180 C 0.22887 0.34549 0.67897 0.0
C181 C 0.20972 0.32862 0.65896 0.0
C182 C 0.21469 0.30189 0.65104 0.0
C183 C 0.23803 0.29223 0.66313 0.0
H184 H 0.30305 0.25237 0.63784 0.0
H185 H 0.32253 0.21774 0.61217 0.0
H186 H 0.36752 0.19984 0.69624 0.0
H187 H 0.34838 0.2349 0.72205 0.0
H188 H 0.36391 0.29245 0.76812 0.0
H189 H 0.38951 0.31988 0.81021 0.0
H190 H 0.33054 0.37478 0.80578 0.0
H191 H 0.30516 0.34786 0.76397 0.0
H192 H 0.26606 0.34941 0.70663 0.0
H193 H 0.22632 0.36655 0.68497 0.0
H194 H 0.20036 0.28818 0.6359 0.0
H195 H 0.24113 0.27146 0.6568 0.0
N196 N 0.29068 0.27758 0.68462 0.0
N197 N 0.32676 0.28151 0.7225 0.0
N198 N 0.2949 0.31132 0.72252 0.0
C199 C 0.31341 0.26878 0.69705 0.0
C200 C 0.31757 0.30287 0.73538 0.0
C201 C 0.28126 0.29881 0.69732 0.0
C202 C 0.32422 0.24653 0.68203 0.0
C203 C 0.31694 0.24095 0.651 0.0
C204 C 0.32816 0.22119 0.63622 0.0
C205 C 0.34653 0.20612 0.65221 0.0
C206 C 0.35326 0.21102 0.68342 0.0
C207 C 0.34242 0.23122 0.69812 0.0
C208 C 0.33253 0.318 0.76231 0.0
C209 C 0.3563 0.31025 0.77624 0.0
C210 C 0.37091 0.32587 0.80049 0.0
C211 C 0.36218 0.34967 0.81116 0.0
C212 C 0.33806 0.35686 0.7978 0.0
C213 C 0.32344 0.34125 0.77381 0.0
C214 C 0.25678 0.30895 0.68363 0.0
C215 C 0.2519 0.33571 0.69129 0.0
C216 C 0.68124 0.23415 0.63673 0.0
C217 C 0.65701 0.21813 0.64791 0.0
C218 C 0.64759 0.22684 0.67456 0.0
C219 C 0.66183 0.25127 0.6894 0.0
H220 H 0.64864 0.32399 0.73658 0.0
H221 H 0.62694 0.34821 0.77206 0.0
H222 H 0.70593 0.38814 0.81171 0.0
H223 H 0.72754 0.36504 0.77496 0.0
H224 H 0.77793 0.37043 0.73093 0.0
H225 H 0.82232 0.39504 0.71521 0.0
H226 H 0.80961 0.347 0.6327 0.0
H227 H 0.76564 0.32162 0.649 0.0
H228 H 0.71416 0.27021 0.64235 0.0
H229 H 0.68916 0.22786 0.61639 0.0
H230 H 0.62884 0.21514 0.68358 0.0
H231 H 0.65381 0.25747 0.70972 0.0
N232 N 0.68934 0.30531 0.71554 0.0
N233 N 0.72862 0.3412 0.72222 0.0
N234 N 0.72656 0.30614 0.68603 0.0
C235 C 0.70301 0.32914 0.7299 0.0
C236 C 0.74053 0.32992 0.70025 0.0
C237 C 0.70104 0.29354 0.6937 0.0
C238 C 0.68983 0.34259 0.75286 0.0
C239 C 0.66137 0.33783 0.75297 0.0
C240 C 0.64891 0.35167 0.77356 0.0
C241 C 0.66456 0.37025 0.79504 0.0
C242 C 0.69309 0.37452 0.79524 0.0
C243 C 0.70554 0.36107 0.77426 0.0
C244 C 0.76809 0.34407 0.6912 0.0
C245 C 0.78463 0.36498 0.70949 0.0
C246 C 0.8101 0.37925 0.70037 0.0
C247 C 0.81963 0.37323 0.67254 0.0
C248 C 0.80323 0.35196 0.65449 0.0
C249 C 0.77786 0.33748 0.66377 0.0
C250 C 0.68601 0.26742 0.67814 0.0
C251 C 0.69563 0.25839 0.65173 0.0
C252 C 0.65325 0.62781 0.71556 0.0
C253 C 0.66804 0.62301 0.74329 0.0
C254 C 0.69614 0.63468 0.74584 0.0
C255 C 0.70893 0.65098 0.72157 0.0
H256 H 0.78122 0.66273 0.67047 0.0
H257 H 0.82342 0.65446 0.65182 0.0
H258 H 0.81101 0.70634 0.56991 0.0
H259 H 0.76904 0.71483 0.5883 0.0
H260 H 0.72441 0.75008 0.58512 0.0
H261 H 0.70266 0.78725 0.55999 0.0
H262 H 0.63175 0.75655 0.61138 0.0
H263 H 0.65326 0.71906 0.63644 0.0
H264 H 0.65388 0.6485 0.67085 0.0
H265 H 0.63181 0.61857 0.71218 0.0
H266 H 0.70824 0.63202 0.76687 0.0
H267 H 0.73049 0.66004 0.72434 0.0
N268 N 0.7326 0.67443 0.66309 0.0
N269 N 0.7305 0.70953 0.62371 0.0
N270 N 0.69303 0.69342 0.65314 0.0
C271 C 0.74446 0.69143 0.63987 0.0
C272 C 0.7049 0.7108 0.63022 0.0
C273 C 0.70683 0.67527 0.66968 0.0
C274 C 0.77156 0.6891 0.63072 0.0
C275 C 0.78767 0.67271 0.6487 0.0
C276 C 0.8119 0.66815 0.63816 0.0
C277 C 0.82022 0.67966 0.60939 0.0
C278 C 0.80483 0.69709 0.59207 0.0
C279 C 0.78082 0.70193 0.60271 0.0
C280 C 0.69069 0.73172 0.6131 0.0
C281 C 0.70406 0.75098 0.59092 0.0
C282 C 0.69168 0.77237 0.57653 0.0
C283 C 0.66563 0.77485 0.58386 0.0
C284 C 0.65178 0.75494 0.60507 0.0
C285 C 0.66419 0.73359 0.6196 0.0
C286 C 0.69379 0.65663 0.69456 0.0
C287 C 0.66591 0.6448 0.69169 0.0
Co288 Co 0.05423 0.46395 0.53586 0.0
Co289 Co 0.02838 0.45494 0.48205 0.0
Co290 Co 0.00678 0.50375 0.51407 0.0
O291 O 0.01844 0.46583 0.51896 0.0
H292 H 0.00466 0.45081 0.52738 0.0
O293 O 0.99502 0.5416 0.50906 0.0
Co294 Co 0.95832 0.54324 0.49501 0.0
Co295 Co 0.98702 0.55178 0.54703 0.0
H296 H 0.00835 0.55662 0.49991 0.0
O297 O 0.03103 0.4172 0.47529 0.0
O298 O 0.06332 0.4518 0.49631 0.0
O299 O 0.03271 0.48369 0.44915 0.0
O300 O 0.03106 0.51929 0.47944 0.0
O301 O 0.97641 0.48582 0.48447 0.0
O302 O 0.92567 0.54705 0.48065 0.0
O303 O 0.96435 0.58057 0.47986 0.0
O304 O 0.94695 0.50438 0.50733 0.0
O305 O 0.98268 0.48808 0.54872 0.0
O306 O 0.98401 0.52327 0.58035 0.0
O307 O 0.95188 0.5561 0.53565 0.0
O308 O 0.98698 0.58937 0.55463 0.0
C309 C 0.07226 0.43391 0.55998 0.0
C310 C 0.06159 0.52115 0.54061 0.0
C311 C 0.03755 0.51027 0.45458 0.0
C312 C 0.05592 0.42611 0.48589 0.0
C313 C 0.93831 0.57269 0.47252 0.0
C314 C 0.95177 0.48643 0.48906 0.0
C315 C 0.97774 0.49686 0.57435 0.0
C316 C 0.96136 0.58158 0.54622 0.0
O317 O 0.08598 0.45946 0.55322 0.0
O318 O 0.04668 0.4267 0.55045 0.0
O319 O 0.03682 0.52196 0.54399 0.0
O320 O 0.06694 0.50256 0.52363 0.0
Co321 Co 0.53597 0.95127 0.49579 0.0
Co322 Co 0.54905 0.97202 0.55055 0.0
Co323 Co 0.50562 0.0047 0.51514 0.0
O324 O 0.53875 0.98812 0.51283 0.0
H325 H 0.55383 1.00216 0.50541 0.0
O326 O 0.47254 0.02127 0.51746 0.0
Co327 Co 0.4751 0.05909 0.53195 0.0
Co328 Co 0.46249 0.03536 0.47868 0.0
H329 H 0.45755 0.00749 0.52546 0.0
O330 O 0.5838 0.9638 0.55915 0.0
O331 O 0.54745 0.9358 0.53603 0.0
O332 O 0.52305 0.9665 0.58141 0.0
O333 O 0.48976 0.97669 0.54897 0.0
O334 O 0.52657 0.03225 0.54566 0.0
O335 O 0.47443 0.0931 0.54633 0.0
O336 O 0.4406 0.054 0.54412 0.0
O337 O 0.51193 0.06931 0.52259 0.0
O338 O 0.52157 0.0326 0.48141 0.0
O339 O 0.48826 0.03957 0.44751 0.0
O340 O 0.46342 0.07238 0.49048 0.0
O341 O 0.42776 0.04203 0.46865 0.0
C342 C 0.5612 0.93132 0.47366 0.0
C343 C 0.4817 0.95037 0.48882 0.0
C344 C 0.49798 0.96546 0.57427 0.0
C345 C 0.57241 0.93951 0.54729 0.0
C346 C 0.44967 0.08062 0.55178 0.0
C347 C 0.52929 0.0594 0.54038 0.0
C348 C 0.51337 0.04227 0.45535 0.0
C349 C 0.43866 0.06739 0.47829 0.0
O350 O 0.53645 0.91841 0.4786 0.0
O351 O 0.5705 0.95714 0.48358 0.0
O352 O 0.48445 0.97754 0.48432 0.0
O353 O 0.49939 0.94014 0.50561 0.0
Co354 Co 0.47882 0.52124 0.07589 0.0
Co355 Co 0.46522 0.46903 0.05585 0.0
Co356 Co 0.50879 0.50688 0.01346 0.0
O357 O 0.4757 0.50506 0.03643 0.0
H358 H 0.46071 0.50988 0.02351 0.0
O359 O 0.5419 0.50861 0.99047 0.0
Co360 Co 0.53866 0.49218 0.9512 0.0
Co361 Co 0.55275 0.54413 0.97078 0.0
H362 H 0.55685 0.50373 1.00341 0.0
O363 O 0.42998 0.45642 0.06801 0.0
O364 O 0.46543 0.48266 0.09469 0.0
O365 O 0.49104 0.4438 0.05891 0.0
O366 O 0.5243 0.47798 0.04167 0.0
O367 O 0.48739 0.47529 0.98755 0.0
O368 O 0.53845 0.47568 0.91588 0.0
O369 O 0.57256 0.48435 0.95256 0.0
O370 O 0.50251 0.49726 0.94488 0.0
O371 O 0.49343 0.53596 0.9852 0.0
O372 O 0.52739 0.5697 0.96854 0.0
O373 O 0.55148 0.53059 0.93171 0.0
O374 O 0.58784 0.55614 0.95767 0.0
C375 C 0.45457 0.53953 0.1013 0.0
C376 C 0.53264 0.53435 0.06863 0.0
C377 C 0.51608 0.45376 0.05568 0.0
C378 C 0.44032 0.46877 0.09307 0.0
C379 C 0.56278 0.47333 0.92643 0.0
C380 C 0.48492 0.47887 0.95849 0.0
C381 C 0.5022 0.56025 0.97149 0.0
C382 C 0.57649 0.54468 0.93253 0.0
O383 O 0.47894 0.53703 0.11153 0.0
O384 O 0.44501 0.52952 0.07463 0.0
O385 O 0.53014 0.5383 0.03958 0.0
O386 O 0.51495 0.51593 0.08215 0.0
H387 H 0.20153 0.35323 0.48831 0.0
H388 H 0.10869 0.43703 0.50895 0.0
H389 H 0.15435 0.33737 0.40248 0.0
H390 H 0.05015 0.37479 0.45793 0.0
H391 H 0.14341 0.40959 0.50205 0.0
H392 H 0.16315 0.36851 0.50904 0.0
C393 C 0.18294 0.35257 0.474 0.0
C394 C 0.18119 0.34458 0.44348 0.0
C395 C 0.12282 0.40145 0.49309 0.0
C396 C 0.13771 0.36262 0.46669 0.0
C397 C 0.10296 0.41727 0.49681 0.0
C398 C 0.07641 0.40815 0.48408 0.0
C399 C 0.11626 0.37668 0.47589 0.0
C400 C 0.07037 0.38257 0.46815 0.0
C401 C 0.16121 0.36158 0.48572 0.0
C402 C 0.15665 0.34404 0.42591 0.0
N403 N 0.09033 0.36799 0.46395 0.0
N404 N 0.13587 0.3532 0.43772 0.0
H405 H 0.58296 0.18741 0.34156 0.0
H406 H 0.56878 0.0573 0.46645 0.0
H407 H 0.65185 0.16565 0.3956 0.0
H408 H 0.50361 0.07239 0.40174 0.0
H409 H 0.60004 0.09532 0.43985 0.0
H410 H 0.55416 0.14443 0.36266 0.0
C411 C 0.59219 0.17344 0.35758 0.0
C412 C 0.62005 0.18026 0.3666 0.0
C413 C 0.57897 0.09005 0.43126 0.0
C414 C 0.58674 0.13093 0.39152 0.0
C415 C 0.56108 0.06823 0.44636 0.0
C416 C 0.53338 0.06166 0.43649 0.0
C417 C 0.56911 0.10559 0.40619 0.0
C418 C 0.5247 0.07669 0.41033 0.0
C419 C 0.5756 0.14888 0.36978 0.0
C420 C 0.63048 0.16155 0.38817 0.0
N421 N 0.54241 0.09809 0.39634 0.0
N422 N 0.61381 0.13782 0.39996 0.0
H423 H 0.81172 0.63167 0.36083 0.0
H424 H 0.94608 0.63232 0.47157 0.0
H425 H 0.85034 0.70679 0.41024 0.0
H426 H 0.89337 0.55674 0.43529 0.0
H427 H 0.91532 0.66207 0.44571 0.0
H428 H 0.84566 0.60606 0.38404 0.0
C429 C 0.82756 0.64295 0.37636 0.0
C430 C 0.82823 0.67157 0.38333 0.0
C431 C 0.9107 0.63898 0.44337 0.0
C432 C 0.8673 0.6419 0.41073 0.0
C433 C 0.92831 0.62209 0.45787 0.0
C434 C 0.92224 0.59206 0.45552 0.0
C435 C 0.88724 0.62562 0.42617 0.0
C436 C 0.8988 0.57978 0.43788 0.0
C437 C 0.8469 0.62817 0.38987 0.0
C438 C 0.84898 0.68469 0.4043 0.0
N439 N 0.8823 0.59654 0.42395 0.0
N440 N 0.86777 0.66976 0.41727 0.0
H441 H 0.36646 0.79625 0.44004 0.0
H442 H 0.45263 0.95799 0.4342 0.0
H443 H 0.37944 0.84654 0.35539 0.0
H444 H 0.45955 0.89614 0.50887 0.0
H445 H 0.41908 0.92096 0.4073 0.0
H446 H 0.3939 0.83638 0.46782 0.0
C447 C 0.37485 0.81586 0.42731 0.0
C448 C 0.37069 0.81798 0.39531 0.0
C449 C 0.42783 0.91567 0.42969 0.0
C450 C 0.40231 0.86408 0.42704 0.0
C451 C 0.44678 0.93681 0.4451 0.0
C452 C 0.45901 0.93003 0.47368 0.0
C453 C 0.42081 0.88782 0.44325 0.0
C454 C 0.45083 0.90221 0.48673 0.0
C455 C 0.39065 0.83871 0.44317 0.0
C456 C 0.38239 0.84386 0.38002 0.0
N457 N 0.43231 0.88218 0.47144 0.0
N458 N 0.39767 0.86592 0.39602 0.0
H459 H 0.21695 0.58116 0.63643 0.0
H460 H 0.0602 0.56559 0.57842 0.0
H461 H 0.17171 0.647 0.65015 0.0
H462 H 0.11519 0.51791 0.54372 0.0
H463 H 0.09879 0.59339 0.60884 0.0
H464 H 0.17755 0.55476 0.60705 0.0
C465 C 0.19863 0.58997 0.63346 0.0
C466 C 0.19766 0.61634 0.64582 0.0
C467 C 0.10228 0.57686 0.59446 0.0
C468 C 0.15233 0.5862 0.61192 0.0
C469 C 0.08029 0.56099 0.57712 0.0
C470 C 0.08436 0.53929 0.55849 0.0
C471 C 0.12838 0.57068 0.59342 0.0
C472 C 0.1109 0.53432 0.55772 0.0
C473 C 0.17618 0.57498 0.61647 0.0
C474 C 0.17342 0.62686 0.64081 0.0
N475 N 0.13174 0.54971 0.575 0.0
N476 N 0.15167 0.61171 0.62435 0.0
H477 H 0.37176 0.21719 0.59864 0.0
H478 H 0.40363 0.06093 0.58342 0.0
H479 H 0.35112 0.15048 0.66876 0.0
H480 H 0.45574 0.13889 0.55103 0.0
H481 H 0.37651 0.09051 0.60732 0.0
H482 H 0.3948 0.18543 0.57277 0.0
C483 C 0.37188 0.19574 0.60842 0.0
C484 C 0.35961 0.18646 0.63592 0.0
C485 C 0.39385 0.10097 0.59483 0.0
C486 C 0.38575 0.14998 0.60634 0.0
C487 C 0.40922 0.08417 0.58112 0.0
C488 C 0.43203 0.09746 0.56531 0.0
C489 C 0.401 0.13115 0.59195 0.0
C490 C 0.43843 0.12768 0.56311 0.0
C491 C 0.38512 0.17771 0.59375 0.0
C492 C 0.36054 0.1585 0.64773 0.0
N493 N 0.42293 0.14345 0.57607 0.0
N494 N 0.37331 0.14114 0.6328 0.0
H495 H 0.85742 0.35393 0.64093 0.0
H496 H 0.95454 0.50935 0.62541 0.0
H497 H 0.84229 0.43047 0.67958 0.0
H498 H 0.95891 0.43871 0.5693 0.0
H499 H 0.91866 0.47797 0.65283 0.0
H500 H 0.8991 0.38238 0.621 0.0
C501 C 0.86278 0.37667 0.64528 0.0
C502 C 0.84604 0.38975 0.66187 0.0
C503 C 0.92767 0.46925 0.63473 0.0
C504 C 0.89416 0.42235 0.63952 0.0
C505 C 0.94833 0.48712 0.61915 0.0
C506 C 0.95966 0.4768 0.59473 0.0
C507 C 0.91826 0.44077 0.62598 0.0
C508 C 0.95068 0.44772 0.5878 0.0
C509 C 0.88671 0.39285 0.63404 0.0
C510 C 0.85455 0.41923 0.66729 0.0
N511 N 0.93038 0.4308 0.60316 0.0
N512 N 0.87789 0.43449 0.65608 0.0
H513 H 0.69081 0.83133 0.57826 0.0
H514 H 0.55252 0.88453 0.53 0.0
H515 H 0.61335 0.77421 0.5612 0.0
H516 H 0.62628 0.94067 0.56339 0.0
H517 H 0.57675 0.84493 0.53181 0.0
H518 H 0.66961 0.87236 0.56306 0.0
C519 C 0.66943 0.8274 0.5708 0.0
C520 C 0.65371 0.79938 0.57125 0.0
C521 C 0.58768 0.86593 0.53861 0.0
C522 C 0.62932 0.84616 0.55429 0.0
C523 C 0.57387 0.88859 0.53759 0.0
C524 C 0.58734 0.91587 0.54696 0.0
C525 C 0.61511 0.87052 0.54924 0.0
C526 C 0.61503 0.91988 0.55636 0.0
C527 C 0.65732 0.85083 0.56235 0.0
C528 C 0.62606 0.79553 0.56166 0.0
N529 N 0.62799 0.89734 0.55748 0.0
N530 N 0.61469 0.8187 0.55377 0.0
H531 H 0.3848 0.22953 0.47801 0.0
H532 H 0.38813 0.06602 0.44985 0.0
H533 H 0.34532 0.18584 0.39822 0.0
H534 H 0.45521 0.12291 0.49577 0.0
H535 H 0.36501 0.10658 0.43979 0.0
H536 H 0.40371 0.18674 0.49404 0.0
C537 C 0.38002 0.21082 0.46406 0.0
C538 C 0.36381 0.21109 0.43667 0.0
C539 C 0.38469 0.10998 0.45232 0.0
C540 C 0.38483 0.16246 0.45487 0.0
C541 C 0.39788 0.08692 0.45811 0.0
C542 C 0.42364 0.09109 0.47371 0.0
C543 C 0.39721 0.13722 0.46259 0.0
C544 C 0.4353 0.11865 0.48387 0.0
C545 C 0.39081 0.18659 0.4731 0.0
C546 C 0.35807 0.18645 0.41928 0.0
N547 N 0.42197 0.14071 0.47818 0.0
N548 N 0.36856 0.16303 0.42871 0.0
H549 H 0.84169 0.3602 0.37726 0.0
H550 H 0.89815 0.48918 0.48878 0.0
H551 H 0.79715 0.42551 0.39518 0.0
H552 H 0.95206 0.44334 0.44908 0.0
H553 H 0.86004 0.46201 0.45867 0.0
H554 H 0.8814 0.38657 0.40702 0.0
C555 C 0.84026 0.38005 0.38746 0.0
C556 C 0.81605 0.3907 0.38365 0.0
C557 C 0.88017 0.45785 0.45645 0.0
C558 C 0.86128 0.42078 0.41783 0.0
C559 C 0.90205 0.47334 0.47376 0.0
C560 C 0.92853 0.46874 0.47141 0.0
C561 C 0.88449 0.43718 0.43673 0.0
C562 C 0.93205 0.44771 0.45156 0.0
C563 C 0.86295 0.39513 0.40429 0.0
C564 C 0.81543 0.41664 0.39719 0.0
N565 N 0.91026 0.43263 0.43502 0.0
N566 N 0.83758 0.43063 0.41378 0.0
H567 H 0.62077 0.82814 0.349 0.0
H568 H 0.61628 0.93335 0.4831 0.0
H569 H 0.67585 0.83014 0.42969 0.0
H570 H 0.54511 0.89348 0.42874 0.0
H571 H 0.6431 0.90394 0.45842 0.0
H572 H 0.59749 0.8607 0.37258 0.0
C573 C 0.62798 0.83519 0.37173 0.0
C574 C 0.65015 0.82571 0.38748 0.0
C575 C 0.62165 0.90188 0.45184 0.0
C576 C 0.62385 0.86407 0.41423 0.0
C577 C 0.60643 0.91874 0.46569 0.0
C578 C 0.57849 0.91584 0.45782 0.0
C579 C 0.60889 0.88268 0.42945 0.0
C580 C 0.56659 0.89633 0.43548 0.0
C581 C 0.61472 0.85403 0.38507 0.0
C582 C 0.659 0.83681 0.41648 0.0
N583 N 0.58185 0.88067 0.42195 0.0
N584 N 0.64581 0.85536 0.42894 0.0
H585 H 0.15702 0.65418 0.38768 0.0
H586 H 0.06097 0.49823 0.40352 0.0
H587 H 0.17281 0.5777 0.34955 0.0
H588 H 0.05605 0.56854 0.45987 0.0
H589 H 0.0967 0.52989 0.37623 0.0
H590 H 0.11558 0.62546 0.40793 0.0
C591 C 0.15187 0.6314 0.38352 0.0
C592 C 0.16871 0.61842 0.36695 0.0
C593 C 0.08762 0.53847 0.39437 0.0
C594 C 0.12086 0.58552 0.38963 0.0
C595 C 0.06704 0.52044 0.40989 0.0
C596 C 0.05558 0.53057 0.43434 0.0
C597 C 0.09684 0.56695 0.40319 0.0
C598 C 0.06436 0.55967 0.44134 0.0
C599 C 0.12807 0.61506 0.39494 0.0
C600 C 0.16046 0.58887 0.36178 0.0
N601 N 0.08462 0.57675 0.42604 0.0
N602 N 0.13724 0.57348 0.37314 0.0
H603 H 0.42682 0.82369 0.69163 0.0
H604 H 0.44252 0.95078 0.56293 0.0
H605 H 0.35877 0.84344 0.63444 0.0
H606 H 0.50726 0.936 0.62841 0.0
H607 H 0.41089 0.91352 0.59008 0.0
H608 H 0.45586 0.86613 0.66981 0.0
C609 C 0.41782 0.83712 0.67476 0.0
C610 C 0.39013 0.82988 0.66505 0.0
C611 C 0.43195 0.91869 0.5987 0.0
C612 C 0.42374 0.87857 0.63931 0.0
C613 C 0.45005 0.94009 0.58329 0.0
C614 C 0.47774 0.9465 0.59323 0.0
C615 C 0.44159 0.90347 0.62417 0.0
C616 C 0.4862 0.93178 0.61973 0.0
C617 C 0.43454 0.86136 0.66213 0.0
C618 C 0.38 0.84789 0.64244 0.0
N619 N 0.46829 0.91083 0.63404 0.0
N620 N 0.39681 0.87131 0.63026 0.0
H621 H 0.17953 0.35988 0.68798 0.0
H622 H 0.07239 0.37761 0.54822 0.0
H623 H 0.1828 0.32152 0.6016 0.0
H624 H 0.10574 0.44464 0.61066 0.0
H625 H 0.10313 0.3477 0.57365 0.0
H626 H 0.14235 0.38182 0.6658 0.0
C627 C 0.17253 0.35602 0.66435 0.0
C628 C 0.18495 0.3393 0.64649 0.0
C629 C 0.10329 0.36878 0.58198 0.0
C630 C 0.14154 0.36374 0.62131 0.0
C631 C 0.08568 0.38567 0.56772 0.0
C632 C 0.08663 0.4135 0.57751 0.0
C633 C 0.12118 0.37964 0.60665 0.0
C634 C 0.10445 0.42326 0.60251 0.0
C635 C 0.15111 0.36839 0.65182 0.0
C636 C 0.17399 0.33422 0.61632 0.0
N637 N 0.12093 0.40633 0.61629 0.0
N638 N 0.153 0.34655 0.60459 0.0
H639 H 0.64508 0.21419 0.58619 0.0
H640 H 0.55847 0.0527 0.59514 0.0
H641 H 0.63264 0.16503 0.67158 0.0
H642 H 0.55135 0.11338 0.51937 0.0
H643 H 0.59224 0.09008 0.62122 0.0
H644 H 0.61727 0.17374 0.55916 0.0
C645 C 0.63673 0.19476 0.59923 0.0
C646 C 0.64112 0.19306 0.63123 0.0
C647 C 0.58339 0.09505 0.59878 0.0
C648 C 0.60912 0.14661 0.60037 0.0
C649 C 0.5643 0.07371 0.58383 0.0
C650 C 0.55196 0.08004 0.55518 0.0
C651 C 0.59044 0.12267 0.58468 0.0
C652 C 0.56014 0.10766 0.54159 0.0
C653 C 0.62072 0.17173 0.5838 0.0
C654 C 0.6295 0.1674 0.64694 0.0
N655 N 0.57879 0.12789 0.55644 0.0
N656 N 0.61403 0.14517 0.63137 0.0
H657 H 0.82092 0.6585 0.55325 0.0
H658 H 0.97202 0.63082 0.57823 0.0
H659 H 0.87145 0.68077 0.63568 0.0
H660 H 0.90784 0.57581 0.52595 0.0
H661 H 0.9394 0.65979 0.5902 0.0
H662 H 0.85743 0.639 0.53359 0.0
C663 C 0.83993 0.65975 0.56693 0.0
C664 C 0.84328 0.67107 0.59615 0.0
C665 C 0.93267 0.64156 0.5758 0.0
C666 C 0.8848 0.64888 0.57392 0.0
C667 C 0.9512 0.62505 0.56889 0.0
C668 C 0.94258 0.60075 0.55117 0.0
C669 C 0.90554 0.63394 0.56449 0.0
C670 C 0.91538 0.59431 0.53969 0.0
C671 C 0.86059 0.64849 0.55581 0.0
C672 C 0.86811 0.67194 0.61316 0.0
N673 N 0.89778 0.61082 0.54659 0.0
N674 N 0.88801 0.66087 0.6018 0.0
H675 H 0.32086 0.40378 0.22371 0.0
H676 H 0.45698 0.48759 0.1506 0.0
H677 H 0.39577 0.43575 0.27628 0.0
H678 H 0.38709 0.44219 0.09785 0.0
H679 H 0.43153 0.47746 0.19655 0.0
H680 H 0.34158 0.42659 0.1774 0.0
C681 C 0.3415 0.41606 0.22557 0.0
C682 C 0.35677 0.4176 0.25375 0.0
C683 C 0.4217 0.46991 0.17488 0.0
C684 C 0.38064 0.44342 0.20096 0.0
C685 C 0.43621 0.4757 0.1486 0.0
C686 C 0.4243 0.46528 0.12041 0.0
C687 C 0.39512 0.45354 0.17298 0.0
C688 C 0.39721 0.45027 0.11919 0.0
C689 C 0.35337 0.4289 0.19913 0.0
C690 C 0.38348 0.43361 0.25487 0.0
N691 N 0.38362 0.44459 0.14517 0.0
N692 N 0.39465 0.44569 0.2288 0.0
H693 H 0.36047 0.59963 0.86509 0.0
H694 H 0.51254 0.61252 0.94002 0.0
H695 H 0.42901 0.66432 0.83811 0.0
H696 H 0.44667 0.54276 0.96305 0.0
H697 H 0.48081 0.63415 0.90623 0.0
H698 H 0.39053 0.58014 0.90365 0.0
C699 C 0.38179 0.60973 0.86718 0.0
C700 C 0.3921 0.63379 0.84829 0.0
C701 C 0.47321 0.61421 0.91883 0.0
C702 C 0.42659 0.61176 0.89269 0.0
C703 C 0.49134 0.60188 0.9383 0.0
C704 C 0.48239 0.57564 0.9544 0.0
C705 C 0.44581 0.60027 0.91521 0.0
C706 C 0.45457 0.56299 0.95115 0.0
C707 C 0.39891 0.59869 0.88936 0.0
C708 C 0.41992 0.64612 0.85241 0.0
N709 N 0.43734 0.57529 0.93177 0.0
N710 N 0.43609 0.63498 0.87405 0.0
H711 H 0.38755 0.33286 0.86518 0.0
H712 H 0.46304 0.49273 0.90266 0.0
H713 H 0.37457 0.40837 0.8113 0.0
H714 H 0.45835 0.42302 0.97082 0.0
H715 H 0.43169 0.46119 0.86841 0.0
H716 H 0.41507 0.36426 0.90343 0.0
C717 C 0.39048 0.356 0.8614 0.0
C718 C 0.37867 0.36799 0.83501 0.0
C719 C 0.43725 0.45274 0.89093 0.0
C720 C 0.41005 0.40393 0.87856 0.0
C721 C 0.45518 0.47077 0.91051 0.0
C722 C 0.46335 0.46046 0.93961 0.0
C723 C 0.42763 0.4239 0.90016 0.0
C724 C 0.45244 0.43184 0.94862 0.0
C725 C 0.406 0.37388 0.88332 0.0
C726 C 0.38297 0.39812 0.83141 0.0
N727 N 0.43536 0.41439 0.92879 0.0
N728 N 0.39839 0.41497 0.85278 0.0
H729 H 0.68234 0.42437 0.81822 0.0
H730 H 0.54312 0.43073 0.88726 0.0
H731 H 0.6159 0.35083 0.82172 0.0
H732 H 0.61844 0.48095 0.9247 0.0
H733 H 0.56883 0.40521 0.85711 0.0
H734 H 0.65898 0.44896 0.85228 0.0
C735 C 0.66304 0.41317 0.82627 0.0
C736 C 0.65112 0.38535 0.8167 0.0
C737 C 0.57976 0.42173 0.872 0.0
C738 C 0.624 0.41396 0.85507 0.0
C739 C 0.56512 0.43642 0.88909 0.0
C740 C 0.5787 0.45793 0.90856 0.0
C741 C 0.60824 0.42896 0.87379 0.0
C742 C 0.60724 0.46433 0.91012 0.0
C743 C 0.64969 0.42738 0.84562 0.0
C744 C 0.62573 0.37243 0.82763 0.0
N745 N 0.62113 0.45007 0.89268 0.0
N746 N 0.61296 0.38693 0.84591 0.0
H747 H 0.61567 0.62112 0.75876 0.0
H748 H 0.63134 0.56002 0.92625 0.0
H749 H 0.68811 0.58881 0.789 0.0
H750 H 0.5541 0.54255 0.874 0.0
H751 H 0.65393 0.57472 0.87847 0.0
H752 H 0.59352 0.59667 0.80302 0.0
C753 C 0.62691 0.60858 0.77428 0.0
C754 C 0.65397 0.60711 0.76977 0.0
C755 C 0.63209 0.56729 0.87757 0.0
C756 C 0.62873 0.57994 0.82138 0.0
C757 C 0.6192 0.55906 0.90473 0.0
C758 C 0.59082 0.5504 0.90403 0.0
C759 C 0.61634 0.56751 0.8498 0.0
C760 C 0.57602 0.54923 0.87556 0.0
C761 C 0.61419 0.59475 0.79972 0.0
C762 C 0.66749 0.59116 0.79164 0.0
N763 N 0.58891 0.55823 0.84959 0.0
N764 N 0.65485 0.57851 0.81672 0.0
H765 H 0.6302 0.67838 0.16383 0.0
H766 H 0.55504 0.51927 0.1238 0.0
H767 H 0.64422 0.60243 0.21614 0.0
H768 H 0.55951 0.59014 0.05707 0.0
H769 H 0.58696 0.55009 0.15828 0.0
H770 H 0.60307 0.64743 0.12505 0.0
C771 C 0.6276 0.65523 0.16714 0.0
C772 C 0.63951 0.64299 0.1933 0.0
C773 C 0.58123 0.55892 0.13601 0.0
C774 C 0.60854 0.60753 0.1491 0.0
C775 C 0.56297 0.54132 0.11631 0.0
C776 C 0.55456 0.55221 0.08757 0.0
C777 C 0.59089 0.58788 0.12727 0.0
C778 C 0.56558 0.5809 0.07899 0.0
C779 C 0.6123 0.63761 0.14491 0.0
C780 C 0.63569 0.61285 0.19625 0.0
N781 N 0.58294 0.59791 0.09894 0.0
N782 N 0.6204 0.59622 0.1746 0.0
H783 H 0.33123 0.61529 0.17766 0.0
H784 H 0.46916 0.56047 0.158 0.0
H785 H 0.40221 0.6315 0.24058 0.0
H786 H 0.40262 0.54987 0.08885 0.0
H787 H 0.44338 0.58439 0.1893 0.0
H788 H 0.35552 0.58947 0.14566 0.0
C789 C 0.35188 0.61338 0.1848 0.0
C790 C 0.36471 0.62573 0.21185 0.0
C791 C 0.43432 0.5769 0.1673 0.0
C792 C 0.39262 0.59624 0.17528 0.0
C793 C 0.44906 0.56315 0.14932 0.0
C794 C 0.43815 0.55327 0.12054 0.0
C795 C 0.4083 0.58091 0.15664 0.0
C796 C 0.41189 0.55725 0.11079 0.0
C797 C 0.36576 0.59874 0.16644 0.0
C798 C 0.39159 0.62278 0.21974 0.0
N799 N 0.39785 0.57084 0.12879 0.0
N800 N 0.40456 0.60835 0.20163 0.0
H801 H 0.59688 0.33667 0.16899 0.0
H802 H 0.56925 0.47686 0.07217 0.0
H803 H 0.64174 0.4224 0.18695 0.0
H804 H 0.50927 0.39807 0.07931 0.0
H805 H 0.60072 0.45492 0.1064 0.0
H806 H 0.56924 0.35694 0.12881 0.0
C807 C 0.60095 0.35977 0.16463 0.0
C808 C 0.62152 0.37783 0.18195 0.0
C809 C 0.58077 0.44237 0.10021 0.0
C810 C 0.59017 0.40109 0.13514 0.0
C811 C 0.56283 0.45476 0.08045 0.0
C812 C 0.53648 0.43929 0.07285 0.0
C813 C 0.5725 0.41416 0.11219 0.0
C814 C 0.5293 0.41084 0.08462 0.0
C815 C 0.58521 0.37127 0.14149 0.0
C816 C 0.62628 0.40752 0.17427 0.0
N817 N 0.54718 0.39922 0.10372 0.0
N818 N 0.61067 0.41821 0.15155 0.0
loop_
_geom_bond_atom_site_label_1
_geom_bond_atom_site_label_2
_geom_bond_distance
_geom_bond_site_symmetry_2
_ccdc_geom_bond_type
C0 C1 1.384 . S
C0 H13 0.947 . S
C0 C35 1.382 . S
C1 C0 1.384 . S
C1 C2 1.378 . S
C2 C1 1.378 . S
C2 C3 1.378 . S
C2 H14 0.952 . S
C3 C2 1.378 . S
C3 H15 0.950 . S
C3 C34 1.383 . S
H4 C23 0.947 . S
H5 C24 0.946 . S
H6 C26 0.953 . S
H7 C27 0.945 . S
H8 C29 0.952 . S
H9 C30 0.949 . S
H10 C32 0.950 . S
H11 C33 0.948 . S
H12 C35 0.951 . S
H13 C0 0.947 . S
H14 C2 0.952 . S
H15 C3 0.950 . S
N16 C19 1.382 . S
N16 C21 1.363 . S
N17 C19 1.371 . S
N17 C20 1.372 . S
N18 C20 1.361 . S
N18 C21 1.377 . S
C19 N16 1.382 . S
C19 N17 1.371 . S
C19 C22 1.480 . S
C20 N17 1.372 . S
C20 N18 1.361 . S
C20 C28 1.457 . S
C21 N16 1.363 . S
C21 N18 1.377 . S
C21 C34 1.479 . S
C22 C19 1.480 . S
C22 C23 1.383 . S
C22 C27 1.385 . S
C23 H4 0.947 . S
C23 C22 1.383 . S
C23 C24 1.388 . S
C24 H5 0.946 . S
C24 C23 1.388 . S
C24 C25 1.384 . S
C25 C24 1.384 . S
C25 C26 1.377 . S
C26 H6 0.953 . S
C26 C25 1.377 . S
C26 C27 1.369 . S
C27 H7 0.945 . S
C27 C22 1.385 . S
C27 C26 1.369 . S
C28 C20 1.457 . S
C28 C29 1.372 . S
C28 C33 1.364 . S
C29 H8 0.952 . S
C29 C28 1.372 . S
C29 C30 1.389 . S
C30 H9 0.949 . S
C30 C29 1.389 . S
C30 C31 1.387 . S
C31 C30 1.387 . S
C31 C32 1.372 . S
C32 H10 0.950 . S
C32 C31 1.372 . S
C32 C33 1.379 . S
C33 H11 0.948 . S
C33 C28 1.364 . S
C33 C32 1.379 . S
C34 C3 1.383 . S
C34 C21 1.479 . S
C34 C35 1.398 . S
C35 C0 1.382 . S
C35 H12 0.951 . S
C35 C34 1.398 . S
C36 C37 1.384 . S
C36 H49 0.947 . S
C36 C71 1.382 . S
C37 C36 1.384 . S
C37 C38 1.378 . S
C38 C37 1.378 . S
C38 C39 1.378 . S
C38 H50 0.952 . S
C39 C38 1.378 . S
C39 H51 0.950 . S
C39 C70 1.383 . S
H40 C59 0.947 . S
H41 C60 0.946 . S
H42 C62 0.953 . S
H43 C63 0.945 . S
H44 C65 0.952 . S
H45 C66 0.949 . S
H46 C68 0.950 . S
H47 C69 0.948 . S
H48 C71 0.951 . S
H49 C36 0.947 . S
H50 C38 0.952 . S
H51 C39 0.950 . S
N52 C55 1.382 . S
N52 C57 1.363 . S
N53 C55 1.371 . S
N53 C56 1.372 . S
N54 C56 1.361 . S
N54 C57 1.377 . S
C55 N52 1.382 . S
C55 N53 1.371 . S
C55 C58 1.480 . S
C56 N53 1.372 . S
C56 N54 1.361 . S
C56 C64 1.457 . S
C57 N52 1.363 . S
C57 N54 1.377 . S
C57 C70 1.479 . S
C58 C55 1.480 . S
C58 C59 1.383 . S
C58 C63 1.385 . S
C59 H40 0.947 . S
C59 C58 1.383 . S
C59 C60 1.388 . S
C60 H41 0.946 . S
C60 C59 1.388 . S
C60 C61 1.384 . S
C61 C60 1.384 . S
C61 C62 1.377 . S
C62 H42 0.953 . S
C62 C61 1.377 . S
C62 C63 1.369 . S
C63 H43 0.945 . S
C63 C58 1.385 . S
C63 C62 1.369 . S
C64 C56 1.457 . S
C64 C65 1.372 . S
C64 C69 1.364 . S
C65 H44 0.952 . S
C65 C64 1.372 . S
C65 C66 1.389 . S
C66 H45 0.949 . S
C66 C65 1.389 . S
C66 C67 1.387 . S
C67 C66 1.387 . S
C67 C68 1.372 . S
C68 H46 0.950 . S
C68 C67 1.372 . S
C68 C69 1.379 . S
C69 H47 0.948 . S
C69 C64 1.364 . S
C69 C68 1.379 . S
C70 C39 1.383 . S
C70 C57 1.479 . S
C70 C71 1.398 . S
C71 C36 1.382 . S
C71 H48 0.951 . S
C71 C70 1.398 . S
C72 C73 1.384 . S
C72 H85 0.947 . S
C72 C107 1.382 . S
C73 C72 1.384 . S
C73 C74 1.378 . S
C74 C73 1.378 . S
C74 C75 1.378 . S
C74 H86 0.952 . S
C75 C74 1.378 . S
C75 H87 0.950 . S
C75 C106 1.383 . S
H76 C95 0.947 . S
H77 C96 0.946 . S
H78 C98 0.953 . S
H79 C99 0.945 . S
H80 C101 0.952 . S
H81 C102 0.949 . S
H82 C104 0.950 . S
H83 C105 0.948 . S
H84 C107 0.951 . S
H85 C72 0.947 . S
H86 C74 0.952 . S
H87 C75 0.950 . S
N88 C91 1.382 . S
N88 C93 1.363 . S
N89 C91 1.371 . S
N89 C92 1.372 . S
N90 C92 1.361 . S
N90 C93 1.377 . S
C91 N88 1.382 . S
C91 N89 1.371 . S
C91 C94 1.480 . S
C92 N89 1.372 . S
C92 N90 1.361 . S
C92 C100 1.457 . S
C93 N88 1.363 . S
C93 N90 1.377 . S
C93 C106 1.479 . S
C94 C91 1.480 . S
C94 C95 1.383 . S
C94 C99 1.385 . S
C95 H76 0.947 . S
C95 C94 1.383 . S
C95 C96 1.388 . S
C96 H77 0.946 . S
C96 C95 1.388 . S
C96 C97 1.384 . S
C97 C96 1.384 . S
C97 C98 1.377 . S
C98 H78 0.953 . S
C98 C97 1.377 . S
C98 C99 1.369 . S
C99 H79 0.945 . S
C99 C94 1.385 . S
C99 C98 1.369 . S
C100 C92 1.457 . S
C100 C101 1.372 . S
C100 C105 1.364 . S
C101 H80 0.952 . S
C101 C100 1.372 . S
C101 C102 1.389 . S
C102 H81 0.949 . S
C102 C101 1.389 . S
C102 C103 1.387 . S
C103 C102 1.387 . S
C103 C104 1.372 . S
C104 H82 0.950 . S
C104 C103 1.372 . S
C104 C105 1.379 . S
C105 H83 0.948 . S
C105 C100 1.364 . S
C105 C104 1.379 . S
C106 C75 1.383 . S
C106 C93 1.479 . S
C106 C107 1.398 . S
C107 C72 1.382 . S
C107 H84 0.951 . S
C107 C106 1.398 . S
C108 C109 1.384 . S
C108 H121 0.947 . S
C108 C143 1.382 . S
C109 C108 1.384 . S
C109 C110 1.378 . S
C110 C109 1.378 . S
C110 C111 1.378 . S
C110 H122 0.952 . S
C111 C110 1.378 . S
C111 H123 0.950 . S
C111 C142 1.383 . S
H112 C131 0.947 . S
H113 C132 0.946 . S
H114 C134 0.953 . S
H115 C135 0.945 . S
H116 C137 0.952 . S
H117 C138 0.949 . S
H118 C140 0.950 . S
H119 C141 0.948 . S
H120 C143 0.951 . S
H121 C108 0.947 . S
H122 C110 0.952 . S
H123 C111 0.950 . S
N124 C127 1.382 . S
N124 C129 1.363 . S
N125 C127 1.371 . S
N125 C128 1.372 . S
N126 C128 1.361 . S
N126 C129 1.377 . S
C127 N124 1.382 . S
C127 N125 1.371 . S
C127 C130 1.480 . S
C128 N125 1.372 . S
C128 N126 1.361 . S
C128 C136 1.457 . S
C129 N124 1.363 . S
C129 N126 1.377 . S
C129 C142 1.479 . S
C130 C127 1.480 . S
C130 C131 1.383 . S
C130 C135 1.385 . S
C131 H112 0.947 . S
C131 C130 1.383 . S
C131 C132 1.388 . S
C132 H113 0.946 . S
C132 C131 1.388 . S
C132 C133 1.384 . S
C133 C132 1.384 . S
C133 C134 1.377 . S
C134 H114 0.953 . S
C134 C133 1.377 . S
C134 C135 1.369 . S
C135 H115 0.945 . S
C135 C130 1.385 . S
C135 C134 1.369 . S
C136 C128 1.457 . S
C136 C137 1.372 . S
C136 C141 1.364 . S
C137 H116 0.952 . S
C137 C136 1.372 . S
C137 C138 1.389 . S
C138 H117 0.949 . S
C138 C137 1.389 . S
C138 C139 1.387 . S
C139 C138 1.387 . S
C139 C140 1.372 . S
C140 H118 0.950 . S
C140 C139 1.372 . S
C140 C141 1.379 . S
C141 H119 0.948 . S
C141 C136 1.364 . S
C141 C140 1.379 . S
C142 C111 1.383 . S
C142 C129 1.479 . S
C142 C143 1.398 . S
C143 C108 1.382 . S
C143 H120 0.951 . S
C143 C142 1.398 . S
C144 C145 1.384 . S
C144 H157 0.947 . S
C144 C179 1.382 . S
C145 C144 1.384 . S
C145 C146 1.378 . S
C146 C145 1.378 . S
C146 C147 1.378 . S
C146 H158 0.952 . S
C147 C146 1.378 . S
C147 H159 0.950 . S
C147 C178 1.383 . S
H148 C167 0.947 . S
H149 C168 0.946 . S
H150 C170 0.953 . S
H151 C171 0.945 . S
H152 C173 0.952 . S
H153 C174 0.949 . S
H154 C176 0.950 . S
H155 C177 0.948 . S
H156 C179 0.951 . S
H157 C144 0.947 . S
H158 C146 0.952 . S
H159 C147 0.950 . S
N160 C163 1.382 . S
N160 C165 1.363 . S
N161 C163 1.371 . S
N161 C164 1.372 . S
N162 C164 1.361 . S
N162 C165 1.377 . S
C163 N160 1.382 . S
C163 N161 1.371 . S
C163 C166 1.480 . S
C164 N161 1.372 . S
C164 N162 1.361 . S
C164 C172 1.457 . S
C165 N160 1.363 . S
C165 N162 1.377 . S
C165 C178 1.479 . S
C166 C163 1.480 . S
C166 C167 1.383 . S
C166 C171 1.385 . S
C167 H148 0.947 . S
C167 C166 1.383 . S
C167 C168 1.388 . S
C168 H149 0.946 . S
C168 C167 1.388 . S
C168 C169 1.384 . S
C169 C168 1.384 . S
C169 C170 1.377 . S
C170 H150 0.953 . S
C170 C169 1.377 . S
C170 C171 1.369 . S
C171 H151 0.945 . S
C171 C166 1.385 . S
C171 C170 1.369 . S
C172 C164 1.457 . S
C172 C173 1.372 . S
C172 C177 1.364 . S
C173 H152 0.952 . S
C173 C172 1.372 . S
C173 C174 1.389 . S
C174 H153 0.949 . S
C174 C173 1.389 . S
C174 C175 1.387 . S
C175 C174 1.387 . S
C175 C176 1.372 . S
C176 H154 0.950 . S
C176 C175 1.372 . S
C176 C177 1.379 . S
C177 H155 0.948 . S
C177 C172 1.364 . S
C177 C176 1.379 . S
C178 C147 1.383 . S
C178 C165 1.479 . S
C178 C179 1.398 . S
C179 C144 1.382 . S
C179 H156 0.951 . S
C179 C178 1.398 . S
C180 C181 1.384 . S
C180 H193 0.947 . S
C180 C215 1.382 . S
C181 C180 1.384 . S
C181 C182 1.378 . S
C182 C181 1.378 . S
C182 C183 1.378 . S
C182 H194 0.952 . S
C183 C182 1.378 . S
C183 H195 0.950 . S
C183 C214 1.383 . S
H184 C203 0.947 . S
H185 C204 0.946 . S
H186 C206 0.953 . S
H187 C207 0.945 . S
H188 C209 0.952 . S
H189 C210 0.949 . S
H190 C212 0.950 . S
H191 C213 0.948 . S
H192 C215 0.951 . S
H193 C180 0.947 . S
H194 C182 0.952 . S
H195 C183 0.950 . S
N196 C199 1.382 . S
N196 C201 1.363 . S
N197 C199 1.371 . S
N197 C200 1.372 . S
N198 C200 1.361 . S
N198 C201 1.377 . S
C199 N196 1.382 . S
C199 N197 1.371 . S
C199 C202 1.480 . S
C200 N197 1.372 . S
C200 N198 1.361 . S
C200 C208 1.457 . S
C201 N196 1.363 . S
C201 N198 1.377 . S
C201 C214 1.479 . S
C202 C199 1.480 . S
C202 C203 1.383 . S
C202 C207 1.385 . S
C203 H184 0.947 . S
C203 C202 1.383 . S
C203 C204 1.388 . S
C204 H185 0.946 . S
C204 C203 1.388 . S
C204 C205 1.384 . S
C205 C204 1.384 . S
C205 C206 1.377 . S
C206 H186 0.953 . S
C206 C205 1.377 . S
C206 C207 1.369 . S
C207 H187 0.945 . S
C207 C202 1.385 . S
C207 C206 1.369 . S
C208 C200 1.457 . S
C208 C209 1.372 . S
C208 C213 1.364 . S
C209 H188 0.952 . S
C209 C208 1.372 . S
C209 C210 1.389 . S
C210 H189 0.949 . S
C210 C209 1.389 . S
C210 C211 1.387 . S
C211 C210 1.387 . S
C211 C212 1.372 . S
C212 H190 0.950 . S
C212 C211 1.372 . S
C212 C213 1.379 . S
C213 H191 0.948 . S
C213 C208 1.364 . S
C213 C212 1.379 . S
C214 C183 1.383 . S
C214 C201 1.479 . S
C214 C215 1.398 . S
C215 C180 1.382 . S
C215 H192 0.951 . S
C215 C214 1.398 . S
C216 C217 1.384 . S
C216 H229 0.947 . S
C216 C251 1.382 . S
C217 C216 1.384 . S
C217 C218 1.378 . S
C218 C217 1.378 . S
C218 C219 1.378 . S
C218 H230 0.952 . S
C219 C218 1.378 . S
C219 H231 0.950 . S
C219 C250 1.383 . S
H220 C239 0.947 . S
H221 C240 0.946 . S
H222 C242 0.953 . S
H223 C243 0.945 . S
H224 C245 0.952 . S
H225 C246 0.949 . S
H226 C248 0.950 . S
H227 C249 0.948 . S
H228 C251 0.951 . S
H229 C216 0.947 . S
H230 C218 0.952 . S
H231 C219 0.950 . S
N232 C235 1.382 . S
N232 C237 1.363 . S
N233 C235 1.371 . S
N233 C236 1.372 . S
N234 C236 1.361 . S
N234 C237 1.377 . S
C235 N232 1.382 . S
C235 N233 1.371 . S
C235 C238 1.480 . S
C236 N233 1.372 . S
C236 N234 1.361 . S
C236 C244 1.457 . S
C237 N232 1.363 . S
C237 N234 1.377 . S
C237 C250 1.479 . S
C238 C235 1.480 . S
C238 C239 1.383 . S
C238 C243 1.385 . S
C239 H220 0.947 . S
C239 C238 1.383 . S
C239 C240 1.388 . S
C240 H221 0.946 . S
C240 C239 1.388 . S
C240 C241 1.384 . S
C241 C240 1.384 . S
C241 C242 1.377 . S
C242 H222 0.953 . S
C242 C241 1.377 . S
C242 C243 1.369 . S
C243 H223 0.945 . S
C243 C238 1.385 . S
C243 C242 1.369 . S
C244 C236 1.457 . S
C244 C245 1.372 . S
C244 C249 1.364 . S
C245 H224 0.952 . S
C245 C244 1.372 . S
C245 C246 1.389 . S
C246 H225 0.949 . S
C246 C245 1.389 . S
C246 C247 1.387 . S
C247 C246 1.387 . S
C247 C248 1.372 . S
C248 H226 0.950 . S
C248 C247 1.372 . S
C248 C249 1.379 . S
C249 H227 0.948 . S
C249 C244 1.364 . S
C249 C248 1.379 . S
C250 C219 1.383 . S
C250 C237 1.479 . S
C250 C251 1.398 . S
C251 C216 1.382 . S
C251 H228 0.951 . S
C251 C250 1.398 . S
C252 C253 1.384 . S
C252 H265 0.947 . S
C252 C287 1.382 . S
C253 C252 1.384 . S
C253 C254 1.378 . S
C254 C253 1.378 . S
C254 C255 1.378 . S
C254 H266 0.952 . S
C255 C254 1.378 . S
C255 H267 0.950 . S
C255 C286 1.383 . S
H256 C275 0.947 . S
H257 C276 0.946 . S
H258 C278 0.953 . S
H259 C279 0.945 . S
H260 C281 0.952 . S
H261 C282 0.949 . S
H262 C284 0.950 . S
H263 C285 0.948 . S
H264 C287 0.951 . S
H265 C252 0.947 . S
H266 C254 0.952 . S
H267 C255 0.950 . S
N268 C271 1.382 . S
N268 C273 1.363 . S
N269 C271 1.371 . S
N269 C272 1.372 . S
N270 C272 1.361 . S
N270 C273 1.377 . S
C271 N268 1.382 . S
C271 N269 1.371 . S
C271 C274 1.480 . S
C272 N269 1.372 . S
C272 N270 1.361 . S
C272 C280 1.457 . S
C273 N268 1.363 . S
C273 N270 1.377 . S
C273 C286 1.479 . S
C274 C271 1.480 . S
C274 C275 1.383 . S
C274 C279 1.385 . S
C275 H256 0.947 . S
C275 C274 1.383 . S
C275 C276 1.388 . S
C276 H257 0.946 . S
C276 C275 1.388 . S
C276 C277 1.384 . S
C277 C276 1.384 . S
C277 C278 1.377 . S
C278 H258 0.953 . S
C278 C277 1.377 . S
C278 C279 1.369 . S
C279 H259 0.945 . S
C279 C274 1.385 . S
C279 C278 1.369 . S
C280 C272 1.457 . S
C280 C281 1.372 . S
C280 C285 1.364 . S
C281 H260 0.952 . S
C281 C280 1.372 . S
C281 C282 1.389 . S
C282 H261 0.949 . S
C282 C281 1.389 . S
C282 C283 1.387 . S
C283 C282 1.387 . S
C283 C284 1.372 . S
C284 H262 0.950 . S
C284 C283 1.372 . S
C284 C285 1.379 . S
C285 H263 0.948 . S
C285 C280 1.364 . S
C285 C284 1.379 . S
C286 C255 1.383 . S
C286 C273 1.479 . S
C286 C287 1.398 . S
C287 C252 1.382 . S
C287 H264 0.951 . S
C287 C286 1.398 . S
Co288 O291 2.042 . S
Co288 O298 2.264 . S
Co288 O317 2.286 . S
Co288 O318 2.069 . S
Co288 O320 2.015 . S
Co289 O291 2.122 . S
Co289 O297 2.073 . S
Co289 O298 2.327 . S
Co289 O299 1.976 . S
Co290 O291 2.087 . S
Co290 O293 2.087 1_455 S
Co290 O300 2.111 . S
Co290 O301 2.143 1_455 S
Co290 O305 2.111 1_455 S
Co290 O319 2.143 . S
O291 Co288 2.042 . S
O291 Co289 2.122 . S
O291 Co290 2.087 . S
O291 H292 0.980 . S
H292 O291 0.980 . S
O293 Co290 2.087 1_655 S
O293 Co294 2.042 . S
O293 Co295 2.122 . S
O293 H296 0.980 . S
Co294 O293 2.042 . S
Co294 O302 2.286 . S
Co294 O303 2.069 . S
Co294 O304 2.015 . S
Co294 O307 2.264 . S
Co295 O293 2.122 . S
Co295 O306 1.976 . S
Co295 O307 2.327 . S
Co295 O308 2.073 . S
H296 O293 0.980 . S
O297 Co289 2.073 . S
O297 C312 1.245 . S
O298 Co288 2.264 . S
O298 Co289 2.327 . S
O298 C312 1.257 . S
O299 Co289 1.976 . S
O299 C311 1.251 . S
O300 Co290 2.111 . S
O300 C311 1.274 . S
O301 Co290 2.143 1_655 S
O301 C314 1.246 . S
O302 Co294 2.286 . S
O302 C313 1.259 . S
O303 Co294 2.069 . S
O303 C313 1.289 . S
O304 Co294 2.015 . S
O304 C314 1.257 . S
O305 Co290 2.111 1_655 S
O305 C315 1.274 . S
O306 Co295 1.976 . S
O306 C315 1.251 . S
O307 Co294 2.264 . S
O307 Co295 2.327 . S
O307 C316 1.257 . S
O308 Co295 2.073 . S
O308 C316 1.245 . S
C309 O317 1.259 . S
C309 O318 1.289 . S
C310 O319 1.246 . S
C310 O320 1.257 . S
C311 O299 1.251 . S
C311 O300 1.274 . S
C312 O297 1.245 . S
C312 O298 1.257 . S
C313 O302 1.259 . S
C313 O303 1.289 . S
C314 O301 1.246 . S
C314 O304 1.257 . S
C315 O305 1.274 . S
C315 O306 1.251 . S
C316 O307 1.257 . S
C316 O308 1.245 . S
O317 Co288 2.286 . S
O317 C309 1.259 . S
O318 Co288 2.069 . S
O318 C309 1.289 . S
O319 Co290 2.143 . S
O319 C310 1.246 . S
O320 Co288 2.015 . S
O320 C310 1.257 . S
Co321 O324 2.042 . S
Co321 O331 2.264 . S
Co321 O350 2.286 . S
Co321 O351 2.069 . S
Co321 O353 2.015 . S
Co322 O324 2.122 . S
Co322 O330 2.073 . S
Co322 O331 2.327 . S
Co322 O332 1.976 . S
Co323 O324 2.087 1_545 S
Co323 O326 2.087 . S
Co323 O333 2.111 1_545 S
Co323 O334 2.143 . S
Co323 O338 2.111 . S
Co323 O352 2.143 1_545 S
O324 Co321 2.042 . S
O324 Co322 2.122 . S
O324 Co323 2.087 1_565 S
O324 H325 0.980 . S
H325 O324 0.980 . S
O326 Co323 2.087 . S
O326 Co327 2.042 . S
O326 Co328 2.122 . S
O326 H329 0.980 . S
Co327 O326 2.042 . S
Co327 O335 2.286 . S
Co327 O336 2.069 . S
Co327 O337 2.015 . S
Co327 O340 2.264 . S
Co328 O326 2.122 . S
Co328 O339 1.976 . S
Co328 O340 2.327 . S
Co328 O341 2.073 . S
H329 O326 0.980 . S
O330 Co322 2.073 . S
O330 C345 1.245 . S
O331 Co321 2.264 . S
O331 Co322 2.327 . S
O331 C345 1.257 . S
O332 Co322 1.976 . S
O332 C344 1.251 . S
O333 Co323 2.111 1_565 S
O333 C344 1.274 . S
O334 Co323 2.143 . S
O334 C347 1.246 . S
O335 Co327 2.286 . S
O335 C346 1.259 . S
O336 Co327 2.069 . S
O336 C346 1.289 . S
O337 Co327 2.015 . S
O337 C347 1.257 . S
O338 Co323 2.111 . S
O338 C348 1.274 . S
O339 Co328 1.976 . S
O339 C348 1.251 . S
O340 Co327 2.264 . S
O340 Co328 2.327 . S
O340 C349 1.257 . S
O341 Co328 2.073 . S
O341 C349 1.245 . S
C342 O350 1.259 . S
C342 O351 1.289 . S
C343 O352 1.246 . S
C343 O353 1.257 . S
C344 O332 1.251 . S
C344 O333 1.274 . S
C345 O330 1.245 . S
C345 O331 1.257 . S
C346 O335 1.259 . S
C346 O336 1.289 . S
C347 O334 1.246 . S
C347 O337 1.257 . S
C348 O338 1.274 . S
C348 O339 1.251 . S
C349 O340 1.257 . S
C349 O341 1.245 . S
O350 Co321 2.286 . S
O350 C342 1.259 . S
O351 Co321 2.069 . S
O351 C342 1.289 . S
O352 Co323 2.143 1_565 S
O352 C343 1.246 . S
O353 Co321 2.015 . S
O353 C343 1.257 . S
Co354 O357 2.042 . S
Co354 O364 2.264 . S
Co354 O383 2.286 . S
Co354 O384 2.069 . S
Co354 O386 2.015 . S
Co355 O357 2.122 . S
Co355 O363 2.073 . S
Co355 O364 2.327 . S
Co355 O365 1.976 . S
Co356 O357 2.087 . S
Co356 O359 2.087 1_554 S
Co356 O366 2.111 . S
Co356 O367 2.143 1_554 S
Co356 O371 2.111 1_554 S
Co356 O385 2.143 . S
O357 Co354 2.042 . S
O357 Co355 2.122 . S
O357 Co356 2.087 . S
O357 H358 0.980 . S
H358 O357 0.980 . S
O359 Co356 2.087 1_556 S
O359 Co360 2.042 . S
O359 Co361 2.122 . S
O359 H362 0.980 . S
Co360 O359 2.042 . S
Co360 O368 2.286 . S
Co360 O369 2.069 . S
Co360 O370 2.015 . S
Co360 O373 2.264 . S
Co361 O359 2.122 . S
Co361 O372 1.976 . S
Co361 O373 2.327 . S
Co361 O374 2.073 . S
H362 O359 0.980 . S
O363 Co355 2.073 . S
O363 C378 1.245 . S
O364 Co354 2.264 . S
O364 Co355 2.327 . S
O364 C378 1.257 . S
O365 Co355 1.976 . S
O365 C377 1.251 . S
O366 Co356 2.111 . S
O366 C377 1.274 . S
O367 Co356 2.143 1_556 S
O367 C380 1.246 . S
O368 Co360 2.286 . S
O368 C379 1.259 . S
O369 Co360 2.069 . S
O369 C379 1.289 . S
O370 Co360 2.015 . S
O370 C380 1.257 . S
O371 Co356 2.111 1_556 S
O371 C381 1.274 . S
O372 Co361 1.976 . S
O372 C381 1.251 . S
O373 Co360 2.264 . S
O373 Co361 2.327 . S
O373 C382 1.257 . S
O374 Co361 2.073 . S
O374 C382 1.245 . S
C375 O383 1.259 . S
C375 O384 1.289 . S
C376 O385 1.246 . S
C376 O386 1.257 . S
C377 O365 1.251 . S
C377 O366 1.274 . S
C378 O363 1.245 . S
C378 O364 1.257 . S
C379 O368 1.259 . S
C379 O369 1.289 . S
C380 O367 1.246 . S
C380 O370 1.257 . S
C381 O371 1.274 . S
C381 O372 1.251 . S
C382 O373 1.257 . S
C382 O374 1.245 . S
O383 Co354 2.286 . S
O383 C375 1.259 . S
O384 Co354 2.069 . S
O384 C375 1.289 . S
O385 Co356 2.143 . S
O385 C376 1.246 . S
O386 Co354 2.015 . S
O386 C376 1.257 . S
H387 C393 0.930 . S
H388 C397 0.930 . S
H389 C402 0.929 . S
H390 C400 0.929 . S
H391 C395 0.929 . S
H392 C401 0.929 . S
C393 H387 0.930 . S
C393 C394 1.367 . S
C393 C401 1.378 . S
C394 C393 1.367 . S
C394 C402 1.433 . S
C395 H391 0.929 . S
C395 C397 1.378 . S
C395 C399 1.350 . S
C396 C399 1.463 . S
C396 C401 1.350 . S
C396 N404 1.427 . S
C397 H388 0.930 . S
C397 C395 1.378 . S
C397 C398 1.367 . S
C398 C397 1.367 . S
C398 C400 1.433 . S
C399 C395 1.350 . S
C399 C396 1.463 . S
C399 N403 1.427 . S
C400 H390 0.929 . S
C400 C398 1.433 . S
C400 N403 1.384 . S
C401 H392 0.929 . S
C401 C393 1.378 . S
C401 C396 1.350 . S
C402 H389 0.929 . S
C402 C394 1.433 . S
C402 N404 1.384 . S
N403 C399 1.427 . S
N403 C400 1.384 . S
N404 C396 1.427 . S
N404 C402 1.384 . S
H405 C411 0.930 . S
H406 C415 0.930 . S
H407 C420 0.929 . S
H408 C418 0.929 . S
H409 C413 0.929 . S
H410 C419 0.929 . S
C411 H405 0.930 . S
C411 C412 1.367 . S
C411 C419 1.378 . S
C412 C411 1.367 . S
C412 C420 1.433 . S
C413 H409 0.929 . S
C413 C415 1.378 . S
C413 C417 1.350 . S
C414 C417 1.463 . S
C414 C419 1.350 . S
C414 N422 1.427 . S
C415 H406 0.930 . S
C415 C413 1.378 . S
C415 C416 1.367 . S
C416 C415 1.367 . S
C416 C418 1.433 . S
C417 C413 1.350 . S
C417 C414 1.463 . S
C417 N421 1.427 . S
C418 H408 0.929 . S
C418 C416 1.433 . S
C418 N421 1.384 . S
C419 H410 0.929 . S
C419 C411 1.378 . S
C419 C414 1.350 . S
C420 H407 0.929 . S
C420 C412 1.433 . S
C420 N422 1.384 . S
N421 C417 1.427 . S
N421 C418 1.384 . S
N422 C414 1.427 . S
N422 C420 1.384 . S
H423 C429 0.930 . S
H424 C433 0.930 . S
H425 C438 0.929 . S
H426 C436 0.929 . S
H427 C431 0.929 . S
H428 C437 0.929 . S
C429 H423 0.930 . S
C429 C430 1.367 . S
C429 C437 1.378 . S
C430 C429 1.367 . S
C430 C438 1.433 . S
C431 H427 0.929 . S
C431 C433 1.378 . S
C431 C435 1.350 . S
C432 C435 1.463 . S
C432 C437 1.350 . S
C432 N440 1.427 . S
C433 H424 0.930 . S
C433 C431 1.378 . S
C433 C434 1.367 . S
C434 C433 1.367 . S
C434 C436 1.433 . S
C435 C431 1.350 . S
C435 C432 1.463 . S
C435 N439 1.427 . S
C436 H426 0.929 . S
C436 C434 1.433 . S
C436 N439 1.384 . S
C437 H428 0.929 . S
C437 C429 1.378 . S
C437 C432 1.350 . S
C438 H425 0.929 . S
C438 C430 1.433 . S
C438 N440 1.384 . S
N439 C435 1.427 . S
N439 C436 1.384 . S
N440 C432 1.427 . S
N440 C438 1.384 . S
H441 C447 0.930 . S
H442 C451 0.930 . S
H443 C456 0.929 . S
H444 C454 0.929 . S
H445 C449 0.929 . S
H446 C455 0.929 . S
C447 H441 0.930 . S
C447 C448 1.367 . S
C447 C455 1.378 . S
C448 C447 1.367 . S
C448 C456 1.433 . S
C449 H445 0.929 . S
C449 C451 1.378 . S
C449 C453 1.350 . S
C450 C453 1.463 . S
C450 C455 1.350 . S
C450 N458 1.427 . S
C451 H442 0.930 . S
C451 C449 1.378 . S
C451 C452 1.367 . S
C452 C451 1.367 . S
C452 C454 1.433 . S
C453 C449 1.350 . S
C453 C450 1.463 . S
C453 N457 1.427 . S
C454 H444 0.929 . S
C454 C452 1.433 . S
C454 N457 1.384 . S
C455 H446 0.929 . S
C455 C447 1.378 . S
C455 C450 1.350 . S
C456 H443 0.929 . S
C456 C448 1.433 . S
C456 N458 1.384 . S
N457 C453 1.427 . S
N457 C454 1.384 . S
N458 C450 1.427 . S
N458 C456 1.384 . S
H459 C465 0.930 . S
H460 C469 0.930 . S
H461 C474 0.929 . S
H462 C472 0.929 . S
H463 C467 0.929 . S
H464 C473 0.929 . S
C465 H459 0.930 . S
C465 C466 1.367 . S
C465 C473 1.378 . S
C466 C465 1.367 . S
C466 C474 1.433 . S
C467 H463 0.929 . S
C467 C469 1.378 . S
C467 C471 1.350 . S
C468 C471 1.463 . S
C468 C473 1.350 . S
C468 N476 1.427 . S
C469 H460 0.930 . S
C469 C467 1.378 . S
C469 C470 1.367 . S
C470 C469 1.367 . S
C470 C472 1.433 . S
C471 C467 1.350 . S
C471 C468 1.463 . S
C471 N475 1.427 . S
C472 H462 0.929 . S
C472 C470 1.433 . S
C472 N475 1.384 . S
C473 H464 0.929 . S
C473 C465 1.378 . S
C473 C468 1.350 . S
C474 H461 0.929 . S
C474 C466 1.433 . S
C474 N476 1.384 . S
N475 C471 1.427 . S
N475 C472 1.384 . S
N476 C468 1.427 . S
N476 C474 1.384 . S
H477 C483 0.930 . S
H478 C487 0.930 . S
H479 C492 0.929 . S
H480 C490 0.929 . S
H481 C485 0.929 . S
H482 C491 0.929 . S
C483 H477 0.930 . S
C483 C484 1.367 . S
C483 C491 1.378 . S
C484 C483 1.367 . S
C484 C492 1.433 . S
C485 H481 0.929 . S
C485 C487 1.378 . S
C485 C489 1.350 . S
C486 C489 1.463 . S
C486 C491 1.350 . S
C486 N494 1.427 . S
C487 H478 0.930 . S
C487 C485 1.378 . S
C487 C488 1.367 . S
C488 C487 1.367 . S
C488 C490 1.433 . S
C489 C485 1.350 . S
C489 C486 1.463 . S
C489 N493 1.427 . S
C490 H480 0.929 . S
C490 C488 1.433 . S
C490 N493 1.384 . S
C491 H482 0.929 . S
C491 C483 1.378 . S
C491 C486 1.350 . S
C492 H479 0.929 . S
C492 C484 1.433 . S
C492 N494 1.384 . S
N493 C489 1.427 . S
N493 C490 1.384 . S
N494 C486 1.427 . S
N494 C492 1.384 . S
H495 C501 0.930 . S
H496 C505 0.930 . S
H497 C510 0.929 . S
H498 C508 0.929 . S
H499 C503 0.929 . S
H500 C509 0.929 . S
C501 H495 0.930 . S
C501 C502 1.367 . S
C501 C509 1.378 . S
C502 C501 1.367 . S
C502 C510 1.433 . S
C503 H499 0.929 . S
C503 C505 1.378 . S
C503 C507 1.350 . S
C504 C507 1.463 . S
C504 C509 1.350 . S
C504 N512 1.427 . S
C505 H496 0.930 . S
C505 C503 1.378 . S
C505 C506 1.367 . S
C506 C505 1.367 . S
C506 C508 1.433 . S
C507 C503 1.350 . S
C507 C504 1.463 . S
C507 N511 1.427 . S
C508 H498 0.929 . S
C508 C506 1.433 . S
C508 N511 1.384 . S
C509 H500 0.929 . S
C509 C501 1.378 . S
C509 C504 1.350 . S
C510 H497 0.929 . S
C510 C502 1.433 . S
C510 N512 1.384 . S
N511 C507 1.427 . S
N511 C508 1.384 . S
N512 C504 1.427 . S
N512 C510 1.384 . S
H513 C519 0.930 . S
H514 C523 0.930 . S
H515 C528 0.929 . S
H516 C526 0.929 . S
H517 C521 0.929 . S
H518 C527 0.929 . S
C519 H513 0.930 . S
C519 C520 1.367 . S
C519 C527 1.378 . S
C520 C519 1.367 . S
C520 C528 1.433 . S
C521 H517 0.929 . S
C521 C523 1.378 . S
C521 C525 1.350 . S
C522 C525 1.463 . S
C522 C527 1.350 . S
C522 N530 1.427 . S
C523 H514 0.930 . S
C523 C521 1.378 . S
C523 C524 1.367 . S
C524 C523 1.367 . S
C524 C526 1.433 . S
C525 C521 1.350 . S
C525 C522 1.463 . S
C525 N529 1.427 . S
C526 H516 0.929 . S
C526 C524 1.433 . S
C526 N529 1.384 . S
C527 H518 0.929 . S
C527 C519 1.378 . S
C527 C522 1.350 . S
C528 H515 0.929 . S
C528 C520 1.433 . S
C528 N530 1.384 . S
N529 C525 1.427 . S
N529 C526 1.384 . S
N530 C522 1.427 . S
N530 C528 1.384 . S
H531 C537 0.930 . S
H532 C541 0.930 . S
H533 C546 0.929 . S
H534 C544 0.929 . S
H535 C539 0.929 . S
H536 C545 0.929 . S
C537 H531 0.930 . S
C537 C538 1.367 . S
C537 C545 1.378 . S
C538 C537 1.367 . S
C538 C546 1.433 . S
C539 H535 0.929 . S
C539 C541 1.378 . S
C539 C543 1.350 . S
C540 C543 1.463 . S
C540 C545 1.350 . S
C540 N548 1.427 . S
C541 H532 0.930 . S
C541 C539 1.378 . S
C541 C542 1.367 . S
C542 C541 1.367 . S
C542 C544 1.433 . S
C543 C539 1.350 . S
C543 C540 1.463 . S
C543 N547 1.427 . S
C544 H534 0.929 . S
C544 C542 1.433 . S
C544 N547 1.384 . S
C545 H536 0.929 . S
C545 C537 1.378 . S
C545 C540 1.350 . S
C546 H533 0.929 . S
C546 C538 1.433 . S
C546 N548 1.384 . S
N547 C543 1.427 . S
N547 C544 1.384 . S
N548 C540 1.427 . S
N548 C546 1.384 . S
H549 C555 0.930 . S
H550 C559 0.930 . S
H551 C564 0.929 . S
H552 C562 0.929 . S
H553 C557 0.929 . S
H554 C563 0.929 . S
C555 H549 0.930 . S
C555 C556 1.367 . S
C555 C563 1.378 . S
C556 C555 1.367 . S
C556 C564 1.433 . S
C557 H553 0.929 . S
C557 C559 1.378 . S
C557 C561 1.350 . S
C558 C561 1.463 . S
C558 C563 1.350 . S
C558 N566 1.427 . S
C559 H550 0.930 . S
C559 C557 1.378 . S
C559 C560 1.367 . S
C560 C559 1.367 . S
C560 C562 1.433 . S
C561 C557 1.350 . S
C561 C558 1.463 . S
C561 N565 1.427 . S
C562 H552 0.929 . S
C562 C560 1.433 . S
C562 N565 1.384 . S
C563 H554 0.929 . S
C563 C555 1.378 . S
C563 C558 1.350 . S
C564 H551 0.929 . S
C564 C556 1.433 . S
C564 N566 1.384 . S
N565 C561 1.427 . S
N565 C562 1.384 . S
N566 C558 1.427 . S
N566 C564 1.384 . S
H567 C573 0.930 . S
H568 C577 0.930 . S
H569 C582 0.929 . S
H570 C580 0.929 . S
H571 C575 0.929 . S
H572 C581 0.929 . S
C573 H567 0.930 . S
C573 C574 1.367 . S
C573 C581 1.378 . S
C574 C573 1.367 . S
C574 C582 1.433 . S
C575 H571 0.929 . S
C575 C577 1.378 . S
C575 C579 1.350 . S
C576 C579 1.463 . S
C576 C581 1.350 . S
C576 N584 1.427 . S
C577 H568 0.930 . S
C577 C575 1.378 . S
C577 C578 1.367 . S
C578 C577 1.367 . S
C578 C580 1.433 . S
C579 C575 1.350 . S
C579 C576 1.463 . S
C579 N583 1.427 . S
C580 H570 0.929 . S
C580 C578 1.433 . S
C580 N583 1.384 . S
C581 H572 0.929 . S
C581 C573 1.378 . S
C581 C576 1.350 . S
C582 H569 0.929 . S
C582 C574 1.433 . S
C582 N584 1.384 . S
N583 C579 1.427 . S
N583 C580 1.384 . S
N584 C576 1.427 . S
N584 C582 1.384 . S
H585 C591 0.930 . S
H586 C595 0.930 . S
H587 C600 0.929 . S
H588 C598 0.929 . S
H589 C593 0.929 . S
H590 C599 0.929 . S
C591 H585 0.930 . S
C591 C592 1.367 . S
C591 C599 1.378 . S
C592 C591 1.367 . S
C592 C600 1.433 . S
C593 H589 0.929 . S
C593 C595 1.378 . S
C593 C597 1.350 . S
C594 C597 1.463 . S
C594 C599 1.350 . S
C594 N602 1.427 . S
C595 H586 0.930 . S
C595 C593 1.378 . S
C595 C596 1.367 . S
C596 C595 1.367 . S
C596 C598 1.433 . S
C597 C593 1.350 . S
C597 C594 1.463 . S
C597 N601 1.427 . S
C598 H588 0.929 . S
C598 C596 1.433 . S
C598 N601 1.384 . S
C599 H590 0.929 . S
C599 C591 1.378 . S
C599 C594 1.350 . S
C600 H587 0.929 . S
C600 C592 1.433 . S
C600 N602 1.384 . S
N601 C597 1.427 . S
N601 C598 1.384 . S
N602 C594 1.427 . S
N602 C600 1.384 . S
H603 C609 0.930 . S
H604 C613 0.930 . S
H605 C618 0.929 . S
H606 C616 0.929 . S
H607 C611 0.929 . S
H608 C617 0.929 . S
C609 H603 0.930 . S
C609 C610 1.367 . S
C609 C617 1.378 . S
C610 C609 1.367 . S
C610 C618 1.433 . S
C611 H607 0.929 . S
C611 C613 1.378 . S
C611 C615 1.350 . S
C612 C615 1.463 . S
C612 C617 1.350 . S
C612 N620 1.427 . S
C613 H604 0.930 . S
C613 C611 1.378 . S
C613 C614 1.367 . S
C614 C613 1.367 . S
C614 C616 1.433 . S
C615 C611 1.350 . S
C615 C612 1.463 . S
C615 N619 1.427 . S
C616 H606 0.929 . S
C616 C614 1.433 . S
C616 N619 1.384 . S
C617 H608 0.929 . S
C617 C609 1.378 . S
C617 C612 1.350 . S
C618 H605 0.929 . S
C618 C610 1.433 . S
C618 N620 1.384 . S
N619 C615 1.427 . S
N619 C616 1.384 . S
N620 C612 1.427 . S
N620 C618 1.384 . S
H621 C627 0.930 . S
H622 C631 0.930 . S
H623 C636 0.929 . S
H624 C634 0.929 . S
H625 C629 0.929 . S
H626 C635 0.929 . S
C627 H621 0.930 . S
C627 C628 1.367 . S
C627 C635 1.378 . S
C628 C627 1.367 . S
C628 C636 1.433 . S
C629 H625 0.929 . S
C629 C631 1.378 . S
C629 C633 1.350 . S
C630 C633 1.463 . S
C630 C635 1.350 . S
C630 N638 1.427 . S
C631 H622 0.930 . S
C631 C629 1.378 . S
C631 C632 1.367 . S
C632 C631 1.367 . S
C632 C634 1.433 . S
C633 C629 1.350 . S
C633 C630 1.463 . S
C633 N637 1.427 . S
C634 H624 0.929 . S
C634 C632 1.433 . S
C634 N637 1.384 . S
C635 H626 0.929 . S
C635 C627 1.378 . S
C635 C630 1.350 . S
C636 H623 0.929 . S
C636 C628 1.433 . S
C636 N638 1.384 . S
N637 C633 1.427 . S
N637 C634 1.384 . S
N638 C630 1.427 . S
N638 C636 1.384 . S
H639 C645 0.930 . S
H640 C649 0.930 . S
H641 C654 0.929 . S
H642 C652 0.929 . S
H643 C647 0.929 . S
H644 C653 0.929 . S
C645 H639 0.930 . S
C645 C646 1.367 . S
C645 C653 1.378 . S
C646 C645 1.367 . S
C646 C654 1.433 . S
C647 H643 0.929 . S
C647 C649 1.378 . S
C647 C651 1.350 . S
C648 C651 1.463 . S
C648 C653 1.350 . S
C648 N656 1.427 . S
C649 H640 0.930 . S
C649 C647 1.378 . S
C649 C650 1.367 . S
C650 C649 1.367 . S
C650 C652 1.433 . S
C651 C647 1.350 . S
C651 C648 1.463 . S
C651 N655 1.427 . S
C652 H642 0.929 . S
C652 C650 1.433 . S
C652 N655 1.384 . S
C653 H644 0.929 . S
C653 C645 1.378 . S
C653 C648 1.350 . S
C654 H641 0.929 . S
C654 C646 1.433 . S
C654 N656 1.384 . S
N655 C651 1.427 . S
N655 C652 1.384 . S
N656 C648 1.427 . S
N656 C654 1.384 . S
H657 C663 0.930 . S
H658 C667 0.930 . S
H659 C672 0.929 . S
H660 C670 0.929 . S
H661 C665 0.929 . S
H662 C671 0.929 . S
C663 H657 0.930 . S
C663 C664 1.367 . S
C663 C671 1.378 . S
C664 C663 1.367 . S
C664 C672 1.433 . S
C665 H661 0.929 . S
C665 C667 1.378 . S
C665 C669 1.350 . S
C666 C669 1.463 . S
C666 C671 1.350 . S
C666 N674 1.427 . S
C667 H658 0.930 . S
C667 C665 1.378 . S
C667 C668 1.367 . S
C668 C667 1.367 . S
C668 C670 1.433 . S
C669 C665 1.350 . S
C669 C666 1.463 . S
C669 N673 1.427 . S
C670 H660 0.929 . S
C670 C668 1.433 . S
C670 N673 1.384 . S
C671 H662 0.929 . S
C671 C663 1.378 . S
C671 C666 1.350 . S
C672 H659 0.929 . S
C672 C664 1.433 . S
C672 N674 1.384 . S
N673 C669 1.427 . S
N673 C670 1.384 . S
N674 C666 1.427 . S
N674 C672 1.384 . S
H675 C681 0.930 . S
H676 C685 0.930 . S
H677 C690 0.929 . S
H678 C688 0.929 . S
H679 C683 0.929 . S
H680 C689 0.929 . S
C681 H675 0.930 . S
C681 C682 1.367 . S
C681 C689 1.378 . S
C682 C681 1.367 . S
C682 C690 1.433 . S
C683 H679 0.929 . S
C683 C685 1.378 . S
C683 C687 1.350 . S
C684 C687 1.463 . S
C684 C689 1.350 . S
C684 N692 1.427 . S
C685 H676 0.930 . S
C685 C683 1.378 . S
C685 C686 1.367 . S
C686 C685 1.367 . S
C686 C688 1.433 . S
C687 C683 1.350 . S
C687 C684 1.463 . S
C687 N691 1.427 . S
C688 H678 0.929 . S
C688 C686 1.433 . S
C688 N691 1.384 . S
C689 H680 0.929 . S
C689 C681 1.378 . S
C689 C684 1.350 . S
C690 H677 0.929 . S
C690 C682 1.433 . S
C690 N692 1.384 . S
N691 C687 1.427 . S
N691 C688 1.384 . S
N692 C684 1.427 . S
N692 C690 1.384 . S
H693 C699 0.930 . S
H694 C703 0.930 . S
H695 C708 0.929 . S
H696 C706 0.929 . S
H697 C701 0.929 . S
H698 C707 0.929 . S
C699 H693 0.930 . S
C699 C700 1.367 . S
C699 C707 1.378 . S
C700 C699 1.367 . S
C700 C708 1.433 . S
C701 H697 0.929 . S
C701 C703 1.378 . S
C701 C705 1.350 . S
C702 C705 1.463 . S
C702 C707 1.350 . S
C702 N710 1.427 . S
C703 H694 0.930 . S
C703 C701 1.378 . S
C703 C704 1.367 . S
C704 C703 1.367 . S
C704 C706 1.433 . S
C705 C701 1.350 . S
C705 C702 1.463 . S
C705 N709 1.427 . S
C706 H696 0.929 . S
C706 C704 1.433 . S
C706 N709 1.384 . S
C707 H698 0.929 . S
C707 C699 1.378 . S
C707 C702 1.350 . S
C708 H695 0.929 . S
C708 C700 1.433 . S
C708 N710 1.384 . S
N709 C705 1.427 . S
N709 C706 1.384 . S
N710 C702 1.427 . S
N710 C708 1.384 . S
H711 C717 0.930 . S
H712 C721 0.930 . S
H713 C726 0.929 . S
H714 C724 0.929 . S
H715 C719 0.929 . S
H716 C725 0.929 . S
C717 H711 0.930 . S
C717 C718 1.367 . S
C717 C725 1.378 . S
C718 C717 1.367 . S
C718 C726 1.433 . S
C719 H715 0.929 . S
C719 C721 1.378 . S
C719 C723 1.350 . S
C720 C723 1.463 . S
C720 C725 1.350 . S
C720 N728 1.427 . S
C721 H712 0.930 . S
C721 C719 1.378 . S
C721 C722 1.367 . S
C722 C721 1.367 . S
C722 C724 1.433 . S
C723 C719 1.350 . S
C723 C720 1.463 . S
C723 N727 1.427 . S
C724 H714 0.929 . S
C724 C722 1.433 . S
C724 N727 1.384 . S
C725 H716 0.929 . S
C725 C717 1.378 . S
C725 C720 1.350 . S
C726 H713 0.929 . S
C726 C718 1.433 . S
C726 N728 1.384 . S
N727 C723 1.427 . S
N727 C724 1.384 . S
N728 C720 1.427 . S
N728 C726 1.384 . S
H729 C735 0.930 . S
H730 C739 0.930 . S
H731 C744 0.929 . S
H732 C742 0.929 . S
H733 C737 0.929 . S
H734 C743 0.929 . S
C735 H729 0.930 . S
C735 C736 1.367 . S
C735 C743 1.378 . S
C736 C735 1.367 . S
C736 C744 1.433 . S
C737 H733 0.929 . S
C737 C739 1.378 . S
C737 C741 1.350 . S
C738 C741 1.463 . S
C738 C743 1.350 . S
C738 N746 1.427 . S
C739 H730 0.930 . S
C739 C737 1.378 . S
C739 C740 1.367 . S
C740 C739 1.367 . S
C740 C742 1.433 . S
C741 C737 1.350 . S
C741 C738 1.463 . S
C741 N745 1.427 . S
C742 H732 0.929 . S
C742 C740 1.433 . S
C742 N745 1.384 . S
C743 H734 0.929 . S
C743 C735 1.378 . S
C743 C738 1.350 . S
C744 H731 0.929 . S
C744 C736 1.433 . S
C744 N746 1.384 . S
N745 C741 1.427 . S
N745 C742 1.384 . S
N746 C738 1.427 . S
N746 C744 1.384 . S
H747 C753 0.930 . S
H748 C757 0.930 . S
H749 C762 0.929 . S
H750 C760 0.929 . S
H751 C755 0.929 . S
H752 C761 0.929 . S
C753 H747 0.930 . S
C753 C754 1.367 . S
C753 C761 1.378 . S
C754 C753 1.367 . S
C754 C762 1.433 . S
C755 H751 0.929 . S
C755 C757 1.378 . S
C755 C759 1.350 . S
C756 C759 1.463 . S
C756 C761 1.350 . S
C756 N764 1.427 . S
C757 H748 0.930 . S
C757 C755 1.378 . S
C757 C758 1.367 . S
C758 C757 1.367 . S
C758 C760 1.433 . S
C759 C755 1.350 . S
C759 C756 1.463 . S
C759 N763 1.427 . S
C760 H750 0.929 . S
C760 C758 1.433 . S
C760 N763 1.384 . S
C761 H752 0.929 . S
C761 C753 1.378 . S
C761 C756 1.350 . S
C762 H749 0.929 . S
C762 C754 1.433 . S
C762 N764 1.384 . S
N763 C759 1.427 . S
N763 C760 1.384 . S
N764 C756 1.427 . S
N764 C762 1.384 . S
H765 C771 0.930 . S
H766 C775 0.930 . S
H767 C780 0.929 . S
H768 C778 0.929 . S
H769 C773 0.929 . S
H770 C779 0.929 . S
C771 H765 0.930 . S
C771 C772 1.367 . S
C771 C779 1.378 . S
C772 C771 1.367 . S
C772 C780 1.433 . S
C773 H769 0.929 . S
C773 C775 1.378 . S
C773 C777 1.350 . S
C774 C777 1.463 . S
C774 C779 1.350 . S
C774 N782 1.427 . S
C775 H766 0.930 . S
C775 C773 1.378 . S
C775 C776 1.367 . S
C776 C775 1.367 . S
C776 C778 1.433 . S
C777 C773 1.350 . S
C777 C774 1.463 . S
C777 N781 1.427 . S
C778 H768 0.929 . S
C778 C776 1.433 . S
C778 N781 1.384 . S
C779 H770 0.929 . S
C779 C771 1.378 . S
C779 C774 1.350 . S
C780 H767 0.929 . S
C780 C772 1.433 . S
C780 N782 1.384 . S
N781 C777 1.427 . S
N781 C778 1.384 . S
N782 C774 1.427 . S
N782 C780 1.384 . S
H783 C789 0.930 . S
H784 C793 0.930 . S
H785 C798 0.929 . S
H786 C796 0.929 . S
H787 C791 0.929 . S
H788 C797 0.929 . S
C789 H783 0.930 . S
C789 C790 1.367 . S
C789 C797 1.378 . S
C790 C789 1.367 . S
C790 C798 1.433 . S
C791 H787 0.929 . S
C791 C793 1.378 . S
C791 C795 1.350 . S
C792 C795 1.463 . S
C792 C797 1.350 . S
C792 N800 1.427 . S
C793 H784 0.930 . S
C793 C791 1.378 . S
C793 C794 1.367 . S
C794 C793 1.367 . S
C794 C796 1.433 . S
C795 C791 1.350 . S
C795 C792 1.463 . S
C795 N799 1.427 . S
C796 H786 0.929 . S
C796 C794 1.433 . S
C796 N799 1.384 . S
C797 H788 0.929 . S
C797 C789 1.378 . S
C797 C792 1.350 . S
C798 H785 0.929 . S
C798 C790 1.433 . S
C798 N800 1.384 . S
N799 C795 1.427 . S
N799 C796 1.384 . S
N800 C792 1.427 . S
N800 C798 1.384 . S
H801 C807 0.930 . S
H802 C811 0.930 . S
H803 C816 0.929 . S
H804 C814 0.929 . S
H805 C809 0.929 . S
H806 C815 0.929 . S
C807 H801 0.930 . S
C807 C808 1.367 . S
C807 C815 1.378 . S
C808 C807 1.367 . S
C808 C816 1.433 . S
C809 H805 0.929 . S
C809 C811 1.378 . S
C809 C813 1.350 . S
C810 C813 1.463 . S
C810 C815 1.350 . S
C810 N818 1.427 . S
C811 H802 0.930 . S
C811 C809 1.378 . S
C811 C812 1.367 . S
C812 C811 1.367 . S
C812 C814 1.433 . S
C813 C809 1.350 . S
C813 C810 1.463 . S
C813 N817 1.427 . S
C814 H804 0.929 . S
C814 C812 1.433 . S
C814 N817 1.384 . S
C815 H806 0.929 . S
C815 C807 1.378 . S
C815 C810 1.350 . S
C816 H803 0.929 . S
C816 C808 1.433 . S
C816 N818 1.384 . S
N817 C813 1.427 . S
N817 C814 1.384 . S
N818 C810 1.427 . S
N818 C816 1.384 . S
C398 C312 1.070 . S
C394 C1 1.125 . S
C416 C348 1.660 . S
C412 C37 1.761 . S
C434 C313 1.416 . S
C430 C103 1.417 . S
C452 C343 1.562 . S
C448 C139 1.572 . S
C470 C310 1.485 . S
C466 C145 1.508 . S
C484 C205 1.705 . S
C488 C346 1.707 . S
C502 C247 1.209 . S
C506 C315 1.111 . S
C524 C345 1.446 . S
C520 C283 1.458 . S
C542 C349 1.442 . S
C538 C25 1.448 . S
C560 C314 1.481 . S
C556 C67 1.552 . S
C578 C342 1.702 . S
C574 C97 1.702 . S
C596 C311 1.109 . S
C592 C109 1.211 . S
C614 C344 1.650 . S
C610 C169 1.715 . S
C628 C181 1.416 . S
C632 C309 1.411 . S
C646 C217 1.549 . S
C650 C347 1.532 . S
C668 C316 1.058 . S
C664 C277 1.117 . S
C686 C378 1.669 . S
C682 C31 1.767 . S
C700 C175 1.997 . S
C704 C381 1.898 . S
C722 C380 1.696 . S
C718 C211 1.762 . S
C736 C241 2.049 . S
C740 C379 2.069 . S
C758 C382 1.659 . S
C754 C253 1.757 . S
C772 C73 1.743 . S
C776 C376 1.688 . S
C794 C375 2.068 . S
C790 C133 2.052 . S
C808 C61 2.028 . S
C812 C377 1.897 . S
