# Generated by pormake.
# Topology ana-f, (3,3)-cn, num edge types: 1
# Building blocks:
#     Node 0, Type 0, BuildingBlock: WUSLED_clean_sbu_0, # of connection points: 3
#     Node 1, Type 0, BuildingBlock: WUSLED_clean_sbu_0, # of connection points: 3
#     Node 2, Type 0, BuildingBlock: WUSLED_clean_sbu_0, # of connection points: 3
#     Node 3, Type 0, BuildingBlock: WUSLED_clean_sbu_0, # of connection points: 3
#     Node 4, Type 0, BuildingBlock: WUSLED_clean_sbu_0, # of connection points: 3
#     Node 5, Type 0, BuildingBlock: WUSLED_clean_sbu_0, # of connection points: 3
#     Node 6, Type 0, BuildingBlock: WUSLED_clean_sbu_0, # of connection points: 3
#     Node 7, Type 0, BuildingBlock: WUSLED_clean_sbu_0, # of connection points: 3
#     Node 8, Type 0, BuildingBlock: WUSLED_clean_sbu_0, # of connection points: 3
#     Node 9, Type 0, BuildingBlock: WUSLED_clean_sbu_0, # of connection points: 3
#     Node 10, Type 0, BuildingBlock: WUSLED_clean_sbu_0, # of connection points: 3
#     Node 11, Type 0, BuildingBlock: WUSLED_clean_sbu_0, # of connection points: 3
#     Node 12, Type 0, BuildingBlock: WUSLED_clean_sbu_0, # of connection points: 3
#     Node 13, Type 0, BuildingBlock: WUSLED_clean_sbu_0, # of connection points: 3
#     Node 14, Type 0, BuildingBlock: WUSLED_clean_sbu_0, # of connection points: 3
#     Node 15, Type 0, BuildingBlock: WUSLED_clean_sbu_0, # of connection points: 3
#     Node 16, Type 0, BuildingBlock: WUSLED_clean_sbu_0, # of connection points: 3
#     Node 17, Type 0, BuildingBlock: WUSLED_clean_sbu_0, # of connection points: 3
#     Node 18, Type 0, BuildingBlock: WUSLED_clean_sbu_0, # of connection points: 3
#     Node 19, Type 0, BuildingBlock: WUSLED_clean_sbu_0, # of connection points: 3
#     Node 20, Type 0, BuildingBlock: WUSLED_clean_sbu_0, # of connection points: 3
#     Node 21, Type 0, BuildingBlock: WUSLED_clean_sbu_0, # of connection points: 3
#     Node 22, Type 0, BuildingBlock: WUSLED_clean_sbu_0, # of connection points: 3
#     Node 23, Type 0, BuildingBlock: WUSLED_clean_sbu_0, # of connection points: 3
#     Node 24, Type 0, BuildingBlock: WUSLED_clean_sbu_0, # of connection points: 3
#     Node 25, Type 0, BuildingBlock: WUSLED_clean_sbu_0, # of connection points: 3
#     Node 26, Type 0, BuildingBlock: WUSLED_clean_sbu_0, # of connection points: 3
#     Node 27, Type 0, BuildingBlock: WUSLED_clean_sbu_0, # of connection points: 3
#     Node 28, Type 0, BuildingBlock: WUSLED_clean_sbu_0, # of connection points: 3
#     Node 29, Type 0, BuildingBlock: WUSLED_clean_sbu_0, # of connection points: 3
#     Node 30, Type 0, BuildingBlock: WUSLED_clean_sbu_0, # of connection points: 3
#     Node 31, Type 0, BuildingBlock: WUSLED_clean_sbu_0, # of connection points: 3
#     Node 32, Type 0, BuildingBlock: WUSLED_clean_sbu_0, # of connection points: 3
#     Node 33, Type 0, BuildingBlock: WUSLED_clean_sbu_0, # of connection points: 3
#     Node 34, Type 0, BuildingBlock: WUSLED_clean_sbu_0, # of connection points: 3
#     Node 35, Type 0, BuildingBlock: WUSLED_clean_sbu_0, # of connection points: 3
#     Node 36, Type 0, BuildingBlock: WUSLED_clean_sbu_0, # of connection points: 3
#     Node 37, Type 0, BuildingBlock: WUSLED_clean_sbu_0, # of connection points: 3
#     Node 38, Type 0, BuildingBlock: WUSLED_clean_sbu_0, # of connection points: 3
#     Node 39, Type 0, BuildingBlock: WUSLED_clean_sbu_0, # of connection points: 3
#     Node 40, Type 0, BuildingBlock: WUSLED_clean_sbu_0, # of connection points: 3
#     Node 41, Type 0, BuildingBlock: WUSLED_clean_sbu_0, # of connection points: 3
#     Node 42, Type 0, BuildingBlock: WUSLED_clean_sbu_0, # of connection points: 3
#     Node 43, Type 0, BuildingBlock: WUSLED_clean_sbu_0, # of connection points: 3
#     Node 44, Type 0, BuildingBlock: WUSLED_clean_sbu_0, # of connection points: 3
#     Node 45, Type 0, BuildingBlock: WUSLED_clean_sbu_0, # of connection points: 3
#     Node 46, Type 0, BuildingBlock: WUSLED_clean_sbu_0, # of connection points: 3
#     Node 47, Type 0, BuildingBlock: WUSLED_clean_sbu_0, # of connection points: 3
#     Node 48, Type 0, BuildingBlock: WUSLED_clean_sbu_0, # of connection points: 3
#     Node 49, Type 0, BuildingBlock: WUSLED_clean_sbu_0, # of connection points: 3
#     Node 50, Type 0, BuildingBlock: WUSLED_clean_sbu_0, # of connection points: 3
#     Node 51, Type 0, BuildingBlock: WUSLED_clean_sbu_0, # of connection points: 3
#     Node 52, Type 0, BuildingBlock: WUSLED_clean_sbu_0, # of connection points: 3
#     Node 53, Type 0, BuildingBlock: WUSLED_clean_sbu_0, # of connection points: 3
#     Node 54, Type 0, BuildingBlock: WUSLED_clean_sbu_0, # of connection points: 3
#     Node 55, Type 0, BuildingBlock: WUSLED_clean_sbu_0, # of connection points: 3
#     Node 56, Type 0, BuildingBlock: WUSLED_clean_sbu_0, # of connection points: 3
#     Node 57, Type 0, BuildingBlock: WUSLED_clean_sbu_0, # of connection points: 3
#     Node 58, Type 0, BuildingBlock: WUSLED_clean_sbu_0, # of connection points: 3
#     Node 59, Type 0, BuildingBlock: WUSLED_clean_sbu_0, # of connection points: 3
#     Node 60, Type 0, BuildingBlock: WUSLED_clean_sbu_0, # of connection points: 3
#     Node 61, Type 0, BuildingBlock: WUSLED_clean_sbu_0, # of connection points: 3
#     Node 62, Type 0, BuildingBlock: WUSLED_clean_sbu_0, # of connection points: 3
#     Node 63, Type 0, BuildingBlock: WUSLED_clean_sbu_0, # of connection points: 3
#     Node 64, Type 0, BuildingBlock: WUSLED_clean_sbu_0, # of connection points: 3
#     Node 65, Type 0, BuildingBlock: WUSLED_clean_sbu_0, # of connection points: 3
#     Node 66, Type 0, BuildingBlock: WUSLED_clean_sbu_0, # of connection points: 3
#     Node 67, Type 0, BuildingBlock: WUSLED_clean_sbu_0, # of connection points: 3
#     Node 68, Type 0, BuildingBlock: WUSLED_clean_sbu_0, # of connection points: 3
#     Node 69, Type 0, BuildingBlock: WUSLED_clean_sbu_0, # of connection points: 3
#     Node 70, Type 0, BuildingBlock: WUSLED_clean_sbu_0, # of connection points: 3
#     Node 71, Type 0, BuildingBlock: WUSLED_clean_sbu_0, # of connection points: 3
#     Node 72, Type 0, BuildingBlock: WUSLED_clean_sbu_0, # of connection points: 3
#     Node 73, Type 0, BuildingBlock: WUSLED_clean_sbu_0, # of connection points: 3
#     Node 74, Type 0, BuildingBlock: WUSLED_clean_sbu_0, # of connection points: 3
#     Node 75, Type 0, BuildingBlock: WUSLED_clean_sbu_0, # of connection points: 3
#     Node 76, Type 0, BuildingBlock: WUSLED_clean_sbu_0, # of connection points: 3
#     Node 77, Type 0, BuildingBlock: WUSLED_clean_sbu_0, # of connection points: 3
#     Node 78, Type 0, BuildingBlock: WUSLED_clean_sbu_0, # of connection points: 3
#     Node 79, Type 0, BuildingBlock: WUSLED_clean_sbu_0, # of connection points: 3
#     Node 80, Type 0, BuildingBlock: WUSLED_clean_sbu_0, # of connection points: 3
#     Node 81, Type 0, BuildingBlock: WUSLED_clean_sbu_0, # of connection points: 3
#     Node 82, Type 0, BuildingBlock: WUSLED_clean_sbu_0, # of connection points: 3
#     Node 83, Type 0, BuildingBlock: WUSLED_clean_sbu_0, # of connection points: 3
#     Node 84, Type 0, BuildingBlock: WUSLED_clean_sbu_0, # of connection points: 3
#     Node 85, Type 0, BuildingBlock: WUSLED_clean_sbu_0, # of connection points: 3
#     Node 86, Type 0, BuildingBlock: WUSLED_clean_sbu_0, # of connection points: 3
#     Node 87, Type 0, BuildingBlock: WUSLED_clean_sbu_0, # of connection points: 3
#     Node 88, Type 0, BuildingBlock: WUSLED_clean_sbu_0, # of connection points: 3
#     Node 89, Type 0, BuildingBlock: WUSLED_clean_sbu_0, # of connection points: 3
#     Node 90, Type 0, BuildingBlock: WUSLED_clean_sbu_0, # of connection points: 3
#     Node 91, Type 0, BuildingBlock: WUSLED_clean_sbu_0, # of connection points: 3
#     Node 92, Type 0, BuildingBlock: WUSLED_clean_sbu_0, # of connection points: 3
#     Node 93, Type 0, BuildingBlock: WUSLED_clean_sbu_0, # of connection points: 3
#     Node 94, Type 0, BuildingBlock: WUSLED_clean_sbu_0, # of connection points: 3
#     Node 95, Type 0, BuildingBlock: WUSLED_clean_sbu_0, # of connection points: 3
#     Node 96, Type 1, BuildingBlock: KAKCAD_clean_linker_0, # of connection points: 3
#     Node 97, Type 1, BuildingBlock: KAKCAD_clean_linker_0, # of connection points: 3
#     Node 98, Type 1, BuildingBlock: KAKCAD_clean_linker_0, # of connection points: 3
#     Node 99, Type 1, BuildingBlock: KAKCAD_clean_linker_0, # of connection points: 3
#     Node 100, Type 1, BuildingBlock: KAKCAD_clean_linker_0, # of connection points: 3
#     Node 101, Type 1, BuildingBlock: KAKCAD_clean_linker_0, # of connection points: 3
#     Node 102, Type 1, BuildingBlock: KAKCAD_clean_linker_0, # of connection points: 3
#     Node 103, Type 1, BuildingBlock: KAKCAD_clean_linker_0, # of connection points: 3
#     Node 104, Type 1, BuildingBlock: KAKCAD_clean_linker_0, # of connection points: 3
#     Node 105, Type 1, BuildingBlock: KAKCAD_clean_linker_0, # of connection points: 3
#     Node 106, Type 1, BuildingBlock: KAKCAD_clean_linker_0, # of connection points: 3
#     Node 107, Type 1, BuildingBlock: KAKCAD_clean_linker_0, # of connection points: 3
#     Node 108, Type 1, BuildingBlock: KAKCAD_clean_linker_0, # of connection points: 3
#     Node 109, Type 1, BuildingBlock: KAKCAD_clean_linker_0, # of connection points: 3
#     Node 110, Type 1, BuildingBlock: KAKCAD_clean_linker_0, # of connection points: 3
#     Node 111, Type 1, BuildingBlock: KAKCAD_clean_linker_0, # of connection points: 3
#     Node 112, Type 1, BuildingBlock: KAKCAD_clean_linker_0, # of connection points: 3
#     Node 113, Type 1, BuildingBlock: KAKCAD_clean_linker_0, # of connection points: 3
#     Node 114, Type 1, BuildingBlock: KAKCAD_clean_linker_0, # of connection points: 3
#     Node 115, Type 1, BuildingBlock: KAKCAD_clean_linker_0, # of connection points: 3
#     Node 116, Type 1, BuildingBlock: KAKCAD_clean_linker_0, # of connection points: 3
#     Node 117, Type 1, BuildingBlock: KAKCAD_clean_linker_0, # of connection points: 3
#     Node 118, Type 1, BuildingBlock: KAKCAD_clean_linker_0, # of connection points: 3
#     Node 119, Type 1, BuildingBlock: KAKCAD_clean_linker_0, # of connection points: 3
#     Node 120, Type 1, BuildingBlock: KAKCAD_clean_linker_0, # of connection points: 3
#     Node 121, Type 1, BuildingBlock: KAKCAD_clean_linker_0, # of connection points: 3
#     Node 122, Type 1, BuildingBlock: KAKCAD_clean_linker_0, # of connection points: 3
#     Node 123, Type 1, BuildingBlock: KAKCAD_clean_linker_0, # of connection points: 3
#     Node 124, Type 1, BuildingBlock: KAKCAD_clean_linker_0, # of connection points: 3
#     Node 125, Type 1, BuildingBlock: KAKCAD_clean_linker_0, # of connection points: 3
#     Node 126, Type 1, BuildingBlock: KAKCAD_clean_linker_0, # of connection points: 3
#     Node 127, Type 1, BuildingBlock: KAKCAD_clean_linker_0, # of connection points: 3
#     Node 128, Type 1, BuildingBlock: KAKCAD_clean_linker_0, # of connection points: 3
#     Node 129, Type 1, BuildingBlock: KAKCAD_clean_linker_0, # of connection points: 3
#     Node 130, Type 1, BuildingBlock: KAKCAD_clean_linker_0, # of connection points: 3
#     Node 131, Type 1, BuildingBlock: KAKCAD_clean_linker_0, # of connection points: 3
#     Node 132, Type 1, BuildingBlock: KAKCAD_clean_linker_0, # of connection points: 3
#     Node 133, Type 1, BuildingBlock: KAKCAD_clean_linker_0, # of connection points: 3
#     Node 134, Type 1, BuildingBlock: KAKCAD_clean_linker_0, # of connection points: 3
#     Node 135, Type 1, BuildingBlock: KAKCAD_clean_linker_0, # of connection points: 3
#     Node 136, Type 1, BuildingBlock: KAKCAD_clean_linker_0, # of connection points: 3
#     Node 137, Type 1, BuildingBlock: KAKCAD_clean_linker_0, # of connection points: 3
#     Node 138, Type 1, BuildingBlock: KAKCAD_clean_linker_0, # of connection points: 3
#     Node 139, Type 1, BuildingBlock: KAKCAD_clean_linker_0, # of connection points: 3
#     Node 140, Type 1, BuildingBlock: KAKCAD_clean_linker_0, # of connection points: 3
#     Node 141, Type 1, BuildingBlock: KAKCAD_clean_linker_0, # of connection points: 3
#     Node 142, Type 1, BuildingBlock: KAKCAD_clean_linker_0, # of connection points: 3
#     Node 143, Type 1, BuildingBlock: KAKCAD_clean_linker_0, # of connection points: 3
#     Node 144, Type 1, BuildingBlock: KAKCAD_clean_linker_0, # of connection points: 3
#     Node 145, Type 1, BuildingBlock: KAKCAD_clean_linker_0, # of connection points: 3
#     Node 146, Type 1, BuildingBlock: KAKCAD_clean_linker_0, # of connection points: 3
#     Node 147, Type 1, BuildingBlock: KAKCAD_clean_linker_0, # of connection points: 3
#     Node 148, Type 1, BuildingBlock: KAKCAD_clean_linker_0, # of connection points: 3
#     Node 149, Type 1, BuildingBlock: KAKCAD_clean_linker_0, # of connection points: 3
#     Node 150, Type 1, BuildingBlock: KAKCAD_clean_linker_0, # of connection points: 3
#     Node 151, Type 1, BuildingBlock: KAKCAD_clean_linker_0, # of connection points: 3
#     Node 152, Type 1, BuildingBlock: KAKCAD_clean_linker_0, # of connection points: 3
#     Node 153, Type 1, BuildingBlock: KAKCAD_clean_linker_0, # of connection points: 3
#     Node 154, Type 1, BuildingBlock: KAKCAD_clean_linker_0, # of connection points: 3
#     Node 155, Type 1, BuildingBlock: KAKCAD_clean_linker_0, # of connection points: 3
#     Node 156, Type 1, BuildingBlock: KAKCAD_clean_linker_0, # of connection points: 3
#     Node 157, Type 1, BuildingBlock: KAKCAD_clean_linker_0, # of connection points: 3
#     Node 158, Type 1, BuildingBlock: KAKCAD_clean_linker_0, # of connection points: 3
#     Node 159, Type 1, BuildingBlock: KAKCAD_clean_linker_0, # of connection points: 3
#     Node 160, Type 1, BuildingBlock: KAKCAD_clean_linker_0, # of connection points: 3
#     Node 161, Type 1, BuildingBlock: KAKCAD_clean_linker_0, # of connection points: 3
#     Node 162, Type 1, BuildingBlock: KAKCAD_clean_linker_0, # of connection points: 3
#     Node 163, Type 1, BuildingBlock: KAKCAD_clean_linker_0, # of connection points: 3
#     Node 164, Type 1, BuildingBlock: KAKCAD_clean_linker_0, # of connection points: 3
#     Node 165, Type 1, BuildingBlock: KAKCAD_clean_linker_0, # of connection points: 3
#     Node 166, Type 1, BuildingBlock: KAKCAD_clean_linker_0, # of connection points: 3
#     Node 167, Type 1, BuildingBlock: KAKCAD_clean_linker_0, # of connection points: 3
#     Node 168, Type 1, BuildingBlock: KAKCAD_clean_linker_0, # of connection points: 3
#     Node 169, Type 1, BuildingBlock: KAKCAD_clean_linker_0, # of connection points: 3
#     Node 170, Type 1, BuildingBlock: KAKCAD_clean_linker_0, # of connection points: 3
#     Node 171, Type 1, BuildingBlock: KAKCAD_clean_linker_0, # of connection points: 3
#     Node 172, Type 1, BuildingBlock: KAKCAD_clean_linker_0, # of connection points: 3
#     Node 173, Type 1, BuildingBlock: KAKCAD_clean_linker_0, # of connection points: 3
#     Node 174, Type 1, BuildingBlock: KAKCAD_clean_linker_0, # of connection points: 3
#     Node 175, Type 1, BuildingBlock: KAKCAD_clean_linker_0, # of connection points: 3
#     Node 176, Type 1, BuildingBlock: KAKCAD_clean_linker_0, # of connection points: 3
#     Node 177, Type 1, BuildingBlock: KAKCAD_clean_linker_0, # of connection points: 3
#     Node 178, Type 1, BuildingBlock: KAKCAD_clean_linker_0, # of connection points: 3
#     Node 179, Type 1, BuildingBlock: KAKCAD_clean_linker_0, # of connection points: 3
#     Node 180, Type 1, BuildingBlock: KAKCAD_clean_linker_0, # of connection points: 3
#     Node 181, Type 1, BuildingBlock: KAKCAD_clean_linker_0, # of connection points: 3
#     Node 182, Type 1, BuildingBlock: KAKCAD_clean_linker_0, # of connection points: 3
#     Node 183, Type 1, BuildingBlock: KAKCAD_clean_linker_0, # of connection points: 3
#     Node 184, Type 1, BuildingBlock: KAKCAD_clean_linker_0, # of connection points: 3
#     Node 185, Type 1, BuildingBlock: KAKCAD_clean_linker_0, # of connection points: 3
#     Node 186, Type 1, BuildingBlock: KAKCAD_clean_linker_0, # of connection points: 3
#     Node 187, Type 1, BuildingBlock: KAKCAD_clean_linker_0, # of connection points: 3
#     Node 188, Type 1, BuildingBlock: KAKCAD_clean_linker_0, # of connection points: 3
#     Node 189, Type 1, BuildingBlock: KAKCAD_clean_linker_0, # of connection points: 3
#     Node 190, Type 1, BuildingBlock: KAKCAD_clean_linker_0, # of connection points: 3
#     Node 191, Type 1, BuildingBlock: KAKCAD_clean_linker_0, # of connection points: 3
#     Edge 192, Type (0, 1), None
#     Edge 193, Type (0, 1), None
#     Edge 194, Type (0, 1), None
#     Edge 195, Type (0, 1), None
#     Edge 196, Type (0, 1), None
#     Edge 197, Type (0, 1), None
#     Edge 198, Type (0, 1), None
#     Edge 199, Type (0, 1), None
#     Edge 200, Type (0, 1), None
#     Edge 201, Type (0, 1), None
#     Edge 202, Type (0, 1), None
#     Edge 203, Type (0, 1), None
#     Edge 204, Type (0, 1), None
#     Edge 205, Type (0, 1), None
#     Edge 206, Type (0, 1), None
#     Edge 207, Type (0, 1), None
#     Edge 208, Type (0, 1), None
#     Edge 209, Type (0, 1), None
#     Edge 210, Type (0, 1), None
#     Edge 211, Type (0, 1), None
#     Edge 212, Type (0, 1), None
#     Edge 213, Type (0, 1), None
#     Edge 214, Type (0, 1), None
#     Edge 215, Type (0, 1), None
#     Edge 216, Type (0, 1), None
#     Edge 217, Type (0, 1), None
#     Edge 218, Type (0, 1), None
#     Edge 219, Type (0, 1), None
#     Edge 220, Type (0, 1), None
#     Edge 221, Type (0, 1), None
#     Edge 222, Type (0, 1), None
#     Edge 223, Type (0, 1), None
#     Edge 224, Type (0, 1), None
#     Edge 225, Type (0, 1), None
#     Edge 226, Type (0, 1), None
#     Edge 227, Type (0, 1), None
#     Edge 228, Type (0, 1), None
#     Edge 229, Type (0, 1), None
#     Edge 230, Type (0, 1), None
#     Edge 231, Type (0, 1), None
#     Edge 232, Type (0, 1), None
#     Edge 233, Type (0, 1), None
#     Edge 234, Type (0, 1), None
#     Edge 235, Type (0, 1), None
#     Edge 236, Type (0, 1), None
#     Edge 237, Type (0, 1), None
#     Edge 238, Type (0, 1), None
#     Edge 239, Type (0, 1), None
#     Edge 240, Type (0, 1), None
#     Edge 241, Type (0, 1), None
#     Edge 242, Type (0, 1), None
#     Edge 243, Type (0, 1), None
#     Edge 244, Type (0, 1), None
#     Edge 245, Type (0, 1), None
#     Edge 246, Type (0, 1), None
#     Edge 247, Type (0, 1), None
#     Edge 248, Type (0, 1), None
#     Edge 249, Type (0, 1), None
#     Edge 250, Type (0, 1), None
#     Edge 251, Type (0, 1), None
#     Edge 252, Type (0, 1), None
#     Edge 253, Type (0, 1), None
#     Edge 254, Type (0, 1), None
#     Edge 255, Type (0, 1), None
#     Edge 256, Type (0, 1), None
#     Edge 257, Type (0, 1), None
#     Edge 258, Type (0, 1), None
#     Edge 259, Type (0, 1), None
#     Edge 260, Type (0, 1), None
#     Edge 261, Type (0, 1), None
#     Edge 262, Type (0, 1), None
#     Edge 263, Type (0, 1), None
#     Edge 264, Type (0, 1), None
#     Edge 265, Type (0, 1), None
#     Edge 266, Type (0, 1), None
#     Edge 267, Type (0, 1), None
#     Edge 268, Type (0, 1), None
#     Edge 269, Type (0, 1), None
#     Edge 270, Type (0, 1), None
#     Edge 271, Type (0, 1), None
#     Edge 272, Type (0, 1), None
#     Edge 273, Type (0, 1), None
#     Edge 274, Type (0, 1), None
#     Edge 275, Type (0, 1), None
#     Edge 276, Type (0, 1), None
#     Edge 277, Type (0, 1), None
#     Edge 278, Type (0, 1), None
#     Edge 279, Type (0, 1), None
#     Edge 280, Type (0, 1), None
#     Edge 281, Type (0, 1), None
#     Edge 282, Type (0, 1), None
#     Edge 283, Type (0, 1), None
#     Edge 284, Type (0, 1), None
#     Edge 285, Type (0, 1), None
#     Edge 286, Type (0, 1), None
#     Edge 287, Type (0, 1), None
#     Edge 288, Type (0, 1), None
#     Edge 289, Type (0, 1), None
#     Edge 290, Type (0, 1), None
#     Edge 291, Type (0, 1), None
#     Edge 292, Type (0, 1), None
#     Edge 293, Type (0, 1), None
#     Edge 294, Type (0, 1), None
#     Edge 295, Type (0, 1), None
#     Edge 296, Type (0, 1), None
#     Edge 297, Type (0, 1), None
#     Edge 298, Type (0, 1), None
#     Edge 299, Type (0, 1), None
#     Edge 300, Type (0, 1), None
#     Edge 301, Type (0, 1), None
#     Edge 302, Type (0, 1), None
#     Edge 303, Type (0, 1), None
#     Edge 304, Type (0, 1), None
#     Edge 305, Type (0, 1), None
#     Edge 306, Type (0, 1), None
#     Edge 307, Type (0, 1), None
#     Edge 308, Type (0, 1), None
#     Edge 309, Type (0, 1), None
#     Edge 310, Type (0, 1), None
#     Edge 311, Type (0, 1), None
#     Edge 312, Type (0, 1), None
#     Edge 313, Type (0, 1), None
#     Edge 314, Type (0, 1), None
#     Edge 315, Type (0, 1), None
#     Edge 316, Type (0, 1), None
#     Edge 317, Type (0, 1), None
#     Edge 318, Type (0, 1), None
#     Edge 319, Type (0, 1), None
#     Edge 320, Type (0, 1), None
#     Edge 321, Type (0, 1), None
#     Edge 322, Type (0, 1), None
#     Edge 323, Type (0, 1), None
#     Edge 324, Type (0, 1), None
#     Edge 325, Type (0, 1), None
#     Edge 326, Type (0, 1), None
#     Edge 327, Type (0, 1), None
#     Edge 328, Type (0, 1), None
#     Edge 329, Type (0, 1), None
#     Edge 330, Type (0, 1), None
#     Edge 331, Type (0, 1), None
#     Edge 332, Type (0, 1), None
#     Edge 333, Type (0, 1), None
#     Edge 334, Type (0, 1), None
#     Edge 335, Type (0, 1), None
#     Edge 336, Type (0, 1), None
#     Edge 337, Type (0, 1), None
#     Edge 338, Type (0, 1), None
#     Edge 339, Type (0, 1), None
#     Edge 340, Type (0, 1), None
#     Edge 341, Type (0, 1), None
#     Edge 342, Type (0, 1), None
#     Edge 343, Type (0, 1), None
#     Edge 344, Type (0, 1), None
#     Edge 345, Type (0, 1), None
#     Edge 346, Type (0, 1), None
#     Edge 347, Type (0, 1), None
#     Edge 348, Type (0, 1), None
#     Edge 349, Type (0, 1), None
#     Edge 350, Type (0, 1), None
#     Edge 351, Type (0, 1), None
#     Edge 352, Type (0, 1), None
#     Edge 353, Type (0, 1), None
#     Edge 354, Type (0, 1), None
#     Edge 355, Type (0, 1), None
#     Edge 356, Type (0, 1), None
#     Edge 357, Type (0, 1), None
#     Edge 358, Type (0, 1), None
#     Edge 359, Type (0, 1), None
#     Edge 360, Type (0, 1), None
#     Edge 361, Type (0, 1), None
#     Edge 362, Type (0, 1), None
#     Edge 363, Type (0, 1), None
#     Edge 364, Type (0, 1), None
#     Edge 365, Type (0, 1), None
#     Edge 366, Type (0, 1), None
#     Edge 367, Type (0, 1), None
#     Edge 368, Type (0, 1), None
#     Edge 369, Type (0, 1), None
#     Edge 370, Type (0, 1), None
#     Edge 371, Type (0, 1), None
#     Edge 372, Type (0, 1), None
#     Edge 373, Type (0, 1), None
#     Edge 374, Type (0, 1), None
#     Edge 375, Type (0, 1), None
#     Edge 376, Type (0, 1), None
#     Edge 377, Type (0, 1), None
#     Edge 378, Type (0, 1), None
#     Edge 379, Type (0, 1), None
#     Edge 380, Type (0, 1), None
#     Edge 381, Type (0, 1), None
#     Edge 382, Type (0, 1), None
#     Edge 383, Type (0, 1), None
#     Edge 384, Type (0, 1), None
#     Edge 385, Type (0, 1), None
#     Edge 386, Type (0, 1), None
#     Edge 387, Type (0, 1), None
#     Edge 388, Type (0, 1), None
#     Edge 389, Type (0, 1), None
#     Edge 390, Type (0, 1), None
#     Edge 391, Type (0, 1), None
#     Edge 392, Type (0, 1), None
#     Edge 393, Type (0, 1), None
#     Edge 394, Type (0, 1), None
#     Edge 395, Type (0, 1), None
#     Edge 396, Type (0, 1), None
#     Edge 397, Type (0, 1), None
#     Edge 398, Type (0, 1), None
#     Edge 399, Type (0, 1), None
#     Edge 400, Type (0, 1), None
#     Edge 401, Type (0, 1), None
#     Edge 402, Type (0, 1), None
#     Edge 403, Type (0, 1), None
#     Edge 404, Type (0, 1), None
#     Edge 405, Type (0, 1), None
#     Edge 406, Type (0, 1), None
#     Edge 407, Type (0, 1), None
#     Edge 408, Type (0, 1), None
#     Edge 409, Type (0, 1), None
#     Edge 410, Type (0, 1), None
#     Edge 411, Type (0, 1), None
#     Edge 412, Type (0, 1), None
#     Edge 413, Type (0, 1), None
#     Edge 414, Type (0, 1), None
#     Edge 415, Type (0, 1), None
#     Edge 416, Type (0, 1), None
#     Edge 417, Type (0, 1), None
#     Edge 418, Type (0, 1), None
#     Edge 419, Type (0, 1), None
#     Edge 420, Type (0, 1), None
#     Edge 421, Type (0, 1), None
#     Edge 422, Type (0, 1), None
#     Edge 423, Type (0, 1), None
#     Edge 424, Type (0, 1), None
#     Edge 425, Type (0, 1), None
#     Edge 426, Type (0, 1), None
#     Edge 427, Type (0, 1), None
#     Edge 428, Type (0, 1), None
#     Edge 429, Type (0, 1), None
#     Edge 430, Type (0, 1), None
#     Edge 431, Type (0, 1), None
#     Edge 432, Type (0, 1), None
#     Edge 433, Type (0, 1), None
#     Edge 434, Type (0, 1), None
#     Edge 435, Type (0, 1), None
#     Edge 436, Type (0, 1), None
#     Edge 437, Type (0, 1), None
#     Edge 438, Type (0, 1), None
#     Edge 439, Type (0, 1), None
#     Edge 440, Type (0, 1), None
#     Edge 441, Type (0, 1), None
#     Edge 442, Type (0, 1), None
#     Edge 443, Type (0, 1), None
#     Edge 444, Type (0, 1), None
#     Edge 445, Type (0, 1), None
#     Edge 446, Type (0, 1), None
#     Edge 447, Type (0, 1), None
#     Edge 448, Type (0, 1), None
#     Edge 449, Type (0, 1), None
#     Edge 450, Type (0, 1), None
#     Edge 451, Type (0, 1), None
#     Edge 452, Type (0, 1), None
#     Edge 453, Type (0, 1), None
#     Edge 454, Type (0, 1), None
#     Edge 455, Type (0, 1), None
#     Edge 456, Type (0, 1), None
#     Edge 457, Type (0, 1), None
#     Edge 458, Type (0, 1), None
#     Edge 459, Type (0, 1), None
#     Edge 460, Type (0, 1), None
#     Edge 461, Type (0, 1), None
#     Edge 462, Type (0, 1), None
#     Edge 463, Type (0, 1), None
#     Edge 464, Type (0, 1), None
#     Edge 465, Type (0, 1), None
#     Edge 466, Type (0, 1), None
#     Edge 467, Type (0, 1), None
#     Edge 468, Type (0, 1), None
#     Edge 469, Type (0, 1), None
#     Edge 470, Type (0, 1), None
#     Edge 471, Type (0, 1), None
#     Edge 472, Type (0, 1), None
#     Edge 473, Type (0, 1), None
#     Edge 474, Type (0, 1), None
#     Edge 475, Type (0, 1), None
#     Edge 476, Type (0, 1), None
#     Edge 477, Type (0, 1), None
#     Edge 478, Type (0, 1), None
#     Edge 479, Type (0, 1), None
# Relax obj value: 0.114
# Max RMSD: 0.096
# Mean RMSD: 0.094
data_MOF--net-ana-f--node1-WUSLED_clean_sbu_0--node2-KAKCAD_clean_linker_0--edge1-none
_symmetry_space_group_name_H-M    P1
_symmetry_Int_Tables_number       1
_symmetry_cell_setting            triclinic
loop_
_symmetry_equiv_pos_as_xyz
'x, y, z'
_cell_length_a     129.97583
_cell_length_b     130.01481
_cell_length_c     129.98496
_cell_angle_alpha  89.980571
_cell_angle_beta   90.00162
_cell_angle_gamma 90.009157
loop_
_atom_site_label
_atom_site_type_symbol
_atom_site_fract_x
_atom_site_fract_y
_atom_site_fract_z
_atom_type_partial_charge
C0 C 0.07372 0.11539 0.41732 0.0
C1 C 0.08382 0.11592 0.41354 0.0
C2 C 0.09054 0.11383 0.43082 0.0
C3 C 0.09215 0.11513 0.42022 0.0
C4 C 0.08047 0.11255 0.43453 0.0
C5 C 0.07208 0.11339 0.4278 0.0
U6 U 0.06605 0.13131 0.39498 0.0
O7 O 0.05506 0.12935 0.38221 0.0
O8 O 0.05377 0.14263 0.39261 0.0
C9 C 0.04958 0.13736 0.38506 0.0
C10 C 0.0652 0.11876 0.41068 0.0
C11 C 0.03836 0.13581 0.3856 0.0
C12 C 0.0221 0.13682 0.39479 0.0
C13 C 0.03284 0.13743 0.39475 0.0
C14 C 0.0223 0.13255 0.37665 0.0
C15 C 0.01669 0.13455 0.38569 0.0
C16 C 0.03302 0.13323 0.37661 0.0
C17 C 0.08839 0.1459 0.38238 0.0
C18 C 0.08684 0.16159 0.37233 0.0
C19 C 0.10327 0.15286 0.37353 0.0
C20 C 0.09881 0.1453 0.37971 0.0
C21 C 0.09739 0.1612 0.36993 0.0
C22 C 0.08237 0.15398 0.37849 0.0
C23 C 0.08419 0.13848 0.38979 0.0
O24 O 0.06319 0.12863 0.41143 0.0
O25 O 0.0656 0.11552 0.4011 0.0
O26 O 0.08034 0.12997 0.38592 0.0
O27 O 0.07852 0.14245 0.39715 0.0
H28 H 0.08528 0.1176 0.4055 0.0
H29 H 0.09985 0.11613 0.4172 0.0
H30 H 0.07908 0.11163 0.4427 0.0
H31 H 0.06433 0.1131 0.43087 0.0
H32 H 0.01803 0.13848 0.40187 0.0
H33 H 0.03677 0.1394 0.40183 0.0
H34 H 0.0184 0.13057 0.36956 0.0
H35 H 0.03713 0.13192 0.36947 0.0
H36 H 0.0821 0.16787 0.36959 0.0
H37 H 0.11144 0.1524 0.37194 0.0
H38 H 0.10357 0.13913 0.38268 0.0
H39 H 0.07428 0.15454 0.38043 0.0
C40 C 0.13258 0.81152 0.6826 0.0
C41 C 0.13361 0.82001 0.676 0.0
C42 C 0.14419 0.82883 0.68863 0.0
C43 C 0.13939 0.82853 0.67895 0.0
C44 C 0.14323 0.82031 0.69523 0.0
C45 C 0.1375 0.81169 0.69221 0.0
U46 U 0.10781 0.80262 0.67081 0.0
O47 O 0.10445 0.79084 0.65918 0.0
O48 O 0.09712 0.79 0.6744 0.0
C49 C 0.09888 0.78534 0.66558 0.0
C50 C 0.12587 0.80283 0.67973 0.0
C51 C 0.10165 0.77437 0.66605 0.0
C52 C 0.10898 0.75963 0.67494 0.0
C53 C 0.10592 0.76994 0.67494 0.0
C54 C 0.10358 0.75807 0.65717 0.0
C55 C 0.10793 0.75358 0.66602 0.0
C56 C 0.10044 0.76833 0.65722 0.0
C57 C 0.09007 0.8247 0.66148 0.0
C58 C 0.08045 0.82887 0.64596 0.0
C59 C 0.07601 0.83699 0.66213 0.0
C60 C 0.08373 0.8314 0.66707 0.0
C61 C 0.07454 0.83608 0.65145 0.0
C62 C 0.08816 0.82324 0.65093 0.0
C63 C 0.09929 0.82039 0.66653 0.0
O64 O 0.11722 0.80214 0.68493 0.0
O65 O 0.12463 0.80145 0.66978 0.0
O66 O 0.10612 0.81591 0.66056 0.0
O67 O 0.09784 0.81557 0.67531 0.0
H68 H 0.12975 0.82018 0.66861 0.0
H69 H 0.13979 0.83506 0.67378 0.0
H70 H 0.14684 0.82035 0.70274 0.0
H71 H 0.13674 0.80526 0.69746 0.0
H72 H 0.11217 0.7564 0.68193 0.0
H73 H 0.107 0.77446 0.68186 0.0
H74 H 0.10284 0.75375 0.65009 0.0
H75 H 0.09724 0.77162 0.65025 0.0
H76 H 0.07955 0.82803 0.63772 0.0
H77 H 0.07146 0.84235 0.6666 0.0
H78 H 0.08505 0.83266 0.67521 0.0
H79 H 0.09291 0.81811 0.6464 0.0
C80 C 0.43385 0.89391 0.91775 0.0
C81 C 0.42374 0.89333 0.914 0.0
C82 C 0.41707 0.89511 0.93134 0.0
C83 C 0.41543 0.89393 0.92074 0.0
C84 C 0.42715 0.89643 0.93503 0.0
C85 C 0.43552 0.89576 0.92825 0.0
U86 U 0.44147 0.87919 0.89457 0.0
O87 O 0.45289 0.8815 0.88223 0.0
O88 O 0.45338 0.86758 0.89183 0.0
C89 C 0.45797 0.87312 0.88472 0.0
C90 C 0.44236 0.89076 0.91101 0.0
C91 C 0.4692 0.8742 0.88573 0.0
C92 C 0.48492 0.87309 0.89581 0.0
C93 C 0.47419 0.87285 0.89523 0.0
C94 C 0.48581 0.87646 0.87749 0.0
C95 C 0.49087 0.87476 0.88691 0.0
C96 C 0.47509 0.87613 0.87691 0.0
C97 C 0.41906 0.86587 0.88084 0.0
C98 C 0.4209 0.85102 0.86964 0.0
C99 C 0.40408 0.85855 0.87251 0.0
C100 C 0.40848 0.86598 0.87888 0.0
C101 C 0.41019 0.85083 0.86801 0.0
C102 C 0.4253 0.8585 0.87601 0.0
C103 C 0.42325 0.87286 0.88864 0.0
O104 O 0.44413 0.88081 0.91119 0.0
O105 O 0.44216 0.89458 0.90163 0.0
O106 O 0.42747 0.8814 0.88524 0.0
O107 O 0.42862 0.86838 0.89594 0.0
H108 H 0.42227 0.89176 0.90595 0.0
H109 H 0.40772 0.8929 0.91774 0.0
H110 H 0.42857 0.89725 0.9432 0.0
H111 H 0.44327 0.89609 0.93129 0.0
H112 H 0.48856 0.87167 0.90317 0.0
H113 H 0.46981 0.87138 0.90217 0.0
H114 H 0.49013 0.87799 0.87054 0.0
H115 H 0.47138 0.87724 0.86952 0.0
H116 H 0.42582 0.84525 0.86621 0.0
H117 H 0.3958 0.85854 0.87154 0.0
H118 H 0.40356 0.87158 0.88259 0.0
H119 H 0.43352 0.85833 0.87744 0.0
C120 C 0.38248 0.19938 0.19055 0.0
C121 C 0.38841 0.19127 0.19451 0.0
C122 C 0.37304 0.18079 0.19652 0.0
C123 C 0.38373 0.1821 0.19752 0.0
C124 C 0.36704 0.18913 0.19312 0.0
C125 C 0.37174 0.19836 0.19014 0.0
U126 U 0.40418 0.20837 0.17408 0.0
O127 O 0.40459 0.2184 0.16045 0.0
O128 O 0.41403 0.2221 0.17399 0.0
C129 C 0.41055 0.22519 0.165 0.0
C130 C 0.38755 0.20813 0.18543 0.0
C131 C 0.40694 0.23589 0.16442 0.0
C132 C 0.39928 0.25105 0.17224 0.0
C133 C 0.40279 0.24092 0.17304 0.0
C134 C 0.40382 0.25117 0.15416 0.0
C135 C 0.39973 0.2563 0.16278 0.0
C136 C 0.40742 0.24109 0.155 0.0
C137 C 0.42259 0.18642 0.16583 0.0
C138 C 0.43125 0.18238 0.14974 0.0
C139 C 0.43618 0.17364 0.16544 0.0
C140 C 0.42895 0.17937 0.17092 0.0
C141 C 0.43714 0.1748 0.15472 0.0
C142 C 0.42402 0.18816 0.15525 0.0
C143 C 0.41381 0.19084 0.17148 0.0
O144 O 0.39664 0.21074 0.18906 0.0
O145 O 0.38732 0.20764 0.17534 0.0
O146 O 0.40588 0.19373 0.16591 0.0
O147 O 0.41596 0.19719 0.17904 0.0
H148 H 0.39672 0.19181 0.19481 0.0
H149 H 0.38854 0.17588 0.20027 0.0
H150 H 0.35879 0.18833 0.19221 0.0
H151 H 0.36704 0.20449 0.187 0.0
H152 H 0.39628 0.25479 0.17906 0.0
H153 H 0.40227 0.23702 0.18039 0.0
H154 H 0.40411 0.25488 0.14671 0.0
H155 H 0.4105 0.2373 0.14824 0.0
H156 H 0.43177 0.18343 0.14149 0.0
H157 H 0.44074 0.16798 0.16953 0.0
H158 H 0.428 0.17794 0.17908 0.0
H159 H 0.41923 0.1936 0.15115 0.0
C160 C 0.07373 0.89386 0.09218 0.0
C161 C 0.08383 0.89333 0.09596 0.0
C162 C 0.09054 0.89542 0.07867 0.0
C163 C 0.09215 0.89412 0.08927 0.0
C164 C 0.08047 0.8967 0.07496 0.0
C165 C 0.07208 0.89586 0.08169 0.0
U166 U 0.06606 0.87793 0.11452 0.0
O167 O 0.05508 0.8799 0.12729 0.0
O168 O 0.05378 0.86662 0.11689 0.0
C169 C 0.04959 0.87189 0.12444 0.0
C170 C 0.06521 0.89049 0.09881 0.0
C171 C 0.03838 0.87344 0.1239 0.0
C172 C 0.02211 0.87244 0.11471 0.0
C173 C 0.03285 0.87183 0.11475 0.0
C174 C 0.02231 0.8767 0.13285 0.0
C175 C 0.01671 0.87471 0.12381 0.0
C176 C 0.03303 0.87602 0.1329 0.0
C177 C 0.0884 0.86334 0.12711 0.0
C178 C 0.08686 0.84765 0.13716 0.0
C179 C 0.10329 0.85639 0.13596 0.0
C180 C 0.09882 0.86395 0.12977 0.0
C181 C 0.09741 0.84805 0.13956 0.0
C182 C 0.08238 0.85527 0.131 0.0
C183 C 0.0842 0.87077 0.1197 0.0
O184 O 0.0632 0.88062 0.09807 0.0
O185 O 0.06561 0.89373 0.1084 0.0
O186 O 0.08035 0.87927 0.12358 0.0
O187 O 0.07853 0.86679 0.11234 0.0
H188 H 0.08529 0.89165 0.10399 0.0
H189 H 0.09986 0.89312 0.09229 0.0
H190 H 0.07908 0.89761 0.06679 0.0
H191 H 0.06434 0.89615 0.07863 0.0
H192 H 0.01803 0.87078 0.10764 0.0
H193 H 0.03678 0.86986 0.10767 0.0
H194 H 0.01842 0.87869 0.13994 0.0
H195 H 0.03715 0.87733 0.14003 0.0
H196 H 0.08212 0.84137 0.1399 0.0
H197 H 0.11145 0.85686 0.13754 0.0
H198 H 0.10358 0.87012 0.1268 0.0
H199 H 0.07429 0.8547 0.12906 0.0
C200 C 0.38248 0.80983 0.31897 0.0
C201 C 0.3884 0.81796 0.31501 0.0
C202 C 0.37302 0.82842 0.31301 0.0
C203 C 0.38371 0.82712 0.312 0.0
C204 C 0.36703 0.82008 0.31641 0.0
C205 C 0.37174 0.81085 0.31939 0.0
U206 U 0.40419 0.80087 0.33542 0.0
O207 O 0.40462 0.79084 0.34905 0.0
O208 O 0.41406 0.78715 0.33551 0.0
C209 C 0.41058 0.78406 0.3445 0.0
C210 C 0.38756 0.8011 0.32408 0.0
C211 C 0.40698 0.77335 0.34508 0.0
C212 C 0.39934 0.75818 0.33727 0.0
C213 C 0.40285 0.76831 0.33646 0.0
C214 C 0.40387 0.75807 0.35535 0.0
C215 C 0.39979 0.75293 0.34673 0.0
C216 C 0.40746 0.76816 0.35451 0.0
C217 C 0.4226 0.82284 0.34365 0.0
C218 C 0.43127 0.82688 0.35974 0.0
C219 C 0.43619 0.83563 0.34404 0.0
C220 C 0.42895 0.82989 0.33856 0.0
C221 C 0.43715 0.83447 0.35475 0.0
C222 C 0.42404 0.8211 0.35423 0.0
C223 C 0.41382 0.81841 0.33802 0.0
O224 O 0.39664 0.79849 0.32044 0.0
O225 O 0.38733 0.80158 0.33418 0.0
O226 O 0.40589 0.81551 0.34359 0.0
O227 O 0.41597 0.81206 0.33045 0.0
H228 H 0.39671 0.81743 0.3147 0.0
H229 H 0.38852 0.83335 0.30925 0.0
H230 H 0.35878 0.82087 0.31733 0.0
H231 H 0.36705 0.80472 0.32253 0.0
H232 H 0.39636 0.75443 0.33045 0.0
H233 H 0.40233 0.7722 0.3291 0.0
H234 H 0.40415 0.75437 0.36281 0.0
H235 H 0.41053 0.77196 0.36126 0.0
H236 H 0.43179 0.82583 0.36799 0.0
H237 H 0.44074 0.84128 0.33995 0.0
H238 H 0.42799 0.83132 0.3304 0.0
H239 H 0.41926 0.81565 0.35834 0.0
C240 C 0.43384 0.11534 0.59169 0.0
C241 C 0.42373 0.11591 0.59544 0.0
C242 C 0.41705 0.11415 0.5781 0.0
C243 C 0.41542 0.11531 0.58871 0.0
C244 C 0.42713 0.11285 0.5744 0.0
C245 C 0.4355 0.11351 0.58118 0.0
U246 U 0.44147 0.13005 0.61487 0.0
O247 O 0.45288 0.12774 0.6272 0.0
O248 O 0.45338 0.14167 0.61761 0.0
C249 C 0.45798 0.13612 0.62472 0.0
C250 C 0.44235 0.11849 0.59842 0.0
C251 C 0.4692 0.13504 0.62371 0.0
C252 C 0.48493 0.13615 0.61364 0.0
C253 C 0.47419 0.1364 0.61421 0.0
C254 C 0.4858 0.13278 0.63195 0.0
C255 C 0.49087 0.13448 0.62253 0.0
C256 C 0.47508 0.13311 0.63253 0.0
C257 C 0.41906 0.14337 0.6286 0.0
C258 C 0.4209 0.15821 0.6398 0.0
C259 C 0.40408 0.15068 0.63694 0.0
C260 C 0.40848 0.14325 0.63056 0.0
C261 C 0.4102 0.15839 0.64144 0.0
C262 C 0.42531 0.15074 0.63343 0.0
C263 C 0.42325 0.13638 0.62079 0.0
O264 O 0.44412 0.12844 0.59825 0.0
O265 O 0.44216 0.11467 0.6078 0.0
O266 O 0.42746 0.12784 0.62419 0.0
O267 O 0.42862 0.14087 0.6135 0.0
H268 H 0.42227 0.11746 0.6035 0.0
H269 H 0.40771 0.11633 0.59172 0.0
H270 H 0.42855 0.11203 0.56623 0.0
H271 H 0.44326 0.11319 0.57814 0.0
H272 H 0.48856 0.13758 0.60628 0.0
H273 H 0.46982 0.13786 0.60727 0.0
H274 H 0.49012 0.13125 0.63891 0.0
H275 H 0.47138 0.132 0.63992 0.0
H276 H 0.42582 0.16399 0.64324 0.0
H277 H 0.3958 0.15068 0.63791 0.0
H278 H 0.40356 0.13765 0.62685 0.0
H279 H 0.43352 0.15091 0.632 0.0
C280 C 0.13262 0.19774 0.8269 0.0
C281 C 0.13364 0.18925 0.83351 0.0
C282 C 0.14422 0.18042 0.82088 0.0
C283 C 0.13942 0.18073 0.83056 0.0
C284 C 0.14326 0.18894 0.81428 0.0
C285 C 0.13754 0.19756 0.81729 0.0
U286 U 0.10785 0.20664 0.83868 0.0
O287 O 0.10448 0.21842 0.85031 0.0
O288 O 0.09716 0.21925 0.83509 0.0
C289 C 0.09891 0.22391 0.84391 0.0
C290 C 0.12591 0.20643 0.82978 0.0
C291 C 0.10168 0.23489 0.84344 0.0
C292 C 0.10901 0.24963 0.83456 0.0
C293 C 0.10595 0.23932 0.83455 0.0
C294 C 0.10362 0.25118 0.85233 0.0
C295 C 0.10796 0.25568 0.84348 0.0
C296 C 0.10047 0.24092 0.85228 0.0
C297 C 0.0901 0.18455 0.848 0.0
C298 C 0.08046 0.18039 0.86351 0.0
C299 C 0.07606 0.17224 0.84735 0.0
C300 C 0.08378 0.17784 0.84241 0.0
C301 C 0.07457 0.17317 0.85802 0.0
C302 C 0.08817 0.18603 0.85855 0.0
C303 C 0.09932 0.18886 0.84295 0.0
O304 O 0.11727 0.20712 0.82456 0.0
O305 O 0.12467 0.20782 0.83972 0.0
O306 O 0.10614 0.19334 0.84893 0.0
O307 O 0.09788 0.19368 0.83417 0.0
H308 H 0.12978 0.18908 0.8409 0.0
H309 H 0.13981 0.1742 0.83573 0.0
H310 H 0.14687 0.18889 0.80677 0.0
H311 H 0.13678 0.204 0.81205 0.0
H312 H 0.1122 0.25286 0.82757 0.0
H313 H 0.10703 0.2348 0.82763 0.0
H314 H 0.10287 0.2555 0.85941 0.0
H315 H 0.09727 0.23763 0.85924 0.0
H316 H 0.07955 0.18124 0.87175 0.0
H317 H 0.07152 0.16687 0.84287 0.0
H318 H 0.08511 0.17657 0.83427 0.0
H319 H 0.09291 0.19117 0.86308 0.0
C320 C 0.4172 0.07549 0.11655 0.0
C321 C 0.4135 0.08559 0.11734 0.0
C322 C 0.43082 0.09223 0.1152 0.0
C323 C 0.42025 0.09389 0.11666 0.0
C324 C 0.43444 0.08217 0.11369 0.0
C325 C 0.42765 0.07381 0.11443 0.0
U326 U 0.39427 0.06768 0.13161 0.0
O327 O 0.38185 0.05636 0.12932 0.0
O328 O 0.3917 0.05557 0.14306 0.0
C329 C 0.38448 0.0511 0.13756 0.0
C330 C 0.4105 0.06695 0.11972 0.0
C331 C 0.38541 0.03989 0.13626 0.0
C332 C 0.39534 0.02407 0.13715 0.0
C333 C 0.39485 0.0348 0.13758 0.0
C334 C 0.37704 0.02341 0.13365 0.0
C335 C 0.38641 0.01824 0.13532 0.0
C336 C 0.37655 0.03412 0.13416 0.0
C337 C 0.38081 0.08988 0.14554 0.0
C338 C 0.37002 0.08795 0.16069 0.0
C339 C 0.37236 0.10476 0.15295 0.0
C340 C 0.37863 0.10042 0.14539 0.0
C341 C 0.36817 0.09861 0.16083 0.0
C342 C 0.37628 0.08361 0.15308 0.0
C343 C 0.38849 0.08579 0.13836 0.0
O344 O 0.41085 0.06503 0.12963 0.0
O345 O 0.40105 0.06723 0.11608 0.0
O346 O 0.38495 0.08174 0.1298 0.0
O347 O 0.39585 0.08033 0.14262 0.0
H348 H 0.40549 0.08707 0.11911 0.0
H349 H 0.41729 0.10159 0.11783 0.0
H350 H 0.44258 0.08073 0.11263 0.0
H351 H 0.43066 0.06605 0.11393 0.0
H352 H 0.40266 0.02035 0.13856 0.0
H353 H 0.40182 0.03909 0.13917 0.0
H354 H 0.37006 0.01917 0.13201 0.0
H355 H 0.3692 0.0379 0.13308 0.0
H356 H 0.36683 0.08301 0.16659 0.0
H357 H 0.37123 0.11301 0.15291 0.0
H358 H 0.3821 0.10537 0.13965 0.0
H359 H 0.37787 0.07543 0.15328 0.0
C360 C 0.19746 0.18329 0.37641 0.0
C361 C 0.1889 0.17677 0.37533 0.0
C362 C 0.18003 0.18973 0.36518 0.0
C363 C 0.18032 0.17993 0.36974 0.0
C364 C 0.18862 0.19624 0.36618 0.0
C365 C 0.19729 0.19301 0.37172 0.0
U366 U 0.20654 0.1711 0.40093 0.0
O367 O 0.21824 0.15931 0.40402 0.0
O368 O 0.21933 0.17443 0.4115 0.0
C369 C 0.22387 0.16558 0.4096 0.0
C370 C 0.2062 0.18021 0.38297 0.0
C371 C 0.23482 0.16595 0.40674 0.0
C372 C 0.24963 0.17475 0.39943 0.0
C373 C 0.23931 0.17482 0.40251 0.0
C374 C 0.25104 0.15693 0.40471 0.0
C375 C 0.2556 0.16577 0.40043 0.0
C376 C 0.24079 0.15705 0.40788 0.0
C377 C 0.18459 0.1619 0.41889 0.0
C378 C 0.18046 0.14636 0.4285 0.0
C379 C 0.17246 0.16254 0.43309 0.0
C380 C 0.17799 0.16749 0.42533 0.0
C381 C 0.17334 0.15185 0.43451 0.0
C382 C 0.18603 0.15134 0.42075 0.0
C383 C 0.18883 0.16698 0.40966 0.0
O384 O 0.20708 0.18532 0.39166 0.0
O385 O 0.20746 0.17024 0.38409 0.0
O386 O 0.19314 0.16101 0.40272 0.0
O387 O 0.19377 0.17568 0.41111 0.0
H388 H 0.18872 0.1693 0.37902 0.0
H389 H 0.17375 0.17483 0.36931 0.0
H390 H 0.18859 0.20383 0.36276 0.0
H391 H 0.20378 0.19819 0.37252 0.0
H392 H 0.25291 0.18173 0.39629 0.0
H393 H 0.23485 0.18179 0.40149 0.0
H394 H 0.25531 0.14982 0.40541 0.0
H395 H 0.23744 0.1501 0.41105 0.0
H396 H 0.18127 0.13812 0.42935 0.0
H397 H 0.16717 0.16702 0.43771 0.0
H398 H 0.17675 0.17564 0.42406 0.0
H399 H 0.19109 0.14681 0.41593 0.0
C400 C 0.09192 0.93565 0.61477 0.0
C401 C 0.09569 0.92554 0.61511 0.0
C402 C 0.07836 0.91889 0.6132 0.0
C403 C 0.08897 0.91724 0.61432 0.0
C404 C 0.07465 0.92897 0.6121 0.0
C405 C 0.08141 0.93734 0.61294 0.0
U406 U 0.11455 0.943 0.63043 0.0
O407 O 0.12723 0.9541 0.62851 0.0
O408 O 0.11707 0.955 0.64201 0.0
C409 C 0.1245 0.95936 0.63671 0.0
C410 C 0.09861 0.9441 0.61818 0.0
C411 C 0.12385 0.9706 0.63544 0.0
C412 C 0.11445 0.98672 0.63673 0.0
C413 C 0.11462 0.97598 0.63712 0.0
C414 C 0.13262 0.98683 0.63257 0.0
C415 C 0.12349 0.99228 0.63461 0.0
C416 C 0.1328 0.97611 0.63304 0.0
C417 C 0.12743 0.92042 0.64433 0.0
C418 C 0.13794 0.92188 0.65972 0.0
C419 C 0.13616 0.90542 0.65115 0.0
C420 C 0.12986 0.90996 0.64373 0.0
C421 C 0.14011 0.91128 0.65934 0.0
C422 C 0.13167 0.92643 0.65225 0.0
C423 C 0.1199 0.92473 0.6371 0.0
O424 O 0.09804 0.9459 0.62811 0.0
O425 O 0.10814 0.94378 0.61476 0.0
O426 O 0.12363 0.92879 0.62863 0.0
O427 O 0.11257 0.93027 0.64131 0.0
H428 H 0.10375 0.92404 0.61666 0.0
H429 H 0.09199 0.90951 0.61519 0.0
H430 H 0.06647 0.93039 0.61133 0.0
H431 H 0.07836 0.94509 0.6128 0.0
H432 H 0.10731 0.99066 0.63842 0.0
H433 H 0.10758 0.97191 0.63895 0.0
H434 H 0.13967 0.99086 0.6307 0.0
H435 H 0.13999 0.97211 0.63168 0.0
H436 H 0.14095 0.92661 0.66588 0.0
H437 H 0.13756 0.89722 0.65071 0.0
H438 H 0.12662 0.90521 0.63769 0.0
H439 H 0.12989 0.93455 0.6528 0.0
C440 C 0.30972 0.81942 0.88249 0.0
C441 C 0.3179 0.81539 0.88829 0.0
C442 C 0.3283 0.81382 0.87282 0.0
C443 C 0.32706 0.81255 0.88349 0.0
C444 C 0.3199 0.81726 0.86694 0.0
C445 C 0.31067 0.82006 0.87176 0.0
U446 U 0.30084 0.83557 0.90447 0.0
O447 O 0.29076 0.84914 0.90509 0.0
O448 O 0.28717 0.83549 0.91441 0.0
C449 C 0.28401 0.8445 0.91102 0.0
C450 C 0.301 0.82441 0.88772 0.0
C451 C 0.27329 0.84503 0.90742 0.0
C452 C 0.25819 0.83718 0.89968 0.0
C453 C 0.2683 0.8364 0.90326 0.0
C454 C 0.25801 0.85525 0.90423 0.0
C455 C 0.25292 0.84663 0.9001 0.0
C456 C 0.26807 0.85444 0.90788 0.0
C457 C 0.32291 0.84377 0.92276 0.0
C458 C 0.32688 0.8598 0.93155 0.0
C459 C 0.33586 0.84416 0.9362 0.0
C460 C 0.3301 0.83869 0.92898 0.0
C461 C 0.33459 0.85484 0.93729 0.0
C462 C 0.32107 0.85431 0.92433 0.0
C463 C 0.31844 0.83818 0.91398 0.0
O464 O 0.2985 0.82066 0.89679 0.0
O465 O 0.30141 0.8345 0.88759 0.0
O466 O 0.31545 0.8438 0.90612 0.0
O467 O 0.31213 0.83056 0.91612 0.0
H468 H 0.31741 0.8149 0.89659 0.0
H469 H 0.33334 0.80975 0.88821 0.0
H470 H 0.32064 0.81838 0.85872 0.0
H471 H 0.30449 0.82326 0.86717 0.0
H472 H 0.25448 0.83036 0.89667 0.0
H473 H 0.27221 0.82906 0.90274 0.0
H474 H 0.25428 0.8627 0.90449 0.0
H475 H 0.27184 0.8612 0.91098 0.0
H476 H 0.32574 0.86803 0.93218 0.0
H477 H 0.34161 0.84008 0.94065 0.0
H478 H 0.33161 0.83056 0.92792 0.0
H479 H 0.31552 0.8584 0.91966 0.0
C480 C 0.41719 0.93376 0.39295 0.0
C481 C 0.4135 0.92365 0.39214 0.0
C482 C 0.43082 0.91703 0.39428 0.0
C483 C 0.42025 0.91536 0.39281 0.0
C484 C 0.43443 0.92709 0.39581 0.0
C485 C 0.42764 0.93544 0.39508 0.0
U486 U 0.39423 0.94156 0.37792 0.0
O487 O 0.38181 0.95287 0.38025 0.0
O488 O 0.39164 0.95368 0.36649 0.0
C489 C 0.38442 0.95813 0.37201 0.0
C490 C 0.41048 0.94229 0.3898 0.0
C491 C 0.38535 0.96934 0.37332 0.0
C492 C 0.39528 0.98517 0.37245 0.0
C493 C 0.3948 0.97444 0.37201 0.0
C494 C 0.37698 0.98582 0.37595 0.0
C495 C 0.38634 0.991 0.37428 0.0
C496 C 0.37649 0.97511 0.37543 0.0
C497 C 0.38078 0.91935 0.36398 0.0
C498 C 0.36999 0.92127 0.34883 0.0
C499 C 0.37233 0.90447 0.35657 0.0
C500 C 0.3786 0.90881 0.36413 0.0
C501 C 0.36814 0.91061 0.34869 0.0
C502 C 0.37625 0.92562 0.35644 0.0
C503 C 0.38847 0.92345 0.37116 0.0
O504 O 0.41082 0.94422 0.37988 0.0
O505 O 0.40103 0.94199 0.39345 0.0
O506 O 0.38492 0.92748 0.37973 0.0
O507 O 0.39581 0.92892 0.36689 0.0
H508 H 0.40549 0.92217 0.39036 0.0
H509 H 0.4173 0.90765 0.39163 0.0
H510 H 0.44257 0.92854 0.39687 0.0
H511 H 0.43063 0.9432 0.39559 0.0
H512 H 0.40259 0.98889 0.37104 0.0
H513 H 0.40177 0.97016 0.37042 0.0
H514 H 0.36999 0.99005 0.3776 0.0
H515 H 0.36914 0.97132 0.37651 0.0
H516 H 0.3668 0.92621 0.34293 0.0
H517 H 0.3712 0.89622 0.35662 0.0
H518 H 0.38207 0.90387 0.36987 0.0
H519 H 0.37784 0.9338 0.35623 0.0
C520 C 0.30971 0.1898 0.62703 0.0
C521 C 0.31788 0.19384 0.62124 0.0
C522 C 0.3283 0.19538 0.6367 0.0
C523 C 0.32705 0.19667 0.62604 0.0
C524 C 0.31989 0.19193 0.64258 0.0
C525 C 0.31067 0.18913 0.63777 0.0
U526 U 0.30082 0.17366 0.60504 0.0
O527 O 0.29074 0.16009 0.60441 0.0
O528 O 0.28715 0.17375 0.5951 0.0
C529 C 0.284 0.16474 0.59848 0.0
C530 C 0.30098 0.18481 0.6218 0.0
C531 C 0.27328 0.1642 0.60208 0.0
C532 C 0.25817 0.17205 0.60982 0.0
C533 C 0.26828 0.17283 0.60624 0.0
C534 C 0.25799 0.15398 0.60527 0.0
C535 C 0.2529 0.1626 0.6094 0.0
C536 C 0.26806 0.15479 0.60162 0.0
C537 C 0.3229 0.16549 0.58674 0.0
C538 C 0.32686 0.14946 0.57793 0.0
C539 C 0.33585 0.16511 0.57331 0.0
C540 C 0.33009 0.17057 0.58054 0.0
C541 C 0.33458 0.15443 0.5722 0.0
C542 C 0.32105 0.15495 0.58515 0.0
C543 C 0.31842 0.17107 0.59553 0.0
O544 O 0.29849 0.18857 0.61274 0.0
O545 O 0.3014 0.17471 0.62192 0.0
O546 O 0.31544 0.16544 0.60338 0.0
O547 O 0.31212 0.17869 0.5934 0.0
H548 H 0.3174 0.19433 0.61293 0.0
H549 H 0.33332 0.19947 0.62132 0.0
H550 H 0.32064 0.19081 0.6508 0.0
H551 H 0.30449 0.18593 0.64235 0.0
H552 H 0.25446 0.17887 0.61283 0.0
H553 H 0.2722 0.18017 0.60675 0.0
H554 H 0.25427 0.14653 0.60502 0.0
H555 H 0.27182 0.14803 0.59853 0.0
H556 H 0.32572 0.14124 0.57729 0.0
H557 H 0.34161 0.16919 0.56887 0.0
H558 H 0.3316 0.1787 0.58161 0.0
H559 H 0.3155 0.15085 0.58982 0.0
C560 C 0.09185 0.07358 0.89476 0.0
C561 C 0.09563 0.08369 0.89444 0.0
C562 C 0.07831 0.09036 0.89632 0.0
C563 C 0.08892 0.09199 0.89523 0.0
C564 C 0.07458 0.08027 0.8974 0.0
C565 C 0.08133 0.0719 0.89656 0.0
U566 U 0.11445 0.06623 0.87907 0.0
O567 O 0.12714 0.05514 0.88098 0.0
O568 O 0.11696 0.05423 0.86749 0.0
C569 C 0.1244 0.04988 0.87278 0.0
C570 C 0.09853 0.06513 0.89133 0.0
C571 C 0.12376 0.03864 0.87405 0.0
C572 C 0.11438 0.02251 0.87275 0.0
C573 C 0.11454 0.03325 0.87237 0.0
C574 C 0.13254 0.02241 0.87693 0.0
C575 C 0.12342 0.01695 0.87488 0.0
C576 C 0.13271 0.03314 0.87647 0.0
C577 C 0.12733 0.08881 0.86517 0.0
C578 C 0.13783 0.08736 0.84977 0.0
C579 C 0.13606 0.10382 0.85835 0.0
C580 C 0.12976 0.09928 0.86577 0.0
C581 C 0.14001 0.09796 0.85015 0.0
C582 C 0.13156 0.08281 0.85725 0.0
C583 C 0.1198 0.08451 0.8724 0.0
O584 O 0.09795 0.06333 0.88141 0.0
O585 O 0.10806 0.06545 0.89475 0.0
O586 O 0.12354 0.08045 0.88087 0.0
O587 O 0.11247 0.07896 0.86819 0.0
H588 H 0.10369 0.08518 0.89291 0.0
H589 H 0.09195 0.09972 0.89438 0.0
H590 H 0.0664 0.07886 0.89815 0.0
H591 H 0.07827 0.06415 0.89668 0.0
H592 H 0.10724 0.01855 0.87106 0.0
H593 H 0.1075 0.03731 0.87053 0.0
H594 H 0.1396 0.0184 0.8788 0.0
H595 H 0.1399 0.03714 0.87783 0.0
H596 H 0.14084 0.08263 0.84361 0.0
H597 H 0.13747 0.11202 0.85879 0.0
H598 H 0.12653 0.10402 0.87182 0.0
H599 H 0.12978 0.07469 0.85669 0.0
C600 C 0.19748 0.82598 0.13307 0.0
C601 C 0.18892 0.83249 0.13415 0.0
C602 C 0.18005 0.81954 0.1443 0.0
C603 C 0.18034 0.82933 0.13974 0.0
C604 C 0.18864 0.81303 0.1433 0.0
C605 C 0.19731 0.81625 0.13776 0.0
U606 U 0.20655 0.83816 0.10854 0.0
O607 O 0.21824 0.84996 0.10544 0.0
O608 O 0.21933 0.83483 0.09796 0.0
C609 C 0.22387 0.84369 0.09986 0.0
C610 C 0.20621 0.82905 0.1265 0.0
C611 C 0.23483 0.84332 0.10271 0.0
C612 C 0.24964 0.83452 0.11001 0.0
C613 C 0.23932 0.83445 0.10693 0.0
C614 C 0.25104 0.85235 0.10474 0.0
C615 C 0.25561 0.84351 0.10902 0.0
C616 C 0.24079 0.85222 0.10158 0.0
C617 C 0.18459 0.84736 0.09058 0.0
C618 C 0.18046 0.86289 0.08098 0.0
C619 C 0.17245 0.84671 0.07639 0.0
C620 C 0.17798 0.84176 0.08415 0.0
C621 C 0.17333 0.8574 0.07497 0.0
C622 C 0.18604 0.85792 0.08872 0.0
C623 C 0.18883 0.84228 0.09982 0.0
O624 O 0.20709 0.82395 0.11782 0.0
O625 O 0.20748 0.83903 0.12538 0.0
O626 O 0.19315 0.84825 0.10675 0.0
O627 O 0.19377 0.83358 0.09837 0.0
H628 H 0.18874 0.83997 0.13046 0.0
H629 H 0.17377 0.83444 0.14018 0.0
H630 H 0.18861 0.80543 0.14672 0.0
H631 H 0.20379 0.81108 0.13695 0.0
H632 H 0.25293 0.82754 0.11315 0.0
H633 H 0.23486 0.82748 0.10795 0.0
H634 H 0.25531 0.85946 0.10405 0.0
H635 H 0.23744 0.85917 0.09842 0.0
H636 H 0.18127 0.87114 0.08012 0.0
H637 H 0.16715 0.84224 0.07178 0.0
H638 H 0.17674 0.83362 0.08542 0.0
H639 H 0.1911 0.86245 0.09354 0.0
C640 C 0.11525 0.41744 0.0754 0.0
C641 C 0.11586 0.41374 0.08552 0.0
C642 C 0.11406 0.43111 0.0921 0.0
C643 C 0.11526 0.42052 0.09379 0.0
C644 C 0.1127 0.43474 0.08201 0.0
C645 C 0.11336 0.42793 0.07368 0.0
U646 U 0.13001 0.39426 0.06783 0.0
O647 O 0.12772 0.3819 0.05645 0.0
O648 O 0.14163 0.39153 0.05592 0.0
C649 C 0.13609 0.3844 0.05135 0.0
C650 C 0.1184 0.41068 0.06691 0.0
C651 C 0.135 0.38537 0.04012 0.0
C652 C 0.13624 0.39534 0.02434 0.0
C653 C 0.13648 0.39481 0.03508 0.0
C654 C 0.13262 0.37707 0.02357 0.0
C655 C 0.13444 0.38644 0.01845 0.0
C656 C 0.13295 0.37654 0.03429 0.0
C657 C 0.14343 0.38057 0.09018 0.0
C658 C 0.15823 0.36934 0.0882 0.0
C659 C 0.15089 0.37224 0.1051 0.0
C660 C 0.14342 0.37862 0.10077 0.0
C661 C 0.15852 0.36771 0.0989 0.0
C662 C 0.15071 0.37571 0.08387 0.0
C663 C 0.1364 0.38837 0.08604 0.0
O664 O 0.12835 0.41086 0.06513 0.0
O665 O 0.1146 0.40129 0.06715 0.0
O666 O 0.12785 0.38495 0.08186 0.0
O667 O 0.14084 0.39568 0.08067 0.0
H668 H 0.11745 0.4057 0.08703 0.0
H669 H 0.11632 0.41756 0.10152 0.0
H670 H 0.11186 0.4429 0.08055 0.0
H671 H 0.11301 0.43093 0.06591 0.0
H672 H 0.13776 0.40265 0.02066 0.0
H673 H 0.13804 0.40176 0.03941 0.0
H674 H 0.13099 0.37011 0.01929 0.0
H675 H 0.13174 0.36919 0.03803 0.0
H676 H 0.16394 0.36588 0.08322 0.0
H677 H 0.15097 0.37128 0.11337 0.0
H678 H 0.13787 0.38235 0.10574 0.0
H679 H 0.1508 0.37713 0.07565 0.0
C680 C 0.61524 0.0918 0.93409 0.0
C681 C 0.61584 0.0955 0.92396 0.0
C682 C 0.61404 0.07814 0.91738 0.0
C683 C 0.61525 0.08873 0.91569 0.0
C684 C 0.61269 0.0745 0.92747 0.0
C685 C 0.61335 0.08131 0.93581 0.0
U686 U 0.63001 0.11498 0.94166 0.0
O687 O 0.62771 0.12734 0.95304 0.0
O688 O 0.64162 0.11772 0.95357 0.0
C689 C 0.63609 0.12485 0.95814 0.0
C690 C 0.61839 0.09856 0.94258 0.0
C691 C 0.635 0.12388 0.96937 0.0
C692 C 0.63623 0.11391 0.98515 0.0
C693 C 0.63648 0.11443 0.97441 0.0
C694 C 0.63261 0.13217 0.98592 0.0
C695 C 0.63443 0.12281 0.99104 0.0
C696 C 0.63294 0.1327 0.9752 0.0
C697 C 0.64342 0.12867 0.91931 0.0
C698 C 0.65823 0.13991 0.92129 0.0
C699 C 0.65088 0.13701 0.90439 0.0
C700 C 0.64342 0.13062 0.90872 0.0
C701 C 0.65852 0.14154 0.91059 0.0
C702 C 0.65071 0.13353 0.92562 0.0
C703 C 0.63639 0.12087 0.92344 0.0
O704 O 0.62834 0.09838 0.94435 0.0
O705 O 0.61459 0.10795 0.94233 0.0
O706 O 0.62784 0.12429 0.92763 0.0
O707 O 0.64084 0.11356 0.92882 0.0
H708 H 0.61743 0.10355 0.92246 0.0
H709 H 0.6163 0.09169 0.90797 0.0
H710 H 0.61185 0.06634 0.92893 0.0
H711 H 0.613 0.07831 0.94358 0.0
H712 H 0.63775 0.1066 0.98883 0.0
H713 H 0.63804 0.10749 0.97008 0.0
H714 H 0.63099 0.13913 0.9902 0.0
H715 H 0.63174 0.14005 0.97145 0.0
H716 H 0.66394 0.14336 0.92627 0.0
H717 H 0.65097 0.13797 0.89611 0.0
H718 H 0.63787 0.12689 0.90375 0.0
H719 H 0.6508 0.13211 0.93384 0.0
C720 C 0.19083 0.38267 0.19887 0.0
C721 C 0.19477 0.3884 0.19061 0.0
C722 C 0.19624 0.37285 0.18031 0.0
C723 C 0.19752 0.38353 0.18146 0.0
C724 C 0.19289 0.36704 0.1888 0.0
C725 C 0.19018 0.37193 0.19802 0.0
U726 U 0.17473 0.40468 0.20777 0.0
O727 O 0.16128 0.40534 0.21801 0.0
O728 O 0.17496 0.41471 0.22137 0.0
C729 C 0.166 0.41131 0.22466 0.0
C730 C 0.18592 0.38795 0.2076 0.0
C731 C 0.16565 0.40774 0.23539 0.0
C732 C 0.17373 0.39988 0.25032 0.0
C733 C 0.17434 0.40346 0.24019 0.0
C734 C 0.15571 0.40463 0.25088 0.0
C735 C 0.16439 0.40039 0.25578 0.0
C736 C 0.15636 0.4083 0.24081 0.0
C737 C 0.16622 0.42284 0.18571 0.0
C738 C 0.15011 0.43157 0.18189 0.0
C739 C 0.16566 0.43627 0.17276 0.0
C740 C 0.17121 0.42907 0.17847 0.0
C741 C 0.15498 0.43733 0.17413 0.0
C742 C 0.15569 0.42438 0.18765 0.0
C743 C 0.17189 0.41408 0.19015 0.0
O744 O 0.18969 0.39705 0.20998 0.0
O745 O 0.17582 0.38781 0.2073 0.0
O746 O 0.16632 0.40623 0.19324 0.0
O747 O 0.17959 0.41627 0.19634 0.0
H748 H 0.19526 0.39671 0.19102 0.0
H749 H 0.20025 0.3882 0.17511 0.0
H750 H 0.19178 0.35881 0.18814 0.0
H751 H 0.18706 0.36739 0.20427 0.0
H752 H 0.18059 0.39678 0.25387 0.0
H753 H 0.18158 0.40287 0.23612 0.0
H754 H 0.14835 0.40497 0.25476 0.0
H755 H 0.14955 0.41147 0.23719 0.0
H756 H 0.14189 0.43218 0.18311 0.0
H757 H 0.16967 0.44073 0.16697 0.0
H758 H 0.17933 0.42803 0.17689 0.0
H759 H 0.15166 0.41969 0.19324 0.0
C760 C 0.89351 0.91665 0.43328 0.0
C761 C 0.8925 0.91328 0.42308 0.0
C762 C 0.89758 0.93016 0.4168 0.0
C763 C 0.89454 0.91994 0.41493 0.0
C764 C 0.89894 0.93341 0.42705 0.0
C765 C 0.8969 0.92669 0.43523 0.0
U766 U 0.87742 0.89423 0.44106 0.0
O767 O 0.87947 0.88173 0.45232 0.0
O768 O 0.86611 0.89206 0.4534 0.0
C769 C 0.87142 0.88461 0.45773 0.0
C770 C 0.88987 0.91005 0.4417 0.0
C771 C 0.87292 0.88529 0.46895 0.0
C772 C 0.87169 0.89461 0.48513 0.0
C773 C 0.87113 0.89447 0.47438 0.0
C774 C 0.87624 0.87654 0.48511 0.0
C775 C 0.87408 0.88559 0.49062 0.0
C776 C 0.87561 0.87639 0.47439 0.0
C777 C 0.86307 0.88075 0.41922 0.0
C778 C 0.84804 0.8699 0.42168 0.0
C779 C 0.85549 0.87188 0.40469 0.0
C780 C 0.86305 0.87833 0.40874 0.0
C781 C 0.84777 0.86776 0.41107 0.0
C782 C 0.85566 0.87634 0.42573 0.0
C783 C 0.87039 0.88843 0.42306 0.0
O784 O 0.87994 0.91078 0.44347 0.0
O785 O 0.89315 0.90048 0.44145 0.0
O786 O 0.87896 0.88483 0.42704 0.0
O787 O 0.86631 0.89592 0.42848 0.0
H788 H 0.88973 0.9056 0.42142 0.0
H789 H 0.89321 0.91723 0.40717 0.0
H790 H 0.90134 0.9412 0.42875 0.0
H791 H 0.89763 0.92944 0.44307 0.0
H792 H 0.86991 0.90169 0.48913 0.0
H793 H 0.86906 0.90147 0.47038 0.0
H794 H 0.87831 0.86951 0.48908 0.0
H795 H 0.87705 0.86924 0.47035 0.0
H796 H 0.84226 0.86678 0.42679 0.0
H797 H 0.85541 0.87053 0.39647 0.0
H798 H 0.8687 0.8817 0.40362 0.0
H799 H 0.8556 0.87811 0.43388 0.0
C800 C 0.81935 0.12788 0.19806 0.0
C801 C 0.81498 0.12197 0.19014 0.0
C802 C 0.81257 0.13735 0.17977 0.0
C803 C 0.81156 0.12667 0.18112 0.0
C804 C 0.81631 0.14334 0.18796 0.0
C805 C 0.81969 0.13862 0.19704 0.0
U806 U 0.83771 0.10727 0.20609 0.0
O807 O 0.85124 0.10758 0.21625 0.0
O808 O 0.83856 0.09684 0.21936 0.0
C809 C 0.84719 0.10093 0.2227 0.0
C810 C 0.82494 0.12283 0.20654 0.0
C811 C 0.84732 0.1041 0.23356 0.0
C812 C 0.83885 0.11118 0.24864 0.0
C813 C 0.83847 0.108 0.23838 0.0
C814 C 0.85695 0.10676 0.24932 0.0
C815 C 0.84811 0.11063 0.25424 0.0
C816 C 0.85654 0.1035 0.2391 0.0
C817 C 0.84778 0.0905 0.1838 0.0
C818 C 0.86437 0.0821 0.1818 0.0
C819 C 0.85017 0.07747 0.17065 0.0
C820 C 0.84386 0.08451 0.17575 0.0
C821 C 0.86055 0.07634 0.17348 0.0
C822 C 0.85802 0.0891 0.18696 0.0
C823 C 0.84127 0.09865 0.1882 0.0
O824 O 0.82212 0.11335 0.20873 0.0
O825 O 0.83497 0.12397 0.2061 0.0
O826 O 0.8461 0.10691 0.19147 0.0
O827 O 0.83382 0.09565 0.19435 0.0
H828 H 0.81468 0.11366 0.19067 0.0
H829 H 0.80854 0.12187 0.17502 0.0
H830 H 0.81722 0.15157 0.18712 0.0
H831 H 0.8231 0.14331 0.20303 0.0
H832 H 0.83188 0.11401 0.25221 0.0
H833 H 0.83128 0.1086 0.23421 0.0
H834 H 0.86426 0.10641 0.2533 0.0
H835 H 0.86346 0.10061 0.23547 0.0
H836 H 0.87231 0.08131 0.18422 0.0
H837 H 0.84703 0.07324 0.16419 0.0
H838 H 0.83599 0.08551 0.17318 0.0
H839 H 0.8612 0.0936 0.19321 0.0
C840 C 0.39349 0.5926 0.57621 0.0
C841 C 0.39249 0.59597 0.58641 0.0
C842 C 0.39757 0.57909 0.59269 0.0
C843 C 0.39452 0.5893 0.59456 0.0
C844 C 0.39892 0.57584 0.58244 0.0
C845 C 0.39688 0.58256 0.57426 0.0
U846 U 0.37741 0.61501 0.56842 0.0
O847 O 0.37947 0.62752 0.55716 0.0
O848 O 0.36611 0.61719 0.55608 0.0
C849 C 0.37142 0.62464 0.55175 0.0
C850 C 0.38985 0.5992 0.56779 0.0
C851 C 0.37292 0.62395 0.54053 0.0
C852 C 0.37169 0.61464 0.52435 0.0
C853 C 0.37113 0.61478 0.53509 0.0
C854 C 0.37625 0.63271 0.52437 0.0
C855 C 0.37409 0.62365 0.51886 0.0
C856 C 0.37562 0.63286 0.53509 0.0
C857 C 0.36306 0.6285 0.59025 0.0
C858 C 0.34804 0.63935 0.58779 0.0
C859 C 0.35548 0.63738 0.60478 0.0
C860 C 0.36305 0.63093 0.60073 0.0
C861 C 0.34776 0.6415 0.59839 0.0
C862 C 0.35566 0.63291 0.58374 0.0
C863 C 0.37039 0.62082 0.58641 0.0
O864 O 0.37993 0.59847 0.56602 0.0
O865 O 0.39315 0.60876 0.56804 0.0
O866 O 0.37896 0.62442 0.58244 0.0
O867 O 0.3663 0.61333 0.581 0.0
H868 H 0.38971 0.60365 0.58807 0.0
H869 H 0.39319 0.59202 0.60232 0.0
H870 H 0.40132 0.56805 0.58075 0.0
H871 H 0.39761 0.57981 0.56642 0.0
H872 H 0.36991 0.60756 0.52035 0.0
H873 H 0.36906 0.60777 0.5391 0.0
H874 H 0.37832 0.63973 0.5204 0.0
H875 H 0.37706 0.64 0.53913 0.0
H876 H 0.34226 0.64248 0.58267 0.0
H877 H 0.35541 0.63874 0.613 0.0
H878 H 0.36869 0.62756 0.60586 0.0
H879 H 0.3556 0.63114 0.57559 0.0
C880 C 0.1908 0.62662 0.3106 0.0
C881 C 0.19474 0.62089 0.31887 0.0
C882 C 0.19621 0.63644 0.32915 0.0
C883 C 0.19749 0.62576 0.32801 0.0
C884 C 0.19286 0.64225 0.32066 0.0
C885 C 0.19015 0.63736 0.31145 0.0
U886 U 0.17472 0.60458 0.3017 0.0
O887 O 0.16127 0.60391 0.29145 0.0
O888 O 0.17495 0.59455 0.28811 0.0
C889 C 0.166 0.59794 0.28481 0.0
C890 C 0.1859 0.62132 0.30186 0.0
C891 C 0.16565 0.60151 0.27407 0.0
C892 C 0.17373 0.60937 0.25915 0.0
C893 C 0.17433 0.60579 0.26927 0.0
C894 C 0.15571 0.60461 0.25858 0.0
C895 C 0.16439 0.60885 0.25369 0.0
C896 C 0.15635 0.60095 0.26866 0.0
C897 C 0.16621 0.58643 0.32376 0.0
C898 C 0.15011 0.57768 0.32758 0.0
C899 C 0.16566 0.57299 0.33671 0.0
C900 C 0.1712 0.5802 0.331 0.0
C901 C 0.15498 0.57193 0.33534 0.0
C902 C 0.15568 0.58488 0.32183 0.0
C903 C 0.17187 0.59519 0.31933 0.0
O904 O 0.18967 0.61223 0.29949 0.0
O905 O 0.1758 0.62146 0.30217 0.0
O906 O 0.1663 0.60303 0.31622 0.0
O907 O 0.17957 0.59301 0.31314 0.0
H908 H 0.19523 0.61258 0.31846 0.0
H909 H 0.20022 0.6211 0.33436 0.0
H910 H 0.19174 0.65048 0.32132 0.0
H911 H 0.18702 0.64189 0.30519 0.0
H912 H 0.18059 0.61248 0.2556 0.0
H913 H 0.18158 0.60639 0.27335 0.0
H914 H 0.14835 0.60427 0.2547 0.0
H915 H 0.14954 0.59777 0.27227 0.0
H916 H 0.14188 0.57708 0.32637 0.0
H917 H 0.16967 0.56854 0.3425 0.0
H918 H 0.17933 0.58124 0.33258 0.0
H919 H 0.15165 0.58957 0.31624 0.0
C920 C 0.31937 0.38132 0.81142 0.0
C921 C 0.31499 0.38723 0.81933 0.0
C922 C 0.31258 0.37186 0.82972 0.0
C923 C 0.31157 0.38254 0.82835 0.0
C924 C 0.31633 0.36587 0.82154 0.0
C925 C 0.31971 0.37058 0.81246 0.0
U926 U 0.33773 0.40192 0.8034 0.0
O927 O 0.35127 0.40162 0.79324 0.0
O928 O 0.33859 0.41236 0.79013 0.0
C929 C 0.34722 0.40827 0.78679 0.0
C930 C 0.32496 0.38637 0.80294 0.0
C931 C 0.34735 0.4051 0.77593 0.0
C932 C 0.33889 0.39801 0.76084 0.0
C933 C 0.33851 0.4012 0.77111 0.0
C934 C 0.35699 0.40244 0.76018 0.0
C935 C 0.34815 0.39857 0.75525 0.0
C936 C 0.35657 0.4057 0.7704 0.0
C937 C 0.34779 0.4187 0.82569 0.0
C938 C 0.36437 0.42712 0.82769 0.0
C939 C 0.35017 0.43173 0.83885 0.0
C940 C 0.34387 0.42469 0.83375 0.0
C941 C 0.36055 0.43288 0.83601 0.0
C942 C 0.35803 0.42012 0.82253 0.0
C943 C 0.34129 0.41055 0.82129 0.0
O944 O 0.32214 0.39584 0.80075 0.0
O945 O 0.33499 0.38523 0.80339 0.0
O946 O 0.34612 0.40229 0.81802 0.0
O947 O 0.33384 0.41354 0.81513 0.0
H948 H 0.31468 0.39554 0.8188 0.0
H949 H 0.30853 0.38734 0.83445 0.0
H950 H 0.31725 0.35764 0.82239 0.0
H951 H 0.32314 0.36589 0.80648 0.0
H952 H 0.33192 0.39518 0.75728 0.0
H953 H 0.33132 0.40059 0.77528 0.0
H954 H 0.3643 0.40279 0.75619 0.0
H955 H 0.3635 0.40859 0.77403 0.0
H956 H 0.37231 0.42793 0.82527 0.0
H957 H 0.34703 0.43596 0.8453 0.0
H958 H 0.336 0.42368 0.83631 0.0
H959 H 0.36121 0.41562 0.81628 0.0
C960 C 0.93557 0.89331 0.58873 0.0
C961 C 0.92574 0.89408 0.59315 0.0
C962 C 0.91803 0.89502 0.57617 0.0
C963 C 0.91706 0.89495 0.58692 0.0
C964 C 0.9279 0.89512 0.57176 0.0
C965 C 0.93664 0.89421 0.57802 0.0
U966 U 0.94309 0.87706 0.61085 0.0
O967 O 0.95462 0.86479 0.6125 0.0
O968 O 0.95471 0.87797 0.62309 0.0
C969 C 0.95943 0.86957 0.61999 0.0
C970 C 0.94414 0.88944 0.59502 0.0
C971 C 0.97063 0.87032 0.61884 0.0
C972 C 0.98595 0.8794 0.6132 0.0
C973 C 0.97523 0.87877 0.61396 0.0
C974 C 0.9875 0.863 0.62194 0.0
C975 C 0.9922 0.87153 0.61723 0.0
C976 C 0.97681 0.86241 0.62275 0.0
C977 C 0.92028 0.86432 0.62449 0.0
C978 C 0.92167 0.84919 0.63534 0.0
C979 C 0.90513 0.85746 0.63292 0.0
C980 C 0.90974 0.86483 0.62662 0.0
C981 C 0.911 0.84942 0.63717 0.0
C982 C 0.92628 0.8566 0.62905 0.0
C983 C 0.92468 0.8714 0.61688 0.0
O984 O 0.94447 0.89276 0.60459 0.0
O985 O 0.94543 0.87944 0.59428 0.0
O986 O 0.92967 0.86696 0.6093 0.0
O987 O 0.9294 0.87955 0.62055 0.0
H988 H 0.92469 0.89325 0.60138 0.0
H989 H 0.90952 0.8949 0.59049 0.0
H990 H 0.92882 0.8951 0.56348 0.0
H991 H 0.94414 0.89349 0.57447 0.0
H992 H 0.98935 0.88601 0.60944 0.0
H993 H 0.97055 0.88491 0.61081 0.0
H994 H 0.9921 0.85688 0.62525 0.0
H995 H 0.97337 0.85583 0.62653 0.0
H996 H 0.9264 0.84315 0.63859 0.0
H997 H 0.89688 0.85778 0.63406 0.0
H998 H 0.905 0.87073 0.62312 0.0
H999 H 0.93446 0.85614 0.6275 0.0
C1000 C 0.87818 0.19953 0.32343 0.0
C1001 C 0.87676 0.19137 0.33039 0.0
C1002 C 0.86778 0.18148 0.31731 0.0
C1003 C 0.87158 0.18248 0.32738 0.0
C1004 C 0.86905 0.1897 0.31038 0.0
C1005 C 0.87418 0.19867 0.31344 0.0
U1006 U 0.9025 0.20959 0.33526 0.0
O1007 O 0.91244 0.2228 0.33141 0.0
O1008 O 0.90556 0.2215 0.34679 0.0
C1009 C 0.91059 0.22736 0.34025 0.0
C1010 C 0.88449 0.20852 0.32632 0.0
C1011 C 0.90674 0.23795 0.3396 0.0
C1012 C 0.89232 0.24978 0.33883 0.0
C1013 C 0.89617 0.23978 0.33832 0.0
C1014 C 0.90962 0.25632 0.34129 0.0
C1015 C 0.89898 0.25813 0.34052 0.0
C1016 C 0.91347 0.24627 0.34089 0.0
C1017 C 0.92065 0.18769 0.34479 0.0
C1018 C 0.92999 0.18355 0.36049 0.0
C1019 C 0.93359 0.17423 0.34476 0.0
C1020 C 0.92639 0.18023 0.33953 0.0
C1021 C 0.93515 0.17554 0.35538 0.0
C1022 C 0.92277 0.18958 0.35523 0.0
C1023 C 0.91156 0.19211 0.33964 0.0
O1024 O 0.88564 0.21004 0.33626 0.0
O1025 O 0.89311 0.20958 0.32113 0.0
O1026 O 0.91308 0.19703 0.33092 0.0
O1027 O 0.90461 0.19644 0.34557 0.0
H1028 H 0.8799 0.19171 0.3381 0.0
H1029 H 0.8709 0.17622 0.33283 0.0
H1030 H 0.86618 0.18914 0.30258 0.0
H1031 H 0.87524 0.20484 0.30793 0.0
H1032 H 0.88411 0.25099 0.33811 0.0
H1033 H 0.89087 0.23344 0.33724 0.0
H1034 H 0.9149 0.26262 0.34264 0.0
H1035 H 0.92164 0.24497 0.34188 0.0
H1036 H 0.93102 0.18472 0.36867 0.0
H1037 H 0.93759 0.16823 0.34059 0.0
H1038 H 0.92488 0.17864 0.33149 0.0
H1039 H 0.91847 0.1953 0.35949 0.0
C1040 C 0.57433 0.11732 0.09086 0.0
C1041 C 0.58446 0.11773 0.09455 0.0
C1042 C 0.59101 0.11366 0.0775 0.0
C1043 C 0.59272 0.11589 0.08795 0.0
C1044 C 0.58081 0.11276 0.07395 0.0
C1045 C 0.57253 0.11461 0.08058 0.0
U1046 U 0.56689 0.13319 0.11347 0.0
O1047 O 0.55534 0.14542 0.11527 0.0
O1048 O 0.55507 0.13193 0.12548 0.0
C1049 C 0.5504 0.14042 0.12254 0.0
C1050 C 0.56592 0.12123 0.09731 0.0
C1051 C 0.53921 0.13973 0.12118 0.0
C1052 C 0.52393 0.13074 0.11526 0.0
C1053 C 0.53465 0.1313 0.1162 0.0
C1054 C 0.52232 0.14713 0.12399 0.0
C1055 C 0.51766 0.13863 0.11919 0.0
C1056 C 0.533 0.14766 0.12498 0.0
C1057 C 0.58926 0.14555 0.12796 0.0
C1058 C 0.58721 0.16012 0.13945 0.0
C1059 C 0.60406 0.15255 0.13689 0.0
C1060 C 0.59979 0.14531 0.13021 0.0
C1061 C 0.59785 0.16018 0.14141 0.0
C1062 C 0.58293 0.15284 0.13279 0.0
C1063 C 0.58517 0.13867 0.12002 0.0
O1064 O 0.56564 0.11767 0.10679 0.0
O1065 O 0.5648 0.13126 0.09681 0.0
O1066 O 0.58035 0.1433 0.11244 0.0
O1067 O 0.5804 0.1304 0.12333 0.0
H1068 H 0.58602 0.11999 0.10242 0.0
H1069 H 0.60044 0.11683 0.09092 0.0
H1070 H 0.57924 0.11095 0.06597 0.0
H1071 H 0.56475 0.11437 0.07759 0.0
H1072 H 0.52056 0.12414 0.11145 0.0
H1073 H 0.53935 0.12515 0.11313 0.0
H1074 H 0.5177 0.15326 0.12722 0.0
H1075 H 0.53641 0.15422 0.12883 0.0
H1076 H 0.58222 0.16584 0.14289 0.0
H1077 H 0.6123 0.15247 0.13811 0.0
H1078 H 0.60477 0.13974 0.12651 0.0
H1079 H 0.57476 0.15309 0.13114 0.0
C1080 C 0.63164 0.81176 0.82552 0.0
C1081 C 0.63351 0.82002 0.83223 0.0
C1082 C 0.64273 0.82915 0.81876 0.0
C1083 C 0.63904 0.82858 0.8289 0.0
C1084 C 0.64094 0.82085 0.81205 0.0
C1085 C 0.63548 0.8122 0.81543 0.0
U1086 U 0.60781 0.80256 0.83905 0.0
O1087 O 0.59714 0.78979 0.83579 0.0
O1088 O 0.60521 0.79055 0.85061 0.0
C1089 C 0.59948 0.78501 0.8444 0.0
C1090 C 0.62516 0.80305 0.82882 0.0
C1091 C 0.60284 0.77428 0.8433 0.0
C1092 C 0.61658 0.76192 0.84067 0.0
C1093 C 0.61308 0.77207 0.8407 0.0
C1094 C 0.5995 0.75602 0.84529 0.0
C1095 C 0.60987 0.75381 0.84314 0.0
C1096 C 0.59602 0.76621 0.84542 0.0
C1097 C 0.59085 0.8245 0.85013 0.0
C1098 C 0.58177 0.82728 0.86626 0.0
C1099 C 0.57743 0.83745 0.85126 0.0
C1100 C 0.5848 0.83215 0.84553 0.0
C1101 C 0.576 0.83525 0.86176 0.0
C1102 C 0.58911 0.82193 0.86049 0.0
C1103 C 0.59959 0.82022 0.84429 0.0
O1104 O 0.62467 0.80152 0.83881 0.0
O1105 O 0.61615 0.80243 0.82426 0.0
O1106 O 0.59742 0.81553 0.83559 0.0
O1107 O 0.60684 0.81563 0.84965 0.0
H1108 H 0.6305 0.81999 0.84 0.0
H1109 H 0.6401 0.83493 0.83419 0.0
H1110 H 0.6437 0.8211 0.80419 0.0
H1111 H 0.63406 0.80594 0.81011 0.0
H1112 H 0.62458 0.76042 0.83886 0.0
H1113 H 0.61844 0.77823 0.83898 0.0
H1114 H 0.59418 0.74992 0.84728 0.0
H1115 H 0.58809 0.7678 0.84743 0.0
H1116 H 0.58075 0.82533 0.8743 0.0
H1117 H 0.57321 0.84363 0.84759 0.0
H1118 H 0.58606 0.83432 0.83758 0.0
H1119 H 0.59365 0.81603 0.86424 0.0
C1120 C 0.93557 0.11598 0.92065 0.0
C1121 C 0.92573 0.11522 0.91625 0.0
C1122 C 0.91806 0.11428 0.93325 0.0
C1123 C 0.91707 0.11436 0.9225 0.0
C1124 C 0.92794 0.11417 0.93763 0.0
C1125 C 0.93667 0.11507 0.93135 0.0
U1126 U 0.94308 0.13219 0.89849 0.0
O1127 O 0.9546 0.14446 0.89682 0.0
O1128 O 0.95468 0.13127 0.88624 0.0
C1129 C 0.95941 0.13967 0.88933 0.0
C1130 C 0.94414 0.11984 0.91434 0.0
C1131 C 0.97061 0.13892 0.89048 0.0
C1132 C 0.98592 0.12985 0.89615 0.0
C1133 C 0.97521 0.13047 0.89538 0.0
C1134 C 0.98749 0.14624 0.88738 0.0
C1135 C 0.99218 0.13771 0.89211 0.0
C1136 C 0.9768 0.14682 0.88657 0.0
C1137 C 0.92026 0.14492 0.88486 0.0
C1138 C 0.92165 0.16005 0.874 0.0
C1139 C 0.90511 0.15179 0.87643 0.0
C1140 C 0.90972 0.14441 0.88274 0.0
C1141 C 0.91097 0.15983 0.87218 0.0
C1142 C 0.92626 0.15264 0.88029 0.0
C1143 C 0.92466 0.13785 0.89248 0.0
O1144 O 0.94445 0.1165 0.90478 0.0
O1145 O 0.94543 0.12983 0.91507 0.0
O1146 O 0.92966 0.14229 0.90005 0.0
O1147 O 0.92937 0.1297 0.88881 0.0
H1148 H 0.92466 0.11605 0.90802 0.0
H1149 H 0.90952 0.11442 0.91895 0.0
H1150 H 0.92888 0.1142 0.94592 0.0
H1151 H 0.94418 0.11579 0.93489 0.0
H1152 H 0.98932 0.12323 0.89991 0.0
H1153 H 0.97052 0.12434 0.89853 0.0
H1154 H 0.99209 0.15234 0.88408 0.0
H1155 H 0.97336 0.1534 0.88278 0.0
H1156 H 0.92638 0.16609 0.87075 0.0
H1157 H 0.89686 0.15146 0.8753 0.0
H1158 H 0.90498 0.13852 0.88624 0.0
H1159 H 0.93444 0.15311 0.88184 0.0
C1160 C 0.63164 0.19749 0.68398 0.0
C1161 C 0.6335 0.18923 0.67727 0.0
C1162 C 0.64273 0.18011 0.69074 0.0
C1163 C 0.63903 0.18067 0.6806 0.0
C1164 C 0.64094 0.1884 0.69745 0.0
C1165 C 0.63547 0.19706 0.69407 0.0
U1166 U 0.60781 0.20668 0.67045 0.0
O1167 O 0.59713 0.21945 0.6737 0.0
O1168 O 0.60521 0.21869 0.65889 0.0
C1169 C 0.59947 0.22424 0.6651 0.0
C1170 C 0.62515 0.2062 0.68068 0.0
C1171 C 0.60284 0.23496 0.6662 0.0
C1172 C 0.61658 0.24732 0.66884 0.0
C1173 C 0.61308 0.23717 0.6688 0.0
C1174 C 0.5995 0.25322 0.6642 0.0
C1175 C 0.60987 0.25543 0.66636 0.0
C1176 C 0.59602 0.24303 0.66408 0.0
C1177 C 0.59085 0.18474 0.65936 0.0
C1178 C 0.58177 0.18196 0.64322 0.0
C1179 C 0.57743 0.17179 0.65822 0.0
C1180 C 0.5848 0.17709 0.66396 0.0
C1181 C 0.576 0.17399 0.64772 0.0
C1182 C 0.58912 0.18732 0.64899 0.0
C1183 C 0.59959 0.18902 0.66521 0.0
O1184 O 0.62467 0.20773 0.67069 0.0
O1185 O 0.61614 0.20682 0.68523 0.0
O1186 O 0.59742 0.19371 0.6739 0.0
O1187 O 0.60683 0.19361 0.65985 0.0
H1188 H 0.63049 0.18925 0.6695 0.0
H1189 H 0.64009 0.17432 0.67531 0.0
H1190 H 0.6437 0.18816 0.7053 0.0
H1191 H 0.63406 0.20331 0.69939 0.0
H1192 H 0.62458 0.24882 0.67065 0.0
H1193 H 0.61843 0.23102 0.67052 0.0
H1194 H 0.59419 0.25932 0.66221 0.0
H1195 H 0.58809 0.24144 0.66206 0.0
H1196 H 0.58076 0.18391 0.63518 0.0
H1197 H 0.5732 0.16561 0.66189 0.0
H1198 H 0.58606 0.17492 0.67191 0.0
H1199 H 0.59365 0.19322 0.64524 0.0
C1200 C 0.57435 0.89192 0.41863 0.0
C1201 C 0.58449 0.89152 0.41494 0.0
C1202 C 0.59104 0.89558 0.43199 0.0
C1203 C 0.59274 0.89335 0.42154 0.0
C1204 C 0.58083 0.89648 0.43554 0.0
C1205 C 0.57255 0.89463 0.4289 0.0
U1206 U 0.56691 0.87606 0.39601 0.0
O1207 O 0.55535 0.86384 0.3942 0.0
O1208 O 0.55508 0.87732 0.384 0.0
C1209 C 0.55041 0.86884 0.38694 0.0
C1210 C 0.56594 0.88802 0.41217 0.0
C1211 C 0.53922 0.86954 0.3883 0.0
C1212 C 0.52395 0.87853 0.39422 0.0
C1213 C 0.53466 0.87796 0.39327 0.0
C1214 C 0.52233 0.86214 0.38549 0.0
C1215 C 0.51767 0.87064 0.39029 0.0
C1216 C 0.53301 0.86161 0.3845 0.0
C1217 C 0.58927 0.86369 0.38152 0.0
C1218 C 0.5872 0.84913 0.37002 0.0
C1219 C 0.60406 0.8567 0.37258 0.0
C1220 C 0.59979 0.86394 0.37927 0.0
C1221 C 0.59785 0.84907 0.36807 0.0
C1222 C 0.58294 0.85641 0.37669 0.0
C1223 C 0.58518 0.87058 0.38946 0.0
O1224 O 0.56567 0.89158 0.4027 0.0
O1225 O 0.56481 0.87799 0.41267 0.0
O1226 O 0.58036 0.86594 0.39704 0.0
O1227 O 0.58042 0.87885 0.38615 0.0
H1228 H 0.58604 0.88926 0.40707 0.0
H1229 H 0.60047 0.89241 0.41857 0.0
H1230 H 0.57926 0.89829 0.44352 0.0
H1231 H 0.56477 0.89488 0.4319 0.0
H1232 H 0.52058 0.88513 0.39803 0.0
H1233 H 0.53937 0.88412 0.39635 0.0
H1234 H 0.5177 0.85601 0.38226 0.0
H1235 H 0.53641 0.85505 0.38065 0.0
H1236 H 0.58222 0.8434 0.36658 0.0
H1237 H 0.6123 0.85678 0.37136 0.0
H1238 H 0.60478 0.8695 0.38296 0.0
H1239 H 0.57477 0.85615 0.37834 0.0
C1240 C 0.87818 0.80972 0.18605 0.0
C1241 C 0.87676 0.81787 0.17909 0.0
C1242 C 0.86778 0.82776 0.19217 0.0
C1243 C 0.87157 0.82676 0.18211 0.0
C1244 C 0.86905 0.81955 0.1991 0.0
C1245 C 0.87417 0.81057 0.19605 0.0
U1246 U 0.90251 0.79967 0.17424 0.0
O1247 O 0.91244 0.78646 0.17808 0.0
O1248 O 0.90557 0.78776 0.16271 0.0
C1249 C 0.91059 0.7819 0.16924 0.0
C1250 C 0.88449 0.80073 0.18317 0.0
C1251 C 0.90674 0.77131 0.16989 0.0
C1252 C 0.89233 0.75947 0.17066 0.0
C1253 C 0.89618 0.76947 0.17117 0.0
C1254 C 0.90963 0.75294 0.16821 0.0
C1255 C 0.89899 0.75113 0.16898 0.0
C1256 C 0.91347 0.76299 0.16861 0.0
C1257 C 0.92065 0.82157 0.1647 0.0
C1258 C 0.92999 0.82572 0.14901 0.0
C1259 C 0.93359 0.83503 0.16474 0.0
C1260 C 0.92638 0.82903 0.16996 0.0
C1261 C 0.93515 0.83373 0.15411 0.0
C1262 C 0.92277 0.81969 0.15426 0.0
C1263 C 0.91156 0.81714 0.16985 0.0
O1264 O 0.88565 0.79921 0.17323 0.0
O1265 O 0.8931 0.79968 0.18836 0.0
O1266 O 0.91308 0.81223 0.17857 0.0
O1267 O 0.90461 0.81281 0.16392 0.0
H1268 H 0.8799 0.81753 0.17138 0.0
H1269 H 0.8709 0.83302 0.17665 0.0
H1270 H 0.86618 0.82011 0.20691 0.0
H1271 H 0.87524 0.80441 0.20155 0.0
H1272 H 0.88412 0.75826 0.17138 0.0
H1273 H 0.89088 0.77581 0.17225 0.0
H1274 H 0.91491 0.74664 0.16685 0.0
H1275 H 0.92165 0.76429 0.16762 0.0
H1276 H 0.93102 0.82455 0.14082 0.0
H1277 H 0.93759 0.84104 0.16891 0.0
H1278 H 0.92488 0.83063 0.17801 0.0
H1279 H 0.91847 0.81396 0.15001 0.0
C1280 C 0.59062 0.93495 0.8927 0.0
C1281 C 0.59432 0.92482 0.8924 0.0
C1282 C 0.57725 0.91827 0.89638 0.0
C1283 C 0.58772 0.91657 0.89425 0.0
C1284 C 0.57368 0.92847 0.89718 0.0
C1285 C 0.58032 0.93675 0.89532 0.0
U1286 U 0.61308 0.94223 0.87658 0.0
O1287 O 0.61484 0.95376 0.86431 0.0
O1288 O 0.62521 0.95396 0.87767 0.0
C1289 C 0.62221 0.95864 0.86921 0.0
C1290 C 0.59708 0.94333 0.88873 0.0
C1291 C 0.62094 0.96983 0.86993 0.0
C1292 C 0.61499 0.98511 0.87888 0.0
C1293 C 0.61589 0.9744 0.8783 0.0
C1294 C 0.62394 0.98671 0.86259 0.0
C1295 C 0.61905 0.99138 0.87104 0.0
C1296 C 0.62488 0.97604 0.86206 0.0
C1297 C 0.62718 0.91971 0.86404 0.0
C1298 C 0.63829 0.92152 0.84914 0.0
C1299 C 0.63594 0.9048 0.85707 0.0
C1300 C 0.62944 0.90919 0.86441 0.0
C1301 C 0.64024 0.91087 0.84921 0.0
C1302 C 0.63182 0.92591 0.85652 0.0
C1303 C 0.61939 0.9239 0.87103 0.0
O1304 O 0.6066 0.94354 0.89218 0.0
O1305 O 0.59647 0.94447 0.87871 0.0
O1306 O 0.61179 0.92878 0.8665 0.0
O1307 O 0.62287 0.92865 0.87925 0.0
H1308 H 0.60221 0.92325 0.89021 0.0
H1309 H 0.59071 0.90884 0.89338 0.0
H1310 H 0.56568 0.93005 0.89891 0.0
H1311 H 0.57732 0.94452 0.89548 0.0
H1312 H 0.61111 0.98849 0.88543 0.0
H1313 H 0.61271 0.9697 0.88441 0.0
H1314 H 0.62727 0.99133 0.8565 0.0
H1315 H 0.62878 0.97262 0.85553 0.0
H1316 H 0.64157 0.9264 0.84323 0.0
H1317 H 0.63717 0.89656 0.85726 0.0
H1318 H 0.6259 0.9043 0.87016 0.0
H1319 H 0.63017 0.93407 0.85617 0.0
C1320 C 0.8101 0.82406 0.63032 0.0
C1321 C 0.81825 0.83105 0.63159 0.0
C1322 C 0.82812 0.81821 0.64095 0.0
C1323 C 0.82712 0.82818 0.63689 0.0
C1324 C 0.81992 0.81124 0.63981 0.0
C1325 C 0.81096 0.81416 0.63457 0.0
U1326 U 0.79997 0.8355 0.60582 0.0
O1327 O 0.78679 0.83141 0.59595 0.0
O1328 O 0.78794 0.84688 0.60263 0.0
C1329 C 0.78214 0.84022 0.5977 0.0
C1330 C 0.80111 0.8268 0.62395 0.0
C1331 C 0.77156 0.83951 0.60159 0.0
C1332 C 0.7598 0.8387 0.61606 0.0
C1333 C 0.76979 0.83823 0.61216 0.0
C1334 C 0.75317 0.84111 0.59879 0.0
C1335 C 0.75141 0.84035 0.60944 0.0
C1336 C 0.7632 0.84075 0.5949 0.0
C1337 C 0.82174 0.84502 0.58752 0.0
C1338 C 0.82575 0.86063 0.57798 0.0
C1339 C 0.83508 0.8449 0.57445 0.0
C1340 C 0.82917 0.83973 0.58177 0.0
C1341 C 0.83373 0.8555 0.57279 0.0
C1342 C 0.81981 0.85543 0.58531 0.0
C1343 C 0.8174 0.83994 0.59669 0.0
O1344 O 0.79952 0.8367 0.62267 0.0
O1345 O 0.80012 0.82149 0.6154 0.0
O1346 O 0.81257 0.83116 0.5953 0.0
O1347 O 0.81302 0.84591 0.60357 0.0
H1348 H 0.81791 0.83868 0.62826 0.0
H1349 H 0.83337 0.83366 0.63746 0.0
H1350 H 0.82048 0.80351 0.64287 0.0
H1351 H 0.8048 0.80863 0.63362 0.0
H1352 H 0.75863 0.83799 0.62428 0.0
H1353 H 0.77616 0.83719 0.61744 0.0
H1354 H 0.74683 0.84244 0.59354 0.0
H1355 H 0.76446 0.84174 0.58672 0.0
H1356 H 0.82454 0.8688 0.57688 0.0
H1357 H 0.84106 0.84071 0.57043 0.0
H1358 H 0.83081 0.83171 0.58334 0.0
H1359 H 0.8141 0.85971 0.58962 0.0
C1360 C 0.91818 0.07353 0.39284 0.0
C1361 C 0.91379 0.08337 0.39353 0.0
C1362 C 0.93079 0.09102 0.39462 0.0
C1363 C 0.92004 0.09203 0.39444 0.0
C1364 C 0.93516 0.08114 0.39479 0.0
C1365 C 0.92888 0.07242 0.39385 0.0
U1366 U 0.8962 0.06598 0.3764 0.0
O1367 O 0.89466 0.05445 0.36414 0.0
O1368 O 0.88397 0.05433 0.37725 0.0
C1369 C 0.88716 0.04961 0.36888 0.0
C1370 C 0.9119 0.06496 0.38895 0.0
C1371 C 0.88842 0.03843 0.36968 0.0
C1372 C 0.89465 0.02324 0.37859 0.0
C1373 C 0.89355 0.03393 0.37804 0.0
C1374 C 0.88567 0.02151 0.36233 0.0
C1375 C 0.89073 0.01692 0.37073 0.0
C1376 C 0.88453 0.03217 0.36183 0.0
C1377 C 0.88285 0.08881 0.36335 0.0
C1378 C 0.87245 0.08755 0.34788 0.0
C1379 C 0.87461 0.10401 0.35636 0.0
C1380 C 0.88068 0.09934 0.36388 0.0
C1381 C 0.87061 0.09822 0.34814 0.0
C1382 C 0.87851 0.08288 0.35544 0.0
C1383 C 0.8903 0.08438 0.37057 0.0
O1384 O 0.9023 0.06468 0.39218 0.0
O1385 O 0.91274 0.06362 0.37897 0.0
O1386 O 0.89794 0.07935 0.36627 0.0
O1387 O 0.88647 0.0797 0.37867 0.0
H1388 H 0.90558 0.08445 0.39263 0.0
H1389 H 0.9165 0.09957 0.39434 0.0
H1390 H 0.94344 0.08019 0.39485 0.0
H1391 H 0.93241 0.06491 0.39318 0.0
H1392 H 0.89866 0.01992 0.38511 0.0
H1393 H 0.89669 0.03868 0.38413 0.0
H1394 H 0.88245 0.01684 0.35623 0.0
H1395 H 0.88056 0.03553 0.35531 0.0
H1396 H 0.8694 0.08287 0.3417 0.0
H1397 H 0.87346 0.11226 0.35672 0.0
H1398 H 0.88401 0.10403 0.36992 0.0
H1399 H 0.8801 0.07471 0.35494 0.0
C1400 C 0.69627 0.18544 0.13198 0.0
C1401 C 0.6881 0.17859 0.13374 0.0
C1402 C 0.6789 0.1917 0.14339 0.0
C1403 C 0.67955 0.18167 0.13943 0.0
C1404 C 0.68709 0.19856 0.14167 0.0
C1405 C 0.69574 0.19543 0.13605 0.0
U1406 U 0.70564 0.17242 0.10793 0.0
O1407 O 0.71847 0.17598 0.09739 0.0
O1408 O 0.71772 0.161 0.10516 0.0
C1409 C 0.72328 0.16735 0.0996 0.0
C1410 C 0.705 0.18239 0.12542 0.0
C1411 C 0.73398 0.16842 0.10306 0.0
C1412 C 0.74627 0.1699 0.11703 0.0
C1413 C 0.73614 0.17012 0.1135 0.0
C1414 C 0.75229 0.16695 0.09963 0.0
C1415 C 0.75442 0.16811 0.11017 0.0
C1416 C 0.74211 0.16704 0.09611 0.0
C1417 C 0.68395 0.16108 0.09085 0.0
C1418 C 0.68158 0.14491 0.08173 0.0
C1419 C 0.67102 0.15965 0.07743 0.0
C1420 C 0.67618 0.1655 0.08481 0.0
C1421 C 0.67348 0.14922 0.07599 0.0
C1422 C 0.6868 0.1508 0.08908 0.0
C1423 C 0.68807 0.16699 0.09962 0.0
O1424 O 0.70669 0.17243 0.12478 0.0
O1425 O 0.70553 0.18708 0.11647 0.0
O1426 O 0.69265 0.17576 0.0975 0.0
O1427 O 0.69269 0.16168 0.10688 0.0
H1428 H 0.68819 0.1709 0.13055 0.0
H1429 H 0.67327 0.17628 0.14043 0.0
H1430 H 0.68678 0.20634 0.14463 0.0
H1431 H 0.70193 0.20085 0.13472 0.0
H1432 H 0.74773 0.17092 0.12518 0.0
H1433 H 0.72995 0.17127 0.11897 0.0
H1434 H 0.75844 0.1655 0.0942 0.0
H1435 H 0.74057 0.16573 0.08802 0.0
H1436 H 0.68372 0.13693 0.0807 0.0
H1437 H 0.66474 0.16316 0.07323 0.0
H1438 H 0.67381 0.17339 0.0861 0.0
H1439 H 0.6928 0.14719 0.0936 0.0
C1440 C 0.59061 0.0743 0.61679 0.0
C1441 C 0.59431 0.08443 0.61709 0.0
C1442 C 0.57724 0.09097 0.6131 0.0
C1443 C 0.58771 0.09268 0.61524 0.0
C1444 C 0.57367 0.08077 0.6123 0.0
C1445 C 0.58031 0.07249 0.61416 0.0
U1446 U 0.61307 0.06701 0.63292 0.0
O1447 O 0.61482 0.05549 0.64518 0.0
O1448 O 0.6252 0.0553 0.63182 0.0
C1449 C 0.62219 0.05061 0.64028 0.0
C1450 C 0.59707 0.06592 0.62076 0.0
C1451 C 0.62092 0.03942 0.63957 0.0
C1452 C 0.61498 0.02414 0.63061 0.0
C1453 C 0.61588 0.03485 0.63119 0.0
C1454 C 0.62392 0.02254 0.6469 0.0
C1455 C 0.61904 0.01787 0.63845 0.0
C1456 C 0.62486 0.03322 0.64744 0.0
C1457 C 0.62717 0.08955 0.64546 0.0
C1458 C 0.63828 0.08774 0.66036 0.0
C1459 C 0.63592 0.10445 0.65243 0.0
C1460 C 0.62943 0.10006 0.64509 0.0
C1461 C 0.64023 0.09839 0.66029 0.0
C1462 C 0.6318 0.08334 0.65298 0.0
C1463 C 0.61937 0.08535 0.63847 0.0
O1464 O 0.60659 0.0657 0.61731 0.0
O1465 O 0.59646 0.06477 0.63078 0.0
O1466 O 0.61178 0.08046 0.643 0.0
O1467 O 0.62285 0.08061 0.63025 0.0
H1468 H 0.6022 0.08599 0.61929 0.0
H1469 H 0.5907 0.1004 0.6161 0.0
H1470 H 0.56568 0.07919 0.61057 0.0
H1471 H 0.5773 0.06472 0.614 0.0
H1472 H 0.6111 0.02076 0.62406 0.0
H1473 H 0.6127 0.03955 0.62508 0.0
H1474 H 0.62725 0.01792 0.65299 0.0
H1475 H 0.62876 0.03663 0.65397 0.0
H1476 H 0.64156 0.08286 0.66626 0.0
H1477 H 0.63716 0.11269 0.65224 0.0
H1478 H 0.62588 0.10495 0.63934 0.0
H1479 H 0.63015 0.07518 0.65333 0.0
C1480 C 0.69625 0.82381 0.3775 0.0
C1481 C 0.68808 0.83066 0.37574 0.0
C1482 C 0.67888 0.81756 0.36609 0.0
C1483 C 0.67953 0.82759 0.37005 0.0
C1484 C 0.68707 0.8107 0.3678 0.0
C1485 C 0.69572 0.81383 0.37343 0.0
U1486 U 0.70563 0.83683 0.40155 0.0
O1487 O 0.71846 0.83327 0.41209 0.0
O1488 O 0.71772 0.84825 0.40432 0.0
C1489 C 0.72327 0.84189 0.40988 0.0
C1490 C 0.70499 0.82687 0.38406 0.0
C1491 C 0.73397 0.84083 0.40642 0.0
C1492 C 0.74625 0.83934 0.39244 0.0
C1493 C 0.73612 0.83912 0.39598 0.0
C1494 C 0.75228 0.8423 0.40984 0.0
C1495 C 0.75441 0.84114 0.3993 0.0
C1496 C 0.7421 0.8422 0.41337 0.0
C1497 C 0.68395 0.84816 0.41864 0.0
C1498 C 0.68159 0.86433 0.42776 0.0
C1499 C 0.67102 0.8496 0.43205 0.0
C1500 C 0.67618 0.84375 0.42467 0.0
C1501 C 0.67349 0.86003 0.4335 0.0
C1502 C 0.6868 0.85845 0.42041 0.0
C1503 C 0.68806 0.84226 0.40986 0.0
O1504 O 0.70667 0.83682 0.3847 0.0
O1505 O 0.70551 0.82218 0.39301 0.0
O1506 O 0.69264 0.83349 0.41198 0.0
O1507 O 0.69269 0.84758 0.40261 0.0
H1508 H 0.68818 0.83836 0.37893 0.0
H1509 H 0.67325 0.83298 0.36905 0.0
H1510 H 0.68676 0.80292 0.36484 0.0
H1511 H 0.70191 0.8084 0.37476 0.0
H1512 H 0.74771 0.83832 0.38429 0.0
H1513 H 0.72993 0.83797 0.39051 0.0
H1514 H 0.75844 0.84375 0.41526 0.0
H1515 H 0.74057 0.84352 0.42145 0.0
H1516 H 0.68374 0.87232 0.42879 0.0
H1517 H 0.66474 0.84609 0.43626 0.0
H1518 H 0.6738 0.83586 0.42339 0.0
H1519 H 0.6928 0.86206 0.41589 0.0
C1520 C 0.9182 0.93573 0.11665 0.0
C1521 C 0.91381 0.92589 0.11596 0.0
C1522 C 0.93081 0.91825 0.11488 0.0
C1523 C 0.92006 0.91723 0.11505 0.0
C1524 C 0.93518 0.92813 0.11471 0.0
C1525 C 0.9289 0.93684 0.11565 0.0
U1526 U 0.89621 0.94327 0.13308 0.0
O1527 O 0.89467 0.9548 0.14534 0.0
O1528 O 0.88398 0.95491 0.13223 0.0
C1529 C 0.88716 0.95964 0.1406 0.0
C1530 C 0.91191 0.9443 0.12054 0.0
C1531 C 0.88842 0.97082 0.1398 0.0
C1532 C 0.89465 0.98601 0.13089 0.0
C1533 C 0.89355 0.97532 0.13143 0.0
C1534 C 0.88567 0.98774 0.14714 0.0
C1535 C 0.89072 0.99233 0.13875 0.0
C1536 C 0.88452 0.97708 0.14765 0.0
C1537 C 0.88286 0.92044 0.14613 0.0
C1538 C 0.87246 0.92169 0.1616 0.0
C1539 C 0.87462 0.90523 0.15312 0.0
C1540 C 0.88069 0.9099 0.14559 0.0
C1541 C 0.87062 0.91102 0.16134 0.0
C1542 C 0.87852 0.92637 0.15404 0.0
C1543 C 0.89031 0.92487 0.13891 0.0
O1544 O 0.90232 0.94457 0.11731 0.0
O1545 O 0.91276 0.94564 0.13052 0.0
O1546 O 0.89795 0.92991 0.14321 0.0
O1547 O 0.88649 0.92955 0.13081 0.0
H1548 H 0.9056 0.92481 0.11686 0.0
H1549 H 0.91652 0.90969 0.11515 0.0
H1550 H 0.94346 0.92908 0.11465 0.0
H1551 H 0.93243 0.94436 0.11631 0.0
H1552 H 0.89866 0.98933 0.12438 0.0
H1553 H 0.8967 0.97058 0.12535 0.0
H1554 H 0.88244 0.99241 0.15324 0.0
H1555 H 0.88056 0.97371 0.15417 0.0
H1556 H 0.8694 0.92637 0.16778 0.0
H1557 H 0.87347 0.89699 0.15276 0.0
H1558 H 0.88402 0.90522 0.13956 0.0
H1559 H 0.8801 0.93454 0.15453 0.0
C1560 C 0.81011 0.18516 0.87916 0.0
C1561 C 0.81825 0.17817 0.87787 0.0
C1562 C 0.82811 0.19101 0.86851 0.0
C1563 C 0.82711 0.18105 0.87257 0.0
C1564 C 0.81991 0.19798 0.86967 0.0
C1565 C 0.81096 0.19506 0.87492 0.0
U1566 U 0.8 0.17373 0.90368 0.0
O1567 O 0.78683 0.17781 0.91356 0.0
O1568 O 0.78798 0.16234 0.90689 0.0
C1569 C 0.78218 0.169 0.91182 0.0
C1570 C 0.80112 0.18242 0.88554 0.0
C1571 C 0.7716 0.1697 0.90793 0.0
C1572 C 0.75983 0.1705 0.89346 0.0
C1573 C 0.76982 0.17098 0.89736 0.0
C1574 C 0.75321 0.16809 0.91073 0.0
C1575 C 0.75145 0.16885 0.90009 0.0
C1576 C 0.76324 0.16845 0.91462 0.0
C1577 C 0.82179 0.16424 0.92198 0.0
C1578 C 0.82581 0.14864 0.93153 0.0
C1579 C 0.83513 0.16438 0.93505 0.0
C1580 C 0.82922 0.16954 0.92773 0.0
C1581 C 0.83378 0.15378 0.93672 0.0
C1582 C 0.81986 0.15383 0.9242 0.0
C1583 C 0.81744 0.16931 0.91281 0.0
O1584 O 0.79954 0.17251 0.88684 0.0
O1585 O 0.80013 0.18773 0.89409 0.0
O1586 O 0.8126 0.17809 0.91419 0.0
O1587 O 0.81306 0.16333 0.90593 0.0
H1588 H 0.81791 0.17053 0.88119 0.0
H1589 H 0.83336 0.17557 0.87198 0.0
H1590 H 0.82047 0.20571 0.86661 0.0
H1591 H 0.8048 0.20059 0.87588 0.0
H1592 H 0.75866 0.17121 0.88524 0.0
H1593 H 0.77619 0.17202 0.89208 0.0
H1594 H 0.74687 0.16675 0.91599 0.0
H1595 H 0.7645 0.16746 0.9228 0.0
H1596 H 0.82461 0.14047 0.93264 0.0
H1597 H 0.8411 0.16859 0.93906 0.0
H1598 H 0.83084 0.17757 0.92615 0.0
H1599 H 0.81416 0.14954 0.9199 0.0
C1600 C 0.89177 0.59066 0.93484 0.0
C1601 C 0.89143 0.59436 0.92471 0.0
C1602 C 0.89542 0.57731 0.91815 0.0
C1603 C 0.89326 0.58777 0.91645 0.0
C1604 C 0.89626 0.57373 0.92835 0.0
C1605 C 0.89441 0.58036 0.93663 0.0
U1606 U 0.87595 0.6133 0.94226 0.0
O1607 O 0.86373 0.61515 0.95381 0.0
O1608 O 0.87723 0.62533 0.95405 0.0
C1609 C 0.86874 0.62241 0.95873 0.0
C1610 C 0.88788 0.59712 0.94325 0.0
C1611 C 0.86945 0.62107 0.96992 0.0
C1612 C 0.87842 0.61511 0.98519 0.0
C1613 C 0.87785 0.61605 0.97448 0.0
C1614 C 0.86208 0.62395 0.98682 0.0
C1615 C 0.87056 0.6191 0.99147 0.0
C1616 C 0.86155 0.62494 0.97614 0.0
C1617 C 0.86359 0.62776 0.91985 0.0
C1618 C 0.84896 0.6392 0.92183 0.0
C1619 C 0.85669 0.63672 0.90503 0.0
C1620 C 0.86391 0.63005 0.90934 0.0
C1621 C 0.84898 0.64119 0.91118 0.0
C1622 C 0.85623 0.63254 0.92614 0.0
C1623 C 0.87046 0.61982 0.92397 0.0
O1624 O 0.89146 0.60659 0.94351 0.0
O1625 O 0.87785 0.59664 0.94438 0.0
O1626 O 0.86582 0.61226 0.92881 0.0
O1627 O 0.87875 0.62313 0.92873 0.0
H1628 H 0.88922 0.60225 0.92316 0.0
H1629 H 0.89236 0.59077 0.90873 0.0
H1630 H 0.89801 0.56574 0.92991 0.0
H1631 H 0.89461 0.57735 0.9444 0.0
H1632 H 0.885 0.61126 0.98856 0.0
H1633 H 0.88398 0.61293 0.96978 0.0
H1634 H 0.85598 0.62723 0.99144 0.0
H1635 H 0.85501 0.62882 0.97273 0.0
H1636 H 0.84318 0.6426 0.92677 0.0
H1637 H 0.85683 0.63797 0.89679 0.0
H1638 H 0.86954 0.62639 0.90439 0.0
H1639 H 0.85592 0.63087 0.9343 0.0
C1640 C 0.39178 0.91859 0.07464 0.0
C1641 C 0.39144 0.91488 0.08477 0.0
C1642 C 0.39543 0.93194 0.09133 0.0
C1643 C 0.39327 0.92147 0.09303 0.0
C1644 C 0.39627 0.93551 0.08113 0.0
C1645 C 0.39442 0.92888 0.07285 0.0
U1646 U 0.37596 0.89594 0.06722 0.0
O1647 O 0.36374 0.89409 0.05567 0.0
O1648 O 0.37724 0.88391 0.05543 0.0
C1649 C 0.36875 0.88683 0.05074 0.0
C1650 C 0.38789 0.91213 0.06623 0.0
C1651 C 0.36946 0.88817 0.03956 0.0
C1652 C 0.37843 0.89413 0.02429 0.0
C1653 C 0.37786 0.8932 0.035 0.0
C1654 C 0.36209 0.88529 0.02266 0.0
C1655 C 0.37057 0.89014 0.01801 0.0
C1656 C 0.36156 0.8843 0.03334 0.0
C1657 C 0.36361 0.88148 0.08963 0.0
C1658 C 0.34897 0.87004 0.08766 0.0
C1659 C 0.3567 0.87252 0.10445 0.0
C1660 C 0.36393 0.8792 0.10014 0.0
C1661 C 0.34899 0.86805 0.0983 0.0
C1662 C 0.35624 0.8767 0.08335 0.0
C1663 C 0.37048 0.88942 0.08551 0.0
O1664 O 0.39147 0.90266 0.06597 0.0
O1665 O 0.37786 0.9126 0.0651 0.0
O1666 O 0.36583 0.89698 0.08067 0.0
O1667 O 0.37876 0.88611 0.08075 0.0
H1668 H 0.38923 0.90699 0.08632 0.0
H1669 H 0.39237 0.91848 0.10075 0.0
H1670 H 0.39802 0.94351 0.07957 0.0
H1671 H 0.39462 0.93189 0.06508 0.0
H1672 H 0.38501 0.89799 0.02092 0.0
H1673 H 0.38399 0.89632 0.0397 0.0
H1674 H 0.35599 0.88201 0.01804 0.0
H1675 H 0.35502 0.88042 0.03675 0.0
H1676 H 0.34319 0.86664 0.08271 0.0
H1677 H 0.35685 0.87127 0.11269 0.0
H1678 H 0.36955 0.88285 0.10509 0.0
H1679 H 0.35593 0.87837 0.07518 0.0
C1680 C 0.82468 0.6323 0.81242 0.0
C1681 C 0.83144 0.63401 0.82068 0.0
C1682 C 0.81819 0.64352 0.82983 0.0
C1683 C 0.82825 0.63961 0.82924 0.0
C1684 C 0.81142 0.64185 0.82156 0.0
C1685 C 0.81466 0.63632 0.81289 0.0
U1686 U 0.83783 0.60836 0.80297 0.0
O1687 O 0.83445 0.59796 0.78999 0.0
O1688 O 0.84941 0.60572 0.791 0.0
C1689 C 0.84313 0.60022 0.78531 0.0
C1690 C 0.82785 0.62583 0.80366 0.0
C1691 C 0.84219 0.60377 0.77462 0.0
C1692 C 0.84093 0.61784 0.7624 0.0
C1693 C 0.84065 0.61425 0.77252 0.0
C1694 C 0.84364 0.60043 0.7563 0.0
C1695 C 0.84262 0.61099 0.75422 0.0
C1696 C 0.84348 0.59685 0.76646 0.0
C1697 C 0.84884 0.59106 0.82468 0.0
C1698 C 0.86497 0.58192 0.82728 0.0
C1699 C 0.85006 0.57759 0.83758 0.0
C1700 C 0.84429 0.58499 0.83235 0.0
C1701 C 0.86053 0.57615 0.83528 0.0
C1702 C 0.85917 0.58929 0.822 0.0
C1703 C 0.84301 0.59987 0.82053 0.0
O1704 O 0.83783 0.62522 0.8021 0.0
O1705 O 0.82317 0.61689 0.80297 0.0
O1706 O 0.83431 0.5978 0.8158 0.0
O1707 O 0.84841 0.60715 0.81604 0.0
H1708 H 0.83915 0.63086 0.82063 0.0
H1709 H 0.83358 0.64058 0.83558 0.0
H1710 H 0.80362 0.64477 0.82182 0.0
H1711 H 0.8093 0.63502 0.80664 0.0
H1712 H 0.84002 0.626 0.76099 0.0
H1713 H 0.83956 0.6197 0.77873 0.0
H1714 H 0.845 0.59501 0.75011 0.0
H1715 H 0.84466 0.58874 0.76795 0.0
H1716 H 0.87299 0.58089 0.82526 0.0
H1717 H 0.84643 0.57336 0.84378 0.0
H1718 H 0.83637 0.58628 0.8346 0.0
H1719 H 0.86288 0.59384 0.81608 0.0
C1720 C 0.11529 0.09006 0.57346 0.0
C1721 C 0.11433 0.09458 0.58323 0.0
C1722 C 0.11339 0.07769 0.59111 0.0
C1723 C 0.11337 0.08845 0.59196 0.0
C1724 C 0.11345 0.07317 0.58129 0.0
C1725 C 0.11445 0.07934 0.5725 0.0
U1726 U 0.13197 0.11186 0.56602 0.0
O1727 O 0.14437 0.11328 0.55461 0.0
O1728 O 0.13138 0.1241 0.55438 0.0
C1729 C 0.13976 0.12083 0.54973 0.0
C1730 C 0.11934 0.09625 0.5649 0.0
C1731 C 0.13905 0.11963 0.53854 0.0
C1732 C 0.13001 0.1139 0.52323 0.0
C1733 C 0.1306 0.11472 0.53394 0.0
C1734 C 0.14642 0.12263 0.52166 0.0
C1735 C 0.13789 0.11789 0.51698 0.0
C1736 C 0.14698 0.12349 0.53235 0.0
C1737 C 0.14469 0.12529 0.58897 0.0
C1738 C 0.15997 0.13597 0.58773 0.0
C1739 C 0.15159 0.13353 0.60422 0.0
C1740 C 0.14416 0.12735 0.59953 0.0
C1741 C 0.15971 0.13772 0.59842 0.0
C1742 C 0.1525 0.12981 0.58304 0.0
C1743 C 0.13754 0.11781 0.58449 0.0
O1744 O 0.11618 0.10587 0.5645 0.0
O1745 O 0.12933 0.09533 0.5637 0.0
O1746 O 0.14191 0.11016 0.57954 0.0
O1747 O 0.12951 0.12162 0.57967 0.0
H1748 H 0.1151 0.10282 0.58421 0.0
H1749 H 0.11329 0.09209 0.59946 0.0
H1750 H 0.11356 0.06488 0.58046 0.0
H1751 H 0.11532 0.07571 0.56505 0.0
H1752 H 0.12339 0.11013 0.51984 0.0
H1753 H 0.12446 0.1116 0.53863 0.0
H1754 H 0.15254 0.1259 0.51706 0.0
H1755 H 0.15356 0.12728 0.53579 0.0
H1756 H 0.16607 0.13918 0.58305 0.0
H1757 H 0.15124 0.1346 0.61247 0.0
H1758 H 0.13819 0.12389 0.60421 0.0
H1759 H 0.15299 0.12831 0.57486 0.0
C1760 C 0.18517 0.87819 0.80991 0.0
C1761 C 0.17816 0.87686 0.81803 0.0
C1762 C 0.19109 0.86773 0.828 0.0
C1763 C 0.18107 0.87164 0.82694 0.0
C1764 C 0.19808 0.86894 0.81982 0.0
C1765 C 0.19512 0.87409 0.81083 0.0
U1766 U 0.1734 0.90251 0.79986 0.0
O1767 O 0.17736 0.91263 0.78684 0.0
O1768 O 0.16203 0.9056 0.78778 0.0
C1769 C 0.16861 0.91078 0.78211 0.0
C1770 C 0.18239 0.88453 0.80091 0.0
C1771 C 0.16946 0.90712 0.77147 0.0
C1772 C 0.17146 0.89299 0.75944 0.0
C1773 C 0.17168 0.89674 0.7695 0.0
C1774 C 0.16731 0.91006 0.75316 0.0
C1775 C 0.16909 0.89957 0.75119 0.0
C1776 C 0.16744 0.91379 0.76326 0.0
C1777 C 0.16364 0.92049 0.8218 0.0
C1778 C 0.14796 0.92989 0.82585 0.0
C1779 C 0.16365 0.93343 0.83525 0.0
C1780 C 0.16888 0.9262 0.82929 0.0
C1781 C 0.15304 0.93504 0.83388 0.0
C1782 C 0.15321 0.92265 0.81985 0.0
C1783 C 0.16879 0.91142 0.81736 0.0
O1784 O 0.17247 0.88566 0.79927 0.0
O1785 O 0.18756 0.89318 0.79997 0.0
O1786 O 0.17758 0.91295 0.81258 0.0
O1787 O 0.1629 0.90453 0.81289 0.0
H1788 H 0.17049 0.88008 0.81765 0.0
H1789 H 0.17557 0.87103 0.83317 0.0
H1790 H 0.20585 0.86599 0.82043 0.0
H1791 H 0.20067 0.8751 0.80469 0.0
H1792 H 0.17298 0.88491 0.75812 0.0
H1793 H 0.1733 0.89149 0.77577 0.0
H1794 H 0.16539 0.91528 0.74695 0.0
H1795 H 0.16571 0.92182 0.76467 0.0
H1796 H 0.13978 0.93096 0.82463 0.0
H1797 H 0.16781 0.93741 0.84128 0.0
H1798 H 0.17691 0.92467 0.83093 0.0
H1799 H 0.14897 0.91837 0.8141 0.0
C1800 C 0.6153 0.41917 0.43601 0.0
C1801 C 0.61434 0.41465 0.42624 0.0
C1802 C 0.61341 0.43155 0.41837 0.0
C1803 C 0.61338 0.42079 0.41751 0.0
C1804 C 0.61346 0.43606 0.42819 0.0
C1805 C 0.61446 0.42989 0.43698 0.0
U1806 U 0.63197 0.39736 0.44345 0.0
O1807 O 0.64437 0.39595 0.45487 0.0
O1808 O 0.63138 0.38513 0.4551 0.0
C1809 C 0.63976 0.3884 0.45974 0.0
C1810 C 0.61934 0.41298 0.44458 0.0
C1811 C 0.63905 0.3896 0.47094 0.0
C1812 C 0.63 0.39533 0.48624 0.0
C1813 C 0.6306 0.39451 0.47553 0.0
C1814 C 0.64641 0.38661 0.48781 0.0
C1815 C 0.63789 0.39134 0.4925 0.0
C1816 C 0.64697 0.38574 0.47713 0.0
C1817 C 0.64469 0.38394 0.4205 0.0
C1818 C 0.65997 0.37327 0.42175 0.0
C1819 C 0.65159 0.37571 0.40526 0.0
C1820 C 0.64416 0.38188 0.40995 0.0
C1821 C 0.65971 0.37151 0.41106 0.0
C1822 C 0.65249 0.37943 0.42644 0.0
C1823 C 0.63754 0.39142 0.42499 0.0
O1824 O 0.61618 0.40336 0.44497 0.0
O1825 O 0.62934 0.4139 0.44578 0.0
O1826 O 0.64191 0.39907 0.42993 0.0
O1827 O 0.62951 0.38761 0.4298 0.0
H1828 H 0.61511 0.40641 0.42527 0.0
H1829 H 0.61331 0.41715 0.41002 0.0
H1830 H 0.61357 0.44435 0.42902 0.0
H1831 H 0.61533 0.43352 0.44443 0.0
H1832 H 0.62339 0.3991 0.48963 0.0
H1833 H 0.62445 0.39763 0.47084 0.0
H1834 H 0.65254 0.38334 0.49242 0.0
H1835 H 0.65355 0.38195 0.47369 0.0
H1836 H 0.66606 0.37006 0.42643 0.0
H1837 H 0.65124 0.37463 0.397 0.0
H1838 H 0.6382 0.38534 0.40526 0.0
H1839 H 0.65298 0.38093 0.43462 0.0
C1840 C 0.82467 0.37695 0.69706 0.0
C1841 C 0.83144 0.37523 0.68881 0.0
C1842 C 0.81819 0.36572 0.67966 0.0
C1843 C 0.82825 0.36964 0.68024 0.0
C1844 C 0.81142 0.3674 0.68792 0.0
C1845 C 0.81466 0.37293 0.69659 0.0
U1846 U 0.83783 0.4009 0.70651 0.0
O1847 O 0.83444 0.4113 0.71949 0.0
O1848 O 0.8494 0.40354 0.71849 0.0
C1849 C 0.84312 0.40905 0.72418 0.0
C1850 C 0.82785 0.38342 0.70583 0.0
C1851 C 0.84218 0.40549 0.73486 0.0
C1852 C 0.84091 0.39143 0.74708 0.0
C1853 C 0.84064 0.39502 0.73696 0.0
C1854 C 0.84363 0.40884 0.75318 0.0
C1855 C 0.84261 0.39827 0.75527 0.0
C1856 C 0.84347 0.41242 0.74302 0.0
C1857 C 0.84883 0.41819 0.6848 0.0
C1858 C 0.86496 0.42734 0.6822 0.0
C1859 C 0.85005 0.43167 0.6719 0.0
C1860 C 0.84429 0.42426 0.67713 0.0
C1861 C 0.86052 0.43311 0.6742 0.0
C1862 C 0.85917 0.41996 0.68748 0.0
C1863 C 0.84301 0.40938 0.68895 0.0
O1864 O 0.83782 0.38404 0.70739 0.0
O1865 O 0.82316 0.39236 0.70651 0.0
O1866 O 0.8343 0.41145 0.69368 0.0
O1867 O 0.8484 0.4021 0.69344 0.0
H1868 H 0.83915 0.37839 0.68886 0.0
H1869 H 0.83358 0.36867 0.67391 0.0
H1870 H 0.80362 0.36447 0.68766 0.0
H1871 H 0.8093 0.37423 0.70284 0.0
H1872 H 0.84001 0.38327 0.7485 0.0
H1873 H 0.83955 0.38957 0.73075 0.0
H1874 H 0.84499 0.41425 0.75937 0.0
H1875 H 0.84466 0.42053 0.74153 0.0
H1876 H 0.87298 0.42837 0.68422 0.0
H1877 H 0.84643 0.43589 0.6657 0.0
H1878 H 0.83636 0.42297 0.67487 0.0
H1879 H 0.86288 0.41542 0.6934 0.0
C1880 C 0.68517 0.63107 0.19957 0.0
C1881 C 0.67816 0.63241 0.19145 0.0
C1882 C 0.69109 0.64154 0.18149 0.0
C1883 C 0.68107 0.63763 0.18255 0.0
C1884 C 0.69808 0.64033 0.18966 0.0
C1885 C 0.69512 0.63517 0.19866 0.0
U1886 U 0.6734 0.60675 0.20963 0.0
O1887 O 0.67736 0.59664 0.22265 0.0
O1888 O 0.66203 0.60367 0.2217 0.0
C1889 C 0.66861 0.59848 0.22738 0.0
C1890 C 0.68239 0.62473 0.20858 0.0
C1891 C 0.66946 0.60215 0.23801 0.0
C1892 C 0.67146 0.61627 0.25005 0.0
C1893 C 0.67168 0.61252 0.23999 0.0
C1894 C 0.6673 0.59921 0.25632 0.0
C1895 C 0.66909 0.60969 0.2583 0.0
C1896 C 0.66744 0.59547 0.24623 0.0
C1897 C 0.66363 0.58877 0.18769 0.0
C1898 C 0.64795 0.57936 0.18364 0.0
C1899 C 0.66364 0.57584 0.17423 0.0
C1900 C 0.66887 0.58307 0.18019 0.0
C1901 C 0.65304 0.57422 0.1756 0.0
C1902 C 0.65321 0.58661 0.18964 0.0
C1903 C 0.66879 0.59785 0.19213 0.0
O1904 O 0.67247 0.62361 0.21022 0.0
O1905 O 0.68756 0.61609 0.20952 0.0
O1906 O 0.67758 0.59632 0.19691 0.0
O1907 O 0.6629 0.60474 0.1966 0.0
H1908 H 0.67048 0.62919 0.19184 0.0
H1909 H 0.67557 0.63824 0.17632 0.0
H1910 H 0.70585 0.64328 0.18905 0.0
H1911 H 0.70068 0.63416 0.20479 0.0
H1912 H 0.67299 0.62436 0.25136 0.0
H1913 H 0.67331 0.61777 0.23372 0.0
H1914 H 0.66539 0.59399 0.26253 0.0
H1915 H 0.66571 0.58745 0.24482 0.0
H1916 H 0.63978 0.57829 0.18486 0.0
H1917 H 0.6678 0.57186 0.1682 0.0
H1918 H 0.6769 0.5846 0.17855 0.0
H1919 H 0.64897 0.59088 0.19539 0.0
C1920 C 0.57373 0.61535 0.91728 0.0
C1921 C 0.58384 0.61589 0.91351 0.0
C1922 C 0.59054 0.61381 0.9308 0.0
C1923 C 0.59216 0.61512 0.9202 0.0
C1924 C 0.58048 0.61252 0.9345 0.0
C1925 C 0.57209 0.61334 0.92777 0.0
U1926 U 0.56606 0.63126 0.89493 0.0
O1927 O 0.55508 0.62927 0.88216 0.0
O1928 O 0.55377 0.64256 0.89256 0.0
C1929 C 0.54959 0.63728 0.885 0.0
C1930 C 0.56522 0.6187 0.91064 0.0
C1931 C 0.53837 0.63572 0.88554 0.0
C1932 C 0.5221 0.63671 0.89472 0.0
C1933 C 0.53284 0.63732 0.89469 0.0
C1934 C 0.52232 0.63244 0.87658 0.0
C1935 C 0.5167 0.63443 0.88562 0.0
C1936 C 0.53303 0.63313 0.87654 0.0
C1937 C 0.5884 0.64587 0.88235 0.0
C1938 C 0.58685 0.66157 0.87231 0.0
C1939 C 0.60328 0.65283 0.87351 0.0
C1940 C 0.59881 0.64526 0.87968 0.0
C1941 C 0.5974 0.66117 0.86991 0.0
C1942 C 0.58237 0.65395 0.87846 0.0
C1943 C 0.58419 0.63845 0.88975 0.0
O1944 O 0.56319 0.62857 0.91138 0.0
O1945 O 0.56562 0.61546 0.90106 0.0
O1946 O 0.58036 0.62993 0.88588 0.0
O1947 O 0.57851 0.64241 0.89711 0.0
H1948 H 0.5853 0.61758 0.90547 0.0
H1949 H 0.59987 0.61612 0.91719 0.0
H1950 H 0.57908 0.61159 0.94267 0.0
H1951 H 0.56434 0.61304 0.93083 0.0
H1952 H 0.51803 0.63837 0.9018 0.0
H1953 H 0.53677 0.6393 0.90177 0.0
H1954 H 0.51842 0.63045 0.86949 0.0
H1955 H 0.53715 0.63182 0.86941 0.0
H1956 H 0.5821 0.66784 0.86957 0.0
H1957 H 0.61144 0.65237 0.87192 0.0
H1958 H 0.60358 0.6391 0.88265 0.0
H1959 H 0.57428 0.65451 0.88041 0.0
C1960 C 0.63261 0.31151 0.18259 0.0
C1961 C 0.63363 0.32 0.17598 0.0
C1962 C 0.64421 0.32884 0.18861 0.0
C1963 C 0.63941 0.32853 0.17893 0.0
C1964 C 0.64325 0.32032 0.19522 0.0
C1965 C 0.63753 0.31169 0.1922 0.0
U1966 U 0.60784 0.30262 0.17081 0.0
O1967 O 0.60446 0.29083 0.15919 0.0
O1968 O 0.59714 0.29 0.17441 0.0
C1969 C 0.59889 0.28534 0.16559 0.0
C1970 C 0.6259 0.30283 0.17972 0.0
C1971 C 0.60166 0.27436 0.16606 0.0
C1972 C 0.60899 0.25962 0.17494 0.0
C1973 C 0.60593 0.26994 0.17495 0.0
C1974 C 0.6036 0.25807 0.15717 0.0
C1975 C 0.60794 0.25358 0.16602 0.0
C1976 C 0.60045 0.26833 0.15722 0.0
C1977 C 0.59009 0.3247 0.16149 0.0
C1978 C 0.58045 0.32886 0.14598 0.0
C1979 C 0.57605 0.33701 0.16214 0.0
C1980 C 0.58377 0.33141 0.16709 0.0
C1981 C 0.57456 0.33608 0.15147 0.0
C1982 C 0.58816 0.32322 0.15095 0.0
C1983 C 0.59931 0.32039 0.16654 0.0
O1984 O 0.61725 0.30214 0.18493 0.0
O1985 O 0.62465 0.30144 0.16978 0.0
O1986 O 0.60613 0.31591 0.16057 0.0
O1987 O 0.59787 0.31557 0.17532 0.0
H1988 H 0.62977 0.32017 0.1686 0.0
H1989 H 0.6398 0.33506 0.17376 0.0
H1990 H 0.64686 0.32037 0.20273 0.0
H1991 H 0.63677 0.30526 0.19745 0.0
H1992 H 0.61218 0.25639 0.18193 0.0
H1993 H 0.60701 0.27446 0.18187 0.0
H1994 H 0.60285 0.25375 0.15009 0.0
H1995 H 0.59725 0.27162 0.15026 0.0
H1996 H 0.57954 0.328 0.13775 0.0
H1997 H 0.57152 0.34238 0.16661 0.0
H1998 H 0.5851 0.33269 0.17522 0.0
H1999 H 0.5929 0.31807 0.14642 0.0
C2000 C 0.93384 0.39389 0.41775 0.0
C2001 C 0.92373 0.3933 0.414 0.0
C2002 C 0.91707 0.39508 0.43134 0.0
C2003 C 0.91542 0.3939 0.42074 0.0
C2004 C 0.92714 0.3964 0.43503 0.0
C2005 C 0.93551 0.39574 0.42825 0.0
U2006 U 0.94146 0.37918 0.39456 0.0
O2007 O 0.95288 0.3815 0.38222 0.0
O2008 O 0.95337 0.36757 0.39181 0.0
C2009 C 0.95797 0.37312 0.38471 0.0
C2010 C 0.94235 0.39074 0.41101 0.0
C2011 C 0.96919 0.3742 0.38572 0.0
C2012 C 0.98491 0.37309 0.39579 0.0
C2013 C 0.97418 0.37284 0.39522 0.0
C2014 C 0.9858 0.37646 0.37748 0.0
C2015 C 0.99086 0.37476 0.3869 0.0
C2016 C 0.97508 0.37613 0.3769 0.0
C2017 C 0.91905 0.36587 0.38083 0.0
C2018 C 0.92088 0.35103 0.36962 0.0
C2019 C 0.90406 0.35856 0.37249 0.0
C2020 C 0.90847 0.36599 0.37886 0.0
C2021 C 0.91018 0.35084 0.36798 0.0
C2022 C 0.92529 0.3585 0.37599 0.0
C2023 C 0.92324 0.37285 0.38863 0.0
O2024 O 0.94412 0.3808 0.41118 0.0
O2025 O 0.94215 0.39457 0.40163 0.0
O2026 O 0.92746 0.3814 0.38523 0.0
O2027 O 0.92861 0.36837 0.39592 0.0
H2028 H 0.92226 0.39174 0.40595 0.0
H2029 H 0.90771 0.39288 0.41774 0.0
H2030 H 0.92856 0.39723 0.4432 0.0
H2031 H 0.94327 0.39607 0.43129 0.0
H2032 H 0.98854 0.37166 0.40315 0.0
H2033 H 0.9698 0.37138 0.40216 0.0
H2034 H 0.99012 0.37799 0.37053 0.0
H2035 H 0.97137 0.37724 0.36951 0.0
H2036 H 0.9258 0.34526 0.36618 0.0
H2037 H 0.89579 0.35856 0.37152 0.0
H2038 H 0.90355 0.37159 0.38258 0.0
H2039 H 0.9335 0.35833 0.37742 0.0
C2040 C 0.88248 0.69943 0.69052 0.0
C2041 C 0.88841 0.69131 0.69448 0.0
C2042 C 0.87303 0.68084 0.69648 0.0
C2043 C 0.88372 0.68215 0.69749 0.0
C2044 C 0.86704 0.68918 0.69308 0.0
C2045 C 0.87174 0.69841 0.6901 0.0
U2046 U 0.9042 0.70839 0.67405 0.0
O2047 O 0.90462 0.71842 0.66043 0.0
O2048 O 0.91406 0.72212 0.67396 0.0
C2049 C 0.91058 0.72521 0.66497 0.0
C2050 C 0.88757 0.70816 0.68539 0.0
C2051 C 0.90698 0.73592 0.66439 0.0
C2052 C 0.89934 0.75108 0.6722 0.0
C2053 C 0.90285 0.74095 0.67301 0.0
C2054 C 0.90387 0.75119 0.65412 0.0
C2055 C 0.89979 0.75633 0.66274 0.0
C2056 C 0.90746 0.74111 0.65496 0.0
C2057 C 0.9226 0.68644 0.66582 0.0
C2058 C 0.93127 0.68239 0.64973 0.0
C2059 C 0.93619 0.67365 0.66543 0.0
C2060 C 0.92896 0.67938 0.67091 0.0
C2061 C 0.93715 0.67481 0.65472 0.0
C2062 C 0.92404 0.68817 0.65524 0.0
C2063 C 0.91382 0.69086 0.67146 0.0
O2064 O 0.89665 0.71077 0.68903 0.0
O2065 O 0.88734 0.70768 0.6753 0.0
O2066 O 0.90589 0.69375 0.66589 0.0
O2067 O 0.91597 0.69721 0.67903 0.0
H2068 H 0.89672 0.69184 0.69479 0.0
H2069 H 0.88853 0.67592 0.70025 0.0
H2070 H 0.85879 0.68839 0.69216 0.0
H2071 H 0.86706 0.70454 0.68695 0.0
H2072 H 0.89635 0.75483 0.67902 0.0
H2073 H 0.90233 0.73707 0.68037 0.0
H2074 H 0.90415 0.75489 0.64667 0.0
H2075 H 0.91053 0.73731 0.64821 0.0
H2076 H 0.93179 0.68344 0.64148 0.0
H2077 H 0.94075 0.66799 0.66952 0.0
H2078 H 0.928 0.67795 0.67907 0.0
H2079 H 0.91926 0.69362 0.65113 0.0
C2080 C 0.57373 0.39385 0.59217 0.0
C2081 C 0.58383 0.39333 0.59595 0.0
C2082 C 0.59054 0.39541 0.57866 0.0
C2083 C 0.59215 0.39411 0.58926 0.0
C2084 C 0.58047 0.39669 0.57495 0.0
C2085 C 0.57208 0.39585 0.58168 0.0
U2086 U 0.56606 0.37793 0.61451 0.0
O2087 O 0.55508 0.3799 0.62728 0.0
O2088 O 0.55378 0.36662 0.61688 0.0
C2089 C 0.54959 0.37189 0.62443 0.0
C2090 C 0.56521 0.39049 0.59881 0.0
C2091 C 0.53838 0.37344 0.6239 0.0
C2092 C 0.52211 0.37244 0.6147 0.0
C2093 C 0.53285 0.37183 0.61474 0.0
C2094 C 0.52231 0.3767 0.63284 0.0
C2095 C 0.51671 0.37471 0.6238 0.0
C2096 C 0.53303 0.37602 0.63289 0.0
C2097 C 0.58841 0.36334 0.6271 0.0
C2098 C 0.58686 0.34765 0.63715 0.0
C2099 C 0.60329 0.35639 0.63595 0.0
C2100 C 0.59882 0.36395 0.62977 0.0
C2101 C 0.59741 0.34805 0.63955 0.0
C2102 C 0.58238 0.35527 0.631 0.0
C2103 C 0.5842 0.37076 0.6197 0.0
O2104 O 0.5632 0.38061 0.59806 0.0
O2105 O 0.56561 0.39373 0.60839 0.0
O2106 O 0.58035 0.37927 0.62357 0.0
O2107 O 0.57853 0.36679 0.61234 0.0
H2108 H 0.58529 0.39165 0.60398 0.0
H2109 H 0.59986 0.39312 0.59228 0.0
H2110 H 0.57908 0.39761 0.56678 0.0
H2111 H 0.56434 0.39614 0.57862 0.0
H2112 H 0.51804 0.37078 0.60763 0.0
H2113 H 0.53678 0.36986 0.60766 0.0
H2114 H 0.51842 0.37868 0.63993 0.0
H2115 H 0.53715 0.37732 0.64002 0.0
H2116 H 0.58212 0.34137 0.6399 0.0
H2117 H 0.61146 0.35686 0.63753 0.0
H2118 H 0.60358 0.37012 0.6268 0.0
H2119 H 0.57429 0.3547 0.62905 0.0
C2120 C 0.88246 0.30985 0.81896 0.0
C2121 C 0.88838 0.31797 0.815 0.0
C2122 C 0.87301 0.32843 0.813 0.0
C2123 C 0.8837 0.32713 0.81199 0.0
C2124 C 0.86701 0.32009 0.8164 0.0
C2125 C 0.87172 0.31086 0.81938 0.0
U2126 U 0.90417 0.30087 0.83542 0.0
O2127 O 0.9046 0.29084 0.84904 0.0
O2128 O 0.91403 0.28715 0.8355 0.0
C2129 C 0.91056 0.28406 0.84449 0.0
C2130 C 0.88754 0.30111 0.82408 0.0
C2131 C 0.90695 0.27334 0.84506 0.0
C2132 C 0.89929 0.25819 0.83724 0.0
C2133 C 0.90281 0.26832 0.83644 0.0
C2134 C 0.90384 0.25806 0.85532 0.0
C2135 C 0.89975 0.25293 0.8467 0.0
C2136 C 0.90744 0.26815 0.85448 0.0
C2137 C 0.92258 0.32283 0.84366 0.0
C2138 C 0.93124 0.32688 0.85975 0.0
C2139 C 0.93618 0.33562 0.84405 0.0
C2140 C 0.92894 0.32988 0.83857 0.0
C2141 C 0.93713 0.33446 0.85476 0.0
C2142 C 0.92402 0.3211 0.85424 0.0
C2143 C 0.9138 0.31841 0.83802 0.0
O2144 O 0.89662 0.2985 0.82044 0.0
O2145 O 0.88731 0.30159 0.83417 0.0
O2146 O 0.90587 0.31551 0.84359 0.0
O2147 O 0.91595 0.31206 0.83045 0.0
H2148 H 0.89669 0.31743 0.81469 0.0
H2149 H 0.8885 0.33336 0.80924 0.0
H2150 H 0.85877 0.32088 0.81732 0.0
H2151 H 0.86703 0.30473 0.82252 0.0
H2152 H 0.8963 0.25445 0.83042 0.0
H2153 H 0.90228 0.27221 0.82909 0.0
H2154 H 0.90413 0.25435 0.86277 0.0
H2155 H 0.91051 0.27193 0.86124 0.0
H2156 H 0.93177 0.32583 0.868 0.0
H2157 H 0.94074 0.34127 0.83996 0.0
H2158 H 0.92799 0.33131 0.83041 0.0
H2159 H 0.91923 0.31566 0.85835 0.0
C2160 C 0.93383 0.61536 0.09175 0.0
C2161 C 0.92372 0.61595 0.09549 0.0
C2162 C 0.91706 0.61417 0.07815 0.0
C2163 C 0.91542 0.61535 0.08875 0.0
C2164 C 0.92714 0.61284 0.07446 0.0
C2165 C 0.9355 0.61351 0.08124 0.0
U2166 U 0.94146 0.63007 0.11494 0.0
O2167 O 0.95287 0.62775 0.12727 0.0
O2168 O 0.95337 0.64168 0.11768 0.0
C2169 C 0.95796 0.63613 0.12479 0.0
C2170 C 0.94235 0.61851 0.09848 0.0
C2171 C 0.96919 0.63505 0.12378 0.0
C2172 C 0.98491 0.63615 0.1137 0.0
C2173 C 0.97418 0.6364 0.11428 0.0
C2174 C 0.9858 0.63279 0.13201 0.0
C2175 C 0.99086 0.63448 0.12259 0.0
C2176 C 0.97507 0.63312 0.1326 0.0
C2177 C 0.91905 0.64339 0.12866 0.0
C2178 C 0.92089 0.65822 0.13987 0.0
C2179 C 0.90407 0.65069 0.137 0.0
C2180 C 0.90847 0.64327 0.13063 0.0
C2181 C 0.91018 0.65841 0.14151 0.0
C2182 C 0.92529 0.65075 0.1335 0.0
C2183 C 0.92324 0.6364 0.12086 0.0
O2184 O 0.94412 0.62846 0.09832 0.0
O2185 O 0.94214 0.61468 0.10786 0.0
O2186 O 0.92745 0.62786 0.12426 0.0
O2187 O 0.92861 0.64088 0.11357 0.0
H2188 H 0.92225 0.61752 0.10354 0.0
H2189 H 0.90771 0.61638 0.09175 0.0
H2190 H 0.92856 0.61201 0.06629 0.0
H2191 H 0.94326 0.61317 0.07821 0.0
H2192 H 0.98854 0.63758 0.10634 0.0
H2193 H 0.9698 0.63786 0.10734 0.0
H2194 H 0.99012 0.63126 0.13897 0.0
H2195 H 0.97137 0.63201 0.13999 0.0
H2196 H 0.92581 0.664 0.14331 0.0
H2197 H 0.89579 0.65069 0.13797 0.0
H2198 H 0.90355 0.63766 0.12691 0.0
H2199 H 0.9335 0.65093 0.13207 0.0
C2200 C 0.63258 0.69774 0.32688 0.0
C2201 C 0.63361 0.68925 0.33349 0.0
C2202 C 0.64419 0.68042 0.32086 0.0
C2203 C 0.63939 0.68073 0.33053 0.0
C2204 C 0.64323 0.68895 0.31425 0.0
C2205 C 0.6375 0.69756 0.31727 0.0
U2206 U 0.60782 0.70663 0.33867 0.0
O2207 O 0.60445 0.71841 0.3503 0.0
O2208 O 0.59712 0.71924 0.33508 0.0
C2209 C 0.59888 0.7239 0.34389 0.0
C2210 C 0.62587 0.70642 0.32975 0.0
C2211 C 0.60165 0.73488 0.34342 0.0
C2212 C 0.60897 0.74962 0.33453 0.0
C2213 C 0.60591 0.7393 0.33453 0.0
C2214 C 0.60358 0.75118 0.3523 0.0
C2215 C 0.60792 0.75567 0.34346 0.0
C2216 C 0.60043 0.74092 0.35226 0.0
C2217 C 0.59008 0.68454 0.34801 0.0
C2218 C 0.58046 0.68037 0.36352 0.0
C2219 C 0.57602 0.67225 0.34736 0.0
C2220 C 0.58374 0.67784 0.34241 0.0
C2221 C 0.57454 0.67316 0.35804 0.0
C2222 C 0.58816 0.68601 0.35856 0.0
C2223 C 0.5993 0.68885 0.34295 0.0
O2224 O 0.61722 0.70711 0.32454 0.0
O2225 O 0.62463 0.70781 0.3397 0.0
O2226 O 0.60612 0.69334 0.34892 0.0
O2227 O 0.59785 0.69367 0.33417 0.0
H2228 H 0.62975 0.68908 0.34087 0.0
H2229 H 0.63979 0.6742 0.3357 0.0
H2230 H 0.64684 0.6889 0.30674 0.0
H2231 H 0.63674 0.704 0.31203 0.0
H2232 H 0.61216 0.75285 0.32755 0.0
H2233 H 0.60699 0.73478 0.32762 0.0
H2234 H 0.60283 0.7555 0.35938 0.0
H2235 H 0.59723 0.73762 0.35922 0.0
H2236 H 0.57956 0.68121 0.37176 0.0
H2237 H 0.57147 0.66689 0.34288 0.0
H2238 H 0.58505 0.67658 0.33428 0.0
H2239 H 0.59291 0.69114 0.36309 0.0
C2240 C 0.91719 0.5755 0.61656 0.0
C2241 C 0.9135 0.5856 0.61735 0.0
C2242 C 0.93082 0.59224 0.61521 0.0
C2243 C 0.92025 0.59389 0.61667 0.0
C2244 C 0.93444 0.58217 0.6137 0.0
C2245 C 0.92765 0.57381 0.61444 0.0
U2246 U 0.89425 0.5677 0.63161 0.0
O2247 O 0.88184 0.55638 0.62932 0.0
O2248 O 0.89168 0.55559 0.64306 0.0
C2249 C 0.88445 0.55112 0.63756 0.0
C2250 C 0.91049 0.56696 0.61973 0.0
C2251 C 0.88539 0.53991 0.63626 0.0
C2252 C 0.89532 0.5241 0.63715 0.0
C2253 C 0.89483 0.53483 0.63758 0.0
C2254 C 0.87702 0.52343 0.63365 0.0
C2255 C 0.88639 0.51826 0.63532 0.0
C2256 C 0.87653 0.53414 0.63417 0.0
C2257 C 0.88079 0.58991 0.64553 0.0
C2258 C 0.87 0.58799 0.66067 0.0
C2259 C 0.87234 0.60479 0.65293 0.0
C2260 C 0.87862 0.60045 0.64538 0.0
C2261 C 0.86815 0.59865 0.66081 0.0
C2262 C 0.87626 0.58364 0.65307 0.0
C2263 C 0.88848 0.58581 0.63835 0.0
O2264 O 0.91084 0.56505 0.62965 0.0
O2265 O 0.90104 0.56725 0.61609 0.0
O2266 O 0.88494 0.58177 0.62979 0.0
O2267 O 0.89583 0.58036 0.64263 0.0
H2268 H 0.90549 0.58708 0.61912 0.0
H2269 H 0.91729 0.6016 0.61783 0.0
H2270 H 0.94258 0.58073 0.61265 0.0
H2271 H 0.93064 0.56606 0.61395 0.0
H2272 H 0.90264 0.52038 0.63856 0.0
H2273 H 0.9018 0.53911 0.63917 0.0
H2274 H 0.87004 0.51919 0.63201 0.0
H2275 H 0.86918 0.53792 0.63308 0.0
H2276 H 0.8668 0.58305 0.66658 0.0
H2277 H 0.87121 0.61304 0.65288 0.0
H2278 H 0.88209 0.6054 0.63963 0.0
H2279 H 0.87785 0.57546 0.65328 0.0
C2280 C 0.69747 0.68328 0.87642 0.0
C2281 C 0.68891 0.67676 0.87534 0.0
C2282 C 0.68004 0.68972 0.86519 0.0
C2283 C 0.68033 0.67992 0.86974 0.0
C2284 C 0.68863 0.69623 0.86619 0.0
C2285 C 0.6973 0.693 0.87173 0.0
U2286 U 0.70654 0.6711 0.90094 0.0
O2287 O 0.71823 0.6593 0.90404 0.0
O2288 O 0.71933 0.67442 0.91152 0.0
C2289 C 0.72386 0.66557 0.90962 0.0
C2290 C 0.70621 0.6802 0.88298 0.0
C2291 C 0.73482 0.66593 0.90677 0.0
C2292 C 0.74964 0.67472 0.89947 0.0
C2293 C 0.73932 0.67481 0.90255 0.0
C2294 C 0.75103 0.6569 0.90474 0.0
C2295 C 0.7556 0.66574 0.90046 0.0
C2296 C 0.74077 0.65703 0.90789 0.0
C2297 C 0.68458 0.6619 0.91891 0.0
C2298 C 0.68045 0.64637 0.92852 0.0
C2299 C 0.67244 0.66255 0.9331 0.0
C2300 C 0.67798 0.6675 0.92534 0.0
C2301 C 0.67332 0.65186 0.93452 0.0
C2302 C 0.68603 0.65134 0.92077 0.0
C2303 C 0.68883 0.66698 0.90967 0.0
O2304 O 0.70709 0.68531 0.89167 0.0
O2305 O 0.70747 0.67023 0.8841 0.0
O2306 O 0.69314 0.66101 0.90274 0.0
O2307 O 0.69377 0.67568 0.91112 0.0
H2308 H 0.68873 0.66928 0.87902 0.0
H2309 H 0.67376 0.67481 0.86931 0.0
H2310 H 0.68859 0.70383 0.86278 0.0
H2311 H 0.70378 0.69818 0.87254 0.0
H2312 H 0.75293 0.6817 0.89633 0.0
H2313 H 0.73487 0.68177 0.90153 0.0
H2314 H 0.75529 0.64978 0.90543 0.0
H2315 H 0.73742 0.65008 0.91106 0.0
H2316 H 0.68126 0.63813 0.92937 0.0
H2317 H 0.66715 0.66703 0.93771 0.0
H2318 H 0.67674 0.67564 0.92406 0.0
H2319 H 0.6911 0.64681 0.91595 0.0
C2320 C 0.59186 0.43566 0.11472 0.0
C2321 C 0.59564 0.42556 0.11504 0.0
C2322 C 0.57832 0.41888 0.11315 0.0
C2323 C 0.58893 0.41725 0.11425 0.0
C2324 C 0.57459 0.42897 0.11208 0.0
C2325 C 0.58135 0.43734 0.11292 0.0
U2326 U 0.61447 0.44302 0.13041 0.0
O2327 O 0.62715 0.45411 0.1285 0.0
O2328 O 0.61697 0.45501 0.14199 0.0
C2329 C 0.62442 0.45937 0.1367 0.0
C2330 C 0.59855 0.44411 0.11815 0.0
C2331 C 0.62377 0.47061 0.13544 0.0
C2332 C 0.61439 0.48674 0.13673 0.0
C2333 C 0.61455 0.476 0.13712 0.0
C2334 C 0.63255 0.48684 0.13256 0.0
C2335 C 0.62343 0.4923 0.13461 0.0
C2336 C 0.63272 0.47612 0.13302 0.0
C2337 C 0.62734 0.42044 0.14432 0.0
C2338 C 0.63785 0.42189 0.15971 0.0
C2339 C 0.63607 0.40544 0.15114 0.0
C2340 C 0.62978 0.40997 0.14371 0.0
C2341 C 0.64002 0.4113 0.15933 0.0
C2342 C 0.63157 0.42644 0.15224 0.0
C2343 C 0.61981 0.42474 0.13708 0.0
O2344 O 0.59797 0.44591 0.12807 0.0
O2345 O 0.60808 0.4438 0.11473 0.0
O2346 O 0.62355 0.42881 0.12861 0.0
O2347 O 0.61249 0.43029 0.14129 0.0
H2348 H 0.6037 0.42407 0.11656 0.0
H2349 H 0.59196 0.40953 0.1151 0.0
H2350 H 0.56641 0.43038 0.11133 0.0
H2351 H 0.57828 0.44509 0.1128 0.0
H2352 H 0.60725 0.49069 0.13843 0.0
H2353 H 0.60751 0.47194 0.13896 0.0
H2354 H 0.6396 0.49086 0.13068 0.0
H2355 H 0.63991 0.47211 0.13166 0.0
H2356 H 0.64085 0.42662 0.16587 0.0
H2357 H 0.63748 0.39724 0.15069 0.0
H2358 H 0.62654 0.40523 0.13767 0.0
H2359 H 0.6298 0.43456 0.15279 0.0
C2360 C 0.8097 0.31946 0.38247 0.0
C2361 C 0.81788 0.31543 0.38826 0.0
C2362 C 0.82828 0.31386 0.37279 0.0
C2363 C 0.82704 0.31259 0.38346 0.0
C2364 C 0.81987 0.31731 0.36691 0.0
C2365 C 0.81065 0.32011 0.37173 0.0
U2366 U 0.80082 0.3356 0.40445 0.0
O2367 O 0.79074 0.34917 0.40508 0.0
O2368 O 0.78715 0.33552 0.41439 0.0
C2369 C 0.78399 0.34452 0.411 0.0
C2370 C 0.80098 0.32445 0.38769 0.0
C2371 C 0.77328 0.34506 0.4074 0.0
C2372 C 0.75817 0.33721 0.39967 0.0
C2373 C 0.76828 0.33643 0.40324 0.0
C2374 C 0.75799 0.35528 0.40421 0.0
C2375 C 0.7529 0.34666 0.40008 0.0
C2376 C 0.76806 0.35447 0.40786 0.0
C2377 C 0.82289 0.34379 0.42275 0.0
C2378 C 0.82686 0.35982 0.43154 0.0
C2379 C 0.83584 0.34417 0.4362 0.0
C2380 C 0.83007 0.33871 0.42897 0.0
C2381 C 0.83457 0.35485 0.43729 0.0
C2382 C 0.82106 0.35433 0.42432 0.0
C2383 C 0.81842 0.3382 0.41396 0.0
O2384 O 0.79848 0.32069 0.39676 0.0
O2385 O 0.8014 0.33454 0.38757 0.0
O2386 O 0.81544 0.34383 0.40611 0.0
O2387 O 0.81212 0.33059 0.4161 0.0
H2388 H 0.8174 0.31494 0.39656 0.0
H2389 H 0.83332 0.30979 0.38817 0.0
H2390 H 0.82062 0.31842 0.35869 0.0
H2391 H 0.80447 0.32331 0.36714 0.0
H2392 H 0.75446 0.33039 0.39665 0.0
H2393 H 0.77219 0.32909 0.40273 0.0
H2394 H 0.75427 0.36273 0.40447 0.0
H2395 H 0.77182 0.36123 0.41096 0.0
H2396 H 0.82573 0.36805 0.43217 0.0
H2397 H 0.84158 0.34009 0.44064 0.0
H2398 H 0.83158 0.33058 0.42791 0.0
H2399 H 0.81552 0.35843 0.41965 0.0
C2400 C 0.91721 0.43377 0.89291 0.0
C2401 C 0.91352 0.42366 0.89212 0.0
C2402 C 0.93083 0.41703 0.89426 0.0
C2403 C 0.92027 0.41537 0.8928 0.0
C2404 C 0.93446 0.4271 0.89577 0.0
C2405 C 0.92767 0.43546 0.89503 0.0
U2406 U 0.89427 0.44157 0.87787 0.0
O2407 O 0.88186 0.45289 0.88017 0.0
O2408 O 0.89169 0.45368 0.86642 0.0
C2409 C 0.88447 0.45814 0.87192 0.0
C2410 C 0.91051 0.44231 0.88975 0.0
C2411 C 0.8854 0.46935 0.87322 0.0
C2412 C 0.89533 0.48517 0.87233 0.0
C2413 C 0.89485 0.47444 0.8719 0.0
C2414 C 0.87704 0.48583 0.87583 0.0
C2415 C 0.8864 0.49101 0.87416 0.0
C2416 C 0.87655 0.47512 0.87532 0.0
C2417 C 0.8808 0.41936 0.86395 0.0
C2418 C 0.87 0.42128 0.84881 0.0
C2419 C 0.87235 0.40448 0.85655 0.0
C2420 C 0.87862 0.40882 0.8641 0.0
C2421 C 0.86815 0.41062 0.84867 0.0
C2422 C 0.87627 0.42563 0.85641 0.0
C2423 C 0.88849 0.42345 0.87113 0.0
O2424 O 0.91086 0.44422 0.87983 0.0
O2425 O 0.90106 0.44202 0.89339 0.0
O2426 O 0.88495 0.4275 0.87969 0.0
O2427 O 0.89584 0.42891 0.86685 0.0
H2428 H 0.90551 0.42219 0.89035 0.0
H2429 H 0.91731 0.40767 0.89163 0.0
H2430 H 0.9426 0.42854 0.89683 0.0
H2431 H 0.93067 0.44321 0.89553 0.0
H2432 H 0.90265 0.48889 0.87092 0.0
H2433 H 0.90182 0.47016 0.87032 0.0
H2434 H 0.87005 0.49006 0.87747 0.0
H2435 H 0.8692 0.47134 0.87641 0.0
H2436 H 0.86681 0.42622 0.84291 0.0
H2437 H 0.87121 0.39623 0.8566 0.0
H2438 H 0.8821 0.40387 0.86984 0.0
H2439 H 0.87786 0.4338 0.85621 0.0
C2440 C 0.80971 0.6898 0.127 0.0
C2441 C 0.81789 0.69382 0.12121 0.0
C2442 C 0.82829 0.69539 0.13668 0.0
C2443 C 0.82706 0.69666 0.12601 0.0
C2444 C 0.81988 0.69194 0.14256 0.0
C2445 C 0.81066 0.68914 0.13773 0.0
U2446 U 0.80083 0.67366 0.10501 0.0
O2447 O 0.79074 0.66009 0.10438 0.0
O2448 O 0.78716 0.67375 0.09506 0.0
C2449 C 0.784 0.66474 0.09845 0.0
C2450 C 0.80099 0.68481 0.12177 0.0
C2451 C 0.77328 0.66421 0.10205 0.0
C2452 C 0.75818 0.67206 0.10978 0.0
C2453 C 0.76829 0.67284 0.10621 0.0
C2454 C 0.75799 0.65399 0.10523 0.0
C2455 C 0.7529 0.66262 0.10936 0.0
C2456 C 0.76805 0.6548 0.10158 0.0
C2457 C 0.8229 0.66546 0.08672 0.0
C2458 C 0.82687 0.64943 0.07793 0.0
C2459 C 0.83585 0.66508 0.07328 0.0
C2460 C 0.83009 0.67055 0.0805 0.0
C2461 C 0.83458 0.6544 0.07219 0.0
C2462 C 0.82107 0.65492 0.08515 0.0
C2463 C 0.81843 0.67105 0.0955 0.0
O2464 O 0.7985 0.68857 0.1127 0.0
O2465 O 0.8014 0.67471 0.12189 0.0
O2466 O 0.81544 0.66543 0.10336 0.0
O2467 O 0.81213 0.67867 0.09337 0.0
H2468 H 0.81742 0.69432 0.1129 0.0
H2469 H 0.83334 0.69946 0.1213 0.0
H2470 H 0.82062 0.69083 0.15078 0.0
H2471 H 0.80447 0.68595 0.14232 0.0
H2472 H 0.75447 0.67889 0.1128 0.0
H2473 H 0.77221 0.68018 0.10672 0.0
H2474 H 0.75426 0.64655 0.10497 0.0
H2475 H 0.77181 0.64804 0.09849 0.0
H2476 H 0.82574 0.6412 0.0773 0.0
H2477 H 0.8416 0.66916 0.06883 0.0
H2478 H 0.83159 0.67868 0.08157 0.0
H2479 H 0.81552 0.65082 0.08982 0.0
C2480 C 0.59191 0.57359 0.39471 0.0
C2481 C 0.59568 0.58371 0.39437 0.0
C2482 C 0.57835 0.59035 0.39628 0.0
C2483 C 0.58896 0.592 0.39515 0.0
C2484 C 0.57464 0.58026 0.39738 0.0
C2485 C 0.5814 0.5719 0.39654 0.0
U2486 U 0.61454 0.56624 0.37905 0.0
O2487 O 0.62722 0.55516 0.38098 0.0
O2488 O 0.61706 0.55425 0.36747 0.0
C2489 C 0.62449 0.54989 0.37278 0.0
C2490 C 0.5986 0.56515 0.3913 0.0
C2491 C 0.62385 0.53865 0.37405 0.0
C2492 C 0.61445 0.52253 0.37276 0.0
C2493 C 0.61462 0.53327 0.37237 0.0
C2494 C 0.63262 0.52243 0.37692 0.0
C2495 C 0.62349 0.51697 0.37488 0.0
C2496 C 0.63279 0.53315 0.37646 0.0
C2497 C 0.62742 0.58883 0.36515 0.0
C2498 C 0.63793 0.58738 0.34976 0.0
C2499 C 0.63615 0.60384 0.35833 0.0
C2500 C 0.62985 0.5993 0.36575 0.0
C2501 C 0.6401 0.59797 0.35014 0.0
C2502 C 0.63165 0.58283 0.35724 0.0
C2503 C 0.61988 0.58452 0.37238 0.0
O2504 O 0.59803 0.56334 0.38137 0.0
O2505 O 0.60813 0.56547 0.39472 0.0
O2506 O 0.62362 0.58046 0.38085 0.0
O2507 O 0.61256 0.57897 0.36817 0.0
H2508 H 0.60373 0.5852 0.39282 0.0
H2509 H 0.59197 0.59973 0.39429 0.0
H2510 H 0.56646 0.57884 0.39815 0.0
H2511 H 0.57835 0.56415 0.39668 0.0
H2512 H 0.60731 0.51858 0.37107 0.0
H2513 H 0.60758 0.53733 0.37053 0.0
H2514 H 0.63967 0.51841 0.37879 0.0
H2515 H 0.63998 0.53715 0.37781 0.0
H2516 H 0.64094 0.58265 0.3436 0.0
H2517 H 0.63755 0.61204 0.35877 0.0
H2518 H 0.62661 0.60404 0.3718 0.0
H2519 H 0.62988 0.5747 0.35668 0.0
C2520 C 0.69747 0.32598 0.63306 0.0
C2521 C 0.68892 0.33249 0.63414 0.0
C2522 C 0.68004 0.31954 0.64429 0.0
C2523 C 0.68034 0.32933 0.63974 0.0
C2524 C 0.68864 0.31303 0.64329 0.0
C2525 C 0.69731 0.31625 0.63775 0.0
U2526 U 0.70654 0.33816 0.60853 0.0
O2527 O 0.71824 0.34996 0.60543 0.0
O2528 O 0.71933 0.33483 0.59795 0.0
C2529 C 0.72387 0.34369 0.59985 0.0
C2530 C 0.70621 0.32905 0.6265 0.0
C2531 C 0.73482 0.34332 0.60271 0.0
C2532 C 0.74964 0.33452 0.61 0.0
C2533 C 0.73932 0.33444 0.60693 0.0
C2534 C 0.75104 0.35235 0.60474 0.0
C2535 C 0.75561 0.34351 0.60901 0.0
C2536 C 0.74078 0.35222 0.60158 0.0
C2537 C 0.68459 0.34736 0.59058 0.0
C2538 C 0.68045 0.36289 0.58097 0.0
C2539 C 0.67245 0.34671 0.57638 0.0
C2540 C 0.67798 0.34176 0.58414 0.0
C2541 C 0.67333 0.3574 0.57496 0.0
C2542 C 0.68603 0.35792 0.58871 0.0
C2543 C 0.68883 0.34228 0.59981 0.0
O2544 O 0.70709 0.32395 0.61781 0.0
O2545 O 0.70748 0.33903 0.62537 0.0
O2546 O 0.69314 0.34825 0.60674 0.0
O2547 O 0.69377 0.33358 0.59836 0.0
H2548 H 0.68874 0.33997 0.63045 0.0
H2549 H 0.67377 0.33444 0.64017 0.0
H2550 H 0.6886 0.30543 0.64672 0.0
H2551 H 0.70379 0.31108 0.63694 0.0
H2552 H 0.75292 0.32754 0.61314 0.0
H2553 H 0.73486 0.32748 0.60794 0.0
H2554 H 0.75531 0.35947 0.60404 0.0
H2555 H 0.73743 0.35917 0.59841 0.0
H2556 H 0.68127 0.37114 0.58011 0.0
H2557 H 0.66715 0.34223 0.57177 0.0
H2558 H 0.67674 0.33361 0.58541 0.0
H2559 H 0.6911 0.36245 0.59353 0.0
C2560 C 0.61527 0.91743 0.5754 0.0
C2561 C 0.61588 0.91374 0.58553 0.0
C2562 C 0.61408 0.93111 0.5921 0.0
C2563 C 0.61528 0.92052 0.5938 0.0
C2564 C 0.61272 0.93474 0.58201 0.0
C2565 C 0.61338 0.92792 0.57368 0.0
U2566 U 0.63002 0.89425 0.56784 0.0
O2567 O 0.62772 0.88189 0.55646 0.0
O2568 O 0.64163 0.8915 0.55593 0.0
C2569 C 0.6361 0.88438 0.55136 0.0
C2570 C 0.61842 0.91067 0.56692 0.0
C2571 C 0.63501 0.88535 0.54013 0.0
C2572 C 0.63624 0.89531 0.52435 0.0
C2573 C 0.63649 0.89479 0.53509 0.0
C2574 C 0.63262 0.87705 0.52357 0.0
C2575 C 0.63445 0.88642 0.51846 0.0
C2576 C 0.63295 0.87652 0.5343 0.0
C2577 C 0.64342 0.88055 0.59019 0.0
C2578 C 0.65822 0.86931 0.58822 0.0
C2579 C 0.65087 0.87221 0.60511 0.0
C2580 C 0.64341 0.8786 0.60078 0.0
C2581 C 0.65851 0.86768 0.59892 0.0
C2582 C 0.65071 0.87569 0.58388 0.0
C2583 C 0.6364 0.88835 0.58605 0.0
O2584 O 0.62837 0.91085 0.56514 0.0
O2585 O 0.61461 0.90129 0.56716 0.0
O2586 O 0.62785 0.88494 0.58187 0.0
O2587 O 0.64085 0.89566 0.58068 0.0
H2588 H 0.61747 0.9057 0.58703 0.0
H2589 H 0.61634 0.91756 0.60152 0.0
H2590 H 0.61188 0.9429 0.58055 0.0
H2591 H 0.61303 0.93092 0.56591 0.0
H2592 H 0.63777 0.90263 0.52067 0.0
H2593 H 0.63805 0.90174 0.53942 0.0
H2594 H 0.631 0.87009 0.5193 0.0
H2595 H 0.63174 0.86917 0.53804 0.0
H2596 H 0.66393 0.86585 0.58324 0.0
H2597 H 0.65096 0.87126 0.61339 0.0
H2598 H 0.63787 0.88234 0.60575 0.0
H2599 H 0.6508 0.87711 0.57567 0.0
C2600 C 0.11525 0.59181 0.43408 0.0
C2601 C 0.11587 0.5955 0.42395 0.0
C2602 C 0.11407 0.57814 0.41738 0.0
C2603 C 0.11527 0.58873 0.41568 0.0
C2604 C 0.11271 0.5745 0.42747 0.0
C2605 C 0.11337 0.58132 0.4358 0.0
U2606 U 0.13001 0.615 0.44164 0.0
O2607 O 0.12771 0.62736 0.45302 0.0
O2608 O 0.14162 0.61775 0.45356 0.0
C2609 C 0.13608 0.62487 0.45813 0.0
C2610 C 0.11841 0.59857 0.44257 0.0
C2611 C 0.13499 0.6239 0.46936 0.0
C2612 C 0.13623 0.61393 0.48514 0.0
C2613 C 0.13647 0.61445 0.4744 0.0
C2614 C 0.13261 0.6322 0.48591 0.0
C2615 C 0.13443 0.62283 0.49103 0.0
C2616 C 0.13294 0.63272 0.47519 0.0
C2617 C 0.14342 0.6287 0.41929 0.0
C2618 C 0.15821 0.63994 0.42127 0.0
C2619 C 0.15087 0.63704 0.40437 0.0
C2620 C 0.14341 0.63065 0.40871 0.0
C2621 C 0.15851 0.64158 0.41057 0.0
C2622 C 0.15071 0.63356 0.4256 0.0
C2623 C 0.13639 0.62089 0.42343 0.0
O2624 O 0.12836 0.59839 0.44434 0.0
O2625 O 0.1146 0.60795 0.44232 0.0
O2626 O 0.12784 0.6243 0.42762 0.0
O2627 O 0.14084 0.61359 0.42881 0.0
H2628 H 0.11746 0.60355 0.42245 0.0
H2629 H 0.11633 0.59169 0.40796 0.0
H2630 H 0.11187 0.56634 0.42893 0.0
H2631 H 0.11302 0.57832 0.44357 0.0
H2632 H 0.13775 0.60662 0.48881 0.0
H2633 H 0.13803 0.60751 0.47007 0.0
H2634 H 0.13098 0.63915 0.49019 0.0
H2635 H 0.13173 0.64007 0.47144 0.0
H2636 H 0.16393 0.6434 0.42625 0.0
H2637 H 0.15095 0.638 0.3961 0.0
H2638 H 0.13786 0.62691 0.40373 0.0
H2639 H 0.1508 0.63214 0.43382 0.0
C2640 C 0.6908 0.88265 0.69889 0.0
C2641 C 0.69474 0.88838 0.69062 0.0
C2642 C 0.69621 0.87283 0.68034 0.0
C2643 C 0.69749 0.8835 0.68147 0.0
C2644 C 0.69286 0.86702 0.68883 0.0
C2645 C 0.69015 0.87191 0.69804 0.0
U2646 U 0.67471 0.90468 0.70778 0.0
O2647 O 0.66126 0.90535 0.71803 0.0
O2648 O 0.67495 0.91471 0.72138 0.0
C2649 C 0.66599 0.91132 0.72468 0.0
C2650 C 0.6859 0.88794 0.70762 0.0
C2651 C 0.66564 0.90774 0.73541 0.0
C2652 C 0.67372 0.89988 0.75033 0.0
C2653 C 0.67433 0.90347 0.74021 0.0
C2654 C 0.6557 0.90464 0.7509 0.0
C2655 C 0.66439 0.9004 0.7558 0.0
C2656 C 0.65635 0.9083 0.74083 0.0
C2657 C 0.66621 0.92283 0.68572 0.0
C2658 C 0.6501 0.93157 0.6819 0.0
C2659 C 0.66566 0.93627 0.67278 0.0
C2660 C 0.6712 0.92906 0.67849 0.0
C2661 C 0.65498 0.93733 0.67414 0.0
C2662 C 0.65567 0.92437 0.68765 0.0
C2663 C 0.67187 0.91408 0.69016 0.0
O2664 O 0.68967 0.89703 0.71 0.0
O2665 O 0.6758 0.88781 0.70732 0.0
O2666 O 0.6663 0.90623 0.69326 0.0
O2667 O 0.67957 0.91626 0.69635 0.0
H2668 H 0.69523 0.89668 0.69103 0.0
H2669 H 0.70022 0.88817 0.67513 0.0
H2670 H 0.69174 0.85879 0.68817 0.0
H2671 H 0.68702 0.86737 0.70429 0.0
H2672 H 0.68058 0.89678 0.75389 0.0
H2673 H 0.68158 0.90287 0.73614 0.0
H2674 H 0.64834 0.90498 0.75478 0.0
H2675 H 0.64954 0.91148 0.73721 0.0
H2676 H 0.64188 0.93217 0.68311 0.0
H2677 H 0.66967 0.94073 0.66699 0.0
H2678 H 0.67932 0.92803 0.67691 0.0
H2679 H 0.65164 0.91969 0.69325 0.0
C2680 C 0.39359 0.41668 0.93327 0.0
C2681 C 0.39258 0.41331 0.92308 0.0
C2682 C 0.39765 0.43019 0.91679 0.0
C2683 C 0.39461 0.41998 0.91492 0.0
C2684 C 0.399 0.43344 0.92704 0.0
C2685 C 0.39697 0.42673 0.93522 0.0
U2686 U 0.3775 0.39427 0.94107 0.0
O2687 O 0.37956 0.38176 0.95232 0.0
O2688 O 0.36621 0.3921 0.95342 0.0
C2689 C 0.37152 0.38465 0.95774 0.0
C2690 C 0.38996 0.41009 0.9417 0.0
C2691 C 0.37303 0.38532 0.96896 0.0
C2692 C 0.37181 0.39462 0.98515 0.0
C2693 C 0.37124 0.39449 0.97441 0.0
C2694 C 0.37637 0.37655 0.98511 0.0
C2695 C 0.37421 0.3856 0.99063 0.0
C2696 C 0.37574 0.37642 0.97439 0.0
C2697 C 0.36312 0.38081 0.91924 0.0
C2698 C 0.34808 0.36997 0.9217 0.0
C2699 C 0.35552 0.37194 0.90472 0.0
C2700 C 0.3631 0.37838 0.90876 0.0
C2701 C 0.3478 0.36782 0.9111 0.0
C2702 C 0.35571 0.3764 0.92576 0.0
C2703 C 0.37045 0.38849 0.92308 0.0
O2704 O 0.38004 0.41082 0.94348 0.0
O2705 O 0.39324 0.40052 0.94144 0.0
O2706 O 0.37902 0.38488 0.92704 0.0
O2707 O 0.36637 0.39597 0.92851 0.0
H2708 H 0.38981 0.40562 0.92142 0.0
H2709 H 0.39328 0.41725 0.90716 0.0
H2710 H 0.4014 0.44124 0.92873 0.0
H2711 H 0.39771 0.42948 0.94305 0.0
H2712 H 0.37003 0.4017 0.98916 0.0
H2713 H 0.36917 0.4015 0.9704 0.0
H2714 H 0.37845 0.36953 0.98907 0.0
H2715 H 0.37717 0.36927 0.97034 0.0
H2716 H 0.3423 0.36685 0.92682 0.0
H2717 H 0.35545 0.37058 0.8965 0.0
H2718 H 0.36875 0.38175 0.90363 0.0
H2719 H 0.35565 0.37818 0.9339 0.0
C2720 C 0.31935 0.6279 0.69805 0.0
C2721 C 0.31499 0.62199 0.69012 0.0
C2722 C 0.31257 0.63737 0.67975 0.0
C2723 C 0.31157 0.62669 0.68111 0.0
C2724 C 0.31631 0.64336 0.68795 0.0
C2725 C 0.31969 0.63865 0.69703 0.0
U2726 U 0.33771 0.6073 0.70608 0.0
O2727 O 0.35124 0.60761 0.71625 0.0
O2728 O 0.33855 0.59686 0.71935 0.0
C2729 C 0.34718 0.60096 0.7227 0.0
C2730 C 0.32494 0.62285 0.70653 0.0
C2731 C 0.34731 0.60414 0.73356 0.0
C2732 C 0.33883 0.61123 0.74863 0.0
C2733 C 0.33846 0.60804 0.73837 0.0
C2734 C 0.35692 0.60679 0.74933 0.0
C2735 C 0.34808 0.61067 0.75424 0.0
C2736 C 0.35652 0.60353 0.7391 0.0
C2737 C 0.34779 0.59052 0.6838 0.0
C2738 C 0.36438 0.58212 0.68181 0.0
C2739 C 0.35018 0.57748 0.67066 0.0
C2740 C 0.34387 0.58452 0.67575 0.0
C2741 C 0.36056 0.57635 0.67349 0.0
C2742 C 0.35804 0.58912 0.68696 0.0
C2743 C 0.34128 0.59867 0.6882 0.0
O2744 O 0.32212 0.61338 0.70871 0.0
O2745 O 0.33497 0.624 0.70608 0.0
O2746 O 0.34611 0.60693 0.69146 0.0
O2747 O 0.33383 0.59568 0.69434 0.0
H2748 H 0.31468 0.61368 0.69065 0.0
H2749 H 0.30854 0.6219 0.675 0.0
H2750 H 0.31722 0.6516 0.68711 0.0
H2751 H 0.3231 0.64333 0.70301 0.0
H2752 H 0.33185 0.61407 0.75218 0.0
H2753 H 0.33127 0.60865 0.73419 0.0
H2754 H 0.36422 0.60644 0.75332 0.0
H2755 H 0.36344 0.60063 0.73548 0.0
H2756 H 0.37232 0.58133 0.68422 0.0
H2757 H 0.34703 0.57325 0.66421 0.0
H2758 H 0.336 0.58552 0.67319 0.0
H2759 H 0.36121 0.59363 0.69321 0.0
C2760 C 0.89354 0.09262 0.07622 0.0
C2761 C 0.89253 0.09599 0.08641 0.0
C2762 C 0.8976 0.07911 0.09269 0.0
C2763 C 0.89456 0.08932 0.09456 0.0
C2764 C 0.89896 0.07586 0.08245 0.0
C2765 C 0.89693 0.08258 0.07426 0.0
U2766 U 0.87746 0.11504 0.06843 0.0
O2767 O 0.87953 0.12755 0.05718 0.0
O2768 O 0.86618 0.11721 0.05607 0.0
C2769 C 0.87149 0.12467 0.05176 0.0
C2770 C 0.88991 0.09922 0.06779 0.0
C2771 C 0.873 0.12399 0.04054 0.0
C2772 C 0.87179 0.11469 0.02435 0.0
C2773 C 0.87122 0.11482 0.03509 0.0
C2774 C 0.87635 0.13275 0.02439 0.0
C2775 C 0.87419 0.1237 0.01886 0.0
C2776 C 0.87571 0.1329 0.0351 0.0
C2777 C 0.86309 0.1285 0.09025 0.0
C2778 C 0.84806 0.13934 0.0878 0.0
C2779 C 0.8555 0.13737 0.10478 0.0
C2780 C 0.86307 0.13092 0.10074 0.0
C2781 C 0.84778 0.14149 0.0984 0.0
C2782 C 0.85568 0.13291 0.08374 0.0
C2783 C 0.87042 0.12082 0.08642 0.0
O2784 O 0.87999 0.09849 0.06601 0.0
O2785 O 0.8932 0.10879 0.06806 0.0
O2786 O 0.87899 0.12443 0.08246 0.0
O2787 O 0.86634 0.11334 0.08099 0.0
H2788 H 0.88975 0.10367 0.08808 0.0
H2789 H 0.89322 0.09204 0.10233 0.0
H2790 H 0.90136 0.06807 0.08075 0.0
H2791 H 0.89767 0.07983 0.06643 0.0
H2792 H 0.87001 0.10761 0.02034 0.0
H2793 H 0.86914 0.10781 0.03909 0.0
H2794 H 0.87843 0.13978 0.02042 0.0
H2795 H 0.87715 0.14004 0.03915 0.0
H2796 H 0.84228 0.14247 0.08268 0.0
H2797 H 0.85543 0.13873 0.113 0.0
H2798 H 0.86872 0.12756 0.10586 0.0
H2799 H 0.85563 0.13114 0.0756 0.0
C2800 C 0.69083 0.1266 0.81061 0.0
C2801 C 0.69477 0.12087 0.81888 0.0
C2802 C 0.69624 0.13641 0.82917 0.0
C2803 C 0.69751 0.12574 0.82803 0.0
C2804 C 0.69289 0.14223 0.82068 0.0
C2805 C 0.69018 0.13734 0.81147 0.0
U2806 U 0.67473 0.10458 0.80171 0.0
O2807 O 0.66127 0.10391 0.79147 0.0
O2808 O 0.67495 0.09455 0.78812 0.0
C2809 C 0.666 0.09795 0.78482 0.0
C2810 C 0.68592 0.12131 0.80188 0.0
C2811 C 0.66565 0.10152 0.77409 0.0
C2812 C 0.67372 0.10938 0.75917 0.0
C2813 C 0.67433 0.1058 0.76929 0.0
C2814 C 0.65571 0.10462 0.7586 0.0
C2815 C 0.66439 0.10886 0.7537 0.0
C2816 C 0.65635 0.10096 0.76867 0.0
C2817 C 0.66622 0.08642 0.82377 0.0
C2818 C 0.65011 0.07768 0.82758 0.0
C2819 C 0.66566 0.07299 0.83672 0.0
C2820 C 0.67121 0.0802 0.83101 0.0
C2821 C 0.65498 0.07193 0.83535 0.0
C2822 C 0.65569 0.08488 0.82183 0.0
C2823 C 0.67188 0.09518 0.81933 0.0
O2824 O 0.68969 0.11222 0.7995 0.0
O2825 O 0.67582 0.12145 0.80218 0.0
O2826 O 0.66632 0.10303 0.81624 0.0
O2827 O 0.67958 0.093 0.81315 0.0
H2828 H 0.69525 0.11256 0.81847 0.0
H2829 H 0.70024 0.12107 0.83437 0.0
H2830 H 0.69178 0.15045 0.82135 0.0
H2831 H 0.68705 0.14188 0.80522 0.0
H2832 H 0.68059 0.11249 0.75561 0.0
H2833 H 0.68158 0.1064 0.77336 0.0
H2834 H 0.64834 0.10428 0.75471 0.0
H2835 H 0.64954 0.09778 0.77229 0.0
H2836 H 0.64189 0.07708 0.82637 0.0
H2837 H 0.66966 0.06854 0.84252 0.0
H2838 H 0.67933 0.08124 0.8326 0.0
H2839 H 0.65166 0.08956 0.81624 0.0
C2840 C 0.81935 0.88136 0.31141 0.0
C2841 C 0.81498 0.88726 0.31933 0.0
C2842 C 0.81256 0.87189 0.3297 0.0
C2843 C 0.81156 0.88257 0.32834 0.0
C2844 C 0.81631 0.8659 0.32151 0.0
C2845 C 0.81969 0.87061 0.31243 0.0
U2846 U 0.83772 0.90196 0.30339 0.0
O2847 O 0.85125 0.90166 0.29323 0.0
O2848 O 0.83857 0.9124 0.29012 0.0
C2849 C 0.8472 0.90831 0.28677 0.0
C2850 C 0.82495 0.88641 0.30293 0.0
C2851 C 0.84733 0.90514 0.27592 0.0
C2852 C 0.83886 0.89806 0.26083 0.0
C2853 C 0.83849 0.90124 0.2711 0.0
C2854 C 0.85696 0.90248 0.26016 0.0
C2855 C 0.84812 0.89861 0.25524 0.0
C2856 C 0.85655 0.90574 0.27038 0.0
C2857 C 0.8478 0.91873 0.32568 0.0
C2858 C 0.86439 0.92714 0.32768 0.0
C2859 C 0.85018 0.93176 0.33883 0.0
C2860 C 0.84388 0.92472 0.33373 0.0
C2861 C 0.86057 0.9329 0.336 0.0
C2862 C 0.85804 0.92014 0.32253 0.0
C2863 C 0.84129 0.91058 0.32128 0.0
O2864 O 0.82213 0.89589 0.30074 0.0
O2865 O 0.83498 0.88527 0.30338 0.0
O2866 O 0.84611 0.90232 0.31801 0.0
O2867 O 0.83384 0.91358 0.31513 0.0
H2868 H 0.81468 0.89557 0.3188 0.0
H2869 H 0.80853 0.88736 0.33445 0.0
H2870 H 0.81722 0.85766 0.32235 0.0
H2871 H 0.82311 0.86593 0.30644 0.0
H2872 H 0.83189 0.89523 0.25727 0.0
H2873 H 0.83129 0.90064 0.27527 0.0
H2874 H 0.86427 0.90283 0.25617 0.0
H2875 H 0.86348 0.90864 0.27401 0.0
H2876 H 0.87232 0.92793 0.32526 0.0
H2877 H 0.84704 0.936 0.34528 0.0
H2878 H 0.836 0.92373 0.33629 0.0
H2879 H 0.86122 0.91563 0.31627 0.0
C2880 C 0.43558 0.39328 0.08886 0.0
C2881 C 0.42574 0.39403 0.09325 0.0
C2882 C 0.41807 0.39498 0.07626 0.0
C2883 C 0.41707 0.39489 0.08701 0.0
C2884 C 0.42795 0.39509 0.07187 0.0
C2885 C 0.43667 0.39419 0.07815 0.0
U2886 U 0.44308 0.37705 0.111 0.0
O2887 O 0.4546 0.36478 0.11267 0.0
O2888 O 0.45469 0.37797 0.12325 0.0
C2889 C 0.45941 0.36957 0.12017 0.0
C2890 C 0.44415 0.38941 0.09516 0.0
C2891 C 0.47061 0.37032 0.11901 0.0
C2892 C 0.48593 0.37939 0.11334 0.0
C2893 C 0.47521 0.37877 0.11411 0.0
C2894 C 0.48749 0.363 0.12211 0.0
C2895 C 0.49218 0.37153 0.11738 0.0
C2896 C 0.4768 0.36242 0.12292 0.0
C2897 C 0.42026 0.36432 0.12463 0.0
C2898 C 0.42164 0.34918 0.13549 0.0
C2899 C 0.4051 0.35745 0.13306 0.0
C2900 C 0.40972 0.36483 0.12676 0.0
C2901 C 0.41097 0.34941 0.13731 0.0
C2902 C 0.42626 0.3566 0.1292 0.0
C2903 C 0.42466 0.37139 0.11702 0.0
O2904 O 0.44446 0.39274 0.10472 0.0
O2905 O 0.44543 0.37942 0.09443 0.0
O2906 O 0.42966 0.36695 0.10945 0.0
O2907 O 0.42938 0.37954 0.12069 0.0
H2908 H 0.42467 0.3932 0.10148 0.0
H2909 H 0.40953 0.39483 0.09056 0.0
H2910 H 0.42889 0.39507 0.06359 0.0
H2911 H 0.44419 0.39347 0.07461 0.0
H2912 H 0.48933 0.386 0.10957 0.0
H2913 H 0.47052 0.3849 0.11096 0.0
H2914 H 0.49209 0.35689 0.12541 0.0
H2915 H 0.47335 0.35584 0.12671 0.0
H2916 H 0.42638 0.34315 0.13874 0.0
H2917 H 0.39685 0.35777 0.13419 0.0
H2918 H 0.40498 0.37072 0.12325 0.0
H2919 H 0.43444 0.35613 0.12765 0.0
C2920 C 0.37818 0.69953 0.82347 0.0
C2921 C 0.37674 0.69138 0.83042 0.0
C2922 C 0.36775 0.6815 0.81733 0.0
C2923 C 0.37154 0.6825 0.8274 0.0
C2924 C 0.36905 0.68971 0.8104 0.0
C2925 C 0.37418 0.69868 0.81347 0.0
U2926 U 0.40252 0.70956 0.83528 0.0
O2927 O 0.41246 0.72277 0.83144 0.0
O2928 O 0.4056 0.72146 0.84682 0.0
C2929 C 0.41062 0.72732 0.84029 0.0
C2930 C 0.3845 0.70851 0.82636 0.0
C2931 C 0.40677 0.73791 0.83965 0.0
C2932 C 0.39236 0.74975 0.83889 0.0
C2933 C 0.39621 0.73975 0.83837 0.0
C2934 C 0.40966 0.75628 0.84134 0.0
C2935 C 0.39902 0.75809 0.84058 0.0
C2936 C 0.4135 0.74623 0.84093 0.0
C2937 C 0.42067 0.68765 0.84477 0.0
C2938 C 0.43002 0.68349 0.86045 0.0
C2939 C 0.4336 0.67419 0.84472 0.0
C2940 C 0.4264 0.68019 0.8395 0.0
C2941 C 0.43517 0.67548 0.85534 0.0
C2942 C 0.4228 0.68952 0.85522 0.0
C2943 C 0.41157 0.69208 0.83964 0.0
O2944 O 0.38566 0.71002 0.8363 0.0
O2945 O 0.39311 0.70957 0.82116 0.0
O2946 O 0.41308 0.697 0.83092 0.0
O2947 O 0.40463 0.6964 0.84558 0.0
H2948 H 0.37986 0.69171 0.83814 0.0
H2949 H 0.37085 0.67624 0.83286 0.0
H2950 H 0.36619 0.68916 0.8026 0.0
H2951 H 0.37526 0.70484 0.80796 0.0
H2952 H 0.38414 0.75096 0.83818 0.0
H2953 H 0.3909 0.73341 0.8373 0.0
H2954 H 0.41494 0.76258 0.8427 0.0
H2955 H 0.42168 0.74494 0.84192 0.0
H2956 H 0.43105 0.68464 0.86864 0.0
H2957 H 0.4376 0.66819 0.84053 0.0
H2958 H 0.42488 0.67861 0.83146 0.0
H2959 H 0.41851 0.69524 0.85948 0.0
C2960 C 0.07433 0.61733 0.59085 0.0
C2961 C 0.08447 0.61773 0.59454 0.0
C2962 C 0.09102 0.61366 0.57749 0.0
C2963 C 0.09272 0.61589 0.58794 0.0
C2964 C 0.08081 0.61276 0.57394 0.0
C2965 C 0.07253 0.61462 0.58058 0.0
U2966 U 0.0669 0.63319 0.61347 0.0
O2967 O 0.05535 0.64542 0.61528 0.0
O2968 O 0.05507 0.63193 0.62548 0.0
C2969 C 0.05041 0.64042 0.62254 0.0
C2970 C 0.06593 0.62123 0.59731 0.0
C2971 C 0.03922 0.63972 0.62118 0.0
C2972 C 0.02394 0.63073 0.61526 0.0
C2973 C 0.03465 0.6313 0.61621 0.0
C2974 C 0.02233 0.64713 0.62399 0.0
C2975 C 0.01767 0.63863 0.61919 0.0
C2976 C 0.03301 0.64765 0.62498 0.0
C2977 C 0.08927 0.64555 0.62796 0.0
C2978 C 0.08721 0.66012 0.63946 0.0
C2979 C 0.10406 0.65255 0.6369 0.0
C2980 C 0.09979 0.64531 0.63021 0.0
C2981 C 0.09786 0.66018 0.64142 0.0
C2982 C 0.08294 0.65284 0.63279 0.0
C2983 C 0.08518 0.63867 0.62002 0.0
O2984 O 0.06565 0.61767 0.60678 0.0
O2985 O 0.0648 0.63126 0.59681 0.0
O2986 O 0.08036 0.6433 0.61244 0.0
O2987 O 0.08041 0.6304 0.62333 0.0
H2988 H 0.08602 0.61999 0.60241 0.0
H2989 H 0.10045 0.61684 0.59091 0.0
H2990 H 0.07924 0.61096 0.56596 0.0
H2991 H 0.06475 0.61437 0.57759 0.0
H2992 H 0.02057 0.62414 0.61145 0.0
H2993 H 0.03936 0.62514 0.61313 0.0
H2994 H 0.01771 0.65326 0.62722 0.0
H2995 H 0.03642 0.65422 0.62883 0.0
H2996 H 0.08222 0.66584 0.6429 0.0
H2997 H 0.1123 0.65247 0.63812 0.0
H2998 H 0.10477 0.63975 0.62652 0.0
H2999 H 0.07477 0.65309 0.63115 0.0
C3000 C 0.13163 0.31176 0.3255 0.0
C3001 C 0.1335 0.32002 0.33221 0.0
C3002 C 0.14272 0.32915 0.31874 0.0
C3003 C 0.13903 0.32858 0.32888 0.0
C3004 C 0.14094 0.32085 0.31204 0.0
C3005 C 0.13547 0.3122 0.31541 0.0
U3006 U 0.1078 0.30257 0.33903 0.0
O3007 O 0.09712 0.28979 0.33577 0.0
O3008 O 0.1052 0.29056 0.35059 0.0
C3009 C 0.09946 0.28501 0.34438 0.0
C3010 C 0.12515 0.30305 0.3288 0.0
C3011 C 0.10283 0.27429 0.34328 0.0
C3012 C 0.11657 0.26193 0.34064 0.0
C3013 C 0.11307 0.27208 0.34068 0.0
C3014 C 0.09949 0.25603 0.34528 0.0
C3015 C 0.10986 0.25382 0.34312 0.0
C3016 C 0.09601 0.26622 0.3454 0.0
C3017 C 0.09084 0.32451 0.35011 0.0
C3018 C 0.08176 0.32728 0.36625 0.0
C3019 C 0.07742 0.33746 0.35125 0.0
C3020 C 0.08479 0.33216 0.34552 0.0
C3021 C 0.07599 0.33525 0.36175 0.0
C3022 C 0.0891 0.32193 0.36048 0.0
C3023 C 0.09958 0.32023 0.34427 0.0
O3024 O 0.12466 0.30152 0.33879 0.0
O3025 O 0.11613 0.30244 0.32425 0.0
O3026 O 0.09741 0.31554 0.33557 0.0
O3027 O 0.10683 0.31564 0.34963 0.0
H3028 H 0.13049 0.32 0.33998 0.0
H3029 H 0.14009 0.33494 0.33417 0.0
H3030 H 0.1437 0.3211 0.30418 0.0
H3031 H 0.13405 0.30594 0.3101 0.0
H3032 H 0.12456 0.26043 0.33884 0.0
H3033 H 0.11842 0.27824 0.33896 0.0
H3034 H 0.09418 0.24993 0.34727 0.0
H3035 H 0.08808 0.26781 0.34742 0.0
H3036 H 0.08074 0.32533 0.37429 0.0
H3037 H 0.0732 0.34364 0.34758 0.0
H3038 H 0.08605 0.33433 0.33757 0.0
H3039 H 0.09364 0.31603 0.36423 0.0
C3040 C 0.43556 0.61594 0.42074 0.0
C3041 C 0.42573 0.61518 0.41633 0.0
C3042 C 0.41802 0.61423 0.43331 0.0
C3043 C 0.41705 0.6143 0.42255 0.0
C3044 C 0.42789 0.61412 0.43772 0.0
C3045 C 0.43663 0.61503 0.43145 0.0
U3046 U 0.44309 0.6322 0.39863 0.0
O3047 O 0.45462 0.64446 0.39699 0.0
O3048 O 0.4547 0.63129 0.38639 0.0
C3049 C 0.45943 0.63969 0.38949 0.0
C3050 C 0.44414 0.61982 0.41446 0.0
C3051 C 0.47063 0.63894 0.39064 0.0
C3052 C 0.48594 0.62985 0.39629 0.0
C3053 C 0.47523 0.63048 0.39553 0.0
C3054 C 0.48751 0.64625 0.38754 0.0
C3055 C 0.4922 0.63772 0.39226 0.0
C3056 C 0.47682 0.64684 0.38674 0.0
C3057 C 0.42028 0.64494 0.385 0.0
C3058 C 0.42167 0.66008 0.37415 0.0
C3059 C 0.40513 0.6518 0.37656 0.0
C3060 C 0.40974 0.64443 0.38286 0.0
C3061 C 0.411 0.65985 0.37231 0.0
C3062 C 0.42628 0.65266 0.38043 0.0
C3063 C 0.42468 0.63786 0.39261 0.0
O3064 O 0.44446 0.61649 0.40489 0.0
O3065 O 0.44543 0.62981 0.41521 0.0
O3066 O 0.42968 0.64229 0.40019 0.0
O3067 O 0.42939 0.62971 0.38893 0.0
H3068 H 0.42468 0.616 0.4081 0.0
H3069 H 0.40951 0.61435 0.41899 0.0
H3070 H 0.42881 0.61415 0.446 0.0
H3071 H 0.44413 0.61576 0.43501 0.0
H3072 H 0.48934 0.62323 0.40004 0.0
H3073 H 0.47054 0.62435 0.39868 0.0
H3074 H 0.49211 0.65236 0.38424 0.0
H3075 H 0.47337 0.65343 0.38296 0.0
H3076 H 0.42641 0.66611 0.3709 0.0
H3077 H 0.39688 0.65148 0.37542 0.0
H3078 H 0.405 0.63853 0.38636 0.0
H3079 H 0.43446 0.65313 0.38199 0.0
C3080 C 0.13166 0.69749 0.18398 0.0
C3081 C 0.13352 0.68923 0.17727 0.0
C3082 C 0.14274 0.6801 0.19073 0.0
C3083 C 0.13905 0.68067 0.18059 0.0
C3084 C 0.14096 0.6884 0.19744 0.0
C3085 C 0.13549 0.69705 0.19406 0.0
U3086 U 0.10782 0.70668 0.17045 0.0
O3087 O 0.09714 0.71945 0.17371 0.0
O3088 O 0.10522 0.71869 0.15889 0.0
C3089 C 0.09948 0.72424 0.1651 0.0
C3090 C 0.12517 0.7062 0.18068 0.0
C3091 C 0.10285 0.73496 0.16621 0.0
C3092 C 0.11659 0.74732 0.16884 0.0
C3093 C 0.11309 0.73717 0.1688 0.0
C3094 C 0.09951 0.75322 0.16421 0.0
C3095 C 0.10988 0.75543 0.16637 0.0
C3096 C 0.09603 0.74303 0.16408 0.0
C3097 C 0.09086 0.68474 0.15937 0.0
C3098 C 0.08177 0.68196 0.14324 0.0
C3099 C 0.07744 0.67178 0.15823 0.0
C3100 C 0.08481 0.67709 0.16397 0.0
C3101 C 0.07601 0.67399 0.14774 0.0
C3102 C 0.08912 0.68731 0.149 0.0
C3103 C 0.0996 0.68902 0.16521 0.0
O3104 O 0.12468 0.70773 0.17069 0.0
O3105 O 0.11616 0.70681 0.18523 0.0
O3106 O 0.09743 0.69371 0.17391 0.0
O3107 O 0.10684 0.69361 0.15985 0.0
H3108 H 0.13051 0.68926 0.16949 0.0
H3109 H 0.1401 0.67432 0.1753 0.0
H3110 H 0.14372 0.68815 0.2053 0.0
H3111 H 0.13407 0.70331 0.19938 0.0
H3112 H 0.12458 0.74882 0.17065 0.0
H3113 H 0.11844 0.73102 0.17053 0.0
H3114 H 0.09419 0.75932 0.16222 0.0
H3115 H 0.0881 0.74144 0.16206 0.0
H3116 H 0.08076 0.68391 0.1352 0.0
H3117 H 0.07321 0.66561 0.1619 0.0
H3118 H 0.08607 0.67491 0.17192 0.0
H3119 H 0.09366 0.69321 0.14525 0.0
C3120 C 0.07434 0.39193 0.91863 0.0
C3121 C 0.08448 0.39153 0.91494 0.0
C3122 C 0.09103 0.3956 0.93199 0.0
C3123 C 0.09273 0.39337 0.92154 0.0
C3124 C 0.08083 0.3965 0.93554 0.0
C3125 C 0.07254 0.39464 0.9289 0.0
U3126 U 0.0669 0.37607 0.89601 0.0
O3127 O 0.05535 0.36384 0.89421 0.0
O3128 O 0.05508 0.37732 0.884 0.0
C3129 C 0.05041 0.36883 0.88694 0.0
C3130 C 0.06593 0.38803 0.91217 0.0
C3131 C 0.03922 0.36953 0.8883 0.0
C3132 C 0.02395 0.37853 0.89422 0.0
C3133 C 0.03466 0.37796 0.89327 0.0
C3134 C 0.02233 0.36213 0.88549 0.0
C3135 C 0.01767 0.37063 0.89029 0.0
C3136 C 0.03301 0.3616 0.8845 0.0
C3137 C 0.08927 0.3637 0.88153 0.0
C3138 C 0.08722 0.34913 0.87004 0.0
C3139 C 0.10407 0.35671 0.8726 0.0
C3140 C 0.0998 0.36394 0.87929 0.0
C3141 C 0.09787 0.34907 0.86809 0.0
C3142 C 0.08295 0.35641 0.87671 0.0
C3143 C 0.08518 0.37058 0.88947 0.0
O3144 O 0.06566 0.39159 0.9027 0.0
O3145 O 0.06481 0.378 0.91267 0.0
O3146 O 0.08036 0.36595 0.89705 0.0
O3147 O 0.08041 0.37886 0.88615 0.0
H3148 H 0.08603 0.38927 0.90707 0.0
H3149 H 0.10046 0.39243 0.91856 0.0
H3150 H 0.07925 0.3983 0.94351 0.0
H3151 H 0.06477 0.39489 0.93189 0.0
H3152 H 0.02058 0.38512 0.89802 0.0
H3153 H 0.03936 0.38411 0.89635 0.0
H3154 H 0.0177 0.356 0.88226 0.0
H3155 H 0.03642 0.35504 0.88066 0.0
H3156 H 0.08224 0.3434 0.8666 0.0
H3157 H 0.11231 0.35679 0.87138 0.0
H3158 H 0.10478 0.36952 0.88298 0.0
H3159 H 0.07478 0.35615 0.87835 0.0
C3160 C 0.3782 0.30969 0.68605 0.0
C3161 C 0.37679 0.31784 0.67909 0.0
C3162 C 0.36781 0.32773 0.69217 0.0
C3163 C 0.3716 0.32673 0.6821 0.0
C3164 C 0.36908 0.31951 0.6991 0.0
C3165 C 0.3742 0.31054 0.69604 0.0
U3166 U 0.40253 0.29964 0.67422 0.0
O3167 O 0.41247 0.28644 0.67807 0.0
O3168 O 0.40559 0.28773 0.66269 0.0
C3169 C 0.41062 0.28188 0.66923 0.0
C3170 C 0.38452 0.3007 0.68316 0.0
C3171 C 0.40677 0.27128 0.66988 0.0
C3172 C 0.39236 0.25944 0.67065 0.0
C3173 C 0.39621 0.26944 0.67117 0.0
C3174 C 0.40966 0.25292 0.66818 0.0
C3175 C 0.39903 0.2511 0.66896 0.0
C3176 C 0.41351 0.26297 0.66858 0.0
C3177 C 0.42067 0.32155 0.66469 0.0
C3178 C 0.43 0.3257 0.64899 0.0
C3179 C 0.4336 0.33502 0.66472 0.0
C3180 C 0.4264 0.32902 0.66995 0.0
C3181 C 0.43516 0.33372 0.65409 0.0
C3182 C 0.42279 0.31967 0.65424 0.0
C3183 C 0.41158 0.31712 0.66984 0.0
O3184 O 0.38567 0.29918 0.67322 0.0
O3185 O 0.39313 0.29965 0.68835 0.0
O3186 O 0.4131 0.31221 0.67855 0.0
O3187 O 0.40463 0.31279 0.66391 0.0
H3188 H 0.37992 0.3175 0.67138 0.0
H3189 H 0.37093 0.33299 0.67665 0.0
H3190 H 0.36621 0.32007 0.7069 0.0
H3191 H 0.37527 0.30438 0.70155 0.0
H3192 H 0.38415 0.25823 0.67138 0.0
H3193 H 0.39091 0.27578 0.67225 0.0
H3194 H 0.41494 0.24662 0.66681 0.0
H3195 H 0.42168 0.26427 0.66758 0.0
H3196 H 0.43103 0.32453 0.64081 0.0
H3197 H 0.4376 0.34102 0.66889 0.0
H3198 H 0.42489 0.33061 0.67799 0.0
H3199 H 0.41849 0.31394 0.64999 0.0
C3200 C 0.09061 0.43494 0.39269 0.0
C3201 C 0.09431 0.42481 0.39239 0.0
C3202 C 0.07724 0.41827 0.39637 0.0
C3203 C 0.08771 0.41656 0.39424 0.0
C3204 C 0.07367 0.42847 0.39718 0.0
C3205 C 0.08032 0.43675 0.39531 0.0
U3206 U 0.11308 0.44223 0.37656 0.0
O3207 O 0.11483 0.45375 0.3643 0.0
O3208 O 0.12521 0.45395 0.37766 0.0
C3209 C 0.1222 0.45863 0.3692 0.0
C3210 C 0.09707 0.44332 0.38872 0.0
C3211 C 0.12093 0.46983 0.36991 0.0
C3212 C 0.11499 0.4851 0.37887 0.0
C3213 C 0.11589 0.47439 0.37829 0.0
C3214 C 0.12393 0.48671 0.36258 0.0
C3215 C 0.11905 0.49137 0.37103 0.0
C3216 C 0.12487 0.47603 0.36205 0.0
C3217 C 0.12717 0.4197 0.36402 0.0
C3218 C 0.13828 0.42151 0.34912 0.0
C3219 C 0.13593 0.4048 0.35705 0.0
C3220 C 0.12944 0.40919 0.36439 0.0
C3221 C 0.14023 0.41087 0.34919 0.0
C3222 C 0.13181 0.42591 0.3565 0.0
C3223 C 0.11938 0.42389 0.37101 0.0
O3224 O 0.10659 0.44354 0.39217 0.0
O3225 O 0.09646 0.44447 0.3787 0.0
O3226 O 0.11178 0.42878 0.36648 0.0
O3227 O 0.12286 0.42864 0.37923 0.0
H3228 H 0.1022 0.42325 0.39019 0.0
H3229 H 0.0907 0.40884 0.39337 0.0
H3230 H 0.06568 0.43005 0.3989 0.0
H3231 H 0.07731 0.44452 0.39547 0.0
H3232 H 0.11111 0.48848 0.38542 0.0
H3233 H 0.11271 0.46969 0.3844 0.0
H3234 H 0.12726 0.49133 0.35649 0.0
H3235 H 0.12878 0.47261 0.35552 0.0
H3236 H 0.14157 0.42639 0.34322 0.0
H3237 H 0.13716 0.39656 0.35724 0.0
H3238 H 0.12589 0.4043 0.37014 0.0
H3239 H 0.13016 0.43407 0.35615 0.0
C3240 C 0.3101 0.32408 0.13031 0.0
C3241 C 0.31825 0.33107 0.1316 0.0
C3242 C 0.3281 0.31822 0.14096 0.0
C3243 C 0.32711 0.32819 0.13691 0.0
C3244 C 0.3199 0.31125 0.1398 0.0
C3245 C 0.31095 0.31418 0.13455 0.0
U3246 U 0.3 0.33552 0.1058 0.0
O3247 O 0.28682 0.33144 0.09592 0.0
O3248 O 0.28799 0.34691 0.1026 0.0
C3249 C 0.28218 0.34026 0.09767 0.0
C3250 C 0.30112 0.32683 0.12393 0.0
C3251 C 0.2716 0.33956 0.10156 0.0
C3252 C 0.25983 0.33877 0.11602 0.0
C3253 C 0.26982 0.33829 0.11213 0.0
C3254 C 0.2532 0.34117 0.09875 0.0
C3255 C 0.25145 0.34041 0.1094 0.0
C3256 C 0.26324 0.34081 0.09486 0.0
C3257 C 0.32179 0.34501 0.08749 0.0
C3258 C 0.32581 0.36062 0.07795 0.0
C3259 C 0.33512 0.34488 0.07443 0.0
C3260 C 0.32921 0.33971 0.08175 0.0
C3261 C 0.33378 0.35548 0.07276 0.0
C3262 C 0.31986 0.35543 0.08528 0.0
C3263 C 0.31743 0.33994 0.09667 0.0
O3264 O 0.29954 0.33674 0.12264 0.0
O3265 O 0.30013 0.32152 0.11538 0.0
O3266 O 0.3126 0.33117 0.09528 0.0
O3267 O 0.31306 0.34593 0.10355 0.0
H3268 H 0.31791 0.33871 0.12828 0.0
H3269 H 0.33336 0.33367 0.13749 0.0
H3270 H 0.32045 0.30352 0.14285 0.0
H3271 H 0.30479 0.30865 0.13358 0.0
H3272 H 0.25866 0.33805 0.12425 0.0
H3273 H 0.27619 0.33724 0.1174 0.0
H3274 H 0.24687 0.3425 0.0935 0.0
H3275 H 0.2645 0.34179 0.08668 0.0
H3276 H 0.32461 0.36879 0.07685 0.0
H3277 H 0.34109 0.34067 0.07041 0.0
H3278 H 0.33083 0.33169 0.08332 0.0
H3279 H 0.31416 0.35972 0.08959 0.0
C3280 C 0.41809 0.57351 0.8928 0.0
C3281 C 0.41372 0.58337 0.89349 0.0
C3282 C 0.43073 0.59098 0.89456 0.0
C3283 C 0.41999 0.59201 0.89439 0.0
C3284 C 0.43509 0.58109 0.89474 0.0
C3285 C 0.42878 0.57239 0.89381 0.0
U3286 U 0.39607 0.56599 0.8764 0.0
O3287 O 0.3945 0.55446 0.86414 0.0
O3288 O 0.38383 0.55435 0.87726 0.0
C3289 C 0.387 0.54963 0.86889 0.0
C3290 C 0.41178 0.56496 0.88892 0.0
C3291 C 0.38826 0.53844 0.86969 0.0
C3292 C 0.39453 0.52326 0.87859 0.0
C3293 C 0.39341 0.53395 0.87805 0.0
C3294 C 0.38552 0.52152 0.86235 0.0
C3295 C 0.3906 0.51694 0.87074 0.0
C3296 C 0.38436 0.53218 0.86185 0.0
C3297 C 0.38271 0.58883 0.86336 0.0
C3298 C 0.37231 0.58758 0.84789 0.0
C3299 C 0.37448 0.60404 0.85637 0.0
C3300 C 0.38056 0.59936 0.86389 0.0
C3301 C 0.37048 0.59824 0.84815 0.0
C3302 C 0.37837 0.5829 0.85546 0.0
C3303 C 0.39018 0.58439 0.87057 0.0
O3304 O 0.40219 0.56469 0.89216 0.0
O3305 O 0.41261 0.56361 0.87894 0.0
O3306 O 0.3978 0.57936 0.86627 0.0
O3307 O 0.38635 0.57971 0.87868 0.0
H3308 H 0.4055 0.58446 0.89258 0.0
H3309 H 0.41646 0.59956 0.89428 0.0
H3310 H 0.44336 0.58012 0.8948 0.0
H3311 H 0.4323 0.56486 0.89315 0.0
H3312 H 0.39855 0.51995 0.8851 0.0
H3313 H 0.39656 0.5387 0.88413 0.0
H3314 H 0.38229 0.51685 0.85625 0.0
H3315 H 0.38039 0.53554 0.85533 0.0
H3316 H 0.36925 0.5829 0.84172 0.0
H3317 H 0.37334 0.61228 0.85673 0.0
H3318 H 0.38389 0.60405 0.86993 0.0
H3319 H 0.37995 0.57473 0.85496 0.0
C3320 C 0.19626 0.68545 0.63198 0.0
C3321 C 0.18809 0.6786 0.63374 0.0
C3322 C 0.17889 0.69171 0.64339 0.0
C3323 C 0.17954 0.68168 0.63943 0.0
C3324 C 0.18708 0.69857 0.64167 0.0
C3325 C 0.19573 0.69544 0.63605 0.0
U3326 U 0.20563 0.67243 0.60792 0.0
O3327 O 0.21845 0.67599 0.59739 0.0
O3328 O 0.21771 0.66101 0.60515 0.0
C3329 C 0.22327 0.66737 0.59959 0.0
C3330 C 0.20499 0.68239 0.62541 0.0
C3331 C 0.23397 0.66843 0.60305 0.0
C3332 C 0.24626 0.66992 0.61703 0.0
C3333 C 0.23612 0.67014 0.61349 0.0
C3334 C 0.25228 0.66697 0.59962 0.0
C3335 C 0.25441 0.66813 0.61016 0.0
C3336 C 0.2421 0.66706 0.5961 0.0
C3337 C 0.18394 0.66109 0.59084 0.0
C3338 C 0.18157 0.64492 0.58172 0.0
C3339 C 0.17101 0.65966 0.57743 0.0
C3340 C 0.17617 0.66551 0.58481 0.0
C3341 C 0.17348 0.64923 0.57598 0.0
C3342 C 0.18679 0.65081 0.58907 0.0
C3343 C 0.18806 0.667 0.59962 0.0
O3344 O 0.20668 0.67244 0.62478 0.0
O3345 O 0.20552 0.68709 0.61646 0.0
O3346 O 0.19264 0.67577 0.5975 0.0
O3347 O 0.19268 0.66169 0.60687 0.0
H3348 H 0.18818 0.6709 0.63055 0.0
H3349 H 0.17326 0.67629 0.64043 0.0
H3350 H 0.18677 0.70635 0.64463 0.0
H3351 H 0.20191 0.70086 0.63471 0.0
H3352 H 0.24772 0.67094 0.62517 0.0
H3353 H 0.22994 0.67129 0.61896 0.0
H3354 H 0.25843 0.66552 0.5942 0.0
H3355 H 0.24056 0.66574 0.58801 0.0
H3356 H 0.18372 0.63694 0.58069 0.0
H3357 H 0.16473 0.66317 0.57322 0.0
H3358 H 0.17379 0.6734 0.58609 0.0
H3359 H 0.19279 0.6472 0.59359 0.0
C3360 C 0.0906 0.57429 0.11679 0.0
C3361 C 0.0943 0.58443 0.11709 0.0
C3362 C 0.07722 0.59097 0.11311 0.0
C3363 C 0.0877 0.59267 0.11524 0.0
C3364 C 0.07366 0.58076 0.11231 0.0
C3365 C 0.0803 0.57249 0.11417 0.0
U3366 U 0.11306 0.56701 0.13291 0.0
O3367 O 0.11482 0.55549 0.14517 0.0
O3368 O 0.12519 0.5553 0.13181 0.0
C3369 C 0.12219 0.55061 0.14027 0.0
C3370 C 0.09705 0.56592 0.12076 0.0
C3371 C 0.12092 0.53942 0.13956 0.0
C3372 C 0.11498 0.52414 0.13061 0.0
C3373 C 0.11587 0.53485 0.13118 0.0
C3374 C 0.12392 0.52254 0.1469 0.0
C3375 C 0.11904 0.51787 0.13845 0.0
C3376 C 0.12486 0.53321 0.14743 0.0
C3377 C 0.12716 0.58954 0.14545 0.0
C3378 C 0.13828 0.58774 0.16035 0.0
C3379 C 0.13592 0.60445 0.15242 0.0
C3380 C 0.12943 0.60006 0.14508 0.0
C3381 C 0.14023 0.59838 0.16028 0.0
C3382 C 0.1318 0.58334 0.15297 0.0
C3383 C 0.11937 0.58535 0.13846 0.0
O3384 O 0.10657 0.5657 0.11731 0.0
O3385 O 0.09645 0.56477 0.13078 0.0
O3386 O 0.11177 0.58046 0.14299 0.0
O3387 O 0.12285 0.5806 0.13024 0.0
H3388 H 0.10219 0.58599 0.11928 0.0
H3389 H 0.09069 0.6004 0.11611 0.0
H3390 H 0.06566 0.57919 0.11059 0.0
H3391 H 0.07729 0.56472 0.11401 0.0
H3392 H 0.1111 0.52076 0.12405 0.0
H3393 H 0.11269 0.53955 0.12508 0.0
H3394 H 0.12725 0.51792 0.15298 0.0
H3395 H 0.12876 0.53663 0.15396 0.0
H3396 H 0.14156 0.58286 0.16625 0.0
H3397 H 0.13715 0.61269 0.15222 0.0
H3398 H 0.12588 0.60495 0.13933 0.0
H3399 H 0.13015 0.57518 0.15332 0.0
C3400 C 0.19629 0.32383 0.87752 0.0
C3401 C 0.18812 0.33068 0.87576 0.0
C3402 C 0.17892 0.31758 0.86611 0.0
C3403 C 0.17957 0.32761 0.87007 0.0
C3404 C 0.18711 0.31072 0.86783 0.0
C3405 C 0.19576 0.31385 0.87345 0.0
U3406 U 0.20566 0.33686 0.90158 0.0
O3407 O 0.21848 0.3333 0.91212 0.0
O3408 O 0.21774 0.34828 0.90435 0.0
C3409 C 0.2233 0.34192 0.90991 0.0
C3410 C 0.20503 0.32689 0.88409 0.0
C3411 C 0.234 0.34086 0.90646 0.0
C3412 C 0.24629 0.33936 0.89248 0.0
C3413 C 0.23616 0.33914 0.89602 0.0
C3414 C 0.25231 0.34234 0.90989 0.0
C3415 C 0.25444 0.34117 0.89935 0.0
C3416 C 0.24213 0.34224 0.91341 0.0
C3417 C 0.18397 0.34819 0.91865 0.0
C3418 C 0.1816 0.36436 0.92776 0.0
C3419 C 0.17103 0.34963 0.93206 0.0
C3420 C 0.1762 0.34377 0.92468 0.0
C3421 C 0.1735 0.36006 0.9335 0.0
C3422 C 0.18681 0.35848 0.92042 0.0
C3423 C 0.18809 0.34229 0.90988 0.0
O3424 O 0.20671 0.33685 0.88472 0.0
O3425 O 0.20555 0.3222 0.89304 0.0
O3426 O 0.19267 0.33352 0.91199 0.0
O3427 O 0.19272 0.3476 0.90262 0.0
H3428 H 0.18822 0.33838 0.87895 0.0
H3429 H 0.17329 0.333 0.86907 0.0
H3430 H 0.1868 0.30294 0.86487 0.0
H3431 H 0.20195 0.30843 0.87479 0.0
H3432 H 0.24775 0.33834 0.88434 0.0
H3433 H 0.22997 0.33799 0.89055 0.0
H3434 H 0.25846 0.3438 0.91531 0.0
H3435 H 0.24058 0.34357 0.92149 0.0
H3436 H 0.18374 0.37235 0.92879 0.0
H3437 H 0.16476 0.34611 0.93627 0.0
H3438 H 0.17382 0.33589 0.9234 0.0
H3439 H 0.19281 0.36209 0.9159 0.0
C3440 C 0.41821 0.43574 0.61666 0.0
C3441 C 0.41382 0.42589 0.61596 0.0
C3442 C 0.43082 0.41825 0.61487 0.0
C3443 C 0.42007 0.41724 0.61505 0.0
C3444 C 0.43519 0.42813 0.61471 0.0
C3445 C 0.42891 0.43684 0.61565 0.0
U3446 U 0.39623 0.44327 0.6331 0.0
O3447 O 0.39469 0.4548 0.64536 0.0
O3448 O 0.384 0.45491 0.63226 0.0
C3449 C 0.38718 0.45964 0.64062 0.0
C3450 C 0.41193 0.4443 0.62055 0.0
C3451 C 0.38844 0.47082 0.63982 0.0
C3452 C 0.39466 0.48601 0.63091 0.0
C3453 C 0.39357 0.47532 0.63146 0.0
C3454 C 0.38569 0.48774 0.64717 0.0
C3455 C 0.39074 0.49233 0.63877 0.0
C3456 C 0.38455 0.47708 0.64767 0.0
C3457 C 0.38288 0.42043 0.64615 0.0
C3458 C 0.3725 0.42168 0.66163 0.0
C3459 C 0.37465 0.40522 0.65314 0.0
C3460 C 0.38072 0.4099 0.64561 0.0
C3461 C 0.37066 0.41101 0.66136 0.0
C3462 C 0.37855 0.42636 0.65406 0.0
C3463 C 0.39034 0.42487 0.63893 0.0
O3464 O 0.40233 0.44457 0.61732 0.0
O3465 O 0.41277 0.44564 0.63053 0.0
O3466 O 0.39797 0.42991 0.64323 0.0
O3467 O 0.38651 0.42955 0.63083 0.0
H3468 H 0.4056 0.42481 0.61686 0.0
H3469 H 0.41653 0.40969 0.61514 0.0
H3470 H 0.44347 0.42908 0.61466 0.0
H3471 H 0.43244 0.44436 0.61632 0.0
H3472 H 0.39866 0.48934 0.62439 0.0
H3473 H 0.39671 0.47058 0.62537 0.0
H3474 H 0.38246 0.4924 0.65327 0.0
H3475 H 0.38059 0.47371 0.65419 0.0
H3476 H 0.36944 0.42635 0.66781 0.0
H3477 H 0.37351 0.39698 0.65277 0.0
H3478 H 0.38405 0.40521 0.63957 0.0
H3479 H 0.38013 0.43453 0.65456 0.0
C3480 C 0.31011 0.6852 0.37917 0.0
C3481 C 0.31826 0.6782 0.3779 0.0
C3482 C 0.32812 0.69104 0.36854 0.0
C3483 C 0.32713 0.68107 0.37261 0.0
C3484 C 0.31993 0.69801 0.36968 0.0
C3485 C 0.31097 0.69509 0.37492 0.0
U3486 U 0.29997 0.67375 0.40367 0.0
O3487 O 0.2868 0.67784 0.41354 0.0
O3488 O 0.28794 0.66238 0.40686 0.0
C3489 C 0.28214 0.66903 0.41179 0.0
C3490 C 0.30112 0.68246 0.38554 0.0
C3491 C 0.27157 0.66975 0.4079 0.0
C3492 C 0.2598 0.67056 0.39343 0.0
C3493 C 0.26979 0.67103 0.39733 0.0
C3494 C 0.25317 0.66814 0.4107 0.0
C3495 C 0.25142 0.66891 0.40005 0.0
C3496 C 0.26321 0.6685 0.41459 0.0
C3497 C 0.32175 0.66423 0.42197 0.0
C3498 C 0.32575 0.64862 0.43151 0.0
C3499 C 0.33509 0.66435 0.43504 0.0
C3500 C 0.32918 0.66952 0.42772 0.0
C3501 C 0.33373 0.65375 0.4367 0.0
C3502 C 0.31981 0.65381 0.42418 0.0
C3503 C 0.3174 0.66931 0.4128 0.0
O3504 O 0.29952 0.67255 0.38682 0.0
O3505 O 0.30013 0.68776 0.39409 0.0
O3506 O 0.31258 0.67809 0.41419 0.0
O3507 O 0.31302 0.66334 0.40592 0.0
H3508 H 0.31791 0.67057 0.38123 0.0
H3509 H 0.33338 0.67559 0.37204 0.0
H3510 H 0.32049 0.70573 0.36661 0.0
H3511 H 0.30481 0.70062 0.37586 0.0
H3512 H 0.25863 0.67128 0.38521 0.0
H3513 H 0.27616 0.67207 0.39206 0.0
H3514 H 0.24684 0.66681 0.41595 0.0
H3515 H 0.26446 0.66751 0.42277 0.0
H3516 H 0.32454 0.64045 0.43261 0.0
H3517 H 0.34106 0.66854 0.43906 0.0
H3518 H 0.33082 0.67754 0.42615 0.0
H3519 H 0.3141 0.64953 0.41987 0.0
C3520 C 0.39175 0.09075 0.43486 0.0
C3521 C 0.39141 0.09444 0.42472 0.0
C3522 C 0.3954 0.07737 0.41819 0.0
C3523 C 0.39324 0.08783 0.41648 0.0
C3524 C 0.39623 0.07381 0.4284 0.0
C3525 C 0.39439 0.08046 0.43667 0.0
U3526 U 0.37595 0.11342 0.44224 0.0
O3527 O 0.36373 0.11529 0.45379 0.0
O3528 O 0.37724 0.12546 0.45403 0.0
C3529 C 0.36875 0.12255 0.45871 0.0
C3530 C 0.38786 0.09723 0.44325 0.0
C3531 C 0.36945 0.12122 0.4699 0.0
C3532 C 0.37842 0.11524 0.48517 0.0
C3533 C 0.37785 0.11618 0.47446 0.0
C3534 C 0.36209 0.1241 0.48679 0.0
C3535 C 0.37056 0.11923 0.49145 0.0
C3536 C 0.36156 0.12509 0.47612 0.0
C3537 C 0.3636 0.12787 0.41983 0.0
C3538 C 0.34898 0.13931 0.42179 0.0
C3539 C 0.3567 0.13682 0.405 0.0
C3540 C 0.36392 0.13015 0.40931 0.0
C3541 C 0.349 0.1413 0.41115 0.0
C3542 C 0.35625 0.13266 0.42611 0.0
C3543 C 0.37047 0.11993 0.42395 0.0
O3544 O 0.39145 0.10669 0.44351 0.0
O3545 O 0.37783 0.09677 0.44438 0.0
O3546 O 0.36582 0.11237 0.42879 0.0
O3547 O 0.37876 0.12324 0.4287 0.0
H3548 H 0.38921 0.10232 0.42316 0.0
H3549 H 0.39235 0.09081 0.40875 0.0
H3550 H 0.39798 0.06582 0.42998 0.0
H3551 H 0.39458 0.07746 0.44445 0.0
H3552 H 0.38499 0.11138 0.48854 0.0
H3553 H 0.38397 0.11305 0.46975 0.0
H3554 H 0.35598 0.12738 0.49142 0.0
H3555 H 0.35502 0.12898 0.47271 0.0
H3556 H 0.3432 0.14272 0.42674 0.0
H3557 H 0.35684 0.13806 0.39676 0.0
H3558 H 0.36954 0.12648 0.40436 0.0
H3559 H 0.35594 0.131 0.43427 0.0
C3560 C 0.89177 0.41861 0.57464 0.0
C3561 C 0.89143 0.4149 0.58477 0.0
C3562 C 0.89542 0.43196 0.59133 0.0
C3563 C 0.89326 0.42149 0.59303 0.0
C3564 C 0.89626 0.43553 0.58113 0.0
C3565 C 0.89441 0.4289 0.57285 0.0
U3566 U 0.87595 0.39596 0.56723 0.0
O3567 O 0.86374 0.3941 0.55567 0.0
O3568 O 0.87724 0.38393 0.55543 0.0
C3569 C 0.86875 0.38684 0.55075 0.0
C3570 C 0.88788 0.41214 0.56623 0.0
C3571 C 0.86945 0.38818 0.53956 0.0
C3572 C 0.87843 0.39414 0.52429 0.0
C3573 C 0.87786 0.3932 0.535 0.0
C3574 C 0.86209 0.38529 0.52267 0.0
C3575 C 0.87056 0.39015 0.51801 0.0
C3576 C 0.86155 0.38431 0.53335 0.0
C3577 C 0.8636 0.38149 0.58963 0.0
C3578 C 0.84897 0.37005 0.58766 0.0
C3579 C 0.85669 0.37253 0.60445 0.0
C3580 C 0.86392 0.37921 0.60015 0.0
C3581 C 0.84899 0.36806 0.5983 0.0
C3582 C 0.85624 0.37671 0.58335 0.0
C3583 C 0.87047 0.38944 0.58552 0.0
O3584 O 0.89147 0.40268 0.56597 0.0
O3585 O 0.87785 0.41261 0.5651 0.0
O3586 O 0.86583 0.39699 0.58067 0.0
O3587 O 0.87875 0.38613 0.58076 0.0
H3588 H 0.88923 0.40701 0.58632 0.0
H3589 H 0.89237 0.4185 0.60075 0.0
H3590 H 0.898 0.44353 0.57957 0.0
H3591 H 0.89461 0.43191 0.56508 0.0
H3592 H 0.885 0.39799 0.52092 0.0
H3593 H 0.88399 0.39632 0.53971 0.0
H3594 H 0.85598 0.38202 0.51804 0.0
H3595 H 0.85501 0.38043 0.53676 0.0
H3596 H 0.84319 0.36665 0.58271 0.0
H3597 H 0.85684 0.37128 0.61269 0.0
H3598 H 0.86955 0.38287 0.60509 0.0
H3599 H 0.85593 0.37838 0.57519 0.0
C3600 C 0.3247 0.13228 0.31242 0.0
C3601 C 0.33146 0.13402 0.32067 0.0
C3602 C 0.31821 0.14353 0.32981 0.0
C3603 C 0.32827 0.13963 0.32923 0.0
C3604 C 0.31143 0.14184 0.32154 0.0
C3605 C 0.31468 0.13629 0.31289 0.0
U3606 U 0.33785 0.10832 0.303 0.0
O3607 O 0.33447 0.09791 0.29003 0.0
O3608 O 0.34944 0.10567 0.29105 0.0
C3609 C 0.34315 0.10016 0.28535 0.0
C3610 C 0.32788 0.1258 0.30367 0.0
C3611 C 0.34223 0.10372 0.27466 0.0
C3612 C 0.34098 0.11778 0.26244 0.0
C3613 C 0.34069 0.11419 0.27256 0.0
C3614 C 0.34368 0.10037 0.25634 0.0
C3615 C 0.34267 0.11093 0.25426 0.0
C3616 C 0.34352 0.09679 0.2665 0.0
C3617 C 0.34883 0.09103 0.32474 0.0
C3618 C 0.36494 0.08187 0.32734 0.0
C3619 C 0.35003 0.07757 0.33765 0.0
C3620 C 0.34427 0.08498 0.33242 0.0
C3621 C 0.3605 0.07612 0.33535 0.0
C3622 C 0.35915 0.08925 0.32205 0.0
C3623 C 0.34301 0.09984 0.32058 0.0
O3624 O 0.33786 0.12518 0.30212 0.0
O3625 O 0.32319 0.11687 0.30299 0.0
O3626 O 0.33431 0.09778 0.31584 0.0
O3627 O 0.34841 0.10712 0.31609 0.0
H3628 H 0.33918 0.13087 0.32063 0.0
H3629 H 0.33359 0.14061 0.33557 0.0
H3630 H 0.30363 0.14475 0.3218 0.0
H3631 H 0.30932 0.13498 0.30664 0.0
H3632 H 0.34007 0.12594 0.26102 0.0
H3633 H 0.3396 0.11964 0.27877 0.0
H3634 H 0.34505 0.09495 0.25016 0.0
H3635 H 0.3447 0.08868 0.268 0.0
H3636 H 0.37296 0.08084 0.32532 0.0
H3637 H 0.34641 0.07336 0.34386 0.0
H3638 H 0.33635 0.08628 0.33467 0.0
H3639 H 0.36287 0.09378 0.31613 0.0
C3640 C 0.61528 0.59009 0.07347 0.0
C3641 C 0.61433 0.59461 0.08324 0.0
C3642 C 0.61338 0.57771 0.09112 0.0
C3643 C 0.61337 0.58847 0.09197 0.0
C3644 C 0.61343 0.5732 0.0813 0.0
C3645 C 0.61443 0.57937 0.07251 0.0
U3646 U 0.63195 0.6119 0.06603 0.0
O3647 O 0.64435 0.61331 0.05461 0.0
O3648 O 0.63136 0.62413 0.05438 0.0
C3649 C 0.63974 0.62086 0.04973 0.0
C3650 C 0.61932 0.59628 0.0649 0.0
C3651 C 0.63903 0.61966 0.03854 0.0
C3652 C 0.62999 0.61392 0.02323 0.0
C3653 C 0.63058 0.61474 0.03395 0.0
C3654 C 0.6464 0.62265 0.02166 0.0
C3655 C 0.63787 0.61791 0.01698 0.0
C3656 C 0.64695 0.62352 0.03235 0.0
C3657 C 0.64467 0.62533 0.08897 0.0
C3658 C 0.65995 0.63601 0.08772 0.0
C3659 C 0.65158 0.63357 0.10421 0.0
C3660 C 0.64415 0.62739 0.09952 0.0
C3661 C 0.6597 0.63776 0.0984 0.0
C3662 C 0.65248 0.62985 0.08303 0.0
C3663 C 0.63752 0.61785 0.08449 0.0
O3664 O 0.61616 0.6059 0.06451 0.0
O3665 O 0.62931 0.59536 0.0637 0.0
O3666 O 0.64189 0.6102 0.07954 0.0
O3667 O 0.62949 0.62165 0.07968 0.0
H3668 H 0.6151 0.60285 0.08422 0.0
H3669 H 0.6133 0.59212 0.09947 0.0
H3670 H 0.61353 0.56491 0.08047 0.0
H3671 H 0.6153 0.57574 0.06506 0.0
H3672 H 0.62337 0.61015 0.01984 0.0
H3673 H 0.62444 0.61162 0.03864 0.0
H3674 H 0.65252 0.62592 0.01705 0.0
H3675 H 0.65353 0.62731 0.03579 0.0
H3676 H 0.66605 0.63922 0.08303 0.0
H3677 H 0.65124 0.63465 0.11246 0.0
H3678 H 0.63819 0.62393 0.10421 0.0
H3679 H 0.65296 0.62835 0.07485 0.0
C3680 C 0.68515 0.3782 0.30988 0.0
C3681 C 0.67814 0.37685 0.318 0.0
C3682 C 0.69107 0.36773 0.32797 0.0
C3683 C 0.68105 0.37164 0.32691 0.0
C3684 C 0.69806 0.36894 0.31979 0.0
C3685 C 0.6951 0.3741 0.3108 0.0
U3686 U 0.67337 0.40252 0.29984 0.0
O3687 O 0.67734 0.41264 0.28682 0.0
O3688 O 0.66201 0.40561 0.28777 0.0
C3689 C 0.66858 0.4108 0.2821 0.0
C3690 C 0.68236 0.38454 0.30088 0.0
C3691 C 0.66943 0.40713 0.27146 0.0
C3692 C 0.67143 0.39302 0.25942 0.0
C3693 C 0.67166 0.39677 0.26947 0.0
C3694 C 0.66726 0.41008 0.25315 0.0
C3695 C 0.66905 0.3996 0.25117 0.0
C3696 C 0.6674 0.41381 0.26324 0.0
C3697 C 0.66363 0.4205 0.32178 0.0
C3698 C 0.64795 0.4299 0.32584 0.0
C3699 C 0.66365 0.43342 0.33525 0.0
C3700 C 0.66887 0.4262 0.32928 0.0
C3701 C 0.65304 0.43504 0.33388 0.0
C3702 C 0.6532 0.42266 0.31984 0.0
C3703 C 0.66878 0.41142 0.31734 0.0
O3704 O 0.67244 0.38567 0.29924 0.0
O3705 O 0.68754 0.39318 0.29994 0.0
O3706 O 0.67757 0.41295 0.31256 0.0
O3707 O 0.66288 0.40453 0.31287 0.0
H3708 H 0.67046 0.38007 0.31762 0.0
H3709 H 0.67555 0.37102 0.33314 0.0
H3710 H 0.70583 0.366 0.3204 0.0
H3711 H 0.70065 0.37511 0.30466 0.0
H3712 H 0.67296 0.38493 0.25809 0.0
H3713 H 0.67329 0.39151 0.27574 0.0
H3714 H 0.66534 0.4153 0.24694 0.0
H3715 H 0.66566 0.42184 0.26466 0.0
H3716 H 0.63978 0.43098 0.32462 0.0
H3717 H 0.66781 0.4374 0.34127 0.0
H3718 H 0.6769 0.42466 0.33092 0.0
H3719 H 0.64896 0.41839 0.31409 0.0
C3720 C 0.1153 0.91915 0.93601 0.0
C3721 C 0.11436 0.91463 0.92625 0.0
C3722 C 0.11341 0.93153 0.91837 0.0
C3723 C 0.11339 0.92077 0.91751 0.0
C3724 C 0.11346 0.93604 0.92819 0.0
C3725 C 0.11446 0.92987 0.93698 0.0
U3726 U 0.13198 0.89735 0.94346 0.0
O3727 O 0.14438 0.89594 0.95488 0.0
O3728 O 0.13139 0.88512 0.95511 0.0
C3729 C 0.13977 0.88839 0.95976 0.0
C3730 C 0.11935 0.91296 0.94458 0.0
C3731 C 0.13905 0.88959 0.97095 0.0
C3732 C 0.13001 0.89533 0.98625 0.0
C3733 C 0.13061 0.8945 0.97554 0.0
C3734 C 0.14642 0.88661 0.98783 0.0
C3735 C 0.13789 0.89134 0.99251 0.0
C3736 C 0.14698 0.88573 0.97714 0.0
C3737 C 0.1447 0.88392 0.92052 0.0
C3738 C 0.15998 0.87325 0.92177 0.0
C3739 C 0.15161 0.87568 0.90528 0.0
C3740 C 0.14417 0.88186 0.90996 0.0
C3741 C 0.15972 0.87149 0.91108 0.0
C3742 C 0.1525 0.87941 0.92645 0.0
C3743 C 0.13755 0.8914 0.925 0.0
O3744 O 0.11619 0.90334 0.94498 0.0
O3745 O 0.12934 0.91388 0.94578 0.0
O3746 O 0.14192 0.89905 0.92994 0.0
O3747 O 0.12952 0.88759 0.92981 0.0
H3748 H 0.11513 0.9064 0.92527 0.0
H3749 H 0.11332 0.91713 0.91002 0.0
H3750 H 0.11355 0.94433 0.92902 0.0
H3751 H 0.11532 0.9335 0.94443 0.0
H3752 H 0.1234 0.8991 0.98964 0.0
H3753 H 0.12446 0.89762 0.97085 0.0
H3754 H 0.15254 0.88334 0.99244 0.0
H3755 H 0.15356 0.88194 0.9737 0.0
H3756 H 0.16607 0.87004 0.92645 0.0
H3757 H 0.15126 0.8746 0.89702 0.0
H3758 H 0.13821 0.88532 0.90527 0.0
H3759 H 0.15299 0.88091 0.93464 0.0
C3760 C 0.32468 0.87694 0.19707 0.0
C3761 C 0.33145 0.87522 0.18882 0.0
C3762 C 0.3182 0.86572 0.17966 0.0
C3763 C 0.32826 0.86963 0.18025 0.0
C3764 C 0.31143 0.86739 0.18793 0.0
C3765 C 0.31467 0.87292 0.1966 0.0
U3766 U 0.33784 0.90088 0.20652 0.0
O3767 O 0.33445 0.91129 0.2195 0.0
O3768 O 0.34942 0.90352 0.21849 0.0
C3769 C 0.34313 0.90903 0.22418 0.0
C3770 C 0.32786 0.8834 0.20583 0.0
C3771 C 0.3422 0.90547 0.23487 0.0
C3772 C 0.34093 0.89141 0.24709 0.0
C3773 C 0.34066 0.895 0.23697 0.0
C3774 C 0.34364 0.90882 0.25319 0.0
C3775 C 0.34263 0.89826 0.25528 0.0
C3776 C 0.34348 0.9124 0.24303 0.0
C3777 C 0.34885 0.91818 0.1848 0.0
C3778 C 0.36498 0.92732 0.18221 0.0
C3779 C 0.35006 0.93165 0.17191 0.0
C3780 C 0.3443 0.92424 0.17714 0.0
C3781 C 0.36054 0.93309 0.1742 0.0
C3782 C 0.35918 0.91995 0.18749 0.0
C3783 C 0.34302 0.90937 0.18896 0.0
O3784 O 0.33783 0.88402 0.2074 0.0
O3785 O 0.32317 0.89234 0.20652 0.0
O3786 O 0.33431 0.91143 0.19369 0.0
O3787 O 0.34841 0.90209 0.19345 0.0
H3788 H 0.33916 0.87838 0.18887 0.0
H3789 H 0.33359 0.86866 0.17391 0.0
H3790 H 0.30363 0.86446 0.18767 0.0
H3791 H 0.30931 0.87422 0.20284 0.0
H3792 H 0.34003 0.88325 0.24851 0.0
H3793 H 0.33957 0.88955 0.23076 0.0
H3794 H 0.345 0.91424 0.25937 0.0
H3795 H 0.34467 0.92051 0.24153 0.0
H3796 H 0.373 0.92835 0.18422 0.0
H3797 H 0.34644 0.93588 0.16571 0.0
H3798 H 0.33637 0.92296 0.17489 0.0
H3799 H 0.36289 0.9154 0.1934 0.0
C3800 C 0.18515 0.13106 0.69961 0.0
C3801 C 0.17814 0.1324 0.69149 0.0
C3802 C 0.19107 0.14152 0.68152 0.0
C3803 C 0.18105 0.13762 0.68258 0.0
C3804 C 0.19806 0.14032 0.68969 0.0
C3805 C 0.1951 0.13516 0.69869 0.0
U3806 U 0.17337 0.10674 0.70965 0.0
O3807 O 0.17734 0.09662 0.72267 0.0
O3808 O 0.162 0.10365 0.72173 0.0
C3809 C 0.16858 0.09847 0.7274 0.0
C3810 C 0.18236 0.12472 0.70861 0.0
C3811 C 0.16943 0.10213 0.73804 0.0
C3812 C 0.17143 0.11625 0.75008 0.0
C3813 C 0.17166 0.1125 0.74002 0.0
C3814 C 0.16726 0.09918 0.75635 0.0
C3815 C 0.16905 0.10967 0.75832 0.0
C3816 C 0.1674 0.09545 0.74625 0.0
C3817 C 0.16362 0.08876 0.68771 0.0
C3818 C 0.14795 0.07935 0.68365 0.0
C3819 C 0.16364 0.07584 0.67424 0.0
C3820 C 0.16886 0.08307 0.68021 0.0
C3821 C 0.15303 0.07422 0.67561 0.0
C3822 C 0.15319 0.0866 0.68965 0.0
C3823 C 0.16878 0.09784 0.69215 0.0
O3824 O 0.17244 0.12359 0.71025 0.0
O3825 O 0.18754 0.11608 0.70955 0.0
O3826 O 0.17756 0.09631 0.69693 0.0
O3827 O 0.16288 0.10473 0.69662 0.0
H3828 H 0.17046 0.12919 0.69187 0.0
H3829 H 0.17555 0.13823 0.67635 0.0
H3830 H 0.20584 0.14326 0.68909 0.0
H3831 H 0.20065 0.13415 0.70483 0.0
H3832 H 0.17296 0.12433 0.7514 0.0
H3833 H 0.17329 0.11775 0.73375 0.0
H3834 H 0.16534 0.09396 0.76255 0.0
H3835 H 0.16566 0.08743 0.74483 0.0
H3836 H 0.13977 0.07828 0.68487 0.0
H3837 H 0.16779 0.07186 0.66821 0.0
H3838 H 0.17689 0.08461 0.67857 0.0
H3839 H 0.14895 0.09087 0.69541 0.0
C3840 C 0.1662 0.20292 0.36253 0.0
C3841 C 0.17043 0.19327 0.36011 0.0
C3842 C 0.15629 0.20549 0.35923 0.0
C3843 C 0.15043 0.19848 0.35343 0.0
C3844 C 0.15497 0.18915 0.35041 0.0
C3845 C 0.16485 0.18656 0.35373 0.0
C3846 C 0.13931 0.20036 0.3516 0.0
C3847 C 0.13568 0.21019 0.34899 0.0
C3848 C 0.12504 0.21225 0.34856 0.0
C3849 C 0.11804 0.20422 0.35053 0.0
C3850 C 0.12156 0.19431 0.353 0.0
C3851 C 0.13219 0.19247 0.35347 0.0
C3852 C 0.11429 0.18603 0.35606 0.0
C3853 C 0.10623 0.18809 0.36297 0.0
C3854 C 0.11599 0.17583 0.3529 0.0
C3855 C 0.11016 0.1678 0.35702 0.0
C3856 C 0.10249 0.16979 0.36438 0.0
C3857 C 0.12129 0.22293 0.34674 0.0
C3858 C 0.12655 0.23135 0.35105 0.0
C3859 C 0.11228 0.22479 0.34102 0.0
C3860 C 0.10856 0.23482 0.33977 0.0
C3861 C 0.11385 0.24319 0.3441 0.0
C3862 C 0.12291 0.24135 0.34969 0.0
C3863 C 0.10039 0.18005 0.36708 0.0
H3864 H 0.17029 0.20821 0.3675 0.0
H3865 H 0.15299 0.21271 0.36176 0.0
H3866 H 0.15072 0.18367 0.34579 0.0
H3867 H 0.16799 0.17914 0.3516 0.0
H3868 H 0.14117 0.21626 0.3474 0.0
H3869 H 0.13493 0.18499 0.35595 0.0
H3870 H 0.10985 0.20574 0.35046 0.0
H3871 H 0.10481 0.19584 0.36565 0.0
H3872 H 0.12204 0.17403 0.34746 0.0
H3873 H 0.11184 0.15999 0.35466 0.0
H3874 H 0.13336 0.23022 0.35571 0.0
H3875 H 0.1081 0.21852 0.33749 0.0
H3876 H 0.0946 0.18183 0.37281 0.0
H3877 H 0.12704 0.24764 0.35327 0.0
H3878 H 0.1016 0.23605 0.33536 0.0
C3879 C 0.06162 0.84037 0.63757 0.0
C3880 C 0.06781 0.84347 0.6459 0.0
C3881 C 0.05612 0.84766 0.63183 0.0
C3882 C 0.05685 0.85816 0.63426 0.0
C3883 C 0.06276 0.86119 0.64277 0.0
C3884 C 0.06817 0.85395 0.64852 0.0
C3885 C 0.05187 0.86613 0.6278 0.0
C3886 C 0.04141 0.86555 0.62526 0.0
C3887 C 0.03653 0.87374 0.6201 0.0
C3888 C 0.04231 0.88252 0.61741 0.0
C3889 C 0.0528 0.88317 0.61993 0.0
C3890 C 0.05753 0.87481 0.62487 0.0
C3891 C 0.05879 0.89276 0.61817 0.0
C3892 C 0.05783 0.89851 0.60904 0.0
C3893 C 0.06574 0.89611 0.62575 0.0
C3894 C 0.07194 0.90465 0.62407 0.0
C3895 C 0.07125 0.91019 0.61485 0.0
C3896 C 0.02523 0.87344 0.61835 0.0
C3897 C 0.02038 0.86428 0.61531 0.0
C3898 C 0.01915 0.88216 0.62034 0.0
C3899 C 0.00844 0.88163 0.61962 0.0
C3900 C 1.00358 0.87236 0.61696 0.0
C3901 C 0.00966 0.86373 0.61464 0.0
C3902 C 0.064 0.90723 0.60741 0.0
H3903 H 0.06115 0.83234 0.63542 0.0
H3904 H 0.05159 0.84514 0.62531 0.0
H3905 H 0.06334 0.86923 0.6449 0.0
H3906 H 0.07296 0.85664 0.65478 0.0
H3907 H 0.03697 0.85897 0.62781 0.0
H3908 H 0.06567 0.87513 0.62665 0.0
H3909 H 0.03858 0.88895 0.61366 0.0
H3910 H 0.05253 0.89614 0.60306 0.0
H3911 H 0.06643 0.89209 0.63302 0.0
H3912 H 0.07733 0.90694 0.63001 0.0
H3913 H 0.02486 0.85747 0.61357 0.0
H3914 H 0.02262 0.8893 0.62286 0.0
H3915 H 0.06334 0.91145 0.60026 0.0
H3916 H 0.00613 0.85652 0.61241 0.0
H3917 H 1.00395 0.88837 0.62158 0.0
C3918 C 0.39668 0.84384 0.85611 0.0
C3919 C 0.40522 0.84213 0.86251 0.0
C3920 C 0.39087 0.83557 0.85245 0.0
C3921 C 0.3935 0.82543 0.85509 0.0
C3922 C 0.40247 0.82368 0.86087 0.0
C3923 C 0.40827 0.83195 0.86454 0.0
C3924 C 0.38624 0.81686 0.85302 0.0
C3925 C 0.38976 0.80719 0.84974 0.0
C3926 C 0.38294 0.79881 0.84891 0.0
C3927 C 0.37248 0.80027 0.85136 0.0
C3928 C 0.36894 0.8098 0.85496 0.0
C3929 C 0.37581 0.8181 0.85552 0.0
C3930 C 0.35841 0.81084 0.85928 0.0
C3931 C 0.34977 0.80678 0.85418 0.0
C3932 C 0.35705 0.8157 0.86883 0.0
C3933 C 0.3473 0.81657 0.87317 0.0
C3934 C 0.33863 0.81256 0.86811 0.0
C3935 C 0.38688 0.78835 0.84637 0.0
C3936 C 0.39488 0.78696 0.8392 0.0
C3937 C 0.38288 0.77966 0.85144 0.0
C3938 C 0.38672 0.76987 0.84938 0.0
C3939 C 0.39477 0.76851 0.84232 0.0
C3940 C 0.39884 0.77713 0.83725 0.0
C3941 C 0.33994 0.8077 0.85853 0.0
H3942 H 0.39424 0.85159 0.85424 0.0
H3943 H 0.38407 0.83713 0.84788 0.0
H3944 H 0.40464 0.81596 0.86312 0.0
H3945 H 0.41476 0.83036 0.86953 0.0
H3946 H 0.39788 0.80613 0.84821 0.0
H3947 H 0.37312 0.82544 0.85841 0.0
H3948 H 0.36716 0.79388 0.85091 0.0
H3949 H 0.3506 0.80299 0.84681 0.0
H3950 H 0.36357 0.81875 0.87303 0.0
H3951 H 0.34655 0.82052 0.88047 0.0
H3952 H 0.39808 0.79344 0.83506 0.0
H3953 H 0.37694 0.78041 0.85723 0.0
H3954 H 0.3334 0.80453 0.85447 0.0
H3955 H 0.40503 0.77626 0.83173 0.0
H3956 H 0.38358 0.76336 0.85354 0.0
C3957 C 0.44932 0.17043 0.14023 0.0
C3958 C 0.44329 0.16731 0.14867 0.0
C3959 C 0.45441 0.16311 0.13416 0.0
C3960 C 0.45343 0.15258 0.13636 0.0
C3961 C 0.4476 0.14952 0.14493 0.0
C3962 C 0.4426 0.15678 0.151 0.0
C3963 C 0.45816 0.14462 0.1297 0.0
C3964 C 0.4686 0.14506 0.12706 0.0
C3965 C 0.47331 0.13683 0.1218 0.0
C3966 C 0.46737 0.12815 0.11914 0.0
C3967 C 0.45689 0.12765 0.12174 0.0
C3968 C 0.45234 0.13605 0.12677 0.0
C3969 C 0.45075 0.11815 0.12002 0.0
C3970 C 0.45155 0.11239 0.11088 0.0
C3971 C 0.44381 0.11488 0.12765 0.0
C3972 C 0.43748 0.10642 0.12601 0.0
C3973 C 0.43802 0.10088 0.11678 0.0
C3974 C 0.4846 0.13697 0.11999 0.0
C3975 C 0.48956 0.1461 0.11697 0.0
C3976 C 0.49059 0.12819 0.12197 0.0
C3977 C 0.50131 0.12862 0.12134 0.0
C3978 C 0.50628 0.13787 0.11874 0.0
C3979 C 0.50028 0.14654 0.11637 0.0
C3980 C 0.44525 0.10376 0.10929 0.0
H3981 H 0.45003 0.1785 0.13828 0.0
H3982 H 0.45888 0.16566 0.1276 0.0
H3983 H 0.44682 0.14145 0.14689 0.0
H3984 H 0.43791 0.15409 0.15734 0.0
H3985 H 0.47318 0.15154 0.12962 0.0
H3986 H 0.44422 0.13584 0.12864 0.0
H3987 H 0.47098 0.12168 0.11533 0.0
H3988 H 0.45683 0.1147 0.10486 0.0
H3989 H 0.44322 0.11889 0.13493 0.0
H3990 H 0.43212 0.10419 0.132 0.0
H3991 H 0.48516 0.15295 0.11523 0.0
H3992 H 0.48704 0.12108 0.12447 0.0
H3993 H 0.44582 0.09953 0.10214 0.0
H3994 H 0.50389 0.15373 0.11419 0.0
H3995 H 0.50573 0.12184 0.12332 0.0
C3996 C 0.16622 0.80635 0.14696 0.0
C3997 C 0.17045 0.816 0.14937 0.0
C3998 C 0.15631 0.80377 0.15025 0.0
C3999 C 0.15045 0.81078 0.15605 0.0
C4000 C 0.15499 0.82012 0.15907 0.0
C4001 C 0.16487 0.8227 0.15575 0.0
C4002 C 0.13933 0.80889 0.15788 0.0
C4003 C 0.13569 0.79907 0.1605 0.0
C4004 C 0.12506 0.797 0.16093 0.0
C4005 C 0.11806 0.80503 0.15895 0.0
C4006 C 0.12158 0.81495 0.15648 0.0
C4007 C 0.13221 0.81679 0.15601 0.0
C4008 C 0.11431 0.82322 0.15342 0.0
C4009 C 0.10625 0.82116 0.14651 0.0
C4010 C 0.11601 0.83342 0.15658 0.0
C4011 C 0.11018 0.84145 0.15246 0.0
C4012 C 0.10251 0.83946 0.1451 0.0
C4013 C 0.12131 0.78633 0.16274 0.0
C4014 C 0.12656 0.77791 0.15843 0.0
C4015 C 0.1123 0.78446 0.16846 0.0
C4016 C 0.10858 0.77443 0.16971 0.0
C4017 C 0.11387 0.76606 0.16538 0.0
C4018 C 0.12293 0.76791 0.15979 0.0
C4019 C 0.10041 0.8292 0.1424 0.0
H4020 H 0.1703 0.80106 0.14198 0.0
H4021 H 0.15301 0.79655 0.14772 0.0
H4022 H 0.15074 0.8256 0.16369 0.0
H4023 H 0.16801 0.83012 0.15788 0.0
H4024 H 0.14118 0.793 0.16208 0.0
H4025 H 0.13495 0.82426 0.15353 0.0
H4026 H 0.10987 0.80351 0.15902 0.0
H4027 H 0.10482 0.81341 0.14383 0.0
H4028 H 0.12206 0.83523 0.16202 0.0
H4029 H 0.11186 0.84926 0.15483 0.0
H4030 H 0.13337 0.77904 0.15377 0.0
H4031 H 0.10812 0.79073 0.17199 0.0
H4032 H 0.09462 0.82741 0.13668 0.0
H4033 H 0.12706 0.76162 0.15621 0.0
H4034 H 0.10162 0.7732 0.17412 0.0
C4035 C 0.44934 0.83885 0.36925 0.0
C4036 C 0.44331 0.84196 0.3608 0.0
C4037 C 0.45443 0.84617 0.37531 0.0
C4038 C 0.45344 0.8567 0.37311 0.0
C4039 C 0.44761 0.85975 0.36455 0.0
C4040 C 0.44261 0.85249 0.35848 0.0
C4041 C 0.45818 0.86466 0.37976 0.0
C4042 C 0.46862 0.86422 0.38242 0.0
C4043 C 0.47332 0.87245 0.38767 0.0
C4044 C 0.46739 0.88113 0.39033 0.0
C4045 C 0.45691 0.88163 0.38772 0.0
C4046 C 0.45236 0.87323 0.3827 0.0
C4047 C 0.45077 0.89113 0.38944 0.0
C4048 C 0.45156 0.89688 0.39859 0.0
C4049 C 0.44383 0.8944 0.38181 0.0
C4050 C 0.4375 0.90286 0.38345 0.0
C4051 C 0.43803 0.90839 0.39269 0.0
C4052 C 0.48461 0.87231 0.38949 0.0
C4053 C 0.48957 0.86318 0.39251 0.0
C4054 C 0.49061 0.88109 0.3875 0.0
C4055 C 0.50133 0.88065 0.38814 0.0
C4056 C 0.50629 0.87141 0.39074 0.0
C4057 C 0.50029 0.86273 0.39311 0.0
C4058 C 0.44526 0.90551 0.40018 0.0
H4059 H 0.45004 0.83078 0.37119 0.0
H4060 H 0.4589 0.84362 0.38187 0.0
H4061 H 0.44683 0.86782 0.36258 0.0
H4062 H 0.43792 0.85517 0.35214 0.0
H4063 H 0.47319 0.85774 0.37985 0.0
H4064 H 0.44423 0.87344 0.38082 0.0
H4065 H 0.47099 0.8876 0.39414 0.0
H4066 H 0.45684 0.89457 0.40461 0.0
H4067 H 0.44325 0.8904 0.37453 0.0
H4068 H 0.43214 0.90509 0.37746 0.0
H4069 H 0.48516 0.85633 0.39425 0.0
H4070 H 0.48706 0.8882 0.38501 0.0
H4071 H 0.44582 0.90973 0.40734 0.0
H4072 H 0.5039 0.85555 0.3953 0.0
H4073 H 0.50575 0.88743 0.38616 0.0
C4074 C 0.39668 0.16537 0.65336 0.0
C4075 C 0.40523 0.16709 0.64695 0.0
C4076 C 0.39088 0.17363 0.65703 0.0
C4077 C 0.39351 0.18378 0.65439 0.0
C4078 C 0.40247 0.18554 0.64861 0.0
C4079 C 0.40827 0.17727 0.64492 0.0
C4080 C 0.38624 0.19234 0.65647 0.0
C4081 C 0.38977 0.20201 0.65976 0.0
C4082 C 0.38294 0.21039 0.66061 0.0
C4083 C 0.37248 0.20892 0.65817 0.0
C4084 C 0.36894 0.19939 0.65456 0.0
C4085 C 0.37581 0.1911 0.65398 0.0
C4086 C 0.35841 0.19836 0.65024 0.0
C4087 C 0.34977 0.2024 0.65535 0.0
C4088 C 0.35705 0.1935 0.64069 0.0
C4089 C 0.34729 0.19264 0.63635 0.0
C4090 C 0.33863 0.19664 0.64142 0.0
C4091 C 0.38688 0.22084 0.66316 0.0
C4092 C 0.39489 0.22224 0.67032 0.0
C4093 C 0.38287 0.22954 0.65809 0.0
C4094 C 0.38672 0.23933 0.66016 0.0
C4095 C 0.39477 0.24069 0.66722 0.0
C4096 C 0.39885 0.23206 0.67227 0.0
C4097 C 0.33994 0.20149 0.651 0.0
H4098 H 0.39425 0.15762 0.65522 0.0
H4099 H 0.38408 0.17206 0.6616 0.0
H4100 H 0.40463 0.19326 0.64636 0.0
H4101 H 0.41475 0.17887 0.63994 0.0
H4102 H 0.39789 0.20307 0.66129 0.0
H4103 H 0.37312 0.18376 0.65108 0.0
H4104 H 0.36716 0.21531 0.65862 0.0
H4105 H 0.35061 0.20618 0.66272 0.0
H4106 H 0.36356 0.19046 0.63647 0.0
H4107 H 0.34654 0.1887 0.62905 0.0
H4108 H 0.39809 0.21575 0.67445 0.0
H4109 H 0.37693 0.22878 0.65231 0.0
H4110 H 0.3334 0.20465 0.65507 0.0
H4111 H 0.40504 0.23293 0.67778 0.0
H4112 H 0.38356 0.24584 0.65601 0.0
C4113 C 0.06163 0.16888 0.87188 0.0
C4114 C 0.06784 0.16577 0.86357 0.0
C4115 C 0.05613 0.16159 0.87762 0.0
C4116 C 0.05686 0.15108 0.87521 0.0
C4117 C 0.0628 0.14805 0.86671 0.0
C4118 C 0.06821 0.15529 0.86097 0.0
C4119 C 0.05187 0.14312 0.88166 0.0
C4120 C 0.04141 0.1437 0.88418 0.0
C4121 C 0.03651 0.13551 0.88933 0.0
C4122 C 0.04229 0.12674 0.89203 0.0
C4123 C 0.05279 0.12609 0.88955 0.0
C4124 C 0.05752 0.13444 0.88462 0.0
C4125 C 0.05876 0.1165 0.89131 0.0
C4126 C 0.05778 0.11074 0.90044 0.0
C4127 C 0.06573 0.11315 0.88375 0.0
C4128 C 0.07193 0.1046 0.88545 0.0
C4129 C 0.07121 0.09906 0.89467 0.0
C4130 C 0.02522 0.1358 0.89106 0.0
C4131 C 0.02035 0.14497 0.89408 0.0
C4132 C 0.01913 0.12708 0.88906 0.0
C4133 C 0.00842 0.12761 0.88975 0.0
C4134 C 1.00355 0.13688 0.8924 0.0
C4135 C 0.00964 0.14551 0.89473 0.0
C4136 C 0.06395 0.10202 0.90209 0.0
H4137 H 0.06114 0.17691 0.87402 0.0
H4138 H 0.05158 0.16411 0.88413 0.0
H4139 H 0.06339 0.14001 0.86459 0.0
H4140 H 0.07302 0.1526 0.85472 0.0
H4141 H 0.03697 0.15027 0.88161 0.0
H4142 H 0.06567 0.13412 0.88285 0.0
H4143 H 0.03855 0.1203 0.89578 0.0
H4144 H 0.05247 0.11311 0.90641 0.0
H4145 H 0.06645 0.11716 0.87649 0.0
H4146 H 0.07733 0.10231 0.87952 0.0
H4147 H 0.02483 0.15178 0.89583 0.0
H4148 H 0.02261 0.11994 0.88656 0.0
H4149 H 0.06326 0.09779 0.90923 0.0
H4150 H 0.0061 0.15272 0.89694 0.0
H4151 H 1.00394 0.12087 0.88779 0.0
C4152 C 0.35615 0.11193 0.16798 0.0
C4153 C 0.36278 0.10355 0.16962 0.0
C4154 C 0.3526 0.11776 0.17628 0.0
C4155 C 0.35557 0.11531 0.18638 0.0
C4156 C 0.36156 0.10648 0.18808 0.0
C4157 C 0.36513 0.10065 0.17978 0.0
C4158 C 0.35365 0.12267 0.19489 0.0
C4159 C 0.35068 0.11927 0.20471 0.0
C4160 C 0.34998 0.12621 0.21301 0.0
C4161 C 0.35227 0.13667 0.21129 0.0
C4162 C 0.35558 0.1401 0.20161 0.0
C4163 C 0.35599 0.1331 0.19342 0.0
C4164 C 0.35978 0.15064 0.20029 0.0
C4165 C 0.35472 0.1593 0.20434 0.0
C4166 C 0.36918 0.152 0.19514 0.0
C4167 C 0.37342 0.16177 0.194 0.0
C4168 C 0.36841 0.17046 0.19801 0.0
C4169 C 0.34774 0.12244 0.2236 0.0
C4170 C 0.34071 0.11436 0.22532 0.0
C4171 C 0.35293 0.12669 0.2321 0.0
C4172 C 0.35111 0.12304 0.24202 0.0
C4173 C 0.34418 0.11494 0.2437 0.0
C4174 C 0.33901 0.1106 0.23527 0.0
C4175 C 0.35897 0.16915 0.20315 0.0
H4176 H 0.35404 0.11424 0.16026 0.0
H4177 H 0.34786 0.12445 0.17476 0.0
H4178 H 0.36406 0.10445 0.19577 0.0
H4179 H 0.37029 0.09429 0.18131 0.0
H4180 H 0.34927 0.11115 0.20595 0.0
H4181 H 0.35865 0.1357 0.18595 0.0
H4182 H 0.35193 0.1421 0.2176 0.0
H4183 H 0.34746 0.15847 0.20834 0.0
H4184 H 0.37336 0.14547 0.19208 0.0
H4185 H 0.38061 0.16251 0.18984 0.0
H4186 H 0.3365 0.11097 0.21899 0.0
H4187 H 0.35862 0.13269 0.2311 0.0
H4188 H 0.35495 0.17571 0.20634 0.0
H4189 H 0.3336 0.10436 0.23639 0.0
H4190 H 0.35534 0.12639 0.24837 0.0
C4191 C 0.16909 0.13795 0.44741 0.0
C4192 C 0.16598 0.14632 0.44128 0.0
C4193 C 0.16182 0.13221 0.45294 0.0
C4194 C 0.15132 0.13468 0.4523 0.0
C4195 C 0.14828 0.14323 0.44645 0.0
C4196 C 0.1555 0.14897 0.44101 0.0
C4197 C 0.14336 0.12822 0.45728 0.0
C4198 C 0.14394 0.12568 0.46774 0.0
C4199 C 0.13574 0.12055 0.47263 0.0
C4200 C 0.12695 0.11787 0.46685 0.0
C4201 C 0.1263 0.12038 0.45637 0.0
C4202 C 0.13466 0.1253 0.45163 0.0
C4203 C 0.1167 0.11867 0.45039 0.0
C4204 C 0.11093 0.10955 0.45132 0.0
C4205 C 0.11334 0.12629 0.44349 0.0
C4206 C 0.10479 0.12465 0.43729 0.0
C4207 C 0.09925 0.11543 0.43793 0.0
C4208 C 0.13602 0.11884 0.48393 0.0
C4209 C 0.14518 0.11582 0.48882 0.0
C4210 C 0.12729 0.12087 0.49 0.0
C4211 C 0.12781 0.12021 0.50071 0.0
C4212 C 0.13708 0.11757 0.5056 0.0
C4213 C 0.14571 0.11521 0.49954 0.0
C4214 C 0.10221 0.10796 0.44514 0.0
H4215 H 0.17712 0.13576 0.44781 0.0
H4216 H 0.16435 0.12565 0.45742 0.0
H4217 H 0.14024 0.14539 0.44593 0.0
H4218 H 0.1528 0.15527 0.43627 0.0
H4219 H 0.15053 0.12823 0.47218 0.0
H4220 H 0.13434 0.12709 0.44349 0.0
H4221 H 0.12051 0.11414 0.47059 0.0
H4222 H 0.1133 0.10355 0.45659 0.0
H4223 H 0.11737 0.13356 0.44282 0.0
H4224 H 0.1025 0.13062 0.43193 0.0
H4225 H 0.152 0.11405 0.48436 0.0
H4226 H 0.12015 0.12338 0.48651 0.0
H4227 H 0.09797 0.10081 0.44578 0.0
H4228 H 0.15292 0.11299 0.50309 0.0
H4229 H 0.12106 0.1222 0.50518 0.0
C4230 C 0.14741 0.84274 0.7016 0.0
C4231 C 0.14952 0.83837 0.69194 0.0
C4232 C 0.15094 0.85262 0.70398 0.0
C4233 C 0.15666 0.85829 0.69676 0.0
C4234 C 0.15939 0.85361 0.68741 0.0
C4235 C 0.15584 0.84376 0.68502 0.0
C4236 C 0.15873 0.8694 0.69846 0.0
C4237 C 0.16167 0.87311 0.70816 0.0
C4238 C 0.16238 0.88375 0.71007 0.0
C4239 C 0.16031 0.89068 0.702 0.0
C4240 C 0.15749 0.88709 0.69221 0.0
C4241 C 0.15676 0.87646 0.69052 0.0
C4242 C 0.15431 0.89432 0.68394 0.0
C4243 C 0.14763 0.90253 0.68611 0.0
C4244 C 0.15714 0.89246 0.67367 0.0
C4245 C 0.15291 0.8983 0.6657 0.0
C4246 C 0.14578 0.90614 0.66782 0.0
C4247 C 0.16457 0.88761 0.72062 0.0
C4248 C 0.16033 0.88261 0.72924 0.0
C4249 C 0.17055 0.8965 0.72219 0.0
C4250 C 0.17212 0.90036 0.73211 0.0
C4251 C 0.16783 0.89536 0.74067 0.0
C4252 C 0.16199 0.88641 0.73913 0.0
C4253 C 0.14341 0.90839 0.67814 0.0
H4254 H 0.14249 0.8388 0.70705 0.0
H4255 H 0.14863 0.85605 0.71122 0.0
H4256 H 0.16395 0.85771 0.68177 0.0
H4257 H 0.15774 0.8405 0.67759 0.0
H4258 H 0.16331 0.86767 0.71426 0.0
H4259 H 0.15403 0.87367 0.68315 0.0
H4260 H 0.16058 0.89889 0.70341 0.0
H4261 H 0.14521 0.90409 0.69393 0.0
H4262 H 0.1624 0.88628 0.67177 0.0
H4263 H 0.15502 0.8965 0.65784 0.0
H4264 H 0.15548 0.8759 0.72834 0.0
H4265 H 0.17405 0.90047 0.71575 0.0
H4266 H 0.13786 0.9143 0.68003 0.0
H4267 H 0.15844 0.88249 0.74558 0.0
H4268 H 0.17672 0.90724 0.7331 0.0
C4269 C 0.33892 0.86924 0.9496 0.0
C4270 C 0.34207 0.86091 0.94344 0.0
C4271 C 0.34622 0.87531 0.95472 0.0
C4272 C 0.35677 0.87324 0.95363 0.0
C4273 C 0.35987 0.86479 0.94766 0.0
C4274 C 0.35262 0.85871 0.94264 0.0
C4275 C 0.3647 0.87989 0.95843 0.0
C4276 C 0.36424 0.88243 0.96889 0.0
C4277 C 0.37243 0.8877 0.97365 0.0
C4278 C 0.38109 0.89049 0.96774 0.0
C4279 C 0.38162 0.88799 0.95724 0.0
C4280 C 0.37325 0.88295 0.95264 0.0
C4281 C 0.39111 0.88986 0.95111 0.0
C4282 C 0.39684 0.89902 0.95207 0.0
C4283 C 0.39442 0.88237 0.94405 0.0
C4284 C 0.40289 0.88415 0.93777 0.0
C4285 C 0.4084 0.89338 0.93848 0.0
C4286 C 0.37226 0.88944 0.98495 0.0
C4287 C 0.36311 0.89238 0.98991 0.0
C4288 C 0.38105 0.8875 0.99094 0.0
C4289 C 0.3806 0.88809 1.00167 0.0
C4290 C 0.37134 0.89061 0.00663 0.0
C4291 C 0.36265 0.89293 1.00063 0.0
C4292 C 0.40548 0.90074 0.94582 0.0
H4293 H 0.33083 0.87108 0.9504 0.0
H4294 H 0.34364 0.88178 0.95929 0.0
H4295 H 0.36795 0.86292 0.9468 0.0
H4296 H 0.35534 0.85246 0.93784 0.0
H4297 H 0.35778 0.87978 0.97344 0.0
H4298 H 0.37346 0.88118 0.94449 0.0
H4299 H 0.38754 0.89431 0.97139 0.0
H4300 H 0.3945 0.90493 0.95745 0.0
H4301 H 0.39044 0.87508 0.94334 0.0
H4302 H 0.40515 0.87826 0.93231 0.0
H4303 H 0.35624 0.89409 0.9855 0.0
H4304 H 0.38819 0.88507 0.98739 0.0
H4305 H 0.40969 0.90789 0.94652 0.0
H4306 H 0.35544 0.89506 1.00424 0.0
H4307 H 0.3874 0.88615 0.00608 0.0
C4308 C 0.35612 0.89728 0.34155 0.0
C4309 C 0.36275 0.90567 0.33991 0.0
C4310 C 0.35256 0.89145 0.33325 0.0
C4311 C 0.35554 0.89389 0.32315 0.0
C4312 C 0.36152 0.90273 0.32145 0.0
C4313 C 0.3651 0.90856 0.32975 0.0
C4314 C 0.35361 0.88653 0.31464 0.0
C4315 C 0.35064 0.88993 0.30482 0.0
C4316 C 0.34994 0.88298 0.29653 0.0
C4317 C 0.35223 0.87252 0.29825 0.0
C4318 C 0.35554 0.8691 0.30793 0.0
C4319 C 0.35595 0.8761 0.31612 0.0
C4320 C 0.35974 0.85856 0.30925 0.0
C4321 C 0.35469 0.84989 0.3052 0.0
C4322 C 0.36915 0.85721 0.3144 0.0
C4323 C 0.3734 0.84744 0.31554 0.0
C4324 C 0.36839 0.83875 0.31152 0.0
C4325 C 0.3477 0.88675 0.28594 0.0
C4326 C 0.34067 0.89482 0.28422 0.0
C4327 C 0.35288 0.8825 0.27744 0.0
C4328 C 0.35106 0.88615 0.26752 0.0
C4329 C 0.34413 0.89425 0.26583 0.0
C4330 C 0.33897 0.89859 0.27426 0.0
C4331 C 0.35895 0.84005 0.30639 0.0
H4332 H 0.35401 0.89497 0.34927 0.0
H4333 H 0.34783 0.88475 0.33477 0.0
H4334 H 0.36402 0.90475 0.31376 0.0
H4335 H 0.37025 0.91492 0.32821 0.0
H4336 H 0.34923 0.89805 0.30358 0.0
H4337 H 0.35862 0.8735 0.32358 0.0
H4338 H 0.35189 0.86709 0.29194 0.0
H4339 H 0.34743 0.85072 0.3012 0.0
H4340 H 0.37333 0.86374 0.31746 0.0
H4341 H 0.38059 0.8467 0.31969 0.0
H4342 H 0.33646 0.89822 0.29055 0.0
H4343 H 0.35857 0.8765 0.27844 0.0
H4344 H 0.35493 0.83349 0.3032 0.0
H4345 H 0.33356 0.90483 0.27314 0.0
H4346 H 0.35529 0.88279 0.26117 0.0
C4347 C 0.3389 0.14005 0.55988 0.0
C4348 C 0.34206 0.14837 0.56605 0.0
C4349 C 0.3462 0.13398 0.55475 0.0
C4350 C 0.35675 0.13605 0.55586 0.0
C4351 C 0.35985 0.14449 0.56184 0.0
C4352 C 0.35261 0.15056 0.56687 0.0
C4353 C 0.36467 0.1294 0.55104 0.0
C4354 C 0.36422 0.12688 0.54058 0.0
C4355 C 0.37241 0.12162 0.53581 0.0
C4356 C 0.38107 0.11882 0.54172 0.0
C4357 C 0.3816 0.1213 0.55222 0.0
C4358 C 0.37323 0.12633 0.55683 0.0
C4359 C 0.39108 0.11942 0.55835 0.0
C4360 C 0.39681 0.11027 0.55737 0.0
C4361 C 0.39439 0.1269 0.56542 0.0
C4362 C 0.40286 0.12512 0.5717 0.0
C4363 C 0.40838 0.11589 0.57097 0.0
C4364 C 0.37224 0.1199 0.52451 0.0
C4365 C 0.36308 0.11697 0.51954 0.0
C4366 C 0.38104 0.12185 0.51852 0.0
C4367 C 0.38059 0.12126 0.5078 0.0
C4368 C 0.37132 0.11876 0.50283 0.0
C4369 C 0.36263 0.11643 0.50882 0.0
C4370 C 0.40545 0.10854 0.56361 0.0
H4371 H 0.33082 0.13821 0.55907 0.0
H4372 H 0.34362 0.12752 0.55017 0.0
H4373 H 0.36793 0.14635 0.56271 0.0
H4374 H 0.35533 0.1568 0.57167 0.0
H4375 H 0.35776 0.12954 0.53603 0.0
H4376 H 0.37344 0.12809 0.56498 0.0
H4377 H 0.38752 0.11501 0.53807 0.0
H4378 H 0.39447 0.10436 0.55198 0.0
H4379 H 0.39041 0.13418 0.56615 0.0
H4380 H 0.40513 0.13099 0.57717 0.0
H4381 H 0.35622 0.11526 0.52395 0.0
H4382 H 0.38817 0.12427 0.52208 0.0
H4383 H 0.40966 0.10139 0.5629 0.0
H4384 H 0.35542 0.11432 0.50521 0.0
H4385 H 0.38738 0.12321 0.50338 0.0
C4386 C 0.14741 0.16651 0.80791 0.0
C4387 C 0.14953 0.17088 0.81757 0.0
C4388 C 0.15093 0.15662 0.80553 0.0
C4389 C 0.15664 0.15094 0.81275 0.0
C4390 C 0.15937 0.15563 0.82211 0.0
C4391 C 0.15584 0.16548 0.82449 0.0
C4392 C 0.15869 0.13983 0.81106 0.0
C4393 C 0.16164 0.13613 0.80135 0.0
C4394 C 0.16233 0.12549 0.79945 0.0
C4395 C 0.16024 0.11855 0.80751 0.0
C4396 C 0.15742 0.12215 0.8173 0.0
C4397 C 0.15671 0.13278 0.81899 0.0
C4398 C 0.15424 0.11492 0.82557 0.0
C4399 C 0.14754 0.10671 0.82339 0.0
C4400 C 0.15706 0.11678 0.83584 0.0
C4401 C 0.15283 0.11094 0.84381 0.0
C4402 C 0.14569 0.10311 0.84168 0.0
C4403 C 0.16452 0.12162 0.78889 0.0
C4404 C 0.16029 0.12663 0.78027 0.0
C4405 C 0.1705 0.11273 0.78733 0.0
C4406 C 0.17207 0.10887 0.77741 0.0
C4407 C 0.16779 0.11388 0.76884 0.0
C4408 C 0.16195 0.12283 0.77038 0.0
C4409 C 0.14332 0.10086 0.83136 0.0
H4410 H 0.1425 0.17045 0.80246 0.0
H4411 H 0.14862 0.1532 0.79829 0.0
H4412 H 0.16392 0.15151 0.82775 0.0
H4413 H 0.15774 0.16874 0.83192 0.0
H4414 H 0.16329 0.14157 0.79525 0.0
H4415 H 0.15398 0.13557 0.82635 0.0
H4416 H 0.16051 0.11035 0.8061 0.0
H4417 H 0.14512 0.10516 0.81557 0.0
H4418 H 0.16233 0.12295 0.83774 0.0
H4419 H 0.15494 0.11274 0.85167 0.0
H4420 H 0.15545 0.13334 0.78117 0.0
H4421 H 0.17398 0.10876 0.79377 0.0
H4422 H 0.13776 0.09495 0.82947 0.0
H4423 H 0.15841 0.12676 0.76393 0.0
H4424 H 0.17666 0.10199 0.77642 0.0
C4425 C 0.16909 0.8713 0.06207 0.0
C4426 C 0.16597 0.86294 0.0682 0.0
C4427 C 0.16181 0.87704 0.05655 0.0
C4428 C 0.15131 0.87457 0.05719 0.0
C4429 C 0.14827 0.86602 0.06304 0.0
C4430 C 0.15549 0.86028 0.06848 0.0
C4431 C 0.14335 0.88103 0.05221 0.0
C4432 C 0.14394 0.88357 0.04175 0.0
C4433 C 0.13573 0.8887 0.03685 0.0
C4434 C 0.12695 0.89137 0.04263 0.0
C4435 C 0.1263 0.88887 0.05312 0.0
C4436 C 0.13466 0.88395 0.05785 0.0
C4437 C 0.11669 0.89057 0.05909 0.0
C4438 C 0.11093 0.8997 0.05817 0.0
C4439 C 0.11334 0.88296 0.066 0.0
C4440 C 0.10479 0.8846 0.0722 0.0
C4441 C 0.09925 0.89382 0.07156 0.0
C4442 C 0.13601 0.89041 0.02555 0.0
C4443 C 0.14518 0.89343 0.02067 0.0
C4444 C 0.12729 0.88838 0.01949 0.0
C4445 C 0.12781 0.88903 0.00877 0.0
C4446 C 0.13708 0.89167 1.00389 0.0
C4447 C 0.14571 0.89404 0.00995 0.0
C4448 C 0.10221 0.90129 0.06434 0.0
H4449 H 0.17712 0.87349 0.06167 0.0
H4450 H 0.16434 0.8836 0.05206 0.0
H4451 H 0.14023 0.86386 0.06356 0.0
H4452 H 0.15279 0.85399 0.07323 0.0
H4453 H 0.15052 0.88102 0.03731 0.0
H4454 H 0.13434 0.88216 0.066 0.0
H4455 H 0.1205 0.89511 0.0389 0.0
H4456 H 0.11331 0.9057 0.0529 0.0
H4457 H 0.11737 0.87569 0.06667 0.0
H4458 H 0.1025 0.87863 0.07756 0.0
H4459 H 0.15199 0.8952 0.02513 0.0
H4460 H 0.12015 0.88587 0.02298 0.0
H4461 H 0.09798 0.90844 0.06371 0.0
H4462 H 0.15292 0.89625 0.0064 0.0
H4463 H 0.12106 0.88704 1.0043 0.0
C4464 C 0.16563 0.35579 0.11235 0.0
C4465 C 0.16726 0.36219 0.10379 0.0
C4466 C 0.17395 0.35211 0.11807 0.0
C4467 C 0.18407 0.35475 0.11535 0.0
C4468 C 0.18574 0.36051 0.10636 0.0
C4469 C 0.17742 0.3642 0.10064 0.0
C4470 C 0.1927 0.3527 0.12255 0.0
C4471 C 0.20235 0.34944 0.11896 0.0
C4472 C 0.21079 0.34864 0.12572 0.0
C4473 C 0.2094 0.35112 0.13618 0.0
C4474 C 0.19989 0.35471 0.13978 0.0
C4475 C 0.19154 0.35522 0.13298 0.0
C4476 C 0.19894 0.35909 0.15029 0.0
C4477 C 0.20308 0.35406 0.15892 0.0
C4478 C 0.19406 0.36864 0.15163 0.0
C4479 C 0.19329 0.37305 0.16135 0.0
C4480 C 0.1974 0.36806 0.17001 0.0
C4481 C 0.22124 0.34614 0.12171 0.0
C4482 C 0.22261 0.33895 0.11372 0.0
C4483 C 0.22993 0.35125 0.12563 0.0
C4484 C 0.23971 0.34921 0.12173 0.0
C4485 C 0.24105 0.34213 0.1137 0.0
C4486 C 0.23241 0.33703 0.1097 0.0
C4487 C 0.20226 0.35849 0.16873 0.0
H4488 H 0.1579 0.35394 0.11485 0.0
H4489 H 0.17244 0.34755 0.12489 0.0
H4490 H 0.19345 0.36276 0.10413 0.0
H4491 H 0.17895 0.36919 0.09414 0.0
H4492 H 0.20336 0.34788 0.11083 0.0
H4493 H 0.18421 0.35811 0.13571 0.0
H4494 H 0.21584 0.35071 0.14145 0.0
H4495 H 0.20688 0.34669 0.15811 0.0
H4496 H 0.19095 0.37279 0.14511 0.0
H4497 H 0.18933 0.38034 0.16209 0.0
H4498 H 0.21611 0.33479 0.11058 0.0
H4499 H 0.2292 0.35705 0.13156 0.0
H4500 H 0.20551 0.35448 0.17527 0.0
H4501 H 0.23326 0.3315 0.10353 0.0
H4502 H 0.24622 0.3534 0.12483 0.0
C4503 C 0.66563 0.15346 0.89714 0.0
C4504 C 0.66726 0.14706 0.9057 0.0
C4505 C 0.67394 0.15714 0.89142 0.0
C4506 C 0.68407 0.15451 0.89414 0.0
C4507 C 0.68574 0.14874 0.90313 0.0
C4508 C 0.67742 0.14505 0.90885 0.0
C4509 C 0.69269 0.15656 0.88694 0.0
C4510 C 0.70235 0.15982 0.89053 0.0
C4511 C 0.71079 0.16062 0.88377 0.0
C4512 C 0.70939 0.15814 0.87331 0.0
C4513 C 0.69988 0.15455 0.8697 0.0
C4514 C 0.69153 0.15404 0.87651 0.0
C4515 C 0.69893 0.15018 0.8592 0.0
C4516 C 0.70308 0.1552 0.85056 0.0
C4517 C 0.69406 0.14063 0.85786 0.0
C4518 C 0.69328 0.13622 0.84813 0.0
C4519 C 0.69739 0.1412 0.83947 0.0
C4520 C 0.72123 0.16312 0.88778 0.0
C4521 C 0.72261 0.17031 0.89577 0.0
C4522 C 0.72993 0.15801 0.88385 0.0
C4523 C 0.73971 0.16005 0.88775 0.0
C4524 C 0.74105 0.16713 0.89578 0.0
C4525 C 0.73242 0.17223 0.89979 0.0
C4526 C 0.70225 0.15078 0.84076 0.0
H4527 H 0.6579 0.15531 0.89464 0.0
H4528 H 0.67244 0.1617 0.8846 0.0
H4529 H 0.69345 0.14649 0.90536 0.0
H4530 H 0.67895 0.14006 0.91535 0.0
H4531 H 0.70336 0.16138 0.89865 0.0
H4532 H 0.6842 0.15115 0.87377 0.0
H4533 H 0.71583 0.15855 0.86803 0.0
H4534 H 0.70688 0.16257 0.85138 0.0
H4535 H 0.69094 0.13647 0.86437 0.0
H4536 H 0.68932 0.12892 0.84739 0.0
H4537 H 0.71611 0.17447 0.89891 0.0
H4538 H 0.72919 0.15221 0.87793 0.0
H4539 H 0.7055 0.15479 0.83422 0.0
H4540 H 0.73327 0.17776 0.90596 0.0
H4541 H 0.74622 0.15586 0.88466 0.0
C4542 C 0.1405 0.44958 0.16994 0.0
C4543 C 0.14882 0.44346 0.16671 0.0
C4544 C 0.13433 0.45467 0.1627 0.0
C4545 C 0.13631 0.45359 0.15213 0.0
C4546 C 0.14476 0.44766 0.14895 0.0
C4547 C 0.15093 0.44267 0.15614 0.0
C4548 C 0.12956 0.45835 0.14426 0.0
C4549 C 0.12697 0.4688 0.14473 0.0
C4550 C 0.12161 0.47353 0.13658 0.0
C4551 C 0.11878 0.46761 0.12795 0.0
C4552 C 0.12132 0.45712 0.12741 0.0
C4553 C 0.12645 0.45254 0.13574 0.0
C4554 C 0.11941 0.45098 0.11794 0.0
C4555 C 0.1102 0.45187 0.1123 0.0
C4556 C 0.12692 0.44397 0.11458 0.0
C4557 C 0.12511 0.43765 0.10614 0.0
C4558 C 0.11582 0.43829 0.10072 0.0
C4559 C 0.11983 0.48482 0.13676 0.0
C4560 C 0.11694 0.48977 0.14593 0.0
C4561 C 0.1217 0.49082 0.12795 0.0
C4562 C 0.12107 0.50154 0.1284 0.0
C4563 C 0.1186 0.50649 0.13768 0.0
C4564 C 0.11635 0.50048 0.14639 0.0
C4565 C 0.10844 0.44559 0.10369 0.0
H4566 H 0.13872 0.45037 0.17804 0.0
H4567 H 0.12786 0.45921 0.16533 0.0
H4568 H 0.14656 0.44681 0.14086 0.0
H4569 H 0.15718 0.4379 0.15337 0.0
H4570 H 0.12966 0.47337 0.15117 0.0
H4571 H 0.12826 0.44441 0.13552 0.0
H4572 H 0.1149 0.47123 0.12153 0.0
H4573 H 0.10427 0.45721 0.11468 0.0
H4574 H 0.13425 0.44331 0.11849 0.0
H4575 H 0.13101 0.43223 0.10384 0.0
H4576 H 0.11529 0.48536 0.1528 0.0
H4577 H 0.12409 0.48727 0.1208 0.0
H4578 H 0.10123 0.44622 0.09955 0.0
H4579 H 0.11426 0.50408 0.15361 0.0
H4580 H 0.12296 0.50596 0.1216 0.0
C4581 C 0.84065 0.85521 0.39824 0.0
C4582 C 0.839 0.86208 0.40643 0.0
C4583 C 0.83235 0.8514 0.39258 0.0
C4584 C 0.82224 0.85436 0.395 0.0
C4585 C 0.82053 0.86055 0.40369 0.0
C4586 C 0.82884 0.86438 0.40935 0.0
C4587 C 0.81375 0.85231 0.38766 0.0
C4588 C 0.80394 0.8493 0.39106 0.0
C4589 C 0.79566 0.84854 0.38409 0.0
C4590 C 0.79737 0.85084 0.37363 0.0
C4591 C 0.80703 0.85422 0.37023 0.0
C4592 C 0.81522 0.85465 0.37723 0.0
C4593 C 0.80834 0.85852 0.35973 0.0
C4594 C 0.80448 0.85345 0.35099 0.0
C4595 C 0.81334 0.86802 0.3585 0.0
C4596 C 0.81457 0.87232 0.34877 0.0
C4597 C 0.8108 0.86727 0.34 0.0
C4598 C 0.78507 0.84627 0.38785 0.0
C4599 C 0.78336 0.83927 0.39596 0.0
C4600 C 0.77656 0.8514 0.38356 0.0
C4601 C 0.76664 0.84955 0.38718 0.0
C4602 C 0.76497 0.84265 0.39531 0.0
C4603 C 0.77341 0.83755 0.3997 0.0
C4604 C 0.80577 0.85776 0.34118 0.0
H4605 H 0.84838 0.85313 0.39593 0.0
H4606 H 0.83387 0.84652 0.386 0.0
H4607 H 0.81283 0.86303 0.40569 0.0
H4608 H 0.82731 0.8697 0.41557 0.0
H4609 H 0.80271 0.84792 0.39918 0.0
H4610 H 0.82267 0.85738 0.37464 0.0
H4611 H 0.79108 0.85046 0.36818 0.0
H4612 H 0.80059 0.84612 0.35173 0.0
H4613 H 0.81624 0.87221 0.3651 0.0
H4614 H 0.81864 0.87956 0.34813 0.0
H4615 H 0.7897 0.8351 0.39939 0.0
H4616 H 0.77755 0.85707 0.37753 0.0
H4617 H 0.80278 0.8537 0.33455 0.0
H4618 H 0.77229 0.83217 0.40597 0.0
H4619 H 0.76028 0.85373 0.38379 0.0
C4620 C 0.89402 0.06184 0.10058 0.0
C4621 C 0.89833 0.07173 0.10141 0.0
C4622 C 0.89308 0.05555 0.10925 0.0
C4623 C 0.89639 0.05902 0.11893 0.0
C4624 C 0.90129 0.06863 0.11965 0.0
C4625 C 0.90229 0.0749 0.11098 0.0
C4626 C 0.89373 0.05317 0.12836 0.0
C4627 C 0.89485 0.04243 0.12873 0.0
C4628 C 0.89133 0.03681 0.13729 0.0
C4629 C 0.88666 0.04207 0.14551 0.0
C4630 C 0.88549 0.0528 0.14525 0.0
C4631 C 0.88915 0.05829 0.1367 0.0
C4632 C 0.87968 0.05824 0.15344 0.0
C4633 C 0.8702 0.05437 0.15691 0.0
C4634 C 0.88319 0.06772 0.15727 0.0
C4635 C 0.87716 0.07339 0.16414 0.0
C4636 C 0.86748 0.06972 0.16726 0.0
C4637 C 0.89198 0.0254 0.13744 0.0
C4638 C 0.88964 0.01964 0.12858 0.0
C4639 C 0.89445 0.02016 0.14657 0.0
C4640 C 0.89427 0.00943 0.14693 0.0
C4641 C 0.89166 1.00369 0.13815 0.0
C4642 C 0.88951 0.0089 0.12893 0.0
C4643 C 0.86415 0.06006 0.16373 0.0
H4644 H 0.8908 0.0592 0.09337 0.0
H4645 H 0.88919 0.04822 0.10847 0.0
H4646 H 0.90406 0.07143 0.12699 0.0
H4647 H 0.90584 0.08238 0.11184 0.0
H4648 H 0.89843 0.03847 0.12234 0.0
H4649 H 0.88786 0.06651 0.13626 0.0
H4650 H 0.88367 0.0378 0.15201 0.0
H4651 H 0.86725 0.04713 0.15403 0.0
H4652 H 0.8905 0.07086 0.15479 0.0
H4653 H 0.87991 0.08084 0.16666 0.0
H4654 H 0.88756 0.02343 0.12146 0.0
H4655 H 0.89646 0.02436 0.15348 0.0
H4656 H 0.85676 0.057 0.16607 0.0
H4657 H 0.88736 0.00468 0.12207 0.0
H4658 H 0.89613 0.00561 0.1541 0.0
C4659 C 0.34065 0.65405 0.61122 0.0
C4660 C 0.339 0.64719 0.60303 0.0
C4661 C 0.33235 0.65787 0.61687 0.0
C4662 C 0.32224 0.65491 0.61445 0.0
C4663 C 0.32053 0.64871 0.60576 0.0
C4664 C 0.32884 0.64488 0.60011 0.0
C4665 C 0.31375 0.65695 0.6218 0.0
C4666 C 0.30394 0.65996 0.61839 0.0
C4667 C 0.29566 0.66072 0.62536 0.0
C4668 C 0.29738 0.65842 0.63583 0.0
C4669 C 0.30704 0.65504 0.63923 0.0
C4670 C 0.31522 0.65461 0.63222 0.0
C4671 C 0.30834 0.65074 0.64972 0.0
C4672 C 0.30449 0.65581 0.65846 0.0
C4673 C 0.31334 0.64124 0.65095 0.0
C4674 C 0.31457 0.63694 0.66068 0.0
C4675 C 0.31081 0.64199 0.66946 0.0
C4676 C 0.28507 0.66299 0.6216 0.0
C4677 C 0.28336 0.66999 0.6135 0.0
C4678 C 0.27656 0.65786 0.6259 0.0
C4679 C 0.26664 0.65971 0.62228 0.0
C4680 C 0.26497 0.66661 0.61415 0.0
C4681 C 0.27341 0.67171 0.60975 0.0
C4682 C 0.30577 0.6515 0.66827 0.0
H4683 H 0.34838 0.65613 0.61353 0.0
H4684 H 0.33387 0.66275 0.62345 0.0
H4685 H 0.31283 0.64623 0.60377 0.0
H4686 H 0.32731 0.63956 0.59389 0.0
H4687 H 0.30271 0.66134 0.61027 0.0
H4688 H 0.32267 0.65189 0.63482 0.0
H4689 H 0.29108 0.6588 0.64127 0.0
H4690 H 0.30059 0.66313 0.65772 0.0
H4691 H 0.31624 0.63706 0.64436 0.0
H4692 H 0.31864 0.6297 0.66132 0.0
H4693 H 0.28971 0.67416 0.61006 0.0
H4694 H 0.27755 0.65219 0.63192 0.0
H4695 H 0.30278 0.65555 0.6749 0.0
H4696 H 0.27229 0.6771 0.60349 0.0
H4697 H 0.26028 0.65553 0.62567 0.0
C4698 C 0.14049 0.55967 0.33954 0.0
C4699 C 0.14882 0.56579 0.34276 0.0
C4700 C 0.13433 0.55458 0.34678 0.0
C4701 C 0.13631 0.55566 0.35735 0.0
C4702 C 0.14477 0.56159 0.36052 0.0
C4703 C 0.15093 0.56659 0.35334 0.0
C4704 C 0.12957 0.55089 0.36522 0.0
C4705 C 0.12698 0.54044 0.36475 0.0
C4706 C 0.12162 0.53571 0.3729 0.0
C4707 C 0.11879 0.54163 0.38153 0.0
C4708 C 0.12133 0.55213 0.38207 0.0
C4709 C 0.12646 0.5567 0.37374 0.0
C4710 C 0.11942 0.55826 0.39154 0.0
C4711 C 0.11021 0.55737 0.39718 0.0
C4712 C 0.12694 0.56528 0.3949 0.0
C4713 C 0.12512 0.57159 0.40334 0.0
C4714 C 0.11583 0.57095 0.40876 0.0
C4715 C 0.11984 0.52442 0.37272 0.0
C4716 C 0.11694 0.51947 0.36355 0.0
C4717 C 0.12171 0.51843 0.38153 0.0
C4718 C 0.12108 0.50771 0.38108 0.0
C4719 C 0.11861 0.50275 0.37179 0.0
C4720 C 0.11636 0.50876 0.36309 0.0
C4721 C 0.10845 0.56365 0.40579 0.0
H4722 H 0.13871 0.55888 0.33144 0.0
H4723 H 0.12786 0.55003 0.34415 0.0
H4724 H 0.14657 0.56244 0.36862 0.0
H4725 H 0.15718 0.57136 0.35611 0.0
H4726 H 0.12967 0.53588 0.35831 0.0
H4727 H 0.12827 0.56484 0.37396 0.0
H4728 H 0.11491 0.53801 0.38795 0.0
H4729 H 0.10428 0.55203 0.3948 0.0
H4730 H 0.13426 0.56594 0.39099 0.0
H4731 H 0.13102 0.57702 0.40564 0.0
H4732 H 0.11529 0.52389 0.35668 0.0
H4733 H 0.1241 0.52198 0.38868 0.0
H4734 H 0.10125 0.56301 0.40993 0.0
H4735 H 0.11427 0.50516 0.35587 0.0
H4736 H 0.12297 0.50329 0.38788 0.0
C4737 C 0.39404 0.44745 0.9089 0.0
C4738 C 0.39836 0.43756 0.90807 0.0
C4739 C 0.39309 0.45374 0.90023 0.0
C4740 C 0.3964 0.45026 0.89055 0.0
C4741 C 0.40131 0.44067 0.88983 0.0
C4742 C 0.40232 0.4344 0.89851 0.0
C4743 C 0.39372 0.45611 0.88112 0.0
C4744 C 0.39483 0.46685 0.88074 0.0
C4745 C 0.39129 0.47246 0.87219 0.0
C4746 C 0.38663 0.46719 0.86397 0.0
C4747 C 0.38547 0.45646 0.86423 0.0
C4748 C 0.38915 0.45098 0.87278 0.0
C4749 C 0.37967 0.451 0.85605 0.0
C4750 C 0.37018 0.45486 0.85258 0.0
C4751 C 0.38318 0.44153 0.85221 0.0
C4752 C 0.37716 0.43586 0.84535 0.0
C4753 C 0.36747 0.4395 0.84223 0.0
C4754 C 0.39191 0.48388 0.87204 0.0
C4755 C 0.38958 0.48963 0.8809 0.0
C4756 C 0.39436 0.48912 0.8629 0.0
C4757 C 0.39416 0.49985 0.86255 0.0
C4758 C 0.39155 0.50559 0.87133 0.0
C4759 C 0.38942 0.50037 0.88055 0.0
C4760 C 0.36414 0.44916 0.84576 0.0
H4761 H 0.39082 0.45009 0.91611 0.0
H4762 H 0.38919 0.46106 0.901 0.0
H4763 H 0.40408 0.43787 0.88249 0.0
H4764 H 0.40588 0.42692 0.89764 0.0
H4765 H 0.39841 0.47082 0.88713 0.0
H4766 H 0.38788 0.44275 0.87322 0.0
H4767 H 0.38362 0.47146 0.85747 0.0
H4768 H 0.36723 0.4621 0.85546 0.0
H4769 H 0.3905 0.43841 0.85469 0.0
H4770 H 0.37991 0.4284 0.84283 0.0
H4771 H 0.38751 0.48583 0.88802 0.0
H4772 H 0.39638 0.48493 0.85599 0.0
H4773 H 0.35674 0.45221 0.84342 0.0
H4774 H 0.38727 0.50458 0.88741 0.0
H4775 H 0.39601 0.50367 0.85537 0.0
C4776 C 0.90839 0.8306 0.64042 0.0
C4777 C 0.9058 0.84085 0.64267 0.0
C4778 C 0.90256 0.8225 0.64438 0.0
C4779 C 0.894 0.82446 0.65071 0.0
C4780 C 0.89176 0.83469 0.65342 0.0
C4781 C 0.89759 0.8428 0.64944 0.0
C4782 C 0.88691 0.81596 0.65358 0.0
C4783 C 0.89074 0.80622 0.65622 0.0
C4784 C 0.88408 0.7978 0.65756 0.0
C4785 C 0.87341 0.79932 0.65653 0.0
C4786 C 0.86942 0.80906 0.65409 0.0
C4787 C 0.87624 0.81732 0.65265 0.0
C4788 C 0.85827 0.81056 0.6521 0.0
C4789 C 0.85277 0.80353 0.64599 0.0
C4790 C 0.8533 0.81954 0.65549 0.0
C4791 C 0.84328 0.82176 0.65231 0.0
C4792 C 0.838 0.81504 0.64569 0.0
C4793 C 0.88832 0.7873 0.65931 0.0
C4794 C 0.89727 0.78411 0.65414 0.0
C4795 C 0.8833 0.78029 0.66584 0.0
C4796 C 0.88706 0.77028 0.66705 0.0
C4797 C 0.89596 0.76707 0.66179 0.0
C4798 C 0.90107 0.77416 0.65542 0.0
C4799 C 0.84272 0.80574 0.64283 0.0
H4800 H 0.91458 0.82884 0.63513 0.0
H4801 H 0.90442 0.81473 0.64202 0.0
H4802 H 0.88532 0.83643 0.65841 0.0
H4803 H 0.8955 0.85061 0.65144 0.0
H4804 H 0.89897 0.80519 0.65711 0.0
H4805 H 0.87326 0.8247 0.65017 0.0
H4806 H 0.86819 0.79286 0.65733 0.0
H4807 H 0.85641 0.79659 0.64317 0.0
H4808 H 0.85727 0.82502 0.66035 0.0
H4809 H 0.83977 0.8289 0.65478 0.0
H4810 H 0.90126 0.78923 0.64892 0.0
H4811 H 0.87645 0.78252 0.67002 0.0
H4812 H 0.83888 0.80045 0.63766 0.0
H4813 H 0.90804 0.77202 0.65137 0.0
H4814 H 0.88285 0.76501 0.67194 0.0
C4815 C 0.94563 0.1026 0.39933 0.0
C4816 C 0.93727 0.10021 0.39292 0.0
C4817 C 0.95158 0.11141 0.39743 0.0
C4818 C 0.94933 0.11786 0.389 0.0
C4819 C 0.94112 0.1152 0.38248 0.0
C4820 C 0.93513 0.10656 0.38446 0.0
C4821 C 0.95549 0.12727 0.38678 0.0
C4822 C 0.96625 0.12732 0.3879 0.0
C4823 C 0.9721 0.13587 0.38471 0.0
C4824 C 0.96705 0.14444 0.38042 0.0
C4825 C 0.95635 0.14442 0.37912 0.0
C4826 C 0.95064 0.13599 0.38264 0.0
C4827 C 0.9512 0.15259 0.37306 0.0
C4828 C 0.95305 0.16308 0.37494 0.0
C4829 C 0.94439 0.14979 0.36516 0.0
C4830 C 0.93941 0.15727 0.35935 0.0
C4831 C 0.94108 0.16777 0.36128 0.0
C4832 C 0.98352 0.13552 0.38508 0.0
C4833 C 0.9887 0.13125 0.39356 0.0
C4834 C 0.98934 0.13933 0.37679 0.0
C4835 C 1.00006 0.13898 0.37702 0.0
C4836 C 0.00526 0.13473 0.38549 0.0
C4837 C 0.99946 0.13086 0.39377 0.0
C4838 C 0.94795 0.17062 0.36914 0.0
H4839 H 0.94745 0.09776 0.40586 0.0
H4840 H 0.95784 0.11323 0.40262 0.0
H4841 H 0.93936 0.11972 0.3757 0.0
H4842 H 0.92889 0.10474 0.37924 0.0
H4843 H 0.97013 0.12049 0.39069 0.0
H4844 H 0.94234 0.13614 0.38185 0.0
H4845 H 0.97147 0.15097 0.37772 0.0
H4846 H 0.95828 0.16543 0.38098 0.0
H4847 H 0.94293 0.14177 0.36344 0.0
H4848 H 0.93404 0.15481 0.35347 0.0
H4849 H 0.98444 0.12829 0.40008 0.0
H4850 H 0.98562 0.1425 0.37005 0.0
H4851 H 0.94939 0.17866 0.37079 0.0
H4852 H 1.00322 0.12744 0.40037 0.0
H4853 H 1.00427 0.14218 0.37058 0.0
C4854 C 0.5998 0.17893 0.14532 0.0
C4855 C 0.60269 0.1687 0.14728 0.0
C4856 C 0.60541 0.18707 0.14951 0.0
C4857 C 0.61403 0.18517 0.15577 0.0
C4858 C 0.61651 0.17494 0.15826 0.0
C4859 C 0.61091 0.16679 0.15404 0.0
C4860 C 0.62104 0.19373 0.15862 0.0
C4861 C 0.61712 0.20342 0.16135 0.0
C4862 C 0.62368 0.21198 0.16237 0.0
C4863 C 0.63434 0.21062 0.16101 0.0
C4864 C 0.63841 0.20092 0.15857 0.0
C4865 C 0.63169 0.19254 0.15741 0.0
C4866 C 0.64949 0.19956 0.15616 0.0
C4867 C 0.6546 0.20649 0.1496 0.0
C4868 C 0.65472 0.19071 0.1595 0.0
C4869 C 0.66454 0.18845 0.1558 0.0
C4870 C 0.66937 0.19502 0.1487 0.0
C4871 C 0.6193 0.22244 0.16399 0.0
C4872 C 0.61007 0.22531 0.15911 0.0
C4873 C 0.62449 0.22979 0.16999 0.0
C4874 C 0.62072 0.23983 0.17083 0.0
C4875 C 0.6116 0.24273 0.16576 0.0
C4876 C 0.60624 0.23528 0.16006 0.0
C4877 C 0.66446 0.20425 0.14592 0.0
H4878 H 0.59359 0.18067 0.14005 0.0
H4879 H 0.60337 0.19485 0.14733 0.0
H4880 H 0.623 0.17322 0.16319 0.0
H4881 H 0.61321 0.15898 0.15582 0.0
H4882 H 0.60891 0.20431 0.16245 0.0
H4883 H 0.63473 0.18521 0.15486 0.0
H4884 H 0.63948 0.21717 0.16152 0.0
H4885 H 0.65075 0.21333 0.14682 0.0
H4886 H 0.65104 0.18531 0.16469 0.0
H4887 H 0.66822 0.18138 0.15821 0.0
H4888 H 0.60592 0.21994 0.15429 0.0
H4889 H 0.63155 0.22783 0.17397 0.0
H4890 H 0.66797 0.20942 0.1404 0.0
H4891 H 0.5991 0.23717 0.15619 0.0
H4892 H 0.62512 0.24537 0.17523 0.0
C4893 C 0.5596 0.84515 0.86424 0.0
C4894 C 0.56914 0.84183 0.86809 0.0
C4895 C 0.55373 0.85235 0.86966 0.0
C4896 C 0.5573 0.85641 0.87903 0.0
C4897 C 0.56663 0.85277 0.88309 0.0
C4898 C 0.57248 0.84554 0.87769 0.0
C4899 C 0.55167 0.86497 0.8841 0.0
C4900 C 0.54089 0.8649 0.88464 0.0
C4901 C 0.53546 0.87348 0.88839 0.0
C4902 C 0.541 0.88212 0.8918 0.0
C4903 C 0.5518 0.88228 0.89142 0.0
C4904 C 0.55707 0.87364 0.88763 0.0
C4905 C 0.55759 0.89176 0.89403 0.0
C4906 C 0.55435 0.90134 0.8902 0.0
C4907 C 0.56681 0.89122 0.89964 0.0
C4908 C 0.57293 0.89997 0.90094 0.0
C4909 C 0.56998 0.90943 0.8966 0.0
C4910 C 0.52403 0.87365 0.88818 0.0
C4911 C 0.51867 0.86949 0.87976 0.0
C4912 C 0.51839 0.87819 0.89622 0.0
C4913 C 0.50765 0.87859 0.89581 0.0
C4914 C 0.5023 0.87443 0.88738 0.0
C4915 C 0.50795 0.86983 0.87939 0.0
C4916 C 0.56049 0.91007 0.89145 0.0
H4917 H 0.55678 0.84236 0.85691 0.0
H4918 H 0.54661 0.85505 0.86628 0.0
H4919 H 0.56953 0.85569 0.89033 0.0
H4920 H 0.57984 0.8432 0.88083 0.0
H4921 H 0.53671 0.85816 0.88207 0.0
H4922 H 0.56536 0.87391 0.88685 0.0
H4923 H 0.53691 0.88887 0.89448 0.0
H4924 H 0.54734 0.90199 0.88574 0.0
H4925 H 0.56942 0.88396 0.9028 0.0
H4926 H 0.58011 0.89925 0.9051 0.0
H4927 H 0.52276 0.86608 0.87335 0.0
H4928 H 0.52227 0.88139 0.90286 0.0
H4929 H 0.55804 0.91719 0.88788 0.0
H4930 H 0.50409 0.8664 0.87285 0.0
H4931 H 0.50355 0.88227 0.90206 0.0
C4932 C 0.90837 0.17864 0.86894 0.0
C4933 C 0.90577 0.16839 0.86669 0.0
C4934 C 0.90254 0.18674 0.86498 0.0
C4935 C 0.89398 0.18479 0.85867 0.0
C4936 C 0.89173 0.17456 0.85595 0.0
C4937 C 0.89756 0.16645 0.85993 0.0
C4938 C 0.88688 0.19329 0.85581 0.0
C4939 C 0.89071 0.20303 0.85317 0.0
C4940 C 0.88405 0.21145 0.85185 0.0
C4941 C 0.87337 0.20993 0.85289 0.0
C4942 C 0.8694 0.20018 0.85532 0.0
C4943 C 0.87621 0.19192 0.85675 0.0
C4944 C 0.85824 0.19868 0.85732 0.0
C4945 C 0.85275 0.2057 0.86345 0.0
C4946 C 0.85326 0.1897 0.85394 0.0
C4947 C 0.84325 0.18748 0.85713 0.0
C4948 C 0.83799 0.1942 0.86376 0.0
C4949 C 0.88828 0.22195 0.85011 0.0
C4950 C 0.89725 0.22514 0.85526 0.0
C4951 C 0.88326 0.22897 0.84358 0.0
C4952 C 0.88702 0.23898 0.84239 0.0
C4953 C 0.89592 0.24219 0.84764 0.0
C4954 C 0.90105 0.23509 0.854 0.0
C4955 C 0.84271 0.20349 0.86662 0.0
H4956 H 0.91457 0.1804 0.87422 0.0
H4957 H 0.9044 0.19451 0.86735 0.0
H4958 H 0.88528 0.17282 0.85097 0.0
H4959 H 0.89547 0.15864 0.85792 0.0
H4960 H 0.89894 0.20407 0.85227 0.0
H4961 H 0.87323 0.18454 0.85922 0.0
H4962 H 0.86816 0.21638 0.8521 0.0
H4963 H 0.8564 0.21264 0.86627 0.0
H4964 H 0.85723 0.18423 0.84907 0.0
H4965 H 0.83974 0.18034 0.85466 0.0
H4966 H 0.90124 0.22001 0.86048 0.0
H4967 H 0.87641 0.22675 0.83941 0.0
H4968 H 0.83888 0.20877 0.8718 0.0
H4969 H 0.90801 0.23723 0.85804 0.0
H4970 H 0.88281 0.24426 0.83751 0.0
C4971 C 0.5596 0.16409 0.64523 0.0
C4972 C 0.56914 0.16741 0.64138 0.0
C4973 C 0.55373 0.15689 0.63981 0.0
C4974 C 0.5573 0.15283 0.63044 0.0
C4975 C 0.56664 0.15647 0.62639 0.0
C4976 C 0.57249 0.1637 0.63179 0.0
C4977 C 0.55167 0.14427 0.62537 0.0
C4978 C 0.54089 0.14434 0.62482 0.0
C4979 C 0.53546 0.13576 0.62107 0.0
C4980 C 0.541 0.12712 0.61766 0.0
C4981 C 0.5518 0.12696 0.61805 0.0
C4982 C 0.55707 0.1356 0.62184 0.0
C4983 C 0.55759 0.11748 0.61544 0.0
C4984 C 0.55435 0.1079 0.61927 0.0
C4985 C 0.56681 0.11802 0.60984 0.0
C4986 C 0.57293 0.10928 0.60854 0.0
C4987 C 0.56998 0.09981 0.61288 0.0
C4988 C 0.52403 0.13559 0.62128 0.0
C4989 C 0.51867 0.13975 0.6297 0.0
C4990 C 0.51839 0.13105 0.61324 0.0
C4991 C 0.50765 0.13065 0.61364 0.0
C4992 C 0.5023 0.13481 0.62207 0.0
C4993 C 0.50795 0.13941 0.63006 0.0
C4994 C 0.56048 0.09917 0.61802 0.0
H4995 H 0.55678 0.16687 0.65256 0.0
H4996 H 0.54661 0.15419 0.64319 0.0
H4997 H 0.56954 0.15355 0.61914 0.0
H4998 H 0.57984 0.16604 0.62865 0.0
H4999 H 0.53671 0.15108 0.62739 0.0
H5000 H 0.56536 0.13533 0.62262 0.0
H5001 H 0.53691 0.12037 0.61498 0.0
H5002 H 0.54734 0.10725 0.62373 0.0
H5003 H 0.56942 0.12528 0.60667 0.0
H5004 H 0.58011 0.11 0.60438 0.0
H5005 H 0.52275 0.14316 0.63611 0.0
H5006 H 0.52227 0.12785 0.6066 0.0
H5007 H 0.55803 0.09205 0.6216 0.0
H5008 H 0.50409 0.14284 0.6366 0.0
H5009 H 0.50355 0.12697 0.60739 0.0
C5010 C 0.59979 0.83031 0.36415 0.0
C5011 C 0.60268 0.84055 0.36219 0.0
C5012 C 0.6054 0.82217 0.35995 0.0
C5013 C 0.61401 0.82408 0.35369 0.0
C5014 C 0.61649 0.83431 0.35121 0.0
C5015 C 0.6109 0.84246 0.35543 0.0
C5016 C 0.62102 0.81552 0.35085 0.0
C5017 C 0.6171 0.80583 0.34812 0.0
C5018 C 0.62365 0.79727 0.3471 0.0
C5019 C 0.63432 0.79863 0.34845 0.0
C5020 C 0.63839 0.80834 0.3509 0.0
C5021 C 0.63168 0.81671 0.35206 0.0
C5022 C 0.64948 0.80969 0.35331 0.0
C5023 C 0.65458 0.80276 0.35986 0.0
C5024 C 0.6547 0.81855 0.34997 0.0
C5025 C 0.66452 0.8208 0.35367 0.0
C5026 C 0.66935 0.81423 0.36077 0.0
C5027 C 0.61928 0.78681 0.34548 0.0
C5028 C 0.61005 0.78394 0.35036 0.0
C5029 C 0.62447 0.77946 0.33948 0.0
C5030 C 0.6207 0.76942 0.33864 0.0
C5031 C 0.61158 0.76651 0.34371 0.0
C5032 C 0.60622 0.77396 0.34942 0.0
C5033 C 0.66444 0.80501 0.36355 0.0
H5034 H 0.59358 0.82857 0.36942 0.0
H5035 H 0.60335 0.8144 0.36214 0.0
H5036 H 0.62299 0.83603 0.34627 0.0
H5037 H 0.6132 0.85027 0.35364 0.0
H5038 H 0.60889 0.80494 0.34702 0.0
H5039 H 0.63471 0.82404 0.35461 0.0
H5040 H 0.63945 0.79208 0.34794 0.0
H5041 H 0.65072 0.79592 0.36265 0.0
H5042 H 0.65103 0.82394 0.34478 0.0
H5043 H 0.6682 0.82788 0.35126 0.0
H5044 H 0.6059 0.78931 0.35518 0.0
H5045 H 0.63152 0.78142 0.3355 0.0
H5046 H 0.66795 0.79984 0.36907 0.0
H5047 H 0.59908 0.77207 0.35328 0.0
H5048 H 0.62509 0.76388 0.33425 0.0
C5049 C 0.94565 0.90667 0.11018 0.0
C5050 C 0.93729 0.90905 0.11658 0.0
C5051 C 0.9516 0.89786 0.11207 0.0
C5052 C 0.94935 0.89141 0.1205 0.0
C5053 C 0.94114 0.89407 0.12703 0.0
C5054 C 0.93515 0.90271 0.12504 0.0
C5055 C 0.95551 0.88201 0.12272 0.0
C5056 C 0.96627 0.88196 0.12161 0.0
C5057 C 0.97211 0.87341 0.12479 0.0
C5058 C 0.96706 0.86484 0.12908 0.0
C5059 C 0.95636 0.86485 0.13038 0.0
C5060 C 0.95065 0.87329 0.12687 0.0
C5061 C 0.9512 0.85668 0.13644 0.0
C5062 C 0.95305 0.84619 0.13457 0.0
C5063 C 0.9444 0.85948 0.14434 0.0
C5064 C 0.93941 0.852 0.15015 0.0
C5065 C 0.94109 0.8415 0.14822 0.0
C5066 C 0.98354 0.87375 0.12443 0.0
C5067 C 0.98871 0.87802 0.11594 0.0
C5068 C 0.98935 0.86994 0.13271 0.0
C5069 C 1.00007 0.87028 0.13249 0.0
C5070 C 0.00527 0.87454 0.12402 0.0
C5071 C 0.99947 0.87841 0.11574 0.0
C5072 C 0.94796 0.83865 0.14036 0.0
H5073 H 0.94747 0.91151 0.10364 0.0
H5074 H 0.95786 0.89604 0.10689 0.0
H5075 H 0.93938 0.88956 0.1338 0.0
H5076 H 0.92891 0.90453 0.13026 0.0
H5077 H 0.97014 0.88878 0.11881 0.0
H5078 H 0.94235 0.87313 0.12765 0.0
H5079 H 0.97147 0.8583 0.13178 0.0
H5080 H 0.95829 0.84384 0.12852 0.0
H5081 H 0.94294 0.8675 0.14606 0.0
H5082 H 0.93404 0.85446 0.15603 0.0
H5083 H 0.98446 0.88098 0.10942 0.0
H5084 H 0.98563 0.86677 0.13946 0.0
H5085 H 0.94939 0.83061 0.13871 0.0
H5086 H 1.00323 0.88182 0.10913 0.0
H5087 H 1.00428 0.86708 0.13893 0.0
C5088 C 0.64359 0.90859 0.83039 0.0
C5089 C 0.64586 0.90589 0.84061 0.0
C5090 C 0.64758 0.90287 0.82222 0.0
C5091 C 0.65394 0.89433 0.82409 0.0
C5092 C 0.65672 0.89202 0.83429 0.0
C5093 C 0.65271 0.89773 0.84247 0.0
C5094 C 0.65667 0.88725 0.81555 0.0
C5095 C 0.65912 0.89107 0.80576 0.0
C5096 C 0.66014 0.88442 0.79728 0.0
C5097 C 0.65904 0.87375 0.7988 0.0
C5098 C 0.65686 0.86978 0.80861 0.0
C5099 C 0.6557 0.87659 0.81691 0.0
C5100 C 0.65473 0.85867 0.81017 0.0
C5101 C 0.64814 0.85333 0.80346 0.0
C5102 C 0.65838 0.85365 0.81902 0.0
C5103 C 0.65494 0.84378 0.8215 0.0
C5104 C 0.6478 0.83872 0.81516 0.0
C5105 C 0.66162 0.88869 0.78676 0.0
C5106 C 0.65646 0.89771 0.78376 0.0
C5107 C 0.6679 0.88365 0.77953 0.0
C5108 C 0.66888 0.88748 0.76952 0.0
C5109 C 0.66364 0.89647 0.76652 0.0
C5110 C 0.65751 0.90159 0.77381 0.0
C5111 C 0.64471 0.84343 0.80593 0.0
H5112 H 0.63824 0.91475 0.82869 0.0
H5113 H 0.64516 0.90478 0.81448 0.0
H5114 H 0.66174 0.88559 0.83597 0.0
H5115 H 0.65472 0.89558 0.85026 0.0
H5116 H 0.66005 0.89929 0.80471 0.0
H5117 H 0.65337 0.8736 0.82434 0.0
H5118 H 0.65958 0.86855 0.79232 0.0
H5119 H 0.64513 0.85703 0.79663 0.0
H5120 H 0.6636 0.85751 0.82424 0.0
H5121 H 0.65759 0.84026 0.82857 0.0
H5122 H 0.65142 0.90172 0.78904 0.0
H5123 H 0.67206 0.87674 0.7816 0.0
H5124 H 0.63915 0.83974 0.80094 0.0
H5125 H 0.65349 0.90861 0.77183 0.0
H5126 H 0.67358 0.88327 0.76409 0.0
C5127 C 0.90634 0.89963 0.56139 0.0
C5128 C 0.90881 0.89325 0.56975 0.0
C5129 C 0.89749 0.89768 0.55551 0.0
C5130 C 0.8911 0.88923 0.55783 0.0
C5131 C 0.89385 0.88273 0.56603 0.0
C5132 C 0.90252 0.88477 0.57195 0.0
C5133 C 0.88164 0.88696 0.55175 0.0
C5134 C 0.88149 0.88806 0.54099 0.0
C5135 C 0.87291 0.88482 0.53522 0.0
C5136 C 0.86441 0.88048 0.54036 0.0
C5137 C 0.86452 0.8792 0.55106 0.0
C5138 C 0.87299 0.88278 0.55669 0.0
C5139 C 0.85643 0.87312 0.55631 0.0
C5140 C 0.84591 0.87495 0.55458 0.0
C5141 C 0.85934 0.86526 0.56313 0.0
C5142 C 0.85193 0.85946 0.56825 0.0
C5143 C 0.84141 0.86136 0.5667 0.0
C5144 C 0.87316 0.88516 0.5238 0.0
C5145 C 0.87732 0.89366 0.51856 0.0
C5146 C 0.86939 0.87682 0.51804 0.0
C5147 C 0.86971 0.877 0.50732 0.0
C5148 C 0.87388 0.88548 0.50206 0.0
C5149 C 0.87768 0.89382 0.5078 0.0
C5150 C 0.83845 0.86916 0.5598 0.0
H5151 H 0.91114 0.90618 0.55952 0.0
H5152 H 0.8956 0.90284 0.54925 0.0
H5153 H 0.88938 0.87594 0.56784 0.0
H5154 H 0.90442 0.87958 0.5782 0.0
H5155 H 0.88827 0.89089 0.53705 0.0
H5156 H 0.87291 0.88201 0.565 0.0
H5157 H 0.85785 0.87773 0.53601 0.0
H5158 H 0.84348 0.88095 0.54934 0.0
H5159 H 0.86738 0.86357 0.5645 0.0
H5160 H 0.85448 0.85362 0.57363 0.0
H5161 H 0.88024 0.90022 0.52278 0.0
H5162 H 0.8663 0.87006 0.5218 0.0
H5163 H 0.83039 0.87078 0.55846 0.0
H5164 H 0.88101 0.90044 0.504 0.0
H5165 H 0.86657 0.8705 0.50315 0.0
C5166 C 0.86798 0.10099 0.32924 0.0
C5167 C 0.8654 0.1035 0.33944 0.0
C5168 C 0.86429 0.1069 0.32107 0.0
C5169 C 0.85793 0.11545 0.32289 0.0
C5170 C 0.85489 0.11761 0.33305 0.0
C5171 C 0.85859 0.1117 0.34123 0.0
C5172 C 0.85534 0.12261 0.31437 0.0
C5173 C 0.85298 0.11887 0.30451 0.0
C5174 C 0.85188 0.12562 0.29612 0.0
C5175 C 0.85286 0.13627 0.29777 0.0
C5176 C 0.85503 0.14016 0.30762 0.0
C5177 C 0.85623 0.13327 0.31585 0.0
C5178 C 0.85698 0.1513 0.30926 0.0
C5179 C 0.86324 0.15687 0.30241 0.0
C5180 C 0.85337 0.1562 0.31819 0.0
C5181 C 0.85644 0.16622 0.32054 0.0
C5182 C 0.86318 0.17157 0.31399 0.0
C5183 C 0.85042 0.1215 0.28553 0.0
C5184 C 0.8557 0.11261 0.28236 0.0
C5185 C 0.84409 0.12661 0.2784 0.0
C5186 C 0.84323 0.12302 0.2683 0.0
C5187 C 0.84863 0.11421 0.2651 0.0
C5188 C 0.85477 0.10898 0.2723 0.0
C5189 C 0.8663 0.16692 0.30475 0.0
H5190 H 0.87332 0.0948 0.3276 0.0
H5191 H 0.8669 0.1051 0.31336 0.0
H5192 H 0.84985 0.12404 0.33469 0.0
H5193 H 0.85634 0.11372 0.349 0.0
H5194 H 0.85213 0.11066 0.30337 0.0
H5195 H 0.8585 0.13618 0.32333 0.0
H5196 H 0.85224 0.14155 0.29135 0.0
H5197 H 0.86624 0.15328 0.29552 0.0
H5198 H 0.84839 0.15218 0.32353 0.0
H5199 H 0.85378 0.16968 0.32764 0.0
H5200 H 0.86077 0.10855 0.28758 0.0
H5201 H 0.83982 0.13341 0.28061 0.0
H5202 H 0.87157 0.17081 0.2996 0.0
H5203 H 0.85892 0.10208 0.27017 0.0
H5204 H 0.8385 0.12731 0.26294 0.0
C5205 C 0.66362 0.14646 0.05961 0.0
C5206 C 0.66703 0.14272 0.06916 0.0
C5207 C 0.65653 0.14087 0.05377 0.0
C5208 C 0.65266 0.13144 0.05739 0.0
C5209 C 0.65639 0.1275 0.06674 0.0
C5210 C 0.66352 0.13306 0.07255 0.0
C5211 C 0.64419 0.12618 0.05181 0.0
C5212 C 0.64427 0.12555 0.04103 0.0
C5213 C 0.63574 0.12164 0.03564 0.0
C5214 C 0.62713 0.11817 0.0412 0.0
C5215 C 0.62697 0.11864 0.05199 0.0
C5216 C 0.63556 0.12258 0.05723 0.0
C5217 C 0.6175 0.116 0.0578 0.0
C5218 C 0.60789 0.11972 0.05453 0.0
C5219 C 0.61809 0.11048 0.06708 0.0
C5220 C 0.60935 0.10918 0.07321 0.0
C5221 C 0.59985 0.11342 0.07023 0.0
C5222 C 0.63556 0.12177 0.0242 0.0
C5223 C 0.63962 0.13021 0.01878 0.0
C5224 C 0.63113 0.11364 0.01862 0.0
C5225 C 0.63072 0.11397 0.00787 0.0
C5226 C 0.63477 0.12242 1.00247 0.0
C5227 C 0.63928 0.1305 0.00806 0.0
C5228 C 0.59917 0.11846 0.06068 0.0
H5229 H 0.66626 0.15383 0.05676 0.0
H5230 H 0.65375 0.14416 0.04664 0.0
H5231 H 0.65361 0.12021 0.06968 0.0
H5232 H 0.66593 0.13001 0.07992 0.0
H5233 H 0.65098 0.12818 0.03684 0.0
H5234 H 0.63527 0.12343 0.06552 0.0
H5235 H 0.62041 0.11537 0.03713 0.0
H5236 H 0.60721 0.12411 0.04747 0.0
H5237 H 0.62537 0.1074 0.06971 0.0
H5238 H 0.61011 0.1051 0.08044 0.0
H5239 H 0.64295 0.13669 0.02283 0.0
H5240 H 0.62801 0.10698 0.02254 0.0
H5241 H 0.59203 0.12197 0.0582 0.0
H5242 H 0.64262 0.13706 1.00416 0.0
H5243 H 0.62712 0.10764 1.00382 0.0
C5244 C 0.64358 0.10066 0.67911 0.0
C5245 C 0.64585 0.10336 0.66889 0.0
C5246 C 0.64757 0.10639 0.68728 0.0
C5247 C 0.65393 0.11493 0.6854 0.0
C5248 C 0.65671 0.11724 0.6752 0.0
C5249 C 0.6527 0.11152 0.66703 0.0
C5250 C 0.65667 0.12201 0.69395 0.0
C5251 C 0.65911 0.11818 0.70374 0.0
C5252 C 0.66014 0.12484 0.71222 0.0
C5253 C 0.65904 0.1355 0.71069 0.0
C5254 C 0.65685 0.13948 0.70089 0.0
C5255 C 0.6557 0.13267 0.69258 0.0
C5256 C 0.65473 0.15059 0.69932 0.0
C5257 C 0.64814 0.15593 0.70603 0.0
C5258 C 0.65838 0.15561 0.69047 0.0
C5259 C 0.65494 0.16547 0.688 0.0
C5260 C 0.64779 0.17054 0.69433 0.0
C5261 C 0.66162 0.12057 0.72274 0.0
C5262 C 0.65646 0.11154 0.72574 0.0
C5263 C 0.6679 0.12561 0.72996 0.0
C5264 C 0.66888 0.12178 0.73997 0.0
C5265 C 0.66365 0.11279 0.74297 0.0
C5266 C 0.65751 0.10767 0.73569 0.0
C5267 C 0.64471 0.16582 0.70356 0.0
H5268 H 0.63823 0.0945 0.68081 0.0
H5269 H 0.64515 0.10448 0.69502 0.0
H5270 H 0.66174 0.12367 0.67352 0.0
H5271 H 0.65471 0.11368 0.65924 0.0
H5272 H 0.66004 0.10997 0.70478 0.0
H5273 H 0.65336 0.13565 0.68515 0.0
H5274 H 0.65958 0.14071 0.71718 0.0
H5275 H 0.64513 0.15223 0.71287 0.0
H5276 H 0.6636 0.15175 0.68525 0.0
H5277 H 0.65759 0.169 0.68093 0.0
H5278 H 0.65141 0.10754 0.72045 0.0
H5279 H 0.67206 0.13252 0.7279 0.0
H5280 H 0.63915 0.16951 0.70856 0.0
H5281 H 0.65349 0.10065 0.73767 0.0
H5282 H 0.67358 0.126 0.7454 0.0
C5283 C 0.66363 0.86278 0.44988 0.0
C5284 C 0.66704 0.86653 0.44033 0.0
C5285 C 0.65655 0.86837 0.45572 0.0
C5286 C 0.65268 0.8778 0.45211 0.0
C5287 C 0.65641 0.88175 0.44276 0.0
C5288 C 0.66354 0.87618 0.43695 0.0
C5289 C 0.6442 0.88306 0.45769 0.0
C5290 C 0.64428 0.88369 0.46847 0.0
C5291 C 0.63575 0.88759 0.47386 0.0
C5292 C 0.62715 0.89107 0.4683 0.0
C5293 C 0.62698 0.8906 0.45751 0.0
C5294 C 0.63558 0.88666 0.45227 0.0
C5295 C 0.61751 0.89324 0.4517 0.0
C5296 C 0.60791 0.88951 0.45497 0.0
C5297 C 0.61811 0.89876 0.44242 0.0
C5298 C 0.60937 0.90006 0.43628 0.0
C5299 C 0.59987 0.89582 0.43926 0.0
C5300 C 0.63558 0.88746 0.4853 0.0
C5301 C 0.63963 0.87902 0.49071 0.0
C5302 C 0.63115 0.89559 0.49088 0.0
C5303 C 0.63074 0.89526 0.50162 0.0
C5304 C 0.63479 0.88681 0.50703 0.0
C5305 C 0.63929 0.87873 0.50143 0.0
C5306 C 0.59919 0.89077 0.44881 0.0
H5307 H 0.66626 0.85541 0.45273 0.0
H5308 H 0.65376 0.86508 0.46285 0.0
H5309 H 0.65363 0.88904 0.43983 0.0
H5310 H 0.66595 0.87924 0.42958 0.0
H5311 H 0.65099 0.88106 0.47266 0.0
H5312 H 0.63529 0.88581 0.44398 0.0
H5313 H 0.62043 0.89386 0.47237 0.0
H5314 H 0.60722 0.88513 0.46202 0.0
H5315 H 0.62539 0.90184 0.43978 0.0
H5316 H 0.61013 0.90414 0.42906 0.0
H5317 H 0.64296 0.87255 0.48667 0.0
H5318 H 0.62803 0.90225 0.48696 0.0
H5319 H 0.59204 0.88727 0.45129 0.0
H5320 H 0.64263 0.87217 0.50534 0.0
H5321 H 0.62714 0.90158 0.50568 0.0
C5322 C 0.86799 0.90826 0.18023 0.0
C5323 C 0.86541 0.90575 0.17004 0.0
C5324 C 0.8643 0.90234 0.18841 0.0
C5325 C 0.85793 0.89379 0.18658 0.0
C5326 C 0.85489 0.89163 0.17643 0.0
C5327 C 0.8586 0.89754 0.16824 0.0
C5328 C 0.85534 0.88663 0.19511 0.0
C5329 C 0.85299 0.89037 0.20496 0.0
C5330 C 0.85189 0.88362 0.21336 0.0
C5331 C 0.85287 0.87297 0.21171 0.0
C5332 C 0.85504 0.86908 0.20186 0.0
C5333 C 0.85624 0.87597 0.19363 0.0
C5334 C 0.85699 0.85794 0.20022 0.0
C5335 C 0.86324 0.85237 0.20707 0.0
C5336 C 0.85337 0.85304 0.19129 0.0
C5337 C 0.85644 0.84302 0.18894 0.0
C5338 C 0.86318 0.83767 0.19549 0.0
C5339 C 0.85043 0.88774 0.22394 0.0
C5340 C 0.85571 0.89663 0.22711 0.0
C5341 C 0.84409 0.88264 0.23107 0.0
C5342 C 0.84323 0.88622 0.24118 0.0
C5343 C 0.84864 0.89503 0.24438 0.0
C5344 C 0.85478 0.90026 0.23717 0.0
C5345 C 0.8663 0.84233 0.20473 0.0
H5346 H 0.87333 0.91444 0.18188 0.0
H5347 H 0.86691 0.90414 0.19612 0.0
H5348 H 0.84986 0.8852 0.17479 0.0
H5349 H 0.85635 0.89552 0.16048 0.0
H5350 H 0.85214 0.89858 0.2061 0.0
H5351 H 0.8585 0.87306 0.18615 0.0
H5352 H 0.85224 0.86769 0.21813 0.0
H5353 H 0.86625 0.85596 0.21396 0.0
H5354 H 0.8484 0.85706 0.18595 0.0
H5355 H 0.85378 0.83956 0.18185 0.0
H5356 H 0.86078 0.90069 0.22189 0.0
H5357 H 0.83982 0.87583 0.22887 0.0
H5358 H 0.87157 0.83843 0.20988 0.0
H5359 H 0.85893 0.90716 0.2393 0.0
H5360 H 0.83851 0.88193 0.24654 0.0
C5361 C 0.90639 0.10968 0.94805 0.0
C5362 C 0.90886 0.11606 0.93969 0.0
C5363 C 0.89756 0.11163 0.95395 0.0
C5364 C 0.89117 0.12009 0.95164 0.0
C5365 C 0.89392 0.12659 0.94344 0.0
C5366 C 0.90258 0.12455 0.9375 0.0
C5367 C 0.88173 0.12236 0.95773 0.0
C5368 C 0.88158 0.12126 0.96848 0.0
C5369 C 0.873 0.1245 0.97426 0.0
C5370 C 0.8645 0.12884 0.96913 0.0
C5371 C 0.86461 0.13011 0.95844 0.0
C5372 C 0.87306 0.12654 0.95279 0.0
C5373 C 0.85651 0.13619 0.95319 0.0
C5374 C 0.84599 0.13436 0.95493 0.0
C5375 C 0.85941 0.14406 0.94637 0.0
C5376 C 0.852 0.14985 0.94126 0.0
C5377 C 0.84147 0.14794 0.94281 0.0
C5378 C 0.87327 0.12416 0.98569 0.0
C5379 C 0.87743 0.11565 0.99092 0.0
C5380 C 0.86951 0.13249 0.99145 0.0
C5381 C 0.86983 0.13231 1.00217 0.0
C5382 C 0.87399 0.12383 0.00743 0.0
C5383 C 0.87778 0.11548 1.00168 0.0
C5384 C 0.83852 0.14013 0.94971 0.0
H5385 H 0.91119 0.10313 0.94991 0.0
H5386 H 0.89567 0.10647 0.9602 0.0
H5387 H 0.88945 0.13338 0.94164 0.0
H5388 H 0.90447 0.12974 0.93125 0.0
H5389 H 0.88836 0.11843 0.97242 0.0
H5390 H 0.87298 0.12731 0.94449 0.0
H5391 H 0.85795 0.13159 0.9735 0.0
H5392 H 0.84357 0.12835 0.96017 0.0
H5393 H 0.86745 0.14575 0.94499 0.0
H5394 H 0.85454 0.15568 0.93587 0.0
H5395 H 0.88034 0.10909 0.9867 0.0
H5396 H 0.86642 0.13925 0.98769 0.0
H5397 H 0.83046 0.13851 0.95105 0.0
H5398 H 0.88112 0.10887 0.00548 0.0
H5399 H 0.86669 0.1388 0.00634 0.0
C5400 C 0.83023 0.64503 0.90909 0.0
C5401 C 0.84048 0.64704 0.90629 0.0
C5402 C 0.82211 0.6492 0.90342 0.0
C5403 C 0.82407 0.6555 0.89484 0.0
C5404 C 0.83431 0.65804 0.89246 0.0
C5405 C 0.84243 0.65384 0.89812 0.0
C5406 C 0.81555 0.65834 0.88777 0.0
C5407 C 0.80582 0.66101 0.89161 0.0
C5408 C 0.79732 0.66205 0.88498 0.0
C5409 C 0.79877 0.66076 0.87432 0.0
C5410 C 0.80853 0.65837 0.87033 0.0
C5411 C 0.81684 0.65719 0.87712 0.0
C5412 C 0.81 0.65605 0.85925 0.0
C5413 C 0.80314 0.6495 0.85403 0.0
C5414 C 0.81889 0.65945 0.85413 0.0
C5415 C 0.82125 0.65583 0.84431 0.0
C5416 C 0.81476 0.64874 0.83937 0.0
C5417 C 0.78681 0.66364 0.88927 0.0
C5418 C 0.78386 0.6587 0.89844 0.0
C5419 C 0.77951 0.6697 0.88406 0.0
C5420 C 0.76945 0.67055 0.88777 0.0
C5421 C 0.76646 0.66543 0.89684 0.0
C5422 C 0.77386 0.65965 0.90221 0.0
C5423 C 0.8055 0.64589 0.84417 0.0
H5424 H 0.82845 0.63972 0.91526 0.0
H5425 H 0.81433 0.64697 0.90539 0.0
H5426 H 0.83606 0.66301 0.886 0.0
H5427 H 0.85026 0.65566 0.89589 0.0
H5428 H 0.80485 0.66207 0.89982 0.0
H5429 H 0.82422 0.65469 0.87414 0.0
H5430 H 0.79227 0.66129 0.86913 0.0
H5431 H 0.79627 0.64666 0.8578 0.0
H5432 H 0.82423 0.66463 0.85789 0.0
H5433 H 0.82836 0.6583 0.84071 0.0
H5434 H 0.78919 0.65384 0.9026 0.0
H5435 H 0.78154 0.67371 0.87705 0.0
H5436 H 0.80038 0.64038 0.84057 0.0
H5437 H 0.77191 0.65575 0.90931 0.0
H5438 H 0.76395 0.67499 0.88337 0.0
C5439 C 0.33024 0.86421 0.1004 0.0
C5440 C 0.34049 0.8622 0.10319 0.0
C5441 C 0.32212 0.86004 0.10607 0.0
C5442 C 0.32408 0.85374 0.11464 0.0
C5443 C 0.33432 0.8512 0.11703 0.0
C5444 C 0.34244 0.8554 0.11137 0.0
C5445 C 0.31556 0.8509 0.12172 0.0
C5446 C 0.30583 0.84823 0.11788 0.0
C5447 C 0.29732 0.84719 0.1245 0.0
C5448 C 0.29878 0.84848 0.13516 0.0
C5449 C 0.30853 0.85087 0.13915 0.0
C5450 C 0.31685 0.85205 0.13237 0.0
C5451 C 0.31001 0.85319 0.15024 0.0
C5452 C 0.30315 0.85974 0.15545 0.0
C5453 C 0.3189 0.84979 0.15536 0.0
C5454 C 0.32126 0.85341 0.16518 0.0
C5455 C 0.31477 0.86049 0.17012 0.0
C5456 C 0.28682 0.8456 0.12021 0.0
C5457 C 0.28387 0.85054 0.11104 0.0
C5458 C 0.27951 0.83955 0.12542 0.0
C5459 C 0.26945 0.8387 0.12171 0.0
C5460 C 0.26647 0.84381 0.11264 0.0
C5461 C 0.27387 0.84959 0.10727 0.0
C5462 C 0.30551 0.86335 0.16532 0.0
H5463 H 0.32847 0.86951 0.09422 0.0
H5464 H 0.31434 0.86226 0.1041 0.0
H5465 H 0.33607 0.84624 0.12349 0.0
H5466 H 0.35027 0.85358 0.11359 0.0
H5467 H 0.30486 0.84716 0.10967 0.0
H5468 H 0.32423 0.85455 0.13535 0.0
H5469 H 0.29228 0.84795 0.14035 0.0
H5470 H 0.29628 0.86257 0.15168 0.0
H5471 H 0.32423 0.84461 0.1516 0.0
H5472 H 0.32836 0.85094 0.16878 0.0
H5473 H 0.2892 0.8554 0.10688 0.0
H5474 H 0.28154 0.83553 0.13243 0.0
H5475 H 0.30039 0.86885 0.16891 0.0
H5476 H 0.27192 0.85349 0.10017 0.0
H5477 H 0.26395 0.83425 0.12611 0.0
C5478 C 0.8631 0.55974 0.84515 0.0
C5479 C 0.86692 0.56929 0.84181 0.0
C5480 C 0.86858 0.55387 0.8523 0.0
C5481 C 0.87797 0.55745 0.85631 0.0
C5482 C 0.88199 0.5668 0.85266 0.0
C5483 C 0.87653 0.57264 0.84547 0.0
C5484 C 0.88311 0.55182 0.86483 0.0
C5485 C 0.88371 0.54104 0.86473 0.0
C5486 C 0.88752 0.53561 0.87327 0.0
C5487 C 0.89094 0.54113 0.88192 0.0
C5488 C 0.8905 0.55192 0.88211 0.0
C5489 C 0.88665 0.5572 0.87351 0.0
C5490 C 0.89312 0.55769 0.89161 0.0
C5491 C 0.88932 0.55442 0.90119 0.0
C5492 C 0.89868 0.56694 0.89107 0.0
C5493 C 0.89997 0.57304 0.89983 0.0
C5494 C 0.89566 0.57006 0.9093 0.0
C5495 C 0.88738 0.52417 0.87339 0.0
C5496 C 0.87897 0.51879 0.86923 0.0
C5497 C 0.89549 0.51856 0.87784 0.0
C5498 C 0.89517 0.50781 0.87815 0.0
C5499 C 0.88676 0.50244 0.87397 0.0
C5500 C 0.87869 0.50807 0.86948 0.0
C5501 C 0.89056 0.56054 0.90993 0.0
H5502 H 0.85576 0.55691 0.8424 0.0
H5503 H 0.86523 0.54674 0.85502 0.0
H5504 H 0.88924 0.5697 0.85555 0.0
H5505 H 0.87964 0.58001 0.84312 0.0
H5506 H 0.88113 0.53688 0.85798 0.0
H5507 H 0.88583 0.56549 0.87381 0.0
H5508 H 0.89367 0.53703 0.88865 0.0
H5509 H 0.88489 0.54739 0.90183 0.0
H5510 H 0.90182 0.56957 0.88382 0.0
H5511 H 0.9041 0.58024 0.89911 0.0
H5512 H 0.87252 0.52285 0.86589 0.0
H5513 H 0.90211 0.52246 0.88104 0.0
H5514 H 0.887 0.55806 0.91705 0.0
H5515 H 0.87217 0.50419 0.86604 0.0
H5516 H 0.90148 0.50373 0.88175 0.0
C5517 C 0.17855 0.14073 0.60111 0.0
C5518 C 0.16832 0.14307 0.60369 0.0
C5519 C 0.18668 0.14459 0.60698 0.0
C5520 C 0.18477 0.1509 0.61555 0.0
C5521 C 0.17456 0.15369 0.6178 0.0
C5522 C 0.16642 0.1498 0.61194 0.0
C5523 C 0.1933 0.15373 0.62262 0.0
C5524 C 0.20305 0.1563 0.61875 0.0
C5525 C 0.2115 0.15759 0.62539 0.0
C5526 C 0.21 0.15661 0.63607 0.0
C5527 C 0.20025 0.15426 0.64008 0.0
C5528 C 0.19196 0.15285 0.63329 0.0
C5529 C 0.19876 0.15236 0.65125 0.0
C5530 C 0.20574 0.14621 0.65678 0.0
C5531 C 0.18983 0.15588 0.65623 0.0
C5532 C 0.18761 0.15281 0.66628 0.0
C5533 C 0.19428 0.14616 0.67159 0.0
C5534 C 0.22199 0.15926 0.6211 0.0
C5535 C 0.22511 0.15408 0.61214 0.0
C5536 C 0.22906 0.16577 0.62607 0.0
C5537 C 0.23905 0.16694 0.62224 0.0
C5538 C 0.24218 0.16167 0.61332 0.0
C5539 C 0.23504 0.15531 0.60826 0.0
C5540 C 0.20353 0.14315 0.66686 0.0
H5541 H 0.18028 0.13546 0.5949 0.0
H5542 H 0.19443 0.14217 0.60511 0.0
H5543 H 0.17284 0.15867 0.62425 0.0
H5544 H 0.15862 0.15188 0.61401 0.0
H5545 H 0.20406 0.15717 0.61052 0.0
H5546 H 0.18457 0.15044 0.63631 0.0
H5547 H 0.21648 0.15738 0.64126 0.0
H5548 H 0.21264 0.14329 0.65314 0.0
H5549 H 0.18439 0.16077 0.65223 0.0
H5550 H 0.18051 0.15539 0.66979 0.0
H5551 H 0.21995 0.14887 0.60819 0.0
H5552 H 0.2269 0.16997 0.63293 0.0
H5553 H 0.20877 0.13796 0.67072 0.0
H5554 H 0.23712 0.15126 0.60129 0.0
H5555 H 0.24437 0.17181 0.6264 0.0
C5556 C 0.10887 0.94629 0.90663 0.0
C5557 C 0.11514 0.93785 0.90907 0.0
C5558 C 0.11083 0.95213 0.89777 0.0
C5559 C 0.1192 0.9497 0.89131 0.0
C5560 C 0.12558 0.94138 0.89401 0.0
C5561 C 0.12352 0.93549 0.9027 0.0
C5562 C 0.12155 0.9558 0.8819 0.0
C5563 C 0.12058 0.96657 0.88183 0.0
C5564 C 0.12387 0.97237 0.87328 0.0
C5565 C 0.12814 0.96726 0.86474 0.0
C5566 C 0.12931 0.95655 0.86478 0.0
C5567 C 0.12568 0.95089 0.8732 0.0
C5568 C 0.13537 0.95131 0.85667 0.0
C5569 C 0.13358 0.95315 0.84616 0.0
C5570 C 0.14318 0.94443 0.85954 0.0
C5571 C 0.14899 0.93937 0.85211 0.0
C5572 C 0.14714 0.94103 0.8416 0.0
C5573 C 0.12362 0.9838 0.87362 0.0
C5574 C 0.1152 0.98905 0.87792 0.0
C5575 C 0.13196 0.98954 0.86982 0.0
C5576 C 0.13186 1.00025 0.87024 0.0
C5577 C 0.12347 0.00552 0.87456 0.0
C5578 C 0.11513 0.9998 0.87839 0.0
C5579 C 0.13937 0.94797 0.83867 0.0
H5580 H 0.1024 0.94828 0.91149 0.0
H5581 H 0.10576 0.95847 0.89592 0.0
H5582 H 0.13231 0.93947 0.88949 0.0
H5583 H 0.12863 0.92918 0.90456 0.0
H5584 H 0.11781 0.97049 0.88864 0.0
H5585 H 0.12636 0.94258 0.87306 0.0
H5586 H 0.13094 0.97164 0.85822 0.0
H5587 H 0.12761 0.95844 0.84375 0.0
H5588 H 0.14484 0.94298 0.86758 0.0
H5589 H 0.1548 0.93395 0.85463 0.0
H5590 H 0.10863 0.98485 0.88087 0.0
H5591 H 0.13866 0.98576 0.86663 0.0
H5592 H 0.13779 0.9494 0.83061 0.0
H5593 H 0.10857 1.0036 0.88185 0.0
H5594 H 0.13835 1.00441 0.86707 0.0
C5595 C 0.67855 0.3685 0.40837 0.0
C5596 C 0.66832 0.36616 0.40579 0.0
C5597 C 0.68668 0.36465 0.40251 0.0
C5598 C 0.68476 0.35833 0.39394 0.0
C5599 C 0.67456 0.35555 0.39168 0.0
C5600 C 0.66642 0.35943 0.39754 0.0
C5601 C 0.6933 0.35551 0.38686 0.0
C5602 C 0.70304 0.35294 0.39073 0.0
C5603 C 0.7115 0.35166 0.3841 0.0
C5604 C 0.71 0.35264 0.37342 0.0
C5605 C 0.70024 0.35498 0.3694 0.0
C5606 C 0.69196 0.35639 0.37619 0.0
C5607 C 0.69875 0.35689 0.35823 0.0
C5608 C 0.70574 0.36304 0.3527 0.0
C5609 C 0.68983 0.35337 0.35325 0.0
C5610 C 0.68761 0.35644 0.3432 0.0
C5611 C 0.69428 0.36309 0.3379 0.0
C5612 C 0.72199 0.34998 0.38838 0.0
C5613 C 0.72511 0.35517 0.39735 0.0
C5614 C 0.72906 0.34348 0.38342 0.0
C5615 C 0.73905 0.34232 0.38724 0.0
C5616 C 0.74218 0.34759 0.39617 0.0
C5617 C 0.73504 0.35393 0.40122 0.0
C5618 C 0.70352 0.3661 0.34263 0.0
H5619 H 0.68028 0.37378 0.41458 0.0
H5620 H 0.69443 0.36707 0.40437 0.0
H5621 H 0.67284 0.35057 0.38523 0.0
H5622 H 0.65862 0.35736 0.39547 0.0
H5623 H 0.70406 0.35207 0.39896 0.0
H5624 H 0.68457 0.3588 0.37317 0.0
H5625 H 0.71647 0.35187 0.36822 0.0
H5626 H 0.71264 0.36596 0.35635 0.0
H5627 H 0.68439 0.34847 0.35725 0.0
H5628 H 0.6805 0.35386 0.33969 0.0
H5629 H 0.71994 0.36037 0.4013 0.0
H5630 H 0.72689 0.33928 0.37656 0.0
H5631 H 0.70877 0.3713 0.33877 0.0
H5632 H 0.73712 0.35799 0.4082 0.0
H5633 H 0.74437 0.33744 0.38308 0.0
C5634 C 0.8631 0.44952 0.66433 0.0
C5635 C 0.86691 0.43997 0.66766 0.0
C5636 C 0.86857 0.45539 0.65718 0.0
C5637 C 0.87796 0.45182 0.65317 0.0
C5638 C 0.88198 0.44247 0.65682 0.0
C5639 C 0.87653 0.43662 0.66401 0.0
C5640 C 0.8831 0.45744 0.64465 0.0
C5641 C 0.8837 0.46822 0.64475 0.0
C5642 C 0.88751 0.47366 0.6362 0.0
C5643 C 0.89093 0.46814 0.62755 0.0
C5644 C 0.8905 0.45735 0.62736 0.0
C5645 C 0.88664 0.45207 0.63597 0.0
C5646 C 0.89311 0.45158 0.61787 0.0
C5647 C 0.88931 0.45485 0.60829 0.0
C5648 C 0.89868 0.44234 0.61841 0.0
C5649 C 0.89997 0.43623 0.60965 0.0
C5650 C 0.89566 0.43921 0.60018 0.0
C5651 C 0.88737 0.48509 0.63609 0.0
C5652 C 0.87896 0.49047 0.64025 0.0
C5653 C 0.89547 0.49071 0.63164 0.0
C5654 C 0.89516 0.50146 0.63133 0.0
C5655 C 0.88674 0.50683 0.63551 0.0
C5656 C 0.87868 0.5012 0.64 0.0
C5657 C 0.89056 0.44873 0.59955 0.0
H5658 H 0.85575 0.45234 0.66707 0.0
H5659 H 0.86522 0.46252 0.65446 0.0
H5660 H 0.88924 0.43956 0.65393 0.0
H5661 H 0.87964 0.42926 0.66636 0.0
H5662 H 0.88112 0.47238 0.6515 0.0
H5663 H 0.88583 0.44378 0.63567 0.0
H5664 H 0.89366 0.47224 0.62083 0.0
H5665 H 0.88489 0.46188 0.60764 0.0
H5666 H 0.90182 0.4397 0.62566 0.0
H5667 H 0.9041 0.42903 0.61037 0.0
H5668 H 0.8725 0.4864 0.64359 0.0
H5669 H 0.9021 0.48681 0.62844 0.0
H5670 H 0.887 0.4512 0.59243 0.0
H5671 H 0.87215 0.50507 0.64344 0.0
H5672 H 0.90146 0.50554 0.62773 0.0
C5673 C 0.60885 0.56295 0.10286 0.0
C5674 C 0.61512 0.5714 0.10042 0.0
C5675 C 0.61082 0.55711 0.11172 0.0
C5676 C 0.61919 0.55955 0.11818 0.0
C5677 C 0.62556 0.56787 0.11548 0.0
C5678 C 0.6235 0.57376 0.10679 0.0
C5679 C 0.62154 0.55345 0.12759 0.0
C5680 C 0.62057 0.54268 0.12766 0.0
C5681 C 0.62386 0.53688 0.1362 0.0
C5682 C 0.62814 0.54199 0.14474 0.0
C5683 C 0.6293 0.5527 0.1447 0.0
C5684 C 0.62567 0.55836 0.13628 0.0
C5685 C 0.63536 0.55794 0.15282 0.0
C5686 C 0.63358 0.5561 0.16333 0.0
C5687 C 0.64317 0.56483 0.14995 0.0
C5688 C 0.64898 0.56989 0.15737 0.0
C5689 C 0.64714 0.56823 0.16789 0.0
C5690 C 0.62362 0.52545 0.13587 0.0
C5691 C 0.6152 0.5202 0.13157 0.0
C5692 C 0.63196 0.51972 0.13966 0.0
C5693 C 0.63187 0.509 0.13925 0.0
C5694 C 0.62347 0.50373 0.13493 0.0
C5695 C 0.61513 0.50945 0.13109 0.0
C5696 C 0.63937 0.56128 0.17082 0.0
H5697 H 0.60238 0.56096 0.098 0.0
H5698 H 0.60575 0.55077 0.11357 0.0
H5699 H 0.63229 0.56979 0.12 0.0
H5700 H 0.62861 0.58008 0.10493 0.0
H5701 H 0.61781 0.53876 0.12085 0.0
H5702 H 0.62634 0.56667 0.13643 0.0
H5703 H 0.63093 0.53762 0.15127 0.0
H5704 H 0.62761 0.55081 0.16574 0.0
H5705 H 0.64482 0.56628 0.14191 0.0
H5706 H 0.65479 0.57532 0.15486 0.0
H5707 H 0.60863 0.52439 0.12862 0.0
H5708 H 0.63866 0.5235 0.14286 0.0
H5709 H 0.63779 0.55985 0.17887 0.0
H5710 H 0.60858 0.50564 0.12764 0.0
H5711 H 0.63836 0.50485 0.14242 0.0
C5712 C 0.66621 0.7029 0.86254 0.0
C5713 C 0.67044 0.69326 0.86012 0.0
C5714 C 0.6563 0.70548 0.85924 0.0
C5715 C 0.65044 0.69847 0.85344 0.0
C5716 C 0.65498 0.68914 0.85042 0.0
C5717 C 0.66486 0.68655 0.85373 0.0
C5718 C 0.63931 0.70035 0.85161 0.0
C5719 C 0.63568 0.71018 0.849 0.0
C5720 C 0.62505 0.71224 0.84857 0.0
C5721 C 0.61805 0.70421 0.85054 0.0
C5722 C 0.62157 0.69429 0.853 0.0
C5723 C 0.6322 0.69246 0.85348 0.0
C5724 C 0.6143 0.68602 0.85606 0.0
C5725 C 0.60624 0.68807 0.86297 0.0
C5726 C 0.616 0.67582 0.8529 0.0
C5727 C 0.61017 0.66778 0.85701 0.0
C5728 C 0.6025 0.66977 0.86437 0.0
C5729 C 0.6213 0.72292 0.84676 0.0
C5730 C 0.62655 0.73134 0.85107 0.0
C5731 C 0.61229 0.72479 0.84104 0.0
C5732 C 0.60857 0.73481 0.83979 0.0
C5733 C 0.61386 0.74318 0.84412 0.0
C5734 C 0.62292 0.74134 0.84972 0.0
C5735 C 0.60039 0.68003 0.86707 0.0
H5736 H 0.67029 0.70819 0.86752 0.0
H5737 H 0.653 0.7127 0.86178 0.0
H5738 H 0.65073 0.68366 0.8458 0.0
H5739 H 0.668 0.67914 0.8516 0.0
H5740 H 0.64117 0.71625 0.84742 0.0
H5741 H 0.63494 0.68498 0.85596 0.0
H5742 H 0.60986 0.70573 0.85047 0.0
H5743 H 0.60481 0.69582 0.86565 0.0
H5744 H 0.62205 0.67402 0.84746 0.0
H5745 H 0.61185 0.65997 0.85464 0.0
H5746 H 0.63336 0.73021 0.85574 0.0
H5747 H 0.60811 0.71851 0.8375 0.0
H5748 H 0.59461 0.68181 0.8728 0.0
H5749 H 0.62705 0.74762 0.8533 0.0
H5750 H 0.60161 0.73604 0.83538 0.0
C5751 C 0.56162 0.34036 0.13761 0.0
C5752 C 0.56783 0.34347 0.14592 0.0
C5753 C 0.55612 0.34765 0.13187 0.0
C5754 C 0.55686 0.35816 0.13428 0.0
C5755 C 0.5628 0.36119 0.14277 0.0
C5756 C 0.56821 0.35396 0.14852 0.0
C5757 C 0.55187 0.36612 0.12782 0.0
C5758 C 0.54141 0.36554 0.1253 0.0
C5759 C 0.53652 0.37373 0.12015 0.0
C5760 C 0.5423 0.3825 0.11745 0.0
C5761 C 0.55279 0.38315 0.11993 0.0
C5762 C 0.55753 0.3748 0.12486 0.0
C5763 C 0.55877 0.39274 0.11816 0.0
C5764 C 0.55779 0.3985 0.10903 0.0
C5765 C 0.56574 0.39609 0.12572 0.0
C5766 C 0.57194 0.40464 0.12403 0.0
C5767 C 0.57122 0.41018 0.11481 0.0
C5768 C 0.52522 0.37343 0.11843 0.0
C5769 C 0.52035 0.36426 0.1154 0.0
C5770 C 0.51914 0.38216 0.12042 0.0
C5771 C 0.50843 0.38163 0.11973 0.0
C5772 C 0.50356 0.37235 0.11709 0.0
C5773 C 0.50964 0.36372 0.11476 0.0
C5774 C 0.56396 0.40721 0.10739 0.0
H5775 H 0.56113 0.33233 0.13547 0.0
H5776 H 0.55158 0.34513 0.12536 0.0
H5777 H 0.56339 0.36923 0.14489 0.0
H5778 H 0.57302 0.35665 0.15477 0.0
H5779 H 0.53697 0.35897 0.12787 0.0
H5780 H 0.56567 0.37511 0.12663 0.0
H5781 H 0.53856 0.38894 0.1137 0.0
H5782 H 0.55248 0.39613 0.10307 0.0
H5783 H 0.56646 0.39207 0.13299 0.0
H5784 H 0.57735 0.40693 0.12995 0.0
H5785 H 0.52482 0.35746 0.11366 0.0
H5786 H 0.52262 0.3893 0.12293 0.0
H5787 H 0.56327 0.41145 0.10024 0.0
H5788 H 0.5061 0.35651 0.11255 0.0
H5789 H 0.50394 0.38837 0.12169 0.0
C5790 C 0.89666 0.34386 0.35607 0.0
C5791 C 0.90521 0.34215 0.36247 0.0
C5792 C 0.89085 0.3356 0.35241 0.0
C5793 C 0.89348 0.32545 0.35505 0.0
C5794 C 0.90245 0.3237 0.36082 0.0
C5795 C 0.90825 0.33197 0.3645 0.0
C5796 C 0.88621 0.31689 0.35298 0.0
C5797 C 0.88973 0.30722 0.34969 0.0
C5798 C 0.88291 0.29884 0.34885 0.0
C5799 C 0.87245 0.30031 0.3513 0.0
C5800 C 0.86891 0.30984 0.35491 0.0
C5801 C 0.87579 0.31813 0.35547 0.0
C5802 C 0.85839 0.31087 0.35923 0.0
C5803 C 0.84974 0.30682 0.35414 0.0
C5804 C 0.85703 0.31573 0.36878 0.0
C5805 C 0.84728 0.3166 0.37313 0.0
C5806 C 0.83861 0.3126 0.36807 0.0
C5807 C 0.88684 0.28838 0.34631 0.0
C5808 C 0.89484 0.28699 0.33913 0.0
C5809 C 0.88284 0.27969 0.35138 0.0
C5810 C 0.88668 0.2699 0.34932 0.0
C5811 C 0.89473 0.26854 0.34225 0.0
C5812 C 0.8988 0.27717 0.33719 0.0
C5813 C 0.83991 0.30774 0.35849 0.0
H5814 H 0.89423 0.35161 0.35421 0.0
H5815 H 0.88405 0.33716 0.34784 0.0
H5816 H 0.90461 0.31597 0.36307 0.0
H5817 H 0.91473 0.33037 0.36949 0.0
H5818 H 0.89785 0.30616 0.34815 0.0
H5819 H 0.8731 0.32547 0.35837 0.0
H5820 H 0.86712 0.29392 0.35086 0.0
H5821 H 0.85057 0.30304 0.34676 0.0
H5822 H 0.86355 0.31877 0.37299 0.0
H5823 H 0.84653 0.32055 0.38043 0.0
H5824 H 0.89804 0.29348 0.33501 0.0
H5825 H 0.8769 0.28044 0.35716 0.0
H5826 H 0.83337 0.30457 0.35443 0.0
H5827 H 0.90499 0.2763 0.33167 0.0
H5828 H 0.88353 0.26339 0.35347 0.0
C5829 C 0.94933 0.67043 0.64022 0.0
C5830 C 0.9433 0.66732 0.64867 0.0
C5831 C 0.95443 0.66311 0.63416 0.0
C5832 C 0.95344 0.65258 0.63636 0.0
C5833 C 0.94761 0.64952 0.64492 0.0
C5834 C 0.94261 0.65679 0.65099 0.0
C5835 C 0.95817 0.64462 0.62971 0.0
C5836 C 0.96861 0.64506 0.62706 0.0
C5837 C 0.97332 0.63683 0.62181 0.0
C5838 C 0.96738 0.62815 0.61914 0.0
C5839 C 0.9569 0.62765 0.62175 0.0
C5840 C 0.95235 0.63605 0.62677 0.0
C5841 C 0.95075 0.61815 0.62003 0.0
C5842 C 0.95155 0.61239 0.61089 0.0
C5843 C 0.94382 0.61488 0.62766 0.0
C5844 C 0.93749 0.60642 0.62602 0.0
C5845 C 0.93802 0.60088 0.61679 0.0
C5846 C 0.98461 0.63697 0.61999 0.0
C5847 C 0.98957 0.64609 0.61697 0.0
C5848 C 0.9906 0.62818 0.62198 0.0
C5849 C 1.00132 0.62862 0.62134 0.0
C5850 C 0.00629 0.63786 0.61875 0.0
C5851 C 1.00029 0.64654 0.61637 0.0
C5852 C 0.94525 0.60376 0.6093 0.0
H5853 H 0.95004 0.6785 0.63828 0.0
H5854 H 0.95889 0.66566 0.6276 0.0
H5855 H 0.94683 0.64146 0.64689 0.0
H5856 H 0.93792 0.6541 0.65733 0.0
H5857 H 0.97319 0.65154 0.62962 0.0
H5858 H 0.94422 0.63585 0.62864 0.0
H5859 H 0.97098 0.62167 0.61534 0.0
H5860 H 0.95684 0.6147 0.60487 0.0
H5861 H 0.94323 0.61889 0.63494 0.0
H5862 H 0.93213 0.60419 0.63201 0.0
H5863 H 0.98516 0.65295 0.61523 0.0
H5864 H 0.98704 0.62107 0.62447 0.0
H5865 H 0.94582 0.59953 0.60215 0.0
H5866 H 1.0039 0.65372 0.61418 0.0
H5867 H 0.00574 0.62184 0.62332 0.0
C5868 C 0.66622 0.30635 0.64695 0.0
C5869 C 0.67045 0.316 0.64936 0.0
C5870 C 0.65631 0.30377 0.65025 0.0
C5871 C 0.65045 0.31078 0.65604 0.0
C5872 C 0.65499 0.32012 0.65907 0.0
C5873 C 0.66487 0.3227 0.65575 0.0
C5874 C 0.63932 0.30889 0.65788 0.0
C5875 C 0.63569 0.29907 0.66049 0.0
C5876 C 0.62506 0.297 0.66092 0.0
C5877 C 0.61806 0.30503 0.65895 0.0
C5878 C 0.62158 0.31495 0.65648 0.0
C5879 C 0.63221 0.31679 0.656 0.0
C5880 C 0.61431 0.32322 0.65341 0.0
C5881 C 0.60625 0.32116 0.64651 0.0
C5882 C 0.61601 0.33342 0.65657 0.0
C5883 C 0.61018 0.34145 0.65245 0.0
C5884 C 0.60251 0.33946 0.6451 0.0
C5885 C 0.6213 0.28633 0.66274 0.0
C5886 C 0.62656 0.27791 0.65843 0.0
C5887 C 0.61229 0.28446 0.66846 0.0
C5888 C 0.60858 0.27443 0.66971 0.0
C5889 C 0.61387 0.26606 0.66538 0.0
C5890 C 0.62292 0.26791 0.65979 0.0
C5891 C 0.6004 0.3292 0.6424 0.0
H5892 H 0.6703 0.30105 0.64198 0.0
H5893 H 0.65301 0.29655 0.64771 0.0
H5894 H 0.65074 0.3256 0.66368 0.0
H5895 H 0.66801 0.33012 0.65788 0.0
H5896 H 0.64118 0.293 0.66208 0.0
H5897 H 0.63495 0.32426 0.65352 0.0
H5898 H 0.60987 0.30351 0.65902 0.0
H5899 H 0.60482 0.31341 0.64383 0.0
H5900 H 0.62206 0.33523 0.66201 0.0
H5901 H 0.61186 0.34926 0.65482 0.0
H5902 H 0.63337 0.27904 0.65377 0.0
H5903 H 0.60812 0.29074 0.67199 0.0
H5904 H 0.59462 0.32741 0.63667 0.0
H5905 H 0.62706 0.26162 0.65621 0.0
H5906 H 0.60161 0.27321 0.67412 0.0
C5907 C 0.94932 0.33884 0.86926 0.0
C5908 C 0.94329 0.34195 0.86081 0.0
C5909 C 0.95442 0.34616 0.87532 0.0
C5910 C 0.95343 0.35669 0.87312 0.0
C5911 C 0.94761 0.35974 0.86455 0.0
C5912 C 0.9426 0.35248 0.85848 0.0
C5913 C 0.95817 0.36465 0.87977 0.0
C5914 C 0.96861 0.36421 0.88242 0.0
C5915 C 0.97332 0.37244 0.88767 0.0
C5916 C 0.96739 0.38112 0.89033 0.0
C5917 C 0.95691 0.38162 0.88772 0.0
C5918 C 0.95235 0.37322 0.8827 0.0
C5919 C 0.95077 0.39112 0.88944 0.0
C5920 C 0.95157 0.39688 0.89859 0.0
C5921 C 0.94383 0.39439 0.88181 0.0
C5922 C 0.9375 0.40285 0.88344 0.0
C5923 C 0.93804 0.40839 0.89267 0.0
C5924 C 0.98461 0.3723 0.88948 0.0
C5925 C 0.98957 0.36317 0.89251 0.0
C5926 C 0.99061 0.38108 0.8875 0.0
C5927 C 1.00133 0.38064 0.88814 0.0
C5928 C 0.00629 0.3714 0.89073 0.0
C5929 C 1.00029 0.36272 0.89311 0.0
C5930 C 0.94527 0.40551 0.90017 0.0
H5931 H 0.95002 0.33077 0.87121 0.0
H5932 H 0.95888 0.34361 0.88188 0.0
H5933 H 0.94683 0.36781 0.86259 0.0
H5934 H 0.93791 0.35516 0.85214 0.0
H5935 H 0.97319 0.35773 0.87985 0.0
H5936 H 0.94423 0.37343 0.88083 0.0
H5937 H 0.97099 0.3876 0.89413 0.0
H5938 H 0.95685 0.39457 0.9046 0.0
H5939 H 0.94325 0.39038 0.87453 0.0
H5940 H 0.93214 0.40508 0.87746 0.0
H5941 H 0.98516 0.35632 0.89425 0.0
H5942 H 0.98705 0.38819 0.885 0.0
H5943 H 0.94583 0.40974 0.90733 0.0
H5944 H 1.00389 0.35554 0.8953 0.0
H5945 H 0.00575 0.38742 0.88615 0.0
C5946 C 0.89666 0.66539 0.15342 0.0
C5947 C 0.90521 0.6671 0.14701 0.0
C5948 C 0.89086 0.67365 0.15708 0.0
C5949 C 0.89349 0.6838 0.15444 0.0
C5950 C 0.90245 0.68555 0.14867 0.0
C5951 C 0.90826 0.67729 0.14499 0.0
C5952 C 0.88622 0.69236 0.15651 0.0
C5953 C 0.88974 0.70203 0.1598 0.0
C5954 C 0.88292 0.71041 0.16063 0.0
C5955 C 0.87246 0.70894 0.15818 0.0
C5956 C 0.86892 0.69941 0.15457 0.0
C5957 C 0.8758 0.69112 0.15401 0.0
C5958 C 0.8584 0.69837 0.15025 0.0
C5959 C 0.84975 0.70242 0.15534 0.0
C5960 C 0.85704 0.69351 0.1407 0.0
C5961 C 0.84729 0.69264 0.13635 0.0
C5962 C 0.83862 0.69664 0.1414 0.0
C5963 C 0.88685 0.72087 0.16318 0.0
C5964 C 0.89485 0.72226 0.17035 0.0
C5965 C 0.88285 0.72956 0.15811 0.0
C5966 C 0.88669 0.73935 0.16017 0.0
C5967 C 0.89474 0.74071 0.16723 0.0
C5968 C 0.89881 0.73209 0.1723 0.0
C5969 C 0.83993 0.7015 0.15098 0.0
H5970 H 0.89423 0.65764 0.15528 0.0
H5971 H 0.88406 0.67209 0.16164 0.0
H5972 H 0.90462 0.69328 0.14642 0.0
H5973 H 0.91474 0.67888 0.14 0.0
H5974 H 0.89786 0.70309 0.16134 0.0
H5975 H 0.87311 0.68378 0.15111 0.0
H5976 H 0.86713 0.71533 0.15863 0.0
H5977 H 0.85058 0.70621 0.16271 0.0
H5978 H 0.86356 0.69047 0.13649 0.0
H5979 H 0.84654 0.68869 0.12905 0.0
H5980 H 0.89805 0.71577 0.17448 0.0
H5981 H 0.87691 0.7288 0.15232 0.0
H5982 H 0.83338 0.70467 0.15504 0.0
H5983 H 0.905 0.73296 0.17782 0.0
H5984 H 0.88354 0.74585 0.15602 0.0
C5985 C 0.56163 0.66887 0.37191 0.0
C5986 C 0.56781 0.66577 0.36358 0.0
C5987 C 0.55613 0.66157 0.37765 0.0
C5988 C 0.55685 0.65107 0.37522 0.0
C5989 C 0.56276 0.64804 0.36671 0.0
C5990 C 0.56817 0.65529 0.36097 0.0
C5991 C 0.55187 0.6431 0.38168 0.0
C5992 C 0.54141 0.64369 0.38423 0.0
C5993 C 0.53653 0.6355 0.38939 0.0
C5994 C 0.54231 0.62672 0.39207 0.0
C5995 C 0.5528 0.62607 0.38955 0.0
C5996 C 0.55752 0.63442 0.38461 0.0
C5997 C 0.55878 0.61648 0.39131 0.0
C5998 C 0.55782 0.61072 0.40044 0.0
C5999 C 0.56572 0.61312 0.38372 0.0
C6000 C 0.57192 0.60458 0.38541 0.0
C6001 C 0.57124 0.59905 0.39463 0.0
C6002 C 0.52523 0.63579 0.39114 0.0
C6003 C 0.52038 0.64496 0.39418 0.0
C6004 C 0.51914 0.62707 0.38915 0.0
C6005 C 0.50843 0.62761 0.38986 0.0
C6006 C 0.50357 0.63688 0.39252 0.0
C6007 C 0.50967 0.64551 0.39485 0.0
C6008 C 0.56399 0.60201 0.40207 0.0
H6009 H 0.56115 0.6769 0.37407 0.0
H6010 H 0.5516 0.66409 0.38418 0.0
H6011 H 0.56334 0.64001 0.36458 0.0
H6012 H 0.57296 0.6526 0.3547 0.0
H6013 H 0.53697 0.65027 0.38168 0.0
H6014 H 0.56566 0.6341 0.38283 0.0
H6015 H 0.53858 0.62028 0.39582 0.0
H6016 H 0.55253 0.6131 0.40642 0.0
H6017 H 0.56642 0.61714 0.37645 0.0
H6018 H 0.57731 0.60229 0.37947 0.0
H6019 H 0.52486 0.65177 0.39592 0.0
H6020 H 0.52261 0.61993 0.38663 0.0
H6021 H 0.56333 0.59778 0.40922 0.0
H6022 H 0.50614 0.65272 0.39708 0.0
H6023 H 0.50394 0.62087 0.3879 0.0
C6024 C 0.85613 0.61198 0.66795 0.0
C6025 C 0.86275 0.60359 0.66959 0.0
C6026 C 0.85257 0.61781 0.67624 0.0
C6027 C 0.85554 0.61537 0.68635 0.0
C6028 C 0.86152 0.60653 0.68805 0.0
C6029 C 0.8651 0.6007 0.67976 0.0
C6030 C 0.85361 0.62273 0.69486 0.0
C6031 C 0.85064 0.61933 0.70468 0.0
C6032 C 0.84994 0.62628 0.71297 0.0
C6033 C 0.85223 0.63674 0.71125 0.0
C6034 C 0.85555 0.64016 0.70157 0.0
C6035 C 0.85596 0.63316 0.69338 0.0
C6036 C 0.85975 0.6507 0.70024 0.0
C6037 C 0.8547 0.65937 0.70429 0.0
C6038 C 0.86915 0.65205 0.6951 0.0
C6039 C 0.8734 0.66182 0.69396 0.0
C6040 C 0.8684 0.67051 0.69797 0.0
C6041 C 0.84769 0.6225 0.72356 0.0
C6042 C 0.84067 0.61443 0.72528 0.0
C6043 C 0.85288 0.62676 0.73206 0.0
C6044 C 0.85105 0.62311 0.74198 0.0
C6045 C 0.84413 0.61501 0.74366 0.0
C6046 C 0.83896 0.61067 0.73523 0.0
C6047 C 0.85896 0.66921 0.70311 0.0
H6048 H 0.85403 0.61428 0.66023 0.0
H6049 H 0.84784 0.6245 0.67472 0.0
H6050 H 0.86402 0.60451 0.69574 0.0
H6051 H 0.87026 0.59434 0.68129 0.0
H6052 H 0.84923 0.61121 0.70591 0.0
H6053 H 0.85862 0.63576 0.68592 0.0
H6054 H 0.85189 0.64217 0.71756 0.0
H6055 H 0.84744 0.65854 0.70829 0.0
H6056 H 0.87333 0.64552 0.69205 0.0
H6057 H 0.88059 0.66256 0.68981 0.0
H6058 H 0.83645 0.61104 0.71894 0.0
H6059 H 0.85857 0.63276 0.73106 0.0
H6060 H 0.85493 0.67577 0.70629 0.0
H6061 H 0.83355 0.60443 0.73635 0.0
H6062 H 0.85528 0.62646 0.74833 0.0
C6063 C 0.66908 0.63796 0.94742 0.0
C6064 C 0.66596 0.64633 0.94129 0.0
C6065 C 0.6618 0.63222 0.95295 0.0
C6066 C 0.6513 0.63469 0.9523 0.0
C6067 C 0.64826 0.64324 0.94645 0.0
C6068 C 0.65549 0.64898 0.94101 0.0
C6069 C 0.64334 0.62823 0.95728 0.0
C6070 C 0.64392 0.62569 0.96774 0.0
C6071 C 0.63572 0.62055 0.97263 0.0
C6072 C 0.62694 0.61788 0.96685 0.0
C6073 C 0.62629 0.62038 0.95636 0.0
C6074 C 0.63465 0.62531 0.95163 0.0
C6075 C 0.61669 0.61867 0.95039 0.0
C6076 C 0.61093 0.60954 0.95131 0.0
C6077 C 0.61333 0.62629 0.94348 0.0
C6078 C 0.60478 0.62464 0.93728 0.0
C6079 C 0.59924 0.61542 0.93791 0.0
C6080 C 0.636 0.61885 0.98393 0.0
C6081 C 0.64516 0.61583 0.98882 0.0
C6082 C 0.62727 0.62087 0.99 0.0
C6083 C 0.62779 0.62022 1.00071 0.0
C6084 C 0.63706 0.61758 0.0056 0.0
C6085 C 0.64569 0.61522 0.99954 0.0
C6086 C 0.60221 0.60794 0.94513 0.0
H6087 H 0.67711 0.63577 0.94783 0.0
H6088 H 0.66433 0.62567 0.95743 0.0
H6089 H 0.64022 0.64539 0.94593 0.0
H6090 H 0.65278 0.65527 0.93627 0.0
H6091 H 0.65051 0.62824 0.97218 0.0
H6092 H 0.63433 0.6271 0.94349 0.0
H6093 H 0.62049 0.61414 0.97059 0.0
H6094 H 0.6133 0.60354 0.95658 0.0
H6095 H 0.61736 0.63355 0.94282 0.0
H6096 H 0.6025 0.63061 0.93192 0.0
H6097 H 0.65198 0.61406 0.98436 0.0
H6098 H 0.62013 0.62338 0.98651 0.0
H6099 H 0.59798 0.60079 0.94576 0.0
H6100 H 0.6529 0.61301 1.00309 0.0
H6101 H 0.62104 0.6222 0.00518 0.0
C6102 C 0.64741 0.34275 0.20158 0.0
C6103 C 0.64952 0.33838 0.19192 0.0
C6104 C 0.65092 0.35264 0.20396 0.0
C6105 C 0.65664 0.35832 0.19674 0.0
C6106 C 0.65937 0.35363 0.18739 0.0
C6107 C 0.65584 0.34378 0.185 0.0
C6108 C 0.65869 0.36943 0.19844 0.0
C6109 C 0.66164 0.37313 0.20814 0.0
C6110 C 0.66233 0.38377 0.21005 0.0
C6111 C 0.66025 0.39071 0.20198 0.0
C6112 C 0.65743 0.38712 0.19219 0.0
C6113 C 0.65671 0.37648 0.1905 0.0
C6114 C 0.65424 0.39434 0.18392 0.0
C6115 C 0.64755 0.40255 0.1861 0.0
C6116 C 0.65707 0.39248 0.17365 0.0
C6117 C 0.65283 0.39832 0.16568 0.0
C6118 C 0.6457 0.40615 0.16781 0.0
C6119 C 0.66452 0.38764 0.2206 0.0
C6120 C 0.66029 0.38263 0.22922 0.0
C6121 C 0.6705 0.39653 0.22216 0.0
C6122 C 0.67207 0.4004 0.23209 0.0
C6123 C 0.66779 0.39538 0.24065 0.0
C6124 C 0.66195 0.38643 0.23911 0.0
C6125 C 0.64333 0.4084 0.17812 0.0
H6126 H 0.6425 0.33881 0.20704 0.0
H6127 H 0.64861 0.35606 0.2112 0.0
H6128 H 0.66392 0.35775 0.18175 0.0
H6129 H 0.65774 0.34052 0.17757 0.0
H6130 H 0.66328 0.3677 0.21424 0.0
H6131 H 0.65398 0.37369 0.18314 0.0
H6132 H 0.66051 0.39892 0.20339 0.0
H6133 H 0.64513 0.4041 0.19392 0.0
H6134 H 0.66233 0.38631 0.17175 0.0
H6135 H 0.65494 0.39652 0.15782 0.0
H6136 H 0.65544 0.37592 0.22832 0.0
H6137 H 0.67398 0.40051 0.21573 0.0
H6138 H 0.63777 0.41431 0.18002 0.0
H6139 H 0.65841 0.38251 0.24556 0.0
H6140 H 0.67666 0.40728 0.23307 0.0
C6141 C 0.83891 0.36924 0.4496 0.0
C6142 C 0.84205 0.36091 0.44344 0.0
C6143 C 0.84621 0.37532 0.45472 0.0
C6144 C 0.85676 0.37324 0.45363 0.0
C6145 C 0.85985 0.36478 0.44767 0.0
C6146 C 0.85261 0.35871 0.44264 0.0
C6147 C 0.86469 0.37989 0.45843 0.0
C6148 C 0.86423 0.38243 0.4689 0.0
C6149 C 0.87243 0.3877 0.47365 0.0
C6150 C 0.88109 0.39048 0.46775 0.0
C6151 C 0.88161 0.38798 0.45724 0.0
C6152 C 0.87324 0.38294 0.45264 0.0
C6153 C 0.8911 0.38985 0.45112 0.0
C6154 C 0.89683 0.399 0.45208 0.0
C6155 C 0.89441 0.38235 0.44406 0.0
C6156 C 0.90288 0.38413 0.43777 0.0
C6157 C 0.9084 0.39336 0.43849 0.0
C6158 C 0.87225 0.38944 0.48495 0.0
C6159 C 0.8631 0.39237 0.48991 0.0
C6160 C 0.88105 0.38749 0.49095 0.0
C6161 C 0.8806 0.38809 0.50167 0.0
C6162 C 0.87133 0.39061 0.50663 0.0
C6163 C 0.86264 0.39293 0.50063 0.0
C6164 C 0.90547 0.40072 0.44583 0.0
H6165 H 0.83082 0.3711 0.4504 0.0
H6166 H 0.84363 0.38179 0.45929 0.0
H6167 H 0.86793 0.36291 0.44681 0.0
H6168 H 0.85532 0.35246 0.43785 0.0
H6169 H 0.85777 0.37978 0.47345 0.0
H6170 H 0.87345 0.38116 0.4445 0.0
H6171 H 0.88754 0.39429 0.47139 0.0
H6172 H 0.89449 0.40492 0.45745 0.0
H6173 H 0.89043 0.37507 0.44335 0.0
H6174 H 0.90514 0.37824 0.43232 0.0
H6175 H 0.85624 0.39409 0.4855 0.0
H6176 H 0.88818 0.38506 0.48739 0.0
H6177 H 0.90968 0.40787 0.44652 0.0
H6178 H 0.85544 0.39506 0.50424 0.0
H6179 H 0.88739 0.38614 0.50609 0.0
C6180 C 0.85613 0.39729 0.84153 0.0
C6181 C 0.86275 0.40568 0.83989 0.0
C6182 C 0.85256 0.39146 0.83324 0.0
C6183 C 0.85553 0.39391 0.82313 0.0
C6184 C 0.86152 0.40274 0.82143 0.0
C6185 C 0.8651 0.40857 0.82973 0.0
C6186 C 0.8536 0.38654 0.81463 0.0
C6187 C 0.85063 0.38994 0.80481 0.0
C6188 C 0.84992 0.38299 0.79652 0.0
C6189 C 0.85222 0.37253 0.79823 0.0
C6190 C 0.85553 0.36911 0.80791 0.0
C6191 C 0.85594 0.37611 0.8161 0.0
C6192 C 0.85973 0.35857 0.80924 0.0
C6193 C 0.85468 0.34991 0.80519 0.0
C6194 C 0.86913 0.35722 0.81439 0.0
C6195 C 0.87338 0.34746 0.81552 0.0
C6196 C 0.86837 0.33877 0.81151 0.0
C6197 C 0.84768 0.38677 0.78592 0.0
C6198 C 0.84065 0.39484 0.78421 0.0
C6199 C 0.85286 0.38251 0.77742 0.0
C6200 C 0.85104 0.38616 0.7675 0.0
C6201 C 0.84412 0.39426 0.76582 0.0
C6202 C 0.83895 0.3986 0.77425 0.0
C6203 C 0.85893 0.34007 0.80638 0.0
H6204 H 0.85402 0.39499 0.84926 0.0
H6205 H 0.84783 0.38477 0.83476 0.0
H6206 H 0.86401 0.40476 0.81374 0.0
H6207 H 0.87025 0.41493 0.82819 0.0
H6208 H 0.84922 0.39806 0.80357 0.0
H6209 H 0.85861 0.37351 0.82357 0.0
H6210 H 0.85187 0.3671 0.79192 0.0
H6211 H 0.84742 0.35073 0.80119 0.0
H6212 H 0.87331 0.36375 0.81744 0.0
H6213 H 0.88057 0.34672 0.81967 0.0
H6214 H 0.83644 0.39823 0.79054 0.0
H6215 H 0.85855 0.37652 0.77842 0.0
H6216 H 0.85491 0.3335 0.80319 0.0
H6217 H 0.83354 0.40484 0.77313 0.0
H6218 H 0.85527 0.38281 0.76115 0.0
C6219 C 0.83891 0.64 0.05987 0.0
C6220 C 0.84206 0.64833 0.06603 0.0
C6221 C 0.84621 0.63393 0.05476 0.0
C6222 C 0.85676 0.63601 0.05585 0.0
C6223 C 0.85986 0.64446 0.06181 0.0
C6224 C 0.85261 0.65054 0.06684 0.0
C6225 C 0.86469 0.62936 0.05105 0.0
C6226 C 0.86424 0.62682 0.04059 0.0
C6227 C 0.87243 0.62155 0.03583 0.0
C6228 C 0.88109 0.61877 0.04174 0.0
C6229 C 0.88161 0.62127 0.05224 0.0
C6230 C 0.87324 0.62631 0.05684 0.0
C6231 C 0.8911 0.6194 0.05837 0.0
C6232 C 0.89683 0.61025 0.05741 0.0
C6233 C 0.89441 0.6269 0.06543 0.0
C6234 C 0.90288 0.62512 0.07171 0.0
C6235 C 0.9084 0.61589 0.071 0.0
C6236 C 0.87225 0.61981 0.02453 0.0
C6237 C 0.8631 0.61687 0.01957 0.0
C6238 C 0.88105 0.62176 0.01854 0.0
C6239 C 0.88059 0.62116 0.00781 0.0
C6240 C 0.87133 0.61864 1.00285 0.0
C6241 C 0.86264 0.61631 0.00885 0.0
C6242 C 0.90547 0.60853 0.06366 0.0
H6243 H 0.83083 0.63815 0.05908 0.0
H6244 H 0.84363 0.62746 0.05019 0.0
H6245 H 0.86794 0.64634 0.06268 0.0
H6246 H 0.85533 0.65679 0.07163 0.0
H6247 H 0.85777 0.62947 0.03603 0.0
H6248 H 0.87346 0.62808 0.06499 0.0
H6249 H 0.88754 0.61495 0.03809 0.0
H6250 H 0.89449 0.60433 0.05204 0.0
H6251 H 0.89043 0.63418 0.06613 0.0
H6252 H 0.90514 0.63101 0.07717 0.0
H6253 H 0.85624 0.61516 0.02398 0.0
H6254 H 0.88818 0.62419 0.02209 0.0
H6255 H 0.90968 0.60137 0.06297 0.0
H6256 H 0.85543 0.61418 0.00524 0.0
H6257 H 0.88739 0.6231 1.0034 0.0
C6258 C 0.64741 0.66652 0.30789 0.0
C6259 C 0.64952 0.67089 0.31754 0.0
C6260 C 0.65093 0.65664 0.3055 0.0
C6261 C 0.65666 0.65097 0.31273 0.0
C6262 C 0.65939 0.65566 0.32208 0.0
C6263 C 0.65584 0.6655 0.32447 0.0
C6264 C 0.65873 0.63986 0.31103 0.0
C6265 C 0.66167 0.63616 0.30133 0.0
C6266 C 0.66237 0.62552 0.29942 0.0
C6267 C 0.6603 0.61858 0.30748 0.0
C6268 C 0.65748 0.62217 0.31728 0.0
C6269 C 0.65676 0.6328 0.31896 0.0
C6270 C 0.65431 0.61494 0.32554 0.0
C6271 C 0.64762 0.60673 0.32337 0.0
C6272 C 0.65713 0.6168 0.33582 0.0
C6273 C 0.6529 0.61096 0.34379 0.0
C6274 C 0.64577 0.60312 0.34166 0.0
C6275 C 0.66456 0.62165 0.28886 0.0
C6276 C 0.66033 0.62665 0.28025 0.0
C6277 C 0.67055 0.61277 0.2873 0.0
C6278 C 0.67212 0.6089 0.27738 0.0
C6279 C 0.66783 0.61391 0.26882 0.0
C6280 C 0.66199 0.62286 0.27035 0.0
C6281 C 0.6434 0.60087 0.33135 0.0
H6282 H 0.64249 0.67045 0.30243 0.0
H6283 H 0.64863 0.65321 0.29827 0.0
H6284 H 0.66394 0.65155 0.32772 0.0
H6285 H 0.65774 0.66876 0.3319 0.0
H6286 H 0.66331 0.6416 0.29523 0.0
H6287 H 0.65402 0.63559 0.32633 0.0
H6288 H 0.66058 0.61037 0.30608 0.0
H6289 H 0.6452 0.60517 0.31555 0.0
H6290 H 0.66239 0.62298 0.33772 0.0
H6291 H 0.65501 0.61276 0.35165 0.0
H6292 H 0.65548 0.63336 0.28115 0.0
H6293 H 0.67404 0.6088 0.29374 0.0
H6294 H 0.63785 0.59495 0.32946 0.0
H6295 H 0.65844 0.62677 0.26391 0.0
H6296 H 0.67672 0.60203 0.27639 0.0
C6297 C 0.66909 0.3713 0.56206 0.0
C6298 C 0.66597 0.36293 0.56819 0.0
C6299 C 0.66181 0.37704 0.55653 0.0
C6300 C 0.65131 0.37457 0.55718 0.0
C6301 C 0.64827 0.36601 0.56303 0.0
C6302 C 0.65549 0.36028 0.56847 0.0
C6303 C 0.64335 0.38103 0.55219 0.0
C6304 C 0.64393 0.38356 0.54173 0.0
C6305 C 0.63573 0.3887 0.53684 0.0
C6306 C 0.62695 0.39137 0.54262 0.0
C6307 C 0.6263 0.38886 0.55311 0.0
C6308 C 0.63466 0.38394 0.55784 0.0
C6309 C 0.61669 0.39057 0.55908 0.0
C6310 C 0.61093 0.3997 0.55816 0.0
C6311 C 0.61334 0.38295 0.56599 0.0
C6312 C 0.60479 0.38459 0.57219 0.0
C6313 C 0.59924 0.39381 0.57155 0.0
C6314 C 0.63601 0.3904 0.52554 0.0
C6315 C 0.64518 0.39342 0.52066 0.0
C6316 C 0.62728 0.38837 0.51947 0.0
C6317 C 0.6278 0.38903 0.50876 0.0
C6318 C 0.63707 0.39167 0.50387 0.0
C6319 C 0.64571 0.39403 0.50994 0.0
C6320 C 0.60221 0.40129 0.56433 0.0
H6321 H 0.67712 0.37349 0.56166 0.0
H6322 H 0.66434 0.38359 0.55205 0.0
H6323 H 0.64023 0.36386 0.56355 0.0
H6324 H 0.65279 0.35398 0.57321 0.0
H6325 H 0.65052 0.38101 0.5373 0.0
H6326 H 0.63433 0.38215 0.56598 0.0
H6327 H 0.6205 0.3951 0.53888 0.0
H6328 H 0.6133 0.4057 0.55289 0.0
H6329 H 0.61736 0.37569 0.56666 0.0
H6330 H 0.6025 0.37862 0.57755 0.0
H6331 H 0.65199 0.39519 0.52512 0.0
H6332 H 0.62015 0.38586 0.52296 0.0
H6333 H 0.59798 0.40843 0.5637 0.0
H6334 H 0.65291 0.39625 0.50639 0.0
H6335 H 0.62106 0.38704 0.50429 0.0
C6336 C 0.6656 0.85575 0.61237 0.0
C6337 C 0.66725 0.86215 0.60381 0.0
C6338 C 0.67392 0.85208 0.6181 0.0
C6339 C 0.68405 0.8547 0.61538 0.0
C6340 C 0.68572 0.86047 0.60639 0.0
C6341 C 0.6774 0.86416 0.60066 0.0
C6342 C 0.69267 0.85265 0.62258 0.0
C6343 C 0.70232 0.84938 0.61899 0.0
C6344 C 0.71076 0.84859 0.62575 0.0
C6345 C 0.70936 0.85107 0.63621 0.0
C6346 C 0.69985 0.85466 0.63982 0.0
C6347 C 0.6915 0.85518 0.633 0.0
C6348 C 0.6989 0.85905 0.65032 0.0
C6349 C 0.70304 0.85402 0.65896 0.0
C6350 C 0.69403 0.8686 0.65165 0.0
C6351 C 0.69326 0.87301 0.66137 0.0
C6352 C 0.69736 0.86803 0.67004 0.0
C6353 C 0.7212 0.84607 0.62175 0.0
C6354 C 0.72257 0.83889 0.61376 0.0
C6355 C 0.7299 0.85119 0.62567 0.0
C6356 C 0.73968 0.84915 0.62178 0.0
C6357 C 0.74102 0.84207 0.61375 0.0
C6358 C 0.73238 0.83696 0.60974 0.0
C6359 C 0.70222 0.85845 0.66876 0.0
H6360 H 0.65787 0.85391 0.61487 0.0
H6361 H 0.67241 0.84752 0.62491 0.0
H6362 H 0.69343 0.86271 0.60415 0.0
H6363 H 0.67894 0.86915 0.59416 0.0
H6364 H 0.70333 0.84782 0.61087 0.0
H6365 H 0.68418 0.85807 0.63574 0.0
H6366 H 0.7158 0.85065 0.64149 0.0
H6367 H 0.70684 0.84665 0.65815 0.0
H6368 H 0.69092 0.87275 0.64513 0.0
H6369 H 0.68931 0.88031 0.66211 0.0
H6370 H 0.71607 0.83473 0.61062 0.0
H6371 H 0.72917 0.85699 0.6316 0.0
H6372 H 0.70547 0.85444 0.6753 0.0
H6373 H 0.73323 0.83143 0.60357 0.0
H6374 H 0.74619 0.85333 0.62487 0.0
C6375 C 0.1656 0.6535 0.39712 0.0
C6376 C 0.16724 0.6471 0.40568 0.0
C6377 C 0.17391 0.65718 0.39139 0.0
C6378 C 0.18404 0.65456 0.39411 0.0
C6379 C 0.18572 0.64879 0.4031 0.0
C6380 C 0.1774 0.64509 0.40883 0.0
C6381 C 0.19266 0.65661 0.38691 0.0
C6382 C 0.20232 0.65988 0.3905 0.0
C6383 C 0.21076 0.66068 0.38374 0.0
C6384 C 0.20936 0.6582 0.37328 0.0
C6385 C 0.19985 0.6546 0.36967 0.0
C6386 C 0.1915 0.65408 0.37649 0.0
C6387 C 0.1989 0.65022 0.35917 0.0
C6388 C 0.20304 0.65524 0.35053 0.0
C6389 C 0.19403 0.64067 0.35784 0.0
C6390 C 0.19325 0.63625 0.34812 0.0
C6391 C 0.19736 0.64124 0.33945 0.0
C6392 C 0.2212 0.66319 0.38774 0.0
C6393 C 0.22257 0.67037 0.39574 0.0
C6394 C 0.2299 0.65807 0.38382 0.0
C6395 C 0.23968 0.66011 0.38772 0.0
C6396 C 0.24102 0.66719 0.39575 0.0
C6397 C 0.23238 0.6723 0.39975 0.0
C6398 C 0.20222 0.65082 0.34073 0.0
H6399 H 0.15787 0.65535 0.39462 0.0
H6400 H 0.17241 0.66174 0.38458 0.0
H6401 H 0.19343 0.64655 0.40533 0.0
H6402 H 0.17894 0.64011 0.41533 0.0
H6403 H 0.20333 0.66143 0.39862 0.0
H6404 H 0.18417 0.65119 0.37375 0.0
H6405 H 0.2158 0.65861 0.368 0.0
H6406 H 0.20684 0.66262 0.35135 0.0
H6407 H 0.19091 0.63651 0.36435 0.0
H6408 H 0.1893 0.62895 0.34738 0.0
H6409 H 0.21608 0.67453 0.39888 0.0
H6410 H 0.22916 0.65227 0.37789 0.0
H6411 H 0.20547 0.65483 0.33419 0.0
H6412 H 0.23324 0.67782 0.40593 0.0
H6413 H 0.24619 0.65593 0.38462 0.0
C6414 C 0.64049 0.94958 0.66995 0.0
C6415 C 0.64882 0.94346 0.66672 0.0
C6416 C 0.63432 0.95467 0.6627 0.0
C6417 C 0.63631 0.95359 0.65213 0.0
C6418 C 0.64477 0.94767 0.64896 0.0
C6419 C 0.65093 0.94267 0.65615 0.0
C6420 C 0.62957 0.95836 0.64427 0.0
C6421 C 0.62698 0.9688 0.64473 0.0
C6422 C 0.62162 0.97353 0.63658 0.0
C6423 C 0.61879 0.96761 0.62795 0.0
C6424 C 0.62133 0.95712 0.62741 0.0
C6425 C 0.62646 0.95255 0.63574 0.0
C6426 C 0.61942 0.95098 0.61794 0.0
C6427 C 0.61021 0.95187 0.6123 0.0
C6428 C 0.62694 0.94397 0.61458 0.0
C6429 C 0.62513 0.93766 0.60615 0.0
C6430 C 0.61584 0.93829 0.60072 0.0
C6431 C 0.61983 0.98482 0.63676 0.0
C6432 C 0.61694 0.98977 0.64593 0.0
C6433 C 0.6217 0.99082 0.62795 0.0
C6434 C 0.62108 1.00154 0.62841 0.0
C6435 C 0.61861 0.00649 0.63769 0.0
C6436 C 0.61635 1.00048 0.64639 0.0
C6437 C 0.60845 0.94559 0.60369 0.0
H6438 H 0.63871 0.95037 0.67805 0.0
H6439 H 0.62785 0.95921 0.66534 0.0
H6440 H 0.64657 0.94681 0.64087 0.0
H6441 H 0.65718 0.9379 0.65338 0.0
H6442 H 0.62966 0.97337 0.65117 0.0
H6443 H 0.62827 0.94441 0.63552 0.0
H6444 H 0.61491 0.97123 0.62153 0.0
H6445 H 0.60428 0.95721 0.61468 0.0
H6446 H 0.63427 0.94332 0.61849 0.0
H6447 H 0.63103 0.93223 0.60384 0.0
H6448 H 0.61529 0.98536 0.6528 0.0
H6449 H 0.6241 0.98727 0.62081 0.0
H6450 H 0.60125 0.94622 0.59955 0.0
H6451 H 0.61426 1.00408 0.65361 0.0
H6452 H 0.62297 0.00596 0.6216 0.0
C6453 C 0.34068 0.35527 0.89828 0.0
C6454 C 0.33904 0.36214 0.90646 0.0
C6455 C 0.33238 0.35145 0.89263 0.0
C6456 C 0.32227 0.35441 0.89505 0.0
C6457 C 0.32057 0.36061 0.90373 0.0
C6458 C 0.32888 0.36445 0.90938 0.0
C6459 C 0.31378 0.35236 0.8877 0.0
C6460 C 0.30397 0.34935 0.89111 0.0
C6461 C 0.29569 0.34858 0.88414 0.0
C6462 C 0.2974 0.35086 0.87368 0.0
C6463 C 0.30706 0.35424 0.87027 0.0
C6464 C 0.31525 0.35469 0.87727 0.0
C6465 C 0.30837 0.35853 0.85977 0.0
C6466 C 0.30451 0.35345 0.85104 0.0
C6467 C 0.31336 0.36803 0.85853 0.0
C6468 C 0.31459 0.37232 0.8488 0.0
C6469 C 0.31082 0.36726 0.84003 0.0
C6470 C 0.2851 0.34631 0.88791 0.0
C6471 C 0.2834 0.33932 0.89602 0.0
C6472 C 0.27659 0.35143 0.8836 0.0
C6473 C 0.26667 0.34958 0.88723 0.0
C6474 C 0.265 0.34269 0.89536 0.0
C6475 C 0.27344 0.33759 0.89976 0.0
C6476 C 0.3058 0.35775 0.84122 0.0
H6477 H 0.34841 0.35319 0.89597 0.0
H6478 H 0.3339 0.34657 0.88605 0.0
H6479 H 0.31287 0.3631 0.90572 0.0
H6480 H 0.32735 0.36978 0.9156 0.0
H6481 H 0.30274 0.34798 0.89924 0.0
H6482 H 0.32269 0.35741 0.87468 0.0
H6483 H 0.29111 0.35048 0.86823 0.0
H6484 H 0.30063 0.34612 0.85179 0.0
H6485 H 0.31625 0.37223 0.86512 0.0
H6486 H 0.31865 0.37957 0.84814 0.0
H6487 H 0.28974 0.33516 0.89946 0.0
H6488 H 0.27757 0.3571 0.87758 0.0
H6489 H 0.30281 0.35368 0.8346 0.0
H6490 H 0.27233 0.33222 0.90604 0.0
H6491 H 0.26031 0.35376 0.88383 0.0
C6492 C 0.39399 0.56183 0.60058 0.0
C6493 C 0.3983 0.57172 0.60141 0.0
C6494 C 0.39306 0.55554 0.60925 0.0
C6495 C 0.39637 0.55902 0.61893 0.0
C6496 C 0.40128 0.56862 0.61964 0.0
C6497 C 0.40227 0.57489 0.61097 0.0
C6498 C 0.39372 0.55316 0.62836 0.0
C6499 C 0.39484 0.54243 0.62874 0.0
C6500 C 0.39133 0.53681 0.6373 0.0
C6501 C 0.38666 0.54208 0.64552 0.0
C6502 C 0.38549 0.5528 0.64526 0.0
C6503 C 0.38914 0.55829 0.6367 0.0
C6504 C 0.37969 0.55825 0.65345 0.0
C6505 C 0.37021 0.55437 0.65693 0.0
C6506 C 0.38319 0.56773 0.65728 0.0
C6507 C 0.37717 0.5734 0.66415 0.0
C6508 C 0.36748 0.56973 0.66727 0.0
C6509 C 0.39198 0.5254 0.63745 0.0
C6510 C 0.38964 0.51964 0.6286 0.0
C6511 C 0.39445 0.52016 0.64659 0.0
C6512 C 0.39428 0.50943 0.64695 0.0
C6513 C 0.39166 0.50369 0.63817 0.0
C6514 C 0.38951 0.50889 0.62895 0.0
C6515 C 0.36416 0.56007 0.66375 0.0
H6516 H 0.39076 0.55918 0.59337 0.0
H6517 H 0.38917 0.54821 0.60848 0.0
H6518 H 0.40405 0.57143 0.62698 0.0
H6519 H 0.40582 0.58238 0.61182 0.0
H6520 H 0.39842 0.53846 0.62235 0.0
H6521 H 0.38786 0.56651 0.63626 0.0
H6522 H 0.38368 0.5378 0.65203 0.0
H6523 H 0.36726 0.54713 0.65405 0.0
H6524 H 0.3905 0.57086 0.65479 0.0
H6525 H 0.37991 0.58085 0.66665 0.0
H6526 H 0.38756 0.52342 0.62147 0.0
H6527 H 0.39646 0.52437 0.65349 0.0
H6528 H 0.35677 0.55701 0.66609 0.0
H6529 H 0.38736 0.50468 0.62209 0.0
H6530 H 0.39614 0.50562 0.65412 0.0
C6531 C 0.84066 0.15403 0.11123 0.0
C6532 C 0.83902 0.14717 0.10304 0.0
C6533 C 0.83236 0.15784 0.11689 0.0
C6534 C 0.82225 0.15488 0.11446 0.0
C6535 C 0.82055 0.14869 0.10577 0.0
C6536 C 0.82886 0.14486 0.10012 0.0
C6537 C 0.81376 0.15692 0.12181 0.0
C6538 C 0.80395 0.15993 0.11841 0.0
C6539 C 0.79567 0.16069 0.12537 0.0
C6540 C 0.79738 0.15839 0.13584 0.0
C6541 C 0.80704 0.15501 0.13924 0.0
C6542 C 0.81523 0.15458 0.13224 0.0
C6543 C 0.80835 0.15071 0.14973 0.0
C6544 C 0.80449 0.15578 0.15847 0.0
C6545 C 0.81334 0.14121 0.15097 0.0
C6546 C 0.81457 0.13691 0.16069 0.0
C6547 C 0.81081 0.14197 0.16947 0.0
C6548 C 0.78508 0.16296 0.12161 0.0
C6549 C 0.78338 0.16996 0.11351 0.0
C6550 C 0.77657 0.15783 0.12591 0.0
C6551 C 0.76665 0.15969 0.12229 0.0
C6552 C 0.76498 0.16659 0.11416 0.0
C6553 C 0.77342 0.17169 0.10976 0.0
C6554 C 0.80578 0.15147 0.16828 0.0
H6555 H 0.84839 0.15612 0.11354 0.0
H6556 H 0.83388 0.16272 0.12347 0.0
H6557 H 0.81285 0.1462 0.10378 0.0
H6558 H 0.82732 0.13954 0.0939 0.0
H6559 H 0.80272 0.16131 0.11028 0.0
H6560 H 0.82268 0.15186 0.13483 0.0
H6561 H 0.79109 0.15877 0.14128 0.0
H6562 H 0.8006 0.16311 0.15773 0.0
H6563 H 0.81624 0.13703 0.14437 0.0
H6564 H 0.81864 0.12967 0.16134 0.0
H6565 H 0.78972 0.17413 0.11007 0.0
H6566 H 0.77755 0.15216 0.13193 0.0
H6567 H 0.80278 0.15553 0.17491 0.0
H6568 H 0.77231 0.17707 0.1035 0.0
H6569 H 0.76029 0.1555 0.12568 0.0
C6570 C 0.64049 0.05967 0.83954 0.0
C6571 C 0.64882 0.0658 0.84277 0.0
C6572 C 0.63432 0.05458 0.84678 0.0
C6573 C 0.6363 0.05567 0.85736 0.0
C6574 C 0.64475 0.0616 0.86053 0.0
C6575 C 0.65092 0.0666 0.85334 0.0
C6576 C 0.62955 0.0509 0.86522 0.0
C6577 C 0.62697 0.04045 0.86475 0.0
C6578 C 0.62161 0.03572 0.8729 0.0
C6579 C 0.61878 0.04164 0.88153 0.0
C6580 C 0.62131 0.05213 0.88207 0.0
C6581 C 0.62644 0.05671 0.87374 0.0
C6582 C 0.6194 0.05827 0.89154 0.0
C6583 C 0.61019 0.05737 0.89718 0.0
C6584 C 0.62691 0.06529 0.8949 0.0
C6585 C 0.6251 0.0716 0.90334 0.0
C6586 C 0.61581 0.07096 0.90876 0.0
C6587 C 0.61983 0.02443 0.87272 0.0
C6588 C 0.61694 0.01948 0.86355 0.0
C6589 C 0.6217 0.01843 0.88153 0.0
C6590 C 0.62108 0.00771 0.88108 0.0
C6591 C 0.61861 1.00276 0.8718 0.0
C6592 C 0.61636 0.00876 0.86309 0.0
C6593 C 0.60843 0.06365 0.90579 0.0
H6594 H 0.63871 0.05888 0.83144 0.0
H6595 H 0.62785 0.05004 0.84415 0.0
H6596 H 0.64655 0.06245 0.86862 0.0
H6597 H 0.65717 0.07137 0.85612 0.0
H6598 H 0.62966 0.03588 0.85832 0.0
H6599 H 0.62825 0.06485 0.87396 0.0
H6600 H 0.61489 0.03801 0.88796 0.0
H6601 H 0.60426 0.05203 0.8948 0.0
H6602 H 0.63424 0.06595 0.89099 0.0
H6603 H 0.631 0.07703 0.90564 0.0
H6604 H 0.61529 0.02389 0.85668 0.0
H6605 H 0.62409 0.02198 0.88868 0.0
H6606 H 0.60123 0.06301 0.90993 0.0
H6607 H 0.61427 0.00516 0.85588 0.0
H6608 H 0.62297 1.00329 0.88789 0.0
C6609 C 0.89401 0.94742 0.40891 0.0
C6610 C 0.89832 0.93753 0.40808 0.0
C6611 C 0.89307 0.95371 0.40024 0.0
C6612 C 0.89639 0.95023 0.39056 0.0
C6613 C 0.90129 0.94063 0.38985 0.0
C6614 C 0.90228 0.93436 0.39852 0.0
C6615 C 0.89373 0.95609 0.38113 0.0
C6616 C 0.89485 0.96682 0.38075 0.0
C6617 C 0.89134 0.97245 0.3722 0.0
C6618 C 0.88667 0.96718 0.36398 0.0
C6619 C 0.8855 0.95645 0.36424 0.0
C6620 C 0.88916 0.95097 0.37279 0.0
C6621 C 0.8797 0.951 0.35605 0.0
C6622 C 0.87022 0.95487 0.35257 0.0
C6623 C 0.8832 0.94152 0.35221 0.0
C6624 C 0.87718 0.93586 0.34535 0.0
C6625 C 0.86749 0.93952 0.34222 0.0
C6626 C 0.89198 0.98386 0.37205 0.0
C6627 C 0.88965 0.98961 0.3809 0.0
C6628 C 0.89446 0.98909 0.36291 0.0
C6629 C 0.89428 0.99983 0.36255 0.0
C6630 C 0.89166 0.00557 0.37133 0.0
C6631 C 0.88951 1.00036 0.38055 0.0
C6632 C 0.86417 0.94918 0.34575 0.0
H6633 H 0.89078 0.95007 0.41612 0.0
H6634 H 0.88918 0.96104 0.40101 0.0
H6635 H 0.90406 0.93783 0.38251 0.0
H6636 H 0.90583 0.92688 0.39767 0.0
H6637 H 0.89844 0.97079 0.38715 0.0
H6638 H 0.88787 0.94274 0.37323 0.0
H6639 H 0.88369 0.97145 0.35747 0.0
H6640 H 0.86727 0.96211 0.35545 0.0
H6641 H 0.89051 0.93839 0.3547 0.0
H6642 H 0.87992 0.9284 0.34283 0.0
H6643 H 0.88757 0.98582 0.38802 0.0
H6644 H 0.89647 0.98489 0.35601 0.0
H6645 H 0.85678 0.95223 0.34341 0.0
H6646 H 0.88736 1.00457 0.38741 0.0
H6647 H 0.89614 1.00364 0.35538 0.0
C6648 C 0.40837 0.3306 0.14055 0.0
C6649 C 0.40577 0.34084 0.1428 0.0
C6650 C 0.40253 0.32249 0.1445 0.0
C6651 C 0.39397 0.32445 0.15082 0.0
C6652 C 0.39172 0.33467 0.15353 0.0
C6653 C 0.39755 0.34278 0.14956 0.0
C6654 C 0.38687 0.31595 0.15367 0.0
C6655 C 0.3907 0.3062 0.15631 0.0
C6656 C 0.38403 0.29778 0.15763 0.0
C6657 C 0.37336 0.2993 0.15659 0.0
C6658 C 0.36938 0.30905 0.15416 0.0
C6659 C 0.3762 0.31731 0.15273 0.0
C6660 C 0.35823 0.31055 0.15215 0.0
C6661 C 0.35274 0.30353 0.14603 0.0
C6662 C 0.35325 0.31953 0.15554 0.0
C6663 C 0.34324 0.32175 0.15235 0.0
C6664 C 0.33798 0.31504 0.14572 0.0
C6665 C 0.38827 0.28728 0.15937 0.0
C6666 C 0.39723 0.2841 0.15421 0.0
C6667 C 0.38324 0.28026 0.16589 0.0
C6668 C 0.387 0.27025 0.16709 0.0
C6669 C 0.3959 0.26705 0.16183 0.0
C6670 C 0.40103 0.27414 0.15548 0.0
C6671 C 0.3427 0.30575 0.14285 0.0
H6672 H 0.41456 0.32884 0.13526 0.0
H6673 H 0.40439 0.31472 0.14214 0.0
H6674 H 0.38527 0.33641 0.15852 0.0
H6675 H 0.39547 0.35059 0.15157 0.0
H6676 H 0.39892 0.30517 0.15721 0.0
H6677 H 0.37322 0.32469 0.15026 0.0
H6678 H 0.36814 0.29285 0.15738 0.0
H6679 H 0.35638 0.29659 0.1432 0.0
H6680 H 0.35723 0.325 0.16041 0.0
H6681 H 0.33973 0.32889 0.15482 0.0
H6682 H 0.40123 0.28922 0.149 0.0
H6683 H 0.37639 0.28248 0.17007 0.0
H6684 H 0.33886 0.30046 0.13767 0.0
H6685 H 0.408 0.27201 0.15144 0.0
H6686 H 0.38279 0.26497 0.17197 0.0
C6687 C 0.4456 0.60254 0.89926 0.0
C6688 C 0.43723 0.60016 0.89285 0.0
C6689 C 0.45156 0.61134 0.89736 0.0
C6690 C 0.44932 0.61778 0.88892 0.0
C6691 C 0.44111 0.61513 0.8824 0.0
C6692 C 0.4351 0.6065 0.88439 0.0
C6693 C 0.45549 0.62718 0.8867 0.0
C6694 C 0.46625 0.62722 0.88781 0.0
C6695 C 0.47211 0.63576 0.88463 0.0
C6696 C 0.46707 0.64434 0.88034 0.0
C6697 C 0.45637 0.64433 0.87904 0.0
C6698 C 0.45065 0.6359 0.88255 0.0
C6699 C 0.45122 0.65251 0.87299 0.0
C6700 C 0.45308 0.66299 0.87487 0.0
C6701 C 0.44441 0.64972 0.86508 0.0
C6702 C 0.43943 0.65721 0.85928 0.0
C6703 C 0.44111 0.6677 0.86122 0.0
C6704 C 0.48353 0.63541 0.88499 0.0
C6705 C 0.48871 0.63113 0.89348 0.0
C6706 C 0.48935 0.63921 0.87671 0.0
C6707 C 0.50007 0.63886 0.87694 0.0
C6708 C 0.50527 0.6346 0.88541 0.0
C6709 C 0.49946 0.63074 0.89369 0.0
C6710 C 0.44799 0.67054 0.86908 0.0
H6711 H 0.44741 0.5977 0.9058 0.0
H6712 H 0.45782 0.61315 0.90254 0.0
H6713 H 0.43936 0.61964 0.87562 0.0
H6714 H 0.42886 0.60468 0.87917 0.0
H6715 H 0.47012 0.62039 0.89061 0.0
H6716 H 0.44235 0.63606 0.88177 0.0
H6717 H 0.47149 0.65086 0.87764 0.0
H6718 H 0.45832 0.66534 0.88091 0.0
H6719 H 0.44295 0.6417 0.86336 0.0
H6720 H 0.43406 0.65475 0.8534 0.0
H6721 H 0.48445 0.62818 0.9 0.0
H6722 H 0.48563 0.64238 0.86996 0.0
H6723 H 0.44943 0.67858 0.87073 0.0
H6724 H 0.50322 0.62732 0.9003 0.0
H6725 H 0.50428 0.64206 0.8705 0.0
C6726 C 0.0998 0.67893 0.64533 0.0
C6727 C 0.10269 0.6687 0.64728 0.0
C6728 C 0.10541 0.68708 0.64952 0.0
C6729 C 0.11402 0.68517 0.65578 0.0
C6730 C 0.1165 0.67494 0.65827 0.0
C6731 C 0.11091 0.66679 0.65405 0.0
C6732 C 0.12103 0.69374 0.65863 0.0
C6733 C 0.11712 0.70342 0.66135 0.0
C6734 C 0.12367 0.71198 0.66237 0.0
C6735 C 0.13434 0.71063 0.66102 0.0
C6736 C 0.1384 0.70092 0.65858 0.0
C6737 C 0.13169 0.69255 0.65742 0.0
C6738 C 0.14949 0.69957 0.65617 0.0
C6739 C 0.15459 0.7065 0.64961 0.0
C6740 C 0.15471 0.69071 0.65951 0.0
C6741 C 0.16453 0.68846 0.6558 0.0
C6742 C 0.16936 0.69503 0.6487 0.0
C6743 C 0.11929 0.72245 0.66399 0.0
C6744 C 0.11007 0.72531 0.65911 0.0
C6745 C 0.12449 0.7298 0.66999 0.0
C6746 C 0.12071 0.73983 0.67083 0.0
C6747 C 0.11159 0.74274 0.66576 0.0
C6748 C 0.10623 0.73529 0.66006 0.0
C6749 C 0.16445 0.70425 0.64592 0.0
H6750 H 0.09359 0.68067 0.64006 0.0
H6751 H 0.10336 0.69485 0.64733 0.0
H6752 H 0.123 0.67323 0.6632 0.0
H6753 H 0.11321 0.65898 0.65583 0.0
H6754 H 0.10891 0.70431 0.66246 0.0
H6755 H 0.13472 0.68521 0.65487 0.0
H6756 H 0.13947 0.71718 0.66153 0.0
H6757 H 0.15074 0.71334 0.64683 0.0
H6758 H 0.15104 0.68532 0.6647 0.0
H6759 H 0.16821 0.68139 0.65822 0.0
H6760 H 0.10591 0.71994 0.65429 0.0
H6761 H 0.13154 0.72784 0.67397 0.0
H6762 H 0.16796 0.70942 0.6404 0.0
H6763 H 0.09909 0.73717 0.65619 0.0
H6764 H 0.12511 0.74538 0.67522 0.0
C6765 C 0.05959 0.34515 0.36423 0.0
C6766 C 0.06913 0.34183 0.36808 0.0
C6767 C 0.05372 0.35235 0.36965 0.0
C6768 C 0.05729 0.35641 0.37902 0.0
C6769 C 0.06662 0.35277 0.38308 0.0
C6770 C 0.07247 0.34554 0.37768 0.0
C6771 C 0.05166 0.36497 0.38409 0.0
C6772 C 0.04088 0.3649 0.38464 0.0
C6773 C 0.03545 0.37348 0.38838 0.0
C6774 C 0.04099 0.38212 0.39179 0.0
C6775 C 0.05179 0.38228 0.39141 0.0
C6776 C 0.05705 0.37364 0.38762 0.0
C6777 C 0.05758 0.39176 0.39402 0.0
C6778 C 0.05434 0.40134 0.39019 0.0
C6779 C 0.0668 0.39122 0.39963 0.0
C6780 C 0.07292 0.39996 0.40093 0.0
C6781 C 0.06998 0.40943 0.39659 0.0
C6782 C 0.02402 0.37365 0.38817 0.0
C6783 C 0.01866 0.36949 0.37975 0.0
C6784 C 0.01838 0.37819 0.39621 0.0
C6785 C 0.00763 0.37859 0.3958 0.0
C6786 C 1.00229 0.37443 0.38737 0.0
C6787 C 0.00794 0.36983 0.37938 0.0
C6788 C 0.06048 0.41007 0.39145 0.0
H6789 H 0.05677 0.34237 0.3569 0.0
H6790 H 0.0466 0.35505 0.36627 0.0
H6791 H 0.06952 0.35569 0.39032 0.0
H6792 H 0.07983 0.3432 0.38082 0.0
H6793 H 0.0367 0.35816 0.38207 0.0
H6794 H 0.06535 0.37391 0.38685 0.0
H6795 H 0.0369 0.38887 0.39448 0.0
H6796 H 0.04733 0.40199 0.38573 0.0
H6797 H 0.06941 0.38396 0.4028 0.0
H6798 H 0.08011 0.39924 0.40509 0.0
H6799 H 0.02275 0.36608 0.37334 0.0
H6800 H 0.02226 0.38139 0.40285 0.0
H6801 H 0.05803 0.41719 0.38787 0.0
H6802 H 1.00408 0.3664 0.37284 0.0
H6803 H 1.00354 0.38227 0.40205 0.0
C6804 C 0.4084 0.67866 0.36907 0.0
C6805 C 0.4058 0.66841 0.36682 0.0
C6806 C 0.40256 0.68676 0.3651 0.0
C6807 C 0.39401 0.6848 0.35878 0.0
C6808 C 0.39176 0.67457 0.35607 0.0
C6809 C 0.39759 0.66646 0.36005 0.0
C6810 C 0.38692 0.6933 0.35591 0.0
C6811 C 0.39075 0.70304 0.35326 0.0
C6812 C 0.38409 0.71146 0.35193 0.0
C6813 C 0.37341 0.70994 0.35296 0.0
C6814 C 0.36943 0.70019 0.35539 0.0
C6815 C 0.37625 0.69194 0.35684 0.0
C6816 C 0.35828 0.69869 0.35739 0.0
C6817 C 0.35278 0.70572 0.3635 0.0
C6818 C 0.3533 0.68971 0.354 0.0
C6819 C 0.34329 0.68749 0.35718 0.0
C6820 C 0.33801 0.69421 0.3638 0.0
C6821 C 0.38832 0.72195 0.35017 0.0
C6822 C 0.39728 0.72515 0.35533 0.0
C6823 C 0.38331 0.72896 0.34363 0.0
C6824 C 0.38707 0.73897 0.34243 0.0
C6825 C 0.39596 0.74219 0.34769 0.0
C6826 C 0.40108 0.7351 0.35406 0.0
C6827 C 0.34273 0.70351 0.36666 0.0
H6828 H 0.41459 0.68042 0.37436 0.0
H6829 H 0.40443 0.69453 0.36746 0.0
H6830 H 0.38532 0.67282 0.35108 0.0
H6831 H 0.39551 0.65865 0.35805 0.0
H6832 H 0.39898 0.70407 0.35237 0.0
H6833 H 0.37326 0.68456 0.35932 0.0
H6834 H 0.3682 0.71639 0.35215 0.0
H6835 H 0.35642 0.71266 0.36631 0.0
H6836 H 0.35728 0.68423 0.34915 0.0
H6837 H 0.33977 0.68035 0.35472 0.0
H6838 H 0.40127 0.72003 0.36056 0.0
H6839 H 0.37646 0.72673 0.33946 0.0
H6840 H 0.33889 0.7088 0.37182 0.0
H6841 H 0.40805 0.73724 0.3581 0.0
H6842 H 0.38286 0.74424 0.33754 0.0
C6843 C 0.0596 0.66408 0.14526 0.0
C6844 C 0.06914 0.66741 0.1414 0.0
C6845 C 0.05373 0.65689 0.13984 0.0
C6846 C 0.05729 0.65283 0.13047 0.0
C6847 C 0.06663 0.65647 0.12641 0.0
C6848 C 0.07248 0.6637 0.1318 0.0
C6849 C 0.05166 0.64427 0.1254 0.0
C6850 C 0.04088 0.64433 0.12486 0.0
C6851 C 0.03545 0.63575 0.12111 0.0
C6852 C 0.04099 0.62711 0.1177 0.0
C6853 C 0.05178 0.62696 0.11808 0.0
C6854 C 0.05705 0.6356 0.12187 0.0
C6855 C 0.05757 0.61747 0.11547 0.0
C6856 C 0.05433 0.6079 0.1193 0.0
C6857 C 0.06679 0.61802 0.10986 0.0
C6858 C 0.07291 0.60927 0.10855 0.0
C6859 C 0.06996 0.5998 0.11289 0.0
C6860 C 0.02402 0.63558 0.12133 0.0
C6861 C 0.01866 0.63975 0.12975 0.0
C6862 C 0.01837 0.63105 0.11329 0.0
C6863 C 0.00763 0.63065 0.11369 0.0
C6864 C 1.00228 0.63481 0.12213 0.0
C6865 C 0.00794 0.63941 0.13012 0.0
C6866 C 0.06047 0.59916 0.11804 0.0
H6867 H 0.05678 0.66687 0.15258 0.0
H6868 H 0.04661 0.65418 0.14322 0.0
H6869 H 0.06953 0.65354 0.11916 0.0
H6870 H 0.07984 0.66603 0.12867 0.0
H6871 H 0.03671 0.65107 0.12743 0.0
H6872 H 0.06535 0.63532 0.12264 0.0
H6873 H 0.0369 0.62036 0.11502 0.0
H6874 H 0.04733 0.60725 0.12376 0.0
H6875 H 0.0694 0.62527 0.10669 0.0
H6876 H 0.08009 0.60999 0.10439 0.0
H6877 H 0.02275 0.64315 0.13615 0.0
H6878 H 0.02225 0.62785 0.10665 0.0
H6879 H 0.05802 0.59205 0.12162 0.0
H6880 H 1.00408 0.64284 0.13665 0.0
H6881 H 1.00353 0.62697 0.10745 0.0
C6882 C 0.09982 0.33032 0.86418 0.0
C6883 C 0.10271 0.34055 0.86222 0.0
C6884 C 0.10543 0.32218 0.85999 0.0
C6885 C 0.11404 0.32409 0.85373 0.0
C6886 C 0.11652 0.33432 0.85124 0.0
C6887 C 0.11092 0.34247 0.85545 0.0
C6888 C 0.12106 0.31552 0.85088 0.0
C6889 C 0.11714 0.30584 0.84816 0.0
C6890 C 0.12369 0.29728 0.84713 0.0
C6891 C 0.13436 0.29864 0.84849 0.0
C6892 C 0.13843 0.30835 0.85093 0.0
C6893 C 0.13171 0.31672 0.85209 0.0
C6894 C 0.14951 0.30971 0.85334 0.0
C6895 C 0.15462 0.30278 0.8599 0.0
C6896 C 0.15474 0.31856 0.85 0.0
C6897 C 0.16456 0.32082 0.8537 0.0
C6898 C 0.16939 0.31425 0.8608 0.0
C6899 C 0.11932 0.28682 0.84552 0.0
C6900 C 0.11009 0.28395 0.8504 0.0
C6901 C 0.12451 0.27947 0.83951 0.0
C6902 C 0.12074 0.26943 0.83867 0.0
C6903 C 0.11162 0.26652 0.84374 0.0
C6904 C 0.10626 0.27397 0.84945 0.0
C6905 C 0.16448 0.30503 0.86358 0.0
H6906 H 0.09361 0.32858 0.86945 0.0
H6907 H 0.10338 0.3144 0.86218 0.0
H6908 H 0.12302 0.33603 0.84631 0.0
H6909 H 0.11322 0.35028 0.85367 0.0
H6910 H 0.10893 0.30495 0.84705 0.0
H6911 H 0.13475 0.32406 0.85464 0.0
H6912 H 0.13949 0.2921 0.84798 0.0
H6913 H 0.15077 0.29594 0.86268 0.0
H6914 H 0.15106 0.32396 0.84481 0.0
H6915 H 0.16824 0.3279 0.85129 0.0
H6916 H 0.10594 0.28931 0.85522 0.0
H6917 H 0.13157 0.28143 0.83553 0.0
H6918 H 0.16799 0.29986 0.8691 0.0
H6919 H 0.09912 0.27208 0.85331 0.0
H6920 H 0.12513 0.26389 0.83428 0.0
C6921 C 0.44566 0.40667 0.61017 0.0
C6922 C 0.43729 0.40905 0.61658 0.0
C6923 C 0.4516 0.39786 0.61206 0.0
C6924 C 0.44935 0.39141 0.62049 0.0
C6925 C 0.44114 0.39407 0.62701 0.0
C6926 C 0.43515 0.4027 0.62503 0.0
C6927 C 0.45551 0.382 0.62271 0.0
C6928 C 0.46627 0.38195 0.6216 0.0
C6929 C 0.47211 0.3734 0.62478 0.0
C6930 C 0.46706 0.36483 0.62906 0.0
C6931 C 0.45636 0.36484 0.63036 0.0
C6932 C 0.45065 0.37328 0.62685 0.0
C6933 C 0.4512 0.35667 0.63642 0.0
C6934 C 0.45306 0.34618 0.63454 0.0
C6935 C 0.4444 0.35947 0.64432 0.0
C6936 C 0.43941 0.35198 0.65013 0.0
C6937 C 0.44109 0.34149 0.6482 0.0
C6938 C 0.48354 0.37374 0.62442 0.0
C6939 C 0.48872 0.37802 0.61593 0.0
C6940 C 0.48935 0.36993 0.6327 0.0
C6941 C 0.50007 0.37028 0.63247 0.0
C6942 C 0.50527 0.37454 0.624 0.0
C6943 C 0.49947 0.37841 0.61573 0.0
C6944 C 0.44796 0.33864 0.64034 0.0
H6945 H 0.44748 0.41151 0.60364 0.0
H6946 H 0.45786 0.39604 0.60688 0.0
H6947 H 0.43938 0.38955 0.63379 0.0
H6948 H 0.42891 0.40453 0.63025 0.0
H6949 H 0.47014 0.38878 0.6188 0.0
H6950 H 0.44235 0.37313 0.62764 0.0
H6951 H 0.47147 0.35829 0.63176 0.0
H6952 H 0.45829 0.34384 0.6285 0.0
H6953 H 0.44294 0.36749 0.64604 0.0
H6954 H 0.43404 0.35444 0.65601 0.0
H6955 H 0.48446 0.38098 0.60941 0.0
H6956 H 0.48563 0.36676 0.63944 0.0
H6957 H 0.4494 0.3306 0.63869 0.0
H6958 H 0.50323 0.38182 0.60912 0.0
H6959 H 0.50428 0.36708 0.63891 0.0
C6960 C 0.14359 0.40859 0.33037 0.0
C6961 C 0.14585 0.40589 0.34059 0.0
C6962 C 0.14757 0.40287 0.3222 0.0
C6963 C 0.15394 0.39433 0.32408 0.0
C6964 C 0.15672 0.39202 0.33428 0.0
C6965 C 0.1527 0.39773 0.34245 0.0
C6966 C 0.15667 0.38724 0.31553 0.0
C6967 C 0.15912 0.39107 0.30574 0.0
C6968 C 0.16014 0.38442 0.29726 0.0
C6969 C 0.15905 0.37375 0.29879 0.0
C6970 C 0.15685 0.36978 0.30859 0.0
C6971 C 0.1557 0.37659 0.3169 0.0
C6972 C 0.15473 0.35867 0.31016 0.0
C6973 C 0.14814 0.35333 0.30345 0.0
C6974 C 0.15838 0.35365 0.31901 0.0
C6975 C 0.15494 0.34378 0.32148 0.0
C6976 C 0.14779 0.33872 0.31515 0.0
C6977 C 0.16162 0.38868 0.28674 0.0
C6978 C 0.15646 0.39771 0.28374 0.0
C6979 C 0.1679 0.38365 0.27952 0.0
C6980 C 0.16888 0.38748 0.26951 0.0
C6981 C 0.16365 0.39646 0.26651 0.0
C6982 C 0.15752 0.40158 0.27379 0.0
C6983 C 0.14471 0.34343 0.30592 0.0
H6984 H 0.13824 0.41475 0.32867 0.0
H6985 H 0.14516 0.40478 0.31446 0.0
H6986 H 0.16174 0.38559 0.33596 0.0
H6987 H 0.15472 0.39557 0.35024 0.0
H6988 H 0.16005 0.39929 0.3047 0.0
H6989 H 0.15337 0.3736 0.32433 0.0
H6990 H 0.15958 0.36855 0.2923 0.0
H6991 H 0.14513 0.35703 0.29661 0.0
H6992 H 0.1636 0.35751 0.32423 0.0
H6993 H 0.15759 0.34026 0.32855 0.0
H6994 H 0.15142 0.40172 0.28903 0.0
H6995 H 0.17206 0.37674 0.28159 0.0
H6996 H 0.13915 0.33974 0.30092 0.0
H6997 H 0.1535 0.40861 0.27181 0.0
H6998 H 0.17358 0.38327 0.26408 0.0
C6999 C 0.4064 0.39959 0.06146 0.0
C7000 C 0.40887 0.3932 0.06982 0.0
C7001 C 0.39756 0.39764 0.05556 0.0
C7002 C 0.39118 0.38918 0.05786 0.0
C7003 C 0.39392 0.38268 0.06606 0.0
C7004 C 0.40258 0.38472 0.072 0.0
C7005 C 0.38173 0.38691 0.05177 0.0
C7006 C 0.38159 0.38802 0.04101 0.0
C7007 C 0.37301 0.38478 0.03523 0.0
C7008 C 0.3645 0.38044 0.04036 0.0
C7009 C 0.36461 0.37916 0.05105 0.0
C7010 C 0.37307 0.38273 0.0567 0.0
C7011 C 0.35651 0.37308 0.0563 0.0
C7012 C 0.34599 0.37491 0.05456 0.0
C7013 C 0.35941 0.36521 0.06311 0.0
C7014 C 0.35199 0.35941 0.06822 0.0
C7015 C 0.34147 0.36132 0.06667 0.0
C7016 C 0.37327 0.38513 0.02381 0.0
C7017 C 0.37744 0.39364 0.01858 0.0
C7018 C 0.36952 0.3768 0.01804 0.0
C7019 C 0.36984 0.37699 0.00732 0.0
C7020 C 0.37401 0.38547 1.00207 0.0
C7021 C 0.3778 0.39381 0.00782 0.0
C7022 C 0.33852 0.36913 0.05978 0.0
H7023 H 0.4112 0.40614 0.0596 0.0
H7024 H 0.39568 0.40281 0.04931 0.0
H7025 H 0.38945 0.37588 0.06785 0.0
H7026 H 0.40447 0.37952 0.07824 0.0
H7027 H 0.38837 0.39086 0.03708 0.0
H7028 H 0.37298 0.38195 0.065 0.0
H7029 H 0.35795 0.37769 0.03599 0.0
H7030 H 0.34357 0.38093 0.04932 0.0
H7031 H 0.36745 0.36351 0.06449 0.0
H7032 H 0.35453 0.35358 0.0736 0.0
H7033 H 0.38035 0.4002 0.02281 0.0
H7034 H 0.36642 0.37004 0.0218 0.0
H7035 H 0.33046 0.37076 0.05843 0.0
H7036 H 0.38113 0.40044 1.00403 0.0
H7037 H 0.3667 0.3705 1.00314 0.0
C7038 C 0.36786 0.60101 0.82926 0.0
C7039 C 0.36528 0.60352 0.83945 0.0
C7040 C 0.36418 0.60693 0.82108 0.0
C7041 C 0.35782 0.61548 0.8229 0.0
C7042 C 0.35478 0.61764 0.83305 0.0
C7043 C 0.35848 0.61174 0.84124 0.0
C7044 C 0.35525 0.62265 0.81437 0.0
C7045 C 0.35289 0.61891 0.80452 0.0
C7046 C 0.35181 0.62566 0.79612 0.0
C7047 C 0.3528 0.63631 0.79777 0.0
C7048 C 0.35497 0.6402 0.80762 0.0
C7049 C 0.35615 0.63331 0.81586 0.0
C7050 C 0.35693 0.65134 0.80927 0.0
C7051 C 0.3632 0.6569 0.80242 0.0
C7052 C 0.35331 0.65624 0.8182 0.0
C7053 C 0.35639 0.66626 0.82054 0.0
C7054 C 0.36315 0.6716 0.81401 0.0
C7055 C 0.35036 0.62155 0.78553 0.0
C7056 C 0.35564 0.61265 0.78237 0.0
C7057 C 0.34404 0.62665 0.77839 0.0
C7058 C 0.34319 0.62307 0.76829 0.0
C7059 C 0.34859 0.61426 0.7651 0.0
C7060 C 0.35472 0.60902 0.77231 0.0
C7061 C 0.36627 0.66694 0.80477 0.0
H7062 H 0.37319 0.59482 0.82762 0.0
H7063 H 0.36679 0.60512 0.81337 0.0
H7064 H 0.34975 0.62408 0.83469 0.0
H7065 H 0.35622 0.61376 0.849 0.0
H7066 H 0.35204 0.6107 0.80337 0.0
H7067 H 0.35841 0.63622 0.82333 0.0
H7068 H 0.35219 0.64159 0.79135 0.0
H7069 H 0.36621 0.65331 0.79553 0.0
H7070 H 0.34832 0.65222 0.82353 0.0
H7071 H 0.35373 0.66972 0.82764 0.0
H7072 H 0.3607 0.60858 0.7876 0.0
H7073 H 0.33978 0.63346 0.78059 0.0
H7074 H 0.37155 0.67083 0.79962 0.0
H7075 H 0.35886 0.60211 0.77018 0.0
H7076 H 0.33848 0.62736 0.76292 0.0
C7077 C 0.16362 0.64647 0.5596 0.0
C7078 C 0.16703 0.64273 0.56915 0.0
C7079 C 0.15653 0.64088 0.55376 0.0
C7080 C 0.15266 0.63145 0.55737 0.0
C7081 C 0.15639 0.62751 0.56672 0.0
C7082 C 0.16352 0.63307 0.57254 0.0
C7083 C 0.14418 0.62619 0.5518 0.0
C7084 C 0.14426 0.62556 0.54102 0.0
C7085 C 0.13573 0.62166 0.53562 0.0
C7086 C 0.12713 0.61818 0.54119 0.0
C7087 C 0.12696 0.61865 0.55198 0.0
C7088 C 0.13556 0.62259 0.55721 0.0
C7089 C 0.11749 0.61601 0.55779 0.0
C7090 C 0.10789 0.61973 0.55452 0.0
C7091 C 0.11809 0.61049 0.56706 0.0
C7092 C 0.10935 0.60919 0.5732 0.0
C7093 C 0.09985 0.61343 0.57022 0.0
C7094 C 0.13556 0.62179 0.52419 0.0
C7095 C 0.13961 0.63023 0.51877 0.0
C7096 C 0.13113 0.61366 0.5186 0.0
C7097 C 0.13072 0.61399 0.50786 0.0
C7098 C 0.13477 0.62244 0.50245 0.0
C7099 C 0.13927 0.63052 0.50805 0.0
C7100 C 0.09917 0.61847 0.56067 0.0
H7101 H 0.16625 0.65385 0.55675 0.0
H7102 H 0.15375 0.64417 0.54663 0.0
H7103 H 0.15361 0.62022 0.56966 0.0
H7104 H 0.16593 0.63001 0.57991 0.0
H7105 H 0.15097 0.62819 0.53682 0.0
H7106 H 0.13527 0.62344 0.56551 0.0
H7107 H 0.12041 0.61539 0.53712 0.0
H7108 H 0.1072 0.62412 0.54746 0.0
H7109 H 0.12537 0.60741 0.5697 0.0
H7110 H 0.11011 0.6051 0.58042 0.0
H7111 H 0.14294 0.63671 0.52282 0.0
H7112 H 0.12801 0.607 0.52253 0.0
H7113 H 0.09203 0.62198 0.55819 0.0
H7114 H 0.14262 0.63708 0.50415 0.0
H7115 H 0.12712 0.60766 0.5038 0.0
C7116 C 0.14358 0.60066 0.1791 0.0
C7117 C 0.14585 0.60336 0.16888 0.0
C7118 C 0.14757 0.60638 0.18726 0.0
C7119 C 0.15394 0.61493 0.18539 0.0
C7120 C 0.15671 0.61723 0.17519 0.0
C7121 C 0.1527 0.61152 0.16702 0.0
C7122 C 0.15667 0.62201 0.19394 0.0
C7123 C 0.15912 0.61818 0.20373 0.0
C7124 C 0.16015 0.62483 0.2122 0.0
C7125 C 0.15905 0.6355 0.21068 0.0
C7126 C 0.15686 0.63947 0.20087 0.0
C7127 C 0.1557 0.63267 0.19257 0.0
C7128 C 0.15474 0.65058 0.19931 0.0
C7129 C 0.14815 0.65592 0.20602 0.0
C7130 C 0.15839 0.65561 0.19046 0.0
C7131 C 0.15495 0.66547 0.18799 0.0
C7132 C 0.14781 0.67053 0.19432 0.0
C7133 C 0.16162 0.62057 0.22273 0.0
C7134 C 0.15646 0.61154 0.22572 0.0
C7135 C 0.16791 0.6256 0.22995 0.0
C7136 C 0.16888 0.62177 0.23996 0.0
C7137 C 0.16365 0.61279 0.24296 0.0
C7138 C 0.15752 0.60767 0.23568 0.0
C7139 C 0.14472 0.66582 0.20355 0.0
H7140 H 0.13823 0.5945 0.18079 0.0
H7141 H 0.14516 0.60447 0.19501 0.0
H7142 H 0.16174 0.62367 0.17351 0.0
H7143 H 0.15471 0.61368 0.15922 0.0
H7144 H 0.16005 0.60996 0.20477 0.0
H7145 H 0.15337 0.63565 0.18514 0.0
H7146 H 0.15959 0.6407 0.21717 0.0
H7147 H 0.14514 0.65222 0.21286 0.0
H7148 H 0.16361 0.65175 0.18524 0.0
H7149 H 0.1576 0.66899 0.18092 0.0
H7150 H 0.15142 0.60753 0.22044 0.0
H7151 H 0.17207 0.63251 0.22788 0.0
H7152 H 0.13916 0.66951 0.20855 0.0
H7153 H 0.1535 0.60064 0.23765 0.0
H7154 H 0.17359 0.62598 0.24539 0.0
C7155 C 0.16364 0.36281 0.94988 0.0
C7156 C 0.16704 0.36655 0.94033 0.0
C7157 C 0.15655 0.36839 0.95572 0.0
C7158 C 0.15267 0.37783 0.9521 0.0
C7159 C 0.1564 0.38177 0.94275 0.0
C7160 C 0.16354 0.37621 0.93694 0.0
C7161 C 0.1442 0.38308 0.95768 0.0
C7162 C 0.14428 0.38372 0.96846 0.0
C7163 C 0.13575 0.38762 0.97385 0.0
C7164 C 0.12714 0.39109 0.96829 0.0
C7165 C 0.12698 0.39062 0.9575 0.0
C7166 C 0.13557 0.38668 0.95226 0.0
C7167 C 0.11751 0.39326 0.95169 0.0
C7168 C 0.1079 0.38953 0.95496 0.0
C7169 C 0.1181 0.39877 0.94241 0.0
C7170 C 0.10937 0.40008 0.93628 0.0
C7171 C 0.09987 0.39583 0.93926 0.0
C7172 C 0.13557 0.38748 0.98529 0.0
C7173 C 0.13963 0.37905 0.9907 0.0
C7174 C 0.13114 0.39561 0.99087 0.0
C7175 C 0.13073 0.39528 1.00162 0.0
C7176 C 0.13478 0.38683 0.00702 0.0
C7177 C 0.13928 0.37875 1.00143 0.0
C7178 C 0.09918 0.39079 0.94881 0.0
H7179 H 0.16627 0.35544 0.95273 0.0
H7180 H 0.15376 0.3651 0.96285 0.0
H7181 H 0.15362 0.38906 0.93982 0.0
H7182 H 0.16595 0.37926 0.92957 0.0
H7183 H 0.15099 0.38109 0.97265 0.0
H7184 H 0.13528 0.38583 0.94397 0.0
H7185 H 0.12043 0.39388 0.97236 0.0
H7186 H 0.10722 0.38515 0.96201 0.0
H7187 H 0.12538 0.40186 0.93978 0.0
H7188 H 0.11012 0.40416 0.92905 0.0
H7189 H 0.14295 0.37257 0.98666 0.0
H7190 H 0.12802 0.40227 0.98695 0.0
H7191 H 0.09204 0.38729 0.95128 0.0
H7192 H 0.14263 0.37219 0.00533 0.0
H7193 H 0.12713 0.4016 0.00567 0.0
C7194 C 0.36803 0.40823 0.68025 0.0
C7195 C 0.36545 0.40573 0.67006 0.0
C7196 C 0.36434 0.40232 0.68843 0.0
C7197 C 0.35798 0.39377 0.6866 0.0
C7198 C 0.35493 0.39161 0.67644 0.0
C7199 C 0.35864 0.39752 0.66826 0.0
C7200 C 0.35539 0.3866 0.69512 0.0
C7201 C 0.35303 0.39034 0.70498 0.0
C7202 C 0.35193 0.38359 0.71337 0.0
C7203 C 0.35291 0.37293 0.71172 0.0
C7204 C 0.35508 0.36905 0.70187 0.0
C7205 C 0.35628 0.37594 0.69364 0.0
C7206 C 0.35703 0.35791 0.70022 0.0
C7207 C 0.36328 0.35234 0.70707 0.0
C7208 C 0.35341 0.35301 0.69129 0.0
C7209 C 0.35648 0.34299 0.68895 0.0
C7210 C 0.36321 0.33764 0.69549 0.0
C7211 C 0.35047 0.3877 0.72396 0.0
C7212 C 0.35575 0.39659 0.72713 0.0
C7213 C 0.34413 0.3826 0.73109 0.0
C7214 C 0.34327 0.38618 0.74119 0.0
C7215 C 0.34868 0.39499 0.74439 0.0
C7216 C 0.35482 0.40022 0.73719 0.0
C7217 C 0.36633 0.34229 0.70474 0.0
H7218 H 0.37337 0.41442 0.6819 0.0
H7219 H 0.36695 0.40411 0.69614 0.0
H7220 H 0.3499 0.38518 0.6748 0.0
H7221 H 0.35638 0.3955 0.6605 0.0
H7222 H 0.35218 0.39855 0.70612 0.0
H7223 H 0.35854 0.37303 0.68616 0.0
H7224 H 0.35228 0.36766 0.71814 0.0
H7225 H 0.36628 0.35592 0.71397 0.0
H7226 H 0.34843 0.35704 0.68595 0.0
H7227 H 0.35382 0.33953 0.68185 0.0
H7228 H 0.36082 0.40066 0.72191 0.0
H7229 H 0.33986 0.37579 0.72888 0.0
H7230 H 0.3716 0.3384 0.70989 0.0
H7231 H 0.35897 0.40712 0.73932 0.0
H7232 H 0.33854 0.38189 0.74655 0.0
C7233 C 0.40633 0.60962 0.44809 0.0
C7234 C 0.4088 0.61599 0.43973 0.0
C7235 C 0.39748 0.61156 0.45397 0.0
C7236 C 0.39109 0.62001 0.45165 0.0
C7237 C 0.39385 0.62651 0.44345 0.0
C7238 C 0.40252 0.62447 0.43752 0.0
C7239 C 0.38164 0.62228 0.45773 0.0
C7240 C 0.38149 0.62118 0.46849 0.0
C7241 C 0.3729 0.62443 0.47426 0.0
C7242 C 0.3644 0.62876 0.46912 0.0
C7243 C 0.36452 0.63004 0.45842 0.0
C7244 C 0.37298 0.62646 0.45279 0.0
C7245 C 0.35643 0.63612 0.45317 0.0
C7246 C 0.34591 0.6343 0.45491 0.0
C7247 C 0.35934 0.64398 0.44635 0.0
C7248 C 0.35193 0.64979 0.44124 0.0
C7249 C 0.34141 0.64789 0.44279 0.0
C7250 C 0.37316 0.62409 0.48568 0.0
C7251 C 0.37732 0.61558 0.49092 0.0
C7252 C 0.3694 0.63242 0.49144 0.0
C7253 C 0.36971 0.63225 0.50216 0.0
C7254 C 0.37388 0.62377 0.50742 0.0
C7255 C 0.37767 0.61542 0.50168 0.0
C7256 C 0.33845 0.64008 0.44968 0.0
H7257 H 0.41113 0.60307 0.44996 0.0
H7258 H 0.39559 0.6064 0.46023 0.0
H7259 H 0.38938 0.6333 0.44164 0.0
H7260 H 0.40441 0.62966 0.43128 0.0
H7261 H 0.38826 0.61836 0.47243 0.0
H7262 H 0.3729 0.62723 0.44448 0.0
H7263 H 0.35785 0.63152 0.47348 0.0
H7264 H 0.34348 0.62829 0.46014 0.0
H7265 H 0.36739 0.64567 0.44498 0.0
H7266 H 0.35448 0.65562 0.43586 0.0
H7267 H 0.38024 0.60902 0.4867 0.0
H7268 H 0.36631 0.63918 0.48768 0.0
H7269 H 0.33039 0.63846 0.45103 0.0
H7270 H 0.38101 0.60881 0.50548 0.0
H7271 H 0.36658 0.63874 0.50633 0.0
C7272 C 0.33024 0.14513 0.40906 0.0
C7273 C 0.34049 0.14714 0.40626 0.0
C7274 C 0.32212 0.1493 0.40339 0.0
C7275 C 0.32408 0.15559 0.3948 0.0
C7276 C 0.33432 0.15813 0.39242 0.0
C7277 C 0.34244 0.15394 0.39808 0.0
C7278 C 0.31556 0.15842 0.38773 0.0
C7279 C 0.30582 0.16109 0.39157 0.0
C7280 C 0.29732 0.16211 0.38494 0.0
C7281 C 0.29877 0.16081 0.37428 0.0
C7282 C 0.30853 0.15843 0.37029 0.0
C7283 C 0.31685 0.15726 0.37708 0.0
C7284 C 0.31 0.15609 0.35921 0.0
C7285 C 0.30315 0.14953 0.35401 0.0
C7286 C 0.31889 0.1595 0.35409 0.0
C7287 C 0.32125 0.15586 0.34427 0.0
C7288 C 0.31477 0.14876 0.33934 0.0
C7289 C 0.28681 0.16369 0.38923 0.0
C7290 C 0.28387 0.15876 0.3984 0.0
C7291 C 0.2795 0.16974 0.38401 0.0
C7292 C 0.26944 0.17058 0.38773 0.0
C7293 C 0.26646 0.16547 0.3968 0.0
C7294 C 0.27387 0.15971 0.40218 0.0
C7295 C 0.30551 0.14591 0.34415 0.0
H7296 H 0.32847 0.13983 0.41524 0.0
H7297 H 0.31434 0.14707 0.40536 0.0
H7298 H 0.33607 0.16309 0.38595 0.0
H7299 H 0.35026 0.15576 0.39585 0.0
H7300 H 0.30485 0.16216 0.39977 0.0
H7301 H 0.32422 0.15476 0.3741 0.0
H7302 H 0.29227 0.16133 0.36909 0.0
H7303 H 0.29628 0.14669 0.35778 0.0
H7304 H 0.32422 0.16469 0.35784 0.0
H7305 H 0.32835 0.15833 0.34067 0.0
H7306 H 0.2892 0.15391 0.40257 0.0
H7307 H 0.28152 0.17375 0.377 0.0
H7308 H 0.3004 0.14039 0.34056 0.0
H7309 H 0.27192 0.15581 0.40928 0.0
H7310 H 0.26393 0.17501 0.38333 0.0
C7311 C 0.83023 0.36422 0.6004 0.0
C7312 C 0.84049 0.36221 0.60319 0.0
C7313 C 0.82212 0.36004 0.60606 0.0
C7314 C 0.82408 0.35375 0.61464 0.0
C7315 C 0.83432 0.35121 0.61702 0.0
C7316 C 0.84244 0.35541 0.61137 0.0
C7317 C 0.81556 0.3509 0.62171 0.0
C7318 C 0.80583 0.34823 0.61787 0.0
C7319 C 0.79732 0.34719 0.6245 0.0
C7320 C 0.79877 0.34848 0.63516 0.0
C7321 C 0.80853 0.35087 0.63915 0.0
C7322 C 0.81685 0.35205 0.63236 0.0
C7323 C 0.81 0.3532 0.65024 0.0
C7324 C 0.80315 0.35975 0.65545 0.0
C7325 C 0.81889 0.34979 0.65535 0.0
C7326 C 0.82125 0.35342 0.66518 0.0
C7327 C 0.81476 0.3605 0.67011 0.0
C7328 C 0.78681 0.3456 0.62021 0.0
C7329 C 0.78387 0.35054 0.61104 0.0
C7330 C 0.77951 0.33955 0.62542 0.0
C7331 C 0.76945 0.3387 0.6217 0.0
C7332 C 0.76647 0.34381 0.61264 0.0
C7333 C 0.77387 0.34959 0.60727 0.0
C7334 C 0.8055 0.36335 0.66531 0.0
H7335 H 0.82846 0.36952 0.59422 0.0
H7336 H 0.81434 0.36227 0.60409 0.0
H7337 H 0.83607 0.34625 0.62349 0.0
H7338 H 0.85026 0.35359 0.61359 0.0
H7339 H 0.80485 0.34717 0.60966 0.0
H7340 H 0.82422 0.35456 0.63535 0.0
H7341 H 0.79227 0.34795 0.64035 0.0
H7342 H 0.79628 0.36258 0.65168 0.0
H7343 H 0.82423 0.34461 0.65159 0.0
H7344 H 0.82835 0.35095 0.66878 0.0
H7345 H 0.7892 0.3554 0.60687 0.0
H7346 H 0.78153 0.33553 0.63243 0.0
H7347 H 0.80038 0.36886 0.66891 0.0
H7348 H 0.77192 0.35349 0.60017 0.0
H7349 H 0.76394 0.33425 0.6261 0.0
C7350 C 0.36306 0.05972 0.34523 0.0
C7351 C 0.36689 0.06926 0.34189 0.0
C7352 C 0.36853 0.05385 0.35239 0.0
C7353 C 0.37793 0.05742 0.3564 0.0
C7354 C 0.38195 0.06676 0.35274 0.0
C7355 C 0.37651 0.07261 0.34554 0.0
C7356 C 0.38306 0.0518 0.36492 0.0
C7357 C 0.38365 0.04103 0.36483 0.0
C7358 C 0.38746 0.0356 0.37339 0.0
C7359 C 0.39089 0.04113 0.38203 0.0
C7360 C 0.39046 0.05192 0.38221 0.0
C7361 C 0.38661 0.05719 0.37359 0.0
C7362 C 0.39308 0.0577 0.39169 0.0
C7363 C 0.38928 0.05445 0.40128 0.0
C7364 C 0.39866 0.06694 0.39114 0.0
C7365 C 0.39995 0.07306 0.39988 0.0
C7366 C 0.39563 0.0701 0.40936 0.0
C7367 C 0.38732 0.02417 0.37352 0.0
C7368 C 0.37891 0.01878 0.36936 0.0
C7369 C 0.39542 0.01855 0.37797 0.0
C7370 C 0.39511 0.00781 0.37827 0.0
C7371 C 0.38669 1.00243 0.3741 0.0
C7372 C 0.37863 0.00806 0.36961 0.0
C7373 C 0.39053 0.06059 0.41001 0.0
H7374 H 0.35571 0.0569 0.3425 0.0
H7375 H 0.36518 0.04673 0.35512 0.0
H7376 H 0.38922 0.06967 0.35561 0.0
H7377 H 0.37962 0.07997 0.34318 0.0
H7378 H 0.38107 0.03686 0.35809 0.0
H7379 H 0.3858 0.06548 0.37388 0.0
H7380 H 0.39362 0.03703 0.38876 0.0
H7381 H 0.38485 0.04742 0.40193 0.0
H7382 H 0.4018 0.06956 0.38388 0.0
H7383 H 0.40408 0.08026 0.39915 0.0
H7384 H 0.37245 0.02285 0.36602 0.0
H7385 H 0.40205 0.02246 0.38116 0.0
H7386 H 0.38697 0.05813 0.41713 0.0
H7387 H 0.3721 1.00418 0.36617 0.0
H7388 H 0.40141 1.00372 0.38188 0.0
C7389 C 0.67854 0.64077 0.10109 0.0
C7390 C 0.66831 0.64312 0.10367 0.0
C7391 C 0.68667 0.64463 0.10695 0.0
C7392 C 0.68476 0.65095 0.11552 0.0
C7393 C 0.67455 0.65373 0.11778 0.0
C7394 C 0.66641 0.64985 0.11192 0.0
C7395 C 0.6933 0.65377 0.12259 0.0
C7396 C 0.70304 0.65634 0.11872 0.0
C7397 C 0.7115 0.65762 0.12535 0.0
C7398 C 0.71001 0.65664 0.13603 0.0
C7399 C 0.70025 0.65429 0.14005 0.0
C7400 C 0.69196 0.65288 0.13327 0.0
C7401 C 0.69876 0.65238 0.15122 0.0
C7402 C 0.70575 0.64624 0.15675 0.0
C7403 C 0.68984 0.65591 0.1562 0.0
C7404 C 0.68762 0.65283 0.16625 0.0
C7405 C 0.69429 0.64618 0.17156 0.0
C7406 C 0.72199 0.6593 0.12107 0.0
C7407 C 0.72511 0.65411 0.1121 0.0
C7408 C 0.72907 0.6658 0.12603 0.0
C7409 C 0.73906 0.66696 0.1222 0.0
C7410 C 0.74218 0.66169 0.11328 0.0
C7411 C 0.73504 0.65535 0.10822 0.0
C7412 C 0.70354 0.64317 0.16682 0.0
H7413 H 0.68026 0.6355 0.09487 0.0
H7414 H 0.69442 0.64221 0.10508 0.0
H7415 H 0.67284 0.65871 0.12423 0.0
H7416 H 0.65861 0.65192 0.114 0.0
H7417 H 0.70406 0.65721 0.11049 0.0
H7418 H 0.68457 0.65047 0.13628 0.0
H7419 H 0.71648 0.65741 0.14122 0.0
H7420 H 0.71264 0.64332 0.1531 0.0
H7421 H 0.6844 0.6608 0.15221 0.0
H7422 H 0.68052 0.65541 0.16977 0.0
H7423 H 0.71994 0.64891 0.10815 0.0
H7424 H 0.7269 0.67 0.13289 0.0
H7425 H 0.70878 0.63797 0.17068 0.0
H7426 H 0.73711 0.65129 0.10125 0.0
H7427 H 0.74438 0.67183 0.12636 0.0
C7428 C 0.60888 0.44632 0.40663 0.0
C7429 C 0.61514 0.43787 0.40907 0.0
C7430 C 0.61085 0.45216 0.39777 0.0
C7431 C 0.61922 0.44972 0.39131 0.0
C7432 C 0.62558 0.44139 0.394 0.0
C7433 C 0.62352 0.4355 0.40269 0.0
C7434 C 0.62157 0.45582 0.3819 0.0
C7435 C 0.62061 0.46659 0.38183 0.0
C7436 C 0.6239 0.47239 0.37329 0.0
C7437 C 0.62817 0.46727 0.36474 0.0
C7438 C 0.62933 0.45656 0.36478 0.0
C7439 C 0.62569 0.4509 0.3732 0.0
C7440 C 0.63537 0.45132 0.35666 0.0
C7441 C 0.63359 0.45316 0.34616 0.0
C7442 C 0.64318 0.44443 0.35954 0.0
C7443 C 0.64899 0.43937 0.35211 0.0
C7444 C 0.64714 0.44104 0.34159 0.0
C7445 C 0.62366 0.48381 0.37362 0.0
C7446 C 0.61525 0.48907 0.37793 0.0
C7447 C 0.63201 0.48955 0.36983 0.0
C7448 C 0.63192 0.50026 0.37024 0.0
C7449 C 0.62353 0.50554 0.37456 0.0
C7450 C 0.61518 0.49982 0.3784 0.0
C7451 C 0.63938 0.44799 0.33867 0.0
H7452 H 0.60241 0.44831 0.41149 0.0
H7453 H 0.60578 0.4585 0.39592 0.0
H7454 H 0.63231 0.43947 0.38949 0.0
H7455 H 0.62862 0.42918 0.40456 0.0
H7456 H 0.61785 0.47051 0.38864 0.0
H7457 H 0.62636 0.44259 0.37306 0.0
H7458 H 0.63097 0.47165 0.35822 0.0
H7459 H 0.62762 0.45846 0.34375 0.0
H7460 H 0.64484 0.44297 0.36758 0.0
H7461 H 0.65479 0.43394 0.35462 0.0
H7462 H 0.60867 0.48488 0.38088 0.0
H7463 H 0.6387 0.48576 0.36663 0.0
H7464 H 0.6378 0.44942 0.33061 0.0
H7465 H 0.60864 0.50363 0.38186 0.0
H7466 H 0.63841 0.50441 0.36707 0.0
C7467 C 0.17856 0.86848 0.90839 0.0
C7468 C 0.16833 0.86614 0.90581 0.0
C7469 C 0.18669 0.86462 0.90253 0.0
C7470 C 0.18478 0.85831 0.89396 0.0
C7471 C 0.17457 0.85552 0.89171 0.0
C7472 C 0.16643 0.85941 0.89757 0.0
C7473 C 0.19331 0.85549 0.88689 0.0
C7474 C 0.20306 0.85292 0.89076 0.0
C7475 C 0.21152 0.85163 0.88412 0.0
C7476 C 0.21002 0.85262 0.87344 0.0
C7477 C 0.20026 0.85496 0.86943 0.0
C7478 C 0.19197 0.85637 0.87621 0.0
C7479 C 0.19877 0.85688 0.85826 0.0
C7480 C 0.20576 0.86302 0.85273 0.0
C7481 C 0.18984 0.85335 0.85328 0.0
C7482 C 0.18762 0.85643 0.84323 0.0
C7483 C 0.19429 0.86309 0.83793 0.0
C7484 C 0.222 0.84996 0.88841 0.0
C7485 C 0.22512 0.85514 0.89737 0.0
C7486 C 0.22907 0.84345 0.88344 0.0
C7487 C 0.23906 0.84229 0.88727 0.0
C7488 C 0.2422 0.84756 0.89619 0.0
C7489 C 0.23506 0.85391 0.90125 0.0
C7490 C 0.20354 0.86609 0.84266 0.0
H7491 H 0.18029 0.87375 0.91461 0.0
H7492 H 0.19445 0.86704 0.9044 0.0
H7493 H 0.17286 0.85054 0.88525 0.0
H7494 H 0.15863 0.85733 0.89549 0.0
H7495 H 0.20408 0.85205 0.89898 0.0
H7496 H 0.18458 0.85878 0.8732 0.0
H7497 H 0.21649 0.85185 0.86825 0.0
H7498 H 0.21266 0.86594 0.85638 0.0
H7499 H 0.1844 0.84846 0.85727 0.0
H7500 H 0.18052 0.85385 0.83971 0.0
H7501 H 0.21996 0.86034 0.90133 0.0
H7502 H 0.22691 0.83926 0.87658 0.0
H7503 H 0.20879 0.87129 0.8388 0.0
H7504 H 0.23713 0.85796 0.90822 0.0
H7505 H 0.24438 0.83742 0.8831 0.0
C7506 C 0.36311 0.9495 0.16434 0.0
C7507 C 0.36692 0.93995 0.16767 0.0
C7508 C 0.36859 0.95537 0.15718 0.0
C7509 C 0.37797 0.95179 0.15317 0.0
C7510 C 0.38199 0.94245 0.15682 0.0
C7511 C 0.37654 0.9366 0.16401 0.0
C7512 C 0.38311 0.95742 0.14465 0.0
C7513 C 0.38371 0.9682 0.14475 0.0
C7514 C 0.38753 0.97364 0.13621 0.0
C7515 C 0.39094 0.96812 0.12756 0.0
C7516 C 0.39051 0.95733 0.12737 0.0
C7517 C 0.38665 0.95205 0.13597 0.0
C7518 C 0.39312 0.95156 0.11787 0.0
C7519 C 0.38932 0.95483 0.10829 0.0
C7520 C 0.39869 0.94231 0.11841 0.0
C7521 C 0.39998 0.93621 0.10965 0.0
C7522 C 0.39567 0.93919 0.10018 0.0
C7523 C 0.38738 0.98507 0.13609 0.0
C7524 C 0.37898 0.99045 0.14025 0.0
C7525 C 0.39549 0.99069 0.13164 0.0
C7526 C 0.39518 1.00143 0.13133 0.0
C7527 C 0.38676 0.00681 0.13551 0.0
C7528 C 0.3787 1.00118 0.14 0.0
C7529 C 0.39057 0.94871 0.09955 0.0
H7530 H 0.35577 0.95233 0.16708 0.0
H7531 H 0.36524 0.9625 0.15446 0.0
H7532 H 0.38925 0.93954 0.15393 0.0
H7533 H 0.37965 0.92924 0.16636 0.0
H7534 H 0.38114 0.97236 0.1515 0.0
H7535 H 0.38584 0.94376 0.13567 0.0
H7536 H 0.39368 0.97222 0.12083 0.0
H7537 H 0.3849 0.96186 0.10765 0.0
H7538 H 0.40183 0.93968 0.12567 0.0
H7539 H 0.40411 0.92901 0.11037 0.0
H7540 H 0.37252 0.98638 0.14359 0.0
H7541 H 0.40212 0.98679 0.12844 0.0
H7542 H 0.38701 0.95118 0.09243 0.0
H7543 H 0.37217 0.00505 0.14344 0.0
H7544 H 0.40148 0.00552 0.12773 0.0
C7545 C 0.10887 0.06292 0.60285 0.0
C7546 C 0.11513 0.07138 0.60041 0.0
C7547 C 0.11084 0.05708 0.61172 0.0
C7548 C 0.1192 0.05953 0.61817 0.0
C7549 C 0.12557 0.06786 0.61548 0.0
C7550 C 0.1235 0.07375 0.60679 0.0
C7551 C 0.12155 0.05343 0.62759 0.0
C7552 C 0.1206 0.04266 0.62766 0.0
C7553 C 0.12389 0.03686 0.6362 0.0
C7554 C 0.12816 0.04198 0.64474 0.0
C7555 C 0.12931 0.05269 0.64471 0.0
C7556 C 0.12567 0.05835 0.63629 0.0
C7557 C 0.13536 0.05794 0.65283 0.0
C7558 C 0.13358 0.05609 0.66333 0.0
C7559 C 0.14317 0.06483 0.64995 0.0
C7560 C 0.14897 0.0699 0.65738 0.0
C7561 C 0.14713 0.06822 0.6679 0.0
C7562 C 0.12366 0.02544 0.63586 0.0
C7563 C 0.11524 0.02018 0.63156 0.0
C7564 C 0.132 0.01971 0.63966 0.0
C7565 C 0.13192 0.00899 0.63925 0.0
C7566 C 0.12353 1.00371 0.63493 0.0
C7567 C 0.11518 0.00943 0.63109 0.0
C7568 C 0.13937 0.06127 0.67082 0.0
H7569 H 0.1024 0.06092 0.59799 0.0
H7570 H 0.10577 0.05074 0.61356 0.0
H7571 H 0.13229 0.06979 0.62 0.0
H7572 H 0.12861 0.08007 0.60493 0.0
H7573 H 0.11784 0.03874 0.62084 0.0
H7574 H 0.12634 0.06666 0.63643 0.0
H7575 H 0.13096 0.03761 0.65127 0.0
H7576 H 0.12761 0.05079 0.66574 0.0
H7577 H 0.14482 0.06629 0.64191 0.0
H7578 H 0.15478 0.07533 0.65487 0.0
H7579 H 0.10867 0.02436 0.62861 0.0
H7580 H 0.1387 0.0235 0.64286 0.0
H7581 H 0.13779 0.05984 0.67888 0.0
H7582 H 0.10863 0.00561 0.62763 0.0
H7583 H 0.13841 0.00485 0.64242 0.0
loop_
_geom_bond_atom_site_label_1
_geom_bond_atom_site_label_2
_geom_bond_distance
_geom_bond_site_symmetry_2
_ccdc_geom_bond_type
C0 C1 1.264 . S
C0 C5 1.479 . S
C0 C10 1.465 . S
C1 C0 1.264 . S
C1 C3 1.339 . S
C1 H28 0.931 . S
C2 C3 1.395 . S
C2 C4 1.320 . S
C3 C1 1.339 . S
C3 C2 1.395 . S
C3 H29 0.929 . S
C4 C2 1.320 . S
C4 C5 1.405 . S
C4 H30 0.930 . S
C5 C0 1.479 . S
C5 C4 1.405 . S
C5 H31 0.931 . S
U6 O7 2.454 . S
U6 O8 2.458 . S
U6 C9 2.984 . S
U6 C10 2.847 . S
U6 C23 2.882 . S
U6 O24 2.441 . S
U6 O25 2.420 . S
U6 O26 2.455 . S
U6 O27 2.449 . S
O7 U6 2.454 . S
O7 C9 1.353 . S
O8 U6 2.458 . S
O8 C9 1.286 . S
C9 U6 2.984 . S
C9 O7 1.353 . S
C9 O8 1.286 . S
C9 C11 1.363 . S
C10 C0 1.465 . S
C10 U6 2.847 . S
C10 O24 1.249 . S
C10 O25 1.202 . S
C11 C9 1.363 . S
C11 C13 1.408 . S
C11 C16 1.342 . S
C12 C13 1.310 . S
C12 C15 1.461 . S
C12 H32 0.932 . S
C13 C11 1.408 . S
C13 C12 1.310 . S
C13 H33 0.930 . S
C14 C15 1.474 . S
C14 C16 1.285 . S
C14 H34 0.929 . S
C15 C12 1.461 . S
C15 C14 1.474 . S
C16 C11 1.342 . S
C16 C14 1.285 . S
C16 H35 0.930 . S
C17 C20 1.424 . S
C17 C22 1.245 . S
C17 C23 1.428 . S
C18 C21 1.260 . S
C18 C22 1.477 . S
C18 H36 0.932 . S
C19 C20 1.384 . S
C19 C21 1.479 . S
C19 H37 0.929 . S
C20 C17 1.424 . S
C20 C19 1.384 . S
C20 H38 0.928 . S
C21 C18 1.260 . S
C21 C19 1.479 . S
C22 C17 1.245 . S
C22 C18 1.477 . S
C22 H39 0.932 . S
C23 U6 2.882 . S
C23 C17 1.428 . S
C23 O26 1.301 . S
C23 O27 1.282 . S
O24 U6 2.441 . S
O24 C10 1.249 . S
O25 U6 2.420 . S
O25 C10 1.202 . S
O26 U6 2.455 . S
O26 C23 1.301 . S
O27 U6 2.449 . S
O27 C23 1.282 . S
H28 C1 0.931 . S
H29 C3 0.929 . S
H30 C4 0.930 . S
H31 C5 0.931 . S
H32 C12 0.932 . S
H33 C13 0.930 . S
H34 C14 0.929 . S
H35 C16 0.930 . S
H36 C18 0.932 . S
H37 C19 0.929 . S
H38 C20 0.928 . S
H39 C22 0.932 . S
C40 C41 1.264 . S
C40 C45 1.479 . S
C40 C50 1.465 . S
C41 C40 1.264 . S
C41 C43 1.339 . S
C41 H68 0.931 . S
C42 C43 1.395 . S
C42 C44 1.320 . S
C43 C41 1.339 . S
C43 C42 1.395 . S
C43 H69 0.929 . S
C44 C42 1.320 . S
C44 C45 1.405 . S
C44 H70 0.930 . S
C45 C40 1.479 . S
C45 C44 1.405 . S
C45 H71 0.931 . S
U46 O47 2.454 . S
U46 O48 2.458 . S
U46 C49 2.984 . S
U46 C50 2.847 . S
U46 C63 2.882 . S
U46 O64 2.441 . S
U46 O65 2.420 . S
U46 O66 2.455 . S
U46 O67 2.449 . S
O47 U46 2.454 . S
O47 C49 1.353 . S
O48 U46 2.458 . S
O48 C49 1.286 . S
C49 U46 2.984 . S
C49 O47 1.353 . S
C49 O48 1.286 . S
C49 C51 1.363 . S
C50 C40 1.465 . S
C50 U46 2.847 . S
C50 O64 1.249 . S
C50 O65 1.202 . S
C51 C49 1.363 . S
C51 C53 1.408 . S
C51 C56 1.342 . S
C52 C53 1.310 . S
C52 C55 1.461 . S
C52 H72 0.932 . S
C53 C51 1.408 . S
C53 C52 1.310 . S
C53 H73 0.930 . S
C54 C55 1.474 . S
C54 C56 1.285 . S
C54 H74 0.929 . S
C55 C52 1.461 . S
C55 C54 1.474 . S
C56 C51 1.342 . S
C56 C54 1.285 . S
C56 H75 0.930 . S
C57 C60 1.424 . S
C57 C62 1.245 . S
C57 C63 1.428 . S
C58 C61 1.260 . S
C58 C62 1.477 . S
C58 H76 0.932 . S
C59 C60 1.384 . S
C59 C61 1.479 . S
C59 H77 0.929 . S
C60 C57 1.424 . S
C60 C59 1.384 . S
C60 H78 0.928 . S
C61 C58 1.260 . S
C61 C59 1.479 . S
C62 C57 1.245 . S
C62 C58 1.477 . S
C62 H79 0.932 . S
C63 U46 2.882 . S
C63 C57 1.428 . S
C63 O66 1.301 . S
C63 O67 1.282 . S
O64 U46 2.441 . S
O64 C50 1.249 . S
O65 U46 2.420 . S
O65 C50 1.202 . S
O66 U46 2.455 . S
O66 C63 1.301 . S
O67 U46 2.449 . S
O67 C63 1.282 . S
H68 C41 0.931 . S
H69 C43 0.929 . S
H70 C44 0.930 . S
H71 C45 0.931 . S
H72 C52 0.932 . S
H73 C53 0.930 . S
H74 C54 0.929 . S
H75 C56 0.930 . S
H76 C58 0.932 . S
H77 C59 0.929 . S
H78 C60 0.928 . S
H79 C62 0.932 . S
C80 C81 1.264 . S
C80 C85 1.479 . S
C80 C90 1.465 . S
C81 C80 1.264 . S
C81 C83 1.339 . S
C81 H108 0.931 . S
C82 C83 1.395 . S
C82 C84 1.320 . S
C83 C81 1.339 . S
C83 C82 1.395 . S
C83 H109 0.929 . S
C84 C82 1.320 . S
C84 C85 1.405 . S
C84 H110 0.930 . S
C85 C80 1.479 . S
C85 C84 1.405 . S
C85 H111 0.931 . S
U86 O87 2.454 . S
U86 O88 2.458 . S
U86 C89 2.984 . S
U86 C90 2.847 . S
U86 C103 2.882 . S
U86 O104 2.441 . S
U86 O105 2.420 . S
U86 O106 2.455 . S
U86 O107 2.449 . S
O87 U86 2.454 . S
O87 C89 1.353 . S
O88 U86 2.458 . S
O88 C89 1.286 . S
C89 U86 2.984 . S
C89 O87 1.353 . S
C89 O88 1.286 . S
C89 C91 1.363 . S
C90 C80 1.465 . S
C90 U86 2.847 . S
C90 O104 1.249 . S
C90 O105 1.202 . S
C91 C89 1.363 . S
C91 C93 1.408 . S
C91 C96 1.342 . S
C92 C93 1.310 . S
C92 C95 1.461 . S
C92 H112 0.932 . S
C93 C91 1.408 . S
C93 C92 1.310 . S
C93 H113 0.930 . S
C94 C95 1.474 . S
C94 C96 1.285 . S
C94 H114 0.929 . S
C95 C92 1.461 . S
C95 C94 1.474 . S
C96 C91 1.342 . S
C96 C94 1.285 . S
C96 H115 0.930 . S
C97 C100 1.424 . S
C97 C102 1.245 . S
C97 C103 1.428 . S
C98 C101 1.260 . S
C98 C102 1.477 . S
C98 H116 0.932 . S
C99 C100 1.384 . S
C99 C101 1.479 . S
C99 H117 0.929 . S
C100 C97 1.424 . S
C100 C99 1.384 . S
C100 H118 0.928 . S
C101 C98 1.260 . S
C101 C99 1.479 . S
C102 C97 1.245 . S
C102 C98 1.477 . S
C102 H119 0.932 . S
C103 U86 2.882 . S
C103 C97 1.428 . S
C103 O106 1.301 . S
C103 O107 1.282 . S
O104 U86 2.441 . S
O104 C90 1.249 . S
O105 U86 2.420 . S
O105 C90 1.202 . S
O106 U86 2.455 . S
O106 C103 1.301 . S
O107 U86 2.449 . S
O107 C103 1.282 . S
H108 C81 0.931 . S
H109 C83 0.929 . S
H110 C84 0.930 . S
H111 C85 0.931 . S
H112 C92 0.932 . S
H113 C93 0.930 . S
H114 C94 0.929 . S
H115 C96 0.930 . S
H116 C98 0.932 . S
H117 C99 0.929 . S
H118 C100 0.928 . S
H119 C102 0.932 . S
C120 C121 1.264 . S
C120 C125 1.479 . S
C120 C130 1.465 . S
C121 C120 1.264 . S
C121 C123 1.339 . S
C121 H148 0.931 . S
C122 C123 1.395 . S
C122 C124 1.320 . S
C123 C121 1.339 . S
C123 C122 1.395 . S
C123 H149 0.929 . S
C124 C122 1.320 . S
C124 C125 1.405 . S
C124 H150 0.930 . S
C125 C120 1.479 . S
C125 C124 1.405 . S
C125 H151 0.931 . S
U126 O127 2.454 . S
U126 O128 2.458 . S
U126 C129 2.984 . S
U126 C130 2.847 . S
U126 C143 2.882 . S
U126 O144 2.441 . S
U126 O145 2.420 . S
U126 O146 2.455 . S
U126 O147 2.449 . S
O127 U126 2.454 . S
O127 C129 1.353 . S
O128 U126 2.458 . S
O128 C129 1.286 . S
C129 U126 2.984 . S
C129 O127 1.353 . S
C129 O128 1.286 . S
C129 C131 1.363 . S
C130 C120 1.465 . S
C130 U126 2.847 . S
C130 O144 1.249 . S
C130 O145 1.202 . S
C131 C129 1.363 . S
C131 C133 1.408 . S
C131 C136 1.342 . S
C132 C133 1.310 . S
C132 C135 1.461 . S
C132 H152 0.932 . S
C133 C131 1.408 . S
C133 C132 1.310 . S
C133 H153 0.930 . S
C134 C135 1.474 . S
C134 C136 1.285 . S
C134 H154 0.929 . S
C135 C132 1.461 . S
C135 C134 1.474 . S
C136 C131 1.342 . S
C136 C134 1.285 . S
C136 H155 0.930 . S
C137 C140 1.424 . S
C137 C142 1.245 . S
C137 C143 1.428 . S
C138 C141 1.260 . S
C138 C142 1.477 . S
C138 H156 0.932 . S
C139 C140 1.384 . S
C139 C141 1.479 . S
C139 H157 0.929 . S
C140 C137 1.424 . S
C140 C139 1.384 . S
C140 H158 0.928 . S
C141 C138 1.260 . S
C141 C139 1.479 . S
C142 C137 1.245 . S
C142 C138 1.477 . S
C142 H159 0.932 . S
C143 U126 2.882 . S
C143 C137 1.428 . S
C143 O146 1.301 . S
C143 O147 1.282 . S
O144 U126 2.441 . S
O144 C130 1.249 . S
O145 U126 2.420 . S
O145 C130 1.202 . S
O146 U126 2.455 . S
O146 C143 1.301 . S
O147 U126 2.449 . S
O147 C143 1.282 . S
H148 C121 0.931 . S
H149 C123 0.929 . S
H150 C124 0.930 . S
H151 C125 0.931 . S
H152 C132 0.932 . S
H153 C133 0.930 . S
H154 C134 0.929 . S
H155 C136 0.930 . S
H156 C138 0.932 . S
H157 C139 0.929 . S
H158 C140 0.928 . S
H159 C142 0.932 . S
C160 C161 1.264 . S
C160 C165 1.479 . S
C160 C170 1.465 . S
C161 C160 1.264 . S
C161 C163 1.339 . S
C161 H188 0.931 . S
C162 C163 1.395 . S
C162 C164 1.320 . S
C163 C161 1.339 . S
C163 C162 1.395 . S
C163 H189 0.929 . S
C164 C162 1.320 . S
C164 C165 1.405 . S
C164 H190 0.930 . S
C165 C160 1.479 . S
C165 C164 1.405 . S
C165 H191 0.931 . S
U166 O167 2.454 . S
U166 O168 2.458 . S
U166 C169 2.984 . S
U166 C170 2.847 . S
U166 C183 2.882 . S
U166 O184 2.441 . S
U166 O185 2.420 . S
U166 O186 2.455 . S
U166 O187 2.449 . S
O167 U166 2.454 . S
O167 C169 1.353 . S
O168 U166 2.458 . S
O168 C169 1.286 . S
C169 U166 2.984 . S
C169 O167 1.353 . S
C169 O168 1.286 . S
C169 C171 1.363 . S
C170 C160 1.465 . S
C170 U166 2.847 . S
C170 O184 1.249 . S
C170 O185 1.202 . S
C171 C169 1.363 . S
C171 C173 1.408 . S
C171 C176 1.342 . S
C172 C173 1.310 . S
C172 C175 1.461 . S
C172 H192 0.932 . S
C173 C171 1.408 . S
C173 C172 1.310 . S
C173 H193 0.930 . S
C174 C175 1.474 . S
C174 C176 1.285 . S
C174 H194 0.929 . S
C175 C172 1.461 . S
C175 C174 1.474 . S
C176 C171 1.342 . S
C176 C174 1.285 . S
C176 H195 0.930 . S
C177 C180 1.424 . S
C177 C182 1.245 . S
C177 C183 1.428 . S
C178 C181 1.260 . S
C178 C182 1.477 . S
C178 H196 0.932 . S
C179 C180 1.384 . S
C179 C181 1.479 . S
C179 H197 0.929 . S
C180 C177 1.424 . S
C180 C179 1.384 . S
C180 H198 0.928 . S
C181 C178 1.260 . S
C181 C179 1.479 . S
C182 C177 1.245 . S
C182 C178 1.477 . S
C182 H199 0.932 . S
C183 U166 2.882 . S
C183 C177 1.428 . S
C183 O186 1.301 . S
C183 O187 1.282 . S
O184 U166 2.441 . S
O184 C170 1.249 . S
O185 U166 2.420 . S
O185 C170 1.202 . S
O186 U166 2.455 . S
O186 C183 1.301 . S
O187 U166 2.449 . S
O187 C183 1.282 . S
H188 C161 0.931 . S
H189 C163 0.929 . S
H190 C164 0.930 . S
H191 C165 0.931 . S
H192 C172 0.932 . S
H193 C173 0.930 . S
H194 C174 0.929 . S
H195 C176 0.930 . S
H196 C178 0.932 . S
H197 C179 0.929 . S
H198 C180 0.928 . S
H199 C182 0.932 . S
C200 C201 1.264 . S
C200 C205 1.479 . S
C200 C210 1.465 . S
C201 C200 1.264 . S
C201 C203 1.339 . S
C201 H228 0.931 . S
C202 C203 1.395 . S
C202 C204 1.320 . S
C203 C201 1.339 . S
C203 C202 1.395 . S
C203 H229 0.929 . S
C204 C202 1.320 . S
C204 C205 1.405 . S
C204 H230 0.930 . S
C205 C200 1.479 . S
C205 C204 1.405 . S
C205 H231 0.931 . S
U206 O207 2.454 . S
U206 O208 2.458 . S
U206 C209 2.984 . S
U206 C210 2.847 . S
U206 C223 2.882 . S
U206 O224 2.441 . S
U206 O225 2.420 . S
U206 O226 2.455 . S
U206 O227 2.449 . S
O207 U206 2.454 . S
O207 C209 1.353 . S
O208 U206 2.458 . S
O208 C209 1.286 . S
C209 U206 2.984 . S
C209 O207 1.353 . S
C209 O208 1.286 . S
C209 C211 1.363 . S
C210 C200 1.465 . S
C210 U206 2.847 . S
C210 O224 1.249 . S
C210 O225 1.202 . S
C211 C209 1.363 . S
C211 C213 1.408 . S
C211 C216 1.342 . S
C212 C213 1.310 . S
C212 C215 1.461 . S
C212 H232 0.932 . S
C213 C211 1.408 . S
C213 C212 1.310 . S
C213 H233 0.930 . S
C214 C215 1.474 . S
C214 C216 1.285 . S
C214 H234 0.929 . S
C215 C212 1.461 . S
C215 C214 1.474 . S
C216 C211 1.342 . S
C216 C214 1.285 . S
C216 H235 0.930 . S
C217 C220 1.424 . S
C217 C222 1.245 . S
C217 C223 1.428 . S
C218 C221 1.260 . S
C218 C222 1.477 . S
C218 H236 0.932 . S
C219 C220 1.384 . S
C219 C221 1.479 . S
C219 H237 0.929 . S
C220 C217 1.424 . S
C220 C219 1.384 . S
C220 H238 0.928 . S
C221 C218 1.260 . S
C221 C219 1.479 . S
C222 C217 1.245 . S
C222 C218 1.477 . S
C222 H239 0.932 . S
C223 U206 2.882 . S
C223 C217 1.428 . S
C223 O226 1.301 . S
C223 O227 1.282 . S
O224 U206 2.441 . S
O224 C210 1.249 . S
O225 U206 2.420 . S
O225 C210 1.202 . S
O226 U206 2.455 . S
O226 C223 1.301 . S
O227 U206 2.449 . S
O227 C223 1.282 . S
H228 C201 0.931 . S
H229 C203 0.929 . S
H230 C204 0.930 . S
H231 C205 0.931 . S
H232 C212 0.932 . S
H233 C213 0.930 . S
H234 C214 0.929 . S
H235 C216 0.930 . S
H236 C218 0.932 . S
H237 C219 0.929 . S
H238 C220 0.928 . S
H239 C222 0.932 . S
C240 C241 1.264 . S
C240 C245 1.479 . S
C240 C250 1.465 . S
C241 C240 1.264 . S
C241 C243 1.339 . S
C241 H268 0.931 . S
C242 C243 1.395 . S
C242 C244 1.320 . S
C243 C241 1.339 . S
C243 C242 1.395 . S
C243 H269 0.929 . S
C244 C242 1.320 . S
C244 C245 1.405 . S
C244 H270 0.930 . S
C245 C240 1.479 . S
C245 C244 1.405 . S
C245 H271 0.931 . S
U246 O247 2.454 . S
U246 O248 2.458 . S
U246 C249 2.984 . S
U246 C250 2.847 . S
U246 C263 2.882 . S
U246 O264 2.441 . S
U246 O265 2.420 . S
U246 O266 2.455 . S
U246 O267 2.449 . S
O247 U246 2.454 . S
O247 C249 1.353 . S
O248 U246 2.458 . S
O248 C249 1.286 . S
C249 U246 2.984 . S
C249 O247 1.353 . S
C249 O248 1.286 . S
C249 C251 1.363 . S
C250 C240 1.465 . S
C250 U246 2.847 . S
C250 O264 1.249 . S
C250 O265 1.202 . S
C251 C249 1.363 . S
C251 C253 1.408 . S
C251 C256 1.342 . S
C252 C253 1.310 . S
C252 C255 1.461 . S
C252 H272 0.932 . S
C253 C251 1.408 . S
C253 C252 1.310 . S
C253 H273 0.930 . S
C254 C255 1.474 . S
C254 C256 1.285 . S
C254 H274 0.929 . S
C255 C252 1.461 . S
C255 C254 1.474 . S
C256 C251 1.342 . S
C256 C254 1.285 . S
C256 H275 0.930 . S
C257 C260 1.424 . S
C257 C262 1.245 . S
C257 C263 1.428 . S
C258 C261 1.260 . S
C258 C262 1.477 . S
C258 H276 0.932 . S
C259 C260 1.384 . S
C259 C261 1.479 . S
C259 H277 0.929 . S
C260 C257 1.424 . S
C260 C259 1.384 . S
C260 H278 0.928 . S
C261 C258 1.260 . S
C261 C259 1.479 . S
C262 C257 1.245 . S
C262 C258 1.477 . S
C262 H279 0.932 . S
C263 U246 2.882 . S
C263 C257 1.428 . S
C263 O266 1.301 . S
C263 O267 1.282 . S
O264 U246 2.441 . S
O264 C250 1.249 . S
O265 U246 2.420 . S
O265 C250 1.202 . S
O266 U246 2.455 . S
O266 C263 1.301 . S
O267 U246 2.449 . S
O267 C263 1.282 . S
H268 C241 0.931 . S
H269 C243 0.929 . S
H270 C244 0.930 . S
H271 C245 0.931 . S
H272 C252 0.932 . S
H273 C253 0.930 . S
H274 C254 0.929 . S
H275 C256 0.930 . S
H276 C258 0.932 . S
H277 C259 0.929 . S
H278 C260 0.928 . S
H279 C262 0.932 . S
C280 C281 1.264 . S
C280 C285 1.479 . S
C280 C290 1.465 . S
C281 C280 1.264 . S
C281 C283 1.339 . S
C281 H308 0.931 . S
C282 C283 1.395 . S
C282 C284 1.320 . S
C283 C281 1.339 . S
C283 C282 1.395 . S
C283 H309 0.929 . S
C284 C282 1.320 . S
C284 C285 1.405 . S
C284 H310 0.930 . S
C285 C280 1.479 . S
C285 C284 1.405 . S
C285 H311 0.931 . S
U286 O287 2.454 . S
U286 O288 2.458 . S
U286 C289 2.984 . S
U286 C290 2.847 . S
U286 C303 2.882 . S
U286 O304 2.441 . S
U286 O305 2.420 . S
U286 O306 2.455 . S
U286 O307 2.449 . S
O287 U286 2.454 . S
O287 C289 1.353 . S
O288 U286 2.458 . S
O288 C289 1.286 . S
C289 U286 2.984 . S
C289 O287 1.353 . S
C289 O288 1.286 . S
C289 C291 1.363 . S
C290 C280 1.465 . S
C290 U286 2.847 . S
C290 O304 1.249 . S
C290 O305 1.202 . S
C291 C289 1.363 . S
C291 C293 1.408 . S
C291 C296 1.342 . S
C292 C293 1.310 . S
C292 C295 1.461 . S
C292 H312 0.932 . S
C293 C291 1.408 . S
C293 C292 1.310 . S
C293 H313 0.930 . S
C294 C295 1.474 . S
C294 C296 1.285 . S
C294 H314 0.929 . S
C295 C292 1.461 . S
C295 C294 1.474 . S
C296 C291 1.342 . S
C296 C294 1.285 . S
C296 H315 0.930 . S
C297 C300 1.424 . S
C297 C302 1.245 . S
C297 C303 1.428 . S
C298 C301 1.260 . S
C298 C302 1.477 . S
C298 H316 0.932 . S
C299 C300 1.384 . S
C299 C301 1.479 . S
C299 H317 0.929 . S
C300 C297 1.424 . S
C300 C299 1.384 . S
C300 H318 0.928 . S
C301 C298 1.260 . S
C301 C299 1.479 . S
C302 C297 1.245 . S
C302 C298 1.477 . S
C302 H319 0.932 . S
C303 U286 2.882 . S
C303 C297 1.428 . S
C303 O306 1.301 . S
C303 O307 1.282 . S
O304 U286 2.441 . S
O304 C290 1.249 . S
O305 U286 2.420 . S
O305 C290 1.202 . S
O306 U286 2.455 . S
O306 C303 1.301 . S
O307 U286 2.449 . S
O307 C303 1.282 . S
H308 C281 0.931 . S
H309 C283 0.929 . S
H310 C284 0.930 . S
H311 C285 0.931 . S
H312 C292 0.932 . S
H313 C293 0.930 . S
H314 C294 0.929 . S
H315 C296 0.930 . S
H316 C298 0.932 . S
H317 C299 0.929 . S
H318 C300 0.928 . S
H319 C302 0.932 . S
C320 C321 1.264 . S
C320 C325 1.479 . S
C320 C330 1.465 . S
C321 C320 1.264 . S
C321 C323 1.339 . S
C321 H348 0.931 . S
C322 C323 1.395 . S
C322 C324 1.320 . S
C323 C321 1.339 . S
C323 C322 1.395 . S
C323 H349 0.929 . S
C324 C322 1.320 . S
C324 C325 1.405 . S
C324 H350 0.930 . S
C325 C320 1.479 . S
C325 C324 1.405 . S
C325 H351 0.931 . S
U326 O327 2.454 . S
U326 O328 2.458 . S
U326 C329 2.984 . S
U326 C330 2.847 . S
U326 C343 2.882 . S
U326 O344 2.441 . S
U326 O345 2.420 . S
U326 O346 2.455 . S
U326 O347 2.449 . S
O327 U326 2.454 . S
O327 C329 1.353 . S
O328 U326 2.458 . S
O328 C329 1.286 . S
C329 U326 2.984 . S
C329 O327 1.353 . S
C329 O328 1.286 . S
C329 C331 1.363 . S
C330 C320 1.465 . S
C330 U326 2.847 . S
C330 O344 1.249 . S
C330 O345 1.202 . S
C331 C329 1.363 . S
C331 C333 1.408 . S
C331 C336 1.342 . S
C332 C333 1.310 . S
C332 C335 1.461 . S
C332 H352 0.932 . S
C333 C331 1.408 . S
C333 C332 1.310 . S
C333 H353 0.930 . S
C334 C335 1.474 . S
C334 C336 1.285 . S
C334 H354 0.929 . S
C335 C332 1.461 . S
C335 C334 1.474 . S
C336 C331 1.342 . S
C336 C334 1.285 . S
C336 H355 0.930 . S
C337 C340 1.424 . S
C337 C342 1.245 . S
C337 C343 1.428 . S
C338 C341 1.260 . S
C338 C342 1.477 . S
C338 H356 0.932 . S
C339 C340 1.384 . S
C339 C341 1.479 . S
C339 H357 0.929 . S
C340 C337 1.424 . S
C340 C339 1.384 . S
C340 H358 0.928 . S
C341 C338 1.260 . S
C341 C339 1.479 . S
C342 C337 1.245 . S
C342 C338 1.477 . S
C342 H359 0.932 . S
C343 U326 2.882 . S
C343 C337 1.428 . S
C343 O346 1.301 . S
C343 O347 1.282 . S
O344 U326 2.441 . S
O344 C330 1.249 . S
O345 U326 2.420 . S
O345 C330 1.202 . S
O346 U326 2.455 . S
O346 C343 1.301 . S
O347 U326 2.449 . S
O347 C343 1.282 . S
H348 C321 0.931 . S
H349 C323 0.929 . S
H350 C324 0.930 . S
H351 C325 0.931 . S
H352 C332 0.932 . S
H353 C333 0.930 . S
H354 C334 0.929 . S
H355 C336 0.930 . S
H356 C338 0.932 . S
H357 C339 0.929 . S
H358 C340 0.928 . S
H359 C342 0.932 . S
C360 C361 1.264 . S
C360 C365 1.479 . S
C360 C370 1.465 . S
C361 C360 1.264 . S
C361 C363 1.339 . S
C361 H388 0.931 . S
C362 C363 1.395 . S
C362 C364 1.320 . S
C363 C361 1.339 . S
C363 C362 1.395 . S
C363 H389 0.929 . S
C364 C362 1.320 . S
C364 C365 1.405 . S
C364 H390 0.930 . S
C365 C360 1.479 . S
C365 C364 1.405 . S
C365 H391 0.931 . S
U366 O367 2.454 . S
U366 O368 2.458 . S
U366 C369 2.984 . S
U366 C370 2.847 . S
U366 C383 2.882 . S
U366 O384 2.441 . S
U366 O385 2.420 . S
U366 O386 2.455 . S
U366 O387 2.449 . S
O367 U366 2.454 . S
O367 C369 1.353 . S
O368 U366 2.458 . S
O368 C369 1.286 . S
C369 U366 2.984 . S
C369 O367 1.353 . S
C369 O368 1.286 . S
C369 C371 1.363 . S
C370 C360 1.465 . S
C370 U366 2.847 . S
C370 O384 1.249 . S
C370 O385 1.202 . S
C371 C369 1.363 . S
C371 C373 1.408 . S
C371 C376 1.342 . S
C372 C373 1.310 . S
C372 C375 1.461 . S
C372 H392 0.932 . S
C373 C371 1.408 . S
C373 C372 1.310 . S
C373 H393 0.930 . S
C374 C375 1.474 . S
C374 C376 1.285 . S
C374 H394 0.929 . S
C375 C372 1.461 . S
C375 C374 1.474 . S
C376 C371 1.342 . S
C376 C374 1.285 . S
C376 H395 0.930 . S
C377 C380 1.424 . S
C377 C382 1.245 . S
C377 C383 1.428 . S
C378 C381 1.260 . S
C378 C382 1.477 . S
C378 H396 0.932 . S
C379 C380 1.384 . S
C379 C381 1.479 . S
C379 H397 0.929 . S
C380 C377 1.424 . S
C380 C379 1.384 . S
C380 H398 0.928 . S
C381 C378 1.260 . S
C381 C379 1.479 . S
C382 C377 1.245 . S
C382 C378 1.477 . S
C382 H399 0.932 . S
C383 U366 2.882 . S
C383 C377 1.428 . S
C383 O386 1.301 . S
C383 O387 1.282 . S
O384 U366 2.441 . S
O384 C370 1.249 . S
O385 U366 2.420 . S
O385 C370 1.202 . S
O386 U366 2.455 . S
O386 C383 1.301 . S
O387 U366 2.449 . S
O387 C383 1.282 . S
H388 C361 0.931 . S
H389 C363 0.929 . S
H390 C364 0.930 . S
H391 C365 0.931 . S
H392 C372 0.932 . S
H393 C373 0.930 . S
H394 C374 0.929 . S
H395 C376 0.930 . S
H396 C378 0.932 . S
H397 C379 0.929 . S
H398 C380 0.928 . S
H399 C382 0.932 . S
C400 C401 1.264 . S
C400 C405 1.479 . S
C400 C410 1.465 . S
C401 C400 1.264 . S
C401 C403 1.339 . S
C401 H428 0.931 . S
C402 C403 1.395 . S
C402 C404 1.320 . S
C403 C401 1.339 . S
C403 C402 1.395 . S
C403 H429 0.929 . S
C404 C402 1.320 . S
C404 C405 1.405 . S
C404 H430 0.930 . S
C405 C400 1.479 . S
C405 C404 1.405 . S
C405 H431 0.931 . S
U406 O407 2.454 . S
U406 O408 2.458 . S
U406 C409 2.984 . S
U406 C410 2.847 . S
U406 C423 2.882 . S
U406 O424 2.441 . S
U406 O425 2.420 . S
U406 O426 2.455 . S
U406 O427 2.449 . S
O407 U406 2.454 . S
O407 C409 1.353 . S
O408 U406 2.458 . S
O408 C409 1.286 . S
C409 U406 2.984 . S
C409 O407 1.353 . S
C409 O408 1.286 . S
C409 C411 1.363 . S
C410 C400 1.465 . S
C410 U406 2.847 . S
C410 O424 1.249 . S
C410 O425 1.202 . S
C411 C409 1.363 . S
C411 C413 1.408 . S
C411 C416 1.342 . S
C412 C413 1.310 . S
C412 C415 1.461 . S
C412 H432 0.932 . S
C413 C411 1.408 . S
C413 C412 1.310 . S
C413 H433 0.930 . S
C414 C415 1.474 . S
C414 C416 1.285 . S
C414 H434 0.929 . S
C415 C412 1.461 . S
C415 C414 1.474 . S
C416 C411 1.342 . S
C416 C414 1.285 . S
C416 H435 0.930 . S
C417 C420 1.424 . S
C417 C422 1.245 . S
C417 C423 1.428 . S
C418 C421 1.260 . S
C418 C422 1.477 . S
C418 H436 0.932 . S
C419 C420 1.384 . S
C419 C421 1.479 . S
C419 H437 0.929 . S
C420 C417 1.424 . S
C420 C419 1.384 . S
C420 H438 0.928 . S
C421 C418 1.260 . S
C421 C419 1.479 . S
C422 C417 1.245 . S
C422 C418 1.477 . S
C422 H439 0.932 . S
C423 U406 2.882 . S
C423 C417 1.428 . S
C423 O426 1.301 . S
C423 O427 1.282 . S
O424 U406 2.441 . S
O424 C410 1.249 . S
O425 U406 2.420 . S
O425 C410 1.202 . S
O426 U406 2.455 . S
O426 C423 1.301 . S
O427 U406 2.449 . S
O427 C423 1.282 . S
H428 C401 0.931 . S
H429 C403 0.929 . S
H430 C404 0.930 . S
H431 C405 0.931 . S
H432 C412 0.932 . S
H433 C413 0.930 . S
H434 C414 0.929 . S
H435 C416 0.930 . S
H436 C418 0.932 . S
H437 C419 0.929 . S
H438 C420 0.928 . S
H439 C422 0.932 . S
C440 C441 1.264 . S
C440 C445 1.479 . S
C440 C450 1.465 . S
C441 C440 1.264 . S
C441 C443 1.339 . S
C441 H468 0.931 . S
C442 C443 1.395 . S
C442 C444 1.320 . S
C443 C441 1.339 . S
C443 C442 1.395 . S
C443 H469 0.929 . S
C444 C442 1.320 . S
C444 C445 1.405 . S
C444 H470 0.930 . S
C445 C440 1.479 . S
C445 C444 1.405 . S
C445 H471 0.931 . S
U446 O447 2.454 . S
U446 O448 2.458 . S
U446 C449 2.984 . S
U446 C450 2.847 . S
U446 C463 2.882 . S
U446 O464 2.441 . S
U446 O465 2.420 . S
U446 O466 2.455 . S
U446 O467 2.449 . S
O447 U446 2.454 . S
O447 C449 1.353 . S
O448 U446 2.458 . S
O448 C449 1.286 . S
C449 U446 2.984 . S
C449 O447 1.353 . S
C449 O448 1.286 . S
C449 C451 1.363 . S
C450 C440 1.465 . S
C450 U446 2.847 . S
C450 O464 1.249 . S
C450 O465 1.202 . S
C451 C449 1.363 . S
C451 C453 1.408 . S
C451 C456 1.342 . S
C452 C453 1.310 . S
C452 C455 1.461 . S
C452 H472 0.932 . S
C453 C451 1.408 . S
C453 C452 1.310 . S
C453 H473 0.930 . S
C454 C455 1.474 . S
C454 C456 1.285 . S
C454 H474 0.929 . S
C455 C452 1.461 . S
C455 C454 1.474 . S
C456 C451 1.342 . S
C456 C454 1.285 . S
C456 H475 0.930 . S
C457 C460 1.424 . S
C457 C462 1.245 . S
C457 C463 1.428 . S
C458 C461 1.260 . S
C458 C462 1.477 . S
C458 H476 0.932 . S
C459 C460 1.384 . S
C459 C461 1.479 . S
C459 H477 0.929 . S
C460 C457 1.424 . S
C460 C459 1.384 . S
C460 H478 0.928 . S
C461 C458 1.260 . S
C461 C459 1.479 . S
C462 C457 1.245 . S
C462 C458 1.477 . S
C462 H479 0.932 . S
C463 U446 2.882 . S
C463 C457 1.428 . S
C463 O466 1.301 . S
C463 O467 1.282 . S
O464 U446 2.441 . S
O464 C450 1.249 . S
O465 U446 2.420 . S
O465 C450 1.202 . S
O466 U446 2.455 . S
O466 C463 1.301 . S
O467 U446 2.449 . S
O467 C463 1.282 . S
H468 C441 0.931 . S
H469 C443 0.929 . S
H470 C444 0.930 . S
H471 C445 0.931 . S
H472 C452 0.932 . S
H473 C453 0.930 . S
H474 C454 0.929 . S
H475 C456 0.930 . S
H476 C458 0.932 . S
H477 C459 0.929 . S
H478 C460 0.928 . S
H479 C462 0.932 . S
C480 C481 1.264 . S
C480 C485 1.479 . S
C480 C490 1.465 . S
C481 C480 1.264 . S
C481 C483 1.339 . S
C481 H508 0.931 . S
C482 C483 1.395 . S
C482 C484 1.320 . S
C483 C481 1.339 . S
C483 C482 1.395 . S
C483 H509 0.929 . S
C484 C482 1.320 . S
C484 C485 1.405 . S
C484 H510 0.930 . S
C485 C480 1.479 . S
C485 C484 1.405 . S
C485 H511 0.931 . S
U486 O487 2.454 . S
U486 O488 2.458 . S
U486 C489 2.984 . S
U486 C490 2.847 . S
U486 C503 2.882 . S
U486 O504 2.441 . S
U486 O505 2.420 . S
U486 O506 2.455 . S
U486 O507 2.449 . S
O487 U486 2.454 . S
O487 C489 1.353 . S
O488 U486 2.458 . S
O488 C489 1.286 . S
C489 U486 2.984 . S
C489 O487 1.353 . S
C489 O488 1.286 . S
C489 C491 1.363 . S
C490 C480 1.465 . S
C490 U486 2.847 . S
C490 O504 1.249 . S
C490 O505 1.202 . S
C491 C489 1.363 . S
C491 C493 1.408 . S
C491 C496 1.342 . S
C492 C493 1.310 . S
C492 C495 1.461 . S
C492 H512 0.932 . S
C493 C491 1.408 . S
C493 C492 1.310 . S
C493 H513 0.930 . S
C494 C495 1.474 . S
C494 C496 1.285 . S
C494 H514 0.929 . S
C495 C492 1.461 . S
C495 C494 1.474 . S
C496 C491 1.342 . S
C496 C494 1.285 . S
C496 H515 0.930 . S
C497 C500 1.424 . S
C497 C502 1.245 . S
C497 C503 1.428 . S
C498 C501 1.260 . S
C498 C502 1.477 . S
C498 H516 0.932 . S
C499 C500 1.384 . S
C499 C501 1.479 . S
C499 H517 0.929 . S
C500 C497 1.424 . S
C500 C499 1.384 . S
C500 H518 0.928 . S
C501 C498 1.260 . S
C501 C499 1.479 . S
C502 C497 1.245 . S
C502 C498 1.477 . S
C502 H519 0.932 . S
C503 U486 2.882 . S
C503 C497 1.428 . S
C503 O506 1.301 . S
C503 O507 1.282 . S
O504 U486 2.441 . S
O504 C490 1.249 . S
O505 U486 2.420 . S
O505 C490 1.202 . S
O506 U486 2.455 . S
O506 C503 1.301 . S
O507 U486 2.449 . S
O507 C503 1.282 . S
H508 C481 0.931 . S
H509 C483 0.929 . S
H510 C484 0.930 . S
H511 C485 0.931 . S
H512 C492 0.932 . S
H513 C493 0.930 . S
H514 C494 0.929 . S
H515 C496 0.930 . S
H516 C498 0.932 . S
H517 C499 0.929 . S
H518 C500 0.928 . S
H519 C502 0.932 . S
C520 C521 1.264 . S
C520 C525 1.479 . S
C520 C530 1.465 . S
C521 C520 1.264 . S
C521 C523 1.339 . S
C521 H548 0.931 . S
C522 C523 1.395 . S
C522 C524 1.320 . S
C523 C521 1.339 . S
C523 C522 1.395 . S
C523 H549 0.929 . S
C524 C522 1.320 . S
C524 C525 1.405 . S
C524 H550 0.930 . S
C525 C520 1.479 . S
C525 C524 1.405 . S
C525 H551 0.931 . S
U526 O527 2.454 . S
U526 O528 2.458 . S
U526 C529 2.984 . S
U526 C530 2.847 . S
U526 C543 2.882 . S
U526 O544 2.441 . S
U526 O545 2.420 . S
U526 O546 2.455 . S
U526 O547 2.449 . S
O527 U526 2.454 . S
O527 C529 1.353 . S
O528 U526 2.458 . S
O528 C529 1.286 . S
C529 U526 2.984 . S
C529 O527 1.353 . S
C529 O528 1.286 . S
C529 C531 1.363 . S
C530 C520 1.465 . S
C530 U526 2.847 . S
C530 O544 1.249 . S
C530 O545 1.202 . S
C531 C529 1.363 . S
C531 C533 1.408 . S
C531 C536 1.342 . S
C532 C533 1.310 . S
C532 C535 1.461 . S
C532 H552 0.932 . S
C533 C531 1.408 . S
C533 C532 1.310 . S
C533 H553 0.930 . S
C534 C535 1.474 . S
C534 C536 1.285 . S
C534 H554 0.929 . S
C535 C532 1.461 . S
C535 C534 1.474 . S
C536 C531 1.342 . S
C536 C534 1.285 . S
C536 H555 0.930 . S
C537 C540 1.424 . S
C537 C542 1.245 . S
C537 C543 1.428 . S
C538 C541 1.260 . S
C538 C542 1.477 . S
C538 H556 0.932 . S
C539 C540 1.384 . S
C539 C541 1.479 . S
C539 H557 0.929 . S
C540 C537 1.424 . S
C540 C539 1.384 . S
C540 H558 0.928 . S
C541 C538 1.260 . S
C541 C539 1.479 . S
C542 C537 1.245 . S
C542 C538 1.477 . S
C542 H559 0.932 . S
C543 U526 2.882 . S
C543 C537 1.428 . S
C543 O546 1.301 . S
C543 O547 1.282 . S
O544 U526 2.441 . S
O544 C530 1.249 . S
O545 U526 2.420 . S
O545 C530 1.202 . S
O546 U526 2.455 . S
O546 C543 1.301 . S
O547 U526 2.449 . S
O547 C543 1.282 . S
H548 C521 0.931 . S
H549 C523 0.929 . S
H550 C524 0.930 . S
H551 C525 0.931 . S
H552 C532 0.932 . S
H553 C533 0.930 . S
H554 C534 0.929 . S
H555 C536 0.930 . S
H556 C538 0.932 . S
H557 C539 0.929 . S
H558 C540 0.928 . S
H559 C542 0.932 . S
C560 C561 1.264 . S
C560 C565 1.479 . S
C560 C570 1.465 . S
C561 C560 1.264 . S
C561 C563 1.339 . S
C561 H588 0.931 . S
C562 C563 1.395 . S
C562 C564 1.320 . S
C563 C561 1.339 . S
C563 C562 1.395 . S
C563 H589 0.929 . S
C564 C562 1.320 . S
C564 C565 1.405 . S
C564 H590 0.930 . S
C565 C560 1.479 . S
C565 C564 1.405 . S
C565 H591 0.931 . S
U566 O567 2.454 . S
U566 O568 2.458 . S
U566 C569 2.984 . S
U566 C570 2.847 . S
U566 C583 2.882 . S
U566 O584 2.441 . S
U566 O585 2.420 . S
U566 O586 2.455 . S
U566 O587 2.449 . S
O567 U566 2.454 . S
O567 C569 1.353 . S
O568 U566 2.458 . S
O568 C569 1.286 . S
C569 U566 2.984 . S
C569 O567 1.353 . S
C569 O568 1.286 . S
C569 C571 1.363 . S
C570 C560 1.465 . S
C570 U566 2.847 . S
C570 O584 1.249 . S
C570 O585 1.202 . S
C571 C569 1.363 . S
C571 C573 1.408 . S
C571 C576 1.342 . S
C572 C573 1.310 . S
C572 C575 1.461 . S
C572 H592 0.932 . S
C573 C571 1.408 . S
C573 C572 1.310 . S
C573 H593 0.930 . S
C574 C575 1.474 . S
C574 C576 1.285 . S
C574 H594 0.929 . S
C575 C572 1.461 . S
C575 C574 1.474 . S
C576 C571 1.342 . S
C576 C574 1.285 . S
C576 H595 0.930 . S
C577 C580 1.424 . S
C577 C582 1.245 . S
C577 C583 1.428 . S
C578 C581 1.260 . S
C578 C582 1.477 . S
C578 H596 0.932 . S
C579 C580 1.384 . S
C579 C581 1.479 . S
C579 H597 0.929 . S
C580 C577 1.424 . S
C580 C579 1.384 . S
C580 H598 0.928 . S
C581 C578 1.260 . S
C581 C579 1.479 . S
C582 C577 1.245 . S
C582 C578 1.477 . S
C582 H599 0.932 . S
C583 U566 2.882 . S
C583 C577 1.428 . S
C583 O586 1.301 . S
C583 O587 1.282 . S
O584 U566 2.441 . S
O584 C570 1.249 . S
O585 U566 2.420 . S
O585 C570 1.202 . S
O586 U566 2.455 . S
O586 C583 1.301 . S
O587 U566 2.449 . S
O587 C583 1.282 . S
H588 C561 0.931 . S
H589 C563 0.929 . S
H590 C564 0.930 . S
H591 C565 0.931 . S
H592 C572 0.932 . S
H593 C573 0.930 . S
H594 C574 0.929 . S
H595 C576 0.930 . S
H596 C578 0.932 . S
H597 C579 0.929 . S
H598 C580 0.928 . S
H599 C582 0.932 . S
C600 C601 1.264 . S
C600 C605 1.479 . S
C600 C610 1.465 . S
C601 C600 1.264 . S
C601 C603 1.339 . S
C601 H628 0.931 . S
C602 C603 1.395 . S
C602 C604 1.320 . S
C603 C601 1.339 . S
C603 C602 1.395 . S
C603 H629 0.929 . S
C604 C602 1.320 . S
C604 C605 1.405 . S
C604 H630 0.930 . S
C605 C600 1.479 . S
C605 C604 1.405 . S
C605 H631 0.931 . S
U606 O607 2.454 . S
U606 O608 2.458 . S
U606 C609 2.984 . S
U606 C610 2.847 . S
U606 C623 2.882 . S
U606 O624 2.441 . S
U606 O625 2.420 . S
U606 O626 2.455 . S
U606 O627 2.449 . S
O607 U606 2.454 . S
O607 C609 1.353 . S
O608 U606 2.458 . S
O608 C609 1.286 . S
C609 U606 2.984 . S
C609 O607 1.353 . S
C609 O608 1.286 . S
C609 C611 1.363 . S
C610 C600 1.465 . S
C610 U606 2.847 . S
C610 O624 1.249 . S
C610 O625 1.202 . S
C611 C609 1.363 . S
C611 C613 1.408 . S
C611 C616 1.342 . S
C612 C613 1.310 . S
C612 C615 1.461 . S
C612 H632 0.932 . S
C613 C611 1.408 . S
C613 C612 1.310 . S
C613 H633 0.930 . S
C614 C615 1.474 . S
C614 C616 1.285 . S
C614 H634 0.929 . S
C615 C612 1.461 . S
C615 C614 1.474 . S
C616 C611 1.342 . S
C616 C614 1.285 . S
C616 H635 0.930 . S
C617 C620 1.424 . S
C617 C622 1.245 . S
C617 C623 1.428 . S
C618 C621 1.260 . S
C618 C622 1.477 . S
C618 H636 0.932 . S
C619 C620 1.384 . S
C619 C621 1.479 . S
C619 H637 0.929 . S
C620 C617 1.424 . S
C620 C619 1.384 . S
C620 H638 0.928 . S
C621 C618 1.260 . S
C621 C619 1.479 . S
C622 C617 1.245 . S
C622 C618 1.477 . S
C622 H639 0.932 . S
C623 U606 2.882 . S
C623 C617 1.428 . S
C623 O626 1.301 . S
C623 O627 1.282 . S
O624 U606 2.441 . S
O624 C610 1.249 . S
O625 U606 2.420 . S
O625 C610 1.202 . S
O626 U606 2.455 . S
O626 C623 1.301 . S
O627 U606 2.449 . S
O627 C623 1.282 . S
H628 C601 0.931 . S
H629 C603 0.929 . S
H630 C604 0.930 . S
H631 C605 0.931 . S
H632 C612 0.932 . S
H633 C613 0.930 . S
H634 C614 0.929 . S
H635 C616 0.930 . S
H636 C618 0.932 . S
H637 C619 0.929 . S
H638 C620 0.928 . S
H639 C622 0.932 . S
C640 C641 1.264 . S
C640 C645 1.479 . S
C640 C650 1.465 . S
C641 C640 1.264 . S
C641 C643 1.339 . S
C641 H668 0.931 . S
C642 C643 1.395 . S
C642 C644 1.320 . S
C643 C641 1.339 . S
C643 C642 1.395 . S
C643 H669 0.929 . S
C644 C642 1.320 . S
C644 C645 1.405 . S
C644 H670 0.930 . S
C645 C640 1.479 . S
C645 C644 1.405 . S
C645 H671 0.931 . S
U646 O647 2.454 . S
U646 O648 2.458 . S
U646 C649 2.984 . S
U646 C650 2.847 . S
U646 C663 2.882 . S
U646 O664 2.441 . S
U646 O665 2.420 . S
U646 O666 2.455 . S
U646 O667 2.449 . S
O647 U646 2.454 . S
O647 C649 1.353 . S
O648 U646 2.458 . S
O648 C649 1.286 . S
C649 U646 2.984 . S
C649 O647 1.353 . S
C649 O648 1.286 . S
C649 C651 1.363 . S
C650 C640 1.465 . S
C650 U646 2.847 . S
C650 O664 1.249 . S
C650 O665 1.202 . S
C651 C649 1.363 . S
C651 C653 1.408 . S
C651 C656 1.342 . S
C652 C653 1.310 . S
C652 C655 1.461 . S
C652 H672 0.932 . S
C653 C651 1.408 . S
C653 C652 1.310 . S
C653 H673 0.930 . S
C654 C655 1.474 . S
C654 C656 1.285 . S
C654 H674 0.929 . S
C655 C652 1.461 . S
C655 C654 1.474 . S
C656 C651 1.342 . S
C656 C654 1.285 . S
C656 H675 0.930 . S
C657 C660 1.424 . S
C657 C662 1.245 . S
C657 C663 1.428 . S
C658 C661 1.260 . S
C658 C662 1.477 . S
C658 H676 0.932 . S
C659 C660 1.384 . S
C659 C661 1.479 . S
C659 H677 0.929 . S
C660 C657 1.424 . S
C660 C659 1.384 . S
C660 H678 0.928 . S
C661 C658 1.260 . S
C661 C659 1.479 . S
C662 C657 1.245 . S
C662 C658 1.477 . S
C662 H679 0.932 . S
C663 U646 2.882 . S
C663 C657 1.428 . S
C663 O666 1.301 . S
C663 O667 1.282 . S
O664 U646 2.441 . S
O664 C650 1.249 . S
O665 U646 2.420 . S
O665 C650 1.202 . S
O666 U646 2.455 . S
O666 C663 1.301 . S
O667 U646 2.449 . S
O667 C663 1.282 . S
H668 C641 0.931 . S
H669 C643 0.929 . S
H670 C644 0.930 . S
H671 C645 0.931 . S
H672 C652 0.932 . S
H673 C653 0.930 . S
H674 C654 0.929 . S
H675 C656 0.930 . S
H676 C658 0.932 . S
H677 C659 0.929 . S
H678 C660 0.928 . S
H679 C662 0.932 . S
C680 C681 1.264 . S
C680 C685 1.479 . S
C680 C690 1.465 . S
C681 C680 1.264 . S
C681 C683 1.339 . S
C681 H708 0.931 . S
C682 C683 1.395 . S
C682 C684 1.320 . S
C683 C681 1.339 . S
C683 C682 1.395 . S
C683 H709 0.929 . S
C684 C682 1.320 . S
C684 C685 1.405 . S
C684 H710 0.930 . S
C685 C680 1.479 . S
C685 C684 1.405 . S
C685 H711 0.931 . S
U686 O687 2.454 . S
U686 O688 2.458 . S
U686 C689 2.984 . S
U686 C690 2.847 . S
U686 C703 2.882 . S
U686 O704 2.441 . S
U686 O705 2.420 . S
U686 O706 2.455 . S
U686 O707 2.449 . S
O687 U686 2.454 . S
O687 C689 1.353 . S
O688 U686 2.458 . S
O688 C689 1.286 . S
C689 U686 2.984 . S
C689 O687 1.353 . S
C689 O688 1.286 . S
C689 C691 1.363 . S
C690 C680 1.465 . S
C690 U686 2.847 . S
C690 O704 1.249 . S
C690 O705 1.202 . S
C691 C689 1.363 . S
C691 C693 1.408 . S
C691 C696 1.342 . S
C692 C693 1.310 . S
C692 C695 1.461 . S
C692 H712 0.932 . S
C693 C691 1.408 . S
C693 C692 1.310 . S
C693 H713 0.930 . S
C694 C695 1.474 . S
C694 C696 1.285 . S
C694 H714 0.929 . S
C695 C692 1.461 . S
C695 C694 1.474 . S
C696 C691 1.342 . S
C696 C694 1.285 . S
C696 H715 0.930 . S
C697 C700 1.424 . S
C697 C702 1.245 . S
C697 C703 1.428 . S
C698 C701 1.260 . S
C698 C702 1.477 . S
C698 H716 0.932 . S
C699 C700 1.384 . S
C699 C701 1.479 . S
C699 H717 0.929 . S
C700 C697 1.424 . S
C700 C699 1.384 . S
C700 H718 0.928 . S
C701 C698 1.260 . S
C701 C699 1.479 . S
C702 C697 1.245 . S
C702 C698 1.477 . S
C702 H719 0.932 . S
C703 U686 2.882 . S
C703 C697 1.428 . S
C703 O706 1.301 . S
C703 O707 1.282 . S
O704 U686 2.441 . S
O704 C690 1.249 . S
O705 U686 2.420 . S
O705 C690 1.202 . S
O706 U686 2.455 . S
O706 C703 1.301 . S
O707 U686 2.449 . S
O707 C703 1.282 . S
H708 C681 0.931 . S
H709 C683 0.929 . S
H710 C684 0.930 . S
H711 C685 0.931 . S
H712 C692 0.932 . S
H713 C693 0.930 . S
H714 C694 0.929 . S
H715 C696 0.930 . S
H716 C698 0.932 . S
H717 C699 0.929 . S
H718 C700 0.928 . S
H719 C702 0.932 . S
C720 C721 1.264 . S
C720 C725 1.479 . S
C720 C730 1.465 . S
C721 C720 1.264 . S
C721 C723 1.339 . S
C721 H748 0.931 . S
C722 C723 1.395 . S
C722 C724 1.320 . S
C723 C721 1.339 . S
C723 C722 1.395 . S
C723 H749 0.929 . S
C724 C722 1.320 . S
C724 C725 1.405 . S
C724 H750 0.930 . S
C725 C720 1.479 . S
C725 C724 1.405 . S
C725 H751 0.931 . S
U726 O727 2.454 . S
U726 O728 2.458 . S
U726 C729 2.984 . S
U726 C730 2.847 . S
U726 C743 2.882 . S
U726 O744 2.441 . S
U726 O745 2.420 . S
U726 O746 2.455 . S
U726 O747 2.449 . S
O727 U726 2.454 . S
O727 C729 1.353 . S
O728 U726 2.458 . S
O728 C729 1.286 . S
C729 U726 2.984 . S
C729 O727 1.353 . S
C729 O728 1.286 . S
C729 C731 1.363 . S
C730 C720 1.465 . S
C730 U726 2.847 . S
C730 O744 1.249 . S
C730 O745 1.202 . S
C731 C729 1.363 . S
C731 C733 1.408 . S
C731 C736 1.342 . S
C732 C733 1.310 . S
C732 C735 1.461 . S
C732 H752 0.932 . S
C733 C731 1.408 . S
C733 C732 1.310 . S
C733 H753 0.930 . S
C734 C735 1.474 . S
C734 C736 1.285 . S
C734 H754 0.929 . S
C735 C732 1.461 . S
C735 C734 1.474 . S
C736 C731 1.342 . S
C736 C734 1.285 . S
C736 H755 0.930 . S
C737 C740 1.424 . S
C737 C742 1.245 . S
C737 C743 1.428 . S
C738 C741 1.260 . S
C738 C742 1.477 . S
C738 H756 0.932 . S
C739 C740 1.384 . S
C739 C741 1.479 . S
C739 H757 0.929 . S
C740 C737 1.424 . S
C740 C739 1.384 . S
C740 H758 0.928 . S
C741 C738 1.260 . S
C741 C739 1.479 . S
C742 C737 1.245 . S
C742 C738 1.477 . S
C742 H759 0.932 . S
C743 U726 2.882 . S
C743 C737 1.428 . S
C743 O746 1.301 . S
C743 O747 1.282 . S
O744 U726 2.441 . S
O744 C730 1.249 . S
O745 U726 2.420 . S
O745 C730 1.202 . S
O746 U726 2.455 . S
O746 C743 1.301 . S
O747 U726 2.449 . S
O747 C743 1.282 . S
H748 C721 0.931 . S
H749 C723 0.929 . S
H750 C724 0.930 . S
H751 C725 0.931 . S
H752 C732 0.932 . S
H753 C733 0.930 . S
H754 C734 0.929 . S
H755 C736 0.930 . S
H756 C738 0.932 . S
H757 C739 0.929 . S
H758 C740 0.928 . S
H759 C742 0.932 . S
C760 C761 1.264 . S
C760 C765 1.479 . S
C760 C770 1.465 . S
C761 C760 1.264 . S
C761 C763 1.339 . S
C761 H788 0.931 . S
C762 C763 1.395 . S
C762 C764 1.320 . S
C763 C761 1.339 . S
C763 C762 1.395 . S
C763 H789 0.929 . S
C764 C762 1.320 . S
C764 C765 1.405 . S
C764 H790 0.930 . S
C765 C760 1.479 . S
C765 C764 1.405 . S
C765 H791 0.931 . S
U766 O767 2.454 . S
U766 O768 2.458 . S
U766 C769 2.984 . S
U766 C770 2.847 . S
U766 C783 2.882 . S
U766 O784 2.441 . S
U766 O785 2.420 . S
U766 O786 2.455 . S
U766 O787 2.449 . S
O767 U766 2.454 . S
O767 C769 1.353 . S
O768 U766 2.458 . S
O768 C769 1.286 . S
C769 U766 2.984 . S
C769 O767 1.353 . S
C769 O768 1.286 . S
C769 C771 1.363 . S
C770 C760 1.465 . S
C770 U766 2.847 . S
C770 O784 1.249 . S
C770 O785 1.202 . S
C771 C769 1.363 . S
C771 C773 1.408 . S
C771 C776 1.342 . S
C772 C773 1.310 . S
C772 C775 1.461 . S
C772 H792 0.932 . S
C773 C771 1.408 . S
C773 C772 1.310 . S
C773 H793 0.930 . S
C774 C775 1.474 . S
C774 C776 1.285 . S
C774 H794 0.929 . S
C775 C772 1.461 . S
C775 C774 1.474 . S
C776 C771 1.342 . S
C776 C774 1.285 . S
C776 H795 0.930 . S
C777 C780 1.424 . S
C777 C782 1.245 . S
C777 C783 1.428 . S
C778 C781 1.260 . S
C778 C782 1.477 . S
C778 H796 0.932 . S
C779 C780 1.384 . S
C779 C781 1.479 . S
C779 H797 0.929 . S
C780 C777 1.424 . S
C780 C779 1.384 . S
C780 H798 0.928 . S
C781 C778 1.260 . S
C781 C779 1.479 . S
C782 C777 1.245 . S
C782 C778 1.477 . S
C782 H799 0.932 . S
C783 U766 2.882 . S
C783 C777 1.428 . S
C783 O786 1.301 . S
C783 O787 1.282 . S
O784 U766 2.441 . S
O784 C770 1.249 . S
O785 U766 2.420 . S
O785 C770 1.202 . S
O786 U766 2.455 . S
O786 C783 1.301 . S
O787 U766 2.449 . S
O787 C783 1.282 . S
H788 C761 0.931 . S
H789 C763 0.929 . S
H790 C764 0.930 . S
H791 C765 0.931 . S
H792 C772 0.932 . S
H793 C773 0.930 . S
H794 C774 0.929 . S
H795 C776 0.930 . S
H796 C778 0.932 . S
H797 C779 0.929 . S
H798 C780 0.928 . S
H799 C782 0.932 . S
C800 C801 1.264 . S
C800 C805 1.479 . S
C800 C810 1.465 . S
C801 C800 1.264 . S
C801 C803 1.339 . S
C801 H828 0.931 . S
C802 C803 1.395 . S
C802 C804 1.320 . S
C803 C801 1.339 . S
C803 C802 1.395 . S
C803 H829 0.929 . S
C804 C802 1.320 . S
C804 C805 1.405 . S
C804 H830 0.930 . S
C805 C800 1.479 . S
C805 C804 1.405 . S
C805 H831 0.931 . S
U806 O807 2.454 . S
U806 O808 2.458 . S
U806 C809 2.984 . S
U806 C810 2.847 . S
U806 C823 2.882 . S
U806 O824 2.441 . S
U806 O825 2.420 . S
U806 O826 2.455 . S
U806 O827 2.449 . S
O807 U806 2.454 . S
O807 C809 1.353 . S
O808 U806 2.458 . S
O808 C809 1.286 . S
C809 U806 2.984 . S
C809 O807 1.353 . S
C809 O808 1.286 . S
C809 C811 1.363 . S
C810 C800 1.465 . S
C810 U806 2.847 . S
C810 O824 1.249 . S
C810 O825 1.202 . S
C811 C809 1.363 . S
C811 C813 1.408 . S
C811 C816 1.342 . S
C812 C813 1.310 . S
C812 C815 1.461 . S
C812 H832 0.932 . S
C813 C811 1.408 . S
C813 C812 1.310 . S
C813 H833 0.930 . S
C814 C815 1.474 . S
C814 C816 1.285 . S
C814 H834 0.929 . S
C815 C812 1.461 . S
C815 C814 1.474 . S
C816 C811 1.342 . S
C816 C814 1.285 . S
C816 H835 0.930 . S
C817 C820 1.424 . S
C817 C822 1.245 . S
C817 C823 1.428 . S
C818 C821 1.260 . S
C818 C822 1.477 . S
C818 H836 0.932 . S
C819 C820 1.384 . S
C819 C821 1.479 . S
C819 H837 0.929 . S
C820 C817 1.424 . S
C820 C819 1.384 . S
C820 H838 0.928 . S
C821 C818 1.260 . S
C821 C819 1.479 . S
C822 C817 1.245 . S
C822 C818 1.477 . S
C822 H839 0.932 . S
C823 U806 2.882 . S
C823 C817 1.428 . S
C823 O826 1.301 . S
C823 O827 1.282 . S
O824 U806 2.441 . S
O824 C810 1.249 . S
O825 U806 2.420 . S
O825 C810 1.202 . S
O826 U806 2.455 . S
O826 C823 1.301 . S
O827 U806 2.449 . S
O827 C823 1.282 . S
H828 C801 0.931 . S
H829 C803 0.929 . S
H830 C804 0.930 . S
H831 C805 0.931 . S
H832 C812 0.932 . S
H833 C813 0.930 . S
H834 C814 0.929 . S
H835 C816 0.930 . S
H836 C818 0.932 . S
H837 C819 0.929 . S
H838 C820 0.928 . S
H839 C822 0.932 . S
C840 C841 1.264 . S
C840 C845 1.479 . S
C840 C850 1.465 . S
C841 C840 1.264 . S
C841 C843 1.339 . S
C841 H868 0.931 . S
C842 C843 1.395 . S
C842 C844 1.320 . S
C843 C841 1.339 . S
C843 C842 1.395 . S
C843 H869 0.929 . S
C844 C842 1.320 . S
C844 C845 1.405 . S
C844 H870 0.930 . S
C845 C840 1.479 . S
C845 C844 1.405 . S
C845 H871 0.931 . S
U846 O847 2.454 . S
U846 O848 2.458 . S
U846 C849 2.984 . S
U846 C850 2.847 . S
U846 C863 2.882 . S
U846 O864 2.441 . S
U846 O865 2.420 . S
U846 O866 2.455 . S
U846 O867 2.449 . S
O847 U846 2.454 . S
O847 C849 1.353 . S
O848 U846 2.458 . S
O848 C849 1.286 . S
C849 U846 2.984 . S
C849 O847 1.353 . S
C849 O848 1.286 . S
C849 C851 1.363 . S
C850 C840 1.465 . S
C850 U846 2.847 . S
C850 O864 1.249 . S
C850 O865 1.202 . S
C851 C849 1.363 . S
C851 C853 1.408 . S
C851 C856 1.342 . S
C852 C853 1.310 . S
C852 C855 1.461 . S
C852 H872 0.932 . S
C853 C851 1.408 . S
C853 C852 1.310 . S
C853 H873 0.930 . S
C854 C855 1.474 . S
C854 C856 1.285 . S
C854 H874 0.929 . S
C855 C852 1.461 . S
C855 C854 1.474 . S
C856 C851 1.342 . S
C856 C854 1.285 . S
C856 H875 0.930 . S
C857 C860 1.424 . S
C857 C862 1.245 . S
C857 C863 1.428 . S
C858 C861 1.260 . S
C858 C862 1.477 . S
C858 H876 0.932 . S
C859 C860 1.384 . S
C859 C861 1.479 . S
C859 H877 0.929 . S
C860 C857 1.424 . S
C860 C859 1.384 . S
C860 H878 0.928 . S
C861 C858 1.260 . S
C861 C859 1.479 . S
C862 C857 1.245 . S
C862 C858 1.477 . S
C862 H879 0.932 . S
C863 U846 2.882 . S
C863 C857 1.428 . S
C863 O866 1.301 . S
C863 O867 1.282 . S
O864 U846 2.441 . S
O864 C850 1.249 . S
O865 U846 2.420 . S
O865 C850 1.202 . S
O866 U846 2.455 . S
O866 C863 1.301 . S
O867 U846 2.449 . S
O867 C863 1.282 . S
H868 C841 0.931 . S
H869 C843 0.929 . S
H870 C844 0.930 . S
H871 C845 0.931 . S
H872 C852 0.932 . S
H873 C853 0.930 . S
H874 C854 0.929 . S
H875 C856 0.930 . S
H876 C858 0.932 . S
H877 C859 0.929 . S
H878 C860 0.928 . S
H879 C862 0.932 . S
C880 C881 1.264 . S
C880 C885 1.479 . S
C880 C890 1.465 . S
C881 C880 1.264 . S
C881 C883 1.339 . S
C881 H908 0.931 . S
C882 C883 1.395 . S
C882 C884 1.320 . S
C883 C881 1.339 . S
C883 C882 1.395 . S
C883 H909 0.929 . S
C884 C882 1.320 . S
C884 C885 1.405 . S
C884 H910 0.930 . S
C885 C880 1.479 . S
C885 C884 1.405 . S
C885 H911 0.931 . S
U886 O887 2.454 . S
U886 O888 2.458 . S
U886 C889 2.984 . S
U886 C890 2.847 . S
U886 C903 2.882 . S
U886 O904 2.441 . S
U886 O905 2.420 . S
U886 O906 2.455 . S
U886 O907 2.449 . S
O887 U886 2.454 . S
O887 C889 1.353 . S
O888 U886 2.458 . S
O888 C889 1.286 . S
C889 U886 2.984 . S
C889 O887 1.353 . S
C889 O888 1.286 . S
C889 C891 1.363 . S
C890 C880 1.465 . S
C890 U886 2.847 . S
C890 O904 1.249 . S
C890 O905 1.202 . S
C891 C889 1.363 . S
C891 C893 1.408 . S
C891 C896 1.342 . S
C892 C893 1.310 . S
C892 C895 1.461 . S
C892 H912 0.932 . S
C893 C891 1.408 . S
C893 C892 1.310 . S
C893 H913 0.930 . S
C894 C895 1.474 . S
C894 C896 1.285 . S
C894 H914 0.929 . S
C895 C892 1.461 . S
C895 C894 1.474 . S
C896 C891 1.342 . S
C896 C894 1.285 . S
C896 H915 0.930 . S
C897 C900 1.424 . S
C897 C902 1.245 . S
C897 C903 1.428 . S
C898 C901 1.260 . S
C898 C902 1.477 . S
C898 H916 0.932 . S
C899 C900 1.384 . S
C899 C901 1.479 . S
C899 H917 0.929 . S
C900 C897 1.424 . S
C900 C899 1.384 . S
C900 H918 0.928 . S
C901 C898 1.260 . S
C901 C899 1.479 . S
C902 C897 1.245 . S
C902 C898 1.477 . S
C902 H919 0.932 . S
C903 U886 2.882 . S
C903 C897 1.428 . S
C903 O906 1.301 . S
C903 O907 1.282 . S
O904 U886 2.441 . S
O904 C890 1.249 . S
O905 U886 2.420 . S
O905 C890 1.202 . S
O906 U886 2.455 . S
O906 C903 1.301 . S
O907 U886 2.449 . S
O907 C903 1.282 . S
H908 C881 0.931 . S
H909 C883 0.929 . S
H910 C884 0.930 . S
H911 C885 0.931 . S
H912 C892 0.932 . S
H913 C893 0.930 . S
H914 C894 0.929 . S
H915 C896 0.930 . S
H916 C898 0.932 . S
H917 C899 0.929 . S
H918 C900 0.928 . S
H919 C902 0.932 . S
C920 C921 1.264 . S
C920 C925 1.479 . S
C920 C930 1.465 . S
C921 C920 1.264 . S
C921 C923 1.339 . S
C921 H948 0.931 . S
C922 C923 1.395 . S
C922 C924 1.320 . S
C923 C921 1.339 . S
C923 C922 1.395 . S
C923 H949 0.929 . S
C924 C922 1.320 . S
C924 C925 1.405 . S
C924 H950 0.930 . S
C925 C920 1.479 . S
C925 C924 1.405 . S
C925 H951 0.931 . S
U926 O927 2.454 . S
U926 O928 2.458 . S
U926 C929 2.984 . S
U926 C930 2.847 . S
U926 C943 2.882 . S
U926 O944 2.441 . S
U926 O945 2.420 . S
U926 O946 2.455 . S
U926 O947 2.449 . S
O927 U926 2.454 . S
O927 C929 1.353 . S
O928 U926 2.458 . S
O928 C929 1.286 . S
C929 U926 2.984 . S
C929 O927 1.353 . S
C929 O928 1.286 . S
C929 C931 1.363 . S
C930 C920 1.465 . S
C930 U926 2.847 . S
C930 O944 1.249 . S
C930 O945 1.202 . S
C931 C929 1.363 . S
C931 C933 1.408 . S
C931 C936 1.342 . S
C932 C933 1.310 . S
C932 C935 1.461 . S
C932 H952 0.932 . S
C933 C931 1.408 . S
C933 C932 1.310 . S
C933 H953 0.930 . S
C934 C935 1.474 . S
C934 C936 1.285 . S
C934 H954 0.929 . S
C935 C932 1.461 . S
C935 C934 1.474 . S
C936 C931 1.342 . S
C936 C934 1.285 . S
C936 H955 0.930 . S
C937 C940 1.424 . S
C937 C942 1.245 . S
C937 C943 1.428 . S
C938 C941 1.260 . S
C938 C942 1.477 . S
C938 H956 0.932 . S
C939 C940 1.384 . S
C939 C941 1.479 . S
C939 H957 0.929 . S
C940 C937 1.424 . S
C940 C939 1.384 . S
C940 H958 0.928 . S
C941 C938 1.260 . S
C941 C939 1.479 . S
C942 C937 1.245 . S
C942 C938 1.477 . S
C942 H959 0.932 . S
C943 U926 2.882 . S
C943 C937 1.428 . S
C943 O946 1.301 . S
C943 O947 1.282 . S
O944 U926 2.441 . S
O944 C930 1.249 . S
O945 U926 2.420 . S
O945 C930 1.202 . S
O946 U926 2.455 . S
O946 C943 1.301 . S
O947 U926 2.449 . S
O947 C943 1.282 . S
H948 C921 0.931 . S
H949 C923 0.929 . S
H950 C924 0.930 . S
H951 C925 0.931 . S
H952 C932 0.932 . S
H953 C933 0.930 . S
H954 C934 0.929 . S
H955 C936 0.930 . S
H956 C938 0.932 . S
H957 C939 0.929 . S
H958 C940 0.928 . S
H959 C942 0.932 . S
C960 C961 1.264 . S
C960 C965 1.479 . S
C960 C970 1.465 . S
C961 C960 1.264 . S
C961 C963 1.339 . S
C961 H988 0.931 . S
C962 C963 1.395 . S
C962 C964 1.320 . S
C963 C961 1.339 . S
C963 C962 1.395 . S
C963 H989 0.929 . S
C964 C962 1.320 . S
C964 C965 1.405 . S
C964 H990 0.930 . S
C965 C960 1.479 . S
C965 C964 1.405 . S
C965 H991 0.931 . S
U966 O967 2.454 . S
U966 O968 2.458 . S
U966 C969 2.984 . S
U966 C970 2.847 . S
U966 C983 2.882 . S
U966 O984 2.441 . S
U966 O985 2.420 . S
U966 O986 2.455 . S
U966 O987 2.449 . S
O967 U966 2.454 . S
O967 C969 1.353 . S
O968 U966 2.458 . S
O968 C969 1.286 . S
C969 U966 2.984 . S
C969 O967 1.353 . S
C969 O968 1.286 . S
C969 C971 1.363 . S
C970 C960 1.465 . S
C970 U966 2.847 . S
C970 O984 1.249 . S
C970 O985 1.202 . S
C971 C969 1.363 . S
C971 C973 1.408 . S
C971 C976 1.342 . S
C972 C973 1.310 . S
C972 C975 1.461 . S
C972 H992 0.932 . S
C973 C971 1.408 . S
C973 C972 1.310 . S
C973 H993 0.930 . S
C974 C975 1.474 . S
C974 C976 1.285 . S
C974 H994 0.929 . S
C975 C972 1.461 . S
C975 C974 1.474 . S
C976 C971 1.342 . S
C976 C974 1.285 . S
C976 H995 0.930 . S
C977 C980 1.424 . S
C977 C982 1.245 . S
C977 C983 1.428 . S
C978 C981 1.260 . S
C978 C982 1.477 . S
C978 H996 0.932 . S
C979 C980 1.384 . S
C979 C981 1.479 . S
C979 H997 0.929 . S
C980 C977 1.424 . S
C980 C979 1.384 . S
C980 H998 0.928 . S
C981 C978 1.260 . S
C981 C979 1.479 . S
C982 C977 1.245 . S
C982 C978 1.477 . S
C982 H999 0.932 . S
C983 U966 2.882 . S
C983 C977 1.428 . S
C983 O986 1.301 . S
C983 O987 1.282 . S
O984 U966 2.441 . S
O984 C970 1.249 . S
O985 U966 2.420 . S
O985 C970 1.202 . S
O986 U966 2.455 . S
O986 C983 1.301 . S
O987 U966 2.449 . S
O987 C983 1.282 . S
H988 C961 0.931 . S
H989 C963 0.929 . S
H990 C964 0.930 . S
H991 C965 0.931 . S
H992 C972 0.932 . S
H993 C973 0.930 . S
H994 C974 0.929 . S
H995 C976 0.930 . S
H996 C978 0.932 . S
H997 C979 0.929 . S
H998 C980 0.928 . S
H999 C982 0.932 . S
C1000 C1001 1.264 . S
C1000 C1005 1.479 . S
C1000 C1010 1.465 . S
C1001 C1000 1.264 . S
C1001 C1003 1.339 . S
C1001 H1028 0.931 . S
C1002 C1003 1.395 . S
C1002 C1004 1.320 . S
C1003 C1001 1.339 . S
C1003 C1002 1.395 . S
C1003 H1029 0.929 . S
C1004 C1002 1.320 . S
C1004 C1005 1.405 . S
C1004 H1030 0.930 . S
C1005 C1000 1.479 . S
C1005 C1004 1.405 . S
C1005 H1031 0.931 . S
U1006 O1007 2.454 . S
U1006 O1008 2.458 . S
U1006 C1009 2.984 . S
U1006 C1010 2.847 . S
U1006 C1023 2.882 . S
U1006 O1024 2.441 . S
U1006 O1025 2.420 . S
U1006 O1026 2.455 . S
U1006 O1027 2.449 . S
O1007 U1006 2.454 . S
O1007 C1009 1.353 . S
O1008 U1006 2.458 . S
O1008 C1009 1.286 . S
C1009 U1006 2.984 . S
C1009 O1007 1.353 . S
C1009 O1008 1.286 . S
C1009 C1011 1.363 . S
C1010 C1000 1.465 . S
C1010 U1006 2.847 . S
C1010 O1024 1.249 . S
C1010 O1025 1.202 . S
C1011 C1009 1.363 . S
C1011 C1013 1.408 . S
C1011 C1016 1.342 . S
C1012 C1013 1.310 . S
C1012 C1015 1.461 . S
C1012 H1032 0.932 . S
C1013 C1011 1.408 . S
C1013 C1012 1.310 . S
C1013 H1033 0.930 . S
C1014 C1015 1.474 . S
C1014 C1016 1.285 . S
C1014 H1034 0.929 . S
C1015 C1012 1.461 . S
C1015 C1014 1.474 . S
C1016 C1011 1.342 . S
C1016 C1014 1.285 . S
C1016 H1035 0.930 . S
C1017 C1020 1.424 . S
C1017 C1022 1.245 . S
C1017 C1023 1.428 . S
C1018 C1021 1.260 . S
C1018 C1022 1.477 . S
C1018 H1036 0.932 . S
C1019 C1020 1.384 . S
C1019 C1021 1.479 . S
C1019 H1037 0.929 . S
C1020 C1017 1.424 . S
C1020 C1019 1.384 . S
C1020 H1038 0.928 . S
C1021 C1018 1.260 . S
C1021 C1019 1.479 . S
C1022 C1017 1.245 . S
C1022 C1018 1.477 . S
C1022 H1039 0.932 . S
C1023 U1006 2.882 . S
C1023 C1017 1.428 . S
C1023 O1026 1.301 . S
C1023 O1027 1.282 . S
O1024 U1006 2.441 . S
O1024 C1010 1.249 . S
O1025 U1006 2.420 . S
O1025 C1010 1.202 . S
O1026 U1006 2.455 . S
O1026 C1023 1.301 . S
O1027 U1006 2.449 . S
O1027 C1023 1.282 . S
H1028 C1001 0.931 . S
H1029 C1003 0.929 . S
H1030 C1004 0.930 . S
H1031 C1005 0.931 . S
H1032 C1012 0.932 . S
H1033 C1013 0.930 . S
H1034 C1014 0.929 . S
H1035 C1016 0.930 . S
H1036 C1018 0.932 . S
H1037 C1019 0.929 . S
H1038 C1020 0.928 . S
H1039 C1022 0.932 . S
C1040 C1041 1.264 . S
C1040 C1045 1.479 . S
C1040 C1050 1.465 . S
C1041 C1040 1.264 . S
C1041 C1043 1.339 . S
C1041 H1068 0.931 . S
C1042 C1043 1.395 . S
C1042 C1044 1.320 . S
C1043 C1041 1.339 . S
C1043 C1042 1.395 . S
C1043 H1069 0.929 . S
C1044 C1042 1.320 . S
C1044 C1045 1.405 . S
C1044 H1070 0.930 . S
C1045 C1040 1.479 . S
C1045 C1044 1.405 . S
C1045 H1071 0.931 . S
U1046 O1047 2.454 . S
U1046 O1048 2.458 . S
U1046 C1049 2.984 . S
U1046 C1050 2.847 . S
U1046 C1063 2.882 . S
U1046 O1064 2.441 . S
U1046 O1065 2.420 . S
U1046 O1066 2.455 . S
U1046 O1067 2.449 . S
O1047 U1046 2.454 . S
O1047 C1049 1.353 . S
O1048 U1046 2.458 . S
O1048 C1049 1.286 . S
C1049 U1046 2.984 . S
C1049 O1047 1.353 . S
C1049 O1048 1.286 . S
C1049 C1051 1.363 . S
C1050 C1040 1.465 . S
C1050 U1046 2.847 . S
C1050 O1064 1.249 . S
C1050 O1065 1.202 . S
C1051 C1049 1.363 . S
C1051 C1053 1.408 . S
C1051 C1056 1.342 . S
C1052 C1053 1.310 . S
C1052 C1055 1.461 . S
C1052 H1072 0.932 . S
C1053 C1051 1.408 . S
C1053 C1052 1.310 . S
C1053 H1073 0.930 . S
C1054 C1055 1.474 . S
C1054 C1056 1.285 . S
C1054 H1074 0.929 . S
C1055 C1052 1.461 . S
C1055 C1054 1.474 . S
C1056 C1051 1.342 . S
C1056 C1054 1.285 . S
C1056 H1075 0.930 . S
C1057 C1060 1.424 . S
C1057 C1062 1.245 . S
C1057 C1063 1.428 . S
C1058 C1061 1.260 . S
C1058 C1062 1.477 . S
C1058 H1076 0.932 . S
C1059 C1060 1.384 . S
C1059 C1061 1.479 . S
C1059 H1077 0.929 . S
C1060 C1057 1.424 . S
C1060 C1059 1.384 . S
C1060 H1078 0.928 . S
C1061 C1058 1.260 . S
C1061 C1059 1.479 . S
C1062 C1057 1.245 . S
C1062 C1058 1.477 . S
C1062 H1079 0.932 . S
C1063 U1046 2.882 . S
C1063 C1057 1.428 . S
C1063 O1066 1.301 . S
C1063 O1067 1.282 . S
O1064 U1046 2.441 . S
O1064 C1050 1.249 . S
O1065 U1046 2.420 . S
O1065 C1050 1.202 . S
O1066 U1046 2.455 . S
O1066 C1063 1.301 . S
O1067 U1046 2.449 . S
O1067 C1063 1.282 . S
H1068 C1041 0.931 . S
H1069 C1043 0.929 . S
H1070 C1044 0.930 . S
H1071 C1045 0.931 . S
H1072 C1052 0.932 . S
H1073 C1053 0.930 . S
H1074 C1054 0.929 . S
H1075 C1056 0.930 . S
H1076 C1058 0.932 . S
H1077 C1059 0.929 . S
H1078 C1060 0.928 . S
H1079 C1062 0.932 . S
C1080 C1081 1.264 . S
C1080 C1085 1.479 . S
C1080 C1090 1.465 . S
C1081 C1080 1.264 . S
C1081 C1083 1.339 . S
C1081 H1108 0.931 . S
C1082 C1083 1.395 . S
C1082 C1084 1.320 . S
C1083 C1081 1.339 . S
C1083 C1082 1.395 . S
C1083 H1109 0.929 . S
C1084 C1082 1.320 . S
C1084 C1085 1.405 . S
C1084 H1110 0.930 . S
C1085 C1080 1.479 . S
C1085 C1084 1.405 . S
C1085 H1111 0.931 . S
U1086 O1087 2.454 . S
U1086 O1088 2.458 . S
U1086 C1089 2.984 . S
U1086 C1090 2.847 . S
U1086 C1103 2.882 . S
U1086 O1104 2.441 . S
U1086 O1105 2.420 . S
U1086 O1106 2.455 . S
U1086 O1107 2.449 . S
O1087 U1086 2.454 . S
O1087 C1089 1.353 . S
O1088 U1086 2.458 . S
O1088 C1089 1.286 . S
C1089 U1086 2.984 . S
C1089 O1087 1.353 . S
C1089 O1088 1.286 . S
C1089 C1091 1.363 . S
C1090 C1080 1.465 . S
C1090 U1086 2.847 . S
C1090 O1104 1.249 . S
C1090 O1105 1.202 . S
C1091 C1089 1.363 . S
C1091 C1093 1.408 . S
C1091 C1096 1.342 . S
C1092 C1093 1.310 . S
C1092 C1095 1.461 . S
C1092 H1112 0.932 . S
C1093 C1091 1.408 . S
C1093 C1092 1.310 . S
C1093 H1113 0.930 . S
C1094 C1095 1.474 . S
C1094 C1096 1.285 . S
C1094 H1114 0.929 . S
C1095 C1092 1.461 . S
C1095 C1094 1.474 . S
C1096 C1091 1.342 . S
C1096 C1094 1.285 . S
C1096 H1115 0.930 . S
C1097 C1100 1.424 . S
C1097 C1102 1.245 . S
C1097 C1103 1.428 . S
C1098 C1101 1.260 . S
C1098 C1102 1.477 . S
C1098 H1116 0.932 . S
C1099 C1100 1.384 . S
C1099 C1101 1.479 . S
C1099 H1117 0.929 . S
C1100 C1097 1.424 . S
C1100 C1099 1.384 . S
C1100 H1118 0.928 . S
C1101 C1098 1.260 . S
C1101 C1099 1.479 . S
C1102 C1097 1.245 . S
C1102 C1098 1.477 . S
C1102 H1119 0.932 . S
C1103 U1086 2.882 . S
C1103 C1097 1.428 . S
C1103 O1106 1.301 . S
C1103 O1107 1.282 . S
O1104 U1086 2.441 . S
O1104 C1090 1.249 . S
O1105 U1086 2.420 . S
O1105 C1090 1.202 . S
O1106 U1086 2.455 . S
O1106 C1103 1.301 . S
O1107 U1086 2.449 . S
O1107 C1103 1.282 . S
H1108 C1081 0.931 . S
H1109 C1083 0.929 . S
H1110 C1084 0.930 . S
H1111 C1085 0.931 . S
H1112 C1092 0.932 . S
H1113 C1093 0.930 . S
H1114 C1094 0.929 . S
H1115 C1096 0.930 . S
H1116 C1098 0.932 . S
H1117 C1099 0.929 . S
H1118 C1100 0.928 . S
H1119 C1102 0.932 . S
C1120 C1121 1.264 . S
C1120 C1125 1.479 . S
C1120 C1130 1.465 . S
C1121 C1120 1.264 . S
C1121 C1123 1.339 . S
C1121 H1148 0.931 . S
C1122 C1123 1.395 . S
C1122 C1124 1.320 . S
C1123 C1121 1.339 . S
C1123 C1122 1.395 . S
C1123 H1149 0.929 . S
C1124 C1122 1.320 . S
C1124 C1125 1.405 . S
C1124 H1150 0.930 . S
C1125 C1120 1.479 . S
C1125 C1124 1.405 . S
C1125 H1151 0.931 . S
U1126 O1127 2.454 . S
U1126 O1128 2.458 . S
U1126 C1129 2.984 . S
U1126 C1130 2.847 . S
U1126 C1143 2.882 . S
U1126 O1144 2.441 . S
U1126 O1145 2.420 . S
U1126 O1146 2.455 . S
U1126 O1147 2.449 . S
O1127 U1126 2.454 . S
O1127 C1129 1.353 . S
O1128 U1126 2.458 . S
O1128 C1129 1.286 . S
C1129 U1126 2.984 . S
C1129 O1127 1.353 . S
C1129 O1128 1.286 . S
C1129 C1131 1.363 . S
C1130 C1120 1.465 . S
C1130 U1126 2.847 . S
C1130 O1144 1.249 . S
C1130 O1145 1.202 . S
C1131 C1129 1.363 . S
C1131 C1133 1.408 . S
C1131 C1136 1.342 . S
C1132 C1133 1.310 . S
C1132 C1135 1.461 . S
C1132 H1152 0.932 . S
C1133 C1131 1.408 . S
C1133 C1132 1.310 . S
C1133 H1153 0.930 . S
C1134 C1135 1.474 . S
C1134 C1136 1.285 . S
C1134 H1154 0.929 . S
C1135 C1132 1.461 . S
C1135 C1134 1.474 . S
C1136 C1131 1.342 . S
C1136 C1134 1.285 . S
C1136 H1155 0.930 . S
C1137 C1140 1.424 . S
C1137 C1142 1.245 . S
C1137 C1143 1.428 . S
C1138 C1141 1.260 . S
C1138 C1142 1.477 . S
C1138 H1156 0.932 . S
C1139 C1140 1.384 . S
C1139 C1141 1.479 . S
C1139 H1157 0.929 . S
C1140 C1137 1.424 . S
C1140 C1139 1.384 . S
C1140 H1158 0.928 . S
C1141 C1138 1.260 . S
C1141 C1139 1.479 . S
C1142 C1137 1.245 . S
C1142 C1138 1.477 . S
C1142 H1159 0.932 . S
C1143 U1126 2.882 . S
C1143 C1137 1.428 . S
C1143 O1146 1.301 . S
C1143 O1147 1.282 . S
O1144 U1126 2.441 . S
O1144 C1130 1.249 . S
O1145 U1126 2.420 . S
O1145 C1130 1.202 . S
O1146 U1126 2.455 . S
O1146 C1143 1.301 . S
O1147 U1126 2.449 . S
O1147 C1143 1.282 . S
H1148 C1121 0.931 . S
H1149 C1123 0.929 . S
H1150 C1124 0.930 . S
H1151 C1125 0.931 . S
H1152 C1132 0.932 . S
H1153 C1133 0.930 . S
H1154 C1134 0.929 . S
H1155 C1136 0.930 . S
H1156 C1138 0.932 . S
H1157 C1139 0.929 . S
H1158 C1140 0.928 . S
H1159 C1142 0.932 . S
C1160 C1161 1.264 . S
C1160 C1165 1.479 . S
C1160 C1170 1.465 . S
C1161 C1160 1.264 . S
C1161 C1163 1.339 . S
C1161 H1188 0.931 . S
C1162 C1163 1.395 . S
C1162 C1164 1.320 . S
C1163 C1161 1.339 . S
C1163 C1162 1.395 . S
C1163 H1189 0.929 . S
C1164 C1162 1.320 . S
C1164 C1165 1.405 . S
C1164 H1190 0.930 . S
C1165 C1160 1.479 . S
C1165 C1164 1.405 . S
C1165 H1191 0.931 . S
U1166 O1167 2.454 . S
U1166 O1168 2.458 . S
U1166 C1169 2.984 . S
U1166 C1170 2.847 . S
U1166 C1183 2.882 . S
U1166 O1184 2.441 . S
U1166 O1185 2.420 . S
U1166 O1186 2.455 . S
U1166 O1187 2.449 . S
O1167 U1166 2.454 . S
O1167 C1169 1.353 . S
O1168 U1166 2.458 . S
O1168 C1169 1.286 . S
C1169 U1166 2.984 . S
C1169 O1167 1.353 . S
C1169 O1168 1.286 . S
C1169 C1171 1.363 . S
C1170 C1160 1.465 . S
C1170 U1166 2.847 . S
C1170 O1184 1.249 . S
C1170 O1185 1.202 . S
C1171 C1169 1.363 . S
C1171 C1173 1.408 . S
C1171 C1176 1.342 . S
C1172 C1173 1.310 . S
C1172 C1175 1.461 . S
C1172 H1192 0.932 . S
C1173 C1171 1.408 . S
C1173 C1172 1.310 . S
C1173 H1193 0.930 . S
C1174 C1175 1.474 . S
C1174 C1176 1.285 . S
C1174 H1194 0.929 . S
C1175 C1172 1.461 . S
C1175 C1174 1.474 . S
C1176 C1171 1.342 . S
C1176 C1174 1.285 . S
C1176 H1195 0.930 . S
C1177 C1180 1.424 . S
C1177 C1182 1.245 . S
C1177 C1183 1.428 . S
C1178 C1181 1.260 . S
C1178 C1182 1.477 . S
C1178 H1196 0.932 . S
C1179 C1180 1.384 . S
C1179 C1181 1.479 . S
C1179 H1197 0.929 . S
C1180 C1177 1.424 . S
C1180 C1179 1.384 . S
C1180 H1198 0.928 . S
C1181 C1178 1.260 . S
C1181 C1179 1.479 . S
C1182 C1177 1.245 . S
C1182 C1178 1.477 . S
C1182 H1199 0.932 . S
C1183 U1166 2.882 . S
C1183 C1177 1.428 . S
C1183 O1186 1.301 . S
C1183 O1187 1.282 . S
O1184 U1166 2.441 . S
O1184 C1170 1.249 . S
O1185 U1166 2.420 . S
O1185 C1170 1.202 . S
O1186 U1166 2.455 . S
O1186 C1183 1.301 . S
O1187 U1166 2.449 . S
O1187 C1183 1.282 . S
H1188 C1161 0.931 . S
H1189 C1163 0.929 . S
H1190 C1164 0.930 . S
H1191 C1165 0.931 . S
H1192 C1172 0.932 . S
H1193 C1173 0.930 . S
H1194 C1174 0.929 . S
H1195 C1176 0.930 . S
H1196 C1178 0.932 . S
H1197 C1179 0.929 . S
H1198 C1180 0.928 . S
H1199 C1182 0.932 . S
C1200 C1201 1.264 . S
C1200 C1205 1.479 . S
C1200 C1210 1.465 . S
C1201 C1200 1.264 . S
C1201 C1203 1.339 . S
C1201 H1228 0.931 . S
C1202 C1203 1.395 . S
C1202 C1204 1.320 . S
C1203 C1201 1.339 . S
C1203 C1202 1.395 . S
C1203 H1229 0.929 . S
C1204 C1202 1.320 . S
C1204 C1205 1.405 . S
C1204 H1230 0.930 . S
C1205 C1200 1.479 . S
C1205 C1204 1.405 . S
C1205 H1231 0.931 . S
U1206 O1207 2.454 . S
U1206 O1208 2.458 . S
U1206 C1209 2.984 . S
U1206 C1210 2.847 . S
U1206 C1223 2.882 . S
U1206 O1224 2.441 . S
U1206 O1225 2.420 . S
U1206 O1226 2.455 . S
U1206 O1227 2.449 . S
O1207 U1206 2.454 . S
O1207 C1209 1.353 . S
O1208 U1206 2.458 . S
O1208 C1209 1.286 . S
C1209 U1206 2.984 . S
C1209 O1207 1.353 . S
C1209 O1208 1.286 . S
C1209 C1211 1.363 . S
C1210 C1200 1.465 . S
C1210 U1206 2.847 . S
C1210 O1224 1.249 . S
C1210 O1225 1.202 . S
C1211 C1209 1.363 . S
C1211 C1213 1.408 . S
C1211 C1216 1.342 . S
C1212 C1213 1.310 . S
C1212 C1215 1.461 . S
C1212 H1232 0.932 . S
C1213 C1211 1.408 . S
C1213 C1212 1.310 . S
C1213 H1233 0.930 . S
C1214 C1215 1.474 . S
C1214 C1216 1.285 . S
C1214 H1234 0.929 . S
C1215 C1212 1.461 . S
C1215 C1214 1.474 . S
C1216 C1211 1.342 . S
C1216 C1214 1.285 . S
C1216 H1235 0.930 . S
C1217 C1220 1.424 . S
C1217 C1222 1.245 . S
C1217 C1223 1.428 . S
C1218 C1221 1.260 . S
C1218 C1222 1.477 . S
C1218 H1236 0.932 . S
C1219 C1220 1.384 . S
C1219 C1221 1.479 . S
C1219 H1237 0.929 . S
C1220 C1217 1.424 . S
C1220 C1219 1.384 . S
C1220 H1238 0.928 . S
C1221 C1218 1.260 . S
C1221 C1219 1.479 . S
C1222 C1217 1.245 . S
C1222 C1218 1.477 . S
C1222 H1239 0.932 . S
C1223 U1206 2.882 . S
C1223 C1217 1.428 . S
C1223 O1226 1.301 . S
C1223 O1227 1.282 . S
O1224 U1206 2.441 . S
O1224 C1210 1.249 . S
O1225 U1206 2.420 . S
O1225 C1210 1.202 . S
O1226 U1206 2.455 . S
O1226 C1223 1.301 . S
O1227 U1206 2.449 . S
O1227 C1223 1.282 . S
H1228 C1201 0.931 . S
H1229 C1203 0.929 . S
H1230 C1204 0.930 . S
H1231 C1205 0.931 . S
H1232 C1212 0.932 . S
H1233 C1213 0.930 . S
H1234 C1214 0.929 . S
H1235 C1216 0.930 . S
H1236 C1218 0.932 . S
H1237 C1219 0.929 . S
H1238 C1220 0.928 . S
H1239 C1222 0.932 . S
C1240 C1241 1.264 . S
C1240 C1245 1.479 . S
C1240 C1250 1.465 . S
C1241 C1240 1.264 . S
C1241 C1243 1.339 . S
C1241 H1268 0.931 . S
C1242 C1243 1.395 . S
C1242 C1244 1.320 . S
C1243 C1241 1.339 . S
C1243 C1242 1.395 . S
C1243 H1269 0.929 . S
C1244 C1242 1.320 . S
C1244 C1245 1.405 . S
C1244 H1270 0.930 . S
C1245 C1240 1.479 . S
C1245 C1244 1.405 . S
C1245 H1271 0.931 . S
U1246 O1247 2.454 . S
U1246 O1248 2.458 . S
U1246 C1249 2.984 . S
U1246 C1250 2.847 . S
U1246 C1263 2.882 . S
U1246 O1264 2.441 . S
U1246 O1265 2.420 . S
U1246 O1266 2.455 . S
U1246 O1267 2.449 . S
O1247 U1246 2.454 . S
O1247 C1249 1.353 . S
O1248 U1246 2.458 . S
O1248 C1249 1.286 . S
C1249 U1246 2.984 . S
C1249 O1247 1.353 . S
C1249 O1248 1.286 . S
C1249 C1251 1.363 . S
C1250 C1240 1.465 . S
C1250 U1246 2.847 . S
C1250 O1264 1.249 . S
C1250 O1265 1.202 . S
C1251 C1249 1.363 . S
C1251 C1253 1.408 . S
C1251 C1256 1.342 . S
C1252 C1253 1.310 . S
C1252 C1255 1.461 . S
C1252 H1272 0.932 . S
C1253 C1251 1.408 . S
C1253 C1252 1.310 . S
C1253 H1273 0.930 . S
C1254 C1255 1.474 . S
C1254 C1256 1.285 . S
C1254 H1274 0.929 . S
C1255 C1252 1.461 . S
C1255 C1254 1.474 . S
C1256 C1251 1.342 . S
C1256 C1254 1.285 . S
C1256 H1275 0.930 . S
C1257 C1260 1.424 . S
C1257 C1262 1.245 . S
C1257 C1263 1.428 . S
C1258 C1261 1.260 . S
C1258 C1262 1.477 . S
C1258 H1276 0.932 . S
C1259 C1260 1.384 . S
C1259 C1261 1.479 . S
C1259 H1277 0.929 . S
C1260 C1257 1.424 . S
C1260 C1259 1.384 . S
C1260 H1278 0.928 . S
C1261 C1258 1.260 . S
C1261 C1259 1.479 . S
C1262 C1257 1.245 . S
C1262 C1258 1.477 . S
C1262 H1279 0.932 . S
C1263 U1246 2.882 . S
C1263 C1257 1.428 . S
C1263 O1266 1.301 . S
C1263 O1267 1.282 . S
O1264 U1246 2.441 . S
O1264 C1250 1.249 . S
O1265 U1246 2.420 . S
O1265 C1250 1.202 . S
O1266 U1246 2.455 . S
O1266 C1263 1.301 . S
O1267 U1246 2.449 . S
O1267 C1263 1.282 . S
H1268 C1241 0.931 . S
H1269 C1243 0.929 . S
H1270 C1244 0.930 . S
H1271 C1245 0.931 . S
H1272 C1252 0.932 . S
H1273 C1253 0.930 . S
H1274 C1254 0.929 . S
H1275 C1256 0.930 . S
H1276 C1258 0.932 . S
H1277 C1259 0.929 . S
H1278 C1260 0.928 . S
H1279 C1262 0.932 . S
C1280 C1281 1.264 . S
C1280 C1285 1.479 . S
C1280 C1290 1.465 . S
C1281 C1280 1.264 . S
C1281 C1283 1.339 . S
C1281 H1308 0.931 . S
C1282 C1283 1.395 . S
C1282 C1284 1.320 . S
C1283 C1281 1.339 . S
C1283 C1282 1.395 . S
C1283 H1309 0.929 . S
C1284 C1282 1.320 . S
C1284 C1285 1.405 . S
C1284 H1310 0.930 . S
C1285 C1280 1.479 . S
C1285 C1284 1.405 . S
C1285 H1311 0.931 . S
U1286 O1287 2.454 . S
U1286 O1288 2.458 . S
U1286 C1289 2.984 . S
U1286 C1290 2.847 . S
U1286 C1303 2.882 . S
U1286 O1304 2.441 . S
U1286 O1305 2.420 . S
U1286 O1306 2.455 . S
U1286 O1307 2.449 . S
O1287 U1286 2.454 . S
O1287 C1289 1.353 . S
O1288 U1286 2.458 . S
O1288 C1289 1.286 . S
C1289 U1286 2.984 . S
C1289 O1287 1.353 . S
C1289 O1288 1.286 . S
C1289 C1291 1.363 . S
C1290 C1280 1.465 . S
C1290 U1286 2.847 . S
C1290 O1304 1.249 . S
C1290 O1305 1.202 . S
C1291 C1289 1.363 . S
C1291 C1293 1.408 . S
C1291 C1296 1.342 . S
C1292 C1293 1.310 . S
C1292 C1295 1.461 . S
C1292 H1312 0.932 . S
C1293 C1291 1.408 . S
C1293 C1292 1.310 . S
C1293 H1313 0.930 . S
C1294 C1295 1.474 . S
C1294 C1296 1.285 . S
C1294 H1314 0.929 . S
C1295 C1292 1.461 . S
C1295 C1294 1.474 . S
C1296 C1291 1.342 . S
C1296 C1294 1.285 . S
C1296 H1315 0.930 . S
C1297 C1300 1.424 . S
C1297 C1302 1.245 . S
C1297 C1303 1.428 . S
C1298 C1301 1.260 . S
C1298 C1302 1.477 . S
C1298 H1316 0.932 . S
C1299 C1300 1.384 . S
C1299 C1301 1.479 . S
C1299 H1317 0.929 . S
C1300 C1297 1.424 . S
C1300 C1299 1.384 . S
C1300 H1318 0.928 . S
C1301 C1298 1.260 . S
C1301 C1299 1.479 . S
C1302 C1297 1.245 . S
C1302 C1298 1.477 . S
C1302 H1319 0.932 . S
C1303 U1286 2.882 . S
C1303 C1297 1.428 . S
C1303 O1306 1.301 . S
C1303 O1307 1.282 . S
O1304 U1286 2.441 . S
O1304 C1290 1.249 . S
O1305 U1286 2.420 . S
O1305 C1290 1.202 . S
O1306 U1286 2.455 . S
O1306 C1303 1.301 . S
O1307 U1286 2.449 . S
O1307 C1303 1.282 . S
H1308 C1281 0.931 . S
H1309 C1283 0.929 . S
H1310 C1284 0.930 . S
H1311 C1285 0.931 . S
H1312 C1292 0.932 . S
H1313 C1293 0.930 . S
H1314 C1294 0.929 . S
H1315 C1296 0.930 . S
H1316 C1298 0.932 . S
H1317 C1299 0.929 . S
H1318 C1300 0.928 . S
H1319 C1302 0.932 . S
C1320 C1321 1.264 . S
C1320 C1325 1.479 . S
C1320 C1330 1.465 . S
C1321 C1320 1.264 . S
C1321 C1323 1.339 . S
C1321 H1348 0.931 . S
C1322 C1323 1.395 . S
C1322 C1324 1.320 . S
C1323 C1321 1.339 . S
C1323 C1322 1.395 . S
C1323 H1349 0.929 . S
C1324 C1322 1.320 . S
C1324 C1325 1.405 . S
C1324 H1350 0.930 . S
C1325 C1320 1.479 . S
C1325 C1324 1.405 . S
C1325 H1351 0.931 . S
U1326 O1327 2.454 . S
U1326 O1328 2.458 . S
U1326 C1329 2.984 . S
U1326 C1330 2.847 . S
U1326 C1343 2.882 . S
U1326 O1344 2.441 . S
U1326 O1345 2.420 . S
U1326 O1346 2.455 . S
U1326 O1347 2.449 . S
O1327 U1326 2.454 . S
O1327 C1329 1.353 . S
O1328 U1326 2.458 . S
O1328 C1329 1.286 . S
C1329 U1326 2.984 . S
C1329 O1327 1.353 . S
C1329 O1328 1.286 . S
C1329 C1331 1.363 . S
C1330 C1320 1.465 . S
C1330 U1326 2.847 . S
C1330 O1344 1.249 . S
C1330 O1345 1.202 . S
C1331 C1329 1.363 . S
C1331 C1333 1.408 . S
C1331 C1336 1.342 . S
C1332 C1333 1.310 . S
C1332 C1335 1.461 . S
C1332 H1352 0.932 . S
C1333 C1331 1.408 . S
C1333 C1332 1.310 . S
C1333 H1353 0.930 . S
C1334 C1335 1.474 . S
C1334 C1336 1.285 . S
C1334 H1354 0.929 . S
C1335 C1332 1.461 . S
C1335 C1334 1.474 . S
C1336 C1331 1.342 . S
C1336 C1334 1.285 . S
C1336 H1355 0.930 . S
C1337 C1340 1.424 . S
C1337 C1342 1.245 . S
C1337 C1343 1.428 . S
C1338 C1341 1.260 . S
C1338 C1342 1.477 . S
C1338 H1356 0.932 . S
C1339 C1340 1.384 . S
C1339 C1341 1.479 . S
C1339 H1357 0.929 . S
C1340 C1337 1.424 . S
C1340 C1339 1.384 . S
C1340 H1358 0.928 . S
C1341 C1338 1.260 . S
C1341 C1339 1.479 . S
C1342 C1337 1.245 . S
C1342 C1338 1.477 . S
C1342 H1359 0.932 . S
C1343 U1326 2.882 . S
C1343 C1337 1.428 . S
C1343 O1346 1.301 . S
C1343 O1347 1.282 . S
O1344 U1326 2.441 . S
O1344 C1330 1.249 . S
O1345 U1326 2.420 . S
O1345 C1330 1.202 . S
O1346 U1326 2.455 . S
O1346 C1343 1.301 . S
O1347 U1326 2.449 . S
O1347 C1343 1.282 . S
H1348 C1321 0.931 . S
H1349 C1323 0.929 . S
H1350 C1324 0.930 . S
H1351 C1325 0.931 . S
H1352 C1332 0.932 . S
H1353 C1333 0.930 . S
H1354 C1334 0.929 . S
H1355 C1336 0.930 . S
H1356 C1338 0.932 . S
H1357 C1339 0.929 . S
H1358 C1340 0.928 . S
H1359 C1342 0.932 . S
C1360 C1361 1.264 . S
C1360 C1365 1.479 . S
C1360 C1370 1.465 . S
C1361 C1360 1.264 . S
C1361 C1363 1.339 . S
C1361 H1388 0.931 . S
C1362 C1363 1.395 . S
C1362 C1364 1.320 . S
C1363 C1361 1.339 . S
C1363 C1362 1.395 . S
C1363 H1389 0.929 . S
C1364 C1362 1.320 . S
C1364 C1365 1.405 . S
C1364 H1390 0.930 . S
C1365 C1360 1.479 . S
C1365 C1364 1.405 . S
C1365 H1391 0.931 . S
U1366 O1367 2.454 . S
U1366 O1368 2.458 . S
U1366 C1369 2.984 . S
U1366 C1370 2.847 . S
U1366 C1383 2.882 . S
U1366 O1384 2.441 . S
U1366 O1385 2.420 . S
U1366 O1386 2.455 . S
U1366 O1387 2.449 . S
O1367 U1366 2.454 . S
O1367 C1369 1.353 . S
O1368 U1366 2.458 . S
O1368 C1369 1.286 . S
C1369 U1366 2.984 . S
C1369 O1367 1.353 . S
C1369 O1368 1.286 . S
C1369 C1371 1.363 . S
C1370 C1360 1.465 . S
C1370 U1366 2.847 . S
C1370 O1384 1.249 . S
C1370 O1385 1.202 . S
C1371 C1369 1.363 . S
C1371 C1373 1.408 . S
C1371 C1376 1.342 . S
C1372 C1373 1.310 . S
C1372 C1375 1.461 . S
C1372 H1392 0.932 . S
C1373 C1371 1.408 . S
C1373 C1372 1.310 . S
C1373 H1393 0.930 . S
C1374 C1375 1.474 . S
C1374 C1376 1.285 . S
C1374 H1394 0.929 . S
C1375 C1372 1.461 . S
C1375 C1374 1.474 . S
C1376 C1371 1.342 . S
C1376 C1374 1.285 . S
C1376 H1395 0.930 . S
C1377 C1380 1.424 . S
C1377 C1382 1.245 . S
C1377 C1383 1.428 . S
C1378 C1381 1.260 . S
C1378 C1382 1.477 . S
C1378 H1396 0.932 . S
C1379 C1380 1.384 . S
C1379 C1381 1.479 . S
C1379 H1397 0.929 . S
C1380 C1377 1.424 . S
C1380 C1379 1.384 . S
C1380 H1398 0.928 . S
C1381 C1378 1.260 . S
C1381 C1379 1.479 . S
C1382 C1377 1.245 . S
C1382 C1378 1.477 . S
C1382 H1399 0.932 . S
C1383 U1366 2.882 . S
C1383 C1377 1.428 . S
C1383 O1386 1.301 . S
C1383 O1387 1.282 . S
O1384 U1366 2.441 . S
O1384 C1370 1.249 . S
O1385 U1366 2.420 . S
O1385 C1370 1.202 . S
O1386 U1366 2.455 . S
O1386 C1383 1.301 . S
O1387 U1366 2.449 . S
O1387 C1383 1.282 . S
H1388 C1361 0.931 . S
H1389 C1363 0.929 . S
H1390 C1364 0.930 . S
H1391 C1365 0.931 . S
H1392 C1372 0.932 . S
H1393 C1373 0.930 . S
H1394 C1374 0.929 . S
H1395 C1376 0.930 . S
H1396 C1378 0.932 . S
H1397 C1379 0.929 . S
H1398 C1380 0.928 . S
H1399 C1382 0.932 . S
C1400 C1401 1.264 . S
C1400 C1405 1.479 . S
C1400 C1410 1.465 . S
C1401 C1400 1.264 . S
C1401 C1403 1.339 . S
C1401 H1428 0.931 . S
C1402 C1403 1.395 . S
C1402 C1404 1.320 . S
C1403 C1401 1.339 . S
C1403 C1402 1.395 . S
C1403 H1429 0.929 . S
C1404 C1402 1.320 . S
C1404 C1405 1.405 . S
C1404 H1430 0.930 . S
C1405 C1400 1.479 . S
C1405 C1404 1.405 . S
C1405 H1431 0.931 . S
U1406 O1407 2.454 . S
U1406 O1408 2.458 . S
U1406 C1409 2.984 . S
U1406 C1410 2.847 . S
U1406 C1423 2.882 . S
U1406 O1424 2.441 . S
U1406 O1425 2.420 . S
U1406 O1426 2.455 . S
U1406 O1427 2.449 . S
O1407 U1406 2.454 . S
O1407 C1409 1.353 . S
O1408 U1406 2.458 . S
O1408 C1409 1.286 . S
C1409 U1406 2.984 . S
C1409 O1407 1.353 . S
C1409 O1408 1.286 . S
C1409 C1411 1.363 . S
C1410 C1400 1.465 . S
C1410 U1406 2.847 . S
C1410 O1424 1.249 . S
C1410 O1425 1.202 . S
C1411 C1409 1.363 . S
C1411 C1413 1.408 . S
C1411 C1416 1.342 . S
C1412 C1413 1.310 . S
C1412 C1415 1.461 . S
C1412 H1432 0.932 . S
C1413 C1411 1.408 . S
C1413 C1412 1.310 . S
C1413 H1433 0.930 . S
C1414 C1415 1.474 . S
C1414 C1416 1.285 . S
C1414 H1434 0.929 . S
C1415 C1412 1.461 . S
C1415 C1414 1.474 . S
C1416 C1411 1.342 . S
C1416 C1414 1.285 . S
C1416 H1435 0.930 . S
C1417 C1420 1.424 . S
C1417 C1422 1.245 . S
C1417 C1423 1.428 . S
C1418 C1421 1.260 . S
C1418 C1422 1.477 . S
C1418 H1436 0.932 . S
C1419 C1420 1.384 . S
C1419 C1421 1.479 . S
C1419 H1437 0.929 . S
C1420 C1417 1.424 . S
C1420 C1419 1.384 . S
C1420 H1438 0.928 . S
C1421 C1418 1.260 . S
C1421 C1419 1.479 . S
C1422 C1417 1.245 . S
C1422 C1418 1.477 . S
C1422 H1439 0.932 . S
C1423 U1406 2.882 . S
C1423 C1417 1.428 . S
C1423 O1426 1.301 . S
C1423 O1427 1.282 . S
O1424 U1406 2.441 . S
O1424 C1410 1.249 . S
O1425 U1406 2.420 . S
O1425 C1410 1.202 . S
O1426 U1406 2.455 . S
O1426 C1423 1.301 . S
O1427 U1406 2.449 . S
O1427 C1423 1.282 . S
H1428 C1401 0.931 . S
H1429 C1403 0.929 . S
H1430 C1404 0.930 . S
H1431 C1405 0.931 . S
H1432 C1412 0.932 . S
H1433 C1413 0.930 . S
H1434 C1414 0.929 . S
H1435 C1416 0.930 . S
H1436 C1418 0.932 . S
H1437 C1419 0.929 . S
H1438 C1420 0.928 . S
H1439 C1422 0.932 . S
C1440 C1441 1.264 . S
C1440 C1445 1.479 . S
C1440 C1450 1.465 . S
C1441 C1440 1.264 . S
C1441 C1443 1.339 . S
C1441 H1468 0.931 . S
C1442 C1443 1.395 . S
C1442 C1444 1.320 . S
C1443 C1441 1.339 . S
C1443 C1442 1.395 . S
C1443 H1469 0.929 . S
C1444 C1442 1.320 . S
C1444 C1445 1.405 . S
C1444 H1470 0.930 . S
C1445 C1440 1.479 . S
C1445 C1444 1.405 . S
C1445 H1471 0.931 . S
U1446 O1447 2.454 . S
U1446 O1448 2.458 . S
U1446 C1449 2.984 . S
U1446 C1450 2.847 . S
U1446 C1463 2.882 . S
U1446 O1464 2.441 . S
U1446 O1465 2.420 . S
U1446 O1466 2.455 . S
U1446 O1467 2.449 . S
O1447 U1446 2.454 . S
O1447 C1449 1.353 . S
O1448 U1446 2.458 . S
O1448 C1449 1.286 . S
C1449 U1446 2.984 . S
C1449 O1447 1.353 . S
C1449 O1448 1.286 . S
C1449 C1451 1.363 . S
C1450 C1440 1.465 . S
C1450 U1446 2.847 . S
C1450 O1464 1.249 . S
C1450 O1465 1.202 . S
C1451 C1449 1.363 . S
C1451 C1453 1.408 . S
C1451 C1456 1.342 . S
C1452 C1453 1.310 . S
C1452 C1455 1.461 . S
C1452 H1472 0.932 . S
C1453 C1451 1.408 . S
C1453 C1452 1.310 . S
C1453 H1473 0.930 . S
C1454 C1455 1.474 . S
C1454 C1456 1.285 . S
C1454 H1474 0.929 . S
C1455 C1452 1.461 . S
C1455 C1454 1.474 . S
C1456 C1451 1.342 . S
C1456 C1454 1.285 . S
C1456 H1475 0.930 . S
C1457 C1460 1.424 . S
C1457 C1462 1.245 . S
C1457 C1463 1.428 . S
C1458 C1461 1.260 . S
C1458 C1462 1.477 . S
C1458 H1476 0.932 . S
C1459 C1460 1.384 . S
C1459 C1461 1.479 . S
C1459 H1477 0.929 . S
C1460 C1457 1.424 . S
C1460 C1459 1.384 . S
C1460 H1478 0.928 . S
C1461 C1458 1.260 . S
C1461 C1459 1.479 . S
C1462 C1457 1.245 . S
C1462 C1458 1.477 . S
C1462 H1479 0.932 . S
C1463 U1446 2.882 . S
C1463 C1457 1.428 . S
C1463 O1466 1.301 . S
C1463 O1467 1.282 . S
O1464 U1446 2.441 . S
O1464 C1450 1.249 . S
O1465 U1446 2.420 . S
O1465 C1450 1.202 . S
O1466 U1446 2.455 . S
O1466 C1463 1.301 . S
O1467 U1446 2.449 . S
O1467 C1463 1.282 . S
H1468 C1441 0.931 . S
H1469 C1443 0.929 . S
H1470 C1444 0.930 . S
H1471 C1445 0.931 . S
H1472 C1452 0.932 . S
H1473 C1453 0.930 . S
H1474 C1454 0.929 . S
H1475 C1456 0.930 . S
H1476 C1458 0.932 . S
H1477 C1459 0.929 . S
H1478 C1460 0.928 . S
H1479 C1462 0.932 . S
C1480 C1481 1.264 . S
C1480 C1485 1.479 . S
C1480 C1490 1.465 . S
C1481 C1480 1.264 . S
C1481 C1483 1.339 . S
C1481 H1508 0.931 . S
C1482 C1483 1.395 . S
C1482 C1484 1.320 . S
C1483 C1481 1.339 . S
C1483 C1482 1.395 . S
C1483 H1509 0.929 . S
C1484 C1482 1.320 . S
C1484 C1485 1.405 . S
C1484 H1510 0.930 . S
C1485 C1480 1.479 . S
C1485 C1484 1.405 . S
C1485 H1511 0.931 . S
U1486 O1487 2.454 . S
U1486 O1488 2.458 . S
U1486 C1489 2.984 . S
U1486 C1490 2.847 . S
U1486 C1503 2.882 . S
U1486 O1504 2.441 . S
U1486 O1505 2.420 . S
U1486 O1506 2.455 . S
U1486 O1507 2.449 . S
O1487 U1486 2.454 . S
O1487 C1489 1.353 . S
O1488 U1486 2.458 . S
O1488 C1489 1.286 . S
C1489 U1486 2.984 . S
C1489 O1487 1.353 . S
C1489 O1488 1.286 . S
C1489 C1491 1.363 . S
C1490 C1480 1.465 . S
C1490 U1486 2.847 . S
C1490 O1504 1.249 . S
C1490 O1505 1.202 . S
C1491 C1489 1.363 . S
C1491 C1493 1.408 . S
C1491 C1496 1.342 . S
C1492 C1493 1.310 . S
C1492 C1495 1.461 . S
C1492 H1512 0.932 . S
C1493 C1491 1.408 . S
C1493 C1492 1.310 . S
C1493 H1513 0.930 . S
C1494 C1495 1.474 . S
C1494 C1496 1.285 . S
C1494 H1514 0.929 . S
C1495 C1492 1.461 . S
C1495 C1494 1.474 . S
C1496 C1491 1.342 . S
C1496 C1494 1.285 . S
C1496 H1515 0.930 . S
C1497 C1500 1.424 . S
C1497 C1502 1.245 . S
C1497 C1503 1.428 . S
C1498 C1501 1.260 . S
C1498 C1502 1.477 . S
C1498 H1516 0.932 . S
C1499 C1500 1.384 . S
C1499 C1501 1.479 . S
C1499 H1517 0.929 . S
C1500 C1497 1.424 . S
C1500 C1499 1.384 . S
C1500 H1518 0.928 . S
C1501 C1498 1.260 . S
C1501 C1499 1.479 . S
C1502 C1497 1.245 . S
C1502 C1498 1.477 . S
C1502 H1519 0.932 . S
C1503 U1486 2.882 . S
C1503 C1497 1.428 . S
C1503 O1506 1.301 . S
C1503 O1507 1.282 . S
O1504 U1486 2.441 . S
O1504 C1490 1.249 . S
O1505 U1486 2.420 . S
O1505 C1490 1.202 . S
O1506 U1486 2.455 . S
O1506 C1503 1.301 . S
O1507 U1486 2.449 . S
O1507 C1503 1.282 . S
H1508 C1481 0.931 . S
H1509 C1483 0.929 . S
H1510 C1484 0.930 . S
H1511 C1485 0.931 . S
H1512 C1492 0.932 . S
H1513 C1493 0.930 . S
H1514 C1494 0.929 . S
H1515 C1496 0.930 . S
H1516 C1498 0.932 . S
H1517 C1499 0.929 . S
H1518 C1500 0.928 . S
H1519 C1502 0.932 . S
C1520 C1521 1.264 . S
C1520 C1525 1.479 . S
C1520 C1530 1.465 . S
C1521 C1520 1.264 . S
C1521 C1523 1.339 . S
C1521 H1548 0.931 . S
C1522 C1523 1.395 . S
C1522 C1524 1.320 . S
C1523 C1521 1.339 . S
C1523 C1522 1.395 . S
C1523 H1549 0.929 . S
C1524 C1522 1.320 . S
C1524 C1525 1.405 . S
C1524 H1550 0.930 . S
C1525 C1520 1.479 . S
C1525 C1524 1.405 . S
C1525 H1551 0.931 . S
U1526 O1527 2.454 . S
U1526 O1528 2.458 . S
U1526 C1529 2.984 . S
U1526 C1530 2.847 . S
U1526 C1543 2.882 . S
U1526 O1544 2.441 . S
U1526 O1545 2.420 . S
U1526 O1546 2.455 . S
U1526 O1547 2.449 . S
O1527 U1526 2.454 . S
O1527 C1529 1.353 . S
O1528 U1526 2.458 . S
O1528 C1529 1.286 . S
C1529 U1526 2.984 . S
C1529 O1527 1.353 . S
C1529 O1528 1.286 . S
C1529 C1531 1.363 . S
C1530 C1520 1.465 . S
C1530 U1526 2.847 . S
C1530 O1544 1.249 . S
C1530 O1545 1.202 . S
C1531 C1529 1.363 . S
C1531 C1533 1.408 . S
C1531 C1536 1.342 . S
C1532 C1533 1.310 . S
C1532 C1535 1.461 . S
C1532 H1552 0.932 . S
C1533 C1531 1.408 . S
C1533 C1532 1.310 . S
C1533 H1553 0.930 . S
C1534 C1535 1.474 . S
C1534 C1536 1.285 . S
C1534 H1554 0.929 . S
C1535 C1532 1.461 . S
C1535 C1534 1.474 . S
C1536 C1531 1.342 . S
C1536 C1534 1.285 . S
C1536 H1555 0.930 . S
C1537 C1540 1.424 . S
C1537 C1542 1.245 . S
C1537 C1543 1.428 . S
C1538 C1541 1.260 . S
C1538 C1542 1.477 . S
C1538 H1556 0.932 . S
C1539 C1540 1.384 . S
C1539 C1541 1.479 . S
C1539 H1557 0.929 . S
C1540 C1537 1.424 . S
C1540 C1539 1.384 . S
C1540 H1558 0.928 . S
C1541 C1538 1.260 . S
C1541 C1539 1.479 . S
C1542 C1537 1.245 . S
C1542 C1538 1.477 . S
C1542 H1559 0.932 . S
C1543 U1526 2.882 . S
C1543 C1537 1.428 . S
C1543 O1546 1.301 . S
C1543 O1547 1.282 . S
O1544 U1526 2.441 . S
O1544 C1530 1.249 . S
O1545 U1526 2.420 . S
O1545 C1530 1.202 . S
O1546 U1526 2.455 . S
O1546 C1543 1.301 . S
O1547 U1526 2.449 . S
O1547 C1543 1.282 . S
H1548 C1521 0.931 . S
H1549 C1523 0.929 . S
H1550 C1524 0.930 . S
H1551 C1525 0.931 . S
H1552 C1532 0.932 . S
H1553 C1533 0.930 . S
H1554 C1534 0.929 . S
H1555 C1536 0.930 . S
H1556 C1538 0.932 . S
H1557 C1539 0.929 . S
H1558 C1540 0.928 . S
H1559 C1542 0.932 . S
C1560 C1561 1.264 . S
C1560 C1565 1.479 . S
C1560 C1570 1.465 . S
C1561 C1560 1.264 . S
C1561 C1563 1.339 . S
C1561 H1588 0.931 . S
C1562 C1563 1.395 . S
C1562 C1564 1.320 . S
C1563 C1561 1.339 . S
C1563 C1562 1.395 . S
C1563 H1589 0.929 . S
C1564 C1562 1.320 . S
C1564 C1565 1.405 . S
C1564 H1590 0.930 . S
C1565 C1560 1.479 . S
C1565 C1564 1.405 . S
C1565 H1591 0.931 . S
U1566 O1567 2.454 . S
U1566 O1568 2.458 . S
U1566 C1569 2.984 . S
U1566 C1570 2.847 . S
U1566 C1583 2.882 . S
U1566 O1584 2.441 . S
U1566 O1585 2.420 . S
U1566 O1586 2.455 . S
U1566 O1587 2.449 . S
O1567 U1566 2.454 . S
O1567 C1569 1.353 . S
O1568 U1566 2.458 . S
O1568 C1569 1.286 . S
C1569 U1566 2.984 . S
C1569 O1567 1.353 . S
C1569 O1568 1.286 . S
C1569 C1571 1.363 . S
C1570 C1560 1.465 . S
C1570 U1566 2.847 . S
C1570 O1584 1.249 . S
C1570 O1585 1.202 . S
C1571 C1569 1.363 . S
C1571 C1573 1.408 . S
C1571 C1576 1.342 . S
C1572 C1573 1.310 . S
C1572 C1575 1.461 . S
C1572 H1592 0.932 . S
C1573 C1571 1.408 . S
C1573 C1572 1.310 . S
C1573 H1593 0.930 . S
C1574 C1575 1.474 . S
C1574 C1576 1.285 . S
C1574 H1594 0.929 . S
C1575 C1572 1.461 . S
C1575 C1574 1.474 . S
C1576 C1571 1.342 . S
C1576 C1574 1.285 . S
C1576 H1595 0.930 . S
C1577 C1580 1.424 . S
C1577 C1582 1.245 . S
C1577 C1583 1.428 . S
C1578 C1581 1.260 . S
C1578 C1582 1.477 . S
C1578 H1596 0.932 . S
C1579 C1580 1.384 . S
C1579 C1581 1.479 . S
C1579 H1597 0.929 . S
C1580 C1577 1.424 . S
C1580 C1579 1.384 . S
C1580 H1598 0.928 . S
C1581 C1578 1.260 . S
C1581 C1579 1.479 . S
C1582 C1577 1.245 . S
C1582 C1578 1.477 . S
C1582 H1599 0.932 . S
C1583 U1566 2.882 . S
C1583 C1577 1.428 . S
C1583 O1586 1.301 . S
C1583 O1587 1.282 . S
O1584 U1566 2.441 . S
O1584 C1570 1.249 . S
O1585 U1566 2.420 . S
O1585 C1570 1.202 . S
O1586 U1566 2.455 . S
O1586 C1583 1.301 . S
O1587 U1566 2.449 . S
O1587 C1583 1.282 . S
H1588 C1561 0.931 . S
H1589 C1563 0.929 . S
H1590 C1564 0.930 . S
H1591 C1565 0.931 . S
H1592 C1572 0.932 . S
H1593 C1573 0.930 . S
H1594 C1574 0.929 . S
H1595 C1576 0.930 . S
H1596 C1578 0.932 . S
H1597 C1579 0.929 . S
H1598 C1580 0.928 . S
H1599 C1582 0.932 . S
C1600 C1601 1.264 . S
C1600 C1605 1.479 . S
C1600 C1610 1.465 . S
C1601 C1600 1.264 . S
C1601 C1603 1.339 . S
C1601 H1628 0.931 . S
C1602 C1603 1.395 . S
C1602 C1604 1.320 . S
C1603 C1601 1.339 . S
C1603 C1602 1.395 . S
C1603 H1629 0.929 . S
C1604 C1602 1.320 . S
C1604 C1605 1.405 . S
C1604 H1630 0.930 . S
C1605 C1600 1.479 . S
C1605 C1604 1.405 . S
C1605 H1631 0.931 . S
U1606 O1607 2.454 . S
U1606 O1608 2.458 . S
U1606 C1609 2.984 . S
U1606 C1610 2.847 . S
U1606 C1623 2.882 . S
U1606 O1624 2.441 . S
U1606 O1625 2.420 . S
U1606 O1626 2.455 . S
U1606 O1627 2.449 . S
O1607 U1606 2.454 . S
O1607 C1609 1.353 . S
O1608 U1606 2.458 . S
O1608 C1609 1.286 . S
C1609 U1606 2.984 . S
C1609 O1607 1.353 . S
C1609 O1608 1.286 . S
C1609 C1611 1.363 . S
C1610 C1600 1.465 . S
C1610 U1606 2.847 . S
C1610 O1624 1.249 . S
C1610 O1625 1.202 . S
C1611 C1609 1.363 . S
C1611 C1613 1.408 . S
C1611 C1616 1.342 . S
C1612 C1613 1.310 . S
C1612 C1615 1.461 . S
C1612 H1632 0.932 . S
C1613 C1611 1.408 . S
C1613 C1612 1.310 . S
C1613 H1633 0.930 . S
C1614 C1615 1.474 . S
C1614 C1616 1.285 . S
C1614 H1634 0.929 . S
C1615 C1612 1.461 . S
C1615 C1614 1.474 . S
C1616 C1611 1.342 . S
C1616 C1614 1.285 . S
C1616 H1635 0.930 . S
C1617 C1620 1.424 . S
C1617 C1622 1.245 . S
C1617 C1623 1.428 . S
C1618 C1621 1.260 . S
C1618 C1622 1.477 . S
C1618 H1636 0.932 . S
C1619 C1620 1.384 . S
C1619 C1621 1.479 . S
C1619 H1637 0.929 . S
C1620 C1617 1.424 . S
C1620 C1619 1.384 . S
C1620 H1638 0.928 . S
C1621 C1618 1.260 . S
C1621 C1619 1.479 . S
C1622 C1617 1.245 . S
C1622 C1618 1.477 . S
C1622 H1639 0.932 . S
C1623 U1606 2.882 . S
C1623 C1617 1.428 . S
C1623 O1626 1.301 . S
C1623 O1627 1.282 . S
O1624 U1606 2.441 . S
O1624 C1610 1.249 . S
O1625 U1606 2.420 . S
O1625 C1610 1.202 . S
O1626 U1606 2.455 . S
O1626 C1623 1.301 . S
O1627 U1606 2.449 . S
O1627 C1623 1.282 . S
H1628 C1601 0.931 . S
H1629 C1603 0.929 . S
H1630 C1604 0.930 . S
H1631 C1605 0.931 . S
H1632 C1612 0.932 . S
H1633 C1613 0.930 . S
H1634 C1614 0.929 . S
H1635 C1616 0.930 . S
H1636 C1618 0.932 . S
H1637 C1619 0.929 . S
H1638 C1620 0.928 . S
H1639 C1622 0.932 . S
C1640 C1641 1.264 . S
C1640 C1645 1.479 . S
C1640 C1650 1.465 . S
C1641 C1640 1.264 . S
C1641 C1643 1.339 . S
C1641 H1668 0.931 . S
C1642 C1643 1.395 . S
C1642 C1644 1.320 . S
C1643 C1641 1.339 . S
C1643 C1642 1.395 . S
C1643 H1669 0.929 . S
C1644 C1642 1.320 . S
C1644 C1645 1.405 . S
C1644 H1670 0.930 . S
C1645 C1640 1.479 . S
C1645 C1644 1.405 . S
C1645 H1671 0.931 . S
U1646 O1647 2.454 . S
U1646 O1648 2.458 . S
U1646 C1649 2.984 . S
U1646 C1650 2.847 . S
U1646 C1663 2.882 . S
U1646 O1664 2.441 . S
U1646 O1665 2.420 . S
U1646 O1666 2.455 . S
U1646 O1667 2.449 . S
O1647 U1646 2.454 . S
O1647 C1649 1.353 . S
O1648 U1646 2.458 . S
O1648 C1649 1.286 . S
C1649 U1646 2.984 . S
C1649 O1647 1.353 . S
C1649 O1648 1.286 . S
C1649 C1651 1.363 . S
C1650 C1640 1.465 . S
C1650 U1646 2.847 . S
C1650 O1664 1.249 . S
C1650 O1665 1.202 . S
C1651 C1649 1.363 . S
C1651 C1653 1.408 . S
C1651 C1656 1.342 . S
C1652 C1653 1.310 . S
C1652 C1655 1.461 . S
C1652 H1672 0.932 . S
C1653 C1651 1.408 . S
C1653 C1652 1.310 . S
C1653 H1673 0.930 . S
C1654 C1655 1.474 . S
C1654 C1656 1.285 . S
C1654 H1674 0.929 . S
C1655 C1652 1.461 . S
C1655 C1654 1.474 . S
C1656 C1651 1.342 . S
C1656 C1654 1.285 . S
C1656 H1675 0.930 . S
C1657 C1660 1.424 . S
C1657 C1662 1.245 . S
C1657 C1663 1.428 . S
C1658 C1661 1.260 . S
C1658 C1662 1.477 . S
C1658 H1676 0.932 . S
C1659 C1660 1.384 . S
C1659 C1661 1.479 . S
C1659 H1677 0.929 . S
C1660 C1657 1.424 . S
C1660 C1659 1.384 . S
C1660 H1678 0.928 . S
C1661 C1658 1.260 . S
C1661 C1659 1.479 . S
C1662 C1657 1.245 . S
C1662 C1658 1.477 . S
C1662 H1679 0.932 . S
C1663 U1646 2.882 . S
C1663 C1657 1.428 . S
C1663 O1666 1.301 . S
C1663 O1667 1.282 . S
O1664 U1646 2.441 . S
O1664 C1650 1.249 . S
O1665 U1646 2.420 . S
O1665 C1650 1.202 . S
O1666 U1646 2.455 . S
O1666 C1663 1.301 . S
O1667 U1646 2.449 . S
O1667 C1663 1.282 . S
H1668 C1641 0.931 . S
H1669 C1643 0.929 . S
H1670 C1644 0.930 . S
H1671 C1645 0.931 . S
H1672 C1652 0.932 . S
H1673 C1653 0.930 . S
H1674 C1654 0.929 . S
H1675 C1656 0.930 . S
H1676 C1658 0.932 . S
H1677 C1659 0.929 . S
H1678 C1660 0.928 . S
H1679 C1662 0.932 . S
C1680 C1681 1.264 . S
C1680 C1685 1.479 . S
C1680 C1690 1.465 . S
C1681 C1680 1.264 . S
C1681 C1683 1.339 . S
C1681 H1708 0.931 . S
C1682 C1683 1.395 . S
C1682 C1684 1.320 . S
C1683 C1681 1.339 . S
C1683 C1682 1.395 . S
C1683 H1709 0.929 . S
C1684 C1682 1.320 . S
C1684 C1685 1.405 . S
C1684 H1710 0.930 . S
C1685 C1680 1.479 . S
C1685 C1684 1.405 . S
C1685 H1711 0.931 . S
U1686 O1687 2.454 . S
U1686 O1688 2.458 . S
U1686 C1689 2.984 . S
U1686 C1690 2.847 . S
U1686 C1703 2.882 . S
U1686 O1704 2.441 . S
U1686 O1705 2.420 . S
U1686 O1706 2.455 . S
U1686 O1707 2.449 . S
O1687 U1686 2.454 . S
O1687 C1689 1.353 . S
O1688 U1686 2.458 . S
O1688 C1689 1.286 . S
C1689 U1686 2.984 . S
C1689 O1687 1.353 . S
C1689 O1688 1.286 . S
C1689 C1691 1.363 . S
C1690 C1680 1.465 . S
C1690 U1686 2.847 . S
C1690 O1704 1.249 . S
C1690 O1705 1.202 . S
C1691 C1689 1.363 . S
C1691 C1693 1.408 . S
C1691 C1696 1.342 . S
C1692 C1693 1.310 . S
C1692 C1695 1.461 . S
C1692 H1712 0.932 . S
C1693 C1691 1.408 . S
C1693 C1692 1.310 . S
C1693 H1713 0.930 . S
C1694 C1695 1.474 . S
C1694 C1696 1.285 . S
C1694 H1714 0.929 . S
C1695 C1692 1.461 . S
C1695 C1694 1.474 . S
C1696 C1691 1.342 . S
C1696 C1694 1.285 . S
C1696 H1715 0.930 . S
C1697 C1700 1.424 . S
C1697 C1702 1.245 . S
C1697 C1703 1.428 . S
C1698 C1701 1.260 . S
C1698 C1702 1.477 . S
C1698 H1716 0.932 . S
C1699 C1700 1.384 . S
C1699 C1701 1.479 . S
C1699 H1717 0.929 . S
C1700 C1697 1.424 . S
C1700 C1699 1.384 . S
C1700 H1718 0.928 . S
C1701 C1698 1.260 . S
C1701 C1699 1.479 . S
C1702 C1697 1.245 . S
C1702 C1698 1.477 . S
C1702 H1719 0.932 . S
C1703 U1686 2.882 . S
C1703 C1697 1.428 . S
C1703 O1706 1.301 . S
C1703 O1707 1.282 . S
O1704 U1686 2.441 . S
O1704 C1690 1.249 . S
O1705 U1686 2.420 . S
O1705 C1690 1.202 . S
O1706 U1686 2.455 . S
O1706 C1703 1.301 . S
O1707 U1686 2.449 . S
O1707 C1703 1.282 . S
H1708 C1681 0.931 . S
H1709 C1683 0.929 . S
H1710 C1684 0.930 . S
H1711 C1685 0.931 . S
H1712 C1692 0.932 . S
H1713 C1693 0.930 . S
H1714 C1694 0.929 . S
H1715 C1696 0.930 . S
H1716 C1698 0.932 . S
H1717 C1699 0.929 . S
H1718 C1700 0.928 . S
H1719 C1702 0.932 . S
C1720 C1721 1.264 . S
C1720 C1725 1.479 . S
C1720 C1730 1.465 . S
C1721 C1720 1.264 . S
C1721 C1723 1.339 . S
C1721 H1748 0.931 . S
C1722 C1723 1.395 . S
C1722 C1724 1.320 . S
C1723 C1721 1.339 . S
C1723 C1722 1.395 . S
C1723 H1749 0.929 . S
C1724 C1722 1.320 . S
C1724 C1725 1.405 . S
C1724 H1750 0.930 . S
C1725 C1720 1.479 . S
C1725 C1724 1.405 . S
C1725 H1751 0.931 . S
U1726 O1727 2.454 . S
U1726 O1728 2.458 . S
U1726 C1729 2.984 . S
U1726 C1730 2.847 . S
U1726 C1743 2.882 . S
U1726 O1744 2.441 . S
U1726 O1745 2.420 . S
U1726 O1746 2.455 . S
U1726 O1747 2.449 . S
O1727 U1726 2.454 . S
O1727 C1729 1.353 . S
O1728 U1726 2.458 . S
O1728 C1729 1.286 . S
C1729 U1726 2.984 . S
C1729 O1727 1.353 . S
C1729 O1728 1.286 . S
C1729 C1731 1.363 . S
C1730 C1720 1.465 . S
C1730 U1726 2.847 . S
C1730 O1744 1.249 . S
C1730 O1745 1.202 . S
C1731 C1729 1.363 . S
C1731 C1733 1.408 . S
C1731 C1736 1.342 . S
C1732 C1733 1.310 . S
C1732 C1735 1.461 . S
C1732 H1752 0.932 . S
C1733 C1731 1.408 . S
C1733 C1732 1.310 . S
C1733 H1753 0.930 . S
C1734 C1735 1.474 . S
C1734 C1736 1.285 . S
C1734 H1754 0.929 . S
C1735 C1732 1.461 . S
C1735 C1734 1.474 . S
C1736 C1731 1.342 . S
C1736 C1734 1.285 . S
C1736 H1755 0.930 . S
C1737 C1740 1.424 . S
C1737 C1742 1.245 . S
C1737 C1743 1.428 . S
C1738 C1741 1.260 . S
C1738 C1742 1.477 . S
C1738 H1756 0.932 . S
C1739 C1740 1.384 . S
C1739 C1741 1.479 . S
C1739 H1757 0.929 . S
C1740 C1737 1.424 . S
C1740 C1739 1.384 . S
C1740 H1758 0.928 . S
C1741 C1738 1.260 . S
C1741 C1739 1.479 . S
C1742 C1737 1.245 . S
C1742 C1738 1.477 . S
C1742 H1759 0.932 . S
C1743 U1726 2.882 . S
C1743 C1737 1.428 . S
C1743 O1746 1.301 . S
C1743 O1747 1.282 . S
O1744 U1726 2.441 . S
O1744 C1730 1.249 . S
O1745 U1726 2.420 . S
O1745 C1730 1.202 . S
O1746 U1726 2.455 . S
O1746 C1743 1.301 . S
O1747 U1726 2.449 . S
O1747 C1743 1.282 . S
H1748 C1721 0.931 . S
H1749 C1723 0.929 . S
H1750 C1724 0.930 . S
H1751 C1725 0.931 . S
H1752 C1732 0.932 . S
H1753 C1733 0.930 . S
H1754 C1734 0.929 . S
H1755 C1736 0.930 . S
H1756 C1738 0.932 . S
H1757 C1739 0.929 . S
H1758 C1740 0.928 . S
H1759 C1742 0.932 . S
C1760 C1761 1.264 . S
C1760 C1765 1.479 . S
C1760 C1770 1.465 . S
C1761 C1760 1.264 . S
C1761 C1763 1.339 . S
C1761 H1788 0.931 . S
C1762 C1763 1.395 . S
C1762 C1764 1.320 . S
C1763 C1761 1.339 . S
C1763 C1762 1.395 . S
C1763 H1789 0.929 . S
C1764 C1762 1.320 . S
C1764 C1765 1.405 . S
C1764 H1790 0.930 . S
C1765 C1760 1.479 . S
C1765 C1764 1.405 . S
C1765 H1791 0.931 . S
U1766 O1767 2.454 . S
U1766 O1768 2.458 . S
U1766 C1769 2.984 . S
U1766 C1770 2.847 . S
U1766 C1783 2.882 . S
U1766 O1784 2.441 . S
U1766 O1785 2.420 . S
U1766 O1786 2.455 . S
U1766 O1787 2.449 . S
O1767 U1766 2.454 . S
O1767 C1769 1.353 . S
O1768 U1766 2.458 . S
O1768 C1769 1.286 . S
C1769 U1766 2.984 . S
C1769 O1767 1.353 . S
C1769 O1768 1.286 . S
C1769 C1771 1.363 . S
C1770 C1760 1.465 . S
C1770 U1766 2.847 . S
C1770 O1784 1.249 . S
C1770 O1785 1.202 . S
C1771 C1769 1.363 . S
C1771 C1773 1.408 . S
C1771 C1776 1.342 . S
C1772 C1773 1.310 . S
C1772 C1775 1.461 . S
C1772 H1792 0.932 . S
C1773 C1771 1.408 . S
C1773 C1772 1.310 . S
C1773 H1793 0.930 . S
C1774 C1775 1.474 . S
C1774 C1776 1.285 . S
C1774 H1794 0.929 . S
C1775 C1772 1.461 . S
C1775 C1774 1.474 . S
C1776 C1771 1.342 . S
C1776 C1774 1.285 . S
C1776 H1795 0.930 . S
C1777 C1780 1.424 . S
C1777 C1782 1.245 . S
C1777 C1783 1.428 . S
C1778 C1781 1.260 . S
C1778 C1782 1.477 . S
C1778 H1796 0.932 . S
C1779 C1780 1.384 . S
C1779 C1781 1.479 . S
C1779 H1797 0.929 . S
C1780 C1777 1.424 . S
C1780 C1779 1.384 . S
C1780 H1798 0.928 . S
C1781 C1778 1.260 . S
C1781 C1779 1.479 . S
C1782 C1777 1.245 . S
C1782 C1778 1.477 . S
C1782 H1799 0.932 . S
C1783 U1766 2.882 . S
C1783 C1777 1.428 . S
C1783 O1786 1.301 . S
C1783 O1787 1.282 . S
O1784 U1766 2.441 . S
O1784 C1770 1.249 . S
O1785 U1766 2.420 . S
O1785 C1770 1.202 . S
O1786 U1766 2.455 . S
O1786 C1783 1.301 . S
O1787 U1766 2.449 . S
O1787 C1783 1.282 . S
H1788 C1761 0.931 . S
H1789 C1763 0.929 . S
H1790 C1764 0.930 . S
H1791 C1765 0.931 . S
H1792 C1772 0.932 . S
H1793 C1773 0.930 . S
H1794 C1774 0.929 . S
H1795 C1776 0.930 . S
H1796 C1778 0.932 . S
H1797 C1779 0.929 . S
H1798 C1780 0.928 . S
H1799 C1782 0.932 . S
C1800 C1801 1.264 . S
C1800 C1805 1.479 . S
C1800 C1810 1.465 . S
C1801 C1800 1.264 . S
C1801 C1803 1.339 . S
C1801 H1828 0.931 . S
C1802 C1803 1.395 . S
C1802 C1804 1.320 . S
C1803 C1801 1.339 . S
C1803 C1802 1.395 . S
C1803 H1829 0.929 . S
C1804 C1802 1.320 . S
C1804 C1805 1.405 . S
C1804 H1830 0.930 . S
C1805 C1800 1.479 . S
C1805 C1804 1.405 . S
C1805 H1831 0.931 . S
U1806 O1807 2.454 . S
U1806 O1808 2.458 . S
U1806 C1809 2.984 . S
U1806 C1810 2.847 . S
U1806 C1823 2.882 . S
U1806 O1824 2.441 . S
U1806 O1825 2.420 . S
U1806 O1826 2.455 . S
U1806 O1827 2.449 . S
O1807 U1806 2.454 . S
O1807 C1809 1.353 . S
O1808 U1806 2.458 . S
O1808 C1809 1.286 . S
C1809 U1806 2.984 . S
C1809 O1807 1.353 . S
C1809 O1808 1.286 . S
C1809 C1811 1.363 . S
C1810 C1800 1.465 . S
C1810 U1806 2.847 . S
C1810 O1824 1.249 . S
C1810 O1825 1.202 . S
C1811 C1809 1.363 . S
C1811 C1813 1.408 . S
C1811 C1816 1.342 . S
C1812 C1813 1.310 . S
C1812 C1815 1.461 . S
C1812 H1832 0.932 . S
C1813 C1811 1.408 . S
C1813 C1812 1.310 . S
C1813 H1833 0.930 . S
C1814 C1815 1.474 . S
C1814 C1816 1.285 . S
C1814 H1834 0.929 . S
C1815 C1812 1.461 . S
C1815 C1814 1.474 . S
C1816 C1811 1.342 . S
C1816 C1814 1.285 . S
C1816 H1835 0.930 . S
C1817 C1820 1.424 . S
C1817 C1822 1.245 . S
C1817 C1823 1.428 . S
C1818 C1821 1.260 . S
C1818 C1822 1.477 . S
C1818 H1836 0.932 . S
C1819 C1820 1.384 . S
C1819 C1821 1.479 . S
C1819 H1837 0.929 . S
C1820 C1817 1.424 . S
C1820 C1819 1.384 . S
C1820 H1838 0.928 . S
C1821 C1818 1.260 . S
C1821 C1819 1.479 . S
C1822 C1817 1.245 . S
C1822 C1818 1.477 . S
C1822 H1839 0.932 . S
C1823 U1806 2.882 . S
C1823 C1817 1.428 . S
C1823 O1826 1.301 . S
C1823 O1827 1.282 . S
O1824 U1806 2.441 . S
O1824 C1810 1.249 . S
O1825 U1806 2.420 . S
O1825 C1810 1.202 . S
O1826 U1806 2.455 . S
O1826 C1823 1.301 . S
O1827 U1806 2.449 . S
O1827 C1823 1.282 . S
H1828 C1801 0.931 . S
H1829 C1803 0.929 . S
H1830 C1804 0.930 . S
H1831 C1805 0.931 . S
H1832 C1812 0.932 . S
H1833 C1813 0.930 . S
H1834 C1814 0.929 . S
H1835 C1816 0.930 . S
H1836 C1818 0.932 . S
H1837 C1819 0.929 . S
H1838 C1820 0.928 . S
H1839 C1822 0.932 . S
C1840 C1841 1.264 . S
C1840 C1845 1.479 . S
C1840 C1850 1.465 . S
C1841 C1840 1.264 . S
C1841 C1843 1.339 . S
C1841 H1868 0.931 . S
C1842 C1843 1.395 . S
C1842 C1844 1.320 . S
C1843 C1841 1.339 . S
C1843 C1842 1.395 . S
C1843 H1869 0.929 . S
C1844 C1842 1.320 . S
C1844 C1845 1.405 . S
C1844 H1870 0.930 . S
C1845 C1840 1.479 . S
C1845 C1844 1.405 . S
C1845 H1871 0.931 . S
U1846 O1847 2.454 . S
U1846 O1848 2.458 . S
U1846 C1849 2.984 . S
U1846 C1850 2.847 . S
U1846 C1863 2.882 . S
U1846 O1864 2.441 . S
U1846 O1865 2.420 . S
U1846 O1866 2.455 . S
U1846 O1867 2.449 . S
O1847 U1846 2.454 . S
O1847 C1849 1.353 . S
O1848 U1846 2.458 . S
O1848 C1849 1.286 . S
C1849 U1846 2.984 . S
C1849 O1847 1.353 . S
C1849 O1848 1.286 . S
C1849 C1851 1.363 . S
C1850 C1840 1.465 . S
C1850 U1846 2.847 . S
C1850 O1864 1.249 . S
C1850 O1865 1.202 . S
C1851 C1849 1.363 . S
C1851 C1853 1.408 . S
C1851 C1856 1.342 . S
C1852 C1853 1.310 . S
C1852 C1855 1.461 . S
C1852 H1872 0.932 . S
C1853 C1851 1.408 . S
C1853 C1852 1.310 . S
C1853 H1873 0.930 . S
C1854 C1855 1.474 . S
C1854 C1856 1.285 . S
C1854 H1874 0.929 . S
C1855 C1852 1.461 . S
C1855 C1854 1.474 . S
C1856 C1851 1.342 . S
C1856 C1854 1.285 . S
C1856 H1875 0.930 . S
C1857 C1860 1.424 . S
C1857 C1862 1.245 . S
C1857 C1863 1.428 . S
C1858 C1861 1.260 . S
C1858 C1862 1.477 . S
C1858 H1876 0.932 . S
C1859 C1860 1.384 . S
C1859 C1861 1.479 . S
C1859 H1877 0.929 . S
C1860 C1857 1.424 . S
C1860 C1859 1.384 . S
C1860 H1878 0.928 . S
C1861 C1858 1.260 . S
C1861 C1859 1.479 . S
C1862 C1857 1.245 . S
C1862 C1858 1.477 . S
C1862 H1879 0.932 . S
C1863 U1846 2.882 . S
C1863 C1857 1.428 . S
C1863 O1866 1.301 . S
C1863 O1867 1.282 . S
O1864 U1846 2.441 . S
O1864 C1850 1.249 . S
O1865 U1846 2.420 . S
O1865 C1850 1.202 . S
O1866 U1846 2.455 . S
O1866 C1863 1.301 . S
O1867 U1846 2.449 . S
O1867 C1863 1.282 . S
H1868 C1841 0.931 . S
H1869 C1843 0.929 . S
H1870 C1844 0.930 . S
H1871 C1845 0.931 . S
H1872 C1852 0.932 . S
H1873 C1853 0.930 . S
H1874 C1854 0.929 . S
H1875 C1856 0.930 . S
H1876 C1858 0.932 . S
H1877 C1859 0.929 . S
H1878 C1860 0.928 . S
H1879 C1862 0.932 . S
C1880 C1881 1.264 . S
C1880 C1885 1.479 . S
C1880 C1890 1.465 . S
C1881 C1880 1.264 . S
C1881 C1883 1.339 . S
C1881 H1908 0.931 . S
C1882 C1883 1.395 . S
C1882 C1884 1.320 . S
C1883 C1881 1.339 . S
C1883 C1882 1.395 . S
C1883 H1909 0.929 . S
C1884 C1882 1.320 . S
C1884 C1885 1.405 . S
C1884 H1910 0.930 . S
C1885 C1880 1.479 . S
C1885 C1884 1.405 . S
C1885 H1911 0.931 . S
U1886 O1887 2.454 . S
U1886 O1888 2.458 . S
U1886 C1889 2.984 . S
U1886 C1890 2.847 . S
U1886 C1903 2.882 . S
U1886 O1904 2.441 . S
U1886 O1905 2.420 . S
U1886 O1906 2.455 . S
U1886 O1907 2.449 . S
O1887 U1886 2.454 . S
O1887 C1889 1.353 . S
O1888 U1886 2.458 . S
O1888 C1889 1.286 . S
C1889 U1886 2.984 . S
C1889 O1887 1.353 . S
C1889 O1888 1.286 . S
C1889 C1891 1.363 . S
C1890 C1880 1.465 . S
C1890 U1886 2.847 . S
C1890 O1904 1.249 . S
C1890 O1905 1.202 . S
C1891 C1889 1.363 . S
C1891 C1893 1.408 . S
C1891 C1896 1.342 . S
C1892 C1893 1.310 . S
C1892 C1895 1.461 . S
C1892 H1912 0.932 . S
C1893 C1891 1.408 . S
C1893 C1892 1.310 . S
C1893 H1913 0.930 . S
C1894 C1895 1.474 . S
C1894 C1896 1.285 . S
C1894 H1914 0.929 . S
C1895 C1892 1.461 . S
C1895 C1894 1.474 . S
C1896 C1891 1.342 . S
C1896 C1894 1.285 . S
C1896 H1915 0.930 . S
C1897 C1900 1.424 . S
C1897 C1902 1.245 . S
C1897 C1903 1.428 . S
C1898 C1901 1.260 . S
C1898 C1902 1.477 . S
C1898 H1916 0.932 . S
C1899 C1900 1.384 . S
C1899 C1901 1.479 . S
C1899 H1917 0.929 . S
C1900 C1897 1.424 . S
C1900 C1899 1.384 . S
C1900 H1918 0.928 . S
C1901 C1898 1.260 . S
C1901 C1899 1.479 . S
C1902 C1897 1.245 . S
C1902 C1898 1.477 . S
C1902 H1919 0.932 . S
C1903 U1886 2.882 . S
C1903 C1897 1.428 . S
C1903 O1906 1.301 . S
C1903 O1907 1.282 . S
O1904 U1886 2.441 . S
O1904 C1890 1.249 . S
O1905 U1886 2.420 . S
O1905 C1890 1.202 . S
O1906 U1886 2.455 . S
O1906 C1903 1.301 . S
O1907 U1886 2.449 . S
O1907 C1903 1.282 . S
H1908 C1881 0.931 . S
H1909 C1883 0.929 . S
H1910 C1884 0.930 . S
H1911 C1885 0.931 . S
H1912 C1892 0.932 . S
H1913 C1893 0.930 . S
H1914 C1894 0.929 . S
H1915 C1896 0.930 . S
H1916 C1898 0.932 . S
H1917 C1899 0.929 . S
H1918 C1900 0.928 . S
H1919 C1902 0.932 . S
C1920 C1921 1.264 . S
C1920 C1925 1.479 . S
C1920 C1930 1.465 . S
C1921 C1920 1.264 . S
C1921 C1923 1.339 . S
C1921 H1948 0.931 . S
C1922 C1923 1.395 . S
C1922 C1924 1.320 . S
C1923 C1921 1.339 . S
C1923 C1922 1.395 . S
C1923 H1949 0.929 . S
C1924 C1922 1.320 . S
C1924 C1925 1.405 . S
C1924 H1950 0.930 . S
C1925 C1920 1.479 . S
C1925 C1924 1.405 . S
C1925 H1951 0.931 . S
U1926 O1927 2.454 . S
U1926 O1928 2.458 . S
U1926 C1929 2.984 . S
U1926 C1930 2.847 . S
U1926 C1943 2.882 . S
U1926 O1944 2.441 . S
U1926 O1945 2.420 . S
U1926 O1946 2.455 . S
U1926 O1947 2.449 . S
O1927 U1926 2.454 . S
O1927 C1929 1.353 . S
O1928 U1926 2.458 . S
O1928 C1929 1.286 . S
C1929 U1926 2.984 . S
C1929 O1927 1.353 . S
C1929 O1928 1.286 . S
C1929 C1931 1.363 . S
C1930 C1920 1.465 . S
C1930 U1926 2.847 . S
C1930 O1944 1.249 . S
C1930 O1945 1.202 . S
C1931 C1929 1.363 . S
C1931 C1933 1.408 . S
C1931 C1936 1.342 . S
C1932 C1933 1.310 . S
C1932 C1935 1.461 . S
C1932 H1952 0.932 . S
C1933 C1931 1.408 . S
C1933 C1932 1.310 . S
C1933 H1953 0.930 . S
C1934 C1935 1.474 . S
C1934 C1936 1.285 . S
C1934 H1954 0.929 . S
C1935 C1932 1.461 . S
C1935 C1934 1.474 . S
C1936 C1931 1.342 . S
C1936 C1934 1.285 . S
C1936 H1955 0.930 . S
C1937 C1940 1.424 . S
C1937 C1942 1.245 . S
C1937 C1943 1.428 . S
C1938 C1941 1.260 . S
C1938 C1942 1.477 . S
C1938 H1956 0.932 . S
C1939 C1940 1.384 . S
C1939 C1941 1.479 . S
C1939 H1957 0.929 . S
C1940 C1937 1.424 . S
C1940 C1939 1.384 . S
C1940 H1958 0.928 . S
C1941 C1938 1.260 . S
C1941 C1939 1.479 . S
C1942 C1937 1.245 . S
C1942 C1938 1.477 . S
C1942 H1959 0.932 . S
C1943 U1926 2.882 . S
C1943 C1937 1.428 . S
C1943 O1946 1.301 . S
C1943 O1947 1.282 . S
O1944 U1926 2.441 . S
O1944 C1930 1.249 . S
O1945 U1926 2.420 . S
O1945 C1930 1.202 . S
O1946 U1926 2.455 . S
O1946 C1943 1.301 . S
O1947 U1926 2.449 . S
O1947 C1943 1.282 . S
H1948 C1921 0.931 . S
H1949 C1923 0.929 . S
H1950 C1924 0.930 . S
H1951 C1925 0.931 . S
H1952 C1932 0.932 . S
H1953 C1933 0.930 . S
H1954 C1934 0.929 . S
H1955 C1936 0.930 . S
H1956 C1938 0.932 . S
H1957 C1939 0.929 . S
H1958 C1940 0.928 . S
H1959 C1942 0.932 . S
C1960 C1961 1.264 . S
C1960 C1965 1.479 . S
C1960 C1970 1.465 . S
C1961 C1960 1.264 . S
C1961 C1963 1.339 . S
C1961 H1988 0.931 . S
C1962 C1963 1.395 . S
C1962 C1964 1.320 . S
C1963 C1961 1.339 . S
C1963 C1962 1.395 . S
C1963 H1989 0.929 . S
C1964 C1962 1.320 . S
C1964 C1965 1.405 . S
C1964 H1990 0.930 . S
C1965 C1960 1.479 . S
C1965 C1964 1.405 . S
C1965 H1991 0.931 . S
U1966 O1967 2.454 . S
U1966 O1968 2.458 . S
U1966 C1969 2.984 . S
U1966 C1970 2.847 . S
U1966 C1983 2.882 . S
U1966 O1984 2.441 . S
U1966 O1985 2.420 . S
U1966 O1986 2.455 . S
U1966 O1987 2.449 . S
O1967 U1966 2.454 . S
O1967 C1969 1.353 . S
O1968 U1966 2.458 . S
O1968 C1969 1.286 . S
C1969 U1966 2.984 . S
C1969 O1967 1.353 . S
C1969 O1968 1.286 . S
C1969 C1971 1.363 . S
C1970 C1960 1.465 . S
C1970 U1966 2.847 . S
C1970 O1984 1.249 . S
C1970 O1985 1.202 . S
C1971 C1969 1.363 . S
C1971 C1973 1.408 . S
C1971 C1976 1.342 . S
C1972 C1973 1.310 . S
C1972 C1975 1.461 . S
C1972 H1992 0.932 . S
C1973 C1971 1.408 . S
C1973 C1972 1.310 . S
C1973 H1993 0.930 . S
C1974 C1975 1.474 . S
C1974 C1976 1.285 . S
C1974 H1994 0.929 . S
C1975 C1972 1.461 . S
C1975 C1974 1.474 . S
C1976 C1971 1.342 . S
C1976 C1974 1.285 . S
C1976 H1995 0.930 . S
C1977 C1980 1.424 . S
C1977 C1982 1.245 . S
C1977 C1983 1.428 . S
C1978 C1981 1.260 . S
C1978 C1982 1.477 . S
C1978 H1996 0.932 . S
C1979 C1980 1.384 . S
C1979 C1981 1.479 . S
C1979 H1997 0.929 . S
C1980 C1977 1.424 . S
C1980 C1979 1.384 . S
C1980 H1998 0.928 . S
C1981 C1978 1.260 . S
C1981 C1979 1.479 . S
C1982 C1977 1.245 . S
C1982 C1978 1.477 . S
C1982 H1999 0.932 . S
C1983 U1966 2.882 . S
C1983 C1977 1.428 . S
C1983 O1986 1.301 . S
C1983 O1987 1.282 . S
O1984 U1966 2.441 . S
O1984 C1970 1.249 . S
O1985 U1966 2.420 . S
O1985 C1970 1.202 . S
O1986 U1966 2.455 . S
O1986 C1983 1.301 . S
O1987 U1966 2.449 . S
O1987 C1983 1.282 . S
H1988 C1961 0.931 . S
H1989 C1963 0.929 . S
H1990 C1964 0.930 . S
H1991 C1965 0.931 . S
H1992 C1972 0.932 . S
H1993 C1973 0.930 . S
H1994 C1974 0.929 . S
H1995 C1976 0.930 . S
H1996 C1978 0.932 . S
H1997 C1979 0.929 . S
H1998 C1980 0.928 . S
H1999 C1982 0.932 . S
C2000 C2001 1.264 . S
C2000 C2005 1.479 . S
C2000 C2010 1.465 . S
C2001 C2000 1.264 . S
C2001 C2003 1.339 . S
C2001 H2028 0.931 . S
C2002 C2003 1.395 . S
C2002 C2004 1.320 . S
C2003 C2001 1.339 . S
C2003 C2002 1.395 . S
C2003 H2029 0.929 . S
C2004 C2002 1.320 . S
C2004 C2005 1.405 . S
C2004 H2030 0.930 . S
C2005 C2000 1.479 . S
C2005 C2004 1.405 . S
C2005 H2031 0.931 . S
U2006 O2007 2.454 . S
U2006 O2008 2.458 . S
U2006 C2009 2.984 . S
U2006 C2010 2.847 . S
U2006 C2023 2.882 . S
U2006 O2024 2.441 . S
U2006 O2025 2.420 . S
U2006 O2026 2.455 . S
U2006 O2027 2.449 . S
O2007 U2006 2.454 . S
O2007 C2009 1.353 . S
O2008 U2006 2.458 . S
O2008 C2009 1.286 . S
C2009 U2006 2.984 . S
C2009 O2007 1.353 . S
C2009 O2008 1.286 . S
C2009 C2011 1.363 . S
C2010 C2000 1.465 . S
C2010 U2006 2.847 . S
C2010 O2024 1.249 . S
C2010 O2025 1.202 . S
C2011 C2009 1.363 . S
C2011 C2013 1.408 . S
C2011 C2016 1.342 . S
C2012 C2013 1.310 . S
C2012 C2015 1.461 . S
C2012 H2032 0.932 . S
C2013 C2011 1.408 . S
C2013 C2012 1.310 . S
C2013 H2033 0.930 . S
C2014 C2015 1.474 . S
C2014 C2016 1.285 . S
C2014 H2034 0.929 . S
C2015 C2012 1.461 . S
C2015 C2014 1.474 . S
C2016 C2011 1.342 . S
C2016 C2014 1.285 . S
C2016 H2035 0.930 . S
C2017 C2020 1.424 . S
C2017 C2022 1.245 . S
C2017 C2023 1.428 . S
C2018 C2021 1.260 . S
C2018 C2022 1.477 . S
C2018 H2036 0.932 . S
C2019 C2020 1.384 . S
C2019 C2021 1.479 . S
C2019 H2037 0.929 . S
C2020 C2017 1.424 . S
C2020 C2019 1.384 . S
C2020 H2038 0.928 . S
C2021 C2018 1.260 . S
C2021 C2019 1.479 . S
C2022 C2017 1.245 . S
C2022 C2018 1.477 . S
C2022 H2039 0.932 . S
C2023 U2006 2.882 . S
C2023 C2017 1.428 . S
C2023 O2026 1.301 . S
C2023 O2027 1.282 . S
O2024 U2006 2.441 . S
O2024 C2010 1.249 . S
O2025 U2006 2.420 . S
O2025 C2010 1.202 . S
O2026 U2006 2.455 . S
O2026 C2023 1.301 . S
O2027 U2006 2.449 . S
O2027 C2023 1.282 . S
H2028 C2001 0.931 . S
H2029 C2003 0.929 . S
H2030 C2004 0.930 . S
H2031 C2005 0.931 . S
H2032 C2012 0.932 . S
H2033 C2013 0.930 . S
H2034 C2014 0.929 . S
H2035 C2016 0.930 . S
H2036 C2018 0.932 . S
H2037 C2019 0.929 . S
H2038 C2020 0.928 . S
H2039 C2022 0.932 . S
C2040 C2041 1.264 . S
C2040 C2045 1.479 . S
C2040 C2050 1.465 . S
C2041 C2040 1.264 . S
C2041 C2043 1.339 . S
C2041 H2068 0.931 . S
C2042 C2043 1.395 . S
C2042 C2044 1.320 . S
C2043 C2041 1.339 . S
C2043 C2042 1.395 . S
C2043 H2069 0.929 . S
C2044 C2042 1.320 . S
C2044 C2045 1.405 . S
C2044 H2070 0.930 . S
C2045 C2040 1.479 . S
C2045 C2044 1.405 . S
C2045 H2071 0.931 . S
U2046 O2047 2.454 . S
U2046 O2048 2.458 . S
U2046 C2049 2.984 . S
U2046 C2050 2.847 . S
U2046 C2063 2.882 . S
U2046 O2064 2.441 . S
U2046 O2065 2.420 . S
U2046 O2066 2.455 . S
U2046 O2067 2.449 . S
O2047 U2046 2.454 . S
O2047 C2049 1.353 . S
O2048 U2046 2.458 . S
O2048 C2049 1.286 . S
C2049 U2046 2.984 . S
C2049 O2047 1.353 . S
C2049 O2048 1.286 . S
C2049 C2051 1.363 . S
C2050 C2040 1.465 . S
C2050 U2046 2.847 . S
C2050 O2064 1.249 . S
C2050 O2065 1.202 . S
C2051 C2049 1.363 . S
C2051 C2053 1.408 . S
C2051 C2056 1.342 . S
C2052 C2053 1.310 . S
C2052 C2055 1.461 . S
C2052 H2072 0.932 . S
C2053 C2051 1.408 . S
C2053 C2052 1.310 . S
C2053 H2073 0.930 . S
C2054 C2055 1.474 . S
C2054 C2056 1.285 . S
C2054 H2074 0.929 . S
C2055 C2052 1.461 . S
C2055 C2054 1.474 . S
C2056 C2051 1.342 . S
C2056 C2054 1.285 . S
C2056 H2075 0.930 . S
C2057 C2060 1.424 . S
C2057 C2062 1.245 . S
C2057 C2063 1.428 . S
C2058 C2061 1.260 . S
C2058 C2062 1.477 . S
C2058 H2076 0.932 . S
C2059 C2060 1.384 . S
C2059 C2061 1.479 . S
C2059 H2077 0.929 . S
C2060 C2057 1.424 . S
C2060 C2059 1.384 . S
C2060 H2078 0.928 . S
C2061 C2058 1.260 . S
C2061 C2059 1.479 . S
C2062 C2057 1.245 . S
C2062 C2058 1.477 . S
C2062 H2079 0.932 . S
C2063 U2046 2.882 . S
C2063 C2057 1.428 . S
C2063 O2066 1.301 . S
C2063 O2067 1.282 . S
O2064 U2046 2.441 . S
O2064 C2050 1.249 . S
O2065 U2046 2.420 . S
O2065 C2050 1.202 . S
O2066 U2046 2.455 . S
O2066 C2063 1.301 . S
O2067 U2046 2.449 . S
O2067 C2063 1.282 . S
H2068 C2041 0.931 . S
H2069 C2043 0.929 . S
H2070 C2044 0.930 . S
H2071 C2045 0.931 . S
H2072 C2052 0.932 . S
H2073 C2053 0.930 . S
H2074 C2054 0.929 . S
H2075 C2056 0.930 . S
H2076 C2058 0.932 . S
H2077 C2059 0.929 . S
H2078 C2060 0.928 . S
H2079 C2062 0.932 . S
C2080 C2081 1.264 . S
C2080 C2085 1.479 . S
C2080 C2090 1.465 . S
C2081 C2080 1.264 . S
C2081 C2083 1.339 . S
C2081 H2108 0.931 . S
C2082 C2083 1.395 . S
C2082 C2084 1.320 . S
C2083 C2081 1.339 . S
C2083 C2082 1.395 . S
C2083 H2109 0.929 . S
C2084 C2082 1.320 . S
C2084 C2085 1.405 . S
C2084 H2110 0.930 . S
C2085 C2080 1.479 . S
C2085 C2084 1.405 . S
C2085 H2111 0.931 . S
U2086 O2087 2.454 . S
U2086 O2088 2.458 . S
U2086 C2089 2.984 . S
U2086 C2090 2.847 . S
U2086 C2103 2.882 . S
U2086 O2104 2.441 . S
U2086 O2105 2.420 . S
U2086 O2106 2.455 . S
U2086 O2107 2.449 . S
O2087 U2086 2.454 . S
O2087 C2089 1.353 . S
O2088 U2086 2.458 . S
O2088 C2089 1.286 . S
C2089 U2086 2.984 . S
C2089 O2087 1.353 . S
C2089 O2088 1.286 . S
C2089 C2091 1.363 . S
C2090 C2080 1.465 . S
C2090 U2086 2.847 . S
C2090 O2104 1.249 . S
C2090 O2105 1.202 . S
C2091 C2089 1.363 . S
C2091 C2093 1.408 . S
C2091 C2096 1.342 . S
C2092 C2093 1.310 . S
C2092 C2095 1.461 . S
C2092 H2112 0.932 . S
C2093 C2091 1.408 . S
C2093 C2092 1.310 . S
C2093 H2113 0.930 . S
C2094 C2095 1.474 . S
C2094 C2096 1.285 . S
C2094 H2114 0.929 . S
C2095 C2092 1.461 . S
C2095 C2094 1.474 . S
C2096 C2091 1.342 . S
C2096 C2094 1.285 . S
C2096 H2115 0.930 . S
C2097 C2100 1.424 . S
C2097 C2102 1.245 . S
C2097 C2103 1.428 . S
C2098 C2101 1.260 . S
C2098 C2102 1.477 . S
C2098 H2116 0.932 . S
C2099 C2100 1.384 . S
C2099 C2101 1.479 . S
C2099 H2117 0.929 . S
C2100 C2097 1.424 . S
C2100 C2099 1.384 . S
C2100 H2118 0.928 . S
C2101 C2098 1.260 . S
C2101 C2099 1.479 . S
C2102 C2097 1.245 . S
C2102 C2098 1.477 . S
C2102 H2119 0.932 . S
C2103 U2086 2.882 . S
C2103 C2097 1.428 . S
C2103 O2106 1.301 . S
C2103 O2107 1.282 . S
O2104 U2086 2.441 . S
O2104 C2090 1.249 . S
O2105 U2086 2.420 . S
O2105 C2090 1.202 . S
O2106 U2086 2.455 . S
O2106 C2103 1.301 . S
O2107 U2086 2.449 . S
O2107 C2103 1.282 . S
H2108 C2081 0.931 . S
H2109 C2083 0.929 . S
H2110 C2084 0.930 . S
H2111 C2085 0.931 . S
H2112 C2092 0.932 . S
H2113 C2093 0.930 . S
H2114 C2094 0.929 . S
H2115 C2096 0.930 . S
H2116 C2098 0.932 . S
H2117 C2099 0.929 . S
H2118 C2100 0.928 . S
H2119 C2102 0.932 . S
C2120 C2121 1.264 . S
C2120 C2125 1.479 . S
C2120 C2130 1.465 . S
C2121 C2120 1.264 . S
C2121 C2123 1.339 . S
C2121 H2148 0.931 . S
C2122 C2123 1.395 . S
C2122 C2124 1.320 . S
C2123 C2121 1.339 . S
C2123 C2122 1.395 . S
C2123 H2149 0.929 . S
C2124 C2122 1.320 . S
C2124 C2125 1.405 . S
C2124 H2150 0.930 . S
C2125 C2120 1.479 . S
C2125 C2124 1.405 . S
C2125 H2151 0.931 . S
U2126 O2127 2.454 . S
U2126 O2128 2.458 . S
U2126 C2129 2.984 . S
U2126 C2130 2.847 . S
U2126 C2143 2.882 . S
U2126 O2144 2.441 . S
U2126 O2145 2.420 . S
U2126 O2146 2.455 . S
U2126 O2147 2.449 . S
O2127 U2126 2.454 . S
O2127 C2129 1.353 . S
O2128 U2126 2.458 . S
O2128 C2129 1.286 . S
C2129 U2126 2.984 . S
C2129 O2127 1.353 . S
C2129 O2128 1.286 . S
C2129 C2131 1.363 . S
C2130 C2120 1.465 . S
C2130 U2126 2.847 . S
C2130 O2144 1.249 . S
C2130 O2145 1.202 . S
C2131 C2129 1.363 . S
C2131 C2133 1.408 . S
C2131 C2136 1.342 . S
C2132 C2133 1.310 . S
C2132 C2135 1.461 . S
C2132 H2152 0.932 . S
C2133 C2131 1.408 . S
C2133 C2132 1.310 . S
C2133 H2153 0.930 . S
C2134 C2135 1.474 . S
C2134 C2136 1.285 . S
C2134 H2154 0.929 . S
C2135 C2132 1.461 . S
C2135 C2134 1.474 . S
C2136 C2131 1.342 . S
C2136 C2134 1.285 . S
C2136 H2155 0.930 . S
C2137 C2140 1.424 . S
C2137 C2142 1.245 . S
C2137 C2143 1.428 . S
C2138 C2141 1.260 . S
C2138 C2142 1.477 . S
C2138 H2156 0.932 . S
C2139 C2140 1.384 . S
C2139 C2141 1.479 . S
C2139 H2157 0.929 . S
C2140 C2137 1.424 . S
C2140 C2139 1.384 . S
C2140 H2158 0.928 . S
C2141 C2138 1.260 . S
C2141 C2139 1.479 . S
C2142 C2137 1.245 . S
C2142 C2138 1.477 . S
C2142 H2159 0.932 . S
C2143 U2126 2.882 . S
C2143 C2137 1.428 . S
C2143 O2146 1.301 . S
C2143 O2147 1.282 . S
O2144 U2126 2.441 . S
O2144 C2130 1.249 . S
O2145 U2126 2.420 . S
O2145 C2130 1.202 . S
O2146 U2126 2.455 . S
O2146 C2143 1.301 . S
O2147 U2126 2.449 . S
O2147 C2143 1.282 . S
H2148 C2121 0.931 . S
H2149 C2123 0.929 . S
H2150 C2124 0.930 . S
H2151 C2125 0.931 . S
H2152 C2132 0.932 . S
H2153 C2133 0.930 . S
H2154 C2134 0.929 . S
H2155 C2136 0.930 . S
H2156 C2138 0.932 . S
H2157 C2139 0.929 . S
H2158 C2140 0.928 . S
H2159 C2142 0.932 . S
C2160 C2161 1.264 . S
C2160 C2165 1.479 . S
C2160 C2170 1.465 . S
C2161 C2160 1.264 . S
C2161 C2163 1.339 . S
C2161 H2188 0.931 . S
C2162 C2163 1.395 . S
C2162 C2164 1.320 . S
C2163 C2161 1.339 . S
C2163 C2162 1.395 . S
C2163 H2189 0.929 . S
C2164 C2162 1.320 . S
C2164 C2165 1.405 . S
C2164 H2190 0.930 . S
C2165 C2160 1.479 . S
C2165 C2164 1.405 . S
C2165 H2191 0.931 . S
U2166 O2167 2.454 . S
U2166 O2168 2.458 . S
U2166 C2169 2.984 . S
U2166 C2170 2.847 . S
U2166 C2183 2.882 . S
U2166 O2184 2.441 . S
U2166 O2185 2.420 . S
U2166 O2186 2.455 . S
U2166 O2187 2.449 . S
O2167 U2166 2.454 . S
O2167 C2169 1.353 . S
O2168 U2166 2.458 . S
O2168 C2169 1.286 . S
C2169 U2166 2.984 . S
C2169 O2167 1.353 . S
C2169 O2168 1.286 . S
C2169 C2171 1.363 . S
C2170 C2160 1.465 . S
C2170 U2166 2.847 . S
C2170 O2184 1.249 . S
C2170 O2185 1.202 . S
C2171 C2169 1.363 . S
C2171 C2173 1.408 . S
C2171 C2176 1.342 . S
C2172 C2173 1.310 . S
C2172 C2175 1.461 . S
C2172 H2192 0.932 . S
C2173 C2171 1.408 . S
C2173 C2172 1.310 . S
C2173 H2193 0.930 . S
C2174 C2175 1.474 . S
C2174 C2176 1.285 . S
C2174 H2194 0.929 . S
C2175 C2172 1.461 . S
C2175 C2174 1.474 . S
C2176 C2171 1.342 . S
C2176 C2174 1.285 . S
C2176 H2195 0.930 . S
C2177 C2180 1.424 . S
C2177 C2182 1.245 . S
C2177 C2183 1.428 . S
C2178 C2181 1.260 . S
C2178 C2182 1.477 . S
C2178 H2196 0.932 . S
C2179 C2180 1.384 . S
C2179 C2181 1.479 . S
C2179 H2197 0.929 . S
C2180 C2177 1.424 . S
C2180 C2179 1.384 . S
C2180 H2198 0.928 . S
C2181 C2178 1.260 . S
C2181 C2179 1.479 . S
C2182 C2177 1.245 . S
C2182 C2178 1.477 . S
C2182 H2199 0.932 . S
C2183 U2166 2.882 . S
C2183 C2177 1.428 . S
C2183 O2186 1.301 . S
C2183 O2187 1.282 . S
O2184 U2166 2.441 . S
O2184 C2170 1.249 . S
O2185 U2166 2.420 . S
O2185 C2170 1.202 . S
O2186 U2166 2.455 . S
O2186 C2183 1.301 . S
O2187 U2166 2.449 . S
O2187 C2183 1.282 . S
H2188 C2161 0.931 . S
H2189 C2163 0.929 . S
H2190 C2164 0.930 . S
H2191 C2165 0.931 . S
H2192 C2172 0.932 . S
H2193 C2173 0.930 . S
H2194 C2174 0.929 . S
H2195 C2176 0.930 . S
H2196 C2178 0.932 . S
H2197 C2179 0.929 . S
H2198 C2180 0.928 . S
H2199 C2182 0.932 . S
C2200 C2201 1.264 . S
C2200 C2205 1.479 . S
C2200 C2210 1.465 . S
C2201 C2200 1.264 . S
C2201 C2203 1.339 . S
C2201 H2228 0.931 . S
C2202 C2203 1.395 . S
C2202 C2204 1.320 . S
C2203 C2201 1.339 . S
C2203 C2202 1.395 . S
C2203 H2229 0.929 . S
C2204 C2202 1.320 . S
C2204 C2205 1.405 . S
C2204 H2230 0.930 . S
C2205 C2200 1.479 . S
C2205 C2204 1.405 . S
C2205 H2231 0.931 . S
U2206 O2207 2.454 . S
U2206 O2208 2.458 . S
U2206 C2209 2.984 . S
U2206 C2210 2.847 . S
U2206 C2223 2.882 . S
U2206 O2224 2.441 . S
U2206 O2225 2.420 . S
U2206 O2226 2.455 . S
U2206 O2227 2.449 . S
O2207 U2206 2.454 . S
O2207 C2209 1.353 . S
O2208 U2206 2.458 . S
O2208 C2209 1.286 . S
C2209 U2206 2.984 . S
C2209 O2207 1.353 . S
C2209 O2208 1.286 . S
C2209 C2211 1.363 . S
C2210 C2200 1.465 . S
C2210 U2206 2.847 . S
C2210 O2224 1.249 . S
C2210 O2225 1.202 . S
C2211 C2209 1.363 . S
C2211 C2213 1.408 . S
C2211 C2216 1.342 . S
C2212 C2213 1.310 . S
C2212 C2215 1.461 . S
C2212 H2232 0.932 . S
C2213 C2211 1.408 . S
C2213 C2212 1.310 . S
C2213 H2233 0.930 . S
C2214 C2215 1.474 . S
C2214 C2216 1.285 . S
C2214 H2234 0.929 . S
C2215 C2212 1.461 . S
C2215 C2214 1.474 . S
C2216 C2211 1.342 . S
C2216 C2214 1.285 . S
C2216 H2235 0.930 . S
C2217 C2220 1.424 . S
C2217 C2222 1.245 . S
C2217 C2223 1.428 . S
C2218 C2221 1.260 . S
C2218 C2222 1.477 . S
C2218 H2236 0.932 . S
C2219 C2220 1.384 . S
C2219 C2221 1.479 . S
C2219 H2237 0.929 . S
C2220 C2217 1.424 . S
C2220 C2219 1.384 . S
C2220 H2238 0.928 . S
C2221 C2218 1.260 . S
C2221 C2219 1.479 . S
C2222 C2217 1.245 . S
C2222 C2218 1.477 . S
C2222 H2239 0.932 . S
C2223 U2206 2.882 . S
C2223 C2217 1.428 . S
C2223 O2226 1.301 . S
C2223 O2227 1.282 . S
O2224 U2206 2.441 . S
O2224 C2210 1.249 . S
O2225 U2206 2.420 . S
O2225 C2210 1.202 . S
O2226 U2206 2.455 . S
O2226 C2223 1.301 . S
O2227 U2206 2.449 . S
O2227 C2223 1.282 . S
H2228 C2201 0.931 . S
H2229 C2203 0.929 . S
H2230 C2204 0.930 . S
H2231 C2205 0.931 . S
H2232 C2212 0.932 . S
H2233 C2213 0.930 . S
H2234 C2214 0.929 . S
H2235 C2216 0.930 . S
H2236 C2218 0.932 . S
H2237 C2219 0.929 . S
H2238 C2220 0.928 . S
H2239 C2222 0.932 . S
C2240 C2241 1.264 . S
C2240 C2245 1.479 . S
C2240 C2250 1.465 . S
C2241 C2240 1.264 . S
C2241 C2243 1.339 . S
C2241 H2268 0.931 . S
C2242 C2243 1.395 . S
C2242 C2244 1.320 . S
C2243 C2241 1.339 . S
C2243 C2242 1.395 . S
C2243 H2269 0.929 . S
C2244 C2242 1.320 . S
C2244 C2245 1.405 . S
C2244 H2270 0.930 . S
C2245 C2240 1.479 . S
C2245 C2244 1.405 . S
C2245 H2271 0.931 . S
U2246 O2247 2.454 . S
U2246 O2248 2.458 . S
U2246 C2249 2.984 . S
U2246 C2250 2.847 . S
U2246 C2263 2.882 . S
U2246 O2264 2.441 . S
U2246 O2265 2.420 . S
U2246 O2266 2.455 . S
U2246 O2267 2.449 . S
O2247 U2246 2.454 . S
O2247 C2249 1.353 . S
O2248 U2246 2.458 . S
O2248 C2249 1.286 . S
C2249 U2246 2.984 . S
C2249 O2247 1.353 . S
C2249 O2248 1.286 . S
C2249 C2251 1.363 . S
C2250 C2240 1.465 . S
C2250 U2246 2.847 . S
C2250 O2264 1.249 . S
C2250 O2265 1.202 . S
C2251 C2249 1.363 . S
C2251 C2253 1.408 . S
C2251 C2256 1.342 . S
C2252 C2253 1.310 . S
C2252 C2255 1.461 . S
C2252 H2272 0.932 . S
C2253 C2251 1.408 . S
C2253 C2252 1.310 . S
C2253 H2273 0.930 . S
C2254 C2255 1.474 . S
C2254 C2256 1.285 . S
C2254 H2274 0.929 . S
C2255 C2252 1.461 . S
C2255 C2254 1.474 . S
C2256 C2251 1.342 . S
C2256 C2254 1.285 . S
C2256 H2275 0.930 . S
C2257 C2260 1.424 . S
C2257 C2262 1.245 . S
C2257 C2263 1.428 . S
C2258 C2261 1.260 . S
C2258 C2262 1.477 . S
C2258 H2276 0.932 . S
C2259 C2260 1.384 . S
C2259 C2261 1.479 . S
C2259 H2277 0.929 . S
C2260 C2257 1.424 . S
C2260 C2259 1.384 . S
C2260 H2278 0.928 . S
C2261 C2258 1.260 . S
C2261 C2259 1.479 . S
C2262 C2257 1.245 . S
C2262 C2258 1.477 . S
C2262 H2279 0.932 . S
C2263 U2246 2.882 . S
C2263 C2257 1.428 . S
C2263 O2266 1.301 . S
C2263 O2267 1.282 . S
O2264 U2246 2.441 . S
O2264 C2250 1.249 . S
O2265 U2246 2.420 . S
O2265 C2250 1.202 . S
O2266 U2246 2.455 . S
O2266 C2263 1.301 . S
O2267 U2246 2.449 . S
O2267 C2263 1.282 . S
H2268 C2241 0.931 . S
H2269 C2243 0.929 . S
H2270 C2244 0.930 . S
H2271 C2245 0.931 . S
H2272 C2252 0.932 . S
H2273 C2253 0.930 . S
H2274 C2254 0.929 . S
H2275 C2256 0.930 . S
H2276 C2258 0.932 . S
H2277 C2259 0.929 . S
H2278 C2260 0.928 . S
H2279 C2262 0.932 . S
C2280 C2281 1.264 . S
C2280 C2285 1.479 . S
C2280 C2290 1.465 . S
C2281 C2280 1.264 . S
C2281 C2283 1.339 . S
C2281 H2308 0.931 . S
C2282 C2283 1.395 . S
C2282 C2284 1.320 . S
C2283 C2281 1.339 . S
C2283 C2282 1.395 . S
C2283 H2309 0.929 . S
C2284 C2282 1.320 . S
C2284 C2285 1.405 . S
C2284 H2310 0.930 . S
C2285 C2280 1.479 . S
C2285 C2284 1.405 . S
C2285 H2311 0.931 . S
U2286 O2287 2.454 . S
U2286 O2288 2.458 . S
U2286 C2289 2.984 . S
U2286 C2290 2.847 . S
U2286 C2303 2.882 . S
U2286 O2304 2.441 . S
U2286 O2305 2.420 . S
U2286 O2306 2.455 . S
U2286 O2307 2.449 . S
O2287 U2286 2.454 . S
O2287 C2289 1.353 . S
O2288 U2286 2.458 . S
O2288 C2289 1.286 . S
C2289 U2286 2.984 . S
C2289 O2287 1.353 . S
C2289 O2288 1.286 . S
C2289 C2291 1.363 . S
C2290 C2280 1.465 . S
C2290 U2286 2.847 . S
C2290 O2304 1.249 . S
C2290 O2305 1.202 . S
C2291 C2289 1.363 . S
C2291 C2293 1.408 . S
C2291 C2296 1.342 . S
C2292 C2293 1.310 . S
C2292 C2295 1.461 . S
C2292 H2312 0.932 . S
C2293 C2291 1.408 . S
C2293 C2292 1.310 . S
C2293 H2313 0.930 . S
C2294 C2295 1.474 . S
C2294 C2296 1.285 . S
C2294 H2314 0.929 . S
C2295 C2292 1.461 . S
C2295 C2294 1.474 . S
C2296 C2291 1.342 . S
C2296 C2294 1.285 . S
C2296 H2315 0.930 . S
C2297 C2300 1.424 . S
C2297 C2302 1.245 . S
C2297 C2303 1.428 . S
C2298 C2301 1.260 . S
C2298 C2302 1.477 . S
C2298 H2316 0.932 . S
C2299 C2300 1.384 . S
C2299 C2301 1.479 . S
C2299 H2317 0.929 . S
C2300 C2297 1.424 . S
C2300 C2299 1.384 . S
C2300 H2318 0.928 . S
C2301 C2298 1.260 . S
C2301 C2299 1.479 . S
C2302 C2297 1.245 . S
C2302 C2298 1.477 . S
C2302 H2319 0.932 . S
C2303 U2286 2.882 . S
C2303 C2297 1.428 . S
C2303 O2306 1.301 . S
C2303 O2307 1.282 . S
O2304 U2286 2.441 . S
O2304 C2290 1.249 . S
O2305 U2286 2.420 . S
O2305 C2290 1.202 . S
O2306 U2286 2.455 . S
O2306 C2303 1.301 . S
O2307 U2286 2.449 . S
O2307 C2303 1.282 . S
H2308 C2281 0.931 . S
H2309 C2283 0.929 . S
H2310 C2284 0.930 . S
H2311 C2285 0.931 . S
H2312 C2292 0.932 . S
H2313 C2293 0.930 . S
H2314 C2294 0.929 . S
H2315 C2296 0.930 . S
H2316 C2298 0.932 . S
H2317 C2299 0.929 . S
H2318 C2300 0.928 . S
H2319 C2302 0.932 . S
C2320 C2321 1.264 . S
C2320 C2325 1.479 . S
C2320 C2330 1.465 . S
C2321 C2320 1.264 . S
C2321 C2323 1.339 . S
C2321 H2348 0.931 . S
C2322 C2323 1.395 . S
C2322 C2324 1.320 . S
C2323 C2321 1.339 . S
C2323 C2322 1.395 . S
C2323 H2349 0.929 . S
C2324 C2322 1.320 . S
C2324 C2325 1.405 . S
C2324 H2350 0.930 . S
C2325 C2320 1.479 . S
C2325 C2324 1.405 . S
C2325 H2351 0.931 . S
U2326 O2327 2.454 . S
U2326 O2328 2.458 . S
U2326 C2329 2.984 . S
U2326 C2330 2.847 . S
U2326 C2343 2.882 . S
U2326 O2344 2.441 . S
U2326 O2345 2.420 . S
U2326 O2346 2.455 . S
U2326 O2347 2.449 . S
O2327 U2326 2.454 . S
O2327 C2329 1.353 . S
O2328 U2326 2.458 . S
O2328 C2329 1.286 . S
C2329 U2326 2.984 . S
C2329 O2327 1.353 . S
C2329 O2328 1.286 . S
C2329 C2331 1.363 . S
C2330 C2320 1.465 . S
C2330 U2326 2.847 . S
C2330 O2344 1.249 . S
C2330 O2345 1.202 . S
C2331 C2329 1.363 . S
C2331 C2333 1.408 . S
C2331 C2336 1.342 . S
C2332 C2333 1.310 . S
C2332 C2335 1.461 . S
C2332 H2352 0.932 . S
C2333 C2331 1.408 . S
C2333 C2332 1.310 . S
C2333 H2353 0.930 . S
C2334 C2335 1.474 . S
C2334 C2336 1.285 . S
C2334 H2354 0.929 . S
C2335 C2332 1.461 . S
C2335 C2334 1.474 . S
C2336 C2331 1.342 . S
C2336 C2334 1.285 . S
C2336 H2355 0.930 . S
C2337 C2340 1.424 . S
C2337 C2342 1.245 . S
C2337 C2343 1.428 . S
C2338 C2341 1.260 . S
C2338 C2342 1.477 . S
C2338 H2356 0.932 . S
C2339 C2340 1.384 . S
C2339 C2341 1.479 . S
C2339 H2357 0.929 . S
C2340 C2337 1.424 . S
C2340 C2339 1.384 . S
C2340 H2358 0.928 . S
C2341 C2338 1.260 . S
C2341 C2339 1.479 . S
C2342 C2337 1.245 . S
C2342 C2338 1.477 . S
C2342 H2359 0.932 . S
C2343 U2326 2.882 . S
C2343 C2337 1.428 . S
C2343 O2346 1.301 . S
C2343 O2347 1.282 . S
O2344 U2326 2.441 . S
O2344 C2330 1.249 . S
O2345 U2326 2.420 . S
O2345 C2330 1.202 . S
O2346 U2326 2.455 . S
O2346 C2343 1.301 . S
O2347 U2326 2.449 . S
O2347 C2343 1.282 . S
H2348 C2321 0.931 . S
H2349 C2323 0.929 . S
H2350 C2324 0.930 . S
H2351 C2325 0.931 . S
H2352 C2332 0.932 . S
H2353 C2333 0.930 . S
H2354 C2334 0.929 . S
H2355 C2336 0.930 . S
H2356 C2338 0.932 . S
H2357 C2339 0.929 . S
H2358 C2340 0.928 . S
H2359 C2342 0.932 . S
C2360 C2361 1.264 . S
C2360 C2365 1.479 . S
C2360 C2370 1.465 . S
C2361 C2360 1.264 . S
C2361 C2363 1.339 . S
C2361 H2388 0.931 . S
C2362 C2363 1.395 . S
C2362 C2364 1.320 . S
C2363 C2361 1.339 . S
C2363 C2362 1.395 . S
C2363 H2389 0.929 . S
C2364 C2362 1.320 . S
C2364 C2365 1.405 . S
C2364 H2390 0.930 . S
C2365 C2360 1.479 . S
C2365 C2364 1.405 . S
C2365 H2391 0.931 . S
U2366 O2367 2.454 . S
U2366 O2368 2.458 . S
U2366 C2369 2.984 . S
U2366 C2370 2.847 . S
U2366 C2383 2.882 . S
U2366 O2384 2.441 . S
U2366 O2385 2.420 . S
U2366 O2386 2.455 . S
U2366 O2387 2.449 . S
O2367 U2366 2.454 . S
O2367 C2369 1.353 . S
O2368 U2366 2.458 . S
O2368 C2369 1.286 . S
C2369 U2366 2.984 . S
C2369 O2367 1.353 . S
C2369 O2368 1.286 . S
C2369 C2371 1.363 . S
C2370 C2360 1.465 . S
C2370 U2366 2.847 . S
C2370 O2384 1.249 . S
C2370 O2385 1.202 . S
C2371 C2369 1.363 . S
C2371 C2373 1.408 . S
C2371 C2376 1.342 . S
C2372 C2373 1.310 . S
C2372 C2375 1.461 . S
C2372 H2392 0.932 . S
C2373 C2371 1.408 . S
C2373 C2372 1.310 . S
C2373 H2393 0.930 . S
C2374 C2375 1.474 . S
C2374 C2376 1.285 . S
C2374 H2394 0.929 . S
C2375 C2372 1.461 . S
C2375 C2374 1.474 . S
C2376 C2371 1.342 . S
C2376 C2374 1.285 . S
C2376 H2395 0.930 . S
C2377 C2380 1.424 . S
C2377 C2382 1.245 . S
C2377 C2383 1.428 . S
C2378 C2381 1.260 . S
C2378 C2382 1.477 . S
C2378 H2396 0.932 . S
C2379 C2380 1.384 . S
C2379 C2381 1.479 . S
C2379 H2397 0.929 . S
C2380 C2377 1.424 . S
C2380 C2379 1.384 . S
C2380 H2398 0.928 . S
C2381 C2378 1.260 . S
C2381 C2379 1.479 . S
C2382 C2377 1.245 . S
C2382 C2378 1.477 . S
C2382 H2399 0.932 . S
C2383 U2366 2.882 . S
C2383 C2377 1.428 . S
C2383 O2386 1.301 . S
C2383 O2387 1.282 . S
O2384 U2366 2.441 . S
O2384 C2370 1.249 . S
O2385 U2366 2.420 . S
O2385 C2370 1.202 . S
O2386 U2366 2.455 . S
O2386 C2383 1.301 . S
O2387 U2366 2.449 . S
O2387 C2383 1.282 . S
H2388 C2361 0.931 . S
H2389 C2363 0.929 . S
H2390 C2364 0.930 . S
H2391 C2365 0.931 . S
H2392 C2372 0.932 . S
H2393 C2373 0.930 . S
H2394 C2374 0.929 . S
H2395 C2376 0.930 . S
H2396 C2378 0.932 . S
H2397 C2379 0.929 . S
H2398 C2380 0.928 . S
H2399 C2382 0.932 . S
C2400 C2401 1.264 . S
C2400 C2405 1.479 . S
C2400 C2410 1.465 . S
C2401 C2400 1.264 . S
C2401 C2403 1.339 . S
C2401 H2428 0.931 . S
C2402 C2403 1.395 . S
C2402 C2404 1.320 . S
C2403 C2401 1.339 . S
C2403 C2402 1.395 . S
C2403 H2429 0.929 . S
C2404 C2402 1.320 . S
C2404 C2405 1.405 . S
C2404 H2430 0.930 . S
C2405 C2400 1.479 . S
C2405 C2404 1.405 . S
C2405 H2431 0.931 . S
U2406 O2407 2.454 . S
U2406 O2408 2.458 . S
U2406 C2409 2.984 . S
U2406 C2410 2.847 . S
U2406 C2423 2.882 . S
U2406 O2424 2.441 . S
U2406 O2425 2.420 . S
U2406 O2426 2.455 . S
U2406 O2427 2.449 . S
O2407 U2406 2.454 . S
O2407 C2409 1.353 . S
O2408 U2406 2.458 . S
O2408 C2409 1.286 . S
C2409 U2406 2.984 . S
C2409 O2407 1.353 . S
C2409 O2408 1.286 . S
C2409 C2411 1.363 . S
C2410 C2400 1.465 . S
C2410 U2406 2.847 . S
C2410 O2424 1.249 . S
C2410 O2425 1.202 . S
C2411 C2409 1.363 . S
C2411 C2413 1.408 . S
C2411 C2416 1.342 . S
C2412 C2413 1.310 . S
C2412 C2415 1.461 . S
C2412 H2432 0.932 . S
C2413 C2411 1.408 . S
C2413 C2412 1.310 . S
C2413 H2433 0.930 . S
C2414 C2415 1.474 . S
C2414 C2416 1.285 . S
C2414 H2434 0.929 . S
C2415 C2412 1.461 . S
C2415 C2414 1.474 . S
C2416 C2411 1.342 . S
C2416 C2414 1.285 . S
C2416 H2435 0.930 . S
C2417 C2420 1.424 . S
C2417 C2422 1.245 . S
C2417 C2423 1.428 . S
C2418 C2421 1.260 . S
C2418 C2422 1.477 . S
C2418 H2436 0.932 . S
C2419 C2420 1.384 . S
C2419 C2421 1.479 . S
C2419 H2437 0.929 . S
C2420 C2417 1.424 . S
C2420 C2419 1.384 . S
C2420 H2438 0.928 . S
C2421 C2418 1.260 . S
C2421 C2419 1.479 . S
C2422 C2417 1.245 . S
C2422 C2418 1.477 . S
C2422 H2439 0.932 . S
C2423 U2406 2.882 . S
C2423 C2417 1.428 . S
C2423 O2426 1.301 . S
C2423 O2427 1.282 . S
O2424 U2406 2.441 . S
O2424 C2410 1.249 . S
O2425 U2406 2.420 . S
O2425 C2410 1.202 . S
O2426 U2406 2.455 . S
O2426 C2423 1.301 . S
O2427 U2406 2.449 . S
O2427 C2423 1.282 . S
H2428 C2401 0.931 . S
H2429 C2403 0.929 . S
H2430 C2404 0.930 . S
H2431 C2405 0.931 . S
H2432 C2412 0.932 . S
H2433 C2413 0.930 . S
H2434 C2414 0.929 . S
H2435 C2416 0.930 . S
H2436 C2418 0.932 . S
H2437 C2419 0.929 . S
H2438 C2420 0.928 . S
H2439 C2422 0.932 . S
C2440 C2441 1.264 . S
C2440 C2445 1.479 . S
C2440 C2450 1.465 . S
C2441 C2440 1.264 . S
C2441 C2443 1.339 . S
C2441 H2468 0.931 . S
C2442 C2443 1.395 . S
C2442 C2444 1.320 . S
C2443 C2441 1.339 . S
C2443 C2442 1.395 . S
C2443 H2469 0.929 . S
C2444 C2442 1.320 . S
C2444 C2445 1.405 . S
C2444 H2470 0.930 . S
C2445 C2440 1.479 . S
C2445 C2444 1.405 . S
C2445 H2471 0.931 . S
U2446 O2447 2.454 . S
U2446 O2448 2.458 . S
U2446 C2449 2.984 . S
U2446 C2450 2.847 . S
U2446 C2463 2.882 . S
U2446 O2464 2.441 . S
U2446 O2465 2.420 . S
U2446 O2466 2.455 . S
U2446 O2467 2.449 . S
O2447 U2446 2.454 . S
O2447 C2449 1.353 . S
O2448 U2446 2.458 . S
O2448 C2449 1.286 . S
C2449 U2446 2.984 . S
C2449 O2447 1.353 . S
C2449 O2448 1.286 . S
C2449 C2451 1.363 . S
C2450 C2440 1.465 . S
C2450 U2446 2.847 . S
C2450 O2464 1.249 . S
C2450 O2465 1.202 . S
C2451 C2449 1.363 . S
C2451 C2453 1.408 . S
C2451 C2456 1.342 . S
C2452 C2453 1.310 . S
C2452 C2455 1.461 . S
C2452 H2472 0.932 . S
C2453 C2451 1.408 . S
C2453 C2452 1.310 . S
C2453 H2473 0.930 . S
C2454 C2455 1.474 . S
C2454 C2456 1.285 . S
C2454 H2474 0.929 . S
C2455 C2452 1.461 . S
C2455 C2454 1.474 . S
C2456 C2451 1.342 . S
C2456 C2454 1.285 . S
C2456 H2475 0.930 . S
C2457 C2460 1.424 . S
C2457 C2462 1.245 . S
C2457 C2463 1.428 . S
C2458 C2461 1.260 . S
C2458 C2462 1.477 . S
C2458 H2476 0.932 . S
C2459 C2460 1.384 . S
C2459 C2461 1.479 . S
C2459 H2477 0.929 . S
C2460 C2457 1.424 . S
C2460 C2459 1.384 . S
C2460 H2478 0.928 . S
C2461 C2458 1.260 . S
C2461 C2459 1.479 . S
C2462 C2457 1.245 . S
C2462 C2458 1.477 . S
C2462 H2479 0.932 . S
C2463 U2446 2.882 . S
C2463 C2457 1.428 . S
C2463 O2466 1.301 . S
C2463 O2467 1.282 . S
O2464 U2446 2.441 . S
O2464 C2450 1.249 . S
O2465 U2446 2.420 . S
O2465 C2450 1.202 . S
O2466 U2446 2.455 . S
O2466 C2463 1.301 . S
O2467 U2446 2.449 . S
O2467 C2463 1.282 . S
H2468 C2441 0.931 . S
H2469 C2443 0.929 . S
H2470 C2444 0.930 . S
H2471 C2445 0.931 . S
H2472 C2452 0.932 . S
H2473 C2453 0.930 . S
H2474 C2454 0.929 . S
H2475 C2456 0.930 . S
H2476 C2458 0.932 . S
H2477 C2459 0.929 . S
H2478 C2460 0.928 . S
H2479 C2462 0.932 . S
C2480 C2481 1.264 . S
C2480 C2485 1.479 . S
C2480 C2490 1.465 . S
C2481 C2480 1.264 . S
C2481 C2483 1.339 . S
C2481 H2508 0.931 . S
C2482 C2483 1.395 . S
C2482 C2484 1.320 . S
C2483 C2481 1.339 . S
C2483 C2482 1.395 . S
C2483 H2509 0.929 . S
C2484 C2482 1.320 . S
C2484 C2485 1.405 . S
C2484 H2510 0.930 . S
C2485 C2480 1.479 . S
C2485 C2484 1.405 . S
C2485 H2511 0.931 . S
U2486 O2487 2.454 . S
U2486 O2488 2.458 . S
U2486 C2489 2.984 . S
U2486 C2490 2.847 . S
U2486 C2503 2.882 . S
U2486 O2504 2.441 . S
U2486 O2505 2.420 . S
U2486 O2506 2.455 . S
U2486 O2507 2.449 . S
O2487 U2486 2.454 . S
O2487 C2489 1.353 . S
O2488 U2486 2.458 . S
O2488 C2489 1.286 . S
C2489 U2486 2.984 . S
C2489 O2487 1.353 . S
C2489 O2488 1.286 . S
C2489 C2491 1.363 . S
C2490 C2480 1.465 . S
C2490 U2486 2.847 . S
C2490 O2504 1.249 . S
C2490 O2505 1.202 . S
C2491 C2489 1.363 . S
C2491 C2493 1.408 . S
C2491 C2496 1.342 . S
C2492 C2493 1.310 . S
C2492 C2495 1.461 . S
C2492 H2512 0.932 . S
C2493 C2491 1.408 . S
C2493 C2492 1.310 . S
C2493 H2513 0.930 . S
C2494 C2495 1.474 . S
C2494 C2496 1.285 . S
C2494 H2514 0.929 . S
C2495 C2492 1.461 . S
C2495 C2494 1.474 . S
C2496 C2491 1.342 . S
C2496 C2494 1.285 . S
C2496 H2515 0.930 . S
C2497 C2500 1.424 . S
C2497 C2502 1.245 . S
C2497 C2503 1.428 . S
C2498 C2501 1.260 . S
C2498 C2502 1.477 . S
C2498 H2516 0.932 . S
C2499 C2500 1.384 . S
C2499 C2501 1.479 . S
C2499 H2517 0.929 . S
C2500 C2497 1.424 . S
C2500 C2499 1.384 . S
C2500 H2518 0.928 . S
C2501 C2498 1.260 . S
C2501 C2499 1.479 . S
C2502 C2497 1.245 . S
C2502 C2498 1.477 . S
C2502 H2519 0.932 . S
C2503 U2486 2.882 . S
C2503 C2497 1.428 . S
C2503 O2506 1.301 . S
C2503 O2507 1.282 . S
O2504 U2486 2.441 . S
O2504 C2490 1.249 . S
O2505 U2486 2.420 . S
O2505 C2490 1.202 . S
O2506 U2486 2.455 . S
O2506 C2503 1.301 . S
O2507 U2486 2.449 . S
O2507 C2503 1.282 . S
H2508 C2481 0.931 . S
H2509 C2483 0.929 . S
H2510 C2484 0.930 . S
H2511 C2485 0.931 . S
H2512 C2492 0.932 . S
H2513 C2493 0.930 . S
H2514 C2494 0.929 . S
H2515 C2496 0.930 . S
H2516 C2498 0.932 . S
H2517 C2499 0.929 . S
H2518 C2500 0.928 . S
H2519 C2502 0.932 . S
C2520 C2521 1.264 . S
C2520 C2525 1.479 . S
C2520 C2530 1.465 . S
C2521 C2520 1.264 . S
C2521 C2523 1.339 . S
C2521 H2548 0.931 . S
C2522 C2523 1.395 . S
C2522 C2524 1.320 . S
C2523 C2521 1.339 . S
C2523 C2522 1.395 . S
C2523 H2549 0.929 . S
C2524 C2522 1.320 . S
C2524 C2525 1.405 . S
C2524 H2550 0.930 . S
C2525 C2520 1.479 . S
C2525 C2524 1.405 . S
C2525 H2551 0.931 . S
U2526 O2527 2.454 . S
U2526 O2528 2.458 . S
U2526 C2529 2.984 . S
U2526 C2530 2.847 . S
U2526 C2543 2.882 . S
U2526 O2544 2.441 . S
U2526 O2545 2.420 . S
U2526 O2546 2.455 . S
U2526 O2547 2.449 . S
O2527 U2526 2.454 . S
O2527 C2529 1.353 . S
O2528 U2526 2.458 . S
O2528 C2529 1.286 . S
C2529 U2526 2.984 . S
C2529 O2527 1.353 . S
C2529 O2528 1.286 . S
C2529 C2531 1.363 . S
C2530 C2520 1.465 . S
C2530 U2526 2.847 . S
C2530 O2544 1.249 . S
C2530 O2545 1.202 . S
C2531 C2529 1.363 . S
C2531 C2533 1.408 . S
C2531 C2536 1.342 . S
C2532 C2533 1.310 . S
C2532 C2535 1.461 . S
C2532 H2552 0.932 . S
C2533 C2531 1.408 . S
C2533 C2532 1.310 . S
C2533 H2553 0.930 . S
C2534 C2535 1.474 . S
C2534 C2536 1.285 . S
C2534 H2554 0.929 . S
C2535 C2532 1.461 . S
C2535 C2534 1.474 . S
C2536 C2531 1.342 . S
C2536 C2534 1.285 . S
C2536 H2555 0.930 . S
C2537 C2540 1.424 . S
C2537 C2542 1.245 . S
C2537 C2543 1.428 . S
C2538 C2541 1.260 . S
C2538 C2542 1.477 . S
C2538 H2556 0.932 . S
C2539 C2540 1.384 . S
C2539 C2541 1.479 . S
C2539 H2557 0.929 . S
C2540 C2537 1.424 . S
C2540 C2539 1.384 . S
C2540 H2558 0.928 . S
C2541 C2538 1.260 . S
C2541 C2539 1.479 . S
C2542 C2537 1.245 . S
C2542 C2538 1.477 . S
C2542 H2559 0.932 . S
C2543 U2526 2.882 . S
C2543 C2537 1.428 . S
C2543 O2546 1.301 . S
C2543 O2547 1.282 . S
O2544 U2526 2.441 . S
O2544 C2530 1.249 . S
O2545 U2526 2.420 . S
O2545 C2530 1.202 . S
O2546 U2526 2.455 . S
O2546 C2543 1.301 . S
O2547 U2526 2.449 . S
O2547 C2543 1.282 . S
H2548 C2521 0.931 . S
H2549 C2523 0.929 . S
H2550 C2524 0.930 . S
H2551 C2525 0.931 . S
H2552 C2532 0.932 . S
H2553 C2533 0.930 . S
H2554 C2534 0.929 . S
H2555 C2536 0.930 . S
H2556 C2538 0.932 . S
H2557 C2539 0.929 . S
H2558 C2540 0.928 . S
H2559 C2542 0.932 . S
C2560 C2561 1.264 . S
C2560 C2565 1.479 . S
C2560 C2570 1.465 . S
C2561 C2560 1.264 . S
C2561 C2563 1.339 . S
C2561 H2588 0.931 . S
C2562 C2563 1.395 . S
C2562 C2564 1.320 . S
C2563 C2561 1.339 . S
C2563 C2562 1.395 . S
C2563 H2589 0.929 . S
C2564 C2562 1.320 . S
C2564 C2565 1.405 . S
C2564 H2590 0.930 . S
C2565 C2560 1.479 . S
C2565 C2564 1.405 . S
C2565 H2591 0.931 . S
U2566 O2567 2.454 . S
U2566 O2568 2.458 . S
U2566 C2569 2.984 . S
U2566 C2570 2.847 . S
U2566 C2583 2.882 . S
U2566 O2584 2.441 . S
U2566 O2585 2.420 . S
U2566 O2586 2.455 . S
U2566 O2587 2.449 . S
O2567 U2566 2.454 . S
O2567 C2569 1.353 . S
O2568 U2566 2.458 . S
O2568 C2569 1.286 . S
C2569 U2566 2.984 . S
C2569 O2567 1.353 . S
C2569 O2568 1.286 . S
C2569 C2571 1.363 . S
C2570 C2560 1.465 . S
C2570 U2566 2.847 . S
C2570 O2584 1.249 . S
C2570 O2585 1.202 . S
C2571 C2569 1.363 . S
C2571 C2573 1.408 . S
C2571 C2576 1.342 . S
C2572 C2573 1.310 . S
C2572 C2575 1.461 . S
C2572 H2592 0.932 . S
C2573 C2571 1.408 . S
C2573 C2572 1.310 . S
C2573 H2593 0.930 . S
C2574 C2575 1.474 . S
C2574 C2576 1.285 . S
C2574 H2594 0.929 . S
C2575 C2572 1.461 . S
C2575 C2574 1.474 . S
C2576 C2571 1.342 . S
C2576 C2574 1.285 . S
C2576 H2595 0.930 . S
C2577 C2580 1.424 . S
C2577 C2582 1.245 . S
C2577 C2583 1.428 . S
C2578 C2581 1.260 . S
C2578 C2582 1.477 . S
C2578 H2596 0.932 . S
C2579 C2580 1.384 . S
C2579 C2581 1.479 . S
C2579 H2597 0.929 . S
C2580 C2577 1.424 . S
C2580 C2579 1.384 . S
C2580 H2598 0.928 . S
C2581 C2578 1.260 . S
C2581 C2579 1.479 . S
C2582 C2577 1.245 . S
C2582 C2578 1.477 . S
C2582 H2599 0.932 . S
C2583 U2566 2.882 . S
C2583 C2577 1.428 . S
C2583 O2586 1.301 . S
C2583 O2587 1.282 . S
O2584 U2566 2.441 . S
O2584 C2570 1.249 . S
O2585 U2566 2.420 . S
O2585 C2570 1.202 . S
O2586 U2566 2.455 . S
O2586 C2583 1.301 . S
O2587 U2566 2.449 . S
O2587 C2583 1.282 . S
H2588 C2561 0.931 . S
H2589 C2563 0.929 . S
H2590 C2564 0.930 . S
H2591 C2565 0.931 . S
H2592 C2572 0.932 . S
H2593 C2573 0.930 . S
H2594 C2574 0.929 . S
H2595 C2576 0.930 . S
H2596 C2578 0.932 . S
H2597 C2579 0.929 . S
H2598 C2580 0.928 . S
H2599 C2582 0.932 . S
C2600 C2601 1.264 . S
C2600 C2605 1.479 . S
C2600 C2610 1.465 . S
C2601 C2600 1.264 . S
C2601 C2603 1.339 . S
C2601 H2628 0.931 . S
C2602 C2603 1.395 . S
C2602 C2604 1.320 . S
C2603 C2601 1.339 . S
C2603 C2602 1.395 . S
C2603 H2629 0.929 . S
C2604 C2602 1.320 . S
C2604 C2605 1.405 . S
C2604 H2630 0.930 . S
C2605 C2600 1.479 . S
C2605 C2604 1.405 . S
C2605 H2631 0.931 . S
U2606 O2607 2.454 . S
U2606 O2608 2.458 . S
U2606 C2609 2.984 . S
U2606 C2610 2.847 . S
U2606 C2623 2.882 . S
U2606 O2624 2.441 . S
U2606 O2625 2.420 . S
U2606 O2626 2.455 . S
U2606 O2627 2.449 . S
O2607 U2606 2.454 . S
O2607 C2609 1.353 . S
O2608 U2606 2.458 . S
O2608 C2609 1.286 . S
C2609 U2606 2.984 . S
C2609 O2607 1.353 . S
C2609 O2608 1.286 . S
C2609 C2611 1.363 . S
C2610 C2600 1.465 . S
C2610 U2606 2.847 . S
C2610 O2624 1.249 . S
C2610 O2625 1.202 . S
C2611 C2609 1.363 . S
C2611 C2613 1.408 . S
C2611 C2616 1.342 . S
C2612 C2613 1.310 . S
C2612 C2615 1.461 . S
C2612 H2632 0.932 . S
C2613 C2611 1.408 . S
C2613 C2612 1.310 . S
C2613 H2633 0.930 . S
C2614 C2615 1.474 . S
C2614 C2616 1.285 . S
C2614 H2634 0.929 . S
C2615 C2612 1.461 . S
C2615 C2614 1.474 . S
C2616 C2611 1.342 . S
C2616 C2614 1.285 . S
C2616 H2635 0.930 . S
C2617 C2620 1.424 . S
C2617 C2622 1.245 . S
C2617 C2623 1.428 . S
C2618 C2621 1.260 . S
C2618 C2622 1.477 . S
C2618 H2636 0.932 . S
C2619 C2620 1.384 . S
C2619 C2621 1.479 . S
C2619 H2637 0.929 . S
C2620 C2617 1.424 . S
C2620 C2619 1.384 . S
C2620 H2638 0.928 . S
C2621 C2618 1.260 . S
C2621 C2619 1.479 . S
C2622 C2617 1.245 . S
C2622 C2618 1.477 . S
C2622 H2639 0.932 . S
C2623 U2606 2.882 . S
C2623 C2617 1.428 . S
C2623 O2626 1.301 . S
C2623 O2627 1.282 . S
O2624 U2606 2.441 . S
O2624 C2610 1.249 . S
O2625 U2606 2.420 . S
O2625 C2610 1.202 . S
O2626 U2606 2.455 . S
O2626 C2623 1.301 . S
O2627 U2606 2.449 . S
O2627 C2623 1.282 . S
H2628 C2601 0.931 . S
H2629 C2603 0.929 . S
H2630 C2604 0.930 . S
H2631 C2605 0.931 . S
H2632 C2612 0.932 . S
H2633 C2613 0.930 . S
H2634 C2614 0.929 . S
H2635 C2616 0.930 . S
H2636 C2618 0.932 . S
H2637 C2619 0.929 . S
H2638 C2620 0.928 . S
H2639 C2622 0.932 . S
C2640 C2641 1.264 . S
C2640 C2645 1.479 . S
C2640 C2650 1.465 . S
C2641 C2640 1.264 . S
C2641 C2643 1.339 . S
C2641 H2668 0.931 . S
C2642 C2643 1.395 . S
C2642 C2644 1.320 . S
C2643 C2641 1.339 . S
C2643 C2642 1.395 . S
C2643 H2669 0.929 . S
C2644 C2642 1.320 . S
C2644 C2645 1.405 . S
C2644 H2670 0.930 . S
C2645 C2640 1.479 . S
C2645 C2644 1.405 . S
C2645 H2671 0.931 . S
U2646 O2647 2.454 . S
U2646 O2648 2.458 . S
U2646 C2649 2.984 . S
U2646 C2650 2.847 . S
U2646 C2663 2.882 . S
U2646 O2664 2.441 . S
U2646 O2665 2.420 . S
U2646 O2666 2.455 . S
U2646 O2667 2.449 . S
O2647 U2646 2.454 . S
O2647 C2649 1.353 . S
O2648 U2646 2.458 . S
O2648 C2649 1.286 . S
C2649 U2646 2.984 . S
C2649 O2647 1.353 . S
C2649 O2648 1.286 . S
C2649 C2651 1.363 . S
C2650 C2640 1.465 . S
C2650 U2646 2.847 . S
C2650 O2664 1.249 . S
C2650 O2665 1.202 . S
C2651 C2649 1.363 . S
C2651 C2653 1.408 . S
C2651 C2656 1.342 . S
C2652 C2653 1.310 . S
C2652 C2655 1.461 . S
C2652 H2672 0.932 . S
C2653 C2651 1.408 . S
C2653 C2652 1.310 . S
C2653 H2673 0.930 . S
C2654 C2655 1.474 . S
C2654 C2656 1.285 . S
C2654 H2674 0.929 . S
C2655 C2652 1.461 . S
C2655 C2654 1.474 . S
C2656 C2651 1.342 . S
C2656 C2654 1.285 . S
C2656 H2675 0.930 . S
C2657 C2660 1.424 . S
C2657 C2662 1.245 . S
C2657 C2663 1.428 . S
C2658 C2661 1.260 . S
C2658 C2662 1.477 . S
C2658 H2676 0.932 . S
C2659 C2660 1.384 . S
C2659 C2661 1.479 . S
C2659 H2677 0.929 . S
C2660 C2657 1.424 . S
C2660 C2659 1.384 . S
C2660 H2678 0.928 . S
C2661 C2658 1.260 . S
C2661 C2659 1.479 . S
C2662 C2657 1.245 . S
C2662 C2658 1.477 . S
C2662 H2679 0.932 . S
C2663 U2646 2.882 . S
C2663 C2657 1.428 . S
C2663 O2666 1.301 . S
C2663 O2667 1.282 . S
O2664 U2646 2.441 . S
O2664 C2650 1.249 . S
O2665 U2646 2.420 . S
O2665 C2650 1.202 . S
O2666 U2646 2.455 . S
O2666 C2663 1.301 . S
O2667 U2646 2.449 . S
O2667 C2663 1.282 . S
H2668 C2641 0.931 . S
H2669 C2643 0.929 . S
H2670 C2644 0.930 . S
H2671 C2645 0.931 . S
H2672 C2652 0.932 . S
H2673 C2653 0.930 . S
H2674 C2654 0.929 . S
H2675 C2656 0.930 . S
H2676 C2658 0.932 . S
H2677 C2659 0.929 . S
H2678 C2660 0.928 . S
H2679 C2662 0.932 . S
C2680 C2681 1.264 . S
C2680 C2685 1.479 . S
C2680 C2690 1.465 . S
C2681 C2680 1.264 . S
C2681 C2683 1.339 . S
C2681 H2708 0.931 . S
C2682 C2683 1.395 . S
C2682 C2684 1.320 . S
C2683 C2681 1.339 . S
C2683 C2682 1.395 . S
C2683 H2709 0.929 . S
C2684 C2682 1.320 . S
C2684 C2685 1.405 . S
C2684 H2710 0.930 . S
C2685 C2680 1.479 . S
C2685 C2684 1.405 . S
C2685 H2711 0.931 . S
U2686 O2687 2.454 . S
U2686 O2688 2.458 . S
U2686 C2689 2.984 . S
U2686 C2690 2.847 . S
U2686 C2703 2.882 . S
U2686 O2704 2.441 . S
U2686 O2705 2.420 . S
U2686 O2706 2.455 . S
U2686 O2707 2.449 . S
O2687 U2686 2.454 . S
O2687 C2689 1.353 . S
O2688 U2686 2.458 . S
O2688 C2689 1.286 . S
C2689 U2686 2.984 . S
C2689 O2687 1.353 . S
C2689 O2688 1.286 . S
C2689 C2691 1.363 . S
C2690 C2680 1.465 . S
C2690 U2686 2.847 . S
C2690 O2704 1.249 . S
C2690 O2705 1.202 . S
C2691 C2689 1.363 . S
C2691 C2693 1.408 . S
C2691 C2696 1.342 . S
C2692 C2693 1.310 . S
C2692 C2695 1.461 . S
C2692 H2712 0.932 . S
C2693 C2691 1.408 . S
C2693 C2692 1.310 . S
C2693 H2713 0.930 . S
C2694 C2695 1.474 . S
C2694 C2696 1.285 . S
C2694 H2714 0.929 . S
C2695 C2692 1.461 . S
C2695 C2694 1.474 . S
C2696 C2691 1.342 . S
C2696 C2694 1.285 . S
C2696 H2715 0.930 . S
C2697 C2700 1.424 . S
C2697 C2702 1.245 . S
C2697 C2703 1.428 . S
C2698 C2701 1.260 . S
C2698 C2702 1.477 . S
C2698 H2716 0.932 . S
C2699 C2700 1.384 . S
C2699 C2701 1.479 . S
C2699 H2717 0.929 . S
C2700 C2697 1.424 . S
C2700 C2699 1.384 . S
C2700 H2718 0.928 . S
C2701 C2698 1.260 . S
C2701 C2699 1.479 . S
C2702 C2697 1.245 . S
C2702 C2698 1.477 . S
C2702 H2719 0.932 . S
C2703 U2686 2.882 . S
C2703 C2697 1.428 . S
C2703 O2706 1.301 . S
C2703 O2707 1.282 . S
O2704 U2686 2.441 . S
O2704 C2690 1.249 . S
O2705 U2686 2.420 . S
O2705 C2690 1.202 . S
O2706 U2686 2.455 . S
O2706 C2703 1.301 . S
O2707 U2686 2.449 . S
O2707 C2703 1.282 . S
H2708 C2681 0.931 . S
H2709 C2683 0.929 . S
H2710 C2684 0.930 . S
H2711 C2685 0.931 . S
H2712 C2692 0.932 . S
H2713 C2693 0.930 . S
H2714 C2694 0.929 . S
H2715 C2696 0.930 . S
H2716 C2698 0.932 . S
H2717 C2699 0.929 . S
H2718 C2700 0.928 . S
H2719 C2702 0.932 . S
C2720 C2721 1.264 . S
C2720 C2725 1.479 . S
C2720 C2730 1.465 . S
C2721 C2720 1.264 . S
C2721 C2723 1.339 . S
C2721 H2748 0.931 . S
C2722 C2723 1.395 . S
C2722 C2724 1.320 . S
C2723 C2721 1.339 . S
C2723 C2722 1.395 . S
C2723 H2749 0.929 . S
C2724 C2722 1.320 . S
C2724 C2725 1.405 . S
C2724 H2750 0.930 . S
C2725 C2720 1.479 . S
C2725 C2724 1.405 . S
C2725 H2751 0.931 . S
U2726 O2727 2.454 . S
U2726 O2728 2.458 . S
U2726 C2729 2.984 . S
U2726 C2730 2.847 . S
U2726 C2743 2.882 . S
U2726 O2744 2.441 . S
U2726 O2745 2.420 . S
U2726 O2746 2.455 . S
U2726 O2747 2.449 . S
O2727 U2726 2.454 . S
O2727 C2729 1.353 . S
O2728 U2726 2.458 . S
O2728 C2729 1.286 . S
C2729 U2726 2.984 . S
C2729 O2727 1.353 . S
C2729 O2728 1.286 . S
C2729 C2731 1.363 . S
C2730 C2720 1.465 . S
C2730 U2726 2.847 . S
C2730 O2744 1.249 . S
C2730 O2745 1.202 . S
C2731 C2729 1.363 . S
C2731 C2733 1.408 . S
C2731 C2736 1.342 . S
C2732 C2733 1.310 . S
C2732 C2735 1.461 . S
C2732 H2752 0.932 . S
C2733 C2731 1.408 . S
C2733 C2732 1.310 . S
C2733 H2753 0.930 . S
C2734 C2735 1.474 . S
C2734 C2736 1.285 . S
C2734 H2754 0.929 . S
C2735 C2732 1.461 . S
C2735 C2734 1.474 . S
C2736 C2731 1.342 . S
C2736 C2734 1.285 . S
C2736 H2755 0.930 . S
C2737 C2740 1.424 . S
C2737 C2742 1.245 . S
C2737 C2743 1.428 . S
C2738 C2741 1.260 . S
C2738 C2742 1.477 . S
C2738 H2756 0.932 . S
C2739 C2740 1.384 . S
C2739 C2741 1.479 . S
C2739 H2757 0.929 . S
C2740 C2737 1.424 . S
C2740 C2739 1.384 . S
C2740 H2758 0.928 . S
C2741 C2738 1.260 . S
C2741 C2739 1.479 . S
C2742 C2737 1.245 . S
C2742 C2738 1.477 . S
C2742 H2759 0.932 . S
C2743 U2726 2.882 . S
C2743 C2737 1.428 . S
C2743 O2746 1.301 . S
C2743 O2747 1.282 . S
O2744 U2726 2.441 . S
O2744 C2730 1.249 . S
O2745 U2726 2.420 . S
O2745 C2730 1.202 . S
O2746 U2726 2.455 . S
O2746 C2743 1.301 . S
O2747 U2726 2.449 . S
O2747 C2743 1.282 . S
H2748 C2721 0.931 . S
H2749 C2723 0.929 . S
H2750 C2724 0.930 . S
H2751 C2725 0.931 . S
H2752 C2732 0.932 . S
H2753 C2733 0.930 . S
H2754 C2734 0.929 . S
H2755 C2736 0.930 . S
H2756 C2738 0.932 . S
H2757 C2739 0.929 . S
H2758 C2740 0.928 . S
H2759 C2742 0.932 . S
C2760 C2761 1.264 . S
C2760 C2765 1.479 . S
C2760 C2770 1.465 . S
C2761 C2760 1.264 . S
C2761 C2763 1.339 . S
C2761 H2788 0.931 . S
C2762 C2763 1.395 . S
C2762 C2764 1.320 . S
C2763 C2761 1.339 . S
C2763 C2762 1.395 . S
C2763 H2789 0.929 . S
C2764 C2762 1.320 . S
C2764 C2765 1.405 . S
C2764 H2790 0.930 . S
C2765 C2760 1.479 . S
C2765 C2764 1.405 . S
C2765 H2791 0.931 . S
U2766 O2767 2.454 . S
U2766 O2768 2.458 . S
U2766 C2769 2.984 . S
U2766 C2770 2.847 . S
U2766 C2783 2.882 . S
U2766 O2784 2.441 . S
U2766 O2785 2.420 . S
U2766 O2786 2.455 . S
U2766 O2787 2.449 . S
O2767 U2766 2.454 . S
O2767 C2769 1.353 . S
O2768 U2766 2.458 . S
O2768 C2769 1.286 . S
C2769 U2766 2.984 . S
C2769 O2767 1.353 . S
C2769 O2768 1.286 . S
C2769 C2771 1.363 . S
C2770 C2760 1.465 . S
C2770 U2766 2.847 . S
C2770 O2784 1.249 . S
C2770 O2785 1.202 . S
C2771 C2769 1.363 . S
C2771 C2773 1.408 . S
C2771 C2776 1.342 . S
C2772 C2773 1.310 . S
C2772 C2775 1.461 . S
C2772 H2792 0.932 . S
C2773 C2771 1.408 . S
C2773 C2772 1.310 . S
C2773 H2793 0.930 . S
C2774 C2775 1.474 . S
C2774 C2776 1.285 . S
C2774 H2794 0.929 . S
C2775 C2772 1.461 . S
C2775 C2774 1.474 . S
C2776 C2771 1.342 . S
C2776 C2774 1.285 . S
C2776 H2795 0.930 . S
C2777 C2780 1.424 . S
C2777 C2782 1.245 . S
C2777 C2783 1.428 . S
C2778 C2781 1.260 . S
C2778 C2782 1.477 . S
C2778 H2796 0.932 . S
C2779 C2780 1.384 . S
C2779 C2781 1.479 . S
C2779 H2797 0.929 . S
C2780 C2777 1.424 . S
C2780 C2779 1.384 . S
C2780 H2798 0.928 . S
C2781 C2778 1.260 . S
C2781 C2779 1.479 . S
C2782 C2777 1.245 . S
C2782 C2778 1.477 . S
C2782 H2799 0.932 . S
C2783 U2766 2.882 . S
C2783 C2777 1.428 . S
C2783 O2786 1.301 . S
C2783 O2787 1.282 . S
O2784 U2766 2.441 . S
O2784 C2770 1.249 . S
O2785 U2766 2.420 . S
O2785 C2770 1.202 . S
O2786 U2766 2.455 . S
O2786 C2783 1.301 . S
O2787 U2766 2.449 . S
O2787 C2783 1.282 . S
H2788 C2761 0.931 . S
H2789 C2763 0.929 . S
H2790 C2764 0.930 . S
H2791 C2765 0.931 . S
H2792 C2772 0.932 . S
H2793 C2773 0.930 . S
H2794 C2774 0.929 . S
H2795 C2776 0.930 . S
H2796 C2778 0.932 . S
H2797 C2779 0.929 . S
H2798 C2780 0.928 . S
H2799 C2782 0.932 . S
C2800 C2801 1.264 . S
C2800 C2805 1.479 . S
C2800 C2810 1.465 . S
C2801 C2800 1.264 . S
C2801 C2803 1.339 . S
C2801 H2828 0.931 . S
C2802 C2803 1.395 . S
C2802 C2804 1.320 . S
C2803 C2801 1.339 . S
C2803 C2802 1.395 . S
C2803 H2829 0.929 . S
C2804 C2802 1.320 . S
C2804 C2805 1.405 . S
C2804 H2830 0.930 . S
C2805 C2800 1.479 . S
C2805 C2804 1.405 . S
C2805 H2831 0.931 . S
U2806 O2807 2.454 . S
U2806 O2808 2.458 . S
U2806 C2809 2.984 . S
U2806 C2810 2.847 . S
U2806 C2823 2.882 . S
U2806 O2824 2.441 . S
U2806 O2825 2.420 . S
U2806 O2826 2.455 . S
U2806 O2827 2.449 . S
O2807 U2806 2.454 . S
O2807 C2809 1.353 . S
O2808 U2806 2.458 . S
O2808 C2809 1.286 . S
C2809 U2806 2.984 . S
C2809 O2807 1.353 . S
C2809 O2808 1.286 . S
C2809 C2811 1.363 . S
C2810 C2800 1.465 . S
C2810 U2806 2.847 . S
C2810 O2824 1.249 . S
C2810 O2825 1.202 . S
C2811 C2809 1.363 . S
C2811 C2813 1.408 . S
C2811 C2816 1.342 . S
C2812 C2813 1.310 . S
C2812 C2815 1.461 . S
C2812 H2832 0.932 . S
C2813 C2811 1.408 . S
C2813 C2812 1.310 . S
C2813 H2833 0.930 . S
C2814 C2815 1.474 . S
C2814 C2816 1.285 . S
C2814 H2834 0.929 . S
C2815 C2812 1.461 . S
C2815 C2814 1.474 . S
C2816 C2811 1.342 . S
C2816 C2814 1.285 . S
C2816 H2835 0.930 . S
C2817 C2820 1.424 . S
C2817 C2822 1.245 . S
C2817 C2823 1.428 . S
C2818 C2821 1.260 . S
C2818 C2822 1.477 . S
C2818 H2836 0.932 . S
C2819 C2820 1.384 . S
C2819 C2821 1.479 . S
C2819 H2837 0.929 . S
C2820 C2817 1.424 . S
C2820 C2819 1.384 . S
C2820 H2838 0.928 . S
C2821 C2818 1.260 . S
C2821 C2819 1.479 . S
C2822 C2817 1.245 . S
C2822 C2818 1.477 . S
C2822 H2839 0.932 . S
C2823 U2806 2.882 . S
C2823 C2817 1.428 . S
C2823 O2826 1.301 . S
C2823 O2827 1.282 . S
O2824 U2806 2.441 . S
O2824 C2810 1.249 . S
O2825 U2806 2.420 . S
O2825 C2810 1.202 . S
O2826 U2806 2.455 . S
O2826 C2823 1.301 . S
O2827 U2806 2.449 . S
O2827 C2823 1.282 . S
H2828 C2801 0.931 . S
H2829 C2803 0.929 . S
H2830 C2804 0.930 . S
H2831 C2805 0.931 . S
H2832 C2812 0.932 . S
H2833 C2813 0.930 . S
H2834 C2814 0.929 . S
H2835 C2816 0.930 . S
H2836 C2818 0.932 . S
H2837 C2819 0.929 . S
H2838 C2820 0.928 . S
H2839 C2822 0.932 . S
C2840 C2841 1.264 . S
C2840 C2845 1.479 . S
C2840 C2850 1.465 . S
C2841 C2840 1.264 . S
C2841 C2843 1.339 . S
C2841 H2868 0.931 . S
C2842 C2843 1.395 . S
C2842 C2844 1.320 . S
C2843 C2841 1.339 . S
C2843 C2842 1.395 . S
C2843 H2869 0.929 . S
C2844 C2842 1.320 . S
C2844 C2845 1.405 . S
C2844 H2870 0.930 . S
C2845 C2840 1.479 . S
C2845 C2844 1.405 . S
C2845 H2871 0.931 . S
U2846 O2847 2.454 . S
U2846 O2848 2.458 . S
U2846 C2849 2.984 . S
U2846 C2850 2.847 . S
U2846 C2863 2.882 . S
U2846 O2864 2.441 . S
U2846 O2865 2.420 . S
U2846 O2866 2.455 . S
U2846 O2867 2.449 . S
O2847 U2846 2.454 . S
O2847 C2849 1.353 . S
O2848 U2846 2.458 . S
O2848 C2849 1.286 . S
C2849 U2846 2.984 . S
C2849 O2847 1.353 . S
C2849 O2848 1.286 . S
C2849 C2851 1.363 . S
C2850 C2840 1.465 . S
C2850 U2846 2.847 . S
C2850 O2864 1.249 . S
C2850 O2865 1.202 . S
C2851 C2849 1.363 . S
C2851 C2853 1.408 . S
C2851 C2856 1.342 . S
C2852 C2853 1.310 . S
C2852 C2855 1.461 . S
C2852 H2872 0.932 . S
C2853 C2851 1.408 . S
C2853 C2852 1.310 . S
C2853 H2873 0.930 . S
C2854 C2855 1.474 . S
C2854 C2856 1.285 . S
C2854 H2874 0.929 . S
C2855 C2852 1.461 . S
C2855 C2854 1.474 . S
C2856 C2851 1.342 . S
C2856 C2854 1.285 . S
C2856 H2875 0.930 . S
C2857 C2860 1.424 . S
C2857 C2862 1.245 . S
C2857 C2863 1.428 . S
C2858 C2861 1.260 . S
C2858 C2862 1.477 . S
C2858 H2876 0.932 . S
C2859 C2860 1.384 . S
C2859 C2861 1.479 . S
C2859 H2877 0.929 . S
C2860 C2857 1.424 . S
C2860 C2859 1.384 . S
C2860 H2878 0.928 . S
C2861 C2858 1.260 . S
C2861 C2859 1.479 . S
C2862 C2857 1.245 . S
C2862 C2858 1.477 . S
C2862 H2879 0.932 . S
C2863 U2846 2.882 . S
C2863 C2857 1.428 . S
C2863 O2866 1.301 . S
C2863 O2867 1.282 . S
O2864 U2846 2.441 . S
O2864 C2850 1.249 . S
O2865 U2846 2.420 . S
O2865 C2850 1.202 . S
O2866 U2846 2.455 . S
O2866 C2863 1.301 . S
O2867 U2846 2.449 . S
O2867 C2863 1.282 . S
H2868 C2841 0.931 . S
H2869 C2843 0.929 . S
H2870 C2844 0.930 . S
H2871 C2845 0.931 . S
H2872 C2852 0.932 . S
H2873 C2853 0.930 . S
H2874 C2854 0.929 . S
H2875 C2856 0.930 . S
H2876 C2858 0.932 . S
H2877 C2859 0.929 . S
H2878 C2860 0.928 . S
H2879 C2862 0.932 . S
C2880 C2881 1.264 . S
C2880 C2885 1.479 . S
C2880 C2890 1.465 . S
C2881 C2880 1.264 . S
C2881 C2883 1.339 . S
C2881 H2908 0.931 . S
C2882 C2883 1.395 . S
C2882 C2884 1.320 . S
C2883 C2881 1.339 . S
C2883 C2882 1.395 . S
C2883 H2909 0.929 . S
C2884 C2882 1.320 . S
C2884 C2885 1.405 . S
C2884 H2910 0.930 . S
C2885 C2880 1.479 . S
C2885 C2884 1.405 . S
C2885 H2911 0.931 . S
U2886 O2887 2.454 . S
U2886 O2888 2.458 . S
U2886 C2889 2.984 . S
U2886 C2890 2.847 . S
U2886 C2903 2.882 . S
U2886 O2904 2.441 . S
U2886 O2905 2.420 . S
U2886 O2906 2.455 . S
U2886 O2907 2.449 . S
O2887 U2886 2.454 . S
O2887 C2889 1.353 . S
O2888 U2886 2.458 . S
O2888 C2889 1.286 . S
C2889 U2886 2.984 . S
C2889 O2887 1.353 . S
C2889 O2888 1.286 . S
C2889 C2891 1.363 . S
C2890 C2880 1.465 . S
C2890 U2886 2.847 . S
C2890 O2904 1.249 . S
C2890 O2905 1.202 . S
C2891 C2889 1.363 . S
C2891 C2893 1.408 . S
C2891 C2896 1.342 . S
C2892 C2893 1.310 . S
C2892 C2895 1.461 . S
C2892 H2912 0.932 . S
C2893 C2891 1.408 . S
C2893 C2892 1.310 . S
C2893 H2913 0.930 . S
C2894 C2895 1.474 . S
C2894 C2896 1.285 . S
C2894 H2914 0.929 . S
C2895 C2892 1.461 . S
C2895 C2894 1.474 . S
C2896 C2891 1.342 . S
C2896 C2894 1.285 . S
C2896 H2915 0.930 . S
C2897 C2900 1.424 . S
C2897 C2902 1.245 . S
C2897 C2903 1.428 . S
C2898 C2901 1.260 . S
C2898 C2902 1.477 . S
C2898 H2916 0.932 . S
C2899 C2900 1.384 . S
C2899 C2901 1.479 . S
C2899 H2917 0.929 . S
C2900 C2897 1.424 . S
C2900 C2899 1.384 . S
C2900 H2918 0.928 . S
C2901 C2898 1.260 . S
C2901 C2899 1.479 . S
C2902 C2897 1.245 . S
C2902 C2898 1.477 . S
C2902 H2919 0.932 . S
C2903 U2886 2.882 . S
C2903 C2897 1.428 . S
C2903 O2906 1.301 . S
C2903 O2907 1.282 . S
O2904 U2886 2.441 . S
O2904 C2890 1.249 . S
O2905 U2886 2.420 . S
O2905 C2890 1.202 . S
O2906 U2886 2.455 . S
O2906 C2903 1.301 . S
O2907 U2886 2.449 . S
O2907 C2903 1.282 . S
H2908 C2881 0.931 . S
H2909 C2883 0.929 . S
H2910 C2884 0.930 . S
H2911 C2885 0.931 . S
H2912 C2892 0.932 . S
H2913 C2893 0.930 . S
H2914 C2894 0.929 . S
H2915 C2896 0.930 . S
H2916 C2898 0.932 . S
H2917 C2899 0.929 . S
H2918 C2900 0.928 . S
H2919 C2902 0.932 . S
C2920 C2921 1.264 . S
C2920 C2925 1.479 . S
C2920 C2930 1.465 . S
C2921 C2920 1.264 . S
C2921 C2923 1.339 . S
C2921 H2948 0.931 . S
C2922 C2923 1.395 . S
C2922 C2924 1.320 . S
C2923 C2921 1.339 . S
C2923 C2922 1.395 . S
C2923 H2949 0.929 . S
C2924 C2922 1.320 . S
C2924 C2925 1.405 . S
C2924 H2950 0.930 . S
C2925 C2920 1.479 . S
C2925 C2924 1.405 . S
C2925 H2951 0.931 . S
U2926 O2927 2.454 . S
U2926 O2928 2.458 . S
U2926 C2929 2.984 . S
U2926 C2930 2.847 . S
U2926 C2943 2.882 . S
U2926 O2944 2.441 . S
U2926 O2945 2.420 . S
U2926 O2946 2.455 . S
U2926 O2947 2.449 . S
O2927 U2926 2.454 . S
O2927 C2929 1.353 . S
O2928 U2926 2.458 . S
O2928 C2929 1.286 . S
C2929 U2926 2.984 . S
C2929 O2927 1.353 . S
C2929 O2928 1.286 . S
C2929 C2931 1.363 . S
C2930 C2920 1.465 . S
C2930 U2926 2.847 . S
C2930 O2944 1.249 . S
C2930 O2945 1.202 . S
C2931 C2929 1.363 . S
C2931 C2933 1.408 . S
C2931 C2936 1.342 . S
C2932 C2933 1.310 . S
C2932 C2935 1.461 . S
C2932 H2952 0.932 . S
C2933 C2931 1.408 . S
C2933 C2932 1.310 . S
C2933 H2953 0.930 . S
C2934 C2935 1.474 . S
C2934 C2936 1.285 . S
C2934 H2954 0.929 . S
C2935 C2932 1.461 . S
C2935 C2934 1.474 . S
C2936 C2931 1.342 . S
C2936 C2934 1.285 . S
C2936 H2955 0.930 . S
C2937 C2940 1.424 . S
C2937 C2942 1.245 . S
C2937 C2943 1.428 . S
C2938 C2941 1.260 . S
C2938 C2942 1.477 . S
C2938 H2956 0.932 . S
C2939 C2940 1.384 . S
C2939 C2941 1.479 . S
C2939 H2957 0.929 . S
C2940 C2937 1.424 . S
C2940 C2939 1.384 . S
C2940 H2958 0.928 . S
C2941 C2938 1.260 . S
C2941 C2939 1.479 . S
C2942 C2937 1.245 . S
C2942 C2938 1.477 . S
C2942 H2959 0.932 . S
C2943 U2926 2.882 . S
C2943 C2937 1.428 . S
C2943 O2946 1.301 . S
C2943 O2947 1.282 . S
O2944 U2926 2.441 . S
O2944 C2930 1.249 . S
O2945 U2926 2.420 . S
O2945 C2930 1.202 . S
O2946 U2926 2.455 . S
O2946 C2943 1.301 . S
O2947 U2926 2.449 . S
O2947 C2943 1.282 . S
H2948 C2921 0.931 . S
H2949 C2923 0.929 . S
H2950 C2924 0.930 . S
H2951 C2925 0.931 . S
H2952 C2932 0.932 . S
H2953 C2933 0.930 . S
H2954 C2934 0.929 . S
H2955 C2936 0.930 . S
H2956 C2938 0.932 . S
H2957 C2939 0.929 . S
H2958 C2940 0.928 . S
H2959 C2942 0.932 . S
C2960 C2961 1.264 . S
C2960 C2965 1.479 . S
C2960 C2970 1.465 . S
C2961 C2960 1.264 . S
C2961 C2963 1.339 . S
C2961 H2988 0.931 . S
C2962 C2963 1.395 . S
C2962 C2964 1.320 . S
C2963 C2961 1.339 . S
C2963 C2962 1.395 . S
C2963 H2989 0.929 . S
C2964 C2962 1.320 . S
C2964 C2965 1.405 . S
C2964 H2990 0.930 . S
C2965 C2960 1.479 . S
C2965 C2964 1.405 . S
C2965 H2991 0.931 . S
U2966 O2967 2.454 . S
U2966 O2968 2.458 . S
U2966 C2969 2.984 . S
U2966 C2970 2.847 . S
U2966 C2983 2.882 . S
U2966 O2984 2.441 . S
U2966 O2985 2.420 . S
U2966 O2986 2.455 . S
U2966 O2987 2.449 . S
O2967 U2966 2.454 . S
O2967 C2969 1.353 . S
O2968 U2966 2.458 . S
O2968 C2969 1.286 . S
C2969 U2966 2.984 . S
C2969 O2967 1.353 . S
C2969 O2968 1.286 . S
C2969 C2971 1.363 . S
C2970 C2960 1.465 . S
C2970 U2966 2.847 . S
C2970 O2984 1.249 . S
C2970 O2985 1.202 . S
C2971 C2969 1.363 . S
C2971 C2973 1.408 . S
C2971 C2976 1.342 . S
C2972 C2973 1.310 . S
C2972 C2975 1.461 . S
C2972 H2992 0.932 . S
C2973 C2971 1.408 . S
C2973 C2972 1.310 . S
C2973 H2993 0.930 . S
C2974 C2975 1.474 . S
C2974 C2976 1.285 . S
C2974 H2994 0.929 . S
C2975 C2972 1.461 . S
C2975 C2974 1.474 . S
C2976 C2971 1.342 . S
C2976 C2974 1.285 . S
C2976 H2995 0.930 . S
C2977 C2980 1.424 . S
C2977 C2982 1.245 . S
C2977 C2983 1.428 . S
C2978 C2981 1.260 . S
C2978 C2982 1.477 . S
C2978 H2996 0.932 . S
C2979 C2980 1.384 . S
C2979 C2981 1.479 . S
C2979 H2997 0.929 . S
C2980 C2977 1.424 . S
C2980 C2979 1.384 . S
C2980 H2998 0.928 . S
C2981 C2978 1.260 . S
C2981 C2979 1.479 . S
C2982 C2977 1.245 . S
C2982 C2978 1.477 . S
C2982 H2999 0.932 . S
C2983 U2966 2.882 . S
C2983 C2977 1.428 . S
C2983 O2986 1.301 . S
C2983 O2987 1.282 . S
O2984 U2966 2.441 . S
O2984 C2970 1.249 . S
O2985 U2966 2.420 . S
O2985 C2970 1.202 . S
O2986 U2966 2.455 . S
O2986 C2983 1.301 . S
O2987 U2966 2.449 . S
O2987 C2983 1.282 . S
H2988 C2961 0.931 . S
H2989 C2963 0.929 . S
H2990 C2964 0.930 . S
H2991 C2965 0.931 . S
H2992 C2972 0.932 . S
H2993 C2973 0.930 . S
H2994 C2974 0.929 . S
H2995 C2976 0.930 . S
H2996 C2978 0.932 . S
H2997 C2979 0.929 . S
H2998 C2980 0.928 . S
H2999 C2982 0.932 . S
C3000 C3001 1.264 . S
C3000 C3005 1.479 . S
C3000 C3010 1.465 . S
C3001 C3000 1.264 . S
C3001 C3003 1.339 . S
C3001 H3028 0.931 . S
C3002 C3003 1.395 . S
C3002 C3004 1.320 . S
C3003 C3001 1.339 . S
C3003 C3002 1.395 . S
C3003 H3029 0.929 . S
C3004 C3002 1.320 . S
C3004 C3005 1.405 . S
C3004 H3030 0.930 . S
C3005 C3000 1.479 . S
C3005 C3004 1.405 . S
C3005 H3031 0.931 . S
U3006 O3007 2.454 . S
U3006 O3008 2.458 . S
U3006 C3009 2.984 . S
U3006 C3010 2.847 . S
U3006 C3023 2.882 . S
U3006 O3024 2.441 . S
U3006 O3025 2.420 . S
U3006 O3026 2.455 . S
U3006 O3027 2.449 . S
O3007 U3006 2.454 . S
O3007 C3009 1.353 . S
O3008 U3006 2.458 . S
O3008 C3009 1.286 . S
C3009 U3006 2.984 . S
C3009 O3007 1.353 . S
C3009 O3008 1.286 . S
C3009 C3011 1.363 . S
C3010 C3000 1.465 . S
C3010 U3006 2.847 . S
C3010 O3024 1.249 . S
C3010 O3025 1.202 . S
C3011 C3009 1.363 . S
C3011 C3013 1.408 . S
C3011 C3016 1.342 . S
C3012 C3013 1.310 . S
C3012 C3015 1.461 . S
C3012 H3032 0.932 . S
C3013 C3011 1.408 . S
C3013 C3012 1.310 . S
C3013 H3033 0.930 . S
C3014 C3015 1.474 . S
C3014 C3016 1.285 . S
C3014 H3034 0.929 . S
C3015 C3012 1.461 . S
C3015 C3014 1.474 . S
C3016 C3011 1.342 . S
C3016 C3014 1.285 . S
C3016 H3035 0.930 . S
C3017 C3020 1.424 . S
C3017 C3022 1.245 . S
C3017 C3023 1.428 . S
C3018 C3021 1.260 . S
C3018 C3022 1.477 . S
C3018 H3036 0.932 . S
C3019 C3020 1.384 . S
C3019 C3021 1.479 . S
C3019 H3037 0.929 . S
C3020 C3017 1.424 . S
C3020 C3019 1.384 . S
C3020 H3038 0.928 . S
C3021 C3018 1.260 . S
C3021 C3019 1.479 . S
C3022 C3017 1.245 . S
C3022 C3018 1.477 . S
C3022 H3039 0.932 . S
C3023 U3006 2.882 . S
C3023 C3017 1.428 . S
C3023 O3026 1.301 . S
C3023 O3027 1.282 . S
O3024 U3006 2.441 . S
O3024 C3010 1.249 . S
O3025 U3006 2.420 . S
O3025 C3010 1.202 . S
O3026 U3006 2.455 . S
O3026 C3023 1.301 . S
O3027 U3006 2.449 . S
O3027 C3023 1.282 . S
H3028 C3001 0.931 . S
H3029 C3003 0.929 . S
H3030 C3004 0.930 . S
H3031 C3005 0.931 . S
H3032 C3012 0.932 . S
H3033 C3013 0.930 . S
H3034 C3014 0.929 . S
H3035 C3016 0.930 . S
H3036 C3018 0.932 . S
H3037 C3019 0.929 . S
H3038 C3020 0.928 . S
H3039 C3022 0.932 . S
C3040 C3041 1.264 . S
C3040 C3045 1.479 . S
C3040 C3050 1.465 . S
C3041 C3040 1.264 . S
C3041 C3043 1.339 . S
C3041 H3068 0.931 . S
C3042 C3043 1.395 . S
C3042 C3044 1.320 . S
C3043 C3041 1.339 . S
C3043 C3042 1.395 . S
C3043 H3069 0.929 . S
C3044 C3042 1.320 . S
C3044 C3045 1.405 . S
C3044 H3070 0.930 . S
C3045 C3040 1.479 . S
C3045 C3044 1.405 . S
C3045 H3071 0.931 . S
U3046 O3047 2.454 . S
U3046 O3048 2.458 . S
U3046 C3049 2.984 . S
U3046 C3050 2.847 . S
U3046 C3063 2.882 . S
U3046 O3064 2.441 . S
U3046 O3065 2.420 . S
U3046 O3066 2.455 . S
U3046 O3067 2.449 . S
O3047 U3046 2.454 . S
O3047 C3049 1.353 . S
O3048 U3046 2.458 . S
O3048 C3049 1.286 . S
C3049 U3046 2.984 . S
C3049 O3047 1.353 . S
C3049 O3048 1.286 . S
C3049 C3051 1.363 . S
C3050 C3040 1.465 . S
C3050 U3046 2.847 . S
C3050 O3064 1.249 . S
C3050 O3065 1.202 . S
C3051 C3049 1.363 . S
C3051 C3053 1.408 . S
C3051 C3056 1.342 . S
C3052 C3053 1.310 . S
C3052 C3055 1.461 . S
C3052 H3072 0.932 . S
C3053 C3051 1.408 . S
C3053 C3052 1.310 . S
C3053 H3073 0.930 . S
C3054 C3055 1.474 . S
C3054 C3056 1.285 . S
C3054 H3074 0.929 . S
C3055 C3052 1.461 . S
C3055 C3054 1.474 . S
C3056 C3051 1.342 . S
C3056 C3054 1.285 . S
C3056 H3075 0.930 . S
C3057 C3060 1.424 . S
C3057 C3062 1.245 . S
C3057 C3063 1.428 . S
C3058 C3061 1.260 . S
C3058 C3062 1.477 . S
C3058 H3076 0.932 . S
C3059 C3060 1.384 . S
C3059 C3061 1.479 . S
C3059 H3077 0.929 . S
C3060 C3057 1.424 . S
C3060 C3059 1.384 . S
C3060 H3078 0.928 . S
C3061 C3058 1.260 . S
C3061 C3059 1.479 . S
C3062 C3057 1.245 . S
C3062 C3058 1.477 . S
C3062 H3079 0.932 . S
C3063 U3046 2.882 . S
C3063 C3057 1.428 . S
C3063 O3066 1.301 . S
C3063 O3067 1.282 . S
O3064 U3046 2.441 . S
O3064 C3050 1.249 . S
O3065 U3046 2.420 . S
O3065 C3050 1.202 . S
O3066 U3046 2.455 . S
O3066 C3063 1.301 . S
O3067 U3046 2.449 . S
O3067 C3063 1.282 . S
H3068 C3041 0.931 . S
H3069 C3043 0.929 . S
H3070 C3044 0.930 . S
H3071 C3045 0.931 . S
H3072 C3052 0.932 . S
H3073 C3053 0.930 . S
H3074 C3054 0.929 . S
H3075 C3056 0.930 . S
H3076 C3058 0.932 . S
H3077 C3059 0.929 . S
H3078 C3060 0.928 . S
H3079 C3062 0.932 . S
C3080 C3081 1.264 . S
C3080 C3085 1.479 . S
C3080 C3090 1.465 . S
C3081 C3080 1.264 . S
C3081 C3083 1.339 . S
C3081 H3108 0.931 . S
C3082 C3083 1.395 . S
C3082 C3084 1.320 . S
C3083 C3081 1.339 . S
C3083 C3082 1.395 . S
C3083 H3109 0.929 . S
C3084 C3082 1.320 . S
C3084 C3085 1.405 . S
C3084 H3110 0.930 . S
C3085 C3080 1.479 . S
C3085 C3084 1.405 . S
C3085 H3111 0.931 . S
U3086 O3087 2.454 . S
U3086 O3088 2.458 . S
U3086 C3089 2.984 . S
U3086 C3090 2.847 . S
U3086 C3103 2.882 . S
U3086 O3104 2.441 . S
U3086 O3105 2.420 . S
U3086 O3106 2.455 . S
U3086 O3107 2.449 . S
O3087 U3086 2.454 . S
O3087 C3089 1.353 . S
O3088 U3086 2.458 . S
O3088 C3089 1.286 . S
C3089 U3086 2.984 . S
C3089 O3087 1.353 . S
C3089 O3088 1.286 . S
C3089 C3091 1.363 . S
C3090 C3080 1.465 . S
C3090 U3086 2.847 . S
C3090 O3104 1.249 . S
C3090 O3105 1.202 . S
C3091 C3089 1.363 . S
C3091 C3093 1.408 . S
C3091 C3096 1.342 . S
C3092 C3093 1.310 . S
C3092 C3095 1.461 . S
C3092 H3112 0.932 . S
C3093 C3091 1.408 . S
C3093 C3092 1.310 . S
C3093 H3113 0.930 . S
C3094 C3095 1.474 . S
C3094 C3096 1.285 . S
C3094 H3114 0.929 . S
C3095 C3092 1.461 . S
C3095 C3094 1.474 . S
C3096 C3091 1.342 . S
C3096 C3094 1.285 . S
C3096 H3115 0.930 . S
C3097 C3100 1.424 . S
C3097 C3102 1.245 . S
C3097 C3103 1.428 . S
C3098 C3101 1.260 . S
C3098 C3102 1.477 . S
C3098 H3116 0.932 . S
C3099 C3100 1.384 . S
C3099 C3101 1.479 . S
C3099 H3117 0.929 . S
C3100 C3097 1.424 . S
C3100 C3099 1.384 . S
C3100 H3118 0.928 . S
C3101 C3098 1.260 . S
C3101 C3099 1.479 . S
C3102 C3097 1.245 . S
C3102 C3098 1.477 . S
C3102 H3119 0.932 . S
C3103 U3086 2.882 . S
C3103 C3097 1.428 . S
C3103 O3106 1.301 . S
C3103 O3107 1.282 . S
O3104 U3086 2.441 . S
O3104 C3090 1.249 . S
O3105 U3086 2.420 . S
O3105 C3090 1.202 . S
O3106 U3086 2.455 . S
O3106 C3103 1.301 . S
O3107 U3086 2.449 . S
O3107 C3103 1.282 . S
H3108 C3081 0.931 . S
H3109 C3083 0.929 . S
H3110 C3084 0.930 . S
H3111 C3085 0.931 . S
H3112 C3092 0.932 . S
H3113 C3093 0.930 . S
H3114 C3094 0.929 . S
H3115 C3096 0.930 . S
H3116 C3098 0.932 . S
H3117 C3099 0.929 . S
H3118 C3100 0.928 . S
H3119 C3102 0.932 . S
C3120 C3121 1.264 . S
C3120 C3125 1.479 . S
C3120 C3130 1.465 . S
C3121 C3120 1.264 . S
C3121 C3123 1.339 . S
C3121 H3148 0.931 . S
C3122 C3123 1.395 . S
C3122 C3124 1.320 . S
C3123 C3121 1.339 . S
C3123 C3122 1.395 . S
C3123 H3149 0.929 . S
C3124 C3122 1.320 . S
C3124 C3125 1.405 . S
C3124 H3150 0.930 . S
C3125 C3120 1.479 . S
C3125 C3124 1.405 . S
C3125 H3151 0.931 . S
U3126 O3127 2.454 . S
U3126 O3128 2.458 . S
U3126 C3129 2.984 . S
U3126 C3130 2.847 . S
U3126 C3143 2.882 . S
U3126 O3144 2.441 . S
U3126 O3145 2.420 . S
U3126 O3146 2.455 . S
U3126 O3147 2.449 . S
O3127 U3126 2.454 . S
O3127 C3129 1.353 . S
O3128 U3126 2.458 . S
O3128 C3129 1.286 . S
C3129 U3126 2.984 . S
C3129 O3127 1.353 . S
C3129 O3128 1.286 . S
C3129 C3131 1.363 . S
C3130 C3120 1.465 . S
C3130 U3126 2.847 . S
C3130 O3144 1.249 . S
C3130 O3145 1.202 . S
C3131 C3129 1.363 . S
C3131 C3133 1.408 . S
C3131 C3136 1.342 . S
C3132 C3133 1.310 . S
C3132 C3135 1.461 . S
C3132 H3152 0.932 . S
C3133 C3131 1.408 . S
C3133 C3132 1.310 . S
C3133 H3153 0.930 . S
C3134 C3135 1.474 . S
C3134 C3136 1.285 . S
C3134 H3154 0.929 . S
C3135 C3132 1.461 . S
C3135 C3134 1.474 . S
C3136 C3131 1.342 . S
C3136 C3134 1.285 . S
C3136 H3155 0.930 . S
C3137 C3140 1.424 . S
C3137 C3142 1.245 . S
C3137 C3143 1.428 . S
C3138 C3141 1.260 . S
C3138 C3142 1.477 . S
C3138 H3156 0.932 . S
C3139 C3140 1.384 . S
C3139 C3141 1.479 . S
C3139 H3157 0.929 . S
C3140 C3137 1.424 . S
C3140 C3139 1.384 . S
C3140 H3158 0.928 . S
C3141 C3138 1.260 . S
C3141 C3139 1.479 . S
C3142 C3137 1.245 . S
C3142 C3138 1.477 . S
C3142 H3159 0.932 . S
C3143 U3126 2.882 . S
C3143 C3137 1.428 . S
C3143 O3146 1.301 . S
C3143 O3147 1.282 . S
O3144 U3126 2.441 . S
O3144 C3130 1.249 . S
O3145 U3126 2.420 . S
O3145 C3130 1.202 . S
O3146 U3126 2.455 . S
O3146 C3143 1.301 . S
O3147 U3126 2.449 . S
O3147 C3143 1.282 . S
H3148 C3121 0.931 . S
H3149 C3123 0.929 . S
H3150 C3124 0.930 . S
H3151 C3125 0.931 . S
H3152 C3132 0.932 . S
H3153 C3133 0.930 . S
H3154 C3134 0.929 . S
H3155 C3136 0.930 . S
H3156 C3138 0.932 . S
H3157 C3139 0.929 . S
H3158 C3140 0.928 . S
H3159 C3142 0.932 . S
C3160 C3161 1.264 . S
C3160 C3165 1.479 . S
C3160 C3170 1.465 . S
C3161 C3160 1.264 . S
C3161 C3163 1.339 . S
C3161 H3188 0.931 . S
C3162 C3163 1.395 . S
C3162 C3164 1.320 . S
C3163 C3161 1.339 . S
C3163 C3162 1.395 . S
C3163 H3189 0.929 . S
C3164 C3162 1.320 . S
C3164 C3165 1.405 . S
C3164 H3190 0.930 . S
C3165 C3160 1.479 . S
C3165 C3164 1.405 . S
C3165 H3191 0.931 . S
U3166 O3167 2.454 . S
U3166 O3168 2.458 . S
U3166 C3169 2.984 . S
U3166 C3170 2.847 . S
U3166 C3183 2.882 . S
U3166 O3184 2.441 . S
U3166 O3185 2.420 . S
U3166 O3186 2.455 . S
U3166 O3187 2.449 . S
O3167 U3166 2.454 . S
O3167 C3169 1.353 . S
O3168 U3166 2.458 . S
O3168 C3169 1.286 . S
C3169 U3166 2.984 . S
C3169 O3167 1.353 . S
C3169 O3168 1.286 . S
C3169 C3171 1.363 . S
C3170 C3160 1.465 . S
C3170 U3166 2.847 . S
C3170 O3184 1.249 . S
C3170 O3185 1.202 . S
C3171 C3169 1.363 . S
C3171 C3173 1.408 . S
C3171 C3176 1.342 . S
C3172 C3173 1.310 . S
C3172 C3175 1.461 . S
C3172 H3192 0.932 . S
C3173 C3171 1.408 . S
C3173 C3172 1.310 . S
C3173 H3193 0.930 . S
C3174 C3175 1.474 . S
C3174 C3176 1.285 . S
C3174 H3194 0.929 . S
C3175 C3172 1.461 . S
C3175 C3174 1.474 . S
C3176 C3171 1.342 . S
C3176 C3174 1.285 . S
C3176 H3195 0.930 . S
C3177 C3180 1.424 . S
C3177 C3182 1.245 . S
C3177 C3183 1.428 . S
C3178 C3181 1.260 . S
C3178 C3182 1.477 . S
C3178 H3196 0.932 . S
C3179 C3180 1.384 . S
C3179 C3181 1.479 . S
C3179 H3197 0.929 . S
C3180 C3177 1.424 . S
C3180 C3179 1.384 . S
C3180 H3198 0.928 . S
C3181 C3178 1.260 . S
C3181 C3179 1.479 . S
C3182 C3177 1.245 . S
C3182 C3178 1.477 . S
C3182 H3199 0.932 . S
C3183 U3166 2.882 . S
C3183 C3177 1.428 . S
C3183 O3186 1.301 . S
C3183 O3187 1.282 . S
O3184 U3166 2.441 . S
O3184 C3170 1.249 . S
O3185 U3166 2.420 . S
O3185 C3170 1.202 . S
O3186 U3166 2.455 . S
O3186 C3183 1.301 . S
O3187 U3166 2.449 . S
O3187 C3183 1.282 . S
H3188 C3161 0.931 . S
H3189 C3163 0.929 . S
H3190 C3164 0.930 . S
H3191 C3165 0.931 . S
H3192 C3172 0.932 . S
H3193 C3173 0.930 . S
H3194 C3174 0.929 . S
H3195 C3176 0.930 . S
H3196 C3178 0.932 . S
H3197 C3179 0.929 . S
H3198 C3180 0.928 . S
H3199 C3182 0.932 . S
C3200 C3201 1.264 . S
C3200 C3205 1.479 . S
C3200 C3210 1.465 . S
C3201 C3200 1.264 . S
C3201 C3203 1.339 . S
C3201 H3228 0.931 . S
C3202 C3203 1.395 . S
C3202 C3204 1.320 . S
C3203 C3201 1.339 . S
C3203 C3202 1.395 . S
C3203 H3229 0.929 . S
C3204 C3202 1.320 . S
C3204 C3205 1.405 . S
C3204 H3230 0.930 . S
C3205 C3200 1.479 . S
C3205 C3204 1.405 . S
C3205 H3231 0.931 . S
U3206 O3207 2.454 . S
U3206 O3208 2.458 . S
U3206 C3209 2.984 . S
U3206 C3210 2.847 . S
U3206 C3223 2.882 . S
U3206 O3224 2.441 . S
U3206 O3225 2.420 . S
U3206 O3226 2.455 . S
U3206 O3227 2.449 . S
O3207 U3206 2.454 . S
O3207 C3209 1.353 . S
O3208 U3206 2.458 . S
O3208 C3209 1.286 . S
C3209 U3206 2.984 . S
C3209 O3207 1.353 . S
C3209 O3208 1.286 . S
C3209 C3211 1.363 . S
C3210 C3200 1.465 . S
C3210 U3206 2.847 . S
C3210 O3224 1.249 . S
C3210 O3225 1.202 . S
C3211 C3209 1.363 . S
C3211 C3213 1.408 . S
C3211 C3216 1.342 . S
C3212 C3213 1.310 . S
C3212 C3215 1.461 . S
C3212 H3232 0.932 . S
C3213 C3211 1.408 . S
C3213 C3212 1.310 . S
C3213 H3233 0.930 . S
C3214 C3215 1.474 . S
C3214 C3216 1.285 . S
C3214 H3234 0.929 . S
C3215 C3212 1.461 . S
C3215 C3214 1.474 . S
C3216 C3211 1.342 . S
C3216 C3214 1.285 . S
C3216 H3235 0.930 . S
C3217 C3220 1.424 . S
C3217 C3222 1.245 . S
C3217 C3223 1.428 . S
C3218 C3221 1.260 . S
C3218 C3222 1.477 . S
C3218 H3236 0.932 . S
C3219 C3220 1.384 . S
C3219 C3221 1.479 . S
C3219 H3237 0.929 . S
C3220 C3217 1.424 . S
C3220 C3219 1.384 . S
C3220 H3238 0.928 . S
C3221 C3218 1.260 . S
C3221 C3219 1.479 . S
C3222 C3217 1.245 . S
C3222 C3218 1.477 . S
C3222 H3239 0.932 . S
C3223 U3206 2.882 . S
C3223 C3217 1.428 . S
C3223 O3226 1.301 . S
C3223 O3227 1.282 . S
O3224 U3206 2.441 . S
O3224 C3210 1.249 . S
O3225 U3206 2.420 . S
O3225 C3210 1.202 . S
O3226 U3206 2.455 . S
O3226 C3223 1.301 . S
O3227 U3206 2.449 . S
O3227 C3223 1.282 . S
H3228 C3201 0.931 . S
H3229 C3203 0.929 . S
H3230 C3204 0.930 . S
H3231 C3205 0.931 . S
H3232 C3212 0.932 . S
H3233 C3213 0.930 . S
H3234 C3214 0.929 . S
H3235 C3216 0.930 . S
H3236 C3218 0.932 . S
H3237 C3219 0.929 . S
H3238 C3220 0.928 . S
H3239 C3222 0.932 . S
C3240 C3241 1.264 . S
C3240 C3245 1.479 . S
C3240 C3250 1.465 . S
C3241 C3240 1.264 . S
C3241 C3243 1.339 . S
C3241 H3268 0.931 . S
C3242 C3243 1.395 . S
C3242 C3244 1.320 . S
C3243 C3241 1.339 . S
C3243 C3242 1.395 . S
C3243 H3269 0.929 . S
C3244 C3242 1.320 . S
C3244 C3245 1.405 . S
C3244 H3270 0.930 . S
C3245 C3240 1.479 . S
C3245 C3244 1.405 . S
C3245 H3271 0.931 . S
U3246 O3247 2.454 . S
U3246 O3248 2.458 . S
U3246 C3249 2.984 . S
U3246 C3250 2.847 . S
U3246 C3263 2.882 . S
U3246 O3264 2.441 . S
U3246 O3265 2.420 . S
U3246 O3266 2.455 . S
U3246 O3267 2.449 . S
O3247 U3246 2.454 . S
O3247 C3249 1.353 . S
O3248 U3246 2.458 . S
O3248 C3249 1.286 . S
C3249 U3246 2.984 . S
C3249 O3247 1.353 . S
C3249 O3248 1.286 . S
C3249 C3251 1.363 . S
C3250 C3240 1.465 . S
C3250 U3246 2.847 . S
C3250 O3264 1.249 . S
C3250 O3265 1.202 . S
C3251 C3249 1.363 . S
C3251 C3253 1.408 . S
C3251 C3256 1.342 . S
C3252 C3253 1.310 . S
C3252 C3255 1.461 . S
C3252 H3272 0.932 . S
C3253 C3251 1.408 . S
C3253 C3252 1.310 . S
C3253 H3273 0.930 . S
C3254 C3255 1.474 . S
C3254 C3256 1.285 . S
C3254 H3274 0.929 . S
C3255 C3252 1.461 . S
C3255 C3254 1.474 . S
C3256 C3251 1.342 . S
C3256 C3254 1.285 . S
C3256 H3275 0.930 . S
C3257 C3260 1.424 . S
C3257 C3262 1.245 . S
C3257 C3263 1.428 . S
C3258 C3261 1.260 . S
C3258 C3262 1.477 . S
C3258 H3276 0.932 . S
C3259 C3260 1.384 . S
C3259 C3261 1.479 . S
C3259 H3277 0.929 . S
C3260 C3257 1.424 . S
C3260 C3259 1.384 . S
C3260 H3278 0.928 . S
C3261 C3258 1.260 . S
C3261 C3259 1.479 . S
C3262 C3257 1.245 . S
C3262 C3258 1.477 . S
C3262 H3279 0.932 . S
C3263 U3246 2.882 . S
C3263 C3257 1.428 . S
C3263 O3266 1.301 . S
C3263 O3267 1.282 . S
O3264 U3246 2.441 . S
O3264 C3250 1.249 . S
O3265 U3246 2.420 . S
O3265 C3250 1.202 . S
O3266 U3246 2.455 . S
O3266 C3263 1.301 . S
O3267 U3246 2.449 . S
O3267 C3263 1.282 . S
H3268 C3241 0.931 . S
H3269 C3243 0.929 . S
H3270 C3244 0.930 . S
H3271 C3245 0.931 . S
H3272 C3252 0.932 . S
H3273 C3253 0.930 . S
H3274 C3254 0.929 . S
H3275 C3256 0.930 . S
H3276 C3258 0.932 . S
H3277 C3259 0.929 . S
H3278 C3260 0.928 . S
H3279 C3262 0.932 . S
C3280 C3281 1.264 . S
C3280 C3285 1.479 . S
C3280 C3290 1.465 . S
C3281 C3280 1.264 . S
C3281 C3283 1.339 . S
C3281 H3308 0.931 . S
C3282 C3283 1.395 . S
C3282 C3284 1.320 . S
C3283 C3281 1.339 . S
C3283 C3282 1.395 . S
C3283 H3309 0.929 . S
C3284 C3282 1.320 . S
C3284 C3285 1.405 . S
C3284 H3310 0.930 . S
C3285 C3280 1.479 . S
C3285 C3284 1.405 . S
C3285 H3311 0.931 . S
U3286 O3287 2.454 . S
U3286 O3288 2.458 . S
U3286 C3289 2.984 . S
U3286 C3290 2.847 . S
U3286 C3303 2.882 . S
U3286 O3304 2.441 . S
U3286 O3305 2.420 . S
U3286 O3306 2.455 . S
U3286 O3307 2.449 . S
O3287 U3286 2.454 . S
O3287 C3289 1.353 . S
O3288 U3286 2.458 . S
O3288 C3289 1.286 . S
C3289 U3286 2.984 . S
C3289 O3287 1.353 . S
C3289 O3288 1.286 . S
C3289 C3291 1.363 . S
C3290 C3280 1.465 . S
C3290 U3286 2.847 . S
C3290 O3304 1.249 . S
C3290 O3305 1.202 . S
C3291 C3289 1.363 . S
C3291 C3293 1.408 . S
C3291 C3296 1.342 . S
C3292 C3293 1.310 . S
C3292 C3295 1.461 . S
C3292 H3312 0.932 . S
C3293 C3291 1.408 . S
C3293 C3292 1.310 . S
C3293 H3313 0.930 . S
C3294 C3295 1.474 . S
C3294 C3296 1.285 . S
C3294 H3314 0.929 . S
C3295 C3292 1.461 . S
C3295 C3294 1.474 . S
C3296 C3291 1.342 . S
C3296 C3294 1.285 . S
C3296 H3315 0.930 . S
C3297 C3300 1.424 . S
C3297 C3302 1.245 . S
C3297 C3303 1.428 . S
C3298 C3301 1.260 . S
C3298 C3302 1.477 . S
C3298 H3316 0.932 . S
C3299 C3300 1.384 . S
C3299 C3301 1.479 . S
C3299 H3317 0.929 . S
C3300 C3297 1.424 . S
C3300 C3299 1.384 . S
C3300 H3318 0.928 . S
C3301 C3298 1.260 . S
C3301 C3299 1.479 . S
C3302 C3297 1.245 . S
C3302 C3298 1.477 . S
C3302 H3319 0.932 . S
C3303 U3286 2.882 . S
C3303 C3297 1.428 . S
C3303 O3306 1.301 . S
C3303 O3307 1.282 . S
O3304 U3286 2.441 . S
O3304 C3290 1.249 . S
O3305 U3286 2.420 . S
O3305 C3290 1.202 . S
O3306 U3286 2.455 . S
O3306 C3303 1.301 . S
O3307 U3286 2.449 . S
O3307 C3303 1.282 . S
H3308 C3281 0.931 . S
H3309 C3283 0.929 . S
H3310 C3284 0.930 . S
H3311 C3285 0.931 . S
H3312 C3292 0.932 . S
H3313 C3293 0.930 . S
H3314 C3294 0.929 . S
H3315 C3296 0.930 . S
H3316 C3298 0.932 . S
H3317 C3299 0.929 . S
H3318 C3300 0.928 . S
H3319 C3302 0.932 . S
C3320 C3321 1.264 . S
C3320 C3325 1.479 . S
C3320 C3330 1.465 . S
C3321 C3320 1.264 . S
C3321 C3323 1.339 . S
C3321 H3348 0.931 . S
C3322 C3323 1.395 . S
C3322 C3324 1.320 . S
C3323 C3321 1.339 . S
C3323 C3322 1.395 . S
C3323 H3349 0.929 . S
C3324 C3322 1.320 . S
C3324 C3325 1.405 . S
C3324 H3350 0.930 . S
C3325 C3320 1.479 . S
C3325 C3324 1.405 . S
C3325 H3351 0.931 . S
U3326 O3327 2.454 . S
U3326 O3328 2.458 . S
U3326 C3329 2.984 . S
U3326 C3330 2.847 . S
U3326 C3343 2.882 . S
U3326 O3344 2.441 . S
U3326 O3345 2.420 . S
U3326 O3346 2.455 . S
U3326 O3347 2.449 . S
O3327 U3326 2.454 . S
O3327 C3329 1.353 . S
O3328 U3326 2.458 . S
O3328 C3329 1.286 . S
C3329 U3326 2.984 . S
C3329 O3327 1.353 . S
C3329 O3328 1.286 . S
C3329 C3331 1.363 . S
C3330 C3320 1.465 . S
C3330 U3326 2.847 . S
C3330 O3344 1.249 . S
C3330 O3345 1.202 . S
C3331 C3329 1.363 . S
C3331 C3333 1.408 . S
C3331 C3336 1.342 . S
C3332 C3333 1.310 . S
C3332 C3335 1.461 . S
C3332 H3352 0.932 . S
C3333 C3331 1.408 . S
C3333 C3332 1.310 . S
C3333 H3353 0.930 . S
C3334 C3335 1.474 . S
C3334 C3336 1.285 . S
C3334 H3354 0.929 . S
C3335 C3332 1.461 . S
C3335 C3334 1.474 . S
C3336 C3331 1.342 . S
C3336 C3334 1.285 . S
C3336 H3355 0.930 . S
C3337 C3340 1.424 . S
C3337 C3342 1.245 . S
C3337 C3343 1.428 . S
C3338 C3341 1.260 . S
C3338 C3342 1.477 . S
C3338 H3356 0.932 . S
C3339 C3340 1.384 . S
C3339 C3341 1.479 . S
C3339 H3357 0.929 . S
C3340 C3337 1.424 . S
C3340 C3339 1.384 . S
C3340 H3358 0.928 . S
C3341 C3338 1.260 . S
C3341 C3339 1.479 . S
C3342 C3337 1.245 . S
C3342 C3338 1.477 . S
C3342 H3359 0.932 . S
C3343 U3326 2.882 . S
C3343 C3337 1.428 . S
C3343 O3346 1.301 . S
C3343 O3347 1.282 . S
O3344 U3326 2.441 . S
O3344 C3330 1.249 . S
O3345 U3326 2.420 . S
O3345 C3330 1.202 . S
O3346 U3326 2.455 . S
O3346 C3343 1.301 . S
O3347 U3326 2.449 . S
O3347 C3343 1.282 . S
H3348 C3321 0.931 . S
H3349 C3323 0.929 . S
H3350 C3324 0.930 . S
H3351 C3325 0.931 . S
H3352 C3332 0.932 . S
H3353 C3333 0.930 . S
H3354 C3334 0.929 . S
H3355 C3336 0.930 . S
H3356 C3338 0.932 . S
H3357 C3339 0.929 . S
H3358 C3340 0.928 . S
H3359 C3342 0.932 . S
C3360 C3361 1.264 . S
C3360 C3365 1.479 . S
C3360 C3370 1.465 . S
C3361 C3360 1.264 . S
C3361 C3363 1.339 . S
C3361 H3388 0.931 . S
C3362 C3363 1.395 . S
C3362 C3364 1.320 . S
C3363 C3361 1.339 . S
C3363 C3362 1.395 . S
C3363 H3389 0.929 . S
C3364 C3362 1.320 . S
C3364 C3365 1.405 . S
C3364 H3390 0.930 . S
C3365 C3360 1.479 . S
C3365 C3364 1.405 . S
C3365 H3391 0.931 . S
U3366 O3367 2.454 . S
U3366 O3368 2.458 . S
U3366 C3369 2.984 . S
U3366 C3370 2.847 . S
U3366 C3383 2.882 . S
U3366 O3384 2.441 . S
U3366 O3385 2.420 . S
U3366 O3386 2.455 . S
U3366 O3387 2.449 . S
O3367 U3366 2.454 . S
O3367 C3369 1.353 . S
O3368 U3366 2.458 . S
O3368 C3369 1.286 . S
C3369 U3366 2.984 . S
C3369 O3367 1.353 . S
C3369 O3368 1.286 . S
C3369 C3371 1.363 . S
C3370 C3360 1.465 . S
C3370 U3366 2.847 . S
C3370 O3384 1.249 . S
C3370 O3385 1.202 . S
C3371 C3369 1.363 . S
C3371 C3373 1.408 . S
C3371 C3376 1.342 . S
C3372 C3373 1.310 . S
C3372 C3375 1.461 . S
C3372 H3392 0.932 . S
C3373 C3371 1.408 . S
C3373 C3372 1.310 . S
C3373 H3393 0.930 . S
C3374 C3375 1.474 . S
C3374 C3376 1.285 . S
C3374 H3394 0.929 . S
C3375 C3372 1.461 . S
C3375 C3374 1.474 . S
C3376 C3371 1.342 . S
C3376 C3374 1.285 . S
C3376 H3395 0.930 . S
C3377 C3380 1.424 . S
C3377 C3382 1.245 . S
C3377 C3383 1.428 . S
C3378 C3381 1.260 . S
C3378 C3382 1.477 . S
C3378 H3396 0.932 . S
C3379 C3380 1.384 . S
C3379 C3381 1.479 . S
C3379 H3397 0.929 . S
C3380 C3377 1.424 . S
C3380 C3379 1.384 . S
C3380 H3398 0.928 . S
C3381 C3378 1.260 . S
C3381 C3379 1.479 . S
C3382 C3377 1.245 . S
C3382 C3378 1.477 . S
C3382 H3399 0.932 . S
C3383 U3366 2.882 . S
C3383 C3377 1.428 . S
C3383 O3386 1.301 . S
C3383 O3387 1.282 . S
O3384 U3366 2.441 . S
O3384 C3370 1.249 . S
O3385 U3366 2.420 . S
O3385 C3370 1.202 . S
O3386 U3366 2.455 . S
O3386 C3383 1.301 . S
O3387 U3366 2.449 . S
O3387 C3383 1.282 . S
H3388 C3361 0.931 . S
H3389 C3363 0.929 . S
H3390 C3364 0.930 . S
H3391 C3365 0.931 . S
H3392 C3372 0.932 . S
H3393 C3373 0.930 . S
H3394 C3374 0.929 . S
H3395 C3376 0.930 . S
H3396 C3378 0.932 . S
H3397 C3379 0.929 . S
H3398 C3380 0.928 . S
H3399 C3382 0.932 . S
C3400 C3401 1.264 . S
C3400 C3405 1.479 . S
C3400 C3410 1.465 . S
C3401 C3400 1.264 . S
C3401 C3403 1.339 . S
C3401 H3428 0.931 . S
C3402 C3403 1.395 . S
C3402 C3404 1.320 . S
C3403 C3401 1.339 . S
C3403 C3402 1.395 . S
C3403 H3429 0.929 . S
C3404 C3402 1.320 . S
C3404 C3405 1.405 . S
C3404 H3430 0.930 . S
C3405 C3400 1.479 . S
C3405 C3404 1.405 . S
C3405 H3431 0.931 . S
U3406 O3407 2.454 . S
U3406 O3408 2.458 . S
U3406 C3409 2.984 . S
U3406 C3410 2.847 . S
U3406 C3423 2.882 . S
U3406 O3424 2.441 . S
U3406 O3425 2.420 . S
U3406 O3426 2.455 . S
U3406 O3427 2.449 . S
O3407 U3406 2.454 . S
O3407 C3409 1.353 . S
O3408 U3406 2.458 . S
O3408 C3409 1.286 . S
C3409 U3406 2.984 . S
C3409 O3407 1.353 . S
C3409 O3408 1.286 . S
C3409 C3411 1.363 . S
C3410 C3400 1.465 . S
C3410 U3406 2.847 . S
C3410 O3424 1.249 . S
C3410 O3425 1.202 . S
C3411 C3409 1.363 . S
C3411 C3413 1.408 . S
C3411 C3416 1.342 . S
C3412 C3413 1.310 . S
C3412 C3415 1.461 . S
C3412 H3432 0.932 . S
C3413 C3411 1.408 . S
C3413 C3412 1.310 . S
C3413 H3433 0.930 . S
C3414 C3415 1.474 . S
C3414 C3416 1.285 . S
C3414 H3434 0.929 . S
C3415 C3412 1.461 . S
C3415 C3414 1.474 . S
C3416 C3411 1.342 . S
C3416 C3414 1.285 . S
C3416 H3435 0.930 . S
C3417 C3420 1.424 . S
C3417 C3422 1.245 . S
C3417 C3423 1.428 . S
C3418 C3421 1.260 . S
C3418 C3422 1.477 . S
C3418 H3436 0.932 . S
C3419 C3420 1.384 . S
C3419 C3421 1.479 . S
C3419 H3437 0.929 . S
C3420 C3417 1.424 . S
C3420 C3419 1.384 . S
C3420 H3438 0.928 . S
C3421 C3418 1.260 . S
C3421 C3419 1.479 . S
C3422 C3417 1.245 . S
C3422 C3418 1.477 . S
C3422 H3439 0.932 . S
C3423 U3406 2.882 . S
C3423 C3417 1.428 . S
C3423 O3426 1.301 . S
C3423 O3427 1.282 . S
O3424 U3406 2.441 . S
O3424 C3410 1.249 . S
O3425 U3406 2.420 . S
O3425 C3410 1.202 . S
O3426 U3406 2.455 . S
O3426 C3423 1.301 . S
O3427 U3406 2.449 . S
O3427 C3423 1.282 . S
H3428 C3401 0.931 . S
H3429 C3403 0.929 . S
H3430 C3404 0.930 . S
H3431 C3405 0.931 . S
H3432 C3412 0.932 . S
H3433 C3413 0.930 . S
H3434 C3414 0.929 . S
H3435 C3416 0.930 . S
H3436 C3418 0.932 . S
H3437 C3419 0.929 . S
H3438 C3420 0.928 . S
H3439 C3422 0.932 . S
C3440 C3441 1.264 . S
C3440 C3445 1.479 . S
C3440 C3450 1.465 . S
C3441 C3440 1.264 . S
C3441 C3443 1.339 . S
C3441 H3468 0.931 . S
C3442 C3443 1.395 . S
C3442 C3444 1.320 . S
C3443 C3441 1.339 . S
C3443 C3442 1.395 . S
C3443 H3469 0.929 . S
C3444 C3442 1.320 . S
C3444 C3445 1.405 . S
C3444 H3470 0.930 . S
C3445 C3440 1.479 . S
C3445 C3444 1.405 . S
C3445 H3471 0.931 . S
U3446 O3447 2.454 . S
U3446 O3448 2.458 . S
U3446 C3449 2.984 . S
U3446 C3450 2.847 . S
U3446 C3463 2.882 . S
U3446 O3464 2.441 . S
U3446 O3465 2.420 . S
U3446 O3466 2.455 . S
U3446 O3467 2.449 . S
O3447 U3446 2.454 . S
O3447 C3449 1.353 . S
O3448 U3446 2.458 . S
O3448 C3449 1.286 . S
C3449 U3446 2.984 . S
C3449 O3447 1.353 . S
C3449 O3448 1.286 . S
C3449 C3451 1.363 . S
C3450 C3440 1.465 . S
C3450 U3446 2.847 . S
C3450 O3464 1.249 . S
C3450 O3465 1.202 . S
C3451 C3449 1.363 . S
C3451 C3453 1.408 . S
C3451 C3456 1.342 . S
C3452 C3453 1.310 . S
C3452 C3455 1.461 . S
C3452 H3472 0.932 . S
C3453 C3451 1.408 . S
C3453 C3452 1.310 . S
C3453 H3473 0.930 . S
C3454 C3455 1.474 . S
C3454 C3456 1.285 . S
C3454 H3474 0.929 . S
C3455 C3452 1.461 . S
C3455 C3454 1.474 . S
C3456 C3451 1.342 . S
C3456 C3454 1.285 . S
C3456 H3475 0.930 . S
C3457 C3460 1.424 . S
C3457 C3462 1.245 . S
C3457 C3463 1.428 . S
C3458 C3461 1.260 . S
C3458 C3462 1.477 . S
C3458 H3476 0.932 . S
C3459 C3460 1.384 . S
C3459 C3461 1.479 . S
C3459 H3477 0.929 . S
C3460 C3457 1.424 . S
C3460 C3459 1.384 . S
C3460 H3478 0.928 . S
C3461 C3458 1.260 . S
C3461 C3459 1.479 . S
C3462 C3457 1.245 . S
C3462 C3458 1.477 . S
C3462 H3479 0.932 . S
C3463 U3446 2.882 . S
C3463 C3457 1.428 . S
C3463 O3466 1.301 . S
C3463 O3467 1.282 . S
O3464 U3446 2.441 . S
O3464 C3450 1.249 . S
O3465 U3446 2.420 . S
O3465 C3450 1.202 . S
O3466 U3446 2.455 . S
O3466 C3463 1.301 . S
O3467 U3446 2.449 . S
O3467 C3463 1.282 . S
H3468 C3441 0.931 . S
H3469 C3443 0.929 . S
H3470 C3444 0.930 . S
H3471 C3445 0.931 . S
H3472 C3452 0.932 . S
H3473 C3453 0.930 . S
H3474 C3454 0.929 . S
H3475 C3456 0.930 . S
H3476 C3458 0.932 . S
H3477 C3459 0.929 . S
H3478 C3460 0.928 . S
H3479 C3462 0.932 . S
C3480 C3481 1.264 . S
C3480 C3485 1.479 . S
C3480 C3490 1.465 . S
C3481 C3480 1.264 . S
C3481 C3483 1.339 . S
C3481 H3508 0.931 . S
C3482 C3483 1.395 . S
C3482 C3484 1.320 . S
C3483 C3481 1.339 . S
C3483 C3482 1.395 . S
C3483 H3509 0.929 . S
C3484 C3482 1.320 . S
C3484 C3485 1.405 . S
C3484 H3510 0.930 . S
C3485 C3480 1.479 . S
C3485 C3484 1.405 . S
C3485 H3511 0.931 . S
U3486 O3487 2.454 . S
U3486 O3488 2.458 . S
U3486 C3489 2.984 . S
U3486 C3490 2.847 . S
U3486 C3503 2.882 . S
U3486 O3504 2.441 . S
U3486 O3505 2.420 . S
U3486 O3506 2.455 . S
U3486 O3507 2.449 . S
O3487 U3486 2.454 . S
O3487 C3489 1.353 . S
O3488 U3486 2.458 . S
O3488 C3489 1.286 . S
C3489 U3486 2.984 . S
C3489 O3487 1.353 . S
C3489 O3488 1.286 . S
C3489 C3491 1.363 . S
C3490 C3480 1.465 . S
C3490 U3486 2.847 . S
C3490 O3504 1.249 . S
C3490 O3505 1.202 . S
C3491 C3489 1.363 . S
C3491 C3493 1.408 . S
C3491 C3496 1.342 . S
C3492 C3493 1.310 . S
C3492 C3495 1.461 . S
C3492 H3512 0.932 . S
C3493 C3491 1.408 . S
C3493 C3492 1.310 . S
C3493 H3513 0.930 . S
C3494 C3495 1.474 . S
C3494 C3496 1.285 . S
C3494 H3514 0.929 . S
C3495 C3492 1.461 . S
C3495 C3494 1.474 . S
C3496 C3491 1.342 . S
C3496 C3494 1.285 . S
C3496 H3515 0.930 . S
C3497 C3500 1.424 . S
C3497 C3502 1.245 . S
C3497 C3503 1.428 . S
C3498 C3501 1.260 . S
C3498 C3502 1.477 . S
C3498 H3516 0.932 . S
C3499 C3500 1.384 . S
C3499 C3501 1.479 . S
C3499 H3517 0.929 . S
C3500 C3497 1.424 . S
C3500 C3499 1.384 . S
C3500 H3518 0.928 . S
C3501 C3498 1.260 . S
C3501 C3499 1.479 . S
C3502 C3497 1.245 . S
C3502 C3498 1.477 . S
C3502 H3519 0.932 . S
C3503 U3486 2.882 . S
C3503 C3497 1.428 . S
C3503 O3506 1.301 . S
C3503 O3507 1.282 . S
O3504 U3486 2.441 . S
O3504 C3490 1.249 . S
O3505 U3486 2.420 . S
O3505 C3490 1.202 . S
O3506 U3486 2.455 . S
O3506 C3503 1.301 . S
O3507 U3486 2.449 . S
O3507 C3503 1.282 . S
H3508 C3481 0.931 . S
H3509 C3483 0.929 . S
H3510 C3484 0.930 . S
H3511 C3485 0.931 . S
H3512 C3492 0.932 . S
H3513 C3493 0.930 . S
H3514 C3494 0.929 . S
H3515 C3496 0.930 . S
H3516 C3498 0.932 . S
H3517 C3499 0.929 . S
H3518 C3500 0.928 . S
H3519 C3502 0.932 . S
C3520 C3521 1.264 . S
C3520 C3525 1.479 . S
C3520 C3530 1.465 . S
C3521 C3520 1.264 . S
C3521 C3523 1.339 . S
C3521 H3548 0.931 . S
C3522 C3523 1.395 . S
C3522 C3524 1.320 . S
C3523 C3521 1.339 . S
C3523 C3522 1.395 . S
C3523 H3549 0.929 . S
C3524 C3522 1.320 . S
C3524 C3525 1.405 . S
C3524 H3550 0.930 . S
C3525 C3520 1.479 . S
C3525 C3524 1.405 . S
C3525 H3551 0.931 . S
U3526 O3527 2.454 . S
U3526 O3528 2.458 . S
U3526 C3529 2.984 . S
U3526 C3530 2.847 . S
U3526 C3543 2.882 . S
U3526 O3544 2.441 . S
U3526 O3545 2.420 . S
U3526 O3546 2.455 . S
U3526 O3547 2.449 . S
O3527 U3526 2.454 . S
O3527 C3529 1.353 . S
O3528 U3526 2.458 . S
O3528 C3529 1.286 . S
C3529 U3526 2.984 . S
C3529 O3527 1.353 . S
C3529 O3528 1.286 . S
C3529 C3531 1.363 . S
C3530 C3520 1.465 . S
C3530 U3526 2.847 . S
C3530 O3544 1.249 . S
C3530 O3545 1.202 . S
C3531 C3529 1.363 . S
C3531 C3533 1.408 . S
C3531 C3536 1.342 . S
C3532 C3533 1.310 . S
C3532 C3535 1.461 . S
C3532 H3552 0.932 . S
C3533 C3531 1.408 . S
C3533 C3532 1.310 . S
C3533 H3553 0.930 . S
C3534 C3535 1.474 . S
C3534 C3536 1.285 . S
C3534 H3554 0.929 . S
C3535 C3532 1.461 . S
C3535 C3534 1.474 . S
C3536 C3531 1.342 . S
C3536 C3534 1.285 . S
C3536 H3555 0.930 . S
C3537 C3540 1.424 . S
C3537 C3542 1.245 . S
C3537 C3543 1.428 . S
C3538 C3541 1.260 . S
C3538 C3542 1.477 . S
C3538 H3556 0.932 . S
C3539 C3540 1.384 . S
C3539 C3541 1.479 . S
C3539 H3557 0.929 . S
C3540 C3537 1.424 . S
C3540 C3539 1.384 . S
C3540 H3558 0.928 . S
C3541 C3538 1.260 . S
C3541 C3539 1.479 . S
C3542 C3537 1.245 . S
C3542 C3538 1.477 . S
C3542 H3559 0.932 . S
C3543 U3526 2.882 . S
C3543 C3537 1.428 . S
C3543 O3546 1.301 . S
C3543 O3547 1.282 . S
O3544 U3526 2.441 . S
O3544 C3530 1.249 . S
O3545 U3526 2.420 . S
O3545 C3530 1.202 . S
O3546 U3526 2.455 . S
O3546 C3543 1.301 . S
O3547 U3526 2.449 . S
O3547 C3543 1.282 . S
H3548 C3521 0.931 . S
H3549 C3523 0.929 . S
H3550 C3524 0.930 . S
H3551 C3525 0.931 . S
H3552 C3532 0.932 . S
H3553 C3533 0.930 . S
H3554 C3534 0.929 . S
H3555 C3536 0.930 . S
H3556 C3538 0.932 . S
H3557 C3539 0.929 . S
H3558 C3540 0.928 . S
H3559 C3542 0.932 . S
C3560 C3561 1.264 . S
C3560 C3565 1.479 . S
C3560 C3570 1.465 . S
C3561 C3560 1.264 . S
C3561 C3563 1.339 . S
C3561 H3588 0.931 . S
C3562 C3563 1.395 . S
C3562 C3564 1.320 . S
C3563 C3561 1.339 . S
C3563 C3562 1.395 . S
C3563 H3589 0.929 . S
C3564 C3562 1.320 . S
C3564 C3565 1.405 . S
C3564 H3590 0.930 . S
C3565 C3560 1.479 . S
C3565 C3564 1.405 . S
C3565 H3591 0.931 . S
U3566 O3567 2.454 . S
U3566 O3568 2.458 . S
U3566 C3569 2.984 . S
U3566 C3570 2.847 . S
U3566 C3583 2.882 . S
U3566 O3584 2.441 . S
U3566 O3585 2.420 . S
U3566 O3586 2.455 . S
U3566 O3587 2.449 . S
O3567 U3566 2.454 . S
O3567 C3569 1.353 . S
O3568 U3566 2.458 . S
O3568 C3569 1.286 . S
C3569 U3566 2.984 . S
C3569 O3567 1.353 . S
C3569 O3568 1.286 . S
C3569 C3571 1.363 . S
C3570 C3560 1.465 . S
C3570 U3566 2.847 . S
C3570 O3584 1.249 . S
C3570 O3585 1.202 . S
C3571 C3569 1.363 . S
C3571 C3573 1.408 . S
C3571 C3576 1.342 . S
C3572 C3573 1.310 . S
C3572 C3575 1.461 . S
C3572 H3592 0.932 . S
C3573 C3571 1.408 . S
C3573 C3572 1.310 . S
C3573 H3593 0.930 . S
C3574 C3575 1.474 . S
C3574 C3576 1.285 . S
C3574 H3594 0.929 . S
C3575 C3572 1.461 . S
C3575 C3574 1.474 . S
C3576 C3571 1.342 . S
C3576 C3574 1.285 . S
C3576 H3595 0.930 . S
C3577 C3580 1.424 . S
C3577 C3582 1.245 . S
C3577 C3583 1.428 . S
C3578 C3581 1.260 . S
C3578 C3582 1.477 . S
C3578 H3596 0.932 . S
C3579 C3580 1.384 . S
C3579 C3581 1.479 . S
C3579 H3597 0.929 . S
C3580 C3577 1.424 . S
C3580 C3579 1.384 . S
C3580 H3598 0.928 . S
C3581 C3578 1.260 . S
C3581 C3579 1.479 . S
C3582 C3577 1.245 . S
C3582 C3578 1.477 . S
C3582 H3599 0.932 . S
C3583 U3566 2.882 . S
C3583 C3577 1.428 . S
C3583 O3586 1.301 . S
C3583 O3587 1.282 . S
O3584 U3566 2.441 . S
O3584 C3570 1.249 . S
O3585 U3566 2.420 . S
O3585 C3570 1.202 . S
O3586 U3566 2.455 . S
O3586 C3583 1.301 . S
O3587 U3566 2.449 . S
O3587 C3583 1.282 . S
H3588 C3561 0.931 . S
H3589 C3563 0.929 . S
H3590 C3564 0.930 . S
H3591 C3565 0.931 . S
H3592 C3572 0.932 . S
H3593 C3573 0.930 . S
H3594 C3574 0.929 . S
H3595 C3576 0.930 . S
H3596 C3578 0.932 . S
H3597 C3579 0.929 . S
H3598 C3580 0.928 . S
H3599 C3582 0.932 . S
C3600 C3601 1.264 . S
C3600 C3605 1.479 . S
C3600 C3610 1.465 . S
C3601 C3600 1.264 . S
C3601 C3603 1.339 . S
C3601 H3628 0.931 . S
C3602 C3603 1.395 . S
C3602 C3604 1.320 . S
C3603 C3601 1.339 . S
C3603 C3602 1.395 . S
C3603 H3629 0.929 . S
C3604 C3602 1.320 . S
C3604 C3605 1.405 . S
C3604 H3630 0.930 . S
C3605 C3600 1.479 . S
C3605 C3604 1.405 . S
C3605 H3631 0.931 . S
U3606 O3607 2.454 . S
U3606 O3608 2.458 . S
U3606 C3609 2.984 . S
U3606 C3610 2.847 . S
U3606 C3623 2.882 . S
U3606 O3624 2.441 . S
U3606 O3625 2.420 . S
U3606 O3626 2.455 . S
U3606 O3627 2.449 . S
O3607 U3606 2.454 . S
O3607 C3609 1.353 . S
O3608 U3606 2.458 . S
O3608 C3609 1.286 . S
C3609 U3606 2.984 . S
C3609 O3607 1.353 . S
C3609 O3608 1.286 . S
C3609 C3611 1.363 . S
C3610 C3600 1.465 . S
C3610 U3606 2.847 . S
C3610 O3624 1.249 . S
C3610 O3625 1.202 . S
C3611 C3609 1.363 . S
C3611 C3613 1.408 . S
C3611 C3616 1.342 . S
C3612 C3613 1.310 . S
C3612 C3615 1.461 . S
C3612 H3632 0.932 . S
C3613 C3611 1.408 . S
C3613 C3612 1.310 . S
C3613 H3633 0.930 . S
C3614 C3615 1.474 . S
C3614 C3616 1.285 . S
C3614 H3634 0.929 . S
C3615 C3612 1.461 . S
C3615 C3614 1.474 . S
C3616 C3611 1.342 . S
C3616 C3614 1.285 . S
C3616 H3635 0.930 . S
C3617 C3620 1.424 . S
C3617 C3622 1.245 . S
C3617 C3623 1.428 . S
C3618 C3621 1.260 . S
C3618 C3622 1.477 . S
C3618 H3636 0.932 . S
C3619 C3620 1.384 . S
C3619 C3621 1.479 . S
C3619 H3637 0.929 . S
C3620 C3617 1.424 . S
C3620 C3619 1.384 . S
C3620 H3638 0.928 . S
C3621 C3618 1.260 . S
C3621 C3619 1.479 . S
C3622 C3617 1.245 . S
C3622 C3618 1.477 . S
C3622 H3639 0.932 . S
C3623 U3606 2.882 . S
C3623 C3617 1.428 . S
C3623 O3626 1.301 . S
C3623 O3627 1.282 . S
O3624 U3606 2.441 . S
O3624 C3610 1.249 . S
O3625 U3606 2.420 . S
O3625 C3610 1.202 . S
O3626 U3606 2.455 . S
O3626 C3623 1.301 . S
O3627 U3606 2.449 . S
O3627 C3623 1.282 . S
H3628 C3601 0.931 . S
H3629 C3603 0.929 . S
H3630 C3604 0.930 . S
H3631 C3605 0.931 . S
H3632 C3612 0.932 . S
H3633 C3613 0.930 . S
H3634 C3614 0.929 . S
H3635 C3616 0.930 . S
H3636 C3618 0.932 . S
H3637 C3619 0.929 . S
H3638 C3620 0.928 . S
H3639 C3622 0.932 . S
C3640 C3641 1.264 . S
C3640 C3645 1.479 . S
C3640 C3650 1.465 . S
C3641 C3640 1.264 . S
C3641 C3643 1.339 . S
C3641 H3668 0.931 . S
C3642 C3643 1.395 . S
C3642 C3644 1.320 . S
C3643 C3641 1.339 . S
C3643 C3642 1.395 . S
C3643 H3669 0.929 . S
C3644 C3642 1.320 . S
C3644 C3645 1.405 . S
C3644 H3670 0.930 . S
C3645 C3640 1.479 . S
C3645 C3644 1.405 . S
C3645 H3671 0.931 . S
U3646 O3647 2.454 . S
U3646 O3648 2.458 . S
U3646 C3649 2.984 . S
U3646 C3650 2.847 . S
U3646 C3663 2.882 . S
U3646 O3664 2.441 . S
U3646 O3665 2.420 . S
U3646 O3666 2.455 . S
U3646 O3667 2.449 . S
O3647 U3646 2.454 . S
O3647 C3649 1.353 . S
O3648 U3646 2.458 . S
O3648 C3649 1.286 . S
C3649 U3646 2.984 . S
C3649 O3647 1.353 . S
C3649 O3648 1.286 . S
C3649 C3651 1.363 . S
C3650 C3640 1.465 . S
C3650 U3646 2.847 . S
C3650 O3664 1.249 . S
C3650 O3665 1.202 . S
C3651 C3649 1.363 . S
C3651 C3653 1.408 . S
C3651 C3656 1.342 . S
C3652 C3653 1.310 . S
C3652 C3655 1.461 . S
C3652 H3672 0.932 . S
C3653 C3651 1.408 . S
C3653 C3652 1.310 . S
C3653 H3673 0.930 . S
C3654 C3655 1.474 . S
C3654 C3656 1.285 . S
C3654 H3674 0.929 . S
C3655 C3652 1.461 . S
C3655 C3654 1.474 . S
C3656 C3651 1.342 . S
C3656 C3654 1.285 . S
C3656 H3675 0.930 . S
C3657 C3660 1.424 . S
C3657 C3662 1.245 . S
C3657 C3663 1.428 . S
C3658 C3661 1.260 . S
C3658 C3662 1.477 . S
C3658 H3676 0.932 . S
C3659 C3660 1.384 . S
C3659 C3661 1.479 . S
C3659 H3677 0.929 . S
C3660 C3657 1.424 . S
C3660 C3659 1.384 . S
C3660 H3678 0.928 . S
C3661 C3658 1.260 . S
C3661 C3659 1.479 . S
C3662 C3657 1.245 . S
C3662 C3658 1.477 . S
C3662 H3679 0.932 . S
C3663 U3646 2.882 . S
C3663 C3657 1.428 . S
C3663 O3666 1.301 . S
C3663 O3667 1.282 . S
O3664 U3646 2.441 . S
O3664 C3650 1.249 . S
O3665 U3646 2.420 . S
O3665 C3650 1.202 . S
O3666 U3646 2.455 . S
O3666 C3663 1.301 . S
O3667 U3646 2.449 . S
O3667 C3663 1.282 . S
H3668 C3641 0.931 . S
H3669 C3643 0.929 . S
H3670 C3644 0.930 . S
H3671 C3645 0.931 . S
H3672 C3652 0.932 . S
H3673 C3653 0.930 . S
H3674 C3654 0.929 . S
H3675 C3656 0.930 . S
H3676 C3658 0.932 . S
H3677 C3659 0.929 . S
H3678 C3660 0.928 . S
H3679 C3662 0.932 . S
C3680 C3681 1.264 . S
C3680 C3685 1.479 . S
C3680 C3690 1.465 . S
C3681 C3680 1.264 . S
C3681 C3683 1.339 . S
C3681 H3708 0.931 . S
C3682 C3683 1.395 . S
C3682 C3684 1.320 . S
C3683 C3681 1.339 . S
C3683 C3682 1.395 . S
C3683 H3709 0.929 . S
C3684 C3682 1.320 . S
C3684 C3685 1.405 . S
C3684 H3710 0.930 . S
C3685 C3680 1.479 . S
C3685 C3684 1.405 . S
C3685 H3711 0.931 . S
U3686 O3687 2.454 . S
U3686 O3688 2.458 . S
U3686 C3689 2.984 . S
U3686 C3690 2.847 . S
U3686 C3703 2.882 . S
U3686 O3704 2.441 . S
U3686 O3705 2.420 . S
U3686 O3706 2.455 . S
U3686 O3707 2.449 . S
O3687 U3686 2.454 . S
O3687 C3689 1.353 . S
O3688 U3686 2.458 . S
O3688 C3689 1.286 . S
C3689 U3686 2.984 . S
C3689 O3687 1.353 . S
C3689 O3688 1.286 . S
C3689 C3691 1.363 . S
C3690 C3680 1.465 . S
C3690 U3686 2.847 . S
C3690 O3704 1.249 . S
C3690 O3705 1.202 . S
C3691 C3689 1.363 . S
C3691 C3693 1.408 . S
C3691 C3696 1.342 . S
C3692 C3693 1.310 . S
C3692 C3695 1.461 . S
C3692 H3712 0.932 . S
C3693 C3691 1.408 . S
C3693 C3692 1.310 . S
C3693 H3713 0.930 . S
C3694 C3695 1.474 . S
C3694 C3696 1.285 . S
C3694 H3714 0.929 . S
C3695 C3692 1.461 . S
C3695 C3694 1.474 . S
C3696 C3691 1.342 . S
C3696 C3694 1.285 . S
C3696 H3715 0.930 . S
C3697 C3700 1.424 . S
C3697 C3702 1.245 . S
C3697 C3703 1.428 . S
C3698 C3701 1.260 . S
C3698 C3702 1.477 . S
C3698 H3716 0.932 . S
C3699 C3700 1.384 . S
C3699 C3701 1.479 . S
C3699 H3717 0.929 . S
C3700 C3697 1.424 . S
C3700 C3699 1.384 . S
C3700 H3718 0.928 . S
C3701 C3698 1.260 . S
C3701 C3699 1.479 . S
C3702 C3697 1.245 . S
C3702 C3698 1.477 . S
C3702 H3719 0.932 . S
C3703 U3686 2.882 . S
C3703 C3697 1.428 . S
C3703 O3706 1.301 . S
C3703 O3707 1.282 . S
O3704 U3686 2.441 . S
O3704 C3690 1.249 . S
O3705 U3686 2.420 . S
O3705 C3690 1.202 . S
O3706 U3686 2.455 . S
O3706 C3703 1.301 . S
O3707 U3686 2.449 . S
O3707 C3703 1.282 . S
H3708 C3681 0.931 . S
H3709 C3683 0.929 . S
H3710 C3684 0.930 . S
H3711 C3685 0.931 . S
H3712 C3692 0.932 . S
H3713 C3693 0.930 . S
H3714 C3694 0.929 . S
H3715 C3696 0.930 . S
H3716 C3698 0.932 . S
H3717 C3699 0.929 . S
H3718 C3700 0.928 . S
H3719 C3702 0.932 . S
C3720 C3721 1.264 . S
C3720 C3725 1.479 . S
C3720 C3730 1.465 . S
C3721 C3720 1.264 . S
C3721 C3723 1.339 . S
C3721 H3748 0.931 . S
C3722 C3723 1.395 . S
C3722 C3724 1.320 . S
C3723 C3721 1.339 . S
C3723 C3722 1.395 . S
C3723 H3749 0.929 . S
C3724 C3722 1.320 . S
C3724 C3725 1.405 . S
C3724 H3750 0.930 . S
C3725 C3720 1.479 . S
C3725 C3724 1.405 . S
C3725 H3751 0.931 . S
U3726 O3727 2.454 . S
U3726 O3728 2.458 . S
U3726 C3729 2.984 . S
U3726 C3730 2.847 . S
U3726 C3743 2.882 . S
U3726 O3744 2.441 . S
U3726 O3745 2.420 . S
U3726 O3746 2.455 . S
U3726 O3747 2.449 . S
O3727 U3726 2.454 . S
O3727 C3729 1.353 . S
O3728 U3726 2.458 . S
O3728 C3729 1.286 . S
C3729 U3726 2.984 . S
C3729 O3727 1.353 . S
C3729 O3728 1.286 . S
C3729 C3731 1.363 . S
C3730 C3720 1.465 . S
C3730 U3726 2.847 . S
C3730 O3744 1.249 . S
C3730 O3745 1.202 . S
C3731 C3729 1.363 . S
C3731 C3733 1.408 . S
C3731 C3736 1.342 . S
C3732 C3733 1.310 . S
C3732 C3735 1.461 . S
C3732 H3752 0.932 . S
C3733 C3731 1.408 . S
C3733 C3732 1.310 . S
C3733 H3753 0.930 . S
C3734 C3735 1.474 . S
C3734 C3736 1.285 . S
C3734 H3754 0.929 . S
C3735 C3732 1.461 . S
C3735 C3734 1.474 . S
C3736 C3731 1.342 . S
C3736 C3734 1.285 . S
C3736 H3755 0.930 . S
C3737 C3740 1.424 . S
C3737 C3742 1.245 . S
C3737 C3743 1.428 . S
C3738 C3741 1.260 . S
C3738 C3742 1.477 . S
C3738 H3756 0.932 . S
C3739 C3740 1.384 . S
C3739 C3741 1.479 . S
C3739 H3757 0.929 . S
C3740 C3737 1.424 . S
C3740 C3739 1.384 . S
C3740 H3758 0.928 . S
C3741 C3738 1.260 . S
C3741 C3739 1.479 . S
C3742 C3737 1.245 . S
C3742 C3738 1.477 . S
C3742 H3759 0.932 . S
C3743 U3726 2.882 . S
C3743 C3737 1.428 . S
C3743 O3746 1.301 . S
C3743 O3747 1.282 . S
O3744 U3726 2.441 . S
O3744 C3730 1.249 . S
O3745 U3726 2.420 . S
O3745 C3730 1.202 . S
O3746 U3726 2.455 . S
O3746 C3743 1.301 . S
O3747 U3726 2.449 . S
O3747 C3743 1.282 . S
H3748 C3721 0.931 . S
H3749 C3723 0.929 . S
H3750 C3724 0.930 . S
H3751 C3725 0.931 . S
H3752 C3732 0.932 . S
H3753 C3733 0.930 . S
H3754 C3734 0.929 . S
H3755 C3736 0.930 . S
H3756 C3738 0.932 . S
H3757 C3739 0.929 . S
H3758 C3740 0.928 . S
H3759 C3742 0.932 . S
C3760 C3761 1.264 . S
C3760 C3765 1.479 . S
C3760 C3770 1.465 . S
C3761 C3760 1.264 . S
C3761 C3763 1.339 . S
C3761 H3788 0.931 . S
C3762 C3763 1.395 . S
C3762 C3764 1.320 . S
C3763 C3761 1.339 . S
C3763 C3762 1.395 . S
C3763 H3789 0.929 . S
C3764 C3762 1.320 . S
C3764 C3765 1.405 . S
C3764 H3790 0.930 . S
C3765 C3760 1.479 . S
C3765 C3764 1.405 . S
C3765 H3791 0.931 . S
U3766 O3767 2.454 . S
U3766 O3768 2.458 . S
U3766 C3769 2.984 . S
U3766 C3770 2.847 . S
U3766 C3783 2.882 . S
U3766 O3784 2.441 . S
U3766 O3785 2.420 . S
U3766 O3786 2.455 . S
U3766 O3787 2.449 . S
O3767 U3766 2.454 . S
O3767 C3769 1.353 . S
O3768 U3766 2.458 . S
O3768 C3769 1.286 . S
C3769 U3766 2.984 . S
C3769 O3767 1.353 . S
C3769 O3768 1.286 . S
C3769 C3771 1.363 . S
C3770 C3760 1.465 . S
C3770 U3766 2.847 . S
C3770 O3784 1.249 . S
C3770 O3785 1.202 . S
C3771 C3769 1.363 . S
C3771 C3773 1.408 . S
C3771 C3776 1.342 . S
C3772 C3773 1.310 . S
C3772 C3775 1.461 . S
C3772 H3792 0.932 . S
C3773 C3771 1.408 . S
C3773 C3772 1.310 . S
C3773 H3793 0.930 . S
C3774 C3775 1.474 . S
C3774 C3776 1.285 . S
C3774 H3794 0.929 . S
C3775 C3772 1.461 . S
C3775 C3774 1.474 . S
C3776 C3771 1.342 . S
C3776 C3774 1.285 . S
C3776 H3795 0.930 . S
C3777 C3780 1.424 . S
C3777 C3782 1.245 . S
C3777 C3783 1.428 . S
C3778 C3781 1.260 . S
C3778 C3782 1.477 . S
C3778 H3796 0.932 . S
C3779 C3780 1.384 . S
C3779 C3781 1.479 . S
C3779 H3797 0.929 . S
C3780 C3777 1.424 . S
C3780 C3779 1.384 . S
C3780 H3798 0.928 . S
C3781 C3778 1.260 . S
C3781 C3779 1.479 . S
C3782 C3777 1.245 . S
C3782 C3778 1.477 . S
C3782 H3799 0.932 . S
C3783 U3766 2.882 . S
C3783 C3777 1.428 . S
C3783 O3786 1.301 . S
C3783 O3787 1.282 . S
O3784 U3766 2.441 . S
O3784 C3770 1.249 . S
O3785 U3766 2.420 . S
O3785 C3770 1.202 . S
O3786 U3766 2.455 . S
O3786 C3783 1.301 . S
O3787 U3766 2.449 . S
O3787 C3783 1.282 . S
H3788 C3761 0.931 . S
H3789 C3763 0.929 . S
H3790 C3764 0.930 . S
H3791 C3765 0.931 . S
H3792 C3772 0.932 . S
H3793 C3773 0.930 . S
H3794 C3774 0.929 . S
H3795 C3776 0.930 . S
H3796 C3778 0.932 . S
H3797 C3779 0.929 . S
H3798 C3780 0.928 . S
H3799 C3782 0.932 . S
C3800 C3801 1.264 . S
C3800 C3805 1.479 . S
C3800 C3810 1.465 . S
C3801 C3800 1.264 . S
C3801 C3803 1.339 . S
C3801 H3828 0.931 . S
C3802 C3803 1.395 . S
C3802 C3804 1.320 . S
C3803 C3801 1.339 . S
C3803 C3802 1.395 . S
C3803 H3829 0.929 . S
C3804 C3802 1.320 . S
C3804 C3805 1.405 . S
C3804 H3830 0.930 . S
C3805 C3800 1.479 . S
C3805 C3804 1.405 . S
C3805 H3831 0.931 . S
U3806 O3807 2.454 . S
U3806 O3808 2.458 . S
U3806 C3809 2.984 . S
U3806 C3810 2.847 . S
U3806 C3823 2.882 . S
U3806 O3824 2.441 . S
U3806 O3825 2.420 . S
U3806 O3826 2.455 . S
U3806 O3827 2.449 . S
O3807 U3806 2.454 . S
O3807 C3809 1.353 . S
O3808 U3806 2.458 . S
O3808 C3809 1.286 . S
C3809 U3806 2.984 . S
C3809 O3807 1.353 . S
C3809 O3808 1.286 . S
C3809 C3811 1.363 . S
C3810 C3800 1.465 . S
C3810 U3806 2.847 . S
C3810 O3824 1.249 . S
C3810 O3825 1.202 . S
C3811 C3809 1.363 . S
C3811 C3813 1.408 . S
C3811 C3816 1.342 . S
C3812 C3813 1.310 . S
C3812 C3815 1.461 . S
C3812 H3832 0.932 . S
C3813 C3811 1.408 . S
C3813 C3812 1.310 . S
C3813 H3833 0.930 . S
C3814 C3815 1.474 . S
C3814 C3816 1.285 . S
C3814 H3834 0.929 . S
C3815 C3812 1.461 . S
C3815 C3814 1.474 . S
C3816 C3811 1.342 . S
C3816 C3814 1.285 . S
C3816 H3835 0.930 . S
C3817 C3820 1.424 . S
C3817 C3822 1.245 . S
C3817 C3823 1.428 . S
C3818 C3821 1.260 . S
C3818 C3822 1.477 . S
C3818 H3836 0.932 . S
C3819 C3820 1.384 . S
C3819 C3821 1.479 . S
C3819 H3837 0.929 . S
C3820 C3817 1.424 . S
C3820 C3819 1.384 . S
C3820 H3838 0.928 . S
C3821 C3818 1.260 . S
C3821 C3819 1.479 . S
C3822 C3817 1.245 . S
C3822 C3818 1.477 . S
C3822 H3839 0.932 . S
C3823 U3806 2.882 . S
C3823 C3817 1.428 . S
C3823 O3826 1.301 . S
C3823 O3827 1.282 . S
O3824 U3806 2.441 . S
O3824 C3810 1.249 . S
O3825 U3806 2.420 . S
O3825 C3810 1.202 . S
O3826 U3806 2.455 . S
O3826 C3823 1.301 . S
O3827 U3806 2.449 . S
O3827 C3823 1.282 . S
H3828 C3801 0.931 . S
H3829 C3803 0.929 . S
H3830 C3804 0.930 . S
H3831 C3805 0.931 . S
H3832 C3812 0.932 . S
H3833 C3813 0.930 . S
H3834 C3814 0.929 . S
H3835 C3816 0.930 . S
H3836 C3818 0.932 . S
H3837 C3819 0.929 . S
H3838 C3820 0.928 . S
H3839 C3822 0.932 . S
C3840 C3841 1.386 . S
C3840 C3842 1.397 . S
C3840 H3864 0.931 . S
C3841 C3840 1.386 . S
C3841 C3845 1.397 . S
C3842 C3840 1.397 . S
C3842 C3843 1.384 . S
C3842 H3865 0.930 . S
C3843 C3842 1.384 . S
C3843 C3844 1.377 . S
C3843 C3846 1.481 . S
C3844 C3843 1.377 . S
C3844 C3845 1.389 . S
C3844 H3866 0.929 . S
C3845 C3841 1.397 . S
C3845 C3844 1.389 . S
C3845 H3867 0.931 . S
C3846 C3843 1.481 . S
C3846 C3847 1.387 . S
C3846 C3851 1.390 . S
C3847 C3846 1.387 . S
C3847 C3848 1.401 . S
C3847 H3868 0.930 . S
C3848 C3847 1.401 . S
C3848 C3849 1.376 . S
C3848 C3857 1.511 . S
C3849 C3848 1.376 . S
C3849 C3850 1.392 . S
C3849 H3870 0.931 . S
C3850 C3849 1.392 . S
C3850 C3851 1.361 . S
C3850 C3852 1.500 . S
C3851 C3846 1.390 . S
C3851 C3850 1.361 . S
C3851 H3869 0.931 . S
C3852 C3850 1.500 . S
C3852 C3853 1.371 . S
C3852 C3854 1.365 . S
C3853 C3852 1.371 . S
C3853 C3863 1.386 . S
C3853 H3871 0.931 . S
C3854 C3852 1.365 . S
C3854 C3855 1.409 . S
C3854 H3872 0.929 . S
C3855 C3854 1.409 . S
C3855 C3856 1.380 . S
C3855 H3873 0.930 . S
C3856 C3855 1.380 . S
C3856 C3863 1.357 . S
C3857 C3848 1.511 . S
C3857 C3858 1.341 . S
C3857 C3859 1.371 . S
C3858 C3857 1.341 . S
C3858 C3862 1.394 . S
C3858 H3874 0.930 . S
C3859 C3857 1.371 . S
C3859 C3860 1.392 . S
C3859 H3875 0.931 . S
C3860 C3859 1.392 . S
C3860 C3861 1.331 . S
C3860 H3878 0.932 . S
C3861 C3860 1.331 . S
C3861 C3862 1.336 . S
C3862 C3858 1.394 . S
C3862 C3861 1.336 . S
C3862 H3877 0.929 . S
C3863 C3853 1.386 . S
C3863 C3856 1.357 . S
C3863 H3876 0.928 . S
H3864 C3840 0.931 . S
H3865 C3842 0.930 . S
H3866 C3844 0.929 . S
H3867 C3845 0.931 . S
H3868 C3847 0.930 . S
H3869 C3851 0.931 . S
H3870 C3849 0.931 . S
H3871 C3853 0.931 . S
H3872 C3854 0.929 . S
H3873 C3855 0.930 . S
H3874 C3858 0.930 . S
H3875 C3859 0.931 . S
H3876 C3863 0.928 . S
H3877 C3862 0.929 . S
H3878 C3860 0.932 . S
C3879 C3880 1.386 . S
C3879 C3881 1.397 . S
C3879 H3903 0.931 . S
C3880 C3879 1.386 . S
C3880 C3884 1.397 . S
C3881 C3879 1.397 . S
C3881 C3882 1.384 . S
C3881 H3904 0.930 . S
C3882 C3881 1.384 . S
C3882 C3883 1.377 . S
C3882 C3885 1.481 . S
C3883 C3882 1.377 . S
C3883 C3884 1.389 . S
C3883 H3905 0.929 . S
C3884 C3880 1.397 . S
C3884 C3883 1.389 . S
C3884 H3906 0.931 . S
C3885 C3882 1.481 . S
C3885 C3886 1.387 . S
C3885 C3890 1.390 . S
C3886 C3885 1.387 . S
C3886 C3887 1.401 . S
C3886 H3907 0.930 . S
C3887 C3886 1.401 . S
C3887 C3888 1.376 . S
C3887 C3896 1.511 . S
C3888 C3887 1.376 . S
C3888 C3889 1.392 . S
C3888 H3909 0.931 . S
C3889 C3888 1.392 . S
C3889 C3890 1.361 . S
C3889 C3891 1.500 . S
C3890 C3885 1.390 . S
C3890 C3889 1.361 . S
C3890 H3908 0.931 . S
C3891 C3889 1.500 . S
C3891 C3892 1.371 . S
C3891 C3893 1.365 . S
C3892 C3891 1.371 . S
C3892 C3902 1.386 . S
C3892 H3910 0.931 . S
C3893 C3891 1.365 . S
C3893 C3894 1.409 . S
C3893 H3911 0.929 . S
C3894 C3893 1.409 . S
C3894 C3895 1.380 . S
C3894 H3912 0.930 . S
C3895 C3894 1.380 . S
C3895 C3902 1.357 . S
C3896 C3887 1.511 . S
C3896 C3897 1.341 . S
C3896 C3898 1.371 . S
C3897 C3896 1.341 . S
C3897 C3901 1.394 . S
C3897 H3913 0.930 . S
C3898 C3896 1.371 . S
C3898 C3899 1.392 . S
C3898 H3914 0.931 . S
C3899 C3898 1.392 . S
C3899 C3900 1.319 1_455 S
C3899 H3917 0.932 . S
C3900 C3899 1.319 1_655 S
C3900 C3901 1.328 1_655 S
C3901 C3897 1.394 . S
C3901 C3900 1.328 1_455 S
C3901 H3916 0.927 1_455 S
C3902 C3892 1.386 . S
C3902 C3895 1.357 . S
C3902 H3915 0.928 . S
H3903 C3879 0.931 . S
H3904 C3881 0.930 . S
H3905 C3883 0.929 . S
H3906 C3884 0.931 . S
H3907 C3886 0.930 . S
H3908 C3890 0.931 . S
H3909 C3888 0.931 . S
H3910 C3892 0.931 . S
H3911 C3893 0.929 . S
H3912 C3894 0.930 . S
H3913 C3897 0.930 . S
H3914 C3898 0.931 . S
H3915 C3902 0.928 . S
H3916 C3901 0.927 1_655 S
H3917 C3899 0.932 . S
C3918 C3919 1.386 . S
C3918 C3920 1.397 . S
C3918 H3942 0.931 . S
C3919 C3918 1.386 . S
C3919 C3923 1.397 . S
C3920 C3918 1.397 . S
C3920 C3921 1.384 . S
C3920 H3943 0.930 . S
C3921 C3920 1.384 . S
C3921 C3922 1.377 . S
C3921 C3924 1.481 . S
C3922 C3921 1.377 . S
C3922 C3923 1.389 . S
C3922 H3944 0.929 . S
C3923 C3919 1.397 . S
C3923 C3922 1.389 . S
C3923 H3945 0.931 . S
C3924 C3921 1.481 . S
C3924 C3925 1.387 . S
C3924 C3929 1.390 . S
C3925 C3924 1.387 . S
C3925 C3926 1.401 . S
C3925 H3946 0.930 . S
C3926 C3925 1.401 . S
C3926 C3927 1.376 . S
C3926 C3935 1.511 . S
C3927 C3926 1.376 . S
C3927 C3928 1.392 . S
C3927 H3948 0.931 . S
C3928 C3927 1.392 . S
C3928 C3929 1.361 . S
C3928 C3930 1.500 . S
C3929 C3924 1.390 . S
C3929 C3928 1.361 . S
C3929 H3947 0.931 . S
C3930 C3928 1.500 . S
C3930 C3931 1.371 . S
C3930 C3932 1.365 . S
C3931 C3930 1.371 . S
C3931 C3941 1.386 . S
C3931 H3949 0.931 . S
C3932 C3930 1.365 . S
C3932 C3933 1.409 . S
C3932 H3950 0.929 . S
C3933 C3932 1.409 . S
C3933 C3934 1.380 . S
C3933 H3951 0.930 . S
C3934 C3933 1.380 . S
C3934 C3941 1.357 . S
C3935 C3926 1.511 . S
C3935 C3936 1.341 . S
C3935 C3937 1.371 . S
C3936 C3935 1.341 . S
C3936 C3940 1.394 . S
C3936 H3952 0.930 . S
C3937 C3935 1.371 . S
C3937 C3938 1.392 . S
C3937 H3953 0.931 . S
C3938 C3937 1.392 . S
C3938 C3939 1.331 . S
C3938 H3956 0.932 . S
C3939 C3938 1.331 . S
C3939 C3940 1.336 . S
C3940 C3936 1.394 . S
C3940 C3939 1.336 . S
C3940 H3955 0.929 . S
C3941 C3931 1.386 . S
C3941 C3934 1.357 . S
C3941 H3954 0.928 . S
H3942 C3918 0.931 . S
H3943 C3920 0.930 . S
H3944 C3922 0.929 . S
H3945 C3923 0.931 . S
H3946 C3925 0.930 . S
H3947 C3929 0.931 . S
H3948 C3927 0.931 . S
H3949 C3931 0.931 . S
H3950 C3932 0.929 . S
H3951 C3933 0.930 . S
H3952 C3936 0.930 . S
H3953 C3937 0.931 . S
H3954 C3941 0.928 . S
H3955 C3940 0.929 . S
H3956 C3938 0.932 . S
C3957 C3958 1.386 . S
C3957 C3959 1.397 . S
C3957 H3981 0.931 . S
C3958 C3957 1.386 . S
C3958 C3962 1.397 . S
C3959 C3957 1.397 . S
C3959 C3960 1.384 . S
C3959 H3982 0.930 . S
C3960 C3959 1.384 . S
C3960 C3961 1.377 . S
C3960 C3963 1.481 . S
C3961 C3960 1.377 . S
C3961 C3962 1.389 . S
C3961 H3983 0.929 . S
C3962 C3958 1.397 . S
C3962 C3961 1.389 . S
C3962 H3984 0.931 . S
C3963 C3960 1.481 . S
C3963 C3964 1.387 . S
C3963 C3968 1.390 . S
C3964 C3963 1.387 . S
C3964 C3965 1.401 . S
C3964 H3985 0.930 . S
C3965 C3964 1.401 . S
C3965 C3966 1.376 . S
C3965 C3974 1.511 . S
C3966 C3965 1.376 . S
C3966 C3967 1.392 . S
C3966 H3987 0.931 . S
C3967 C3966 1.392 . S
C3967 C3968 1.361 . S
C3967 C3969 1.500 . S
C3968 C3963 1.390 . S
C3968 C3967 1.361 . S
C3968 H3986 0.931 . S
C3969 C3967 1.500 . S
C3969 C3970 1.371 . S
C3969 C3971 1.365 . S
C3970 C3969 1.371 . S
C3970 C3980 1.386 . S
C3970 H3988 0.931 . S
C3971 C3969 1.365 . S
C3971 C3972 1.409 . S
C3971 H3989 0.929 . S
C3972 C3971 1.409 . S
C3972 C3973 1.380 . S
C3972 H3990 0.930 . S
C3973 C3972 1.380 . S
C3973 C3980 1.357 . S
C3974 C3965 1.511 . S
C3974 C3975 1.341 . S
C3974 C3976 1.371 . S
C3975 C3974 1.341 . S
C3975 C3979 1.394 . S
C3975 H3991 0.930 . S
C3976 C3974 1.371 . S
C3976 C3977 1.392 . S
C3976 H3992 0.931 . S
C3977 C3976 1.392 . S
C3977 C3978 1.331 . S
C3977 H3995 0.932 . S
C3978 C3977 1.331 . S
C3978 C3979 1.336 . S
C3979 C3975 1.394 . S
C3979 C3978 1.336 . S
C3979 H3994 0.929 . S
C3980 C3970 1.386 . S
C3980 C3973 1.357 . S
C3980 H3993 0.928 . S
H3981 C3957 0.931 . S
H3982 C3959 0.930 . S
H3983 C3961 0.929 . S
H3984 C3962 0.931 . S
H3985 C3964 0.930 . S
H3986 C3968 0.931 . S
H3987 C3966 0.931 . S
H3988 C3970 0.931 . S
H3989 C3971 0.929 . S
H3990 C3972 0.930 . S
H3991 C3975 0.930 . S
H3992 C3976 0.931 . S
H3993 C3980 0.928 . S
H3994 C3979 0.929 . S
H3995 C3977 0.932 . S
C3996 C3997 1.386 . S
C3996 C3998 1.397 . S
C3996 H4020 0.931 . S
C3997 C3996 1.386 . S
C3997 C4001 1.397 . S
C3998 C3996 1.397 . S
C3998 C3999 1.384 . S
C3998 H4021 0.930 . S
C3999 C3998 1.384 . S
C3999 C4000 1.377 . S
C3999 C4002 1.481 . S
C4000 C3999 1.377 . S
C4000 C4001 1.389 . S
C4000 H4022 0.929 . S
C4001 C3997 1.397 . S
C4001 C4000 1.389 . S
C4001 H4023 0.931 . S
C4002 C3999 1.481 . S
C4002 C4003 1.387 . S
C4002 C4007 1.390 . S
C4003 C4002 1.387 . S
C4003 C4004 1.401 . S
C4003 H4024 0.930 . S
C4004 C4003 1.401 . S
C4004 C4005 1.376 . S
C4004 C4013 1.511 . S
C4005 C4004 1.376 . S
C4005 C4006 1.392 . S
C4005 H4026 0.931 . S
C4006 C4005 1.392 . S
C4006 C4007 1.361 . S
C4006 C4008 1.500 . S
C4007 C4002 1.390 . S
C4007 C4006 1.361 . S
C4007 H4025 0.931 . S
C4008 C4006 1.500 . S
C4008 C4009 1.371 . S
C4008 C4010 1.365 . S
C4009 C4008 1.371 . S
C4009 C4019 1.386 . S
C4009 H4027 0.931 . S
C4010 C4008 1.365 . S
C4010 C4011 1.409 . S
C4010 H4028 0.929 . S
C4011 C4010 1.409 . S
C4011 C4012 1.380 . S
C4011 H4029 0.930 . S
C4012 C4011 1.380 . S
C4012 C4019 1.357 . S
C4013 C4004 1.511 . S
C4013 C4014 1.341 . S
C4013 C4015 1.371 . S
C4014 C4013 1.341 . S
C4014 C4018 1.394 . S
C4014 H4030 0.930 . S
C4015 C4013 1.371 . S
C4015 C4016 1.392 . S
C4015 H4031 0.931 . S
C4016 C4015 1.392 . S
C4016 C4017 1.331 . S
C4016 H4034 0.932 . S
C4017 C4016 1.331 . S
C4017 C4018 1.336 . S
C4018 C4014 1.394 . S
C4018 C4017 1.336 . S
C4018 H4033 0.929 . S
C4019 C4009 1.386 . S
C4019 C4012 1.357 . S
C4019 H4032 0.928 . S
H4020 C3996 0.931 . S
H4021 C3998 0.930 . S
H4022 C4000 0.929 . S
H4023 C4001 0.931 . S
H4024 C4003 0.930 . S
H4025 C4007 0.931 . S
H4026 C4005 0.931 . S
H4027 C4009 0.931 . S
H4028 C4010 0.929 . S
H4029 C4011 0.930 . S
H4030 C4014 0.930 . S
H4031 C4015 0.931 . S
H4032 C4019 0.928 . S
H4033 C4018 0.929 . S
H4034 C4016 0.932 . S
C4035 C4036 1.386 . S
C4035 C4037 1.397 . S
C4035 H4059 0.931 . S
C4036 C4035 1.386 . S
C4036 C4040 1.397 . S
C4037 C4035 1.397 . S
C4037 C4038 1.384 . S
C4037 H4060 0.930 . S
C4038 C4037 1.384 . S
C4038 C4039 1.377 . S
C4038 C4041 1.481 . S
C4039 C4038 1.377 . S
C4039 C4040 1.389 . S
C4039 H4061 0.929 . S
C4040 C4036 1.397 . S
C4040 C4039 1.389 . S
C4040 H4062 0.931 . S
C4041 C4038 1.481 . S
C4041 C4042 1.387 . S
C4041 C4046 1.390 . S
C4042 C4041 1.387 . S
C4042 C4043 1.401 . S
C4042 H4063 0.930 . S
C4043 C4042 1.401 . S
C4043 C4044 1.376 . S
C4043 C4052 1.511 . S
C4044 C4043 1.376 . S
C4044 C4045 1.392 . S
C4044 H4065 0.931 . S
C4045 C4044 1.392 . S
C4045 C4046 1.361 . S
C4045 C4047 1.500 . S
C4046 C4041 1.390 . S
C4046 C4045 1.361 . S
C4046 H4064 0.931 . S
C4047 C4045 1.500 . S
C4047 C4048 1.371 . S
C4047 C4049 1.365 . S
C4048 C4047 1.371 . S
C4048 C4058 1.386 . S
C4048 H4066 0.931 . S
C4049 C4047 1.365 . S
C4049 C4050 1.409 . S
C4049 H4067 0.929 . S
C4050 C4049 1.409 . S
C4050 C4051 1.380 . S
C4050 H4068 0.930 . S
C4051 C4050 1.380 . S
C4051 C4058 1.357 . S
C4052 C4043 1.511 . S
C4052 C4053 1.341 . S
C4052 C4054 1.371 . S
C4053 C4052 1.341 . S
C4053 C4057 1.394 . S
C4053 H4069 0.930 . S
C4054 C4052 1.371 . S
C4054 C4055 1.392 . S
C4054 H4070 0.931 . S
C4055 C4054 1.392 . S
C4055 C4056 1.331 . S
C4055 H4073 0.932 . S
C4056 C4055 1.331 . S
C4056 C4057 1.336 . S
C4057 C4053 1.394 . S
C4057 C4056 1.336 . S
C4057 H4072 0.929 . S
C4058 C4048 1.386 . S
C4058 C4051 1.357 . S
C4058 H4071 0.928 . S
H4059 C4035 0.931 . S
H4060 C4037 0.930 . S
H4061 C4039 0.929 . S
H4062 C4040 0.931 . S
H4063 C4042 0.930 . S
H4064 C4046 0.931 . S
H4065 C4044 0.931 . S
H4066 C4048 0.931 . S
H4067 C4049 0.929 . S
H4068 C4050 0.930 . S
H4069 C4053 0.930 . S
H4070 C4054 0.931 . S
H4071 C4058 0.928 . S
H4072 C4057 0.929 . S
H4073 C4055 0.932 . S
C4074 C4075 1.386 . S
C4074 C4076 1.397 . S
C4074 H4098 0.931 . S
C4075 C4074 1.386 . S
C4075 C4079 1.397 . S
C4076 C4074 1.397 . S
C4076 C4077 1.384 . S
C4076 H4099 0.930 . S
C4077 C4076 1.384 . S
C4077 C4078 1.377 . S
C4077 C4080 1.481 . S
C4078 C4077 1.377 . S
C4078 C4079 1.389 . S
C4078 H4100 0.929 . S
C4079 C4075 1.397 . S
C4079 C4078 1.389 . S
C4079 H4101 0.931 . S
C4080 C4077 1.481 . S
C4080 C4081 1.387 . S
C4080 C4085 1.390 . S
C4081 C4080 1.387 . S
C4081 C4082 1.401 . S
C4081 H4102 0.930 . S
C4082 C4081 1.401 . S
C4082 C4083 1.376 . S
C4082 C4091 1.511 . S
C4083 C4082 1.376 . S
C4083 C4084 1.392 . S
C4083 H4104 0.931 . S
C4084 C4083 1.392 . S
C4084 C4085 1.361 . S
C4084 C4086 1.500 . S
C4085 C4080 1.390 . S
C4085 C4084 1.361 . S
C4085 H4103 0.931 . S
C4086 C4084 1.500 . S
C4086 C4087 1.371 . S
C4086 C4088 1.365 . S
C4087 C4086 1.371 . S
C4087 C4097 1.386 . S
C4087 H4105 0.931 . S
C4088 C4086 1.365 . S
C4088 C4089 1.409 . S
C4088 H4106 0.929 . S
C4089 C4088 1.409 . S
C4089 C4090 1.380 . S
C4089 H4107 0.930 . S
C4090 C4089 1.380 . S
C4090 C4097 1.357 . S
C4091 C4082 1.511 . S
C4091 C4092 1.341 . S
C4091 C4093 1.371 . S
C4092 C4091 1.341 . S
C4092 C4096 1.394 . S
C4092 H4108 0.930 . S
C4093 C4091 1.371 . S
C4093 C4094 1.392 . S
C4093 H4109 0.931 . S
C4094 C4093 1.392 . S
C4094 C4095 1.331 . S
C4094 H4112 0.932 . S
C4095 C4094 1.331 . S
C4095 C4096 1.336 . S
C4096 C4092 1.394 . S
C4096 C4095 1.336 . S
C4096 H4111 0.929 . S
C4097 C4087 1.386 . S
C4097 C4090 1.357 . S
C4097 H4110 0.928 . S
H4098 C4074 0.931 . S
H4099 C4076 0.930 . S
H4100 C4078 0.929 . S
H4101 C4079 0.931 . S
H4102 C4081 0.930 . S
H4103 C4085 0.931 . S
H4104 C4083 0.931 . S
H4105 C4087 0.931 . S
H4106 C4088 0.929 . S
H4107 C4089 0.930 . S
H4108 C4092 0.930 . S
H4109 C4093 0.931 . S
H4110 C4097 0.928 . S
H4111 C4096 0.929 . S
H4112 C4094 0.932 . S
C4113 C4114 1.386 . S
C4113 C4115 1.397 . S
C4113 H4137 0.931 . S
C4114 C4113 1.386 . S
C4114 C4118 1.397 . S
C4115 C4113 1.397 . S
C4115 C4116 1.384 . S
C4115 H4138 0.930 . S
C4116 C4115 1.384 . S
C4116 C4117 1.377 . S
C4116 C4119 1.481 . S
C4117 C4116 1.377 . S
C4117 C4118 1.389 . S
C4117 H4139 0.929 . S
C4118 C4114 1.397 . S
C4118 C4117 1.389 . S
C4118 H4140 0.931 . S
C4119 C4116 1.481 . S
C4119 C4120 1.387 . S
C4119 C4124 1.390 . S
C4120 C4119 1.387 . S
C4120 C4121 1.401 . S
C4120 H4141 0.930 . S
C4121 C4120 1.401 . S
C4121 C4122 1.376 . S
C4121 C4130 1.511 . S
C4122 C4121 1.376 . S
C4122 C4123 1.392 . S
C4122 H4143 0.931 . S
C4123 C4122 1.392 . S
C4123 C4124 1.361 . S
C4123 C4125 1.500 . S
C4124 C4119 1.390 . S
C4124 C4123 1.361 . S
C4124 H4142 0.931 . S
C4125 C4123 1.500 . S
C4125 C4126 1.371 . S
C4125 C4127 1.365 . S
C4126 C4125 1.371 . S
C4126 C4136 1.386 . S
C4126 H4144 0.931 . S
C4127 C4125 1.365 . S
C4127 C4128 1.409 . S
C4127 H4145 0.929 . S
C4128 C4127 1.409 . S
C4128 C4129 1.380 . S
C4128 H4146 0.930 . S
C4129 C4128 1.380 . S
C4129 C4136 1.357 . S
C4130 C4121 1.511 . S
C4130 C4131 1.341 . S
C4130 C4132 1.371 . S
C4131 C4130 1.341 . S
C4131 C4135 1.394 . S
C4131 H4147 0.930 . S
C4132 C4130 1.371 . S
C4132 C4133 1.392 . S
C4132 H4148 0.931 . S
C4133 C4132 1.392 . S
C4133 C4134 1.319 1_455 S
C4133 H4151 0.932 . S
C4134 C4133 1.319 1_655 S
C4134 C4135 1.328 1_655 S
C4135 C4131 1.394 . S
C4135 C4134 1.328 1_455 S
C4135 H4150 0.927 1_455 S
C4136 C4126 1.386 . S
C4136 C4129 1.357 . S
C4136 H4149 0.928 . S
H4137 C4113 0.931 . S
H4138 C4115 0.930 . S
H4139 C4117 0.929 . S
H4140 C4118 0.931 . S
H4141 C4120 0.930 . S
H4142 C4124 0.931 . S
H4143 C4122 0.931 . S
H4144 C4126 0.931 . S
H4145 C4127 0.929 . S
H4146 C4128 0.930 . S
H4147 C4131 0.930 . S
H4148 C4132 0.931 . S
H4149 C4136 0.928 . S
H4150 C4135 0.927 1_655 S
H4151 C4133 0.932 . S
C4152 C4153 1.386 . S
C4152 C4154 1.397 . S
C4152 H4176 0.931 . S
C4153 C4152 1.386 . S
C4153 C4157 1.397 . S
C4154 C4152 1.397 . S
C4154 C4155 1.384 . S
C4154 H4177 0.930 . S
C4155 C4154 1.384 . S
C4155 C4156 1.377 . S
C4155 C4158 1.481 . S
C4156 C4155 1.377 . S
C4156 C4157 1.389 . S
C4156 H4178 0.929 . S
C4157 C4153 1.397 . S
C4157 C4156 1.389 . S
C4157 H4179 0.931 . S
C4158 C4155 1.481 . S
C4158 C4159 1.387 . S
C4158 C4163 1.390 . S
C4159 C4158 1.387 . S
C4159 C4160 1.401 . S
C4159 H4180 0.930 . S
C4160 C4159 1.401 . S
C4160 C4161 1.376 . S
C4160 C4169 1.511 . S
C4161 C4160 1.376 . S
C4161 C4162 1.392 . S
C4161 H4182 0.931 . S
C4162 C4161 1.392 . S
C4162 C4163 1.361 . S
C4162 C4164 1.500 . S
C4163 C4158 1.390 . S
C4163 C4162 1.361 . S
C4163 H4181 0.931 . S
C4164 C4162 1.500 . S
C4164 C4165 1.371 . S
C4164 C4166 1.365 . S
C4165 C4164 1.371 . S
C4165 C4175 1.386 . S
C4165 H4183 0.931 . S
C4166 C4164 1.365 . S
C4166 C4167 1.409 . S
C4166 H4184 0.929 . S
C4167 C4166 1.409 . S
C4167 C4168 1.380 . S
C4167 H4185 0.930 . S
C4168 C4167 1.380 . S
C4168 C4175 1.357 . S
C4169 C4160 1.511 . S
C4169 C4170 1.341 . S
C4169 C4171 1.371 . S
C4170 C4169 1.341 . S
C4170 C4174 1.394 . S
C4170 H4186 0.930 . S
C4171 C4169 1.371 . S
C4171 C4172 1.392 . S
C4171 H4187 0.931 . S
C4172 C4171 1.392 . S
C4172 C4173 1.331 . S
C4172 H4190 0.932 . S
C4173 C4172 1.331 . S
C4173 C4174 1.336 . S
C4174 C4170 1.394 . S
C4174 C4173 1.336 . S
C4174 H4189 0.929 . S
C4175 C4165 1.386 . S
C4175 C4168 1.357 . S
C4175 H4188 0.928 . S
H4176 C4152 0.931 . S
H4177 C4154 0.930 . S
H4178 C4156 0.929 . S
H4179 C4157 0.931 . S
H4180 C4159 0.930 . S
H4181 C4163 0.931 . S
H4182 C4161 0.931 . S
H4183 C4165 0.931 . S
H4184 C4166 0.929 . S
H4185 C4167 0.930 . S
H4186 C4170 0.930 . S
H4187 C4171 0.931 . S
H4188 C4175 0.928 . S
H4189 C4174 0.929 . S
H4190 C4172 0.932 . S
C4191 C4192 1.386 . S
C4191 C4193 1.397 . S
C4191 H4215 0.931 . S
C4192 C4191 1.386 . S
C4192 C4196 1.397 . S
C4193 C4191 1.397 . S
C4193 C4194 1.384 . S
C4193 H4216 0.930 . S
C4194 C4193 1.384 . S
C4194 C4195 1.377 . S
C4194 C4197 1.481 . S
C4195 C4194 1.377 . S
C4195 C4196 1.389 . S
C4195 H4217 0.929 . S
C4196 C4192 1.397 . S
C4196 C4195 1.389 . S
C4196 H4218 0.931 . S
C4197 C4194 1.481 . S
C4197 C4198 1.387 . S
C4197 C4202 1.390 . S
C4198 C4197 1.387 . S
C4198 C4199 1.401 . S
C4198 H4219 0.930 . S
C4199 C4198 1.401 . S
C4199 C4200 1.376 . S
C4199 C4208 1.511 . S
C4200 C4199 1.376 . S
C4200 C4201 1.392 . S
C4200 H4221 0.931 . S
C4201 C4200 1.392 . S
C4201 C4202 1.361 . S
C4201 C4203 1.500 . S
C4202 C4197 1.390 . S
C4202 C4201 1.361 . S
C4202 H4220 0.931 . S
C4203 C4201 1.500 . S
C4203 C4204 1.371 . S
C4203 C4205 1.365 . S
C4204 C4203 1.371 . S
C4204 C4214 1.386 . S
C4204 H4222 0.931 . S
C4205 C4203 1.365 . S
C4205 C4206 1.409 . S
C4205 H4223 0.929 . S
C4206 C4205 1.409 . S
C4206 C4207 1.380 . S
C4206 H4224 0.930 . S
C4207 C4206 1.380 . S
C4207 C4214 1.357 . S
C4208 C4199 1.511 . S
C4208 C4209 1.341 . S
C4208 C4210 1.371 . S
C4209 C4208 1.341 . S
C4209 C4213 1.394 . S
C4209 H4225 0.930 . S
C4210 C4208 1.371 . S
C4210 C4211 1.392 . S
C4210 H4226 0.931 . S
C4211 C4210 1.392 . S
C4211 C4212 1.331 . S
C4211 H4229 0.932 . S
C4212 C4211 1.331 . S
C4212 C4213 1.336 . S
C4213 C4209 1.394 . S
C4213 C4212 1.336 . S
C4213 H4228 0.929 . S
C4214 C4204 1.386 . S
C4214 C4207 1.357 . S
C4214 H4227 0.928 . S
H4215 C4191 0.931 . S
H4216 C4193 0.930 . S
H4217 C4195 0.929 . S
H4218 C4196 0.931 . S
H4219 C4198 0.930 . S
H4220 C4202 0.931 . S
H4221 C4200 0.931 . S
H4222 C4204 0.931 . S
H4223 C4205 0.929 . S
H4224 C4206 0.930 . S
H4225 C4209 0.930 . S
H4226 C4210 0.931 . S
H4227 C4214 0.928 . S
H4228 C4213 0.929 . S
H4229 C4211 0.932 . S
C4230 C4231 1.386 . S
C4230 C4232 1.397 . S
C4230 H4254 0.931 . S
C4231 C4230 1.386 . S
C4231 C4235 1.397 . S
C4232 C4230 1.397 . S
C4232 C4233 1.384 . S
C4232 H4255 0.930 . S
C4233 C4232 1.384 . S
C4233 C4234 1.377 . S
C4233 C4236 1.481 . S
C4234 C4233 1.377 . S
C4234 C4235 1.389 . S
C4234 H4256 0.929 . S
C4235 C4231 1.397 . S
C4235 C4234 1.389 . S
C4235 H4257 0.931 . S
C4236 C4233 1.481 . S
C4236 C4237 1.387 . S
C4236 C4241 1.390 . S
C4237 C4236 1.387 . S
C4237 C4238 1.401 . S
C4237 H4258 0.930 . S
C4238 C4237 1.401 . S
C4238 C4239 1.376 . S
C4238 C4247 1.511 . S
C4239 C4238 1.376 . S
C4239 C4240 1.392 . S
C4239 H4260 0.931 . S
C4240 C4239 1.392 . S
C4240 C4241 1.361 . S
C4240 C4242 1.500 . S
C4241 C4236 1.390 . S
C4241 C4240 1.361 . S
C4241 H4259 0.931 . S
C4242 C4240 1.500 . S
C4242 C4243 1.371 . S
C4242 C4244 1.365 . S
C4243 C4242 1.371 . S
C4243 C4253 1.386 . S
C4243 H4261 0.931 . S
C4244 C4242 1.365 . S
C4244 C4245 1.409 . S
C4244 H4262 0.929 . S
C4245 C4244 1.409 . S
C4245 C4246 1.380 . S
C4245 H4263 0.930 . S
C4246 C4245 1.380 . S
C4246 C4253 1.357 . S
C4247 C4238 1.511 . S
C4247 C4248 1.341 . S
C4247 C4249 1.371 . S
C4248 C4247 1.341 . S
C4248 C4252 1.394 . S
C4248 H4264 0.930 . S
C4249 C4247 1.371 . S
C4249 C4250 1.392 . S
C4249 H4265 0.931 . S
C4250 C4249 1.392 . S
C4250 C4251 1.331 . S
C4250 H4268 0.932 . S
C4251 C4250 1.331 . S
C4251 C4252 1.336 . S
C4252 C4248 1.394 . S
C4252 C4251 1.336 . S
C4252 H4267 0.929 . S
C4253 C4243 1.386 . S
C4253 C4246 1.357 . S
C4253 H4266 0.928 . S
H4254 C4230 0.931 . S
H4255 C4232 0.930 . S
H4256 C4234 0.929 . S
H4257 C4235 0.931 . S
H4258 C4237 0.930 . S
H4259 C4241 0.931 . S
H4260 C4239 0.931 . S
H4261 C4243 0.931 . S
H4262 C4244 0.929 . S
H4263 C4245 0.930 . S
H4264 C4248 0.930 . S
H4265 C4249 0.931 . S
H4266 C4253 0.928 . S
H4267 C4252 0.929 . S
H4268 C4250 0.932 . S
C4269 C4270 1.386 . S
C4269 C4271 1.397 . S
C4269 H4293 0.931 . S
C4270 C4269 1.386 . S
C4270 C4274 1.397 . S
C4271 C4269 1.397 . S
C4271 C4272 1.384 . S
C4271 H4294 0.930 . S
C4272 C4271 1.384 . S
C4272 C4273 1.377 . S
C4272 C4275 1.481 . S
C4273 C4272 1.377 . S
C4273 C4274 1.389 . S
C4273 H4295 0.929 . S
C4274 C4270 1.397 . S
C4274 C4273 1.389 . S
C4274 H4296 0.931 . S
C4275 C4272 1.481 . S
C4275 C4276 1.387 . S
C4275 C4280 1.390 . S
C4276 C4275 1.387 . S
C4276 C4277 1.401 . S
C4276 H4297 0.930 . S
C4277 C4276 1.401 . S
C4277 C4278 1.376 . S
C4277 C4286 1.511 . S
C4278 C4277 1.376 . S
C4278 C4279 1.392 . S
C4278 H4299 0.931 . S
C4279 C4278 1.392 . S
C4279 C4280 1.361 . S
C4279 C4281 1.500 . S
C4280 C4275 1.390 . S
C4280 C4279 1.361 . S
C4280 H4298 0.931 . S
C4281 C4279 1.500 . S
C4281 C4282 1.371 . S
C4281 C4283 1.365 . S
C4282 C4281 1.371 . S
C4282 C4292 1.386 . S
C4282 H4300 0.931 . S
C4283 C4281 1.365 . S
C4283 C4284 1.409 . S
C4283 H4301 0.929 . S
C4284 C4283 1.409 . S
C4284 C4285 1.380 . S
C4284 H4302 0.930 . S
C4285 C4284 1.380 . S
C4285 C4292 1.357 . S
C4286 C4277 1.511 . S
C4286 C4287 1.341 . S
C4286 C4288 1.371 . S
C4287 C4286 1.341 . S
C4287 C4291 1.394 . S
C4287 H4303 0.930 . S
C4288 C4286 1.371 . S
C4288 C4289 1.392 . S
C4288 H4304 0.931 . S
C4289 C4288 1.392 . S
C4289 C4290 1.314 1_556 S
C4289 H4307 0.932 . S
C4290 C4289 1.314 1_554 S
C4290 C4291 1.325 1_554 S
C4291 C4287 1.394 . S
C4291 C4290 1.325 1_556 S
C4291 H4306 0.922 1_556 S
C4292 C4282 1.386 . S
C4292 C4285 1.357 . S
C4292 H4305 0.928 . S
H4293 C4269 0.931 . S
H4294 C4271 0.930 . S
H4295 C4273 0.929 . S
H4296 C4274 0.931 . S
H4297 C4276 0.930 . S
H4298 C4280 0.931 . S
H4299 C4278 0.931 . S
H4300 C4282 0.931 . S
H4301 C4283 0.929 . S
H4302 C4284 0.930 . S
H4303 C4287 0.930 . S
H4304 C4288 0.931 . S
H4305 C4292 0.928 . S
H4306 C4291 0.922 1_554 S
H4307 C4289 0.932 . S
C4308 C4309 1.386 . S
C4308 C4310 1.397 . S
C4308 H4332 0.931 . S
C4309 C4308 1.386 . S
C4309 C4313 1.397 . S
C4310 C4308 1.397 . S
C4310 C4311 1.384 . S
C4310 H4333 0.930 . S
C4311 C4310 1.384 . S
C4311 C4312 1.377 . S
C4311 C4314 1.481 . S
C4312 C4311 1.377 . S
C4312 C4313 1.389 . S
C4312 H4334 0.929 . S
C4313 C4309 1.397 . S
C4313 C4312 1.389 . S
C4313 H4335 0.931 . S
C4314 C4311 1.481 . S
C4314 C4315 1.387 . S
C4314 C4319 1.390 . S
C4315 C4314 1.387 . S
C4315 C4316 1.401 . S
C4315 H4336 0.930 . S
C4316 C4315 1.401 . S
C4316 C4317 1.376 . S
C4316 C4325 1.511 . S
C4317 C4316 1.376 . S
C4317 C4318 1.392 . S
C4317 H4338 0.931 . S
C4318 C4317 1.392 . S
C4318 C4319 1.361 . S
C4318 C4320 1.500 . S
C4319 C4314 1.390 . S
C4319 C4318 1.361 . S
C4319 H4337 0.931 . S
C4320 C4318 1.500 . S
C4320 C4321 1.371 . S
C4320 C4322 1.365 . S
C4321 C4320 1.371 . S
C4321 C4331 1.386 . S
C4321 H4339 0.931 . S
C4322 C4320 1.365 . S
C4322 C4323 1.409 . S
C4322 H4340 0.929 . S
C4323 C4322 1.409 . S
C4323 C4324 1.380 . S
C4323 H4341 0.930 . S
C4324 C4323 1.380 . S
C4324 C4331 1.357 . S
C4325 C4316 1.511 . S
C4325 C4326 1.341 . S
C4325 C4327 1.371 . S
C4326 C4325 1.341 . S
C4326 C4330 1.394 . S
C4326 H4342 0.930 . S
C4327 C4325 1.371 . S
C4327 C4328 1.392 . S
C4327 H4343 0.931 . S
C4328 C4327 1.392 . S
C4328 C4329 1.331 . S
C4328 H4346 0.932 . S
C4329 C4328 1.331 . S
C4329 C4330 1.336 . S
C4330 C4326 1.394 . S
C4330 C4329 1.336 . S
C4330 H4345 0.929 . S
C4331 C4321 1.386 . S
C4331 C4324 1.357 . S
C4331 H4344 0.928 . S
H4332 C4308 0.931 . S
H4333 C4310 0.930 . S
H4334 C4312 0.929 . S
H4335 C4313 0.931 . S
H4336 C4315 0.930 . S
H4337 C4319 0.931 . S
H4338 C4317 0.931 . S
H4339 C4321 0.931 . S
H4340 C4322 0.929 . S
H4341 C4323 0.930 . S
H4342 C4326 0.930 . S
H4343 C4327 0.931 . S
H4344 C4331 0.928 . S
H4345 C4330 0.929 . S
H4346 C4328 0.932 . S
C4347 C4348 1.386 . S
C4347 C4349 1.397 . S
C4347 H4371 0.931 . S
C4348 C4347 1.386 . S
C4348 C4352 1.397 . S
C4349 C4347 1.397 . S
C4349 C4350 1.384 . S
C4349 H4372 0.930 . S
C4350 C4349 1.384 . S
C4350 C4351 1.377 . S
C4350 C4353 1.481 . S
C4351 C4350 1.377 . S
C4351 C4352 1.389 . S
C4351 H4373 0.929 . S
C4352 C4348 1.397 . S
C4352 C4351 1.389 . S
C4352 H4374 0.931 . S
C4353 C4350 1.481 . S
C4353 C4354 1.387 . S
C4353 C4358 1.390 . S
C4354 C4353 1.387 . S
C4354 C4355 1.401 . S
C4354 H4375 0.930 . S
C4355 C4354 1.401 . S
C4355 C4356 1.376 . S
C4355 C4364 1.511 . S
C4356 C4355 1.376 . S
C4356 C4357 1.392 . S
C4356 H4377 0.931 . S
C4357 C4356 1.392 . S
C4357 C4358 1.361 . S
C4357 C4359 1.500 . S
C4358 C4353 1.390 . S
C4358 C4357 1.361 . S
C4358 H4376 0.931 . S
C4359 C4357 1.500 . S
C4359 C4360 1.371 . S
C4359 C4361 1.365 . S
C4360 C4359 1.371 . S
C4360 C4370 1.386 . S
C4360 H4378 0.931 . S
C4361 C4359 1.365 . S
C4361 C4362 1.409 . S
C4361 H4379 0.929 . S
C4362 C4361 1.409 . S
C4362 C4363 1.380 . S
C4362 H4380 0.930 . S
C4363 C4362 1.380 . S
C4363 C4370 1.357 . S
C4364 C4355 1.511 . S
C4364 C4365 1.341 . S
C4364 C4366 1.371 . S
C4365 C4364 1.341 . S
C4365 C4369 1.394 . S
C4365 H4381 0.930 . S
C4366 C4364 1.371 . S
C4366 C4367 1.392 . S
C4366 H4382 0.931 . S
C4367 C4366 1.392 . S
C4367 C4368 1.331 . S
C4367 H4385 0.932 . S
C4368 C4367 1.331 . S
C4368 C4369 1.336 . S
C4369 C4365 1.394 . S
C4369 C4368 1.336 . S
C4369 H4384 0.929 . S
C4370 C4360 1.386 . S
C4370 C4363 1.357 . S
C4370 H4383 0.928 . S
H4371 C4347 0.931 . S
H4372 C4349 0.930 . S
H4373 C4351 0.929 . S
H4374 C4352 0.931 . S
H4375 C4354 0.930 . S
H4376 C4358 0.931 . S
H4377 C4356 0.931 . S
H4378 C4360 0.931 . S
H4379 C4361 0.929 . S
H4380 C4362 0.930 . S
H4381 C4365 0.930 . S
H4382 C4366 0.931 . S
H4383 C4370 0.928 . S
H4384 C4369 0.929 . S
H4385 C4367 0.932 . S
C4386 C4387 1.386 . S
C4386 C4388 1.397 . S
C4386 H4410 0.931 . S
C4387 C4386 1.386 . S
C4387 C4391 1.397 . S
C4388 C4386 1.397 . S
C4388 C4389 1.384 . S
C4388 H4411 0.930 . S
C4389 C4388 1.384 . S
C4389 C4390 1.377 . S
C4389 C4392 1.481 . S
C4390 C4389 1.377 . S
C4390 C4391 1.389 . S
C4390 H4412 0.929 . S
C4391 C4387 1.397 . S
C4391 C4390 1.389 . S
C4391 H4413 0.931 . S
C4392 C4389 1.481 . S
C4392 C4393 1.387 . S
C4392 C4397 1.390 . S
C4393 C4392 1.387 . S
C4393 C4394 1.401 . S
C4393 H4414 0.930 . S
C4394 C4393 1.401 . S
C4394 C4395 1.376 . S
C4394 C4403 1.511 . S
C4395 C4394 1.376 . S
C4395 C4396 1.392 . S
C4395 H4416 0.931 . S
C4396 C4395 1.392 . S
C4396 C4397 1.361 . S
C4396 C4398 1.500 . S
C4397 C4392 1.390 . S
C4397 C4396 1.361 . S
C4397 H4415 0.931 . S
C4398 C4396 1.500 . S
C4398 C4399 1.371 . S
C4398 C4400 1.365 . S
C4399 C4398 1.371 . S
C4399 C4409 1.386 . S
C4399 H4417 0.931 . S
C4400 C4398 1.365 . S
C4400 C4401 1.409 . S
C4400 H4418 0.929 . S
C4401 C4400 1.409 . S
C4401 C4402 1.380 . S
C4401 H4419 0.930 . S
C4402 C4401 1.380 . S
C4402 C4409 1.357 . S
C4403 C4394 1.511 . S
C4403 C4404 1.341 . S
C4403 C4405 1.371 . S
C4404 C4403 1.341 . S
C4404 C4408 1.394 . S
C4404 H4420 0.930 . S
C4405 C4403 1.371 . S
C4405 C4406 1.392 . S
C4405 H4421 0.931 . S
C4406 C4405 1.392 . S
C4406 C4407 1.331 . S
C4406 H4424 0.932 . S
C4407 C4406 1.331 . S
C4407 C4408 1.336 . S
C4408 C4404 1.394 . S
C4408 C4407 1.336 . S
C4408 H4423 0.929 . S
C4409 C4399 1.386 . S
C4409 C4402 1.357 . S
C4409 H4422 0.928 . S
H4410 C4386 0.931 . S
H4411 C4388 0.930 . S
H4412 C4390 0.929 . S
H4413 C4391 0.931 . S
H4414 C4393 0.930 . S
H4415 C4397 0.931 . S
H4416 C4395 0.931 . S
H4417 C4399 0.931 . S
H4418 C4400 0.929 . S
H4419 C4401 0.930 . S
H4420 C4404 0.930 . S
H4421 C4405 0.931 . S
H4422 C4409 0.928 . S
H4423 C4408 0.929 . S
H4424 C4406 0.932 . S
C4425 C4426 1.386 . S
C4425 C4427 1.397 . S
C4425 H4449 0.931 . S
C4426 C4425 1.386 . S
C4426 C4430 1.397 . S
C4427 C4425 1.397 . S
C4427 C4428 1.384 . S
C4427 H4450 0.930 . S
C4428 C4427 1.384 . S
C4428 C4429 1.377 . S
C4428 C4431 1.481 . S
C4429 C4428 1.377 . S
C4429 C4430 1.389 . S
C4429 H4451 0.929 . S
C4430 C4426 1.397 . S
C4430 C4429 1.389 . S
C4430 H4452 0.931 . S
C4431 C4428 1.481 . S
C4431 C4432 1.387 . S
C4431 C4436 1.390 . S
C4432 C4431 1.387 . S
C4432 C4433 1.401 . S
C4432 H4453 0.930 . S
C4433 C4432 1.401 . S
C4433 C4434 1.376 . S
C4433 C4442 1.511 . S
C4434 C4433 1.376 . S
C4434 C4435 1.392 . S
C4434 H4455 0.931 . S
C4435 C4434 1.392 . S
C4435 C4436 1.361 . S
C4435 C4437 1.500 . S
C4436 C4431 1.390 . S
C4436 C4435 1.361 . S
C4436 H4454 0.931 . S
C4437 C4435 1.500 . S
C4437 C4438 1.371 . S
C4437 C4439 1.365 . S
C4438 C4437 1.371 . S
C4438 C4448 1.386 . S
C4438 H4456 0.931 . S
C4439 C4437 1.365 . S
C4439 C4440 1.409 . S
C4439 H4457 0.929 . S
C4440 C4439 1.409 . S
C4440 C4441 1.380 . S
C4440 H4458 0.930 . S
C4441 C4440 1.380 . S
C4441 C4448 1.357 . S
C4442 C4433 1.511 . S
C4442 C4443 1.341 . S
C4442 C4444 1.371 . S
C4443 C4442 1.341 . S
C4443 C4447 1.394 . S
C4443 H4459 0.930 . S
C4444 C4442 1.371 . S
C4444 C4445 1.392 . S
C4444 H4460 0.931 . S
C4445 C4444 1.392 . S
C4445 C4446 1.310 1_554 S
C4445 H4463 0.932 . S
C4446 C4445 1.310 1_556 S
C4446 C4447 1.322 1_556 S
C4447 C4443 1.394 . S
C4447 C4446 1.322 1_554 S
C4447 H4462 0.917 1_554 S
C4448 C4438 1.386 . S
C4448 C4441 1.357 . S
C4448 H4461 0.928 . S
H4449 C4425 0.931 . S
H4450 C4427 0.930 . S
H4451 C4429 0.929 . S
H4452 C4430 0.931 . S
H4453 C4432 0.930 . S
H4454 C4436 0.931 . S
H4455 C4434 0.931 . S
H4456 C4438 0.931 . S
H4457 C4439 0.929 . S
H4458 C4440 0.930 . S
H4459 C4443 0.930 . S
H4460 C4444 0.931 . S
H4461 C4448 0.928 . S
H4462 C4447 0.917 1_556 S
H4463 C4445 0.932 . S
C4464 C4465 1.386 . S
C4464 C4466 1.397 . S
C4464 H4488 0.931 . S
C4465 C4464 1.386 . S
C4465 C4469 1.397 . S
C4466 C4464 1.397 . S
C4466 C4467 1.384 . S
C4466 H4489 0.930 . S
C4467 C4466 1.384 . S
C4467 C4468 1.377 . S
C4467 C4470 1.481 . S
C4468 C4467 1.377 . S
C4468 C4469 1.389 . S
C4468 H4490 0.929 . S
C4469 C4465 1.397 . S
C4469 C4468 1.389 . S
C4469 H4491 0.931 . S
C4470 C4467 1.481 . S
C4470 C4471 1.387 . S
C4470 C4475 1.390 . S
C4471 C4470 1.387 . S
C4471 C4472 1.401 . S
C4471 H4492 0.930 . S
C4472 C4471 1.401 . S
C4472 C4473 1.376 . S
C4472 C4481 1.511 . S
C4473 C4472 1.376 . S
C4473 C4474 1.392 . S
C4473 H4494 0.931 . S
C4474 C4473 1.392 . S
C4474 C4475 1.361 . S
C4474 C4476 1.500 . S
C4475 C4470 1.390 . S
C4475 C4474 1.361 . S
C4475 H4493 0.931 . S
C4476 C4474 1.500 . S
C4476 C4477 1.371 . S
C4476 C4478 1.365 . S
C4477 C4476 1.371 . S
C4477 C4487 1.386 . S
C4477 H4495 0.931 . S
C4478 C4476 1.365 . S
C4478 C4479 1.409 . S
C4478 H4496 0.929 . S
C4479 C4478 1.409 . S
C4479 C4480 1.380 . S
C4479 H4497 0.930 . S
C4480 C4479 1.380 . S
C4480 C4487 1.357 . S
C4481 C4472 1.511 . S
C4481 C4482 1.341 . S
C4481 C4483 1.371 . S
C4482 C4481 1.341 . S
C4482 C4486 1.394 . S
C4482 H4498 0.930 . S
C4483 C4481 1.371 . S
C4483 C4484 1.392 . S
C4483 H4499 0.931 . S
C4484 C4483 1.392 . S
C4484 C4485 1.331 . S
C4484 H4502 0.932 . S
C4485 C4484 1.331 . S
C4485 C4486 1.336 . S
C4486 C4482 1.394 . S
C4486 C4485 1.336 . S
C4486 H4501 0.929 . S
C4487 C4477 1.386 . S
C4487 C4480 1.357 . S
C4487 H4500 0.928 . S
H4488 C4464 0.931 . S
H4489 C4466 0.930 . S
H4490 C4468 0.929 . S
H4491 C4469 0.931 . S
H4492 C4471 0.930 . S
H4493 C4475 0.931 . S
H4494 C4473 0.931 . S
H4495 C4477 0.931 . S
H4496 C4478 0.929 . S
H4497 C4479 0.930 . S
H4498 C4482 0.930 . S
H4499 C4483 0.931 . S
H4500 C4487 0.928 . S
H4501 C4486 0.929 . S
H4502 C4484 0.932 . S
C4503 C4504 1.386 . S
C4503 C4505 1.397 . S
C4503 H4527 0.931 . S
C4504 C4503 1.386 . S
C4504 C4508 1.397 . S
C4505 C4503 1.397 . S
C4505 C4506 1.384 . S
C4505 H4528 0.930 . S
C4506 C4505 1.384 . S
C4506 C4507 1.377 . S
C4506 C4509 1.481 . S
C4507 C4506 1.377 . S
C4507 C4508 1.389 . S
C4507 H4529 0.929 . S
C4508 C4504 1.397 . S
C4508 C4507 1.389 . S
C4508 H4530 0.931 . S
C4509 C4506 1.481 . S
C4509 C4510 1.387 . S
C4509 C4514 1.390 . S
C4510 C4509 1.387 . S
C4510 C4511 1.401 . S
C4510 H4531 0.930 . S
C4511 C4510 1.401 . S
C4511 C4512 1.376 . S
C4511 C4520 1.511 . S
C4512 C4511 1.376 . S
C4512 C4513 1.392 . S
C4512 H4533 0.931 . S
C4513 C4512 1.392 . S
C4513 C4514 1.361 . S
C4513 C4515 1.500 . S
C4514 C4509 1.390 . S
C4514 C4513 1.361 . S
C4514 H4532 0.931 . S
C4515 C4513 1.500 . S
C4515 C4516 1.371 . S
C4515 C4517 1.365 . S
C4516 C4515 1.371 . S
C4516 C4526 1.386 . S
C4516 H4534 0.931 . S
C4517 C4515 1.365 . S
C4517 C4518 1.409 . S
C4517 H4535 0.929 . S
C4518 C4517 1.409 . S
C4518 C4519 1.380 . S
C4518 H4536 0.930 . S
C4519 C4518 1.380 . S
C4519 C4526 1.357 . S
C4520 C4511 1.511 . S
C4520 C4521 1.341 . S
C4520 C4522 1.371 . S
C4521 C4520 1.341 . S
C4521 C4525 1.394 . S
C4521 H4537 0.930 . S
C4522 C4520 1.371 . S
C4522 C4523 1.392 . S
C4522 H4538 0.931 . S
C4523 C4522 1.392 . S
C4523 C4524 1.331 . S
C4523 H4541 0.932 . S
C4524 C4523 1.331 . S
C4524 C4525 1.336 . S
C4525 C4521 1.394 . S
C4525 C4524 1.336 . S
C4525 H4540 0.929 . S
C4526 C4516 1.386 . S
C4526 C4519 1.357 . S
C4526 H4539 0.928 . S
H4527 C4503 0.931 . S
H4528 C4505 0.930 . S
H4529 C4507 0.929 . S
H4530 C4508 0.931 . S
H4531 C4510 0.930 . S
H4532 C4514 0.931 . S
H4533 C4512 0.931 . S
H4534 C4516 0.931 . S
H4535 C4517 0.929 . S
H4536 C4518 0.930 . S
H4537 C4521 0.930 . S
H4538 C4522 0.931 . S
H4539 C4526 0.928 . S
H4540 C4525 0.929 . S
H4541 C4523 0.932 . S
C4542 C4543 1.386 . S
C4542 C4544 1.397 . S
C4542 H4566 0.931 . S
C4543 C4542 1.386 . S
C4543 C4547 1.397 . S
C4544 C4542 1.397 . S
C4544 C4545 1.384 . S
C4544 H4567 0.930 . S
C4545 C4544 1.384 . S
C4545 C4546 1.377 . S
C4545 C4548 1.481 . S
C4546 C4545 1.377 . S
C4546 C4547 1.389 . S
C4546 H4568 0.929 . S
C4547 C4543 1.397 . S
C4547 C4546 1.389 . S
C4547 H4569 0.931 . S
C4548 C4545 1.481 . S
C4548 C4549 1.387 . S
C4548 C4553 1.390 . S
C4549 C4548 1.387 . S
C4549 C4550 1.401 . S
C4549 H4570 0.930 . S
C4550 C4549 1.401 . S
C4550 C4551 1.376 . S
C4550 C4559 1.511 . S
C4551 C4550 1.376 . S
C4551 C4552 1.392 . S
C4551 H4572 0.931 . S
C4552 C4551 1.392 . S
C4552 C4553 1.361 . S
C4552 C4554 1.500 . S
C4553 C4548 1.390 . S
C4553 C4552 1.361 . S
C4553 H4571 0.931 . S
C4554 C4552 1.500 . S
C4554 C4555 1.371 . S
C4554 C4556 1.365 . S
C4555 C4554 1.371 . S
C4555 C4565 1.386 . S
C4555 H4573 0.931 . S
C4556 C4554 1.365 . S
C4556 C4557 1.409 . S
C4556 H4574 0.929 . S
C4557 C4556 1.409 . S
C4557 C4558 1.380 . S
C4557 H4575 0.930 . S
C4558 C4557 1.380 . S
C4558 C4565 1.357 . S
C4559 C4550 1.511 . S
C4559 C4560 1.341 . S
C4559 C4561 1.371 . S
C4560 C4559 1.341 . S
C4560 C4564 1.394 . S
C4560 H4576 0.930 . S
C4561 C4559 1.371 . S
C4561 C4562 1.392 . S
C4561 H4577 0.931 . S
C4562 C4561 1.392 . S
C4562 C4563 1.331 . S
C4562 H4580 0.932 . S
C4563 C4562 1.331 . S
C4563 C4564 1.336 . S
C4564 C4560 1.394 . S
C4564 C4563 1.336 . S
C4564 H4579 0.929 . S
C4565 C4555 1.386 . S
C4565 C4558 1.357 . S
C4565 H4578 0.928 . S
H4566 C4542 0.931 . S
H4567 C4544 0.930 . S
H4568 C4546 0.929 . S
H4569 C4547 0.931 . S
H4570 C4549 0.930 . S
H4571 C4553 0.931 . S
H4572 C4551 0.931 . S
H4573 C4555 0.931 . S
H4574 C4556 0.929 . S
H4575 C4557 0.930 . S
H4576 C4560 0.930 . S
H4577 C4561 0.931 . S
H4578 C4565 0.928 . S
H4579 C4564 0.929 . S
H4580 C4562 0.932 . S
C4581 C4582 1.386 . S
C4581 C4583 1.397 . S
C4581 H4605 0.931 . S
C4582 C4581 1.386 . S
C4582 C4586 1.397 . S
C4583 C4581 1.397 . S
C4583 C4584 1.384 . S
C4583 H4606 0.930 . S
C4584 C4583 1.384 . S
C4584 C4585 1.377 . S
C4584 C4587 1.481 . S
C4585 C4584 1.377 . S
C4585 C4586 1.389 . S
C4585 H4607 0.929 . S
C4586 C4582 1.397 . S
C4586 C4585 1.389 . S
C4586 H4608 0.931 . S
C4587 C4584 1.481 . S
C4587 C4588 1.387 . S
C4587 C4592 1.390 . S
C4588 C4587 1.387 . S
C4588 C4589 1.401 . S
C4588 H4609 0.930 . S
C4589 C4588 1.401 . S
C4589 C4590 1.376 . S
C4589 C4598 1.511 . S
C4590 C4589 1.376 . S
C4590 C4591 1.392 . S
C4590 H4611 0.931 . S
C4591 C4590 1.392 . S
C4591 C4592 1.361 . S
C4591 C4593 1.500 . S
C4592 C4587 1.390 . S
C4592 C4591 1.361 . S
C4592 H4610 0.931 . S
C4593 C4591 1.500 . S
C4593 C4594 1.371 . S
C4593 C4595 1.365 . S
C4594 C4593 1.371 . S
C4594 C4604 1.386 . S
C4594 H4612 0.931 . S
C4595 C4593 1.365 . S
C4595 C4596 1.409 . S
C4595 H4613 0.929 . S
C4596 C4595 1.409 . S
C4596 C4597 1.380 . S
C4596 H4614 0.930 . S
C4597 C4596 1.380 . S
C4597 C4604 1.357 . S
C4598 C4589 1.511 . S
C4598 C4599 1.341 . S
C4598 C4600 1.371 . S
C4599 C4598 1.341 . S
C4599 C4603 1.394 . S
C4599 H4615 0.930 . S
C4600 C4598 1.371 . S
C4600 C4601 1.392 . S
C4600 H4616 0.931 . S
C4601 C4600 1.392 . S
C4601 C4602 1.331 . S
C4601 H4619 0.932 . S
C4602 C4601 1.331 . S
C4602 C4603 1.336 . S
C4603 C4599 1.394 . S
C4603 C4602 1.336 . S
C4603 H4618 0.929 . S
C4604 C4594 1.386 . S
C4604 C4597 1.357 . S
C4604 H4617 0.928 . S
H4605 C4581 0.931 . S
H4606 C4583 0.930 . S
H4607 C4585 0.929 . S
H4608 C4586 0.931 . S
H4609 C4588 0.930 . S
H4610 C4592 0.931 . S
H4611 C4590 0.931 . S
H4612 C4594 0.931 . S
H4613 C4595 0.929 . S
H4614 C4596 0.930 . S
H4615 C4599 0.930 . S
H4616 C4600 0.931 . S
H4617 C4604 0.928 . S
H4618 C4603 0.929 . S
H4619 C4601 0.932 . S
C4620 C4621 1.386 . S
C4620 C4622 1.397 . S
C4620 H4644 0.931 . S
C4621 C4620 1.386 . S
C4621 C4625 1.397 . S
C4622 C4620 1.397 . S
C4622 C4623 1.384 . S
C4622 H4645 0.930 . S
C4623 C4622 1.384 . S
C4623 C4624 1.377 . S
C4623 C4626 1.481 . S
C4624 C4623 1.377 . S
C4624 C4625 1.389 . S
C4624 H4646 0.929 . S
C4625 C4621 1.397 . S
C4625 C4624 1.389 . S
C4625 H4647 0.931 . S
C4626 C4623 1.481 . S
C4626 C4627 1.387 . S
C4626 C4631 1.390 . S
C4627 C4626 1.387 . S
C4627 C4628 1.401 . S
C4627 H4648 0.930 . S
C4628 C4627 1.401 . S
C4628 C4629 1.376 . S
C4628 C4637 1.511 . S
C4629 C4628 1.376 . S
C4629 C4630 1.392 . S
C4629 H4650 0.931 . S
C4630 C4629 1.392 . S
C4630 C4631 1.361 . S
C4630 C4632 1.500 . S
C4631 C4626 1.390 . S
C4631 C4630 1.361 . S
C4631 H4649 0.931 . S
C4632 C4630 1.500 . S
C4632 C4633 1.371 . S
C4632 C4634 1.365 . S
C4633 C4632 1.371 . S
C4633 C4643 1.386 . S
C4633 H4651 0.931 . S
C4634 C4632 1.365 . S
C4634 C4635 1.409 . S
C4634 H4652 0.929 . S
C4635 C4634 1.409 . S
C4635 C4636 1.380 . S
C4635 H4653 0.930 . S
C4636 C4635 1.380 . S
C4636 C4643 1.357 . S
C4637 C4628 1.511 . S
C4637 C4638 1.341 . S
C4637 C4639 1.371 . S
C4638 C4637 1.341 . S
C4638 C4642 1.394 . S
C4638 H4654 0.930 . S
C4639 C4637 1.371 . S
C4639 C4640 1.392 . S
C4639 H4655 0.931 . S
C4640 C4639 1.392 . S
C4640 C4641 1.313 1_545 S
C4640 H4658 0.895 1_545 S
C4641 C4640 1.313 1_565 S
C4641 C4642 1.309 1_565 S
C4642 C4638 1.394 . S
C4642 C4641 1.309 1_545 S
C4642 H4657 0.929 . S
C4643 C4633 1.386 . S
C4643 C4636 1.357 . S
C4643 H4656 0.928 . S
H4644 C4620 0.931 . S
H4645 C4622 0.930 . S
H4646 C4624 0.929 . S
H4647 C4625 0.931 . S
H4648 C4627 0.930 . S
H4649 C4631 0.931 . S
H4650 C4629 0.931 . S
H4651 C4633 0.931 . S
H4652 C4634 0.929 . S
H4653 C4635 0.930 . S
H4654 C4638 0.930 . S
H4655 C4639 0.931 . S
H4656 C4643 0.928 . S
H4657 C4642 0.929 . S
H4658 C4640 0.895 1_565 S
C4659 C4660 1.386 . S
C4659 C4661 1.397 . S
C4659 H4683 0.931 . S
C4660 C4659 1.386 . S
C4660 C4664 1.397 . S
C4661 C4659 1.397 . S
C4661 C4662 1.384 . S
C4661 H4684 0.930 . S
C4662 C4661 1.384 . S
C4662 C4663 1.377 . S
C4662 C4665 1.481 . S
C4663 C4662 1.377 . S
C4663 C4664 1.389 . S
C4663 H4685 0.929 . S
C4664 C4660 1.397 . S
C4664 C4663 1.389 . S
C4664 H4686 0.931 . S
C4665 C4662 1.481 . S
C4665 C4666 1.387 . S
C4665 C4670 1.390 . S
C4666 C4665 1.387 . S
C4666 C4667 1.401 . S
C4666 H4687 0.930 . S
C4667 C4666 1.401 . S
C4667 C4668 1.376 . S
C4667 C4676 1.511 . S
C4668 C4667 1.376 . S
C4668 C4669 1.392 . S
C4668 H4689 0.931 . S
C4669 C4668 1.392 . S
C4669 C4670 1.361 . S
C4669 C4671 1.500 . S
C4670 C4665 1.390 . S
C4670 C4669 1.361 . S
C4670 H4688 0.931 . S
C4671 C4669 1.500 . S
C4671 C4672 1.371 . S
C4671 C4673 1.365 . S
C4672 C4671 1.371 . S
C4672 C4682 1.386 . S
C4672 H4690 0.931 . S
C4673 C4671 1.365 . S
C4673 C4674 1.409 . S
C4673 H4691 0.929 . S
C4674 C4673 1.409 . S
C4674 C4675 1.380 . S
C4674 H4692 0.930 . S
C4675 C4674 1.380 . S
C4675 C4682 1.357 . S
C4676 C4667 1.511 . S
C4676 C4677 1.341 . S
C4676 C4678 1.371 . S
C4677 C4676 1.341 . S
C4677 C4681 1.394 . S
C4677 H4693 0.930 . S
C4678 C4676 1.371 . S
C4678 C4679 1.392 . S
C4678 H4694 0.931 . S
C4679 C4678 1.392 . S
C4679 C4680 1.331 . S
C4679 H4697 0.932 . S
C4680 C4679 1.331 . S
C4680 C4681 1.336 . S
C4681 C4677 1.394 . S
C4681 C4680 1.336 . S
C4681 H4696 0.929 . S
C4682 C4672 1.386 . S
C4682 C4675 1.357 . S
C4682 H4695 0.928 . S
H4683 C4659 0.931 . S
H4684 C4661 0.930 . S
H4685 C4663 0.929 . S
H4686 C4664 0.931 . S
H4687 C4666 0.930 . S
H4688 C4670 0.931 . S
H4689 C4668 0.931 . S
H4690 C4672 0.931 . S
H4691 C4673 0.929 . S
H4692 C4674 0.930 . S
H4693 C4677 0.930 . S
H4694 C4678 0.931 . S
H4695 C4682 0.928 . S
H4696 C4681 0.929 . S
H4697 C4679 0.932 . S
C4698 C4699 1.386 . S
C4698 C4700 1.397 . S
C4698 H4722 0.931 . S
C4699 C4698 1.386 . S
C4699 C4703 1.397 . S
C4700 C4698 1.397 . S
C4700 C4701 1.384 . S
C4700 H4723 0.930 . S
C4701 C4700 1.384 . S
C4701 C4702 1.377 . S
C4701 C4704 1.481 . S
C4702 C4701 1.377 . S
C4702 C4703 1.389 . S
C4702 H4724 0.929 . S
C4703 C4699 1.397 . S
C4703 C4702 1.389 . S
C4703 H4725 0.931 . S
C4704 C4701 1.481 . S
C4704 C4705 1.387 . S
C4704 C4709 1.390 . S
C4705 C4704 1.387 . S
C4705 C4706 1.401 . S
C4705 H4726 0.930 . S
C4706 C4705 1.401 . S
C4706 C4707 1.376 . S
C4706 C4715 1.511 . S
C4707 C4706 1.376 . S
C4707 C4708 1.392 . S
C4707 H4728 0.931 . S
C4708 C4707 1.392 . S
C4708 C4709 1.361 . S
C4708 C4710 1.500 . S
C4709 C4704 1.390 . S
C4709 C4708 1.361 . S
C4709 H4727 0.931 . S
C4710 C4708 1.500 . S
C4710 C4711 1.371 . S
C4710 C4712 1.365 . S
C4711 C4710 1.371 . S
C4711 C4721 1.386 . S
C4711 H4729 0.931 . S
C4712 C4710 1.365 . S
C4712 C4713 1.409 . S
C4712 H4730 0.929 . S
C4713 C4712 1.409 . S
C4713 C4714 1.380 . S
C4713 H4731 0.930 . S
C4714 C4713 1.380 . S
C4714 C4721 1.357 . S
C4715 C4706 1.511 . S
C4715 C4716 1.341 . S
C4715 C4717 1.371 . S
C4716 C4715 1.341 . S
C4716 C4720 1.394 . S
C4716 H4732 0.930 . S
C4717 C4715 1.371 . S
C4717 C4718 1.392 . S
C4717 H4733 0.931 . S
C4718 C4717 1.392 . S
C4718 C4719 1.331 . S
C4718 H4736 0.932 . S
C4719 C4718 1.331 . S
C4719 C4720 1.336 . S
C4720 C4716 1.394 . S
C4720 C4719 1.336 . S
C4720 H4735 0.929 . S
C4721 C4711 1.386 . S
C4721 C4714 1.357 . S
C4721 H4734 0.928 . S
H4722 C4698 0.931 . S
H4723 C4700 0.930 . S
H4724 C4702 0.929 . S
H4725 C4703 0.931 . S
H4726 C4705 0.930 . S
H4727 C4709 0.931 . S
H4728 C4707 0.931 . S
H4729 C4711 0.931 . S
H4730 C4712 0.929 . S
H4731 C4713 0.930 . S
H4732 C4716 0.930 . S
H4733 C4717 0.931 . S
H4734 C4721 0.928 . S
H4735 C4720 0.929 . S
H4736 C4718 0.932 . S
C4737 C4738 1.386 . S
C4737 C4739 1.397 . S
C4737 H4761 0.931 . S
C4738 C4737 1.386 . S
C4738 C4742 1.397 . S
C4739 C4737 1.397 . S
C4739 C4740 1.384 . S
C4739 H4762 0.930 . S
C4740 C4739 1.384 . S
C4740 C4741 1.377 . S
C4740 C4743 1.481 . S
C4741 C4740 1.377 . S
C4741 C4742 1.389 . S
C4741 H4763 0.929 . S
C4742 C4738 1.397 . S
C4742 C4741 1.389 . S
C4742 H4764 0.931 . S
C4743 C4740 1.481 . S
C4743 C4744 1.387 . S
C4743 C4748 1.390 . S
C4744 C4743 1.387 . S
C4744 C4745 1.401 . S
C4744 H4765 0.930 . S
C4745 C4744 1.401 . S
C4745 C4746 1.376 . S
C4745 C4754 1.511 . S
C4746 C4745 1.376 . S
C4746 C4747 1.392 . S
C4746 H4767 0.931 . S
C4747 C4746 1.392 . S
C4747 C4748 1.361 . S
C4747 C4749 1.500 . S
C4748 C4743 1.390 . S
C4748 C4747 1.361 . S
C4748 H4766 0.931 . S
C4749 C4747 1.500 . S
C4749 C4750 1.371 . S
C4749 C4751 1.365 . S
C4750 C4749 1.371 . S
C4750 C4760 1.386 . S
C4750 H4768 0.931 . S
C4751 C4749 1.365 . S
C4751 C4752 1.409 . S
C4751 H4769 0.929 . S
C4752 C4751 1.409 . S
C4752 C4753 1.380 . S
C4752 H4770 0.930 . S
C4753 C4752 1.380 . S
C4753 C4760 1.357 . S
C4754 C4745 1.511 . S
C4754 C4755 1.341 . S
C4754 C4756 1.371 . S
C4755 C4754 1.341 . S
C4755 C4759 1.394 . S
C4755 H4771 0.930 . S
C4756 C4754 1.371 . S
C4756 C4757 1.392 . S
C4756 H4772 0.931 . S
C4757 C4756 1.392 . S
C4757 C4758 1.331 . S
C4757 H4775 0.932 . S
C4758 C4757 1.331 . S
C4758 C4759 1.336 . S
C4759 C4755 1.394 . S
C4759 C4758 1.336 . S
C4759 H4774 0.929 . S
C4760 C4750 1.386 . S
C4760 C4753 1.357 . S
C4760 H4773 0.928 . S
H4761 C4737 0.931 . S
H4762 C4739 0.930 . S
H4763 C4741 0.929 . S
H4764 C4742 0.931 . S
H4765 C4744 0.930 . S
H4766 C4748 0.931 . S
H4767 C4746 0.931 . S
H4768 C4750 0.931 . S
H4769 C4751 0.929 . S
H4770 C4752 0.930 . S
H4771 C4755 0.930 . S
H4772 C4756 0.931 . S
H4773 C4760 0.928 . S
H4774 C4759 0.929 . S
H4775 C4757 0.932 . S
C4776 C4777 1.386 . S
C4776 C4778 1.397 . S
C4776 H4800 0.931 . S
C4777 C4776 1.386 . S
C4777 C4781 1.397 . S
C4778 C4776 1.397 . S
C4778 C4779 1.384 . S
C4778 H4801 0.930 . S
C4779 C4778 1.384 . S
C4779 C4780 1.377 . S
C4779 C4782 1.481 . S
C4780 C4779 1.377 . S
C4780 C4781 1.389 . S
C4780 H4802 0.929 . S
C4781 C4777 1.397 . S
C4781 C4780 1.389 . S
C4781 H4803 0.931 . S
C4782 C4779 1.481 . S
C4782 C4783 1.387 . S
C4782 C4787 1.390 . S
C4783 C4782 1.387 . S
C4783 C4784 1.401 . S
C4783 H4804 0.930 . S
C4784 C4783 1.401 . S
C4784 C4785 1.376 . S
C4784 C4793 1.511 . S
C4785 C4784 1.376 . S
C4785 C4786 1.392 . S
C4785 H4806 0.931 . S
C4786 C4785 1.392 . S
C4786 C4787 1.361 . S
C4786 C4788 1.500 . S
C4787 C4782 1.390 . S
C4787 C4786 1.361 . S
C4787 H4805 0.931 . S
C4788 C4786 1.500 . S
C4788 C4789 1.371 . S
C4788 C4790 1.365 . S
C4789 C4788 1.371 . S
C4789 C4799 1.386 . S
C4789 H4807 0.931 . S
C4790 C4788 1.365 . S
C4790 C4791 1.409 . S
C4790 H4808 0.929 . S
C4791 C4790 1.409 . S
C4791 C4792 1.380 . S
C4791 H4809 0.930 . S
C4792 C4791 1.380 . S
C4792 C4799 1.357 . S
C4793 C4784 1.511 . S
C4793 C4794 1.341 . S
C4793 C4795 1.371 . S
C4794 C4793 1.341 . S
C4794 C4798 1.394 . S
C4794 H4810 0.930 . S
C4795 C4793 1.371 . S
C4795 C4796 1.392 . S
C4795 H4811 0.931 . S
C4796 C4795 1.392 . S
C4796 C4797 1.331 . S
C4796 H4814 0.932 . S
C4797 C4796 1.331 . S
C4797 C4798 1.336 . S
C4798 C4794 1.394 . S
C4798 C4797 1.336 . S
C4798 H4813 0.929 . S
C4799 C4789 1.386 . S
C4799 C4792 1.357 . S
C4799 H4812 0.928 . S
H4800 C4776 0.931 . S
H4801 C4778 0.930 . S
H4802 C4780 0.929 . S
H4803 C4781 0.931 . S
H4804 C4783 0.930 . S
H4805 C4787 0.931 . S
H4806 C4785 0.931 . S
H4807 C4789 0.931 . S
H4808 C4790 0.929 . S
H4809 C4791 0.930 . S
H4810 C4794 0.930 . S
H4811 C4795 0.931 . S
H4812 C4799 0.928 . S
H4813 C4798 0.929 . S
H4814 C4796 0.932 . S
C4815 C4816 1.386 . S
C4815 C4817 1.397 . S
C4815 H4839 0.931 . S
C4816 C4815 1.386 . S
C4816 C4820 1.397 . S
C4817 C4815 1.397 . S
C4817 C4818 1.384 . S
C4817 H4840 0.930 . S
C4818 C4817 1.384 . S
C4818 C4819 1.377 . S
C4818 C4821 1.481 . S
C4819 C4818 1.377 . S
C4819 C4820 1.389 . S
C4819 H4841 0.929 . S
C4820 C4816 1.397 . S
C4820 C4819 1.389 . S
C4820 H4842 0.931 . S
C4821 C4818 1.481 . S
C4821 C4822 1.387 . S
C4821 C4826 1.390 . S
C4822 C4821 1.387 . S
C4822 C4823 1.401 . S
C4822 H4843 0.930 . S
C4823 C4822 1.401 . S
C4823 C4824 1.376 . S
C4823 C4832 1.511 . S
C4824 C4823 1.376 . S
C4824 C4825 1.392 . S
C4824 H4845 0.931 . S
C4825 C4824 1.392 . S
C4825 C4826 1.361 . S
C4825 C4827 1.500 . S
C4826 C4821 1.390 . S
C4826 C4825 1.361 . S
C4826 H4844 0.931 . S
C4827 C4825 1.500 . S
C4827 C4828 1.371 . S
C4827 C4829 1.365 . S
C4828 C4827 1.371 . S
C4828 C4838 1.386 . S
C4828 H4846 0.931 . S
C4829 C4827 1.365 . S
C4829 C4830 1.409 . S
C4829 H4847 0.929 . S
C4830 C4829 1.409 . S
C4830 C4831 1.380 . S
C4830 H4848 0.930 . S
C4831 C4830 1.380 . S
C4831 C4838 1.357 . S
C4832 C4823 1.511 . S
C4832 C4833 1.341 . S
C4832 C4834 1.371 . S
C4833 C4832 1.341 . S
C4833 C4837 1.394 . S
C4833 H4849 0.930 . S
C4834 C4832 1.371 . S
C4834 C4835 1.392 . S
C4834 H4850 0.931 . S
C4835 C4834 1.392 . S
C4835 C4836 1.320 1_655 S
C4835 H4853 0.932 1_655 S
C4836 C4835 1.320 1_455 S
C4836 C4837 1.313 1_455 S
C4837 C4833 1.394 . S
C4837 C4836 1.313 1_655 S
C4837 H4852 0.929 . S
C4838 C4828 1.386 . S
C4838 C4831 1.357 . S
C4838 H4851 0.928 . S
H4839 C4815 0.931 . S
H4840 C4817 0.930 . S
H4841 C4819 0.929 . S
H4842 C4820 0.931 . S
H4843 C4822 0.930 . S
H4844 C4826 0.931 . S
H4845 C4824 0.931 . S
H4846 C4828 0.931 . S
H4847 C4829 0.929 . S
H4848 C4830 0.930 . S
H4849 C4833 0.930 . S
H4850 C4834 0.931 . S
H4851 C4838 0.928 . S
H4852 C4837 0.929 . S
H4853 C4835 0.932 1_455 S
C4854 C4855 1.386 . S
C4854 C4856 1.397 . S
C4854 H4878 0.931 . S
C4855 C4854 1.386 . S
C4855 C4859 1.397 . S
C4856 C4854 1.397 . S
C4856 C4857 1.384 . S
C4856 H4879 0.930 . S
C4857 C4856 1.384 . S
C4857 C4858 1.377 . S
C4857 C4860 1.481 . S
C4858 C4857 1.377 . S
C4858 C4859 1.389 . S
C4858 H4880 0.929 . S
C4859 C4855 1.397 . S
C4859 C4858 1.389 . S
C4859 H4881 0.931 . S
C4860 C4857 1.481 . S
C4860 C4861 1.387 . S
C4860 C4865 1.390 . S
C4861 C4860 1.387 . S
C4861 C4862 1.401 . S
C4861 H4882 0.930 . S
C4862 C4861 1.401 . S
C4862 C4863 1.376 . S
C4862 C4871 1.511 . S
C4863 C4862 1.376 . S
C4863 C4864 1.392 . S
C4863 H4884 0.931 . S
C4864 C4863 1.392 . S
C4864 C4865 1.361 . S
C4864 C4866 1.500 . S
C4865 C4860 1.390 . S
C4865 C4864 1.361 . S
C4865 H4883 0.931 . S
C4866 C4864 1.500 . S
C4866 C4867 1.371 . S
C4866 C4868 1.365 . S
C4867 C4866 1.371 . S
C4867 C4877 1.386 . S
C4867 H4885 0.931 . S
C4868 C4866 1.365 . S
C4868 C4869 1.409 . S
C4868 H4886 0.929 . S
C4869 C4868 1.409 . S
C4869 C4870 1.380 . S
C4869 H4887 0.930 . S
C4870 C4869 1.380 . S
C4870 C4877 1.357 . S
C4871 C4862 1.511 . S
C4871 C4872 1.341 . S
C4871 C4873 1.371 . S
C4872 C4871 1.341 . S
C4872 C4876 1.394 . S
C4872 H4888 0.930 . S
C4873 C4871 1.371 . S
C4873 C4874 1.392 . S
C4873 H4889 0.931 . S
C4874 C4873 1.392 . S
C4874 C4875 1.331 . S
C4874 H4892 0.932 . S
C4875 C4874 1.331 . S
C4875 C4876 1.336 . S
C4876 C4872 1.394 . S
C4876 C4875 1.336 . S
C4876 H4891 0.929 . S
C4877 C4867 1.386 . S
C4877 C4870 1.357 . S
C4877 H4890 0.928 . S
H4878 C4854 0.931 . S
H4879 C4856 0.930 . S
H4880 C4858 0.929 . S
H4881 C4859 0.931 . S
H4882 C4861 0.930 . S
H4883 C4865 0.931 . S
H4884 C4863 0.931 . S
H4885 C4867 0.931 . S
H4886 C4868 0.929 . S
H4887 C4869 0.930 . S
H4888 C4872 0.930 . S
H4889 C4873 0.931 . S
H4890 C4877 0.928 . S
H4891 C4876 0.929 . S
H4892 C4874 0.932 . S
C4893 C4894 1.386 . S
C4893 C4895 1.397 . S
C4893 H4917 0.931 . S
C4894 C4893 1.386 . S
C4894 C4898 1.397 . S
C4895 C4893 1.397 . S
C4895 C4896 1.384 . S
C4895 H4918 0.930 . S
C4896 C4895 1.384 . S
C4896 C4897 1.377 . S
C4896 C4899 1.481 . S
C4897 C4896 1.377 . S
C4897 C4898 1.389 . S
C4897 H4919 0.929 . S
C4898 C4894 1.397 . S
C4898 C4897 1.389 . S
C4898 H4920 0.931 . S
C4899 C4896 1.481 . S
C4899 C4900 1.387 . S
C4899 C4904 1.390 . S
C4900 C4899 1.387 . S
C4900 C4901 1.401 . S
C4900 H4921 0.930 . S
C4901 C4900 1.401 . S
C4901 C4902 1.376 . S
C4901 C4910 1.511 . S
C4902 C4901 1.376 . S
C4902 C4903 1.392 . S
C4902 H4923 0.931 . S
C4903 C4902 1.392 . S
C4903 C4904 1.361 . S
C4903 C4905 1.500 . S
C4904 C4899 1.390 . S
C4904 C4903 1.361 . S
C4904 H4922 0.931 . S
C4905 C4903 1.500 . S
C4905 C4906 1.371 . S
C4905 C4907 1.365 . S
C4906 C4905 1.371 . S
C4906 C4916 1.386 . S
C4906 H4924 0.931 . S
C4907 C4905 1.365 . S
C4907 C4908 1.409 . S
C4907 H4925 0.929 . S
C4908 C4907 1.409 . S
C4908 C4909 1.380 . S
C4908 H4926 0.930 . S
C4909 C4908 1.380 . S
C4909 C4916 1.357 . S
C4910 C4901 1.511 . S
C4910 C4911 1.341 . S
C4910 C4912 1.371 . S
C4911 C4910 1.341 . S
C4911 C4915 1.394 . S
C4911 H4927 0.930 . S
C4912 C4910 1.371 . S
C4912 C4913 1.392 . S
C4912 H4928 0.931 . S
C4913 C4912 1.392 . S
C4913 C4914 1.331 . S
C4913 H4931 0.932 . S
C4914 C4913 1.331 . S
C4914 C4915 1.336 . S
C4915 C4911 1.394 . S
C4915 C4914 1.336 . S
C4915 H4930 0.929 . S
C4916 C4906 1.386 . S
C4916 C4909 1.357 . S
C4916 H4929 0.928 . S
H4917 C4893 0.931 . S
H4918 C4895 0.930 . S
H4919 C4897 0.929 . S
H4920 C4898 0.931 . S
H4921 C4900 0.930 . S
H4922 C4904 0.931 . S
H4923 C4902 0.931 . S
H4924 C4906 0.931 . S
H4925 C4907 0.929 . S
H4926 C4908 0.930 . S
H4927 C4911 0.930 . S
H4928 C4912 0.931 . S
H4929 C4916 0.928 . S
H4930 C4915 0.929 . S
H4931 C4913 0.932 . S
C4932 C4933 1.386 . S
C4932 C4934 1.397 . S
C4932 H4956 0.931 . S
C4933 C4932 1.386 . S
C4933 C4937 1.397 . S
C4934 C4932 1.397 . S
C4934 C4935 1.384 . S
C4934 H4957 0.930 . S
C4935 C4934 1.384 . S
C4935 C4936 1.377 . S
C4935 C4938 1.481 . S
C4936 C4935 1.377 . S
C4936 C4937 1.389 . S
C4936 H4958 0.929 . S
C4937 C4933 1.397 . S
C4937 C4936 1.389 . S
C4937 H4959 0.931 . S
C4938 C4935 1.481 . S
C4938 C4939 1.387 . S
C4938 C4943 1.390 . S
C4939 C4938 1.387 . S
C4939 C4940 1.401 . S
C4939 H4960 0.930 . S
C4940 C4939 1.401 . S
C4940 C4941 1.376 . S
C4940 C4949 1.511 . S
C4941 C4940 1.376 . S
C4941 C4942 1.392 . S
C4941 H4962 0.931 . S
C4942 C4941 1.392 . S
C4942 C4943 1.361 . S
C4942 C4944 1.500 . S
C4943 C4938 1.390 . S
C4943 C4942 1.361 . S
C4943 H4961 0.931 . S
C4944 C4942 1.500 . S
C4944 C4945 1.371 . S
C4944 C4946 1.365 . S
C4945 C4944 1.371 . S
C4945 C4955 1.386 . S
C4945 H4963 0.931 . S
C4946 C4944 1.365 . S
C4946 C4947 1.409 . S
C4946 H4964 0.929 . S
C4947 C4946 1.409 . S
C4947 C4948 1.380 . S
C4947 H4965 0.930 . S
C4948 C4947 1.380 . S
C4948 C4955 1.357 . S
C4949 C4940 1.511 . S
C4949 C4950 1.341 . S
C4949 C4951 1.371 . S
C4950 C4949 1.341 . S
C4950 C4954 1.394 . S
C4950 H4966 0.930 . S
C4951 C4949 1.371 . S
C4951 C4952 1.392 . S
C4951 H4967 0.931 . S
C4952 C4951 1.392 . S
C4952 C4953 1.331 . S
C4952 H4970 0.932 . S
C4953 C4952 1.331 . S
C4953 C4954 1.336 . S
C4954 C4950 1.394 . S
C4954 C4953 1.336 . S
C4954 H4969 0.929 . S
C4955 C4945 1.386 . S
C4955 C4948 1.357 . S
C4955 H4968 0.928 . S
H4956 C4932 0.931 . S
H4957 C4934 0.930 . S
H4958 C4936 0.929 . S
H4959 C4937 0.931 . S
H4960 C4939 0.930 . S
H4961 C4943 0.931 . S
H4962 C4941 0.931 . S
H4963 C4945 0.931 . S
H4964 C4946 0.929 . S
H4965 C4947 0.930 . S
H4966 C4950 0.930 . S
H4967 C4951 0.931 . S
H4968 C4955 0.928 . S
H4969 C4954 0.929 . S
H4970 C4952 0.932 . S
C4971 C4972 1.386 . S
C4971 C4973 1.397 . S
C4971 H4995 0.931 . S
C4972 C4971 1.386 . S
C4972 C4976 1.397 . S
C4973 C4971 1.397 . S
C4973 C4974 1.384 . S
C4973 H4996 0.930 . S
C4974 C4973 1.384 . S
C4974 C4975 1.377 . S
C4974 C4977 1.481 . S
C4975 C4974 1.377 . S
C4975 C4976 1.389 . S
C4975 H4997 0.929 . S
C4976 C4972 1.397 . S
C4976 C4975 1.389 . S
C4976 H4998 0.931 . S
C4977 C4974 1.481 . S
C4977 C4978 1.387 . S
C4977 C4982 1.390 . S
C4978 C4977 1.387 . S
C4978 C4979 1.401 . S
C4978 H4999 0.930 . S
C4979 C4978 1.401 . S
C4979 C4980 1.376 . S
C4979 C4988 1.511 . S
C4980 C4979 1.376 . S
C4980 C4981 1.392 . S
C4980 H5001 0.931 . S
C4981 C4980 1.392 . S
C4981 C4982 1.361 . S
C4981 C4983 1.500 . S
C4982 C4977 1.390 . S
C4982 C4981 1.361 . S
C4982 H5000 0.931 . S
C4983 C4981 1.500 . S
C4983 C4984 1.371 . S
C4983 C4985 1.365 . S
C4984 C4983 1.371 . S
C4984 C4994 1.386 . S
C4984 H5002 0.931 . S
C4985 C4983 1.365 . S
C4985 C4986 1.409 . S
C4985 H5003 0.929 . S
C4986 C4985 1.409 . S
C4986 C4987 1.380 . S
C4986 H5004 0.930 . S
C4987 C4986 1.380 . S
C4987 C4994 1.357 . S
C4988 C4979 1.511 . S
C4988 C4989 1.341 . S
C4988 C4990 1.371 . S
C4989 C4988 1.341 . S
C4989 C4993 1.394 . S
C4989 H5005 0.930 . S
C4990 C4988 1.371 . S
C4990 C4991 1.392 . S
C4990 H5006 0.931 . S
C4991 C4990 1.392 . S
C4991 C4992 1.331 . S
C4991 H5009 0.932 . S
C4992 C4991 1.331 . S
C4992 C4993 1.336 . S
C4993 C4989 1.394 . S
C4993 C4992 1.336 . S
C4993 H5008 0.929 . S
C4994 C4984 1.386 . S
C4994 C4987 1.357 . S
C4994 H5007 0.928 . S
H4995 C4971 0.931 . S
H4996 C4973 0.930 . S
H4997 C4975 0.929 . S
H4998 C4976 0.931 . S
H4999 C4978 0.930 . S
H5000 C4982 0.931 . S
H5001 C4980 0.931 . S
H5002 C4984 0.931 . S
H5003 C4985 0.929 . S
H5004 C4986 0.930 . S
H5005 C4989 0.930 . S
H5006 C4990 0.931 . S
H5007 C4994 0.928 . S
H5008 C4993 0.929 . S
H5009 C4991 0.932 . S
C5010 C5011 1.386 . S
C5010 C5012 1.397 . S
C5010 H5034 0.931 . S
C5011 C5010 1.386 . S
C5011 C5015 1.397 . S
C5012 C5010 1.397 . S
C5012 C5013 1.384 . S
C5012 H5035 0.930 . S
C5013 C5012 1.384 . S
C5013 C5014 1.377 . S
C5013 C5016 1.481 . S
C5014 C5013 1.377 . S
C5014 C5015 1.389 . S
C5014 H5036 0.929 . S
C5015 C5011 1.397 . S
C5015 C5014 1.389 . S
C5015 H5037 0.931 . S
C5016 C5013 1.481 . S
C5016 C5017 1.387 . S
C5016 C5021 1.390 . S
C5017 C5016 1.387 . S
C5017 C5018 1.401 . S
C5017 H5038 0.930 . S
C5018 C5017 1.401 . S
C5018 C5019 1.376 . S
C5018 C5027 1.511 . S
C5019 C5018 1.376 . S
C5019 C5020 1.392 . S
C5019 H5040 0.931 . S
C5020 C5019 1.392 . S
C5020 C5021 1.361 . S
C5020 C5022 1.500 . S
C5021 C5016 1.390 . S
C5021 C5020 1.361 . S
C5021 H5039 0.931 . S
C5022 C5020 1.500 . S
C5022 C5023 1.371 . S
C5022 C5024 1.365 . S
C5023 C5022 1.371 . S
C5023 C5033 1.386 . S
C5023 H5041 0.931 . S
C5024 C5022 1.365 . S
C5024 C5025 1.409 . S
C5024 H5042 0.929 . S
C5025 C5024 1.409 . S
C5025 C5026 1.380 . S
C5025 H5043 0.930 . S
C5026 C5025 1.380 . S
C5026 C5033 1.357 . S
C5027 C5018 1.511 . S
C5027 C5028 1.341 . S
C5027 C5029 1.371 . S
C5028 C5027 1.341 . S
C5028 C5032 1.394 . S
C5028 H5044 0.930 . S
C5029 C5027 1.371 . S
C5029 C5030 1.392 . S
C5029 H5045 0.931 . S
C5030 C5029 1.392 . S
C5030 C5031 1.331 . S
C5030 H5048 0.932 . S
C5031 C5030 1.331 . S
C5031 C5032 1.336 . S
C5032 C5028 1.394 . S
C5032 C5031 1.336 . S
C5032 H5047 0.929 . S
C5033 C5023 1.386 . S
C5033 C5026 1.357 . S
C5033 H5046 0.928 . S
H5034 C5010 0.931 . S
H5035 C5012 0.930 . S
H5036 C5014 0.929 . S
H5037 C5015 0.931 . S
H5038 C5017 0.930 . S
H5039 C5021 0.931 . S
H5040 C5019 0.931 . S
H5041 C5023 0.931 . S
H5042 C5024 0.929 . S
H5043 C5025 0.930 . S
H5044 C5028 0.930 . S
H5045 C5029 0.931 . S
H5046 C5033 0.928 . S
H5047 C5032 0.929 . S
H5048 C5030 0.932 . S
C5049 C5050 1.386 . S
C5049 C5051 1.397 . S
C5049 H5073 0.931 . S
C5050 C5049 1.386 . S
C5050 C5054 1.397 . S
C5051 C5049 1.397 . S
C5051 C5052 1.384 . S
C5051 H5074 0.930 . S
C5052 C5051 1.384 . S
C5052 C5053 1.377 . S
C5052 C5055 1.481 . S
C5053 C5052 1.377 . S
C5053 C5054 1.389 . S
C5053 H5075 0.929 . S
C5054 C5050 1.397 . S
C5054 C5053 1.389 . S
C5054 H5076 0.931 . S
C5055 C5052 1.481 . S
C5055 C5056 1.387 . S
C5055 C5060 1.390 . S
C5056 C5055 1.387 . S
C5056 C5057 1.401 . S
C5056 H5077 0.930 . S
C5057 C5056 1.401 . S
C5057 C5058 1.376 . S
C5057 C5066 1.511 . S
C5058 C5057 1.376 . S
C5058 C5059 1.392 . S
C5058 H5079 0.931 . S
C5059 C5058 1.392 . S
C5059 C5060 1.361 . S
C5059 C5061 1.500 . S
C5060 C5055 1.390 . S
C5060 C5059 1.361 . S
C5060 H5078 0.931 . S
C5061 C5059 1.500 . S
C5061 C5062 1.371 . S
C5061 C5063 1.365 . S
C5062 C5061 1.371 . S
C5062 C5072 1.386 . S
C5062 H5080 0.931 . S
C5063 C5061 1.365 . S
C5063 C5064 1.409 . S
C5063 H5081 0.929 . S
C5064 C5063 1.409 . S
C5064 C5065 1.380 . S
C5064 H5082 0.930 . S
C5065 C5064 1.380 . S
C5065 C5072 1.357 . S
C5066 C5057 1.511 . S
C5066 C5067 1.341 . S
C5066 C5068 1.371 . S
C5067 C5066 1.341 . S
C5067 C5071 1.394 . S
C5067 H5083 0.930 . S
C5068 C5066 1.371 . S
C5068 C5069 1.392 . S
C5068 H5084 0.931 . S
C5069 C5068 1.392 . S
C5069 C5070 1.320 1_655 S
C5069 H5087 0.932 1_655 S
C5070 C5069 1.320 1_455 S
C5070 C5071 1.313 1_455 S
C5071 C5067 1.394 . S
C5071 C5070 1.313 1_655 S
C5071 H5086 0.929 . S
C5072 C5062 1.386 . S
C5072 C5065 1.357 . S
C5072 H5085 0.928 . S
H5073 C5049 0.931 . S
H5074 C5051 0.930 . S
H5075 C5053 0.929 . S
H5076 C5054 0.931 . S
H5077 C5056 0.930 . S
H5078 C5060 0.931 . S
H5079 C5058 0.931 . S
H5080 C5062 0.931 . S
H5081 C5063 0.929 . S
H5082 C5064 0.930 . S
H5083 C5067 0.930 . S
H5084 C5068 0.931 . S
H5085 C5072 0.928 . S
H5086 C5071 0.929 . S
H5087 C5069 0.932 1_455 S
C5088 C5089 1.386 . S
C5088 C5090 1.397 . S
C5088 H5112 0.931 . S
C5089 C5088 1.386 . S
C5089 C5093 1.397 . S
C5090 C5088 1.397 . S
C5090 C5091 1.384 . S
C5090 H5113 0.930 . S
C5091 C5090 1.384 . S
C5091 C5092 1.377 . S
C5091 C5094 1.481 . S
C5092 C5091 1.377 . S
C5092 C5093 1.389 . S
C5092 H5114 0.929 . S
C5093 C5089 1.397 . S
C5093 C5092 1.389 . S
C5093 H5115 0.931 . S
C5094 C5091 1.481 . S
C5094 C5095 1.387 . S
C5094 C5099 1.390 . S
C5095 C5094 1.387 . S
C5095 C5096 1.401 . S
C5095 H5116 0.930 . S
C5096 C5095 1.401 . S
C5096 C5097 1.376 . S
C5096 C5105 1.511 . S
C5097 C5096 1.376 . S
C5097 C5098 1.392 . S
C5097 H5118 0.931 . S
C5098 C5097 1.392 . S
C5098 C5099 1.361 . S
C5098 C5100 1.500 . S
C5099 C5094 1.390 . S
C5099 C5098 1.361 . S
C5099 H5117 0.931 . S
C5100 C5098 1.500 . S
C5100 C5101 1.371 . S
C5100 C5102 1.365 . S
C5101 C5100 1.371 . S
C5101 C5111 1.386 . S
C5101 H5119 0.931 . S
C5102 C5100 1.365 . S
C5102 C5103 1.409 . S
C5102 H5120 0.929 . S
C5103 C5102 1.409 . S
C5103 C5104 1.380 . S
C5103 H5121 0.930 . S
C5104 C5103 1.380 . S
C5104 C5111 1.357 . S
C5105 C5096 1.511 . S
C5105 C5106 1.341 . S
C5105 C5107 1.371 . S
C5106 C5105 1.341 . S
C5106 C5110 1.394 . S
C5106 H5122 0.930 . S
C5107 C5105 1.371 . S
C5107 C5108 1.392 . S
C5107 H5123 0.931 . S
C5108 C5107 1.392 . S
C5108 C5109 1.331 . S
C5108 H5126 0.932 . S
C5109 C5108 1.331 . S
C5109 C5110 1.336 . S
C5110 C5106 1.394 . S
C5110 C5109 1.336 . S
C5110 H5125 0.929 . S
C5111 C5101 1.386 . S
C5111 C5104 1.357 . S
C5111 H5124 0.928 . S
H5112 C5088 0.931 . S
H5113 C5090 0.930 . S
H5114 C5092 0.929 . S
H5115 C5093 0.931 . S
H5116 C5095 0.930 . S
H5117 C5099 0.931 . S
H5118 C5097 0.931 . S
H5119 C5101 0.931 . S
H5120 C5102 0.929 . S
H5121 C5103 0.930 . S
H5122 C5106 0.930 . S
H5123 C5107 0.931 . S
H5124 C5111 0.928 . S
H5125 C5110 0.929 . S
H5126 C5108 0.932 . S
C5127 C5128 1.386 . S
C5127 C5129 1.397 . S
C5127 H5151 0.931 . S
C5128 C5127 1.386 . S
C5128 C5132 1.397 . S
C5129 C5127 1.397 . S
C5129 C5130 1.384 . S
C5129 H5152 0.930 . S
C5130 C5129 1.384 . S
C5130 C5131 1.377 . S
C5130 C5133 1.481 . S
C5131 C5130 1.377 . S
C5131 C5132 1.389 . S
C5131 H5153 0.929 . S
C5132 C5128 1.397 . S
C5132 C5131 1.389 . S
C5132 H5154 0.931 . S
C5133 C5130 1.481 . S
C5133 C5134 1.387 . S
C5133 C5138 1.390 . S
C5134 C5133 1.387 . S
C5134 C5135 1.401 . S
C5134 H5155 0.930 . S
C5135 C5134 1.401 . S
C5135 C5136 1.376 . S
C5135 C5144 1.511 . S
C5136 C5135 1.376 . S
C5136 C5137 1.392 . S
C5136 H5157 0.931 . S
C5137 C5136 1.392 . S
C5137 C5138 1.361 . S
C5137 C5139 1.500 . S
C5138 C5133 1.390 . S
C5138 C5137 1.361 . S
C5138 H5156 0.931 . S
C5139 C5137 1.500 . S
C5139 C5140 1.371 . S
C5139 C5141 1.365 . S
C5140 C5139 1.371 . S
C5140 C5150 1.386 . S
C5140 H5158 0.931 . S
C5141 C5139 1.365 . S
C5141 C5142 1.409 . S
C5141 H5159 0.929 . S
C5142 C5141 1.409 . S
C5142 C5143 1.380 . S
C5142 H5160 0.930 . S
C5143 C5142 1.380 . S
C5143 C5150 1.357 . S
C5144 C5135 1.511 . S
C5144 C5145 1.341 . S
C5144 C5146 1.371 . S
C5145 C5144 1.341 . S
C5145 C5149 1.394 . S
C5145 H5161 0.930 . S
C5146 C5144 1.371 . S
C5146 C5147 1.392 . S
C5146 H5162 0.931 . S
C5147 C5146 1.392 . S
C5147 C5148 1.331 . S
C5147 H5165 0.932 . S
C5148 C5147 1.331 . S
C5148 C5149 1.336 . S
C5149 C5145 1.394 . S
C5149 C5148 1.336 . S
C5149 H5164 0.929 . S
C5150 C5140 1.386 . S
C5150 C5143 1.357 . S
C5150 H5163 0.928 . S
H5151 C5127 0.931 . S
H5152 C5129 0.930 . S
H5153 C5131 0.929 . S
H5154 C5132 0.931 . S
H5155 C5134 0.930 . S
H5156 C5138 0.931 . S
H5157 C5136 0.931 . S
H5158 C5140 0.931 . S
H5159 C5141 0.929 . S
H5160 C5142 0.930 . S
H5161 C5145 0.930 . S
H5162 C5146 0.931 . S
H5163 C5150 0.928 . S
H5164 C5149 0.929 . S
H5165 C5147 0.932 . S
C5166 C5167 1.386 . S
C5166 C5168 1.397 . S
C5166 H5190 0.931 . S
C5167 C5166 1.386 . S
C5167 C5171 1.397 . S
C5168 C5166 1.397 . S
C5168 C5169 1.384 . S
C5168 H5191 0.930 . S
C5169 C5168 1.384 . S
C5169 C5170 1.377 . S
C5169 C5172 1.481 . S
C5170 C5169 1.377 . S
C5170 C5171 1.389 . S
C5170 H5192 0.929 . S
C5171 C5167 1.397 . S
C5171 C5170 1.389 . S
C5171 H5193 0.931 . S
C5172 C5169 1.481 . S
C5172 C5173 1.387 . S
C5172 C5177 1.390 . S
C5173 C5172 1.387 . S
C5173 C5174 1.401 . S
C5173 H5194 0.930 . S
C5174 C5173 1.401 . S
C5174 C5175 1.376 . S
C5174 C5183 1.511 . S
C5175 C5174 1.376 . S
C5175 C5176 1.392 . S
C5175 H5196 0.931 . S
C5176 C5175 1.392 . S
C5176 C5177 1.361 . S
C5176 C5178 1.500 . S
C5177 C5172 1.390 . S
C5177 C5176 1.361 . S
C5177 H5195 0.931 . S
C5178 C5176 1.500 . S
C5178 C5179 1.371 . S
C5178 C5180 1.365 . S
C5179 C5178 1.371 . S
C5179 C5189 1.386 . S
C5179 H5197 0.931 . S
C5180 C5178 1.365 . S
C5180 C5181 1.409 . S
C5180 H5198 0.929 . S
C5181 C5180 1.409 . S
C5181 C5182 1.380 . S
C5181 H5199 0.930 . S
C5182 C5181 1.380 . S
C5182 C5189 1.357 . S
C5183 C5174 1.511 . S
C5183 C5184 1.341 . S
C5183 C5185 1.371 . S
C5184 C5183 1.341 . S
C5184 C5188 1.394 . S
C5184 H5200 0.930 . S
C5185 C5183 1.371 . S
C5185 C5186 1.392 . S
C5185 H5201 0.931 . S
C5186 C5185 1.392 . S
C5186 C5187 1.331 . S
C5186 H5204 0.932 . S
C5187 C5186 1.331 . S
C5187 C5188 1.336 . S
C5188 C5184 1.394 . S
C5188 C5187 1.336 . S
C5188 H5203 0.929 . S
C5189 C5179 1.386 . S
C5189 C5182 1.357 . S
C5189 H5202 0.928 . S
H5190 C5166 0.931 . S
H5191 C5168 0.930 . S
H5192 C5170 0.929 . S
H5193 C5171 0.931 . S
H5194 C5173 0.930 . S
H5195 C5177 0.931 . S
H5196 C5175 0.931 . S
H5197 C5179 0.931 . S
H5198 C5180 0.929 . S
H5199 C5181 0.930 . S
H5200 C5184 0.930 . S
H5201 C5185 0.931 . S
H5202 C5189 0.928 . S
H5203 C5188 0.929 . S
H5204 C5186 0.932 . S
C5205 C5206 1.386 . S
C5205 C5207 1.397 . S
C5205 H5229 0.931 . S
C5206 C5205 1.386 . S
C5206 C5210 1.397 . S
C5207 C5205 1.397 . S
C5207 C5208 1.384 . S
C5207 H5230 0.930 . S
C5208 C5207 1.384 . S
C5208 C5209 1.377 . S
C5208 C5211 1.481 . S
C5209 C5208 1.377 . S
C5209 C5210 1.389 . S
C5209 H5231 0.929 . S
C5210 C5206 1.397 . S
C5210 C5209 1.389 . S
C5210 H5232 0.931 . S
C5211 C5208 1.481 . S
C5211 C5212 1.387 . S
C5211 C5216 1.390 . S
C5212 C5211 1.387 . S
C5212 C5213 1.401 . S
C5212 H5233 0.930 . S
C5213 C5212 1.401 . S
C5213 C5214 1.376 . S
C5213 C5222 1.511 . S
C5214 C5213 1.376 . S
C5214 C5215 1.392 . S
C5214 H5235 0.931 . S
C5215 C5214 1.392 . S
C5215 C5216 1.361 . S
C5215 C5217 1.500 . S
C5216 C5211 1.390 . S
C5216 C5215 1.361 . S
C5216 H5234 0.931 . S
C5217 C5215 1.500 . S
C5217 C5218 1.371 . S
C5217 C5219 1.365 . S
C5218 C5217 1.371 . S
C5218 C5228 1.386 . S
C5218 H5236 0.931 . S
C5219 C5217 1.365 . S
C5219 C5220 1.409 . S
C5219 H5237 0.929 . S
C5220 C5219 1.409 . S
C5220 C5221 1.380 . S
C5220 H5238 0.930 . S
C5221 C5220 1.380 . S
C5221 C5228 1.357 . S
C5222 C5213 1.511 . S
C5222 C5223 1.341 . S
C5222 C5224 1.371 . S
C5223 C5222 1.341 . S
C5223 C5227 1.394 . S
C5223 H5239 0.930 . S
C5224 C5222 1.371 . S
C5224 C5225 1.392 . S
C5224 H5240 0.931 . S
C5225 C5224 1.392 . S
C5225 C5226 1.307 1_554 S
C5225 H5243 0.932 . S
C5226 C5225 1.307 1_556 S
C5226 C5227 1.325 1_556 S
C5227 C5223 1.394 . S
C5227 C5226 1.325 1_554 S
C5227 H5242 0.929 1_554 S
C5228 C5218 1.386 . S
C5228 C5221 1.357 . S
C5228 H5241 0.928 . S
H5229 C5205 0.931 . S
H5230 C5207 0.930 . S
H5231 C5209 0.929 . S
H5232 C5210 0.931 . S
H5233 C5212 0.930 . S
H5234 C5216 0.931 . S
H5235 C5214 0.931 . S
H5236 C5218 0.931 . S
H5237 C5219 0.929 . S
H5238 C5220 0.930 . S
H5239 C5223 0.930 . S
H5240 C5224 0.931 . S
H5241 C5228 0.928 . S
H5242 C5227 0.929 1_556 S
H5243 C5225 0.932 . S
C5244 C5245 1.386 . S
C5244 C5246 1.397 . S
C5244 H5268 0.931 . S
C5245 C5244 1.386 . S
C5245 C5249 1.397 . S
C5246 C5244 1.397 . S
C5246 C5247 1.384 . S
C5246 H5269 0.930 . S
C5247 C5246 1.384 . S
C5247 C5248 1.377 . S
C5247 C5250 1.481 . S
C5248 C5247 1.377 . S
C5248 C5249 1.389 . S
C5248 H5270 0.929 . S
C5249 C5245 1.397 . S
C5249 C5248 1.389 . S
C5249 H5271 0.931 . S
C5250 C5247 1.481 . S
C5250 C5251 1.387 . S
C5250 C5255 1.390 . S
C5251 C5250 1.387 . S
C5251 C5252 1.401 . S
C5251 H5272 0.930 . S
C5252 C5251 1.401 . S
C5252 C5253 1.376 . S
C5252 C5261 1.511 . S
C5253 C5252 1.376 . S
C5253 C5254 1.392 . S
C5253 H5274 0.931 . S
C5254 C5253 1.392 . S
C5254 C5255 1.361 . S
C5254 C5256 1.500 . S
C5255 C5250 1.390 . S
C5255 C5254 1.361 . S
C5255 H5273 0.931 . S
C5256 C5254 1.500 . S
C5256 C5257 1.371 . S
C5256 C5258 1.365 . S
C5257 C5256 1.371 . S
C5257 C5267 1.386 . S
C5257 H5275 0.931 . S
C5258 C5256 1.365 . S
C5258 C5259 1.409 . S
C5258 H5276 0.929 . S
C5259 C5258 1.409 . S
C5259 C5260 1.380 . S
C5259 H5277 0.930 . S
C5260 C5259 1.380 . S
C5260 C5267 1.357 . S
C5261 C5252 1.511 . S
C5261 C5262 1.341 . S
C5261 C5263 1.371 . S
C5262 C5261 1.341 . S
C5262 C5266 1.394 . S
C5262 H5278 0.930 . S
C5263 C5261 1.371 . S
C5263 C5264 1.392 . S
C5263 H5279 0.931 . S
C5264 C5263 1.392 . S
C5264 C5265 1.331 . S
C5264 H5282 0.932 . S
C5265 C5264 1.331 . S
C5265 C5266 1.336 . S
C5266 C5262 1.394 . S
C5266 C5265 1.336 . S
C5266 H5281 0.929 . S
C5267 C5257 1.386 . S
C5267 C5260 1.357 . S
C5267 H5280 0.928 . S
H5268 C5244 0.931 . S
H5269 C5246 0.930 . S
H5270 C5248 0.929 . S
H5271 C5249 0.931 . S
H5272 C5251 0.930 . S
H5273 C5255 0.931 . S
H5274 C5253 0.931 . S
H5275 C5257 0.931 . S
H5276 C5258 0.929 . S
H5277 C5259 0.930 . S
H5278 C5262 0.930 . S
H5279 C5263 0.931 . S
H5280 C5267 0.928 . S
H5281 C5266 0.929 . S
H5282 C5264 0.932 . S
C5283 C5284 1.386 . S
C5283 C5285 1.397 . S
C5283 H5307 0.931 . S
C5284 C5283 1.386 . S
C5284 C5288 1.397 . S
C5285 C5283 1.397 . S
C5285 C5286 1.384 . S
C5285 H5308 0.930 . S
C5286 C5285 1.384 . S
C5286 C5287 1.377 . S
C5286 C5289 1.481 . S
C5287 C5286 1.377 . S
C5287 C5288 1.389 . S
C5287 H5309 0.929 . S
C5288 C5284 1.397 . S
C5288 C5287 1.389 . S
C5288 H5310 0.931 . S
C5289 C5286 1.481 . S
C5289 C5290 1.387 . S
C5289 C5294 1.390 . S
C5290 C5289 1.387 . S
C5290 C5291 1.401 . S
C5290 H5311 0.930 . S
C5291 C5290 1.401 . S
C5291 C5292 1.376 . S
C5291 C5300 1.511 . S
C5292 C5291 1.376 . S
C5292 C5293 1.392 . S
C5292 H5313 0.931 . S
C5293 C5292 1.392 . S
C5293 C5294 1.361 . S
C5293 C5295 1.500 . S
C5294 C5289 1.390 . S
C5294 C5293 1.361 . S
C5294 H5312 0.931 . S
C5295 C5293 1.500 . S
C5295 C5296 1.371 . S
C5295 C5297 1.365 . S
C5296 C5295 1.371 . S
C5296 C5306 1.386 . S
C5296 H5314 0.931 . S
C5297 C5295 1.365 . S
C5297 C5298 1.409 . S
C5297 H5315 0.929 . S
C5298 C5297 1.409 . S
C5298 C5299 1.380 . S
C5298 H5316 0.930 . S
C5299 C5298 1.380 . S
C5299 C5306 1.357 . S
C5300 C5291 1.511 . S
C5300 C5301 1.341 . S
C5300 C5302 1.371 . S
C5301 C5300 1.341 . S
C5301 C5305 1.394 . S
C5301 H5317 0.930 . S
C5302 C5300 1.371 . S
C5302 C5303 1.392 . S
C5302 H5318 0.931 . S
C5303 C5302 1.392 . S
C5303 C5304 1.331 . S
C5303 H5321 0.932 . S
C5304 C5303 1.331 . S
C5304 C5305 1.336 . S
C5305 C5301 1.394 . S
C5305 C5304 1.336 . S
C5305 H5320 0.929 . S
C5306 C5296 1.386 . S
C5306 C5299 1.357 . S
C5306 H5319 0.928 . S
H5307 C5283 0.931 . S
H5308 C5285 0.930 . S
H5309 C5287 0.929 . S
H5310 C5288 0.931 . S
H5311 C5290 0.930 . S
H5312 C5294 0.931 . S
H5313 C5292 0.931 . S
H5314 C5296 0.931 . S
H5315 C5297 0.929 . S
H5316 C5298 0.930 . S
H5317 C5301 0.930 . S
H5318 C5302 0.931 . S
H5319 C5306 0.928 . S
H5320 C5305 0.929 . S
H5321 C5303 0.932 . S
C5322 C5323 1.386 . S
C5322 C5324 1.397 . S
C5322 H5346 0.931 . S
C5323 C5322 1.386 . S
C5323 C5327 1.397 . S
C5324 C5322 1.397 . S
C5324 C5325 1.384 . S
C5324 H5347 0.930 . S
C5325 C5324 1.384 . S
C5325 C5326 1.377 . S
C5325 C5328 1.481 . S
C5326 C5325 1.377 . S
C5326 C5327 1.389 . S
C5326 H5348 0.929 . S
C5327 C5323 1.397 . S
C5327 C5326 1.389 . S
C5327 H5349 0.931 . S
C5328 C5325 1.481 . S
C5328 C5329 1.387 . S
C5328 C5333 1.390 . S
C5329 C5328 1.387 . S
C5329 C5330 1.401 . S
C5329 H5350 0.930 . S
C5330 C5329 1.401 . S
C5330 C5331 1.376 . S
C5330 C5339 1.511 . S
C5331 C5330 1.376 . S
C5331 C5332 1.392 . S
C5331 H5352 0.931 . S
C5332 C5331 1.392 . S
C5332 C5333 1.361 . S
C5332 C5334 1.500 . S
C5333 C5328 1.390 . S
C5333 C5332 1.361 . S
C5333 H5351 0.931 . S
C5334 C5332 1.500 . S
C5334 C5335 1.371 . S
C5334 C5336 1.365 . S
C5335 C5334 1.371 . S
C5335 C5345 1.386 . S
C5335 H5353 0.931 . S
C5336 C5334 1.365 . S
C5336 C5337 1.409 . S
C5336 H5354 0.929 . S
C5337 C5336 1.409 . S
C5337 C5338 1.380 . S
C5337 H5355 0.930 . S
C5338 C5337 1.380 . S
C5338 C5345 1.357 . S
C5339 C5330 1.511 . S
C5339 C5340 1.341 . S
C5339 C5341 1.371 . S
C5340 C5339 1.341 . S
C5340 C5344 1.394 . S
C5340 H5356 0.930 . S
C5341 C5339 1.371 . S
C5341 C5342 1.392 . S
C5341 H5357 0.931 . S
C5342 C5341 1.392 . S
C5342 C5343 1.331 . S
C5342 H5360 0.932 . S
C5343 C5342 1.331 . S
C5343 C5344 1.336 . S
C5344 C5340 1.394 . S
C5344 C5343 1.336 . S
C5344 H5359 0.929 . S
C5345 C5335 1.386 . S
C5345 C5338 1.357 . S
C5345 H5358 0.928 . S
H5346 C5322 0.931 . S
H5347 C5324 0.930 . S
H5348 C5326 0.929 . S
H5349 C5327 0.931 . S
H5350 C5329 0.930 . S
H5351 C5333 0.931 . S
H5352 C5331 0.931 . S
H5353 C5335 0.931 . S
H5354 C5336 0.929 . S
H5355 C5337 0.930 . S
H5356 C5340 0.930 . S
H5357 C5341 0.931 . S
H5358 C5345 0.928 . S
H5359 C5344 0.929 . S
H5360 C5342 0.932 . S
C5361 C5362 1.386 . S
C5361 C5363 1.397 . S
C5361 H5385 0.931 . S
C5362 C5361 1.386 . S
C5362 C5366 1.397 . S
C5363 C5361 1.397 . S
C5363 C5364 1.384 . S
C5363 H5386 0.930 . S
C5364 C5363 1.384 . S
C5364 C5365 1.377 . S
C5364 C5367 1.481 . S
C5365 C5364 1.377 . S
C5365 C5366 1.389 . S
C5365 H5387 0.929 . S
C5366 C5362 1.397 . S
C5366 C5365 1.389 . S
C5366 H5388 0.931 . S
C5367 C5364 1.481 . S
C5367 C5368 1.387 . S
C5367 C5372 1.390 . S
C5368 C5367 1.387 . S
C5368 C5369 1.401 . S
C5368 H5389 0.930 . S
C5369 C5368 1.401 . S
C5369 C5370 1.376 . S
C5369 C5378 1.511 . S
C5370 C5369 1.376 . S
C5370 C5371 1.392 . S
C5370 H5391 0.931 . S
C5371 C5370 1.392 . S
C5371 C5372 1.361 . S
C5371 C5373 1.500 . S
C5372 C5367 1.390 . S
C5372 C5371 1.361 . S
C5372 H5390 0.931 . S
C5373 C5371 1.500 . S
C5373 C5374 1.371 . S
C5373 C5375 1.365 . S
C5374 C5373 1.371 . S
C5374 C5384 1.386 . S
C5374 H5392 0.931 . S
C5375 C5373 1.365 . S
C5375 C5376 1.409 . S
C5375 H5393 0.929 . S
C5376 C5375 1.409 . S
C5376 C5377 1.380 . S
C5376 H5394 0.930 . S
C5377 C5376 1.380 . S
C5377 C5384 1.357 . S
C5378 C5369 1.511 . S
C5378 C5379 1.341 . S
C5378 C5380 1.371 . S
C5379 C5378 1.341 . S
C5379 C5383 1.394 . S
C5379 H5395 0.930 . S
C5380 C5378 1.371 . S
C5380 C5381 1.392 . S
C5380 H5396 0.931 . S
C5381 C5380 1.392 . S
C5381 C5382 1.315 1_556 S
C5381 H5399 0.932 1_556 S
C5382 C5381 1.315 1_554 S
C5382 C5383 1.300 1_554 S
C5383 C5379 1.394 . S
C5383 C5382 1.300 1_556 S
C5383 H5398 0.929 . S
C5384 C5374 1.386 . S
C5384 C5377 1.357 . S
C5384 H5397 0.928 . S
H5385 C5361 0.931 . S
H5386 C5363 0.930 . S
H5387 C5365 0.929 . S
H5388 C5366 0.931 . S
H5389 C5368 0.930 . S
H5390 C5372 0.931 . S
H5391 C5370 0.931 . S
H5392 C5374 0.931 . S
H5393 C5375 0.929 . S
H5394 C5376 0.930 . S
H5395 C5379 0.930 . S
H5396 C5380 0.931 . S
H5397 C5384 0.928 . S
H5398 C5383 0.929 . S
H5399 C5381 0.932 1_554 S
C5400 C5401 1.386 . S
C5400 C5402 1.397 . S
C5400 H5424 0.931 . S
C5401 C5400 1.386 . S
C5401 C5405 1.397 . S
C5402 C5400 1.397 . S
C5402 C5403 1.384 . S
C5402 H5425 0.930 . S
C5403 C5402 1.384 . S
C5403 C5404 1.377 . S
C5403 C5406 1.481 . S
C5404 C5403 1.377 . S
C5404 C5405 1.389 . S
C5404 H5426 0.929 . S
C5405 C5401 1.397 . S
C5405 C5404 1.389 . S
C5405 H5427 0.931 . S
C5406 C5403 1.481 . S
C5406 C5407 1.387 . S
C5406 C5411 1.390 . S
C5407 C5406 1.387 . S
C5407 C5408 1.401 . S
C5407 H5428 0.930 . S
C5408 C5407 1.401 . S
C5408 C5409 1.376 . S
C5408 C5417 1.511 . S
C5409 C5408 1.376 . S
C5409 C5410 1.392 . S
C5409 H5430 0.931 . S
C5410 C5409 1.392 . S
C5410 C5411 1.361 . S
C5410 C5412 1.500 . S
C5411 C5406 1.390 . S
C5411 C5410 1.361 . S
C5411 H5429 0.931 . S
C5412 C5410 1.500 . S
C5412 C5413 1.371 . S
C5412 C5414 1.365 . S
C5413 C5412 1.371 . S
C5413 C5423 1.386 . S
C5413 H5431 0.931 . S
C5414 C5412 1.365 . S
C5414 C5415 1.409 . S
C5414 H5432 0.929 . S
C5415 C5414 1.409 . S
C5415 C5416 1.380 . S
C5415 H5433 0.930 . S
C5416 C5415 1.380 . S
C5416 C5423 1.357 . S
C5417 C5408 1.511 . S
C5417 C5418 1.341 . S
C5417 C5419 1.371 . S
C5418 C5417 1.341 . S
C5418 C5422 1.394 . S
C5418 H5434 0.930 . S
C5419 C5417 1.371 . S
C5419 C5420 1.392 . S
C5419 H5435 0.931 . S
C5420 C5419 1.392 . S
C5420 C5421 1.331 . S
C5420 H5438 0.932 . S
C5421 C5420 1.331 . S
C5421 C5422 1.336 . S
C5422 C5418 1.394 . S
C5422 C5421 1.336 . S
C5422 H5437 0.929 . S
C5423 C5413 1.386 . S
C5423 C5416 1.357 . S
C5423 H5436 0.928 . S
H5424 C5400 0.931 . S
H5425 C5402 0.930 . S
H5426 C5404 0.929 . S
H5427 C5405 0.931 . S
H5428 C5407 0.930 . S
H5429 C5411 0.931 . S
H5430 C5409 0.931 . S
H5431 C5413 0.931 . S
H5432 C5414 0.929 . S
H5433 C5415 0.930 . S
H5434 C5418 0.930 . S
H5435 C5419 0.931 . S
H5436 C5423 0.928 . S
H5437 C5422 0.929 . S
H5438 C5420 0.932 . S
C5439 C5440 1.386 . S
C5439 C5441 1.397 . S
C5439 H5463 0.931 . S
C5440 C5439 1.386 . S
C5440 C5444 1.397 . S
C5441 C5439 1.397 . S
C5441 C5442 1.384 . S
C5441 H5464 0.930 . S
C5442 C5441 1.384 . S
C5442 C5443 1.377 . S
C5442 C5445 1.481 . S
C5443 C5442 1.377 . S
C5443 C5444 1.389 . S
C5443 H5465 0.929 . S
C5444 C5440 1.397 . S
C5444 C5443 1.389 . S
C5444 H5466 0.931 . S
C5445 C5442 1.481 . S
C5445 C5446 1.387 . S
C5445 C5450 1.390 . S
C5446 C5445 1.387 . S
C5446 C5447 1.401 . S
C5446 H5467 0.930 . S
C5447 C5446 1.401 . S
C5447 C5448 1.376 . S
C5447 C5456 1.511 . S
C5448 C5447 1.376 . S
C5448 C5449 1.392 . S
C5448 H5469 0.931 . S
C5449 C5448 1.392 . S
C5449 C5450 1.361 . S
C5449 C5451 1.500 . S
C5450 C5445 1.390 . S
C5450 C5449 1.361 . S
C5450 H5468 0.931 . S
C5451 C5449 1.500 . S
C5451 C5452 1.371 . S
C5451 C5453 1.365 . S
C5452 C5451 1.371 . S
C5452 C5462 1.386 . S
C5452 H5470 0.931 . S
C5453 C5451 1.365 . S
C5453 C5454 1.409 . S
C5453 H5471 0.929 . S
C5454 C5453 1.409 . S
C5454 C5455 1.380 . S
C5454 H5472 0.930 . S
C5455 C5454 1.380 . S
C5455 C5462 1.357 . S
C5456 C5447 1.511 . S
C5456 C5457 1.341 . S
C5456 C5458 1.371 . S
C5457 C5456 1.341 . S
C5457 C5461 1.394 . S
C5457 H5473 0.930 . S
C5458 C5456 1.371 . S
C5458 C5459 1.392 . S
C5458 H5474 0.931 . S
C5459 C5458 1.392 . S
C5459 C5460 1.331 . S
C5459 H5477 0.932 . S
C5460 C5459 1.331 . S
C5460 C5461 1.336 . S
C5461 C5457 1.394 . S
C5461 C5460 1.336 . S
C5461 H5476 0.929 . S
C5462 C5452 1.386 . S
C5462 C5455 1.357 . S
C5462 H5475 0.928 . S
H5463 C5439 0.931 . S
H5464 C5441 0.930 . S
H5465 C5443 0.929 . S
H5466 C5444 0.931 . S
H5467 C5446 0.930 . S
H5468 C5450 0.931 . S
H5469 C5448 0.931 . S
H5470 C5452 0.931 . S
H5471 C5453 0.929 . S
H5472 C5454 0.930 . S
H5473 C5457 0.930 . S
H5474 C5458 0.931 . S
H5475 C5462 0.928 . S
H5476 C5461 0.929 . S
H5477 C5459 0.932 . S
C5478 C5479 1.386 . S
C5478 C5480 1.397 . S
C5478 H5502 0.931 . S
C5479 C5478 1.386 . S
C5479 C5483 1.397 . S
C5480 C5478 1.397 . S
C5480 C5481 1.384 . S
C5480 H5503 0.930 . S
C5481 C5480 1.384 . S
C5481 C5482 1.377 . S
C5481 C5484 1.481 . S
C5482 C5481 1.377 . S
C5482 C5483 1.389 . S
C5482 H5504 0.929 . S
C5483 C5479 1.397 . S
C5483 C5482 1.389 . S
C5483 H5505 0.931 . S
C5484 C5481 1.481 . S
C5484 C5485 1.387 . S
C5484 C5489 1.390 . S
C5485 C5484 1.387 . S
C5485 C5486 1.401 . S
C5485 H5506 0.930 . S
C5486 C5485 1.401 . S
C5486 C5487 1.376 . S
C5486 C5495 1.511 . S
C5487 C5486 1.376 . S
C5487 C5488 1.392 . S
C5487 H5508 0.931 . S
C5488 C5487 1.392 . S
C5488 C5489 1.361 . S
C5488 C5490 1.500 . S
C5489 C5484 1.390 . S
C5489 C5488 1.361 . S
C5489 H5507 0.931 . S
C5490 C5488 1.500 . S
C5490 C5491 1.371 . S
C5490 C5492 1.365 . S
C5491 C5490 1.371 . S
C5491 C5501 1.386 . S
C5491 H5509 0.931 . S
C5492 C5490 1.365 . S
C5492 C5493 1.409 . S
C5492 H5510 0.929 . S
C5493 C5492 1.409 . S
C5493 C5494 1.380 . S
C5493 H5511 0.930 . S
C5494 C5493 1.380 . S
C5494 C5501 1.357 . S
C5495 C5486 1.511 . S
C5495 C5496 1.341 . S
C5495 C5497 1.371 . S
C5496 C5495 1.341 . S
C5496 C5500 1.394 . S
C5496 H5512 0.930 . S
C5497 C5495 1.371 . S
C5497 C5498 1.392 . S
C5497 H5513 0.931 . S
C5498 C5497 1.392 . S
C5498 C5499 1.331 . S
C5498 H5516 0.932 . S
C5499 C5498 1.331 . S
C5499 C5500 1.336 . S
C5500 C5496 1.394 . S
C5500 C5499 1.336 . S
C5500 H5515 0.929 . S
C5501 C5491 1.386 . S
C5501 C5494 1.357 . S
C5501 H5514 0.928 . S
H5502 C5478 0.931 . S
H5503 C5480 0.930 . S
H5504 C5482 0.929 . S
H5505 C5483 0.931 . S
H5506 C5485 0.930 . S
H5507 C5489 0.931 . S
H5508 C5487 0.931 . S
H5509 C5491 0.931 . S
H5510 C5492 0.929 . S
H5511 C5493 0.930 . S
H5512 C5496 0.930 . S
H5513 C5497 0.931 . S
H5514 C5501 0.928 . S
H5515 C5500 0.929 . S
H5516 C5498 0.932 . S
C5517 C5518 1.386 . S
C5517 C5519 1.397 . S
C5517 H5541 0.931 . S
C5518 C5517 1.386 . S
C5518 C5522 1.397 . S
C5519 C5517 1.397 . S
C5519 C5520 1.384 . S
C5519 H5542 0.930 . S
C5520 C5519 1.384 . S
C5520 C5521 1.377 . S
C5520 C5523 1.481 . S
C5521 C5520 1.377 . S
C5521 C5522 1.389 . S
C5521 H5543 0.929 . S
C5522 C5518 1.397 . S
C5522 C5521 1.389 . S
C5522 H5544 0.931 . S
C5523 C5520 1.481 . S
C5523 C5524 1.387 . S
C5523 C5528 1.390 . S
C5524 C5523 1.387 . S
C5524 C5525 1.401 . S
C5524 H5545 0.930 . S
C5525 C5524 1.401 . S
C5525 C5526 1.376 . S
C5525 C5534 1.511 . S
C5526 C5525 1.376 . S
C5526 C5527 1.392 . S
C5526 H5547 0.931 . S
C5527 C5526 1.392 . S
C5527 C5528 1.361 . S
C5527 C5529 1.500 . S
C5528 C5523 1.390 . S
C5528 C5527 1.361 . S
C5528 H5546 0.931 . S
C5529 C5527 1.500 . S
C5529 C5530 1.371 . S
C5529 C5531 1.365 . S
C5530 C5529 1.371 . S
C5530 C5540 1.386 . S
C5530 H5548 0.931 . S
C5531 C5529 1.365 . S
C5531 C5532 1.409 . S
C5531 H5549 0.929 . S
C5532 C5531 1.409 . S
C5532 C5533 1.380 . S
C5532 H5550 0.930 . S
C5533 C5532 1.380 . S
C5533 C5540 1.357 . S
C5534 C5525 1.511 . S
C5534 C5535 1.341 . S
C5534 C5536 1.371 . S
C5535 C5534 1.341 . S
C5535 C5539 1.394 . S
C5535 H5551 0.930 . S
C5536 C5534 1.371 . S
C5536 C5537 1.392 . S
C5536 H5552 0.931 . S
C5537 C5536 1.392 . S
C5537 C5538 1.331 . S
C5537 H5555 0.932 . S
C5538 C5537 1.331 . S
C5538 C5539 1.336 . S
C5539 C5535 1.394 . S
C5539 C5538 1.336 . S
C5539 H5554 0.929 . S
C5540 C5530 1.386 . S
C5540 C5533 1.357 . S
C5540 H5553 0.928 . S
H5541 C5517 0.931 . S
H5542 C5519 0.930 . S
H5543 C5521 0.929 . S
H5544 C5522 0.931 . S
H5545 C5524 0.930 . S
H5546 C5528 0.931 . S
H5547 C5526 0.931 . S
H5548 C5530 0.931 . S
H5549 C5531 0.929 . S
H5550 C5532 0.930 . S
H5551 C5535 0.930 . S
H5552 C5536 0.931 . S
H5553 C5540 0.928 . S
H5554 C5539 0.929 . S
H5555 C5537 0.932 . S
C5556 C5557 1.386 . S
C5556 C5558 1.397 . S
C5556 H5580 0.931 . S
C5557 C5556 1.386 . S
C5557 C5561 1.397 . S
C5558 C5556 1.397 . S
C5558 C5559 1.384 . S
C5558 H5581 0.930 . S
C5559 C5558 1.384 . S
C5559 C5560 1.377 . S
C5559 C5562 1.481 . S
C5560 C5559 1.377 . S
C5560 C5561 1.389 . S
C5560 H5582 0.929 . S
C5561 C5557 1.397 . S
C5561 C5560 1.389 . S
C5561 H5583 0.931 . S
C5562 C5559 1.481 . S
C5562 C5563 1.387 . S
C5562 C5567 1.390 . S
C5563 C5562 1.387 . S
C5563 C5564 1.401 . S
C5563 H5584 0.930 . S
C5564 C5563 1.401 . S
C5564 C5565 1.376 . S
C5564 C5573 1.511 . S
C5565 C5564 1.376 . S
C5565 C5566 1.392 . S
C5565 H5586 0.931 . S
C5566 C5565 1.392 . S
C5566 C5567 1.361 . S
C5566 C5568 1.500 . S
C5567 C5562 1.390 . S
C5567 C5566 1.361 . S
C5567 H5585 0.931 . S
C5568 C5566 1.500 . S
C5568 C5569 1.371 . S
C5568 C5570 1.365 . S
C5569 C5568 1.371 . S
C5569 C5579 1.386 . S
C5569 H5587 0.931 . S
C5570 C5568 1.365 . S
C5570 C5571 1.409 . S
C5570 H5588 0.929 . S
C5571 C5570 1.409 . S
C5571 C5572 1.380 . S
C5571 H5589 0.930 . S
C5572 C5571 1.380 . S
C5572 C5579 1.357 . S
C5573 C5564 1.511 . S
C5573 C5574 1.341 . S
C5573 C5575 1.371 . S
C5574 C5573 1.341 . S
C5574 C5578 1.394 . S
C5574 H5590 0.930 . S
C5575 C5573 1.371 . S
C5575 C5576 1.392 . S
C5575 H5591 0.931 . S
C5576 C5575 1.392 . S
C5576 C5577 1.325 1_565 S
C5576 H5594 0.932 1_565 S
C5577 C5576 1.325 1_545 S
C5577 C5578 1.324 1_545 S
C5578 C5574 1.394 . S
C5578 C5577 1.324 1_565 S
C5578 H5593 0.929 . S
C5579 C5569 1.386 . S
C5579 C5572 1.357 . S
C5579 H5592 0.928 . S
H5580 C5556 0.931 . S
H5581 C5558 0.930 . S
H5582 C5560 0.929 . S
H5583 C5561 0.931 . S
H5584 C5563 0.930 . S
H5585 C5567 0.931 . S
H5586 C5565 0.931 . S
H5587 C5569 0.931 . S
H5588 C5570 0.929 . S
H5589 C5571 0.930 . S
H5590 C5574 0.930 . S
H5591 C5575 0.931 . S
H5592 C5579 0.928 . S
H5593 C5578 0.929 . S
H5594 C5576 0.932 1_545 S
C5595 C5596 1.386 . S
C5595 C5597 1.397 . S
C5595 H5619 0.931 . S
C5596 C5595 1.386 . S
C5596 C5600 1.397 . S
C5597 C5595 1.397 . S
C5597 C5598 1.384 . S
C5597 H5620 0.930 . S
C5598 C5597 1.384 . S
C5598 C5599 1.377 . S
C5598 C5601 1.481 . S
C5599 C5598 1.377 . S
C5599 C5600 1.389 . S
C5599 H5621 0.929 . S
C5600 C5596 1.397 . S
C5600 C5599 1.389 . S
C5600 H5622 0.931 . S
C5601 C5598 1.481 . S
C5601 C5602 1.387 . S
C5601 C5606 1.390 . S
C5602 C5601 1.387 . S
C5602 C5603 1.401 . S
C5602 H5623 0.930 . S
C5603 C5602 1.401 . S
C5603 C5604 1.376 . S
C5603 C5612 1.511 . S
C5604 C5603 1.376 . S
C5604 C5605 1.392 . S
C5604 H5625 0.931 . S
C5605 C5604 1.392 . S
C5605 C5606 1.361 . S
C5605 C5607 1.500 . S
C5606 C5601 1.390 . S
C5606 C5605 1.361 . S
C5606 H5624 0.931 . S
C5607 C5605 1.500 . S
C5607 C5608 1.371 . S
C5607 C5609 1.365 . S
C5608 C5607 1.371 . S
C5608 C5618 1.386 . S
C5608 H5626 0.931 . S
C5609 C5607 1.365 . S
C5609 C5610 1.409 . S
C5609 H5627 0.929 . S
C5610 C5609 1.409 . S
C5610 C5611 1.380 . S
C5610 H5628 0.930 . S
C5611 C5610 1.380 . S
C5611 C5618 1.357 . S
C5612 C5603 1.511 . S
C5612 C5613 1.341 . S
C5612 C5614 1.371 . S
C5613 C5612 1.341 . S
C5613 C5617 1.394 . S
C5613 H5629 0.930 . S
C5614 C5612 1.371 . S
C5614 C5615 1.392 . S
C5614 H5630 0.931 . S
C5615 C5614 1.392 . S
C5615 C5616 1.331 . S
C5615 H5633 0.932 . S
C5616 C5615 1.331 . S
C5616 C5617 1.336 . S
C5617 C5613 1.394 . S
C5617 C5616 1.336 . S
C5617 H5632 0.929 . S
C5618 C5608 1.386 . S
C5618 C5611 1.357 . S
C5618 H5631 0.928 . S
H5619 C5595 0.931 . S
H5620 C5597 0.930 . S
H5621 C5599 0.929 . S
H5622 C5600 0.931 . S
H5623 C5602 0.930 . S
H5624 C5606 0.931 . S
H5625 C5604 0.931 . S
H5626 C5608 0.931 . S
H5627 C5609 0.929 . S
H5628 C5610 0.930 . S
H5629 C5613 0.930 . S
H5630 C5614 0.931 . S
H5631 C5618 0.928 . S
H5632 C5617 0.929 . S
H5633 C5615 0.932 . S
C5634 C5635 1.386 . S
C5634 C5636 1.397 . S
C5634 H5658 0.931 . S
C5635 C5634 1.386 . S
C5635 C5639 1.397 . S
C5636 C5634 1.397 . S
C5636 C5637 1.384 . S
C5636 H5659 0.930 . S
C5637 C5636 1.384 . S
C5637 C5638 1.377 . S
C5637 C5640 1.481 . S
C5638 C5637 1.377 . S
C5638 C5639 1.389 . S
C5638 H5660 0.929 . S
C5639 C5635 1.397 . S
C5639 C5638 1.389 . S
C5639 H5661 0.931 . S
C5640 C5637 1.481 . S
C5640 C5641 1.387 . S
C5640 C5645 1.390 . S
C5641 C5640 1.387 . S
C5641 C5642 1.401 . S
C5641 H5662 0.930 . S
C5642 C5641 1.401 . S
C5642 C5643 1.376 . S
C5642 C5651 1.511 . S
C5643 C5642 1.376 . S
C5643 C5644 1.392 . S
C5643 H5664 0.931 . S
C5644 C5643 1.392 . S
C5644 C5645 1.361 . S
C5644 C5646 1.500 . S
C5645 C5640 1.390 . S
C5645 C5644 1.361 . S
C5645 H5663 0.931 . S
C5646 C5644 1.500 . S
C5646 C5647 1.371 . S
C5646 C5648 1.365 . S
C5647 C5646 1.371 . S
C5647 C5657 1.386 . S
C5647 H5665 0.931 . S
C5648 C5646 1.365 . S
C5648 C5649 1.409 . S
C5648 H5666 0.929 . S
C5649 C5648 1.409 . S
C5649 C5650 1.380 . S
C5649 H5667 0.930 . S
C5650 C5649 1.380 . S
C5650 C5657 1.357 . S
C5651 C5642 1.511 . S
C5651 C5652 1.341 . S
C5651 C5653 1.371 . S
C5652 C5651 1.341 . S
C5652 C5656 1.394 . S
C5652 H5668 0.930 . S
C5653 C5651 1.371 . S
C5653 C5654 1.392 . S
C5653 H5669 0.931 . S
C5654 C5653 1.392 . S
C5654 C5655 1.331 . S
C5654 H5672 0.932 . S
C5655 C5654 1.331 . S
C5655 C5656 1.336 . S
C5656 C5652 1.394 . S
C5656 C5655 1.336 . S
C5656 H5671 0.929 . S
C5657 C5647 1.386 . S
C5657 C5650 1.357 . S
C5657 H5670 0.928 . S
H5658 C5634 0.931 . S
H5659 C5636 0.930 . S
H5660 C5638 0.929 . S
H5661 C5639 0.931 . S
H5662 C5641 0.930 . S
H5663 C5645 0.931 . S
H5664 C5643 0.931 . S
H5665 C5647 0.931 . S
H5666 C5648 0.929 . S
H5667 C5649 0.930 . S
H5668 C5652 0.930 . S
H5669 C5653 0.931 . S
H5670 C5657 0.928 . S
H5671 C5656 0.929 . S
H5672 C5654 0.932 . S
C5673 C5674 1.386 . S
C5673 C5675 1.397 . S
C5673 H5697 0.931 . S
C5674 C5673 1.386 . S
C5674 C5678 1.397 . S
C5675 C5673 1.397 . S
C5675 C5676 1.384 . S
C5675 H5698 0.930 . S
C5676 C5675 1.384 . S
C5676 C5677 1.377 . S
C5676 C5679 1.481 . S
C5677 C5676 1.377 . S
C5677 C5678 1.389 . S
C5677 H5699 0.929 . S
C5678 C5674 1.397 . S
C5678 C5677 1.389 . S
C5678 H5700 0.931 . S
C5679 C5676 1.481 . S
C5679 C5680 1.387 . S
C5679 C5684 1.390 . S
C5680 C5679 1.387 . S
C5680 C5681 1.401 . S
C5680 H5701 0.930 . S
C5681 C5680 1.401 . S
C5681 C5682 1.376 . S
C5681 C5690 1.511 . S
C5682 C5681 1.376 . S
C5682 C5683 1.392 . S
C5682 H5703 0.931 . S
C5683 C5682 1.392 . S
C5683 C5684 1.361 . S
C5683 C5685 1.500 . S
C5684 C5679 1.390 . S
C5684 C5683 1.361 . S
C5684 H5702 0.931 . S
C5685 C5683 1.500 . S
C5685 C5686 1.371 . S
C5685 C5687 1.365 . S
C5686 C5685 1.371 . S
C5686 C5696 1.386 . S
C5686 H5704 0.931 . S
C5687 C5685 1.365 . S
C5687 C5688 1.409 . S
C5687 H5705 0.929 . S
C5688 C5687 1.409 . S
C5688 C5689 1.380 . S
C5688 H5706 0.930 . S
C5689 C5688 1.380 . S
C5689 C5696 1.357 . S
C5690 C5681 1.511 . S
C5690 C5691 1.341 . S
C5690 C5692 1.371 . S
C5691 C5690 1.341 . S
C5691 C5695 1.394 . S
C5691 H5707 0.930 . S
C5692 C5690 1.371 . S
C5692 C5693 1.392 . S
C5692 H5708 0.931 . S
C5693 C5692 1.392 . S
C5693 C5694 1.331 . S
C5693 H5711 0.932 . S
C5694 C5693 1.331 . S
C5694 C5695 1.336 . S
C5695 C5691 1.394 . S
C5695 C5694 1.336 . S
C5695 H5710 0.929 . S
C5696 C5686 1.386 . S
C5696 C5689 1.357 . S
C5696 H5709 0.928 . S
H5697 C5673 0.931 . S
H5698 C5675 0.930 . S
H5699 C5677 0.929 . S
H5700 C5678 0.931 . S
H5701 C5680 0.930 . S
H5702 C5684 0.931 . S
H5703 C5682 0.931 . S
H5704 C5686 0.931 . S
H5705 C5687 0.929 . S
H5706 C5688 0.930 . S
H5707 C5691 0.930 . S
H5708 C5692 0.931 . S
H5709 C5696 0.928 . S
H5710 C5695 0.929 . S
H5711 C5693 0.932 . S
C5712 C5713 1.386 . S
C5712 C5714 1.397 . S
C5712 H5736 0.931 . S
C5713 C5712 1.386 . S
C5713 C5717 1.397 . S
C5714 C5712 1.397 . S
C5714 C5715 1.384 . S
C5714 H5737 0.930 . S
C5715 C5714 1.384 . S
C5715 C5716 1.377 . S
C5715 C5718 1.481 . S
C5716 C5715 1.377 . S
C5716 C5717 1.389 . S
C5716 H5738 0.929 . S
C5717 C5713 1.397 . S
C5717 C5716 1.389 . S
C5717 H5739 0.931 . S
C5718 C5715 1.481 . S
C5718 C5719 1.387 . S
C5718 C5723 1.390 . S
C5719 C5718 1.387 . S
C5719 C5720 1.401 . S
C5719 H5740 0.930 . S
C5720 C5719 1.401 . S
C5720 C5721 1.376 . S
C5720 C5729 1.511 . S
C5721 C5720 1.376 . S
C5721 C5722 1.392 . S
C5721 H5742 0.931 . S
C5722 C5721 1.392 . S
C5722 C5723 1.361 . S
C5722 C5724 1.500 . S
C5723 C5718 1.390 . S
C5723 C5722 1.361 . S
C5723 H5741 0.931 . S
C5724 C5722 1.500 . S
C5724 C5725 1.371 . S
C5724 C5726 1.365 . S
C5725 C5724 1.371 . S
C5725 C5735 1.386 . S
C5725 H5743 0.931 . S
C5726 C5724 1.365 . S
C5726 C5727 1.409 . S
C5726 H5744 0.929 . S
C5727 C5726 1.409 . S
C5727 C5728 1.380 . S
C5727 H5745 0.930 . S
C5728 C5727 1.380 . S
C5728 C5735 1.357 . S
C5729 C5720 1.511 . S
C5729 C5730 1.341 . S
C5729 C5731 1.371 . S
C5730 C5729 1.341 . S
C5730 C5734 1.394 . S
C5730 H5746 0.930 . S
C5731 C5729 1.371 . S
C5731 C5732 1.392 . S
C5731 H5747 0.931 . S
C5732 C5731 1.392 . S
C5732 C5733 1.331 . S
C5732 H5750 0.932 . S
C5733 C5732 1.331 . S
C5733 C5734 1.336 . S
C5734 C5730 1.394 . S
C5734 C5733 1.336 . S
C5734 H5749 0.929 . S
C5735 C5725 1.386 . S
C5735 C5728 1.357 . S
C5735 H5748 0.928 . S
H5736 C5712 0.931 . S
H5737 C5714 0.930 . S
H5738 C5716 0.929 . S
H5739 C5717 0.931 . S
H5740 C5719 0.930 . S
H5741 C5723 0.931 . S
H5742 C5721 0.931 . S
H5743 C5725 0.931 . S
H5744 C5726 0.929 . S
H5745 C5727 0.930 . S
H5746 C5730 0.930 . S
H5747 C5731 0.931 . S
H5748 C5735 0.928 . S
H5749 C5734 0.929 . S
H5750 C5732 0.932 . S
C5751 C5752 1.386 . S
C5751 C5753 1.397 . S
C5751 H5775 0.931 . S
C5752 C5751 1.386 . S
C5752 C5756 1.397 . S
C5753 C5751 1.397 . S
C5753 C5754 1.384 . S
C5753 H5776 0.930 . S
C5754 C5753 1.384 . S
C5754 C5755 1.377 . S
C5754 C5757 1.481 . S
C5755 C5754 1.377 . S
C5755 C5756 1.389 . S
C5755 H5777 0.929 . S
C5756 C5752 1.397 . S
C5756 C5755 1.389 . S
C5756 H5778 0.931 . S
C5757 C5754 1.481 . S
C5757 C5758 1.387 . S
C5757 C5762 1.390 . S
C5758 C5757 1.387 . S
C5758 C5759 1.401 . S
C5758 H5779 0.930 . S
C5759 C5758 1.401 . S
C5759 C5760 1.376 . S
C5759 C5768 1.511 . S
C5760 C5759 1.376 . S
C5760 C5761 1.392 . S
C5760 H5781 0.931 . S
C5761 C5760 1.392 . S
C5761 C5762 1.361 . S
C5761 C5763 1.500 . S
C5762 C5757 1.390 . S
C5762 C5761 1.361 . S
C5762 H5780 0.931 . S
C5763 C5761 1.500 . S
C5763 C5764 1.371 . S
C5763 C5765 1.365 . S
C5764 C5763 1.371 . S
C5764 C5774 1.386 . S
C5764 H5782 0.931 . S
C5765 C5763 1.365 . S
C5765 C5766 1.409 . S
C5765 H5783 0.929 . S
C5766 C5765 1.409 . S
C5766 C5767 1.380 . S
C5766 H5784 0.930 . S
C5767 C5766 1.380 . S
C5767 C5774 1.357 . S
C5768 C5759 1.511 . S
C5768 C5769 1.341 . S
C5768 C5770 1.371 . S
C5769 C5768 1.341 . S
C5769 C5773 1.394 . S
C5769 H5785 0.930 . S
C5770 C5768 1.371 . S
C5770 C5771 1.392 . S
C5770 H5786 0.931 . S
C5771 C5770 1.392 . S
C5771 C5772 1.331 . S
C5771 H5789 0.932 . S
C5772 C5771 1.331 . S
C5772 C5773 1.336 . S
C5773 C5769 1.394 . S
C5773 C5772 1.336 . S
C5773 H5788 0.929 . S
C5774 C5764 1.386 . S
C5774 C5767 1.357 . S
C5774 H5787 0.928 . S
H5775 C5751 0.931 . S
H5776 C5753 0.930 . S
H5777 C5755 0.929 . S
H5778 C5756 0.931 . S
H5779 C5758 0.930 . S
H5780 C5762 0.931 . S
H5781 C5760 0.931 . S
H5782 C5764 0.931 . S
H5783 C5765 0.929 . S
H5784 C5766 0.930 . S
H5785 C5769 0.930 . S
H5786 C5770 0.931 . S
H5787 C5774 0.928 . S
H5788 C5773 0.929 . S
H5789 C5771 0.932 . S
C5790 C5791 1.386 . S
C5790 C5792 1.397 . S
C5790 H5814 0.931 . S
C5791 C5790 1.386 . S
C5791 C5795 1.397 . S
C5792 C5790 1.397 . S
C5792 C5793 1.384 . S
C5792 H5815 0.930 . S
C5793 C5792 1.384 . S
C5793 C5794 1.377 . S
C5793 C5796 1.481 . S
C5794 C5793 1.377 . S
C5794 C5795 1.389 . S
C5794 H5816 0.929 . S
C5795 C5791 1.397 . S
C5795 C5794 1.389 . S
C5795 H5817 0.931 . S
C5796 C5793 1.481 . S
C5796 C5797 1.387 . S
C5796 C5801 1.390 . S
C5797 C5796 1.387 . S
C5797 C5798 1.401 . S
C5797 H5818 0.930 . S
C5798 C5797 1.401 . S
C5798 C5799 1.376 . S
C5798 C5807 1.511 . S
C5799 C5798 1.376 . S
C5799 C5800 1.392 . S
C5799 H5820 0.931 . S
C5800 C5799 1.392 . S
C5800 C5801 1.361 . S
C5800 C5802 1.500 . S
C5801 C5796 1.390 . S
C5801 C5800 1.361 . S
C5801 H5819 0.931 . S
C5802 C5800 1.500 . S
C5802 C5803 1.371 . S
C5802 C5804 1.365 . S
C5803 C5802 1.371 . S
C5803 C5813 1.386 . S
C5803 H5821 0.931 . S
C5804 C5802 1.365 . S
C5804 C5805 1.409 . S
C5804 H5822 0.929 . S
C5805 C5804 1.409 . S
C5805 C5806 1.380 . S
C5805 H5823 0.930 . S
C5806 C5805 1.380 . S
C5806 C5813 1.357 . S
C5807 C5798 1.511 . S
C5807 C5808 1.341 . S
C5807 C5809 1.371 . S
C5808 C5807 1.341 . S
C5808 C5812 1.394 . S
C5808 H5824 0.930 . S
C5809 C5807 1.371 . S
C5809 C5810 1.392 . S
C5809 H5825 0.931 . S
C5810 C5809 1.392 . S
C5810 C5811 1.331 . S
C5810 H5828 0.932 . S
C5811 C5810 1.331 . S
C5811 C5812 1.336 . S
C5812 C5808 1.394 . S
C5812 C5811 1.336 . S
C5812 H5827 0.929 . S
C5813 C5803 1.386 . S
C5813 C5806 1.357 . S
C5813 H5826 0.928 . S
H5814 C5790 0.931 . S
H5815 C5792 0.930 . S
H5816 C5794 0.929 . S
H5817 C5795 0.931 . S
H5818 C5797 0.930 . S
H5819 C5801 0.931 . S
H5820 C5799 0.931 . S
H5821 C5803 0.931 . S
H5822 C5804 0.929 . S
H5823 C5805 0.930 . S
H5824 C5808 0.930 . S
H5825 C5809 0.931 . S
H5826 C5813 0.928 . S
H5827 C5812 0.929 . S
H5828 C5810 0.932 . S
C5829 C5830 1.386 . S
C5829 C5831 1.397 . S
C5829 H5853 0.931 . S
C5830 C5829 1.386 . S
C5830 C5834 1.397 . S
C5831 C5829 1.397 . S
C5831 C5832 1.384 . S
C5831 H5854 0.930 . S
C5832 C5831 1.384 . S
C5832 C5833 1.377 . S
C5832 C5835 1.481 . S
C5833 C5832 1.377 . S
C5833 C5834 1.389 . S
C5833 H5855 0.929 . S
C5834 C5830 1.397 . S
C5834 C5833 1.389 . S
C5834 H5856 0.931 . S
C5835 C5832 1.481 . S
C5835 C5836 1.387 . S
C5835 C5840 1.390 . S
C5836 C5835 1.387 . S
C5836 C5837 1.401 . S
C5836 H5857 0.930 . S
C5837 C5836 1.401 . S
C5837 C5838 1.376 . S
C5837 C5846 1.511 . S
C5838 C5837 1.376 . S
C5838 C5839 1.392 . S
C5838 H5859 0.931 . S
C5839 C5838 1.392 . S
C5839 C5840 1.361 . S
C5839 C5841 1.500 . S
C5840 C5835 1.390 . S
C5840 C5839 1.361 . S
C5840 H5858 0.931 . S
C5841 C5839 1.500 . S
C5841 C5842 1.371 . S
C5841 C5843 1.365 . S
C5842 C5841 1.371 . S
C5842 C5852 1.386 . S
C5842 H5860 0.931 . S
C5843 C5841 1.365 . S
C5843 C5844 1.409 . S
C5843 H5861 0.929 . S
C5844 C5843 1.409 . S
C5844 C5845 1.380 . S
C5844 H5862 0.930 . S
C5845 C5844 1.380 . S
C5845 C5852 1.357 . S
C5846 C5837 1.511 . S
C5846 C5847 1.341 . S
C5846 C5848 1.371 . S
C5847 C5846 1.341 . S
C5847 C5851 1.394 . S
C5847 H5863 0.930 . S
C5848 C5846 1.371 . S
C5848 C5849 1.392 . S
C5848 H5864 0.931 . S
C5849 C5848 1.392 . S
C5849 C5850 1.310 1_655 S
C5849 H5867 0.932 . S
C5850 C5849 1.310 1_455 S
C5850 C5851 1.321 1_455 S
C5851 C5847 1.394 . S
C5851 C5850 1.321 1_655 S
C5851 H5866 0.917 1_655 S
C5852 C5842 1.386 . S
C5852 C5845 1.357 . S
C5852 H5865 0.928 . S
H5853 C5829 0.931 . S
H5854 C5831 0.930 . S
H5855 C5833 0.929 . S
H5856 C5834 0.931 . S
H5857 C5836 0.930 . S
H5858 C5840 0.931 . S
H5859 C5838 0.931 . S
H5860 C5842 0.931 . S
H5861 C5843 0.929 . S
H5862 C5844 0.930 . S
H5863 C5847 0.930 . S
H5864 C5848 0.931 . S
H5865 C5852 0.928 . S
H5866 C5851 0.917 1_455 S
H5867 C5849 0.932 . S
C5868 C5869 1.386 . S
C5868 C5870 1.397 . S
C5868 H5892 0.931 . S
C5869 C5868 1.386 . S
C5869 C5873 1.397 . S
C5870 C5868 1.397 . S
C5870 C5871 1.384 . S
C5870 H5893 0.930 . S
C5871 C5870 1.384 . S
C5871 C5872 1.377 . S
C5871 C5874 1.481 . S
C5872 C5871 1.377 . S
C5872 C5873 1.389 . S
C5872 H5894 0.929 . S
C5873 C5869 1.397 . S
C5873 C5872 1.389 . S
C5873 H5895 0.931 . S
C5874 C5871 1.481 . S
C5874 C5875 1.387 . S
C5874 C5879 1.390 . S
C5875 C5874 1.387 . S
C5875 C5876 1.401 . S
C5875 H5896 0.930 . S
C5876 C5875 1.401 . S
C5876 C5877 1.376 . S
C5876 C5885 1.511 . S
C5877 C5876 1.376 . S
C5877 C5878 1.392 . S
C5877 H5898 0.931 . S
C5878 C5877 1.392 . S
C5878 C5879 1.361 . S
C5878 C5880 1.500 . S
C5879 C5874 1.390 . S
C5879 C5878 1.361 . S
C5879 H5897 0.931 . S
C5880 C5878 1.500 . S
C5880 C5881 1.371 . S
C5880 C5882 1.365 . S
C5881 C5880 1.371 . S
C5881 C5891 1.386 . S
C5881 H5899 0.931 . S
C5882 C5880 1.365 . S
C5882 C5883 1.409 . S
C5882 H5900 0.929 . S
C5883 C5882 1.409 . S
C5883 C5884 1.380 . S
C5883 H5901 0.930 . S
C5884 C5883 1.380 . S
C5884 C5891 1.357 . S
C5885 C5876 1.511 . S
C5885 C5886 1.341 . S
C5885 C5887 1.371 . S
C5886 C5885 1.341 . S
C5886 C5890 1.394 . S
C5886 H5902 0.930 . S
C5887 C5885 1.371 . S
C5887 C5888 1.392 . S
C5887 H5903 0.931 . S
C5888 C5887 1.392 . S
C5888 C5889 1.331 . S
C5888 H5906 0.932 . S
C5889 C5888 1.331 . S
C5889 C5890 1.336 . S
C5890 C5886 1.394 . S
C5890 C5889 1.336 . S
C5890 H5905 0.929 . S
C5891 C5881 1.386 . S
C5891 C5884 1.357 . S
C5891 H5904 0.928 . S
H5892 C5868 0.931 . S
H5893 C5870 0.930 . S
H5894 C5872 0.929 . S
H5895 C5873 0.931 . S
H5896 C5875 0.930 . S
H5897 C5879 0.931 . S
H5898 C5877 0.931 . S
H5899 C5881 0.931 . S
H5900 C5882 0.929 . S
H5901 C5883 0.930 . S
H5902 C5886 0.930 . S
H5903 C5887 0.931 . S
H5904 C5891 0.928 . S
H5905 C5890 0.929 . S
H5906 C5888 0.932 . S
C5907 C5908 1.386 . S
C5907 C5909 1.397 . S
C5907 H5931 0.931 . S
C5908 C5907 1.386 . S
C5908 C5912 1.397 . S
C5909 C5907 1.397 . S
C5909 C5910 1.384 . S
C5909 H5932 0.930 . S
C5910 C5909 1.384 . S
C5910 C5911 1.377 . S
C5910 C5913 1.481 . S
C5911 C5910 1.377 . S
C5911 C5912 1.389 . S
C5911 H5933 0.929 . S
C5912 C5908 1.397 . S
C5912 C5911 1.389 . S
C5912 H5934 0.931 . S
C5913 C5910 1.481 . S
C5913 C5914 1.387 . S
C5913 C5918 1.390 . S
C5914 C5913 1.387 . S
C5914 C5915 1.401 . S
C5914 H5935 0.930 . S
C5915 C5914 1.401 . S
C5915 C5916 1.376 . S
C5915 C5924 1.511 . S
C5916 C5915 1.376 . S
C5916 C5917 1.392 . S
C5916 H5937 0.931 . S
C5917 C5916 1.392 . S
C5917 C5918 1.361 . S
C5917 C5919 1.500 . S
C5918 C5913 1.390 . S
C5918 C5917 1.361 . S
C5918 H5936 0.931 . S
C5919 C5917 1.500 . S
C5919 C5920 1.371 . S
C5919 C5921 1.365 . S
C5920 C5919 1.371 . S
C5920 C5930 1.386 . S
C5920 H5938 0.931 . S
C5921 C5919 1.365 . S
C5921 C5922 1.409 . S
C5921 H5939 0.929 . S
C5922 C5921 1.409 . S
C5922 C5923 1.380 . S
C5922 H5940 0.930 . S
C5923 C5922 1.380 . S
C5923 C5930 1.357 . S
C5924 C5915 1.511 . S
C5924 C5925 1.341 . S
C5924 C5926 1.371 . S
C5925 C5924 1.341 . S
C5925 C5929 1.394 . S
C5925 H5941 0.930 . S
C5926 C5924 1.371 . S
C5926 C5927 1.392 . S
C5926 H5942 0.931 . S
C5927 C5926 1.392 . S
C5927 C5928 1.310 1_655 S
C5927 H5945 0.932 . S
C5928 C5927 1.310 1_455 S
C5928 C5929 1.321 1_455 S
C5929 C5925 1.394 . S
C5929 C5928 1.321 1_655 S
C5929 H5944 0.917 1_655 S
C5930 C5920 1.386 . S
C5930 C5923 1.357 . S
C5930 H5943 0.928 . S
H5931 C5907 0.931 . S
H5932 C5909 0.930 . S
H5933 C5911 0.929 . S
H5934 C5912 0.931 . S
H5935 C5914 0.930 . S
H5936 C5918 0.931 . S
H5937 C5916 0.931 . S
H5938 C5920 0.931 . S
H5939 C5921 0.929 . S
H5940 C5922 0.930 . S
H5941 C5925 0.930 . S
H5942 C5926 0.931 . S
H5943 C5930 0.928 . S
H5944 C5929 0.917 1_455 S
H5945 C5927 0.932 . S
C5946 C5947 1.386 . S
C5946 C5948 1.397 . S
C5946 H5970 0.931 . S
C5947 C5946 1.386 . S
C5947 C5951 1.397 . S
C5948 C5946 1.397 . S
C5948 C5949 1.384 . S
C5948 H5971 0.930 . S
C5949 C5948 1.384 . S
C5949 C5950 1.377 . S
C5949 C5952 1.481 . S
C5950 C5949 1.377 . S
C5950 C5951 1.389 . S
C5950 H5972 0.929 . S
C5951 C5947 1.397 . S
C5951 C5950 1.389 . S
C5951 H5973 0.931 . S
C5952 C5949 1.481 . S
C5952 C5953 1.387 . S
C5952 C5957 1.390 . S
C5953 C5952 1.387 . S
C5953 C5954 1.401 . S
C5953 H5974 0.930 . S
C5954 C5953 1.401 . S
C5954 C5955 1.376 . S
C5954 C5963 1.511 . S
C5955 C5954 1.376 . S
C5955 C5956 1.392 . S
C5955 H5976 0.931 . S
C5956 C5955 1.392 . S
C5956 C5957 1.361 . S
C5956 C5958 1.500 . S
C5957 C5952 1.390 . S
C5957 C5956 1.361 . S
C5957 H5975 0.931 . S
C5958 C5956 1.500 . S
C5958 C5959 1.371 . S
C5958 C5960 1.365 . S
C5959 C5958 1.371 . S
C5959 C5969 1.386 . S
C5959 H5977 0.931 . S
C5960 C5958 1.365 . S
C5960 C5961 1.409 . S
C5960 H5978 0.929 . S
C5961 C5960 1.409 . S
C5961 C5962 1.380 . S
C5961 H5979 0.930 . S
C5962 C5961 1.380 . S
C5962 C5969 1.357 . S
C5963 C5954 1.511 . S
C5963 C5964 1.341 . S
C5963 C5965 1.371 . S
C5964 C5963 1.341 . S
C5964 C5968 1.394 . S
C5964 H5980 0.930 . S
C5965 C5963 1.371 . S
C5965 C5966 1.392 . S
C5965 H5981 0.931 . S
C5966 C5965 1.392 . S
C5966 C5967 1.331 . S
C5966 H5984 0.932 . S
C5967 C5966 1.331 . S
C5967 C5968 1.336 . S
C5968 C5964 1.394 . S
C5968 C5967 1.336 . S
C5968 H5983 0.929 . S
C5969 C5959 1.386 . S
C5969 C5962 1.357 . S
C5969 H5982 0.928 . S
H5970 C5946 0.931 . S
H5971 C5948 0.930 . S
H5972 C5950 0.929 . S
H5973 C5951 0.931 . S
H5974 C5953 0.930 . S
H5975 C5957 0.931 . S
H5976 C5955 0.931 . S
H5977 C5959 0.931 . S
H5978 C5960 0.929 . S
H5979 C5961 0.930 . S
H5980 C5964 0.930 . S
H5981 C5965 0.931 . S
H5982 C5969 0.928 . S
H5983 C5968 0.929 . S
H5984 C5966 0.932 . S
C5985 C5986 1.386 . S
C5985 C5987 1.397 . S
C5985 H6009 0.931 . S
C5986 C5985 1.386 . S
C5986 C5990 1.397 . S
C5987 C5985 1.397 . S
C5987 C5988 1.384 . S
C5987 H6010 0.930 . S
C5988 C5987 1.384 . S
C5988 C5989 1.377 . S
C5988 C5991 1.481 . S
C5989 C5988 1.377 . S
C5989 C5990 1.389 . S
C5989 H6011 0.929 . S
C5990 C5986 1.397 . S
C5990 C5989 1.389 . S
C5990 H6012 0.931 . S
C5991 C5988 1.481 . S
C5991 C5992 1.387 . S
C5991 C5996 1.390 . S
C5992 C5991 1.387 . S
C5992 C5993 1.401 . S
C5992 H6013 0.930 . S
C5993 C5992 1.401 . S
C5993 C5994 1.376 . S
C5993 C6002 1.511 . S
C5994 C5993 1.376 . S
C5994 C5995 1.392 . S
C5994 H6015 0.931 . S
C5995 C5994 1.392 . S
C5995 C5996 1.361 . S
C5995 C5997 1.500 . S
C5996 C5991 1.390 . S
C5996 C5995 1.361 . S
C5996 H6014 0.931 . S
C5997 C5995 1.500 . S
C5997 C5998 1.371 . S
C5997 C5999 1.365 . S
C5998 C5997 1.371 . S
C5998 C6008 1.386 . S
C5998 H6016 0.931 . S
C5999 C5997 1.365 . S
C5999 C6000 1.409 . S
C5999 H6017 0.929 . S
C6000 C5999 1.409 . S
C6000 C6001 1.380 . S
C6000 H6018 0.930 . S
C6001 C6000 1.380 . S
C6001 C6008 1.357 . S
C6002 C5993 1.511 . S
C6002 C6003 1.341 . S
C6002 C6004 1.371 . S
C6003 C6002 1.341 . S
C6003 C6007 1.394 . S
C6003 H6019 0.930 . S
C6004 C6002 1.371 . S
C6004 C6005 1.392 . S
C6004 H6020 0.931 . S
C6005 C6004 1.392 . S
C6005 C6006 1.331 . S
C6005 H6023 0.932 . S
C6006 C6005 1.331 . S
C6006 C6007 1.336 . S
C6007 C6003 1.394 . S
C6007 C6006 1.336 . S
C6007 H6022 0.929 . S
C6008 C5998 1.386 . S
C6008 C6001 1.357 . S
C6008 H6021 0.928 . S
H6009 C5985 0.931 . S
H6010 C5987 0.930 . S
H6011 C5989 0.929 . S
H6012 C5990 0.931 . S
H6013 C5992 0.930 . S
H6014 C5996 0.931 . S
H6015 C5994 0.931 . S
H6016 C5998 0.931 . S
H6017 C5999 0.929 . S
H6018 C6000 0.930 . S
H6019 C6003 0.930 . S
H6020 C6004 0.931 . S
H6021 C6008 0.928 . S
H6022 C6007 0.929 . S
H6023 C6005 0.932 . S
C6024 C6025 1.386 . S
C6024 C6026 1.397 . S
C6024 H6048 0.931 . S
C6025 C6024 1.386 . S
C6025 C6029 1.397 . S
C6026 C6024 1.397 . S
C6026 C6027 1.384 . S
C6026 H6049 0.930 . S
C6027 C6026 1.384 . S
C6027 C6028 1.377 . S
C6027 C6030 1.481 . S
C6028 C6027 1.377 . S
C6028 C6029 1.389 . S
C6028 H6050 0.929 . S
C6029 C6025 1.397 . S
C6029 C6028 1.389 . S
C6029 H6051 0.931 . S
C6030 C6027 1.481 . S
C6030 C6031 1.387 . S
C6030 C6035 1.390 . S
C6031 C6030 1.387 . S
C6031 C6032 1.401 . S
C6031 H6052 0.930 . S
C6032 C6031 1.401 . S
C6032 C6033 1.376 . S
C6032 C6041 1.511 . S
C6033 C6032 1.376 . S
C6033 C6034 1.392 . S
C6033 H6054 0.931 . S
C6034 C6033 1.392 . S
C6034 C6035 1.361 . S
C6034 C6036 1.500 . S
C6035 C6030 1.390 . S
C6035 C6034 1.361 . S
C6035 H6053 0.931 . S
C6036 C6034 1.500 . S
C6036 C6037 1.371 . S
C6036 C6038 1.365 . S
C6037 C6036 1.371 . S
C6037 C6047 1.386 . S
C6037 H6055 0.931 . S
C6038 C6036 1.365 . S
C6038 C6039 1.409 . S
C6038 H6056 0.929 . S
C6039 C6038 1.409 . S
C6039 C6040 1.380 . S
C6039 H6057 0.930 . S
C6040 C6039 1.380 . S
C6040 C6047 1.357 . S
C6041 C6032 1.511 . S
C6041 C6042 1.341 . S
C6041 C6043 1.371 . S
C6042 C6041 1.341 . S
C6042 C6046 1.394 . S
C6042 H6058 0.930 . S
C6043 C6041 1.371 . S
C6043 C6044 1.392 . S
C6043 H6059 0.931 . S
C6044 C6043 1.392 . S
C6044 C6045 1.331 . S
C6044 H6062 0.932 . S
C6045 C6044 1.331 . S
C6045 C6046 1.336 . S
C6046 C6042 1.394 . S
C6046 C6045 1.336 . S
C6046 H6061 0.929 . S
C6047 C6037 1.386 . S
C6047 C6040 1.357 . S
C6047 H6060 0.928 . S
H6048 C6024 0.931 . S
H6049 C6026 0.930 . S
H6050 C6028 0.929 . S
H6051 C6029 0.931 . S
H6052 C6031 0.930 . S
H6053 C6035 0.931 . S
H6054 C6033 0.931 . S
H6055 C6037 0.931 . S
H6056 C6038 0.929 . S
H6057 C6039 0.930 . S
H6058 C6042 0.930 . S
H6059 C6043 0.931 . S
H6060 C6047 0.928 . S
H6061 C6046 0.929 . S
H6062 C6044 0.932 . S
C6063 C6064 1.386 . S
C6063 C6065 1.397 . S
C6063 H6087 0.931 . S
C6064 C6063 1.386 . S
C6064 C6068 1.397 . S
C6065 C6063 1.397 . S
C6065 C6066 1.384 . S
C6065 H6088 0.930 . S
C6066 C6065 1.384 . S
C6066 C6067 1.377 . S
C6066 C6069 1.481 . S
C6067 C6066 1.377 . S
C6067 C6068 1.389 . S
C6067 H6089 0.929 . S
C6068 C6064 1.397 . S
C6068 C6067 1.389 . S
C6068 H6090 0.931 . S
C6069 C6066 1.481 . S
C6069 C6070 1.387 . S
C6069 C6074 1.390 . S
C6070 C6069 1.387 . S
C6070 C6071 1.401 . S
C6070 H6091 0.930 . S
C6071 C6070 1.401 . S
C6071 C6072 1.376 . S
C6071 C6080 1.511 . S
C6072 C6071 1.376 . S
C6072 C6073 1.392 . S
C6072 H6093 0.931 . S
C6073 C6072 1.392 . S
C6073 C6074 1.361 . S
C6073 C6075 1.500 . S
C6074 C6069 1.390 . S
C6074 C6073 1.361 . S
C6074 H6092 0.931 . S
C6075 C6073 1.500 . S
C6075 C6076 1.371 . S
C6075 C6077 1.365 . S
C6076 C6075 1.371 . S
C6076 C6086 1.386 . S
C6076 H6094 0.931 . S
C6077 C6075 1.365 . S
C6077 C6078 1.409 . S
C6077 H6095 0.929 . S
C6078 C6077 1.409 . S
C6078 C6079 1.380 . S
C6078 H6096 0.930 . S
C6079 C6078 1.380 . S
C6079 C6086 1.357 . S
C6080 C6071 1.511 . S
C6080 C6081 1.341 . S
C6080 C6082 1.371 . S
C6081 C6080 1.341 . S
C6081 C6085 1.394 . S
C6081 H6097 0.930 . S
C6082 C6080 1.371 . S
C6082 C6083 1.392 . S
C6082 H6098 0.931 . S
C6083 C6082 1.392 . S
C6083 C6084 1.310 1_556 S
C6083 H6101 0.932 . S
C6084 C6083 1.310 1_554 S
C6084 C6085 1.322 1_554 S
C6085 C6081 1.394 . S
C6085 C6084 1.322 1_556 S
C6085 H6100 0.917 1_556 S
C6086 C6076 1.386 . S
C6086 C6079 1.357 . S
C6086 H6099 0.928 . S
H6087 C6063 0.931 . S
H6088 C6065 0.930 . S
H6089 C6067 0.929 . S
H6090 C6068 0.931 . S
H6091 C6070 0.930 . S
H6092 C6074 0.931 . S
H6093 C6072 0.931 . S
H6094 C6076 0.931 . S
H6095 C6077 0.929 . S
H6096 C6078 0.930 . S
H6097 C6081 0.930 . S
H6098 C6082 0.931 . S
H6099 C6086 0.928 . S
H6100 C6085 0.917 1_554 S
H6101 C6083 0.932 . S
C6102 C6103 1.386 . S
C6102 C6104 1.397 . S
C6102 H6126 0.931 . S
C6103 C6102 1.386 . S
C6103 C6107 1.397 . S
C6104 C6102 1.397 . S
C6104 C6105 1.384 . S
C6104 H6127 0.930 . S
C6105 C6104 1.384 . S
C6105 C6106 1.377 . S
C6105 C6108 1.481 . S
C6106 C6105 1.377 . S
C6106 C6107 1.389 . S
C6106 H6128 0.929 . S
C6107 C6103 1.397 . S
C6107 C6106 1.389 . S
C6107 H6129 0.931 . S
C6108 C6105 1.481 . S
C6108 C6109 1.387 . S
C6108 C6113 1.390 . S
C6109 C6108 1.387 . S
C6109 C6110 1.401 . S
C6109 H6130 0.930 . S
C6110 C6109 1.401 . S
C6110 C6111 1.376 . S
C6110 C6119 1.511 . S
C6111 C6110 1.376 . S
C6111 C6112 1.392 . S
C6111 H6132 0.931 . S
C6112 C6111 1.392 . S
C6112 C6113 1.361 . S
C6112 C6114 1.500 . S
C6113 C6108 1.390 . S
C6113 C6112 1.361 . S
C6113 H6131 0.931 . S
C6114 C6112 1.500 . S
C6114 C6115 1.371 . S
C6114 C6116 1.365 . S
C6115 C6114 1.371 . S
C6115 C6125 1.386 . S
C6115 H6133 0.931 . S
C6116 C6114 1.365 . S
C6116 C6117 1.409 . S
C6116 H6134 0.929 . S
C6117 C6116 1.409 . S
C6117 C6118 1.380 . S
C6117 H6135 0.930 . S
C6118 C6117 1.380 . S
C6118 C6125 1.357 . S
C6119 C6110 1.511 . S
C6119 C6120 1.341 . S
C6119 C6121 1.371 . S
C6120 C6119 1.341 . S
C6120 C6124 1.394 . S
C6120 H6136 0.930 . S
C6121 C6119 1.371 . S
C6121 C6122 1.392 . S
C6121 H6137 0.931 . S
C6122 C6121 1.392 . S
C6122 C6123 1.331 . S
C6122 H6140 0.932 . S
C6123 C6122 1.331 . S
C6123 C6124 1.336 . S
C6124 C6120 1.394 . S
C6124 C6123 1.336 . S
C6124 H6139 0.929 . S
C6125 C6115 1.386 . S
C6125 C6118 1.357 . S
C6125 H6138 0.928 . S
H6126 C6102 0.931 . S
H6127 C6104 0.930 . S
H6128 C6106 0.929 . S
H6129 C6107 0.931 . S
H6130 C6109 0.930 . S
H6131 C6113 0.931 . S
H6132 C6111 0.931 . S
H6133 C6115 0.931 . S
H6134 C6116 0.929 . S
H6135 C6117 0.930 . S
H6136 C6120 0.930 . S
H6137 C6121 0.931 . S
H6138 C6125 0.928 . S
H6139 C6124 0.929 . S
H6140 C6122 0.932 . S
C6141 C6142 1.386 . S
C6141 C6143 1.397 . S
C6141 H6165 0.931 . S
C6142 C6141 1.386 . S
C6142 C6146 1.397 . S
C6143 C6141 1.397 . S
C6143 C6144 1.384 . S
C6143 H6166 0.930 . S
C6144 C6143 1.384 . S
C6144 C6145 1.377 . S
C6144 C6147 1.481 . S
C6145 C6144 1.377 . S
C6145 C6146 1.389 . S
C6145 H6167 0.929 . S
C6146 C6142 1.397 . S
C6146 C6145 1.389 . S
C6146 H6168 0.931 . S
C6147 C6144 1.481 . S
C6147 C6148 1.387 . S
C6147 C6152 1.390 . S
C6148 C6147 1.387 . S
C6148 C6149 1.401 . S
C6148 H6169 0.930 . S
C6149 C6148 1.401 . S
C6149 C6150 1.376 . S
C6149 C6158 1.511 . S
C6150 C6149 1.376 . S
C6150 C6151 1.392 . S
C6150 H6171 0.931 . S
C6151 C6150 1.392 . S
C6151 C6152 1.361 . S
C6151 C6153 1.500 . S
C6152 C6147 1.390 . S
C6152 C6151 1.361 . S
C6152 H6170 0.931 . S
C6153 C6151 1.500 . S
C6153 C6154 1.371 . S
C6153 C6155 1.365 . S
C6154 C6153 1.371 . S
C6154 C6164 1.386 . S
C6154 H6172 0.931 . S
C6155 C6153 1.365 . S
C6155 C6156 1.409 . S
C6155 H6173 0.929 . S
C6156 C6155 1.409 . S
C6156 C6157 1.380 . S
C6156 H6174 0.930 . S
C6157 C6156 1.380 . S
C6157 C6164 1.357 . S
C6158 C6149 1.511 . S
C6158 C6159 1.341 . S
C6158 C6160 1.371 . S
C6159 C6158 1.341 . S
C6159 C6163 1.394 . S
C6159 H6175 0.930 . S
C6160 C6158 1.371 . S
C6160 C6161 1.392 . S
C6160 H6176 0.931 . S
C6161 C6160 1.392 . S
C6161 C6162 1.331 . S
C6161 H6179 0.932 . S
C6162 C6161 1.331 . S
C6162 C6163 1.336 . S
C6163 C6159 1.394 . S
C6163 C6162 1.336 . S
C6163 H6178 0.929 . S
C6164 C6154 1.386 . S
C6164 C6157 1.357 . S
C6164 H6177 0.928 . S
H6165 C6141 0.931 . S
H6166 C6143 0.930 . S
H6167 C6145 0.929 . S
H6168 C6146 0.931 . S
H6169 C6148 0.930 . S
H6170 C6152 0.931 . S
H6171 C6150 0.931 . S
H6172 C6154 0.931 . S
H6173 C6155 0.929 . S
H6174 C6156 0.930 . S
H6175 C6159 0.930 . S
H6176 C6160 0.931 . S
H6177 C6164 0.928 . S
H6178 C6163 0.929 . S
H6179 C6161 0.932 . S
C6180 C6181 1.386 . S
C6180 C6182 1.397 . S
C6180 H6204 0.931 . S
C6181 C6180 1.386 . S
C6181 C6185 1.397 . S
C6182 C6180 1.397 . S
C6182 C6183 1.384 . S
C6182 H6205 0.930 . S
C6183 C6182 1.384 . S
C6183 C6184 1.377 . S
C6183 C6186 1.481 . S
C6184 C6183 1.377 . S
C6184 C6185 1.389 . S
C6184 H6206 0.929 . S
C6185 C6181 1.397 . S
C6185 C6184 1.389 . S
C6185 H6207 0.931 . S
C6186 C6183 1.481 . S
C6186 C6187 1.387 . S
C6186 C6191 1.390 . S
C6187 C6186 1.387 . S
C6187 C6188 1.401 . S
C6187 H6208 0.930 . S
C6188 C6187 1.401 . S
C6188 C6189 1.376 . S
C6188 C6197 1.511 . S
C6189 C6188 1.376 . S
C6189 C6190 1.392 . S
C6189 H6210 0.931 . S
C6190 C6189 1.392 . S
C6190 C6191 1.361 . S
C6190 C6192 1.500 . S
C6191 C6186 1.390 . S
C6191 C6190 1.361 . S
C6191 H6209 0.931 . S
C6192 C6190 1.500 . S
C6192 C6193 1.371 . S
C6192 C6194 1.365 . S
C6193 C6192 1.371 . S
C6193 C6203 1.386 . S
C6193 H6211 0.931 . S
C6194 C6192 1.365 . S
C6194 C6195 1.409 . S
C6194 H6212 0.929 . S
C6195 C6194 1.409 . S
C6195 C6196 1.380 . S
C6195 H6213 0.930 . S
C6196 C6195 1.380 . S
C6196 C6203 1.357 . S
C6197 C6188 1.511 . S
C6197 C6198 1.341 . S
C6197 C6199 1.371 . S
C6198 C6197 1.341 . S
C6198 C6202 1.394 . S
C6198 H6214 0.930 . S
C6199 C6197 1.371 . S
C6199 C6200 1.392 . S
C6199 H6215 0.931 . S
C6200 C6199 1.392 . S
C6200 C6201 1.331 . S
C6200 H6218 0.932 . S
C6201 C6200 1.331 . S
C6201 C6202 1.336 . S
C6202 C6198 1.394 . S
C6202 C6201 1.336 . S
C6202 H6217 0.929 . S
C6203 C6193 1.386 . S
C6203 C6196 1.357 . S
C6203 H6216 0.928 . S
H6204 C6180 0.931 . S
H6205 C6182 0.930 . S
H6206 C6184 0.929 . S
H6207 C6185 0.931 . S
H6208 C6187 0.930 . S
H6209 C6191 0.931 . S
H6210 C6189 0.931 . S
H6211 C6193 0.931 . S
H6212 C6194 0.929 . S
H6213 C6195 0.930 . S
H6214 C6198 0.930 . S
H6215 C6199 0.931 . S
H6216 C6203 0.928 . S
H6217 C6202 0.929 . S
H6218 C6200 0.932 . S
C6219 C6220 1.386 . S
C6219 C6221 1.397 . S
C6219 H6243 0.931 . S
C6220 C6219 1.386 . S
C6220 C6224 1.397 . S
C6221 C6219 1.397 . S
C6221 C6222 1.384 . S
C6221 H6244 0.930 . S
C6222 C6221 1.384 . S
C6222 C6223 1.377 . S
C6222 C6225 1.481 . S
C6223 C6222 1.377 . S
C6223 C6224 1.389 . S
C6223 H6245 0.929 . S
C6224 C6220 1.397 . S
C6224 C6223 1.389 . S
C6224 H6246 0.931 . S
C6225 C6222 1.481 . S
C6225 C6226 1.387 . S
C6225 C6230 1.390 . S
C6226 C6225 1.387 . S
C6226 C6227 1.401 . S
C6226 H6247 0.930 . S
C6227 C6226 1.401 . S
C6227 C6228 1.376 . S
C6227 C6236 1.511 . S
C6228 C6227 1.376 . S
C6228 C6229 1.392 . S
C6228 H6249 0.931 . S
C6229 C6228 1.392 . S
C6229 C6230 1.361 . S
C6229 C6231 1.500 . S
C6230 C6225 1.390 . S
C6230 C6229 1.361 . S
C6230 H6248 0.931 . S
C6231 C6229 1.500 . S
C6231 C6232 1.371 . S
C6231 C6233 1.365 . S
C6232 C6231 1.371 . S
C6232 C6242 1.386 . S
C6232 H6250 0.931 . S
C6233 C6231 1.365 . S
C6233 C6234 1.409 . S
C6233 H6251 0.929 . S
C6234 C6233 1.409 . S
C6234 C6235 1.380 . S
C6234 H6252 0.930 . S
C6235 C6234 1.380 . S
C6235 C6242 1.357 . S
C6236 C6227 1.511 . S
C6236 C6237 1.341 . S
C6236 C6238 1.371 . S
C6237 C6236 1.341 . S
C6237 C6241 1.394 . S
C6237 H6253 0.930 . S
C6238 C6236 1.371 . S
C6238 C6239 1.392 . S
C6238 H6254 0.931 . S
C6239 C6238 1.392 . S
C6239 C6240 1.314 1_554 S
C6239 H6257 0.932 . S
C6240 C6239 1.314 1_556 S
C6240 C6241 1.325 1_556 S
C6241 C6237 1.394 . S
C6241 C6240 1.325 1_554 S
C6241 H6256 0.922 1_554 S
C6242 C6232 1.386 . S
C6242 C6235 1.357 . S
C6242 H6255 0.928 . S
H6243 C6219 0.931 . S
H6244 C6221 0.930 . S
H6245 C6223 0.929 . S
H6246 C6224 0.931 . S
H6247 C6226 0.930 . S
H6248 C6230 0.931 . S
H6249 C6228 0.931 . S
H6250 C6232 0.931 . S
H6251 C6233 0.929 . S
H6252 C6234 0.930 . S
H6253 C6237 0.930 . S
H6254 C6238 0.931 . S
H6255 C6242 0.928 . S
H6256 C6241 0.922 1_556 S
H6257 C6239 0.932 . S
C6258 C6259 1.386 . S
C6258 C6260 1.397 . S
C6258 H6282 0.931 . S
C6259 C6258 1.386 . S
C6259 C6263 1.397 . S
C6260 C6258 1.397 . S
C6260 C6261 1.384 . S
C6260 H6283 0.930 . S
C6261 C6260 1.384 . S
C6261 C6262 1.377 . S
C6261 C6264 1.481 . S
C6262 C6261 1.377 . S
C6262 C6263 1.389 . S
C6262 H6284 0.929 . S
C6263 C6259 1.397 . S
C6263 C6262 1.389 . S
C6263 H6285 0.931 . S
C6264 C6261 1.481 . S
C6264 C6265 1.387 . S
C6264 C6269 1.390 . S
C6265 C6264 1.387 . S
C6265 C6266 1.401 . S
C6265 H6286 0.930 . S
C6266 C6265 1.401 . S
C6266 C6267 1.376 . S
C6266 C6275 1.511 . S
C6267 C6266 1.376 . S
C6267 C6268 1.392 . S
C6267 H6288 0.931 . S
C6268 C6267 1.392 . S
C6268 C6269 1.361 . S
C6268 C6270 1.500 . S
C6269 C6264 1.390 . S
C6269 C6268 1.361 . S
C6269 H6287 0.931 . S
C6270 C6268 1.500 . S
C6270 C6271 1.371 . S
C6270 C6272 1.365 . S
C6271 C6270 1.371 . S
C6271 C6281 1.386 . S
C6271 H6289 0.931 . S
C6272 C6270 1.365 . S
C6272 C6273 1.409 . S
C6272 H6290 0.929 . S
C6273 C6272 1.409 . S
C6273 C6274 1.380 . S
C6273 H6291 0.930 . S
C6274 C6273 1.380 . S
C6274 C6281 1.357 . S
C6275 C6266 1.511 . S
C6275 C6276 1.341 . S
C6275 C6277 1.371 . S
C6276 C6275 1.341 . S
C6276 C6280 1.394 . S
C6276 H6292 0.930 . S
C6277 C6275 1.371 . S
C6277 C6278 1.392 . S
C6277 H6293 0.931 . S
C6278 C6277 1.392 . S
C6278 C6279 1.331 . S
C6278 H6296 0.932 . S
C6279 C6278 1.331 . S
C6279 C6280 1.336 . S
C6280 C6276 1.394 . S
C6280 C6279 1.336 . S
C6280 H6295 0.929 . S
C6281 C6271 1.386 . S
C6281 C6274 1.357 . S
C6281 H6294 0.928 . S
H6282 C6258 0.931 . S
H6283 C6260 0.930 . S
H6284 C6262 0.929 . S
H6285 C6263 0.931 . S
H6286 C6265 0.930 . S
H6287 C6269 0.931 . S
H6288 C6267 0.931 . S
H6289 C6271 0.931 . S
H6290 C6272 0.929 . S
H6291 C6273 0.930 . S
H6292 C6276 0.930 . S
H6293 C6277 0.931 . S
H6294 C6281 0.928 . S
H6295 C6280 0.929 . S
H6296 C6278 0.932 . S
C6297 C6298 1.386 . S
C6297 C6299 1.397 . S
C6297 H6321 0.931 . S
C6298 C6297 1.386 . S
C6298 C6302 1.397 . S
C6299 C6297 1.397 . S
C6299 C6300 1.384 . S
C6299 H6322 0.930 . S
C6300 C6299 1.384 . S
C6300 C6301 1.377 . S
C6300 C6303 1.481 . S
C6301 C6300 1.377 . S
C6301 C6302 1.389 . S
C6301 H6323 0.929 . S
C6302 C6298 1.397 . S
C6302 C6301 1.389 . S
C6302 H6324 0.931 . S
C6303 C6300 1.481 . S
C6303 C6304 1.387 . S
C6303 C6308 1.390 . S
C6304 C6303 1.387 . S
C6304 C6305 1.401 . S
C6304 H6325 0.930 . S
C6305 C6304 1.401 . S
C6305 C6306 1.376 . S
C6305 C6314 1.511 . S
C6306 C6305 1.376 . S
C6306 C6307 1.392 . S
C6306 H6327 0.931 . S
C6307 C6306 1.392 . S
C6307 C6308 1.361 . S
C6307 C6309 1.500 . S
C6308 C6303 1.390 . S
C6308 C6307 1.361 . S
C6308 H6326 0.931 . S
C6309 C6307 1.500 . S
C6309 C6310 1.371 . S
C6309 C6311 1.365 . S
C6310 C6309 1.371 . S
C6310 C6320 1.386 . S
C6310 H6328 0.931 . S
C6311 C6309 1.365 . S
C6311 C6312 1.409 . S
C6311 H6329 0.929 . S
C6312 C6311 1.409 . S
C6312 C6313 1.380 . S
C6312 H6330 0.930 . S
C6313 C6312 1.380 . S
C6313 C6320 1.357 . S
C6314 C6305 1.511 . S
C6314 C6315 1.341 . S
C6314 C6316 1.371 . S
C6315 C6314 1.341 . S
C6315 C6319 1.394 . S
C6315 H6331 0.930 . S
C6316 C6314 1.371 . S
C6316 C6317 1.392 . S
C6316 H6332 0.931 . S
C6317 C6316 1.392 . S
C6317 C6318 1.331 . S
C6317 H6335 0.932 . S
C6318 C6317 1.331 . S
C6318 C6319 1.336 . S
C6319 C6315 1.394 . S
C6319 C6318 1.336 . S
C6319 H6334 0.929 . S
C6320 C6310 1.386 . S
C6320 C6313 1.357 . S
C6320 H6333 0.928 . S
H6321 C6297 0.931 . S
H6322 C6299 0.930 . S
H6323 C6301 0.929 . S
H6324 C6302 0.931 . S
H6325 C6304 0.930 . S
H6326 C6308 0.931 . S
H6327 C6306 0.931 . S
H6328 C6310 0.931 . S
H6329 C6311 0.929 . S
H6330 C6312 0.930 . S
H6331 C6315 0.930 . S
H6332 C6316 0.931 . S
H6333 C6320 0.928 . S
H6334 C6319 0.929 . S
H6335 C6317 0.932 . S
C6336 C6337 1.386 . S
C6336 C6338 1.397 . S
C6336 H6360 0.931 . S
C6337 C6336 1.386 . S
C6337 C6341 1.397 . S
C6338 C6336 1.397 . S
C6338 C6339 1.384 . S
C6338 H6361 0.930 . S
C6339 C6338 1.384 . S
C6339 C6340 1.377 . S
C6339 C6342 1.481 . S
C6340 C6339 1.377 . S
C6340 C6341 1.389 . S
C6340 H6362 0.929 . S
C6341 C6337 1.397 . S
C6341 C6340 1.389 . S
C6341 H6363 0.931 . S
C6342 C6339 1.481 . S
C6342 C6343 1.387 . S
C6342 C6347 1.390 . S
C6343 C6342 1.387 . S
C6343 C6344 1.401 . S
C6343 H6364 0.930 . S
C6344 C6343 1.401 . S
C6344 C6345 1.376 . S
C6344 C6353 1.511 . S
C6345 C6344 1.376 . S
C6345 C6346 1.392 . S
C6345 H6366 0.931 . S
C6346 C6345 1.392 . S
C6346 C6347 1.361 . S
C6346 C6348 1.500 . S
C6347 C6342 1.390 . S
C6347 C6346 1.361 . S
C6347 H6365 0.931 . S
C6348 C6346 1.500 . S
C6348 C6349 1.371 . S
C6348 C6350 1.365 . S
C6349 C6348 1.371 . S
C6349 C6359 1.386 . S
C6349 H6367 0.931 . S
C6350 C6348 1.365 . S
C6350 C6351 1.409 . S
C6350 H6368 0.929 . S
C6351 C6350 1.409 . S
C6351 C6352 1.380 . S
C6351 H6369 0.930 . S
C6352 C6351 1.380 . S
C6352 C6359 1.357 . S
C6353 C6344 1.511 . S
C6353 C6354 1.341 . S
C6353 C6355 1.371 . S
C6354 C6353 1.341 . S
C6354 C6358 1.394 . S
C6354 H6370 0.930 . S
C6355 C6353 1.371 . S
C6355 C6356 1.392 . S
C6355 H6371 0.931 . S
C6356 C6355 1.392 . S
C6356 C6357 1.331 . S
C6356 H6374 0.932 . S
C6357 C6356 1.331 . S
C6357 C6358 1.336 . S
C6358 C6354 1.394 . S
C6358 C6357 1.336 . S
C6358 H6373 0.929 . S
C6359 C6349 1.386 . S
C6359 C6352 1.357 . S
C6359 H6372 0.928 . S
H6360 C6336 0.931 . S
H6361 C6338 0.930 . S
H6362 C6340 0.929 . S
H6363 C6341 0.931 . S
H6364 C6343 0.930 . S
H6365 C6347 0.931 . S
H6366 C6345 0.931 . S
H6367 C6349 0.931 . S
H6368 C6350 0.929 . S
H6369 C6351 0.930 . S
H6370 C6354 0.930 . S
H6371 C6355 0.931 . S
H6372 C6359 0.928 . S
H6373 C6358 0.929 . S
H6374 C6356 0.932 . S
C6375 C6376 1.386 . S
C6375 C6377 1.397 . S
C6375 H6399 0.931 . S
C6376 C6375 1.386 . S
C6376 C6380 1.397 . S
C6377 C6375 1.397 . S
C6377 C6378 1.384 . S
C6377 H6400 0.930 . S
C6378 C6377 1.384 . S
C6378 C6379 1.377 . S
C6378 C6381 1.481 . S
C6379 C6378 1.377 . S
C6379 C6380 1.389 . S
C6379 H6401 0.929 . S
C6380 C6376 1.397 . S
C6380 C6379 1.389 . S
C6380 H6402 0.931 . S
C6381 C6378 1.481 . S
C6381 C6382 1.387 . S
C6381 C6386 1.390 . S
C6382 C6381 1.387 . S
C6382 C6383 1.401 . S
C6382 H6403 0.930 . S
C6383 C6382 1.401 . S
C6383 C6384 1.376 . S
C6383 C6392 1.511 . S
C6384 C6383 1.376 . S
C6384 C6385 1.392 . S
C6384 H6405 0.931 . S
C6385 C6384 1.392 . S
C6385 C6386 1.361 . S
C6385 C6387 1.500 . S
C6386 C6381 1.390 . S
C6386 C6385 1.361 . S
C6386 H6404 0.931 . S
C6387 C6385 1.500 . S
C6387 C6388 1.371 . S
C6387 C6389 1.365 . S
C6388 C6387 1.371 . S
C6388 C6398 1.386 . S
C6388 H6406 0.931 . S
C6389 C6387 1.365 . S
C6389 C6390 1.409 . S
C6389 H6407 0.929 . S
C6390 C6389 1.409 . S
C6390 C6391 1.380 . S
C6390 H6408 0.930 . S
C6391 C6390 1.380 . S
C6391 C6398 1.357 . S
C6392 C6383 1.511 . S
C6392 C6393 1.341 . S
C6392 C6394 1.371 . S
C6393 C6392 1.341 . S
C6393 C6397 1.394 . S
C6393 H6409 0.930 . S
C6394 C6392 1.371 . S
C6394 C6395 1.392 . S
C6394 H6410 0.931 . S
C6395 C6394 1.392 . S
C6395 C6396 1.331 . S
C6395 H6413 0.932 . S
C6396 C6395 1.331 . S
C6396 C6397 1.336 . S
C6397 C6393 1.394 . S
C6397 C6396 1.336 . S
C6397 H6412 0.929 . S
C6398 C6388 1.386 . S
C6398 C6391 1.357 . S
C6398 H6411 0.928 . S
H6399 C6375 0.931 . S
H6400 C6377 0.930 . S
H6401 C6379 0.929 . S
H6402 C6380 0.931 . S
H6403 C6382 0.930 . S
H6404 C6386 0.931 . S
H6405 C6384 0.931 . S
H6406 C6388 0.931 . S
H6407 C6389 0.929 . S
H6408 C6390 0.930 . S
H6409 C6393 0.930 . S
H6410 C6394 0.931 . S
H6411 C6398 0.928 . S
H6412 C6397 0.929 . S
H6413 C6395 0.932 . S
C6414 C6415 1.386 . S
C6414 C6416 1.397 . S
C6414 H6438 0.931 . S
C6415 C6414 1.386 . S
C6415 C6419 1.397 . S
C6416 C6414 1.397 . S
C6416 C6417 1.384 . S
C6416 H6439 0.930 . S
C6417 C6416 1.384 . S
C6417 C6418 1.377 . S
C6417 C6420 1.481 . S
C6418 C6417 1.377 . S
C6418 C6419 1.389 . S
C6418 H6440 0.929 . S
C6419 C6415 1.397 . S
C6419 C6418 1.389 . S
C6419 H6441 0.931 . S
C6420 C6417 1.481 . S
C6420 C6421 1.387 . S
C6420 C6425 1.390 . S
C6421 C6420 1.387 . S
C6421 C6422 1.401 . S
C6421 H6442 0.930 . S
C6422 C6421 1.401 . S
C6422 C6423 1.376 . S
C6422 C6431 1.511 . S
C6423 C6422 1.376 . S
C6423 C6424 1.392 . S
C6423 H6444 0.931 . S
C6424 C6423 1.392 . S
C6424 C6425 1.361 . S
C6424 C6426 1.500 . S
C6425 C6420 1.390 . S
C6425 C6424 1.361 . S
C6425 H6443 0.931 . S
C6426 C6424 1.500 . S
C6426 C6427 1.371 . S
C6426 C6428 1.365 . S
C6427 C6426 1.371 . S
C6427 C6437 1.386 . S
C6427 H6445 0.931 . S
C6428 C6426 1.365 . S
C6428 C6429 1.409 . S
C6428 H6446 0.929 . S
C6429 C6428 1.409 . S
C6429 C6430 1.380 . S
C6429 H6447 0.930 . S
C6430 C6429 1.380 . S
C6430 C6437 1.357 . S
C6431 C6422 1.511 . S
C6431 C6432 1.341 . S
C6431 C6433 1.371 . S
C6432 C6431 1.341 . S
C6432 C6436 1.394 . S
C6432 H6448 0.930 . S
C6433 C6431 1.371 . S
C6433 C6434 1.392 . S
C6433 H6449 0.931 . S
C6434 C6433 1.392 . S
C6434 C6435 1.315 1_565 S
C6434 H6452 0.932 . S
C6435 C6434 1.315 1_545 S
C6435 C6436 1.326 1_545 S
C6436 C6432 1.394 . S
C6436 C6435 1.326 1_565 S
C6436 H6451 0.922 1_565 S
C6437 C6427 1.386 . S
C6437 C6430 1.357 . S
C6437 H6450 0.928 . S
H6438 C6414 0.931 . S
H6439 C6416 0.930 . S
H6440 C6418 0.929 . S
H6441 C6419 0.931 . S
H6442 C6421 0.930 . S
H6443 C6425 0.931 . S
H6444 C6423 0.931 . S
H6445 C6427 0.931 . S
H6446 C6428 0.929 . S
H6447 C6429 0.930 . S
H6448 C6432 0.930 . S
H6449 C6433 0.931 . S
H6450 C6437 0.928 . S
H6451 C6436 0.922 1_545 S
H6452 C6434 0.932 . S
C6453 C6454 1.386 . S
C6453 C6455 1.397 . S
C6453 H6477 0.931 . S
C6454 C6453 1.386 . S
C6454 C6458 1.397 . S
C6455 C6453 1.397 . S
C6455 C6456 1.384 . S
C6455 H6478 0.930 . S
C6456 C6455 1.384 . S
C6456 C6457 1.377 . S
C6456 C6459 1.481 . S
C6457 C6456 1.377 . S
C6457 C6458 1.389 . S
C6457 H6479 0.929 . S
C6458 C6454 1.397 . S
C6458 C6457 1.389 . S
C6458 H6480 0.931 . S
C6459 C6456 1.481 . S
C6459 C6460 1.387 . S
C6459 C6464 1.390 . S
C6460 C6459 1.387 . S
C6460 C6461 1.401 . S
C6460 H6481 0.930 . S
C6461 C6460 1.401 . S
C6461 C6462 1.376 . S
C6461 C6470 1.511 . S
C6462 C6461 1.376 . S
C6462 C6463 1.392 . S
C6462 H6483 0.931 . S
C6463 C6462 1.392 . S
C6463 C6464 1.361 . S
C6463 C6465 1.500 . S
C6464 C6459 1.390 . S
C6464 C6463 1.361 . S
C6464 H6482 0.931 . S
C6465 C6463 1.500 . S
C6465 C6466 1.371 . S
C6465 C6467 1.365 . S
C6466 C6465 1.371 . S
C6466 C6476 1.386 . S
C6466 H6484 0.931 . S
C6467 C6465 1.365 . S
C6467 C6468 1.409 . S
C6467 H6485 0.929 . S
C6468 C6467 1.409 . S
C6468 C6469 1.380 . S
C6468 H6486 0.930 . S
C6469 C6468 1.380 . S
C6469 C6476 1.357 . S
C6470 C6461 1.511 . S
C6470 C6471 1.341 . S
C6470 C6472 1.371 . S
C6471 C6470 1.341 . S
C6471 C6475 1.394 . S
C6471 H6487 0.930 . S
C6472 C6470 1.371 . S
C6472 C6473 1.392 . S
C6472 H6488 0.931 . S
C6473 C6472 1.392 . S
C6473 C6474 1.331 . S
C6473 H6491 0.932 . S
C6474 C6473 1.331 . S
C6474 C6475 1.336 . S
C6475 C6471 1.394 . S
C6475 C6474 1.336 . S
C6475 H6490 0.929 . S
C6476 C6466 1.386 . S
C6476 C6469 1.357 . S
C6476 H6489 0.928 . S
H6477 C6453 0.931 . S
H6478 C6455 0.930 . S
H6479 C6457 0.929 . S
H6480 C6458 0.931 . S
H6481 C6460 0.930 . S
H6482 C6464 0.931 . S
H6483 C6462 0.931 . S
H6484 C6466 0.931 . S
H6485 C6467 0.929 . S
H6486 C6468 0.930 . S
H6487 C6471 0.930 . S
H6488 C6472 0.931 . S
H6489 C6476 0.928 . S
H6490 C6475 0.929 . S
H6491 C6473 0.932 . S
C6492 C6493 1.386 . S
C6492 C6494 1.397 . S
C6492 H6516 0.931 . S
C6493 C6492 1.386 . S
C6493 C6497 1.397 . S
C6494 C6492 1.397 . S
C6494 C6495 1.384 . S
C6494 H6517 0.930 . S
C6495 C6494 1.384 . S
C6495 C6496 1.377 . S
C6495 C6498 1.481 . S
C6496 C6495 1.377 . S
C6496 C6497 1.389 . S
C6496 H6518 0.929 . S
C6497 C6493 1.397 . S
C6497 C6496 1.389 . S
C6497 H6519 0.931 . S
C6498 C6495 1.481 . S
C6498 C6499 1.387 . S
C6498 C6503 1.390 . S
C6499 C6498 1.387 . S
C6499 C6500 1.401 . S
C6499 H6520 0.930 . S
C6500 C6499 1.401 . S
C6500 C6501 1.376 . S
C6500 C6509 1.511 . S
C6501 C6500 1.376 . S
C6501 C6502 1.392 . S
C6501 H6522 0.931 . S
C6502 C6501 1.392 . S
C6502 C6503 1.361 . S
C6502 C6504 1.500 . S
C6503 C6498 1.390 . S
C6503 C6502 1.361 . S
C6503 H6521 0.931 . S
C6504 C6502 1.500 . S
C6504 C6505 1.371 . S
C6504 C6506 1.365 . S
C6505 C6504 1.371 . S
C6505 C6515 1.386 . S
C6505 H6523 0.931 . S
C6506 C6504 1.365 . S
C6506 C6507 1.409 . S
C6506 H6524 0.929 . S
C6507 C6506 1.409 . S
C6507 C6508 1.380 . S
C6507 H6525 0.930 . S
C6508 C6507 1.380 . S
C6508 C6515 1.357 . S
C6509 C6500 1.511 . S
C6509 C6510 1.341 . S
C6509 C6511 1.371 . S
C6510 C6509 1.341 . S
C6510 C6514 1.394 . S
C6510 H6526 0.930 . S
C6511 C6509 1.371 . S
C6511 C6512 1.392 . S
C6511 H6527 0.931 . S
C6512 C6511 1.392 . S
C6512 C6513 1.331 . S
C6512 H6530 0.932 . S
C6513 C6512 1.331 . S
C6513 C6514 1.336 . S
C6514 C6510 1.394 . S
C6514 C6513 1.336 . S
C6514 H6529 0.929 . S
C6515 C6505 1.386 . S
C6515 C6508 1.357 . S
C6515 H6528 0.928 . S
H6516 C6492 0.931 . S
H6517 C6494 0.930 . S
H6518 C6496 0.929 . S
H6519 C6497 0.931 . S
H6520 C6499 0.930 . S
H6521 C6503 0.931 . S
H6522 C6501 0.931 . S
H6523 C6505 0.931 . S
H6524 C6506 0.929 . S
H6525 C6507 0.930 . S
H6526 C6510 0.930 . S
H6527 C6511 0.931 . S
H6528 C6515 0.928 . S
H6529 C6514 0.929 . S
H6530 C6512 0.932 . S
C6531 C6532 1.386 . S
C6531 C6533 1.397 . S
C6531 H6555 0.931 . S
C6532 C6531 1.386 . S
C6532 C6536 1.397 . S
C6533 C6531 1.397 . S
C6533 C6534 1.384 . S
C6533 H6556 0.930 . S
C6534 C6533 1.384 . S
C6534 C6535 1.377 . S
C6534 C6537 1.481 . S
C6535 C6534 1.377 . S
C6535 C6536 1.389 . S
C6535 H6557 0.929 . S
C6536 C6532 1.397 . S
C6536 C6535 1.389 . S
C6536 H6558 0.931 . S
C6537 C6534 1.481 . S
C6537 C6538 1.387 . S
C6537 C6542 1.390 . S
C6538 C6537 1.387 . S
C6538 C6539 1.401 . S
C6538 H6559 0.930 . S
C6539 C6538 1.401 . S
C6539 C6540 1.376 . S
C6539 C6548 1.511 . S
C6540 C6539 1.376 . S
C6540 C6541 1.392 . S
C6540 H6561 0.931 . S
C6541 C6540 1.392 . S
C6541 C6542 1.361 . S
C6541 C6543 1.500 . S
C6542 C6537 1.390 . S
C6542 C6541 1.361 . S
C6542 H6560 0.931 . S
C6543 C6541 1.500 . S
C6543 C6544 1.371 . S
C6543 C6545 1.365 . S
C6544 C6543 1.371 . S
C6544 C6554 1.386 . S
C6544 H6562 0.931 . S
C6545 C6543 1.365 . S
C6545 C6546 1.409 . S
C6545 H6563 0.929 . S
C6546 C6545 1.409 . S
C6546 C6547 1.380 . S
C6546 H6564 0.930 . S
C6547 C6546 1.380 . S
C6547 C6554 1.357 . S
C6548 C6539 1.511 . S
C6548 C6549 1.341 . S
C6548 C6550 1.371 . S
C6549 C6548 1.341 . S
C6549 C6553 1.394 . S
C6549 H6565 0.930 . S
C6550 C6548 1.371 . S
C6550 C6551 1.392 . S
C6550 H6566 0.931 . S
C6551 C6550 1.392 . S
C6551 C6552 1.331 . S
C6551 H6569 0.932 . S
C6552 C6551 1.331 . S
C6552 C6553 1.336 . S
C6553 C6549 1.394 . S
C6553 C6552 1.336 . S
C6553 H6568 0.929 . S
C6554 C6544 1.386 . S
C6554 C6547 1.357 . S
C6554 H6567 0.928 . S
H6555 C6531 0.931 . S
H6556 C6533 0.930 . S
H6557 C6535 0.929 . S
H6558 C6536 0.931 . S
H6559 C6538 0.930 . S
H6560 C6542 0.931 . S
H6561 C6540 0.931 . S
H6562 C6544 0.931 . S
H6563 C6545 0.929 . S
H6564 C6546 0.930 . S
H6565 C6549 0.930 . S
H6566 C6550 0.931 . S
H6567 C6554 0.928 . S
H6568 C6553 0.929 . S
H6569 C6551 0.932 . S
C6570 C6571 1.386 . S
C6570 C6572 1.397 . S
C6570 H6594 0.931 . S
C6571 C6570 1.386 . S
C6571 C6575 1.397 . S
C6572 C6570 1.397 . S
C6572 C6573 1.384 . S
C6572 H6595 0.930 . S
C6573 C6572 1.384 . S
C6573 C6574 1.377 . S
C6573 C6576 1.481 . S
C6574 C6573 1.377 . S
C6574 C6575 1.389 . S
C6574 H6596 0.929 . S
C6575 C6571 1.397 . S
C6575 C6574 1.389 . S
C6575 H6597 0.931 . S
C6576 C6573 1.481 . S
C6576 C6577 1.387 . S
C6576 C6581 1.390 . S
C6577 C6576 1.387 . S
C6577 C6578 1.401 . S
C6577 H6598 0.930 . S
C6578 C6577 1.401 . S
C6578 C6579 1.376 . S
C6578 C6587 1.511 . S
C6579 C6578 1.376 . S
C6579 C6580 1.392 . S
C6579 H6600 0.931 . S
C6580 C6579 1.392 . S
C6580 C6581 1.361 . S
C6580 C6582 1.500 . S
C6581 C6576 1.390 . S
C6581 C6580 1.361 . S
C6581 H6599 0.931 . S
C6582 C6580 1.500 . S
C6582 C6583 1.371 . S
C6582 C6584 1.365 . S
C6583 C6582 1.371 . S
C6583 C6593 1.386 . S
C6583 H6601 0.931 . S
C6584 C6582 1.365 . S
C6584 C6585 1.409 . S
C6584 H6602 0.929 . S
C6585 C6584 1.409 . S
C6585 C6586 1.380 . S
C6585 H6603 0.930 . S
C6586 C6585 1.380 . S
C6586 C6593 1.357 . S
C6587 C6578 1.511 . S
C6587 C6588 1.341 . S
C6587 C6589 1.371 . S
C6588 C6587 1.341 . S
C6588 C6592 1.394 . S
C6588 H6604 0.930 . S
C6589 C6587 1.371 . S
C6589 C6590 1.392 . S
C6589 H6605 0.931 . S
C6590 C6589 1.392 . S
C6590 C6591 1.315 1_545 S
C6590 H6608 0.932 . S
C6591 C6590 1.315 1_565 S
C6591 C6592 1.326 1_565 S
C6592 C6588 1.394 . S
C6592 C6591 1.326 1_545 S
C6592 H6607 0.922 1_545 S
C6593 C6583 1.386 . S
C6593 C6586 1.357 . S
C6593 H6606 0.928 . S
H6594 C6570 0.931 . S
H6595 C6572 0.930 . S
H6596 C6574 0.929 . S
H6597 C6575 0.931 . S
H6598 C6577 0.930 . S
H6599 C6581 0.931 . S
H6600 C6579 0.931 . S
H6601 C6583 0.931 . S
H6602 C6584 0.929 . S
H6603 C6585 0.930 . S
H6604 C6588 0.930 . S
H6605 C6589 0.931 . S
H6606 C6593 0.928 . S
H6607 C6592 0.922 1_565 S
H6608 C6590 0.932 . S
C6609 C6610 1.386 . S
C6609 C6611 1.397 . S
C6609 H6633 0.931 . S
C6610 C6609 1.386 . S
C6610 C6614 1.397 . S
C6611 C6609 1.397 . S
C6611 C6612 1.384 . S
C6611 H6634 0.930 . S
C6612 C6611 1.384 . S
C6612 C6613 1.377 . S
C6612 C6615 1.481 . S
C6613 C6612 1.377 . S
C6613 C6614 1.389 . S
C6613 H6635 0.929 . S
C6614 C6610 1.397 . S
C6614 C6613 1.389 . S
C6614 H6636 0.931 . S
C6615 C6612 1.481 . S
C6615 C6616 1.387 . S
C6615 C6620 1.390 . S
C6616 C6615 1.387 . S
C6616 C6617 1.401 . S
C6616 H6637 0.930 . S
C6617 C6616 1.401 . S
C6617 C6618 1.376 . S
C6617 C6626 1.511 . S
C6618 C6617 1.376 . S
C6618 C6619 1.392 . S
C6618 H6639 0.931 . S
C6619 C6618 1.392 . S
C6619 C6620 1.361 . S
C6619 C6621 1.500 . S
C6620 C6615 1.390 . S
C6620 C6619 1.361 . S
C6620 H6638 0.931 . S
C6621 C6619 1.500 . S
C6621 C6622 1.371 . S
C6621 C6623 1.365 . S
C6622 C6621 1.371 . S
C6622 C6632 1.386 . S
C6622 H6640 0.931 . S
C6623 C6621 1.365 . S
C6623 C6624 1.409 . S
C6623 H6641 0.929 . S
C6624 C6623 1.409 . S
C6624 C6625 1.380 . S
C6624 H6642 0.930 . S
C6625 C6624 1.380 . S
C6625 C6632 1.357 . S
C6626 C6617 1.511 . S
C6626 C6627 1.341 . S
C6626 C6628 1.371 . S
C6627 C6626 1.341 . S
C6627 C6631 1.394 . S
C6627 H6643 0.930 . S
C6628 C6626 1.371 . S
C6628 C6629 1.392 . S
C6628 H6644 0.931 . S
C6629 C6628 1.392 . S
C6629 C6630 1.313 1_565 S
C6629 H6647 0.895 1_565 S
C6630 C6629 1.313 1_545 S
C6630 C6631 1.309 1_545 S
C6631 C6627 1.394 . S
C6631 C6630 1.309 1_565 S
C6631 H6646 0.929 . S
C6632 C6622 1.386 . S
C6632 C6625 1.357 . S
C6632 H6645 0.928 . S
H6633 C6609 0.931 . S
H6634 C6611 0.930 . S
H6635 C6613 0.929 . S
H6636 C6614 0.931 . S
H6637 C6616 0.930 . S
H6638 C6620 0.931 . S
H6639 C6618 0.931 . S
H6640 C6622 0.931 . S
H6641 C6623 0.929 . S
H6642 C6624 0.930 . S
H6643 C6627 0.930 . S
H6644 C6628 0.931 . S
H6645 C6632 0.928 . S
H6646 C6631 0.929 . S
H6647 C6629 0.895 1_545 S
C6648 C6649 1.386 . S
C6648 C6650 1.397 . S
C6648 H6672 0.931 . S
C6649 C6648 1.386 . S
C6649 C6653 1.397 . S
C6650 C6648 1.397 . S
C6650 C6651 1.384 . S
C6650 H6673 0.930 . S
C6651 C6650 1.384 . S
C6651 C6652 1.377 . S
C6651 C6654 1.481 . S
C6652 C6651 1.377 . S
C6652 C6653 1.389 . S
C6652 H6674 0.929 . S
C6653 C6649 1.397 . S
C6653 C6652 1.389 . S
C6653 H6675 0.931 . S
C6654 C6651 1.481 . S
C6654 C6655 1.387 . S
C6654 C6659 1.390 . S
C6655 C6654 1.387 . S
C6655 C6656 1.401 . S
C6655 H6676 0.930 . S
C6656 C6655 1.401 . S
C6656 C6657 1.376 . S
C6656 C6665 1.511 . S
C6657 C6656 1.376 . S
C6657 C6658 1.392 . S
C6657 H6678 0.931 . S
C6658 C6657 1.392 . S
C6658 C6659 1.361 . S
C6658 C6660 1.500 . S
C6659 C6654 1.390 . S
C6659 C6658 1.361 . S
C6659 H6677 0.931 . S
C6660 C6658 1.500 . S
C6660 C6661 1.371 . S
C6660 C6662 1.365 . S
C6661 C6660 1.371 . S
C6661 C6671 1.386 . S
C6661 H6679 0.931 . S
C6662 C6660 1.365 . S
C6662 C6663 1.409 . S
C6662 H6680 0.929 . S
C6663 C6662 1.409 . S
C6663 C6664 1.380 . S
C6663 H6681 0.930 . S
C6664 C6663 1.380 . S
C6664 C6671 1.357 . S
C6665 C6656 1.511 . S
C6665 C6666 1.341 . S
C6665 C6667 1.371 . S
C6666 C6665 1.341 . S
C6666 C6670 1.394 . S
C6666 H6682 0.930 . S
C6667 C6665 1.371 . S
C6667 C6668 1.392 . S
C6667 H6683 0.931 . S
C6668 C6667 1.392 . S
C6668 C6669 1.331 . S
C6668 H6686 0.932 . S
C6669 C6668 1.331 . S
C6669 C6670 1.336 . S
C6670 C6666 1.394 . S
C6670 C6669 1.336 . S
C6670 H6685 0.929 . S
C6671 C6661 1.386 . S
C6671 C6664 1.357 . S
C6671 H6684 0.928 . S
H6672 C6648 0.931 . S
H6673 C6650 0.930 . S
H6674 C6652 0.929 . S
H6675 C6653 0.931 . S
H6676 C6655 0.930 . S
H6677 C6659 0.931 . S
H6678 C6657 0.931 . S
H6679 C6661 0.931 . S
H6680 C6662 0.929 . S
H6681 C6663 0.930 . S
H6682 C6666 0.930 . S
H6683 C6667 0.931 . S
H6684 C6671 0.928 . S
H6685 C6670 0.929 . S
H6686 C6668 0.932 . S
C6687 C6688 1.386 . S
C6687 C6689 1.397 . S
C6687 H6711 0.931 . S
C6688 C6687 1.386 . S
C6688 C6692 1.397 . S
C6689 C6687 1.397 . S
C6689 C6690 1.384 . S
C6689 H6712 0.930 . S
C6690 C6689 1.384 . S
C6690 C6691 1.377 . S
C6690 C6693 1.481 . S
C6691 C6690 1.377 . S
C6691 C6692 1.389 . S
C6691 H6713 0.929 . S
C6692 C6688 1.397 . S
C6692 C6691 1.389 . S
C6692 H6714 0.931 . S
C6693 C6690 1.481 . S
C6693 C6694 1.387 . S
C6693 C6698 1.390 . S
C6694 C6693 1.387 . S
C6694 C6695 1.401 . S
C6694 H6715 0.930 . S
C6695 C6694 1.401 . S
C6695 C6696 1.376 . S
C6695 C6704 1.511 . S
C6696 C6695 1.376 . S
C6696 C6697 1.392 . S
C6696 H6717 0.931 . S
C6697 C6696 1.392 . S
C6697 C6698 1.361 . S
C6697 C6699 1.500 . S
C6698 C6693 1.390 . S
C6698 C6697 1.361 . S
C6698 H6716 0.931 . S
C6699 C6697 1.500 . S
C6699 C6700 1.371 . S
C6699 C6701 1.365 . S
C6700 C6699 1.371 . S
C6700 C6710 1.386 . S
C6700 H6718 0.931 . S
C6701 C6699 1.365 . S
C6701 C6702 1.409 . S
C6701 H6719 0.929 . S
C6702 C6701 1.409 . S
C6702 C6703 1.380 . S
C6702 H6720 0.930 . S
C6703 C6702 1.380 . S
C6703 C6710 1.357 . S
C6704 C6695 1.511 . S
C6704 C6705 1.341 . S
C6704 C6706 1.371 . S
C6705 C6704 1.341 . S
C6705 C6709 1.394 . S
C6705 H6721 0.930 . S
C6706 C6704 1.371 . S
C6706 C6707 1.392 . S
C6706 H6722 0.931 . S
C6707 C6706 1.392 . S
C6707 C6708 1.331 . S
C6707 H6725 0.932 . S
C6708 C6707 1.331 . S
C6708 C6709 1.336 . S
C6709 C6705 1.394 . S
C6709 C6708 1.336 . S
C6709 H6724 0.929 . S
C6710 C6700 1.386 . S
C6710 C6703 1.357 . S
C6710 H6723 0.928 . S
H6711 C6687 0.931 . S
H6712 C6689 0.930 . S
H6713 C6691 0.929 . S
H6714 C6692 0.931 . S
H6715 C6694 0.930 . S
H6716 C6698 0.931 . S
H6717 C6696 0.931 . S
H6718 C6700 0.931 . S
H6719 C6701 0.929 . S
H6720 C6702 0.930 . S
H6721 C6705 0.930 . S
H6722 C6706 0.931 . S
H6723 C6710 0.928 . S
H6724 C6709 0.929 . S
H6725 C6707 0.932 . S
C6726 C6727 1.386 . S
C6726 C6728 1.397 . S
C6726 H6750 0.931 . S
C6727 C6726 1.386 . S
C6727 C6731 1.397 . S
C6728 C6726 1.397 . S
C6728 C6729 1.384 . S
C6728 H6751 0.930 . S
C6729 C6728 1.384 . S
C6729 C6730 1.377 . S
C6729 C6732 1.481 . S
C6730 C6729 1.377 . S
C6730 C6731 1.389 . S
C6730 H6752 0.929 . S
C6731 C6727 1.397 . S
C6731 C6730 1.389 . S
C6731 H6753 0.931 . S
C6732 C6729 1.481 . S
C6732 C6733 1.387 . S
C6732 C6737 1.390 . S
C6733 C6732 1.387 . S
C6733 C6734 1.401 . S
C6733 H6754 0.930 . S
C6734 C6733 1.401 . S
C6734 C6735 1.376 . S
C6734 C6743 1.511 . S
C6735 C6734 1.376 . S
C6735 C6736 1.392 . S
C6735 H6756 0.931 . S
C6736 C6735 1.392 . S
C6736 C6737 1.361 . S
C6736 C6738 1.500 . S
C6737 C6732 1.390 . S
C6737 C6736 1.361 . S
C6737 H6755 0.931 . S
C6738 C6736 1.500 . S
C6738 C6739 1.371 . S
C6738 C6740 1.365 . S
C6739 C6738 1.371 . S
C6739 C6749 1.386 . S
C6739 H6757 0.931 . S
C6740 C6738 1.365 . S
C6740 C6741 1.409 . S
C6740 H6758 0.929 . S
C6741 C6740 1.409 . S
C6741 C6742 1.380 . S
C6741 H6759 0.930 . S
C6742 C6741 1.380 . S
C6742 C6749 1.357 . S
C6743 C6734 1.511 . S
C6743 C6744 1.341 . S
C6743 C6745 1.371 . S
C6744 C6743 1.341 . S
C6744 C6748 1.394 . S
C6744 H6760 0.930 . S
C6745 C6743 1.371 . S
C6745 C6746 1.392 . S
C6745 H6761 0.931 . S
C6746 C6745 1.392 . S
C6746 C6747 1.331 . S
C6746 H6764 0.932 . S
C6747 C6746 1.331 . S
C6747 C6748 1.336 . S
C6748 C6744 1.394 . S
C6748 C6747 1.336 . S
C6748 H6763 0.929 . S
C6749 C6739 1.386 . S
C6749 C6742 1.357 . S
C6749 H6762 0.928 . S
H6750 C6726 0.931 . S
H6751 C6728 0.930 . S
H6752 C6730 0.929 . S
H6753 C6731 0.931 . S
H6754 C6733 0.930 . S
H6755 C6737 0.931 . S
H6756 C6735 0.931 . S
H6757 C6739 0.931 . S
H6758 C6740 0.929 . S
H6759 C6741 0.930 . S
H6760 C6744 0.930 . S
H6761 C6745 0.931 . S
H6762 C6749 0.928 . S
H6763 C6748 0.929 . S
H6764 C6746 0.932 . S
C6765 C6766 1.386 . S
C6765 C6767 1.397 . S
C6765 H6789 0.931 . S
C6766 C6765 1.386 . S
C6766 C6770 1.397 . S
C6767 C6765 1.397 . S
C6767 C6768 1.384 . S
C6767 H6790 0.930 . S
C6768 C6767 1.384 . S
C6768 C6769 1.377 . S
C6768 C6771 1.481 . S
C6769 C6768 1.377 . S
C6769 C6770 1.389 . S
C6769 H6791 0.929 . S
C6770 C6766 1.397 . S
C6770 C6769 1.389 . S
C6770 H6792 0.931 . S
C6771 C6768 1.481 . S
C6771 C6772 1.387 . S
C6771 C6776 1.390 . S
C6772 C6771 1.387 . S
C6772 C6773 1.401 . S
C6772 H6793 0.930 . S
C6773 C6772 1.401 . S
C6773 C6774 1.376 . S
C6773 C6782 1.511 . S
C6774 C6773 1.376 . S
C6774 C6775 1.392 . S
C6774 H6795 0.931 . S
C6775 C6774 1.392 . S
C6775 C6776 1.361 . S
C6775 C6777 1.500 . S
C6776 C6771 1.390 . S
C6776 C6775 1.361 . S
C6776 H6794 0.931 . S
C6777 C6775 1.500 . S
C6777 C6778 1.371 . S
C6777 C6779 1.365 . S
C6778 C6777 1.371 . S
C6778 C6788 1.386 . S
C6778 H6796 0.931 . S
C6779 C6777 1.365 . S
C6779 C6780 1.409 . S
C6779 H6797 0.929 . S
C6780 C6779 1.409 . S
C6780 C6781 1.380 . S
C6780 H6798 0.930 . S
C6781 C6780 1.380 . S
C6781 C6788 1.357 . S
C6782 C6773 1.511 . S
C6782 C6783 1.341 . S
C6782 C6784 1.371 . S
C6783 C6782 1.341 . S
C6783 C6787 1.394 . S
C6783 H6799 0.930 . S
C6784 C6782 1.371 . S
C6784 C6785 1.392 . S
C6784 H6800 0.931 . S
C6785 C6784 1.392 . S
C6785 C6786 1.310 1_455 S
C6785 H6803 0.932 . S
C6786 C6785 1.310 1_655 S
C6786 C6787 1.326 1_655 S
C6787 C6783 1.394 . S
C6787 C6786 1.326 1_455 S
C6787 H6802 0.929 1_455 S
C6788 C6778 1.386 . S
C6788 C6781 1.357 . S
C6788 H6801 0.928 . S
H6789 C6765 0.931 . S
H6790 C6767 0.930 . S
H6791 C6769 0.929 . S
H6792 C6770 0.931 . S
H6793 C6772 0.930 . S
H6794 C6776 0.931 . S
H6795 C6774 0.931 . S
H6796 C6778 0.931 . S
H6797 C6779 0.929 . S
H6798 C6780 0.930 . S
H6799 C6783 0.930 . S
H6800 C6784 0.931 . S
H6801 C6788 0.928 . S
H6802 C6787 0.929 1_655 S
H6803 C6785 0.932 . S
C6804 C6805 1.386 . S
C6804 C6806 1.397 . S
C6804 H6828 0.931 . S
C6805 C6804 1.386 . S
C6805 C6809 1.397 . S
C6806 C6804 1.397 . S
C6806 C6807 1.384 . S
C6806 H6829 0.930 . S
C6807 C6806 1.384 . S
C6807 C6808 1.377 . S
C6807 C6810 1.481 . S
C6808 C6807 1.377 . S
C6808 C6809 1.389 . S
C6808 H6830 0.929 . S
C6809 C6805 1.397 . S
C6809 C6808 1.389 . S
C6809 H6831 0.931 . S
C6810 C6807 1.481 . S
C6810 C6811 1.387 . S
C6810 C6815 1.390 . S
C6811 C6810 1.387 . S
C6811 C6812 1.401 . S
C6811 H6832 0.930 . S
C6812 C6811 1.401 . S
C6812 C6813 1.376 . S
C6812 C6821 1.511 . S
C6813 C6812 1.376 . S
C6813 C6814 1.392 . S
C6813 H6834 0.931 . S
C6814 C6813 1.392 . S
C6814 C6815 1.361 . S
C6814 C6816 1.500 . S
C6815 C6810 1.390 . S
C6815 C6814 1.361 . S
C6815 H6833 0.931 . S
C6816 C6814 1.500 . S
C6816 C6817 1.371 . S
C6816 C6818 1.365 . S
C6817 C6816 1.371 . S
C6817 C6827 1.386 . S
C6817 H6835 0.931 . S
C6818 C6816 1.365 . S
C6818 C6819 1.409 . S
C6818 H6836 0.929 . S
C6819 C6818 1.409 . S
C6819 C6820 1.380 . S
C6819 H6837 0.930 . S
C6820 C6819 1.380 . S
C6820 C6827 1.357 . S
C6821 C6812 1.511 . S
C6821 C6822 1.341 . S
C6821 C6823 1.371 . S
C6822 C6821 1.341 . S
C6822 C6826 1.394 . S
C6822 H6838 0.930 . S
C6823 C6821 1.371 . S
C6823 C6824 1.392 . S
C6823 H6839 0.931 . S
C6824 C6823 1.392 . S
C6824 C6825 1.331 . S
C6824 H6842 0.932 . S
C6825 C6824 1.331 . S
C6825 C6826 1.336 . S
C6826 C6822 1.394 . S
C6826 C6825 1.336 . S
C6826 H6841 0.929 . S
C6827 C6817 1.386 . S
C6827 C6820 1.357 . S
C6827 H6840 0.928 . S
H6828 C6804 0.931 . S
H6829 C6806 0.930 . S
H6830 C6808 0.929 . S
H6831 C6809 0.931 . S
H6832 C6811 0.930 . S
H6833 C6815 0.931 . S
H6834 C6813 0.931 . S
H6835 C6817 0.931 . S
H6836 C6818 0.929 . S
H6837 C6819 0.930 . S
H6838 C6822 0.930 . S
H6839 C6823 0.931 . S
H6840 C6827 0.928 . S
H6841 C6826 0.929 . S
H6842 C6824 0.932 . S
C6843 C6844 1.386 . S
C6843 C6845 1.397 . S
C6843 H6867 0.931 . S
C6844 C6843 1.386 . S
C6844 C6848 1.397 . S
C6845 C6843 1.397 . S
C6845 C6846 1.384 . S
C6845 H6868 0.930 . S
C6846 C6845 1.384 . S
C6846 C6847 1.377 . S
C6846 C6849 1.481 . S
C6847 C6846 1.377 . S
C6847 C6848 1.389 . S
C6847 H6869 0.929 . S
C6848 C6844 1.397 . S
C6848 C6847 1.389 . S
C6848 H6870 0.931 . S
C6849 C6846 1.481 . S
C6849 C6850 1.387 . S
C6849 C6854 1.390 . S
C6850 C6849 1.387 . S
C6850 C6851 1.401 . S
C6850 H6871 0.930 . S
C6851 C6850 1.401 . S
C6851 C6852 1.376 . S
C6851 C6860 1.511 . S
C6852 C6851 1.376 . S
C6852 C6853 1.392 . S
C6852 H6873 0.931 . S
C6853 C6852 1.392 . S
C6853 C6854 1.361 . S
C6853 C6855 1.500 . S
C6854 C6849 1.390 . S
C6854 C6853 1.361 . S
C6854 H6872 0.931 . S
C6855 C6853 1.500 . S
C6855 C6856 1.371 . S
C6855 C6857 1.365 . S
C6856 C6855 1.371 . S
C6856 C6866 1.386 . S
C6856 H6874 0.931 . S
C6857 C6855 1.365 . S
C6857 C6858 1.409 . S
C6857 H6875 0.929 . S
C6858 C6857 1.409 . S
C6858 C6859 1.380 . S
C6858 H6876 0.930 . S
C6859 C6858 1.380 . S
C6859 C6866 1.357 . S
C6860 C6851 1.511 . S
C6860 C6861 1.341 . S
C6860 C6862 1.371 . S
C6861 C6860 1.341 . S
C6861 C6865 1.394 . S
C6861 H6877 0.930 . S
C6862 C6860 1.371 . S
C6862 C6863 1.392 . S
C6862 H6878 0.931 . S
C6863 C6862 1.392 . S
C6863 C6864 1.310 1_455 S
C6863 H6881 0.932 . S
C6864 C6863 1.310 1_655 S
C6864 C6865 1.326 1_655 S
C6865 C6861 1.394 . S
C6865 C6864 1.326 1_455 S
C6865 H6880 0.929 1_455 S
C6866 C6856 1.386 . S
C6866 C6859 1.357 . S
C6866 H6879 0.928 . S
H6867 C6843 0.931 . S
H6868 C6845 0.930 . S
H6869 C6847 0.929 . S
H6870 C6848 0.931 . S
H6871 C6850 0.930 . S
H6872 C6854 0.931 . S
H6873 C6852 0.931 . S
H6874 C6856 0.931 . S
H6875 C6857 0.929 . S
H6876 C6858 0.930 . S
H6877 C6861 0.930 . S
H6878 C6862 0.931 . S
H6879 C6866 0.928 . S
H6880 C6865 0.929 1_655 S
H6881 C6863 0.932 . S
C6882 C6883 1.386 . S
C6882 C6884 1.397 . S
C6882 H6906 0.931 . S
C6883 C6882 1.386 . S
C6883 C6887 1.397 . S
C6884 C6882 1.397 . S
C6884 C6885 1.384 . S
C6884 H6907 0.930 . S
C6885 C6884 1.384 . S
C6885 C6886 1.377 . S
C6885 C6888 1.481 . S
C6886 C6885 1.377 . S
C6886 C6887 1.389 . S
C6886 H6908 0.929 . S
C6887 C6883 1.397 . S
C6887 C6886 1.389 . S
C6887 H6909 0.931 . S
C6888 C6885 1.481 . S
C6888 C6889 1.387 . S
C6888 C6893 1.390 . S
C6889 C6888 1.387 . S
C6889 C6890 1.401 . S
C6889 H6910 0.930 . S
C6890 C6889 1.401 . S
C6890 C6891 1.376 . S
C6890 C6899 1.511 . S
C6891 C6890 1.376 . S
C6891 C6892 1.392 . S
C6891 H6912 0.931 . S
C6892 C6891 1.392 . S
C6892 C6893 1.361 . S
C6892 C6894 1.500 . S
C6893 C6888 1.390 . S
C6893 C6892 1.361 . S
C6893 H6911 0.931 . S
C6894 C6892 1.500 . S
C6894 C6895 1.371 . S
C6894 C6896 1.365 . S
C6895 C6894 1.371 . S
C6895 C6905 1.386 . S
C6895 H6913 0.931 . S
C6896 C6894 1.365 . S
C6896 C6897 1.409 . S
C6896 H6914 0.929 . S
C6897 C6896 1.409 . S
C6897 C6898 1.380 . S
C6897 H6915 0.930 . S
C6898 C6897 1.380 . S
C6898 C6905 1.357 . S
C6899 C6890 1.511 . S
C6899 C6900 1.341 . S
C6899 C6901 1.371 . S
C6900 C6899 1.341 . S
C6900 C6904 1.394 . S
C6900 H6916 0.930 . S
C6901 C6899 1.371 . S
C6901 C6902 1.392 . S
C6901 H6917 0.931 . S
C6902 C6901 1.392 . S
C6902 C6903 1.331 . S
C6902 H6920 0.932 . S
C6903 C6902 1.331 . S
C6903 C6904 1.336 . S
C6904 C6900 1.394 . S
C6904 C6903 1.336 . S
C6904 H6919 0.929 . S
C6905 C6895 1.386 . S
C6905 C6898 1.357 . S
C6905 H6918 0.928 . S
H6906 C6882 0.931 . S
H6907 C6884 0.930 . S
H6908 C6886 0.929 . S
H6909 C6887 0.931 . S
H6910 C6889 0.930 . S
H6911 C6893 0.931 . S
H6912 C6891 0.931 . S
H6913 C6895 0.931 . S
H6914 C6896 0.929 . S
H6915 C6897 0.930 . S
H6916 C6900 0.930 . S
H6917 C6901 0.931 . S
H6918 C6905 0.928 . S
H6919 C6904 0.929 . S
H6920 C6902 0.932 . S
C6921 C6922 1.386 . S
C6921 C6923 1.397 . S
C6921 H6945 0.931 . S
C6922 C6921 1.386 . S
C6922 C6926 1.397 . S
C6923 C6921 1.397 . S
C6923 C6924 1.384 . S
C6923 H6946 0.930 . S
C6924 C6923 1.384 . S
C6924 C6925 1.377 . S
C6924 C6927 1.481 . S
C6925 C6924 1.377 . S
C6925 C6926 1.389 . S
C6925 H6947 0.929 . S
C6926 C6922 1.397 . S
C6926 C6925 1.389 . S
C6926 H6948 0.931 . S
C6927 C6924 1.481 . S
C6927 C6928 1.387 . S
C6927 C6932 1.390 . S
C6928 C6927 1.387 . S
C6928 C6929 1.401 . S
C6928 H6949 0.930 . S
C6929 C6928 1.401 . S
C6929 C6930 1.376 . S
C6929 C6938 1.511 . S
C6930 C6929 1.376 . S
C6930 C6931 1.392 . S
C6930 H6951 0.931 . S
C6931 C6930 1.392 . S
C6931 C6932 1.361 . S
C6931 C6933 1.500 . S
C6932 C6927 1.390 . S
C6932 C6931 1.361 . S
C6932 H6950 0.931 . S
C6933 C6931 1.500 . S
C6933 C6934 1.371 . S
C6933 C6935 1.365 . S
C6934 C6933 1.371 . S
C6934 C6944 1.386 . S
C6934 H6952 0.931 . S
C6935 C6933 1.365 . S
C6935 C6936 1.409 . S
C6935 H6953 0.929 . S
C6936 C6935 1.409 . S
C6936 C6937 1.380 . S
C6936 H6954 0.930 . S
C6937 C6936 1.380 . S
C6937 C6944 1.357 . S
C6938 C6929 1.511 . S
C6938 C6939 1.341 . S
C6938 C6940 1.371 . S
C6939 C6938 1.341 . S
C6939 C6943 1.394 . S
C6939 H6955 0.930 . S
C6940 C6938 1.371 . S
C6940 C6941 1.392 . S
C6940 H6956 0.931 . S
C6941 C6940 1.392 . S
C6941 C6942 1.331 . S
C6941 H6959 0.932 . S
C6942 C6941 1.331 . S
C6942 C6943 1.336 . S
C6943 C6939 1.394 . S
C6943 C6942 1.336 . S
C6943 H6958 0.929 . S
C6944 C6934 1.386 . S
C6944 C6937 1.357 . S
C6944 H6957 0.928 . S
H6945 C6921 0.931 . S
H6946 C6923 0.930 . S
H6947 C6925 0.929 . S
H6948 C6926 0.931 . S
H6949 C6928 0.930 . S
H6950 C6932 0.931 . S
H6951 C6930 0.931 . S
H6952 C6934 0.931 . S
H6953 C6935 0.929 . S
H6954 C6936 0.930 . S
H6955 C6939 0.930 . S
H6956 C6940 0.931 . S
H6957 C6944 0.928 . S
H6958 C6943 0.929 . S
H6959 C6941 0.932 . S
C6960 C6961 1.386 . S
C6960 C6962 1.397 . S
C6960 H6984 0.931 . S
C6961 C6960 1.386 . S
C6961 C6965 1.397 . S
C6962 C6960 1.397 . S
C6962 C6963 1.384 . S
C6962 H6985 0.930 . S
C6963 C6962 1.384 . S
C6963 C6964 1.377 . S
C6963 C6966 1.481 . S
C6964 C6963 1.377 . S
C6964 C6965 1.389 . S
C6964 H6986 0.929 . S
C6965 C6961 1.397 . S
C6965 C6964 1.389 . S
C6965 H6987 0.931 . S
C6966 C6963 1.481 . S
C6966 C6967 1.387 . S
C6966 C6971 1.390 . S
C6967 C6966 1.387 . S
C6967 C6968 1.401 . S
C6967 H6988 0.930 . S
C6968 C6967 1.401 . S
C6968 C6969 1.376 . S
C6968 C6977 1.511 . S
C6969 C6968 1.376 . S
C6969 C6970 1.392 . S
C6969 H6990 0.931 . S
C6970 C6969 1.392 . S
C6970 C6971 1.361 . S
C6970 C6972 1.500 . S
C6971 C6966 1.390 . S
C6971 C6970 1.361 . S
C6971 H6989 0.931 . S
C6972 C6970 1.500 . S
C6972 C6973 1.371 . S
C6972 C6974 1.365 . S
C6973 C6972 1.371 . S
C6973 C6983 1.386 . S
C6973 H6991 0.931 . S
C6974 C6972 1.365 . S
C6974 C6975 1.409 . S
C6974 H6992 0.929 . S
C6975 C6974 1.409 . S
C6975 C6976 1.380 . S
C6975 H6993 0.930 . S
C6976 C6975 1.380 . S
C6976 C6983 1.357 . S
C6977 C6968 1.511 . S
C6977 C6978 1.341 . S
C6977 C6979 1.371 . S
C6978 C6977 1.341 . S
C6978 C6982 1.394 . S
C6978 H6994 0.930 . S
C6979 C6977 1.371 . S
C6979 C6980 1.392 . S
C6979 H6995 0.931 . S
C6980 C6979 1.392 . S
C6980 C6981 1.331 . S
C6980 H6998 0.932 . S
C6981 C6980 1.331 . S
C6981 C6982 1.336 . S
C6982 C6978 1.394 . S
C6982 C6981 1.336 . S
C6982 H6997 0.929 . S
C6983 C6973 1.386 . S
C6983 C6976 1.357 . S
C6983 H6996 0.928 . S
H6984 C6960 0.931 . S
H6985 C6962 0.930 . S
H6986 C6964 0.929 . S
H6987 C6965 0.931 . S
H6988 C6967 0.930 . S
H6989 C6971 0.931 . S
H6990 C6969 0.931 . S
H6991 C6973 0.931 . S
H6992 C6974 0.929 . S
H6993 C6975 0.930 . S
H6994 C6978 0.930 . S
H6995 C6979 0.931 . S
H6996 C6983 0.928 . S
H6997 C6982 0.929 . S
H6998 C6980 0.932 . S
C6999 C7000 1.386 . S
C6999 C7001 1.397 . S
C6999 H7023 0.931 . S
C7000 C6999 1.386 . S
C7000 C7004 1.397 . S
C7001 C6999 1.397 . S
C7001 C7002 1.384 . S
C7001 H7024 0.930 . S
C7002 C7001 1.384 . S
C7002 C7003 1.377 . S
C7002 C7005 1.481 . S
C7003 C7002 1.377 . S
C7003 C7004 1.389 . S
C7003 H7025 0.929 . S
C7004 C7000 1.397 . S
C7004 C7003 1.389 . S
C7004 H7026 0.931 . S
C7005 C7002 1.481 . S
C7005 C7006 1.387 . S
C7005 C7010 1.390 . S
C7006 C7005 1.387 . S
C7006 C7007 1.401 . S
C7006 H7027 0.930 . S
C7007 C7006 1.401 . S
C7007 C7008 1.376 . S
C7007 C7016 1.511 . S
C7008 C7007 1.376 . S
C7008 C7009 1.392 . S
C7008 H7029 0.931 . S
C7009 C7008 1.392 . S
C7009 C7010 1.361 . S
C7009 C7011 1.500 . S
C7010 C7005 1.390 . S
C7010 C7009 1.361 . S
C7010 H7028 0.931 . S
C7011 C7009 1.500 . S
C7011 C7012 1.371 . S
C7011 C7013 1.365 . S
C7012 C7011 1.371 . S
C7012 C7022 1.386 . S
C7012 H7030 0.931 . S
C7013 C7011 1.365 . S
C7013 C7014 1.409 . S
C7013 H7031 0.929 . S
C7014 C7013 1.409 . S
C7014 C7015 1.380 . S
C7014 H7032 0.930 . S
C7015 C7014 1.380 . S
C7015 C7022 1.357 . S
C7016 C7007 1.511 . S
C7016 C7017 1.341 . S
C7016 C7018 1.371 . S
C7017 C7016 1.341 . S
C7017 C7021 1.394 . S
C7017 H7033 0.930 . S
C7018 C7016 1.371 . S
C7018 C7019 1.392 . S
C7018 H7034 0.931 . S
C7019 C7018 1.392 . S
C7019 C7020 1.315 1_554 S
C7019 H7037 0.932 1_554 S
C7020 C7019 1.315 1_556 S
C7020 C7021 1.300 1_556 S
C7021 C7017 1.394 . S
C7021 C7020 1.300 1_554 S
C7021 H7036 0.929 . S
C7022 C7012 1.386 . S
C7022 C7015 1.357 . S
C7022 H7035 0.928 . S
H7023 C6999 0.931 . S
H7024 C7001 0.930 . S
H7025 C7003 0.929 . S
H7026 C7004 0.931 . S
H7027 C7006 0.930 . S
H7028 C7010 0.931 . S
H7029 C7008 0.931 . S
H7030 C7012 0.931 . S
H7031 C7013 0.929 . S
H7032 C7014 0.930 . S
H7033 C7017 0.930 . S
H7034 C7018 0.931 . S
H7035 C7022 0.928 . S
H7036 C7021 0.929 . S
H7037 C7019 0.932 1_556 S
C7038 C7039 1.386 . S
C7038 C7040 1.397 . S
C7038 H7062 0.931 . S
C7039 C7038 1.386 . S
C7039 C7043 1.397 . S
C7040 C7038 1.397 . S
C7040 C7041 1.384 . S
C7040 H7063 0.930 . S
C7041 C7040 1.384 . S
C7041 C7042 1.377 . S
C7041 C7044 1.481 . S
C7042 C7041 1.377 . S
C7042 C7043 1.389 . S
C7042 H7064 0.929 . S
C7043 C7039 1.397 . S
C7043 C7042 1.389 . S
C7043 H7065 0.931 . S
C7044 C7041 1.481 . S
C7044 C7045 1.387 . S
C7044 C7049 1.390 . S
C7045 C7044 1.387 . S
C7045 C7046 1.401 . S
C7045 H7066 0.930 . S
C7046 C7045 1.401 . S
C7046 C7047 1.376 . S
C7046 C7055 1.511 . S
C7047 C7046 1.376 . S
C7047 C7048 1.392 . S
C7047 H7068 0.931 . S
C7048 C7047 1.392 . S
C7048 C7049 1.361 . S
C7048 C7050 1.500 . S
C7049 C7044 1.390 . S
C7049 C7048 1.361 . S
C7049 H7067 0.931 . S
C7050 C7048 1.500 . S
C7050 C7051 1.371 . S
C7050 C7052 1.365 . S
C7051 C7050 1.371 . S
C7051 C7061 1.386 . S
C7051 H7069 0.931 . S
C7052 C7050 1.365 . S
C7052 C7053 1.409 . S
C7052 H7070 0.929 . S
C7053 C7052 1.409 . S
C7053 C7054 1.380 . S
C7053 H7071 0.930 . S
C7054 C7053 1.380 . S
C7054 C7061 1.357 . S
C7055 C7046 1.511 . S
C7055 C7056 1.341 . S
C7055 C7057 1.371 . S
C7056 C7055 1.341 . S
C7056 C7060 1.394 . S
C7056 H7072 0.930 . S
C7057 C7055 1.371 . S
C7057 C7058 1.392 . S
C7057 H7073 0.931 . S
C7058 C7057 1.392 . S
C7058 C7059 1.331 . S
C7058 H7076 0.932 . S
C7059 C7058 1.331 . S
C7059 C7060 1.336 . S
C7060 C7056 1.394 . S
C7060 C7059 1.336 . S
C7060 H7075 0.929 . S
C7061 C7051 1.386 . S
C7061 C7054 1.357 . S
C7061 H7074 0.928 . S
H7062 C7038 0.931 . S
H7063 C7040 0.930 . S
H7064 C7042 0.929 . S
H7065 C7043 0.931 . S
H7066 C7045 0.930 . S
H7067 C7049 0.931 . S
H7068 C7047 0.931 . S
H7069 C7051 0.931 . S
H7070 C7052 0.929 . S
H7071 C7053 0.930 . S
H7072 C7056 0.930 . S
H7073 C7057 0.931 . S
H7074 C7061 0.928 . S
H7075 C7060 0.929 . S
H7076 C7058 0.932 . S
C7077 C7078 1.386 . S
C7077 C7079 1.397 . S
C7077 H7101 0.931 . S
C7078 C7077 1.386 . S
C7078 C7082 1.397 . S
C7079 C7077 1.397 . S
C7079 C7080 1.384 . S
C7079 H7102 0.930 . S
C7080 C7079 1.384 . S
C7080 C7081 1.377 . S
C7080 C7083 1.481 . S
C7081 C7080 1.377 . S
C7081 C7082 1.389 . S
C7081 H7103 0.929 . S
C7082 C7078 1.397 . S
C7082 C7081 1.389 . S
C7082 H7104 0.931 . S
C7083 C7080 1.481 . S
C7083 C7084 1.387 . S
C7083 C7088 1.390 . S
C7084 C7083 1.387 . S
C7084 C7085 1.401 . S
C7084 H7105 0.930 . S
C7085 C7084 1.401 . S
C7085 C7086 1.376 . S
C7085 C7094 1.511 . S
C7086 C7085 1.376 . S
C7086 C7087 1.392 . S
C7086 H7107 0.931 . S
C7087 C7086 1.392 . S
C7087 C7088 1.361 . S
C7087 C7089 1.500 . S
C7088 C7083 1.390 . S
C7088 C7087 1.361 . S
C7088 H7106 0.931 . S
C7089 C7087 1.500 . S
C7089 C7090 1.371 . S
C7089 C7091 1.365 . S
C7090 C7089 1.371 . S
C7090 C7100 1.386 . S
C7090 H7108 0.931 . S
C7091 C7089 1.365 . S
C7091 C7092 1.409 . S
C7091 H7109 0.929 . S
C7092 C7091 1.409 . S
C7092 C7093 1.380 . S
C7092 H7110 0.930 . S
C7093 C7092 1.380 . S
C7093 C7100 1.357 . S
C7094 C7085 1.511 . S
C7094 C7095 1.341 . S
C7094 C7096 1.371 . S
C7095 C7094 1.341 . S
C7095 C7099 1.394 . S
C7095 H7111 0.930 . S
C7096 C7094 1.371 . S
C7096 C7097 1.392 . S
C7096 H7112 0.931 . S
C7097 C7096 1.392 . S
C7097 C7098 1.331 . S
C7097 H7115 0.932 . S
C7098 C7097 1.331 . S
C7098 C7099 1.336 . S
C7099 C7095 1.394 . S
C7099 C7098 1.336 . S
C7099 H7114 0.929 . S
C7100 C7090 1.386 . S
C7100 C7093 1.357 . S
C7100 H7113 0.928 . S
H7101 C7077 0.931 . S
H7102 C7079 0.930 . S
H7103 C7081 0.929 . S
H7104 C7082 0.931 . S
H7105 C7084 0.930 . S
H7106 C7088 0.931 . S
H7107 C7086 0.931 . S
H7108 C7090 0.931 . S
H7109 C7091 0.929 . S
H7110 C7092 0.930 . S
H7111 C7095 0.930 . S
H7112 C7096 0.931 . S
H7113 C7100 0.928 . S
H7114 C7099 0.929 . S
H7115 C7097 0.932 . S
C7116 C7117 1.386 . S
C7116 C7118 1.397 . S
C7116 H7140 0.931 . S
C7117 C7116 1.386 . S
C7117 C7121 1.397 . S
C7118 C7116 1.397 . S
C7118 C7119 1.384 . S
C7118 H7141 0.930 . S
C7119 C7118 1.384 . S
C7119 C7120 1.377 . S
C7119 C7122 1.481 . S
C7120 C7119 1.377 . S
C7120 C7121 1.389 . S
C7120 H7142 0.929 . S
C7121 C7117 1.397 . S
C7121 C7120 1.389 . S
C7121 H7143 0.931 . S
C7122 C7119 1.481 . S
C7122 C7123 1.387 . S
C7122 C7127 1.390 . S
C7123 C7122 1.387 . S
C7123 C7124 1.401 . S
C7123 H7144 0.930 . S
C7124 C7123 1.401 . S
C7124 C7125 1.376 . S
C7124 C7133 1.511 . S
C7125 C7124 1.376 . S
C7125 C7126 1.392 . S
C7125 H7146 0.931 . S
C7126 C7125 1.392 . S
C7126 C7127 1.361 . S
C7126 C7128 1.500 . S
C7127 C7122 1.390 . S
C7127 C7126 1.361 . S
C7127 H7145 0.931 . S
C7128 C7126 1.500 . S
C7128 C7129 1.371 . S
C7128 C7130 1.365 . S
C7129 C7128 1.371 . S
C7129 C7139 1.386 . S
C7129 H7147 0.931 . S
C7130 C7128 1.365 . S
C7130 C7131 1.409 . S
C7130 H7148 0.929 . S
C7131 C7130 1.409 . S
C7131 C7132 1.380 . S
C7131 H7149 0.930 . S
C7132 C7131 1.380 . S
C7132 C7139 1.357 . S
C7133 C7124 1.511 . S
C7133 C7134 1.341 . S
C7133 C7135 1.371 . S
C7134 C7133 1.341 . S
C7134 C7138 1.394 . S
C7134 H7150 0.930 . S
C7135 C7133 1.371 . S
C7135 C7136 1.392 . S
C7135 H7151 0.931 . S
C7136 C7135 1.392 . S
C7136 C7137 1.331 . S
C7136 H7154 0.932 . S
C7137 C7136 1.331 . S
C7137 C7138 1.336 . S
C7138 C7134 1.394 . S
C7138 C7137 1.336 . S
C7138 H7153 0.929 . S
C7139 C7129 1.386 . S
C7139 C7132 1.357 . S
C7139 H7152 0.928 . S
H7140 C7116 0.931 . S
H7141 C7118 0.930 . S
H7142 C7120 0.929 . S
H7143 C7121 0.931 . S
H7144 C7123 0.930 . S
H7145 C7127 0.931 . S
H7146 C7125 0.931 . S
H7147 C7129 0.931 . S
H7148 C7130 0.929 . S
H7149 C7131 0.930 . S
H7150 C7134 0.930 . S
H7151 C7135 0.931 . S
H7152 C7139 0.928 . S
H7153 C7138 0.929 . S
H7154 C7136 0.932 . S
C7155 C7156 1.386 . S
C7155 C7157 1.397 . S
C7155 H7179 0.931 . S
C7156 C7155 1.386 . S
C7156 C7160 1.397 . S
C7157 C7155 1.397 . S
C7157 C7158 1.384 . S
C7157 H7180 0.930 . S
C7158 C7157 1.384 . S
C7158 C7159 1.377 . S
C7158 C7161 1.481 . S
C7159 C7158 1.377 . S
C7159 C7160 1.389 . S
C7159 H7181 0.929 . S
C7160 C7156 1.397 . S
C7160 C7159 1.389 . S
C7160 H7182 0.931 . S
C7161 C7158 1.481 . S
C7161 C7162 1.387 . S
C7161 C7166 1.390 . S
C7162 C7161 1.387 . S
C7162 C7163 1.401 . S
C7162 H7183 0.930 . S
C7163 C7162 1.401 . S
C7163 C7164 1.376 . S
C7163 C7172 1.511 . S
C7164 C7163 1.376 . S
C7164 C7165 1.392 . S
C7164 H7185 0.931 . S
C7165 C7164 1.392 . S
C7165 C7166 1.361 . S
C7165 C7167 1.500 . S
C7166 C7161 1.390 . S
C7166 C7165 1.361 . S
C7166 H7184 0.931 . S
C7167 C7165 1.500 . S
C7167 C7168 1.371 . S
C7167 C7169 1.365 . S
C7168 C7167 1.371 . S
C7168 C7178 1.386 . S
C7168 H7186 0.931 . S
C7169 C7167 1.365 . S
C7169 C7170 1.409 . S
C7169 H7187 0.929 . S
C7170 C7169 1.409 . S
C7170 C7171 1.380 . S
C7170 H7188 0.930 . S
C7171 C7170 1.380 . S
C7171 C7178 1.357 . S
C7172 C7163 1.511 . S
C7172 C7173 1.341 . S
C7172 C7174 1.371 . S
C7173 C7172 1.341 . S
C7173 C7177 1.394 . S
C7173 H7189 0.930 . S
C7174 C7172 1.371 . S
C7174 C7175 1.392 . S
C7174 H7190 0.931 . S
C7175 C7174 1.392 . S
C7175 C7176 1.307 1_556 S
C7175 H7193 0.932 . S
C7176 C7175 1.307 1_554 S
C7176 C7177 1.325 1_554 S
C7177 C7173 1.394 . S
C7177 C7176 1.325 1_556 S
C7177 H7192 0.929 1_556 S
C7178 C7168 1.386 . S
C7178 C7171 1.357 . S
C7178 H7191 0.928 . S
H7179 C7155 0.931 . S
H7180 C7157 0.930 . S
H7181 C7159 0.929 . S
H7182 C7160 0.931 . S
H7183 C7162 0.930 . S
H7184 C7166 0.931 . S
H7185 C7164 0.931 . S
H7186 C7168 0.931 . S
H7187 C7169 0.929 . S
H7188 C7170 0.930 . S
H7189 C7173 0.930 . S
H7190 C7174 0.931 . S
H7191 C7178 0.928 . S
H7192 C7177 0.929 1_554 S
H7193 C7175 0.932 . S
C7194 C7195 1.386 . S
C7194 C7196 1.397 . S
C7194 H7218 0.931 . S
C7195 C7194 1.386 . S
C7195 C7199 1.397 . S
C7196 C7194 1.397 . S
C7196 C7197 1.384 . S
C7196 H7219 0.930 . S
C7197 C7196 1.384 . S
C7197 C7198 1.377 . S
C7197 C7200 1.481 . S
C7198 C7197 1.377 . S
C7198 C7199 1.389 . S
C7198 H7220 0.929 . S
C7199 C7195 1.397 . S
C7199 C7198 1.389 . S
C7199 H7221 0.931 . S
C7200 C7197 1.481 . S
C7200 C7201 1.387 . S
C7200 C7205 1.390 . S
C7201 C7200 1.387 . S
C7201 C7202 1.401 . S
C7201 H7222 0.930 . S
C7202 C7201 1.401 . S
C7202 C7203 1.376 . S
C7202 C7211 1.511 . S
C7203 C7202 1.376 . S
C7203 C7204 1.392 . S
C7203 H7224 0.931 . S
C7204 C7203 1.392 . S
C7204 C7205 1.361 . S
C7204 C7206 1.500 . S
C7205 C7200 1.390 . S
C7205 C7204 1.361 . S
C7205 H7223 0.931 . S
C7206 C7204 1.500 . S
C7206 C7207 1.371 . S
C7206 C7208 1.365 . S
C7207 C7206 1.371 . S
C7207 C7217 1.386 . S
C7207 H7225 0.931 . S
C7208 C7206 1.365 . S
C7208 C7209 1.409 . S
C7208 H7226 0.929 . S
C7209 C7208 1.409 . S
C7209 C7210 1.380 . S
C7209 H7227 0.930 . S
C7210 C7209 1.380 . S
C7210 C7217 1.357 . S
C7211 C7202 1.511 . S
C7211 C7212 1.341 . S
C7211 C7213 1.371 . S
C7212 C7211 1.341 . S
C7212 C7216 1.394 . S
C7212 H7228 0.930 . S
C7213 C7211 1.371 . S
C7213 C7214 1.392 . S
C7213 H7229 0.931 . S
C7214 C7213 1.392 . S
C7214 C7215 1.331 . S
C7214 H7232 0.932 . S
C7215 C7214 1.331 . S
C7215 C7216 1.336 . S
C7216 C7212 1.394 . S
C7216 C7215 1.336 . S
C7216 H7231 0.929 . S
C7217 C7207 1.386 . S
C7217 C7210 1.357 . S
C7217 H7230 0.928 . S
H7218 C7194 0.931 . S
H7219 C7196 0.930 . S
H7220 C7198 0.929 . S
H7221 C7199 0.931 . S
H7222 C7201 0.930 . S
H7223 C7205 0.931 . S
H7224 C7203 0.931 . S
H7225 C7207 0.931 . S
H7226 C7208 0.929 . S
H7227 C7209 0.930 . S
H7228 C7212 0.930 . S
H7229 C7213 0.931 . S
H7230 C7217 0.928 . S
H7231 C7216 0.929 . S
H7232 C7214 0.932 . S
C7233 C7234 1.386 . S
C7233 C7235 1.397 . S
C7233 H7257 0.931 . S
C7234 C7233 1.386 . S
C7234 C7238 1.397 . S
C7235 C7233 1.397 . S
C7235 C7236 1.384 . S
C7235 H7258 0.930 . S
C7236 C7235 1.384 . S
C7236 C7237 1.377 . S
C7236 C7239 1.481 . S
C7237 C7236 1.377 . S
C7237 C7238 1.389 . S
C7237 H7259 0.929 . S
C7238 C7234 1.397 . S
C7238 C7237 1.389 . S
C7238 H7260 0.931 . S
C7239 C7236 1.481 . S
C7239 C7240 1.387 . S
C7239 C7244 1.390 . S
C7240 C7239 1.387 . S
C7240 C7241 1.401 . S
C7240 H7261 0.930 . S
C7241 C7240 1.401 . S
C7241 C7242 1.376 . S
C7241 C7250 1.511 . S
C7242 C7241 1.376 . S
C7242 C7243 1.392 . S
C7242 H7263 0.931 . S
C7243 C7242 1.392 . S
C7243 C7244 1.361 . S
C7243 C7245 1.500 . S
C7244 C7239 1.390 . S
C7244 C7243 1.361 . S
C7244 H7262 0.931 . S
C7245 C7243 1.500 . S
C7245 C7246 1.371 . S
C7245 C7247 1.365 . S
C7246 C7245 1.371 . S
C7246 C7256 1.386 . S
C7246 H7264 0.931 . S
C7247 C7245 1.365 . S
C7247 C7248 1.409 . S
C7247 H7265 0.929 . S
C7248 C7247 1.409 . S
C7248 C7249 1.380 . S
C7248 H7266 0.930 . S
C7249 C7248 1.380 . S
C7249 C7256 1.357 . S
C7250 C7241 1.511 . S
C7250 C7251 1.341 . S
C7250 C7252 1.371 . S
C7251 C7250 1.341 . S
C7251 C7255 1.394 . S
C7251 H7267 0.930 . S
C7252 C7250 1.371 . S
C7252 C7253 1.392 . S
C7252 H7268 0.931 . S
C7253 C7252 1.392 . S
C7253 C7254 1.331 . S
C7253 H7271 0.932 . S
C7254 C7253 1.331 . S
C7254 C7255 1.336 . S
C7255 C7251 1.394 . S
C7255 C7254 1.336 . S
C7255 H7270 0.929 . S
C7256 C7246 1.386 . S
C7256 C7249 1.357 . S
C7256 H7269 0.928 . S
H7257 C7233 0.931 . S
H7258 C7235 0.930 . S
H7259 C7237 0.929 . S
H7260 C7238 0.931 . S
H7261 C7240 0.930 . S
H7262 C7244 0.931 . S
H7263 C7242 0.931 . S
H7264 C7246 0.931 . S
H7265 C7247 0.929 . S
H7266 C7248 0.930 . S
H7267 C7251 0.930 . S
H7268 C7252 0.931 . S
H7269 C7256 0.928 . S
H7270 C7255 0.929 . S
H7271 C7253 0.932 . S
C7272 C7273 1.386 . S
C7272 C7274 1.397 . S
C7272 H7296 0.931 . S
C7273 C7272 1.386 . S
C7273 C7277 1.397 . S
C7274 C7272 1.397 . S
C7274 C7275 1.384 . S
C7274 H7297 0.930 . S
C7275 C7274 1.384 . S
C7275 C7276 1.377 . S
C7275 C7278 1.481 . S
C7276 C7275 1.377 . S
C7276 C7277 1.389 . S
C7276 H7298 0.929 . S
C7277 C7273 1.397 . S
C7277 C7276 1.389 . S
C7277 H7299 0.931 . S
C7278 C7275 1.481 . S
C7278 C7279 1.387 . S
C7278 C7283 1.390 . S
C7279 C7278 1.387 . S
C7279 C7280 1.401 . S
C7279 H7300 0.930 . S
C7280 C7279 1.401 . S
C7280 C7281 1.376 . S
C7280 C7289 1.511 . S
C7281 C7280 1.376 . S
C7281 C7282 1.392 . S
C7281 H7302 0.931 . S
C7282 C7281 1.392 . S
C7282 C7283 1.361 . S
C7282 C7284 1.500 . S
C7283 C7278 1.390 . S
C7283 C7282 1.361 . S
C7283 H7301 0.931 . S
C7284 C7282 1.500 . S
C7284 C7285 1.371 . S
C7284 C7286 1.365 . S
C7285 C7284 1.371 . S
C7285 C7295 1.386 . S
C7285 H7303 0.931 . S
C7286 C7284 1.365 . S
C7286 C7287 1.409 . S
C7286 H7304 0.929 . S
C7287 C7286 1.409 . S
C7287 C7288 1.380 . S
C7287 H7305 0.930 . S
C7288 C7287 1.380 . S
C7288 C7295 1.357 . S
C7289 C7280 1.511 . S
C7289 C7290 1.341 . S
C7289 C7291 1.371 . S
C7290 C7289 1.341 . S
C7290 C7294 1.394 . S
C7290 H7306 0.930 . S
C7291 C7289 1.371 . S
C7291 C7292 1.392 . S
C7291 H7307 0.931 . S
C7292 C7291 1.392 . S
C7292 C7293 1.331 . S
C7292 H7310 0.932 . S
C7293 C7292 1.331 . S
C7293 C7294 1.336 . S
C7294 C7290 1.394 . S
C7294 C7293 1.336 . S
C7294 H7309 0.929 . S
C7295 C7285 1.386 . S
C7295 C7288 1.357 . S
C7295 H7308 0.928 . S
H7296 C7272 0.931 . S
H7297 C7274 0.930 . S
H7298 C7276 0.929 . S
H7299 C7277 0.931 . S
H7300 C7279 0.930 . S
H7301 C7283 0.931 . S
H7302 C7281 0.931 . S
H7303 C7285 0.931 . S
H7304 C7286 0.929 . S
H7305 C7287 0.930 . S
H7306 C7290 0.930 . S
H7307 C7291 0.931 . S
H7308 C7295 0.928 . S
H7309 C7294 0.929 . S
H7310 C7292 0.932 . S
C7311 C7312 1.386 . S
C7311 C7313 1.397 . S
C7311 H7335 0.931 . S
C7312 C7311 1.386 . S
C7312 C7316 1.397 . S
C7313 C7311 1.397 . S
C7313 C7314 1.384 . S
C7313 H7336 0.930 . S
C7314 C7313 1.384 . S
C7314 C7315 1.377 . S
C7314 C7317 1.481 . S
C7315 C7314 1.377 . S
C7315 C7316 1.389 . S
C7315 H7337 0.929 . S
C7316 C7312 1.397 . S
C7316 C7315 1.389 . S
C7316 H7338 0.931 . S
C7317 C7314 1.481 . S
C7317 C7318 1.387 . S
C7317 C7322 1.390 . S
C7318 C7317 1.387 . S
C7318 C7319 1.401 . S
C7318 H7339 0.930 . S
C7319 C7318 1.401 . S
C7319 C7320 1.376 . S
C7319 C7328 1.511 . S
C7320 C7319 1.376 . S
C7320 C7321 1.392 . S
C7320 H7341 0.931 . S
C7321 C7320 1.392 . S
C7321 C7322 1.361 . S
C7321 C7323 1.500 . S
C7322 C7317 1.390 . S
C7322 C7321 1.361 . S
C7322 H7340 0.931 . S
C7323 C7321 1.500 . S
C7323 C7324 1.371 . S
C7323 C7325 1.365 . S
C7324 C7323 1.371 . S
C7324 C7334 1.386 . S
C7324 H7342 0.931 . S
C7325 C7323 1.365 . S
C7325 C7326 1.409 . S
C7325 H7343 0.929 . S
C7326 C7325 1.409 . S
C7326 C7327 1.380 . S
C7326 H7344 0.930 . S
C7327 C7326 1.380 . S
C7327 C7334 1.357 . S
C7328 C7319 1.511 . S
C7328 C7329 1.341 . S
C7328 C7330 1.371 . S
C7329 C7328 1.341 . S
C7329 C7333 1.394 . S
C7329 H7345 0.930 . S
C7330 C7328 1.371 . S
C7330 C7331 1.392 . S
C7330 H7346 0.931 . S
C7331 C7330 1.392 . S
C7331 C7332 1.331 . S
C7331 H7349 0.932 . S
C7332 C7331 1.331 . S
C7332 C7333 1.336 . S
C7333 C7329 1.394 . S
C7333 C7332 1.336 . S
C7333 H7348 0.929 . S
C7334 C7324 1.386 . S
C7334 C7327 1.357 . S
C7334 H7347 0.928 . S
H7335 C7311 0.931 . S
H7336 C7313 0.930 . S
H7337 C7315 0.929 . S
H7338 C7316 0.931 . S
H7339 C7318 0.930 . S
H7340 C7322 0.931 . S
H7341 C7320 0.931 . S
H7342 C7324 0.931 . S
H7343 C7325 0.929 . S
H7344 C7326 0.930 . S
H7345 C7329 0.930 . S
H7346 C7330 0.931 . S
H7347 C7334 0.928 . S
H7348 C7333 0.929 . S
H7349 C7331 0.932 . S
C7350 C7351 1.386 . S
C7350 C7352 1.397 . S
C7350 H7374 0.931 . S
C7351 C7350 1.386 . S
C7351 C7355 1.397 . S
C7352 C7350 1.397 . S
C7352 C7353 1.384 . S
C7352 H7375 0.930 . S
C7353 C7352 1.384 . S
C7353 C7354 1.377 . S
C7353 C7356 1.481 . S
C7354 C7353 1.377 . S
C7354 C7355 1.389 . S
C7354 H7376 0.929 . S
C7355 C7351 1.397 . S
C7355 C7354 1.389 . S
C7355 H7377 0.931 . S
C7356 C7353 1.481 . S
C7356 C7357 1.387 . S
C7356 C7361 1.390 . S
C7357 C7356 1.387 . S
C7357 C7358 1.401 . S
C7357 H7378 0.930 . S
C7358 C7357 1.401 . S
C7358 C7359 1.376 . S
C7358 C7367 1.511 . S
C7359 C7358 1.376 . S
C7359 C7360 1.392 . S
C7359 H7380 0.931 . S
C7360 C7359 1.392 . S
C7360 C7361 1.361 . S
C7360 C7362 1.500 . S
C7361 C7356 1.390 . S
C7361 C7360 1.361 . S
C7361 H7379 0.931 . S
C7362 C7360 1.500 . S
C7362 C7363 1.371 . S
C7362 C7364 1.365 . S
C7363 C7362 1.371 . S
C7363 C7373 1.386 . S
C7363 H7381 0.931 . S
C7364 C7362 1.365 . S
C7364 C7365 1.409 . S
C7364 H7382 0.929 . S
C7365 C7364 1.409 . S
C7365 C7366 1.380 . S
C7365 H7383 0.930 . S
C7366 C7365 1.380 . S
C7366 C7373 1.357 . S
C7367 C7358 1.511 . S
C7367 C7368 1.341 . S
C7367 C7369 1.371 . S
C7368 C7367 1.341 . S
C7368 C7372 1.394 . S
C7368 H7384 0.930 . S
C7369 C7367 1.371 . S
C7369 C7370 1.392 . S
C7369 H7385 0.931 . S
C7370 C7369 1.392 . S
C7370 C7371 1.312 1_545 S
C7370 H7388 0.932 . S
C7371 C7370 1.312 1_565 S
C7371 C7372 1.327 1_565 S
C7372 C7368 1.394 . S
C7372 C7371 1.327 1_545 S
C7372 H7387 0.929 1_545 S
C7373 C7363 1.386 . S
C7373 C7366 1.357 . S
C7373 H7386 0.928 . S
H7374 C7350 0.931 . S
H7375 C7352 0.930 . S
H7376 C7354 0.929 . S
H7377 C7355 0.931 . S
H7378 C7357 0.930 . S
H7379 C7361 0.931 . S
H7380 C7359 0.931 . S
H7381 C7363 0.931 . S
H7382 C7364 0.929 . S
H7383 C7365 0.930 . S
H7384 C7368 0.930 . S
H7385 C7369 0.931 . S
H7386 C7373 0.928 . S
H7387 C7372 0.929 1_565 S
H7388 C7370 0.932 . S
C7389 C7390 1.386 . S
C7389 C7391 1.397 . S
C7389 H7413 0.931 . S
C7390 C7389 1.386 . S
C7390 C7394 1.397 . S
C7391 C7389 1.397 . S
C7391 C7392 1.384 . S
C7391 H7414 0.930 . S
C7392 C7391 1.384 . S
C7392 C7393 1.377 . S
C7392 C7395 1.481 . S
C7393 C7392 1.377 . S
C7393 C7394 1.389 . S
C7393 H7415 0.929 . S
C7394 C7390 1.397 . S
C7394 C7393 1.389 . S
C7394 H7416 0.931 . S
C7395 C7392 1.481 . S
C7395 C7396 1.387 . S
C7395 C7400 1.390 . S
C7396 C7395 1.387 . S
C7396 C7397 1.401 . S
C7396 H7417 0.930 . S
C7397 C7396 1.401 . S
C7397 C7398 1.376 . S
C7397 C7406 1.511 . S
C7398 C7397 1.376 . S
C7398 C7399 1.392 . S
C7398 H7419 0.931 . S
C7399 C7398 1.392 . S
C7399 C7400 1.361 . S
C7399 C7401 1.500 . S
C7400 C7395 1.390 . S
C7400 C7399 1.361 . S
C7400 H7418 0.931 . S
C7401 C7399 1.500 . S
C7401 C7402 1.371 . S
C7401 C7403 1.365 . S
C7402 C7401 1.371 . S
C7402 C7412 1.386 . S
C7402 H7420 0.931 . S
C7403 C7401 1.365 . S
C7403 C7404 1.409 . S
C7403 H7421 0.929 . S
C7404 C7403 1.409 . S
C7404 C7405 1.380 . S
C7404 H7422 0.930 . S
C7405 C7404 1.380 . S
C7405 C7412 1.357 . S
C7406 C7397 1.511 . S
C7406 C7407 1.341 . S
C7406 C7408 1.371 . S
C7407 C7406 1.341 . S
C7407 C7411 1.394 . S
C7407 H7423 0.930 . S
C7408 C7406 1.371 . S
C7408 C7409 1.392 . S
C7408 H7424 0.931 . S
C7409 C7408 1.392 . S
C7409 C7410 1.331 . S
C7409 H7427 0.932 . S
C7410 C7409 1.331 . S
C7410 C7411 1.336 . S
C7411 C7407 1.394 . S
C7411 C7410 1.336 . S
C7411 H7426 0.929 . S
C7412 C7402 1.386 . S
C7412 C7405 1.357 . S
C7412 H7425 0.928 . S
H7413 C7389 0.931 . S
H7414 C7391 0.930 . S
H7415 C7393 0.929 . S
H7416 C7394 0.931 . S
H7417 C7396 0.930 . S
H7418 C7400 0.931 . S
H7419 C7398 0.931 . S
H7420 C7402 0.931 . S
H7421 C7403 0.929 . S
H7422 C7404 0.930 . S
H7423 C7407 0.930 . S
H7424 C7408 0.931 . S
H7425 C7412 0.928 . S
H7426 C7411 0.929 . S
H7427 C7409 0.932 . S
C7428 C7429 1.386 . S
C7428 C7430 1.397 . S
C7428 H7452 0.931 . S
C7429 C7428 1.386 . S
C7429 C7433 1.397 . S
C7430 C7428 1.397 . S
C7430 C7431 1.384 . S
C7430 H7453 0.930 . S
C7431 C7430 1.384 . S
C7431 C7432 1.377 . S
C7431 C7434 1.481 . S
C7432 C7431 1.377 . S
C7432 C7433 1.389 . S
C7432 H7454 0.929 . S
C7433 C7429 1.397 . S
C7433 C7432 1.389 . S
C7433 H7455 0.931 . S
C7434 C7431 1.481 . S
C7434 C7435 1.387 . S
C7434 C7439 1.390 . S
C7435 C7434 1.387 . S
C7435 C7436 1.401 . S
C7435 H7456 0.930 . S
C7436 C7435 1.401 . S
C7436 C7437 1.376 . S
C7436 C7445 1.511 . S
C7437 C7436 1.376 . S
C7437 C7438 1.392 . S
C7437 H7458 0.931 . S
C7438 C7437 1.392 . S
C7438 C7439 1.361 . S
C7438 C7440 1.500 . S
C7439 C7434 1.390 . S
C7439 C7438 1.361 . S
C7439 H7457 0.931 . S
C7440 C7438 1.500 . S
C7440 C7441 1.371 . S
C7440 C7442 1.365 . S
C7441 C7440 1.371 . S
C7441 C7451 1.386 . S
C7441 H7459 0.931 . S
C7442 C7440 1.365 . S
C7442 C7443 1.409 . S
C7442 H7460 0.929 . S
C7443 C7442 1.409 . S
C7443 C7444 1.380 . S
C7443 H7461 0.930 . S
C7444 C7443 1.380 . S
C7444 C7451 1.357 . S
C7445 C7436 1.511 . S
C7445 C7446 1.341 . S
C7445 C7447 1.371 . S
C7446 C7445 1.341 . S
C7446 C7450 1.394 . S
C7446 H7462 0.930 . S
C7447 C7445 1.371 . S
C7447 C7448 1.392 . S
C7447 H7463 0.931 . S
C7448 C7447 1.392 . S
C7448 C7449 1.331 . S
C7448 H7466 0.932 . S
C7449 C7448 1.331 . S
C7449 C7450 1.336 . S
C7450 C7446 1.394 . S
C7450 C7449 1.336 . S
C7450 H7465 0.929 . S
C7451 C7441 1.386 . S
C7451 C7444 1.357 . S
C7451 H7464 0.928 . S
H7452 C7428 0.931 . S
H7453 C7430 0.930 . S
H7454 C7432 0.929 . S
H7455 C7433 0.931 . S
H7456 C7435 0.930 . S
H7457 C7439 0.931 . S
H7458 C7437 0.931 . S
H7459 C7441 0.931 . S
H7460 C7442 0.929 . S
H7461 C7443 0.930 . S
H7462 C7446 0.930 . S
H7463 C7447 0.931 . S
H7464 C7451 0.928 . S
H7465 C7450 0.929 . S
H7466 C7448 0.932 . S
C7467 C7468 1.386 . S
C7467 C7469 1.397 . S
C7467 H7491 0.931 . S
C7468 C7467 1.386 . S
C7468 C7472 1.397 . S
C7469 C7467 1.397 . S
C7469 C7470 1.384 . S
C7469 H7492 0.930 . S
C7470 C7469 1.384 . S
C7470 C7471 1.377 . S
C7470 C7473 1.481 . S
C7471 C7470 1.377 . S
C7471 C7472 1.389 . S
C7471 H7493 0.929 . S
C7472 C7468 1.397 . S
C7472 C7471 1.389 . S
C7472 H7494 0.931 . S
C7473 C7470 1.481 . S
C7473 C7474 1.387 . S
C7473 C7478 1.390 . S
C7474 C7473 1.387 . S
C7474 C7475 1.401 . S
C7474 H7495 0.930 . S
C7475 C7474 1.401 . S
C7475 C7476 1.376 . S
C7475 C7484 1.511 . S
C7476 C7475 1.376 . S
C7476 C7477 1.392 . S
C7476 H7497 0.931 . S
C7477 C7476 1.392 . S
C7477 C7478 1.361 . S
C7477 C7479 1.500 . S
C7478 C7473 1.390 . S
C7478 C7477 1.361 . S
C7478 H7496 0.931 . S
C7479 C7477 1.500 . S
C7479 C7480 1.371 . S
C7479 C7481 1.365 . S
C7480 C7479 1.371 . S
C7480 C7490 1.386 . S
C7480 H7498 0.931 . S
C7481 C7479 1.365 . S
C7481 C7482 1.409 . S
C7481 H7499 0.929 . S
C7482 C7481 1.409 . S
C7482 C7483 1.380 . S
C7482 H7500 0.930 . S
C7483 C7482 1.380 . S
C7483 C7490 1.357 . S
C7484 C7475 1.511 . S
C7484 C7485 1.341 . S
C7484 C7486 1.371 . S
C7485 C7484 1.341 . S
C7485 C7489 1.394 . S
C7485 H7501 0.930 . S
C7486 C7484 1.371 . S
C7486 C7487 1.392 . S
C7486 H7502 0.931 . S
C7487 C7486 1.392 . S
C7487 C7488 1.331 . S
C7487 H7505 0.932 . S
C7488 C7487 1.331 . S
C7488 C7489 1.336 . S
C7489 C7485 1.394 . S
C7489 C7488 1.336 . S
C7489 H7504 0.929 . S
C7490 C7480 1.386 . S
C7490 C7483 1.357 . S
C7490 H7503 0.928 . S
H7491 C7467 0.931 . S
H7492 C7469 0.930 . S
H7493 C7471 0.929 . S
H7494 C7472 0.931 . S
H7495 C7474 0.930 . S
H7496 C7478 0.931 . S
H7497 C7476 0.931 . S
H7498 C7480 0.931 . S
H7499 C7481 0.929 . S
H7500 C7482 0.930 . S
H7501 C7485 0.930 . S
H7502 C7486 0.931 . S
H7503 C7490 0.928 . S
H7504 C7489 0.929 . S
H7505 C7487 0.932 . S
C7506 C7507 1.386 . S
C7506 C7508 1.397 . S
C7506 H7530 0.931 . S
C7507 C7506 1.386 . S
C7507 C7511 1.397 . S
C7508 C7506 1.397 . S
C7508 C7509 1.384 . S
C7508 H7531 0.930 . S
C7509 C7508 1.384 . S
C7509 C7510 1.377 . S
C7509 C7512 1.481 . S
C7510 C7509 1.377 . S
C7510 C7511 1.389 . S
C7510 H7532 0.929 . S
C7511 C7507 1.397 . S
C7511 C7510 1.389 . S
C7511 H7533 0.931 . S
C7512 C7509 1.481 . S
C7512 C7513 1.387 . S
C7512 C7517 1.390 . S
C7513 C7512 1.387 . S
C7513 C7514 1.401 . S
C7513 H7534 0.930 . S
C7514 C7513 1.401 . S
C7514 C7515 1.376 . S
C7514 C7523 1.511 . S
C7515 C7514 1.376 . S
C7515 C7516 1.392 . S
C7515 H7536 0.931 . S
C7516 C7515 1.392 . S
C7516 C7517 1.361 . S
C7516 C7518 1.500 . S
C7517 C7512 1.390 . S
C7517 C7516 1.361 . S
C7517 H7535 0.931 . S
C7518 C7516 1.500 . S
C7518 C7519 1.371 . S
C7518 C7520 1.365 . S
C7519 C7518 1.371 . S
C7519 C7529 1.386 . S
C7519 H7537 0.931 . S
C7520 C7518 1.365 . S
C7520 C7521 1.409 . S
C7520 H7538 0.929 . S
C7521 C7520 1.409 . S
C7521 C7522 1.380 . S
C7521 H7539 0.930 . S
C7522 C7521 1.380 . S
C7522 C7529 1.357 . S
C7523 C7514 1.511 . S
C7523 C7524 1.341 . S
C7523 C7525 1.371 . S
C7524 C7523 1.341 . S
C7524 C7528 1.394 . S
C7524 H7540 0.930 . S
C7525 C7523 1.371 . S
C7525 C7526 1.392 . S
C7525 H7541 0.931 . S
C7526 C7525 1.392 . S
C7526 C7527 1.312 1_565 S
C7526 H7544 0.932 . S
C7527 C7526 1.312 1_545 S
C7527 C7528 1.327 1_545 S
C7528 C7524 1.394 . S
C7528 C7527 1.327 1_565 S
C7528 H7543 0.929 1_565 S
C7529 C7519 1.386 . S
C7529 C7522 1.357 . S
C7529 H7542 0.928 . S
H7530 C7506 0.931 . S
H7531 C7508 0.930 . S
H7532 C7510 0.929 . S
H7533 C7511 0.931 . S
H7534 C7513 0.930 . S
H7535 C7517 0.931 . S
H7536 C7515 0.931 . S
H7537 C7519 0.931 . S
H7538 C7520 0.929 . S
H7539 C7521 0.930 . S
H7540 C7524 0.930 . S
H7541 C7525 0.931 . S
H7542 C7529 0.928 . S
H7543 C7528 0.929 1_545 S
H7544 C7526 0.932 . S
C7545 C7546 1.386 . S
C7545 C7547 1.397 . S
C7545 H7569 0.931 . S
C7546 C7545 1.386 . S
C7546 C7550 1.397 . S
C7547 C7545 1.397 . S
C7547 C7548 1.384 . S
C7547 H7570 0.930 . S
C7548 C7547 1.384 . S
C7548 C7549 1.377 . S
C7548 C7551 1.481 . S
C7549 C7548 1.377 . S
C7549 C7550 1.389 . S
C7549 H7571 0.929 . S
C7550 C7546 1.397 . S
C7550 C7549 1.389 . S
C7550 H7572 0.931 . S
C7551 C7548 1.481 . S
C7551 C7552 1.387 . S
C7551 C7556 1.390 . S
C7552 C7551 1.387 . S
C7552 C7553 1.401 . S
C7552 H7573 0.930 . S
C7553 C7552 1.401 . S
C7553 C7554 1.376 . S
C7553 C7562 1.511 . S
C7554 C7553 1.376 . S
C7554 C7555 1.392 . S
C7554 H7575 0.931 . S
C7555 C7554 1.392 . S
C7555 C7556 1.361 . S
C7555 C7557 1.500 . S
C7556 C7551 1.390 . S
C7556 C7555 1.361 . S
C7556 H7574 0.931 . S
C7557 C7555 1.500 . S
C7557 C7558 1.371 . S
C7557 C7559 1.365 . S
C7558 C7557 1.371 . S
C7558 C7568 1.386 . S
C7558 H7576 0.931 . S
C7559 C7557 1.365 . S
C7559 C7560 1.409 . S
C7559 H7577 0.929 . S
C7560 C7559 1.409 . S
C7560 C7561 1.380 . S
C7560 H7578 0.930 . S
C7561 C7560 1.380 . S
C7561 C7568 1.357 . S
C7562 C7553 1.511 . S
C7562 C7563 1.341 . S
C7562 C7564 1.371 . S
C7563 C7562 1.341 . S
C7563 C7567 1.394 . S
C7563 H7579 0.930 . S
C7564 C7562 1.371 . S
C7564 C7565 1.392 . S
C7564 H7580 0.931 . S
C7565 C7564 1.392 . S
C7565 C7566 1.325 1_545 S
C7565 H7583 0.932 1_545 S
C7566 C7565 1.325 1_565 S
C7566 C7567 1.324 1_565 S
C7567 C7563 1.394 . S
C7567 C7566 1.324 1_545 S
C7567 H7582 0.929 . S
C7568 C7558 1.386 . S
C7568 C7561 1.357 . S
C7568 H7581 0.928 . S
H7569 C7545 0.931 . S
H7570 C7547 0.930 . S
H7571 C7549 0.929 . S
H7572 C7550 0.931 . S
H7573 C7552 0.930 . S
H7574 C7556 0.931 . S
H7575 C7554 0.931 . S
H7576 C7558 0.931 . S
H7577 C7559 0.929 . S
H7578 C7560 0.930 . S
H7579 C7563 0.930 . S
H7580 C7564 0.931 . S
H7581 C7568 0.928 . S
H7582 C7567 0.929 . S
H7583 C7565 0.932 1_565 S
C4836 C15 4.181 . S
C6747 C55 2.680 . S
C4914 C95 4.092 . S
C6669 C135 2.675 . S
C5070 C175 4.181 . S
C215 C6825 2.675 . S
C4992 C255 4.092 . S
C6903 C295 2.680 . S
C7527 C335 4.095 . S
C375 C7293 2.680 . S
C7566 C415 4.179 . S
C455 C7488 2.680 . S
C7371 C495 4.095 . S
C5538 C535 2.680 . S
C5577 C575 4.179 . S
C615 C5460 2.680 . S
C655 C7176 4.105 . S
C5226 C695 4.105 . S
C6981 C735 2.682 . S
C5148 C775 4.147 . S
C815 C5187 2.675 . S
C7254 C855 4.147 . S
C7137 C895 2.682 . S
C935 C7215 2.675 . S
C975 C3900 4.106 . S
C1015 C5811 2.712 . S
C3978 C1055 4.114 . S
C1095 C5733 2.675 . S
C4134 C1135 4.106 . S
C1175 C5889 2.675 . S
C4056 C1215 4.114 . S
C5967 C1255 2.712 . S
C1295 C6591 4.124 . S
C6357 C1335 2.715 . S
C1375 C6630 4.079 . S
C6552 C1415 2.727 . S
C6435 C1455 4.124 . S
C1495 C4602 2.727 . S
C1535 C4641 4.079 . S
C4524 C1575 2.715 . S
C1615 C6240 4.124 . S
C4290 C1655 4.124 . S
C1695 C6045 2.723 . S
C4212 C1735 4.111 . S
C1775 C4251 2.664 . S
C6318 C1815 4.111 . S
C6201 C1855 2.723 . S
C6279 C1895 2.664 . S
C1935 C6708 4.171 . S
C4875 C1975 2.680 . S
C6786 C2015 4.101 . S
C4797 C2055 2.675 . S
C2095 C6942 4.171 . S
C4953 C2135 2.675 . S
C6864 C2175 4.101 . S
C5031 C2215 2.680 . S
C2255 C5655 4.086 . S
C5421 C2295 2.680 . S
C5694 C2335 4.173 . S
C2375 C5616 2.680 . S
C2415 C5499 4.086 . S
C2455 C7410 2.680 . S
C2495 C7449 4.173 . S
C7332 C2535 2.680 . S
C2575 C5304 4.094 . S
C7098 C2615 4.094 . S
C5109 C2655 2.682 . S
C7020 C2695 4.164 . S
C2735 C7059 2.675 . S
C2775 C5382 4.164 . S
C5265 C2815 2.682 . S
C2855 C5343 2.675 . S
C2895 C5772 4.100 . S
C3939 C2935 2.712 . S
C5850 C2975 4.125 . S
C3015 C3861 2.675 . S
C6006 C3055 4.100 . S
C4017 C3095 2.675 . S
C3135 C5928 4.125 . S
C3175 C4095 2.712 . S
C4719 C3215 4.116 . S
C3255 C4485 2.715 . S
C4758 C3295 4.065 . S
C4680 C3335 2.727 . S
C3375 C4563 4.116 . S
C3415 C6474 2.727 . S
C6513 C3455 4.065 . S
C3495 C6396 2.715 . S
C4368 C3535 4.115 . S
C6162 C3575 4.115 . S
C3615 C4173 2.723 . S
C3655 C6084 4.122 . S
C3695 C6123 2.664 . S
C3735 C4446 4.122 . S
C3775 C4329 2.723 . S
C4407 C3815 2.664 . S
C4207 C2 2.509 . S
C4231 C42 3.376 . S
C82 C4285 2.504 . S
C122 C4168 3.379 . S
C162 C4441 2.509 . S
C4324 C202 3.379 . S
C4363 C242 2.504 . S
C282 C4387 3.376 . S
C322 C3973 2.503 . S
C362 C3841 3.378 . S
C402 C3895 2.509 . S
C3934 C442 3.377 . S
C482 C4051 2.503 . S
C522 C4090 3.377 . S
C562 C4129 2.509 . S
C602 C3997 3.378 . S
C4558 C642 2.504 . S
C682 C6586 2.504 . S
C4480 C722 3.379 . S
C6610 C762 2.510 . S
C802 C6547 3.378 . S
C842 C6493 2.510 . S
C6391 C882 3.379 . S
C6469 C922 3.378 . S
C5128 C962 2.397 . S
C5182 C1002 3.704 . S
C5221 C1042 2.393 . S
C1082 C5104 3.698 . S
C1122 C5362 2.397 . S
C5260 C1162 3.698 . S
C1202 C5299 2.393 . S
C5338 C1242 3.704 . S
C1282 C4909 2.394 . S
C4792 C1322 3.701 . S
C1362 C4816 2.401 . S
C4870 C1402 3.706 . S
C4987 C1442 2.394 . S
C1482 C5026 3.706 . S
C5050 C1522 2.401 . S
C4948 C1562 3.701 . S
C5494 C1602 2.391 . S
C7522 C1642 2.391 . S
C5416 C1682 3.707 . S
C1722 C7546 2.398 . S
C1762 C7483 3.693 . S
C7429 C1802 2.398 . S
C7327 C1842 3.707 . S
C7405 C1882 3.693 . S
C1922 C6079 2.509 . S
C6103 C1962 3.376 . S
C2002 C6157 2.504 . S
C6040 C2042 3.379 . S
C2082 C6313 2.509 . S
C2122 C6196 3.379 . S
C2162 C6235 2.504 . S
C2202 C6259 3.376 . S
C2242 C5845 2.503 . S
C5713 C2282 3.378 . S
C5767 C2322 2.509 . S
C2362 C5806 3.377 . S
C2402 C5923 2.503 . S
C2442 C5962 3.377 . S
C2482 C6001 2.509 . S
C2522 C5869 3.378 . S
C6430 C2562 2.504 . S
C4714 C2602 2.504 . S
C6352 C2642 3.379 . S
C4738 C2682 2.510 . S
C4675 C2722 3.378 . S
C4621 C2762 2.510 . S
C2802 C4519 3.379 . S
C4597 C2842 3.378 . S
C2882 C7000 2.397 . S
C2922 C7054 3.704 . S
C7093 C2962 2.393 . S
C3002 C6976 3.698 . S
C7234 C3042 2.397 . S
C3082 C7132 3.698 . S
C3122 C7171 2.393 . S
C7210 C3162 3.704 . S
C6781 C3202 2.394 . S
C6664 C3242 3.701 . S
C6688 C3282 2.401 . S
C6742 C3322 3.706 . S
C3362 C6859 2.394 . S
C6898 C3402 3.706 . S
C3442 C6922 2.401 . S
C3482 C6820 3.701 . S
C3522 C7366 2.391 . S
C3562 C5650 2.391 . S
C3602 C7288 3.707 . S
C5674 C3642 2.398 . S
C3682 C5611 3.693 . S
C3722 C5557 2.398 . S
C3762 C5455 3.707 . S
C5533 C3802 3.693 . S
C21 C3856 2.283 . S
C61 C3880 3.598 . S
C101 C3919 2.280 . S
C3958 C141 3.595 . S
C4012 C181 2.283 . S
C221 C4036 3.595 . S
C261 C4075 2.280 . S
C301 C4114 3.598 . S
C4153 C341 2.280 . S
C4192 C381 3.598 . S
C421 C4246 2.281 . S
C4270 C461 3.593 . S
C501 C4309 2.280 . S
C541 C4348 3.593 . S
C581 C4402 2.281 . S
C621 C4426 3.598 . S
C661 C4465 2.282 . S
C701 C4504 2.282 . S
C4543 C741 3.595 . S
C4582 C781 2.287 . S
C4636 C821 3.591 . S
C4660 C861 2.287 . S
C901 C4699 3.595 . S
C4753 C941 3.591 . S
C981 C4777 2.123 . S
C1021 C4831 3.909 . S
C1061 C4855 2.122 . S
C4894 C1101 3.897 . S
C1141 C4933 2.123 . S
C4972 C1181 3.897 . S
C1221 C5011 2.122 . S
C1261 C5065 3.909 . S
C5089 C1301 2.123 . S
C1341 C5143 3.907 . S
C5167 C1381 2.130 . S
C1421 C5206 3.906 . S
C5245 C1461 2.123 . S
C5284 C1501 3.906 . S
C5323 C1541 2.130 . S
C1581 C5377 3.907 . S
C1621 C5401 2.122 . S
C1661 C5440 2.122 . S
C1701 C5479 3.905 . S
C1741 C5518 2.127 . S
C1781 C5572 3.900 . S
C5596 C1821 2.127 . S
C1861 C5635 3.905 . S
C5689 C1901 3.900 . S
C1941 C5728 2.283 . S
C5752 C1981 3.598 . S
C5791 C2021 2.280 . S
C5830 C2061 3.595 . S
C2101 C5884 2.283 . S
C2141 C5908 3.595 . S
C5947 C2181 2.280 . S
C5986 C2221 3.598 . S
C2261 C6025 2.280 . S
C2301 C6064 3.598 . S
C2341 C6118 2.281 . S
C2381 C6142 3.593 . S
C2421 C6181 2.280 . S
C6220 C2461 3.593 . S
C6274 C2501 2.281 . S
C6298 C2541 3.598 . S
C6337 C2581 2.282 . S
C2621 C6376 2.282 . S
C2661 C6415 3.595 . S
C6454 C2701 2.287 . S
C2741 C6508 3.591 . S
C6532 C2781 2.287 . S
C6571 C2821 3.595 . S
C6625 C2861 3.591 . S
C2901 C6649 2.123 . S
C2941 C6703 3.909 . S
C2981 C6727 2.122 . S
C3021 C6766 3.897 . S
C6805 C3061 2.123 . S
C6844 C3101 3.897 . S
C6883 C3141 2.122 . S
C3181 C6937 3.909 . S
C3221 C6961 2.123 . S
C7015 C3261 3.907 . S
C7039 C3301 2.130 . S
C7078 C3341 3.906 . S
C7117 C3381 2.123 . S
C7156 C3421 3.906 . S
C7195 C3461 2.130 . S
C7249 C3501 3.907 . S
C7273 C3541 2.122 . S
C7312 C3581 2.122 . S
C7351 C3621 3.905 . S
C3661 C7390 2.127 . S
C7444 C3701 3.900 . S
C3741 C7468 2.127 . S
C7507 C3781 3.905 . S
C7561 C3821 3.900 . S
