# Generated by pormake.
# Topology zzz, (3,6)-cn, num edge types: 1
# Building blocks:
#     Node 0, Type 0, BuildingBlock: QEWDON_clean_linker_0, # of connection points: 3
#     Node 1, Type 0, BuildingBlock: QEWDON_clean_linker_0, # of connection points: 3
#     Node 2, Type 0, BuildingBlock: QEWDON_clean_linker_0, # of connection points: 3
#     Node 3, Type 0, BuildingBlock: QEWDON_clean_linker_0, # of connection points: 3
#     Node 4, Type 0, BuildingBlock: QEWDON_clean_linker_0, # of connection points: 3
#     Node 5, Type 0, BuildingBlock: QEWDON_clean_linker_0, # of connection points: 3
#     Node 6, Type 0, BuildingBlock: QEWDON_clean_linker_0, # of connection points: 3
#     Node 7, Type 0, BuildingBlock: QEWDON_clean_linker_0, # of connection points: 3
#     Node 8, Type 1, BuildingBlock: NUHQIS_clean_sbu_0, # of connection points: 6
#     Node 9, Type 1, BuildingBlock: NUHQIS_clean_sbu_0, # of connection points: 6
#     Node 10, Type 1, BuildingBlock: NUHQIS_clean_sbu_0, # of connection points: 6
#     Node 11, Type 1, BuildingBlock: NUHQIS_clean_sbu_0, # of connection points: 6
#     Edge 12, Type (0, 1), BuildingBlock: XUDNAN_clean_linker_2, # of connection points: 2
#     Edge 13, Type (0, 1), BuildingBlock: XUDNAN_clean_linker_2, # of connection points: 2
#     Edge 14, Type (0, 1), BuildingBlock: XUDNAN_clean_linker_2, # of connection points: 2
#     Edge 15, Type (0, 1), BuildingBlock: XUDNAN_clean_linker_2, # of connection points: 2
#     Edge 16, Type (0, 1), BuildingBlock: XUDNAN_clean_linker_2, # of connection points: 2
#     Edge 17, Type (0, 1), BuildingBlock: XUDNAN_clean_linker_2, # of connection points: 2
#     Edge 18, Type (0, 1), BuildingBlock: XUDNAN_clean_linker_2, # of connection points: 2
#     Edge 19, Type (0, 1), BuildingBlock: XUDNAN_clean_linker_2, # of connection points: 2
#     Edge 20, Type (0, 1), BuildingBlock: XUDNAN_clean_linker_2, # of connection points: 2
#     Edge 21, Type (0, 1), BuildingBlock: XUDNAN_clean_linker_2, # of connection points: 2
#     Edge 22, Type (0, 1), BuildingBlock: XUDNAN_clean_linker_2, # of connection points: 2
#     Edge 23, Type (0, 1), BuildingBlock: XUDNAN_clean_linker_2, # of connection points: 2
#     Edge 24, Type (0, 1), BuildingBlock: XUDNAN_clean_linker_2, # of connection points: 2
#     Edge 25, Type (0, 1), BuildingBlock: XUDNAN_clean_linker_2, # of connection points: 2
#     Edge 26, Type (0, 1), BuildingBlock: XUDNAN_clean_linker_2, # of connection points: 2
#     Edge 27, Type (0, 1), BuildingBlock: XUDNAN_clean_linker_2, # of connection points: 2
#     Edge 28, Type (0, 1), BuildingBlock: XUDNAN_clean_linker_2, # of connection points: 2
#     Edge 29, Type (0, 1), BuildingBlock: XUDNAN_clean_linker_2, # of connection points: 2
#     Edge 30, Type (0, 1), BuildingBlock: XUDNAN_clean_linker_2, # of connection points: 2
#     Edge 31, Type (0, 1), BuildingBlock: XUDNAN_clean_linker_2, # of connection points: 2
#     Edge 32, Type (0, 1), BuildingBlock: XUDNAN_clean_linker_2, # of connection points: 2
#     Edge 33, Type (0, 1), BuildingBlock: XUDNAN_clean_linker_2, # of connection points: 2
#     Edge 34, Type (0, 1), BuildingBlock: XUDNAN_clean_linker_2, # of connection points: 2
#     Edge 35, Type (0, 1), BuildingBlock: XUDNAN_clean_linker_2, # of connection points: 2
# Relax obj value: 0.159
# Max RMSD: 0.140
# Mean RMSD: 0.098
data_MOF--net-zzz--node1-NUHQIS_clean_sbu_0--node2-QEWDON_clean_linker_0--edge1-XUDNAN_clean_linker_2
_symmetry_space_group_name_H-M    P1
_symmetry_Int_Tables_number       1
_symmetry_cell_setting            triclinic
loop_
_symmetry_equiv_pos_as_xyz
'x, y, z'
_cell_length_a     56.130823
_cell_length_b     56.008754
_cell_length_c     13.44574
_cell_angle_alpha  89.904175
_cell_angle_beta   90.179458
_cell_angle_gamma 90.084596
loop_
_atom_site_label
_atom_site_type_symbol
_atom_site_fract_x
_atom_site_fract_y
_atom_site_fract_z
_atom_type_partial_charge
H0 H 0.76313 0.55087 0.20082 0.0
C1 C 0.77604 0.54575 0.25672 0.0
C2 C 0.79993 0.55076 0.23766 0.0
C3 C 0.76905 0.53415 0.34521 0.0
H4 H 0.8358 0.54799 0.29146 0.0
C5 C 0.8172 0.54532 0.30956 0.0
C6 C 0.8113 0.53487 0.40084 0.0
C7 C 0.78708 0.52873 0.4174 0.0
C8 C 0.74303 0.52804 0.36039 0.0
H9 H 0.78249 0.51963 0.48569 0.0
C10 C 0.72705 0.5251 0.27857 0.0
C11 C 0.70233 0.52124 0.29275 0.0
C12 C 0.73362 0.52611 0.45693 0.0
H13 H 0.74468 0.52877 0.52196 0.0
C14 C 0.70948 0.52131 0.47161 0.0
H15 H 0.73363 0.52611 0.20336 0.0
C16 C 0.69399 0.51894 0.39084 0.0
H17 H 0.67542 0.51519 0.40573 0.0
H18 H 0.70263 0.51973 0.54651 0.0
H19 H 0.98406 0.75236 0.1893 0.0
C20 C 0.98982 0.76593 0.24146 0.0
C21 C 0.98467 0.78962 0.21986 0.0
C22 C 1.00161 0.75975 0.33047 0.0
H23 H 0.98825 0.826 0.26335 0.0
C24 C 0.99132 0.80768 0.28601 0.0
C25 C 1.00178 0.80268 0.37854 0.0
C26 C 1.0073 0.77834 0.39983 0.0
C27 C 1.00593 0.73363 0.35119 0.0
H28 H 1.01578 0.77389 0.46978 0.0
C29 C 1.01021 0.71718 0.27256 0.0
C30 C 1.00982 0.69205 0.28811 0.0
C31 C 1.00322 0.72454 0.44776 0.0
H32 H 0.99965 0.73629 0.50977 0.0
C33 C 1.00378 0.69997 0.46502 0.0
H34 H 1.01362 0.72412 0.19894 0.0
C35 C 1.00655 0.68392 0.38646 0.0
H36 H 1.00541 0.6651 0.40369 0.0
H37 H 1.00117 0.69324 0.53973 0.0
H38 H 0.78369 0.04961 0.21887 0.0
C39 C 0.76963 0.0417 0.26298 0.0
C40 C 0.74707 0.05227 0.26022 0.0
C41 C 0.77417 0.02175 0.32452 0.0
H42 H 0.7112 0.0511 0.31499 0.0
C43 C 0.72864 0.04282 0.3182 0.0
C44 C 0.73208 0.02297 0.37964 0.0
C45 C 0.75505 1.01251 0.38318 0.0
C46 C 0.7991 1.01173 0.33057 0.0
H47 H 0.75777 0.99703 0.43012 0.0
C48 C 0.81533 1.01332 0.24949 0.0
C49 C 0.83952 1.00618 0.25932 0.0
C50 C 0.80745 1.0019 0.42044 0.0
H51 H 0.7961 1.00079 0.48516 0.0
C52 C 0.83097 0.99422 0.42996 0.0
H53 H 0.80918 0.02005 0.17851 0.0
C54 C 0.84689 0.99654 0.35108 0.0
H55 H 0.86522 0.99136 0.36364 0.0
H56 H 0.83711 0.987 0.50022 0.0
H57 H 0.55248 0.77555 0.229 0.0
C58 C 0.54634 0.76259 0.28295 0.0
C59 C 0.54925 0.73854 0.261 0.0
C60 C 0.53611 0.76972 0.37402 0.0
H61 H 0.54378 0.7026 0.30729 0.0
C62 C 0.54241 0.72115 0.32957 0.0
C63 C 0.53464 0.72698 0.42527 0.0
C64 C 0.5307 0.75158 0.44629 0.0
C65 C 0.5327 0.79613 0.3929 0.0
H66 H 0.52368 0.75646 0.51821 0.0
C67 C 0.52967 0.81262 0.31295 0.0
C68 C 0.52971 0.83769 0.32842 0.0
C69 C 0.53412 0.80538 0.48986 0.0
H70 H 0.53683 0.7938 0.55331 0.0
C71 C 0.53305 0.82998 0.50642 0.0
H72 H 0.52733 0.80602 0.23805 0.0
C73 C 0.53119 0.84598 0.42692 0.0
H74 H 0.53168 0.86489 0.44303 0.0
H75 H 0.53445 0.83676 0.58155 0.0
H76 H 0.27689 0.54596 0.25848 0.0
C77 C 0.26347 0.53799 0.2109 0.0
C78 C 0.24035 0.54726 0.21302 0.0
C79 C 0.26944 0.51941 0.14468 0.0
H80 H 0.20486 0.54478 0.15384 0.0
C81 C 0.22279 0.53758 0.15093 0.0
C82 C 0.22776 0.51907 0.08475 0.0
C83 C 0.25129 0.5101 0.08099 0.0
C84 C 0.29491 0.51115 0.13832 0.0
H85 H 0.25525 0.49576 0.02977 0.0
C86 C 0.3103 0.51127 0.2226 0.0
C87 C 0.33498 0.50612 0.21384 0.0
C88 C 0.30452 0.50476 0.04575 0.0
H89 H 0.29367 0.50489 0.97905 0.0
C90 C 0.32859 0.49913 0.03668 0.0
H91 H 0.30302 0.51534 0.295 0.0
C92 C 0.34372 0.50008 0.11908 0.0
H93 H 0.36246 0.49669 0.10713 0.0
H94 H 0.33575 0.49464 0.96443 0.0
H95 H 0.98472 0.2731 0.19563 0.0
C96 C 0.99305 0.25951 0.1505 0.0
C97 C 0.98172 0.23729 0.14147 0.0
C98 C 1.01466 0.26412 0.10031 0.0
H99 H 0.98319 0.20214 0.07805 0.0
C100 C 0.99171 0.21953 0.08163 0.0
C101 C 1.01345 0.22297 0.0335 0.0
C102 C 0.0251 0.24523 0.04417 0.0
C103 C 0.02558 0.28879 0.10284 0.0
H104 H 0.0422 0.24771 0.00861 0.0
C105 C 0.02271 0.30462 0.18494 0.0
C106 C 0.03173 0.32834 0.18186 0.0
C107 C 0.03798 0.29722 0.01899 0.0
H108 H 0.04006 0.28626 0.95342 0.0
C109 C 0.04737 0.32026 0.01662 0.0
H110 H 1.01332 0.2987 0.25066 0.0
C111 C 0.0443 0.33565 0.09679 0.0
H112 H 0.05206 0.35334 0.09225 0.0
H113 H 0.05693 0.32633 0.95149 0.0
H114 H 0.26753 0.97477 0.25412 0.0
C115 C 0.28148 0.98256 0.20914 0.0
C116 C 0.30363 0.97112 0.20649 0.0
C117 C 0.27743 1.00351 0.15289 0.0
H118 H 0.33917 0.97151 0.14851 0.0
C119 C 0.32191 0.98021 0.14698 0.0
C120 C 0.31892 1.00108 0.09132 0.0
C121 C 0.29672 1.01296 0.09595 0.0
C122 C 0.25299 1.0148 0.15056 0.0
H123 H 0.29462 0.02946 0.05494 0.0
C124 C 0.23654 1.01257 0.23071 0.0
C125 C 0.21312 0.02202 0.22376 0.0
C126 C 0.24542 0.02704 0.06453 0.0
H127 H 0.25678 0.02859 1.00001 0.0
C128 C 0.22274 0.03701 0.05861 0.0
H129 H 0.24172 1.0033 0.29797 0.0
C130 C 0.20677 0.03458 0.13703 0.0
H131 H 0.18938 0.04275 0.1296 0.0
H132 H 0.21738 0.0465 0.99201 0.0
H133 H 0.48556 0.25534 0.27154 0.0
C134 C 0.49099 0.26897 0.21915 0.0
C135 C 0.4844 0.2925 0.23794 0.0
C136 C 0.50412 0.26319 0.13307 0.0
H137 H 0.48651 0.32887 0.19155 0.0
C138 C 0.49066 0.31061 0.17135 0.0
C139 C 0.50246 0.30589 0.08212 0.0
C140 C 0.50969 0.28196 0.06426 0.0
C141 C 0.51101 0.23749 0.11486 0.0
H142 H 0.51956 0.27805 0.99735 0.0
C143 C 0.51479 0.22109 0.19462 0.0
C144 C 0.51951 0.19657 0.17699 0.0
C145 C 0.5127 0.22876 0.01711 0.0
H146 H 0.50941 0.24023 0.95374 0.0
C147 C 0.518 0.20482 0.99913 0.0
H148 H 0.51379 0.22726 0.27063 0.0
C149 C 0.52132 0.18888 0.07781 0.0
H150 H 0.52554 0.1705 0.06055 0.0
H151 H 0.5193 0.19849 0.92332 0.0
Tb152 Tb 0.03591 1.00432 0.8324 0.0
Eu153 Eu 1.01133 0.01989 0.62383 0.0
C154 C 0.0687 1.01382 0.64625 0.0
C155 C 0.03147 0.06011 0.779 0.0
C156 C 0.03489 0.9687 0.04792 0.0
C157 C 0.03206 0.9256 0.05899 0.0
C158 C 0.0459 0.94633 0.05567 0.0
C159 C 1.00998 0.97011 0.05791 0.0
C160 C 0.99618 0.94944 0.05892 0.0
C161 C 1.00701 0.92695 0.05294 0.0
C162 C 0.04775 0.98849 0.99936 0.0
O163 O 0.99722 0.99867 0.84437 0.0
O164 O 0.98591 0.02937 0.74648 0.0
O165 O 1.00641 0.97946 0.63216 0.0
O166 O 0.03611 0.97152 0.7443 0.0
C167 C 0.9813 1.01477 0.81971 0.0
O168 O 0.9792 0.02115 0.53153 0.0
O169 O 1.01253 0.03522 0.47509 0.0
O170 O 0.04992 1.01154 0.58794 0.0
O171 O 0.06653 1.01534 0.74362 0.0
O172 O 0.03758 0.04321 0.84226 0.0
O173 O 0.022 0.05542 0.69148 0.0
C174 C 0.02074 0.9642 0.6769 0.0
O175 O 0.05867 0.98253 0.91755 0.0
O176 O 0.0357 1.00822 0.98785 0.0
C177 C 0.97755 0.05776 0.4443 0.0
C178 C 0.95459 0.1024 0.424 0.0
C179 C 0.94129 0.0811 0.4221 0.0
C180 C 0.95269 0.05896 0.4322 0.0
C181 C 0.99081 0.07905 0.44456 0.0
C182 C 0.9795 0.10102 0.43412 0.0
C183 C 0.98937 0.03466 0.46474 0.0
H184 H 0.04109 0.90853 0.06023 0.0
H185 H 0.06508 0.94474 0.04947 0.0
H186 H 1.00087 0.98712 0.05439 0.0
H187 H 0.97703 0.95126 0.05627 0.0
H188 H 0.9221 0.08154 0.41393 0.0
H189 H 0.94205 0.04281 0.43222 0.0
H190 H 1.00998 0.0789 0.45383 0.0
H191 H 0.99047 0.11694 0.43257 0.0
Tb192 Tb 0.53435 0.031 0.84457 0.0
Eu193 Eu 0.51743 1.00126 0.65016 0.0
C194 C 0.52767 0.05778 0.63861 0.0
C195 C 0.4798 0.02029 0.81029 0.0
C196 C 0.56978 0.07191 0.99529 0.0
C197 C 0.60053 0.09507 0.91217 0.0
C198 C 0.57866 0.08318 0.90964 0.0
C199 C 0.58241 0.07376 0.08477 0.0
C200 C 0.60442 0.08544 0.08724 0.0
C201 C 0.6141 0.09556 1.00009 0.0
C202 C 0.54918 0.0558 0.98837 0.0
O203 O 0.52377 0.99589 0.90365 0.0
O204 O 0.53159 0.97482 0.76261 0.0
O205 O 0.55602 1.01015 0.618 0.0
O206 O 0.56732 1.01675 0.77996 0.0
C207 C 0.52827 0.97548 0.85915 0.0
O208 O 0.51847 0.96893 0.55956 0.0
O209 O 0.49469 0.99774 0.51944 0.0
O210 O 0.51416 0.04024 0.60628 0.0
O211 O 0.54058 0.0553 0.71978 0.0
O212 O 0.49581 0.03624 0.83633 0.0
O213 O 0.48566 1.00217 0.75373 0.0
C214 C 0.57275 1.01283 0.68594 0.0
O215 O 0.53218 0.06251 0.92842 0.0
O216 O 0.55447 0.03334 0.97633 0.0
C217 C 0.48033 0.95895 0.49896 0.0
C218 C 0.43732 0.93322 0.48617 0.0
C219 C 0.45025 0.93897 0.39982 0.0
C220 C 0.47149 0.95189 0.40625 0.0
C221 C 0.46813 0.95229 0.58579 0.0
C222 C 0.44671 0.9396 0.57944 0.0
C223 C 0.50052 0.97554 0.50431 0.0
H224 H 0.60733 0.10283 0.8441 0.0
H225 H 0.56928 0.08183 0.8395 0.0
H226 H 0.57592 0.06502 0.15138 0.0
H227 H 0.61451 0.08502 0.15599 0.0
H228 H 0.44314 0.93487 0.32681 0.0
H229 H 0.48039 0.95739 0.33868 0.0
H230 H 0.47462 0.95784 0.65814 0.0
H231 H 0.437 0.9356 0.64698 0.0
Tb232 Tb 0.50673 0.52129 0.85638 0.0
Eu233 Eu 0.53098 0.51067 0.64102 0.0
C234 C 0.47413 0.51274 0.66879 0.0
C235 C 0.51745 0.46825 0.79322 0.0
C236 C 0.50239 0.5509 0.0865 0.0
C237 C 0.5018 0.59369 0.11402 0.0
C238 C 0.48964 0.57209 0.10161 0.0
C239 C 0.52724 0.55116 0.0994 0.0
C240 C 0.53939 0.57273 0.10901 0.0
C241 C 0.52689 0.59441 0.10981 0.0
C242 C 0.49158 0.5318 0.02588 0.0
O243 O 0.54518 0.51961 0.88715 0.0
O244 O 0.56286 0.52138 0.73272 0.0
O245 O 0.52666 0.55079 0.6424 0.0
O246 O 0.5177 0.55708 0.80739 0.0
C247 C 0.56423 0.52146 0.8304 0.0
O248 O 0.55496 0.49058 0.54475 0.0
O249 O 0.53075 0.51628 0.48011 0.0
O250 O 0.49183 0.5011 0.62804 0.0
O251 O 0.47742 0.52499 0.75071 0.0
O252 O 0.50173 0.48265 0.83394 0.0
O253 O 0.53328 0.47659 0.73054 0.0
C254 C 0.52264 0.56519 0.71764 0.0
O255 O 0.48172 0.53945 0.94405 0.0
O256 O 0.50484 0.51313 0.00919 0.0
C257 C 0.53147 0.4775 0.41151 0.0
C258 C 0.50583 0.43451 0.3913 0.0
C259 C 0.53091 0.43462 0.3861 0.0
C260 C 0.54362 0.45594 0.39671 0.0
C261 C 0.50648 0.47774 0.40218 0.0
C262 C 0.49382 0.45644 0.39314 0.0
C263 C 0.54351 0.49717 0.46468 0.0
H264 H 0.49147 0.60992 0.12006 0.0
H265 H 0.47044 0.57236 0.09331 0.0
H266 H 0.53759 0.53502 0.09069 0.0
H267 H 0.5586 0.57236 0.10683 0.0
H268 H 0.54079 0.41811 0.37989 0.0
H269 H 0.56287 0.45526 0.40265 0.0
H270 H 0.49647 0.49408 0.41186 0.0
H271 H 0.4746 0.45711 0.39596 0.0
Tb272 Tb 1.01524 0.4976 0.8259 0.0
Eu273 Eu 0.02701 0.52635 0.62227 0.0
C274 C 0.02398 0.46905 0.62872 0.0
C275 C 0.06944 0.50865 0.77315 0.0
C276 C 0.97723 0.48943 0.02318 0.0
C277 C 0.93424 0.487 0.00496 0.0
C278 C 0.95636 0.47577 0.01435 0.0
C279 C 0.97514 0.51429 0.03574 0.0
C280 C 0.95327 0.52553 0.02306 0.0
C281 C 0.93263 0.51213 1.00283 0.0
C282 C 0.99971 0.47995 0.98269 0.0
O283 O 1.00672 0.53516 0.85439 0.0
O284 O 0.03295 0.55241 0.74749 0.0
O285 O 0.9869 0.52919 0.63608 0.0
O286 O 0.98127 0.49828 0.74499 0.0
C287 C 0.01957 0.55359 0.82683 0.0
O288 O 0.02243 0.55791 0.52895 0.0
O289 O 0.04516 0.52909 0.47932 0.0
O290 O 0.01814 0.48826 0.57761 0.0
O291 O 0.02891 0.47049 0.72438 0.0
O292 O 0.05359 0.50303 0.84125 0.0
O293 O 0.06315 0.51549 0.68305 0.0
C294 C 0.97275 0.51412 0.68204 0.0
O295 O 0.9973 0.46934 0.89693 0.0
O296 O 0.01767 0.49479 0.98186 0.0
C297 C 0.05928 0.56802 0.45687 0.0
C298 C 0.10385 0.59109 0.45278 0.0
C299 C 0.08928 0.59283 0.53705 0.0
C300 C 0.06719 0.58137 0.53915 0.0
C301 C 0.07304 0.56761 0.3703 0.0
C302 C 0.0951 0.57916 0.36796 0.0
C303 C 0.03914 0.55142 0.46745 0.0
H304 H 0.9186 0.47593 0.99479 0.0
H305 H 0.95739 0.45658 0.00497 0.0
H306 H 0.99076 0.5255 0.04409 0.0
H307 H 0.95307 0.54484 0.02262 0.0
H308 H 0.09553 0.60194 0.60322 0.0
H309 H 0.05699 0.58177 0.60738 0.0
H310 H 0.06742 0.55711 0.3068 0.0
H311 H 0.10605 0.57713 0.30234 0.0
H312 H 0.16469 1.01409 0.20499 0.0
H313 H 0.22005 0.02343 0.42776 0.0
H314 H 0.18953 0.02121 0.55993 0.0
H315 H 0.12138 0.05089 0.32274 0.0
H316 H 0.09643 0.0325 0.28675 0.0
H317 H 0.12277 0.0333 0.21074 0.0
H318 H 0.12642 0.98731 0.22396 0.0
H319 H 0.10003 0.98637 0.29979 0.0
H320 H 0.12739 0.97342 0.34496 0.0
H321 H 0.15208 0.01978 0.66833 0.0
H322 H 0.11186 1.01837 0.74221 0.0
H323 H 0.08101 1.01106 0.44735 0.0
C324 C 0.17053 1.01576 0.28145 0.0
C325 C 0.195 0.01904 0.30522 0.0
C326 C 0.20161 0.02064 0.40692 0.0
C327 C 0.18431 0.01956 0.48269 0.0
C328 C 0.16037 1.01682 0.45612 0.0
C329 C 0.15353 1.01484 0.35776 0.0
C330 C 0.12664 1.01256 0.34826 0.0
C331 C 0.1162 0.03356 0.2886 0.0
C332 C 0.11972 0.98848 0.30149 0.0
C333 C 0.1193 1.01371 0.45667 0.0
C334 C 0.139 1.01611 0.51785 0.0
C335 C 0.13659 1.01782 0.62086 0.0
C336 C 0.11358 1.01703 0.66223 0.0
C337 C 0.09306 1.01459 0.60108 0.0
C338 C 0.09618 1.0129 0.4967 0.0
H339 H 0.50504 0.14914 0.18459 0.0
H340 H 0.54111 0.20339 0.35993 0.0
H341 H 0.54682 0.17409 0.49527 0.0
H342 H 0.47486 0.11981 0.38501 0.0
H343 H 0.47886 0.09021 0.33535 0.0
H344 H 0.47734 0.11549 0.25259 0.0
H345 H 0.51812 0.10387 0.17722 0.0
H346 H 0.51978 0.07855 0.25972 0.0
H347 H 0.54353 0.10023 0.25805 0.0
H348 H 0.54934 0.13843 0.61145 0.0
H349 H 0.54752 0.09998 0.70036 0.0
H350 H 0.51029 0.06836 0.44956 0.0
C351 C 0.51434 0.15494 0.25093 0.0
C352 C 0.52257 0.17886 0.26068 0.0
C353 C 0.53425 0.18547 0.35027 0.0
C354 C 0.53778 0.16882 0.42757 0.0
C355 C 0.5296 0.14546 0.41486 0.0
C356 C 0.51811 0.13851 0.32872 0.0
C357 C 0.51111 0.11226 0.33365 0.0
C358 C 0.48393 0.10928 0.32623 0.0
C359 C 0.5239 0.09789 0.25235 0.0
C360 C 0.52021 0.10556 0.43659 0.0
C361 C 0.53097 0.12496 0.48178 0.0
C362 C 0.54094 0.12317 0.57659 0.0
C363 C 0.53986 0.10112 0.62659 0.0
C364 C 0.52877 0.08093 0.58259 0.0
C365 C 0.51882 0.08335 0.48592 0.0
H366 H 0.37712 0.48111 0.24943 0.0
H367 H 0.33226 0.53641 0.37625 0.0
H368 H 0.36139 0.54183 0.51155 0.0
H369 H 0.40084 0.45654 0.47831 0.0
H370 H 0.4304 0.45265 0.42914 0.0
H371 H 0.40497 0.45116 0.34733 0.0
H372 H 0.4231 0.48419 0.23668 0.0
H373 H 0.44866 0.48624 0.31731 0.0
H374 H 0.43122 0.51245 0.29114 0.0
H375 H 0.39671 0.54283 0.63 0.0
H376 H 0.43539 0.54019 0.71708 0.0
H377 H 0.45852 0.48628 0.50755 0.0
C378 C 0.37323 0.49446 0.30506 0.0
C379 C 0.35194 0.5082 0.30086 0.0
C380 C 0.34789 0.52513 0.37752 0.0
C381 C 0.36453 0.52854 0.45479 0.0
C382 C 0.38542 0.51506 0.4549 0.0
C383 C 0.38985 0.4984 0.38174 0.0
C384 C 0.41439 0.48737 0.39499 0.0
C385 C 0.41253 0.46033 0.41355 0.0
C386 C 0.43028 0.49288 0.30471 0.0
C387 C 0.4231 0.5004 0.48722 0.0
C388 C 0.40604 0.51617 0.521 0.0
C389 C 0.41013 0.53047 0.60417 0.0
C390 C 0.43223 0.5288 0.65339 0.0
C391 C 0.45021 0.51305 0.61933 0.0
C392 C 0.44532 0.49856 0.5354 0.0
H393 H 0.02225 0.37675 0.17095 0.0
H394 H 0.03444 0.31975 0.3841 0.0
H395 H 0.03275 0.34919 0.52101 0.0
H396 H 0.05869 0.42024 0.29017 0.0
H397 H 0.03944 0.44503 0.26102 0.0
H398 H 0.04008 0.41935 0.18072 0.0
H399 H 0.99448 0.41429 0.20014 0.0
H400 H 0.99369 0.44005 0.28011 0.0
H401 H 0.98184 0.41193 0.32287 0.0
H402 H 0.03216 0.38564 0.63466 0.0
H403 H 0.03081 0.42515 0.71537 0.0
H404 H 0.01927 0.45859 0.42778 0.0
C405 C 0.02456 0.37034 0.24637 0.0
C406 C 0.02857 0.34572 0.26609 0.0
C407 C 0.03108 0.33831 0.36646 0.0
C408 C 0.03032 0.355 0.44485 0.0
C409 C 0.02688 0.37912 0.42227 0.0
C410 C 0.02385 0.38674 0.32535 0.0
C411 C 0.02086 0.41371 0.32054 0.0
C412 C 0.04097 0.42525 0.25951 0.0
C413 C 0.99625 0.42038 0.27844 0.0
C414 C 0.02291 0.42019 0.42991 0.0
C415 C 0.02639 0.39998 0.48735 0.0
C416 C 0.0293 0.40151 0.5902 0.0
C417 C 0.02857 0.42414 0.63546 0.0
C418 C 0.0249 0.44519 0.57847 0.0
C419 C 0.02201 0.44299 0.47401 0.0
H420 H 0.87952 0.97884 0.21319 0.0
H421 H 0.8412 0.04246 0.11975 0.0
H422 H 0.87213 0.05038 0.99433 0.0
H423 H 0.93729 1.00536 0.19696 0.0
H424 H 0.95189 0.97869 0.15433 0.0
H425 H 0.92578 0.97643 0.23112 0.0
H426 H 0.90486 0.95041 0.09829 0.0
H427 H 0.93093 0.95222 0.0209 0.0
H428 H 0.90236 0.96128 0.9724 0.0
H429 H 0.90845 0.05261 0.88306 0.0
H430 H 0.94677 0.04883 0.79534 0.0
H431 H 0.96252 0.98468 0.96391 0.0
C432 C 0.87748 0.9945 0.16678 0.0
C433 C 0.85749 1.00991 0.17732 0.0
C434 C 0.8558 0.02997 0.11294 0.0
C435 C 0.87349 0.03478 0.04164 0.0
C436 C 0.89304 0.0195 0.03503 0.0
C437 C 0.89513 0.99974 0.09586 0.0
C438 C 0.91846 0.98673 0.07664 0.0
C439 C 0.93429 0.98681 0.1703 0.0
C440 C 0.91387 0.96114 0.03985 0.0
C441 C 0.92912 1.0022 0.99505 0.0
C442 C 0.91414 0.021 0.97222 0.0
C443 C 0.92024 0.03789 0.90031 0.0
C444 C 0.94213 0.03556 0.85066 0.0
C445 C 0.95793 1.01648 0.8727 0.0
C446 C 0.9511 0.99956 0.94582 0.0
H447 H 0.51054 0.88376 0.31756 0.0
H448 H 0.5501 0.83196 0.14352 0.0
H449 H 0.55279 0.86092 0.00635 0.0
H450 H 0.47823 0.91087 0.10902 0.0
H451 H 0.48003 0.94042 0.1613 0.0
H452 H 0.47972 0.91461 0.24183 0.0
H453 H 0.51922 0.92949 0.32267 0.0
H454 H 0.51987 0.9548 0.23984 0.0
H455 H 0.54481 0.93462 0.24483 0.0
H456 H 0.55221 0.89577 0.88809 0.0
H457 H 0.54886 0.93396 0.79841 0.0
H458 H 0.51182 0.96482 0.05024 0.0
C459 C 0.51985 0.87838 0.25094 0.0
C460 C 0.52991 0.85514 0.24249 0.0
C461 C 0.54165 0.84917 0.15244 0.0
C462 C 0.5435 0.86568 0.07387 0.0
C463 C 0.53369 0.88836 0.08553 0.0
C464 C 0.52209 0.89477 0.17174 0.0
C465 C 0.51361 0.92057 0.16566 0.0
C466 C 0.48627 0.9217 0.16973 0.0
C467 C 0.52506 0.93576 0.24816 0.0
C468 C 0.5227 0.92783 0.06341 0.0
C469 C 0.53396 0.9088 0.01821 0.0
C470 C 0.54347 0.91077 0.92297 0.0
C471 C 0.54143 0.93265 0.87245 0.0
C472 C 0.53017 0.95263 0.91687 0.0
C473 C 0.52073 0.95007 0.01421 0.0
H474 H 0.65554 0.53698 0.28513 0.0
H475 H 0.7095 0.50294 0.10319 0.0
H476 H 0.6811 0.50161 0.96276 0.0
H477 H 0.60614 0.50213 0.19726 0.0
H478 H 0.5855 0.52674 0.20161 0.0
H479 H 0.61058 0.52596 0.28539 0.0
H480 H 0.62393 0.56761 0.22227 0.0
H481 H 0.59907 0.56846 0.13776 0.0
H482 H 0.62885 0.5722 0.09115 0.0
H483 H 0.64593 0.50374 0.84048 0.0
H484 H 0.60706 0.50662 0.75374 0.0
H485 H 0.57576 0.53697 0.01905 0.0
C486 C 0.66148 0.52893 0.21648 0.0
C487 C 0.68508 0.52013 0.2065 0.0
C488 C 0.69185 0.51027 0.11349 0.0
C489 C 0.67572 0.50928 0.033 0.0
C490 C 0.65267 0.51807 0.046 0.0
C491 C 0.64555 0.52752 0.13589 0.0
C492 C 0.61968 0.53536 0.13176 0.0
C493 C 0.60459 0.52173 0.20855 0.0
C494 C 0.61777 0.56251 0.14658 0.0
C495 C 0.6131 0.5283 0.02619 0.0
C496 C 0.63247 0.51874 0.9772 0.0
C497 C 0.63068 0.51115 0.87853 0.0
C498 C 0.6085 0.51296 0.82958 0.0
C499 C 0.58818 0.52192 0.87949 0.0
C500 C 0.59077 0.52987 0.97891 0.0
H501 H 0.02396 0.64381 0.29036 0.0
H502 H 0.99863 0.69913 0.0882 0.0
H503 H 1.00019 0.67054 0.95076 0.0
H504 H 0.06183 0.61269 0.11955 0.0
H505 H 0.05374 0.58338 0.16325 0.0
H506 H 0.05281 0.6085 0.24691 0.0
H507 H 1.0087 0.59964 0.2868 0.0
H508 H 1.00938 0.57429 0.20465 0.0
H509 H 0.98739 0.59733 0.18659 0.0
H510 H 1.00515 0.63576 0.83161 0.0
H511 H 1.00938 0.59689 0.74582 0.0
H512 H 0.02535 0.56269 0.02743 0.0
C513 C 0.0184 0.65019 0.21806 0.0
C514 C 1.01145 0.67442 0.20252 0.0
C515 C 1.00486 0.68128 0.10423 0.0
C516 C 1.00539 0.66495 0.02479 0.0
C517 C 1.01204 0.6414 0.04364 0.0
C518 C 0.01811 0.63393 0.13819 0.0
C519 C 0.02343 0.60727 0.13935 0.0
C520 C 0.0495 0.6027 0.16907 0.0
C521 C 1.00619 0.59385 0.20844 0.0
C522 C 0.01908 0.60086 0.03088 0.0
C523 C 1.01308 0.62097 0.97653 0.0
C524 C 1.00952 0.61989 0.87382 0.0
C525 C 1.01199 0.59775 0.82562 0.0
C526 C 1.01733 0.57676 0.88005 0.0
C527 C 0.02083 0.57839 0.98423 0.0
H528 H 0.98256 0.2313 0.33905 0.0
H529 H 0.93724 0.22455 0.08101 0.0
H530 H 0.91364 0.19374 0.16597 0.0
H531 H 0.99392 0.17916 0.36836 0.0
H532 H 0.99355 0.17515 0.50137 0.0
H533 H 0.99833 0.20421 0.45083 0.0
H534 H 0.96261 0.221 0.54799 0.0
H535 H 0.95765 0.19193 0.60218 0.0
H536 H 0.93379 0.20695 0.5378 0.0
H537 H 0.90814 0.15443 0.23703 0.0
H538 H 0.91859 0.11408 0.29404 0.0
H539 H 0.9658 0.14437 0.5158 0.0
C540 C 0.9664 0.22466 0.30465 0.0
C541 C 0.96144 0.23029 0.20465 0.0
C542 C 0.94093 0.22071 0.15855 0.0
C543 C 0.92751 0.20305 0.20644 0.0
C544 C 0.9347 0.19543 0.30077 0.0
C545 C 0.95319 0.20662 0.3515 0.0
C546 C 0.96113 0.19181 0.4402 0.0
C547 C 0.9883 0.18731 0.43987 0.0
C548 C 0.95332 0.20363 0.53782 0.0
C549 C 0.9471 0.16913 0.42176 0.0
C550 C 0.9311 0.17192 0.34408 0.0
C551 C 0.91978 0.15227 0.3007 0.0
C552 C 0.92585 0.12928 0.33354 0.0
C553 C 0.9432 0.1261 0.40886 0.0
C554 C 0.95259 0.14636 0.45764 0.0
H555 H 0.31197 0.9743 0.40202 0.0
H556 H 0.31228 0.92507 0.15578 0.0
H557 H 0.34112 0.89964 0.244 0.0
H558 H 0.3656 0.98061 0.42527 0.0
H559 H 0.3698 0.98158 0.55826 0.0
H560 H 0.3414 0.98873 0.50657 0.0
H561 H 0.32137 0.95633 0.61397 0.0
H562 H 0.34984 0.94874 0.66775 0.0
H563 H 0.33194 0.92597 0.60979 0.0
H564 H 0.37953 0.89027 0.3162 0.0
H565 H 0.42106 0.89643 0.3702 0.0
H566 H 0.398 0.95144 0.57345 0.0
C567 C 0.31675 0.95712 0.37128 0.0
C568 C 0.30974 0.95126 0.27375 0.0
C569 C 0.31706 0.9294 0.23179 0.0
C570 C 0.33358 0.91493 0.28152 0.0
C571 C 0.34245 0.92255 0.37329 0.0
C572 C 0.33369 0.94283 0.41966 0.0
C573 C 0.34967 0.9503 0.50535 0.0
C574 C 0.35706 0.97683 0.49813 0.0
C575 C 0.33747 0.94502 0.60512 0.0
C576 C 0.37054 0.93364 0.48943 0.0
C577 C 0.36551 0.9169 0.4166 0.0
C578 C 0.38337 0.9026 0.37602 0.0
C579 C 0.40698 0.90631 0.40652 0.0
C580 C 0.41257 0.92426 0.47656 0.0
C581 C 0.39399 0.93708 0.52227 0.0
H582 H 0.5044 0.29996 0.41634 0.0
H583 H 0.43792 0.30436 0.25701 0.0
H584 H 0.42962 0.34301 0.33361 0.0
H585 H 0.48321 0.34727 0.63997 0.0
H586 H 0.51357 0.35775 0.6422 0.0
H587 H 0.50737 0.32628 0.6295 0.0
H588 H 0.53332 0.3258 0.47148 0.0
H589 H 0.5387 0.35712 0.47981 0.0
H590 H 0.52562 0.34498 0.36808 0.0
H591 H 0.44001 0.3848 0.33639 0.0
H592 H 0.46117 0.42292 0.31899 0.0
H593 H 0.52007 0.39446 0.49185 0.0
C594 C 0.48708 0.30812 0.40638 0.0
C595 C 0.47214 0.29993 0.32937 0.0
C596 C 0.44962 0.31062 0.31575 0.0
C597 C 0.44495 0.33288 0.3582 0.0
C598 C 0.46249 0.34326 0.41791 0.0
C599 C 0.48249 0.33055 0.4485 0.0
C600 C 0.5009 0.34717 0.49439 0.0
C601 C 0.50127 0.34446 0.60824 0.0
C602 C 0.52606 0.34355 0.45057 0.0
C603 C 0.49048 0.37104 0.46505 0.0
C604 C 0.46791 0.36854 0.42481 0.0
C605 C 0.457 0.38725 0.37329 0.0
C606 C 0.46931 0.40889 0.36285 0.0
C607 C 0.49239 0.41179 0.40402 0.0
C608 C 0.50259 0.39279 0.45849 0.0
H609 H 0.21842 0.58841 0.16543 0.0
H610 H 0.24423 0.54732 0.41527 0.0
H611 H 0.21688 0.56883 0.52623 0.0
H612 H 0.19403 0.6445 0.31797 0.0
H613 H 0.16872 0.64523 0.23519 0.0
H614 H 0.19775 0.63737 0.18827 0.0
H615 H 0.18008 0.59818 0.11768 0.0
H616 H 0.15141 0.6055 0.16549 0.0
H617 H 0.16523 0.57768 0.20067 0.0
H618 H 0.17854 0.58096 0.59183 0.0
H619 H 0.13496 0.58179 0.60405 0.0
H620 H 0.13042 0.6136 0.31102 0.0
C621 C 0.21926 0.58526 0.24484 0.0
C622 C 0.23323 0.56638 0.28236 0.0
C623 C 0.23385 0.56201 0.38565 0.0
C624 C 0.21823 0.57416 0.44906 0.0
C625 C 0.20224 0.59057 0.40769 0.0
C626 C 0.20302 0.59655 0.30759 0.0
C627 C 0.18045 0.60923 0.27498 0.0
C628 C 0.18554 0.63566 0.25284 0.0
C629 C 0.16862 0.59687 0.18463 0.0
C630 C 0.16565 0.60661 0.36814 0.0
C631 C 0.17896 0.59709 0.44561 0.0
C632 C 0.1682 0.58925 0.53318 0.0
C633 C 0.14331 0.58981 0.53956 0.0
C634 C 0.12938 0.59782 0.45818 0.0
C635 C 0.14079 0.60761 0.3743 0.0
H636 H 1.00467 0.79571 0.041 0.0
H637 H 0.93855 0.8022 0.19965 0.0
H638 H 0.92895 0.83849 0.107 0.0
H639 H 0.02592 0.84044 0.06591 0.0
H640 H 0.03771 0.85078 0.94881 0.0
H641 H 0.03238 0.81972 0.96662 0.0
H642 H 1.005 0.81841 0.81235 0.0
H643 H 1.01079 0.84973 0.79202 0.0
H644 H 0.98058 0.83909 0.80096 0.0
H645 H 0.93929 0.87962 0.09695 0.0
H646 H 0.96147 0.91683 0.11818 0.0
H647 H 0.01948 0.8878 0.94382 0.0
C648 C 0.98721 0.8037 0.04785 0.0
C649 C 0.97255 0.79686 0.12761 0.0
C650 C 0.94993 0.80739 0.13833 0.0
C651 C 0.94448 0.82824 0.08618 0.0
C652 C 0.96157 0.83764 0.02184 0.0
C653 C 0.98181 0.82477 0.99581 0.0
C654 C 0.99974 0.84082 0.94367 0.0
C655 C 0.02539 0.83777 0.984 0.0
C656 C 0.99896 0.83677 0.83058 0.0
C657 C 0.9894 0.86496 0.96894 0.0
C658 C 0.96681 0.86283 0.00906 0.0
C659 C 0.95627 0.88175 0.06015 0.0
C660 C 0.96919 0.90292 0.07278 0.0
C661 C 0.99243 0.90527 0.03336 0.0
C662 C 1.00195 0.88642 0.97648 0.0
H663 H 0.7254 0.09377 0.30609 0.0
H664 H 0.75372 0.0536 0.05971 0.0
H665 H 0.72791 0.07579 0.94427 0.0
H666 H 0.67296 0.08376 0.26106 0.0
H667 H 0.65878 0.11156 0.29323 0.0
H668 H 0.68697 0.10429 0.34657 0.0
H669 H 0.70526 0.14348 0.27898 0.0
H670 H 0.67669 0.15131 0.22649 0.0
H671 H 0.70276 0.15065 0.14863 0.0
H672 H 0.69009 0.0871 0.87295 0.0
H673 H 0.64673 0.08666 0.8541 0.0
H674 H 0.6392 0.11936 0.14394 0.0
C675 C 0.72712 0.09098 0.22679 0.0
C676 C 0.74125 0.07205 0.19133 0.0
C677 C 0.74315 0.06825 0.08801 0.0
C678 C 0.7284 0.0808 0.02194 0.0
C679 C 0.712 0.09708 0.06067 0.0
C680 C 0.71172 0.10271 0.16111 0.0
C681 C 0.68884 0.11534 0.18931 0.0
C682 C 0.67617 0.10295 0.27749 0.0
C683 C 0.69368 0.14177 0.21215 0.0
C684 C 0.67494 0.11275 0.09334 0.0
C685 C 0.68904 0.10345 0.01841 0.0
C686 C 0.67913 0.09526 0.92952 0.0
C687 C 0.6543 0.0951 0.91935 0.0
C688 C 0.63955 0.10291 0.99806 0.0
C689 C 0.65013 0.11331 0.08285 0.0
H690 H 0.5267 0.72947 0.08884 0.0
H691 H 0.59508 0.72587 0.23414 0.0
H692 H 0.60256 0.68694 0.1584 0.0
H693 H 0.50645 0.68385 0.14179 0.0
H694 H 0.49227 0.67176 0.03233 0.0
H695 H 0.49738 0.70314 0.04072 0.0
H696 H 0.52183 0.70352 0.87806 0.0
H697 H 0.51533 0.67216 0.86543 0.0
H698 H 0.54572 0.68242 0.86168 0.0
H699 H 0.59227 0.6451 0.1587 0.0
H700 H 0.57173 0.60677 0.17831 0.0
H701 H 0.51132 0.63462 0.0126 0.0
C702 C 0.54415 0.7214 0.09567 0.0
C703 C 0.56007 0.73003 0.16823 0.0
C704 C 0.5827 0.71935 0.17843 0.0
C705 C 0.58692 0.69695 0.13649 0.0
C706 C 0.56878 0.68638 0.08062 0.0
C707 C 0.54841 0.69892 0.05358 0.0
C708 C 0.52972 0.6822 0.01067 0.0
C709 C 0.50506 0.68544 0.05952 0.0
C710 C 0.52809 0.68526 0.89723 0.0
C711 C 0.54072 0.65837 0.03704 0.0
C712 C 0.56356 0.66108 0.07413 0.0
C713 C 0.57507 0.64246 0.12386 0.0
C714 C 0.5631 0.62068 0.13547 0.0
C715 C 0.53981 0.61745 0.09676 0.0
C716 C 0.52897 0.63644 0.04417 0.0
H717 H 0.83086 0.58596 0.19222 0.0
H718 H 0.78856 0.5299 0.06093 0.0
H719 H 0.81765 0.52563 0.92702 0.0
H720 H 0.87034 0.60092 0.94184 0.0
H721 H 0.89574 0.6043 0.02294 0.0
H722 H 0.86694 0.6152 0.06097 0.0
H723 H 0.87035 0.59025 0.22297 0.0
H724 H 0.89865 0.5795 0.18474 0.0
H725 H 0.87535 0.55846 0.21403 0.0
H726 H 0.85606 0.51326 0.86597 0.0
H727 H 0.89623 0.49647 0.88034 0.0
H728 H 0.91682 0.55541 0.07095 0.0
C729 C 0.82721 0.57409 0.13057 0.0
C730 C 0.80808 0.55791 0.13738 0.0
C731 C 0.80323 0.54247 0.05704 0.0
C732 C 0.81988 0.53986 0.98059 0.0
C733 C 0.84118 0.55276 0.98633 0.0
C734 C 0.8446 0.57033 0.05804 0.0
C735 C 0.87081 0.5764 0.06947 0.0
C736 C 0.87627 0.60063 0.02085 0.0
C737 C 0.87921 0.57605 0.17916 0.0
C738 C 0.8816 0.55635 0.00962 0.0
C739 C 0.86443 0.54426 0.95541 0.0
C740 C 0.86966 0.52297 0.90639 0.0
C741 C 0.89249 0.51322 0.91699 0.0
C742 C 0.90972 0.52431 0.97885 0.0
C743 C 0.90435 0.54665 0.02171 0.0
H744 H 0.99243 0.19484 0.89058 0.0
H745 H 0.05737 0.20266 0.06243 0.0
H746 H 0.07069 0.16285 0.00479 0.0
H747 H 0.98226 0.13538 0.94163 0.0
H748 H 0.97128 0.12722 0.8202 0.0
H749 H 0.96834 0.15748 0.86309 0.0
H750 H 0.99063 0.17285 0.70751 0.0
H751 H 0.99348 0.14261 0.66338 0.0
H752 H 0.0196 0.16102 0.6781 0.0
H753 H 0.07361 0.11945 0.95051 0.0
H754 H 0.06828 0.0782 0.88872 0.0
H755 H 1.00252 0.09908 0.74321 0.0
C756 C 1.00984 0.1885 0.91329 0.0
C757 C 0.02402 0.20205 0.98023 0.0
C758 C 0.04645 0.19291 0.00975 0.0
C759 C 0.05404 0.17018 0.97795 0.0
C760 C 0.03919 0.15691 0.91511 0.0
C761 C 0.01778 0.16599 0.8812 0.0
C762 C 1.00457 0.14771 0.81803 0.0
C763 C 0.98018 0.14159 0.86349 0.0
C764 C 1.00192 0.15658 0.71036 0.0
C765 C 0.02149 0.12661 0.82415 0.0
C766 C 0.04133 0.13227 0.88075 0.0
C767 C 0.05842 0.11506 0.9042 0.0
C768 C 0.0552 0.09161 0.86906 0.0
C769 C 0.03521 0.08545 0.80972 0.0
C770 C 0.0183 0.10336 0.7862 0.0
H771 H 0.34977 0.97581 0.97285 0.0
H772 H 0.33648 0.04707 0.08509 0.0
H773 H 0.37521 0.06045 0.01645 0.0
H774 H 0.41031 0.97387 0.03435 0.0
H775 H 0.41936 0.95732 0.92604 0.0
H776 H 0.38955 0.95413 0.97317 0.0
H777 H 0.37243 0.96586 0.80165 0.0
H778 H 0.40215 0.96901 0.75304 0.0
H779 H 0.38144 0.9935 0.74393 0.0
H780 H 0.41784 0.06461 0.95281 0.0
H781 H 0.45878 0.06022 0.88855 0.0
H782 H 0.44409 0.98619 0.81575 0.0
C783 C 0.35477 0.99438 0.98136 0.0
C784 C 0.33992 1.01043 0.03433 0.0
C785 C 0.34724 0.03453 0.04372 0.0
C786 C 0.36935 0.04222 0.00559 0.0
C787 C 0.38391 0.02568 0.95721 0.0
C788 C 0.37671 1.00232 0.94377 0.0
C789 C 0.39605 0.98772 0.89352 0.0
C790 C 0.4043 0.96705 0.9608 0.0
C791 C 0.38751 0.97849 0.7919 0.0
C792 C 0.41547 1.00638 0.88194 0.0
C793 C 0.40815 0.02816 0.91932 0.0
C794 C 0.42355 0.04772 0.92209 0.0
C795 C 0.44687 0.045 0.88567 0.0
C796 C 0.45475 0.02291 0.84619 0.0
C797 C 0.43863 1.00343 0.84398 0.0
H798 H 0.47456 0.34604 0.05012 0.0
H799 H 0.54116 0.31383 0.95643 0.0
H800 H 0.55071 0.35071 0.86249 0.0
H801 H 0.46229 0.38215 0.83186 0.0
H802 H 0.45145 0.40695 0.90397 0.0
H803 H 0.4484 0.37693 0.95068 0.0
H804 H 0.47059 0.38904 0.11228 0.0
H805 H 0.47379 0.41905 0.06614 0.0
H806 H 0.49974 0.4024 0.10395 0.0
H807 H 0.55399 0.39288 0.78719 0.0
H808 H 0.55158 0.43551 0.74238 0.0
H809 H 0.48479 0.44137 0.90212 0.0
C810 C 0.49132 0.3465 0.01062 0.0
C811 C 0.50722 0.32668 0.0127 0.0
C812 C 0.52846 0.32835 0.95618 0.0
C813 C 0.53414 0.34942 0.90304 0.0
C814 C 0.51854 0.36889 0.90739 0.0
C815 C 0.49757 0.36754 0.96019 0.0
C816 C 0.48462 0.39138 0.96033 0.0
C817 C 0.46025 0.38922 0.90862 0.0
C818 C 0.48204 0.40103 0.06696 0.0
C819 C 0.50162 0.40662 0.89969 0.0
C820 C 0.52091 0.39322 0.86854 0.0
C821 C 0.53895 0.40342 0.81146 0.0
C822 C 0.53738 0.42779 0.78631 0.0
C823 C 0.51803 0.44211 0.81878 0.0
C824 C 0.49988 0.43114 0.87612 0.0
H825 H 0.18224 0.5072 0.13905 0.0
H826 H 0.22779 0.51389 0.8809 0.0
H827 H 0.1924 0.50956 0.77112 0.0
H828 H 0.13845 0.46474 0.03194 0.0
H829 H 0.1139 0.479 0.0942 0.0
H830 H 0.14314 0.47925 0.14998 0.0
H831 H 0.14147 0.5254 0.16025 0.0
H832 H 0.11244 0.52537 0.10316 0.0
H833 H 0.13627 0.54251 0.04866 0.0
H834 H 0.15078 0.5098 0.69068 0.0
H835 H 0.10797 0.51097 0.64699 0.0
H836 H 0.08989 0.5043 0.95937 0.0
C837 C 0.18489 0.50708 0.05929 0.0
C838 C 0.20791 0.51071 0.01859 0.0
C839 C 0.21049 0.5107 0.91387 0.0
C840 C 0.1904 0.50849 0.85102 0.0
C841 C 0.16784 0.5061 0.89396 0.0
C842 C 0.16509 0.50501 0.99593 0.0
C843 C 0.13896 0.50385 0.02438 0.0
C844 C 0.13328 0.48031 0.0783 0.0
C845 C 0.13188 0.52557 0.08782 0.0
C846 C 0.12726 0.50474 0.9226 0.0
C847 C 0.14417 0.50608 0.84817 0.0
C848 C 0.13749 0.50837 0.7485 0.0
C849 C 0.11304 0.50911 0.72438 0.0
C850 C 0.09536 0.50749 0.79937 0.0
C851 C 0.10279 0.50522 0.89978 0.0
H852 H 0.97646 0.84516 0.3977 0.0
H853 H 0.03813 0.80834 0.51923 0.0
H854 H 0.04805 0.84455 0.61671 0.0
H855 H 1.00664 0.89999 0.35597 0.0
H856 H 0.98103 0.91821 0.38284 0.0
H857 H 0.97706 0.88853 0.33434 0.0
H858 H 0.95041 0.87768 0.48478 0.0
H859 H 0.95426 0.90735 0.53388 0.0
H860 H 0.96171 0.88176 0.60929 0.0
H861 H 0.05228 0.88653 0.6949 0.0
H862 H 0.05141 0.92913 0.74069 0.0
H863 H 0.98937 0.93953 0.55223 0.0
C864 C 0.99231 0.84445 0.44352 0.0
C865 C 1.00668 0.82347 0.4483 0.0
C866 C 0.02659 0.82375 0.51364 0.0
C867 C 0.0325 0.84444 0.56896 0.0
C868 C 0.01851 0.86499 0.5581 0.0
C869 C 0.99884 0.86507 0.49646 0.0
C870 C 0.98752 0.88974 0.4917 0.0
C871 C 0.98811 0.89969 0.38491 0.0
C872 C 0.96196 0.88908 0.53235 0.0
C873 C 1.00393 0.90379 0.5601 0.0
C874 C 0.0215 0.88911 0.59887 0.0
C875 C 0.03862 0.89806 0.66438 0.0
C876 C 0.03795 0.92245 0.69001 0.0
C877 C 0.02042 0.93808 0.64987 0.0
C878 C 1.00312 0.92834 0.58418 0.0
H879 H 0.68549 1.01693 0.31968 0.0
H880 H 0.73116 1.01158 0.57938 0.0
H881 H 0.69544 1.00624 0.68539 0.0
H882 H 0.64163 0.05212 0.43035 0.0
H883 H 0.61682 0.03857 0.36624 0.0
H884 H 0.64586 0.03877 0.30986 0.0
H885 H 0.64457 0.99274 0.29278 0.0
H886 H 0.61536 0.99238 0.34804 0.0
H887 H 0.63895 0.97459 0.40109 0.0
H888 H 0.65404 1.00628 0.76499 0.0
H889 H 0.61148 1.00836 0.80977 0.0
H890 H 0.59271 1.01403 0.49729 0.0
C891 C 0.68808 1.01415 0.39871 0.0
C892 C 0.71132 1.01462 0.44101 0.0
C893 C 0.71372 1.01092 0.54478 0.0
C894 C 0.69345 1.00811 0.60568 0.0
C895 C 0.67081 1.00884 0.56182 0.0
C896 C 0.66808 1.01145 0.4603 0.0
C897 C 0.64189 1.01293 0.43163 0.0
C898 C 0.63623 0.03702 0.38159 0.0
C899 C 0.63478 0.99191 0.36441 0.0
C900 C 0.63017 1.01102 0.533 0.0
C901 C 0.64716 1.0087 0.60717 0.0
C902 C 0.64066 1.00775 0.70718 0.0
C903 C 0.61633 1.00904 0.73193 0.0
C904 C 0.5985 1.01116 0.65731 0.0
C905 C 0.60572 1.01208 0.55636 0.0
H906 H 0.56048 0.6851 0.43747 0.0
H907 H 0.50183 0.72175 0.58111 0.0
H908 H 0.49444 0.68546 0.68324 0.0
H909 H 0.52879 0.63112 0.40483 0.0
H910 H 0.55484 0.61263 0.41887 0.0
H911 H 0.55771 0.64253 0.37134 0.0
H912 H 0.5883 0.65237 0.51012 0.0
H913 H 0.5855 0.62248 0.55843 0.0
H914 H 0.58033 0.64772 0.63851 0.0
H915 H 0.49275 0.64272 0.76481 0.0
H916 H 0.4951 0.59963 0.80651 0.0
H917 H 0.5505 0.59058 0.58621 0.0
C918 C 0.54578 0.68577 0.48923 0.0
C919 C 0.53146 0.70661 0.49872 0.0
C920 C 0.51323 0.70636 0.57166 0.0
C921 C 0.50879 0.68564 0.62969 0.0
C922 C 0.52253 0.6651 0.61354 0.0
C923 C 0.54054 0.66514 0.54401 0.0
C924 C 0.55147 0.64053 0.53231 0.0
C925 C 0.54799 0.63116 0.42557 0.0
C926 C 0.57797 0.6408 0.56162 0.0
C927 C 0.53687 0.62632 0.60626 0.0
C928 C 0.52058 0.6408 0.65431 0.0
C929 C 0.5055 0.63143 0.72727 0.0
C930 C 0.50698 0.60687 0.75067 0.0
C931 C 0.52288 0.59159 0.69935 0.0
C932 C 0.53804 0.60166 0.62649 0.0
H933 H 0.85115 0.56223 0.44046 0.0
H934 H 0.81795 0.49494 0.52103 0.0
H935 H 0.85451 0.48365 0.61375 0.0
H936 H 0.90624 0.5388 0.38386 0.0
H937 H 0.92377 0.56331 0.43102 0.0
H938 H 0.8939 0.5685 0.38769 0.0
H939 H 0.88186 0.58688 0.55544 0.0
H940 H 0.91189 0.58273 0.59998 0.0
H941 H 0.88721 0.57052 0.66892 0.0
H942 H 0.89689 0.4784 0.68579 0.0
H943 H 0.93976 0.47946 0.72794 0.0
H944 H 0.94595 0.54884 0.58639 0.0
C945 C 0.8513 0.54516 0.47838 0.0
C946 C 0.83139 0.52946 0.47248 0.0
C947 C 0.8326 0.5075 0.52487 0.0
C948 C 0.85346 0.50085 0.57726 0.0
C949 C 0.87309 0.51632 0.57697 0.0
C950 C 0.87204 0.53812 0.52917 0.0
C951 C 0.89596 0.55086 0.53292 0.0
C952 C 0.90554 0.55561 0.4276 0.0
C953 C 0.89411 0.57413 0.5929 0.0
C954 C 0.91102 0.53254 0.58748 0.0
C955 C 0.89742 0.51294 0.61424 0.0
C956 C 0.90756 0.49371 0.66505 0.0
C957 C 0.93205 0.49449 0.68866 0.0
C958 C 0.94651 0.51414 0.65987 0.0
C959 C 0.9356 0.53345 0.60902 0.0
loop_
_geom_bond_atom_site_label_1
_geom_bond_atom_site_label_2
_geom_bond_distance
_geom_bond_site_symmetry_2
_ccdc_geom_bond_type
H0 C1 0.949 . S
C1 H0 0.949 . S
C1 C2 1.395 . S
C1 C3 1.391 . S
C2 C1 1.395 . S
C2 C5 1.390 . S
C3 C1 1.391 . S
C3 C7 1.387 . S
C3 C8 1.491 . S
H4 C5 0.950 . S
C5 C2 1.390 . S
C5 H4 0.950 . S
C5 C6 1.378 . S
C6 C5 1.378 . S
C6 C7 1.409 . S
C7 C3 1.387 . S
C7 C6 1.409 . S
C7 H9 0.951 . S
C8 C3 1.491 . S
C8 C10 1.382 . S
C8 C12 1.404 . S
H9 C7 0.951 . S
C10 C8 1.382 . S
C10 C11 1.390 . S
C10 H15 0.949 . S
C11 C10 1.390 . S
C11 C16 1.399 . S
C12 C8 1.404 . S
C12 H13 0.950 . S
C12 C14 1.375 . S
H13 C12 0.950 . S
C14 C12 1.375 . S
C14 C16 1.382 . S
C14 H18 0.950 . S
H15 C10 0.949 . S
C16 C11 1.399 . S
C16 C14 1.382 . S
C16 H17 0.952 . S
H17 C16 0.952 . S
H18 C14 0.950 . S
H19 C20 0.949 . S
C20 H19 0.949 . S
C20 C21 1.395 . S
C20 C22 1.391 . S
C21 C20 1.395 . S
C21 C24 1.390 1_655 S
C22 C20 1.391 . S
C22 C26 1.387 . S
C22 C27 1.491 . S
H23 C24 0.950 . S
C24 C21 1.390 1_455 S
C24 H23 0.950 . S
C24 C25 1.377 1_455 S
C25 C24 1.377 1_655 S
C25 C26 1.413 . S
C26 C22 1.387 . S
C26 C25 1.413 . S
C26 H28 0.951 . S
C27 C22 1.491 . S
C27 C29 1.382 . S
C27 C31 1.404 . S
H28 C26 0.951 . S
C29 C27 1.382 . S
C29 C30 1.390 . S
C29 H34 0.949 1_655 S
C30 C29 1.390 . S
C30 C35 1.399 . S
C31 C27 1.404 . S
C31 H32 0.950 . S
C31 C33 1.375 . S
H32 C31 0.950 . S
C33 C31 1.375 . S
C33 C35 1.382 . S
C33 H37 0.950 . S
H34 C29 0.949 1_455 S
C35 C30 1.399 . S
C35 C33 1.382 . S
C35 H36 0.952 . S
H36 C35 0.952 . S
H37 C33 0.950 . S
H38 C39 0.949 . S
C39 H38 0.949 . S
C39 C40 1.395 . S
C39 C41 1.391 . S
C40 C39 1.395 . S
C40 C43 1.390 1_565 S
C41 C39 1.391 . S
C41 C45 1.387 . S
C41 C46 1.491 . S
H42 C43 0.950 . S
C43 C40 1.390 1_545 S
C43 H42 0.950 . S
C43 C44 1.377 1_545 S
C44 C43 1.377 1_565 S
C44 C45 1.413 . S
C45 C41 1.387 . S
C45 C44 1.413 . S
C45 H47 0.951 . S
C46 C41 1.491 . S
C46 C48 1.382 . S
C46 C50 1.404 . S
H47 C45 0.951 . S
C48 C46 1.382 . S
C48 C49 1.390 . S
C48 H53 0.949 1_565 S
C49 C48 1.390 . S
C49 C54 1.399 . S
C50 C46 1.404 . S
C50 H51 0.950 . S
C50 C52 1.375 . S
H51 C50 0.950 . S
C52 C50 1.375 . S
C52 C54 1.382 . S
C52 H56 0.950 . S
H53 C48 0.949 1_545 S
C54 C49 1.399 . S
C54 C52 1.382 . S
C54 H55 0.952 . S
H55 C54 0.952 . S
H56 C52 0.950 . S
H57 C58 0.949 . S
C58 H57 0.949 . S
C58 C59 1.395 . S
C58 C60 1.391 . S
C59 C58 1.395 . S
C59 C62 1.390 . S
C60 C58 1.391 . S
C60 C64 1.387 . S
C60 C65 1.491 . S
H61 C62 0.950 . S
C62 C59 1.390 . S
C62 H61 0.950 . S
C62 C63 1.378 . S
C63 C62 1.378 . S
C63 C64 1.409 . S
C64 C60 1.387 . S
C64 C63 1.409 . S
C64 H66 0.951 . S
C65 C60 1.491 . S
C65 C67 1.382 . S
C65 C69 1.404 . S
H66 C64 0.951 . S
C67 C65 1.382 . S
C67 C68 1.390 . S
C67 H72 0.949 . S
C68 C67 1.390 . S
C68 C73 1.399 . S
C69 C65 1.404 . S
C69 H70 0.950 . S
C69 C71 1.375 . S
H70 C69 0.950 . S
C71 C69 1.375 . S
C71 C73 1.382 . S
C71 H75 0.950 . S
H72 C67 0.949 . S
C73 C68 1.399 . S
C73 C71 1.382 . S
C73 H74 0.952 . S
H74 C73 0.952 . S
H75 C71 0.950 . S
H76 C77 0.949 . S
C77 H76 0.949 . S
C77 C78 1.395 . S
C77 C79 1.394 . S
C78 C77 1.395 . S
C78 C81 1.390 1_554 S
C79 C77 1.394 . S
C79 C83 1.384 1_554 S
C79 C84 1.491 . S
H80 C81 0.950 . S
C81 C78 1.390 1_556 S
C81 H80 0.950 . S
C81 C82 1.378 . S
C82 C81 1.378 . S
C82 C83 1.409 . S
C83 C79 1.384 1_556 S
C83 C82 1.409 . S
C83 H85 0.951 . S
C84 C79 1.491 . S
C84 C86 1.382 . S
C84 C88 1.404 1_554 S
H85 C83 0.951 . S
C86 C84 1.382 . S
C86 C87 1.390 . S
C86 H91 0.949 . S
C87 C86 1.390 . S
C87 C92 1.399 . S
C88 C84 1.404 1_556 S
C88 H89 0.950 . S
C88 C90 1.375 . S
H89 C88 0.950 . S
C90 C88 1.375 . S
C90 C92 1.382 1_556 S
C90 H94 0.950 . S
H91 C86 0.949 . S
C92 C87 1.399 . S
C92 C90 1.382 1_554 S
C92 H93 0.952 . S
H93 C92 0.952 . S
H94 C90 0.950 . S
H95 C96 0.949 . S
C96 H95 0.949 . S
C96 C97 1.394 . S
C96 C98 1.391 . S
C97 C96 1.394 . S
C97 C100 1.391 1_654 S
C98 C96 1.391 . S
C98 C102 1.387 1_554 S
C98 C103 1.491 . S
H99 C100 0.950 . S
C100 C97 1.391 1_456 S
C100 H99 0.950 . S
C100 C101 1.377 1_455 S
C101 C100 1.377 1_655 S
C101 C102 1.411 . S
C102 C98 1.387 1_556 S
C102 C101 1.411 . S
C102 H104 0.951 . S
C103 C98 1.491 . S
C103 C105 1.402 . S
C103 C107 1.404 1_554 S
H104 C102 0.951 . S
C105 C103 1.402 . S
C105 C106 1.400 . S
C105 H110 0.920 1_655 S
C106 C105 1.400 . S
C106 C111 1.399 . S
C107 C103 1.404 1_556 S
C107 H108 0.950 . S
C107 C109 1.375 . S
H108 C107 0.950 . S
C109 C107 1.375 . S
C109 C111 1.382 1_556 S
C109 H113 0.950 . S
H110 C105 0.920 1_455 S
C111 C106 1.399 . S
C111 C109 1.382 1_554 S
C111 H112 0.952 . S
H112 C111 0.952 . S
H113 C109 0.950 . S
H114 C115 0.949 . S
C115 H114 0.949 . S
C115 C116 1.395 1_565 S
C115 C117 1.391 . S
C116 C115 1.395 1_545 S
C116 C119 1.390 1_554 S
C117 C115 1.391 . S
C117 C121 1.387 1_554 S
C117 C122 1.491 . S
H118 C119 0.950 . S
C119 C116 1.390 1_556 S
C119 H118 0.950 . S
C119 C120 1.377 1_545 S
C120 C119 1.377 1_565 S
C120 C121 1.411 . S
C121 C117 1.387 1_556 S
C121 C120 1.411 . S
C121 H123 0.951 . S
C122 C117 1.491 . S
C122 C124 1.402 . S
C122 C126 1.404 1_554 S
H123 C121 0.951 . S
C124 C122 1.402 . S
C124 C125 1.400 . S
C124 H129 0.920 1_565 S
C125 C124 1.400 . S
C125 C130 1.399 . S
C126 C122 1.404 1_556 S
C126 H127 0.950 . S
C126 C128 1.375 . S
H127 C126 0.950 . S
C128 C126 1.375 . S
C128 C130 1.382 1_556 S
C128 H132 0.950 . S
H129 C124 0.920 1_545 S
C130 C125 1.399 . S
C130 C128 1.382 1_554 S
C130 H131 0.952 . S
H131 C130 0.952 . S
H132 C128 0.950 . S
H133 C134 0.949 . S
C134 H133 0.949 . S
C134 C135 1.395 . S
C134 C136 1.385 1_554 S
C135 C134 1.395 . S
C135 C138 1.390 1_554 S
C136 C134 1.385 1_556 S
C136 C140 1.394 . S
C136 C141 1.491 1_556 S
H137 C138 0.950 . S
C138 C135 1.390 1_556 S
C138 H137 0.950 . S
C138 C139 1.378 . S
C139 C138 1.378 . S
C139 C140 1.409 . S
C140 C136 1.394 . S
C140 C139 1.409 . S
C140 H142 0.951 . S
C141 C136 1.491 1_554 S
C141 C143 1.382 . S
C141 C145 1.404 1_554 S
H142 C140 0.951 . S
C143 C141 1.382 . S
C143 C144 1.390 . S
C143 H148 0.949 . S
C144 C143 1.390 . S
C144 C149 1.399 . S
C145 C141 1.404 1_556 S
C145 H146 0.950 . S
C145 C147 1.375 . S
H146 C145 0.950 . S
C147 C145 1.375 . S
C147 C149 1.382 1_556 S
C147 H151 0.950 . S
H148 C143 0.949 . S
C149 C144 1.399 . S
C149 C147 1.382 1_554 S
C149 H150 0.952 . S
H150 C149 0.952 . S
H151 C147 0.950 . S
Tb152 C162 2.825 . S
Tb152 O163 2.347 1_455 S
Tb152 O166 2.366 . S
Tb152 O171 2.418 . S
Tb152 O172 2.384 1_565 S
Tb152 O175 2.479 . S
Tb152 O176 2.471 . S
Eu153 O164 2.418 . S
Eu153 O165 2.384 1_545 S
Eu153 O168 2.479 . S
Eu153 O169 2.471 . S
Eu153 O170 2.347 1_655 S
Eu153 O173 2.366 . S
Eu153 C183 2.825 . S
C154 O170 1.259 1_565 S
C154 O171 1.265 . S
C155 O172 1.255 . S
C155 O173 1.265 1_455 S
C156 C158 1.380 . S
C156 C159 1.374 . S
C156 C162 1.507 1_554 S
C157 C158 1.384 . S
C157 C161 1.387 . S
C157 H184 0.930 . S
C158 C156 1.380 . S
C158 C157 1.384 . S
C158 H185 0.931 . S
C159 C156 1.374 . S
C159 C160 1.390 . S
C159 H186 0.930 1_455 S
C160 C159 1.390 . S
C160 C161 1.391 . S
C160 H187 0.930 1_455 S
C161 C157 1.387 . S
C161 C160 1.391 . S
C162 Tb152 2.825 . S
C162 C156 1.507 1_556 S
C162 O175 1.238 . S
C162 O176 1.247 . S
O163 Tb152 2.347 1_655 S
O163 C167 1.259 1_565 S
O164 Eu153 2.418 . S
O164 C167 1.265 . S
O165 Eu153 2.384 1_565 S
O165 C174 1.255 . S
O166 Tb152 2.366 . S
O166 C174 1.265 1_455 S
C167 O163 1.259 1_545 S
C167 O164 1.265 . S
O168 Eu153 2.479 . S
O168 C183 1.238 . S
O169 Eu153 2.471 . S
O169 C183 1.247 . S
O170 Eu153 2.347 1_455 S
O170 C154 1.259 1_545 S
O171 Tb152 2.418 . S
O171 C154 1.265 . S
O172 Tb152 2.384 1_545 S
O172 C155 1.255 . S
O173 Eu153 2.366 . S
O173 C155 1.265 1_655 S
C174 O165 1.255 . S
C174 O166 1.265 1_655 S
O175 Tb152 2.479 . S
O175 C162 1.238 . S
O176 Tb152 2.471 . S
O176 C162 1.247 . S
C177 C180 1.380 . S
C177 C181 1.374 . S
C177 C183 1.507 . S
C178 C179 1.387 . S
C178 C182 1.391 . S
C179 C178 1.387 . S
C179 C180 1.384 . S
C179 H188 0.930 . S
C180 C177 1.380 . S
C180 C179 1.384 . S
C180 H189 0.931 . S
C181 C177 1.374 . S
C181 C182 1.390 . S
C181 H190 0.930 1_655 S
C182 C178 1.391 . S
C182 C181 1.390 . S
C182 H191 0.930 1_655 S
C183 Eu153 2.825 . S
C183 O168 1.238 . S
C183 O169 1.247 . S
C183 C177 1.507 . S
H184 C157 0.930 . S
H185 C158 0.931 . S
H186 C159 0.930 1_655 S
H187 C160 0.930 1_655 S
H188 C179 0.930 . S
H189 C180 0.931 . S
H190 C181 0.930 1_455 S
H191 C182 0.930 1_455 S
Tb192 C202 2.825 . S
Tb192 O203 2.347 1_545 S
Tb192 O206 2.366 . S
Tb192 O211 2.418 . S
Tb192 O212 2.384 . S
Tb192 O215 2.479 . S
Tb192 O216 2.471 . S
Eu193 O204 2.418 . S
Eu193 O205 2.384 . S
Eu193 O208 2.479 . S
Eu193 O209 2.471 . S
Eu193 O210 2.347 1_565 S
Eu193 O213 2.366 . S
Eu193 C223 2.825 . S
C194 O210 1.259 . S
C194 O211 1.265 . S
C195 O212 1.255 . S
C195 O213 1.265 1_545 S
C196 C198 1.380 . S
C196 C199 1.374 . S
C196 C202 1.507 1_554 S
C197 C198 1.384 . S
C197 C201 1.387 . S
C197 H224 0.930 . S
C198 C196 1.380 . S
C198 C197 1.384 . S
C198 H225 0.931 . S
C199 C196 1.374 . S
C199 C200 1.390 . S
C199 H226 0.930 1_545 S
C200 C199 1.390 . S
C200 C201 1.391 . S
C200 H227 0.930 1_545 S
C201 C197 1.387 . S
C201 C200 1.391 . S
C202 Tb192 2.825 . S
C202 C196 1.507 1_556 S
C202 O215 1.238 . S
C202 O216 1.247 . S
O203 Tb192 2.347 1_565 S
O203 C207 1.259 . S
O204 Eu193 2.418 . S
O204 C207 1.265 . S
O205 Eu193 2.384 . S
O205 C214 1.255 . S
O206 Tb192 2.366 . S
O206 C214 1.265 1_545 S
C207 O203 1.259 . S
C207 O204 1.265 . S
O208 Eu193 2.479 . S
O208 C223 1.238 . S
O209 Eu193 2.471 . S
O209 C223 1.247 . S
O210 Eu193 2.347 1_545 S
O210 C194 1.259 . S
O211 Tb192 2.418 . S
O211 C194 1.265 . S
O212 Tb192 2.384 . S
O212 C195 1.255 . S
O213 Eu193 2.366 . S
O213 C195 1.265 1_565 S
C214 O205 1.255 . S
C214 O206 1.265 1_565 S
O215 Tb192 2.479 . S
O215 C202 1.238 . S
O216 Tb192 2.471 . S
O216 C202 1.247 . S
C217 C220 1.380 . S
C217 C221 1.374 . S
C217 C223 1.507 . S
C218 C219 1.387 . S
C218 C222 1.391 . S
C219 C218 1.387 . S
C219 C220 1.384 . S
C219 H228 0.930 . S
C220 C217 1.380 . S
C220 C219 1.384 . S
C220 H229 0.931 . S
C221 C217 1.374 . S
C221 C222 1.390 . S
C221 H230 0.930 1_565 S
C222 C218 1.391 . S
C222 C221 1.390 . S
C222 H231 0.930 1_565 S
C223 Eu193 2.825 . S
C223 O208 1.238 . S
C223 O209 1.247 . S
C223 C217 1.507 . S
H224 C197 0.930 . S
H225 C198 0.931 . S
H226 C199 0.930 1_565 S
H227 C200 0.930 1_565 S
H228 C219 0.930 . S
H229 C220 0.931 . S
H230 C221 0.930 1_545 S
H231 C222 0.930 1_545 S
Tb232 C242 2.825 . S
Tb232 O243 2.347 . S
Tb232 O246 2.366 . S
Tb232 O251 2.418 . S
Tb232 O252 2.384 . S
Tb232 O255 2.479 . S
Tb232 O256 2.471 . S
Eu233 O244 2.418 . S
Eu233 O245 2.384 . S
Eu233 O248 2.479 . S
Eu233 O249 2.471 . S
Eu233 O250 2.347 . S
Eu233 O253 2.366 . S
Eu233 C263 2.825 . S
C234 O250 1.259 . S
C234 O251 1.265 . S
C235 O252 1.255 . S
C235 O253 1.265 . S
C236 C238 1.380 . S
C236 C239 1.374 . S
C236 C242 1.507 1_554 S
C237 C238 1.384 . S
C237 C241 1.387 . S
C237 H264 0.930 . S
C238 C236 1.380 . S
C238 C237 1.384 . S
C238 H265 0.931 . S
C239 C236 1.374 . S
C239 C240 1.390 . S
C239 H266 0.930 . S
C240 C239 1.390 . S
C240 C241 1.391 . S
C240 H267 0.930 . S
C241 C237 1.387 . S
C241 C240 1.391 . S
C242 Tb232 2.825 . S
C242 C236 1.507 1_556 S
C242 O255 1.238 . S
C242 O256 1.247 . S
O243 Tb232 2.347 . S
O243 C247 1.259 . S
O244 Eu233 2.418 . S
O244 C247 1.265 . S
O245 Eu233 2.384 . S
O245 C254 1.255 . S
O246 Tb232 2.366 . S
O246 C254 1.265 . S
C247 O243 1.259 . S
C247 O244 1.265 . S
O248 Eu233 2.479 . S
O248 C263 1.238 . S
O249 Eu233 2.471 . S
O249 C263 1.247 . S
O250 Eu233 2.347 . S
O250 C234 1.259 . S
O251 Tb232 2.418 . S
O251 C234 1.265 . S
O252 Tb232 2.384 . S
O252 C235 1.255 . S
O253 Eu233 2.366 . S
O253 C235 1.265 . S
C254 O245 1.255 . S
C254 O246 1.265 . S
O255 Tb232 2.479 . S
O255 C242 1.238 . S
O256 Tb232 2.471 . S
O256 C242 1.247 . S
C257 C260 1.380 . S
C257 C261 1.374 . S
C257 C263 1.507 . S
C258 C259 1.387 . S
C258 C262 1.391 . S
C259 C258 1.387 . S
C259 C260 1.384 . S
C259 H268 0.930 . S
C260 C257 1.380 . S
C260 C259 1.384 . S
C260 H269 0.931 . S
C261 C257 1.374 . S
C261 C262 1.390 . S
C261 H270 0.930 . S
C262 C258 1.391 . S
C262 C261 1.390 . S
C262 H271 0.930 . S
C263 Eu233 2.825 . S
C263 O248 1.238 . S
C263 O249 1.247 . S
C263 C257 1.507 . S
H264 C237 0.930 . S
H265 C238 0.931 . S
H266 C239 0.930 . S
H267 C240 0.930 . S
H268 C259 0.930 . S
H269 C260 0.931 . S
H270 C261 0.930 . S
H271 C262 0.930 . S
Tb272 C282 2.825 . S
Tb272 O283 2.347 . S
Tb272 O286 2.366 . S
Tb272 O291 2.418 . S
Tb272 O292 2.384 1_655 S
Tb272 O295 2.479 . S
Tb272 O296 2.471 . S
Eu273 O284 2.418 . S
Eu273 O285 2.384 1_455 S
Eu273 O288 2.479 . S
Eu273 O289 2.471 . S
Eu273 O290 2.347 . S
Eu273 O293 2.366 . S
Eu273 C303 2.825 . S
C274 O290 1.259 1_655 S
C274 O291 1.265 . S
C275 O292 1.255 . S
C275 O293 1.265 . S
C276 C278 1.380 . S
C276 C279 1.374 . S
C276 C282 1.507 1_554 S
C277 C278 1.384 . S
C277 C281 1.387 . S
C277 H304 0.930 . S
C278 C276 1.380 . S
C278 C277 1.384 . S
C278 H305 0.931 . S
C279 C276 1.374 . S
C279 C280 1.390 . S
C279 H306 0.930 . S
C280 C279 1.390 . S
C280 C281 1.391 . S
C280 H307 0.930 . S
C281 C277 1.387 . S
C281 C280 1.391 . S
C282 Tb272 2.825 . S
C282 C276 1.507 1_556 S
C282 O295 1.238 . S
C282 O296 1.247 . S
O283 Tb272 2.347 . S
O283 C287 1.259 1_655 S
O284 Eu273 2.418 . S
O284 C287 1.265 . S
O285 Eu273 2.384 1_655 S
O285 C294 1.255 . S
O286 Tb272 2.366 . S
O286 C294 1.265 . S
C287 O283 1.259 1_455 S
C287 O284 1.265 . S
O288 Eu273 2.479 . S
O288 C303 1.238 . S
O289 Eu273 2.471 . S
O289 C303 1.247 . S
O290 Eu273 2.347 . S
O290 C274 1.259 1_455 S
O291 Tb272 2.418 . S
O291 C274 1.265 . S
O292 Tb272 2.384 1_455 S
O292 C275 1.255 . S
O293 Eu273 2.366 . S
O293 C275 1.265 . S
C294 O285 1.255 . S
C294 O286 1.265 . S
O295 Tb272 2.479 . S
O295 C282 1.238 . S
O296 Tb272 2.471 . S
O296 C282 1.247 . S
C297 C300 1.380 . S
C297 C301 1.374 . S
C297 C303 1.507 . S
C298 C299 1.387 . S
C298 C302 1.391 . S
C299 C298 1.387 . S
C299 C300 1.384 . S
C299 H308 0.930 . S
C300 C297 1.380 . S
C300 C299 1.384 . S
C300 H309 0.931 . S
C301 C297 1.374 . S
C301 C302 1.390 . S
C301 H310 0.930 . S
C302 C298 1.391 . S
C302 C301 1.390 . S
C302 H311 0.930 . S
C303 Eu273 2.825 . S
C303 O288 1.238 . S
C303 O289 1.247 . S
C303 C297 1.507 . S
H304 C277 0.930 . S
H305 C278 0.931 . S
H306 C279 0.930 . S
H307 C280 0.930 . S
H308 C299 0.930 . S
H309 C300 0.931 . S
H310 C301 0.930 . S
H311 C302 0.930 . S
H312 C324 0.930 . S
H313 C326 0.930 . S
H314 C327 0.930 . S
H315 C331 0.959 . S
H316 C331 0.959 . S
H317 C331 0.961 . S
H318 C332 0.960 . S
H319 C332 0.961 . S
H320 C332 0.959 . S
H321 C335 0.929 . S
H322 C336 0.931 . S
H323 C338 0.930 . S
C324 H312 0.930 . S
C324 C325 1.399 1_545 S
C324 C329 1.399 . S
C325 C324 1.399 1_565 S
C325 C326 1.376 . S
C326 H313 0.930 . S
C326 C325 1.376 . S
C326 C327 1.388 . S
C327 H314 0.930 . S
C327 C326 1.388 . S
C327 C328 1.390 . S
C328 C327 1.390 . S
C328 C329 1.394 1_565 S
C328 C334 1.465 . S
C329 C324 1.399 . S
C329 C328 1.394 1_545 S
C329 C330 1.516 . S
C330 C329 1.516 . S
C330 C331 1.502 . S
C330 C332 1.561 . S
C330 C333 1.526 . S
C331 H315 0.959 . S
C331 H316 0.959 . S
C331 H317 0.961 . S
C331 C330 1.502 . S
C332 H318 0.960 . S
C332 H319 0.961 . S
C332 H320 0.959 . S
C332 C330 1.561 . S
C333 C330 1.526 . S
C333 C334 1.396 1_545 S
C333 C338 1.390 . S
C334 C328 1.465 . S
C334 C333 1.396 1_565 S
C334 C335 1.399 . S
C335 H321 0.929 . S
C335 C334 1.399 . S
C335 C336 1.385 . S
C336 H322 0.931 . S
C336 C335 1.385 . S
C336 C337 1.389 . S
C337 C336 1.389 . S
C337 C338 1.387 1_565 S
C338 H323 0.930 . S
C338 C333 1.390 . S
C338 C337 1.387 1_545 S
H339 C351 0.930 . S
H340 C353 0.930 . S
H341 C354 0.930 . S
H342 C358 0.959 . S
H343 C358 0.959 . S
H344 C358 0.961 . S
H345 C359 0.960 . S
H346 C359 0.961 . S
H347 C359 0.959 . S
H348 C362 0.929 . S
H349 C363 0.931 . S
H350 C365 0.930 . S
C351 H339 0.930 . S
C351 C352 1.399 . S
C351 C356 1.399 . S
C352 C351 1.399 . S
C352 C353 1.376 . S
C353 H340 0.930 . S
C353 C352 1.376 . S
C353 C354 1.388 . S
C354 H341 0.930 . S
C354 C353 1.388 . S
C354 C355 1.390 . S
C355 C354 1.390 . S
C355 C356 1.394 . S
C355 C361 1.465 . S
C356 C351 1.399 . S
C356 C355 1.394 . S
C356 C357 1.516 . S
C357 C356 1.516 . S
C357 C358 1.502 . S
C357 C359 1.561 . S
C357 C360 1.526 . S
C358 H342 0.959 . S
C358 H343 0.959 . S
C358 H344 0.961 . S
C358 C357 1.502 . S
C359 H345 0.960 . S
C359 H346 0.961 . S
C359 H347 0.959 . S
C359 C357 1.561 . S
C360 C357 1.526 . S
C360 C361 1.396 . S
C360 C365 1.390 . S
C361 C355 1.465 . S
C361 C360 1.396 . S
C361 C362 1.399 . S
C362 H348 0.929 . S
C362 C361 1.399 . S
C362 C363 1.385 . S
C363 H349 0.931 . S
C363 C362 1.385 . S
C363 C364 1.389 . S
C364 C363 1.389 . S
C364 C365 1.387 . S
C365 H350 0.930 . S
C365 C360 1.390 . S
C365 C364 1.387 . S
H366 C378 0.930 . S
H367 C380 0.930 . S
H368 C381 0.930 . S
H369 C385 0.959 . S
H370 C385 0.959 . S
H371 C385 0.961 . S
H372 C386 0.960 . S
H373 C386 0.961 . S
H374 C386 0.959 . S
H375 C389 0.929 . S
H376 C390 0.931 . S
H377 C392 0.930 . S
C378 H366 0.930 . S
C378 C379 1.399 . S
C378 C383 1.399 . S
C379 C378 1.399 . S
C379 C380 1.376 . S
C380 H367 0.930 . S
C380 C379 1.376 . S
C380 C381 1.388 . S
C381 H368 0.930 . S
C381 C380 1.388 . S
C381 C382 1.390 . S
C382 C381 1.390 . S
C382 C383 1.394 . S
C382 C388 1.465 . S
C383 C378 1.399 . S
C383 C382 1.394 . S
C383 C384 1.516 . S
C384 C383 1.516 . S
C384 C385 1.502 . S
C384 C386 1.561 . S
C384 C387 1.526 . S
C385 H369 0.959 . S
C385 H370 0.959 . S
C385 H371 0.961 . S
C385 C384 1.502 . S
C386 H372 0.960 . S
C386 H373 0.961 . S
C386 H374 0.959 . S
C386 C384 1.561 . S
C387 C384 1.526 . S
C387 C388 1.396 . S
C387 C392 1.390 . S
C388 C382 1.465 . S
C388 C387 1.396 . S
C388 C389 1.399 . S
C389 H375 0.929 . S
C389 C388 1.399 . S
C389 C390 1.385 . S
C390 H376 0.931 . S
C390 C389 1.385 . S
C390 C391 1.389 . S
C391 C390 1.389 . S
C391 C392 1.387 . S
C392 H377 0.930 . S
C392 C387 1.390 . S
C392 C391 1.387 . S
H393 C405 0.930 . S
H394 C407 0.930 . S
H395 C408 0.930 . S
H396 C412 0.959 . S
H397 C412 0.959 . S
H398 C412 0.961 . S
H399 C413 0.960 . S
H400 C413 0.961 . S
H401 C413 0.959 . S
H402 C416 0.929 . S
H403 C417 0.934 . S
H404 C419 0.933 . S
C405 H393 0.930 . S
C405 C406 1.400 . S
C405 C410 1.399 . S
C406 C405 1.400 . S
C406 C407 1.377 . S
C407 H394 0.930 . S
C407 C406 1.377 . S
C407 C408 1.388 . S
C408 H395 0.930 . S
C408 C407 1.388 . S
C408 C409 1.390 . S
C409 C408 1.390 . S
C409 C410 1.394 . S
C409 C415 1.465 . S
C410 C405 1.399 . S
C410 C409 1.394 . S
C410 C411 1.516 . S
C411 C410 1.516 . S
C411 C412 1.502 1_655 S
C411 C413 1.561 . S
C411 C414 1.526 . S
C412 H396 0.959 . S
C412 H397 0.959 . S
C412 H398 0.961 . S
C412 C411 1.502 1_455 S
C413 H399 0.960 . S
C413 H400 0.961 . S
C413 H401 0.959 . S
C413 C411 1.561 . S
C414 C411 1.526 . S
C414 C415 1.396 . S
C414 C419 1.392 . S
C415 C409 1.465 . S
C415 C414 1.396 . S
C415 C416 1.399 . S
C416 H402 0.929 . S
C416 C415 1.399 . S
C416 C417 1.384 1_655 S
C417 H403 0.934 . S
C417 C416 1.384 1_455 S
C417 C418 1.389 . S
C418 C417 1.389 . S
C418 C419 1.384 1_455 S
C419 H404 0.933 . S
C419 C414 1.392 . S
C419 C418 1.384 1_655 S
H420 C432 0.930 . S
H421 C434 0.930 . S
H422 C435 0.930 . S
H423 C439 0.959 . S
H424 C439 0.959 . S
H425 C439 0.961 . S
H426 C440 0.960 . S
H427 C440 0.961 . S
H428 C440 0.959 . S
H429 C443 0.929 . S
H430 C444 0.931 . S
H431 C446 0.930 . S
C432 H420 0.930 . S
C432 C433 1.399 1_565 S
C432 C437 1.399 . S
C433 C432 1.399 1_545 S
C433 C434 1.376 . S
C434 H421 0.930 . S
C434 C433 1.376 . S
C434 C435 1.388 . S
C435 H422 0.930 . S
C435 C434 1.388 . S
C435 C436 1.390 . S
C436 C435 1.390 . S
C436 C437 1.394 1_545 S
C436 C442 1.465 . S
C437 C432 1.399 . S
C437 C436 1.394 1_565 S
C437 C438 1.516 . S
C438 C437 1.516 . S
C438 C439 1.502 . S
C438 C440 1.561 . S
C438 C441 1.526 . S
C439 H423 0.959 . S
C439 H424 0.959 . S
C439 H425 0.961 . S
C439 C438 1.502 . S
C440 H426 0.960 . S
C440 H427 0.961 . S
C440 H428 0.959 . S
C440 C438 1.561 . S
C441 C438 1.526 . S
C441 C442 1.396 1_565 S
C441 C446 1.390 1_554 S
C442 C436 1.465 . S
C442 C441 1.396 1_545 S
C442 C443 1.399 1_554 S
C443 H429 0.929 . S
C443 C442 1.399 1_556 S
C443 C444 1.385 . S
C444 H430 0.931 . S
C444 C443 1.385 . S
C444 C445 1.389 . S
C445 C444 1.389 . S
C445 C446 1.387 1_545 S
C446 H431 0.930 . S
C446 C441 1.390 1_556 S
C446 C445 1.387 1_565 S
H447 C459 0.930 . S
H448 C461 0.930 . S
H449 C462 0.930 . S
H450 C466 0.959 . S
H451 C466 0.959 . S
H452 C466 0.961 . S
H453 C467 0.960 . S
H454 C467 0.961 . S
H455 C467 0.959 . S
H456 C470 0.929 . S
H457 C471 0.931 . S
H458 C473 0.930 1_554 S
C459 H447 0.930 . S
C459 C460 1.399 . S
C459 C464 1.399 . S
C460 C459 1.399 . S
C460 C461 1.376 . S
C461 H448 0.930 . S
C461 C460 1.376 . S
C461 C462 1.388 . S
C462 H449 0.930 . S
C462 C461 1.388 . S
C462 C463 1.390 . S
C463 C462 1.390 . S
C463 C464 1.394 . S
C463 C469 1.465 . S
C464 C459 1.399 . S
C464 C463 1.394 . S
C464 C465 1.516 . S
C465 C464 1.516 . S
C465 C466 1.502 . S
C465 C467 1.561 . S
C465 C468 1.526 . S
C466 H450 0.959 . S
C466 H451 0.959 . S
C466 H452 0.961 . S
C466 C465 1.502 . S
C467 H453 0.960 . S
C467 H454 0.961 . S
C467 H455 0.959 . S
C467 C465 1.561 . S
C468 C465 1.526 . S
C468 C469 1.396 . S
C468 C473 1.390 1_554 S
C469 C463 1.465 . S
C469 C468 1.396 . S
C469 C470 1.399 1_554 S
C470 H456 0.929 . S
C470 C469 1.399 1_556 S
C470 C471 1.385 . S
C471 H457 0.931 . S
C471 C470 1.385 . S
C471 C472 1.389 . S
C472 C471 1.389 . S
C472 C473 1.387 . S
C473 H458 0.930 1_556 S
C473 C468 1.390 1_556 S
C473 C472 1.387 . S
H474 C486 0.930 . S
H475 C488 0.930 . S
H476 C489 0.930 . S
H477 C493 0.959 . S
H478 C493 0.959 . S
H479 C493 0.961 . S
H480 C494 0.960 . S
H481 C494 0.961 . S
H482 C494 0.959 . S
H483 C497 0.929 . S
H484 C498 0.931 . S
H485 C500 0.930 1_554 S
C486 H474 0.930 . S
C486 C487 1.399 . S
C486 C491 1.399 . S
C487 C486 1.399 . S
C487 C488 1.376 . S
C488 H475 0.930 . S
C488 C487 1.376 . S
C488 C489 1.388 . S
C489 H476 0.930 . S
C489 C488 1.388 . S
C489 C490 1.390 . S
C490 C489 1.390 . S
C490 C491 1.394 . S
C490 C496 1.465 . S
C491 C486 1.399 . S
C491 C490 1.394 . S
C491 C492 1.516 . S
C492 C491 1.516 . S
C492 C493 1.502 . S
C492 C494 1.561 . S
C492 C495 1.526 . S
C493 H477 0.959 . S
C493 H478 0.959 . S
C493 H479 0.961 . S
C493 C492 1.502 . S
C494 H480 0.960 . S
C494 H481 0.961 . S
C494 H482 0.959 . S
C494 C492 1.561 . S
C495 C492 1.526 . S
C495 C496 1.396 . S
C495 C500 1.390 1_554 S
C496 C490 1.465 . S
C496 C495 1.396 . S
C496 C497 1.399 1_554 S
C497 H483 0.929 . S
C497 C496 1.399 1_556 S
C497 C498 1.385 . S
C498 H484 0.931 . S
C498 C497 1.385 . S
C498 C499 1.389 . S
C499 C498 1.389 . S
C499 C500 1.387 . S
C500 H485 0.930 1_556 S
C500 C495 1.390 1_556 S
C500 C499 1.387 . S
H501 C513 0.930 . S
H502 C515 0.930 . S
H503 C516 0.930 . S
H504 C520 0.959 . S
H505 C520 0.959 . S
H506 C520 0.961 . S
H507 C521 0.960 . S
H508 C521 0.961 . S
H509 C521 0.959 . S
H510 C524 0.929 . S
H511 C525 0.931 . S
H512 C527 0.930 . S
C513 H501 0.930 . S
C513 C514 1.399 1_455 S
C513 C518 1.399 . S
C514 C513 1.399 1_655 S
C514 C515 1.376 . S
C515 H502 0.930 . S
C515 C514 1.376 . S
C515 C516 1.388 . S
C516 H503 0.930 . S
C516 C515 1.388 . S
C516 C517 1.390 . S
C517 C516 1.390 . S
C517 C518 1.394 1_655 S
C517 C523 1.465 . S
C518 C513 1.399 . S
C518 C517 1.394 1_455 S
C518 C519 1.516 . S
C519 C518 1.516 . S
C519 C520 1.502 . S
C519 C521 1.561 1_455 S
C519 C522 1.526 . S
C520 H504 0.959 . S
C520 H505 0.959 . S
C520 H506 0.961 . S
C520 C519 1.502 . S
C521 H507 0.960 . S
C521 H508 0.961 . S
C521 H509 0.959 . S
C521 C519 1.561 1_655 S
C522 C519 1.526 . S
C522 C523 1.396 1_455 S
C522 C527 1.390 . S
C523 C517 1.465 . S
C523 C522 1.396 1_655 S
C523 C524 1.399 1_554 S
C524 H510 0.929 . S
C524 C523 1.399 1_556 S
C524 C525 1.385 . S
C525 H511 0.931 . S
C525 C524 1.385 . S
C525 C526 1.389 . S
C526 C525 1.389 . S
C526 C527 1.387 1_656 S
C527 H512 0.930 . S
C527 C522 1.390 . S
C527 C526 1.387 1_454 S
H528 C540 0.930 . S
H529 C542 0.930 1_456 S
H530 C543 0.930 . S
H531 C547 0.964 . S
H532 C547 0.958 1_655 S
H533 C547 0.962 . S
H534 C548 0.960 . S
H535 C548 0.961 . S
H536 C548 0.959 . S
H537 C551 0.929 . S
H538 C552 0.931 . S
H539 C554 0.930 . S
C540 H528 0.930 . S
C540 C541 1.398 1_655 S
C540 C545 1.399 . S
C541 C540 1.398 1_455 S
C541 C542 1.376 1_455 S
C542 H529 0.930 1_654 S
C542 C541 1.376 1_655 S
C542 C543 1.388 . S
C543 H530 0.930 . S
C543 C542 1.388 . S
C543 C544 1.390 . S
C544 C543 1.390 . S
C544 C545 1.394 . S
C544 C550 1.465 . S
C545 C540 1.399 . S
C545 C544 1.394 . S
C545 C546 1.516 . S
C546 C545 1.516 . S
C546 C547 1.499 1_655 S
C546 C548 1.561 . S
C546 C549 1.526 . S
C547 H531 0.964 . S
C547 H532 0.958 1_455 S
C547 H533 0.962 . S
C547 C546 1.499 1_455 S
C548 H534 0.960 . S
C548 H535 0.961 . S
C548 H536 0.959 . S
C548 C546 1.561 . S
C549 C546 1.526 . S
C549 C550 1.396 . S
C549 C554 1.390 . S
C550 C544 1.465 . S
C550 C549 1.396 . S
C550 C551 1.399 . S
C551 H537 0.929 . S
C551 C550 1.399 . S
C551 C552 1.385 . S
C552 H538 0.931 . S
C552 C551 1.385 . S
C552 C553 1.389 . S
C553 C552 1.389 . S
C553 C554 1.387 . S
C554 H539 0.930 . S
C554 C549 1.390 . S
C554 C553 1.387 . S
H555 C567 0.930 . S
H556 C569 0.930 . S
H557 C570 0.930 . S
H558 C574 0.959 . S
H559 C574 0.959 . S
H560 C574 0.961 . S
H561 C575 0.960 . S
H562 C575 0.961 . S
H563 C575 0.959 . S
H564 C578 0.929 . S
H565 C579 0.931 . S
H566 C581 0.930 1_545 S
C567 H555 0.930 . S
C567 C568 1.399 1_545 S
C567 C572 1.399 . S
C568 C567 1.399 1_565 S
C568 C569 1.376 . S
C569 H556 0.930 . S
C569 C568 1.376 . S
C569 C570 1.388 . S
C570 H557 0.930 . S
C570 C569 1.388 . S
C570 C571 1.390 . S
C571 C570 1.390 . S
C571 C572 1.394 1_565 S
C571 C577 1.465 . S
C572 C567 1.399 . S
C572 C571 1.394 1_545 S
C572 C573 1.516 . S
C573 C572 1.516 . S
C573 C574 1.502 . S
C573 C575 1.561 . S
C573 C576 1.526 1_545 S
C574 H558 0.959 . S
C574 H559 0.959 . S
C574 H560 0.961 . S
C574 C573 1.502 . S
C575 H561 0.960 . S
C575 H562 0.961 . S
C575 H563 0.959 . S
C575 C573 1.561 . S
C576 C573 1.526 1_565 S
C576 C577 1.396 . S
C576 C581 1.390 . S
C577 C571 1.465 . S
C577 C576 1.396 . S
C577 C578 1.399 . S
C578 H564 0.929 . S
C578 C577 1.399 . S
C578 C579 1.385 . S
C579 H565 0.931 . S
C579 C578 1.385 . S
C579 C580 1.389 . S
C580 C579 1.389 . S
C580 C581 1.387 . S
C581 H566 0.930 1_565 S
C581 C576 1.390 . S
C581 C580 1.387 . S
H582 C594 0.930 . S
H583 C596 0.930 1_556 S
H584 C597 0.930 . S
H585 C601 0.959 . S
H586 C601 0.959 . S
H587 C601 0.961 . S
H588 C602 0.960 . S
H589 C602 0.961 . S
H590 C602 0.959 . S
H591 C605 0.929 . S
H592 C606 0.931 . S
H593 C608 0.930 . S
C594 H582 0.930 . S
C594 C595 1.399 . S
C594 C599 1.399 . S
C595 C594 1.399 . S
C595 C596 1.376 . S
C596 H583 0.930 1_554 S
C596 C595 1.376 . S
C596 C597 1.388 . S
C597 H584 0.930 . S
C597 C596 1.388 . S
C597 C598 1.390 . S
C598 C597 1.390 . S
C598 C599 1.394 . S
C598 C604 1.465 . S
C599 C594 1.399 . S
C599 C598 1.394 . S
C599 C600 1.516 . S
C600 C599 1.516 . S
C600 C601 1.502 . S
C600 C602 1.561 . S
C600 C603 1.526 . S
C601 H585 0.959 . S
C601 H586 0.959 . S
C601 H587 0.961 . S
C601 C600 1.502 . S
C602 H588 0.960 . S
C602 H589 0.961 . S
C602 H590 0.959 . S
C602 C600 1.561 . S
C603 C600 1.526 . S
C603 C604 1.396 . S
C603 C608 1.390 . S
C604 C598 1.465 . S
C604 C603 1.396 . S
C604 C605 1.399 . S
C605 H591 0.929 . S
C605 C604 1.399 . S
C605 C606 1.385 . S
C606 H592 0.931 . S
C606 C605 1.385 . S
C606 C607 1.389 . S
C607 C606 1.389 . S
C607 C608 1.387 . S
C608 H593 0.930 . S
C608 C603 1.390 . S
C608 C607 1.387 . S
H609 C621 0.930 . S
H610 C623 0.930 . S
H611 C624 0.930 . S
H612 C628 0.959 . S
H613 C628 0.959 . S
H614 C628 0.961 . S
H615 C629 0.960 . S
H616 C629 0.961 . S
H617 C629 0.959 . S
H618 C632 0.929 . S
H619 C633 0.931 . S
H620 C635 0.930 . S
C621 H609 0.930 . S
C621 C622 1.399 . S
C621 C626 1.399 . S
C622 C621 1.399 . S
C622 C623 1.376 . S
C623 H610 0.930 . S
C623 C622 1.376 . S
C623 C624 1.388 . S
C624 H611 0.930 . S
C624 C623 1.388 . S
C624 C625 1.390 . S
C625 C624 1.390 . S
C625 C626 1.394 . S
C625 C631 1.465 . S
C626 C621 1.399 . S
C626 C625 1.394 . S
C626 C627 1.516 . S
C627 C626 1.516 . S
C627 C628 1.502 . S
C627 C629 1.561 . S
C627 C630 1.526 . S
C628 H612 0.959 . S
C628 H613 0.959 . S
C628 H614 0.961 . S
C628 C627 1.502 . S
C629 H615 0.960 . S
C629 H616 0.961 . S
C629 H617 0.959 . S
C629 C627 1.561 . S
C630 C627 1.526 . S
C630 C631 1.396 . S
C630 C635 1.390 . S
C631 C625 1.465 . S
C631 C630 1.396 . S
C631 C632 1.399 . S
C632 H618 0.929 . S
C632 C631 1.399 . S
C632 C633 1.385 . S
C633 H619 0.931 . S
C633 C632 1.385 . S
C633 C634 1.389 . S
C634 C633 1.389 . S
C634 C635 1.387 . S
C635 H620 0.930 . S
C635 C630 1.390 . S
C635 C634 1.387 . S
H636 C648 0.927 1_655 S
H637 C650 0.932 . S
H638 C651 0.930 . S
H639 C655 0.959 . S
H640 C655 0.959 1_556 S
H641 C655 0.961 . S
H642 C656 0.960 . S
H643 C656 0.961 . S
H644 C656 0.959 . S
H645 C659 0.929 . S
H646 C660 0.931 . S
H647 C662 0.930 . S
C648 H636 0.927 1_455 S
C648 C649 1.397 1_455 S
C648 C653 1.403 . S
C649 C648 1.397 1_655 S
C649 C650 1.377 . S
C650 H637 0.932 . S
C650 C649 1.377 . S
C650 C651 1.386 1_655 S
C651 H638 0.930 . S
C651 C650 1.386 1_455 S
C651 C652 1.390 . S
C652 C651 1.390 . S
C652 C653 1.394 . S
C652 C658 1.465 . S
C653 C648 1.403 . S
C653 C652 1.394 . S
C653 C654 1.516 . S
C654 C653 1.516 . S
C654 C655 1.502 . S
C654 C656 1.561 1_455 S
C654 C657 1.526 . S
C655 H639 0.959 . S
C655 H640 0.959 1_554 S
C655 H641 0.961 . S
C655 C654 1.502 . S
C656 H642 0.960 . S
C656 H643 0.961 . S
C656 H644 0.959 . S
C656 C654 1.561 1_655 S
C657 C654 1.526 . S
C657 C658 1.396 . S
C657 C662 1.390 . S
C658 C652 1.465 . S
C658 C657 1.396 . S
C658 C659 1.399 . S
C659 H645 0.929 . S
C659 C658 1.399 . S
C659 C660 1.385 . S
C660 H646 0.931 . S
C660 C659 1.385 . S
C660 C661 1.389 . S
C661 C660 1.389 . S
C661 C662 1.387 . S
C662 H647 0.930 . S
C662 C657 1.390 . S
C662 C661 1.387 . S
H663 C675 0.930 . S
H664 C677 0.930 . S
H665 C678 0.930 . S
H666 C682 0.959 . S
H667 C682 0.959 . S
H668 C682 0.961 . S
H669 C683 0.960 . S
H670 C683 0.961 . S
H671 C683 0.959 . S
H672 C686 0.929 . S
H673 C687 0.931 1_565 S
H674 C689 0.930 . S
C675 H663 0.930 . S
C675 C676 1.399 1_545 S
C675 C680 1.399 . S
C676 C675 1.399 1_565 S
C676 C677 1.376 . S
C677 H664 0.930 . S
C677 C676 1.376 . S
C677 C678 1.388 . S
C678 H665 0.930 . S
C678 C677 1.388 . S
C678 C679 1.390 1_565 S
C679 C678 1.390 1_545 S
C679 C680 1.394 . S
C679 C685 1.465 . S
C680 C675 1.399 . S
C680 C679 1.394 . S
C680 C681 1.516 . S
C681 C680 1.516 . S
C681 C682 1.502 . S
C681 C683 1.561 . S
C681 C684 1.526 . S
C682 H666 0.959 . S
C682 H667 0.959 . S
C682 H668 0.961 . S
C682 C681 1.502 . S
C683 H669 0.960 . S
C683 H670 0.961 . S
C683 H671 0.959 . S
C683 C681 1.561 . S
C684 C681 1.526 . S
C684 C685 1.396 . S
C684 C689 1.390 . S
C685 C679 1.465 . S
C685 C684 1.396 . S
C685 C686 1.399 1_545 S
C686 H672 0.929 . S
C686 C685 1.399 1_565 S
C686 C687 1.385 1_565 S
C687 H673 0.931 1_545 S
C687 C686 1.385 1_545 S
C687 C688 1.389 . S
C688 C687 1.389 . S
C688 C689 1.387 . S
C689 H674 0.930 . S
C689 C684 1.390 . S
C689 C688 1.387 . S
H690 C702 0.930 . S
H691 C704 0.930 . S
H692 C705 0.930 . S
H693 C709 0.959 . S
H694 C709 0.959 . S
H695 C709 0.961 . S
H696 C710 0.960 . S
H697 C710 0.961 1_556 S
H698 C710 0.959 . S
H699 C713 0.929 . S
H700 C714 0.931 . S
H701 C716 0.930 . S
C702 H690 0.930 . S
C702 C703 1.399 . S
C702 C707 1.399 . S
C703 C702 1.399 . S
C703 C704 1.376 . S
C704 H691 0.930 . S
C704 C703 1.376 . S
C704 C705 1.388 . S
C705 H692 0.930 . S
C705 C704 1.388 . S
C705 C706 1.390 . S
C706 C705 1.390 . S
C706 C707 1.394 . S
C706 C712 1.465 . S
C707 C702 1.399 . S
C707 C706 1.394 . S
C707 C708 1.516 . S
C708 C707 1.516 . S
C708 C709 1.502 . S
C708 C710 1.561 . S
C708 C711 1.526 . S
C709 H693 0.959 . S
C709 H694 0.959 . S
C709 H695 0.961 . S
C709 C708 1.502 . S
C710 H696 0.960 . S
C710 H697 0.961 1_554 S
C710 H698 0.959 . S
C710 C708 1.561 . S
C711 C708 1.526 . S
C711 C712 1.396 . S
C711 C716 1.390 . S
C712 C706 1.465 . S
C712 C711 1.396 . S
C712 C713 1.399 . S
C713 H699 0.929 . S
C713 C712 1.399 . S
C713 C714 1.385 . S
C714 H700 0.931 . S
C714 C713 1.385 . S
C714 C715 1.389 . S
C715 C714 1.389 . S
C715 C716 1.387 . S
C716 H701 0.930 . S
C716 C711 1.390 . S
C716 C715 1.387 . S
H717 C729 0.930 . S
H718 C731 0.930 . S
H719 C732 0.930 . S
H720 C736 0.959 . S
H721 C736 0.959 . S
H722 C736 0.961 . S
H723 C737 0.960 . S
H724 C737 0.961 . S
H725 C737 0.959 . S
H726 C740 0.929 . S
H727 C741 0.931 . S
H728 C743 0.930 . S
C729 H717 0.930 . S
C729 C730 1.399 . S
C729 C734 1.399 . S
C730 C729 1.399 . S
C730 C731 1.376 . S
C731 H718 0.930 . S
C731 C730 1.376 . S
C731 C732 1.388 . S
C732 H719 0.930 . S
C732 C731 1.388 . S
C732 C733 1.390 . S
C733 C732 1.390 . S
C733 C734 1.394 . S
C733 C739 1.465 . S
C734 C729 1.399 . S
C734 C733 1.394 . S
C734 C735 1.516 . S
C735 C734 1.516 . S
C735 C736 1.502 . S
C735 C737 1.561 . S
C735 C738 1.526 . S
C736 H720 0.959 . S
C736 H721 0.959 . S
C736 H722 0.961 . S
C736 C735 1.502 . S
C737 H723 0.960 . S
C737 H724 0.961 . S
C737 H725 0.959 . S
C737 C735 1.561 . S
C738 C735 1.526 . S
C738 C739 1.396 . S
C738 C743 1.390 . S
C739 C733 1.465 . S
C739 C738 1.396 . S
C739 C740 1.399 . S
C740 H726 0.929 . S
C740 C739 1.399 . S
C740 C741 1.385 . S
C741 H727 0.931 . S
C741 C740 1.385 . S
C741 C742 1.389 . S
C742 C741 1.389 . S
C742 C743 1.387 . S
C743 H728 0.930 . S
C743 C738 1.390 . S
C743 C742 1.387 . S
H744 C756 0.930 . S
H745 C758 0.930 . S
H746 C759 0.930 1_554 S
H747 C763 0.959 . S
H748 C763 0.959 . S
H749 C763 0.961 . S
H750 C764 0.960 . S
H751 C764 0.961 . S
H752 C764 0.959 . S
H753 C767 0.929 . S
H754 C768 0.931 . S
H755 C770 0.942 . S
C756 H744 0.930 . S
C756 C757 1.399 1_655 S
C756 C761 1.404 . S
C757 C756 1.399 1_455 S
C757 C758 1.376 . S
C758 H745 0.930 . S
C758 C757 1.376 . S
C758 C759 1.388 . S
C759 H746 0.930 1_556 S
C759 C758 1.388 . S
C759 C760 1.390 . S
C760 C759 1.390 . S
C760 C761 1.382 1_455 S
C760 C766 1.465 . S
C761 C756 1.404 . S
C761 C760 1.382 1_655 S
C761 C762 1.522 . S
C762 C761 1.522 . S
C762 C763 1.502 . S
C762 C764 1.561 1_655 S
C762 C765 1.526 1_655 S
C763 H747 0.959 . S
C763 H748 0.959 . S
C763 H749 0.961 . S
C763 C762 1.502 . S
C764 H750 0.960 . S
C764 H751 0.961 . S
C764 H752 0.959 . S
C764 C762 1.561 1_455 S
C765 C762 1.526 1_455 S
C765 C766 1.396 . S
C765 C770 1.388 1_455 S
C766 C760 1.465 . S
C766 C765 1.396 . S
C766 C767 1.399 . S
C767 H753 0.929 . S
C767 C766 1.399 . S
C767 C768 1.385 . S
C768 H754 0.931 . S
C768 C767 1.385 . S
C768 C769 1.389 . S
C769 C768 1.389 . S
C769 C770 1.377 1_455 S
C770 H755 0.942 . S
C770 C765 1.388 1_655 S
C770 C769 1.377 1_655 S
H771 C783 0.930 . S
H772 C785 0.930 . S
H773 C786 0.930 . S
H774 C790 0.959 . S
H775 C790 0.959 . S
H776 C790 0.961 . S
H777 C791 0.960 . S
H778 C791 0.961 . S
H779 C791 0.959 . S
H780 C794 0.929 . S
H781 C795 0.931 . S
H782 C797 0.930 . S
C783 H771 0.930 . S
C783 C784 1.399 1_565 S
C783 C788 1.399 . S
C784 C783 1.399 1_545 S
C784 C785 1.376 . S
C785 H772 0.930 . S
C785 C784 1.376 . S
C785 C786 1.388 . S
C786 H773 0.930 . S
C786 C785 1.388 . S
C786 C787 1.390 . S
C787 C786 1.390 . S
C787 C788 1.394 1_545 S
C787 C793 1.465 . S
C788 C783 1.399 . S
C788 C787 1.394 1_565 S
C788 C789 1.516 . S
C789 C788 1.516 . S
C789 C790 1.502 . S
C789 C791 1.561 . S
C789 C792 1.526 . S
C790 H774 0.959 . S
C790 H775 0.959 . S
C790 H776 0.961 . S
C790 C789 1.502 . S
C791 H777 0.960 . S
C791 H778 0.961 . S
C791 H779 0.959 . S
C791 C789 1.561 . S
C792 C789 1.526 . S
C792 C793 1.396 1_565 S
C792 C797 1.390 . S
C793 C787 1.465 . S
C793 C792 1.396 1_545 S
C793 C794 1.399 . S
C794 H780 0.929 . S
C794 C793 1.399 . S
C794 C795 1.385 . S
C795 H781 0.931 . S
C795 C794 1.385 . S
C795 C796 1.389 . S
C796 C795 1.389 . S
C796 C797 1.387 1_545 S
C797 H782 0.930 . S
C797 C792 1.390 . S
C797 C796 1.387 1_565 S
H798 C810 0.930 . S
H799 C812 0.930 1_554 S
H800 C813 0.930 1_554 S
H801 C817 0.959 . S
H802 C817 0.959 . S
H803 C817 0.961 . S
H804 C818 0.960 . S
H805 C818 0.961 . S
H806 C818 0.959 . S
H807 C821 0.929 1_554 S
H808 C822 0.931 . S
H809 C824 0.930 . S
C810 H798 0.930 . S
C810 C811 1.399 . S
C810 C815 1.399 . S
C811 C810 1.399 . S
C811 C812 1.376 . S
C812 H799 0.930 1_556 S
C812 C811 1.376 . S
C812 C813 1.388 . S
C813 H800 0.930 1_556 S
C813 C812 1.388 . S
C813 C814 1.390 . S
C814 C813 1.390 . S
C814 C815 1.394 . S
C814 C820 1.465 . S
C815 C810 1.399 . S
C815 C814 1.394 . S
C815 C816 1.516 . S
C816 C815 1.516 . S
C816 C817 1.502 . S
C816 C818 1.561 . S
C816 C819 1.526 . S
C817 H801 0.959 . S
C817 H802 0.959 . S
C817 H803 0.961 . S
C817 C816 1.502 . S
C818 H804 0.960 . S
C818 H805 0.961 . S
C818 H806 0.959 . S
C818 C816 1.561 . S
C819 C816 1.526 . S
C819 C820 1.396 . S
C819 C824 1.390 . S
C820 C814 1.465 . S
C820 C819 1.396 . S
C820 C821 1.399 . S
C821 H807 0.929 1_556 S
C821 C820 1.399 . S
C821 C822 1.385 . S
C822 H808 0.931 . S
C822 C821 1.385 . S
C822 C823 1.389 . S
C823 C822 1.389 . S
C823 C824 1.387 . S
C824 H809 0.930 . S
C824 C819 1.390 . S
C824 C823 1.387 . S
H825 C837 0.930 . S
H826 C839 0.930 . S
H827 C840 0.930 . S
H828 C844 0.959 . S
H829 C844 0.959 . S
H830 C844 0.961 . S
H831 C845 0.960 . S
H832 C845 0.961 . S
H833 C845 0.959 . S
H834 C848 0.929 . S
H835 C849 0.931 . S
H836 C851 0.930 . S
C837 H825 0.930 . S
C837 C838 1.399 . S
C837 C842 1.399 . S
C838 C837 1.399 . S
C838 C839 1.376 . S
C839 H826 0.930 . S
C839 C838 1.376 . S
C839 C840 1.388 . S
C840 H827 0.930 . S
C840 C839 1.388 . S
C840 C841 1.390 . S
C841 C840 1.390 . S
C841 C842 1.394 . S
C841 C847 1.465 . S
C842 C837 1.399 . S
C842 C841 1.394 . S
C842 C843 1.516 . S
C843 C842 1.516 . S
C843 C844 1.502 . S
C843 C845 1.561 1_556 S
C843 C846 1.526 . S
C844 H828 0.959 . S
C844 H829 0.959 . S
C844 H830 0.961 . S
C844 C843 1.502 . S
C845 H831 0.960 . S
C845 H832 0.961 . S
C845 H833 0.959 . S
C845 C843 1.561 1_554 S
C846 C843 1.526 . S
C846 C847 1.396 . S
C846 C851 1.390 . S
C847 C841 1.465 . S
C847 C846 1.396 . S
C847 C848 1.399 . S
C848 H834 0.929 . S
C848 C847 1.399 . S
C848 C849 1.385 . S
C849 H835 0.931 . S
C849 C848 1.385 . S
C849 C850 1.389 . S
C850 C849 1.389 . S
C850 C851 1.387 . S
C851 H836 0.930 . S
C851 C846 1.390 . S
C851 C850 1.387 . S
H852 C864 0.930 . S
H853 C866 0.930 . S
H854 C867 0.930 . S
H855 C871 0.959 . S
H856 C871 0.959 . S
H857 C871 0.961 . S
H858 C872 0.960 . S
H859 C872 0.961 . S
H860 C872 0.959 . S
H861 C875 0.929 . S
H862 C876 0.931 . S
H863 C878 0.930 . S
C864 H852 0.930 . S
C864 C865 1.400 . S
C864 C869 1.399 . S
C865 C864 1.400 . S
C865 C866 1.375 1_655 S
C866 H853 0.930 . S
C866 C865 1.375 1_455 S
C866 C867 1.388 . S
C867 H854 0.930 . S
C867 C866 1.388 . S
C867 C868 1.390 . S
C868 C867 1.390 . S
C868 C869 1.394 1_455 S
C868 C874 1.465 . S
C869 C864 1.399 . S
C869 C868 1.394 1_655 S
C869 C870 1.516 . S
C870 C869 1.516 . S
C870 C871 1.502 . S
C870 C872 1.561 . S
C870 C873 1.526 . S
C871 H855 0.959 . S
C871 H856 0.959 . S
C871 H857 0.961 . S
C871 C870 1.502 . S
C872 H858 0.960 . S
C872 H859 0.961 . S
C872 H860 0.959 . S
C872 C870 1.561 . S
C873 C870 1.526 . S
C873 C874 1.396 1_655 S
C873 C878 1.390 . S
C874 C868 1.465 . S
C874 C873 1.396 1_455 S
C874 C875 1.399 . S
C875 H861 0.929 . S
C875 C874 1.399 . S
C875 C876 1.385 . S
C876 H862 0.931 . S
C876 C875 1.385 . S
C876 C877 1.389 1_455 S
C877 C876 1.389 1_655 S
C877 C878 1.387 . S
C878 H863 0.930 . S
C878 C873 1.390 . S
C878 C877 1.387 . S
H879 C891 0.930 . S
H880 C893 0.930 . S
H881 C894 0.930 . S
H882 C898 0.959 . S
H883 C898 0.959 . S
H884 C898 0.961 . S
H885 C899 0.960 . S
H886 C899 0.961 . S
H887 C899 0.959 . S
H888 C902 0.929 . S
H889 C903 0.931 . S
H890 C905 0.930 . S
C891 H879 0.930 . S
C891 C892 1.391 1_565 S
C891 C896 1.399 . S
C892 C891 1.391 1_545 S
C892 C893 1.386 . S
C893 H880 0.930 . S
C893 C892 1.386 . S
C893 C894 1.388 . S
C894 H881 0.930 . S
C894 C893 1.388 . S
C894 C895 1.390 . S
C895 C894 1.390 . S
C895 C896 1.394 1_545 S
C895 C901 1.465 . S
C896 C891 1.399 . S
C896 C895 1.394 1_565 S
C896 C897 1.516 . S
C897 C896 1.516 . S
C897 C898 1.502 . S
C897 C899 1.561 . S
C897 C900 1.526 . S
C898 H882 0.959 . S
C898 H883 0.959 . S
C898 H884 0.961 . S
C898 C897 1.502 . S
C899 H885 0.960 . S
C899 H886 0.961 . S
C899 H887 0.959 . S
C899 C897 1.561 . S
C900 C897 1.526 . S
C900 C901 1.396 1_565 S
C900 C905 1.390 . S
C901 C895 1.465 . S
C901 C900 1.396 1_545 S
C901 C902 1.399 . S
C902 H888 0.929 . S
C902 C901 1.399 . S
C902 C903 1.385 . S
C903 H889 0.931 . S
C903 C902 1.385 . S
C903 C904 1.389 1_545 S
C904 C903 1.389 1_565 S
C904 C905 1.387 . S
C905 H890 0.930 . S
C905 C900 1.390 . S
C905 C904 1.387 . S
H906 C918 0.930 . S
H907 C920 0.930 . S
H908 C921 0.930 . S
H909 C925 0.959 . S
H910 C925 0.959 . S
H911 C925 0.961 . S
H912 C926 0.960 . S
H913 C926 0.961 . S
H914 C926 0.959 . S
H915 C929 0.929 . S
H916 C930 0.931 . S
H917 C932 0.930 . S
C918 H906 0.930 . S
C918 C919 1.399 . S
C918 C923 1.399 . S
C919 C918 1.399 . S
C919 C920 1.376 . S
C920 H907 0.930 . S
C920 C919 1.376 . S
C920 C921 1.388 . S
C921 H908 0.930 . S
C921 C920 1.388 . S
C921 C922 1.390 . S
C922 C921 1.390 . S
C922 C923 1.394 . S
C922 C928 1.465 . S
C923 C918 1.399 . S
C923 C922 1.394 . S
C923 C924 1.516 . S
C924 C923 1.516 . S
C924 C925 1.502 . S
C924 C926 1.561 . S
C924 C927 1.526 . S
C925 H909 0.959 . S
C925 H910 0.959 . S
C925 H911 0.961 . S
C925 C924 1.502 . S
C926 H912 0.960 . S
C926 H913 0.961 . S
C926 H914 0.959 . S
C926 C924 1.561 . S
C927 C924 1.526 . S
C927 C928 1.396 . S
C927 C932 1.390 . S
C928 C922 1.465 . S
C928 C927 1.396 . S
C928 C929 1.399 . S
C929 H915 0.929 . S
C929 C928 1.399 . S
C929 C930 1.385 . S
C930 H916 0.931 . S
C930 C929 1.385 . S
C930 C931 1.389 . S
C931 C930 1.389 . S
C931 C932 1.387 . S
C932 H917 0.930 . S
C932 C927 1.390 . S
C932 C931 1.387 . S
H933 C945 0.930 . S
H934 C947 0.930 . S
H935 C948 0.930 . S
H936 C952 0.959 . S
H937 C952 0.959 . S
H938 C952 0.961 . S
H939 C953 0.960 . S
H940 C953 0.961 . S
H941 C953 0.959 . S
H942 C956 0.929 . S
H943 C957 0.931 . S
H944 C959 0.930 . S
C945 H933 0.930 . S
C945 C946 1.399 . S
C945 C950 1.399 . S
C946 C945 1.399 . S
C946 C947 1.376 . S
C947 H934 0.930 . S
C947 C946 1.376 . S
C947 C948 1.388 . S
C948 H935 0.930 . S
C948 C947 1.388 . S
C948 C949 1.390 . S
C949 C948 1.390 . S
C949 C950 1.394 . S
C949 C955 1.465 . S
C950 C945 1.399 . S
C950 C949 1.394 . S
C950 C951 1.516 . S
C951 C950 1.516 . S
C951 C952 1.502 . S
C951 C953 1.561 . S
C951 C954 1.526 . S
C952 H936 0.959 . S
C952 H937 0.959 . S
C952 H938 0.961 . S
C952 C951 1.502 . S
C953 H939 0.960 . S
C953 H940 0.961 . S
C953 H941 0.959 . S
C953 C951 1.561 . S
C954 C951 1.526 . S
C954 C955 1.396 . S
C954 C959 1.390 . S
C955 C949 1.465 . S
C955 C954 1.396 . S
C955 C956 1.399 . S
C956 H942 0.929 . S
C956 C955 1.399 . S
C956 C957 1.385 . S
C957 H943 0.931 . S
C957 C956 1.385 . S
C957 C958 1.389 . S
C958 C957 1.389 . S
C958 C959 1.387 . S
C959 H944 0.930 . S
C959 C954 1.390 . S
C959 C958 1.387 . S
C325 C125 1.892 . S
C337 C154 1.951 . S
C364 C194 1.965 . S
C352 C144 1.914 . S
C391 C234 1.965 . S
C379 C87 1.912 . S
C418 C274 1.964 1_455 S
C406 C106 1.922 . S
C445 C167 1.955 . S
C433 C49 1.947 1_545 S
C460 C68 1.894 . S
C472 C207 1.981 . S
C487 C11 1.938 . S
C499 C247 1.965 . S
C514 C30 1.903 . S
C526 C287 1.973 1_655 S
C553 C178 0.513 . S
C541 C97 0.441 1_455 S
C580 C218 0.567 . S
C568 C116 0.593 1_565 S
C607 C258 0.526 . S
C595 C135 0.459 . S
C622 C78 0.578 . S
C634 C298 0.464 . S
C649 C21 0.477 . S
C661 C161 0.510 . S
C688 C201 0.486 . S
C676 C40 0.665 . S
C715 C241 0.508 . S
C703 C59 0.516 . S
C730 C2 0.568 . S
C742 C281 0.563 . S
C757 C101 2.035 1_455 S
C769 C155 2.298 . S
C784 C120 2.063 1_545 S
C796 C195 2.283 . S
C823 C235 2.275 . S
C811 C139 1.992 . S
C850 C275 2.273 . S
C838 C82 2.047 . S
C865 C25 2.101 . S
C877 C174 2.285 . S
C904 C214 2.263 . S
C892 C44 2.082 1_545 S
C931 C254 2.262 . S
C919 C63 2.065 . S
C946 C6 2.081 . S
C958 C294 2.278 . S
