# Generated by pormake.
# Topology pto, (3,4)-cn, num edge types: 1
# Building blocks:
#     Node 0, Type 0, BuildingBlock: QEWDON_clean_linker_0, # of connection points: 3
#     Node 1, Type 0, BuildingBlock: QEWDON_clean_linker_0, # of connection points: 3
#     Node 2, Type 0, BuildingBlock: QEWDON_clean_linker_0, # of connection points: 3
#     Node 3, Type 0, BuildingBlock: QEWDON_clean_linker_0, # of connection points: 3
#     Node 4, Type 0, BuildingBlock: QEWDON_clean_linker_0, # of connection points: 3
#     Node 5, Type 0, BuildingBlock: QEWDON_clean_linker_0, # of connection points: 3
#     Node 6, Type 0, BuildingBlock: QEWDON_clean_linker_0, # of connection points: 3
#     Node 7, Type 0, BuildingBlock: QEWDON_clean_linker_0, # of connection points: 3
#     Node 8, Type 1, BuildingBlock: NAWXER_clean_sbu_0, # of connection points: 4
#     Node 9, Type 1, BuildingBlock: NAWXER_clean_sbu_0, # of connection points: 4
#     Node 10, Type 1, BuildingBlock: NAWXER_clean_sbu_0, # of connection points: 4
#     Node 11, Type 1, BuildingBlock: NAWXER_clean_sbu_0, # of connection points: 4
#     Node 12, Type 1, BuildingBlock: NAWXER_clean_sbu_0, # of connection points: 4
#     Node 13, Type 1, BuildingBlock: NAWXER_clean_sbu_0, # of connection points: 4
#     Edge 14, Type (0, 1), BuildingBlock: OJICUG_clean_linker_0, # of connection points: 2
#     Edge 15, Type (0, 1), BuildingBlock: OJICUG_clean_linker_0, # of connection points: 2
#     Edge 16, Type (0, 1), BuildingBlock: OJICUG_clean_linker_0, # of connection points: 2
#     Edge 17, Type (0, 1), BuildingBlock: OJICUG_clean_linker_0, # of connection points: 2
#     Edge 18, Type (0, 1), BuildingBlock: OJICUG_clean_linker_0, # of connection points: 2
#     Edge 19, Type (0, 1), BuildingBlock: OJICUG_clean_linker_0, # of connection points: 2
#     Edge 20, Type (0, 1), BuildingBlock: OJICUG_clean_linker_0, # of connection points: 2
#     Edge 21, Type (0, 1), BuildingBlock: OJICUG_clean_linker_0, # of connection points: 2
#     Edge 22, Type (0, 1), BuildingBlock: OJICUG_clean_linker_0, # of connection points: 2
#     Edge 23, Type (0, 1), BuildingBlock: OJICUG_clean_linker_0, # of connection points: 2
#     Edge 24, Type (0, 1), BuildingBlock: OJICUG_clean_linker_0, # of connection points: 2
#     Edge 25, Type (0, 1), BuildingBlock: OJICUG_clean_linker_0, # of connection points: 2
#     Edge 26, Type (0, 1), BuildingBlock: OJICUG_clean_linker_0, # of connection points: 2
#     Edge 27, Type (0, 1), BuildingBlock: OJICUG_clean_linker_0, # of connection points: 2
#     Edge 28, Type (0, 1), BuildingBlock: OJICUG_clean_linker_0, # of connection points: 2
#     Edge 29, Type (0, 1), BuildingBlock: OJICUG_clean_linker_0, # of connection points: 2
#     Edge 30, Type (0, 1), BuildingBlock: OJICUG_clean_linker_0, # of connection points: 2
#     Edge 31, Type (0, 1), BuildingBlock: OJICUG_clean_linker_0, # of connection points: 2
#     Edge 32, Type (0, 1), BuildingBlock: OJICUG_clean_linker_0, # of connection points: 2
#     Edge 33, Type (0, 1), BuildingBlock: OJICUG_clean_linker_0, # of connection points: 2
#     Edge 34, Type (0, 1), BuildingBlock: OJICUG_clean_linker_0, # of connection points: 2
#     Edge 35, Type (0, 1), BuildingBlock: OJICUG_clean_linker_0, # of connection points: 2
#     Edge 36, Type (0, 1), BuildingBlock: OJICUG_clean_linker_0, # of connection points: 2
#     Edge 37, Type (0, 1), BuildingBlock: OJICUG_clean_linker_0, # of connection points: 2
# Relax obj value: 0.024
# Max RMSD: 0.208
# Mean RMSD: 0.073
data_MOF--net-pto--node1-NAWXER_clean_sbu_0--node2-QEWDON_clean_linker_0--edge1-OJICUG_clean_linker_0
_symmetry_space_group_name_H-M    P1
_symmetry_Int_Tables_number       1
_symmetry_cell_setting            triclinic
loop_
_symmetry_equiv_pos_as_xyz
'x, y, z'
_cell_length_a     28.740693
_cell_length_b     30.451101
_cell_length_c     28.768758
_cell_angle_alpha  98.42019
_cell_angle_beta   107.84037
_cell_angle_gamma 100.55691
loop_
_atom_site_label
_atom_site_type_symbol
_atom_site_fract_x
_atom_site_fract_y
_atom_site_fract_z
_atom_type_partial_charge
H0 H 0.31214 0.34539 0.22716 0.0
C1 C 0.31934 0.31726 0.24515 0.0
C2 C 0.35625 0.29497 0.2379 0.0
C3 C 0.29166 0.303 0.27537 0.0
H4 H 0.39514 0.24215 0.25743 0.0
C5 C 0.36642 0.25913 0.26236 0.0
C6 C 0.33885 0.24421 0.29205 0.0
C7 C 0.30122 0.26583 0.29766 0.0
C8 C 0.25348 0.32676 0.28533 0.0
H9 H 0.27939 0.25361 0.31997 0.0
C10 C 0.21981 0.34232 0.24772 0.0
C11 C 0.18189 0.36138 0.25807 0.0
C12 C 0.24982 0.33277 0.3335 0.0
H13 H 0.27601 0.32289 0.36376 0.0
C14 C 0.2125 0.35166 0.34359 0.0
H15 H 0.22219 0.33874 0.21055 0.0
C16 C 0.17855 0.36552 0.30616 0.0
H17 H 0.15031 0.3808 0.3152 0.0
H18 H 0.21007 0.35582 0.38074 0.0
H19 H 0.43873 0.89557 0.80294 0.0
C20 C 0.41107 0.86905 0.80802 0.0
C21 C 0.42733 0.83921 0.83859 0.0
C22 C 0.35941 0.86566 0.78522 0.0
H23 H 0.40478 0.78277 0.87033 0.0
C24 C 0.3918 0.8057 0.84649 0.0
C25 C 0.34 0.80209 0.82506 0.0
C26 C 0.32394 0.8321 0.79396 0.0
C27 C 0.3433 0.89969 0.75565 0.0
H28 H 0.28406 0.82992 0.77731 0.0
C29 C 0.36473 0.91093 0.71953 0.0
C30 C 0.35273 0.9463 0.69517 0.0
C31 C 0.30886 0.92349 0.76601 0.0
H32 H 0.29227 0.91588 0.79391 0.0
C33 C 0.29689 0.95851 0.74177 0.0
H34 H 0.3909 0.89251 0.71068 0.0
C35 C 0.31891 0.97012 0.70684 0.0
H36 H 0.30883 0.99721 0.68818 0.0
H37 H 0.27064 0.97693 0.75031 0.0
H38 H 0.91488 0.73526 0.4116 0.0
C39 C 0.90037 0.75536 0.38494 0.0
C40 C 0.90483 0.74649 0.33708 0.0
C41 C 0.87587 0.7891 0.39796 0.0
H42 H 0.88829 0.766 0.26591 0.0
C43 C 0.88551 0.77268 0.30287 0.0
C44 C 0.86074 0.80605 0.31485 0.0
C45 C 0.85649 0.81425 0.36247 0.0
C46 C 0.86637 0.7957 0.44659 0.0
H47 H 0.83615 0.83913 0.37107 0.0
C48 C 0.86644 0.83944 0.47154 0.0
C49 C 0.85315 0.84492 0.51508 0.0
C50 C 0.85372 0.75767 0.46669 0.0
H51 H 0.85209 0.7235 0.44823 0.0
C52 C 0.84125 0.76295 0.51005 0.0
H53 H 0.87626 0.86919 0.45679 0.0
C54 C 0.84074 0.80607 0.53398 0.0
H55 H 0.83131 0.80904 0.5678 0.0
H56 H 0.8315 0.73333 0.525 0.0
H57 H 0.95777 0.43113 0.01536 0.0
C58 C 0.94546 0.39974 0.98697 0.0
C59 C 0.9686 0.39487 0.95083 0.0
C60 C 0.90705 0.36424 0.98757 0.0
H61 H 0.97032 0.34956 0.88676 0.0
C62 C 0.95312 0.35344 0.91531 0.0
C63 C 0.9155 0.31685 0.91583 0.0
C64 C 0.89157 0.32286 0.95155 0.0
C65 C 0.88632 0.37056 0.02852 0.0
H66 H 0.86299 0.29491 0.95294 0.0
C67 C 0.83633 0.37422 0.01895 0.0
C68 C 0.8189 0.3858 0.05889 0.0
C69 C 0.91868 0.37785 0.07816 0.0
H70 H 0.9575 0.37574 0.08627 0.0
C71 C 0.90149 0.38855 0.11774 0.0
H72 H 0.81178 0.36967 0.98064 0.0
C73 C 0.85206 0.3926 0.10831 0.0
H74 H 0.83959 0.40036 0.13982 0.0
H75 H 0.92666 0.39397 0.15588 0.0
H76 H 0.01957 0.79867 0.87852 0.0
C77 C 0.98681 0.79733 0.89002 0.0
C78 C 0.95452 0.75507 0.88447 0.0
C79 C 0.97862 0.8378 0.91211 0.0
H80 H 0.89097 0.72014 0.90019 0.0
C81 C 0.91388 0.75328 0.90213 0.0
C82 C 0.90395 0.79387 0.92339 0.0
C83 C 0.93644 0.83624 0.92724 0.0
C84 C 0.01603 0.88123 0.9212 0.0
H85 H 0.92989 0.86812 0.94292 0.0
C86 C 1.00333 0.9153 0.89535 0.0
C87 C 0.04023 0.95496 0.90048 0.0
C88 C 0.06576 0.88717 0.9531 0.0
H89 H 0.07632 0.86101 0.9731 0.0
C90 C 0.10228 0.92677 0.9591 0.0
H91 H 0.96524 0.90991 0.86962 0.0
C92 C 0.08977 0.96043 0.93274 0.0
H93 H 0.11872 0.99077 0.93769 0.0
H94 H 0.14053 0.93116 0.98383 0.0
H95 H 0.88297 0.34265 0.41271 0.0
C96 C 0.8497 0.33036 0.37941 0.0
C97 C 0.84986 0.34266 0.33425 0.0
C98 C 0.80599 0.30418 0.38291 0.0
H99 H 0.80465 0.33575 0.25671 0.0
C100 C 0.80598 0.3255 0.2915 0.0
C101 C 0.76215 0.298 0.29415 0.0
C102 C 0.76237 0.2881 0.3404 0.0
C103 C 0.80461 0.29839 0.43245 0.0
H104 H 0.72847 0.26837 0.3436 0.0
C105 C 0.83391 0.27214 0.45935 0.0
C106 C 0.83385 0.26879 0.50747 0.0
C107 C 0.77564 0.32134 0.45403 0.0
H108 H 0.75325 0.34205 0.4339 0.0
C109 C 0.77624 0.31852 0.50218 0.0
H110 H 0.85594 0.25393 0.44267 0.0
C111 C 0.80516 0.29232 0.52883 0.0
H112 H 0.80445 0.28967 0.56578 0.0
H113 H 0.75403 0.33647 0.51876 0.0
H114 H 0.32204 0.27717 0.73533 0.0
C115 C 0.30113 0.30124 0.74467 0.0
C116 C 0.31621 0.32631 0.79436 0.0
C117 C 0.26094 0.30933 0.70677 0.0
H118 H 0.30381 0.38056 0.84295 0.0
C119 C 0.29114 0.36004 0.80532 0.0
C120 C 0.25062 0.368 0.76817 0.0
C121 C 0.23451 0.34078 0.71991 0.0
C122 C 0.2479 0.28852 0.65265 0.0
H123 H 0.20148 0.34481 0.69177 0.0
C124 C 0.24972 0.24316 0.63596 0.0
C125 C 0.23546 0.2244 0.5843 0.0
C126 C 0.23307 0.31496 0.61679 0.0
H127 H 0.23318 0.35053 0.62796 0.0
C128 C 0.21829 0.29626 0.56591 0.0
H129 H 0.26165 0.22236 0.66276 0.0
C130 C 0.2192 0.25127 0.54966 0.0
H131 H 0.2091 0.23808 0.50989 0.0
H132 H 0.20686 0.31702 0.53896 0.0
H133 H 0.3766 0.8053 0.21746 0.0
C134 C 0.35906 0.77867 0.23222 0.0
C135 C 0.34008 0.79048 0.27074 0.0
C136 C 0.35085 0.73229 0.20967 0.0
H137 H 0.29831 0.76558 0.31595 0.0
C138 C 0.31472 0.75602 0.28782 0.0
C139 C 0.30588 0.70986 0.26569 0.0
C140 C 0.32492 0.69824 0.22725 0.0
C141 C 0.36123 0.71894 0.16268 0.0
H142 H 0.3173 0.66259 0.20911 0.0
C143 C 0.40963 0.73205 0.15929 0.0
C144 C 0.41825 0.71621 0.11461 0.0
C145 C 0.32148 0.69147 0.12055 0.0
H146 H 0.28382 0.68146 0.12192 0.0
C147 C 0.32962 0.67677 0.0762 0.0
H148 H 0.44058 0.75302 0.19159 0.0
C149 C 0.37758 0.68879 0.07323 0.0
H150 H 0.38276 0.67698 0.03818 0.0
H151 H 0.29862 0.65583 0.04399 0.0
C152 C 0.0075 0.48269 0.32014 0.0
C153 C 0.1424 0.59428 0.3001 0.0
O154 O 0.04845 0.5042 0.35506 0.0
Zn155 Zn 0.07496 0.54342 0.31622 0.0
O156 O 0.99675 0.49323 0.27732 0.0
Zn157 Zn 0.02766 0.5387 0.23944 0.0
O158 O 0.03081 0.49349 0.18449 0.0
O159 O 0.08178 0.49344 0.26004 0.0
O160 O 0.10173 0.58094 0.26208 0.0
O161 O 0.14356 0.58238 0.34103 0.0
O162 O 0.02959 0.59113 0.30964 0.0
O163 O 0.98356 0.58151 0.23045 0.0
C164 C 0.06444 0.47769 0.21272 0.0
C165 C 0.99624 0.60252 0.2758 0.0
C166 C 0.10708 0.53777 0.91868 0.0
C167 C 0.2062 0.65711 0.86612 0.0
O168 O 0.14611 0.56806 0.94748 0.0
Zn169 Zn 0.15818 0.59659 0.89488 0.0
O170 O 0.09063 0.53627 0.87159 0.0
Zn171 Zn 0.10944 0.57284 0.81848 0.0
O172 O 0.12348 0.52551 0.77563 0.0
O173 O 0.17618 0.54205 0.85354 0.0
O174 O 0.16873 0.63092 0.82983 0.0
O175 O 0.21448 0.64942 0.90983 0.0
O176 O 0.09322 0.62365 0.87438 0.0
O177 O 0.04984 0.59617 0.79391 0.0
C178 C 0.16013 0.51784 0.80891 0.0
C179 C 0.05497 0.62079 0.83575 0.0
C180 C 0.38556 0.00433 0.52687 0.0
C181 C 0.36585 0.09959 0.40082 0.0
O182 O 0.34159 0.99422 0.49355 0.0
Zn183 Zn 0.30199 0.01594 0.42857 0.0
O184 O 0.42048 0.035 0.52372 0.0
Zn185 Zn 0.38031 0.04999 0.46247 0.0
O186 O 0.32974 0.07867 0.49174 0.0
O187 O 0.25157 0.0384 0.45075 0.0
O188 O 0.40701 0.10024 0.43448 0.0
O189 O 0.32598 0.06976 0.39572 0.0
O190 O 0.28224 0.96261 0.37587 0.0
O191 O 0.36477 0.98932 0.406 0.0
C192 C 0.28258 0.07146 0.48501 0.0
C193 C 0.32564 0.95946 0.37557 0.0
C194 C 0.74102 0.84584 0.1375 0.0
C195 C 0.61899 0.84416 0.9769 0.0
O196 O 0.72282 0.80582 0.10904 0.0
Zn197 Zn 0.67054 0.77437 0.03566 0.0
O198 O 0.72758 0.88035 0.12268 0.0
Zn199 Zn 0.68203 0.84666 0.05731 0.0
O200 O 0.62277 0.80638 0.07593 0.0
O201 O 0.61905 0.73356 0.05001 0.0
O202 O 0.6448 0.87904 0.01144 0.0
O203 O 0.62583 0.80454 0.98212 0.0
O204 O 0.71122 0.74948 1.00098 0.0
O205 O 0.73279 0.82495 0.02226 0.0
C206 C 0.60259 0.76396 0.07109 0.0
C207 C 0.7397 0.78724 1.00235 0.0
C208 C 0.9742 0.07185 0.76656 0.0
C209 C 0.91354 0.15386 0.6351 0.0
O210 O 0.92646 0.06737 0.75067 0.0
Zn211 Zn 0.87012 0.08826 0.6975 0.0
O212 O 1.0017 0.09574 0.74755 0.0
Zn213 Zn 0.94709 0.1137 0.70102 0.0
O214 O 0.9231 0.15419 0.75166 0.0
O215 O 0.84373 0.12495 0.74174 0.0
O216 O 0.95942 0.15502 0.65805 0.0
O217 O 0.87863 0.13039 0.64666 0.0
O218 O 0.83189 0.02891 0.65253 0.0
O219 O 0.90856 0.04975 0.65 0.0
C220 C 0.8844 0.1558 0.76442 0.0
C221 C 0.86588 0.02067 0.63499 0.0
C222 C 0.58949 0.27855 0.12136 0.0
C223 C 0.47043 0.30388 0.96831 0.0
O224 O 0.56594 0.24799 0.08135 0.0
Zn225 Zn 0.52857 0.28735 0.04394 0.0
O226 O 0.58286 0.31908 0.12379 0.0
Zn227 Zn 0.54282 0.35884 0.07878 0.0
O228 O 0.50208 0.37666 0.11821 0.0
O229 O 0.48271 0.30234 0.08722 0.0
O230 O 0.49138 0.33954 1.00381 0.0
O231 O 0.48048 0.26582 0.97522 0.0
O232 O 0.59065 0.33127 0.03584 0.0
O233 O 0.60019 0.40206 0.0749 0.0
C234 C 0.47602 0.33667 0.11379 0.0
C235 C 0.61516 0.37324 0.04969 0.0
C236 C 0.09517 0.36657 0.21107 0.0
C237 C 0.14741 0.38091 0.22159 0.0
H238 H 0.02545 0.38693 0.19633 0.0
C239 C 0.16661 0.42234 0.2105 0.0
H240 H 0.07956 0.33485 0.21964 0.0
C241 C 0.13547 0.45215 0.197 0.0
C242 C 0.08487 0.44069 0.1942 0.0
H243 H 0.20677 0.43438 0.21881 0.0
H244 H 0.15266 0.48661 0.19593 0.0
C245 C 0.06402 0.39625 0.19723 0.0
C246 C 0.31364 0.75914 0.8849 0.0
C247 C 0.30358 0.76714 0.83615 0.0
H248 H 0.29116 0.71841 0.93268 0.0
C249 C 0.26013 0.73982 0.79792 0.0
H250 H 0.34639 0.78004 0.91545 0.0
C251 C 0.22839 0.70448 0.80787 0.0
C252 C 0.2392 0.69572 0.85636 0.0
H253 H 0.25146 0.74482 0.75997 0.0
H254 H 0.19567 0.68362 0.77727 0.0
C255 C 0.28188 0.72388 0.89488 0.0
C256 C 0.97065 0.70054 0.35508 0.0
C257 C 0.92782 0.70901 0.32155 0.0
H258 H 0.02579 0.6609 0.36693 0.0
C259 C 0.90759 0.68185 0.27246 0.0
H260 H 0.98772 0.72093 0.39288 0.0
C261 C 0.92994 0.64776 0.2572 0.0
C262 C 0.97278 0.63946 0.29078 0.0
H263 H 0.87399 0.68656 0.24573 0.0
H264 H 0.91324 0.62754 0.21929 0.0
C265 C 0.99272 0.66622 0.33995 0.0
C266 C 1.00398 0.47849 0.95802 0.0
C267 C 0.00866 0.43302 0.94984 0.0
H268 H 0.03284 0.54795 0.95535 0.0
C269 C 0.05061 0.42406 0.93818 0.0
H270 H 0.97191 0.48656 0.96649 0.0
C271 C 0.08528 0.45926 0.93183 0.0
C272 C 0.07912 0.50407 0.93788 0.0
H273 H 0.05588 0.38961 0.93252 0.0
H274 H 0.1156 0.45114 0.91992 0.0
C275 C 0.03889 0.5137 0.95194 0.0
C276 C 0.30692 0.1693 0.31072 0.0
C277 C 0.34782 0.20526 0.31646 0.0
H278 H 0.28071 0.10787 0.33183 0.0
C279 C 0.39615 0.20475 0.34763 0.0
H280 H 0.26938 0.16851 0.28653 0.0
C281 C 0.40287 0.16987 0.37432 0.0
C282 C 0.36142 0.13465 0.36972 0.0
H283 H 0.42834 0.23221 0.35276 0.0
H284 H 0.44016 0.17108 0.39934 0.0
C285 C 0.31362 0.13443 0.33671 0.0
C286 C 0.5018 0.80607 0.86311 0.0
C287 C 0.48133 0.84434 0.86563 0.0
H288 H 0.56246 0.77657 0.89556 0.0
C289 C 0.51047 0.88537 0.89952 0.0
H290 H 0.48006 0.77424 0.83688 0.0
C291 C 0.5577 0.88677 0.93368 0.0
C292 C 0.57624 0.84715 0.93407 0.0
H293 H 0.4952 0.91527 0.90206 0.0
H294 H 0.57793 0.91782 0.96181 0.0
C295 C 0.54895 0.80753 0.89679 0.0
C296 C 0.81575 0.8968 0.56253 0.0
C297 C 0.85334 0.89099 0.54176 0.0
H298 H 0.78961 0.94223 0.60768 0.0
C299 C 0.8926 0.92913 0.54892 0.0
H300 H 0.78451 0.8683 0.55713 0.0
C301 C 0.89536 0.97139 0.57766 0.0
C302 C 0.85885 0.97686 0.59997 0.0
H303 H 0.92238 0.92598 0.53391 0.0
H304 H 0.92703 0.99959 0.58339 0.0
C305 C 0.81839 0.93927 0.59119 0.0
C306 C 0.75416 0.42218 0.0809 0.0
C307 C 0.76584 0.38894 0.04966 0.0
H308 H 0.69671 0.44412 0.10471 0.0
C309 C 0.72615 0.35603 0.01245 0.0
H310 H 0.78386 0.44867 0.10924 0.0
C311 C 0.67634 0.35385 0.00948 0.0
C312 C 0.665 0.38452 0.04361 0.0
H313 H 0.73365 0.32993 0.98778 0.0
H314 H 0.64693 0.32616 0.98245 0.0
C315 C 0.70417 0.42004 0.07785 0.0
C316 C 0.35665 0.92637 0.60945 0.0
C317 C 0.37286 0.95747 0.65558 0.0
H318 H 0.3486 0.9171 0.53181 0.0
C319 C 0.40174 0.00164 0.66081 0.0
H320 H 0.33395 0.8923 0.60449 0.0
C321 C 0.41139 0.01547 0.61961 0.0
C322 C 0.39108 0.98568 0.57232 0.0
H323 H 0.41434 0.02623 0.69607 0.0
H324 H 0.4306 0.05068 0.62376 0.0
C325 C 0.36517 0.94053 0.568 0.0
C326 C 0.78395 0.83013 0.26844 0.0
C327 C 0.834 0.82788 0.27521 0.0
H328 H 0.71515 0.83879 0.21873 0.0
C329 C 0.85546 0.84062 0.23981 0.0
H330 H 0.766 0.81994 0.29453 0.0
C331 C 0.82605 0.85113 0.1963 0.0
C332 C 0.77518 0.84986 0.18814 0.0
H333 H 0.89409 0.8398 0.24432 0.0
H334 H 0.84205 0.85716 0.16757 0.0
C335 C 0.75476 0.84095 0.22512 0.0
C336 C 0.94579 0.25525 0.8755 0.0
C337 C 0.90498 0.27208 0.88083 0.0
H338 H 0.97107 0.2058 0.83545 0.0
C339 C 0.8558 0.24759 0.85031 0.0
H340 H 0.98405 0.27262 0.89913 0.0
C341 C 0.84811 0.20849 0.81323 0.0
C342 C 0.88954 0.19352 0.80627 0.0
H343 H 0.8236 0.25973 0.85369 0.0
H344 H 0.81012 0.19116 0.78892 0.0
C345 C 0.93824 0.21679 0.83883 0.0
C346 C 0.38657 0.27265 0.16756 0.0
C347 C 0.3832 0.30737 0.20334 0.0
H348 H 0.41738 0.25476 0.11094 0.0
C349 C 0.40725 0.35295 0.20683 0.0
H350 H 0.36772 0.23733 0.16344 0.0
C351 C 0.43623 0.36319 0.17662 0.0
C352 C 0.44113 0.328 0.14213 0.0
H353 H 0.40518 0.38038 0.23415 0.0
H354 H 0.45589 0.39834 0.18128 0.0
C355 C 0.41494 0.2828 0.13728 0.0
C356 C 0.98114 0.68337 0.89736 0.0
C357 C 0.96789 0.71314 0.86552 0.0
H358 H 0.01961 0.63037 0.91241 0.0
C359 C 0.97634 0.70723 0.81959 0.0
H360 H 0.97543 0.68761 0.93312 0.0
C361 C 1.00092 0.67399 0.80731 0.0
C362 C 0.01831 0.64717 0.84144 0.0
H363 H 0.96655 0.73011 0.79465 0.0
H364 H 0.00983 0.6718 0.7732 0.0
C365 C 0.00663 0.65093 0.88564 0.0
C366 C 0.92254 0.41265 0.37416 0.0
C367 C 0.89409 0.37628 0.33278 0.0
H368 H 0.98159 0.47449 0.40308 0.0
C369 C 0.90671 0.37382 0.28913 0.0
H370 H 0.91359 0.41643 0.40821 0.0
C371 C 0.94474 0.40783 0.28603 0.0
C372 C 0.97191 0.44466 0.32678 0.0
H373 H 0.88677 0.34596 0.25694 0.0
H374 H 0.95257 0.40559 0.25135 0.0
C375 C 0.96147 0.4462 0.37135 0.0
C376 C 0.22216 0.41927 0.82564 0.0
C377 C 0.22656 0.40613 0.77853 0.0
H378 H 0.19817 0.46516 0.87207 0.0
C379 C 0.20847 0.4304 0.74129 0.0
H380 H 0.23459 0.40111 0.85501 0.0
C381 C 0.18603 0.46618 0.75067 0.0
C382 C 0.18261 0.47951 0.79794 0.0
H383 H 0.2123 0.42239 0.70493 0.0
H384 H 0.17249 0.48414 0.72135 0.0
C385 C 0.20098 0.45586 0.83538 0.0
C386 C 0.22938 0.64525 0.23645 0.0
C387 C 0.26895 0.67542 0.27645 0.0
H388 H 0.15889 0.59641 0.21282 0.0
C389 C 0.26865 0.67638 0.32551 0.0
H390 H 0.2279 0.64408 0.1982 0.0
C391 C 0.22847 0.64897 0.33404 0.0
C392 C 0.18768 0.62075 0.29354 0.0
H393 H 0.29877 0.69929 0.35711 0.0
H394 H 0.22841 0.65115 0.37194 0.0
C395 C 0.18931 0.61841 0.24488 0.0
C396 C 0.05807 0.00826 0.84555 0.0
C397 C 0.02693 0.98954 0.87076 0.0
H398 H 0.06597 0.04948 0.79258 0.0
C399 C 0.98122 0.00198 0.86508 0.0
H400 H 0.09348 0.9991 0.84912 0.0
C401 C 0.96556 0.03042 0.83284 0.0
C402 C 0.99526 0.04725 0.80551 0.0
H403 H 0.95697 0.98892 0.88483 0.0
H404 H 0.92937 0.03826 0.8284 0.0
C405 C 0.04236 0.03702 0.81318 0.0
C406 C 0.71493 0.26642 0.2019 0.0
C407 C 0.71479 0.28406 0.24993 0.0
H408 H 0.67378 0.24881 0.12278 0.0
C409 C 0.66977 0.29209 0.25496 0.0
H410 H 0.74904 0.25973 0.19694 0.0
C411 C 0.62708 0.28593 0.21273 0.0
C412 C 0.62802 0.27068 0.16462 0.0
H413 H 0.66849 0.30609 0.29128 0.0
H414 H 0.59413 0.29575 0.21744 0.0
C415 C 0.67173 0.25946 0.15957 0.0
C416 C 0.2059 0.14923 0.52239 0.0
C417 C 0.24223 0.17884 0.56569 0.0
H418 H 0.18995 0.09121 0.46281 0.0
C419 C 0.28861 0.16814 0.58621 0.0
H420 H 0.16959 0.15652 0.50612 0.0
C421 C 0.30027 0.1311 0.56135 0.0
C422 C 0.26562 0.10385 0.51575 0.0
H423 H 0.31736 0.19036 0.61937 0.0
H424 H 0.33751 0.12527 0.57657 0.0
C425 C 0.21744 0.11183 0.49769 0.0
C426 C 0.49776 0.77326 0.12406 0.0
C427 C 0.46895 0.72786 0.10978 0.0
H428 H 0.56246 0.82034 0.12287 0.0
C429 C 0.48678 0.69391 0.08649 0.0
H430 H 0.48489 0.80017 0.14181 0.0
C431 C 0.53112 0.70532 0.0756 0.0
C432 C 0.55864 0.75105 0.0875 0.0
H433 H 0.46571 0.65849 0.07558 0.0
H434 H 0.54288 0.67844 0.05639 0.0
C435 C 0.54202 0.78477 0.11285 0.0
C436 C 0.83284 0.19221 0.52659 0.0
C437 C 0.85947 0.23747 0.53406 0.0
H438 H 0.82981 0.12998 0.55284 0.0
C439 C 0.90729 0.25366 0.57122 0.0
H440 H 0.79577 0.17934 0.49825 0.0
C441 C 0.92724 0.22522 0.60218 0.0
C442 C 0.89894 0.18079 0.59678 0.0
H443 H 0.92804 0.28877 0.57769 0.0
H444 H 0.96304 0.23892 0.63228 0.0
C445 C 0.85228 0.16416 0.55784 0.0
C446 C 0.39463 0.35741 0.86955 0.0
C447 C 0.35923 0.31932 0.83514 0.0
H448 H 0.45699 0.38234 0.93777 0.0
C449 C 0.36339 0.27527 0.84247 0.0
H450 H 0.39337 0.39179 0.86451 0.0
C451 C 0.40053 0.26971 0.88482 0.0
C452 C 0.4341 0.30813 0.92055 0.0
H453 H 0.33667 0.24522 0.81664 0.0
H454 H 0.40177 0.23549 0.89044 0.0
C455 C 0.4313 0.35192 0.91163 0.0
C456 C 0.29216 0.849 0.28018 0.0
C457 C 0.33904 0.83803 0.28914 0.0
H458 H 0.25116 0.896 0.30025 0.0
C459 C 0.38252 0.86965 0.32252 0.0
H460 H 0.25811 0.82487 0.25466 0.0
C461 C 0.37863 0.91051 0.34899 0.0
C462 C 0.33112 0.92002 0.34256 0.0
H463 H 0.41893 0.86152 0.33034 0.0
H464 H 0.41247 0.93344 0.37629 0.0
C465 C 0.2882 0.88954 0.30658 0.0
C466 C 0.86496 0.82525 0.98473 0.0
C467 C 0.86132 0.79195 0.94335 0.0
H468 H 0.82938 0.85004 0.03511 0.0
C469 C 0.81685 0.75657 0.92192 0.0
H470 H 0.89878 0.8523 1.00353 0.0
C471 C 0.77765 0.75443 0.94152 0.0
C472 C 0.78134 0.78827 0.98213 0.0
H473 H 0.81183 0.73068 0.88954 0.0
H474 H 0.74398 0.72687 0.92418 0.0
C475 C 0.82525 0.82377 1.00334 0.0
loop_
_geom_bond_atom_site_label_1
_geom_bond_atom_site_label_2
_geom_bond_distance
_geom_bond_site_symmetry_2
_ccdc_geom_bond_type
H0 C1 0.949 . S
C1 H0 0.949 . S
C1 C2 1.395 . S
C1 C3 1.391 . S
C2 C1 1.395 . S
C2 C5 1.390 . S
C3 C1 1.391 . S
C3 C7 1.387 . S
C3 C8 1.491 . S
H4 C5 0.950 . S
C5 C2 1.390 . S
C5 H4 0.950 . S
C5 C6 1.378 . S
C6 C5 1.378 . S
C6 C7 1.409 . S
C7 C3 1.387 . S
C7 C6 1.409 . S
C7 H9 0.951 . S
C8 C3 1.491 . S
C8 C10 1.382 . S
C8 C12 1.404 . S
H9 C7 0.951 . S
C10 C8 1.382 . S
C10 C11 1.390 . S
C10 H15 0.949 . S
C11 C10 1.390 . S
C11 C16 1.399 . S
C12 C8 1.404 . S
C12 H13 0.950 . S
C12 C14 1.375 . S
H13 C12 0.950 . S
C14 C12 1.375 . S
C14 C16 1.382 . S
C14 H18 0.950 . S
H15 C10 0.949 . S
C16 C11 1.399 . S
C16 C14 1.382 . S
C16 H17 0.952 . S
H17 C16 0.952 . S
H18 C14 0.950 . S
H19 C20 0.949 . S
C20 H19 0.949 . S
C20 C21 1.395 . S
C20 C22 1.391 . S
C21 C20 1.395 . S
C21 C24 1.390 . S
C22 C20 1.391 . S
C22 C26 1.387 . S
C22 C27 1.491 . S
H23 C24 0.950 . S
C24 C21 1.390 . S
C24 H23 0.950 . S
C24 C25 1.378 . S
C25 C24 1.378 . S
C25 C26 1.409 . S
C26 C22 1.387 . S
C26 C25 1.409 . S
C26 H28 0.951 . S
C27 C22 1.491 . S
C27 C29 1.382 . S
C27 C31 1.404 . S
H28 C26 0.951 . S
C29 C27 1.382 . S
C29 C30 1.390 . S
C29 H34 0.949 . S
C30 C29 1.390 . S
C30 C35 1.399 . S
C31 C27 1.404 . S
C31 H32 0.950 . S
C31 C33 1.375 . S
H32 C31 0.950 . S
C33 C31 1.375 . S
C33 C35 1.382 . S
C33 H37 0.950 . S
H34 C29 0.949 . S
C35 C30 1.399 . S
C35 C33 1.382 . S
C35 H36 0.952 . S
H36 C35 0.952 . S
H37 C33 0.950 . S
H38 C39 0.949 . S
C39 H38 0.949 . S
C39 C40 1.395 . S
C39 C41 1.391 . S
C40 C39 1.395 . S
C40 C43 1.390 . S
C41 C39 1.391 . S
C41 C45 1.387 . S
C41 C46 1.491 . S
H42 C43 0.950 . S
C43 C40 1.390 . S
C43 H42 0.950 . S
C43 C44 1.378 . S
C44 C43 1.378 . S
C44 C45 1.409 . S
C45 C41 1.387 . S
C45 C44 1.409 . S
C45 H47 0.951 . S
C46 C41 1.491 . S
C46 C48 1.382 . S
C46 C50 1.404 . S
H47 C45 0.951 . S
C48 C46 1.382 . S
C48 C49 1.390 . S
C48 H53 0.949 . S
C49 C48 1.390 . S
C49 C54 1.399 . S
C50 C46 1.404 . S
C50 H51 0.950 . S
C50 C52 1.375 . S
H51 C50 0.950 . S
C52 C50 1.375 . S
C52 C54 1.382 . S
C52 H56 0.950 . S
H53 C48 0.949 . S
C54 C49 1.399 . S
C54 C52 1.382 . S
C54 H55 0.952 . S
H55 C54 0.952 . S
H56 C52 0.950 . S
H57 C58 0.949 . S
C58 H57 0.949 . S
C58 C59 1.395 1_554 S
C58 C60 1.391 1_554 S
C59 C58 1.395 1_556 S
C59 C62 1.390 . S
C60 C58 1.391 1_556 S
C60 C64 1.387 . S
C60 C65 1.491 1_556 S
H61 C62 0.950 . S
C62 C59 1.390 . S
C62 H61 0.950 . S
C62 C63 1.378 . S
C63 C62 1.378 . S
C63 C64 1.409 . S
C64 C60 1.387 . S
C64 C63 1.409 . S
C64 H66 0.951 . S
C65 C60 1.491 1_554 S
C65 C67 1.382 . S
C65 C69 1.404 . S
H66 C64 0.951 . S
C67 C65 1.382 . S
C67 C68 1.390 . S
C67 H72 0.949 . S
C68 C67 1.390 . S
C68 C73 1.399 . S
C69 C65 1.404 . S
C69 H70 0.950 . S
C69 C71 1.375 . S
H70 C69 0.950 . S
C71 C69 1.375 . S
C71 C73 1.382 . S
C71 H75 0.950 . S
H72 C67 0.949 . S
C73 C68 1.399 . S
C73 C71 1.382 . S
C73 H74 0.952 . S
H74 C73 0.952 . S
H75 C71 0.950 . S
H76 C77 0.949 1_455 S
C77 H76 0.949 1_655 S
C77 C78 1.395 . S
C77 C79 1.391 . S
C78 C77 1.395 . S
C78 C81 1.390 . S
C79 C77 1.391 . S
C79 C83 1.387 . S
C79 C84 1.491 . S
H80 C81 0.950 . S
C81 C78 1.390 . S
C81 H80 0.950 . S
C81 C82 1.378 . S
C82 C81 1.378 . S
C82 C83 1.409 . S
C83 C79 1.387 . S
C83 C82 1.409 . S
C83 H85 0.951 . S
C84 C79 1.491 . S
C84 C86 1.382 . S
C84 C88 1.404 . S
H85 C83 0.951 . S
C86 C84 1.382 . S
C86 C87 1.390 . S
C86 H91 0.949 . S
C87 C86 1.390 . S
C87 C92 1.399 . S
C88 C84 1.404 . S
C88 H89 0.950 . S
C88 C90 1.375 . S
H89 C88 0.950 . S
C90 C88 1.375 . S
C90 C92 1.382 . S
C90 H94 0.950 . S
H91 C86 0.949 . S
C92 C87 1.399 . S
C92 C90 1.382 . S
C92 H93 0.952 1_565 S
H93 C92 0.952 1_545 S
H94 C90 0.950 . S
H95 C96 0.949 . S
C96 H95 0.949 . S
C96 C97 1.395 . S
C96 C98 1.391 . S
C97 C96 1.395 . S
C97 C100 1.390 . S
C98 C96 1.391 . S
C98 C102 1.387 . S
C98 C103 1.491 . S
H99 C100 0.950 . S
C100 C97 1.390 . S
C100 H99 0.950 . S
C100 C101 1.378 . S
C101 C100 1.378 . S
C101 C102 1.409 . S
C102 C98 1.387 . S
C102 C101 1.409 . S
C102 H104 0.951 . S
C103 C98 1.491 . S
C103 C105 1.382 . S
C103 C107 1.404 . S
H104 C102 0.951 . S
C105 C103 1.382 . S
C105 C106 1.390 . S
C105 H110 0.949 . S
C106 C105 1.390 . S
C106 C111 1.399 . S
C107 C103 1.404 . S
C107 H108 0.950 . S
C107 C109 1.375 . S
H108 C107 0.950 . S
C109 C107 1.375 . S
C109 C111 1.382 . S
C109 H113 0.950 . S
H110 C105 0.949 . S
C111 C106 1.399 . S
C111 C109 1.382 . S
C111 H112 0.952 . S
H112 C111 0.952 . S
H113 C109 0.950 . S
H114 C115 0.949 . S
C115 H114 0.949 . S
C115 C116 1.395 . S
C115 C117 1.391 . S
C116 C115 1.395 . S
C116 C119 1.390 . S
C117 C115 1.391 . S
C117 C121 1.387 . S
C117 C122 1.491 . S
H118 C119 0.950 . S
C119 C116 1.390 . S
C119 H118 0.950 . S
C119 C120 1.378 . S
C120 C119 1.378 . S
C120 C121 1.409 . S
C121 C117 1.387 . S
C121 C120 1.409 . S
C121 H123 0.951 . S
C122 C117 1.491 . S
C122 C124 1.382 . S
C122 C126 1.404 . S
H123 C121 0.951 . S
C124 C122 1.382 . S
C124 C125 1.390 . S
C124 H129 0.949 . S
C125 C124 1.390 . S
C125 C130 1.399 . S
C126 C122 1.404 . S
C126 H127 0.950 . S
C126 C128 1.375 . S
H127 C126 0.950 . S
C128 C126 1.375 . S
C128 C130 1.382 . S
C128 H132 0.950 . S
H129 C124 0.949 . S
C130 C125 1.399 . S
C130 C128 1.382 . S
C130 H131 0.952 . S
H131 C130 0.952 . S
H132 C128 0.950 . S
H133 C134 0.949 . S
C134 H133 0.949 . S
C134 C135 1.395 . S
C134 C136 1.391 . S
C135 C134 1.395 . S
C135 C138 1.390 . S
C136 C134 1.391 . S
C136 C140 1.387 . S
C136 C141 1.491 . S
H137 C138 0.950 . S
C138 C135 1.390 . S
C138 H137 0.950 . S
C138 C139 1.378 . S
C139 C138 1.378 . S
C139 C140 1.409 . S
C140 C136 1.387 . S
C140 C139 1.409 . S
C140 H142 0.951 . S
C141 C136 1.491 . S
C141 C143 1.382 . S
C141 C145 1.404 . S
H142 C140 0.951 . S
C143 C141 1.382 . S
C143 C144 1.390 . S
C143 H148 0.949 . S
C144 C143 1.390 . S
C144 C149 1.399 . S
C145 C141 1.404 . S
C145 H146 0.950 . S
C145 C147 1.375 . S
H146 C145 0.950 . S
C147 C145 1.375 . S
C147 C149 1.382 . S
C147 H151 0.950 1_554 S
H148 C143 0.949 . S
C149 C144 1.399 . S
C149 C147 1.382 . S
C149 H150 0.952 1_554 S
H150 C149 0.952 1_556 S
H151 C147 0.950 1_556 S
C152 O154 1.254 . S
C152 O156 1.258 . S
C153 O160 1.247 . S
C153 O161 1.258 . S
O154 C152 1.254 . S
O154 Zn155 2.020 1_655 S
Zn155 O154 2.020 1_455 S
Zn155 O159 2.035 . S
Zn155 O161 2.035 . S
Zn155 O162 2.028 . S
O156 C152 1.258 . S
O156 Zn157 2.035 . S
Zn157 O156 2.035 . S
Zn157 O158 2.028 1_655 S
Zn157 O160 2.028 1_655 S
Zn157 O163 2.035 . S
O158 Zn157 2.028 1_455 S
O158 C164 1.247 . S
O159 Zn155 2.035 . S
O159 C164 1.258 . S
O160 C153 1.247 . S
O160 Zn157 2.028 1_455 S
O161 C153 1.258 . S
O161 Zn155 2.035 . S
O162 Zn155 2.028 . S
O162 C165 1.247 1_455 S
O163 Zn157 2.035 . S
O163 C165 1.258 . S
C164 O158 1.247 . S
C164 O159 1.258 . S
C165 O162 1.247 1_655 S
C165 O163 1.258 . S
C166 O168 1.247 . S
C166 O170 1.258 . S
C167 O174 1.247 . S
C167 O175 1.258 . S
O168 C166 1.247 . S
O168 Zn169 2.028 . S
Zn169 O168 2.028 . S
Zn169 O173 2.035 . S
Zn169 O175 2.035 . S
Zn169 O176 2.028 . S
O170 C166 1.258 . S
O170 Zn171 2.035 . S
Zn171 O170 2.035 . S
Zn171 O172 2.028 . S
Zn171 O174 2.028 . S
Zn171 O177 2.035 . S
O172 Zn171 2.028 . S
O172 C178 1.247 . S
O173 Zn169 2.035 . S
O173 C178 1.258 . S
O174 C167 1.247 . S
O174 Zn171 2.028 . S
O175 C167 1.258 . S
O175 Zn169 2.035 . S
O176 Zn169 2.028 . S
O176 C179 1.247 . S
O177 Zn171 2.035 . S
O177 C179 1.258 . S
C178 O172 1.247 . S
C178 O173 1.258 . S
C179 O176 1.247 . S
C179 O177 1.258 . S
C180 O182 1.247 . S
C180 O184 1.258 . S
C181 O188 1.247 . S
C181 O189 1.258 . S
O182 C180 1.247 . S
O182 Zn183 2.028 1_565 S
Zn183 O182 2.028 1_545 S
Zn183 O187 2.035 . S
Zn183 O189 2.035 . S
Zn183 O190 2.028 1_545 S
O184 C180 1.258 . S
O184 Zn185 2.035 1_565 S
Zn185 O184 2.035 1_545 S
Zn185 O186 2.028 . S
Zn185 O188 2.028 . S
Zn185 O191 2.035 1_545 S
O186 Zn185 2.028 . S
O186 C192 1.247 . S
O187 Zn183 2.035 . S
O187 C192 1.258 . S
O188 C181 1.247 . S
O188 Zn185 2.028 . S
O189 C181 1.258 . S
O189 Zn183 2.035 . S
O190 Zn183 2.028 1_565 S
O190 C193 1.247 . S
O191 Zn185 2.035 1_565 S
O191 C193 1.258 . S
C192 O186 1.247 . S
C192 O187 1.258 . S
C193 O190 1.247 . S
C193 O191 1.258 . S
C194 O196 1.247 . S
C194 O198 1.258 . S
C195 O202 1.247 . S
C195 O203 1.258 . S
O196 C194 1.247 . S
O196 Zn197 2.028 1_554 S
Zn197 O196 2.028 1_556 S
Zn197 O201 2.035 1_556 S
Zn197 O203 2.035 . S
Zn197 O204 2.028 . S
O198 C194 1.258 . S
O198 Zn199 2.035 . S
Zn199 O198 2.035 . S
Zn199 O200 2.028 . S
Zn199 O202 2.028 1_554 S
Zn199 O205 2.035 1_554 S
O200 Zn199 2.028 . S
O200 C206 1.247 . S
O201 Zn197 2.035 1_554 S
O201 C206 1.258 . S
O202 C195 1.247 . S
O202 Zn199 2.028 1_556 S
O203 C195 1.258 . S
O203 Zn197 2.035 . S
O204 Zn197 2.028 . S
O204 C207 1.247 . S
O205 Zn199 2.035 1_556 S
O205 C207 1.258 . S
C206 O200 1.247 . S
C206 O201 1.258 . S
C207 O204 1.247 . S
C207 O205 1.258 . S
C208 O210 1.247 1_455 S
C208 O212 1.258 . S
C209 O216 1.247 1_655 S
C209 O217 1.258 . S
O210 C208 1.247 1_655 S
O210 Zn211 2.028 . S
Zn211 O210 2.028 . S
Zn211 O215 2.035 . S
Zn211 O217 2.035 . S
Zn211 O218 2.028 . S
O212 C208 1.258 . S
O212 Zn213 2.035 . S
Zn213 O212 2.035 . S
Zn213 O214 2.028 . S
Zn213 O216 2.028 . S
Zn213 O219 2.035 . S
O214 Zn213 2.028 . S
O214 C220 1.247 1_455 S
O215 Zn211 2.035 . S
O215 C220 1.258 . S
O216 C209 1.247 1_455 S
O216 Zn213 2.028 . S
O217 C209 1.258 . S
O217 Zn211 2.035 . S
O218 Zn211 2.028 . S
O218 C221 1.226 1_655 S
O219 Zn213 2.035 . S
O219 C221 1.271 . S
C220 O214 1.247 1_655 S
C220 O215 1.258 . S
C221 O218 1.226 1_455 S
C221 O219 1.271 . S
C222 O224 1.247 . S
C222 O226 1.258 . S
C223 O230 1.247 . S
C223 O231 1.258 . S
O224 C222 1.247 . S
O224 Zn225 2.028 . S
Zn225 O224 2.028 . S
Zn225 O229 2.035 . S
Zn225 O231 2.035 . S
Zn225 O232 2.028 . S
O226 C222 1.258 . S
O226 Zn227 2.035 . S
Zn227 O226 2.035 . S
Zn227 O228 2.028 . S
Zn227 O230 2.028 . S
Zn227 O233 2.035 . S
O228 Zn227 2.028 . S
O228 C234 1.247 . S
O229 Zn225 2.035 . S
O229 C234 1.258 . S
O230 C223 1.247 . S
O230 Zn227 2.028 . S
O231 C223 1.258 . S
O231 Zn225 2.035 . S
O232 Zn225 2.028 . S
O232 C235 1.247 . S
O233 Zn227 2.035 . S
O233 C235 1.258 . S
C234 O228 1.247 . S
C234 O229 1.258 . S
C235 O232 1.247 . S
C235 O233 1.258 . S
C236 C237 1.387 . S
C236 H240 0.950 . S
C236 C245 1.390 . S
C237 C236 1.387 . S
C237 C239 1.387 . S
H238 C245 0.950 . S
C239 C237 1.387 . S
C239 C241 1.390 . S
C239 H243 0.950 . S
H240 C236 0.950 . S
C241 C239 1.390 . S
C241 C242 1.387 . S
C241 H244 0.950 . S
C242 C241 1.387 . S
C242 C245 1.387 . S
H243 C239 0.950 . S
H244 C241 0.950 . S
C245 C236 1.390 . S
C245 H238 0.950 . S
C245 C242 1.387 . S
C246 C247 1.387 . S
C246 H250 0.950 . S
C246 C255 1.390 . S
C247 C246 1.387 . S
C247 C249 1.387 . S
H248 C255 0.950 . S
C249 C247 1.387 . S
C249 C251 1.390 . S
C249 H253 0.950 . S
H250 C246 0.950 . S
C251 C249 1.390 . S
C251 C252 1.387 . S
C251 H254 0.950 . S
C252 C251 1.387 . S
C252 C255 1.387 . S
H253 C249 0.950 . S
H254 C251 0.950 . S
C255 C246 1.390 . S
C255 H248 0.950 . S
C255 C252 1.387 . S
C256 C257 1.387 . S
C256 H260 0.950 1_655 S
C256 C265 1.398 . S
C257 C256 1.387 . S
C257 C259 1.387 . S
H258 C265 0.934 1_455 S
C259 C257 1.387 . S
C259 C261 1.390 . S
C259 H263 0.950 . S
H260 C256 0.950 1_455 S
C261 C259 1.390 . S
C261 C262 1.387 . S
C261 H264 0.950 . S
C262 C261 1.387 . S
C262 C265 1.396 . S
H263 C259 0.950 . S
H264 C261 0.950 . S
C265 C256 1.398 . S
C265 H258 0.934 1_655 S
C265 C262 1.396 . S
C266 C267 1.387 . S
C266 H270 0.950 . S
C266 C275 1.390 1_655 S
C267 C266 1.387 . S
C267 C269 1.393 1_655 S
H268 C275 0.950 . S
C269 C267 1.393 1_455 S
C269 C271 1.404 . S
C269 H273 0.931 1_556 S
H270 C266 0.950 . S
C271 C269 1.404 . S
C271 C272 1.387 . S
C271 H274 0.954 . S
C272 C271 1.387 . S
C272 C275 1.387 . S
H273 C269 0.931 1_554 S
H274 C271 0.954 . S
C275 C266 1.390 1_455 S
C275 H268 0.950 . S
C275 C272 1.387 . S
C276 C277 1.387 . S
C276 H280 0.950 . S
C276 C285 1.390 . S
C277 C276 1.387 . S
C277 C279 1.387 . S
H278 C285 0.950 . S
C279 C277 1.387 . S
C279 C281 1.390 . S
C279 H283 0.950 . S
H280 C276 0.950 . S
C281 C279 1.390 . S
C281 C282 1.387 . S
C281 H284 0.950 . S
C282 C281 1.387 . S
C282 C285 1.387 . S
H283 C279 0.950 . S
H284 C281 0.950 . S
C285 C276 1.390 . S
C285 H278 0.950 . S
C285 C282 1.387 . S
C286 C287 1.387 . S
C286 H290 0.950 . S
C286 C295 1.390 . S
C287 C286 1.387 . S
C287 C289 1.387 . S
H288 C295 0.950 . S
C289 C287 1.387 . S
C289 C291 1.390 . S
C289 H293 0.950 . S
H290 C286 0.950 . S
C291 C289 1.390 . S
C291 C292 1.387 . S
C291 H294 0.950 . S
C292 C291 1.387 . S
C292 C295 1.387 . S
H293 C289 0.950 . S
H294 C291 0.950 . S
C295 C286 1.390 . S
C295 H288 0.950 . S
C295 C292 1.387 . S
C296 C297 1.387 1_545 S
C296 H300 0.950 . S
C296 C305 1.390 . S
C297 C296 1.387 1_565 S
C297 C299 1.387 1_665 S
H298 C305 0.950 . S
C299 C297 1.387 1_445 S
C299 C301 1.390 . S
C299 H303 0.950 1_545 S
H300 C296 0.950 . S
C301 C299 1.390 . S
C301 C302 1.387 1_455 S
C301 H304 0.950 . S
C302 C301 1.387 1_655 S
C302 C305 1.387 . S
H303 C299 0.950 1_565 S
H304 C301 0.950 . S
C305 C296 1.390 . S
C305 H298 0.950 . S
C305 C302 1.387 . S
C306 C307 1.387 . S
C306 H310 0.950 . S
C306 C315 1.390 . S
C307 C306 1.387 . S
C307 C309 1.387 . S
H308 C315 0.950 . S
C309 C307 1.387 . S
C309 C311 1.390 . S
C309 H313 0.950 . S
H310 C306 0.950 . S
C311 C309 1.390 . S
C311 C312 1.387 . S
C311 H314 0.950 . S
C312 C311 1.387 . S
C312 C315 1.387 . S
H313 C309 0.950 . S
H314 C311 0.950 . S
C315 C306 1.390 . S
C315 H308 0.950 . S
C315 C312 1.387 . S
C316 C317 1.387 . S
C316 H320 0.950 . S
C316 C325 1.390 . S
C317 C316 1.387 . S
C317 C319 1.387 . S
H318 C325 0.950 . S
C319 C317 1.387 . S
C319 C321 1.390 . S
C319 H323 0.950 . S
H320 C316 0.950 . S
C321 C319 1.390 . S
C321 C322 1.387 . S
C321 H324 0.950 . S
C322 C321 1.387 . S
C322 C325 1.387 . S
H323 C319 0.950 . S
H324 C321 0.950 . S
C325 C316 1.390 . S
C325 H318 0.950 . S
C325 C322 1.387 . S
C326 C327 1.387 . S
C326 H330 0.950 . S
C326 C335 1.390 . S
C327 C326 1.387 . S
C327 C329 1.387 . S
H328 C335 0.950 . S
C329 C327 1.387 . S
C329 C331 1.390 . S
C329 H333 0.950 . S
H330 C326 0.950 . S
C331 C329 1.390 . S
C331 C332 1.387 . S
C331 H334 0.950 . S
C332 C331 1.387 . S
C332 C335 1.387 . S
H333 C329 0.950 . S
H334 C331 0.950 . S
C335 C326 1.390 . S
C335 H328 0.950 . S
C335 C332 1.387 . S
C336 C337 1.387 . S
C336 H340 0.950 . S
C336 C345 1.390 1_655 S
C337 C336 1.387 . S
C337 C339 1.387 . S
H338 C345 0.950 . S
C339 C337 1.387 . S
C339 C341 1.390 . S
C339 H343 0.950 . S
H340 C336 0.950 . S
C341 C339 1.390 . S
C341 C342 1.387 . S
C341 H344 0.950 . S
C342 C341 1.387 . S
C342 C345 1.387 1_655 S
H343 C339 0.950 . S
H344 C341 0.950 . S
C345 C336 1.390 1_455 S
C345 H338 0.950 . S
C345 C342 1.387 1_455 S
C346 C347 1.387 . S
C346 H350 0.950 . S
C346 C355 1.390 . S
C347 C346 1.387 . S
C347 C349 1.387 . S
H348 C355 0.950 . S
C349 C347 1.387 . S
C349 C351 1.390 . S
C349 H353 0.950 . S
H350 C346 0.950 . S
C351 C349 1.390 . S
C351 C352 1.387 . S
C351 H354 0.950 . S
C352 C351 1.387 . S
C352 C355 1.387 . S
H353 C349 0.950 . S
H354 C351 0.950 . S
C355 C346 1.390 . S
C355 H348 0.950 . S
C355 C352 1.387 . S
C356 C357 1.387 . S
C356 H360 0.950 . S
C356 C365 1.390 . S
C357 C356 1.387 . S
C357 C359 1.387 . S
H358 C365 0.950 . S
C359 C357 1.387 . S
C359 C361 1.390 . S
C359 H363 0.950 . S
H360 C356 0.950 . S
C361 C359 1.390 . S
C361 C362 1.387 . S
C361 H364 0.950 . S
C362 C361 1.387 . S
C362 C365 1.387 . S
H363 C359 0.950 . S
H364 C361 0.950 . S
C365 C356 1.390 . S
C365 H358 0.950 . S
C365 C362 1.387 . S
C366 C367 1.387 . S
C366 H370 0.950 . S
C366 C375 1.390 . S
C367 C366 1.387 . S
C367 C369 1.387 . S
H368 C375 0.950 . S
C369 C367 1.387 . S
C369 C371 1.390 . S
C369 H373 0.950 . S
H370 C366 0.950 . S
C371 C369 1.390 . S
C371 C372 1.387 . S
C371 H374 0.950 . S
C372 C371 1.387 . S
C372 C375 1.387 . S
H373 C369 0.950 . S
H374 C371 0.950 . S
C375 C366 1.390 . S
C375 H368 0.950 . S
C375 C372 1.387 . S
C376 C377 1.387 . S
C376 H380 0.950 . S
C376 C385 1.390 . S
C377 C376 1.387 . S
C377 C379 1.387 . S
H378 C385 0.950 . S
C379 C377 1.387 . S
C379 C381 1.390 . S
C379 H383 0.950 . S
H380 C376 0.950 . S
C381 C379 1.390 . S
C381 C382 1.387 . S
C381 H384 0.950 . S
C382 C381 1.387 . S
C382 C385 1.387 . S
H383 C379 0.950 . S
H384 C381 0.950 . S
C385 C376 1.390 . S
C385 H378 0.950 . S
C385 C382 1.387 . S
C386 C387 1.387 . S
C386 H390 0.950 . S
C386 C395 1.390 . S
C387 C386 1.387 . S
C387 C389 1.387 . S
H388 C395 0.950 . S
C389 C387 1.387 . S
C389 C391 1.390 . S
C389 H393 0.950 . S
H390 C386 0.950 . S
C391 C389 1.390 . S
C391 C392 1.387 . S
C391 H394 0.950 . S
C392 C391 1.387 . S
C392 C395 1.387 . S
H393 C389 0.950 . S
H394 C391 0.950 . S
C395 C386 1.390 . S
C395 H388 0.950 . S
C395 C392 1.387 . S
C396 C397 1.387 1_545 S
C396 H400 0.950 1_545 S
C396 C405 1.390 . S
C397 C396 1.387 1_565 S
C397 C399 1.389 1_455 S
H398 C405 0.950 . S
C399 C397 1.389 1_655 S
C399 C401 1.388 1_565 S
C399 H403 0.950 . S
H400 C396 0.950 1_565 S
C401 C399 1.388 1_545 S
C401 C402 1.387 1_655 S
C401 H404 0.950 . S
C402 C401 1.387 1_455 S
C402 C405 1.387 . S
H403 C399 0.950 . S
H404 C401 0.950 . S
C405 C396 1.390 . S
C405 H398 0.950 . S
C405 C402 1.387 . S
C406 C407 1.387 . S
C406 H410 0.950 . S
C406 C415 1.390 . S
C407 C406 1.387 . S
C407 C409 1.387 . S
H408 C415 0.950 . S
C409 C407 1.387 . S
C409 C411 1.390 . S
C409 H413 0.950 . S
H410 C406 0.950 . S
C411 C409 1.390 . S
C411 C412 1.387 . S
C411 H414 0.950 . S
C412 C411 1.387 . S
C412 C415 1.387 . S
H413 C409 0.950 . S
H414 C411 0.950 . S
C415 C406 1.390 . S
C415 H408 0.950 . S
C415 C412 1.387 . S
C416 C417 1.387 . S
C416 H420 0.950 . S
C416 C425 1.390 . S
C417 C416 1.387 . S
C417 C419 1.387 . S
H418 C425 0.950 . S
C419 C417 1.387 . S
C419 C421 1.390 . S
C419 H423 0.950 . S
H420 C416 0.950 . S
C421 C419 1.390 . S
C421 C422 1.387 . S
C421 H424 0.950 . S
C422 C421 1.387 . S
C422 C425 1.387 . S
H423 C419 0.950 . S
H424 C421 0.950 . S
C425 C416 1.390 . S
C425 H418 0.950 . S
C425 C422 1.387 . S
C426 C427 1.387 . S
C426 H430 0.950 . S
C426 C435 1.390 . S
C427 C426 1.387 . S
C427 C429 1.387 . S
H428 C435 0.950 1_556 S
C429 C427 1.387 . S
C429 C431 1.390 . S
C429 H433 0.950 . S
H430 C426 0.950 . S
C431 C429 1.390 . S
C431 C432 1.387 . S
C431 H434 0.950 . S
C432 C431 1.387 . S
C432 C435 1.387 . S
H433 C429 0.950 . S
H434 C431 0.950 . S
C435 C426 1.390 . S
C435 H428 0.950 1_554 S
C435 C432 1.387 . S
C436 C437 1.387 . S
C436 H440 0.950 . S
C436 C445 1.390 . S
C437 C436 1.387 . S
C437 C439 1.387 . S
H438 C445 0.950 . S
C439 C437 1.387 . S
C439 C441 1.390 . S
C439 H443 0.950 . S
H440 C436 0.950 . S
C441 C439 1.390 . S
C441 C442 1.387 . S
C441 H444 0.950 . S
C442 C441 1.387 . S
C442 C445 1.387 . S
H443 C439 0.950 . S
H444 C441 0.950 . S
C445 C436 1.390 . S
C445 H438 0.950 . S
C445 C442 1.387 . S
C446 C447 1.387 . S
C446 H450 0.950 . S
C446 C455 1.390 . S
C447 C446 1.387 . S
C447 C449 1.387 . S
H448 C455 0.950 . S
C449 C447 1.387 . S
C449 C451 1.390 . S
C449 H453 0.950 . S
H450 C446 0.950 . S
C451 C449 1.390 . S
C451 C452 1.387 . S
C451 H454 0.950 . S
C452 C451 1.387 . S
C452 C455 1.387 . S
H453 C449 0.950 . S
H454 C451 0.950 . S
C455 C446 1.390 . S
C455 H448 0.950 . S
C455 C452 1.387 . S
C456 C457 1.387 . S
C456 H460 0.950 . S
C456 C465 1.390 . S
C457 C456 1.387 . S
C457 C459 1.387 . S
H458 C465 0.950 . S
C459 C457 1.387 . S
C459 C461 1.390 . S
C459 H463 0.950 . S
H460 C456 0.950 . S
C461 C459 1.390 . S
C461 C462 1.387 . S
C461 H464 0.950 . S
C462 C461 1.387 . S
C462 C465 1.387 . S
H463 C459 0.950 . S
H464 C461 0.950 . S
C465 C456 1.390 . S
C465 H458 0.950 . S
C465 C462 1.387 . S
C466 C467 1.387 . S
C466 H470 0.950 1_556 S
C466 C475 1.390 . S
C467 C466 1.387 . S
C467 C469 1.387 . S
H468 C475 0.950 1_554 S
C469 C467 1.387 . S
C469 C471 1.390 . S
C469 H473 0.950 . S
H470 C466 0.950 1_554 S
C471 C469 1.390 . S
C471 C472 1.387 . S
C471 H474 0.950 . S
C472 C471 1.387 . S
C472 C475 1.387 . S
H473 C469 0.950 . S
H474 C471 0.950 . S
C475 C466 1.390 . S
C475 H468 0.950 1_556 S
C475 C472 1.387 . S
C242 C164 1.505 . S
C237 C11 1.365 . S
C252 C167 1.738 . S
C247 C25 1.695 . S
C262 C165 1.335 . S
C257 C40 1.271 . S
C272 C166 1.393 . S
C267 C59 1.323 . S
C282 C181 1.776 . S
C277 C6 1.764 . S
C292 C195 1.803 . S
C287 C21 1.752 . S
C297 C49 1.500 . S
C302 C221 1.575 1_655 S
C312 C235 1.536 . S
C307 C68 1.437 . S
C322 C180 1.749 . S
C317 C30 1.527 . S
C327 C44 1.623 . S
C332 C194 1.617 . S
C342 C220 1.606 . S
C337 C63 1.604 . S
C352 C234 1.681 . S
C347 C2 1.672 . S
C357 C78 1.716 1_455 S
C362 C179 1.728 . S
C372 C152 1.671 . S
C367 C97 1.575 . S
C377 C120 1.601 . S
C382 C178 1.615 . S
C387 C139 1.584 . S
C392 C153 1.590 . S
C402 C208 1.496 . S
C397 C87 1.406 1_455 S
C412 C222 1.604 . S
C407 C101 1.551 . S
C422 C192 1.590 . S
C417 C125 1.478 . S
C427 C144 1.649 . S
C432 C206 1.690 . S
C442 C209 1.745 . S
C437 C106 1.509 . S
C452 C223 1.603 1_556 S
C447 C116 1.579 . S
C462 C193 1.670 . S
C457 C135 1.655 . S
C467 C82 1.799 . S
C472 C207 1.781 . S
