# Generated by pormake.
# Topology hwx, (6,3)-cn, num edge types: 1
# Building blocks:
#     Node 0, Type 0, BuildingBlock: IZENUY_clean_sbu_0, # of connection points: 6
#     Node 1, Type 0, BuildingBlock: IZENUY_clean_sbu_0, # of connection points: 6
#     Node 2, Type 0, BuildingBlock: IZENUY_clean_sbu_0, # of connection points: 6
#     Node 3, Type 0, BuildingBlock: IZENUY_clean_sbu_0, # of connection points: 6
#     Node 4, Type 1, BuildingBlock: BETDAH_clean_linker_0, # of connection points: 3
#     Node 5, Type 1, BuildingBlock: BETDAH_clean_linker_0, # of connection points: 3
#     Node 6, Type 1, BuildingBlock: BETDAH_clean_linker_0, # of connection points: 3
#     Node 7, Type 1, BuildingBlock: BETDAH_clean_linker_0, # of connection points: 3
#     Node 8, Type 1, BuildingBlock: BETDAH_clean_linker_0, # of connection points: 3
#     Node 9, Type 1, BuildingBlock: BETDAH_clean_linker_0, # of connection points: 3
#     Node 10, Type 1, BuildingBlock: BETDAH_clean_linker_0, # of connection points: 3
#     Node 11, Type 1, BuildingBlock: BETDAH_clean_linker_0, # of connection points: 3
#     Edge 12, Type (0, 1), BuildingBlock: KIFKEQ_clean_linker_1, # of connection points: 2
#     Edge 13, Type (0, 1), BuildingBlock: KIFKEQ_clean_linker_1, # of connection points: 2
#     Edge 14, Type (0, 1), BuildingBlock: KIFKEQ_clean_linker_1, # of connection points: 2
#     Edge 15, Type (0, 1), BuildingBlock: KIFKEQ_clean_linker_1, # of connection points: 2
#     Edge 16, Type (0, 1), BuildingBlock: KIFKEQ_clean_linker_1, # of connection points: 2
#     Edge 17, Type (0, 1), BuildingBlock: KIFKEQ_clean_linker_1, # of connection points: 2
#     Edge 18, Type (0, 1), BuildingBlock: KIFKEQ_clean_linker_1, # of connection points: 2
#     Edge 19, Type (0, 1), BuildingBlock: KIFKEQ_clean_linker_1, # of connection points: 2
#     Edge 20, Type (0, 1), BuildingBlock: KIFKEQ_clean_linker_1, # of connection points: 2
#     Edge 21, Type (0, 1), BuildingBlock: KIFKEQ_clean_linker_1, # of connection points: 2
#     Edge 22, Type (0, 1), BuildingBlock: KIFKEQ_clean_linker_1, # of connection points: 2
#     Edge 23, Type (0, 1), BuildingBlock: KIFKEQ_clean_linker_1, # of connection points: 2
#     Edge 24, Type (0, 1), BuildingBlock: KIFKEQ_clean_linker_1, # of connection points: 2
#     Edge 25, Type (0, 1), BuildingBlock: KIFKEQ_clean_linker_1, # of connection points: 2
#     Edge 26, Type (0, 1), BuildingBlock: KIFKEQ_clean_linker_1, # of connection points: 2
#     Edge 27, Type (0, 1), BuildingBlock: KIFKEQ_clean_linker_1, # of connection points: 2
#     Edge 28, Type (0, 1), BuildingBlock: KIFKEQ_clean_linker_1, # of connection points: 2
#     Edge 29, Type (0, 1), BuildingBlock: KIFKEQ_clean_linker_1, # of connection points: 2
#     Edge 30, Type (0, 1), BuildingBlock: KIFKEQ_clean_linker_1, # of connection points: 2
#     Edge 31, Type (0, 1), BuildingBlock: KIFKEQ_clean_linker_1, # of connection points: 2
#     Edge 32, Type (0, 1), BuildingBlock: KIFKEQ_clean_linker_1, # of connection points: 2
#     Edge 33, Type (0, 1), BuildingBlock: KIFKEQ_clean_linker_1, # of connection points: 2
#     Edge 34, Type (0, 1), BuildingBlock: KIFKEQ_clean_linker_1, # of connection points: 2
#     Edge 35, Type (0, 1), BuildingBlock: KIFKEQ_clean_linker_1, # of connection points: 2
# Relax obj value: 0.003
# Max RMSD: 0.060
# Mean RMSD: 0.048
data_MOF--net-hwx--node1-IZENUY_clean_sbu_0--node2-BETDAH_clean_linker_0--edge1-KIFKEQ_clean_linker_1
_symmetry_space_group_name_H-M    P1
_symmetry_Int_Tables_number       1
_symmetry_cell_setting            triclinic
loop_
_symmetry_equiv_pos_as_xyz
'x, y, z'
_cell_length_a     51.961482
_cell_length_b     51.891971
_cell_length_c     21.155819
_cell_angle_alpha  92.1596
_cell_angle_beta   92.161355
_cell_angle_gamma 90.051621
loop_
_atom_site_label
_atom_site_type_symbol
_atom_site_fract_x
_atom_site_fract_y
_atom_site_fract_z
_atom_type_partial_charge
Fe0 Fe 0.24307 0.24444 0.08877 0.0
Fe1 Fe 0.24279 0.24313 0.94341 0.0
O2 O 0.23057 0.23201 0.01458 0.0
Fe3 Fe 0.20568 0.20851 0.0113 0.0
O4 O 0.19052 0.22044 0.0835 0.0
O5 O 0.2116 0.25598 0.11145 0.0
O6 O 0.24914 0.27698 0.06121 0.0
C7 C 0.24039 0.28859 0.01337 0.0
C8 C 0.23634 0.191 0.10832 0.0
O9 O 0.23352 0.27615 0.96307 0.0
C10 C 0.23792 0.19169 0.9126 0.0
O11 O 0.27548 0.23394 0.0719 0.0
O12 O 0.27576 0.24854 0.97582 0.0
O13 O 0.22549 0.18605 0.0549 0.0
O14 O 0.23931 0.21406 0.12939 0.0
C15 C 0.18904 0.23849 0.91497 0.0
O16 O 0.25289 0.21086 0.91902 0.0
O17 O 0.2163 0.19204 0.93839 0.0
C18 C 0.2876 0.24003 0.02413 0.0
O19 O 0.21208 0.23972 0.89763 0.0
O20 O 0.18403 0.22944 0.96759 0.0
C21 C 0.19171 0.24211 0.11292 0.0
Fe22 Fe 0.26843 0.74715 0.56381 0.0
Fe23 Fe 0.30355 0.70934 0.49315 0.0
O24 O 0.28031 0.73431 0.4918 0.0
Fe25 Fe 0.269 0.74644 0.41865 0.0
O26 O 0.2648 0.77981 0.44992 0.0
O27 O 0.2801 0.77905 0.54818 0.0
O28 O 0.2986 0.74237 0.61029 0.0
C29 C 0.32161 0.73943 0.59356 0.0
C30 C 0.22397 0.74514 0.48165 0.0
O31 O 0.32631 0.72942 0.54001 0.0
C32 C 0.27245 0.6923 0.39312 0.0
O33 O 0.25606 0.71605 0.58436 0.0
O34 O 0.29135 0.6945 0.56367 0.0
O35 O 0.23602 0.7378 0.43362 0.0
O36 O 0.23601 0.75423 0.53076 0.0
C37 C 0.32024 0.74086 0.39587 0.0
O38 O 0.28245 0.68762 0.44665 0.0
O39 O 0.2712 0.71524 0.37438 0.0
C40 C 0.26965 0.69604 0.58895 0.0
O41 O 0.31992 0.71946 0.4227 0.0
O42 O 0.30121 0.75588 0.39842 0.0
C43 C 0.27427 0.79137 0.49944 0.0
Fe44 Fe 0.76771 0.77741 0.93881 0.0
Fe45 Fe 0.77033 0.77667 0.08419 0.0
O46 O 0.78128 0.78891 0.0128 0.0
Fe47 Fe 0.80592 0.81265 0.015 0.0
O48 O 0.79375 0.82864 0.94399 0.0
O49 O 0.75684 0.80953 0.91888 0.0
O50 O 0.73541 0.77164 0.96798 0.0
C51 C 0.72445 0.78049 0.01662 0.0
C52 C 0.82082 0.78244 0.91484 0.0
O53 O 0.73749 0.7868 0.0663 0.0
C54 C 0.82227 0.77976 0.11254 0.0
O55 O 0.77776 0.7446 0.95363 0.0
O56 O 0.76417 0.74386 0.0508 0.0
O57 O 0.82685 0.79171 0.96936 0.0
O58 O 0.79745 0.78103 0.89573 0.0
C59 C 0.7769 0.83036 0.11272 0.0
O60 O 0.80244 0.76564 0.10778 0.0
O61 O 0.8226 0.80126 0.08638 0.0
C62 C 0.77216 0.73222 0.00151 0.0
O63 O 0.77444 0.80736 0.12996 0.0
O64 O 0.78677 0.83514 0.06085 0.0
C65 C 0.77167 0.82875 0.91653 0.0
Fe66 Fe 0.70917 0.31077 0.51632 0.0
Fe67 Fe 0.74823 0.27801 0.59009 0.0
O68 O 0.73375 0.2871 0.517 0.0
Fe69 Fe 0.74387 0.27259 0.44477 0.0
O70 O 0.73861 0.30154 0.39856 0.0
O71 O 0.7279 0.33165 0.46861 0.0
O72 O 0.72217 0.32918 0.586 0.0
C73 C 0.74447 0.33018 0.61224 0.0
C74 C 0.69172 0.27436 0.42071 0.0
O75 O 0.75919 0.31082 0.60959 0.0
C76 C 0.74307 0.23085 0.5276 0.0
O77 O 0.68878 0.29151 0.56405 0.0
O78 O 0.71903 0.28264 0.63519 0.0
O79 O 0.71168 0.26054 0.42379 0.0
O80 O 0.69151 0.29674 0.44661 0.0
C81 C 0.7904 0.27918 0.50913 0.0
O82 O 0.73815 0.24474 0.57589 0.0
O83 O 0.75079 0.24092 0.47797 0.0
C84 C 0.69548 0.28337 0.61762 0.0
O85 O 0.78011 0.2716 0.55845 0.0
O86 O 0.77678 0.28371 0.46015 0.0
C87 C 0.73653 0.32512 0.41544 0.0
H88 H 0.23673 0.59705 0.99828 0.0
H89 H 0.25718 0.5233 0.07183 0.0
H90 H 0.26416 0.53644 0.87417 0.0
C91 C 0.24308 0.57735 0.99042 0.0
C92 C 0.24961 0.56879 0.92938 0.0
C93 C 0.24619 0.56139 0.04237 0.0
C94 C 0.25432 0.53571 0.03214 0.0
C95 C 0.26007 0.52662 0.97073 0.0
C96 C 0.25823 0.54334 0.92034 0.0
N97 N 0.2702 0.50165 0.9586 0.0
C98 C 0.26211 0.47938 0.98654 0.0
H99 H 0.91963 0.76276 0.51056 0.0
H100 H 0.98674 0.73028 0.42568 0.0
H101 H 0.98092 0.7323 0.62799 0.0
C102 C 0.93866 0.75439 0.51583 0.0
C103 C 0.94876 0.74907 0.57643 0.0
C104 C 0.9521 0.74772 0.46133 0.0
C105 C 0.97636 0.73587 0.46748 0.0
C106 C 0.98675 0.73051 0.52797 0.0
C107 C 0.97277 0.73678 0.58181 0.0
N108 N 0.01022 0.71694 0.53591 0.0
C109 C 0.03312 0.72413 0.50952 0.0
H110 H 0.75848 0.42517 0.01074 0.0
H111 H 0.78809 0.49548 0.94013 0.0
H112 H 0.78478 0.48623 0.14078 0.0
C113 C 0.76586 0.44456 0.01983 0.0
C114 C 0.77016 0.45394 0.08246 0.0
C115 C 0.77222 0.45929 0.96837 0.0
C116 C 0.78276 0.48411 0.97953 0.0
C117 C 0.78712 0.4938 0.04209 0.0
C118 C 0.78114 0.47856 0.09294 0.0
N119 N 0.79936 0.5179 0.0557 0.0
C120 C 0.79251 0.54073 0.02711 0.0
H121 H 0.09238 0.26003 0.51112 0.0
H122 H 0.02789 0.2939 0.60575 0.0
H123 H 0.03555 0.3026 0.40609 0.0
C124 C 0.07422 0.27029 0.50948 0.0
C125 C 0.06514 0.27985 0.45171 0.0
C126 C 0.06115 0.27526 0.56563 0.0
C127 C 0.03815 0.28959 0.563 0.0
C128 C 0.02884 0.29918 0.50522 0.0
C129 C 0.04259 0.29467 0.45014 0.0
N130 N 1.00708 0.31554 0.50294 0.0
C131 C 0.98219 0.30651 0.5095 0.0
H132 H 0.7569 0.92832 0.51607 0.0
H133 H 0.71996 0.99095 0.4211 0.0
H134 H 0.71761 0.98736 0.62335 0.0
C135 C 0.74675 0.94657 0.51831 0.0
C136 C 0.73862 0.95655 0.57686 0.0
C137 C 0.74002 0.95871 0.46191 0.0
C138 C 0.72581 0.98173 0.46445 0.0
C139 C 0.71837 0.99242 0.52289 0.0
C140 C 0.72438 0.97958 0.57873 0.0
N141 N 0.70192 0.01412 0.52486 0.0
C142 C 0.71117 0.03928 0.52604 0.0
H143 H 0.59667 0.24858 0.02577 0.0
H144 H 0.52194 0.26264 0.10098 0.0
H145 H 0.53427 0.27396 0.90427 0.0
C146 C 0.57655 0.25358 0.01843 0.0
C147 C 0.56744 0.26069 0.9583 0.0
C148 C 0.56044 0.25444 0.07025 0.0
C149 C 0.53437 0.26123 0.06101 0.0
C150 C 0.52485 0.26764 1.00043 0.0
C151 C 0.54151 0.2677 0.94989 0.0
N152 N 0.49946 0.27689 0.98998 0.0
C153 C 0.47756 0.266 0.01378 0.0
H154 H 0.25483 0.09243 0.50227 0.0
H155 H 0.29368 0.03183 0.60164 0.0
H156 H 0.29593 0.03372 0.39913 0.0
C157 C 0.26552 0.07449 0.50173 0.0
C158 C 0.27378 0.06402 0.44387 0.0
C159 C 0.27282 0.0633 0.55915 0.0
C160 C 0.2876 0.04058 0.55783 0.0
C161 C 0.29541 0.02962 0.49995 0.0
C162 C 0.28894 0.04167 0.44338 0.0
N163 N 0.31233 1.0083 0.4988 0.0
C164 C 0.30382 0.9832 0.50554 0.0
H165 H 0.42076 0.75458 0.00338 0.0
H166 H 0.4844 0.78892 0.91201 0.0
H167 H 0.47982 0.79515 0.11432 0.0
C168 C 0.43918 0.76447 0.0061 0.0
C169 C 0.44923 0.77322 0.06555 0.0
C170 C 0.4515 0.76998 0.95009 0.0
C171 C 0.47473 0.78408 0.95448 0.0
C172 C 0.48505 0.79284 0.01381 0.0
C173 C 0.4721 0.7877 0.06894 0.0
N174 N 0.5066 0.80959 0.01791 0.0
C175 C 0.53172 0.80085 0.01247 0.0
H176 H 0.14711 0.21591 0.13027 0.0
H177 H 0.1884 0.2854 0.19119 0.0
H178 H 0.11394 0.2262 0.20521 0.0
H179 H 0.15515 0.29551 0.26693 0.0
H180 H 0.08015 0.31473 0.36618 0.0
H181 H 0.1087 0.30706 0.27775 0.0
H182 H 0.11312 0.22647 0.32131 0.0
H183 H 0.08445 0.23409 0.40853 0.0
C184 C 0.14909 0.23347 0.1594 0.0
C185 C 0.17063 0.24967 0.15519 0.0
C186 C 0.13007 0.23931 0.2025 0.0
C187 C 0.13204 0.26153 0.24237 0.0
C188 C 0.15301 0.27832 0.23652 0.0
C189 C 0.17214 0.27243 0.19341 0.0
C190 C 0.08689 0.29533 0.35595 0.0
C191 C 0.08015 0.275 0.3942 0.0
C192 C 0.10341 0.29099 0.30584 0.0
C193 C 0.11321 0.26618 0.29267 0.0
C194 C 0.10571 0.24575 0.32976 0.0
C195 C 0.08944 0.25013 0.37999 0.0
H196 H 0.23682 0.70065 0.68666 0.0
H197 H 0.28603 0.64614 0.59013 0.0
H198 H 0.2289 0.66895 0.76636 0.0
H199 H 0.2777 0.61437 0.66948 0.0
H200 H 0.23692 0.55872 0.80317 0.0
H201 H 0.23877 0.58844 0.71632 0.0
H202 H 0.2625 0.64985 0.8489 0.0
H203 H 0.26214 0.62023 0.93499 0.0
C204 C 0.24555 0.68176 0.68178 0.0
C205 C 0.26223 0.67594 0.63247 0.0
C206 C 0.24108 0.6637 0.72749 0.0
C207 C 0.25278 0.63933 0.724 0.0
C208 C 0.26836 0.633 0.67294 0.0
C209 C 0.27322 0.65122 0.62785 0.0
C210 C 0.24272 0.57849 0.81385 0.0
C211 C 0.24925 0.58699 0.87644 0.0
C212 C 0.24359 0.5955 0.76415 0.0
C213 C 0.25053 0.62141 0.77622 0.0
C214 C 0.25662 0.63005 0.83858 0.0
C215 C 0.25625 0.61302 0.88798 0.0
H216 H 0.8673 0.80634 0.13368 0.0
H217 H 0.82796 0.7374 0.18656 0.0
H218 H 0.9025 0.79738 0.2085 0.0
H219 H 0.86336 0.72858 0.26221 0.0
H220 H 0.93954 0.7118 0.36754 0.0
H221 H 0.91049 0.71778 0.27494 0.0
H222 H 0.90568 0.79907 0.32499 0.0
H223 H 0.93454 0.79298 0.41677 0.0
C224 C 0.86617 0.78916 0.16098 0.0
C225 C 0.84454 0.77278 0.15461 0.0
C226 C 0.88641 0.78406 0.20397 0.0
C227 C 0.88566 0.76239 0.24166 0.0
C228 C 0.86461 0.74535 0.23348 0.0
C229 C 0.84423 0.7505 0.19046 0.0
C230 C 0.9328 0.73101 0.35741 0.0
C231 C 0.93934 0.75198 0.39883 0.0
C232 C 0.91595 0.73439 0.30502 0.0
C233 C 0.90566 0.75887 0.29283 0.0
C234 C 0.91342 0.78002 0.33258 0.0
C235 C 0.92995 0.77657 0.38514 0.0
H236 H 0.78679 0.33715 0.69367 0.0
H237 H 0.71801 0.37535 0.62442 0.0
H238 H 0.79483 0.37297 0.77039 0.0
H239 H 0.72622 0.41102 0.70034 0.0
H240 H 0.72783 0.44183 0.91077 0.0
H241 H 0.72317 0.41377 0.81598 0.0
H242 H 0.80481 0.42014 0.78772 0.0
H243 H 0.80933 0.44841 0.88335 0.0
C244 C 0.77363 0.35332 0.69405 0.0
C245 C 0.75152 0.35311 0.65355 0.0
C246 C 0.77832 0.37394 0.73777 0.0
C247 C 0.761 0.39474 0.74189 0.0
C248 C 0.7397 0.39511 0.69908 0.0
C249 C 0.73504 0.37461 0.65547 0.0
C250 C 0.74461 0.43782 0.88317 0.0
C251 C 0.76887 0.44738 0.90388 0.0
C252 C 0.742 0.42175 0.82889 0.0
C253 C 0.76366 0.4146 0.7944 0.0
C254 C 0.78781 0.42514 0.81357 0.0
C255 C 0.79036 0.44154 0.86771 0.0
H256 H 0.69126 0.24157 0.31629 0.0
H257 H 0.64168 0.28869 0.43174 0.0
H258 H 0.65562 0.23311 0.24046 0.0
H259 H 0.60549 0.27911 0.35807 0.0
H260 H 0.56151 0.29018 0.16705 0.0
H261 H 0.59084 0.29145 0.25937 0.0
H262 H 0.61644 0.21421 0.20993 0.0
H263 H 0.58793 0.21384 0.11544 0.0
C264 C 0.67253 0.24957 0.32624 0.0
C265 C 0.66934 0.26605 0.37948 0.0
C266 C 0.65193 0.2446 0.28291 0.0
C267 C 0.62749 0.25559 0.29242 0.0
C268 C 0.62407 0.27082 0.34796 0.0
C269 C 0.64479 0.27619 0.39054 0.0
C270 C 0.57284 0.27321 0.17717 0.0
C271 C 0.57248 0.25193 0.13431 0.0
C272 C 0.58977 0.27387 0.23022 0.0
C273 C 0.6065 0.25306 0.2421 0.0
C274 C 0.60447 0.2309 0.20166 0.0
C275 C 0.58785 0.23046 0.14799 0.0
H276 H 0.20799 0.14966 0.87877 0.0
H277 H 0.28178 0.18423 0.84578 0.0
H278 H 0.2166 0.11535 0.80078 0.0
H279 H 0.29022 0.14993 0.76714 0.0
H280 H 0.30589 0.07449 0.66002 0.0
H281 H 0.29811 0.10298 0.7521 0.0
H282 H 0.21932 0.11292 0.68505 0.0
H283 H 0.22702 0.08417 0.59388 0.0
C284 C 0.22613 0.14991 0.85518 0.0
C285 C 0.2441 0.1699 0.86822 0.0
C286 C 0.231 0.13024 0.81028 0.0
C287 C 0.25402 0.12996 0.7775 0.0
C288 C 0.27239 0.14944 0.792 0.0
C289 C 0.26747 0.16922 0.83678 0.0
C290 C 0.28676 0.08227 0.66589 0.0
C291 C 0.26706 0.07713 0.61974 0.0
C292 C 0.28239 0.09883 0.71817 0.0
C293 C 0.25816 0.11039 0.72565 0.0
C294 C 0.23815 0.10422 0.68101 0.0
C295 C 0.24258 0.08785 0.62859 0.0
H296 H 0.32725 0.78411 0.3277 0.0
H297 H 0.36258 0.71127 0.37215 0.0
H298 H 0.36142 0.7923 0.25497 0.0
H299 H 0.39682 0.71968 0.30014 0.0
H300 H 0.4281 0.72791 0.09917 0.0
H301 H 0.39917 0.72103 0.18499 0.0
H302 H 0.40806 0.80088 0.2474 0.0
H303 H 0.43673 0.80786 0.16035 0.0
C304 C 0.34241 0.76996 0.32249 0.0
C305 C 0.34197 0.74689 0.35528 0.0
C306 C 0.36211 0.77475 0.28113 0.0
C307 C 0.38177 0.75657 0.27152 0.0
C308 C 0.38177 0.73391 0.30584 0.0
C309 C 0.36215 0.72914 0.34729 0.0
C310 C 0.42407 0.74393 0.13162 0.0
C311 C 0.43457 0.76844 0.1229 0.0
C312 C 0.40764 0.73996 0.18108 0.0
C313 C 0.40121 0.76045 0.2229 0.0
C314 C 0.41244 0.78479 0.21555 0.0
C315 C 0.42906 0.78872 0.16619 0.0
H316 H 0.72797 0.83463 0.84078 0.0
H317 H 0.8004 0.87151 0.89635 0.0
H318 H 0.71943 0.86813 0.76451 0.0
H319 H 0.79171 0.90487 0.82085 0.0
H320 H 0.78362 0.93449 0.61727 0.0
H321 H 0.79031 0.9055 0.70444 0.0
H322 H 0.7109 0.91527 0.75365 0.0
H323 H 0.70412 0.94409 0.6655 0.0
C324 C 0.74192 0.84998 0.83731 0.0
C325 C 0.76501 0.85015 0.87425 0.0
C326 C 0.73696 0.86926 0.79384 0.0
C327 C 0.75501 0.88903 0.78627 0.0
C328 C 0.77762 0.88968 0.82483 0.0
C329 C 0.78252 0.87055 0.86832 0.0
C330 C 0.76767 0.93063 0.64709 0.0
C331 C 0.74336 0.94155 0.63457 0.0
C332 C 0.77152 0.91415 0.69725 0.0
C333 C 0.7511 0.90803 0.73589 0.0
C334 C 0.72693 0.91945 0.72438 0.0
C335 C 0.72313 0.93616 0.67442 0.0
H336 H 0.81543 0.77951 0.78643 0.0
H337 H 0.87217 0.77303 0.93977 0.0
H338 H 0.84883 0.77247 0.71005 0.0
H339 H 0.9057 0.7655 0.86233 0.0
H340 H 0.94338 0.72068 0.68257 0.0
H341 H 0.91445 0.7293 0.76952 0.0
H342 H 0.88986 0.7998 0.68425 0.0
H343 H 0.91938 0.79195 0.59888 0.0
C344 C 0.835 0.77638 0.8039 0.0
C345 C 0.84117 0.77688 0.86921 0.0
C346 C 0.85413 0.77252 0.76009 0.0
C347 C 0.87979 0.76865 0.78045 0.0
C348 C 0.88601 0.76846 0.84562 0.0
C349 C 0.86687 0.77282 0.88973 0.0
C350 C 0.93232 0.73835 0.68311 0.0
C351 C 0.93347 0.75543 0.6331 0.0
C352 C 0.91571 0.7432 0.73281 0.0
C353 C 0.89977 0.76502 0.73294 0.0
C354 C 0.90171 0.78263 0.68462 0.0
C355 C 0.91851 0.77802 0.63559 0.0
H356 H 0.73931 0.31862 0.28744 0.0
H357 H 0.74527 0.3768 0.43897 0.0
H358 H 0.74657 0.35144 0.21058 0.0
H359 H 0.7529 0.40969 0.36144 0.0
H360 H 0.79727 0.44884 0.19575 0.0
H361 H 0.78852 0.41918 0.27948 0.0
H362 H 0.72088 0.39135 0.1736 0.0
H363 H 0.72884 0.42157 0.09116 0.0
C364 C 0.7423 0.33839 0.30442 0.0
C365 C 0.74165 0.34512 0.36934 0.0
C366 C 0.7463 0.35719 0.26031 0.0
C367 C 0.75015 0.38308 0.28011 0.0
C368 C 0.75002 0.38983 0.34504 0.0
C369 C 0.74556 0.37105 0.38925 0.0
C370 C 0.78021 0.43684 0.19085 0.0
C371 C 0.76394 0.43746 0.13615 0.0
C372 C 0.77529 0.41978 0.23874 0.0
C373 C 0.7542 0.40281 0.23256 0.0
C374 C 0.73752 0.40395 0.17902 0.0
C375 C 0.74219 0.4212 0.13168 0.0
H376 H 0.19136 0.23964 0.78689 0.0
H377 H 0.13855 0.24968 0.93885 0.0
H378 H 0.1563 0.24668 0.70987 0.0
H379 H 0.10334 0.25732 0.86083 0.0
H380 H 0.06621 0.30328 0.67827 0.0
H381 H 0.09451 0.29345 0.76956 0.0
H382 H 0.11298 0.21999 0.68057 0.0
H383 H 0.0842 0.22927 0.59056 0.0
C384 C 0.1723 0.24355 0.80394 0.0
C385 C 0.16773 0.24406 0.86902 0.0
C386 C 0.1522 0.2474 0.75976 0.0
C387 C 0.12713 0.2523 0.77952 0.0
C388 C 0.12252 0.25349 0.84455 0.0
C389 C 0.14262 0.24909 0.88898 0.0
C390 C 0.07559 0.28466 0.67919 0.0
C391 C 0.0733 0.26723 0.62664 0.0
C392 C 0.09186 0.27912 0.7313 0.0
C393 C 0.1062 0.25618 0.73135 0.0
C394 C 0.10241 0.23798 0.68113 0.0
C395 C 0.08597 0.24334 0.62964 0.0
H396 H 0.27865 0.6405 0.41059 0.0
H397 H 0.24847 0.6945 0.27608 0.0
H398 H 0.2681 0.60481 0.33555 0.0
H399 H 0.23821 0.6589 0.20115 0.0
H400 H 0.20757 0.59162 0.08821 0.0
H401 H 0.21051 0.62101 0.18109 0.0
H402 H 0.28453 0.58878 0.2336 0.0
H403 H 0.28146 0.55934 0.14085 0.0
C404 C 0.26962 0.64478 0.36523 0.0
C405 C 0.26461 0.67044 0.3492 0.0
C406 C 0.26364 0.62429 0.3222 0.0
C407 C 0.25228 0.62896 0.26238 0.0
C408 C 0.24659 0.65455 0.24716 0.0
C409 C 0.2527 0.67503 0.28996 0.0
C410 C 0.22412 0.59036 0.12064 0.0
C411 C 0.2444 0.57337 0.10696 0.0
C412 C 0.22591 0.60732 0.17352 0.0
C413 C 0.24801 0.60765 0.21397 0.0
C414 C 0.26722 0.58902 0.20348 0.0
C415 C 0.26542 0.57203 0.15047 0.0
H416 H 0.37269 0.74814 0.5725 0.0
H417 H 0.3189 0.74106 0.7218 0.0
H418 H 0.408 0.75438 0.65243 0.0
H419 H 0.35406 0.74665 0.80068 0.0
H420 H 0.42603 0.72517 0.91562 0.0
H421 H 0.39651 0.71756 0.82444 0.0
H422 H 0.41774 0.79075 0.75142 0.0
H423 H 0.44666 0.79905 0.84418 0.0
C424 C 0.36842 0.74791 0.6222 0.0
C425 C 0.34301 0.74413 0.64087 0.0
C426 C 0.38857 0.75151 0.66773 0.0
C427 C 0.38369 0.75074 0.73247 0.0
C428 C 0.35833 0.74706 0.75098 0.0
C429 C 0.3382 0.74404 0.70578 0.0
C430 C 0.42464 0.73959 0.87995 0.0
C431 C 0.43836 0.76296 0.88796 0.0
C432 C 0.4078 0.73516 0.82771 0.0
C433 C 0.40467 0.75373 0.78156 0.0
C434 C 0.41989 0.77614 0.78648 0.0
C435 C 0.43652 0.78079 0.83944 0.0
H436 H 0.79785 0.87884 0.12189 0.0
H437 H 0.74117 0.83049 0.20364 0.0
H438 H 0.78862 0.91346 0.19986 0.0
H439 H 0.73158 0.8653 0.28032 0.0
H440 H 0.70549 0.94275 0.3689 0.0
H441 H 0.71356 0.91372 0.27757 0.0
H442 H 0.79487 0.91504 0.32726 0.0
H443 H 0.7867 0.94356 0.41942 0.0
C444 C 0.78321 0.87574 0.15594 0.0
C445 C 0.77031 0.85192 0.15694 0.0
C446 C 0.77801 0.8955 0.20052 0.0
C447 C 0.75934 0.89202 0.24577 0.0
C448 C 0.7459 0.86852 0.24552 0.0
C449 C 0.75151 0.84857 0.20197 0.0
C450 C 0.72512 0.93731 0.35928 0.0
C451 C 0.74551 0.9454 0.4008 0.0
C452 C 0.7297 0.9206 0.30748 0.0
C453 C 0.75481 0.91215 0.29566 0.0
C454 C 0.77537 0.92143 0.33516 0.0
C455 C 0.77073 0.93769 0.38773 0.0
H456 H 0.70329 0.26358 0.73423 0.0
H457 H 0.64297 0.28957 0.60556 0.0
H458 H 0.67172 0.25655 0.81361 0.0
H459 H 0.6113 0.28287 0.68603 0.0
H460 H 0.55973 0.24582 0.83292 0.0
H461 H 0.58991 0.24965 0.74757 0.0
H462 H 0.64587 0.28469 0.88051 0.0
H463 H 0.61592 0.28099 0.9651 0.0
C464 C 0.68328 0.26779 0.72277 0.0
C465 C 0.67573 0.27745 0.66373 0.0
C466 C 0.66518 0.26384 0.76847 0.0
C467 C 0.63906 0.26948 0.75645 0.0
C468 C 0.63128 0.27825 0.69661 0.0
C469 C 0.64945 0.2822 0.65066 0.0
C470 C 0.57846 0.25441 0.8437 0.0
C471 C 0.58554 0.26279 0.90595 0.0
C472 C 0.59571 0.25662 0.79488 0.0
C473 C 0.62038 0.26722 0.80742 0.0
C474 C 0.62726 0.27587 0.86951 0.0
C475 C 0.61008 0.27371 0.91808 0.0
H476 H 0.21533 0.14259 0.10738 0.0
H477 H 0.27294 0.19138 0.20375 0.0
H478 H 0.22488 0.10861 0.18216 0.0
H479 H 0.28277 0.15724 0.27738 0.0
H480 H 0.30851 0.08073 0.36136 0.0
H481 H 0.30044 0.10928 0.27305 0.0
H482 H 0.21907 0.10789 0.30697 0.0
H483 H 0.22721 0.07971 0.39598 0.0
C484 C 0.23025 0.14591 0.14393 0.0
C485 C 0.24331 0.16967 0.15002 0.0
C486 C 0.23563 0.12653 0.1867 0.0
C487 C 0.25457 0.13036 0.23528 0.0
C488 C 0.26822 0.15376 0.23999 0.0
C489 C 0.26248 0.17331 0.19815 0.0
C490 C 0.28888 0.08614 0.34903 0.0
C491 C 0.26845 0.07808 0.38523 0.0
C492 C 0.2843 0.10255 0.29892 0.0
C493 C 0.25916 0.11076 0.28346 0.0
C494 C 0.2386 0.10167 0.31772 0.0
C495 C 0.24324 0.08567 0.3686 0.0
H496 H 0.25516 0.32154 0.11225 0.0
H497 H 0.22609 0.3207 0.91804 0.0
H498 H 0.25746 0.36844 0.11361 0.0
H499 H 0.22885 0.3676 0.91917 0.0
H500 H 0.21884 0.45334 0.95117 0.0
H501 H 0.21082 0.40727 0.96312 0.0
H502 H 0.28361 0.40106 0.06728 0.0
H503 H 0.29116 0.44719 0.05598 0.0
C504 C 0.24921 0.33133 0.06981 0.0
C505 C 0.24061 0.31725 0.01484 0.0
C506 C 0.25063 0.35826 0.07059 0.0
C507 C 0.24343 0.37184 0.01649 0.0
C508 C 0.23425 0.35781 0.96198 0.0
C509 C 0.23284 0.33086 0.96116 0.0
C510 C 0.23272 0.44213 0.97795 0.0
C511 C 0.25543 0.4536 0.00334 0.0
C512 C 0.22832 0.41575 0.98419 0.0
C513 C 0.24666 0.40038 0.01572 0.0
C514 C 0.26893 0.41231 0.04335 0.0
C515 C 0.2733 0.4387 0.03698 0.0
H516 H 0.19147 0.72665 0.38506 0.0
H517 H 0.19153 0.7615 0.57387 0.0
H518 H 0.14455 0.72401 0.38356 0.0
H519 H 0.14479 0.75843 0.57269 0.0
H520 H 0.05941 0.76802 0.53795 0.0
H521 H 0.10547 0.77534 0.52489 0.0
H522 H 0.11155 0.69964 0.43425 0.0
H523 H 0.06542 0.69276 0.44655 0.0
C524 C 0.18151 0.73384 0.42618 0.0
C525 C 0.19535 0.74428 0.47962 0.0
C526 C 0.15459 0.7322 0.42539 0.0
C527 C 0.14084 0.74103 0.47795 0.0
C528 C 0.15468 0.75182 0.53096 0.0
C529 C 0.18156 0.7534 0.53182 0.0
C530 C 0.07061 0.75328 0.51397 0.0
C531 C 0.05909 0.72997 0.49269 0.0
C532 C 0.09698 0.75731 0.50706 0.0
C533 C 0.11231 0.73799 0.47899 0.0
C534 C 0.10034 0.71504 0.45544 0.0
C535 C 0.07396 0.71105 0.46246 0.0
H536 H 0.75781 0.69917 0.09168 0.0
H537 H 0.7896 0.70018 0.90593 0.0
H538 H 0.76087 0.6524 0.08942 0.0
H539 H 0.79231 0.65314 0.90342 0.0
H540 H 0.82356 0.57299 0.96789 0.0
H541 H 0.81714 0.61935 0.95583 0.0
H542 H 0.7425 0.61361 0.0378 0.0
H543 H 0.74932 0.56737 0.0505 0.0
C544 C 0.76529 0.68944 0.05009 0.0
C545 C 0.77346 0.70355 0.999 0.0
C546 C 0.76686 0.66252 0.04859 0.0
C547 C 0.77671 0.64893 0.99608 0.0
C548 C 0.78479 0.663 0.94479 0.0
C549 C 0.78312 0.68998 0.94615 0.0
C550 C 0.80558 0.58166 0.98185 0.0
C551 C 0.78682 0.56682 0.00959 0.0
C552 C 0.80186 0.60817 0.975 0.0
C553 C 0.77938 0.6203 0.99635 0.0
C554 C 0.76019 0.605 0.02174 0.0
C555 C 0.76392 0.57851 0.02841 0.0
H556 H 0.82003 0.29457 0.41245 0.0
H557 H 0.82548 0.269 0.60457 0.0
H558 H 0.86676 0.29945 0.41338 0.0
H559 H 0.8721 0.27341 0.60496 0.0
H560 H 0.95086 0.31488 0.60683 0.0
H561 H 0.90437 0.3071 0.60642 0.0
H562 H 0.90671 0.27506 0.41509 0.0
H563 H 0.95316 0.28339 0.41572 0.0
C564 C 0.83117 0.2898 0.4547 0.0
C565 C 0.81891 0.28142 0.50843 0.0
C566 C 0.85801 0.29245 0.45512 0.0
C567 C 0.87324 0.28684 0.50929 0.0
C568 C 0.86098 0.27823 0.56274 0.0
C569 C 0.83419 0.27557 0.56233 0.0
C570 C 0.94136 0.30589 0.56516 0.0
C571 C 0.95533 0.29955 0.51148 0.0
C572 C 0.91479 0.30137 0.56483 0.0
C573 C 0.90173 0.29051 0.51061 0.0
C574 C 0.91605 0.28376 0.45729 0.0
C575 C 0.94263 0.28828 0.45776 0.0
H576 H 0.75057 0.19483 0.43191 0.0
H577 H 0.72988 0.20214 0.62771 0.0
H578 H 0.74434 0.14832 0.43352 0.0
H579 H 0.72425 0.15558 0.62968 0.0
H580 H 0.68542 0.07702 0.58585 0.0
H581 H 0.69457 0.12324 0.58782 0.0
H582 H 0.76112 0.10867 0.47516 0.0
H583 H 0.75135 0.06232 0.47237 0.0
C584 C 0.74496 0.18652 0.47554 0.0
C585 C 0.74066 0.20233 0.52962 0.0
C586 C 0.74153 0.15978 0.47656 0.0
C587 C 0.73371 0.14811 0.53167 0.0
C588 C 0.72989 0.16389 0.58609 0.0
C589 C 0.73328 0.19063 0.58506 0.0
C590 C 0.70207 0.08381 0.5619 0.0
C591 C 0.71774 0.06637 0.52908 0.0
C592 C 0.70743 0.11024 0.56327 0.0
C593 C 0.72865 0.11978 0.53178 0.0
C594 C 0.74447 0.10207 0.49934 0.0
C595 C 0.73904 0.07557 0.498 0.0
H596 H 0.31955 0.24445 0.92575 0.0
H597 H 0.32045 0.2353 0.12801 0.0
H598 H 0.36635 0.24685 0.9296 0.0
H599 H 0.36756 0.23767 0.13169 0.0
H600 H 0.44675 0.28186 0.10789 0.0
H601 H 0.40075 0.27196 0.11475 0.0
H602 H 0.40503 0.22021 0.95067 0.0
H603 H 0.45085 0.23032 0.94402 0.0
C604 C 0.32973 0.24277 0.97103 0.0
C605 C 0.31619 0.23982 0.02659 0.0
C606 C 0.35661 0.24395 0.97316 0.0
C607 C 0.37069 0.24239 0.03095 0.0
C608 C 0.35723 0.23907 0.08651 0.0
C609 C 0.33027 0.2376 0.0843 0.0
C610 C 0.43788 0.26786 0.07453 0.0
C611 C 0.45211 0.25666 0.02574 0.0
C612 C 0.41161 0.26219 0.07835 0.0
C613 C 0.3992 0.24547 0.03288 0.0
C614 C 0.41395 0.23339 0.9859 0.0
C615 C 0.44017 0.23897 0.98239 0.0
H616 H 0.26548 0.82479 0.40347 0.0
H617 H 0.28944 0.82267 0.60107 0.0
H618 H 0.27128 0.8715 0.40737 0.0
H619 H 0.29461 0.8693 0.60526 0.0
H620 H 0.33114 0.94772 0.56799 0.0
H621 H 0.32298 0.90131 0.56745 0.0
H622 H 0.25412 0.91165 0.45 0.0
H623 H 0.26287 0.95812 0.44976 0.0
C624 C 0.27178 0.83428 0.44786 0.0
C625 C 0.27706 0.81989 0.50186 0.0
C626 C 0.27495 0.86111 0.45021 0.0
C627 C 0.28346 0.87422 0.50663 0.0
C628 C 0.28841 0.85984 0.56077 0.0
C629 C 0.28531 0.83305 0.5584 0.0
C630 C 0.31415 0.93997 0.5427 0.0
C631 C 0.29752 0.95622 0.50924 0.0
C632 C 0.30939 0.91344 0.54249 0.0
C633 C 0.28787 0.90266 0.50866 0.0
C634 C 0.27102 0.91922 0.47588 0.0
C635 C 0.27585 0.94579 0.47613 0.0
H636 H 0.69021 0.76636 0.91991 0.0
H637 H 0.69381 0.798 0.11197 0.0
H638 H 0.6434 0.76901 0.91835 0.0
H639 H 0.64696 0.80109 0.10987 0.0
H640 H 0.56135 0.78171 0.1067 0.0
H641 H 0.60806 0.77513 0.10781 0.0
H642 H 0.60967 0.80109 0.91619 0.0
H643 H 0.56292 0.80711 0.9153 0.0
C644 C 0.68105 0.77391 0.96185 0.0
C645 C 0.69586 0.78194 0.01612 0.0
C646 C 0.65416 0.77555 0.96079 0.0
C647 C 0.64134 0.78527 0.01395 0.0
C648 C 0.65614 0.79316 0.06837 0.0
C649 C 0.68305 0.79153 0.06944 0.0
C650 C 0.57178 0.78562 0.06469 0.0
C651 C 0.55879 0.79469 0.01076 0.0
C652 C 0.59851 0.78211 0.06543 0.0
C653 C 0.61271 0.7877 0.01219 0.0
C654 C 0.59937 0.79629 0.95773 0.0
C655 C 0.57265 0.7998 0.95713 0.0
loop_
_geom_bond_atom_site_label_1
_geom_bond_atom_site_label_2
_geom_bond_distance
_geom_bond_site_symmetry_2
_ccdc_geom_bond_type
Fe0 O2 1.918 . S
Fe0 O5 1.997 . S
Fe0 O6 2.002 . S
Fe0 O11 1.976 . S
Fe0 O14 1.996 . S
Fe1 O2 1.918 1_556 S
Fe1 O9 1.997 . S
Fe1 O12 1.996 . S
Fe1 O16 1.976 . S
Fe1 O19 2.002 . S
O2 Fe0 1.918 . S
O2 Fe1 1.918 1_554 S
O2 Fe3 1.918 . S
Fe3 O2 1.918 . S
Fe3 O4 2.008 . S
Fe3 O13 1.981 . S
Fe3 O17 1.990 1_554 S
Fe3 O20 1.991 1_554 S
O4 Fe3 2.008 . S
O4 C21 1.295 . S
O5 Fe0 1.997 . S
O5 C21 1.235 . S
O6 Fe0 2.002 . S
O6 C7 1.295 . S
C7 O6 1.295 . S
C7 O9 1.235 1_554 S
C8 O13 1.287 . S
C8 O14 1.255 . S
O9 Fe1 1.997 . S
O9 C7 1.235 1_556 S
C10 O16 1.287 . S
C10 O17 1.255 . S
O11 Fe0 1.976 . S
O11 C18 1.287 . S
O12 Fe1 1.996 . S
O12 C18 1.255 1_556 S
O13 Fe3 1.981 . S
O13 C8 1.287 . S
O14 Fe0 1.996 . S
O14 C8 1.255 . S
C15 O19 1.295 . S
C15 O20 1.235 . S
O16 Fe1 1.976 . S
O16 C10 1.287 . S
O17 Fe3 1.990 1_556 S
O17 C10 1.255 . S
C18 O11 1.287 . S
C18 O12 1.255 1_554 S
O19 Fe1 2.002 . S
O19 C15 1.295 . S
O20 Fe3 1.991 1_556 S
O20 C15 1.235 . S
C21 O4 1.295 . S
C21 O5 1.235 . S
Fe22 O24 1.918 . S
Fe22 O27 1.997 . S
Fe22 O28 2.002 . S
Fe22 O33 1.976 . S
Fe22 O36 1.996 . S
Fe23 O24 1.918 . S
Fe23 O31 1.997 . S
Fe23 O34 1.996 . S
Fe23 O38 1.976 . S
Fe23 O41 2.002 . S
O24 Fe22 1.918 . S
O24 Fe23 1.918 . S
O24 Fe25 1.918 . S
Fe25 O24 1.918 . S
Fe25 O26 2.002 . S
Fe25 O35 1.976 . S
Fe25 O39 1.996 . S
Fe25 O42 1.997 . S
O26 Fe25 2.002 . S
O26 C43 1.295 . S
O27 Fe22 1.997 . S
O27 C43 1.235 . S
O28 Fe22 2.002 . S
O28 C29 1.295 . S
C29 O28 1.295 . S
C29 O31 1.235 . S
C30 O35 1.287 . S
C30 O36 1.255 . S
O31 Fe23 1.997 . S
O31 C29 1.235 . S
C32 O38 1.287 . S
C32 O39 1.255 . S
O33 Fe22 1.976 . S
O33 C40 1.287 . S
O34 Fe23 1.996 . S
O34 C40 1.255 . S
O35 Fe25 1.976 . S
O35 C30 1.287 . S
O36 Fe22 1.996 . S
O36 C30 1.255 . S
C37 O41 1.295 . S
C37 O42 1.235 . S
O38 Fe23 1.976 . S
O38 C32 1.287 . S
O39 Fe25 1.996 . S
O39 C32 1.255 . S
C40 O33 1.287 . S
C40 O34 1.255 . S
O41 Fe23 2.002 . S
O41 C37 1.295 . S
O42 Fe25 1.997 . S
O42 C37 1.235 . S
C43 O26 1.295 . S
C43 O27 1.235 . S
Fe44 O46 1.918 1_556 S
Fe44 O49 1.997 . S
Fe44 O50 2.002 . S
Fe44 O55 1.976 . S
Fe44 O58 1.996 . S
Fe45 O46 1.918 . S
Fe45 O53 1.997 . S
Fe45 O56 1.996 . S
Fe45 O60 1.976 . S
Fe45 O63 2.002 . S
O46 Fe44 1.918 1_554 S
O46 Fe45 1.918 . S
O46 Fe47 1.918 . S
Fe47 O46 1.918 . S
Fe47 O48 2.002 1_554 S
Fe47 O57 1.976 1_554 S
Fe47 O61 1.996 . S
Fe47 O64 1.997 . S
O48 Fe47 2.002 1_556 S
O48 C65 1.295 . S
O49 Fe44 1.997 . S
O49 C65 1.235 . S
O50 Fe44 2.002 . S
O50 C51 1.295 1_556 S
C51 O50 1.295 1_554 S
C51 O53 1.235 . S
C52 O57 1.287 . S
C52 O58 1.255 . S
O53 Fe45 1.997 . S
O53 C51 1.235 . S
C54 O60 1.287 . S
C54 O61 1.255 . S
O55 Fe44 1.976 . S
O55 C62 1.287 1_556 S
O56 Fe45 1.996 . S
O56 C62 1.255 . S
O57 Fe47 1.976 1_556 S
O57 C52 1.287 . S
O58 Fe44 1.996 . S
O58 C52 1.255 . S
C59 O63 1.295 . S
C59 O64 1.235 . S
O60 Fe45 1.976 . S
O60 C54 1.287 . S
O61 Fe47 1.996 . S
O61 C54 1.255 . S
C62 O55 1.287 1_554 S
C62 O56 1.255 . S
O63 Fe45 2.002 . S
O63 C59 1.295 . S
O64 Fe47 1.997 . S
O64 C59 1.235 . S
C65 O48 1.295 . S
C65 O49 1.235 . S
Fe66 O68 1.918 . S
Fe66 O71 1.997 . S
Fe66 O72 2.002 . S
Fe66 O77 1.976 . S
Fe66 O80 1.996 . S
Fe67 O68 1.918 . S
Fe67 O75 1.997 . S
Fe67 O78 1.996 . S
Fe67 O82 1.976 . S
Fe67 O85 2.002 . S
O68 Fe66 1.918 . S
O68 Fe67 1.918 . S
O68 Fe69 1.918 . S
Fe69 O68 1.918 . S
Fe69 O70 2.002 . S
Fe69 O79 1.976 . S
Fe69 O83 1.996 . S
Fe69 O86 1.997 . S
O70 Fe69 2.002 . S
O70 C87 1.295 . S
O71 Fe66 1.997 . S
O71 C87 1.235 . S
O72 Fe66 2.002 . S
O72 C73 1.295 . S
C73 O72 1.295 . S
C73 O75 1.235 . S
C74 O79 1.287 . S
C74 O80 1.255 . S
O75 Fe67 1.997 . S
O75 C73 1.235 . S
C76 O82 1.287 . S
C76 O83 1.255 . S
O77 Fe66 1.976 . S
O77 C84 1.287 . S
O78 Fe67 1.996 . S
O78 C84 1.255 . S
O79 Fe69 1.976 . S
O79 C74 1.287 . S
O80 Fe66 1.996 . S
O80 C74 1.255 . S
C81 O85 1.295 . S
C81 O86 1.235 . S
O82 Fe67 1.976 . S
O82 C76 1.287 . S
O83 Fe69 1.996 . S
O83 C76 1.255 . S
C84 O77 1.287 . S
C84 O78 1.255 . S
O85 Fe67 2.002 . S
O85 C81 1.295 . S
O86 Fe69 1.997 . S
O86 C81 1.235 . S
C87 O70 1.295 . S
C87 O71 1.235 . S
H88 C91 0.929 1_554 S
H89 C94 0.929 . S
H90 C96 0.930 . S
C91 H88 0.929 1_556 S
C91 C92 1.407 . S
C91 C93 1.388 1_556 S
C92 C91 1.407 . S
C92 C96 1.407 . S
C93 C91 1.388 1_554 S
C93 C94 1.394 . S
C94 H89 0.929 . S
C94 C93 1.394 . S
C94 C95 1.382 1_554 S
C95 C94 1.382 1_556 S
C95 C96 1.392 . S
C95 N97 1.420 . S
C96 H90 0.930 . S
C96 C92 1.407 . S
C96 C95 1.392 . S
N97 C95 1.420 . S
N97 C98 1.244 1_556 S
C98 N97 1.244 1_554 S
H99 C102 0.929 . S
H100 C105 0.951 . S
H101 C107 0.930 . S
C102 H99 0.929 . S
C102 C103 1.398 . S
C102 C104 1.396 . S
C103 C102 1.398 . S
C103 C107 1.407 . S
C104 C102 1.396 . S
C104 C105 1.394 . S
C105 H100 0.951 . S
C105 C104 1.394 . S
C105 C106 1.372 1_655 S
C106 C105 1.372 1_455 S
C106 C107 1.378 1_455 S
C106 N108 1.444 . S
C107 H101 0.930 . S
C107 C103 1.407 . S
C107 C106 1.378 1_655 S
N108 C106 1.444 . S
N108 C109 1.244 . S
C109 N108 1.244 . S
H110 C113 0.929 . S
H111 C116 0.929 . S
H112 C118 0.930 . S
C113 H110 0.929 . S
C113 C114 1.398 . S
C113 C115 1.396 1_554 S
C114 C113 1.398 . S
C114 C118 1.407 . S
C115 C113 1.396 1_556 S
C115 C116 1.394 . S
C116 H111 0.929 . S
C116 C115 1.394 . S
C116 C117 1.382 1_556 S
C117 C116 1.382 1_554 S
C117 C118 1.392 . S
C117 N119 1.420 . S
C118 H112 0.930 . S
C118 C114 1.407 . S
C118 C117 1.392 . S
N119 C117 1.420 . S
N119 C120 1.244 . S
C120 N119 1.244 . S
H121 C124 0.929 . S
H122 C127 0.929 . S
H123 C129 0.930 . S
C124 H121 0.929 . S
C124 C125 1.398 . S
C124 C126 1.396 . S
C125 C124 1.398 . S
C125 C129 1.407 . S
C126 C124 1.396 . S
C126 C127 1.394 . S
C127 H122 0.929 . S
C127 C126 1.394 . S
C127 C128 1.378 1_455 S
C128 C127 1.378 1_655 S
C128 C129 1.386 1_655 S
C128 N130 1.431 . S
C129 H123 0.930 . S
C129 C125 1.407 . S
C129 C128 1.386 1_455 S
N130 C128 1.431 . S
N130 C131 1.244 . S
C131 N130 1.244 . S
H132 C135 0.929 . S
H133 C138 0.920 1_545 S
H134 C140 0.930 . S
C135 H132 0.929 . S
C135 C136 1.398 . S
C135 C137 1.396 . S
C136 C135 1.398 . S
C136 C140 1.407 . S
C137 C135 1.396 . S
C137 C138 1.394 . S
C138 H133 0.920 1_565 S
C138 C137 1.394 . S
C138 C139 1.382 1_565 S
C139 C138 1.382 1_545 S
C139 C140 1.392 1_545 S
C139 N141 1.420 . S
C140 H134 0.930 . S
C140 C136 1.407 . S
C140 C139 1.392 1_565 S
N141 C139 1.420 . S
N141 C142 1.244 . S
C142 N141 1.244 . S
H143 C146 0.929 . S
H144 C149 0.929 . S
H145 C151 0.930 . S
C146 H143 0.929 . S
C146 C147 1.398 1_554 S
C146 C148 1.396 . S
C147 C146 1.398 1_556 S
C147 C151 1.407 . S
C148 C146 1.396 . S
C148 C149 1.394 . S
C149 H144 0.929 . S
C149 C148 1.394 . S
C149 C150 1.382 1_554 S
C150 C149 1.382 1_556 S
C150 C151 1.392 . S
C150 N152 1.420 . S
C151 H145 0.930 . S
C151 C147 1.407 . S
C151 C150 1.392 . S
N152 C150 1.420 . S
N152 C153 1.244 1_556 S
C153 N152 1.244 1_554 S
H154 C157 0.929 . S
H155 C160 0.929 1_565 S
H156 C162 0.930 . S
C157 H154 0.929 . S
C157 C158 1.398 . S
C157 C159 1.396 . S
C158 C157 1.398 . S
C158 C162 1.407 . S
C159 C157 1.396 . S
C159 C160 1.394 . S
C160 H155 0.929 1_545 S
C160 C159 1.394 . S
C160 C161 1.382 1_545 S
C161 C160 1.382 1_565 S
C161 C162 1.392 1_565 S
C161 N163 1.420 . S
C162 H156 0.930 . S
C162 C158 1.407 . S
C162 C161 1.392 1_545 S
N163 C161 1.420 . S
N163 C164 1.244 . S
C164 N163 1.244 . S
H165 C168 0.929 . S
H166 C171 0.929 . S
H167 C173 0.930 . S
C168 H165 0.929 . S
C168 C169 1.398 . S
C168 C170 1.396 1_554 S
C169 C168 1.398 . S
C169 C173 1.407 . S
C170 C168 1.396 1_556 S
C170 C171 1.394 . S
C171 H166 0.929 . S
C171 C170 1.394 . S
C171 C172 1.382 1_556 S
C172 C171 1.382 1_554 S
C172 C173 1.392 . S
C172 N174 1.420 . S
C173 H167 0.930 . S
C173 C169 1.407 . S
C173 C172 1.392 . S
N174 C172 1.420 . S
N174 C175 1.244 . S
C175 N174 1.244 . S
H176 C184 0.950 . S
H177 C189 0.950 . S
H178 C186 0.950 . S
H179 C188 0.950 . S
H180 C190 0.950 . S
H181 C192 0.950 . S
H182 C194 0.950 . S
H183 C195 0.950 . S
C184 H176 0.950 . S
C184 C185 1.386 . S
C184 C186 1.391 . S
C185 C184 1.386 . S
C185 C189 1.393 . S
C186 H178 0.950 . S
C186 C184 1.391 . S
C186 C187 1.400 . S
C187 C186 1.400 . S
C187 C188 1.398 . S
C187 C193 1.491 . S
C188 H179 0.950 . S
C188 C187 1.398 . S
C188 C189 1.391 . S
C189 H177 0.950 . S
C189 C185 1.393 . S
C189 C188 1.391 . S
C190 H180 0.950 . S
C190 C191 1.386 . S
C190 C192 1.391 . S
C191 C190 1.386 . S
C191 C195 1.393 . S
C192 H181 0.950 . S
C192 C190 1.391 . S
C192 C193 1.400 . S
C193 C187 1.491 . S
C193 C192 1.400 . S
C193 C194 1.398 . S
C194 H182 0.950 . S
C194 C193 1.398 . S
C194 C195 1.391 . S
C195 H183 0.950 . S
C195 C191 1.393 . S
C195 C194 1.391 . S
H196 C204 0.950 . S
H197 C209 0.950 . S
H198 C206 0.950 . S
H199 C208 0.950 . S
H200 C210 0.950 . S
H201 C212 0.950 . S
H202 C214 0.950 . S
H203 C215 0.950 . S
C204 H196 0.950 . S
C204 C205 1.386 . S
C204 C206 1.391 . S
C205 C204 1.386 . S
C205 C209 1.393 . S
C206 H198 0.950 . S
C206 C204 1.391 . S
C206 C207 1.400 . S
C207 C206 1.400 . S
C207 C208 1.398 . S
C207 C213 1.491 . S
C208 H199 0.950 . S
C208 C207 1.398 . S
C208 C209 1.391 . S
C209 H197 0.950 . S
C209 C205 1.393 . S
C209 C208 1.391 . S
C210 H200 0.950 . S
C210 C211 1.386 . S
C210 C212 1.391 . S
C211 C210 1.386 . S
C211 C215 1.393 . S
C212 H201 0.950 . S
C212 C210 1.391 . S
C212 C213 1.400 . S
C213 C207 1.491 . S
C213 C212 1.400 . S
C213 C214 1.398 . S
C214 H202 0.950 . S
C214 C213 1.398 . S
C214 C215 1.391 . S
C215 H203 0.950 . S
C215 C211 1.393 . S
C215 C214 1.391 . S
H216 C224 0.950 . S
H217 C229 0.950 . S
H218 C226 0.950 . S
H219 C228 0.950 . S
H220 C230 0.950 . S
H221 C232 0.950 . S
H222 C234 0.950 . S
H223 C235 0.950 . S
C224 H216 0.950 . S
C224 C225 1.386 . S
C224 C226 1.391 . S
C225 C224 1.386 . S
C225 C229 1.393 . S
C226 H218 0.950 . S
C226 C224 1.391 . S
C226 C227 1.400 . S
C227 C226 1.400 . S
C227 C228 1.398 . S
C227 C233 1.491 . S
C228 H219 0.950 . S
C228 C227 1.398 . S
C228 C229 1.391 . S
C229 H217 0.950 . S
C229 C225 1.393 . S
C229 C228 1.391 . S
C230 H220 0.950 . S
C230 C231 1.386 . S
C230 C232 1.391 . S
C231 C230 1.386 . S
C231 C235 1.393 . S
C232 H221 0.950 . S
C232 C230 1.391 . S
C232 C233 1.400 . S
C233 C227 1.491 . S
C233 C232 1.400 . S
C233 C234 1.398 . S
C234 H222 0.950 . S
C234 C233 1.398 . S
C234 C235 1.391 . S
C235 H223 0.950 . S
C235 C231 1.393 . S
C235 C234 1.391 . S
H236 C244 0.950 . S
H237 C249 0.950 . S
H238 C246 0.950 . S
H239 C248 0.950 . S
H240 C250 0.950 . S
H241 C252 0.950 . S
H242 C254 0.950 . S
H243 C255 0.950 . S
C244 H236 0.950 . S
C244 C245 1.386 . S
C244 C246 1.391 . S
C245 C244 1.386 . S
C245 C249 1.393 . S
C246 H238 0.950 . S
C246 C244 1.391 . S
C246 C247 1.400 . S
C247 C246 1.400 . S
C247 C248 1.398 . S
C247 C253 1.491 . S
C248 H239 0.950 . S
C248 C247 1.398 . S
C248 C249 1.391 . S
C249 H237 0.950 . S
C249 C245 1.393 . S
C249 C248 1.391 . S
C250 H240 0.950 . S
C250 C251 1.386 . S
C250 C252 1.391 . S
C251 C250 1.386 . S
C251 C255 1.393 . S
C252 H241 0.950 . S
C252 C250 1.391 . S
C252 C253 1.400 . S
C253 C247 1.491 . S
C253 C252 1.400 . S
C253 C254 1.398 . S
C254 H242 0.950 . S
C254 C253 1.398 . S
C254 C255 1.391 . S
C255 H243 0.950 . S
C255 C251 1.393 . S
C255 C254 1.391 . S
H256 C264 0.950 . S
H257 C269 0.950 . S
H258 C266 0.950 . S
H259 C268 0.950 . S
H260 C270 0.950 . S
H261 C272 0.950 . S
H262 C274 0.950 . S
H263 C275 0.950 . S
C264 H256 0.950 . S
C264 C265 1.386 . S
C264 C266 1.391 . S
C265 C264 1.386 . S
C265 C269 1.393 . S
C266 H258 0.950 . S
C266 C264 1.391 . S
C266 C267 1.400 . S
C267 C266 1.400 . S
C267 C268 1.398 . S
C267 C273 1.491 . S
C268 H259 0.950 . S
C268 C267 1.398 . S
C268 C269 1.391 . S
C269 H257 0.950 . S
C269 C265 1.393 . S
C269 C268 1.391 . S
C270 H260 0.950 . S
C270 C271 1.386 . S
C270 C272 1.391 . S
C271 C270 1.386 . S
C271 C275 1.393 . S
C272 H261 0.950 . S
C272 C270 1.391 . S
C272 C273 1.400 . S
C273 C267 1.491 . S
C273 C272 1.400 . S
C273 C274 1.398 . S
C274 H262 0.950 . S
C274 C273 1.398 . S
C274 C275 1.391 . S
C275 H263 0.950 . S
C275 C271 1.393 . S
C275 C274 1.391 . S
H276 C284 0.950 . S
H277 C289 0.950 . S
H278 C286 0.950 . S
H279 C288 0.950 . S
H280 C290 0.950 . S
H281 C292 0.950 . S
H282 C294 0.950 . S
H283 C295 0.950 . S
C284 H276 0.950 . S
C284 C285 1.386 . S
C284 C286 1.391 . S
C285 C284 1.386 . S
C285 C289 1.393 . S
C286 H278 0.950 . S
C286 C284 1.391 . S
C286 C287 1.400 . S
C287 C286 1.400 . S
C287 C288 1.398 . S
C287 C293 1.491 . S
C288 H279 0.950 . S
C288 C287 1.398 . S
C288 C289 1.391 . S
C289 H277 0.950 . S
C289 C285 1.393 . S
C289 C288 1.391 . S
C290 H280 0.950 . S
C290 C291 1.386 . S
C290 C292 1.391 . S
C291 C290 1.386 . S
C291 C295 1.393 . S
C292 H281 0.950 . S
C292 C290 1.391 . S
C292 C293 1.400 . S
C293 C287 1.491 . S
C293 C292 1.400 . S
C293 C294 1.398 . S
C294 H282 0.950 . S
C294 C293 1.398 . S
C294 C295 1.391 . S
C295 H283 0.950 . S
C295 C291 1.393 . S
C295 C294 1.391 . S
H296 C304 0.950 . S
H297 C309 0.950 . S
H298 C306 0.950 . S
H299 C308 0.950 . S
H300 C310 0.950 . S
H301 C312 0.950 . S
H302 C314 0.950 . S
H303 C315 0.950 . S
C304 H296 0.950 . S
C304 C305 1.386 . S
C304 C306 1.391 . S
C305 C304 1.386 . S
C305 C309 1.393 . S
C306 H298 0.950 . S
C306 C304 1.391 . S
C306 C307 1.400 . S
C307 C306 1.400 . S
C307 C308 1.398 . S
C307 C313 1.491 . S
C308 H299 0.950 . S
C308 C307 1.398 . S
C308 C309 1.391 . S
C309 H297 0.950 . S
C309 C305 1.393 . S
C309 C308 1.391 . S
C310 H300 0.950 . S
C310 C311 1.386 . S
C310 C312 1.391 . S
C311 C310 1.386 . S
C311 C315 1.393 . S
C312 H301 0.950 . S
C312 C310 1.391 . S
C312 C313 1.400 . S
C313 C307 1.491 . S
C313 C312 1.400 . S
C313 C314 1.398 . S
C314 H302 0.950 . S
C314 C313 1.398 . S
C314 C315 1.391 . S
C315 H303 0.950 . S
C315 C311 1.393 . S
C315 C314 1.391 . S
H316 C324 0.950 . S
H317 C329 0.950 . S
H318 C326 0.950 . S
H319 C328 0.950 . S
H320 C330 0.950 . S
H321 C332 0.950 . S
H322 C334 0.950 . S
H323 C335 0.950 . S
C324 H316 0.950 . S
C324 C325 1.386 . S
C324 C326 1.391 . S
C325 C324 1.386 . S
C325 C329 1.393 . S
C326 H318 0.950 . S
C326 C324 1.391 . S
C326 C327 1.400 . S
C327 C326 1.400 . S
C327 C328 1.398 . S
C327 C333 1.491 . S
C328 H319 0.950 . S
C328 C327 1.398 . S
C328 C329 1.391 . S
C329 H317 0.950 . S
C329 C325 1.393 . S
C329 C328 1.391 . S
C330 H320 0.950 . S
C330 C331 1.386 . S
C330 C332 1.391 . S
C331 C330 1.386 . S
C331 C335 1.393 . S
C332 H321 0.950 . S
C332 C330 1.391 . S
C332 C333 1.400 . S
C333 C327 1.491 . S
C333 C332 1.400 . S
C333 C334 1.398 . S
C334 H322 0.950 . S
C334 C333 1.398 . S
C334 C335 1.391 . S
C335 H323 0.950 . S
C335 C331 1.393 . S
C335 C334 1.391 . S
H336 C344 0.950 . S
H337 C349 0.950 . S
H338 C346 0.950 . S
H339 C348 0.950 . S
H340 C350 0.950 . S
H341 C352 0.950 . S
H342 C354 0.950 . S
H343 C355 0.950 . S
C344 H336 0.950 . S
C344 C345 1.386 . S
C344 C346 1.391 . S
C345 C344 1.386 . S
C345 C349 1.393 . S
C346 H338 0.950 . S
C346 C344 1.391 . S
C346 C347 1.400 . S
C347 C346 1.400 . S
C347 C348 1.398 . S
C347 C353 1.491 . S
C348 H339 0.950 . S
C348 C347 1.398 . S
C348 C349 1.391 . S
C349 H337 0.950 . S
C349 C345 1.393 . S
C349 C348 1.391 . S
C350 H340 0.950 . S
C350 C351 1.386 . S
C350 C352 1.391 . S
C351 C350 1.386 . S
C351 C355 1.393 . S
C352 H341 0.950 . S
C352 C350 1.391 . S
C352 C353 1.400 . S
C353 C347 1.491 . S
C353 C352 1.400 . S
C353 C354 1.398 . S
C354 H342 0.950 . S
C354 C353 1.398 . S
C354 C355 1.391 . S
C355 H343 0.950 . S
C355 C351 1.393 . S
C355 C354 1.391 . S
H356 C364 0.950 . S
H357 C369 0.950 . S
H358 C366 0.950 . S
H359 C368 0.950 . S
H360 C370 0.950 . S
H361 C372 0.950 . S
H362 C374 0.950 . S
H363 C375 0.950 . S
C364 H356 0.950 . S
C364 C365 1.386 . S
C364 C366 1.391 . S
C365 C364 1.386 . S
C365 C369 1.393 . S
C366 H358 0.950 . S
C366 C364 1.391 . S
C366 C367 1.400 . S
C367 C366 1.400 . S
C367 C368 1.398 . S
C367 C373 1.491 . S
C368 H359 0.950 . S
C368 C367 1.398 . S
C368 C369 1.391 . S
C369 H357 0.950 . S
C369 C365 1.393 . S
C369 C368 1.391 . S
C370 H360 0.950 . S
C370 C371 1.386 . S
C370 C372 1.391 . S
C371 C370 1.386 . S
C371 C375 1.393 . S
C372 H361 0.950 . S
C372 C370 1.391 . S
C372 C373 1.400 . S
C373 C367 1.491 . S
C373 C372 1.400 . S
C373 C374 1.398 . S
C374 H362 0.950 . S
C374 C373 1.398 . S
C374 C375 1.391 . S
C375 H363 0.950 . S
C375 C371 1.393 . S
C375 C374 1.391 . S
H376 C384 0.950 . S
H377 C389 0.950 . S
H378 C386 0.950 . S
H379 C388 0.950 . S
H380 C390 0.950 . S
H381 C392 0.950 . S
H382 C394 0.950 . S
H383 C395 0.950 . S
C384 H376 0.950 . S
C384 C385 1.386 . S
C384 C386 1.391 . S
C385 C384 1.386 . S
C385 C389 1.393 . S
C386 H378 0.950 . S
C386 C384 1.391 . S
C386 C387 1.400 . S
C387 C386 1.400 . S
C387 C388 1.398 . S
C387 C393 1.491 . S
C388 H379 0.950 . S
C388 C387 1.398 . S
C388 C389 1.391 . S
C389 H377 0.950 . S
C389 C385 1.393 . S
C389 C388 1.391 . S
C390 H380 0.950 . S
C390 C391 1.386 . S
C390 C392 1.391 . S
C391 C390 1.386 . S
C391 C395 1.393 . S
C392 H381 0.950 . S
C392 C390 1.391 . S
C392 C393 1.400 . S
C393 C387 1.491 . S
C393 C392 1.400 . S
C393 C394 1.398 . S
C394 H382 0.950 . S
C394 C393 1.398 . S
C394 C395 1.391 . S
C395 H383 0.950 . S
C395 C391 1.393 . S
C395 C394 1.391 . S
H396 C404 0.950 . S
H397 C409 0.950 . S
H398 C406 0.950 . S
H399 C408 0.950 . S
H400 C410 0.950 . S
H401 C412 0.950 . S
H402 C414 0.950 . S
H403 C415 0.950 . S
C404 H396 0.950 . S
C404 C405 1.386 . S
C404 C406 1.391 . S
C405 C404 1.386 . S
C405 C409 1.393 . S
C406 H398 0.950 . S
C406 C404 1.391 . S
C406 C407 1.400 . S
C407 C406 1.400 . S
C407 C408 1.398 . S
C407 C413 1.491 . S
C408 H399 0.950 . S
C408 C407 1.398 . S
C408 C409 1.391 . S
C409 H397 0.950 . S
C409 C405 1.393 . S
C409 C408 1.391 . S
C410 H400 0.950 . S
C410 C411 1.386 . S
C410 C412 1.391 . S
C411 C410 1.386 . S
C411 C415 1.393 . S
C412 H401 0.950 . S
C412 C410 1.391 . S
C412 C413 1.400 . S
C413 C407 1.491 . S
C413 C412 1.400 . S
C413 C414 1.398 . S
C414 H402 0.950 . S
C414 C413 1.398 . S
C414 C415 1.391 . S
C415 H403 0.950 . S
C415 C411 1.393 . S
C415 C414 1.391 . S
H416 C424 0.950 . S
H417 C429 0.950 . S
H418 C426 0.950 . S
H419 C428 0.950 . S
H420 C430 0.950 . S
H421 C432 0.950 . S
H422 C434 0.950 . S
H423 C435 0.950 . S
C424 H416 0.950 . S
C424 C425 1.386 . S
C424 C426 1.391 . S
C425 C424 1.386 . S
C425 C429 1.393 . S
C426 H418 0.950 . S
C426 C424 1.391 . S
C426 C427 1.400 . S
C427 C426 1.400 . S
C427 C428 1.398 . S
C427 C433 1.491 . S
C428 H419 0.950 . S
C428 C427 1.398 . S
C428 C429 1.391 . S
C429 H417 0.950 . S
C429 C425 1.393 . S
C429 C428 1.391 . S
C430 H420 0.950 . S
C430 C431 1.386 . S
C430 C432 1.391 . S
C431 C430 1.386 . S
C431 C435 1.393 . S
C432 H421 0.950 . S
C432 C430 1.391 . S
C432 C433 1.400 . S
C433 C427 1.491 . S
C433 C432 1.400 . S
C433 C434 1.398 . S
C434 H422 0.950 . S
C434 C433 1.398 . S
C434 C435 1.391 . S
C435 H423 0.950 . S
C435 C431 1.393 . S
C435 C434 1.391 . S
H436 C444 0.950 . S
H437 C449 0.950 . S
H438 C446 0.950 . S
H439 C448 0.950 . S
H440 C450 0.950 . S
H441 C452 0.950 . S
H442 C454 0.950 . S
H443 C455 0.950 . S
C444 H436 0.950 . S
C444 C445 1.386 . S
C444 C446 1.391 . S
C445 C444 1.386 . S
C445 C449 1.393 . S
C446 H438 0.950 . S
C446 C444 1.391 . S
C446 C447 1.400 . S
C447 C446 1.400 . S
C447 C448 1.398 . S
C447 C453 1.491 . S
C448 H439 0.950 . S
C448 C447 1.398 . S
C448 C449 1.391 . S
C449 H437 0.950 . S
C449 C445 1.393 . S
C449 C448 1.391 . S
C450 H440 0.950 . S
C450 C451 1.386 . S
C450 C452 1.391 . S
C451 C450 1.386 . S
C451 C455 1.393 . S
C452 H441 0.950 . S
C452 C450 1.391 . S
C452 C453 1.400 . S
C453 C447 1.491 . S
C453 C452 1.400 . S
C453 C454 1.398 . S
C454 H442 0.950 . S
C454 C453 1.398 . S
C454 C455 1.391 . S
C455 H443 0.950 . S
C455 C451 1.393 . S
C455 C454 1.391 . S
H456 C464 0.950 . S
H457 C469 0.950 . S
H458 C466 0.950 . S
H459 C468 0.950 . S
H460 C470 0.950 . S
H461 C472 0.950 . S
H462 C474 0.950 . S
H463 C475 0.950 . S
C464 H456 0.950 . S
C464 C465 1.386 . S
C464 C466 1.391 . S
C465 C464 1.386 . S
C465 C469 1.393 . S
C466 H458 0.950 . S
C466 C464 1.391 . S
C466 C467 1.400 . S
C467 C466 1.400 . S
C467 C468 1.398 . S
C467 C473 1.491 . S
C468 H459 0.950 . S
C468 C467 1.398 . S
C468 C469 1.391 . S
C469 H457 0.950 . S
C469 C465 1.393 . S
C469 C468 1.391 . S
C470 H460 0.950 . S
C470 C471 1.386 . S
C470 C472 1.391 . S
C471 C470 1.386 . S
C471 C475 1.393 . S
C472 H461 0.950 . S
C472 C470 1.391 . S
C472 C473 1.400 . S
C473 C467 1.491 . S
C473 C472 1.400 . S
C473 C474 1.398 . S
C474 H462 0.950 . S
C474 C473 1.398 . S
C474 C475 1.391 . S
C475 H463 0.950 . S
C475 C471 1.393 . S
C475 C474 1.391 . S
H476 C484 0.950 . S
H477 C489 0.950 . S
H478 C486 0.950 . S
H479 C488 0.950 . S
H480 C490 0.950 . S
H481 C492 0.950 . S
H482 C494 0.950 . S
H483 C495 0.950 . S
C484 H476 0.950 . S
C484 C485 1.386 . S
C484 C486 1.391 . S
C485 C484 1.386 . S
C485 C489 1.393 . S
C486 H478 0.950 . S
C486 C484 1.391 . S
C486 C487 1.400 . S
C487 C486 1.400 . S
C487 C488 1.398 . S
C487 C493 1.491 . S
C488 H479 0.950 . S
C488 C487 1.398 . S
C488 C489 1.391 . S
C489 H477 0.950 . S
C489 C485 1.393 . S
C489 C488 1.391 . S
C490 H480 0.950 . S
C490 C491 1.386 . S
C490 C492 1.391 . S
C491 C490 1.386 . S
C491 C495 1.393 . S
C492 H481 0.950 . S
C492 C490 1.391 . S
C492 C493 1.400 . S
C493 C487 1.491 . S
C493 C492 1.400 . S
C493 C494 1.398 . S
C494 H482 0.950 . S
C494 C493 1.398 . S
C494 C495 1.391 . S
C495 H483 0.950 . S
C495 C491 1.393 . S
C495 C494 1.391 . S
H496 C504 0.950 . S
H497 C509 0.950 . S
H498 C506 0.950 . S
H499 C508 0.950 . S
H500 C510 0.950 . S
H501 C512 0.950 . S
H502 C514 0.950 . S
H503 C515 0.950 . S
C504 H496 0.950 . S
C504 C505 1.386 1_556 S
C504 C506 1.391 . S
C505 C504 1.386 1_554 S
C505 C509 1.393 . S
C506 H498 0.950 . S
C506 C504 1.391 . S
C506 C507 1.400 1_556 S
C507 C506 1.400 1_554 S
C507 C508 1.398 . S
C507 C513 1.491 . S
C508 H499 0.950 . S
C508 C507 1.398 . S
C508 C509 1.391 . S
C509 H497 0.950 . S
C509 C505 1.393 . S
C509 C508 1.391 . S
C510 H500 0.950 . S
C510 C511 1.386 . S
C510 C512 1.391 . S
C511 C510 1.386 . S
C511 C515 1.393 1_554 S
C512 H501 0.950 . S
C512 C510 1.391 . S
C512 C513 1.400 . S
C513 C507 1.491 . S
C513 C512 1.400 . S
C513 C514 1.398 1_554 S
C514 H502 0.950 . S
C514 C513 1.398 1_556 S
C514 C515 1.391 . S
C515 H503 0.950 . S
C515 C511 1.393 1_556 S
C515 C514 1.391 . S
H516 C524 0.950 . S
H517 C529 0.950 . S
H518 C526 0.950 . S
H519 C528 0.950 . S
H520 C530 0.950 . S
H521 C532 0.950 . S
H522 C534 0.950 . S
H523 C535 0.950 . S
C524 H516 0.950 . S
C524 C525 1.386 . S
C524 C526 1.391 . S
C525 C524 1.386 . S
C525 C529 1.393 . S
C526 H518 0.950 . S
C526 C524 1.391 . S
C526 C527 1.400 . S
C527 C526 1.400 . S
C527 C528 1.398 . S
C527 C533 1.491 . S
C528 H519 0.950 . S
C528 C527 1.398 . S
C528 C529 1.391 . S
C529 H517 0.950 . S
C529 C525 1.393 . S
C529 C528 1.391 . S
C530 H520 0.950 . S
C530 C531 1.386 . S
C530 C532 1.391 . S
C531 C530 1.386 . S
C531 C535 1.393 . S
C532 H521 0.950 . S
C532 C530 1.391 . S
C532 C533 1.400 . S
C533 C527 1.491 . S
C533 C532 1.400 . S
C533 C534 1.398 . S
C534 H522 0.950 . S
C534 C533 1.398 . S
C534 C535 1.391 . S
C535 H523 0.950 . S
C535 C531 1.393 . S
C535 C534 1.391 . S
H536 C544 0.950 . S
H537 C549 0.950 . S
H538 C546 0.950 . S
H539 C548 0.950 . S
H540 C550 0.950 . S
H541 C552 0.950 . S
H542 C554 0.950 . S
H543 C555 0.950 . S
C544 H536 0.950 . S
C544 C545 1.386 . S
C544 C546 1.391 . S
C545 C544 1.386 . S
C545 C549 1.393 1_554 S
C546 H538 0.950 . S
C546 C544 1.391 . S
C546 C547 1.400 . S
C547 C546 1.400 . S
C547 C548 1.398 1_554 S
C547 C553 1.491 . S
C548 H539 0.950 . S
C548 C547 1.398 1_556 S
C548 C549 1.391 . S
C549 H537 0.950 . S
C549 C545 1.393 1_556 S
C549 C548 1.391 . S
C550 H540 0.950 . S
C550 C551 1.386 1_556 S
C550 C552 1.391 . S
C551 C550 1.386 1_554 S
C551 C555 1.393 . S
C552 H541 0.950 . S
C552 C550 1.391 . S
C552 C553 1.400 1_556 S
C553 C547 1.491 . S
C553 C552 1.400 1_554 S
C553 C554 1.398 . S
C554 H542 0.950 . S
C554 C553 1.398 . S
C554 C555 1.391 . S
C555 H543 0.950 . S
C555 C551 1.393 . S
C555 C554 1.391 . S
H556 C564 0.950 . S
H557 C569 0.950 . S
H558 C566 0.950 . S
H559 C568 0.950 . S
H560 C570 0.950 . S
H561 C572 0.950 . S
H562 C574 0.950 . S
H563 C575 0.950 . S
C564 H556 0.950 . S
C564 C565 1.386 . S
C564 C566 1.391 . S
C565 C564 1.386 . S
C565 C569 1.393 . S
C566 H558 0.950 . S
C566 C564 1.391 . S
C566 C567 1.400 . S
C567 C566 1.400 . S
C567 C568 1.398 . S
C567 C573 1.491 . S
C568 H559 0.950 . S
C568 C567 1.398 . S
C568 C569 1.391 . S
C569 H557 0.950 . S
C569 C565 1.393 . S
C569 C568 1.391 . S
C570 H560 0.950 . S
C570 C571 1.386 . S
C570 C572 1.391 . S
C571 C570 1.386 . S
C571 C575 1.393 . S
C572 H561 0.950 . S
C572 C570 1.391 . S
C572 C573 1.400 . S
C573 C567 1.491 . S
C573 C572 1.400 . S
C573 C574 1.398 . S
C574 H562 0.950 . S
C574 C573 1.398 . S
C574 C575 1.391 . S
C575 H563 0.950 . S
C575 C571 1.393 . S
C575 C574 1.391 . S
H576 C584 0.950 . S
H577 C589 0.950 . S
H578 C586 0.950 . S
H579 C588 0.950 . S
H580 C590 0.950 . S
H581 C592 0.950 . S
H582 C594 0.950 . S
H583 C595 0.950 . S
C584 H576 0.950 . S
C584 C585 1.386 . S
C584 C586 1.391 . S
C585 C584 1.386 . S
C585 C589 1.393 . S
C586 H578 0.950 . S
C586 C584 1.391 . S
C586 C587 1.400 . S
C587 C586 1.400 . S
C587 C588 1.398 . S
C587 C593 1.491 . S
C588 H579 0.950 . S
C588 C587 1.398 . S
C588 C589 1.391 . S
C589 H577 0.950 . S
C589 C585 1.393 . S
C589 C588 1.391 . S
C590 H580 0.950 . S
C590 C591 1.386 . S
C590 C592 1.391 . S
C591 C590 1.386 . S
C591 C595 1.393 . S
C592 H581 0.950 . S
C592 C590 1.391 . S
C592 C593 1.400 . S
C593 C587 1.491 . S
C593 C592 1.400 . S
C593 C594 1.398 . S
C594 H582 0.950 . S
C594 C593 1.398 . S
C594 C595 1.391 . S
C595 H583 0.950 . S
C595 C591 1.393 . S
C595 C594 1.391 . S
H596 C604 0.950 . S
H597 C609 0.950 . S
H598 C606 0.950 . S
H599 C608 0.950 . S
H600 C610 0.950 . S
H601 C612 0.950 . S
H602 C614 0.950 . S
H603 C615 0.950 . S
C604 H596 0.950 . S
C604 C605 1.386 1_556 S
C604 C606 1.391 . S
C605 C604 1.386 1_554 S
C605 C609 1.393 . S
C606 H598 0.950 . S
C606 C604 1.391 . S
C606 C607 1.400 1_556 S
C607 C606 1.400 1_554 S
C607 C608 1.398 . S
C607 C613 1.491 . S
C608 H599 0.950 . S
C608 C607 1.398 . S
C608 C609 1.391 . S
C609 H597 0.950 . S
C609 C605 1.393 . S
C609 C608 1.391 . S
C610 H600 0.950 . S
C610 C611 1.386 . S
C610 C612 1.391 . S
C611 C610 1.386 . S
C611 C615 1.393 1_554 S
C612 H601 0.950 . S
C612 C610 1.391 . S
C612 C613 1.400 . S
C613 C607 1.491 . S
C613 C612 1.400 . S
C613 C614 1.398 1_554 S
C614 H602 0.950 . S
C614 C613 1.398 1_556 S
C614 C615 1.391 . S
C615 H603 0.950 . S
C615 C611 1.393 1_556 S
C615 C614 1.391 . S
H616 C624 0.950 . S
H617 C629 0.950 . S
H618 C626 0.950 . S
H619 C628 0.950 . S
H620 C630 0.950 . S
H621 C632 0.950 . S
H622 C634 0.950 . S
H623 C635 0.950 . S
C624 H616 0.950 . S
C624 C625 1.386 . S
C624 C626 1.391 . S
C625 C624 1.386 . S
C625 C629 1.393 . S
C626 H618 0.950 . S
C626 C624 1.391 . S
C626 C627 1.400 . S
C627 C626 1.400 . S
C627 C628 1.398 . S
C627 C633 1.491 . S
C628 H619 0.950 . S
C628 C627 1.398 . S
C628 C629 1.391 . S
C629 H617 0.950 . S
C629 C625 1.393 . S
C629 C628 1.391 . S
C630 H620 0.950 . S
C630 C631 1.386 . S
C630 C632 1.391 . S
C631 C630 1.386 . S
C631 C635 1.393 . S
C632 H621 0.950 . S
C632 C630 1.391 . S
C632 C633 1.400 . S
C633 C627 1.491 . S
C633 C632 1.400 . S
C633 C634 1.398 . S
C634 H622 0.950 . S
C634 C633 1.398 . S
C634 C635 1.391 . S
C635 H623 0.950 . S
C635 C631 1.393 . S
C635 C634 1.391 . S
H636 C644 0.950 . S
H637 C649 0.950 . S
H638 C646 0.950 . S
H639 C648 0.950 . S
H640 C650 0.950 . S
H641 C652 0.950 . S
H642 C654 0.950 . S
H643 C655 0.950 . S
C644 H636 0.950 . S
C644 C645 1.386 1_556 S
C644 C646 1.391 . S
C645 C644 1.386 1_554 S
C645 C649 1.393 . S
C646 H638 0.950 . S
C646 C644 1.391 . S
C646 C647 1.400 1_556 S
C647 C646 1.400 1_554 S
C647 C648 1.398 . S
C647 C653 1.491 . S
C648 H639 0.950 . S
C648 C647 1.398 . S
C648 C649 1.391 . S
C649 H637 0.950 . S
C649 C645 1.393 . S
C649 C648 1.391 . S
C650 H640 0.950 . S
C650 C651 1.386 . S
C650 C652 1.391 . S
C651 C650 1.386 . S
C651 C655 1.393 1_554 S
C652 H641 0.950 . S
C652 C650 1.391 . S
C652 C653 1.400 . S
C653 C647 1.491 . S
C653 C652 1.400 . S
C653 C654 1.398 1_554 S
C654 H642 0.950 . S
C654 C653 1.398 1_556 S
C654 C655 1.391 . S
C655 H643 0.950 . S
C655 C651 1.393 1_556 S
C655 C654 1.391 . S
C185 C21 1.477 . S
C191 C125 1.493 . S
C205 C40 1.494 . S
C211 C92 1.484 . S
C231 C104 1.457 . S
C225 C54 1.470 . S
C245 C73 1.531 . S
C251 C115 1.496 . S
C271 C148 1.430 . S
C265 C74 1.464 . S
C291 C159 1.488 . S
C285 C10 1.512 . S
C311 C169 1.497 . S
C305 C37 1.501 . S
C331 C136 1.508 . S
C325 C65 1.507 . S
C345 C52 1.441 . S
C351 C103 1.434 . S
C365 C87 1.515 . S
C371 C114 1.513 . S
C385 C15 1.515 . S
C391 C126 1.495 . S
C411 C93 1.469 . S
C405 C32 1.501 . S
C425 C29 1.506 . S
C431 C170 1.498 . S
C451 C137 1.508 . S
C445 C59 1.540 . S
C471 C147 1.442 . S
C465 C84 1.448 . S
C485 C8 1.482 . S
C491 C158 1.464 . S
C511 C98 1.528 . S
C505 C7 1.538 . S
C531 C109 1.482 . S
C525 C30 1.486 . S
C545 C62 1.540 . S
C551 C120 1.537 . S
C565 C81 1.510 . S
C571 C131 1.516 . S
C591 C142 1.525 . S
C585 C76 1.540 . S
C605 C18 1.485 . S
C611 C153 1.484 . S
C625 C43 1.536 . S
C631 C164 1.541 . S
C645 C51 1.498 . S
C651 C175 1.514 . S
