# Generated by pormake.
# Topology ftw, (4,12)-cn, num edge types: 1
# Building blocks:
#     Node 0, Type 0, BuildingBlock: GIZVER_clean_linker_0, # of connection points: 4
#     Node 1, Type 0, BuildingBlock: GIZVER_clean_linker_0, # of connection points: 4
#     Node 2, Type 0, BuildingBlock: GIZVER_clean_linker_0, # of connection points: 4
#     Node 3, Type 1, BuildingBlock: QEWDON_clean_sbu_0, # of connection points: 12
#     Edge 4, Type (0, 1), BuildingBlock: XIVTED_clean_linker_0, # of connection points: 2
#     Edge 5, Type (0, 1), BuildingBlock: XIVTED_clean_linker_0, # of connection points: 2
#     Edge 6, Type (0, 1), BuildingBlock: XIVTED_clean_linker_0, # of connection points: 2
#     Edge 7, Type (0, 1), BuildingBlock: XIVTED_clean_linker_0, # of connection points: 2
#     Edge 8, Type (0, 1), BuildingBlock: XIVTED_clean_linker_0, # of connection points: 2
#     Edge 9, Type (0, 1), BuildingBlock: XIVTED_clean_linker_0, # of connection points: 2
#     Edge 10, Type (0, 1), BuildingBlock: XIVTED_clean_linker_0, # of connection points: 2
#     Edge 11, Type (0, 1), BuildingBlock: XIVTED_clean_linker_0, # of connection points: 2
#     Edge 12, Type (0, 1), BuildingBlock: XIVTED_clean_linker_0, # of connection points: 2
#     Edge 13, Type (0, 1), BuildingBlock: XIVTED_clean_linker_0, # of connection points: 2
#     Edge 14, Type (0, 1), BuildingBlock: XIVTED_clean_linker_0, # of connection points: 2
#     Edge 15, Type (0, 1), BuildingBlock: XIVTED_clean_linker_0, # of connection points: 2
# Relax obj value: 0.120
# Max RMSD: 0.265
# Mean RMSD: 0.215
data_MOF--net-ftw--node1-QEWDON_clean_sbu_0--node2-GIZVER_clean_linker_0--edge1-XIVTED_clean_linker_0
_symmetry_space_group_name_H-M    P1
_symmetry_Int_Tables_number       1
_symmetry_cell_setting            triclinic
loop_
_symmetry_equiv_pos_as_xyz
'x, y, z'
_cell_length_a     25.87098
_cell_length_b     24.766746
_cell_length_c     23.934819
_cell_angle_alpha  90.130334
_cell_angle_beta   89.822818
_cell_angle_gamma 89.841329
loop_
_atom_site_label
_atom_site_type_symbol
_atom_site_fract_x
_atom_site_fract_y
_atom_site_fract_z
_atom_type_partial_charge
H0 H 0.93883 0.416 0.40549 0.0
H1 H 0.93458 0.45055 0.58109 0.0
H2 H 0.01937 0.31275 0.52014 0.0
H3 H 0.8757 0.47828 0.44116 0.0
H4 H 0.86301 0.47956 0.51447 0.0
H5 H 0.92969 0.54666 0.3985 0.0
H6 H 0.9791 0.68104 0.49862 0.0
H7 H 0.9116 0.54231 0.57739 0.0
C8 C 0.95166 0.40704 0.44753 0.0
C9 C 0.9828 0.36142 0.45735 0.0
C10 C 0.93385 0.43898 0.49224 0.0
C11 C 0.9487 0.42595 0.54691 0.0
C12 C 0.97932 0.38023 0.55789 0.0
C13 C 0.99681 0.34883 0.51253 0.0
C14 C 0.89434 0.483 0.48272 0.0
C15 C 0.91833 0.5382 0.48743 0.0
C16 C 0.93421 0.56561 0.43906 0.0
C17 C 0.95587 0.61733 0.44291 0.0
C18 C 0.96209 0.64119 0.49562 0.0
C19 C 0.94658 0.61444 0.54444 0.0
C20 C 0.92466 0.56282 0.54004 0.0
H21 H 0.47571 0.05122 0.38622 0.0
H22 H 0.45746 0.07614 0.56267 0.0
H23 H 0.33429 0.00459 0.46833 0.0
H24 H 0.52536 0.12254 0.43848 0.0
H25 H 0.5234 0.12432 0.51294 0.0
H26 H 0.58135 0.05995 0.38938 0.0
H27 H 0.6921 0.97 0.4849 0.0
H28 H 0.56669 0.05158 0.56848 0.0
C29 C 0.45271 0.04663 0.42381 0.0
C30 C 0.40266 0.02455 0.42072 0.0
C31 C 0.47256 0.06534 0.47487 0.0
C32 C 0.4428 0.06013 0.52364 0.0
C33 C 0.39287 0.03813 0.52159 0.0
C34 C 0.3734 0.01997 0.47014 0.0
C35 C 0.52256 0.09661 0.47628 0.0
C36 C 0.5687 0.05944 0.47866 0.0
C37 C 0.59499 0.04513 0.4293 0.0
C38 C 0.6392 0.01235 0.4314 0.0
C39 C 0.65678 -0.00641 0.48321 0.0
C40 C 0.63119 0.00759 0.533 0.0
C41 C 0.5868 0.04034 0.53038 0.0
H42 H 0.53622 0.38254 0.1398 0.0
H43 H 0.60433 0.54104 0.14324 0.0
H44 H 0.67771 0.41312 0.05075 0.0
H45 H 0.50901 0.45096 0.21034 0.0
H46 H 0.53681 0.51702 0.21041 0.0
H47 H 0.43715 0.42914 0.1492 0.0
H48 H 0.36168 0.55851 0.06183 0.0
H49 H 0.50796 0.58624 0.14126 0.0
C50 C 0.56616 0.41027 0.12652 0.0
C51 C 0.60637 0.39187 0.09176 0.0
C52 C 0.56495 0.46437 0.1447 0.0
C53 C 0.60481 0.49956 0.12867 0.0
C54 C 0.64546 0.48135 0.09446 0.0
C55 C 0.64542 0.42782 0.07555 0.0
C56 C 0.52237 0.48425 0.18272 0.0
C57 C 0.47762 0.50522 0.1488 0.0
C58 C 0.43651 0.47069 0.13506 0.0
C59 C 0.39451 0.48964 0.1036 0.0
C60 C 0.39467 0.54313 0.08475 0.0
C61 C 0.4353 0.57815 0.09812 0.0
C62 C 0.47672 0.55916 0.13036 0.0
Zn63 Zn 0.09381 0.14044 0.93374 0.0
Zn64 Zn 0.08464 0.11817 0.06627 0.0
O65 O 0.08984 0.08153 0.9921 0.0
H66 H 0.0926 0.04317 0.98525 0.0
C67 C 0.95909 0.16793 0.90224 0.0
O68 O 0.94094 0.18514 0.95045 0.0
Zn69 Zn 0.95203 0.85472 0.05846 0.0
Zn70 Zn 0.92259 0.84768 0.92701 0.0
O71 O 0.94005 0.89946 0.99004 0.0
H72 H 0.94703 0.93754 0.98604 0.0
Zn73 Zn 0.9188 0.06901 0.94734 0.0
O74 O 0.96256 0.04672 0.01294 0.0
Zn75 Zn 0.91486 0.04045 0.07792 0.0
H76 H 0.99547 0.02842 0.00983 0.0
Zn77 Zn 0.1302 0.89601 0.93626 0.0
O78 O 0.08391 0.92132 -0.00109 0.0
H79 H 0.05005 0.93725 0.99447 0.0
Zn80 Zn 0.12845 0.92752 0.06615 0.0
C81 C 0.07747 0.80583 0.88151 0.0
O82 O 0.08417 0.78357 0.93075 0.0
O83 O 0.11476 0.21326 0.9687 0.0
O84 O 0.10154 0.19782 0.05922 0.0
O85 O 0.90775 0.77089 0.95517 0.0
O86 O 0.93472 0.77588 0.04317 0.0
O87 O 0.84386 0.08996 0.96894 0.0
O88 O 0.8436 0.07033 0.05953 0.0
C89 C 0.15218 0.03845 0.11612 0.0
O90 O 0.20362 0.87464 0.96188 0.0
O91 O 0.20174 0.90092 0.0509 0.0
O92 O 0.87527 0.87407 0.86253 0.0
C93 C 0.11513 0.22905 0.01944 0.0
O94 O 0.13042 0.11972 0.85949 0.0
C95 C 0.89021 0.92727 0.12453 0.0
O96 O 0.955 0.11823 0.88988 0.0
C97 C 0.91537 0.7492 0.00266 0.0
O98 O 0.0945 0.85319 0.87285 0.0
C99 C 0.98739 0.10552 0.14017 0.0
O100 O 0.14001 0.08813 0.11588 0.0
O101 O 0.12546 0.006 0.08703 0.0
C102 C 0.82085 0.08822 0.01608 0.0
O103 O 0.90167 0.87785 0.11815 0.0
O104 O 0.91315 0.96117 0.0935 0.0
C105 C 0.05443 0.85955 0.12538 0.0
O106 O 0.94367 0.08241 0.14322 0.0
O107 O 0.01369 0.10015 0.0956 0.0
C108 C 0.22559 0.88019 0.00919 0.0
O109 O 0.09914 0.88072 0.1269 0.0
O110 O 0.02559 0.86974 0.08362 0.0
C111 C 0.84585 0.91513 0.86649 0.0
O112 O 0.84627 0.94408 0.91255 0.0
C113 C 0.1734 0.09496 0.86271 0.0
O114 O 0.19198 0.08321 0.91227 0.0
H115 H 0.01443 0.38458 0.34983 0.0
H116 H 0.97958 0.08021 0.24958 0.0
H117 H 0.97941 0.25115 0.4592 0.0
H118 H 0.03143 0.20592 0.13888 0.0
H119 H 0.98976 0.14137 0.32864 0.0
H120 H 0.02898 0.32007 0.27326 0.0
C121 C 1.0102 0.3418 0.35786 0.0
C122 C 0.99571 0.32335 0.41112 0.0
C123 C 0.99994 0.15556 0.2873 0.0
C124 C 0.01248 0.24946 0.32397 0.0
C125 C 0.99438 0.12048 0.24223 0.0
C126 C 1.00505 0.13809 0.18789 0.0
C127 C 0.01506 0.20924 0.27789 0.0
C128 C 0.02372 0.19068 0.18037 0.0
C129 C 0.01884 0.30501 0.31428 0.0
C130 C 0.99126 0.26741 0.41925 0.0
N131 N 0.0273 0.22488 0.22485 0.0
N132 N 0.99922 0.23268 0.37618 0.0
H133 H 0.67346 0.91372 0.39708 0.0
H134 H 0.85719 0.02923 0.15722 0.0
H135 H 0.67407 0.08186 0.35075 0.0
H136 H 0.83192 0.85967 0.18762 0.0
H137 H 0.79069 0.05076 0.22687 0.0
H138 H 0.73148 0.89395 0.31911 0.0
C139 C 0.68557 0.94638 0.37003 0.0
C140 C 0.66919 -0.00056 0.38032 0.0
C141 C 0.79959 0.00887 0.21789 0.0
C142 C 0.73613 0.97743 0.29127 0.0
C143 C 0.83757 -0.00341 0.17801 0.0
C144 C 0.85024 0.94263 0.16616 0.0
C145 C 0.77455 0.9668 0.24643 0.0
C146 C 0.82375 0.90194 0.19526 0.0
C147 C 0.71867 0.93517 0.32551 0.0
C148 C 0.68568 0.04033 0.3439 0.0
N149 N 0.78746 0.91488 0.23402 0.0
N150 N 0.71877 0.02858 0.30122 0.0
H151 H 0.9014 0.631 0.34579 0.0
H152 H 0.10813 0.83775 0.2202 0.0
H153 H 0.04523 0.67296 0.42542 0.0
H154 H 0.96499 0.79945 0.13752 0.0
H155 H 0.08543 0.77592 0.29467 0.0
H156 H 0.92463 0.68906 0.26672 0.0
C157 C 0.93812 0.65191 0.34625 0.0
C158 C 0.97131 0.64757 0.3923 0.0
C159 C 0.05881 0.78095 0.26024 0.0
C160 C 0.99772 0.71435 0.30279 0.0
C161 C 0.07168 0.81649 0.21755 0.0
C162 C 0.03836 0.82396 0.17196 0.0
C163 C 0.01216 0.75235 0.2577 0.0
C164 C 0.99177 0.79515 0.17137 0.0
C165 C 0.95115 0.68532 0.30142 0.0
C166 C 0.01818 0.67584 0.39113 0.0
N167 N 0.98 0.76052 0.21354 0.0
N168 N 0.02985 0.70815 0.34726 0.0
H169 H 0.4134 0.08088 0.32287 0.0
H170 H 0.16745 0.94635 0.17898 0.0
H171 H 0.33457 0.94297 0.39264 0.0
H172 H 0.24108 0.0937 0.12638 0.0
H173 H 0.23875 0.9311 0.24524 0.0
H174 H 0.36252 0.07164 0.2385 0.0
C175 C 0.38625 0.04781 0.32019 0.0
C176 C 0.37799 0.01314 0.36566 0.0
C177 C 0.23966 0.96619 0.21836 0.0
C178 C 0.31777 0.00349 0.26897 0.0
C179 C 0.19922 0.97463 0.18038 0.0
C180 C 0.19823 0.02165 0.14787 0.0
C181 C 0.27918 0.00493 0.22313 0.0
C182 C 0.24004 0.05734 0.1514 0.0
C183 C 0.35665 0.04289 0.27193 0.0
C184 C 0.34141 0.97156 0.35933 0.0
N185 N 0.27845 0.0485 0.18863 0.0
N186 N 0.31207 0.96841 0.3123 0.0
H187 H 0.92804 0.71974 0.57287 0.0
H188 H 0.05331 0.69808 0.87712 0.0
H189 H 0.9832 0.56929 0.64146 0.0
H190 H 0.04043 0.8462 0.78339 0.0
H191 H 0.01259 0.64959 0.79944 0.0
H192 H 0.95292 0.7656 0.65893 0.0
C193 C 0.94519 0.69628 0.6062 0.0
C194 C 0.95452 0.64078 0.59953 0.0
C195 C 0.01853 0.69274 0.79614 0.0
C196 C 0.98273 0.69305 0.69843 0.0
C197 C 0.04168 0.72044 0.84039 0.0
C198 C 0.05084 0.77616 0.8364 0.0
C199 C 1.00388 0.72115 0.74801 0.0
C200 C 0.03473 0.80315 0.788 0.0
C201 C 0.95929 0.72249 0.65534 0.0
C202 C 0.97546 0.61216 0.64477 0.0
N203 N 0.01213 0.77538 0.74571 0.0
N204 N 0.98938 0.63875 0.6922 0.0
H205 H 0.41783 0.01195 0.62969 0.0
H206 H 0.14603 0.11214 0.75363 0.0
H207 H 0.29135 0.0689 0.52829 0.0
H208 H 0.2688 0.04724 0.85542 0.0
H209 H 0.1977 0.09317 0.67027 0.0
H210 H 0.36299 0.02137 0.71274 0.0
C211 C 0.37846 0.02616 0.62489 0.0
C212 C 0.35915 0.03955 0.57195 0.0
C213 C 0.21328 0.08285 0.71081 0.0
C214 C 0.2962 0.05053 0.6667 0.0
C215 C 0.18377 0.09371 0.75847 0.0
C216 C 0.20321 0.08153 0.81165 0.0
C217 C 0.26272 0.05983 0.71629 0.0
C218 C 0.25232 0.05751 0.81529 0.0
C219 C 0.34712 0.03139 0.67225 0.0
C220 C 0.30769 0.05736 0.5681 0.0
N221 N 0.28048 0.0477 0.7683 0.0
N222 N 0.27816 0.0626 0.61482 0.0
H223 H 0.9139 0.39123 0.64832 0.0
H224 H 0.02067 0.14835 0.81123 0.0
H225 H 0.06281 0.32458 0.60204 0.0
H226 H 0.9375 0.27559 0.89644 0.0
H227 H 0.03759 0.21032 0.7336 0.0
H228 H 0.92192 0.3495 0.73924 0.0
C229 C 0.94897 0.36906 0.65728 0.0
C230 C 0.98752 0.36131 0.61643 0.0
C231 C 0.01655 0.22488 0.76984 0.0
C232 C 0.99552 0.31116 0.7207 0.0
C233 C 1.00663 0.18953 0.81391 0.0
C234 C 0.9769 0.20672 0.85977 0.0
C235 C 0.99543 0.27712 0.77125 0.0
C236 C 0.96018 0.26061 0.8616 0.0
C237 C 0.95324 0.34481 0.70946 0.0
C238 C 0.03125 0.33052 0.63117 0.0
N239 N 0.96866 0.29361 0.81731 0.0
N240 N 0.03353 0.30555 0.68166 0.0
H241 H 0.66981 0.90843 0.56095 0.0
H242 H 0.78313 0.00428 0.85599 0.0
H243 H 0.6445 0.06813 0.62822 0.0
H244 H 0.82689 0.8566 0.77185 0.0
H245 H 0.72432 0.02499 0.77877 0.0
H246 H 0.71819 0.88475 0.64475 0.0
C247 C 0.67413 0.93841 0.59362 0.0
C248 C 0.6536 0.99054 0.58727 0.0
C249 C 0.74675 0.98803 0.77738 0.0
C250 C 0.70914 0.96373 0.68351 0.0
C251 C 0.78036 0.97619 0.82138 0.0
C252 C 0.8102 0.92873 0.82029 0.0
C253 C 0.74273 0.95196 0.7322 0.0
C254 C 0.80492 0.89379 0.77441 0.0
C255 C 0.70179 0.92489 0.64147 0.0
C256 C 0.65954 0.02743 0.63144 0.0
N257 N 0.7719 0.90611 0.73233 0.0
N258 N 0.6872 0.01348 0.67752 0.0
H259 H 0.34376 0.42353 0.17681 0.0
H260 H 0.15163 0.30626 0.9475 0.0
H261 H 0.34109 0.47793 0.00571 0.0
H262 H 0.14199 0.26707 0.12299 0.0
H263 H 0.21516 0.3757 0.96935 0.0
H264 H 0.26681 0.36923 0.15871 0.0
C265 C 0.32717 0.4237 0.13532 0.0
C266 C 0.34905 0.45492 0.09258 0.0
C267 C 0.19856 0.35247 0.00318 0.0
C268 C 0.26051 0.39363 0.07173 0.0
C269 C 0.16197 0.31298 0.99078 0.0
C270 C 0.14207 0.27998 0.03332 0.0
C271 C 0.2157 0.35872 0.05844 0.0
C272 C 0.15668 0.291 0.08867 0.0
C273 C 0.28289 0.39323 0.12516 0.0
C274 C 0.32534 0.45455 0.03989 0.0
N275 N 0.1933 0.32877 0.0995 0.0
N276 N 0.28254 0.42415 0.03087 0.0
H277 H 0.43474 0.66677 0.16611 0.0
H278 H 0.28898 0.83283 0.93115 0.0
H279 H 0.4226 0.61879 0.99353 0.0
H280 H 0.27881 0.86819 0.10763 0.0
H281 H 0.36107 0.77196 0.94973 0.0
H282 H 0.40157 0.75649 0.14138 0.0
C283 C 0.42682 0.67586 0.12271 0.0
C284 C 0.43069 0.63546 0.0818 0.0
C285 C 0.34371 0.79379 0.9843 0.0
C286 C 0.39205 0.73706 0.0534 0.0
C287 C 0.30251 0.82869 0.97372 0.0
C288 C 0.27672 0.8545 0.01808 0.0
C289 C 0.359 0.78422 0.03966 0.0
C290 C 0.29676 0.84827 0.0722 0.0
C291 C 0.40751 0.72683 0.10866 0.0
C292 C 0.41955 0.64889 0.02627 0.0
N293 N 0.33602 0.81286 0.08163 0.0
N294 N 0.39995 0.69828 0.01382 0.0
H295 H 0.60629 0.3047 0.16146 0.0
H296 H 0.76153 0.1353 0.93469 0.0
H297 H 0.62193 0.34868 0.98813 0.0
H298 H 0.76351 0.10228 0.11179 0.0
H299 H 0.68876 0.19657 0.94935 0.0
H300 H 0.64096 0.21495 0.13935 0.0
C301 C 0.61536 0.29476 0.11842 0.0
C302 C 0.61211 0.33419 0.07664 0.0
C303 C 0.70449 0.17517 0.98488 0.0
C304 C 0.65263 0.23242 0.05123 0.0
C305 C 0.74608 0.14005 0.97654 0.0
C306 C 0.76972 0.11474 0.02229 0.0
C307 C 0.6866 0.18537 0.03938 0.0
C308 C 0.74729 0.12181 0.07538 0.0
C309 C 0.63556 0.24374 0.10587 0.0
C310 C 0.62465 0.31949 0.02162 0.0
N311 N 0.70766 0.1573 0.08263 0.0
N312 N 0.64521 0.2701 0.01065 0.0
H313 H 0.69968 0.54601 0.16581 0.0
H314 H 0.87248 0.67801 0.92816 0.0
H315 H 0.69309 0.4958 0.99328 0.0
H316 H 0.90003 0.70143 0.10446 0.0
H317 H 0.81153 0.6062 0.95077 0.0
H318 H 0.77508 0.60144 0.14393 0.0
C319 C 0.71393 0.54703 0.12322 0.0
C320 C 0.68989 0.51674 0.08118 0.0
C321 C 0.8316 0.62641 0.98447 0.0
C322 C 0.77657 0.57935 0.05591 0.0
C323 C 0.86668 0.66726 0.97157 0.0
C324 C 0.89075 0.69657 0.01448 0.0
C325 C 0.8201 0.61524 0.04063 0.0
C326 C 0.882 0.68043 0.06994 0.0
C327 C 0.75734 0.5781 0.11087 0.0
C328 C 0.71056 0.51858 0.02691 0.0
N329 N 0.84662 0.64159 0.08145 0.0
N330 N 0.7525 0.54968 0.01574 0.0
loop_
_geom_bond_atom_site_label_1
_geom_bond_atom_site_label_2
_geom_bond_distance
_geom_bond_site_symmetry_2
_ccdc_geom_bond_type
H0 C8 0.930 . S
H1 C11 0.930 . S
H2 C13 0.930 . S
H3 C14 0.970 . S
H4 C14 0.970 . S
H5 C16 0.930 . S
H6 C18 0.930 . S
H7 C20 0.930 . S
C8 H0 0.930 . S
C8 C9 1.382 . S
C8 C10 1.426 . S
C9 C8 1.382 . S
C9 C13 1.389 1_655 S
C10 C8 1.426 . S
C10 C11 1.375 . S
C10 C14 1.532 . S
C11 H1 0.930 . S
C11 C10 1.375 . S
C11 C12 1.416 . S
C12 C11 1.416 . S
C12 C13 1.371 1_655 S
C13 H2 0.930 . S
C13 C9 1.389 1_455 S
C13 C12 1.371 1_455 S
C14 H3 0.970 . S
C14 H4 0.970 . S
C14 C10 1.532 . S
C14 C15 1.499 . S
C15 C14 1.499 . S
C15 C16 1.370 . S
C15 C20 1.415 . S
C16 H5 0.930 . S
C16 C15 1.370 . S
C16 C17 1.407 . S
C17 C16 1.407 . S
C17 C18 1.365 1_655 S
C18 H6 0.930 . S
C18 C17 1.365 1_455 S
C18 C19 1.393 1_455 S
C19 C18 1.393 1_655 S
C19 C20 1.387 . S
C20 H7 0.930 . S
C20 C15 1.415 . S
C20 C19 1.387 . S
H21 C29 0.930 . S
H22 C32 0.930 . S
H23 C34 0.930 . S
H24 C35 0.970 . S
H25 C35 0.970 . S
H26 C37 0.930 . S
H27 C39 0.930 . S
H28 C41 0.930 . S
C29 H21 0.930 . S
C29 C30 1.382 . S
C29 C31 1.426 . S
C30 C29 1.382 . S
C30 C34 1.389 1_545 S
C31 C29 1.426 . S
C31 C32 1.375 . S
C31 C35 1.532 . S
C32 H22 0.930 . S
C32 C31 1.375 . S
C32 C33 1.416 . S
C33 C32 1.416 . S
C33 C34 1.371 1_545 S
C34 H23 0.930 . S
C34 C30 1.389 1_565 S
C34 C33 1.371 1_565 S
C35 H24 0.970 . S
C35 H25 0.970 . S
C35 C31 1.532 . S
C35 C36 1.499 . S
C36 C35 1.499 . S
C36 C37 1.370 . S
C36 C41 1.415 . S
C37 H26 0.930 . S
C37 C36 1.370 . S
C37 C38 1.407 . S
C38 C37 1.407 . S
C38 C39 1.365 1_545 S
C39 H27 0.930 . S
C39 C38 1.365 1_565 S
C39 C40 1.393 1_565 S
C40 C39 1.393 1_545 S
C40 C41 1.387 . S
C41 H28 0.930 . S
C41 C36 1.415 . S
C41 C40 1.387 . S
H42 C50 0.930 . S
H43 C53 0.930 . S
H44 C55 0.930 1_556 S
H45 C56 0.970 . S
H46 C56 0.970 . S
H47 C58 0.930 . S
H48 C60 0.930 1_556 S
H49 C62 0.930 . S
C50 H42 0.930 . S
C50 C51 1.382 . S
C50 C52 1.426 . S
C51 C50 1.382 . S
C51 C55 1.389 . S
C52 C50 1.426 . S
C52 C53 1.375 . S
C52 C56 1.532 . S
C53 H43 0.930 . S
C53 C52 1.375 . S
C53 C54 1.416 . S
C54 C53 1.416 . S
C54 C55 1.371 . S
C55 H44 0.930 1_554 S
C55 C51 1.389 . S
C55 C54 1.371 . S
C56 H45 0.970 . S
C56 H46 0.970 . S
C56 C52 1.532 . S
C56 C57 1.499 . S
C57 C56 1.499 . S
C57 C58 1.370 . S
C57 C62 1.415 . S
C58 H47 0.930 . S
C58 C57 1.370 . S
C58 C59 1.407 . S
C59 C58 1.407 . S
C59 C60 1.365 . S
C60 H48 0.930 1_554 S
C60 C59 1.365 . S
C60 C61 1.393 . S
C61 C60 1.393 . S
C61 C62 1.387 . S
C62 H49 0.930 . S
C62 C57 1.415 . S
C62 C61 1.387 . S
Zn63 O65 1.933 1_556 S
Zn63 O83 1.985 . S
Zn63 O94 1.955 . S
Zn64 O65 1.911 . S
Zn64 O84 1.970 . S
Zn64 O100 1.945 . S
Zn64 O107 1.981 . S
O65 Zn63 1.933 1_554 S
O65 Zn64 1.911 . S
O65 H66 0.841 . S
H66 O65 0.841 . S
C67 O68 1.246 . S
C67 O96 1.276 1_455 S
O68 C67 1.246 . S
Zn69 O71 1.911 . S
Zn69 O86 1.970 . S
Zn69 O103 1.945 . S
Zn69 O110 1.981 . S
Zn70 O71 1.933 1_556 S
Zn70 O85 1.985 . S
Zn70 O92 1.955 . S
O71 Zn69 1.911 . S
O71 Zn70 1.933 1_554 S
O71 H72 0.841 . S
H72 O71 0.841 . S
Zn73 O74 1.933 1_556 S
Zn73 O87 1.985 . S
Zn73 O96 1.955 . S
O74 Zn73 1.933 1_554 S
O74 Zn75 1.911 . S
O74 H76 0.841 . S
Zn75 O74 1.911 . S
Zn75 O88 1.970 . S
Zn75 O104 1.981 . S
Zn75 O106 1.945 . S
H76 O74 0.841 . S
Zn77 O78 1.933 1_556 S
Zn77 O90 1.985 . S
Zn77 O98 1.955 . S
O78 Zn77 1.933 1_554 S
O78 H79 0.841 . S
O78 Zn80 1.911 . S
H79 O78 0.841 . S
Zn80 O78 1.911 . S
Zn80 O91 1.970 . S
Zn80 O101 1.981 . S
Zn80 O109 1.945 . S
C81 O82 1.246 . S
C81 O98 1.276 1_655 S
O82 C81 1.246 . S
O83 Zn63 1.985 . S
O83 C93 1.245 1_556 S
O84 Zn64 1.970 . S
O84 C93 1.263 . S
O85 Zn70 1.985 . S
O85 C97 1.245 1_556 S
O86 Zn69 1.970 . S
O86 C97 1.263 . S
O87 Zn73 1.985 . S
O87 C102 1.245 1_556 S
O88 Zn75 1.970 . S
O88 C102 1.263 . S
C89 O100 1.262 . S
C89 O101 1.245 1_545 S
O90 Zn77 1.985 . S
O90 C108 1.245 1_556 S
O91 Zn80 1.970 . S
O91 C108 1.263 . S
O92 Zn70 1.955 . S
O92 C111 1.276 1_565 S
C93 O83 1.245 1_554 S
C93 O84 1.263 . S
O94 Zn63 1.955 . S
O94 C113 1.276 1_545 S
C95 O103 1.269 . S
C95 O104 1.241 1_565 S
O96 C67 1.276 1_655 S
O96 Zn73 1.955 . S
C97 O85 1.245 1_554 S
C97 O86 1.263 . S
O98 Zn77 1.955 . S
O98 C81 1.276 1_455 S
C99 O106 1.260 . S
C99 O107 1.246 1_655 S
O100 Zn64 1.945 . S
O100 C89 1.262 . S
O101 Zn80 1.981 . S
O101 C89 1.245 1_565 S
C102 O87 1.245 1_554 S
C102 O88 1.263 . S
O103 Zn69 1.945 . S
O103 C95 1.269 . S
O104 Zn75 1.981 . S
O104 C95 1.241 1_545 S
C105 O109 1.264 . S
C105 O110 1.244 1_455 S
O106 Zn75 1.945 . S
O106 C99 1.260 . S
O107 Zn64 1.981 . S
O107 C99 1.246 1_455 S
C108 O90 1.245 1_554 S
C108 O91 1.263 . S
O109 Zn80 1.945 . S
O109 C105 1.264 . S
O110 Zn69 1.981 . S
O110 C105 1.244 1_655 S
C111 O92 1.276 1_545 S
C111 O112 1.246 . S
O112 C111 1.246 . S
C113 O94 1.276 1_565 S
C113 O114 1.246 . S
O114 C113 1.246 . S
H115 C121 0.930 . S
H116 C125 0.930 . S
H117 C130 0.929 . S
H118 C128 0.929 . S
H119 C123 0.929 . S
H120 C129 0.929 . S
C121 H115 0.930 . S
C121 C122 1.367 1_455 S
C121 C129 1.378 . S
C122 C121 1.367 1_655 S
C122 C130 1.433 . S
C123 H119 0.929 . S
C123 C125 1.378 . S
C123 C127 1.350 1_655 S
C124 C127 1.463 . S
C124 C129 1.350 . S
C124 N132 1.427 1_455 S
C125 H116 0.930 . S
C125 C123 1.378 . S
C125 C126 1.367 1_655 S
C126 C125 1.367 1_455 S
C126 C128 1.433 . S
C127 C123 1.350 1_455 S
C127 C124 1.463 . S
C127 N131 1.427 . S
C128 H118 0.929 . S
C128 C126 1.433 . S
C128 N131 1.384 . S
C129 H120 0.929 . S
C129 C121 1.378 . S
C129 C124 1.350 . S
C130 H117 0.929 . S
C130 C122 1.433 . S
C130 N132 1.384 . S
N131 C127 1.427 . S
N131 C128 1.384 . S
N132 C124 1.427 1_655 S
N132 C130 1.384 . S
H133 C139 0.930 . S
H134 C143 0.930 . S
H135 C148 0.929 . S
H136 C146 0.929 . S
H137 C141 0.929 . S
H138 C147 0.929 . S
C139 H133 0.930 . S
C139 C140 1.367 . S
C139 C147 1.378 . S
C140 C139 1.367 . S
C140 C148 1.433 1_565 S
C141 H137 0.929 . S
C141 C143 1.378 . S
C141 C145 1.350 . S
C142 C145 1.463 . S
C142 C147 1.350 1_545 S
C142 N150 1.427 . S
C143 H134 0.930 . S
C143 C141 1.378 . S
C143 C144 1.367 . S
C144 C143 1.367 . S
C144 C146 1.433 1_545 S
C145 C141 1.350 . S
C145 C142 1.463 . S
C145 N149 1.427 1_545 S
C146 H136 0.929 . S
C146 C144 1.433 1_565 S
C146 N149 1.384 . S
C147 H138 0.929 . S
C147 C139 1.378 . S
C147 C142 1.350 1_565 S
C148 H135 0.929 . S
C148 C140 1.433 1_545 S
C148 N150 1.384 . S
N149 C145 1.427 1_565 S
N149 C146 1.384 . S
N150 C142 1.427 . S
N150 C148 1.384 . S
H151 C157 0.930 . S
H152 C161 0.930 . S
H153 C166 0.929 . S
H154 C164 0.929 . S
H155 C159 0.929 . S
H156 C165 0.929 . S
C157 H151 0.930 . S
C157 C158 1.367 1_655 S
C157 C165 1.378 . S
C158 C157 1.367 1_455 S
C158 C166 1.433 . S
C159 H155 0.929 . S
C159 C161 1.378 . S
C159 C163 1.350 1_455 S
C160 C163 1.463 . S
C160 C165 1.350 . S
C160 N168 1.427 1_655 S
C161 H152 0.930 . S
C161 C159 1.378 . S
C161 C162 1.367 1_455 S
C162 C161 1.367 1_655 S
C162 C164 1.433 . S
C163 C159 1.350 1_655 S
C163 C160 1.463 . S
C163 N167 1.427 . S
C164 H154 0.929 . S
C164 C162 1.433 . S
C164 N167 1.384 . S
C165 H156 0.929 . S
C165 C157 1.378 . S
C165 C160 1.350 . S
C166 H153 0.929 . S
C166 C158 1.433 . S
C166 N168 1.384 . S
N167 C163 1.427 . S
N167 C164 1.384 . S
N168 C160 1.427 1_455 S
N168 C166 1.384 . S
H169 C175 0.930 . S
H170 C179 0.930 . S
H171 C184 0.929 . S
H172 C182 0.929 . S
H173 C177 0.929 . S
H174 C183 0.929 . S
C175 H169 0.930 . S
C175 C176 1.367 . S
C175 C183 1.378 . S
C176 C175 1.367 . S
C176 C184 1.433 1_545 S
C177 H173 0.929 . S
C177 C179 1.378 . S
C177 C181 1.350 . S
C178 C181 1.463 . S
C178 C183 1.343 1_565 S
C178 N186 1.434 . S
C179 H170 0.930 . S
C179 C177 1.378 . S
C179 C180 1.367 . S
C180 C179 1.367 . S
C180 C182 1.433 1_565 S
C181 C177 1.350 . S
C181 C178 1.463 . S
C181 N185 1.427 1_565 S
C182 H172 0.929 . S
C182 C180 1.433 1_545 S
C182 N185 1.384 . S
C183 H174 0.929 . S
C183 C175 1.378 . S
C183 C178 1.343 1_545 S
C184 H171 0.929 . S
C184 C176 1.433 1_565 S
C184 N186 1.384 . S
N185 C181 1.427 1_545 S
N185 C182 1.384 . S
N186 C178 1.434 . S
N186 C184 1.384 . S
H187 C193 0.930 . S
H188 C197 0.930 . S
H189 C202 0.929 . S
H190 C200 0.929 . S
H191 C195 0.929 . S
H192 C201 0.929 . S
C193 H187 0.930 . S
C193 C194 1.367 . S
C193 C201 1.378 . S
C194 C193 1.367 . S
C194 C202 1.433 1_655 S
C195 H191 0.929 . S
C195 C197 1.378 . S
C195 C199 1.350 1_455 S
C196 C199 1.463 . S
C196 C201 1.350 . S
C196 N204 1.427 1_655 S
C197 H188 0.930 . S
C197 C195 1.378 . S
C197 C198 1.367 1_455 S
C198 C197 1.367 1_655 S
C198 C200 1.433 . S
C199 C195 1.350 1_655 S
C199 C196 1.463 . S
C199 N203 1.427 . S
C200 H190 0.929 . S
C200 C198 1.433 . S
C200 N203 1.384 . S
C201 H192 0.929 . S
C201 C193 1.378 . S
C201 C196 1.350 . S
C202 H189 0.929 . S
C202 C194 1.433 1_455 S
C202 N204 1.384 . S
N203 C199 1.427 . S
N203 C200 1.384 . S
N204 C196 1.427 1_455 S
N204 C202 1.384 . S
H205 C211 0.930 . S
H206 C215 0.930 . S
H207 C220 0.929 . S
H208 C218 0.929 . S
H209 C213 0.929 . S
H210 C219 0.929 . S
C211 H205 0.930 . S
C211 C212 1.367 . S
C211 C219 1.378 . S
C212 C211 1.367 . S
C212 C220 1.433 1_565 S
C213 H209 0.929 . S
C213 C215 1.378 . S
C213 C217 1.350 1_545 S
C214 C217 1.463 . S
C214 C219 1.350 . S
C214 N222 1.427 1_565 S
C215 H206 0.930 . S
C215 C213 1.378 . S
C215 C216 1.367 1_545 S
C216 C215 1.367 1_565 S
C216 C218 1.433 . S
C217 C213 1.350 1_565 S
C217 C214 1.463 . S
C217 N221 1.427 . S
C218 H208 0.929 . S
C218 C216 1.433 . S
C218 N221 1.384 . S
C219 H210 0.929 . S
C219 C211 1.378 . S
C219 C214 1.350 . S
C220 H207 0.929 . S
C220 C212 1.433 1_545 S
C220 N222 1.384 . S
N221 C217 1.427 . S
N221 C218 1.384 . S
N222 C214 1.427 1_545 S
N222 C220 1.384 . S
H223 C229 0.930 . S
H224 C233 0.930 . S
H225 C238 0.929 . S
H226 C236 0.929 . S
H227 C231 0.929 . S
H228 C237 0.929 . S
C229 H223 0.930 . S
C229 C230 1.367 1_655 S
C229 C237 1.378 . S
C230 C229 1.367 1_455 S
C230 C238 1.433 . S
C231 H227 0.929 . S
C231 C233 1.378 . S
C231 C235 1.350 . S
C232 C235 1.463 . S
C232 C237 1.350 1_455 S
C232 N240 1.427 . S
C233 H224 0.930 . S
C233 C231 1.378 . S
C233 C234 1.367 . S
C234 C233 1.367 . S
C234 C236 1.433 1_455 S
C235 C231 1.350 . S
C235 C232 1.463 . S
C235 N239 1.427 1_455 S
C236 H226 0.929 . S
C236 C234 1.433 1_655 S
C236 N239 1.384 . S
C237 H228 0.929 . S
C237 C229 1.378 . S
C237 C232 1.350 1_655 S
C238 H225 0.929 . S
C238 C230 1.433 . S
C238 N240 1.384 . S
N239 C235 1.427 1_655 S
N239 C236 1.384 . S
N240 C232 1.427 . S
N240 C238 1.384 . S
H241 C247 0.930 . S
H242 C251 0.930 . S
H243 C256 0.929 . S
H244 C254 0.929 . S
H245 C249 0.929 . S
H246 C255 0.929 . S
C247 H241 0.930 . S
C247 C248 1.367 1_565 S
C247 C255 1.378 . S
C248 C247 1.367 1_545 S
C248 C256 1.433 . S
C249 H245 0.929 . S
C249 C251 1.378 . S
C249 C253 1.350 . S
C250 C253 1.463 . S
C250 C255 1.350 1_545 S
C250 N258 1.427 . S
C251 H242 0.930 . S
C251 C249 1.378 . S
C251 C252 1.367 . S
C252 C251 1.367 . S
C252 C254 1.433 1_545 S
C253 C249 1.350 . S
C253 C250 1.463 . S
C253 N257 1.427 1_545 S
C254 H244 0.929 . S
C254 C252 1.433 1_565 S
C254 N257 1.384 . S
C255 H246 0.929 . S
C255 C247 1.378 . S
C255 C250 1.350 1_565 S
C256 H243 0.929 . S
C256 C248 1.433 . S
C256 N258 1.384 . S
N257 C253 1.427 1_565 S
N257 C254 1.384 . S
N258 C250 1.427 . S
N258 C256 1.384 . S
H259 C265 0.930 . S
H260 C269 0.930 . S
H261 C274 0.929 . S
H262 C272 0.929 . S
H263 C267 0.929 . S
H264 C273 0.929 . S
C265 H259 0.930 . S
C265 C266 1.367 . S
C265 C273 1.378 . S
C266 C265 1.367 . S
C266 C274 1.433 1_554 S
C267 H263 0.929 . S
C267 C269 1.378 . S
C267 C271 1.350 1_556 S
C268 C271 1.463 . S
C268 C273 1.350 . S
C268 N276 1.427 1_554 S
C269 H260 0.930 . S
C269 C267 1.378 . S
C269 C270 1.367 1_556 S
C270 C269 1.367 1_554 S
C270 C272 1.433 . S
C271 C267 1.350 1_554 S
C271 C268 1.463 . S
C271 N275 1.427 . S
C272 H262 0.929 . S
C272 C270 1.433 . S
C272 N275 1.384 . S
C273 H264 0.929 . S
C273 C265 1.378 . S
C273 C268 1.350 . S
C274 H261 0.929 . S
C274 C266 1.433 1_556 S
C274 N276 1.384 . S
N275 C271 1.427 . S
N275 C272 1.384 . S
N276 C268 1.427 1_556 S
N276 C274 1.384 . S
H277 C283 0.930 . S
H278 C287 0.930 . S
H279 C292 0.929 . S
H280 C290 0.929 . S
H281 C285 0.929 . S
H282 C291 0.929 . S
C283 H277 0.930 . S
C283 C284 1.367 . S
C283 C291 1.378 . S
C284 C283 1.367 . S
C284 C292 1.433 1_554 S
C285 H281 0.929 . S
C285 C287 1.378 . S
C285 C289 1.350 1_556 S
C286 C289 1.463 . S
C286 C291 1.350 . S
C286 N294 1.427 1_554 S
C287 H278 0.930 . S
C287 C285 1.378 . S
C287 C288 1.367 1_556 S
C288 C287 1.367 1_554 S
C288 C290 1.433 . S
C289 C285 1.350 1_554 S
C289 C286 1.463 . S
C289 N293 1.427 . S
C290 H280 0.929 . S
C290 C288 1.433 . S
C290 N293 1.384 . S
C291 H282 0.929 . S
C291 C283 1.378 . S
C291 C286 1.350 . S
C292 H279 0.929 . S
C292 C284 1.433 1_556 S
C292 N294 1.384 . S
N293 C289 1.427 . S
N293 C290 1.384 . S
N294 C286 1.427 1_556 S
N294 C292 1.384 . S
H295 C301 0.930 . S
H296 C305 0.930 . S
H297 C310 0.929 . S
H298 C308 0.929 . S
H299 C303 0.929 . S
H300 C309 0.929 . S
C301 H295 0.930 . S
C301 C302 1.367 . S
C301 C309 1.378 . S
C302 C301 1.367 . S
C302 C310 1.433 1_554 S
C303 H299 0.929 . S
C303 C305 1.378 . S
C303 C307 1.350 1_556 S
C304 C307 1.463 . S
C304 C309 1.350 . S
C304 N312 1.427 1_554 S
C305 H296 0.930 . S
C305 C303 1.378 . S
C305 C306 1.367 1_556 S
C306 C305 1.367 1_554 S
C306 C308 1.433 . S
C307 C303 1.350 1_554 S
C307 C304 1.463 . S
C307 N311 1.427 . S
C308 H298 0.929 . S
C308 C306 1.433 . S
C308 N311 1.384 . S
C309 H300 0.929 . S
C309 C301 1.378 . S
C309 C304 1.350 . S
C310 H297 0.929 . S
C310 C302 1.433 1_556 S
C310 N312 1.384 . S
N311 C307 1.427 . S
N311 C308 1.384 . S
N312 C304 1.427 1_556 S
N312 C310 1.384 . S
H313 C319 0.930 . S
H314 C323 0.930 . S
H315 C328 0.929 . S
H316 C326 0.929 . S
H317 C321 0.929 . S
H318 C327 0.929 . S
C319 H313 0.930 . S
C319 C320 1.367 . S
C319 C327 1.378 . S
C320 C319 1.367 . S
C320 C328 1.433 1_554 S
C321 H317 0.929 . S
C321 C323 1.378 . S
C321 C325 1.350 1_556 S
C322 C325 1.463 . S
C322 C327 1.350 . S
C322 N330 1.427 1_554 S
C323 H314 0.930 . S
C323 C321 1.378 . S
C323 C324 1.367 1_556 S
C324 C323 1.367 1_554 S
C324 C326 1.433 . S
C325 C321 1.350 1_554 S
C325 C322 1.463 . S
C325 N329 1.427 . S
C326 H316 0.929 . S
C326 C324 1.433 . S
C326 N329 1.384 . S
C327 H318 0.929 . S
C327 C319 1.378 . S
C327 C322 1.350 . S
C328 H315 0.929 . S
C328 C320 1.433 1_556 S
C328 N330 1.384 . S
N329 C325 1.427 . S
N329 C326 1.384 . S
N330 C322 1.427 1_556 S
N330 C328 1.384 . S
C126 C99 1.314 1_455 S
C122 C9 1.363 . S
C144 C95 1.673 1_545 S
C140 C38 1.707 1_565 S
C162 C105 1.325 1_655 S
C158 C17 1.353 1_455 S
C180 C89 1.661 1_565 S
C176 C30 1.711 . S
C194 C19 1.451 . S
C198 C81 1.390 . S
C216 C113 1.760 . S
C212 C33 1.819 1_565 S
C230 C12 1.465 1_455 S
C234 C67 1.430 . S
C248 C40 1.814 . S
C252 C111 1.741 . S
C266 C59 1.384 . S
C270 C93 1.407 . S
C284 C61 1.421 . S
C288 C108 1.390 . S
C306 C102 1.404 . S
C302 C51 1.418 . S
C324 C97 1.402 . S
C320 C54 1.370 . S
