# Generated by pormake.
# Topology pth, (4,4)-cn, num edge types: 1
# Building blocks:
#     Node 0, Type 0, BuildingBlock: TATPOV_clean_sbu_0, # of connection points: 4
#     Node 1, Type 0, BuildingBlock: TATPOV_clean_sbu_0, # of connection points: 4
#     Node 2, Type 0, BuildingBlock: TATPOV_clean_sbu_0, # of connection points: 4
#     Node 3, Type 1, BuildingBlock: NAWXER_clean_linker_0, # of connection points: 4
#     Node 4, Type 1, BuildingBlock: NAWXER_clean_linker_0, # of connection points: 4
#     Node 5, Type 1, BuildingBlock: NAWXER_clean_linker_0, # of connection points: 4
#     Edge 6, Type (0, 1), BuildingBlock: FUNLAD_clean_linker_1, # of connection points: 2
#     Edge 7, Type (0, 1), BuildingBlock: FUNLAD_clean_linker_1, # of connection points: 2
#     Edge 8, Type (0, 1), BuildingBlock: FUNLAD_clean_linker_1, # of connection points: 2
#     Edge 9, Type (0, 1), BuildingBlock: FUNLAD_clean_linker_1, # of connection points: 2
#     Edge 10, Type (0, 1), BuildingBlock: FUNLAD_clean_linker_1, # of connection points: 2
#     Edge 11, Type (0, 1), BuildingBlock: FUNLAD_clean_linker_1, # of connection points: 2
#     Edge 12, Type (0, 1), BuildingBlock: FUNLAD_clean_linker_1, # of connection points: 2
#     Edge 13, Type (0, 1), BuildingBlock: FUNLAD_clean_linker_1, # of connection points: 2
#     Edge 14, Type (0, 1), BuildingBlock: FUNLAD_clean_linker_1, # of connection points: 2
#     Edge 15, Type (0, 1), BuildingBlock: FUNLAD_clean_linker_1, # of connection points: 2
#     Edge 16, Type (0, 1), BuildingBlock: FUNLAD_clean_linker_1, # of connection points: 2
#     Edge 17, Type (0, 1), BuildingBlock: FUNLAD_clean_linker_1, # of connection points: 2
# Relax obj value: 0.037
# Max RMSD: 0.160
# Mean RMSD: 0.080
data_MOF--net-pth--node1-TATPOV_clean_sbu_0--node2-NAWXER_clean_linker_0--edge1-FUNLAD_clean_linker_1
_symmetry_space_group_name_H-M    P1
_symmetry_Int_Tables_number       1
_symmetry_cell_setting            triclinic
loop_
_symmetry_equiv_pos_as_xyz
'x, y, z'
_cell_length_a     30.196398
_cell_length_b     29.904251
_cell_length_c     66.482244
_cell_angle_alpha  92.558287
_cell_angle_beta   92.081734
_cell_angle_gamma 120.97923
loop_
_atom_site_label
_atom_site_type_symbol
_atom_site_fract_x
_atom_site_fract_y
_atom_site_fract_z
_atom_type_partial_charge
Zn0 Zn 0.13522 0.01677 0.03837 0.0
Zn1 Zn 0.10654 0.08028 0.05582 0.0
O2 O 0.10346 0.03328 0.07821 0.0
O3 O 0.12847 0.98232 0.06436 0.0
O4 O 0.09252 0.13197 0.07026 0.0
O5 O 0.20315 0.07801 0.03137 0.0
O6 O 0.17557 0.12857 0.04336 0.0
C7 C 0.11266 0.99639 0.07936 0.0
C8 C 0.03924 0.00537 0.02069 0.0
O9 O 0.04679 0.04019 0.03437 0.0
O10 O 0.07113 0.98994 0.0192 0.0
C11 C 0.05484 0.118 0.08135 0.0
O12 O 0.02259 0.06801 0.08327 0.0
C13 C 0.20932 0.12293 0.03451 0.0
Zn14 Zn 0.15838 0.12647 0.36091 0.0
Zn15 Zn 0.06609 0.08853 0.37819 0.0
O16 O 0.119 0.10556 0.40211 0.0
O17 O 0.19394 0.13692 0.38851 0.0
O18 O -0.00088 0.06745 0.39105 0.0
O19 O 0.15052 0.18324 0.34895 0.0
O20 O 0.07454 0.14866 0.3619 0.0
C21 C 0.16758 0.12381 0.40388 0.0
C22 C 0.07959 0.01849 0.34779 0.0
O23 O 0.05141 0.02478 0.36003 0.0
O24 O 0.12534 0.05524 0.34555 0.0
C25 C 0.98803 0.04857 0.40815 0.0
O26 O 0.02046 0.03962 0.41832 0.0
C27 C 0.10868 0.18232 0.35128 0.0
Zn28 Zn 0.09346 0.96081 0.73302 0.0
Zn29 Zn 0.04849 0.99646 0.70726 0.0
O30 O 0.09107 0.97825 0.68878 0.0
O31 O 0.1259 0.94685 0.70925 0.0
O32 O 0.01068 0.01863 0.68845 0.0
O33 O 0.02316 0.90565 0.74124 0.0
O34 O 0.98809 0.93625 0.72058 0.0
C35 C 0.11965 0.959 0.69182 0.0
C36 C 0.12392 0.06947 0.74187 0.0
O37 O 0.09375 0.0614 0.72647 0.0
O38 O 0.13021 0.03318 0.74771 0.0
C39 C 0.97716 0.98508 0.67524 0.0
O40 O 0.96973 0.93769 0.67363 0.0
C41 C 0.98348 0.90431 0.73354 0.0
C42 C 0.93689 0.35009 0.24561 0.0
C43 C 0.97259 0.36935 0.26255 0.0
C44 C 0.93161 0.38448 0.23352 0.0
C45 C 0.9623 0.43874 0.23817 0.0
C46 C 0.00156 0.42361 0.26757 0.0
C47 C 0.99655 0.45777 0.25547 0.0
C48 C 0.95878 0.47687 0.2258 0.0
C49 C 0.00706 0.3877 0.18474 0.0
C50 C 0.9706 0.35963 0.16833 0.0
C51 C 0.0044 0.42612 0.19648 0.0
C52 C 0.96485 0.43658 0.19228 0.0
C53 C 0.93139 0.37062 0.16412 0.0
C54 C 0.92884 0.40908 0.17585 0.0
C55 C 0.96141 0.4769 0.2046 0.0
C56 C 0.0409 0.69822 0.19143 0.0
C57 C 0.01262 0.69676 0.17397 0.0
C58 C 0.02435 0.65347 0.20191 0.0
C59 C 0.97957 0.60615 0.19493 0.0
C60 C 0.96756 0.64939 0.167 0.0
C61 C 0.95148 0.60426 0.17732 0.0
C62 C 0.96462 0.55839 0.20544 0.0
C63 C 0.92287 0.6554 0.24445 0.0
C64 C 0.95091 0.67388 0.26328 0.0
C65 C 0.92529 0.61741 0.23232 0.0
C66 C 0.95596 0.5973 0.23884 0.0
C67 C 0.98011 0.65229 0.27008 0.0
C68 C 0.98258 0.61445 0.25796 0.0
C69 C 0.95866 0.55659 0.22638 0.0
H70 H 0.91335 0.3084 0.24164 0.0
H71 H 0.90358 0.36868 0.22065 0.0
H72 H 0.02774 0.44011 0.28097 0.0
H73 H 0.01995 0.49941 0.25961 0.0
H74 H 0.03715 0.3797 0.18884 0.0
H75 H 0.03314 0.44751 0.2089 0.0
H76 H 0.90276 0.34956 0.15163 0.0
H77 H 0.89827 0.41689 0.17227 0.0
H78 H 0.07608 0.73403 0.19692 0.0
H79 H 0.04726 0.6555 0.21523 0.0
H80 H 0.94576 0.64668 0.15323 0.0
H81 H 0.91731 0.56789 0.17154 0.0
H82 H 0.89943 0.67076 0.239 0.0
H83 H 0.90278 0.60345 0.21797 0.0
H84 H 0.00064 0.6639 0.28483 0.0
H85 H 0.00568 0.5988 0.26351 0.0
N86 N 0.95688 0.5164 0.23575 0.0
N87 N 0.96463 0.51794 0.19523 0.0
C88 C 0.71625 0.05684 0.51771 0.0
C89 C 0.70595 0.02646 0.49948 0.0
C90 C 0.67594 0.05478 0.52811 0.0
C91 C 0.62429 0.0216 0.52064 0.0
C92 C 0.65406 0.9938 0.49186 0.0
C93 C 0.61376 0.99181 0.5023 0.0
C94 C 0.58111 0.01787 0.5318 0.0
C95 C 0.65726 0.95131 0.56871 0.0
C96 C 0.68268 0.98161 0.58677 0.0
C97 C 0.62197 0.95924 0.55765 0.0
C98 C 0.61147 -0.00223 0.56444 0.0
C99 C 0.67056 0.01883 0.59394 0.0
C100 C 0.63514 0.02666 0.58287 0.0
C101 C 0.5758 0.008 0.55243 0.0
C102 C 0.36191 0.96823 0.56399 0.0
C103 C 0.36963 0.99417 0.58307 0.0
C104 C 0.40396 0.97395 0.55377 0.0
C105 C 0.45479 0.00668 0.56227 0.0
C106 C 0.42064 0.02659 0.59165 0.0
C107 C 0.4627 0.03236 0.5814 0.0
C108 C 0.49967 0.01342 0.55147 0.0
C109 C 0.42826 0.08628 0.51531 0.0
C110 C 0.4072 0.06111 0.49599 0.0
C111 C 0.46029 0.07449 0.5267 0.0
C112 C 0.47157 0.03711 0.5191 0.0
C113 C 0.41973 0.02478 0.48827 0.0
C114 C 0.45166 0.01298 0.49967 0.0
C115 C 0.5057 0.02451 0.53096 0.0
H116 H 0.75572 0.08244 0.52394 0.0
H117 H 0.68514 0.07906 0.54202 0.0
H118 H 0.64396 0.96889 0.47813 0.0
H119 H 0.57416 0.96603 0.49625 0.0
H120 H 0.66515 0.92177 0.56301 0.0
H121 H 0.60305 0.93542 0.54373 0.0
H122 H 0.68779 0.04165 0.60815 0.0
H123 H 0.62688 0.05595 0.58855 0.0
H124 H 0.32314 0.94304 0.55701 0.0
H125 H 0.39669 0.95264 0.53924 0.0
H126 H 0.42856 0.04846 0.60606 0.0
H127 H 0.50157 0.05774 0.58825 0.0
H128 H 0.42118 0.11581 0.5216 0.0
H129 H 0.47673 0.09507 0.54137 0.0
H130 H 0.40456 0.00521 0.47336 0.0
H131 H 0.46039 0.98454 0.49339 0.0
N132 N 0.54581 0.02565 0.52185 0.0
N133 N 0.53535 0.00626 0.5615 0.0
C134 C 0.41275 0.37022 0.85752 0.0
C135 C 0.3834 0.37783 0.84267 0.0
C136 C 0.45457 0.41279 0.86856 0.0
C137 C 0.46755 0.46398 0.86517 0.0
C138 C 0.39614 0.42932 0.83951 0.0
C139 C 0.43813 0.4719 0.85054 0.0
C140 C 0.5139 0.50941 0.87572 0.0
C141 C 0.40369 0.42961 0.92418 0.0
C142 C 0.42297 0.41051 0.93893 0.0
C143 C 0.43614 0.46331 0.91032 0.0
C144 C 0.48848 0.47814 0.91085 0.0
C145 C 0.47553 0.42545 0.93932 0.0
C146 C 0.5079 0.45927 0.92555 0.0
C147 C 0.52419 0.5151 0.89687 0.0
C148 C 0.71286 0.7307 0.91095 0.0
C149 C 0.73925 0.72102 0.92644 0.0
C150 C 0.66961 0.6891 0.90005 0.0
C151 C 0.65243 0.63727 0.90429 0.0
C152 C 0.72213 0.66911 0.93046 0.0
C153 C 0.6789 0.62769 0.91964 0.0
C154 C 0.60549 0.59279 0.89361 0.0
C155 C 0.72315 0.66038 0.84778 0.0
C156 C 0.70935 0.67902 0.83115 0.0
C157 C 0.68643 0.6302 0.86114 0.0
C158 C 0.63535 0.61927 0.85849 0.0
C159 C 0.65797 0.66741 0.82827 0.0
C160 C 0.62127 0.63754 0.84179 0.0
C161 C 0.59598 0.58635 0.87241 0.0
H162 H 0.40403 0.33115 0.8603 0.0
H163 H 0.47749 0.40568 0.87941 0.0
H164 H 0.37434 0.43739 0.82856 0.0
H165 H 0.44772 0.51116 0.84763 0.0
H166 H 0.3634 0.41868 0.92343 0.0
H167 H 0.42049 0.47822 0.89938 0.0
H168 H 0.4921 0.41089 0.94996 0.0
H169 H 0.54821 0.47025 0.92622 0.0
H170 H 0.72543 0.77005 0.90708 0.0
H171 H 0.64925 0.69748 0.88849 0.0
H172 H 0.74181 0.66053 0.94225 0.0
H173 H 0.6662 0.58802 0.92323 0.0
H174 H 0.76238 0.66858 0.85031 0.0
H175 H 0.69797 0.61496 0.87343 0.0
H176 H 0.64612 0.68199 0.81586 0.0
H177 H 0.58197 0.62916 0.83932 0.0
N178 N 0.5502 0.54525 0.8643 0.0
N179 N 0.56951 0.55662 0.90495 0.0
H180 H 0.07833 0.19916 0.09094 0.0
C181 C 0.04939 0.1584 0.09254 0.0
H182 H 0.98295 0.10616 0.10715 0.0
H183 H 0.02658 0.26593 0.18143 0.0
H184 H 0.03864 0.201 0.19718 0.0
H185 H 0.03809 0.13002 0.17657 0.0
H186 H 0.0251 0.12329 0.14011 0.0
C187 C 0.01115 0.14669 0.10486 0.0
C188 C 0.00946 0.18857 0.1172 0.0
C189 C 0.01734 0.19203 0.13851 0.0
C190 C 0.01843 0.23339 0.15039 0.0
C191 C 0.02597 0.23567 0.17166 0.0
C192 C 0.03288 0.1986 0.18091 0.0
C193 C 0.03251 0.15861 0.16931 0.0
C194 C 0.02492 0.15519 0.14837 0.0
H195 H 0.93563 0.2892 0.14698 0.0
C196 C 0.97129 0.31787 0.1556 0.0
H197 H 0.05046 0.34292 0.16161 0.0
H198 H 0.98604 0.18924 0.07703 0.0
H199 H 0.97656 0.25561 0.06119 0.0
H200 H 0.98521 0.33109 0.08153 0.0
H201 H 0.00234 0.34008 0.11783 0.0
C202 C 0.01384 0.31483 0.15355 0.0
C203 C 0.01185 0.27135 0.14094 0.0
C204 C 0.00387 0.26788 0.11962 0.0
C205 C 0.00141 0.22573 0.10779 0.0
C206 C 0.99051 0.22162 0.08666 0.0
C207 C 0.98459 0.25925 0.07738 0.0
C208 C 0.98927 0.30164 0.08883 0.0
C209 C -0.00119 0.30614 0.1097 0.0
H210 H 0.91569 0.04989 0.40797 0.0
C211 C 0.9407 0.04099 0.41692 0.0
H212 H 0.95299 0.01651 0.44485 0.0
H213 H 0.80174 0.11124 0.46604 0.0
H214 H 0.8766 0.19563 0.46063 0.0
H215 H 0.95603 0.2024 0.44863 0.0
H216 H 0.96071 0.12477 0.44163 0.0
C217 C 0.92916 0.02659 0.43577 0.0
C218 C 0.88302 0.02315 0.44465 0.0
C219 C 0.88175 0.0692 0.44942 0.0
C220 C 0.83681 0.0655 0.45721 0.0
C221 C 0.83556 0.11187 0.46084 0.0
C222 C 0.87817 0.1606 0.45768 0.0
C223 C 0.92282 0.16439 0.45085 0.0
C224 C 0.92484 0.11941 0.44677 0.0
H225 H 0.78768 0.04828 0.49787 0.0
C226 C 0.75037 0.02943 0.48927 0.0
H227 H 0.71188 0.99289 0.46063 0.0
H228 H 0.87316 0.92756 0.43734 0.0
H229 H 0.79925 0.84329 0.44378 0.0
H230 H 0.72241 0.83708 0.45831 0.0
H231 H 0.71885 0.91505 0.4664 0.0
C232 C 0.74781 0.01184 0.47002 0.0
C233 C 0.79413 0.01596 0.46105 0.0
C234 C 0.79563 0.97002 0.45646 0.0
C235 C 0.84014 0.97363 0.44827 0.0
C236 C 0.84047 0.92709 0.44372 0.0
C237 C 0.7983 0.87846 0.44733 0.0
C238 C 0.75502 0.87496 0.4555 0.0
C239 C 0.75348 0.92004 0.46005 0.0
H240 H 0.89914 0.87064 0.73462 0.0
C241 C 0.93195 0.86865 0.7407 0.0
H242 H 0.95767 0.8345 0.76178 0.0
H243 H 0.7645 0.8097 0.81097 0.0
H244 H 0.81876 0.90366 0.81816 0.0
H245 H 0.89995 0.95455 0.80134 0.0
H246 H 0.92706 0.91199 0.77709 0.0
C247 C 0.92549 0.83735 0.75559 0.0
C248 C 0.87517 0.80742 0.76484 0.0
C249 C 0.86041 0.83302 0.7792 0.0
C250 C 0.81445 0.80353 0.78934 0.0
C251 C 0.79984 0.83009 0.80326 0.0
C252 C 0.83047 0.88402 0.80745 0.0
C253 C 0.87611 0.91268 0.79794 0.0
C254 C 0.89114 0.88772 0.78399 0.0
H255 H 0.79018 0.7306 0.82354 0.0
C256 C 0.75006 0.71149 0.81756 0.0
H257 H 0.70146 0.69543 0.79106 0.0
H258 H 0.89084 0.7473 0.73724 0.0
H259 H 0.83634 0.65326 0.73002 0.0
H260 H 0.75739 0.60184 0.74808 0.0
H261 H 0.73232 0.64408 0.77344 0.0
C262 C 0.74048 0.71674 0.79817 0.0
C263 C 0.78421 0.74844 0.78553 0.0
C264 C 0.79781 0.72319 0.77058 0.0
C265 C 0.84348 0.75275 0.76026 0.0
C266 C 0.85667 0.72656 0.74559 0.0
C267 C 0.82572 0.67267 0.74129 0.0
C268 C 0.78124 0.64372 0.75146 0.0
C269 C 0.7673 0.66844 0.76598 0.0
H270 H 0.0762 0.97234 0.10827 0.0
C271 C 0.09808 0.96537 0.09723 0.0
H272 H 0.1257 0.91684 0.08727 0.0
H273 H 0.04979 0.83656 0.17881 0.0
H274 H 0.11385 0.92446 0.19236 0.0
H275 H 0.16335 0.99409 0.16966 0.0
H276 H 0.14824 0.97655 0.13331 0.0
C277 C 0.10528 0.92482 0.09868 0.0
C278 C 0.07692 0.88351 0.11281 0.0
C279 C 0.08783 0.8941 0.13399 0.0
C280 C 0.06124 0.85328 0.14707 0.0
C281 C 0.07063 0.86551 0.16819 0.0
C282 C 0.10699 0.91589 0.17617 0.0
C283 C 0.13471 0.95514 0.16338 0.0
C284 C 0.12545 0.9446 0.14253 0.0
H285 H 0.07522 0.76949 0.16277 0.0
C286 C 0.03337 0.74406 0.16252 0.0
H287 H 0.96124 0.73261 0.15192 0.0
H288 H 0.04266 0.85105 0.07306 0.0
H289 H 0.97983 0.76297 0.0596 0.0
H290 H 0.93793 0.69114 0.08212 0.0
H291 H 0.95814 0.70713 0.11823 0.0
C292 C 0.00312 0.75698 0.1521 0.0
C293 C 0.02594 0.80144 0.13888 0.0
C294 C 0.01402 0.79121 0.11774 0.0
C295 C 0.03918 0.83235 0.10472 0.0
C296 C 0.02573 0.82116 0.08367 0.0
C297 C 0.98951 0.77074 0.07571 0.0
C298 C 0.96586 0.73034 0.08839 0.0
C299 C 0.97783 0.74016 0.10914 0.0
H300 H 0.16825 0.11136 0.43643 0.0
C301 C 0.19197 0.12403 0.42356 0.0
H302 H 0.26472 0.14611 0.41252 0.0
H303 H 0.39661 0.19624 0.49393 0.0
H304 H 0.42375 0.28459 0.48559 0.0
H305 H 0.37702 0.30027 0.45823 0.0
H306 H 0.30293 0.22762 0.43898 0.0
C307 C 0.24045 0.13304 0.42521 0.0
C308 C 0.26259 0.12365 0.44376 0.0
C309 C 0.30507 0.16646 0.45512 0.0
C310 C 0.33167 0.15744 0.47102 0.0
C311 C 0.37483 0.2009 0.48178 0.0
C312 C 0.3908 0.25181 0.47715 0.0
C313 C 0.36451 0.26063 0.46174 0.0
C314 C 0.32216 0.21862 0.45078 0.0
H315 H 0.36778 0.05964 0.46712 0.0
C316 C 0.37347 0.0725 0.48308 0.0
H317 H 0.35206 0.10927 0.50558 0.0
H318 H 0.18252 0.03184 0.42496 0.0
H319 H 0.15208 0.94439 0.43494 0.0
H320 H 0.19436 0.92961 0.4642 0.0
H321 H 0.26823 0.00252 0.48337 0.0
C322 C 0.34831 0.0959 0.48984 0.0
C323 C 0.31565 0.1056 0.47551 0.0
C324 C 0.27071 0.06295 0.4652 0.0
C325 C 0.24486 0.07179 0.44896 0.0
C326 C 0.20252 0.02796 0.43795 0.0
C327 C 0.18474 0.97733 0.44344 0.0
C328 C 0.20864 0.96899 0.45986 0.0
C329 C 0.25118 0.01113 0.47065 0.0
H330 H 0.14876 0.15306 0.74669 0.0
C331 C 0.15272 0.12189 0.75261 0.0
H332 H 0.18778 0.10113 0.77553 0.0
H333 H 0.36259 0.35073 0.78131 0.0
H334 H 0.38493 0.33284 0.7485 0.0
H335 H 0.33028 0.24713 0.72957 0.0
H336 H 0.25293 0.17889 0.74331 0.0
C337 C 0.18449 0.13214 0.76908 0.0
C338 C 0.21503 0.18528 0.77952 0.0
C339 C 0.25996 0.22485 0.77115 0.0
C340 C 0.29168 0.27413 0.78214 0.0
C341 C 0.3369 0.31266 0.77361 0.0
C342 C 0.35028 0.30289 0.75479 0.0
C343 C 0.3195 0.25465 0.74413 0.0
C344 C 0.275 0.21587 0.75217 0.0
H345 H 0.33217 0.29284 0.83519 0.0
C346 C 0.34113 0.331 0.83065 0.0
H347 H 0.32436 0.36915 0.80803 0.0
H348 H 0.12992 0.11885 0.7992 0.0
H349 H 0.10607 0.13763 0.8316 0.0
H350 H 0.16001 0.22385 0.85029 0.0
H351 H 0.23834 0.29165 0.83678 0.0
C352 C 0.31547 0.33248 0.81395 0.0
C353 C 0.27872 0.28339 0.80155 0.0
C354 C 0.23243 0.2447 0.80945 0.0
C355 C 0.20087 0.19536 0.79852 0.0
C356 C 0.15532 0.15702 0.8069 0.0
C357 C 0.1411 0.16734 0.82544 0.0
C358 C 0.1715 0.21585 0.83598 0.0
C359 C 0.21657 0.25429 0.82812 0.0
H360 H 0.94973 0.03711 0.66583 0.0
C361 C 0.94424 -0.00161 0.66311 0.0
H362 H 0.89928 0.92403 0.64744 0.0
H363 H 0.69971 0.93981 0.63561 0.0
H364 H 0.67335 0.87428 0.65997 0.0
H365 H 0.73587 0.85391 0.67538 0.0
H366 H 0.82515 0.89917 0.6666 0.0
C367 C 0.90632 0.96344 0.64974 0.0
C368 C 0.8687 0.97494 0.63974 0.0
C369 C 0.81633 0.94735 0.64477 0.0
C370 C 0.78009 0.95856 0.63567 0.0
C371 C 0.72855 0.93186 0.64159 0.0
C372 C 0.71295 0.89438 0.65569 0.0
C373 C 0.74815 0.88295 0.66438 0.0
C374 C 0.79931 0.90916 0.65913 0.0
H375 H 0.71849 0.93537 0.59442 0.0
C376 C 0.72048 0.9723 0.59787 0.0
H377 H 0.76409 0.0465 0.61405 0.0
H378 H 0.96505 0.03185 0.62543 0.0
H379 H 0.99138 0.09747 0.60107 0.0
H380 H 0.92884 0.11788 0.58571 0.0
H381 H 0.83949 0.07255 0.59453 0.0
C382 C 0.75813 0.00768 0.61128 0.0
C383 C 0.79608 0.99666 0.62127 0.0
C384 C 0.84843 0.02431 0.61627 0.0
C385 C 0.88471 0.01311 0.62537 0.0
C386 C 0.93623 0.03982 0.61945 0.0
C387 C 0.95179 0.07734 0.60536 0.0
C388 C 0.91657 0.08879 0.59669 0.0
C389 C 0.8654 0.06256 0.60195 0.0
H390 H 0.96304 0.99193 0.00964 0.0
C391 C 0.99173 0.981 0.00714 0.0
H392 H 0.01094 0.93339 0.98962 0.0
H393 H 0.75865 0.78504 0.97602 0.0
H394 H 0.76079 0.77206 0.01174 0.0
H395 H 0.84183 0.82336 0.03334 0.0
H396 H 0.92078 0.8884 0.01948 0.0
C397 C 0.98209 0.94377 0.99264 0.0
C398 C 0.93231 0.91523 0.98017 0.0
C399 C 0.88682 0.87664 0.98857 0.0
C400 C 0.84066 0.84557 0.97599 0.0
C401 C 0.79522 0.8084 0.98479 0.0
C402 C 0.79583 0.80079 0.00529 0.0
C403 C 0.84141 0.82978 0.01746 0.0
C404 C 0.88649 0.86723 0.00929 0.0
H405 H 0.80912 0.75274 0.94718 0.0
C406 C 0.78473 0.76343 0.93878 0.0
H407 H 0.77256 0.82606 0.93356 0.0
H408 H 0.01147 0.98892 0.95981 0.0
H409 H 0.009 0.00154 0.92403 0.0
H410 H 0.92945 0.94578 0.90204 0.0
H411 H 0.8518 0.87716 0.91571 0.0
C412 C 0.79572 0.81306 0.94129 0.0
C413 C 0.84075 0.85166 0.95496 0.0
C414 C 0.88538 0.8919 0.94677 0.0
C415 C 0.93131 0.92373 0.9594 0.0
C416 C 0.97568 0.96332 0.95082 0.0
C417 C 0.97474 0.97104 0.93033 0.0
C418 C 0.92994 0.93967 0.91796 0.0
C419 C 0.88568 0.90042 0.92598 0.0
H420 H 0.0865 0.9654 0.32604 0.0
C421 C 0.05994 0.96864 0.33578 0.0
H422 H 0.98437 0.92938 0.34609 0.0
H423 H 0.99406 0.80788 0.25999 0.0
H424 H 0.00159 0.88242 0.24396 0.0
H425 H 0.00389 0.95503 0.26408 0.0
H426 H -0.00031 0.95378 0.3005 0.0
C427 C 0.01139 0.92786 0.33614 0.0
C428 C 0.99543 0.87867 0.32373 0.0
C429 C 0.99481 0.87851 0.30238 0.0
C430 C 0.99108 0.83557 0.29073 0.0
C431 C 0.99466 0.83837 0.26957 0.0
C432 C -0.0007 0.88114 0.26016 0.0
C433 C 0.00077 0.9221 0.27149 0.0
C434 C -0.00134 0.92106 0.29236 0.0
H435 H 0.91591 0.72039 0.27256 0.0
C436 C 0.94873 0.71539 0.27548 0.0
H437 H 0.02129 0.74643 0.29186 0.0
H438 H 0.98804 0.86387 0.36408 0.0
H439 H 0.9743 0.78667 0.38006 0.0
H440 H 0.96461 0.71064 0.35975 0.0
H441 H 0.9689 0.71146 0.32335 0.0
C442 C 0.98732 0.7493 0.28887 0.0
C443 C 0.98539 0.79179 0.30044 0.0
C444 C 0.98163 0.79017 0.32162 0.0
C445 C 0.98667 0.83372 0.33329 0.0
C446 C 0.98422 0.83172 0.35449 0.0
C447 C 0.97629 0.78763 0.36384 0.0
C448 C 0.97087 0.74484 0.35241 0.0
C449 C 0.97353 0.74587 0.33155 0.0
H450 H 0.17363 0.93821 0.67931 0.0
C451 C 0.14969 0.95459 0.67569 0.0
H452 H 0.13131 0.99362 0.65424 0.0
H453 H 0.35356 0.09172 0.62012 0.0
H454 H 0.3549 0.1686 0.63432 0.0
H455 H 0.28242 0.16008 0.6532 0.0
H456 H 0.20808 0.07478 0.6579 0.0
C457 C 0.15301 0.97481 0.65777 0.0
C458 C 0.19307 0.97982 0.64408 0.0
C459 C 0.23604 0.03012 0.64134 0.0
C460 C 0.27814 0.03505 0.63067 0.0
C461 C 0.32077 0.08572 0.62827 0.0
C462 C 0.32201 0.13019 0.63631 0.0
C463 C 0.28118 0.1254 0.64692 0.0
C464 C 0.23867 0.0761 0.64949 0.0
H465 H 0.28799 0.97359 0.58403 0.0
C466 C 0.32372 0.98735 0.59327 0.0
H467 H 0.35799 0.00831 0.6232 0.0
H468 H 0.11282 0.87856 0.64359 0.0
H469 H 0.11145 0.80151 0.62946 0.0
H470 H 0.18645 0.80964 0.61258 0.0
H471 H 0.26286 0.89474 0.60947 0.0
C472 C 0.32357 0.99542 0.61332 0.0
C473 C 0.27722 0.98975 0.62277 0.0
C474 C 0.23333 0.93952 0.62479 0.0
C475 C 0.19083 0.93465 0.63516 0.0
C476 C 0.1468 0.88424 0.63644 0.0
C477 C 0.1454 0.83977 0.62829 0.0
C478 C 0.18756 0.84436 0.61874 0.0
C479 C 0.23114 0.89352 0.61699 0.0
H480 H 0.28298 0.16168 0.01985 0.0
C481 C 0.25272 0.16725 0.02557 0.0
H482 H 0.22132 0.21625 0.02658 0.0
H483 H 0.42472 0.4181 0.00218 0.0
H484 H 0.42246 0.44365 0.03709 0.0
H485 H 0.35964 0.38014 0.0591 0.0
H486 H 0.29836 0.29069 0.04626 0.0
C487 C 0.25151 0.21009 0.02125 0.0
C488 C 0.28916 0.24843 0.0079 0.0
C489 C 0.32497 0.30033 0.01567 0.0
C490 C 0.36171 0.33671 0.00306 0.0
C491 C 0.39647 0.38861 0.01115 0.0
C492 C 0.39552 0.40385 0.03116 0.0
C493 C 0.36012 0.3681 0.04354 0.0
C494 C 0.32516 0.3169 0.03598 0.0
H495 H 0.34546 0.35787 0.94971 0.0
C496 C 0.38666 0.37396 0.9531 0.0
H497 H 0.44201 0.37647 0.97448 0.0
H498 H 0.21986 0.15481 0.98699 0.0
H499 H 0.2247 0.1278 0.95267 0.0
H500 H 0.29479 0.18753 0.93206 0.0
H501 H 0.35936 0.27505 0.94547 0.0
C502 C 0.40149 0.35922 0.96964 0.0
C503 C 0.36286 0.32091 0.98274 0.0
C504 C 0.32742 0.26869 0.97503 0.0
C505 C 0.28925 0.23305 0.98738 0.0
C506 C 0.25158 0.18258 0.97873 0.0
C507 C 0.25359 0.16666 0.95895 0.0
C508 C 0.29286 0.20036 0.94732 0.0
C509 C 0.32945 0.25076 0.95518 0.0
H510 H 0.12871 0.2466 0.3316 0.0
C511 C 0.09812 0.21764 0.34012 0.0
H512 H 0.01977 0.18335 0.34705 0.0
H513 H 0.01213 0.38194 0.3207 0.0
H514 H 0.01354 0.39402 0.35711 0.0
H515 H 0.02695 0.33748 0.37933 0.0
H516 H 0.03896 0.26841 0.36525 0.0
C517 C 0.05094 0.21185 0.33863 0.0
C518 C 0.03986 0.24376 0.32519 0.0
C519 C 0.03262 0.28362 0.33367 0.0
C520 C 0.02526 0.3164 0.32088 0.0
C521 C 0.01832 0.35616 0.32973 0.0
C522 C 0.01893 0.36346 0.35061 0.0
C523 C 0.02645 0.3316 0.36311 0.0
C524 C 0.03328 0.29211 0.35484 0.0
H525 H 0.9461 0.29174 0.27423 0.0
C526 C 0.97799 0.33215 0.27499 0.0
H527 H 0.05439 0.38556 0.28737 0.0
H528 H 0.04492 0.16591 0.304 0.0
H529 H 0.044 0.15404 0.26762 0.0
H530 H 0.03579 0.2138 0.24547 0.0
H531 H 0.02767 0.28523 0.25955 0.0
C532 C 0.02119 0.34604 0.28659 0.0
C533 C 0.02494 0.30902 0.29965 0.0
C534 C 0.03086 0.26826 0.29112 0.0
C535 C 0.03747 0.235 0.30392 0.0
C536 C 0.04148 0.1934 0.29502 0.0
C537 C 0.04071 0.18595 0.27415 0.0
C538 C 0.03595 0.2195 0.26168 0.0
C539 C 0.03112 0.26027 0.26997 0.0
loop_
_geom_bond_atom_site_label_1
_geom_bond_atom_site_label_2
_geom_bond_distance
_geom_bond_site_symmetry_2
_ccdc_geom_bond_type
Zn0 O3 2.031 1_545 S
Zn0 O5 2.049 . S
Zn0 O10 2.067 1_545 S
Zn1 O2 1.962 . S
Zn1 O4 1.986 . S
Zn1 O6 1.996 . S
Zn1 O9 1.943 . S
O2 Zn1 1.962 . S
O2 C7 1.254 1_545 S
O3 Zn0 2.031 1_565 S
O3 C7 1.269 . S
O4 Zn1 1.986 . S
O4 C11 1.262 . S
O5 Zn0 2.049 . S
O5 C13 1.260 . S
O6 Zn1 1.996 . S
O6 C13 1.257 . S
C7 O2 1.254 1_565 S
C7 O3 1.269 . S
C8 O9 1.249 1_565 S
C8 O10 1.270 . S
O9 Zn1 1.943 . S
O9 C8 1.249 1_545 S
O10 Zn0 2.067 1_565 S
O10 C8 1.270 . S
C11 O4 1.262 . S
C11 O12 1.232 . S
O12 C11 1.232 . S
C13 O5 1.260 . S
C13 O6 1.257 . S
Zn14 O17 2.031 . S
Zn14 O19 2.049 . S
Zn14 O24 2.067 . S
Zn15 O16 1.962 . S
Zn15 O18 1.986 1_455 S
Zn15 O20 1.996 . S
Zn15 O23 1.943 1_455 S
O16 Zn15 1.962 . S
O16 C21 1.254 . S
O17 Zn14 2.031 . S
O17 C21 1.269 . S
O18 Zn15 1.986 1_655 S
O18 C25 1.262 . S
O19 Zn14 2.049 . S
O19 C27 1.260 . S
O20 Zn15 1.996 . S
O20 C27 1.257 . S
C21 O16 1.254 . S
C21 O17 1.269 . S
C22 O23 1.249 1_465 S
C22 O24 1.270 1_565 S
O23 Zn15 1.943 1_655 S
O23 C22 1.249 1_645 S
O24 Zn14 2.067 . S
O24 C22 1.270 1_545 S
C25 O18 1.262 . S
C25 O26 1.232 . S
O26 C25 1.232 . S
C27 O19 1.260 . S
C27 O20 1.257 . S
Zn28 O31 2.031 1_565 S
Zn28 O33 2.049 . S
Zn28 O38 2.067 1_565 S
Zn29 O30 1.962 1_545 S
Zn29 O32 1.986 1_445 S
Zn29 O34 1.996 1_445 S
Zn29 O37 1.943 . S
O30 Zn29 1.962 1_565 S
O30 C35 1.254 . S
O31 Zn28 2.031 1_545 S
O31 C35 1.269 1_545 S
O32 Zn29 1.986 1_665 S
O32 C39 1.262 1_565 S
O33 Zn28 2.049 . S
O33 C41 1.260 1_455 S
O34 Zn29 1.996 1_665 S
O34 C41 1.257 . S
C35 O30 1.254 . S
C35 O31 1.269 1_565 S
C36 O37 1.249 . S
C36 O38 1.270 . S
O37 Zn29 1.943 . S
O37 C36 1.249 . S
O38 Zn28 2.067 1_545 S
O38 C36 1.270 . S
C39 O32 1.262 1_545 S
C39 O40 1.232 1_655 S
O40 C39 1.232 1_455 S
C41 O33 1.260 1_655 S
C41 O34 1.257 . S
C42 C43 1.384 . S
C42 C44 1.384 . S
C42 H70 0.931 1_455 S
C43 C42 1.384 . S
C43 C46 1.382 . S
C44 C42 1.384 . S
C44 C45 1.381 . S
C44 H71 0.930 1_455 S
C45 C44 1.381 . S
C45 C47 1.381 . S
C45 C48 1.487 . S
C46 C43 1.382 . S
C46 C47 1.387 . S
C46 H72 0.930 . S
C47 C45 1.381 . S
C47 C46 1.387 . S
C47 H73 0.931 . S
C48 C45 1.487 . S
C48 C55 1.399 . S
C48 N86 1.343 . S
C49 C50 1.384 . S
C49 C51 1.384 . S
C49 H74 0.931 . S
C50 C49 1.384 . S
C50 C53 1.382 . S
C51 C49 1.384 . S
C51 C52 1.381 . S
C51 H75 0.930 . S
C52 C51 1.381 . S
C52 C54 1.381 . S
C52 C55 1.487 . S
C53 C50 1.382 . S
C53 C54 1.387 . S
C53 H76 0.930 1_455 S
C54 C52 1.381 . S
C54 C53 1.387 . S
C54 H77 0.931 1_455 S
C55 C48 1.399 . S
C55 C52 1.487 . S
C55 N87 1.343 . S
C56 C57 1.384 . S
C56 C58 1.384 . S
C56 H78 0.931 . S
C57 C56 1.384 . S
C57 C60 1.382 . S
C58 C56 1.384 . S
C58 C59 1.381 . S
C58 H79 0.930 . S
C59 C58 1.381 . S
C59 C61 1.381 . S
C59 C62 1.487 . S
C60 C57 1.382 . S
C60 C61 1.387 . S
C60 H80 0.930 1_455 S
C61 C59 1.381 . S
C61 C60 1.387 . S
C61 H81 0.931 1_455 S
C62 C59 1.487 . S
C62 C69 1.399 . S
C62 N87 1.343 . S
C63 C64 1.384 . S
C63 C65 1.384 . S
C63 H82 0.931 1_455 S
C64 C63 1.384 . S
C64 C67 1.382 . S
C65 C63 1.384 . S
C65 C66 1.381 . S
C65 H83 0.930 1_455 S
C66 C65 1.381 . S
C66 C68 1.381 . S
C66 C69 1.487 . S
C67 C64 1.382 . S
C67 C68 1.387 . S
C67 H84 0.930 . S
C68 C66 1.381 . S
C68 C67 1.387 . S
C68 H85 0.931 . S
C69 C62 1.399 . S
C69 C66 1.487 . S
C69 N86 1.343 . S
H70 C42 0.931 1_655 S
H71 C44 0.930 1_655 S
H72 C46 0.930 . S
H73 C47 0.931 . S
H74 C49 0.931 . S
H75 C51 0.930 . S
H76 C53 0.930 1_655 S
H77 C54 0.931 1_655 S
H78 C56 0.931 . S
H79 C58 0.930 . S
H80 C60 0.930 1_655 S
H81 C61 0.931 1_655 S
H82 C63 0.931 1_655 S
H83 C65 0.930 1_655 S
H84 C67 0.930 . S
H85 C68 0.931 . S
N86 C48 1.343 . S
N86 C69 1.343 . S
N87 C55 1.343 . S
N87 C62 1.343 . S
C88 C89 1.384 . S
C88 C90 1.384 . S
C88 H116 0.931 . S
C89 C88 1.384 . S
C89 C92 1.382 . S
C90 C88 1.384 . S
C90 C91 1.381 . S
C90 H117 0.930 . S
C91 C90 1.381 . S
C91 C93 1.381 . S
C91 C94 1.487 . S
C92 C89 1.382 . S
C92 C93 1.387 . S
C92 H118 0.930 1_545 S
C93 C91 1.381 . S
C93 C92 1.387 . S
C93 H119 0.931 1_545 S
C94 C91 1.487 . S
C94 C101 1.399 . S
C94 N132 1.343 . S
C95 C96 1.384 1_565 S
C95 C97 1.375 1_565 S
C95 H120 0.931 . S
C96 C95 1.384 1_545 S
C96 C99 1.382 . S
C97 C95 1.375 1_545 S
C97 C98 1.399 . S
C97 H121 0.921 1_545 S
C98 C97 1.399 . S
C98 C100 1.381 . S
C98 C101 1.487 . S
C99 C96 1.382 . S
C99 C100 1.387 . S
C99 H122 0.930 . S
C100 C98 1.381 . S
C100 C99 1.387 . S
C100 H123 0.931 . S
C101 C94 1.399 . S
C101 C98 1.487 . S
C101 N133 1.343 . S
C102 C103 1.384 1_565 S
C102 C104 1.390 1_565 S
C102 H124 0.931 . S
C103 C102 1.384 1_545 S
C103 C106 1.382 . S
C104 C102 1.390 1_545 S
C104 C105 1.385 . S
C104 H125 0.920 1_545 S
C105 C104 1.385 . S
C105 C107 1.381 . S
C105 C108 1.487 . S
C106 C103 1.382 . S
C106 C107 1.387 . S
C106 H126 0.930 . S
C107 C105 1.381 . S
C107 C106 1.387 . S
C107 H127 0.931 . S
C108 C105 1.487 . S
C108 C115 1.399 . S
C108 N133 1.343 . S
C109 C110 1.384 . S
C109 C111 1.384 . S
C109 H128 0.931 . S
C110 C109 1.384 . S
C110 C113 1.382 . S
C111 C109 1.384 . S
C111 C112 1.381 . S
C111 H129 0.930 . S
C112 C111 1.381 . S
C112 C114 1.381 . S
C112 C115 1.487 . S
C113 C110 1.382 . S
C113 C114 1.387 . S
C113 H130 0.930 1_545 S
C114 C112 1.381 . S
C114 C113 1.387 . S
C114 H131 0.931 1_545 S
C115 C108 1.399 . S
C115 C112 1.487 . S
C115 N132 1.343 . S
H116 C88 0.931 . S
H117 C90 0.930 . S
H118 C92 0.930 1_565 S
H119 C93 0.931 1_565 S
H120 C95 0.931 . S
H121 C97 0.921 1_565 S
H122 C99 0.930 . S
H123 C100 0.931 . S
H124 C102 0.931 . S
H125 C104 0.920 1_565 S
H126 C106 0.930 . S
H127 C107 0.931 . S
H128 C109 0.931 . S
H129 C111 0.930 . S
H130 C113 0.930 1_565 S
H131 C114 0.931 1_565 S
N132 C94 1.343 . S
N132 C115 1.343 . S
N133 C101 1.343 . S
N133 C108 1.343 . S
C134 C135 1.384 . S
C134 C136 1.384 . S
C134 H162 0.931 . S
C135 C134 1.384 . S
C135 C138 1.382 . S
C136 C134 1.384 . S
C136 C137 1.381 . S
C136 H163 0.930 . S
C137 C136 1.381 . S
C137 C139 1.381 . S
C137 C140 1.487 . S
C138 C135 1.382 . S
C138 C139 1.387 . S
C138 H164 0.930 . S
C139 C137 1.381 . S
C139 C138 1.387 . S
C139 H165 0.931 . S
C140 C137 1.487 . S
C140 C147 1.399 . S
C140 N178 1.343 . S
C141 C142 1.384 . S
C141 C143 1.384 . S
C141 H166 0.931 . S
C142 C141 1.384 . S
C142 C145 1.382 . S
C143 C141 1.384 . S
C143 C144 1.381 . S
C143 H167 0.930 . S
C144 C143 1.381 . S
C144 C146 1.381 . S
C144 C147 1.487 . S
C145 C142 1.382 . S
C145 C146 1.387 . S
C145 H168 0.930 . S
C146 C144 1.381 . S
C146 C145 1.387 . S
C146 H169 0.931 . S
C147 C140 1.399 . S
C147 C144 1.487 . S
C147 N179 1.343 . S
C148 C149 1.384 . S
C148 C150 1.384 . S
C148 H170 0.931 . S
C149 C148 1.384 . S
C149 C152 1.382 . S
C150 C148 1.384 . S
C150 C151 1.381 . S
C150 H171 0.930 . S
C151 C150 1.381 . S
C151 C153 1.381 . S
C151 C154 1.487 . S
C152 C149 1.382 . S
C152 C153 1.387 . S
C152 H172 0.930 . S
C153 C151 1.381 . S
C153 C152 1.387 . S
C153 H173 0.931 . S
C154 C151 1.487 . S
C154 C161 1.399 . S
C154 N179 1.343 . S
C155 C156 1.384 . S
C155 C157 1.384 . S
C155 H174 0.931 . S
C156 C155 1.384 . S
C156 C159 1.382 . S
C157 C155 1.384 . S
C157 C158 1.381 . S
C157 H175 0.930 . S
C158 C157 1.381 . S
C158 C160 1.381 . S
C158 C161 1.487 . S
C159 C156 1.382 . S
C159 C160 1.387 . S
C159 H176 0.930 . S
C160 C158 1.381 . S
C160 C159 1.387 . S
C160 H177 0.931 . S
C161 C154 1.399 . S
C161 C158 1.487 . S
C161 N178 1.343 . S
H162 C134 0.931 . S
H163 C136 0.930 . S
H164 C138 0.930 . S
H165 C139 0.931 . S
H166 C141 0.931 . S
H167 C143 0.930 . S
H168 C145 0.930 . S
H169 C146 0.931 . S
H170 C148 0.931 . S
H171 C150 0.930 . S
H172 C152 0.930 . S
H173 C153 0.931 . S
H174 C155 0.931 . S
H175 C157 0.930 . S
H176 C159 0.930 . S
H177 C160 0.931 . S
N178 C140 1.343 . S
N178 C161 1.343 . S
N179 C147 1.343 . S
N179 C154 1.343 . S
H180 C181 0.951 . S
C181 H180 0.951 . S
C181 C187 1.265 . S
H182 C187 0.950 1_655 S
H183 C191 0.949 . S
H184 C192 0.950 . S
H185 C193 0.951 . S
H186 C194 0.951 . S
C187 C181 1.265 . S
C187 H182 0.950 1_455 S
C187 C188 1.478 . S
C188 C187 1.478 . S
C188 C189 1.397 . S
C188 C205 1.394 . S
C189 C188 1.397 . S
C189 C190 1.438 . S
C189 C194 1.429 1_455 S
C190 C189 1.438 . S
C190 C191 1.428 . S
C190 C203 1.394 . S
C191 H183 0.949 . S
C191 C190 1.428 . S
C191 C192 1.345 1_455 S
C192 H184 0.950 . S
C192 C191 1.345 1_655 S
C192 C193 1.424 . S
C193 H185 0.951 . S
C193 C192 1.424 . S
C193 C194 1.347 . S
C194 H186 0.951 . S
C194 C189 1.429 1_655 S
C194 C193 1.347 . S
H195 C196 0.951 . S
C196 H195 0.951 . S
C196 C202 1.265 . S
H197 C202 0.950 . S
H198 C206 0.949 . S
H199 C207 0.950 . S
H200 C208 0.951 . S
H201 C209 0.951 . S
C202 C196 1.265 . S
C202 H197 0.950 . S
C202 C203 1.478 . S
C203 C190 1.394 . S
C203 C202 1.478 . S
C203 C204 1.397 . S
C204 C203 1.397 . S
C204 C205 1.438 . S
C204 C209 1.429 . S
C205 C188 1.394 . S
C205 C204 1.438 . S
C205 C206 1.428 . S
C206 H198 0.949 . S
C206 C205 1.428 . S
C206 C207 1.345 . S
C207 H199 0.950 . S
C207 C206 1.345 . S
C207 C208 1.424 . S
C208 H200 0.951 . S
C208 C207 1.424 . S
C208 C209 1.347 . S
C209 H201 0.951 . S
C209 C204 1.429 . S
C209 C208 1.347 . S
H210 C211 0.951 . S
C211 H210 0.951 . S
C211 C217 1.265 . S
H212 C217 0.950 . S
H213 C221 0.949 . S
H214 C222 0.950 . S
H215 C223 0.951 . S
H216 C224 0.951 . S
C217 C211 1.265 . S
C217 H212 0.950 . S
C217 C218 1.478 . S
C218 C217 1.478 . S
C218 C219 1.397 . S
C218 C235 1.394 1_545 S
C219 C218 1.397 . S
C219 C220 1.438 . S
C219 C224 1.429 . S
C220 C219 1.438 . S
C220 C221 1.428 . S
C220 C233 1.394 . S
C221 H213 0.949 . S
C221 C220 1.428 . S
C221 C222 1.345 . S
C222 H214 0.950 . S
C222 C221 1.345 . S
C222 C223 1.424 . S
C223 H215 0.951 . S
C223 C222 1.424 . S
C223 C224 1.347 . S
C224 H216 0.951 . S
C224 C219 1.429 . S
C224 C223 1.347 . S
H225 C226 0.951 . S
C226 H225 0.951 . S
C226 C232 1.265 . S
H227 C232 0.950 . S
H228 C236 0.949 . S
H229 C237 0.950 . S
H230 C238 0.951 . S
H231 C239 0.951 . S
C232 C226 1.265 . S
C232 H227 0.950 . S
C232 C233 1.478 . S
C233 C220 1.394 . S
C233 C232 1.478 . S
C233 C234 1.397 1_545 S
C234 C233 1.397 1_565 S
C234 C235 1.438 . S
C234 C239 1.429 . S
C235 C218 1.394 1_565 S
C235 C234 1.438 . S
C235 C236 1.428 . S
C236 H228 0.949 . S
C236 C235 1.428 . S
C236 C237 1.345 . S
C237 H229 0.950 . S
C237 C236 1.345 . S
C237 C238 1.424 . S
C238 H230 0.951 . S
C238 C237 1.424 . S
C238 C239 1.347 . S
C239 H231 0.951 . S
C239 C234 1.429 . S
C239 C238 1.347 . S
H240 C241 0.951 . S
C241 H240 0.951 . S
C241 C247 1.265 . S
H242 C247 0.950 . S
H243 C251 0.949 . S
H244 C252 0.950 . S
H245 C253 0.951 . S
H246 C254 0.951 . S
C247 C241 1.265 . S
C247 H242 0.950 . S
C247 C248 1.478 . S
C248 C247 1.478 . S
C248 C249 1.397 . S
C248 C265 1.394 . S
C249 C248 1.397 . S
C249 C250 1.438 . S
C249 C254 1.429 . S
C250 C249 1.438 . S
C250 C251 1.428 . S
C250 C263 1.394 . S
C251 H243 0.949 . S
C251 C250 1.428 . S
C251 C252 1.345 . S
C252 H244 0.950 . S
C252 C251 1.345 . S
C252 C253 1.424 . S
C253 H245 0.951 . S
C253 C252 1.424 . S
C253 C254 1.347 . S
C254 H246 0.951 . S
C254 C249 1.429 . S
C254 C253 1.347 . S
H255 C256 0.951 . S
C256 H255 0.951 . S
C256 C262 1.265 . S
H257 C262 0.950 . S
H258 C266 0.949 . S
H259 C267 0.950 . S
H260 C268 0.951 . S
H261 C269 0.951 . S
C262 C256 1.265 . S
C262 H257 0.950 . S
C262 C263 1.478 . S
C263 C250 1.394 . S
C263 C262 1.478 . S
C263 C264 1.397 . S
C264 C263 1.397 . S
C264 C265 1.438 . S
C264 C269 1.429 . S
C265 C248 1.394 . S
C265 C264 1.438 . S
C265 C266 1.428 . S
C266 H258 0.949 . S
C266 C265 1.428 . S
C266 C267 1.345 . S
C267 H259 0.950 . S
C267 C266 1.345 . S
C267 C268 1.424 . S
C268 H260 0.951 . S
C268 C267 1.424 . S
C268 C269 1.347 . S
C269 H261 0.951 . S
C269 C264 1.429 . S
C269 C268 1.347 . S
H270 C271 0.951 . S
C271 H270 0.951 . S
C271 C277 1.265 . S
H272 C277 0.950 . S
H273 C281 0.949 . S
H274 C282 0.950 . S
H275 C283 0.951 1_545 S
H276 C284 0.951 . S
C277 C271 1.265 . S
C277 H272 0.950 . S
C277 C278 1.478 . S
C278 C277 1.478 . S
C278 C279 1.397 . S
C278 C295 1.394 . S
C279 C278 1.397 . S
C279 C280 1.438 . S
C279 C284 1.429 . S
C280 C279 1.438 . S
C280 C281 1.428 . S
C280 C293 1.394 . S
C281 H273 0.949 . S
C281 C280 1.428 . S
C281 C282 1.345 . S
C282 H274 0.950 . S
C282 C281 1.345 . S
C282 C283 1.424 . S
C283 H275 0.951 1_565 S
C283 C282 1.424 . S
C283 C284 1.347 . S
C284 H276 0.951 . S
C284 C279 1.429 . S
C284 C283 1.347 . S
H285 C286 0.951 . S
C286 H285 0.951 . S
C286 C292 1.265 . S
H287 C292 0.937 1_655 S
H288 C296 0.949 . S
H289 C297 0.950 1_655 S
H290 C298 0.951 . S
H291 C299 0.951 1_655 S
C292 C286 1.265 . S
C292 H287 0.937 1_455 S
C292 C293 1.478 . S
C293 C280 1.394 . S
C293 C292 1.478 . S
C293 C294 1.397 . S
C294 C293 1.397 . S
C294 C295 1.438 . S
C294 C299 1.429 . S
C295 C278 1.394 . S
C295 C294 1.438 . S
C295 C296 1.428 . S
C296 H288 0.949 . S
C296 C295 1.428 . S
C296 C297 1.345 . S
C297 H289 0.950 1_455 S
C297 C296 1.345 . S
C297 C298 1.424 1_455 S
C298 H290 0.951 . S
C298 C297 1.424 1_655 S
C298 C299 1.347 1_655 S
C299 H291 0.951 1_455 S
C299 C294 1.429 . S
C299 C298 1.347 1_455 S
H300 C301 0.951 . S
C301 H300 0.951 . S
C301 C307 1.265 . S
H302 C307 0.950 . S
H303 C311 0.949 . S
H304 C312 0.950 . S
H305 C313 0.951 . S
H306 C314 0.951 . S
C307 C301 1.265 . S
C307 H302 0.950 . S
C307 C308 1.478 . S
C308 C307 1.478 . S
C308 C309 1.397 . S
C308 C325 1.394 . S
C309 C308 1.397 . S
C309 C310 1.438 . S
C309 C314 1.429 . S
C310 C309 1.438 . S
C310 C311 1.428 . S
C310 C323 1.394 . S
C311 H303 0.949 . S
C311 C310 1.428 . S
C311 C312 1.345 . S
C312 H304 0.950 . S
C312 C311 1.345 . S
C312 C313 1.424 . S
C313 H305 0.951 . S
C313 C312 1.424 . S
C313 C314 1.347 . S
C314 H306 0.951 . S
C314 C309 1.429 . S
C314 C313 1.347 . S
H315 C316 0.951 . S
C316 H315 0.951 . S
C316 C322 1.265 . S
H317 C322 0.950 . S
H318 C326 0.949 . S
H319 C327 0.950 . S
H320 C328 0.951 . S
H321 C329 0.951 . S
C322 C316 1.265 . S
C322 H317 0.950 . S
C322 C323 1.478 . S
C323 C310 1.394 . S
C323 C322 1.478 . S
C323 C324 1.397 . S
C324 C323 1.397 . S
C324 C325 1.438 . S
C324 C329 1.429 1_545 S
C325 C308 1.394 . S
C325 C324 1.438 . S
C325 C326 1.428 1_545 S
C326 H318 0.949 . S
C326 C325 1.428 1_565 S
C326 C327 1.345 . S
C327 H319 0.950 . S
C327 C326 1.345 . S
C327 C328 1.424 . S
C328 H320 0.951 . S
C328 C327 1.424 . S
C328 C329 1.347 . S
C329 H321 0.951 . S
C329 C324 1.429 1_565 S
C329 C328 1.347 . S
H330 C331 0.951 . S
C331 H330 0.951 . S
C331 C337 1.265 . S
H332 C337 0.950 . S
H333 C341 0.949 . S
H334 C342 0.950 . S
H335 C343 0.951 . S
H336 C344 0.951 . S
C337 C331 1.265 . S
C337 H332 0.950 . S
C337 C338 1.478 . S
C338 C337 1.478 . S
C338 C339 1.397 . S
C338 C355 1.394 . S
C339 C338 1.397 . S
C339 C340 1.438 . S
C339 C344 1.429 . S
C340 C339 1.438 . S
C340 C341 1.428 . S
C340 C353 1.394 . S
C341 H333 0.949 . S
C341 C340 1.428 . S
C341 C342 1.345 . S
C342 H334 0.950 . S
C342 C341 1.345 . S
C342 C343 1.424 . S
C343 H335 0.951 . S
C343 C342 1.424 . S
C343 C344 1.347 . S
C344 H336 0.951 . S
C344 C339 1.429 . S
C344 C343 1.347 . S
H345 C346 0.951 . S
C346 H345 0.951 . S
C346 C352 1.265 . S
H347 C352 0.950 . S
H348 C356 0.949 . S
H349 C357 0.950 . S
H350 C358 0.951 . S
H351 C359 0.951 . S
C352 C346 1.265 . S
C352 H347 0.950 . S
C352 C353 1.478 . S
C353 C340 1.394 . S
C353 C352 1.478 . S
C353 C354 1.397 . S
C354 C353 1.397 . S
C354 C355 1.438 . S
C354 C359 1.429 . S
C355 C338 1.394 . S
C355 C354 1.438 . S
C355 C356 1.428 . S
C356 H348 0.949 . S
C356 C355 1.428 . S
C356 C357 1.345 . S
C357 H349 0.950 . S
C357 C356 1.345 . S
C357 C358 1.424 . S
C358 H350 0.951 . S
C358 C357 1.424 . S
C358 C359 1.347 . S
C359 H351 0.951 . S
C359 C354 1.429 . S
C359 C358 1.347 . S
H360 C361 0.951 . S
C361 H360 0.951 . S
C361 C367 1.265 . S
H362 C367 0.950 . S
H363 C371 0.949 . S
H364 C372 0.950 . S
H365 C373 0.951 . S
H366 C374 0.951 . S
C367 C361 1.265 . S
C367 H362 0.950 . S
C367 C368 1.478 . S
C368 C367 1.478 . S
C368 C369 1.397 1_545 S
C368 C385 1.394 . S
C369 C368 1.397 1_565 S
C369 C370 1.438 . S
C369 C374 1.429 . S
C370 C369 1.438 . S
C370 C371 1.428 . S
C370 C383 1.394 1_565 S
C371 H363 0.949 . S
C371 C370 1.428 . S
C371 C372 1.345 . S
C372 H364 0.950 . S
C372 C371 1.345 . S
C372 C373 1.424 . S
C373 H365 0.951 . S
C373 C372 1.424 . S
C373 C374 1.347 . S
C374 H366 0.951 . S
C374 C369 1.429 . S
C374 C373 1.347 . S
H375 C376 0.951 . S
C376 H375 0.951 . S
C376 C382 1.265 . S
H377 C382 0.950 . S
H378 C386 0.949 . S
H379 C387 0.950 . S
H380 C388 0.951 . S
H381 C389 0.951 . S
C382 C376 1.265 . S
C382 H377 0.950 . S
C382 C383 1.478 . S
C383 C370 1.394 1_545 S
C383 C382 1.478 . S
C383 C384 1.397 . S
C384 C383 1.397 . S
C384 C385 1.438 . S
C384 C389 1.429 . S
C385 C368 1.394 . S
C385 C384 1.438 . S
C385 C386 1.428 . S
C386 H378 0.949 . S
C386 C385 1.428 . S
C386 C387 1.345 . S
C387 H379 0.950 . S
C387 C386 1.345 . S
C387 C388 1.424 . S
C388 H380 0.951 . S
C388 C387 1.424 . S
C388 C389 1.347 . S
C389 H381 0.951 . S
C389 C384 1.429 . S
C389 C388 1.347 . S
H390 C391 0.951 . S
C391 H390 0.951 . S
C391 C397 1.265 . S
H392 C397 0.950 . S
H393 C401 0.949 . S
H394 C402 0.950 . S
H395 C403 0.951 . S
H396 C404 0.951 . S
C397 C391 1.265 . S
C397 H392 0.950 . S
C397 C398 1.478 1_554 S
C398 C397 1.478 1_556 S
C398 C399 1.404 . S
C398 C415 1.394 . S
C399 C398 1.404 . S
C399 C400 1.450 . S
C399 C404 1.410 1_556 S
C400 C399 1.450 . S
C400 C401 1.428 . S
C400 C413 1.394 . S
C401 H393 0.949 . S
C401 C400 1.428 . S
C401 C402 1.345 1_556 S
C402 H394 0.950 . S
C402 C401 1.345 1_554 S
C402 C403 1.424 . S
C403 H395 0.951 . S
C403 C402 1.424 . S
C403 C404 1.347 . S
C404 H396 0.951 . S
C404 C399 1.410 1_554 S
C404 C403 1.347 . S
H405 C406 0.951 . S
C406 H405 0.951 . S
C406 C412 1.265 . S
H407 C412 0.950 . S
H408 C416 0.949 . S
H409 C417 0.950 . S
H410 C418 0.951 . S
H411 C419 0.951 . S
C412 C406 1.265 . S
C412 H407 0.950 . S
C412 C413 1.478 . S
C413 C400 1.394 . S
C413 C412 1.478 . S
C413 C414 1.397 . S
C414 C413 1.397 . S
C414 C415 1.438 . S
C414 C419 1.429 . S
C415 C398 1.394 . S
C415 C414 1.438 . S
C415 C416 1.428 . S
C416 H408 0.949 . S
C416 C415 1.428 . S
C416 C417 1.345 . S
C417 H409 0.950 . S
C417 C416 1.345 . S
C417 C418 1.424 . S
C418 H410 0.951 . S
C418 C417 1.424 . S
C418 C419 1.347 . S
C419 H411 0.951 . S
C419 C414 1.429 . S
C419 C418 1.347 . S
H420 C421 0.951 . S
C421 H420 0.951 . S
C421 C427 1.265 1_455 S
H422 C427 0.950 . S
H423 C431 0.949 . S
H424 C432 0.950 . S
H425 C433 0.951 . S
H426 C434 0.951 . S
C427 C421 1.265 1_655 S
C427 H422 0.950 . S
C427 C428 1.478 1_655 S
C428 C427 1.478 1_455 S
C428 C429 1.397 . S
C428 C445 1.394 . S
C429 C428 1.397 . S
C429 C430 1.438 . S
C429 C434 1.429 1_455 S
C430 C429 1.438 . S
C430 C431 1.428 . S
C430 C443 1.394 . S
C431 H423 0.949 . S
C431 C430 1.428 . S
C431 C432 1.345 1_455 S
C432 H424 0.950 . S
C432 C431 1.345 1_655 S
C432 C433 1.424 . S
C433 H425 0.951 . S
C433 C432 1.424 . S
C433 C434 1.347 . S
C434 H426 0.951 . S
C434 C429 1.429 1_655 S
C434 C433 1.347 . S
H435 C436 0.951 1_655 S
C436 H435 0.951 1_455 S
C436 C442 1.265 . S
H437 C442 0.950 . S
H438 C446 0.949 . S
H439 C447 0.950 . S
H440 C448 0.951 . S
H441 C449 0.951 . S
C442 C436 1.265 . S
C442 H437 0.950 . S
C442 C443 1.478 . S
C443 C430 1.394 . S
C443 C442 1.478 . S
C443 C444 1.397 . S
C444 C443 1.397 . S
C444 C445 1.438 . S
C444 C449 1.429 . S
C445 C428 1.394 . S
C445 C444 1.438 . S
C445 C446 1.428 . S
C446 H438 0.949 . S
C446 C445 1.428 . S
C446 C447 1.345 . S
C447 H439 0.950 . S
C447 C446 1.345 . S
C447 C448 1.424 . S
C448 H440 0.951 . S
C448 C447 1.424 . S
C448 C449 1.347 . S
C449 H441 0.951 . S
C449 C444 1.429 . S
C449 C448 1.347 . S
H450 C451 0.951 . S
C451 H450 0.951 . S
C451 C457 1.265 1_565 S
H452 C457 0.950 . S
H453 C461 0.949 . S
H454 C462 0.950 . S
H455 C463 0.951 . S
H456 C464 0.951 . S
C457 C451 1.265 1_545 S
C457 H452 0.950 . S
C457 C458 1.478 . S
C458 C457 1.478 . S
C458 C459 1.397 . S
C458 C475 1.394 1_545 S
C459 C458 1.397 . S
C459 C460 1.438 . S
C459 C464 1.429 . S
C460 C459 1.438 . S
C460 C461 1.428 . S
C460 C473 1.394 . S
C461 H453 0.949 . S
C461 C460 1.428 . S
C461 C462 1.345 . S
C462 H454 0.950 . S
C462 C461 1.345 . S
C462 C463 1.424 . S
C463 H455 0.951 . S
C463 C462 1.424 . S
C463 C464 1.347 . S
C464 H456 0.951 . S
C464 C459 1.429 . S
C464 C463 1.347 . S
H465 C466 0.951 . S
C466 H465 0.951 . S
C466 C472 1.265 . S
H467 C472 0.950 . S
H468 C476 0.949 . S
H469 C477 0.950 . S
H470 C478 0.951 . S
H471 C479 0.951 . S
C472 C466 1.265 . S
C472 H467 0.950 . S
C472 C473 1.478 . S
C473 C460 1.394 . S
C473 C472 1.478 . S
C473 C474 1.397 1_545 S
C474 C473 1.397 1_565 S
C474 C475 1.438 . S
C474 C479 1.429 . S
C475 C458 1.394 1_565 S
C475 C474 1.438 . S
C475 C476 1.428 . S
C476 H468 0.949 . S
C476 C475 1.428 . S
C476 C477 1.345 . S
C477 H469 0.950 . S
C477 C476 1.345 . S
C477 C478 1.424 . S
C478 H470 0.951 . S
C478 C477 1.424 . S
C478 C479 1.347 . S
C479 H471 0.951 . S
C479 C474 1.429 . S
C479 C478 1.347 . S
H480 C481 0.951 . S
C481 H480 0.951 . S
C481 C487 1.265 . S
H482 C487 0.950 1_556 S
H483 C491 0.949 . S
H484 C492 0.950 . S
H485 C493 0.951 . S
H486 C494 0.951 . S
C487 C481 1.265 . S
C487 H482 0.950 1_554 S
C487 C488 1.478 1_554 S
C488 C487 1.478 1_556 S
C488 C489 1.397 . S
C488 C505 1.394 . S
C489 C488 1.397 . S
C489 C490 1.438 . S
C489 C494 1.429 1_556 S
C490 C489 1.438 . S
C490 C491 1.428 . S
C490 C503 1.394 . S
C491 H483 0.949 . S
C491 C490 1.428 . S
C491 C492 1.345 . S
C492 H484 0.950 . S
C492 C491 1.345 . S
C492 C493 1.424 1_556 S
C493 H485 0.951 . S
C493 C492 1.424 1_554 S
C493 C494 1.347 . S
C494 H486 0.951 . S
C494 C489 1.429 1_554 S
C494 C493 1.347 . S
H495 C496 0.951 . S
C496 H495 0.951 . S
C496 C502 1.265 . S
H497 C502 0.950 . S
H498 C506 0.949 . S
H499 C507 0.950 . S
H500 C508 0.951 . S
H501 C509 0.951 . S
C502 C496 1.265 . S
C502 H497 0.950 . S
C502 C503 1.478 . S
C503 C490 1.394 . S
C503 C502 1.478 . S
C503 C504 1.397 . S
C504 C503 1.397 . S
C504 C505 1.438 . S
C504 C509 1.429 . S
C505 C488 1.394 . S
C505 C504 1.438 . S
C505 C506 1.428 . S
C506 H498 0.949 . S
C506 C505 1.428 . S
C506 C507 1.345 . S
C507 H499 0.950 . S
C507 C506 1.345 . S
C507 C508 1.424 . S
C508 H500 0.951 . S
C508 C507 1.424 . S
C508 C509 1.347 . S
C509 H501 0.951 . S
C509 C504 1.429 . S
C509 C508 1.347 . S
H510 C511 0.951 . S
C511 H510 0.951 . S
C511 C517 1.265 . S
H512 C517 0.950 1_655 S
H513 C521 0.949 1_455 S
H514 C522 0.950 . S
H515 C523 0.951 . S
H516 C524 0.951 . S
C517 C511 1.265 . S
C517 H512 0.950 1_455 S
C517 C518 1.478 . S
C518 C517 1.478 . S
C518 C519 1.397 . S
C518 C535 1.394 . S
C519 C518 1.397 . S
C519 C520 1.438 . S
C519 C524 1.429 1_455 S
C520 C519 1.438 . S
C520 C521 1.428 1_455 S
C520 C533 1.394 . S
C521 H513 0.949 1_655 S
C521 C520 1.428 1_655 S
C521 C522 1.345 . S
C522 H514 0.950 . S
C522 C521 1.345 . S
C522 C523 1.424 . S
C523 H515 0.951 . S
C523 C522 1.424 . S
C523 C524 1.347 . S
C524 H516 0.951 . S
C524 C519 1.429 1_655 S
C524 C523 1.347 . S
H525 C526 0.935 1_655 S
C526 H525 0.935 1_455 S
C526 C532 1.265 . S
H527 C532 0.950 . S
H528 C536 0.949 . S
H529 C537 0.950 . S
H530 C538 0.951 . S
H531 C539 0.951 . S
C532 C526 1.265 . S
C532 H527 0.950 . S
C532 C533 1.478 . S
C533 C520 1.394 . S
C533 C532 1.478 . S
C533 C534 1.397 . S
C534 C533 1.397 . S
C534 C535 1.438 . S
C534 C539 1.429 . S
C535 C518 1.394 . S
C535 C534 1.438 . S
C535 C536 1.428 . S
C536 H528 0.949 . S
C536 C535 1.428 . S
C536 C537 1.345 . S
C537 H529 0.950 . S
C537 C536 1.345 . S
C537 C538 1.424 . S
C538 H530 0.951 . S
C538 C537 1.424 . S
C538 C539 1.347 . S
C539 H531 0.951 . S
C539 C534 1.429 . S
C539 C538 1.347 . S
C196 C50 1.307 . S
C181 C11 1.285 . S
C211 C25 1.392 . S
C226 C89 1.379 . S
C241 C41 1.385 . S
C256 C156 1.419 . S
C271 C7 1.335 . S
C286 C57 1.345 . S
C316 C110 1.413 . S
C301 C21 1.413 . S
C331 C36 1.428 . S
C346 C135 1.463 . S
C376 C96 1.374 . S
C361 C39 1.389 . S
C391 C8 1.432 1_655 S
C406 C149 1.455 . S
C436 C64 1.490 . S
C421 C22 1.400 . S
C466 C103 1.400 . S
C451 C35 1.388 . S
C496 C142 1.419 . S
C481 C13 1.331 . S
C511 C27 1.383 . S
C526 C43 1.471 . S
