# Generated by pormake.
# Topology pyr, (3,6)-cn, num edge types: 1
# Building blocks:
#     Node 0, Type 0, BuildingBlock: CUQRIR_clean_linker_1, # of connection points: 3
#     Node 1, Type 0, BuildingBlock: CUQRIR_clean_linker_1, # of connection points: 3
#     Node 2, Type 0, BuildingBlock: CUQRIR_clean_linker_1, # of connection points: 3
#     Node 3, Type 0, BuildingBlock: CUQRIR_clean_linker_1, # of connection points: 3
#     Node 4, Type 0, BuildingBlock: CUQRIR_clean_linker_1, # of connection points: 3
#     Node 5, Type 0, BuildingBlock: CUQRIR_clean_linker_1, # of connection points: 3
#     Node 6, Type 0, BuildingBlock: CUQRIR_clean_linker_1, # of connection points: 3
#     Node 7, Type 0, BuildingBlock: CUQRIR_clean_linker_1, # of connection points: 3
#     Node 8, Type 1, BuildingBlock: BETFEN_clean_sbu_0, # of connection points: 6
#     Node 9, Type 1, BuildingBlock: BETFEN_clean_sbu_0, # of connection points: 6
#     Node 10, Type 1, BuildingBlock: BETFEN_clean_sbu_0, # of connection points: 6
#     Node 11, Type 1, BuildingBlock: BETFEN_clean_sbu_0, # of connection points: 6
#     Edge 12, Type (0, 1), BuildingBlock: TEMPAE_clean_linker_10, # of connection points: 2
#     Edge 13, Type (0, 1), BuildingBlock: TEMPAE_clean_linker_10, # of connection points: 2
#     Edge 14, Type (0, 1), BuildingBlock: TEMPAE_clean_linker_10, # of connection points: 2
#     Edge 15, Type (0, 1), BuildingBlock: TEMPAE_clean_linker_10, # of connection points: 2
#     Edge 16, Type (0, 1), BuildingBlock: TEMPAE_clean_linker_10, # of connection points: 2
#     Edge 17, Type (0, 1), BuildingBlock: TEMPAE_clean_linker_10, # of connection points: 2
#     Edge 18, Type (0, 1), BuildingBlock: TEMPAE_clean_linker_10, # of connection points: 2
#     Edge 19, Type (0, 1), BuildingBlock: TEMPAE_clean_linker_10, # of connection points: 2
#     Edge 20, Type (0, 1), BuildingBlock: TEMPAE_clean_linker_10, # of connection points: 2
#     Edge 21, Type (0, 1), BuildingBlock: TEMPAE_clean_linker_10, # of connection points: 2
#     Edge 22, Type (0, 1), BuildingBlock: TEMPAE_clean_linker_10, # of connection points: 2
#     Edge 23, Type (0, 1), BuildingBlock: TEMPAE_clean_linker_10, # of connection points: 2
#     Edge 24, Type (0, 1), BuildingBlock: TEMPAE_clean_linker_10, # of connection points: 2
#     Edge 25, Type (0, 1), BuildingBlock: TEMPAE_clean_linker_10, # of connection points: 2
#     Edge 26, Type (0, 1), BuildingBlock: TEMPAE_clean_linker_10, # of connection points: 2
#     Edge 27, Type (0, 1), BuildingBlock: TEMPAE_clean_linker_10, # of connection points: 2
#     Edge 28, Type (0, 1), BuildingBlock: TEMPAE_clean_linker_10, # of connection points: 2
#     Edge 29, Type (0, 1), BuildingBlock: TEMPAE_clean_linker_10, # of connection points: 2
#     Edge 30, Type (0, 1), BuildingBlock: TEMPAE_clean_linker_10, # of connection points: 2
#     Edge 31, Type (0, 1), BuildingBlock: TEMPAE_clean_linker_10, # of connection points: 2
#     Edge 32, Type (0, 1), BuildingBlock: TEMPAE_clean_linker_10, # of connection points: 2
#     Edge 33, Type (0, 1), BuildingBlock: TEMPAE_clean_linker_10, # of connection points: 2
#     Edge 34, Type (0, 1), BuildingBlock: TEMPAE_clean_linker_10, # of connection points: 2
#     Edge 35, Type (0, 1), BuildingBlock: TEMPAE_clean_linker_10, # of connection points: 2
# Relax obj value: 0.210
# Max RMSD: 0.327
# Mean RMSD: 0.170
data_MOF--net-pyr--node1-BETFEN_clean_sbu_0--node2-CUQRIR_clean_linker_1--edge1-TEMPAE_clean_linker_10
_symmetry_space_group_name_H-M    P1
_symmetry_Int_Tables_number       1
_symmetry_cell_setting            triclinic
loop_
_symmetry_equiv_pos_as_xyz
'x, y, z'
_cell_length_a     34.580854
_cell_length_b     37.869804
_cell_length_c     34.288711
_cell_angle_alpha  90.10626
_cell_angle_beta   100.52064
_cell_angle_gamma 113.99927
loop_
_atom_site_label
_atom_site_type_symbol
_atom_site_fract_x
_atom_site_fract_y
_atom_site_fract_z
_atom_type_partial_charge
C0 C 0.45686 0.47393 0.34715 0.0
N1 N 0.46572 0.44243 0.35375 0.0
N2 N 0.46044 0.48499 0.30993 0.0
C3 C 0.43967 0.49165 0.3753 0.0
C4 C 0.47534 0.46079 0.29526 0.0
N5 N 0.47893 0.43538 0.32176 0.0
C6 C 0.47799 0.45699 0.2523 0.0
H7 H 0.40452 0.48286 0.36457 0.0
H8 H 0.45558 0.52374 0.37585 0.0
H9 H 0.44546 0.48266 0.40581 0.0
H10 H 0.48397 0.4849 0.23882 0.0
H11 H 0.44687 0.43456 0.23579 0.0
H12 H 0.50403 0.44771 0.24954 0.0
C13 C 0.33549 0.91438 0.70674 0.0
N14 N 0.3302 0.93675 0.73441 0.0
N15 N 0.34901 0.88835 0.72427 0.0
C16 C 0.32494 0.91611 0.6624 0.0
C17 C 0.35158 0.89539 0.76353 0.0
N18 N 0.33914 0.92423 0.76969 0.0
C19 C 0.37133 0.87747 0.7961 0.0
H20 H 0.31768 0.88797 0.64635 0.0
H21 H 0.35314 0.93881 0.65292 0.0
H22 H 0.29682 0.92361 0.65399 0.0
H23 H 0.39268 0.86588 0.78553 0.0
H24 H 0.34508 0.85328 0.80642 0.0
H25 H 0.39054 0.89904 0.82185 0.0
C26 C 0.59226 0.33554 0.8384 0.0
N27 N 0.61739 0.33663 0.87424 0.0
N28 N 0.60783 0.37031 0.82279 0.0
C29 C 0.55243 0.3009 0.81891 0.0
C30 C 0.64282 0.3927 0.85054 0.0
N31 N 0.64839 0.3724 0.88186 0.0
C32 C 0.67181 0.43451 0.84717 0.0
H33 H 0.56214 0.28167 0.80239 0.0
H34 H 0.53046 0.30966 0.79747 0.0
H35 H 0.53505 0.28424 0.84164 0.0
H36 H 0.66722 0.44325 0.8165 0.0
H37 H 0.7062 0.43975 0.85741 0.0
H38 H 0.66452 0.45341 0.86669 0.0
C39 C 0.86197 0.67316 0.34039 0.0
N40 N 0.89923 0.70153 0.33294 0.0
N41 N 0.84777 0.68549 0.36975 0.0
C42 C 0.83889 0.63327 0.31888 0.0
C43 C 0.87692 0.72249 0.37971 0.0
N44 N 0.90815 0.73262 0.35764 0.0
C45 C 0.87521 0.74874 0.41186 0.0
H46 H 0.8038 0.62139 0.31883 0.0
H47 H 0.85189 0.61358 0.33448 0.0
H48 H 0.84364 0.63381 0.28771 0.0
H49 H 0.89791 0.74912 0.43946 0.0
H50 H 0.84229 0.73851 0.4184 0.0
H51 H 0.88528 0.77887 0.40308 0.0
C52 C 0.59284 0.71478 0.78291 0.0
N53 N 0.62092 0.70669 0.76567 0.0
N54 N 0.58096 0.74087 0.76315 0.0
C55 C 0.58081 0.70091 0.82194 0.0
C56 C 0.60104 0.74652 0.73173 0.0
N57 N 0.62566 0.72623 0.73343 0.0
C58 C 0.60317 0.77752 0.70363 0.0
H59 H 0.54605 0.69351 0.82048 0.0
H60 H 0.59958 0.72456 0.84598 0.0
H61 H 0.5872 0.67502 0.82932 0.0
H62 H 0.63637 0.80094 0.70941 0.0
H63 H 0.57997 0.79011 0.70694 0.0
H64 H 0.59594 0.76509 0.67248 0.0
C65 C 0.78973 0.22539 0.49655 0.0
N66 N 0.79791 0.20729 0.46686 0.0
N67 N 0.76614 0.24506 0.48125 0.0
C68 C 0.80302 0.22262 0.54023 0.0
C69 C 0.76 0.23822 0.44148 0.0
N70 N 0.77939 0.21556 0.43274 0.0
C71 C 0.73279 0.2516 0.41087 0.0
H72 H 0.80501 0.19446 0.5456 0.0
H73 H 0.78 0.22604 0.557 0.0
H74 H 0.83538 0.2463 0.55151 0.0
H75 H 0.75248 0.2683 0.38955 0.0
H76 H 0.71976 0.2699 0.42443 0.0
H77 H 0.70552 0.22594 0.39364 0.0
C78 C 0.40639 0.70163 0.24915 0.0
N79 N 0.44566 0.72873 0.26723 0.0
N80 N 0.39383 0.71143 0.21279 0.0
C81 C 0.37877 0.66697 0.26808 0.0
C82 C 0.42668 0.74522 0.20902 0.0
N83 N 0.45873 0.7558 0.24188 0.0
C84 C 0.42533 0.76984 0.17477 0.0
H85 H 0.39885 0.65579 0.28882 0.0
H86 H 0.3561 0.64342 0.24517 0.0
H87 H 0.35957 0.67584 0.28538 0.0
H88 H 0.42049 0.79523 0.18509 0.0
H89 H 0.39874 0.75349 0.14936 0.0
H90 H 0.45624 0.78058 0.16421 0.0
C91 C 0.15318 0.38348 0.7695 0.0
N92 N 0.17514 0.3807 0.7411 0.0
N93 N 0.16492 0.42126 0.78249 0.0
C94 C 0.11932 0.3494 0.78392 0.0
C95 C 0.19486 0.4412 0.76049 0.0
N96 N 0.20096 0.41681 0.73546 0.0
C97 C 0.21779 0.4847 0.76291 0.0
H98 H 0.08729 0.34349 0.76507 0.0
H99 H 0.11834 0.35573 0.81524 0.0
H100 H 0.12491 0.32278 0.78189 0.0
H101 H 0.24817 0.49424 0.78559 0.0
H102 H 0.19748 0.49849 0.77166 0.0
H103 H 0.22637 0.49485 0.73408 0.0
Pr104 Pr 0.04461 0.03554 0.57006 0.0
Pr105 Pr 0.09612 0.08017 0.51886 0.0
C106 C 1.00234 0.98048 0.61577 0.0
C107 C 0.95926 0.95013 0.6177 0.0
C108 C 0.93664 0.95578 0.64542 0.0
C109 C 0.8974 0.92651 0.6499 0.0
C110 C 0.87995 0.89073 0.62694 0.0
C111 C 0.90235 0.88509 0.59891 0.0
C112 C 0.94162 0.91454 0.59426 0.0
C113 C 0.08013 0.11529 0.59681 0.0
C114 C 0.14715 0.05136 0.58849 0.0
C115 C 0.13819 0.13053 0.46924 0.0
C116 C 0.18091 0.15906 0.46516 0.0
C117 C 0.18587 0.17403 0.42827 0.0
C118 C 0.22607 0.2008 0.42293 0.0
C119 C 0.26228 0.21305 0.45442 0.0
C120 C 0.25717 0.19794 0.49156 0.0
C121 C 0.2167 0.17097 0.49687 0.0
C122 C 0.05966 1.00042 0.4924 0.0
C123 C 0.99447 0.07034 0.50653 0.0
O124 O 1.00804 1.01661 0.62029 0.0
O125 O 1.02254 0.97457 0.58953 0.0
O126 O 0.10129 0.09826 0.58475 0.0
O127 O 0.0404 0.09115 0.59528 0.0
O128 O 0.15334 0.0819 0.56825 0.0
O129 O 0.10781 1.0256 0.58824 0.0
O130 O 0.13259 0.09437 0.46847 0.0
O131 O 0.11967 0.13958 0.49518 0.0
O132 O 0.03882 1.01814 0.5038 0.0
O133 O 0.10016 1.02349 0.49649 0.0
O134 O 0.98736 0.03968 0.52666 0.0
O135 O 1.03396 0.09274 0.5024 0.0
H136 H 0.94974 0.98264 0.66429 0.0
H137 H 0.88133 0.93152 0.67226 0.0
H138 H 0.88958 0.85789 0.58069 0.0
H139 H 0.95837 0.90915 0.57274 0.0
H140 H 0.15851 0.16512 0.40353 0.0
H141 H 0.22855 0.21251 0.39424 0.0
H142 H 0.28443 0.2068 0.51635 0.0
H143 H 0.2133 0.15944 0.52555 0.0
Pr144 Pr 0.52945 0.07431 0.12105 0.0
Pr145 Pr 0.59211 0.06173 0.0854 0.0
C146 C 0.48458 0.08761 0.17167 0.0
C147 C 0.4899 0.12217 0.19544 0.0
C148 C 0.52551 0.15748 0.19525 0.0
C149 C 0.52856 0.19127 0.21463 0.0
C150 C 0.49602 0.19032 0.23451 0.0
C151 C 0.46119 0.15455 0.23583 0.0
C152 C 0.45811 0.12074 0.2163 0.0
C153 C 0.55402 0.12467 0.06157 0.0
C154 C 0.63484 0.12231 0.16097 0.0
C155 C 0.63446 0.0455 0.03453 0.0
C156 C 0.62188 1.01194 1.00587 0.0
C157 C 0.59503 0.97456 1.01418 0.0
C158 C 0.58184 0.94294 0.9863 0.0
C159 C 0.59467 0.94828 0.94942 0.0
C160 C 0.62088 0.9858 0.94087 0.0
C161 C 0.63448 1.0174 0.96898 0.0
C162 C 0.56683 1.01167 0.14516 0.0
C163 C 0.488 1.01766 0.04199 0.0
O164 O 0.51371 0.07396 0.18247 0.0
O165 O 0.47516 0.08869 0.1332 0.0
O166 O 0.58017 0.11725 0.08751 0.0
O167 O 0.5147 0.10675 0.06659 0.0
O168 O 0.6438 0.11323 0.12785 0.0
O169 O 0.5948 0.10823 0.16664 0.0
O170 O 0.61321 0.06709 1.02607 0.0
O171 O 0.64003 0.03916 0.07214 0.0
O172 O 0.54097 1.01852 0.11825 0.0
O173 O 0.60657 0.03153 0.14216 0.0
O174 O 0.47837 1.02429 0.07575 0.0
O175 O 0.52834 0.03202 0.03747 0.0
H176 H 0.55036 0.15907 0.17922 0.0
H177 H 0.55601 0.2183 0.21349 0.0
H178 H 0.43546 0.15298 0.25059 0.0
H179 H 0.43034 0.0937 0.21657 0.0
H180 H 0.58409 0.96982 0.04216 0.0
H181 H 0.56134 0.91435 0.9934 0.0
H182 H 0.63145 0.99058 0.91273 0.0
H183 H 0.6547 0.04609 0.96187 0.0
Pr184 Pr 0.53864 0.59303 0.57004 0.0
Pr185 Pr 0.50355 0.50878 0.52065 0.0
C186 C 0.55018 0.66679 0.58293 0.0
C187 C 0.53506 0.69123 0.6032 0.0
C188 C 0.52053 0.68195 0.63905 0.0
C189 C 0.49958 0.70226 0.65385 0.0
C190 C 0.49238 0.73139 0.63246 0.0
C191 C 0.5087 0.74158 0.59761 0.0
C192 C 0.53002 0.72174 0.5832 0.0
C193 C 0.55614 0.54022 0.61923 0.0
C194 C 0.44183 0.52221 0.57854 0.0
C195 C 0.49563 0.4391 0.49385 0.0
C196 C 0.52547 0.41972 0.49725 0.0
C197 C 0.5578 0.4299 0.47448 0.0
C198 C 0.58589 0.41151 0.47817 0.0
C199 C 0.58259 0.3829 0.505 0.0
C200 C 0.55074 0.37313 0.5282 0.0
C201 C 0.52235 0.39124 0.52422 0.0
C202 C 0.48549 0.56637 0.48069 0.0
C203 C 0.60463 0.57554 0.52058 0.0
O204 O 0.52126 0.64277 0.5538 0.0
O205 O 0.57475 0.65214 0.60435 0.0
O206 O 0.53793 0.53449 0.5831 0.0
O207 O 0.568 0.57639 0.63167 0.0
O208 O 0.44942 0.49704 0.55772 0.0
O209 O 0.46781 0.55995 0.58338 0.0
O210 O 0.48406 0.44475 0.52675 0.0
O211 O 0.50296 0.46837 0.47165 0.0
O212 O 0.5195 0.57041 0.50451 0.0
O213 O 0.45845 0.52983 0.47495 0.0
O214 O 0.5965 0.60207 0.53856 0.0
O215 O 0.57735 0.53828 0.51559 0.0
H216 H 0.52395 0.65824 0.65471 0.0
H217 H 0.48745 0.69417 0.68097 0.0
H218 H 0.50411 0.76439 0.58104 0.0
H219 H 0.54094 0.72911 0.55541 0.0
H220 H 0.56137 0.45192 0.45362 0.0
H221 H 0.61042 0.41986 0.46018 0.0
H222 H 0.54723 0.35093 0.54885 0.0
H223 H 0.49777 0.38277 0.54214 0.0
Pr224 Pr 1.00613 0.58472 1.01764 0.0
Pr225 Pr 1.031 0.53692 0.08136 0.0
C226 C 0.9676 0.61746 0.96292 0.0
C227 C 0.92783 0.62277 0.94697 0.0
C228 C 0.93063 0.66033 0.94145 0.0
C229 C 0.89492 0.66599 0.9213 0.0
C230 C 0.85567 0.63413 0.90581 0.0
C231 C 0.85246 0.5965 0.91273 0.0
C232 C 0.88815 0.59089 0.93317 0.0
C233 C 0.09366 0.61571 0.05336 0.0
C234 C 0.99504 0.59826 0.11131 0.0
C235 C 0.07019 0.50236 0.13289 0.0
C236 C 0.11464 0.50618 0.14588 0.0
C237 C 0.12786 0.49829 0.18462 0.0
C238 C 0.17066 0.504 0.19841 0.0
C239 C 0.20122 0.51793 0.17373 0.0
C240 C 0.18746 0.52494 0.13446 0.0
C241 C 0.14461 0.51946 0.12076 0.0
C242 C 0.94306 0.50533 0.04709 0.0
C243 C 0.05335 0.53122 0.98987 0.0
O244 O 0.96643 0.58286 0.95734 0.0
O245 O 0.99153 0.63599 0.99702 0.0
O246 O 0.06255 0.60036 0.07052 0.0
O247 O 0.0804 0.61915 1.01622 0.0
O248 O 1.02267 0.58243 0.12236 0.0
O249 O 0.97778 0.59656 0.07295 0.0
O250 O 0.06298 0.53187 0.14357 0.0
O251 O 0.05121 0.48798 0.09629 0.0
O252 O 0.97335 0.52049 1.02858 0.0
O253 O 0.95777 0.50329 0.08422 0.0
O254 O 1.02787 0.54878 0.97702 0.0
O255 O 0.06343 0.52753 1.02847 0.0
H256 H 0.96088 0.68535 0.95174 0.0
H257 H 0.89828 0.6954 0.9174 0.0
H258 H 0.82287 0.57126 0.90114 0.0
H259 H 0.88501 0.56155 0.937 0.0
H260 H 0.10513 0.48803 0.20437 0.0
H261 H 0.17971 0.49721 0.22843 0.0
H262 H 0.20988 0.53535 0.11456 0.0
H263 H 0.13504 0.5261 0.09078 0.0
C264 C 0.46649 0.3912 0.39827 0.0
C265 C 0.44491 0.41235 0.3784 0.0
C266 C 0.44397 0.35729 0.41586 0.0
C267 C 0.39918 0.3451 0.41439 0.0
C268 C 0.37767 0.36716 0.39555 0.0
C269 C 0.40058 0.39991 0.37718 0.0
C270 C 0.46737 0.33337 0.434 0.0
C271 C 0.32974 0.35493 0.39261 0.0
C272 C 0.31751 0.24213 0.4122 0.0
C273 C 0.30425 0.24306 0.44836 0.0
C274 C 0.35156 0.27411 0.40215 0.0
C275 C 0.37318 0.3077 0.42916 0.0
C276 C 0.36312 0.30721 0.46743 0.0
C277 C 0.32851 0.2749 0.47655 0.0
C278 C 0.36093 0.2732 0.36089 0.0
C279 C 0.38613 0.34221 0.49728 0.0
H280 H 0.50051 0.40031 0.39847 0.0
H281 H 0.38312 0.41465 0.35996 0.0
H282 H 0.46266 0.32821 0.46497 0.0
H283 H 0.45358 0.30455 0.41705 0.0
H284 H 0.50249 0.3474 0.43398 0.0
H285 H 0.31863 0.37672 0.37921 0.0
H286 H 0.31146 0.32697 0.37406 0.0
H287 H 0.32157 0.35041 0.42256 0.0
H288 H 0.29964 0.21715 0.3907 0.0
H289 H 0.31865 0.27583 0.50464 0.0
H290 H 0.39548 0.29063 0.36048 0.0
H291 H 0.34173 0.28566 0.3407 0.0
H292 H 0.35177 0.24303 0.34875 0.0
H293 H 0.42137 0.35501 0.49794 0.0
H294 H 0.38063 0.33488 0.52773 0.0
H295 H 0.3741 0.36467 0.48841 0.0
C296 C 0.32353 0.91868 0.83674 0.0
C297 C 0.34291 0.94204 0.80807 0.0
C298 C 0.3387 0.93076 0.87742 0.0
C299 C 0.37354 0.9674 0.88936 0.0
C300 C 0.38916 0.99308 0.86018 0.0
C301 C 0.37376 0.97992 0.81968 0.0
C302 C 0.3209 0.90249 0.90734 0.0
C303 C 0.42548 0.03281 0.87166 0.0
C304 C 0.41711 1.00627 0.99832 0.0
C305 C 0.45397 0.9985 1.00653 0.0
C306 C 0.38956 0.99535 0.96058 0.0
C307 C 0.39896 0.97576 0.93089 0.0
C308 C 0.43468 0.96572 0.94012 0.0
C309 C 0.46195 0.97757 0.97768 0.0
C310 C 0.35215 1.00693 0.95178 0.0
C311 C 0.44528 0.94387 0.90977 0.0
H312 H 0.29946 0.88941 0.82738 0.0
H313 H 0.38873 0.99782 0.79735 0.0
H314 H 0.34361 0.88903 0.91804 0.0
H315 H 0.31763 0.91744 0.93358 0.0
H316 H 0.28894 0.879 0.89411 0.0
H317 H 0.42846 0.05149 0.84644 0.0
H318 H 0.4205 0.04744 0.89714 0.0
H319 H 0.45642 0.02988 0.88105 0.0
H320 H 0.41136 1.02307 1.02044 0.0
H321 H 0.49049 0.97158 0.9841 0.0
H322 H 0.32256 0.98258 0.93554 0.0
H323 H 0.35995 0.03126 0.93235 0.0
H324 H 0.34519 1.01645 0.97936 0.0
H325 H 0.41686 0.91635 0.8983 0.0
H326 H 0.47313 0.93695 0.9223 0.0
H327 H 0.45311 0.96135 0.88408 0.0
C328 C 0.61579 0.39181 0.75611 0.0
C329 C 0.59141 0.38224 0.78597 0.0
C330 C 0.60679 0.4129 0.72476 0.0
C331 C 0.57208 0.424 0.72302 0.0
C332 C 0.54485 0.41103 0.7511 0.0
C333 C 0.55519 0.39064 0.7826 0.0
C334 C 0.6365 0.4259 0.69542 0.0
C335 C 0.50661 0.42104 0.74946 0.0
C336 C 0.58544 0.52119 0.68365 0.0
C337 C 0.56106 0.51026 0.6448 0.0
C338 C 0.58935 0.49334 0.70913 0.0
C339 C 0.56794 0.45341 0.6956 0.0
C340 C 0.54303 0.44217 0.65637 0.0
C341 C 0.5403 0.47081 0.6313 0.0
C342 C 0.61665 0.50674 0.75055 0.0
C343 C 0.51939 0.40006 0.6406 0.0
H344 H 0.64386 0.38524 0.75909 0.0
H345 H 0.53655 0.38321 0.8059 0.0
H346 H 0.61749 0.41918 0.6645 0.0
H347 H 0.65533 0.45782 0.70015 0.0
H348 H 0.65947 0.41191 0.6986 0.0
H349 H 0.48539 0.40442 0.76981 0.0
H350 H 0.51817 0.45246 0.7581 0.0
H351 H 0.48723 0.41513 0.71867 0.0
H352 H 0.60153 0.55167 0.69421 0.0
H353 H 0.52128 0.46225 0.60136 0.0
H354 H 0.64452 0.49874 0.75379 0.0
H355 H 0.59762 0.49216 0.77314 0.0
H356 H 0.62906 0.53857 0.75724 0.0
H357 H 0.54242 0.39007 0.63086 0.0
H358 H 0.49301 0.39573 0.61461 0.0
H359 H 0.5054 0.3815 0.66387 0.0
C360 C 0.93455 0.66347 0.30747 0.0
C361 C 0.92463 0.69606 0.30555 0.0
C362 C 0.9474 0.65006 0.27569 0.0
C363 C 0.9529 0.67065 0.2411 0.0
C364 C 0.94644 0.70555 0.24035 0.0
C365 C 0.9317 0.7174 0.27208 0.0
C366 C 0.95251 0.61235 0.27827 0.0
C367 C 0.95364 0.72977 0.20535 0.0
C368 C 1.01672 0.64271 0.17433 0.0
C369 C 0.98418 0.6187 0.1428 0.0
C370 C 1.00738 0.66137 0.20498 0.0
C371 C 0.964 0.6547 0.20575 0.0
C372 C 0.93099 0.6304 0.17389 0.0
C373 C 0.94151 0.61352 0.14258 0.0
C374 C 0.04417 0.68817 0.23678 0.0
C375 C 0.88415 0.621 0.1736 0.0
H376 H 0.92947 0.64685 0.33319 0.0
H377 H 0.92382 0.74233 0.26983 0.0
H378 H 0.92939 0.59113 0.25352 0.0
H379 H 0.98546 0.61689 0.27501 0.0
H380 H 0.94671 0.59952 0.3069 0.0
H381 H 0.95477 0.75894 0.212 0.0
H382 H 0.98425 0.73329 0.19654 0.0
H383 H 0.92697 0.71495 0.1795 0.0
H384 H 0.04987 0.64732 0.17481 0.0
H385 H 0.91599 0.59491 0.11868 0.0
H386 H 0.04281 0.67498 0.26561 0.0
H387 H 0.04132 0.71604 0.24085 0.0
H388 H 0.07618 0.6943 0.22947 0.0
H389 H 0.86216 0.60127 0.14731 0.0
H390 H 0.87899 0.64804 0.17358 0.0
H391 H 0.87521 0.60709 0.20101 0.0
C392 C 0.52194 0.39722 0.3235 0.0
C393 C 0.48243 0.39997 0.31228 0.0
C394 C 0.52572 0.36265 0.31485 0.0
C395 C 0.48913 0.33052 0.29394 0.0
C396 C 0.44881 0.33308 0.28352 0.0
C397 C 0.44598 0.3679 0.2929 0.0
C398 C 0.56881 0.36056 0.32772 0.0
C399 C 0.40892 0.29933 0.26184 0.0
C400 C 0.506 0.25913 0.22878 0.0
C401 C 0.49686 0.22689 0.25129 0.0
C402 C 0.50434 0.2932 0.24275 0.0
C403 C 0.49358 0.29527 0.28034 0.0
C404 C 0.48556 0.26324 0.30381 0.0
C405 C 0.48686 0.22925 0.2888 0.0
C406 C 0.513 0.32666 0.21675 0.0
C407 C 0.47429 0.26423 0.34419 0.0
H408 H 0.5497 0.42217 0.33916 0.0
H409 H 0.41542 0.37038 0.285 0.0
H410 H 0.5651 0.3354 0.34562 0.0
H411 H 0.58092 0.35606 0.30115 0.0
H412 H 0.59339 0.38731 0.34568 0.0
H413 H 0.37982 0.30569 0.2571 0.0
H414 H 0.41407 0.2919 0.23245 0.0
H415 H 0.40266 0.27342 0.27896 0.0
H416 H 0.51315 0.2573 0.19954 0.0
H417 H 0.48003 0.20448 0.30643 0.0
H418 H 0.53945 0.35331 0.23316 0.0
H419 H 0.48376 0.33262 0.20898 0.0
H420 H 0.52207 0.3208 0.18877 0.0
H421 H 0.49314 0.29316 0.36082 0.0
H422 H 0.48005 0.24201 0.36248 0.0
H423 H 0.43955 0.25811 0.34019 0.0
C424 C 0.277 0.96376 0.73723 0.0
C425 C 0.31522 0.96683 0.7264 0.0
C426 C 0.25524 0.98588 0.71982 0.0
C427 C 0.27194 1.01092 0.69051 0.0
C428 C 0.31302 1.01715 0.68298 0.0
C429 C 0.33445 0.99533 0.70153 0.0
C430 C 0.21226 0.97943 0.72977 0.0
C431 C 0.3321 0.04338 0.65199 0.0
C432 C 0.18494 1.00873 0.6044 0.0
C433 C 0.18336 0.04446 0.61123 0.0
C434 C 0.21488 0.99836 0.62917 0.0
C435 C 0.243 1.02389 0.66247 0.0
C436 C 0.24217 0.06053 0.66901 0.0
C437 C 0.21249 0.07061 0.64291 0.0
C438 C 0.21547 0.95949 0.62029 0.0
C439 C 0.27089 0.08812 0.7046 0.0
H440 H 0.2624 0.94185 0.75672 0.0
H441 H 0.3646 0.99811 0.694 0.0
H442 H 0.20905 1.00729 0.73223 0.0
H443 H 0.18584 0.96032 0.70554 0.0
H444 H 0.20795 0.96545 0.75807 0.0
H445 H 0.36705 0.05049 0.65485 0.0
H446 H 0.31501 0.02858 0.62192 0.0
H447 H 0.32785 0.07076 0.65411 0.0
H448 H 0.16209 0.98856 0.57992 0.0
H449 H 0.21049 0.09795 0.64849 0.0
H450 H 0.20538 0.94062 0.64456 0.0
H451 H 0.2487 0.96328 0.61879 0.0
H452 H 0.19356 0.94432 0.59175 0.0
H453 H 0.25951 0.07626 0.73199 0.0
H454 H 0.27061 0.11729 0.70251 0.0
H455 H 0.30465 0.09122 0.70792 0.0
C456 C 0.69537 0.41991 0.93781 0.0
C457 C 0.68489 0.38568 0.91454 0.0
C458 C 0.73556 0.43801 0.96373 0.0
C459 C 0.76539 0.42085 0.96688 0.0
C460 C 0.75326 0.38442 0.946 0.0
C461 C 0.71309 0.36735 0.91977 0.0
C462 C 0.74721 0.47683 0.98538 0.0
C463 C 0.78391 0.3649 0.94903 0.0
C464 C 0.88455 0.48809 0.98676 0.0
C465 C 0.89735 0.48473 1.02722 0.0
C466 C 0.84159 0.46761 0.96692 0.0
C467 C 0.81076 0.44305 0.98809 0.0
C468 C 0.82342 0.4398 1.02908 0.0
C469 C 0.86664 0.46089 0.04827 0.0
C470 C 0.8292 0.47228 0.92326 0.0
C471 C 0.79144 0.41373 0.05248 0.0
H472 H 0.6729 0.43349 0.93404 0.0
H473 H 0.70473 0.34087 0.90156 0.0
H474 H 0.76167 0.47744 1.01717 0.0
H475 H 0.77173 0.49991 0.97206 0.0
H476 H 0.71873 0.48383 0.98359 0.0
H477 H 0.76752 0.3345 0.93543 0.0
H478 H 0.81053 0.38127 0.9335 0.0
H479 H 0.79864 0.36489 0.98061 0.0
H480 H 0.90823 0.50664 0.9705 0.0
H481 H 0.87651 0.45826 0.0796 0.0
H482 H 0.8055 0.48547 0.91913 0.0
H483 H 0.81346 0.44355 0.90595 0.0
H484 H 0.85749 0.49086 0.91068 0.0
H485 H 0.80638 0.41471 0.08425 0.0
H486 H 0.77769 0.38333 0.03923 0.0
H487 H 0.76416 0.42231 0.05094 0.0
C488 C 0.82197 0.65351 0.42838 0.0
C489 C 0.81283 0.66371 0.38962 0.0
C490 C 0.7891 0.63659 0.4503 0.0
C491 C 0.74593 0.63013 0.43327 0.0
C492 C 0.73651 0.63972 0.39366 0.0
C493 C 0.77007 0.65636 0.37235 0.0
C494 C 0.80085 0.62678 0.49217 0.0
C495 C 0.69121 0.63371 0.37429 0.0
C496 C 0.65165 0.5625 0.47903 0.0
C497 C 0.64333 0.58885 0.50141 0.0
C498 C 0.68521 0.57534 0.4573 0.0
C499 C 0.71122 0.61559 0.45762 0.0
C500 C 0.70363 0.64222 0.48087 0.0
C501 C 0.67005 0.62861 0.50242 0.0
C502 C 0.69225 0.54581 0.43332 0.0
C503 C 0.73035 0.68536 0.48226 0.0
H504 H 0.8552 0.6597 0.44179 0.0
H505 H 0.76324 0.66487 0.34261 0.0
H506 H 0.7955 0.6455 0.51359 0.0
H507 H 0.77976 0.59626 0.49581 0.0
H508 H 0.8351 0.63085 0.50003 0.0
H509 H 0.68869 0.64064 0.34271 0.0
H510 H 0.66836 0.60321 0.37556 0.0
H511 H 0.68083 0.65243 0.3908 0.0
H512 H 0.63134 0.53174 0.47774 0.0
H513 H 0.66411 0.64944 0.51934 0.0
H514 H 0.72631 0.54955 0.44182 0.0
H515 H 0.68623 0.55038 0.40122 0.0
H516 H 0.67072 0.51555 0.43753 0.0
H517 H 0.76513 0.69202 0.49228 0.0
H518 H 0.72123 0.70225 0.50254 0.0
H519 H 0.72622 0.69528 0.45196 0.0
C520 C 0.43956 0.53377 0.27508 0.0
C521 C 0.42896 0.49595 0.28615 0.0
C522 C 0.40742 0.54404 0.2534 0.0
C523 C 0.36406 0.51582 0.24334 0.0
C524 C 0.35369 0.47759 0.25462 0.0
C525 C 0.38636 0.46811 0.27536 0.0
C526 C 0.41948 0.58505 0.24207 0.0
C527 C 0.30775 0.44695 0.24624 0.0
C528 C 0.26613 0.5389 0.229 0.0
C529 C 0.24692 0.52453 0.18929 0.0
C530 C 0.30594 0.53882 0.2466 0.0
C531 C 0.32833 0.5259 0.22337 0.0
C532 C 0.31151 0.51573 0.18208 0.0
C533 C 0.27058 0.51441 0.16564 0.0
C534 C 0.32258 0.55137 0.2904 0.0
C535 C 0.33539 0.50369 0.15583 0.0
H536 H 0.47265 0.55513 0.28373 0.0
H537 H 0.37864 0.43896 0.28434 0.0
H538 H 0.4067 0.58504 0.20993 0.0
H539 H 0.40451 0.5993 0.25889 0.0
H540 H 0.455 0.60247 0.24854 0.0
H541 H 0.30522 0.41893 0.25798 0.0
H542 H 0.28701 0.45712 0.26 0.0
H543 H 0.29468 0.44175 0.21372 0.0
H544 H 0.24913 0.54874 0.24701 0.0
H545 H 0.25641 0.50377 0.13473 0.0
H546 H 0.34355 0.53751 0.30495 0.0
H547 H 0.29557 0.54483 0.30641 0.0
H548 H 0.34149 0.58325 0.29383 0.0
H549 H 0.37043 0.52292 0.16307 0.0
H550 H 0.32282 0.50444 0.12376 0.0
H551 H 0.33168 0.47368 0.16106 0.0
C552 C 0.60741 0.26966 0.88782 0.0
C553 C 0.61108 0.30615 0.90091 0.0
C554 C 0.60106 0.23981 0.91364 0.0
C555 C 0.59832 0.24668 0.95351 0.0
C556 C 0.60293 0.28386 0.96698 0.0
C557 C 0.60925 0.31309 0.94051 0.0
C558 C 0.59657 0.20074 0.89808 0.0
C559 C 0.60009 0.29252 1.00909 0.0
C560 C 0.53379 0.16155 1.00745 0.0
C561 C 0.56631 0.15508 0.03326 0.0
C562 C 0.54385 0.19084 0.98112 0.0
C563 C 0.58762 0.21438 0.98033 0.0
C564 C 0.62071 0.20759 1.00582 0.0
C565 C 0.60966 0.17798 0.03202 0.0
C566 C 0.50751 0.19694 0.95454 0.0
C567 C 0.66774 0.23194 1.00574 0.0
H568 H 0.60972 0.26462 0.8574 0.0
H569 H 0.61204 0.34135 0.9505 0.0
H570 H 0.62008 0.19204 0.91741 0.0
H571 H 0.56378 0.17845 0.89882 0.0
H572 H 0.60182 0.2007 0.86707 0.0
H573 H 0.60674 0.32344 1.01552 0.0
H574 H 0.56731 0.27415 1.01421 0.0
H575 H 0.62344 0.28533 0.03057 0.0
H576 H 0.50018 0.14383 1.00802 0.0
H577 H 0.63491 0.17302 0.05178 0.0
H578 H 0.50991 0.19457 0.9229 0.0
H579 H 0.5101 0.22656 0.96139 0.0
H580 H 0.47517 0.1756 0.95813 0.0
H581 H 0.67397 0.23076 0.97526 0.0
H582 H 0.68953 0.22219 1.0263 0.0
H583 H 0.67596 0.26272 1.01468 0.0
C584 C 0.97461 0.77876 0.40051 0.0
C585 C 0.94467 0.7702 0.36429 0.0
C586 C 0.99601 0.81676 0.4196 0.0
C587 C 0.98829 0.8477 0.40176 0.0
C588 C 0.96166 0.83992 0.36315 0.0
C589 C 0.94005 0.80142 0.34514 0.0
C590 C 1.02368 0.82295 0.46065 0.0
C591 C 0.95316 0.87175 0.34212 0.0
C592 C 0.99856 0.93374 0.46992 0.0
C593 C 0.04027 0.96149 0.46889 0.0
C594 C 0.9814 0.89678 0.44843 0.0
C595 C 1.00595 0.88733 0.42441 0.0
C596 C 0.04777 0.9156 0.42284 0.0
C597 C 0.06446 0.95184 0.44528 0.0
C598 C 0.93706 0.86755 0.45186 0.0
C599 C 0.07503 0.90759 0.39734 0.0
H600 H 0.97729 0.75477 0.41619 0.0
H601 H 0.91605 0.79512 0.31788 0.0
H602 H 0.05499 0.84841 0.46272 0.0
H603 H 1.00701 0.82903 0.48285 0.0
H604 H 1.03012 0.79719 0.46876 0.0
H605 H 0.93721 0.86252 0.31036 0.0
H606 H 0.93187 0.88009 0.35706 0.0
H607 H 0.98377 0.89793 0.3437 0.0
H608 H 0.97963 0.94063 0.48814 0.0
H609 H 0.09665 0.97294 0.44398 0.0
H610 H 0.93899 0.84066 0.46286 0.0
H611 H 0.91535 0.85953 0.42211 0.0
H612 H 0.92239 0.87875 0.47235 0.0
H613 H 0.08208 0.88272 0.40776 0.0
H614 H 0.10614 0.93302 0.39794 0.0
H615 H 0.05705 0.89942 0.36606 0.0
C616 C 0.39716 0.87876 0.68521 0.0
C617 C 0.36378 0.86321 0.70627 0.0
C618 C 0.41523 0.85547 0.67108 0.0
C619 C 0.39929 0.81572 0.67823 0.0
C620 C 0.36452 0.79963 0.69837 0.0
C621 C 0.34715 0.8237 0.71224 0.0
C622 C 0.45293 0.87386 0.65053 0.0
C623 C 0.34678 0.75741 0.70654 0.0
C624 C 0.43197 0.75225 0.61807 0.0
C625 C 0.46661 0.75048 0.64525 0.0
C626 C 0.40874 0.77235 0.62878 0.0
C627 C 0.42127 0.79186 0.66722 0.0
C628 C 0.45601 0.78982 0.69482 0.0
C629 C 0.47767 0.76834 0.68379 0.0
C630 C 0.37144 0.77338 0.59879 0.0
C631 C 0.47093 0.81081 0.73579 0.0
H632 H 0.4102 0.90953 0.68129 0.0
H633 H 0.32128 0.81203 0.72863 0.0
H634 H 0.48231 0.87297 0.66916 0.0
H635 H 0.44666 0.85735 0.62161 0.0
H636 H 0.45964 0.90453 0.64514 0.0
H637 H 0.31705 0.74864 0.71903 0.0
H638 H 0.33937 0.73875 0.6788 0.0
H639 H 0.37147 0.75196 0.72809 0.0
H640 H 0.42312 0.7379 0.58835 0.0
H641 H 0.50419 0.76665 0.70485 0.0
H642 H 0.37893 0.80359 0.5911 0.0
H643 H 0.342 0.76355 0.61179 0.0
H644 H 0.36427 0.75482 0.57099 0.0
H645 H 0.47083 0.84003 0.73487 0.0
H646 H 0.50406 0.81427 0.74932 0.0
H647 H 0.44859 0.79411 0.75516 0.0
C648 C 0.6571 0.73186 0.67368 0.0
C649 C 0.66265 0.73752 0.71498 0.0
C650 C 0.69178 0.75035 0.6544 0.0
C651 C 0.73271 0.7751 0.67725 0.0
C652 C 0.73902 0.77841 0.71932 0.0
C653 C 0.70374 0.75994 0.73759 0.0
C654 C 0.68372 0.74575 0.60955 0.0
C655 C 0.78212 0.80415 0.74496 0.0
C656 C 0.83645 0.82131 0.63794 0.0
C657 C 0.83943 0.85916 0.63381 0.0
C658 C 0.8005 0.79263 0.64977 0.0
C659 C 0.76699 0.80218 0.6577 0.0
C660 C 0.76869 0.83966 0.65121 0.0
C661 C 0.80484 0.86764 0.6393 0.0
C662 C 0.79956 0.75286 0.65595 0.0
C663 C 0.73345 0.85096 0.65904 0.0
H664 H 0.62506 0.71486 0.65645 0.0
H665 H 0.70762 0.76517 0.76943 0.0
H666 H 0.68072 0.77187 0.59744 0.0
H667 H 0.7111 0.74306 0.59929 0.0
H668 H 0.6535 0.72 0.59698 0.0
H669 H 0.78304 0.79944 0.77704 0.0
H670 H 0.80857 0.79886 0.7358 0.0
H671 H 0.78852 0.835 0.74115 0.0
H672 H 0.86314 0.8146 0.63383 0.0
H673 H 0.80661 0.89662 0.63536 0.0
H674 H 0.76737 0.72999 0.64237 0.0
H675 H 0.80533 0.74923 0.6883 0.0
H676 H 0.82459 0.74832 0.64307 0.0
H677 H 0.70136 0.8295 0.64325 0.0
H678 H 0.73793 0.88016 0.64949 0.0
H679 H 0.73314 0.85107 0.69136 0.0
C680 C 0.79837 0.2234 0.36704 0.0
C681 C 0.77506 0.19968 0.39342 0.0
C682 C 0.78503 0.21369 0.32577 0.0
C683 C 0.74793 0.17918 0.31109 0.0
C684 C 0.72684 0.15348 0.33805 0.0
C685 C 0.73994 0.16468 0.37885 0.0
C686 C 0.80789 0.24221 0.2981 0.0
C687 C 0.68772 0.11595 0.32378 0.0
C688 C 0.66357 0.16944 0.22034 0.0
C689 C 0.66984 0.14457 0.19447 0.0
C690 C 0.69182 0.18427 0.25707 0.0
C691 C 0.7262 0.17278 0.26857 0.0
C692 C 0.7345 0.14995 0.24127 0.0
C693 C 0.70633 0.13641 0.20413 0.0
C694 C 0.68255 0.2095 0.28488 0.0
C695 C 0.77042 0.13672 0.25262 0.0
H696 H 0.82467 0.25109 0.3786 0.0
H697 H 0.72075 0.14748 0.39926 0.0
H698 H 0.81044 0.22707 0.27162 0.0
H699 H 0.78898 0.25921 0.28743 0.0
H700 H 0.84079 0.26278 0.31332 0.0
H701 H 0.67983 0.09657 0.34817 0.0
H702 H 0.65938 0.12233 0.31195 0.0
H703 H 0.69302 0.10025 0.29936 0.0
H704 H 0.63542 0.17588 0.21259 0.0
H705 H 0.71088 0.11686 0.18412 0.0
H706 H 0.71277 0.23453 0.29893 0.0
H707 H 0.66869 0.19241 0.30907 0.0
H708 H 0.65921 0.22062 0.26927 0.0
H709 H 0.80024 0.16056 0.26926 0.0
H710 H 0.7779 0.12585 0.2261 0.0
H711 H 0.76047 0.11284 0.27243 0.0
C712 C 0.49261 0.70045 0.30207 0.0
C713 C 0.47015 0.72377 0.30385 0.0
C714 C 0.49963 0.67922 0.33418 0.0
C715 C 0.48447 0.68194 0.36932 0.0
C716 C 0.46581 0.70866 0.37271 0.0
C717 C 0.45856 0.72899 0.33979 0.0
C718 C 0.51943 0.65104 0.32896 0.0
C719 C 0.44956 0.71292 0.40961 0.0
C720 C 0.44766 0.58945 0.4236 0.0
C721 C 0.48335 0.59699 0.45438 0.0
C722 C 0.44724 0.6173 0.39654 0.0
C723 C 0.48345 0.65361 0.40011 0.0
C724 C 0.51909 0.66177 0.43193 0.0
C725 C 0.51868 0.63339 0.45852 0.0
C726 C 0.40857 0.60709 0.36319 0.0
C727 C 0.55815 0.70008 0.43733 0.0
H728 H 0.50028 0.69547 0.27386 0.0
H729 H 0.44006 0.7461 0.34076 0.0
H730 H 0.5456 0.65476 0.35487 0.0
H731 H 0.49448 0.62091 0.32745 0.0
H732 H 0.53281 0.65468 0.3014 0.0
H733 H 0.44246 0.73899 0.41025 0.0
H734 H 0.41944 0.68694 0.41048 0.0
H735 H 0.47354 0.71487 0.43682 0.0
H736 H 0.42038 0.5614 0.42006 0.0
H737 H 0.54664 0.63946 0.48211 0.0
H738 H 0.41752 0.60232 0.33481 0.0
H739 H 0.39797 0.63111 0.36014 0.0
H740 H 0.38094 0.58041 0.36795 0.0
H741 H 0.57492 0.70255 0.41212 0.0
H742 H 0.58145 0.70332 0.46554 0.0
H743 H 0.54814 0.72446 0.43715 0.0
C744 C 0.17836 0.46527 0.84294 0.0
C745 C 0.14935 0.43676 0.81267 0.0
C746 C 0.16384 0.48117 0.87176 0.0
C747 C 0.11896 0.46764 0.87166 0.0
C748 C 0.08955 0.43834 0.84159 0.0
C749 C 0.10493 0.42388 0.81236 0.0
C750 C 0.19673 0.51287 0.9022 0.0
C751 C 0.04157 0.42208 0.84027 0.0
C752 C 0.08413 0.48509 0.96856 0.0
C753 C 0.07112 0.51545 0.96015 0.0
C754 C 0.09916 0.46912 0.9402 0.0
C755 C 0.10279 0.48438 0.90249 0.0
C756 C 0.09062 0.51564 0.89426 0.0
C757 C 0.07447 0.53025 0.92267 0.0
C758 C 0.11044 0.43528 0.95041 0.0
C759 C 0.09493 0.53399 0.85536 0.0
H760 H 0.21269 0.47521 0.84415 0.0
H761 H 0.08196 0.40253 0.78896 0.0
H762 H 0.18934 0.53881 0.90094 0.0
H763 H 0.19514 0.5031 0.93257 0.0
H764 H 0.2302 0.52148 0.89749 0.0
H765 H 1.02303 0.3978 0.81679 0.0
H766 H 1.03464 0.41151 0.86948 0.0
H767 H 1.02986 0.4452 0.83457 0.0
H768 H 0.08159 0.47307 0.99712 0.0
H769 H 0.06495 0.55383 0.91562 0.0
H770 H 0.14481 0.44308 0.94949 0.0
H771 H 0.09068 0.41032 0.92798 0.0
H772 H 0.10496 0.42597 0.98038 0.0
H773 H 0.12864 0.54377 0.85094 0.0
H774 H 0.08625 0.55922 0.85404 0.0
H775 H 0.07373 0.51232 0.83025 0.0
C776 C 0.60902 0.80683 0.79461 0.0
C777 C 0.57429 0.77061 0.78347 0.0
C778 C 0.60622 0.83477 0.81923 0.0
C779 C 0.56786 0.8261 0.83372 0.0
C780 C 0.53207 0.78995 0.82167 0.0
C781 C 0.53575 0.76246 0.79658 0.0
C782 C 0.64507 0.87302 0.83107 0.0
C783 C 0.49043 0.78005 0.83595 0.0
C784 C 0.58954 0.88221 0.93254 0.0
C785 C 0.58226 0.91465 0.92044 0.0
C786 C 0.58243 0.85193 0.90471 0.0
C787 C 0.5673 0.85407 0.86388 0.0
C788 C 0.5577 0.88589 0.85189 0.0
C789 C 0.56533 0.91583 0.88037 0.0
C790 C 0.59383 0.81894 0.91872 0.0
C791 C 0.53975 0.88873 0.80908 0.0
H792 H 0.63918 0.81263 0.78527 0.0
H793 H 0.50906 0.73432 0.78798 0.0
H794 H 0.63583 0.89738 0.82347 0.0
H795 H 0.65707 0.87619 0.86375 0.0
H796 H 0.6719 0.87563 0.81608 0.0
H797 H 0.46385 0.75348 0.81939 0.0
H798 H 0.49529 0.77524 0.86804 0.0
H799 H 0.48049 0.80448 0.83265 0.0
H800 H 0.60278 0.88137 0.96356 0.0
H801 H 0.55872 0.94055 0.87124 0.0
H802 H 0.6224 0.8205 0.90716 0.0
H803 H 0.56685 0.79064 0.90695 0.0
H804 H 0.60144 0.81976 0.95171 0.0
H805 H 0.55548 0.87925 0.78833 0.0
H806 H 0.54349 0.91871 0.80336 0.0
H807 H 0.50475 0.8695 0.80238 0.0
C808 C 0.80714 0.14737 0.45332 0.0
C809 C 0.82395 0.18539 0.47083 0.0
C810 C 0.83277 0.1264 0.45569 0.0
C811 C 0.87568 0.14323 0.47785 0.0
C812 C 0.89244 0.18127 0.49669 0.0
C813 C 0.86654 0.20209 0.49241 0.0
C814 C 0.8139 0.08626 0.43451 0.0
C815 C 0.93761 0.19989 0.52159 0.0
C816 C 0.92934 0.07759 0.51909 0.0
C817 C 0.95991 0.08399 0.49507 0.0
C818 C 0.90123 0.09622 0.51343 0.0
C819 C 0.90283 0.12085 0.48217 0.0
C820 C 0.93192 0.12556 0.45635 0.0
C821 C 0.96071 0.10762 0.46357 0.0
C822 C 0.87158 0.09126 0.5423 0.0
C823 C 0.93354 0.1505 0.42186 0.0
H824 H 0.77375 0.1337 0.43827 0.0
H825 H 0.87947 0.23151 0.50594 0.0
H826 H 0.83548 0.08412 0.41519 0.0
H827 H 0.81137 0.06445 0.45656 0.0
H828 H 0.7813 0.07869 0.41588 0.0
H829 H 0.94514 0.22907 0.53547 0.0
H830 H 0.94159 0.18121 0.5455 0.0
H831 H 0.96157 0.20279 0.50289 0.0
H832 H 0.92914 0.05986 0.54391 0.0
H833 H 0.98437 0.11262 0.445 0.0
H834 H 0.8377 0.08162 0.52605 0.0
H835 H 0.88067 0.11957 0.55894 0.0
H836 H 0.87305 0.06992 0.56406 0.0
H837 H 0.90057 0.14228 0.40382 0.0
H838 H 0.95468 0.14794 0.40223 0.0
H839 H 0.94594 0.18134 0.43324 0.0
C840 C 0.33706 0.66162 0.16386 0.0
C841 C 0.35135 0.69564 0.18855 0.0
C842 C 0.29626 0.64703 0.13857 0.0
C843 C 0.26941 0.66709 0.13849 0.0
C844 C 0.28437 0.70194 0.16317 0.0
C845 C 0.32522 0.71571 0.18806 0.0
C846 C 0.28312 0.61054 0.11209 0.0
C847 C 0.25725 0.72471 0.16328 0.0
C848 C 0.17307 0.64848 0.05489 0.0
C849 C 0.13889 0.62719 0.07354 0.0
C850 C 0.2161 0.66072 0.07524 0.0
C851 C 0.22471 0.65097 0.11477 0.0
C852 C 0.19025 0.62785 0.13289 0.0
C853 C 0.14774 0.61664 0.11221 0.0
C854 C 0.25233 0.68464 0.0549 0.0
C855 C 0.19823 0.61588 0.17456 0.0
H856 H 0.35805 0.64672 0.16413 0.0
H857 H 0.33714 0.74234 0.20712 0.0
H858 H 0.28674 0.58756 0.13044 0.0
H859 H 0.24963 0.59956 0.09461 0.0
H860 H 0.30545 0.61625 0.09104 0.0
H861 H 0.27485 0.75249 0.18232 0.0
H862 H 0.24709 0.73116 0.13251 0.0
H863 H 0.2275 0.70722 0.17435 0.0
H864 H 0.1662 0.65625 1.02481 0.0
H865 H 0.12136 0.5998 0.12656 0.0
H866 H 0.27431 0.67001 0.05442 0.0
H867 H 0.27163 0.71334 0.07191 0.0
H868 H 0.24029 0.68923 1.02386 0.0
H869 H 0.22348 0.60448 0.17808 0.0
H870 H 0.16847 0.59343 0.18208 0.0
H871 H 0.21019 0.64154 0.19633 0.0
C872 C 0.22572 0.44444 0.67435 0.0
C873 C 0.23264 0.42792 0.71005 0.0
C874 C 0.25816 0.45927 0.65147 0.0
C875 C 0.29892 0.45794 0.66469 0.0
C876 C 0.30558 0.4405 0.7005 0.0
C877 C 0.2724 0.42566 0.72259 0.0
C878 C 0.24905 0.47702 0.61346 0.0
C879 C 0.34822 0.43833 0.71603 0.0
C880 C 0.37365 0.46771 0.59113 0.0
C881 C 0.40374 0.50674 0.59888 0.0
C882 C 0.33932 0.45175 0.61174 0.0
C883 C 0.33462 0.47504 0.64139 0.0
C884 C 0.36451 0.51458 0.64907 0.0
C885 C 0.39841 0.52991 0.62776 0.0
C886 C 0.30828 0.40966 0.60203 0.0
C887 C 0.36117 0.54062 0.68044 0.0
H888 H 0.19505 0.44639 0.66481 0.0
H889 H 0.27785 0.4132 0.75038 0.0
H890 H 0.27144 0.50817 0.61603 0.0
H891 H 0.25481 0.46269 0.58823 0.0
H892 H 0.21532 0.47449 0.60638 0.0
H893 H 0.34813 0.42328 0.74382 0.0
H894 H 0.35597 0.42279 0.69327 0.0
H895 H 0.37444 0.46803 0.72207 0.0
H896 H 0.37705 0.44927 0.569 0.0
H897 H 0.42133 0.55995 0.63441 0.0
H898 H 0.27466 0.40712 0.59361 0.0
H899 H 0.30997 0.39341 0.62871 0.0
H900 H 0.31529 0.39567 0.57734 0.0
H901 H 0.32889 0.54133 0.67377 0.0
H902 H 0.3863 0.57078 0.68253 0.0
H903 H 0.36454 0.5289 0.70989 0.0
C904 C 0.67526 0.70645 0.8229 0.0
C905 C 0.65053 0.69102 0.78479 0.0
C906 C 0.70668 0.69403 0.84098 0.0
C907 C 0.71423 0.66595 0.82012 0.0
C908 C 0.68943 0.65025 0.7815 0.0
C909 C 0.65784 0.66312 0.76421 0.0
C910 C 0.73268 0.71189 0.88198 0.0
C911 C 0.69718 0.6209 0.75798 0.0
C912 C 0.82626 0.66916 0.85485 0.0
C913 C 0.81876 0.64028 0.88173 0.0
C914 C 0.79225 0.67675 0.83334 0.0
C915 C 0.74955 0.65468 0.83848 0.0
C916 C 0.74142 0.62437 0.86417 0.0
C917 C 0.77613 0.61764 0.88564 0.0
C918 C 0.80224 0.70931 0.80614 0.0
C919 C 0.6962 0.59993 0.87 0.0
H920 H 0.67098 0.72933 0.83802 0.0
H921 H 0.63926 0.65194 0.73439 0.0
H922 H 0.73065 0.68883 0.90247 0.0
H923 H 0.76722 0.72811 0.88054 0.0
H924 H 0.72141 0.73209 0.89482 0.0
H925 H 0.67127 0.60745 0.73117 0.0
H926 H 0.72839 0.63536 0.74817 0.0
H927 H 0.6995 0.59772 0.77674 0.0
H928 H 0.85889 0.68612 0.85076 0.0
H929 H 0.76993 0.59536 0.90638 0.0
H930 H 0.79482 0.7327 0.81782 0.0
H931 H 0.78166 0.69878 0.77604 0.0
H932 H 0.83666 0.72196 0.80333 0.0
H933 H 0.68398 0.61825 0.88476 0.0
H934 H 0.69481 0.57552 0.88845 0.0
H935 H 0.67411 0.58794 0.84074 0.0
C936 C 0.4833 0.8228 0.26855 0.0
C937 C 0.49223 0.79461 0.25027 0.0
C938 C 0.50059 0.86166 0.259 0.0
C939 C 0.52702 0.87237 0.23011 0.0
C940 C 0.54048 0.84502 0.21562 0.0
C941 C 0.52354 0.80667 0.22656 0.0
C942 C 0.4868 0.89009 0.27667 0.0
C943 C 0.56836 0.85467 0.18468 0.0
C944 C 0.51493 0.94555 0.1576 0.0
C945 C 0.55443 0.97777 0.16941 0.0
C946 C 0.50538 0.91147 0.17759 0.0
C947 C 0.53557 0.90977 0.21095 0.0
C948 C 0.57456 0.94308 0.22423 0.0
C949 C 0.58378 0.97641 0.20296 0.0
C950 C 0.46367 0.87669 0.16185 0.0
C951 C 0.60701 0.94325 0.2603 0.0
H952 H 0.45874 0.81349 0.28655 0.0
H953 H 0.52991 0.78476 0.21197 0.0
H954 H 0.51408 0.91916 0.28368 0.0
H955 H 0.46069 0.89316 0.25476 0.0
H956 H 0.47437 0.88018 0.30419 0.0
H957 H 0.5806 0.83226 0.18045 0.0
H958 H 0.54905 0.85667 0.1558 0.0
H959 H 0.59629 0.88316 0.19297 0.0
H960 H 0.49224 0.94635 0.13159 0.0
H961 H 0.61431 1.00139 0.2124 0.0
H962 H 0.44502 0.86663 0.18578 0.0
H963 H 0.47094 0.85261 0.15179 0.0
H964 H 0.4431 0.88299 0.13645 0.0
H965 H 0.59074 0.93202 0.28555 0.0
H966 H 0.63292 0.97275 0.26977 0.0
H967 H 0.62221 0.92381 0.25355 0.0
C968 C 0.17725 0.31583 0.73802 0.0
C969 C 0.16925 0.34552 0.71866 0.0
C970 C 0.16659 0.27963 0.71748 0.0
C971 C 0.14816 0.27285 0.67612 0.0
C972 C 0.14248 0.30373 0.65601 0.0
C973 C 0.15293 0.33949 0.67747 0.0
C974 C 0.1733 0.24801 0.74054 0.0
C975 C 0.12372 0.29852 0.612 0.0
C976 C 0.14157 0.18229 0.61786 0.0
C977 C 0.09865 0.15584 0.61664 0.0
C978 C 0.15809 0.22047 0.63654 0.0
C979 C 0.13133 0.23265 0.65494 0.0
C980 C 0.08801 0.20592 0.65365 0.0
C981 C 0.07231 0.1683 0.63449 0.0
C982 C 0.20421 0.24785 0.63654 0.0
C983 C 0.05806 0.21697 0.67283 0.0
H984 H 0.19068 0.32062 0.76968 0.0
H985 H 0.1469 0.36237 0.6623 0.0
H986 H 0.14151 0.22388 0.7409 0.0
H987 H 0.19193 0.23601 0.72587 0.0
H988 H 0.19063 0.25849 0.77178 0.0
H989 H 0.12586 0.32629 0.59985 0.0
H990 H 0.14073 0.28615 0.59549 0.0
H991 H 0.08923 0.27773 0.60644 0.0
H992 H 0.16222 0.17324 0.60402 0.0
H993 H 0.03908 0.14839 0.63377 0.0
H994 H 0.22275 0.25651 0.66758 0.0
H995 H 0.20518 0.27471 0.62297 0.0
H996 H 0.22049 0.2347 0.61992 0.0
H997 H 0.07191 0.2255 0.70502 0.0
H998 H 1.0254 0.19292 0.66957 0.0
H999 H 0.05465 0.2424 0.65931 0.0
C1000 C 0.76463 0.30514 0.50512 0.0
C1001 C 0.7465 0.26463 0.50111 0.0
C1002 C 0.74012 0.3253 0.51249 0.0
C1003 C 0.69639 0.30416 0.5154 0.0
C1004 C 0.67918 0.26316 0.51455 0.0
C1005 C 0.70457 0.24386 0.50732 0.0
C1006 C 0.75981 0.36899 0.51349 0.0
C1007 C 0.63277 0.23951 0.51748 0.0
C1008 C 0.6323 0.35737 0.54536 0.0
C1009 C 0.61172 0.36272 0.50807 0.0
C1010 C 0.66014 0.33846 0.54839 0.0
C1011 C 0.66716 0.32434 0.51329 0.0
C1012 C 0.64613 0.32942 0.47558 0.0
C1013 C 0.61879 0.34864 0.47345 0.0
C1014 C 0.68221 0.3338 0.58903 0.0
C1015 C 0.6524 0.31445 0.43738 0.0
H1016 H 0.79688 0.32085 0.49947 0.0
H1017 H 0.69065 0.21245 0.50332 0.0
H1018 H 0.74641 0.37792 0.48525 0.0
H1019 H 0.75164 0.38186 0.53815 0.0
H1020 H 0.79553 0.38116 0.51705 0.0
H1021 H 0.62637 0.20878 0.52225 0.0
H1022 H 0.6242 0.25196 0.54216 0.0
H1023 H 0.6112 0.24014 0.48949 0.0
H1024 H 0.62711 0.36851 0.57217 0.0
H1025 H 0.60242 0.35224 0.44461 0.0
H1026 H 0.71779 0.34824 0.59187 0.0
H1027 H 0.67369 0.30261 0.59287 0.0
H1028 H 0.67318 0.34628 0.61342 0.0
H1029 H 0.68703 0.32814 0.43549 0.0
H1030 H 0.63327 0.3204 0.41055 0.0
H1031 H 0.64277 0.28268 0.43703 0.0
loop_
_geom_bond_atom_site_label_1
_geom_bond_atom_site_label_2
_geom_bond_distance
_geom_bond_site_symmetry_2
_ccdc_geom_bond_type
C0 N1 1.317 . S
C0 N2 1.348 . S
C0 C3 1.485 . S
N1 C0 1.317 . S
N1 N5 1.370 . S
N2 C0 1.348 . S
N2 C4 1.346 . S
C3 C0 1.485 . S
C3 H7 0.960 . S
C3 H8 0.961 . S
C3 H9 0.960 . S
C4 N2 1.346 . S
C4 N5 1.307 . S
C4 C6 1.486 . S
N5 N1 1.370 . S
N5 C4 1.307 . S
C6 C4 1.486 . S
C6 H10 0.960 . S
C6 H11 0.960 . S
C6 H12 0.959 . S
H7 C3 0.960 . S
H8 C3 0.961 . S
H9 C3 0.960 . S
H10 C6 0.960 . S
H11 C6 0.960 . S
H12 C6 0.959 . S
C13 N14 1.317 . S
C13 N15 1.348 . S
C13 C16 1.485 . S
N14 C13 1.317 . S
N14 N18 1.370 . S
N15 C13 1.348 . S
N15 C17 1.346 . S
C16 C13 1.485 . S
C16 H20 0.960 . S
C16 H21 0.961 . S
C16 H22 0.960 . S
C17 N15 1.346 . S
C17 N18 1.307 . S
C17 C19 1.486 . S
N18 N14 1.370 . S
N18 C17 1.307 . S
C19 C17 1.486 . S
C19 H23 0.960 . S
C19 H24 0.960 . S
C19 H25 0.959 . S
H20 C16 0.960 . S
H21 C16 0.961 . S
H22 C16 0.960 . S
H23 C19 0.960 . S
H24 C19 0.960 . S
H25 C19 0.959 . S
C26 N27 1.317 . S
C26 N28 1.348 . S
C26 C29 1.485 . S
N27 C26 1.317 . S
N27 N31 1.370 . S
N28 C26 1.348 . S
N28 C30 1.346 . S
C29 C26 1.485 . S
C29 H33 0.960 . S
C29 H34 0.961 . S
C29 H35 0.960 . S
C30 N28 1.346 . S
C30 N31 1.307 . S
C30 C32 1.486 . S
N31 N27 1.370 . S
N31 C30 1.307 . S
C32 C30 1.486 . S
C32 H36 0.960 . S
C32 H37 0.960 . S
C32 H38 0.959 . S
H33 C29 0.960 . S
H34 C29 0.961 . S
H35 C29 0.960 . S
H36 C32 0.960 . S
H37 C32 0.960 . S
H38 C32 0.959 . S
C39 N40 1.317 . S
C39 N41 1.348 . S
C39 C42 1.485 . S
N40 C39 1.317 . S
N40 N44 1.370 . S
N41 C39 1.348 . S
N41 C43 1.346 . S
C42 C39 1.485 . S
C42 H46 0.960 . S
C42 H47 0.961 . S
C42 H48 0.960 . S
C43 N41 1.346 . S
C43 N44 1.307 . S
C43 C45 1.486 . S
N44 N40 1.370 . S
N44 C43 1.307 . S
C45 C43 1.486 . S
C45 H49 0.960 . S
C45 H50 0.960 . S
C45 H51 0.959 . S
H46 C42 0.960 . S
H47 C42 0.961 . S
H48 C42 0.960 . S
H49 C45 0.960 . S
H50 C45 0.960 . S
H51 C45 0.959 . S
C52 N53 1.317 . S
C52 N54 1.348 . S
C52 C55 1.485 . S
N53 C52 1.317 . S
N53 N57 1.370 . S
N54 C52 1.348 . S
N54 C56 1.346 . S
C55 C52 1.485 . S
C55 H59 0.960 . S
C55 H60 0.961 . S
C55 H61 0.960 . S
C56 N54 1.346 . S
C56 N57 1.307 . S
C56 C58 1.486 . S
N57 N53 1.370 . S
N57 C56 1.307 . S
C58 C56 1.486 . S
C58 H62 0.960 . S
C58 H63 0.960 . S
C58 H64 0.959 . S
H59 C55 0.960 . S
H60 C55 0.961 . S
H61 C55 0.960 . S
H62 C58 0.960 . S
H63 C58 0.960 . S
H64 C58 0.959 . S
C65 N66 1.317 . S
C65 N67 1.348 . S
C65 C68 1.485 . S
N66 C65 1.317 . S
N66 N70 1.370 . S
N67 C65 1.348 . S
N67 C69 1.346 . S
C68 C65 1.485 . S
C68 H72 0.960 . S
C68 H73 0.961 . S
C68 H74 0.960 . S
C69 N67 1.346 . S
C69 N70 1.307 . S
C69 C71 1.486 . S
N70 N66 1.370 . S
N70 C69 1.307 . S
C71 C69 1.486 . S
C71 H75 0.960 . S
C71 H76 0.960 . S
C71 H77 0.959 . S
H72 C68 0.960 . S
H73 C68 0.961 . S
H74 C68 0.960 . S
H75 C71 0.960 . S
H76 C71 0.960 . S
H77 C71 0.959 . S
C78 N79 1.317 . S
C78 N80 1.348 . S
C78 C81 1.485 . S
N79 C78 1.317 . S
N79 N83 1.370 . S
N80 C78 1.348 . S
N80 C82 1.346 . S
C81 C78 1.485 . S
C81 H85 0.960 . S
C81 H86 0.961 . S
C81 H87 0.960 . S
C82 N80 1.346 . S
C82 N83 1.307 . S
C82 C84 1.486 . S
N83 N79 1.370 . S
N83 C82 1.307 . S
C84 C82 1.486 . S
C84 H88 0.960 . S
C84 H89 0.960 . S
C84 H90 0.959 . S
H85 C81 0.960 . S
H86 C81 0.961 . S
H87 C81 0.960 . S
H88 C84 0.960 . S
H89 C84 0.960 . S
H90 C84 0.959 . S
C91 N92 1.317 . S
C91 N93 1.348 . S
C91 C94 1.485 . S
N92 C91 1.317 . S
N92 N96 1.370 . S
N93 C91 1.348 . S
N93 C95 1.346 . S
C94 C91 1.485 . S
C94 H98 0.960 . S
C94 H99 0.961 . S
C94 H100 0.960 . S
C95 N93 1.346 . S
C95 N96 1.307 . S
C95 C97 1.486 . S
N96 N92 1.370 . S
N96 C95 1.307 . S
C97 C95 1.486 . S
C97 H101 0.960 . S
C97 H102 0.960 . S
C97 H103 0.959 . S
H98 C94 0.960 . S
H99 C94 0.961 . S
H100 C94 0.960 . S
H101 C97 0.960 . S
H102 C97 0.960 . S
H103 C97 0.959 . S
Pr104 C106 2.880 1_545 S
Pr104 O124 2.562 1_545 S
Pr104 O125 2.490 1_545 S
Pr104 O126 2.695 1_655 S
Pr104 O127 2.512 1_655 S
Pr104 O129 2.437 1_645 S
Pr104 O132 2.436 1_645 S
Pr104 O134 2.438 . S
Pr105 C115 2.880 . S
Pr105 O126 2.436 . S
Pr105 O128 2.438 . S
Pr105 O130 2.562 . S
Pr105 O131 2.490 . S
Pr105 O132 2.695 1_545 S
Pr105 O133 2.512 1_545 S
Pr105 O135 2.437 . S
C106 Pr104 2.880 1_565 S
C106 C107 1.491 . S
C106 O124 1.254 . S
C106 O125 1.225 . S
C107 C106 1.491 . S
C107 C108 1.392 . S
C107 C112 1.356 . S
C108 C107 1.392 . S
C108 C109 1.368 . S
C108 H136 0.929 . S
C109 C108 1.368 . S
C109 C110 1.386 . S
C109 H137 0.929 . S
C110 C109 1.386 . S
C110 C111 1.373 . S
C111 C110 1.373 . S
C111 C112 1.409 . S
C111 H138 0.931 . S
C112 C107 1.356 . S
C112 C111 1.409 . S
C112 H139 0.930 . S
C113 O126 1.270 . S
C113 O127 1.248 . S
C114 O128 1.267 1_565 S
C114 O129 1.278 . S
C115 Pr105 2.880 . S
C115 C116 1.491 . S
C115 O130 1.254 . S
C115 O131 1.225 . S
C116 C115 1.491 . S
C116 C117 1.392 . S
C116 C121 1.356 . S
C117 C116 1.392 . S
C117 C118 1.368 . S
C117 H140 0.929 . S
C118 C117 1.368 . S
C118 C119 1.386 . S
C118 H141 0.929 . S
C119 C118 1.386 . S
C119 C120 1.373 . S
C120 C119 1.373 . S
C120 C121 1.409 . S
C120 H142 0.931 . S
C121 C116 1.356 . S
C121 C120 1.409 . S
C121 H143 0.930 . S
C122 O132 1.270 . S
C122 O133 1.248 . S
C123 O134 1.267 1_455 S
C123 O135 1.278 . S
O124 Pr104 2.562 1_565 S
O124 C106 1.254 . S
O125 Pr104 2.490 1_565 S
O125 C106 1.225 . S
O126 Pr104 2.695 1_455 S
O126 Pr105 2.436 . S
O126 C113 1.270 . S
O127 Pr104 2.512 1_455 S
O127 C113 1.248 . S
O128 Pr105 2.438 . S
O128 C114 1.267 1_545 S
O129 Pr104 2.437 1_465 S
O129 C114 1.278 . S
O130 Pr105 2.562 . S
O130 C115 1.254 . S
O131 Pr105 2.490 . S
O131 C115 1.225 . S
O132 Pr104 2.436 1_465 S
O132 Pr105 2.695 1_565 S
O132 C122 1.270 . S
O133 Pr105 2.512 1_565 S
O133 C122 1.248 . S
O134 Pr104 2.438 . S
O134 C123 1.267 1_655 S
O135 Pr105 2.437 . S
O135 C123 1.278 . S
H136 C108 0.929 . S
H137 C109 0.929 . S
H138 C111 0.931 . S
H139 C112 0.930 . S
H140 C117 0.929 . S
H141 C118 0.929 . S
H142 C120 0.931 . S
H143 C121 0.930 . S
Pr144 C146 2.880 . S
Pr144 O164 2.562 . S
Pr144 O165 2.490 . S
Pr144 O166 2.695 . S
Pr144 O167 2.512 . S
Pr144 O169 2.437 . S
Pr144 O172 2.436 . S
Pr144 O174 2.438 . S
Pr145 C155 2.880 1_545 S
Pr145 O166 2.436 . S
Pr145 O168 2.438 . S
Pr145 O170 2.562 1_545 S
Pr145 O171 2.490 1_545 S
Pr145 O172 2.695 . S
Pr145 O173 2.512 1_545 S
Pr145 O175 2.437 1_545 S
C146 Pr144 2.880 . S
C146 C147 1.491 . S
C146 O164 1.254 . S
C146 O165 1.225 . S
C147 C146 1.491 . S
C147 C148 1.392 . S
C147 C152 1.356 . S
C148 C147 1.392 . S
C148 C149 1.368 . S
C148 H176 0.929 . S
C149 C148 1.368 . S
C149 C150 1.386 . S
C149 H177 0.929 . S
C150 C149 1.386 . S
C150 C151 1.373 . S
C151 C150 1.373 . S
C151 C152 1.409 . S
C151 H178 0.931 . S
C152 C147 1.356 . S
C152 C151 1.409 . S
C152 H179 0.930 . S
C153 O166 1.270 . S
C153 O167 1.248 . S
C154 O168 1.267 . S
C154 O169 1.278 . S
C155 Pr145 2.880 1_565 S
C155 C156 1.491 1_554 S
C155 O170 1.254 . S
C155 O171 1.225 . S
C156 C155 1.491 1_556 S
C156 C157 1.392 1_556 S
C156 C161 1.356 . S
C157 C156 1.392 1_554 S
C157 C158 1.368 1_554 S
C157 H180 0.929 . S
C158 C157 1.368 1_556 S
C158 C159 1.386 . S
C158 H181 0.929 . S
C159 C158 1.386 . S
C159 C160 1.373 . S
C160 C159 1.373 . S
C160 C161 1.409 . S
C160 H182 0.931 . S
C161 C156 1.356 . S
C161 C160 1.409 . S
C161 H183 0.930 . S
C162 O172 1.270 1_565 S
C162 O173 1.248 . S
C163 O174 1.267 1_565 S
C163 O175 1.278 . S
O164 Pr144 2.562 . S
O164 C146 1.254 . S
O165 Pr144 2.490 . S
O165 C146 1.225 . S
O166 Pr144 2.695 . S
O166 Pr145 2.436 . S
O166 C153 1.270 . S
O167 Pr144 2.512 . S
O167 C153 1.248 . S
O168 Pr145 2.438 . S
O168 C154 1.267 . S
O169 Pr144 2.437 . S
O169 C154 1.278 . S
O170 Pr145 2.562 1_565 S
O170 C155 1.254 . S
O171 Pr145 2.490 1_565 S
O171 C155 1.225 . S
O172 Pr144 2.436 . S
O172 Pr145 2.695 . S
O172 C162 1.270 1_545 S
O173 Pr145 2.512 1_565 S
O173 C162 1.248 . S
O174 Pr144 2.438 . S
O174 C163 1.267 1_545 S
O175 Pr145 2.437 1_565 S
O175 C163 1.278 . S
H176 C148 0.929 . S
H177 C149 0.929 . S
H178 C151 0.931 . S
H179 C152 0.930 . S
H180 C157 0.929 . S
H181 C158 0.929 . S
H182 C160 0.931 . S
H183 C161 0.930 . S
Pr184 C186 2.880 . S
Pr184 O204 2.562 . S
Pr184 O205 2.490 . S
Pr184 O206 2.695 . S
Pr184 O207 2.512 . S
Pr184 O209 2.437 . S
Pr184 O212 2.436 . S
Pr184 O214 2.438 . S
Pr185 C195 2.880 . S
Pr185 O206 2.436 . S
Pr185 O208 2.438 . S
Pr185 O210 2.562 . S
Pr185 O211 2.490 . S
Pr185 O212 2.695 . S
Pr185 O213 2.512 . S
Pr185 O215 2.437 . S
C186 Pr184 2.880 . S
C186 C187 1.491 . S
C186 O204 1.254 . S
C186 O205 1.225 . S
C187 C186 1.491 . S
C187 C188 1.392 . S
C187 C192 1.356 . S
C188 C187 1.392 . S
C188 C189 1.368 . S
C188 H216 0.929 . S
C189 C188 1.368 . S
C189 C190 1.386 . S
C189 H217 0.929 . S
C190 C189 1.386 . S
C190 C191 1.373 . S
C191 C190 1.373 . S
C191 C192 1.409 . S
C191 H218 0.931 . S
C192 C187 1.356 . S
C192 C191 1.409 . S
C192 H219 0.930 . S
C193 O206 1.270 . S
C193 O207 1.248 . S
C194 O208 1.267 . S
C194 O209 1.278 . S
C195 Pr185 2.880 . S
C195 C196 1.491 . S
C195 O210 1.254 . S
C195 O211 1.225 . S
C196 C195 1.491 . S
C196 C197 1.392 . S
C196 C201 1.356 . S
C197 C196 1.392 . S
C197 C198 1.368 . S
C197 H220 0.929 . S
C198 C197 1.368 . S
C198 C199 1.386 . S
C198 H221 0.929 . S
C199 C198 1.386 . S
C199 C200 1.373 . S
C200 C199 1.373 . S
C200 C201 1.409 . S
C200 H222 0.931 . S
C201 C196 1.356 . S
C201 C200 1.409 . S
C201 H223 0.930 . S
C202 O212 1.270 . S
C202 O213 1.248 . S
C203 O214 1.267 . S
C203 O215 1.278 . S
O204 Pr184 2.562 . S
O204 C186 1.254 . S
O205 Pr184 2.490 . S
O205 C186 1.225 . S
O206 Pr184 2.695 . S
O206 Pr185 2.436 . S
O206 C193 1.270 . S
O207 Pr184 2.512 . S
O207 C193 1.248 . S
O208 Pr185 2.438 . S
O208 C194 1.267 . S
O209 Pr184 2.437 . S
O209 C194 1.278 . S
O210 Pr185 2.562 . S
O210 C195 1.254 . S
O211 Pr185 2.490 . S
O211 C195 1.225 . S
O212 Pr184 2.436 . S
O212 Pr185 2.695 . S
O212 C202 1.270 . S
O213 Pr185 2.512 . S
O213 C202 1.248 . S
O214 Pr184 2.438 . S
O214 C203 1.267 . S
O215 Pr185 2.437 . S
O215 C203 1.278 . S
H216 C188 0.929 . S
H217 C189 0.929 . S
H218 C191 0.931 . S
H219 C192 0.930 . S
H220 C197 0.929 . S
H221 C198 0.929 . S
H222 C200 0.931 . S
H223 C201 0.930 . S
Pr224 C226 2.880 1_455 S
Pr224 O244 2.562 1_455 S
Pr224 O245 2.490 1_455 S
Pr224 O246 2.695 1_556 S
Pr224 O247 2.512 1_556 S
Pr224 O249 2.437 1_456 S
Pr224 O252 2.436 1_455 S
Pr224 O254 2.438 . S
Pr225 C235 2.880 . S
Pr225 O246 2.436 . S
Pr225 O248 2.438 1_455 S
Pr225 O250 2.562 . S
Pr225 O251 2.490 . S
Pr225 O252 2.695 1_454 S
Pr225 O253 2.512 1_454 S
Pr225 O255 2.437 1_554 S
C226 Pr224 2.880 1_655 S
C226 C227 1.491 . S
C226 O244 1.254 . S
C226 O245 1.225 . S
C227 C226 1.491 . S
C227 C228 1.392 . S
C227 C232 1.356 . S
C228 C227 1.392 . S
C228 C229 1.368 . S
C228 H256 0.929 . S
C229 C228 1.368 . S
C229 C230 1.386 . S
C229 H257 0.929 . S
C230 C229 1.386 . S
C230 C231 1.373 . S
C231 C230 1.373 . S
C231 C232 1.409 . S
C231 H258 0.931 . S
C232 C227 1.356 . S
C232 C231 1.409 . S
C232 H259 0.930 . S
C233 O246 1.270 . S
C233 O247 1.248 . S
C234 O248 1.267 . S
C234 O249 1.278 . S
C235 Pr225 2.880 . S
C235 C236 1.491 . S
C235 O250 1.254 . S
C235 O251 1.225 . S
C236 C235 1.491 . S
C236 C237 1.392 . S
C236 C241 1.356 . S
C237 C236 1.392 . S
C237 C238 1.368 . S
C237 H260 0.929 . S
C238 C237 1.368 . S
C238 C239 1.386 . S
C238 H261 0.929 . S
C239 C238 1.386 . S
C239 C240 1.373 . S
C240 C239 1.373 . S
C240 C241 1.409 . S
C240 H262 0.931 . S
C241 C236 1.356 . S
C241 C240 1.409 . S
C241 H263 0.930 . S
C242 O252 1.270 . S
C242 O253 1.248 . S
C243 O254 1.267 . S
C243 O255 1.278 . S
O244 Pr224 2.562 1_655 S
O244 C226 1.254 . S
O245 Pr224 2.490 1_655 S
O245 C226 1.225 . S
O246 Pr224 2.695 1_554 S
O246 Pr225 2.436 . S
O246 C233 1.270 . S
O247 Pr224 2.512 1_554 S
O247 C233 1.248 . S
O248 Pr225 2.438 1_655 S
O248 C234 1.267 . S
O249 Pr224 2.437 1_654 S
O249 C234 1.278 . S
O250 Pr225 2.562 . S
O250 C235 1.254 . S
O251 Pr225 2.490 . S
O251 C235 1.225 . S
O252 Pr224 2.436 1_655 S
O252 Pr225 2.695 1_656 S
O252 C242 1.270 . S
O253 Pr225 2.512 1_656 S
O253 C242 1.248 . S
O254 Pr224 2.438 . S
O254 C243 1.267 . S
O255 Pr225 2.437 1_556 S
O255 C243 1.278 . S
H256 C228 0.929 . S
H257 C229 0.929 . S
H258 C231 0.931 . S
H259 C232 0.930 . S
H260 C237 0.929 . S
H261 C238 0.929 . S
H262 C240 0.931 . S
H263 C241 0.930 . S
C264 C265 1.391 . S
C264 C266 1.394 . S
C264 H280 0.931 . S
C265 C264 1.391 . S
C265 C269 1.376 . S
C266 C264 1.394 . S
C266 C267 1.369 . S
C266 C270 1.531 . S
C267 C266 1.369 . S
C267 C268 1.410 . S
C267 C275 1.503 . S
C268 C267 1.410 . S
C268 C269 1.392 . S
C268 C271 1.511 . S
C269 C265 1.376 . S
C269 C268 1.392 . S
C269 H281 0.929 . S
C270 C266 1.531 . S
C270 H282 0.960 . S
C270 H283 0.962 . S
C270 H284 0.960 . S
C271 C268 1.511 . S
C271 H285 0.961 . S
C271 H286 0.961 . S
C271 H287 0.961 . S
C272 C273 1.370 . S
C272 C274 1.363 . S
C272 H288 0.931 . S
C273 C272 1.370 . S
C273 C277 1.408 . S
C274 C272 1.363 . S
C274 C275 1.370 . S
C274 C278 1.524 . S
C275 C267 1.503 . S
C275 C274 1.370 . S
C275 C276 1.403 . S
C276 C275 1.403 . S
C276 C277 1.404 . S
C276 C279 1.539 . S
C277 C273 1.408 . S
C277 C276 1.404 . S
C277 H289 0.930 . S
C278 C274 1.524 . S
C278 H290 0.956 . S
C278 H291 0.961 . S
C278 H292 0.961 . S
C279 C276 1.539 . S
C279 H293 0.958 . S
C279 H294 0.961 . S
C279 H295 0.960 . S
H280 C264 0.931 . S
H281 C269 0.929 . S
H282 C270 0.960 . S
H283 C270 0.962 . S
H284 C270 0.960 . S
H285 C271 0.961 . S
H286 C271 0.961 . S
H287 C271 0.961 . S
H288 C272 0.931 . S
H289 C277 0.930 . S
H290 C278 0.956 . S
H291 C278 0.961 . S
H292 C278 0.961 . S
H293 C279 0.958 . S
H294 C279 0.961 . S
H295 C279 0.960 . S
C296 C297 1.391 . S
C296 C298 1.394 . S
C296 H312 0.931 . S
C297 C296 1.391 . S
C297 C301 1.376 . S
C298 C296 1.394 . S
C298 C299 1.369 . S
C298 C302 1.531 . S
C299 C298 1.369 . S
C299 C300 1.410 . S
C299 C307 1.503 . S
C300 C299 1.410 . S
C300 C301 1.392 . S
C300 C303 1.511 . S
C301 C297 1.376 . S
C301 C300 1.392 . S
C301 H313 0.929 . S
C302 C298 1.531 . S
C302 H314 0.960 . S
C302 H315 0.962 . S
C302 H316 0.960 . S
C303 C300 1.511 . S
C303 H317 0.961 . S
C303 H318 0.961 . S
C303 H319 0.961 . S
C304 C305 1.370 . S
C304 C306 1.363 . S
C304 H320 0.931 . S
C305 C304 1.370 . S
C305 C309 1.408 . S
C306 C304 1.363 . S
C306 C307 1.370 . S
C306 C310 1.524 . S
C307 C299 1.503 . S
C307 C306 1.370 . S
C307 C308 1.403 . S
C308 C307 1.403 . S
C308 C309 1.404 . S
C308 C311 1.539 . S
C309 C305 1.408 . S
C309 C308 1.404 . S
C309 H321 0.930 . S
C310 C306 1.524 . S
C310 H322 0.956 . S
C310 H323 0.961 . S
C310 H324 0.961 . S
C311 C308 1.539 . S
C311 H325 0.958 . S
C311 H326 0.961 . S
C311 H327 0.960 . S
H312 C296 0.931 . S
H313 C301 0.929 . S
H314 C302 0.960 . S
H315 C302 0.962 . S
H316 C302 0.960 . S
H317 C303 0.961 . S
H318 C303 0.961 . S
H319 C303 0.961 . S
H320 C304 0.931 . S
H321 C309 0.930 . S
H322 C310 0.956 . S
H323 C310 0.961 . S
H324 C310 0.961 . S
H325 C311 0.958 . S
H326 C311 0.961 . S
H327 C311 0.960 . S
C328 C329 1.391 . S
C328 C330 1.394 . S
C328 H344 0.931 . S
C329 C328 1.391 . S
C329 C333 1.376 . S
C330 C328 1.394 . S
C330 C331 1.369 . S
C330 C334 1.531 . S
C331 C330 1.369 . S
C331 C332 1.410 . S
C331 C339 1.503 . S
C332 C331 1.410 . S
C332 C333 1.392 . S
C332 C335 1.511 . S
C333 C329 1.376 . S
C333 C332 1.392 . S
C333 H345 0.929 . S
C334 C330 1.531 . S
C334 H346 0.960 . S
C334 H347 0.962 . S
C334 H348 0.960 . S
C335 C332 1.511 . S
C335 H349 0.961 . S
C335 H350 0.961 . S
C335 H351 0.961 . S
C336 C337 1.370 . S
C336 C338 1.363 . S
C336 H352 0.931 . S
C337 C336 1.370 . S
C337 C341 1.408 . S
C338 C336 1.363 . S
C338 C339 1.370 . S
C338 C342 1.524 . S
C339 C331 1.503 . S
C339 C338 1.370 . S
C339 C340 1.403 . S
C340 C339 1.403 . S
C340 C341 1.404 . S
C340 C343 1.539 . S
C341 C337 1.408 . S
C341 C340 1.404 . S
C341 H353 0.930 . S
C342 C338 1.524 . S
C342 H354 0.956 . S
C342 H355 0.961 . S
C342 H356 0.961 . S
C343 C340 1.539 . S
C343 H357 0.958 . S
C343 H358 0.961 . S
C343 H359 0.960 . S
H344 C328 0.931 . S
H345 C333 0.929 . S
H346 C334 0.960 . S
H347 C334 0.962 . S
H348 C334 0.960 . S
H349 C335 0.961 . S
H350 C335 0.961 . S
H351 C335 0.961 . S
H352 C336 0.931 . S
H353 C341 0.930 . S
H354 C342 0.956 . S
H355 C342 0.961 . S
H356 C342 0.961 . S
H357 C343 0.958 . S
H358 C343 0.961 . S
H359 C343 0.960 . S
C360 C361 1.391 . S
C360 C362 1.394 . S
C360 H376 0.931 . S
C361 C360 1.391 . S
C361 C365 1.376 . S
C362 C360 1.394 . S
C362 C363 1.369 . S
C362 C366 1.531 . S
C363 C362 1.369 . S
C363 C364 1.410 . S
C363 C371 1.503 . S
C364 C363 1.410 . S
C364 C365 1.392 . S
C364 C367 1.511 . S
C365 C361 1.376 . S
C365 C364 1.392 . S
C365 H377 0.929 . S
C366 C362 1.531 . S
C366 H378 0.960 . S
C366 H379 0.962 . S
C366 H380 0.960 . S
C367 C364 1.511 . S
C367 H381 0.961 . S
C367 H382 0.961 . S
C367 H383 0.961 . S
C368 C369 1.370 . S
C368 C370 1.363 . S
C368 H384 0.931 . S
C369 C368 1.370 . S
C369 C373 1.408 . S
C370 C368 1.363 . S
C370 C371 1.370 . S
C370 C374 1.524 . S
C371 C363 1.503 . S
C371 C370 1.370 . S
C371 C372 1.403 . S
C372 C371 1.403 . S
C372 C373 1.404 . S
C372 C375 1.539 . S
C373 C369 1.408 . S
C373 C372 1.404 . S
C373 H385 0.930 . S
C374 C370 1.524 . S
C374 H386 0.956 . S
C374 H387 0.961 . S
C374 H388 0.961 . S
C375 C372 1.539 . S
C375 H389 0.958 . S
C375 H390 0.961 . S
C375 H391 0.960 . S
H376 C360 0.931 . S
H377 C365 0.929 . S
H378 C366 0.960 . S
H379 C366 0.962 . S
H380 C366 0.960 . S
H381 C367 0.961 . S
H382 C367 0.961 . S
H383 C367 0.961 . S
H384 C368 0.931 . S
H385 C373 0.930 . S
H386 C374 0.956 . S
H387 C374 0.961 . S
H388 C374 0.961 . S
H389 C375 0.958 . S
H390 C375 0.961 . S
H391 C375 0.960 . S
C392 C393 1.391 . S
C392 C394 1.394 . S
C392 H408 0.931 . S
C393 C392 1.391 . S
C393 C397 1.376 . S
C394 C392 1.394 . S
C394 C395 1.369 . S
C394 C398 1.531 . S
C395 C394 1.369 . S
C395 C396 1.410 . S
C395 C403 1.503 . S
C396 C395 1.410 . S
C396 C397 1.392 . S
C396 C399 1.511 . S
C397 C393 1.376 . S
C397 C396 1.392 . S
C397 H409 0.929 . S
C398 C394 1.531 . S
C398 H410 0.960 . S
C398 H411 0.962 . S
C398 H412 0.960 . S
C399 C396 1.511 . S
C399 H413 0.961 . S
C399 H414 0.961 . S
C399 H415 0.961 . S
C400 C401 1.370 . S
C400 C402 1.363 . S
C400 H416 0.931 . S
C401 C400 1.370 . S
C401 C405 1.408 . S
C402 C400 1.363 . S
C402 C403 1.370 . S
C402 C406 1.524 . S
C403 C395 1.503 . S
C403 C402 1.370 . S
C403 C404 1.403 . S
C404 C403 1.403 . S
C404 C405 1.404 . S
C404 C407 1.539 . S
C405 C401 1.408 . S
C405 C404 1.404 . S
C405 H417 0.930 . S
C406 C402 1.524 . S
C406 H418 0.956 . S
C406 H419 0.961 . S
C406 H420 0.961 . S
C407 C404 1.539 . S
C407 H421 0.958 . S
C407 H422 0.961 . S
C407 H423 0.960 . S
H408 C392 0.931 . S
H409 C397 0.929 . S
H410 C398 0.960 . S
H411 C398 0.962 . S
H412 C398 0.960 . S
H413 C399 0.961 . S
H414 C399 0.961 . S
H415 C399 0.961 . S
H416 C400 0.931 . S
H417 C405 0.930 . S
H418 C406 0.956 . S
H419 C406 0.961 . S
H420 C406 0.961 . S
H421 C407 0.958 . S
H422 C407 0.961 . S
H423 C407 0.960 . S
C424 C425 1.391 . S
C424 C426 1.394 . S
C424 H440 0.931 . S
C425 C424 1.391 . S
C425 C429 1.376 . S
C426 C424 1.394 . S
C426 C427 1.369 . S
C426 C430 1.531 . S
C427 C426 1.369 . S
C427 C428 1.410 . S
C427 C435 1.503 . S
C428 C427 1.410 . S
C428 C429 1.392 . S
C428 C431 1.511 . S
C429 C425 1.376 . S
C429 C428 1.392 . S
C429 H441 0.929 . S
C430 C426 1.531 . S
C430 H442 0.960 . S
C430 H443 0.962 . S
C430 H444 0.960 . S
C431 C428 1.511 . S
C431 H445 0.961 . S
C431 H446 0.961 . S
C431 H447 0.961 . S
C432 C433 1.370 . S
C432 C434 1.363 . S
C432 H448 0.931 . S
C433 C432 1.370 . S
C433 C437 1.408 . S
C434 C432 1.363 . S
C434 C435 1.370 . S
C434 C438 1.524 . S
C435 C427 1.503 . S
C435 C434 1.370 . S
C435 C436 1.403 . S
C436 C435 1.403 . S
C436 C437 1.404 . S
C436 C439 1.539 . S
C437 C433 1.408 . S
C437 C436 1.404 . S
C437 H449 0.930 . S
C438 C434 1.524 . S
C438 H450 0.956 . S
C438 H451 0.961 . S
C438 H452 0.961 . S
C439 C436 1.539 . S
C439 H453 0.958 . S
C439 H454 0.961 . S
C439 H455 0.960 . S
H440 C424 0.931 . S
H441 C429 0.929 . S
H442 C430 0.960 . S
H443 C430 0.962 . S
H444 C430 0.960 . S
H445 C431 0.961 . S
H446 C431 0.961 . S
H447 C431 0.961 . S
H448 C432 0.931 . S
H449 C437 0.930 . S
H450 C438 0.956 . S
H451 C438 0.961 . S
H452 C438 0.961 . S
H453 C439 0.958 . S
H454 C439 0.961 . S
H455 C439 0.960 . S
C456 C457 1.391 . S
C456 C458 1.394 . S
C456 H472 0.931 . S
C457 C456 1.391 . S
C457 C461 1.376 . S
C458 C456 1.394 . S
C458 C459 1.369 . S
C458 C462 1.531 . S
C459 C458 1.369 . S
C459 C460 1.410 . S
C459 C467 1.503 . S
C460 C459 1.410 . S
C460 C461 1.392 . S
C460 C463 1.511 . S
C461 C457 1.376 . S
C461 C460 1.392 . S
C461 H473 0.929 . S
C462 C458 1.531 . S
C462 H474 0.960 . S
C462 H475 0.962 . S
C462 H476 0.960 . S
C463 C460 1.511 . S
C463 H477 0.961 . S
C463 H478 0.961 . S
C463 H479 0.961 . S
C464 C465 1.370 . S
C464 C466 1.363 . S
C464 H480 0.931 . S
C465 C464 1.370 . S
C465 C469 1.408 . S
C466 C464 1.363 . S
C466 C467 1.370 . S
C466 C470 1.524 . S
C467 C459 1.503 . S
C467 C466 1.370 . S
C467 C468 1.403 . S
C468 C467 1.403 . S
C468 C469 1.404 . S
C468 C471 1.539 . S
C469 C465 1.408 . S
C469 C468 1.404 . S
C469 H481 0.930 . S
C470 C466 1.524 . S
C470 H482 0.956 . S
C470 H483 0.961 . S
C470 H484 0.961 . S
C471 C468 1.539 . S
C471 H485 0.958 . S
C471 H486 0.961 . S
C471 H487 0.960 . S
H472 C456 0.931 . S
H473 C461 0.929 . S
H474 C462 0.960 . S
H475 C462 0.962 . S
H476 C462 0.960 . S
H477 C463 0.961 . S
H478 C463 0.961 . S
H479 C463 0.961 . S
H480 C464 0.931 . S
H481 C469 0.930 . S
H482 C470 0.956 . S
H483 C470 0.961 . S
H484 C470 0.961 . S
H485 C471 0.958 . S
H486 C471 0.961 . S
H487 C471 0.960 . S
C488 C489 1.391 . S
C488 C490 1.394 . S
C488 H504 0.931 . S
C489 C488 1.391 . S
C489 C493 1.376 . S
C490 C488 1.394 . S
C490 C491 1.369 . S
C490 C494 1.531 . S
C491 C490 1.369 . S
C491 C492 1.410 . S
C491 C499 1.503 . S
C492 C491 1.410 . S
C492 C493 1.392 . S
C492 C495 1.511 . S
C493 C489 1.376 . S
C493 C492 1.392 . S
C493 H505 0.929 . S
C494 C490 1.531 . S
C494 H506 0.960 . S
C494 H507 0.962 . S
C494 H508 0.960 . S
C495 C492 1.511 . S
C495 H509 0.961 . S
C495 H510 0.961 . S
C495 H511 0.961 . S
C496 C497 1.370 . S
C496 C498 1.363 . S
C496 H512 0.931 . S
C497 C496 1.370 . S
C497 C501 1.408 . S
C498 C496 1.363 . S
C498 C499 1.370 . S
C498 C502 1.524 . S
C499 C491 1.503 . S
C499 C498 1.370 . S
C499 C500 1.403 . S
C500 C499 1.403 . S
C500 C501 1.404 . S
C500 C503 1.539 . S
C501 C497 1.408 . S
C501 C500 1.404 . S
C501 H513 0.930 . S
C502 C498 1.524 . S
C502 H514 0.956 . S
C502 H515 0.961 . S
C502 H516 0.961 . S
C503 C500 1.539 . S
C503 H517 0.958 . S
C503 H518 0.961 . S
C503 H519 0.960 . S
H504 C488 0.931 . S
H505 C493 0.929 . S
H506 C494 0.960 . S
H507 C494 0.962 . S
H508 C494 0.960 . S
H509 C495 0.961 . S
H510 C495 0.961 . S
H511 C495 0.961 . S
H512 C496 0.931 . S
H513 C501 0.930 . S
H514 C502 0.956 . S
H515 C502 0.961 . S
H516 C502 0.961 . S
H517 C503 0.958 . S
H518 C503 0.961 . S
H519 C503 0.960 . S
C520 C521 1.391 . S
C520 C522 1.394 . S
C520 H536 0.931 . S
C521 C520 1.391 . S
C521 C525 1.376 . S
C522 C520 1.394 . S
C522 C523 1.369 . S
C522 C526 1.531 . S
C523 C522 1.369 . S
C523 C524 1.410 . S
C523 C531 1.503 . S
C524 C523 1.410 . S
C524 C525 1.392 . S
C524 C527 1.511 . S
C525 C521 1.376 . S
C525 C524 1.392 . S
C525 H537 0.929 . S
C526 C522 1.531 . S
C526 H538 0.960 . S
C526 H539 0.962 . S
C526 H540 0.960 . S
C527 C524 1.511 . S
C527 H541 0.961 . S
C527 H542 0.961 . S
C527 H543 0.961 . S
C528 C529 1.370 . S
C528 C530 1.363 . S
C528 H544 0.931 . S
C529 C528 1.370 . S
C529 C533 1.408 . S
C530 C528 1.363 . S
C530 C531 1.370 . S
C530 C534 1.524 . S
C531 C523 1.503 . S
C531 C530 1.370 . S
C531 C532 1.403 . S
C532 C531 1.403 . S
C532 C533 1.404 . S
C532 C535 1.539 . S
C533 C529 1.408 . S
C533 C532 1.404 . S
C533 H545 0.930 . S
C534 C530 1.524 . S
C534 H546 0.956 . S
C534 H547 0.961 . S
C534 H548 0.961 . S
C535 C532 1.539 . S
C535 H549 0.958 . S
C535 H550 0.961 . S
C535 H551 0.960 . S
H536 C520 0.931 . S
H537 C525 0.929 . S
H538 C526 0.960 . S
H539 C526 0.962 . S
H540 C526 0.960 . S
H541 C527 0.961 . S
H542 C527 0.961 . S
H543 C527 0.961 . S
H544 C528 0.931 . S
H545 C533 0.930 . S
H546 C534 0.956 . S
H547 C534 0.961 . S
H548 C534 0.961 . S
H549 C535 0.958 . S
H550 C535 0.961 . S
H551 C535 0.960 . S
C552 C553 1.391 . S
C552 C554 1.394 . S
C552 H568 0.931 . S
C553 C552 1.391 . S
C553 C557 1.376 . S
C554 C552 1.394 . S
C554 C555 1.369 . S
C554 C558 1.531 . S
C555 C554 1.369 . S
C555 C556 1.410 . S
C555 C563 1.503 . S
C556 C555 1.410 . S
C556 C557 1.392 . S
C556 C559 1.511 . S
C557 C553 1.376 . S
C557 C556 1.392 . S
C557 H569 0.929 . S
C558 C554 1.531 . S
C558 H570 0.960 . S
C558 H571 0.962 . S
C558 H572 0.960 . S
C559 C556 1.511 . S
C559 H573 0.961 . S
C559 H574 0.961 . S
C559 H575 0.961 . S
C560 C561 1.370 . S
C560 C562 1.363 . S
C560 H576 0.931 . S
C561 C560 1.370 . S
C561 C565 1.408 . S
C562 C560 1.363 . S
C562 C563 1.370 . S
C562 C566 1.524 . S
C563 C555 1.503 . S
C563 C562 1.370 . S
C563 C564 1.403 . S
C564 C563 1.403 . S
C564 C565 1.404 . S
C564 C567 1.539 . S
C565 C561 1.408 . S
C565 C564 1.404 . S
C565 H577 0.930 1_556 S
C566 C562 1.524 . S
C566 H578 0.956 . S
C566 H579 0.961 . S
C566 H580 0.961 . S
C567 C564 1.539 . S
C567 H581 0.958 . S
C567 H582 0.961 . S
C567 H583 0.960 . S
H568 C552 0.931 . S
H569 C557 0.929 . S
H570 C558 0.960 . S
H571 C558 0.962 . S
H572 C558 0.960 . S
H573 C559 0.961 . S
H574 C559 0.961 . S
H575 C559 0.961 . S
H576 C560 0.931 . S
H577 C565 0.930 1_554 S
H578 C566 0.956 . S
H579 C566 0.961 . S
H580 C566 0.961 . S
H581 C567 0.958 . S
H582 C567 0.961 . S
H583 C567 0.960 . S
C584 C585 1.391 . S
C584 C586 1.394 . S
C584 H600 0.931 . S
C585 C584 1.391 . S
C585 C589 1.376 . S
C586 C584 1.394 . S
C586 C587 1.369 . S
C586 C590 1.531 . S
C587 C586 1.369 . S
C587 C588 1.410 . S
C587 C595 1.503 . S
C588 C587 1.410 . S
C588 C589 1.392 . S
C588 C591 1.511 . S
C589 C585 1.376 . S
C589 C588 1.392 . S
C589 H601 0.929 . S
C590 C586 1.531 . S
C590 H602 0.960 . S
C590 H603 0.962 . S
C590 H604 0.960 . S
C591 C588 1.511 . S
C591 H605 0.961 . S
C591 H606 0.961 . S
C591 H607 0.961 . S
C592 C593 1.370 . S
C592 C594 1.363 . S
C592 H608 0.931 . S
C593 C592 1.370 . S
C593 C597 1.408 . S
C594 C592 1.363 . S
C594 C595 1.370 . S
C594 C598 1.524 . S
C595 C587 1.503 . S
C595 C594 1.370 . S
C595 C596 1.403 . S
C596 C595 1.403 . S
C596 C597 1.404 . S
C596 C599 1.539 . S
C597 C593 1.408 . S
C597 C596 1.404 . S
C597 H609 0.930 1_655 S
C598 C594 1.524 . S
C598 H610 0.956 . S
C598 H611 0.961 . S
C598 H612 0.961 . S
C599 C596 1.539 . S
C599 H613 0.958 . S
C599 H614 0.961 1_655 S
C599 H615 0.960 . S
H600 C584 0.931 . S
H601 C589 0.929 . S
H602 C590 0.960 . S
H603 C590 0.962 . S
H604 C590 0.960 . S
H605 C591 0.961 . S
H606 C591 0.961 . S
H607 C591 0.961 . S
H608 C592 0.931 . S
H609 C597 0.930 1_455 S
H610 C598 0.956 . S
H611 C598 0.961 . S
H612 C598 0.961 . S
H613 C599 0.958 . S
H614 C599 0.961 1_455 S
H615 C599 0.960 . S
C616 C617 1.391 . S
C616 C618 1.394 . S
C616 H632 0.931 . S
C617 C616 1.391 . S
C617 C621 1.376 . S
C618 C616 1.394 . S
C618 C619 1.369 . S
C618 C622 1.531 . S
C619 C618 1.369 . S
C619 C620 1.410 . S
C619 C627 1.503 . S
C620 C619 1.410 . S
C620 C621 1.392 . S
C620 C623 1.511 . S
C621 C617 1.376 . S
C621 C620 1.392 . S
C621 H633 0.929 . S
C622 C618 1.531 . S
C622 H634 0.960 . S
C622 H635 0.962 . S
C622 H636 0.960 . S
C623 C620 1.511 . S
C623 H637 0.961 . S
C623 H638 0.961 . S
C623 H639 0.961 . S
C624 C625 1.370 . S
C624 C626 1.363 . S
C624 H640 0.931 . S
C625 C624 1.370 . S
C625 C629 1.408 . S
C626 C624 1.363 . S
C626 C627 1.370 . S
C626 C630 1.524 . S
C627 C619 1.503 . S
C627 C626 1.370 . S
C627 C628 1.403 . S
C628 C627 1.403 . S
C628 C629 1.404 . S
C628 C631 1.539 . S
C629 C625 1.408 . S
C629 C628 1.404 . S
C629 H641 0.930 . S
C630 C626 1.524 . S
C630 H642 0.956 . S
C630 H643 0.961 . S
C630 H644 0.961 . S
C631 C628 1.539 . S
C631 H645 0.958 . S
C631 H646 0.961 . S
C631 H647 0.960 . S
H632 C616 0.931 . S
H633 C621 0.929 . S
H634 C622 0.960 . S
H635 C622 0.962 . S
H636 C622 0.960 . S
H637 C623 0.961 . S
H638 C623 0.961 . S
H639 C623 0.961 . S
H640 C624 0.931 . S
H641 C629 0.930 . S
H642 C630 0.956 . S
H643 C630 0.961 . S
H644 C630 0.961 . S
H645 C631 0.958 . S
H646 C631 0.961 . S
H647 C631 0.960 . S
C648 C649 1.391 . S
C648 C650 1.394 . S
C648 H664 0.931 . S
C649 C648 1.391 . S
C649 C653 1.376 . S
C650 C648 1.394 . S
C650 C651 1.369 . S
C650 C654 1.531 . S
C651 C650 1.369 . S
C651 C652 1.410 . S
C651 C659 1.503 . S
C652 C651 1.410 . S
C652 C653 1.392 . S
C652 C655 1.511 . S
C653 C649 1.376 . S
C653 C652 1.392 . S
C653 H665 0.929 . S
C654 C650 1.531 . S
C654 H666 0.960 . S
C654 H667 0.962 . S
C654 H668 0.960 . S
C655 C652 1.511 . S
C655 H669 0.961 . S
C655 H670 0.961 . S
C655 H671 0.961 . S
C656 C657 1.370 . S
C656 C658 1.363 . S
C656 H672 0.931 . S
C657 C656 1.370 . S
C657 C661 1.408 . S
C658 C656 1.363 . S
C658 C659 1.370 . S
C658 C662 1.524 . S
C659 C651 1.503 . S
C659 C658 1.370 . S
C659 C660 1.403 . S
C660 C659 1.403 . S
C660 C661 1.404 . S
C660 C663 1.539 . S
C661 C657 1.408 . S
C661 C660 1.404 . S
C661 H673 0.930 . S
C662 C658 1.524 . S
C662 H674 0.956 . S
C662 H675 0.961 . S
C662 H676 0.961 . S
C663 C660 1.539 . S
C663 H677 0.958 . S
C663 H678 0.961 . S
C663 H679 0.960 . S
H664 C648 0.931 . S
H665 C653 0.929 . S
H666 C654 0.960 . S
H667 C654 0.962 . S
H668 C654 0.960 . S
H669 C655 0.961 . S
H670 C655 0.961 . S
H671 C655 0.961 . S
H672 C656 0.931 . S
H673 C661 0.930 . S
H674 C662 0.956 . S
H675 C662 0.961 . S
H676 C662 0.961 . S
H677 C663 0.958 . S
H678 C663 0.961 . S
H679 C663 0.960 . S
C680 C681 1.391 . S
C680 C682 1.394 . S
C680 H696 0.931 . S
C681 C680 1.391 . S
C681 C685 1.376 . S
C682 C680 1.394 . S
C682 C683 1.369 . S
C682 C686 1.531 . S
C683 C682 1.369 . S
C683 C684 1.410 . S
C683 C691 1.503 . S
C684 C683 1.410 . S
C684 C685 1.392 . S
C684 C687 1.511 . S
C685 C681 1.376 . S
C685 C684 1.392 . S
C685 H697 0.929 . S
C686 C682 1.531 . S
C686 H698 0.960 . S
C686 H699 0.962 . S
C686 H700 0.960 . S
C687 C684 1.511 . S
C687 H701 0.961 . S
C687 H702 0.961 . S
C687 H703 0.961 . S
C688 C689 1.370 . S
C688 C690 1.363 . S
C688 H704 0.931 . S
C689 C688 1.370 . S
C689 C693 1.408 . S
C690 C688 1.363 . S
C690 C691 1.370 . S
C690 C694 1.524 . S
C691 C683 1.503 . S
C691 C690 1.370 . S
C691 C692 1.403 . S
C692 C691 1.403 . S
C692 C693 1.404 . S
C692 C695 1.539 . S
C693 C689 1.408 . S
C693 C692 1.404 . S
C693 H705 0.930 . S
C694 C690 1.524 . S
C694 H706 0.956 . S
C694 H707 0.961 . S
C694 H708 0.961 . S
C695 C692 1.539 . S
C695 H709 0.958 . S
C695 H710 0.961 . S
C695 H711 0.960 . S
H696 C680 0.931 . S
H697 C685 0.929 . S
H698 C686 0.960 . S
H699 C686 0.962 . S
H700 C686 0.960 . S
H701 C687 0.961 . S
H702 C687 0.961 . S
H703 C687 0.961 . S
H704 C688 0.931 . S
H705 C693 0.930 . S
H706 C694 0.956 . S
H707 C694 0.961 . S
H708 C694 0.961 . S
H709 C695 0.958 . S
H710 C695 0.961 . S
H711 C695 0.960 . S
C712 C713 1.391 . S
C712 C714 1.394 . S
C712 H728 0.931 . S
C713 C712 1.391 . S
C713 C717 1.376 . S
C714 C712 1.394 . S
C714 C715 1.369 . S
C714 C718 1.531 . S
C715 C714 1.369 . S
C715 C716 1.410 . S
C715 C723 1.503 . S
C716 C715 1.410 . S
C716 C717 1.392 . S
C716 C719 1.511 . S
C717 C713 1.376 . S
C717 C716 1.392 . S
C717 H729 0.929 . S
C718 C714 1.531 . S
C718 H730 0.960 . S
C718 H731 0.962 . S
C718 H732 0.960 . S
C719 C716 1.511 . S
C719 H733 0.961 . S
C719 H734 0.961 . S
C719 H735 0.961 . S
C720 C721 1.370 . S
C720 C722 1.363 . S
C720 H736 0.931 . S
C721 C720 1.370 . S
C721 C725 1.408 . S
C722 C720 1.363 . S
C722 C723 1.370 . S
C722 C726 1.524 . S
C723 C715 1.503 . S
C723 C722 1.370 . S
C723 C724 1.403 . S
C724 C723 1.403 . S
C724 C725 1.404 . S
C724 C727 1.539 . S
C725 C721 1.408 . S
C725 C724 1.404 . S
C725 H737 0.930 . S
C726 C722 1.524 . S
C726 H738 0.956 . S
C726 H739 0.961 . S
C726 H740 0.961 . S
C727 C724 1.539 . S
C727 H741 0.958 . S
C727 H742 0.961 . S
C727 H743 0.960 . S
H728 C712 0.931 . S
H729 C717 0.929 . S
H730 C718 0.960 . S
H731 C718 0.962 . S
H732 C718 0.960 . S
H733 C719 0.961 . S
H734 C719 0.961 . S
H735 C719 0.961 . S
H736 C720 0.931 . S
H737 C725 0.930 . S
H738 C726 0.956 . S
H739 C726 0.961 . S
H740 C726 0.961 . S
H741 C727 0.958 . S
H742 C727 0.961 . S
H743 C727 0.960 . S
C744 C745 1.391 . S
C744 C746 1.394 . S
C744 H760 0.931 . S
C745 C744 1.391 . S
C745 C749 1.376 . S
C746 C744 1.394 . S
C746 C747 1.369 . S
C746 C750 1.531 . S
C747 C746 1.369 . S
C747 C748 1.410 . S
C747 C755 1.503 . S
C748 C747 1.410 . S
C748 C749 1.392 . S
C748 C751 1.511 . S
C749 C745 1.376 . S
C749 C748 1.392 . S
C749 H761 0.929 . S
C750 C746 1.531 . S
C750 H762 0.960 . S
C750 H763 0.962 . S
C750 H764 0.960 . S
C751 C748 1.511 . S
C751 H765 0.961 . S
C751 H766 0.961 . S
C751 H767 0.961 . S
C752 C753 1.370 . S
C752 C754 1.363 . S
C752 H768 0.931 . S
C753 C752 1.370 . S
C753 C757 1.408 . S
C754 C752 1.363 . S
C754 C755 1.370 . S
C754 C758 1.524 . S
C755 C747 1.503 . S
C755 C754 1.370 . S
C755 C756 1.403 . S
C756 C755 1.403 . S
C756 C757 1.404 . S
C756 C759 1.539 . S
C757 C753 1.408 . S
C757 C756 1.404 . S
C757 H769 0.930 . S
C758 C754 1.524 . S
C758 H770 0.956 . S
C758 H771 0.961 . S
C758 H772 0.961 . S
C759 C756 1.539 . S
C759 H773 0.958 . S
C759 H774 0.961 . S
C759 H775 0.960 . S
H760 C744 0.931 . S
H761 C749 0.929 . S
H762 C750 0.960 . S
H763 C750 0.962 . S
H764 C750 0.960 . S
H765 C751 0.961 . S
H766 C751 0.961 . S
H767 C751 0.961 . S
H768 C752 0.931 . S
H769 C757 0.930 . S
H770 C758 0.956 . S
H771 C758 0.961 . S
H772 C758 0.961 . S
H773 C759 0.958 . S
H774 C759 0.961 . S
H775 C759 0.960 . S
C776 C777 1.391 . S
C776 C778 1.394 . S
C776 H792 0.931 . S
C777 C776 1.391 . S
C777 C781 1.376 . S
C778 C776 1.394 . S
C778 C779 1.369 . S
C778 C782 1.531 . S
C779 C778 1.369 . S
C779 C780 1.410 . S
C779 C787 1.503 . S
C780 C779 1.410 . S
C780 C781 1.392 . S
C780 C783 1.511 . S
C781 C777 1.376 . S
C781 C780 1.392 . S
C781 H793 0.929 . S
C782 C778 1.531 . S
C782 H794 0.960 . S
C782 H795 0.962 . S
C782 H796 0.960 . S
C783 C780 1.511 . S
C783 H797 0.961 . S
C783 H798 0.961 . S
C783 H799 0.961 . S
C784 C785 1.370 . S
C784 C786 1.363 . S
C784 H800 0.931 . S
C785 C784 1.370 . S
C785 C789 1.408 . S
C786 C784 1.363 . S
C786 C787 1.370 . S
C786 C790 1.524 . S
C787 C779 1.503 . S
C787 C786 1.370 . S
C787 C788 1.403 . S
C788 C787 1.403 . S
C788 C789 1.404 . S
C788 C791 1.539 . S
C789 C785 1.408 . S
C789 C788 1.404 . S
C789 H801 0.930 . S
C790 C786 1.524 . S
C790 H802 0.956 . S
C790 H803 0.961 . S
C790 H804 0.961 . S
C791 C788 1.539 . S
C791 H805 0.958 . S
C791 H806 0.961 . S
C791 H807 0.960 . S
H792 C776 0.931 . S
H793 C781 0.929 . S
H794 C782 0.960 . S
H795 C782 0.962 . S
H796 C782 0.960 . S
H797 C783 0.961 . S
H798 C783 0.961 . S
H799 C783 0.961 . S
H800 C784 0.931 . S
H801 C789 0.930 . S
H802 C790 0.956 . S
H803 C790 0.961 . S
H804 C790 0.961 . S
H805 C791 0.958 . S
H806 C791 0.961 . S
H807 C791 0.960 . S
C808 C809 1.391 . S
C808 C810 1.394 . S
C808 H824 0.931 . S
C809 C808 1.391 . S
C809 C813 1.376 . S
C810 C808 1.394 . S
C810 C811 1.369 . S
C810 C814 1.531 . S
C811 C810 1.369 . S
C811 C812 1.410 . S
C811 C819 1.503 . S
C812 C811 1.410 . S
C812 C813 1.392 . S
C812 C815 1.511 . S
C813 C809 1.376 . S
C813 C812 1.392 . S
C813 H825 0.929 . S
C814 C810 1.531 . S
C814 H826 0.960 . S
C814 H827 0.962 . S
C814 H828 0.960 . S
C815 C812 1.511 . S
C815 H829 0.961 . S
C815 H830 0.961 . S
C815 H831 0.952 1_655 S
C816 C817 1.370 . S
C816 C818 1.363 . S
C816 H832 0.931 . S
C817 C816 1.370 . S
C817 C821 1.408 . S
C818 C816 1.363 . S
C818 C819 1.370 . S
C818 C822 1.524 . S
C819 C811 1.503 . S
C819 C818 1.370 . S
C819 C820 1.403 . S
C820 C819 1.403 . S
C820 C821 1.404 . S
C820 C823 1.539 . S
C821 C817 1.408 . S
C821 C820 1.404 . S
C821 H833 0.930 1_655 S
C822 C818 1.524 . S
C822 H834 0.956 . S
C822 H835 0.961 . S
C822 H836 0.961 . S
C823 C820 1.539 . S
C823 H837 0.958 . S
C823 H838 0.961 1_655 S
C823 H839 0.960 . S
H824 C808 0.931 . S
H825 C813 0.929 . S
H826 C814 0.960 . S
H827 C814 0.962 . S
H828 C814 0.960 . S
H829 C815 0.961 . S
H830 C815 0.961 . S
H831 C815 0.952 1_455 S
H832 C816 0.931 . S
H833 C821 0.930 1_455 S
H834 C822 0.956 . S
H835 C822 0.961 . S
H836 C822 0.961 . S
H837 C823 0.958 . S
H838 C823 0.961 1_455 S
H839 C823 0.960 . S
C840 C841 1.391 . S
C840 C842 1.394 . S
C840 H856 0.931 . S
C841 C840 1.391 . S
C841 C845 1.376 . S
C842 C840 1.394 . S
C842 C843 1.369 . S
C842 C846 1.531 . S
C843 C842 1.369 . S
C843 C844 1.410 . S
C843 C851 1.503 . S
C844 C843 1.410 . S
C844 C845 1.392 . S
C844 C847 1.511 . S
C845 C841 1.376 . S
C845 C844 1.392 . S
C845 H857 0.929 . S
C846 C842 1.531 . S
C846 H858 0.960 . S
C846 H859 0.962 . S
C846 H860 0.960 . S
C847 C844 1.511 . S
C847 H861 0.961 . S
C847 H862 0.961 . S
C847 H863 0.961 . S
C848 C849 1.370 . S
C848 C850 1.363 . S
C848 H864 0.931 . S
C849 C848 1.370 . S
C849 C853 1.408 . S
C850 C848 1.363 . S
C850 C851 1.370 . S
C850 C854 1.524 . S
C851 C843 1.503 . S
C851 C850 1.370 . S
C851 C852 1.403 . S
C852 C851 1.403 . S
C852 C853 1.404 . S
C852 C855 1.539 . S
C853 C849 1.408 . S
C853 C852 1.404 . S
C853 H865 0.930 . S
C854 C850 1.524 . S
C854 H866 0.956 . S
C854 H867 0.961 . S
C854 H868 0.961 . S
C855 C852 1.539 . S
C855 H869 0.958 . S
C855 H870 0.961 . S
C855 H871 0.960 . S
H856 C840 0.931 . S
H857 C845 0.929 . S
H858 C846 0.960 . S
H859 C846 0.962 . S
H860 C846 0.960 . S
H861 C847 0.961 . S
H862 C847 0.961 . S
H863 C847 0.961 . S
H864 C848 0.931 . S
H865 C853 0.930 . S
H866 C854 0.956 . S
H867 C854 0.961 . S
H868 C854 0.961 . S
H869 C855 0.958 . S
H870 C855 0.961 . S
H871 C855 0.960 . S
C872 C873 1.391 . S
C872 C874 1.394 . S
C872 H888 0.931 . S
C873 C872 1.391 . S
C873 C877 1.376 . S
C874 C872 1.394 . S
C874 C875 1.369 . S
C874 C878 1.531 . S
C875 C874 1.369 . S
C875 C876 1.410 . S
C875 C883 1.503 . S
C876 C875 1.410 . S
C876 C877 1.392 . S
C876 C879 1.511 . S
C877 C873 1.376 . S
C877 C876 1.392 . S
C877 H889 0.929 . S
C878 C874 1.531 . S
C878 H890 0.960 . S
C878 H891 0.962 . S
C878 H892 0.960 . S
C879 C876 1.511 . S
C879 H893 0.961 . S
C879 H894 0.961 . S
C879 H895 0.961 . S
C880 C881 1.370 . S
C880 C882 1.363 . S
C880 H896 0.931 . S
C881 C880 1.370 . S
C881 C885 1.408 . S
C882 C880 1.363 . S
C882 C883 1.370 . S
C882 C886 1.524 . S
C883 C875 1.503 . S
C883 C882 1.370 . S
C883 C884 1.403 . S
C884 C883 1.403 . S
C884 C885 1.404 . S
C884 C887 1.539 . S
C885 C881 1.408 . S
C885 C884 1.404 . S
C885 H897 0.930 . S
C886 C882 1.524 . S
C886 H898 0.956 . S
C886 H899 0.961 . S
C886 H900 0.961 . S
C887 C884 1.539 . S
C887 H901 0.958 . S
C887 H902 0.961 . S
C887 H903 0.960 . S
H888 C872 0.931 . S
H889 C877 0.929 . S
H890 C878 0.960 . S
H891 C878 0.962 . S
H892 C878 0.960 . S
H893 C879 0.961 . S
H894 C879 0.961 . S
H895 C879 0.961 . S
H896 C880 0.931 . S
H897 C885 0.930 . S
H898 C886 0.956 . S
H899 C886 0.961 . S
H900 C886 0.961 . S
H901 C887 0.958 . S
H902 C887 0.961 . S
H903 C887 0.960 . S
C904 C905 1.391 . S
C904 C906 1.394 . S
C904 H920 0.931 . S
C905 C904 1.391 . S
C905 C909 1.376 . S
C906 C904 1.394 . S
C906 C907 1.369 . S
C906 C910 1.531 . S
C907 C906 1.369 . S
C907 C908 1.410 . S
C907 C915 1.503 . S
C908 C907 1.410 . S
C908 C909 1.392 . S
C908 C911 1.511 . S
C909 C905 1.376 . S
C909 C908 1.392 . S
C909 H921 0.929 . S
C910 C906 1.531 . S
C910 H922 0.960 . S
C910 H923 0.962 . S
C910 H924 0.960 . S
C911 C908 1.511 . S
C911 H925 0.961 . S
C911 H926 0.961 . S
C911 H927 0.961 . S
C912 C913 1.370 . S
C912 C914 1.363 . S
C912 H928 0.931 . S
C913 C912 1.370 . S
C913 C917 1.408 . S
C914 C912 1.363 . S
C914 C915 1.370 . S
C914 C918 1.524 . S
C915 C907 1.503 . S
C915 C914 1.370 . S
C915 C916 1.403 . S
C916 C915 1.403 . S
C916 C917 1.404 . S
C916 C919 1.539 . S
C917 C913 1.408 . S
C917 C916 1.404 . S
C917 H929 0.930 . S
C918 C914 1.524 . S
C918 H930 0.956 . S
C918 H931 0.961 . S
C918 H932 0.961 . S
C919 C916 1.539 . S
C919 H933 0.958 . S
C919 H934 0.961 . S
C919 H935 0.960 . S
H920 C904 0.931 . S
H921 C909 0.929 . S
H922 C910 0.960 . S
H923 C910 0.962 . S
H924 C910 0.960 . S
H925 C911 0.961 . S
H926 C911 0.961 . S
H927 C911 0.961 . S
H928 C912 0.931 . S
H929 C917 0.930 . S
H930 C918 0.956 . S
H931 C918 0.961 . S
H932 C918 0.961 . S
H933 C919 0.958 . S
H934 C919 0.961 . S
H935 C919 0.960 . S
C936 C937 1.391 . S
C936 C938 1.394 . S
C936 H952 0.931 . S
C937 C936 1.391 . S
C937 C941 1.376 . S
C938 C936 1.394 . S
C938 C939 1.369 . S
C938 C942 1.531 . S
C939 C938 1.369 . S
C939 C940 1.410 . S
C939 C947 1.503 . S
C940 C939 1.410 . S
C940 C941 1.392 . S
C940 C943 1.511 . S
C941 C937 1.376 . S
C941 C940 1.392 . S
C941 H953 0.929 . S
C942 C938 1.531 . S
C942 H954 0.960 . S
C942 H955 0.962 . S
C942 H956 0.960 . S
C943 C940 1.511 . S
C943 H957 0.961 . S
C943 H958 0.961 . S
C943 H959 0.961 . S
C944 C945 1.370 . S
C944 C946 1.363 . S
C944 H960 0.931 . S
C945 C944 1.370 . S
C945 C949 1.408 . S
C946 C944 1.363 . S
C946 C947 1.370 . S
C946 C950 1.524 . S
C947 C939 1.503 . S
C947 C946 1.370 . S
C947 C948 1.403 . S
C948 C947 1.403 . S
C948 C949 1.404 . S
C948 C951 1.539 . S
C949 C945 1.408 . S
C949 C948 1.404 . S
C949 H961 0.930 . S
C950 C946 1.524 . S
C950 H962 0.956 . S
C950 H963 0.961 . S
C950 H964 0.961 . S
C951 C948 1.539 . S
C951 H965 0.958 . S
C951 H966 0.961 . S
C951 H967 0.960 . S
H952 C936 0.931 . S
H953 C941 0.929 . S
H954 C942 0.960 . S
H955 C942 0.962 . S
H956 C942 0.960 . S
H957 C943 0.961 . S
H958 C943 0.961 . S
H959 C943 0.961 . S
H960 C944 0.931 . S
H961 C949 0.930 . S
H962 C950 0.956 . S
H963 C950 0.961 . S
H964 C950 0.961 . S
H965 C951 0.958 . S
H966 C951 0.961 . S
H967 C951 0.960 . S
C968 C969 1.391 . S
C968 C970 1.394 . S
C968 H984 0.931 . S
C969 C968 1.391 . S
C969 C973 1.376 . S
C970 C968 1.394 . S
C970 C971 1.369 . S
C970 C974 1.531 . S
C971 C970 1.369 . S
C971 C972 1.410 . S
C971 C979 1.503 . S
C972 C971 1.410 . S
C972 C973 1.392 . S
C972 C975 1.511 . S
C973 C969 1.376 . S
C973 C972 1.392 . S
C973 H985 0.929 . S
C974 C970 1.531 . S
C974 H986 0.960 . S
C974 H987 0.962 . S
C974 H988 0.960 . S
C975 C972 1.511 . S
C975 H989 0.961 . S
C975 H990 0.961 . S
C975 H991 0.961 . S
C976 C977 1.370 . S
C976 C978 1.363 . S
C976 H992 0.931 . S
C977 C976 1.370 . S
C977 C981 1.408 . S
C978 C976 1.363 . S
C978 C979 1.370 . S
C978 C982 1.524 . S
C979 C971 1.503 . S
C979 C978 1.370 . S
C979 C980 1.403 . S
C980 C979 1.403 . S
C980 C981 1.404 . S
C980 C983 1.539 . S
C981 C977 1.408 . S
C981 C980 1.404 . S
C981 H993 0.930 . S
C982 C978 1.524 . S
C982 H994 0.956 . S
C982 H995 0.961 . S
C982 H996 0.961 . S
C983 C980 1.539 . S
C983 H997 0.958 . S
C983 H998 0.961 . S
C983 H999 0.960 . S
H984 C968 0.931 . S
H985 C973 0.929 . S
H986 C974 0.960 . S
H987 C974 0.962 . S
H988 C974 0.960 . S
H989 C975 0.961 . S
H990 C975 0.961 . S
H991 C975 0.961 . S
H992 C976 0.931 . S
H993 C981 0.930 . S
H994 C982 0.956 . S
H995 C982 0.961 . S
H996 C982 0.961 . S
H997 C983 0.958 . S
H998 C983 0.961 . S
H999 C983 0.960 . S
C1000 C1001 1.391 . S
C1000 C1002 1.394 . S
C1000 H1016 0.931 . S
C1001 C1000 1.391 . S
C1001 C1005 1.376 . S
C1002 C1000 1.394 . S
C1002 C1003 1.369 . S
C1002 C1006 1.531 . S
C1003 C1002 1.369 . S
C1003 C1004 1.410 . S
C1003 C1011 1.503 . S
C1004 C1003 1.410 . S
C1004 C1005 1.392 . S
C1004 C1007 1.511 . S
C1005 C1001 1.376 . S
C1005 C1004 1.392 . S
C1005 H1017 0.929 . S
C1006 C1002 1.531 . S
C1006 H1018 0.960 . S
C1006 H1019 0.962 . S
C1006 H1020 0.960 . S
C1007 C1004 1.511 . S
C1007 H1021 0.961 . S
C1007 H1022 0.961 . S
C1007 H1023 0.961 . S
C1008 C1009 1.370 . S
C1008 C1010 1.363 . S
C1008 H1024 0.931 . S
C1009 C1008 1.370 . S
C1009 C1013 1.408 . S
C1010 C1008 1.363 . S
C1010 C1011 1.370 . S
C1010 C1014 1.524 . S
C1011 C1003 1.503 . S
C1011 C1010 1.370 . S
C1011 C1012 1.403 . S
C1012 C1011 1.403 . S
C1012 C1013 1.404 . S
C1012 C1015 1.539 . S
C1013 C1009 1.408 . S
C1013 C1012 1.404 . S
C1013 H1025 0.930 . S
C1014 C1010 1.524 . S
C1014 H1026 0.956 . S
C1014 H1027 0.961 . S
C1014 H1028 0.961 . S
C1015 C1012 1.539 . S
C1015 H1029 0.958 . S
C1015 H1030 0.961 . S
C1015 H1031 0.960 . S
H1016 C1000 0.931 . S
H1017 C1005 0.929 . S
H1018 C1006 0.960 . S
H1019 C1006 0.962 . S
H1020 C1006 0.960 . S
H1021 C1007 0.961 . S
H1022 C1007 0.961 . S
H1023 C1007 0.961 . S
H1024 C1008 0.931 . S
H1025 C1013 0.930 . S
H1026 C1014 0.956 . S
H1027 C1014 0.961 . S
H1028 C1014 0.961 . S
H1029 C1015 0.958 . S
H1030 C1015 0.961 . S
H1031 C1015 0.960 . S
C265 N1 0.865 . S
C273 C119 0.881 . S
C297 N18 1.562 . S
C305 C163 1.609 1_556 S
C337 C193 1.795 . S
C329 N28 1.795 . S
C361 N40 2.856 . S
C369 C234 2.852 . S
C401 C150 1.143 . S
C393 N5 1.149 . S
C433 C114 2.288 . S
C425 N14 2.239 . S
C465 C242 1.261 . S
C457 N31 1.289 . S
C497 C203 1.960 . S
C489 N41 1.960 . S
C521 N2 0.940 . S
C529 C239 0.868 . S
C561 C153 2.183 1_556 S
C553 N27 2.238 . S
C585 N44 2.019 . S
C593 C122 2.061 1_655 S
C617 N15 1.653 . S
C625 C190 1.686 . S
C657 C110 1.455 . S
C649 N57 1.462 . S
C681 N70 1.271 . S
C689 C154 1.250 . S
C713 N79 2.089 . S
C721 C202 2.177 . S
C745 N93 2.659 . S
C753 C243 2.619 . S
C777 N54 0.733 . S
C785 C159 0.675 . S
C817 C123 2.838 1_655 S
C809 N66 2.855 . S
C849 C233 0.732 . S
C841 N80 0.773 . S
C881 C194 2.077 . S
C873 N96 2.136 . S
C905 N53 0.869 . S
C913 C230 0.959 . S
C945 C162 1.628 . S
C937 N83 1.628 . S
C977 C113 2.138 . S
C969 N92 2.237 . S
C1001 N67 2.059 . S
C1009 C199 2.072 . S
