# Generated by pormake.
# Topology ftw, (4,12)-cn, num edge types: 1
# Building blocks:
#     Node 0, Type 0, BuildingBlock: AZAVOO_clean_linker_0, # of connection points: 4
#     Node 1, Type 0, BuildingBlock: AZAVOO_clean_linker_0, # of connection points: 4
#     Node 2, Type 0, BuildingBlock: AZAVOO_clean_linker_0, # of connection points: 4
#     Node 3, Type 1, BuildingBlock: QEWDON_clean_sbu_0, # of connection points: 12
#     Edge 4, Type (0, 1), BuildingBlock: KIFKEQ_clean_linker_1, # of connection points: 2
#     Edge 5, Type (0, 1), BuildingBlock: KIFKEQ_clean_linker_1, # of connection points: 2
#     Edge 6, Type (0, 1), BuildingBlock: KIFKEQ_clean_linker_1, # of connection points: 2
#     Edge 7, Type (0, 1), BuildingBlock: KIFKEQ_clean_linker_1, # of connection points: 2
#     Edge 8, Type (0, 1), BuildingBlock: KIFKEQ_clean_linker_1, # of connection points: 2
#     Edge 9, Type (0, 1), BuildingBlock: KIFKEQ_clean_linker_1, # of connection points: 2
#     Edge 10, Type (0, 1), BuildingBlock: KIFKEQ_clean_linker_1, # of connection points: 2
#     Edge 11, Type (0, 1), BuildingBlock: KIFKEQ_clean_linker_1, # of connection points: 2
#     Edge 12, Type (0, 1), BuildingBlock: KIFKEQ_clean_linker_1, # of connection points: 2
#     Edge 13, Type (0, 1), BuildingBlock: KIFKEQ_clean_linker_1, # of connection points: 2
#     Edge 14, Type (0, 1), BuildingBlock: KIFKEQ_clean_linker_1, # of connection points: 2
#     Edge 15, Type (0, 1), BuildingBlock: KIFKEQ_clean_linker_1, # of connection points: 2
# Relax obj value: 0.076
# Max RMSD: 0.223
# Mean RMSD: 0.192
data_MOF--net-ftw--node1-QEWDON_clean_sbu_0--node2-AZAVOO_clean_linker_0--edge1-KIFKEQ_clean_linker_1
_symmetry_space_group_name_H-M    P1
_symmetry_Int_Tables_number       1
_symmetry_cell_setting            triclinic
loop_
_symmetry_equiv_pos_as_xyz
'x, y, z'
_cell_length_a     28.633555
_cell_length_b     28.489108
_cell_length_c     28.619522
_cell_angle_alpha  90.808131
_cell_angle_beta   89.274677
_cell_angle_gamma 91.125078
loop_
_atom_site_label
_atom_site_type_symbol
_atom_site_fract_x
_atom_site_fract_y
_atom_site_fract_z
_atom_type_partial_charge
H0 H 0.01422 0.19307 0.42056 0.0
H1 H 0.91957 0.56407 0.81444 0.0
H2 H 0.06333 0.44683 0.42775 0.0
H3 H 0.06805 0.39285 0.36086 0.0
H4 H 0.92265 0.41607 0.33211 0.0
H5 H 0.91814 0.46946 0.39971 0.0
H6 H 0.04463 0.37785 0.50802 0.0
H7 H 0.04465 0.29727 0.47704 0.0
H8 H 0.90273 0.31312 0.43064 0.0
H9 H 0.90316 0.39347 0.46208 0.0
H10 H 0.0308 0.42147 0.61491 0.0
H11 H 0.01504 0.36067 0.67313 0.0
H12 H 0.8754 0.34129 0.61951 0.0
H13 H 0.89116 0.4029 0.56245 0.0
H14 H 0.04587 0.53204 0.61936 0.0
H15 H 0.0413 0.5565 0.70156 0.0
H16 H 0.89334 0.5228 0.70331 0.0
H17 H 0.89831 0.49918 0.62085 0.0
H18 H 0.05973 0.59159 0.53396 0.0
H19 H 0.07079 0.66312 0.5809 0.0
H20 H 0.92314 0.66218 0.6144 0.0
H21 H 0.91225 0.59188 0.56557 0.0
H22 H 0.06267 0.56827 0.44705 0.0
H23 H 0.06705 0.63061 0.38881 0.0
H24 H 0.9167 0.62555 0.37759 0.0
H25 H 0.91273 0.56346 0.4362 0.0
O26 O 0.01299 0.22444 0.43385 0.0
O27 O 0.94023 0.23465 0.41024 0.0
O28 O -0.00152 0.57158 0.77908 0.0
O29 O 0.92242 0.55436 0.78199 0.0
C30 C 0.98306 0.47687 0.46808 0.0
C31 C 0.97572 0.44157 0.50191 0.0
C32 C 0.97122 0.45377 0.54957 0.0
C33 C 0.975 0.50131 0.56371 0.0
C34 C 0.98114 0.53691 0.52988 0.0
C35 C 0.98445 0.52468 0.48185 0.0
C36 C -0.00964 0.46196 0.41866 0.0
C37 C 0.03316 0.44214 0.40557 0.0
C38 C 0.0357 0.411 0.36746 0.0
C39 C -0.00457 0.39936 0.34185 0.0
C40 C 0.95404 0.42368 0.35177 0.0
C41 C 0.95155 0.45484 0.38989 0.0
C42 C 0.97397 0.39139 0.48711 0.0
C43 C 0.01343 0.36358 0.49166 0.0
C44 C 0.0134 0.31769 0.47372 0.0
C45 C 0.9738 0.29886 0.45105 0.0
C46 C 0.93386 0.32657 0.44772 0.0
C47 C 0.93395 0.3724 0.46572 0.0
C48 C 0.96208 0.41659 0.58458 0.0
C49 C -0.00318 0.40411 0.61594 0.0
C50 C -0.01217 0.36916 0.64889 0.0
C51 C 0.94392 0.34612 0.651 0.0
C52 C 0.90935 0.35873 0.61927 0.0
C53 C 0.91836 0.39365 0.58642 0.0
C54 C 0.97241 0.51398 0.6142 0.0
C55 C 0.01253 0.52999 0.63759 0.0
C56 C 0.00981 0.54389 0.68453 0.0
C57 C 0.96691 0.54166 0.70901 0.0
C58 C 0.9269 0.525 0.68551 0.0
C59 C 0.92964 0.51132 0.63849 0.0
C60 C 0.98516 0.5866 0.54611 0.0
C61 C 0.02946 0.60809 0.5496 0.0
C62 C 0.03581 0.6485 0.57724 0.0
C63 C -0.00198 0.66789 0.60232 0.0
C64 C 0.953 0.64846 0.5955 0.0
C65 C 0.94665 0.60827 0.56748 0.0
C66 C -0.01261 0.56172 0.44604 0.0
C67 C 0.03073 0.58083 0.43214 0.0
C68 C 0.03311 0.61646 0.399 0.0
C69 C -0.00784 0.63317 0.37876 0.0
C70 C 0.94883 0.61327 0.39231 0.0
C71 C 0.94648 0.57799 0.42585 0.0
C72 C 0.97444 0.25074 0.43051 0.0
C73 C 0.96375 0.55678 0.75878 0.0
H74 H 0.59407 0.9462 0.21634 0.0
H75 H 0.20407 0.01307 0.62605 0.0
H76 H 0.61079 0.92953 0.5001 0.0
H77 H 0.68278 0.93028 0.45338 0.0
H78 H 0.64826 0.06703 0.40114 0.0
H79 H 0.57901 0.06732 0.45093 0.0
H80 H 0.54591 0.9175 0.41316 0.0
H81 H 0.57067 0.91602 0.33103 0.0
H82 H 0.51526 0.05481 0.31408 0.0
H83 H 0.4914 0.05612 0.39651 0.0
H84 H 0.42781 0.909 0.42466 0.0
H85 H 0.36551 0.90472 0.36679 0.0
H86 H 0.34276 0.0534 0.38704 0.0
H87 H 0.40331 0.05641 0.44632 0.0
H88 H 0.38428 0.91107 0.51799 0.0
H89 H 0.30357 0.90681 0.54712 0.0
H90 H 0.3143 0.05217 0.59203 0.0
H91 H 0.39468 0.05612 0.56207 0.0
H92 H 0.44382 0.91246 0.60467 0.0
H93 H 0.39833 0.91602 0.67754 0.0
H94 H 0.43737 0.0624 0.69446 0.0
H95 H 0.48258 0.0586 0.6212 0.0
H96 H 0.5468 0.91885 0.60188 0.0
H97 H 0.60721 0.91564 0.66095 0.0
H98 H 0.65584 0.05477 0.62299 0.0
H99 H 0.59359 0.0584 0.56519 0.0
O100 O 0.58344 0.94728 0.24854 0.0
O101 O 0.5532 0.01808 0.24127 0.0
O102 O 0.231 0.94008 0.58761 0.0
O103 O 0.23547 0.01411 0.61313 0.0
C104 C 0.54006 -0.00758 0.49521 0.0
C105 C 0.50437 -0.01143 0.4613 0.0
C106 C 0.4571 0.98546 0.47531 0.0
C107 C 0.44519 0.98546 0.52319 0.0
C108 C 0.48065 0.9867 0.55734 0.0
C109 C 0.52833 -0.00989 0.54347 0.0
C110 C 0.58933 -0.00187 0.47857 0.0
C111 C 0.61998 0.96046 0.48014 0.0
C112 C 0.66071 0.96065 0.4525 0.0
C113 C 0.67098 -0.00194 0.42194 0.0
C114 C 0.64216 0.03755 0.424 0.0
C115 C 0.6022 0.0378 0.4525 0.0
C116 C 0.51676 0.98683 0.41069 0.0
C117 C 0.539 0.94745 0.39157 0.0
C118 C 0.55313 0.94673 0.34467 0.0
C119 C 0.54498 0.98532 0.31598 0.0
C120 C 0.52205 0.02449 0.33519 0.0
C121 C 0.50814 0.02524 0.38217 0.0
C122 C 0.41982 0.98296 0.43971 0.0
C123 C 0.40908 0.94048 0.41657 0.0
C124 C 0.3737 0.93826 0.38327 0.0
C125 C 0.34875 0.97867 0.37215 0.0
C126 C 0.36028 0.02128 0.39528 0.0
C127 C 0.39517 0.02327 0.42895 0.0
C128 C 0.39521 0.98391 0.53786 0.0
C129 C 0.36888 0.9421 0.53354 0.0
C130 C 0.32291 0.93971 0.55046 0.0
C131 C 0.30254 0.97913 0.57209 0.0
C132 C 0.32891 0.02116 0.57567 0.0
C133 C 0.37478 0.02355 0.55853 0.0
C134 C 0.46632 0.98533 0.60749 0.0
C135 C 0.44388 0.94486 0.62495 0.0
C136 C 0.4175 0.94709 0.66628 0.0
C137 C 0.41361 -0.0103 0.69126 0.0
C138 C 0.43978 0.02906 0.67602 0.0
C139 C 0.46587 0.02691 0.63433 0.0
C140 C 0.56559 -0.01112 0.57921 0.0
C141 C 0.57024 0.94882 0.60656 0.0
C142 C 0.60522 0.94687 0.64 0.0
C143 C 0.6368 0.98482 0.64664 0.0
C144 C 0.63195 0.02507 0.61921 0.0
C145 C 0.59663 0.02708 0.58587 0.0
C146 C 0.56066 0.98471 0.26635 0.0
C147 C 0.25417 0.97642 0.59128 0.0
H148 H 0.23079 0.26571 0.03465 0.0
H149 H 0.77385 0.39659 0.09568 0.0
H150 H 0.37634 0.47104 0.97516 0.0
H151 H 0.2939 0.45363 0.97382 0.0
H152 H 0.28236 0.49737 0.11928 0.0
H153 H 0.36673 0.50899 0.12093 0.0
H154 H 0.39784 0.37788 0.9886 0.0
H155 H 0.3294 0.3254 0.99428 0.0
H156 H 0.32306 0.35103 0.14349 0.0
H157 H 0.39165 0.40342 0.13724 0.0
H158 H 0.47998 0.34894 0.9918 0.0
H159 H 0.51188 0.27009 0.99338 0.0
H160 H 0.5535 0.29397 0.13662 0.0
H161 H 0.51934 0.37193 0.13524 0.0
H162 H 0.56995 0.4079 0.98622 0.0
H163 H 0.65187 0.38481 0.98603 0.0
H164 H 0.66523 0.43847 0.12747 0.0
H165 H 0.58312 0.46078 0.12733 0.0
H166 H 0.56139 0.51765 0.97444 0.0
H167 H 0.63466 0.56321 0.97012 0.0
H168 H 0.61982 0.60052 0.11639 0.0
H169 H 0.54654 0.55453 0.12033 0.0
H170 H 0.46619 0.56314 0.97145 0.0
H171 H 0.44089 0.64411 0.96165 0.0
H172 H 0.4073 0.65276 0.10922 0.0
H173 H 0.43385 0.5724 0.11866 0.0
O174 O 0.25852 0.28563 0.03337 0.0
O175 O 0.26082 0.29441 0.11066 0.0
O176 O 0.73247 0.37745 0.02241 0.0
O177 O 0.74132 0.40504 0.0949 0.0
C178 C 0.42723 0.47759 0.05351 0.0
C179 C 0.43818 0.42965 0.05838 0.0
C180 C 0.48509 0.41607 0.0598 0.0
C181 C 0.52116 0.45035 0.05652 0.0
C182 C 0.51021 0.49823 0.05212 0.0
C183 C 0.46321 0.512 0.0509 0.0
C184 C 0.37759 0.48994 0.04836 0.0
C185 C 0.35563 0.47849 1.00625 0.0
C186 C 0.3078 0.46849 1.00578 0.0
C187 C 0.28071 0.47144 0.04729 0.0
C188 C 0.30199 0.49158 0.08726 0.0
C189 C 0.3503 0.49966 0.08811 0.0
C190 C 0.39997 0.39392 0.0626 0.0
C191 C 0.38216 0.37136 0.02259 0.0
C192 C 0.34281 0.34175 0.02589 0.0
C193 C 0.32074 0.33404 0.06934 0.0
C194 C 0.33931 0.35609 0.10952 0.0
C195 C 0.3786 0.38581 0.10612 0.0
C196 C 0.49709 0.36592 0.0635 0.0
C197 C 0.49441 0.33642 0.02401 0.0
C198 C 0.51321 0.29163 0.02483 0.0
C199 C 0.5357 0.27588 0.06498 0.0
C200 C 0.53596 0.30469 0.10533 0.0
C201 C 0.51671 0.34934 0.10458 0.0
C202 C 0.57075 0.436 0.05676 0.0
C203 C 0.59063 0.41441 0.01716 0.0
C204 C 0.63741 0.40138 0.01714 0.0
C205 C 0.66514 0.40987 0.05674 0.0
C206 C 0.64492 0.43146 0.09639 0.0
C207 C 0.59809 0.44431 0.0964 0.0
C208 C 0.54873 0.5332 0.04759 0.0
C209 C 0.57344 0.53669 1.00517 0.0
C210 C 0.61529 0.56251 1.00286 0.0
C211 C 0.63314 0.58495 0.04307 0.0
C212 C 0.60718 0.58298 0.08507 0.0
C213 C 0.56512 0.55738 0.08725 0.0
C214 C 0.45149 0.562 0.04568 0.0
C215 C 0.45395 0.58289 1.00167 0.0
C216 C 0.43929 0.62899 0.99615 0.0
C217 C 0.42187 0.65489 0.03462 0.0
C218 C 0.42106 0.63413 0.07898 0.0
C219 C 0.43578 0.58809 0.08441 0.0
C220 C 0.27826 0.30351 0.07257 0.0
C221 C 0.71495 0.3964 0.0568 0.0
Zn222 Zn 0.08142 0.09976 0.97472 0.0
Zn223 Zn 0.05456 0.09363 0.08475 0.0
O224 O 0.05514 0.05645 0.02468 0.0
H225 H 0.03752 0.02773 0.01884 0.0
C226 C 0.87174 0.10604 0.89971 0.0
O227 O 0.8287 0.09026 0.90586 0.0
Zn228 Zn 0.94189 0.88881 0.08735 0.0
Zn229 Zn 0.91987 0.89068 0.97578 0.0
O230 O 0.93166 0.93202 0.03335 0.0
H231 H 0.94377 0.96385 0.03179 0.0
Zn232 Zn 0.88536 0.05557 0.98748 0.0
O233 O 0.93196 0.05811 0.04016 0.0
Zn234 Zn 0.89618 0.04869 0.09979 0.0
H235 H 0.91282 0.05737 1.01264 0.0
Zn236 Zn 0.10962 0.9246 0.9567 0.0
O237 O 0.06476 0.92004 1.01255 0.0
H238 H 0.03112 0.92172 1.01141 0.0
Zn239 Zn 0.10505 0.93127 0.06864 0.0
C240 C 0.04858 0.88304 0.88113 0.0
O241 O 0.01392 0.89155 0.91037 0.0
O242 O 0.08802 0.16886 0.99708 0.0
O243 O 0.07593 0.16103 0.07375 0.0
O244 O 0.90616 0.82216 0.99402 0.0
O245 O 0.91828 0.823 0.07068 0.0
O246 O 0.81775 0.06072 1.01263 0.0
O247 O 0.82701 0.06039 0.08988 0.0
C248 C 0.11055 0.02157 0.12454 0.0
O249 O 0.17765 0.91192 0.97539 0.0
O250 O 0.17241 0.91535 0.05296 0.0
O251 O 0.87519 0.91303 0.92362 0.0
C252 C 0.08606 0.18622 0.03835 0.0
O253 O 0.1302 0.07433 0.92602 0.0
C254 C 0.89215 0.95323 0.14737 0.0
O255 O 0.90264 0.09541 0.92903 0.0
C256 C 0.90567 0.80162 0.03328 0.0
O257 O 0.09006 0.89444 0.89277 0.0
C258 C 0.96385 0.10863 0.14246 0.0
O259 O 0.09712 0.06349 0.13079 0.0
O260 O 0.09724 -0.00114 0.08841 0.0
C261 C 0.80103 0.0635 0.05408 0.0
O262 O 0.90389 0.91062 0.14342 0.0
O263 O 0.90731 0.98189 0.11693 0.0
C264 C 0.04169 0.876 0.12749 0.0
O265 O 0.92169 0.0947 0.14749 0.0
O266 O -0.01167 0.09006 0.10996 0.0
C267 C 0.19613 0.90852 0.01546 0.0
O268 O 0.08404 0.88882 0.12102 0.0
O269 O 0.01131 0.89174 0.09994 0.0
C270 C 0.87817 0.9497 0.8988 0.0
O271 O 0.91293 0.97976 0.90536 0.0
C272 C 0.16737 0.05446 0.93851 0.0
O273 O 0.17488 0.04888 0.98328 0.0
H274 H 0.92894 0.33011 0.33762 0.0
H275 H 0.06122 0.37284 0.27599 0.0
H276 H 0.92899 0.25863 0.29046 0.0
H277 H 0.0618 0.30012 0.22903 0.0
H278 H 0.00467 0.19093 0.11523 0.0
H279 H 0.01859 0.26115 0.16357 0.0
H280 H 0.97063 0.1852 0.28526 0.0
H281 H 0.95739 0.11513 0.23665 0.0
C282 C 0.95783 0.32451 0.31352 0.0
C283 C -0.00521 0.35752 0.31015 0.0
C284 C 0.95827 0.28304 0.28703 0.0
C285 C -0.00432 0.27333 0.25634 0.0
C286 C 0.03245 0.3066 0.25233 0.0
C287 C 0.03217 0.34814 0.27924 0.0
C288 C -0.00035 0.18866 0.15263 0.0
C289 C 0.98148 0.14731 0.17249 0.0
C290 C 0.00685 0.22908 0.18029 0.0
C291 C -0.00476 0.22895 0.22822 0.0
C292 C 0.97921 0.18671 0.24833 0.0
C293 C 0.97207 0.14647 0.22068 0.0
H294 H 0.72618 0.06809 0.3818 0.0
H295 H 0.69936 0.91819 0.37582 0.0
H296 H 0.77729 0.06149 0.31359 0.0
H297 H 0.75374 0.91113 0.31131 0.0
H298 H 0.81008 0.90997 0.16677 0.0
H299 H 0.75765 0.92398 0.23259 0.0
H300 H 0.84823 0.03784 0.28012 0.0
H301 H 0.8991 0.02521 0.21172 0.0
C302 C 0.73141 0.03363 0.36646 0.0
C303 C 0.70788 -0.00622 0.38458 0.0
C304 C 0.7614 0.02978 0.32751 0.0
C305 C 0.7693 0.98586 0.30599 0.0
C306 C 0.74763 0.94586 0.32567 0.0
C307 C 0.71703 0.9498 0.36382 0.0
C308 C 0.81824 0.9385 0.19096 0.0
C309 C 0.8584 0.96659 0.18428 0.0
C310 C 0.78857 0.94619 0.2292 0.0
C311 C 0.79907 0.98129 0.26281 0.0
C312 C 0.83867 0.01061 0.25508 0.0
C313 C 0.86788 0.00353 0.2159 0.0
H314 H 0.94631 0.63828 0.29544 0.0
H315 H 0.0437 0.7146 0.38341 0.0
H316 H 0.95444 0.69914 0.23633 0.0
H317 H 0.0511 0.77583 0.32514 0.0
H318 H 0.10189 0.84051 0.18968 0.0
H319 H 0.08659 0.78417 0.25051 0.0
H320 H 0.94028 0.77988 0.2152 0.0
H321 H 0.9561 0.83592 0.15272 0.0
C322 C 0.96896 0.6684 0.3024 0.0
C323 C -0.00516 0.67136 0.34383 0.0
C324 C 0.97349 0.7034 0.26861 0.0
C325 C 0.0038 0.74227 0.27564 0.0
C326 C 0.02829 0.7459 0.31793 0.0
C327 C 0.02406 0.71081 0.35143 0.0
C328 C 0.06628 0.82786 0.19472 0.0
C329 C 0.03018 0.84296 0.16595 0.0
C330 C 0.05744 0.79565 0.23011 0.0
C331 C 0.01212 0.77757 0.23822 0.0
C332 C 0.97573 0.79278 0.20974 0.0
C333 C 0.98469 0.82518 0.17401 0.0
H334 H 0.3444 0.92598 0.29065 0.0
H335 H 0.26678 0.02675 0.37315 0.0
H336 H 0.2833 0.92492 0.23221 0.0
H337 H 0.20812 0.02875 0.31333 0.0
H338 H 0.0916 0.01132 0.21651 0.0
H339 H 0.1461 -0.00894 0.27742 0.0
H340 H 0.25378 0.97003 0.1721 0.0
H341 H 0.19786 -0.01237 0.11138 0.0
C342 C 0.31429 0.94779 0.29653 0.0
C343 C 0.3109 0.97671 0.3367 0.0
C344 C 0.27944 0.94765 0.26258 0.0
C345 C 0.24049 0.97678 0.26766 0.0
C346 C 0.23691 0.00509 0.30823 0.0
C347 C 0.27129 0.00471 0.34236 0.0
C348 C 0.12662 0.00101 0.20657 0.0
C349 C 0.14067 0.00067 0.15952 0.0
C350 C 0.15813 -0.00999 0.24142 0.0
C351 C 0.20495 0.97998 0.23007 0.0
C352 C 0.2181 0.97717 0.18245 0.0
C353 C 0.18611 0.98717 0.1475 0.0
H354 H 0.94411 0.74417 0.62538 0.0
H355 H 0.06981 0.67359 0.66407 0.0
H356 H 0.95552 0.80019 0.69004 0.0
H357 H 0.08134 0.72951 0.72784 0.0
H358 H 0.11289 0.85905 0.81405 0.0
H359 H 0.10053 0.81185 0.7436 0.0
H360 H 0.95315 0.80072 0.77655 0.0
H361 H 0.96533 0.84874 0.84693 0.0
C362 C 0.97426 0.74071 0.64745 0.0
C363 C 0.00627 0.70457 0.63913 0.0
C364 C 0.98075 0.77277 0.68452 0.0
C365 C 0.01946 0.76949 0.71399 0.0
C366 C 0.05166 0.7337 0.70528 0.0
C367 C 0.04511 0.70166 0.66848 0.0
C368 C 0.07774 0.84691 0.80619 0.0
C369 C 0.04017 0.85735 0.83645 0.0
C370 C 0.07071 0.81963 0.76584 0.0
C371 C 0.02594 0.80209 0.75464 0.0
C372 C -0.01197 0.81393 0.78397 0.0
C373 C -0.00492 0.84124 0.82447 0.0
H374 H 0.42474 0.03246 0.77708 0.0
H375 H 0.32312 0.95841 0.69198 0.0
H376 H 0.365 0.04444 0.8379 0.0
H377 H 0.26377 0.9698 0.75278 0.0
H378 H 0.16113 0.05729 0.84327 0.0
H379 H 0.22112 0.03816 0.78527 0.0
H380 H 0.31429 8e-05 0.89535 0.0
H381 H 0.25426 0.01931 0.95362 0.0
C382 C 0.38978 0.01842 0.7716 0.0
C383 C 0.37872 -0.00573 0.72991 0.0
C384 C 0.35567 0.02497 0.8065 0.0
C385 C 0.30963 0.00809 0.80013 0.0
C386 C 0.2988 0.98349 0.75863 0.0
C387 C 0.33295 0.97653 0.72402 0.0
C388 C 0.19428 0.0446 0.85519 0.0
C389 C 0.20294 0.04017 0.90316 0.0
C390 C 0.22861 0.03341 0.82189 0.0
C391 C 0.27255 0.01778 0.83571 0.0
C392 C 0.281 0.01259 0.88363 0.0
C393 C 0.24649 0.02341 0.91698 0.0
H394 H 0.00115 0.27599 0.67891 0.0
H395 H 0.86415 0.33304 0.70317 0.0
H396 H 0.98444 0.21563 0.73681 0.0
H397 H 0.84747 0.27282 0.76091 0.0
H398 H 0.8152 0.13273 0.82893 0.0
H399 H 0.83328 0.18866 0.76725 0.0
H400 H 0.97286 0.20783 0.8208 0.0
H401 H 0.95509 0.15134 0.88196 0.0
C402 C 0.9676 0.27585 0.69682 0.0
C403 C 0.93396 0.30931 0.68633 0.0
C404 C 0.958 0.24123 0.72996 0.0
C405 C 0.91454 0.23925 0.75339 0.0
C406 C 0.88096 0.27275 0.74289 0.0
C407 C 0.89055 0.30733 0.7098 0.0
C408 C 0.84981 0.14871 0.82743 0.0
C409 C 0.88357 0.13783 0.8606 0.0
C410 C 0.86011 0.18096 0.7922 0.0
C411 C 0.90441 0.20303 0.78928 0.0
C412 C 0.93854 0.19119 0.82176 0.0
C413 C 0.92825 0.15894 0.85698 0.0
H414 H 0.68927 0.90872 0.66754 0.0
H415 H 0.67037 0.05449 0.70572 0.0
H416 H 0.74769 0.90229 0.72797 0.0
H417 H 0.72985 0.0481 0.76579 0.0
H418 H 0.87339 0.0231 0.8377 0.0
H419 H 0.81606 0.0339 0.77621 0.0
H420 H 0.7471 0.90366 0.81458 0.0
H421 H 0.80371 0.89306 0.87597 0.0
C422 C 0.69734 0.93939 0.68894 0.0
C423 C 0.67453 0.98199 0.68198 0.0
C424 C 0.731 0.9357 0.72353 0.0
C425 C 0.74311 0.97456 0.75197 0.0
C426 C 0.72147 0.01759 0.74424 0.0
C427 C 0.68744 0.02124 0.70974 0.0
C428 C 0.84575 -0.00299 0.83327 0.0
C429 C 0.84316 0.95728 0.86192 0.0
C430 C 0.81291 0.00322 0.79804 0.0
C431 C 0.77724 0.96944 0.79029 0.0
C432 C 0.77455 0.92997 0.81917 0.0
C433 C 0.80695 0.92403 0.85456 0.0
H434 H 0.2369 0.43482 0.12619 0.0
H435 H 0.21778 0.44793 0.9771 0.0
H436 H 0.17447 0.37808 0.1292 0.0
H437 H 0.16151 0.38476 0.97886 0.0
H438 H 0.06982 0.25979 0.98118 0.0
H439 H 0.0994 0.33991 0.98934 0.0
H440 H 0.16533 0.30246 0.11895 0.0
H441 H 0.1318 0.22459 0.11229 0.0
C442 C 0.21957 0.42624 0.09378 0.0
C443 C 0.23475 0.44538 0.05089 0.0
C444 C 0.18408 0.39199 0.0954 0.0
C445 C 0.16419 0.3738 0.05404 0.0
C446 C 0.17586 0.39643 1.01185 0.0
C447 C 0.20961 0.43247 1.01058 0.0
C448 C 0.09003 0.26939 1.01173 0.0
C449 C 0.09927 0.23597 0.04571 0.0
C450 C 0.10761 0.31534 0.01632 0.0
C451 C 0.1366 0.32842 0.05406 0.0
C452 C 0.14324 0.29508 0.08934 0.0
C453 C 0.12429 0.24975 0.08547 0.0
H454 H 0.42976 0.73341 0.09111 0.0
H455 H 0.36601 0.6821 0.96379 0.0
H456 H 0.3869 0.80642 0.08524 0.0
H457 H 0.32343 0.75447 0.95796 0.0
H458 H 0.24047 0.87912 0.09371 0.0
H459 H 0.30573 0.82607 0.09589 0.0
H460 H 0.32433 0.83816 0.94646 0.0
H461 H 0.2581 0.89043 0.94401 0.0
C462 C 0.40698 0.73789 0.06165 0.0
C463 C 0.40107 0.70175 0.0281 0.0
C464 C 0.3825 0.77973 0.05825 0.0
C465 C 0.35159 0.78635 0.02122 0.0
C466 C 0.34754 0.75109 0.98651 0.0
C467 C 0.37196 0.70938 0.9899 0.0
C468 C 0.25917 0.87152 0.06142 0.0
C469 C 0.24318 0.88801 0.01849 0.0
C470 C 0.29686 0.84114 0.06271 0.0
C471 C 0.31958 0.8269 0.02116 0.0
C472 C 0.30673 0.84742 0.97892 0.0
C473 C 0.26892 0.87764 0.97758 0.0
H474 H 0.54491 0.20897 0.1326 0.0
H475 H 0.59127 0.24564 0.9933 0.0
H476 H 0.60001 0.14434 0.13233 0.0
H477 H 0.64552 0.18169 0.99295 0.0
H478 H 0.73193 0.05871 0.98925 0.0
H479 H 0.65738 0.09829 0.99312 0.0
H480 H 0.68495 0.14104 0.13574 0.0
H481 H 0.75884 0.10024 0.13238 0.0
C482 C 0.56634 0.20287 0.10174 0.0
C483 C 0.56368 0.23251 0.06299 0.0
C484 C 0.59781 0.16587 0.10157 0.0
C485 C 0.62713 0.15777 0.06262 0.0
C486 C 0.62282 0.18615 0.02318 0.0
C487 C 0.59158 0.22301 0.02338 0.0
C488 C 0.72154 0.07551 0.02185 0.0
C489 C 0.75176 0.07724 0.06018 0.0
C490 C 0.67889 0.09835 0.02399 0.0
C491 C 0.66577 0.1238 0.06432 0.0
C492 C 0.69393 0.12173 0.10413 0.0
C493 C 0.73647 0.09847 0.10214 0.0
H494 H 0.70408 0.57926 0.10559 0.0
H495 H 0.66656 0.64478 0.97658 0.0
H496 H 0.77993 0.62008 0.10326 0.0
H497 H 0.74169 0.68602 0.97446 0.0
H498 H 0.8842 0.7402 0.96221 0.0
H499 H 0.82451 0.67819 0.96444 0.0
H500 H 0.80907 0.69919 0.11365 0.0
H501 H 0.86975 0.75994 0.11168 0.0
C502 C 0.71203 0.60257 0.07686 0.0
C503 C 0.67935 0.60917 0.04142 0.0
C504 C 0.7555 0.62576 0.07542 0.0
C505 C 0.76707 0.65612 0.03857 0.0
C506 C 0.73449 0.66205 1.0028 0.0
C507 C 0.69123 0.63873 1.00414 0.0
C508 C 0.86909 0.73056 0.9957 0.0
C509 C 0.88096 0.75571 0.03659 0.0
C510 C 0.83457 0.69532 0.99692 0.0
C511 C 0.81098 0.68478 0.03897 0.0
C512 C 0.82638 0.70646 0.08061 0.0
C513 C 0.86126 0.74143 0.07947 0.0
loop_
_geom_bond_atom_site_label_1
_geom_bond_atom_site_label_2
_geom_bond_distance
_geom_bond_site_symmetry_2
_ccdc_geom_bond_type
H0 O26 0.856 . S
H1 O29 0.854 . S
H2 C37 0.930 . S
H3 C38 0.930 . S
H4 C40 0.930 . S
H5 C41 0.930 . S
H6 C43 0.931 . S
H7 C44 0.930 . S
H8 C46 0.930 . S
H9 C47 0.929 . S
H10 C49 0.930 . S
H11 C50 0.931 . S
H12 C52 0.930 . S
H13 C53 0.929 . S
H14 C55 0.931 . S
H15 C56 0.930 . S
H16 C58 0.930 . S
H17 C59 0.932 . S
H18 C61 0.930 . S
H19 C62 0.929 . S
H20 C64 0.931 . S
H21 C65 0.930 . S
H22 C67 0.929 . S
H23 C68 0.931 . S
H24 C70 0.930 . S
H25 C71 0.929 . S
O26 H0 0.856 . S
O26 C72 1.300 1_455 S
O27 C72 1.209 . S
O28 C73 1.199 1_455 S
O29 H1 0.854 . S
O29 C73 1.297 . S
C30 C31 1.404 1_455 S
C30 C35 1.397 . S
C30 C36 1.494 . S
C31 C30 1.404 1_655 S
C31 C32 1.396 . S
C31 C42 1.492 . S
C32 C31 1.396 . S
C32 C33 1.397 . S
C32 C48 1.509 . S
C33 C32 1.397 . S
C33 C34 1.412 1_655 S
C33 C54 1.485 . S
C34 C33 1.412 1_455 S
C34 C35 1.388 . S
C34 C60 1.490 . S
C35 C30 1.397 . S
C35 C34 1.388 . S
C35 C66 1.519 . S
C36 C30 1.494 . S
C36 C37 1.363 . S
C36 C41 1.390 1_455 S
C37 H2 0.930 . S
C37 C36 1.363 . S
C37 C38 1.372 . S
C38 H3 0.930 . S
C38 C37 1.372 . S
C38 C39 1.383 . S
C39 C38 1.383 . S
C39 C40 1.395 1_455 S
C40 H4 0.930 . S
C40 C39 1.395 1_655 S
C40 C41 1.362 . S
C41 H5 0.930 . S
C41 C36 1.390 1_655 S
C41 C40 1.362 . S
C42 C31 1.492 . S
C42 C43 1.377 1_655 S
C42 C47 1.397 . S
C43 H6 0.931 . S
C43 C42 1.377 1_455 S
C43 C44 1.376 . S
C44 H7 0.930 . S
C44 C43 1.376 . S
C44 C45 1.376 1_455 S
C45 C44 1.376 1_655 S
C45 C46 1.378 . S
C45 C72 1.486 . S
C46 H8 0.930 . S
C46 C45 1.378 . S
C46 C47 1.376 . S
C47 H9 0.929 . S
C47 C42 1.397 . S
C47 C46 1.376 . S
C48 C32 1.509 . S
C48 C49 1.391 1_655 S
C48 C53 1.386 . S
C49 H10 0.930 . S
C49 C48 1.391 1_455 S
C49 C50 1.375 . S
C50 H11 0.931 . S
C50 C49 1.375 . S
C50 C51 1.375 1_455 S
C51 C50 1.375 1_655 S
C51 C52 1.361 . S
C52 H12 0.930 . S
C52 C51 1.361 . S
C52 C53 1.399 . S
C53 H13 0.929 . S
C53 C48 1.386 . S
C53 C52 1.399 . S
C54 C33 1.485 . S
C54 C55 1.394 1_655 S
C54 C59 1.360 . S
C55 H14 0.931 . S
C55 C54 1.394 1_455 S
C55 C56 1.372 . S
C56 H15 0.930 . S
C56 C55 1.372 . S
C56 C57 1.397 1_455 S
C57 C56 1.397 1_655 S
C57 C58 1.390 . S
C57 C73 1.476 . S
C58 H16 0.930 . S
C58 C57 1.390 . S
C58 C59 1.366 . S
C59 H17 0.932 . S
C59 C54 1.360 . S
C59 C58 1.366 . S
C60 C34 1.490 . S
C60 C61 1.380 . S
C60 C65 1.386 1_455 S
C61 H18 0.930 . S
C61 C60 1.380 . S
C61 C62 1.381 . S
C62 H19 0.929 . S
C62 C61 1.381 . S
C62 C63 1.371 . S
C63 C62 1.371 . S
C63 C64 1.380 1_455 S
C64 H20 0.931 . S
C64 C63 1.380 1_655 S
C64 C65 1.387 . S
C65 H21 0.930 . S
C65 C60 1.386 1_655 S
C65 C64 1.387 . S
C66 C35 1.519 . S
C66 C67 1.381 . S
C66 C71 1.357 1_455 S
C67 H22 0.929 . S
C67 C66 1.381 . S
C67 C68 1.386 . S
C68 H23 0.931 . S
C68 C67 1.386 . S
C68 C69 1.363 1_455 S
C69 C68 1.363 1_655 S
C69 C70 1.385 . S
C70 H24 0.930 . S
C70 C69 1.385 . S
C70 C71 1.396 . S
C71 H25 0.929 . S
C71 C66 1.357 1_655 S
C71 C70 1.396 . S
C72 O26 1.300 1_655 S
C72 O27 1.209 . S
C72 C45 1.486 . S
C73 O28 1.199 1_655 S
C73 O29 1.297 . S
C73 C57 1.476 . S
H74 O100 0.856 . S
H75 O103 0.854 . S
H76 C111 0.930 . S
H77 C112 0.930 . S
H78 C114 0.930 . S
H79 C115 0.930 . S
H80 C117 0.931 . S
H81 C118 0.930 . S
H82 C120 0.930 . S
H83 C121 0.929 . S
H84 C123 0.930 . S
H85 C124 0.931 . S
H86 C126 0.930 . S
H87 C127 0.929 . S
H88 C129 0.931 . S
H89 C130 0.930 . S
H90 C132 0.930 . S
H91 C133 0.932 . S
H92 C135 0.930 . S
H93 C136 0.929 . S
H94 C138 0.931 . S
H95 C139 0.930 . S
H96 C141 0.929 . S
H97 C142 0.931 . S
H98 C144 0.930 . S
H99 C145 0.929 . S
O100 H74 0.856 . S
O100 C146 1.300 1_565 S
O101 C146 1.209 . S
O102 C147 1.199 1_565 S
O103 H75 0.854 . S
O103 C147 1.297 . S
C104 C105 1.404 . S
C104 C109 1.397 . S
C104 C110 1.492 . S
C105 C104 1.404 . S
C105 C106 1.396 . S
C105 C116 1.492 . S
C106 C105 1.396 . S
C106 C107 1.397 . S
C106 C122 1.509 . S
C107 C106 1.397 . S
C107 C108 1.412 . S
C107 C128 1.485 . S
C108 C107 1.412 . S
C108 C109 1.388 . S
C108 C134 1.490 . S
C109 C104 1.397 . S
C109 C108 1.388 . S
C109 C140 1.519 . S
C110 C104 1.492 . S
C110 C111 1.363 1_545 S
C110 C115 1.390 . S
C111 H76 0.930 . S
C111 C110 1.363 1_565 S
C111 C112 1.372 . S
C112 H77 0.930 . S
C112 C111 1.372 . S
C112 C113 1.383 . S
C113 C112 1.383 . S
C113 C114 1.395 1_565 S
C114 H78 0.930 . S
C114 C113 1.395 1_545 S
C114 C115 1.362 . S
C115 H79 0.930 . S
C115 C110 1.390 . S
C115 C114 1.362 . S
C116 C105 1.492 . S
C116 C117 1.377 1_545 S
C116 C121 1.397 . S
C117 H80 0.931 . S
C117 C116 1.377 1_565 S
C117 C118 1.376 . S
C118 H81 0.930 . S
C118 C117 1.376 . S
C118 C119 1.376 1_565 S
C119 C118 1.376 1_545 S
C119 C120 1.378 . S
C119 C146 1.486 . S
C120 H82 0.930 . S
C120 C119 1.378 . S
C120 C121 1.376 . S
C121 H83 0.929 . S
C121 C116 1.397 . S
C121 C120 1.376 . S
C122 C106 1.509 . S
C122 C123 1.391 1_545 S
C122 C127 1.386 . S
C123 H84 0.930 . S
C123 C122 1.391 1_565 S
C123 C124 1.375 . S
C124 H85 0.931 . S
C124 C123 1.375 . S
C124 C125 1.375 1_565 S
C125 C124 1.375 1_545 S
C125 C126 1.361 . S
C126 H86 0.930 . S
C126 C125 1.361 . S
C126 C127 1.399 . S
C127 H87 0.929 . S
C127 C122 1.386 . S
C127 C126 1.399 . S
C128 C107 1.485 . S
C128 C129 1.394 1_545 S
C128 C133 1.360 . S
C129 H88 0.931 . S
C129 C128 1.394 1_565 S
C129 C130 1.372 . S
C130 H89 0.930 . S
C130 C129 1.372 . S
C130 C131 1.397 1_565 S
C131 C130 1.397 1_545 S
C131 C132 1.390 . S
C131 C147 1.476 . S
C132 H90 0.930 . S
C132 C131 1.390 . S
C132 C133 1.366 . S
C133 H91 0.932 . S
C133 C128 1.360 . S
C133 C132 1.366 . S
C134 C108 1.490 . S
C134 C135 1.380 1_545 S
C134 C139 1.386 . S
C135 H92 0.930 . S
C135 C134 1.380 1_565 S
C135 C136 1.381 . S
C136 H93 0.929 . S
C136 C135 1.381 . S
C136 C137 1.371 . S
C137 C136 1.371 . S
C137 C138 1.380 1_565 S
C138 H94 0.931 . S
C138 C137 1.380 1_545 S
C138 C139 1.387 . S
C139 H95 0.930 . S
C139 C134 1.386 . S
C139 C138 1.387 . S
C140 C109 1.519 . S
C140 C141 1.377 1_545 S
C140 C145 1.361 . S
C141 H96 0.929 . S
C141 C140 1.377 1_565 S
C141 C142 1.386 . S
C142 H97 0.931 . S
C142 C141 1.386 . S
C142 C143 1.363 1_565 S
C143 C142 1.363 1_545 S
C143 C144 1.385 . S
C144 H98 0.930 . S
C144 C143 1.385 . S
C144 C145 1.396 . S
C145 H99 0.929 . S
C145 C140 1.361 . S
C145 C144 1.396 . S
C146 O100 1.300 1_545 S
C146 O101 1.209 . S
C146 C119 1.486 . S
C147 O102 1.199 1_545 S
C147 O103 1.297 . S
C147 C131 1.476 . S
H148 O174 0.856 1_554 S
H149 O177 0.854 . S
H150 C185 0.930 . S
H151 C186 0.930 . S
H152 C188 0.930 . S
H153 C189 0.930 . S
H154 C191 0.931 . S
H155 C192 0.930 . S
H156 C194 0.930 . S
H157 C195 0.929 . S
H158 C197 0.930 . S
H159 C198 0.931 . S
H160 C200 0.930 . S
H161 C201 0.929 . S
H162 C203 0.931 . S
H163 C204 0.930 . S
H164 C206 0.930 . S
H165 C207 0.932 . S
H166 C209 0.930 . S
H167 C210 0.929 . S
H168 C212 0.931 . S
H169 C213 0.930 . S
H170 C215 0.929 . S
H171 C216 0.931 . S
H172 C218 0.930 . S
H173 C219 0.929 . S
O174 H148 0.856 1_556 S
O174 C220 1.300 1_556 S
O175 C220 1.209 . S
O176 C221 1.199 1_556 S
O177 H149 0.854 . S
O177 C221 1.297 . S
C178 C179 1.404 . S
C178 C183 1.397 . S
C178 C184 1.492 . S
C179 C178 1.404 . S
C179 C180 1.396 . S
C179 C190 1.492 . S
C180 C179 1.396 . S
C180 C181 1.397 . S
C180 C196 1.509 . S
C181 C180 1.397 . S
C181 C182 1.412 . S
C181 C202 1.485 . S
C182 C181 1.412 . S
C182 C183 1.388 . S
C182 C208 1.490 . S
C183 C178 1.397 . S
C183 C182 1.388 . S
C183 C214 1.519 . S
C184 C178 1.492 . S
C184 C185 1.363 1_554 S
C184 C189 1.390 . S
C185 H150 0.930 . S
C185 C184 1.363 1_556 S
C185 C186 1.372 . S
C186 H151 0.930 . S
C186 C185 1.372 . S
C186 C187 1.383 . S
C187 C186 1.383 . S
C187 C188 1.395 1_556 S
C188 H152 0.930 . S
C188 C187 1.395 1_554 S
C188 C189 1.362 . S
C189 H153 0.930 . S
C189 C184 1.390 . S
C189 C188 1.362 . S
C190 C179 1.492 . S
C190 C191 1.377 1_554 S
C190 C195 1.397 . S
C191 H154 0.931 . S
C191 C190 1.377 1_556 S
C191 C192 1.376 . S
C192 H155 0.930 . S
C192 C191 1.376 . S
C192 C193 1.376 1_556 S
C193 C192 1.376 1_554 S
C193 C194 1.378 . S
C193 C220 1.486 . S
C194 H156 0.930 . S
C194 C193 1.378 . S
C194 C195 1.376 . S
C195 H157 0.929 . S
C195 C190 1.397 . S
C195 C194 1.376 . S
C196 C180 1.509 . S
C196 C197 1.391 1_554 S
C196 C201 1.386 . S
C197 H158 0.930 . S
C197 C196 1.391 1_556 S
C197 C198 1.375 . S
C198 H159 0.931 . S
C198 C197 1.375 . S
C198 C199 1.375 1_556 S
C199 C198 1.375 1_554 S
C199 C200 1.361 . S
C200 H160 0.930 . S
C200 C199 1.361 . S
C200 C201 1.399 . S
C201 H161 0.929 . S
C201 C196 1.386 . S
C201 C200 1.399 . S
C202 C181 1.485 . S
C202 C203 1.394 1_554 S
C202 C207 1.360 . S
C203 H162 0.931 . S
C203 C202 1.394 1_556 S
C203 C204 1.372 . S
C204 H163 0.930 . S
C204 C203 1.372 . S
C204 C205 1.397 1_556 S
C205 C204 1.397 1_554 S
C205 C206 1.390 . S
C205 C221 1.476 . S
C206 H164 0.930 . S
C206 C205 1.390 . S
C206 C207 1.366 . S
C207 H165 0.932 . S
C207 C202 1.360 . S
C207 C206 1.366 . S
C208 C182 1.490 . S
C208 C209 1.380 1_554 S
C208 C213 1.386 . S
C209 H166 0.930 . S
C209 C208 1.380 1_556 S
C209 C210 1.381 . S
C210 H167 0.929 . S
C210 C209 1.381 . S
C210 C211 1.371 . S
C211 C210 1.371 . S
C211 C212 1.380 1_556 S
C212 H168 0.931 . S
C212 C211 1.380 1_554 S
C212 C213 1.387 . S
C213 H169 0.930 . S
C213 C208 1.386 . S
C213 C212 1.387 . S
C214 C183 1.519 . S
C214 C215 1.377 1_554 S
C214 C219 1.361 . S
C215 H170 0.929 . S
C215 C214 1.377 1_556 S
C215 C216 1.386 . S
C216 H171 0.931 . S
C216 C215 1.386 . S
C216 C217 1.363 1_556 S
C217 C216 1.363 1_554 S
C217 C218 1.385 . S
C218 H172 0.930 . S
C218 C217 1.385 . S
C218 C219 1.396 . S
C219 H173 0.929 . S
C219 C214 1.361 . S
C219 C218 1.396 . S
C220 O174 1.300 1_554 S
C220 O175 1.209 . S
C220 C193 1.486 . S
C221 O176 1.199 1_554 S
C221 O177 1.297 . S
C221 C205 1.476 . S
Zn222 O224 1.933 1_556 S
Zn222 O242 1.985 . S
Zn222 O253 1.955 . S
Zn223 O224 1.911 . S
Zn223 O243 1.970 . S
Zn223 O259 1.945 . S
Zn223 O266 1.981 . S
O224 Zn222 1.933 1_554 S
O224 Zn223 1.911 . S
O224 H225 0.841 . S
H225 O224 0.841 . S
C226 O227 1.246 . S
C226 O255 1.276 1_455 S
O227 C226 1.246 . S
Zn228 O230 1.911 . S
Zn228 O245 1.970 . S
Zn228 O262 1.945 . S
Zn228 O269 1.981 . S
Zn229 O230 1.933 1_556 S
Zn229 O244 1.985 . S
Zn229 O251 1.955 . S
O230 Zn228 1.911 . S
O230 Zn229 1.933 1_554 S
O230 H231 0.841 . S
H231 O230 0.841 . S
Zn232 O233 1.933 1_556 S
Zn232 O246 1.985 . S
Zn232 O255 1.955 . S
O233 Zn232 1.933 1_554 S
O233 Zn234 1.911 . S
O233 H235 0.841 . S
Zn234 O233 1.911 . S
Zn234 O247 1.970 . S
Zn234 O263 1.981 . S
Zn234 O265 1.945 . S
H235 O233 0.841 . S
Zn236 O237 1.933 1_556 S
Zn236 O249 1.985 . S
Zn236 O257 1.955 . S
O237 Zn236 1.933 1_554 S
O237 H238 0.841 . S
O237 Zn239 1.911 . S
H238 O237 0.841 . S
Zn239 O237 1.911 . S
Zn239 O250 1.970 . S
Zn239 O260 1.981 . S
Zn239 O268 1.945 . S
C240 O241 1.246 . S
C240 O257 1.276 1_655 S
O241 C240 1.246 . S
O242 Zn222 1.985 . S
O242 C252 1.245 1_556 S
O243 Zn223 1.970 . S
O243 C252 1.263 . S
O244 Zn229 1.985 . S
O244 C256 1.245 1_556 S
O245 Zn228 1.970 . S
O245 C256 1.263 . S
O246 Zn232 1.985 . S
O246 C261 1.245 1_556 S
O247 Zn234 1.970 . S
O247 C261 1.263 . S
C248 O259 1.262 . S
C248 O260 1.245 1_545 S
O249 Zn236 1.985 . S
O249 C267 1.245 1_556 S
O250 Zn239 1.970 . S
O250 C267 1.263 . S
O251 Zn229 1.955 . S
O251 C270 1.276 1_565 S
C252 O242 1.245 1_554 S
C252 O243 1.263 . S
O253 Zn222 1.955 . S
O253 C272 1.276 . S
C254 O262 1.262 1_545 S
C254 O263 1.245 . S
O255 C226 1.276 1_655 S
O255 Zn232 1.955 . S
C256 O244 1.245 1_554 S
C256 O245 1.263 . S
O257 Zn236 1.955 . S
O257 C240 1.276 1_455 S
C258 O265 1.262 1_455 S
C258 O266 1.245 . S
O259 Zn223 1.945 . S
O259 C248 1.262 . S
O260 Zn239 1.981 . S
O260 C248 1.245 1_565 S
C261 O246 1.245 1_554 S
C261 O247 1.263 . S
O262 Zn228 1.945 . S
O262 C254 1.262 1_565 S
O263 Zn234 1.981 . S
O263 C254 1.245 . S
C264 O268 1.262 1_655 S
C264 O269 1.245 . S
O265 Zn234 1.945 . S
O265 C258 1.262 1_655 S
O266 Zn223 1.981 . S
O266 C258 1.245 . S
C267 O249 1.245 1_554 S
C267 O250 1.263 . S
O268 Zn239 1.945 . S
O268 C264 1.262 1_455 S
O269 Zn228 1.981 . S
O269 C264 1.245 . S
C270 O251 1.276 1_545 S
C270 O271 1.246 . S
O271 C270 1.246 . S
C272 O253 1.276 . S
C272 O273 1.246 1_545 S
O273 C272 1.246 1_565 S
H274 C282 0.950 . S
H275 C287 0.950 . S
H276 C284 0.950 . S
H277 C286 0.950 . S
H278 C288 0.950 . S
H279 C290 0.950 . S
H280 C292 0.950 . S
H281 C293 0.950 . S
C282 H274 0.950 . S
C282 C283 1.386 1_655 S
C282 C284 1.391 . S
C283 C282 1.386 1_455 S
C283 C287 1.393 . S
C284 H276 0.950 . S
C284 C282 1.391 . S
C284 C285 1.400 1_655 S
C285 C284 1.400 1_455 S
C285 C286 1.398 . S
C285 C291 1.491 . S
C286 H277 0.950 . S
C286 C285 1.398 . S
C286 C287 1.391 . S
C287 H275 0.950 . S
C287 C283 1.393 . S
C287 C286 1.391 . S
C288 H278 0.950 . S
C288 C289 1.386 . S
C288 C290 1.391 . S
C289 C288 1.386 . S
C289 C293 1.393 1_455 S
C290 H279 0.950 . S
C290 C288 1.391 . S
C290 C291 1.400 . S
C291 C285 1.491 . S
C291 C290 1.400 . S
C291 C292 1.398 1_455 S
C292 H280 0.950 . S
C292 C291 1.398 1_655 S
C292 C293 1.391 . S
C293 H281 0.950 . S
C293 C289 1.393 1_655 S
C293 C292 1.391 . S
H294 C302 0.950 . S
H295 C307 0.950 . S
H296 C304 0.950 . S
H297 C306 0.950 . S
H298 C308 0.950 . S
H299 C310 0.950 . S
H300 C312 0.950 . S
H301 C313 0.950 . S
C302 H294 0.950 . S
C302 C303 1.386 1_545 S
C302 C304 1.391 . S
C303 C302 1.386 1_565 S
C303 C307 1.393 . S
C304 H296 0.950 . S
C304 C302 1.391 . S
C304 C305 1.400 1_545 S
C305 C304 1.400 1_565 S
C305 C306 1.398 . S
C305 C311 1.491 1_565 S
C306 H297 0.950 . S
C306 C305 1.398 . S
C306 C307 1.391 . S
C307 H295 0.950 . S
C307 C303 1.393 . S
C307 C306 1.391 . S
C308 H298 0.950 . S
C308 C309 1.386 1_565 S
C308 C310 1.391 . S
C309 C308 1.386 1_545 S
C309 C313 1.393 . S
C310 H299 0.950 . S
C310 C308 1.391 . S
C310 C311 1.400 1_565 S
C311 C305 1.491 1_545 S
C311 C310 1.400 1_545 S
C311 C312 1.398 . S
C312 H300 0.950 . S
C312 C311 1.398 . S
C312 C313 1.391 . S
C313 H301 0.950 . S
C313 C309 1.393 . S
C313 C312 1.391 . S
H314 C322 0.950 . S
H315 C327 0.950 . S
H316 C324 0.950 . S
H317 C326 0.950 . S
H318 C328 0.950 . S
H319 C330 0.950 . S
H320 C332 0.950 . S
H321 C333 0.950 . S
C322 H314 0.950 . S
C322 C323 1.386 . S
C322 C324 1.391 . S
C323 C322 1.386 . S
C323 C327 1.393 1_655 S
C324 H316 0.950 . S
C324 C322 1.391 . S
C324 C325 1.400 . S
C325 C324 1.400 . S
C325 C326 1.398 1_655 S
C325 C331 1.491 . S
C326 H317 0.950 . S
C326 C325 1.398 1_455 S
C326 C327 1.391 . S
C327 H315 0.950 . S
C327 C323 1.393 1_455 S
C327 C326 1.391 . S
C328 H318 0.950 . S
C328 C329 1.386 1_455 S
C328 C330 1.391 . S
C329 C328 1.386 1_655 S
C329 C333 1.393 . S
C330 H319 0.950 . S
C330 C328 1.391 . S
C330 C331 1.400 1_455 S
C331 C325 1.491 . S
C331 C330 1.400 1_655 S
C331 C332 1.398 . S
C332 H320 0.950 . S
C332 C331 1.398 . S
C332 C333 1.391 . S
C333 H321 0.950 . S
C333 C329 1.393 . S
C333 C332 1.391 . S
H334 C342 0.950 . S
H335 C347 0.950 . S
H336 C344 0.950 . S
H337 C346 0.950 . S
H338 C348 0.950 . S
H339 C350 0.950 . S
H340 C352 0.950 . S
H341 C353 0.950 . S
C342 H334 0.950 . S
C342 C343 1.386 1_565 S
C342 C344 1.391 . S
C343 C342 1.386 1_545 S
C343 C347 1.393 . S
C344 H336 0.950 . S
C344 C342 1.391 . S
C344 C345 1.400 1_565 S
C345 C344 1.400 1_545 S
C345 C346 1.398 . S
C345 C351 1.491 . S
C346 H337 0.950 . S
C346 C345 1.398 . S
C346 C347 1.391 . S
C347 H335 0.950 . S
C347 C343 1.393 . S
C347 C346 1.391 . S
C348 H338 0.950 . S
C348 C349 1.386 . S
C348 C350 1.391 . S
C349 C348 1.386 . S
C349 C353 1.393 1_545 S
C350 H339 0.950 . S
C350 C348 1.391 . S
C350 C351 1.400 . S
C351 C345 1.491 . S
C351 C350 1.400 . S
C351 C352 1.398 1_545 S
C352 H340 0.950 . S
C352 C351 1.398 1_565 S
C352 C353 1.391 . S
C353 H341 0.950 . S
C353 C349 1.393 1_565 S
C353 C352 1.391 . S
H354 C362 0.950 . S
H355 C367 0.950 . S
H356 C364 0.950 . S
H357 C366 0.950 . S
H358 C368 0.950 . S
H359 C370 0.950 . S
H360 C372 0.950 . S
H361 C373 0.950 . S
C362 H354 0.950 . S
C362 C363 1.386 1_655 S
C362 C364 1.391 . S
C363 C362 1.386 1_455 S
C363 C367 1.393 . S
C364 H356 0.950 . S
C364 C362 1.391 . S
C364 C365 1.400 1_655 S
C365 C364 1.400 1_455 S
C365 C366 1.398 . S
C365 C371 1.491 . S
C366 H357 0.950 . S
C366 C365 1.398 . S
C366 C367 1.391 . S
C367 H355 0.950 . S
C367 C363 1.393 . S
C367 C366 1.391 . S
C368 H358 0.950 . S
C368 C369 1.386 1_455 S
C368 C370 1.391 . S
C369 C368 1.386 1_655 S
C369 C373 1.393 . S
C370 H359 0.950 . S
C370 C368 1.391 . S
C370 C371 1.400 . S
C371 C365 1.491 . S
C371 C370 1.400 . S
C371 C372 1.398 1_455 S
C372 H360 0.950 . S
C372 C371 1.398 1_655 S
C372 C373 1.391 . S
C373 H361 0.950 . S
C373 C369 1.393 . S
C373 C372 1.391 . S
H374 C382 0.950 . S
H375 C387 0.950 . S
H376 C384 0.950 . S
H377 C386 0.950 . S
H378 C388 0.950 . S
H379 C390 0.950 . S
H380 C392 0.950 . S
H381 C393 0.950 . S
C382 H374 0.950 . S
C382 C383 1.386 1_545 S
C382 C384 1.391 . S
C383 C382 1.386 1_565 S
C383 C387 1.393 . S
C384 H376 0.950 . S
C384 C382 1.391 . S
C384 C385 1.400 1_545 S
C385 C384 1.400 1_565 S
C385 C386 1.398 . S
C385 C391 1.491 . S
C386 H377 0.950 . S
C386 C385 1.398 . S
C386 C387 1.391 . S
C387 H375 0.950 . S
C387 C383 1.393 . S
C387 C386 1.391 . S
C388 H378 0.950 . S
C388 C389 1.386 . S
C388 C390 1.391 . S
C389 C388 1.386 . S
C389 C393 1.393 1_565 S
C390 H379 0.950 . S
C390 C388 1.391 . S
C390 C391 1.400 . S
C391 C385 1.491 . S
C391 C390 1.400 . S
C391 C392 1.398 1_565 S
C392 H380 0.950 . S
C392 C391 1.398 1_545 S
C392 C393 1.391 . S
C393 H381 0.950 . S
C393 C389 1.393 1_545 S
C393 C392 1.391 . S
H394 C402 0.950 . S
H395 C407 0.950 . S
H396 C404 0.950 . S
H397 C406 0.950 . S
H398 C408 0.950 . S
H399 C410 0.950 . S
H400 C412 0.950 . S
H401 C413 0.950 . S
C402 H394 0.950 . S
C402 C403 1.386 1_455 S
C402 C404 1.391 . S
C403 C402 1.386 1_655 S
C403 C407 1.393 . S
C404 H396 0.950 . S
C404 C402 1.391 . S
C404 C405 1.400 1_455 S
C405 C404 1.400 1_655 S
C405 C406 1.398 . S
C405 C411 1.491 1_655 S
C406 H397 0.950 . S
C406 C405 1.398 . S
C406 C407 1.391 . S
C407 H395 0.950 . S
C407 C403 1.393 . S
C407 C406 1.391 . S
C408 H398 0.950 . S
C408 C409 1.386 1_655 S
C408 C410 1.391 . S
C409 C408 1.386 1_455 S
C409 C413 1.393 . S
C410 H399 0.950 . S
C410 C408 1.391 . S
C410 C411 1.400 1_655 S
C411 C405 1.491 1_455 S
C411 C410 1.400 1_455 S
C411 C412 1.398 . S
C412 H400 0.950 . S
C412 C411 1.398 . S
C412 C413 1.391 . S
C413 H401 0.950 . S
C413 C409 1.393 . S
C413 C412 1.391 . S
H414 C422 0.950 . S
H415 C427 0.950 . S
H416 C424 0.950 . S
H417 C426 0.950 . S
H418 C428 0.950 . S
H419 C430 0.950 . S
H420 C432 0.950 . S
H421 C433 0.950 . S
C422 H414 0.950 . S
C422 C423 1.386 1_565 S
C422 C424 1.391 . S
C423 C422 1.386 1_545 S
C423 C427 1.393 . S
C424 H416 0.950 . S
C424 C422 1.391 . S
C424 C425 1.400 1_565 S
C425 C424 1.400 1_545 S
C425 C426 1.398 . S
C425 C431 1.491 . S
C426 H417 0.950 . S
C426 C425 1.398 . S
C426 C427 1.391 . S
C427 H415 0.950 . S
C427 C423 1.393 . S
C427 C426 1.391 . S
C428 H418 0.950 . S
C428 C429 1.386 . S
C428 C430 1.391 . S
C429 C428 1.386 . S
C429 C433 1.393 1_545 S
C430 H419 0.950 . S
C430 C428 1.391 . S
C430 C431 1.400 . S
C431 C425 1.491 . S
C431 C430 1.400 . S
C431 C432 1.398 1_545 S
C432 H420 0.950 . S
C432 C431 1.398 1_565 S
C432 C433 1.391 . S
C433 H421 0.950 . S
C433 C429 1.393 1_565 S
C433 C432 1.391 . S
H434 C442 0.950 . S
H435 C447 0.950 . S
H436 C444 0.950 . S
H437 C446 0.950 . S
H438 C448 0.950 . S
H439 C450 0.950 . S
H440 C452 0.950 . S
H441 C453 0.950 . S
C442 H434 0.950 . S
C442 C443 1.386 1_554 S
C442 C444 1.391 . S
C443 C442 1.386 1_556 S
C443 C447 1.393 . S
C444 H436 0.950 . S
C444 C442 1.391 . S
C444 C445 1.400 . S
C445 C444 1.400 . S
C445 C446 1.398 1_554 S
C445 C451 1.491 . S
C446 H437 0.950 . S
C446 C445 1.398 1_556 S
C446 C447 1.391 . S
C447 H435 0.950 . S
C447 C443 1.393 . S
C447 C446 1.391 . S
C448 H438 0.950 . S
C448 C449 1.386 1_556 S
C448 C450 1.391 . S
C449 C448 1.386 1_554 S
C449 C453 1.393 . S
C450 H439 0.950 . S
C450 C448 1.391 . S
C450 C451 1.400 1_556 S
C451 C445 1.491 . S
C451 C450 1.400 1_554 S
C451 C452 1.398 . S
C452 H440 0.950 . S
C452 C451 1.398 . S
C452 C453 1.391 . S
C453 H441 0.950 . S
C453 C449 1.393 . S
C453 C452 1.391 . S
H454 C462 0.950 . S
H455 C467 0.950 . S
H456 C464 0.953 . S
H457 C466 0.950 . S
H458 C468 0.950 . S
H459 C470 0.950 . S
H460 C472 0.951 . S
H461 C473 0.950 1_556 S
C462 H454 0.950 . S
C462 C463 1.386 . S
C462 C464 1.391 . S
C463 C462 1.386 . S
C463 C467 1.393 . S
C464 H456 0.953 . S
C464 C462 1.391 . S
C464 C465 1.400 . S
C465 C464 1.400 . S
C465 C466 1.398 . S
C465 C471 1.491 . S
C466 H457 0.950 . S
C466 C465 1.398 . S
C466 C467 1.391 . S
C467 H455 0.950 . S
C467 C463 1.393 . S
C467 C466 1.391 . S
C468 H458 0.950 . S
C468 C469 1.386 . S
C468 C470 1.391 . S
C469 C468 1.386 . S
C469 C473 1.393 . S
C470 H459 0.950 . S
C470 C468 1.391 . S
C470 C471 1.400 . S
C471 C465 1.491 . S
C471 C470 1.400 . S
C471 C472 1.398 . S
C472 H460 0.951 . S
C472 C471 1.398 . S
C472 C473 1.391 . S
C473 H461 0.950 1_554 S
C473 C469 1.393 . S
C473 C472 1.391 . S
H474 C482 0.950 . S
H475 C487 0.950 . S
H476 C484 0.950 . S
H477 C486 0.950 . S
H478 C488 0.950 . S
H479 C490 0.950 . S
H480 C492 0.950 . S
H481 C493 0.950 . S
C482 H474 0.950 . S
C482 C483 1.386 . S
C482 C484 1.391 . S
C483 C482 1.386 . S
C483 C487 1.393 . S
C484 H476 0.950 . S
C484 C482 1.391 . S
C484 C485 1.400 . S
C485 C484 1.400 . S
C485 C486 1.398 . S
C485 C491 1.491 . S
C486 H477 0.950 . S
C486 C485 1.398 . S
C486 C487 1.391 . S
C487 H475 0.950 . S
C487 C483 1.393 . S
C487 C486 1.391 . S
C488 H478 0.950 . S
C488 C489 1.386 . S
C488 C490 1.391 . S
C489 C488 1.386 . S
C489 C493 1.393 . S
C490 H479 0.950 . S
C490 C488 1.391 . S
C490 C491 1.400 . S
C491 C485 1.491 . S
C491 C490 1.400 . S
C491 C492 1.398 . S
C492 H480 0.950 . S
C492 C491 1.398 . S
C492 C493 1.391 . S
C493 H481 0.950 . S
C493 C489 1.393 . S
C493 C492 1.391 . S
H494 C502 0.950 . S
H495 C507 0.950 . S
H496 C504 0.950 . S
H497 C506 0.950 . S
H498 C508 0.950 . S
H499 C510 0.950 . S
H500 C512 0.950 . S
H501 C513 0.950 . S
C502 H494 0.950 . S
C502 C503 1.386 1_554 S
C502 C504 1.391 . S
C503 C502 1.386 1_556 S
C503 C507 1.393 . S
C504 H496 0.950 . S
C504 C502 1.391 . S
C504 C505 1.401 . S
C505 C504 1.401 . S
C505 C506 1.398 1_554 S
C505 C511 1.491 . S
C506 H497 0.950 . S
C506 C505 1.398 1_556 S
C506 C507 1.391 . S
C507 H495 0.950 . S
C507 C503 1.393 . S
C507 C506 1.391 . S
C508 H498 0.950 . S
C508 C509 1.386 1_556 S
C508 C510 1.391 . S
C509 C508 1.386 1_554 S
C509 C513 1.393 . S
C510 H499 0.950 . S
C510 C508 1.391 . S
C510 C511 1.400 1_556 S
C511 C505 1.491 . S
C511 C510 1.400 1_554 S
C511 C512 1.398 . S
C512 H500 0.950 . S
C512 C511 1.398 . S
C512 C513 1.391 . S
C513 H501 0.950 . S
C513 C509 1.393 . S
C513 C512 1.391 . S
C289 C258 1.734 . S
C283 C39 1.748 . S
C309 C254 1.908 . S
C303 C113 1.851 . S
C329 C264 2.148 . S
C323 C69 2.252 . S
C349 C248 0.944 . S
C343 C125 1.004 . S
C363 C63 1.889 . S
C369 C240 1.936 . S
C389 C272 1.810 1_565 S
C383 C137 1.839 . S
C403 C51 1.129 . S
C409 C226 1.070 . S
C423 C143 2.384 . S
C429 C270 2.266 . S
C443 C187 1.084 . S
C449 C252 1.112 . S
C463 C217 1.591 . S
C469 C267 1.563 . S
C489 C261 0.400 . S
C483 C199 0.291 . S
C509 C256 1.193 . S
C503 C211 1.169 . S
