# Generated by pormake.
# Topology tsx, (6,3)-cn, num edge types: 1
# Building blocks:
#     Node 0, Type 0, BuildingBlock: VOLQOD_clean_sbu_1, # of connection points: 6
#     Node 1, Type 0, BuildingBlock: VOLQOD_clean_sbu_1, # of connection points: 6
#     Node 2, Type 1, BuildingBlock: BETDIP_clean_linker_0, # of connection points: 3
#     Node 3, Type 1, BuildingBlock: BETDIP_clean_linker_0, # of connection points: 3
#     Node 4, Type 1, BuildingBlock: BETDIP_clean_linker_0, # of connection points: 3
#     Node 5, Type 1, BuildingBlock: BETDIP_clean_linker_0, # of connection points: 3
#     Edge 6, Type (0, 1), BuildingBlock: MIFKUJ_clean_linker_0, # of connection points: 2
#     Edge 7, Type (0, 1), BuildingBlock: MIFKUJ_clean_linker_0, # of connection points: 2
#     Edge 8, Type (0, 1), BuildingBlock: MIFKUJ_clean_linker_0, # of connection points: 2
#     Edge 9, Type (0, 1), BuildingBlock: MIFKUJ_clean_linker_0, # of connection points: 2
#     Edge 10, Type (0, 1), BuildingBlock: MIFKUJ_clean_linker_0, # of connection points: 2
#     Edge 11, Type (0, 1), BuildingBlock: MIFKUJ_clean_linker_0, # of connection points: 2
#     Edge 12, Type (0, 1), BuildingBlock: MIFKUJ_clean_linker_0, # of connection points: 2
#     Edge 13, Type (0, 1), BuildingBlock: MIFKUJ_clean_linker_0, # of connection points: 2
#     Edge 14, Type (0, 1), BuildingBlock: MIFKUJ_clean_linker_0, # of connection points: 2
#     Edge 15, Type (0, 1), BuildingBlock: MIFKUJ_clean_linker_0, # of connection points: 2
#     Edge 16, Type (0, 1), BuildingBlock: MIFKUJ_clean_linker_0, # of connection points: 2
#     Edge 17, Type (0, 1), BuildingBlock: MIFKUJ_clean_linker_0, # of connection points: 2
# Relax obj value: 0.057
# Max RMSD: 0.120
# Mean RMSD: 0.106
data_MOF--net-tsx--node1-VOLQOD_clean_sbu_1--node2-BETDIP_clean_linker_0--edge1-MIFKUJ_clean_linker_0
_symmetry_space_group_name_H-M    P1
_symmetry_Int_Tables_number       1
_symmetry_cell_setting            triclinic
loop_
_symmetry_equiv_pos_as_xyz
'x, y, z'
_cell_length_a     27.158677
_cell_length_b     28.123761
_cell_length_c     48.706392
_cell_angle_alpha  90.271712
_cell_angle_beta   98.876684
_cell_angle_gamma 90.018203
loop_
_atom_site_label
_atom_site_type_symbol
_atom_site_fract_x
_atom_site_fract_y
_atom_site_fract_z
_atom_type_partial_charge
O0 O 0.06605 0.01455 0.07 0.0
Zn1 Zn 0.07647 0.00847 0.02983 0.0
O2 O 0.01304 0.00925 0.00432 0.0
Zn3 Zn 0.00346 0.9484 0.98421 0.0
Zn4 Zn 0.95904 0.01938 0.02564 0.0
Zn5 Zn 0.0123 0.06147 0.9779 0.0
O6 O 0.99857 0.95852 0.9428 0.0
O7 O 0.00659 0.03668 0.93885 0.0
O8 O 0.11451 0.94793 0.02553 0.0
O9 O 0.0628 0.9055 0.99511 0.0
O10 O 0.94163 0.91391 0.99233 0.0
O11 O 0.91315 0.96364 0.02173 0.0
O12 O 0.91849 0.07732 0.01353 0.0
O13 O 0.11949 0.06367 0.02205 0.0
O14 O 0.95544 0.10707 0.97989 0.0
O15 O 0.07546 0.09944 0.98576 0.0
C16 C 0.02732 0.02321 0.08097 0.0
C17 C 0.00121 0.99539 0.92796 0.0
C18 C 0.90995 0.92477 0.00811 0.0
C19 C 0.10418 0.91014 0.01125 0.0
C20 C 0.92145 0.10882 0.9952 0.0
C21 C 0.11443 0.09651 0.0039 0.0
O22 O 0.98463 0.02699 0.06617 0.0
O23 O 0.54112 0.50847 0.5706 0.0
Zn24 Zn 0.55584 0.50733 0.53126 0.0
O25 O 0.49552 0.51363 0.50403 0.0
Zn26 Zn 0.48862 0.45899 0.47859 0.0
Zn27 Zn 0.43797 0.51519 0.52349 0.0
Zn28 Zn 0.4996 0.57273 0.48322 0.0
O29 O 0.48282 0.48058 0.43874 0.0
O30 O 0.49492 0.55876 0.4422 0.0
O31 O 0.59286 0.44777 0.52461 0.0
O32 O 0.54871 0.41659 0.48657 0.0
O33 O 0.42868 0.41867 0.48259 0.0
O34 O 0.39182 0.46065 0.51228 0.0
O35 O 0.39954 0.57563 0.5155 0.0
O36 O 0.60356 0.56009 0.5277 0.0
O37 O 0.44327 0.61686 0.48877 0.0
O38 O 0.56484 0.60733 0.49496 0.0
C39 C 0.50045 0.50902 0.58055 0.0
C40 C 0.48741 0.52096 0.42762 0.0
C41 C 0.39312 0.42469 0.49647 0.0
C42 C 0.5864 0.416 0.50571 0.0
C43 C 0.40624 0.61291 0.50182 0.0
C44 C 0.60278 0.59706 0.51273 0.0
O45 O 0.45835 0.51061 0.56495 0.0
H46 H 0.02811 0.00425 0.45451 0.0
H47 H 0.98806 0.07939 0.37776 0.0
H48 H 0.09611 0.9665 0.38336 0.0
H49 H 0.99604 0.14273 0.41564 0.0
C50 C 0.96892 0.1244 0.42605 0.0
C51 C 0.03202 0.00936 0.4329 0.0
C52 C 0.06554 0.98146 0.42072 0.0
C53 C 0.00559 0.04577 0.41777 0.0
C54 C 0.01043 0.05257 0.38974 0.0
C55 C 0.04216 0.0233 0.37689 0.0
C56 C 0.07046 0.98852 0.39278 0.0
N57 N 0.97378 0.07489 0.43102 0.0
H58 H 0.02956 0.94498 0.55717 0.0
H59 H 0.08591 0.01468 0.63436 0.0
H60 H 0.99248 0.89106 0.63386 0.0
H61 H 0.06432 0.08004 0.60237 0.0
C62 C 0.08569 0.06704 0.58675 0.0
C63 C 0.03299 0.94671 0.57963 0.0
C64 C 0.00868 0.9131 0.59396 0.0
C65 C 0.06014 0.98374 0.59404 0.0
C66 C 0.06406 0.98652 0.62315 0.0
C67 C 0.04027 0.95282 0.63782 0.0
C68 C 0.01286 0.91607 0.62299 0.0
N69 N 0.08248 0.01839 0.57885 0.0
H70 H 0.53802 0.50065 0.9577 0.0
H71 H 0.46105 0.55595 0.8806 0.0
H72 H 0.57855 0.45411 0.87988 0.0
H73 H 0.51162 0.57267 0.9741 0.0
C74 C 0.47413 0.57559 0.96264 0.0
C75 C 0.53304 0.50233 0.93525 0.0
C76 C 0.56338 0.47438 0.92062 0.0
C77 C 0.49613 0.53196 0.92079 0.0
C78 C 0.48964 0.5333 0.89171 0.0
C79 C 0.51946 0.50549 0.87691 0.0
C80 C 0.55592 0.47596 0.89143 0.0
N81 N 0.46365 0.55962 0.93463 0.0
H82 H 0.43911 0.5291 0.04889 0.0
H83 H 0.49647 0.59741 0.12625 0.0
H84 H 0.41129 0.46858 0.12593 0.0
H85 H 0.4966 0.66178 0.09754 0.0
C86 C 0.51199 0.64527 0.08052 0.0
C87 C 0.44329 0.52991 0.07138 0.0
C88 C 0.42061 0.49499 0.08568 0.0
C89 C 0.47048 0.56688 0.0858 0.0
C90 C 0.47535 0.56894 0.115 0.0
C91 C 0.45351 0.53391 0.1298 0.0
C92 C 0.4267 0.49685 0.11484 0.0
N93 N 0.49469 0.59993 0.07043 0.0
H94 H 0.1933 0.11242 0.04504 0.0
H95 H 0.24975 0.18042 0.04987 0.0
H96 H 0.18024 0.23294 0.97015 0.0
H97 H 0.12263 0.16558 0.96543 0.0
H98 H 0.31794 0.21869 0.02248 0.0
H99 H 0.17226 0.35349 0.97472 0.0
H100 H 0.08083 0.36159 0.96366 0.0
H101 H 0.06296 0.27126 0.03227 0.0
H102 H 0.1543 0.26307 0.0439 0.0
H103 H 0.43862 0.44462 0.03971 0.0
H104 H 0.3889 0.3794 0.01624 0.0
H105 H 0.28447 0.39337 0.0742 0.0
H106 H 0.33225 0.45986 0.09669 0.0
H107 H 0.23604 0.37612 0.02458 0.0
H108 H 0.38271 0.30987 0.08245 0.0
H109 H 0.4733 0.29985 0.0967 0.0
H110 H 0.48782 0.25133 0.01459 0.0
H111 H 0.39732 0.2615 0.99981 0.0
C112 C 0.19038 0.13805 0.02834 0.0
C113 C 0.15292 0.13398 0.00506 0.0
C114 C 0.22286 0.17683 0.03108 0.0
C115 C 0.21866 0.2121 0.01057 0.0
C116 C 0.18352 0.20652 0.98644 0.0
C117 C 0.15065 0.16798 0.98379 0.0
C118 C 0.24813 0.25644 0.01582 0.0
C119 C 0.30012 0.25321 0.02264 0.0
C120 C 0.22486 0.30145 0.01611 0.0
C121 C 0.17 0.30721 0.00992 0.0
C122 C 0.14878 0.33554 0.98749 0.0
C123 C 0.09702 0.34011 0.98112 0.0
C124 C 0.06613 0.31672 0.99715 0.0
C125 C 0.08695 0.28914 0.01978 0.0
C126 C 0.1387 0.2845 0.02627 0.0
C127 C 0.40462 0.43427 0.04714 0.0
C128 C 0.38983 0.45687 0.07038 0.0
C129 C 0.37647 0.39677 0.03384 0.0
C130 C 0.33344 0.38098 0.04377 0.0
C131 C 0.31766 0.40476 0.06625 0.0
C132 C 0.34543 0.44235 0.07935 0.0
C133 C 0.30578 0.33826 0.03199 0.0
C134 C 0.25406 0.3418 0.02382 0.0
C135 C 0.32922 0.29344 0.03099 0.0
C136 C 0.38344 0.28691 0.03997 0.0
C137 C 0.4053 0.2973 0.06742 0.0
C138 C 0.45659 0.29156 0.07559 0.0
C139 C 0.48631 0.27509 0.05655 0.0
C140 C 0.46476 0.26415 0.02931 0.0
C141 C 0.41349 0.26986 0.02103 0.0
H142 H 0.52602 0.2707 0.06291 0.0
H143 H 0.02609 0.31999 0.99201 0.0
H144 H 0.199 0.90952 0.04036 0.0
H145 H 0.26313 0.84895 0.03919 0.0
H146 H 0.15971 0.76371 0.9834 0.0
H147 H 0.09514 0.82383 0.98459 0.0
H148 H 0.21666 0.70889 0.02242 0.0
H149 H 0.24214 0.83183 0.95769 0.0
H150 H 0.25471 0.91408 0.94285 0.0
H151 H 0.38887 0.92442 0.00215 0.0
H152 H 0.37674 0.84232 0.01756 0.0
H153 H 0.37327 0.57668 0.94637 0.0
H154 H 0.31269 0.62936 0.96318 0.0
H155 H 0.43006 0.69276 0.02173 0.0
H156 H 0.49093 0.63972 0.0049 0.0
H157 H 0.37071 0.75858 0.98719 0.0
H158 H 0.34766 0.63159 0.04901 0.0
H159 H 0.33398 0.54885 0.06237 0.0
H160 H 0.19599 0.54451 0.00602 0.0
H161 H 0.20844 0.62764 0.99253 0.0
C162 C 0.18965 0.87771 0.02804 0.0
C163 C 0.14196 0.8718 0.01237 0.0
C164 C 0.22643 0.84315 0.02736 0.0
C165 C 0.21634 0.80209 0.01096 0.0
C166 C 0.16828 0.79515 0.99619 0.0
C167 C 0.13148 0.82971 0.9968 0.0
C168 C 0.25654 0.76762 0.00794 0.0
C169 C 0.25023 0.7197 0.0146 0.0
C170 C 0.30079 0.78186 0.99823 0.0
C171 C 0.30821 0.83118 0.98901 0.0
C172 C 0.27409 0.85179 0.96772 0.0
C173 C 0.28118 0.89834 0.95918 0.0
C174 C 0.32247 0.92452 0.97163 0.0
C175 C 0.35684 0.90413 0.99258 0.0
C176 C 0.34991 0.85759 0.00121 0.0
C177 C 0.3861 0.6015 0.96302 0.0
C178 C 0.43681 0.60444 0.97431 0.0
C179 C 0.35141 0.63133 0.97273 0.0
C180 C 0.36688 0.66481 0.99375 0.0
C181 C 0.41738 0.66704 0.00554 0.0
C182 C 0.45202 0.63671 0.99604 0.0
C183 C 0.33071 0.69989 0.00153 0.0
C184 C 0.3376 0.74793 0.99554 0.0
C185 C 0.28692 0.68567 0.01162 0.0
C186 C 0.27916 0.63572 0.01961 0.0
C187 C 0.31453 0.61292 0.03933 0.0
C188 C 0.30698 0.56595 0.04696 0.0
C189 C 0.26442 0.54123 0.03488 0.0
C190 C 0.22902 0.56365 0.01532 0.0
C191 C 0.23615 0.61079 0.00778 0.0
H192 H 0.25878 0.50479 0.04077 0.0
H193 H 0.3279 0.96056 0.96498 0.0
H194 H 0.88303 0.84159 0.97955 0.0
H195 H 0.81687 0.78599 0.98744 0.0
H196 H 0.77977 0.87688 0.05281 0.0
H197 H 0.84497 0.9322 0.04518 0.0
H198 H 0.79108 0.78267 0.06838 0.0
H199 H 0.70835 0.87662 0.9914 0.0
H200 H 0.69766 0.90886 0.94386 0.0
H201 H 0.68866 0.76716 0.91022 0.0
H202 H 0.7 0.73407 0.95762 0.0
H203 H 0.55238 0.73068 0.09625 0.0
H204 H 0.6226 0.77003 0.07969 0.0
H205 H 0.63272 0.65434 0.02239 0.0
H206 H 0.56306 0.61432 0.03922 0.0
H207 H 0.64106 0.74753 0.9993 0.0
H208 H 0.7138 0.65362 0.07597 0.0
H209 H 0.72337 0.62118 0.12342 0.0
H210 H 0.75205 0.76136 0.15746 0.0
H211 H 0.74183 0.79479 0.11019 0.0
C212 C 0.86063 0.84974 0.99552 0.0
C213 C 0.86936 0.89133 0.01174 0.0
C214 C 0.82286 0.81803 -5e-05 0.0
C215 C 0.79359 0.82742 0.02073 0.0
C216 C 0.80212 0.86893 0.03676 0.0
C217 C 0.83937 0.90063 0.03225 0.0
C218 C 0.75435 0.7941 0.02649 0.0
C219 C 0.75822 0.77507 0.0533 0.0
C220 C 0.71235 0.783 0.0065 0.0
C221 C 0.70572 0.80288 0.97804 0.0
C222 C 0.70462 0.85234 0.97387 0.0
C223 C 0.69832 0.87077 0.94695 0.0
C224 C 0.69268 0.84008 0.92403 0.0
C225 C 0.69317 0.79089 0.92799 0.0
C226 C 0.69952 0.77228 0.95487 0.0
C227 C 0.56941 0.71383 0.08 0.0
C228 C 0.55226 0.66966 0.06897 0.0
C229 C 0.60945 0.73623 0.07061 0.0
C230 C 0.6329 0.71485 0.04997 0.0
C231 C 0.61498 0.67134 0.0383 0.0
C232 C 0.57521 0.64861 0.04794 0.0
C233 C 0.67716 0.73763 0.04146 0.0
C234 C 0.67434 0.75446 0.01419 0.0
C235 C 0.72032 0.74666 0.06099 0.0
C236 C 0.72664 0.72676 0.08951 0.0
C237 C 0.72171 0.6776 0.09357 0.0
C238 C 0.72733 0.65902 0.12043 0.0
C239 C 0.73821 0.6892 0.14344 0.0
C240 C 0.74358 0.73803 0.13962 0.0
C241 C 0.73793 0.75681 0.11278 0.0
H242 H 0.74257 0.67474 0.16423 0.0
H243 H 0.68777 0.85441 0.9032 0.0
H244 H 0.92117 0.18754 0.96227 0.0
H245 H 0.861 0.25265 0.95706 0.0
H246 H 0.77937 0.18536 0.01553 0.0
H247 H 0.83915 0.11985 0.02077 0.0
H248 H 0.71784 0.21515 0.97025 0.0
H249 H 0.84763 0.28227 0.03513 0.0
H250 H 0.93347 0.30527 0.05481 0.0
H251 H 0.94132 0.39547 0.98476 0.0
H252 H 0.85569 0.37251 0.96441 0.0
H253 H 0.55674 0.41487 0.96439 0.0
H254 H 0.61875 0.35688 0.9851 0.0
H255 H 0.7193 0.40353 0.93019 0.0
H256 H 0.65841 0.46249 0.91018 0.0
H257 H 0.76927 0.38438 0.98117 0.0
H258 H 0.64248 0.30638 0.91411 0.0
H259 H 0.55585 0.28378 0.89566 0.0
H260 H 0.54236 0.21423 0.97246 0.0
H261 H 0.62883 0.23682 0.99144 0.0
C262 C 0.89048 0.18653 0.97406 0.0
C263 C 0.88503 0.14841 0.99194 0.0
C264 C 0.85628 0.22396 0.97119 0.0
C265 C 0.81604 0.22411 0.98616 0.0
C266 C 0.81027 0.18602 0.00387 0.0
C267 C 0.84455 0.14864 0.00685 0.0
C268 C 0.77912 0.26331 0.98249 0.0
C269 C 0.72896 0.25212 0.97317 0.0
C270 C 0.79366 0.31155 0.9861 0.0
C271 C 0.8453 0.32539 0.99815 0.0
C272 C 0.86778 0.30672 0.02379 0.0
C273 C 0.91637 0.31982 0.0351 0.0
C274 C 0.9428 0.35184 0.02106 0.0
C275 C 0.92073 0.37074 0.99563 0.0
C276 C 0.87215 0.35773 0.98421 0.0
C277 C 0.59248 0.41342 0.95717 0.0
C278 C 0.60246 0.44278 0.93539 0.0
C279 C 0.62771 0.38005 0.96887 0.0
C280 C 0.67331 0.37533 0.95884 0.0
C281 C 0.6843 0.40636 0.93816 0.0
C282 C 0.64926 0.43972 0.92655 0.0
C283 C 0.70836 0.33618 0.96829 0.0
C284 C 0.75816 0.34737 0.97868 0.0
C285 C 0.69348 0.2879 0.96583 0.0
C286 C 0.64187 0.27364 0.95426 0.0
C287 C 0.62094 0.28644 0.92709 0.0
C288 C 0.5719 0.27361 0.91654 0.0
C289 C 0.54358 0.24767 0.9329 0.0
C290 C 0.56432 0.23435 0.95982 0.0
C291 C 0.61335 0.2471 0.97047 0.0
H292 H 0.50561 0.23783 0.92471 0.0
H293 H 0.98038 0.36201 0.02988 0.0
H294 H 0.69639 0.57488 0.53789 0.0
H295 H 0.76932 0.62641 0.54575 0.0
H296 H 0.68357 0.74094 0.50357 0.0
H297 H 0.61023 0.6889 0.49489 0.0
H298 H 0.77877 0.73818 0.49101 0.0
H299 H 0.70143 0.73562 0.57374 0.0
H300 H 0.66632 0.69697 0.61177 0.0
H301 H 0.80731 0.63061 0.63998 0.0
H302 H 0.84307 0.66837 0.60188 0.0
H303 H 0.93121 0.92924 0.55269 0.0
H304 H 0.8665 0.87268 0.53335 0.0
H305 H 0.94529 0.76032 0.58181 0.0
H306 H 0.00899 0.81743 0.60198 0.0
H307 H 0.8538 0.76138 0.58967 0.0
H308 H 0.93326 0.76693 0.50843 0.0
H309 H 0.96885 0.80626 0.4708 0.0
H310 H 0.82611 0.86692 0.43985 0.0
H311 H 0.78982 0.82858 0.47756 0.0
C312 C 0.69294 0.61097 0.53016 0.0
C313 C 0.6473 0.62807 0.51613 0.0
C314 C 0.73474 0.64035 0.53464 0.0
C315 C 0.73159 0.68772 0.5257 0.0
C316 C 0.68668 0.70449 0.51072 0.0
C317 C 0.64481 0.67483 0.5059 0.0
C318 C 0.77443 0.72023 0.53351 0.0
C319 C 0.795 0.74372 0.51257 0.0
C320 C 0.79606 0.72663 0.56163 0.0
C321 C 0.77479 0.70451 0.58482 0.0
C322 C 0.72486 0.71258 0.58797 0.0
C323 C 0.70485 0.69085 0.60954 0.0
C324 C 0.73453 0.66126 0.62824 0.0
C325 C 0.78435 0.65349 0.62547 0.0
C326 C 0.80452 0.67509 0.60391 0.0
C327 C 0.93521 0.8922 0.55864 0.0
C328 C 0.97487 0.87748 0.57876 0.0
C329 C 0.89832 0.85987 0.54755 0.0
C330 C 0.90114 0.81211 0.55598 0.0
C331 C 0.94225 0.797 0.57506 0.0
C332 C 0.97864 0.82948 0.58649 0.0
C333 C 0.85898 0.77908 0.54719 0.0
C334 C 0.83813 0.75567 0.56804 0.0
C335 C 0.83736 0.77281 0.51902 0.0
C336 C 0.85889 0.79514 0.49597 0.0
C337 C 0.90951 0.78887 0.49369 0.0
C338 C 0.92981 0.81097 0.47234 0.0
C339 C 0.89978 0.83914 0.45298 0.0
C340 C 0.84934 0.84511 0.45487 0.0
C341 C 0.82886 0.82316 0.47621 0.0
H342 H 0.91559 0.85628 0.43649 0.0
H343 H 0.71896 0.64443 0.64491 0.0
H344 H 0.57788 0.32994 0.4791 0.0
H345 H 0.64581 0.2761 0.47194 0.0
H346 H 0.75178 0.36889 0.52077 0.0
H347 H 0.68421 0.42225 0.52874 0.0
H348 H 0.75176 0.338 0.45436 0.0
H349 H 0.76068 0.29061 0.55171 0.0
H350 H 0.72327 0.2604 0.59124 0.0
H351 H 0.67594 0.13371 0.54504 0.0
H352 H 0.71242 0.16359 0.50505 0.0
H353 H 0.97291 0.21811 0.43882 0.0
H354 H 0.91052 0.26535 0.45804 0.0
H355 H 0.81758 0.14067 0.45801 0.0
H356 H 0.88125 0.093 0.44033 0.0
H357 H 0.81087 0.18831 0.50195 0.0
H358 H 0.79801 0.22933 0.40583 0.0
H359 H 0.8274 0.25607 0.363 0.0
H360 H 0.87183 0.3901 0.40166 0.0
H361 H 0.84326 0.36391 0.44486 0.0
C362 C 0.61552 0.33834 0.4888 0.0
C363 C 0.62579 0.38033 0.50441 0.0
C364 C 0.65411 0.30754 0.48477 0.0
C365 C 0.70342 0.31864 0.496 0.0
C366 C 0.71371 0.35968 0.51226 0.0
C367 C 0.67509 0.39001 0.51677 0.0
C368 C 0.74456 0.29045 0.48795 0.0
C369 C 0.76544 0.30564 0.46497 0.0
C370 C 0.76058 0.24755 0.50128 0.0
C371 C 0.73864 0.22964 0.52527 0.0
C372 C 0.74172 0.25661 0.54985 0.0
C373 C 0.72085 0.23947 0.57238 0.0
C374 C 0.69706 0.19524 0.57062 0.0
C375 C 0.69426 0.168 0.54635 0.0
C376 C 0.71505 0.18501 0.52376 0.0
C377 C 0.9392 0.20094 0.4431 0.0
C378 C 0.93158 0.15221 0.43805 0.0
C379 C 0.9035 0.22788 0.45394 0.0
C380 C 0.85881 0.2068 0.45894 0.0
C381 C 0.8517 0.15776 0.45433 0.0
C382 C 0.88797 0.1306 0.44414 0.0
C383 C 0.81898 0.23598 0.4683 0.0
C384 C 0.79784 0.22086 0.49138 0.0
C385 C 0.80182 0.27858 0.45462 0.0
C386 C 0.81897 0.29446 0.42866 0.0
C387 C 0.81437 0.26437 0.40525 0.0
C388 C 0.83083 0.27945 0.38091 0.0
C389 C 0.85159 0.3247 0.37964 0.0
C390 C 0.85581 0.35503 0.40269 0.0
C391 C 0.83946 0.3401 0.42711 0.0
H392 H 0.86431 0.33631 0.36077 0.0
H393 H 0.68096 0.18202 0.58809 0.0
H394 H 0.30195 0.43353 0.51264 0.0
H395 H 0.24554 0.36952 0.52092 0.0
H396 H 0.34168 0.26713 0.48975 0.0
H397 H 0.39806 0.33132 0.48078 0.0
H398 H 0.24064 0.24284 0.47682 0.0
H399 H 0.35831 0.28718 0.55667 0.0
H400 H 0.40345 0.34387 0.59031 0.0
H401 H 0.26556 0.38662 0.61579 0.0
H402 H 0.21947 0.33073 0.58196 0.0
H403 H 0.15506 0.0486 0.55258 0.0
H404 H 0.20495 0.10677 0.53167 0.0
H405 H 0.1291 0.22078 0.5676 0.0
H406 H 0.08078 0.16261 0.58942 0.0
H407 H 0.22453 0.2353 0.57684 0.0
H408 H 0.10672 0.18858 0.49617 0.0
H409 H 0.06375 0.13108 0.46235 0.0
H410 H 0.20361 0.09039 0.43856 0.0
H411 H 0.24764 0.147 0.4727 0.0
C412 C 0.31065 0.39753 0.507 0.0
C413 C 0.35489 0.38733 0.49653 0.0
C414 C 0.27834 0.36101 0.51172 0.0
C415 C 0.2901 0.31357 0.50652 0.0
C416 C 0.33214 0.30354 0.49401 0.0
C417 C 0.36433 0.34024 0.48897 0.0
C418 C 0.26175 0.27467 0.51721 0.0
C419 C 0.23738 0.24076 0.4987 0.0
C420 C 0.25766 0.27217 0.54577 0.0
C421 C 0.2854 0.30503 0.56662 0.0
C422 C 0.33758 0.30886 0.56934 0.0
C423 C 0.36334 0.34084 0.58844 0.0
C424 C 0.33738 0.3689 0.60514 0.0
C425 C 0.28561 0.36489 0.60283 0.0
C426 C 0.25965 0.33304 0.58371 0.0
C427 C 0.1489 0.08607 0.55583 0.0
C428 C 0.11417 0.1013 0.5726 0.0
C429 C 0.17719 0.1193 0.54374 0.0
C430 C 0.1704 0.16822 0.5478 0.0
C431 C 0.13504 0.18325 0.5642 0.0
C432 C 0.1074 0.15009 0.5766 0.0
C433 C 0.20173 0.20403 0.53636 0.0
C434 C 0.22737 0.23725 0.55489 0.0
C435 C 0.2071 0.20549 0.50788 0.0
C436 C 0.18052 0.17179 0.48716 0.0
C437 C 0.12837 0.16716 0.48387 0.0
C438 C 0.10381 0.13475 0.4646 0.0
C439 C 0.13091 0.10715 0.44826 0.0
C440 C 0.18267 0.11183 0.45121 0.0
C441 C 0.20745 0.14407 0.47052 0.0
H442 H 0.11189 0.08225 0.43327 0.0
H443 H 0.3574 0.39369 0.61988 0.0
H444 H 0.31383 0.61022 0.51743 0.0
H445 H 0.25111 0.6732 0.51272 0.0
H446 H 0.35237 0.76657 0.47896 0.0
H447 H 0.41535 0.70376 0.4834 0.0
H448 H 0.2978 0.81088 0.51851 0.0
H449 H 0.27103 0.7107 0.43558 0.0
H450 H 0.2559 0.63406 0.4109 0.0
H451 H 0.1213 0.61513 0.44571 0.0
H452 H 0.13606 0.69143 0.47092 0.0
H453 H 0.16601 0.97458 0.42803 0.0
H454 H 0.21776 0.91175 0.45201 0.0
H455 H 0.08662 0.84429 0.47404 0.0
H456 H 0.03451 0.90766 0.45004 0.0
H457 H 0.14682 0.78305 0.44871 0.0
H458 H 0.16441 0.88723 0.52554 0.0
H459 H 0.17651 0.96384 0.55031 0.0
H460 H 0.3235 0.97536 0.52872 0.0
H461 H 0.31219 0.89866 0.5037 0.0
C462 C 0.32301 0.64429 0.50924 0.0
C463 C 0.36945 0.65189 0.50056 0.0
C464 C 0.28712 0.68018 0.50661 0.0
C465 C 0.2972 0.72432 0.49544 0.0
C466 C 0.34409 0.73269 0.48773 0.0
C467 C 0.37984 0.69667 0.49008 0.0
C468 C 0.25776 0.76068 0.48981 0.0
C469 C 0.26481 0.80495 0.50324 0.0
C470 C 0.21393 0.75213 0.47064 0.0
C471 C 0.20498 0.70641 0.45541 0.0
C472 C 0.23846 0.68997 0.43817 0.0
C473 C 0.2299 0.64665 0.42405 0.0
C474 C 0.18776 0.61966 0.42681 0.0
C475 C 0.15399 0.63602 0.44364 0.0
C476 C 0.16242 0.6793 0.45785 0.0
C477 C 0.14839 0.94654 0.43823 0.0
C478 C 0.09651 0.94552 0.43715 0.0
C479 C 0.17789 0.91096 0.45207 0.0
C480 C 0.15596 0.87365 0.46492 0.0
C481 C 0.10413 0.87299 0.46434 0.0
C482 C 0.07456 0.90907 0.45075 0.0
C483 C 0.18743 0.83374 0.47685 0.0
C484 C 0.17909 0.78873 0.46453 0.0
C485 C 0.2297 0.84149 0.49725 0.0
C486 C 0.23732 0.8873 0.51259 0.0
C487 C 0.19924 0.9062 0.52594 0.0
C488 C 0.20596 0.94965 0.54005 0.0
C489 C 0.25066 0.97464 0.54098 0.0
C490 C 0.28887 0.95599 0.52796 0.0
C491 C 0.28239 0.91241 0.51389 0.0
H492 H 0.25573 0.00838 0.55184 0.0
H493 H 0.18119 0.58613 0.41585 0.0
H494 H 0.95649 0.05664 0.11014 0.0
H495 H 0.96153 0.06369 0.16036 0.0
H496 H 0.11136 0.00817 0.17135 0.0
H497 H 0.10709 0.00214 0.1209 0.0
H498 H 0.97037 0.99832 0.19791 0.0
H499 H 0.17732 0.05166 0.23148 0.0
H500 H 0.2429 0.097 0.21321 0.0
H501 H 0.13136 0.17969 0.16249 0.0
H502 H 0.06515 0.13531 0.18072 0.0
H503 H 0.04311 0.95114 0.33939 0.0
H504 H 0.04338 0.95709 0.28948 0.0
H505 H 0.04401 0.11014 0.29574 0.0
H506 H 0.04522 0.10447 0.34608 0.0
H507 H 0.10694 0.07838 0.26078 0.0
H508 H 0.93758 0.05487 0.27304 0.0
H509 H 0.86775 0.01599 0.29101 0.0
H510 H 0.8958 0.88642 0.2491 0.0
H511 H 0.96632 0.92434 0.2312 0.0
C512 C 0.99069 0.04615 0.12318 0.0
C513 C 0.03139 0.02872 0.11148 0.0
C514 C 0.99347 0.05018 0.15193 0.0
C515 C 0.03688 0.03673 0.16966 0.0
C516 C 0.07775 0.01953 0.15808 0.0
C517 C 0.07517 0.01588 0.12924 0.0
C518 C 0.03828 0.03886 0.20022 0.0
C519 C 0.00025 0.0159 0.2116 0.0
C520 C 0.07676 0.06248 0.21812 0.0
C521 C 0.1163 0.08981 0.20728 0.0
C522 C 0.1668 0.07965 0.21651 0.0
C523 C 0.20408 0.10516 0.20615 0.0
C524 C 0.1913 0.14109 0.18664 0.0
C525 C 0.14121 0.15172 0.17752 0.0
C526 C 0.10379 0.12635 0.18784 0.0
C527 C 0.04411 0.98611 0.33027 0.0
C528 C 0.04411 0.02737 0.3467 0.0
C529 C 0.04384 0.98943 0.3017 0.0
C530 C 0.04316 0.03404 0.28889 0.0
C531 C 0.0444 0.07537 0.30525 0.0
C532 C 0.04466 0.07208 0.33392 0.0
C533 C 0.03953 0.03719 0.25829 0.0
C534 C 0.0771 0.06097 0.24698 0.0
C535 C 2e-05 0.01526 0.24034 0.0
C536 C 0.95752 0.99234 0.25098 0.0
C537 C 0.92911 0.01798 0.26783 0.0
C538 C 0.88936 0.99613 0.27797 0.0
C539 C 0.87741 0.94873 0.27125 0.0
C540 C 0.90513 0.92312 0.25431 0.0
C541 C 0.94497 0.94478 0.24414 0.0
H542 H 0.84662 0.93188 0.27912 0.0
H543 H 0.22021 0.16077 0.17862 0.0
H544 H 0.00563 0.91306 0.89809 0.0
H545 H 0.0121 0.90538 0.84874 0.0
H546 H 0.00357 0.05781 0.84001 0.0
H547 H 0.99683 0.06594 0.88923 0.0
H548 H 0.94628 0.01114 0.79675 0.0
H549 H 0.11391 0.00482 0.84589 0.0
H550 H 0.18141 0.97449 0.88116 0.0
H551 H 0.16544 0.83575 0.84366 0.0
H552 H 0.0973 0.86511 0.80839 0.0
H553 H 0.03153 0.03402 0.66791 0.0
H554 H 0.02646 0.0407 0.71742 0.0
H555 H 0.04344 0.88874 0.72599 0.0
H556 H 0.05049 0.88196 0.67666 0.0
H557 H 0.09606 0.93419 0.76948 0.0
H558 H 0.92889 0.9401 0.72024 0.0
H559 H 0.86042 0.96973 0.68534 0.0
H560 H 0.87452 0.10826 0.7232 0.0
H561 H 0.94359 0.07962 0.75811 0.0
C562 C 0.00465 0.94495 0.88564 0.0
C563 C 0.00101 0.99015 0.89767 0.0
C564 C 0.0086 0.94049 0.85748 0.0
C565 C 0.00895 0.98108 0.84085 0.0
C566 C 0.00353 0.02607 0.85253 0.0
C567 C -0.00019 0.03061 0.88069 0.0
C568 C 0.01619 0.97684 0.81141 0.0
C569 C 0.97927 0.99482 0.79077 0.0
C570 C 0.0588 0.95466 0.80368 0.0
C571 C 0.10015 0.93705 0.82467 0.0
C572 C 0.12454 0.96775 0.84529 0.0
C573 C 0.16295 0.95076 0.86526 0.0
C574 C 0.17761 0.90319 0.8647 0.0
C575 C 0.154 0.87257 0.84409 0.0
C576 C 0.1155 0.88937 0.82409 0.0
C577 C 0.03517 0.00211 0.68042 0.0
C578 C 0.04115 0.9574 0.6683 0.0
C579 C 0.0317 0.00593 0.70866 0.0
C580 C 0.03366 0.96511 0.72528 0.0
C581 C 0.0415 0.92066 0.7135 0.0
C582 C 0.04514 0.91681 0.68528 0.0
C583 C 0.02616 0.9686 0.75474 0.0
C584 C 0.06302 0.95047 0.77542 0.0
C585 C 0.98342 0.99056 0.76252 0.0
C586 C 0.94174 0.00782 0.74162 0.0
C587 C 0.91764 0.97698 0.72099 0.0
C588 C 0.87869 0.99358 0.70123 0.0
C589 C 0.86322 0.04088 0.702 0.0
C590 C 0.8866 0.07165 0.7226 0.0
C591 C 0.92562 0.05524 0.74239 0.0
H592 H 0.83305 0.05366 0.68669 0.0
H593 H 0.20733 0.89009 0.8802 0.0
H594 H 0.55897 0.56302 0.61877 0.0
H595 H 0.55954 0.56495 0.66898 0.0
H596 H 0.44839 0.45364 0.66082 0.0
H597 H 0.44478 0.45499 0.61029 0.0
H598 H 0.42631 0.50866 0.69639 0.0
H599 H 0.58269 0.43775 0.6863 0.0
H600 H 0.66405 0.43097 0.67004 0.0
H601 H 0.7135 0.55969 0.71352 0.0
H602 H 0.63222 0.5675 0.7298 0.0
H603 H 0.4997 0.43197 0.84034 0.0
H604 H 0.49362 0.43469 0.78949 0.0
H605 H 0.52175 0.58561 0.79393 0.0
H606 H 0.52633 0.58332 0.84474 0.0
H607 H 0.58575 0.51064 0.76168 0.0
H608 H 0.42185 0.57658 0.77081 0.0
H609 H 0.34119 0.57351 0.78808 0.0
H610 H 0.3083 0.43921 0.74701 0.0
H611 H 0.38919 0.44116 0.72987 0.0
C612 C 0.53479 0.53901 0.62783 0.0
C613 C 0.50208 0.50866 0.61087 0.0
C614 C 0.53537 0.53978 0.65656 0.0
C615 C 0.50499 0.50853 0.66903 0.0
C616 C 0.47228 0.47812 0.6519 0.0
C617 C 0.47035 0.47867 0.62305 0.0
C618 C 0.50658 0.50814 0.69978 0.0
C619 C 0.46135 0.50853 0.71051 0.0
C620 C 0.5521 0.5083 0.71856 0.0
C621 C 0.60122 0.50341 0.70906 0.0
C622 C 0.61084 0.46472 0.69228 0.0
C623 C 0.65694 0.46069 0.68308 0.0
C624 C 0.69388 0.49494 0.69069 0.0
C625 C 0.68484 0.53321 0.70762 0.0
C626 C 0.63879 0.53742 0.71687 0.0
C627 C 0.50409 0.46572 0.83036 0.0
C628 C 0.51327 0.50749 0.84626 0.0
C629 C 0.50063 0.46723 0.80145 0.0
C630 C 0.50721 0.51034 0.78815 0.0
C631 C 0.51644 0.5521 0.80396 0.0
C632 C 0.51882 0.5508 0.83283 0.0
C633 C 0.50584 0.51139 0.75774 0.0
C634 C 0.55103 0.51087 0.74726 0.0
C635 C 0.46048 0.50973 0.73923 0.0
C636 C 0.41179 0.50875 0.74937 0.0
C637 C 0.39766 0.54615 0.76573 0.0
C638 C 0.35184 0.54468 0.77543 0.0
C639 C 0.3197 0.50611 0.76872 0.0
C640 C 0.33326 0.46902 0.75223 0.0
C641 C 0.37906 0.47031 0.74251 0.0
H642 H 0.28425 0.50504 0.77625 0.0
H643 H 0.72952 0.49178 0.68352 0.0
H644 H 0.43548 0.46363 0.38804 0.0
H645 H 0.43227 0.4681 0.33773 0.0
H646 H 0.53365 0.58746 0.34831 0.0
H647 H 0.53427 0.58488 0.39854 0.0
H648 H 0.47074 0.6049 0.30666 0.0
H649 H 0.56913 0.46814 0.33235 0.0
H650 H 0.592 0.39085 0.35439 0.0
H651 H 0.46607 0.32516 0.30432 0.0
H652 H 0.44205 0.40222 0.28223 0.0
H653 H 0.53434 0.56338 0.16751 0.0
H654 H 0.54235 0.5644 0.21826 0.0
H655 H 0.39447 0.5063 0.21328 0.0
H656 H 0.38448 0.50797 0.16266 0.0
H657 H 0.4877 0.45891 0.25131 0.0
H658 H 0.39137 0.60522 0.22828 0.0
H659 H 0.37949 0.68361 0.20575 0.0
H660 H 0.51887 0.73157 0.25126 0.0
H661 H 0.53189 0.65313 0.27375 0.0
C662 C 0.45699 0.49084 0.37958 0.0
C663 C 0.48522 0.52381 0.39717 0.0
C664 C 0.4555 0.49318 0.35081 0.0
C665 C 0.48368 0.52743 0.33909 0.0
C666 C 0.51161 0.56064 0.35672 0.0
C667 C 0.51202 0.55911 0.38544 0.0
C668 C 0.48332 0.52907 0.30847 0.0
C669 C 0.47519 0.57293 0.29476 0.0
C670 C 0.48923 0.48756 0.29262 0.0
C671 C 0.50354 0.44108 0.30581 0.0
C672 C 0.54611 0.43729 0.32618 0.0
C673 C 0.55931 0.39351 0.33866 0.0
C674 C 0.53044 0.35315 0.33081 0.0
C675 C 0.48837 0.35647 0.3104 0.0
C676 C 0.47497 0.40018 0.29787 0.0
C677 C 0.50304 0.55168 0.17708 0.0
C678 C 0.45876 0.53543 0.16077 0.0
C679 C 0.50796 0.55189 0.20611 0.0
C680 C 0.46908 0.53521 0.21934 0.0
C681 C 0.42499 0.51897 0.20333 0.0
C682 C 0.41958 0.51965 0.17436 0.0
C683 C 0.47432 0.53424 0.24998 0.0
C684 C 0.48355 0.49061 0.26353 0.0
C685 C 0.47099 0.57601 0.26574 0.0
C686 C 0.46287 0.62319 0.25242 0.0
C687 C 0.41971 0.63232 0.23326 0.0
C688 C 0.41271 0.67679 0.22055 0.0
C689 C 0.44848 0.7125 0.227 0.0
C690 C 0.49124 0.70385 0.24624 0.0
C691 C 0.49843 0.65942 0.25899 0.0
H692 H 0.443 0.74691 0.21714 0.0
H693 H 0.54072 0.31929 0.3405 0.0
loop_
_geom_bond_atom_site_label_1
_geom_bond_atom_site_label_2
_geom_bond_distance
_geom_bond_site_symmetry_2
_ccdc_geom_bond_type
O0 Zn1 1.953 1_565 S
O0 C16 1.225 1_565 S
Zn1 O0 1.953 1_545 S
Zn1 O2 1.949 . S
Zn1 O8 1.919 1_545 S
Zn1 O13 1.924 . S
O2 Zn1 1.949 . S
O2 Zn3 1.923 1_444 S
O2 Zn4 1.950 1_455 S
O2 Zn5 1.945 1_554 S
Zn3 O2 1.923 1_666 S
Zn3 O6 1.933 . S
Zn3 O9 1.941 1_655 S
Zn3 O10 1.965 . S
Zn4 O2 1.950 1_655 S
Zn4 O11 1.938 1_545 S
Zn4 O12 1.906 . S
Zn4 O22 1.953 . S
Zn5 O2 1.945 1_556 S
Zn5 O7 1.932 . S
Zn5 O14 1.977 1_455 S
Zn5 O15 1.920 . S
O6 Zn3 1.933 . S
O6 C17 1.226 1_665 S
O7 Zn5 1.932 . S
O7 C17 1.307 . S
O8 Zn1 1.919 1_565 S
O8 C19 1.253 . S
O9 Zn3 1.941 1_455 S
O9 C19 1.283 1_556 S
O10 Zn3 1.965 . S
O10 C18 1.303 1_556 S
O11 Zn4 1.938 1_565 S
O11 C18 1.247 . S
O12 Zn4 1.906 . S
O12 C20 1.304 1_554 S
O13 Zn1 1.924 . S
O13 C21 1.311 . S
O14 Zn5 1.977 1_655 S
O14 C20 1.272 . S
O15 Zn5 1.920 . S
O15 C21 1.204 1_556 S
C16 O0 1.225 1_545 S
C16 O22 1.298 1_455 S
C17 O6 1.226 1_445 S
C17 O7 1.307 . S
C18 O10 1.303 1_554 S
C18 O11 1.247 . S
C19 O8 1.253 . S
C19 O9 1.283 1_554 S
C20 O12 1.304 1_556 S
C20 O14 1.272 . S
C21 O13 1.311 . S
C21 O15 1.204 1_554 S
O22 Zn4 1.953 . S
O22 C16 1.298 1_655 S
O23 Zn24 1.953 . S
O23 C39 1.225 . S
Zn24 O23 1.953 . S
Zn24 O25 1.949 . S
Zn24 O31 1.919 . S
Zn24 O36 1.924 . S
O25 Zn24 1.949 . S
O25 Zn26 1.923 . S
O25 Zn27 1.950 . S
O25 Zn28 1.945 . S
Zn26 O25 1.923 . S
Zn26 O29 1.933 . S
Zn26 O32 1.941 . S
Zn26 O33 1.965 . S
Zn27 O25 1.950 . S
Zn27 O34 1.938 . S
Zn27 O35 1.906 . S
Zn27 O45 1.953 . S
Zn28 O25 1.945 . S
Zn28 O30 1.932 . S
Zn28 O37 1.977 . S
Zn28 O38 1.910 . S
O29 Zn26 1.933 . S
O29 C40 1.226 . S
O30 Zn28 1.932 . S
O30 C40 1.307 . S
O31 Zn24 1.919 . S
O31 C42 1.253 . S
O32 Zn26 1.941 . S
O32 C42 1.283 . S
O33 Zn26 1.965 . S
O33 C41 1.303 . S
O34 Zn27 1.938 . S
O34 C41 1.247 . S
O35 Zn27 1.906 . S
O35 C43 1.304 . S
O36 Zn24 1.924 . S
O36 C44 1.311 . S
O37 Zn28 1.977 . S
O37 C43 1.272 . S
O38 Zn28 1.910 . S
O38 C44 1.231 . S
C39 O23 1.225 . S
C39 O45 1.298 . S
C40 O29 1.226 . S
C40 O30 1.307 . S
C41 O33 1.303 . S
C41 O34 1.247 . S
C42 O31 1.253 . S
C42 O32 1.283 . S
C43 O35 1.304 . S
C43 O37 1.272 . S
C44 O36 1.311 . S
C44 O38 1.231 . S
O45 Zn27 1.953 . S
O45 C39 1.298 . S
H46 C51 0.930 . S
H47 C54 0.930 . S
H48 C56 0.930 . S
H49 C50 1.016 . S
C50 H49 1.016 . S
C50 N57 1.286 . S
C51 H46 0.930 . S
C51 C52 1.397 . S
C51 C53 1.361 1_465 S
C52 C51 1.397 . S
C52 C56 1.390 . S
C53 C51 1.361 1_645 S
C53 C54 1.393 . S
C53 N57 1.413 . S
C54 H47 0.930 . S
C54 C53 1.393 . S
C54 C55 1.399 1_655 S
C55 C54 1.399 1_455 S
C55 C56 1.381 1_545 S
C56 H48 0.930 . S
C56 C52 1.390 . S
C56 C55 1.381 1_565 S
N57 C50 1.286 . S
N57 C53 1.413 . S
H58 C63 0.930 . S
H59 C66 0.930 . S
H60 C68 0.930 . S
H61 C62 1.016 . S
C62 H61 1.016 . S
C62 N69 1.286 . S
C63 H58 0.930 . S
C63 C64 1.397 1_455 S
C63 C65 1.361 1_565 S
C64 C63 1.397 1_655 S
C64 C68 1.390 . S
C65 C63 1.361 1_545 S
C65 C66 1.393 . S
C65 N69 1.413 . S
C66 H59 0.930 . S
C66 C65 1.393 . S
C66 C67 1.399 . S
C67 C66 1.399 . S
C67 C68 1.381 1_445 S
C68 H60 0.930 . S
C68 C64 1.390 . S
C68 C67 1.381 1_665 S
N69 C62 1.286 . S
N69 C65 1.413 . S
H70 C75 0.930 . S
H71 C78 0.930 . S
H72 C80 0.930 . S
H73 C74 1.016 . S
C74 H73 1.016 . S
C74 N81 1.286 . S
C75 H70 0.930 . S
C75 C76 1.397 . S
C75 C77 1.361 . S
C76 C75 1.397 . S
C76 C80 1.390 . S
C77 C75 1.361 . S
C77 C78 1.393 . S
C77 N81 1.413 . S
C78 H71 0.930 . S
C78 C77 1.393 . S
C78 C79 1.399 . S
C79 C78 1.399 . S
C79 C80 1.381 . S
C80 H72 0.930 . S
C80 C76 1.390 . S
C80 C79 1.381 . S
N81 C74 1.286 . S
N81 C77 1.413 . S
H82 C87 0.930 . S
H83 C90 0.930 . S
H84 C92 0.930 . S
H85 C86 1.016 . S
C86 H85 1.016 . S
C86 N93 1.286 . S
C87 H82 0.930 . S
C87 C88 1.397 . S
C87 C89 1.361 . S
C88 C87 1.397 . S
C88 C92 1.390 . S
C89 C87 1.361 . S
C89 C90 1.393 . S
C89 N93 1.413 . S
C90 H83 0.930 . S
C90 C89 1.393 . S
C90 C91 1.399 . S
C91 C90 1.399 . S
C91 C92 1.381 . S
C92 H84 0.930 . S
C92 C88 1.390 . S
C92 C91 1.381 . S
N93 C86 1.286 . S
N93 C89 1.413 . S
H94 C112 0.951 . S
H95 C114 0.951 . S
H96 C116 0.950 . S
H97 C117 0.950 . S
H98 C119 0.950 . S
H99 C122 0.950 . S
H100 C123 0.950 1_556 S
H101 C125 0.950 . S
H102 C126 0.950 . S
H103 C127 0.951 . S
H104 C129 0.951 . S
H105 C131 0.950 . S
H106 C132 0.950 . S
H107 C134 0.950 . S
H108 C137 0.950 . S
H109 C138 0.950 . S
H110 C140 0.950 . S
H111 C141 0.950 . S
C112 H94 0.951 . S
C112 C113 1.366 . S
C112 C114 1.388 . S
C113 C112 1.366 . S
C113 C117 1.385 . S
C114 H95 0.951 . S
C114 C112 1.388 . S
C114 C115 1.366 . S
C115 C114 1.366 . S
C115 C116 1.414 . S
C115 C118 1.499 . S
C116 H96 0.950 . S
C116 C115 1.414 . S
C116 C117 1.374 . S
C117 H97 0.950 . S
C117 C113 1.385 . S
C117 C116 1.374 . S
C118 C115 1.499 . S
C118 C119 1.373 . S
C118 C120 1.389 . S
C119 H98 0.950 . S
C119 C118 1.373 . S
C119 C135 1.377 . S
C120 C118 1.389 . S
C120 C121 1.524 . S
C120 C134 1.377 . S
C121 C120 1.524 . S
C121 C122 1.397 . S
C121 C126 1.363 . S
C122 H99 0.950 . S
C122 C121 1.397 . S
C122 C123 1.334 . S
C123 H100 0.950 1_554 S
C123 C122 1.334 . S
C123 C124 1.287 . S
C124 C123 1.287 . S
C124 C125 1.524 . S
C124 H143 0.913 . S
C125 H101 0.950 . S
C125 C124 1.524 . S
C125 C126 1.415 . S
C126 H102 0.950 . S
C126 C121 1.363 . S
C126 C125 1.415 . S
C127 H103 0.951 . S
C127 C128 1.366 . S
C127 C129 1.388 . S
C128 C127 1.366 . S
C128 C132 1.385 . S
C129 H104 0.951 . S
C129 C127 1.388 . S
C129 C130 1.366 . S
C130 C129 1.366 . S
C130 C131 1.414 . S
C130 C133 1.499 . S
C131 H105 0.950 . S
C131 C130 1.414 . S
C131 C132 1.374 . S
C132 H106 0.950 . S
C132 C128 1.385 . S
C132 C131 1.374 . S
C133 C130 1.499 . S
C133 C134 1.373 . S
C133 C135 1.389 . S
C134 H107 0.950 . S
C134 C120 1.377 . S
C134 C133 1.373 . S
C135 C119 1.377 . S
C135 C133 1.389 . S
C135 C136 1.524 . S
C136 C135 1.524 . S
C136 C137 1.397 . S
C136 C141 1.363 . S
C137 H108 0.950 . S
C137 C136 1.397 . S
C137 C138 1.334 . S
C138 H109 0.950 . S
C138 C137 1.334 . S
C138 C139 1.287 . S
C139 C138 1.287 . S
C139 C140 1.524 . S
C139 H142 0.999 . S
C140 H110 0.950 . S
C140 C139 1.524 . S
C140 C141 1.415 . S
C141 H111 0.950 . S
C141 C136 1.363 . S
C141 C140 1.415 . S
H142 C139 0.999 . S
H143 C124 0.913 . S
H144 C162 0.951 . S
H145 C164 0.951 1_554 S
H146 C166 0.950 . S
H147 C167 0.950 . S
H148 C169 0.950 . S
H149 C172 0.950 . S
H150 C173 0.950 . S
H151 C175 0.950 . S
H152 C176 0.950 . S
H153 C177 0.951 . S
H154 C179 0.951 . S
H155 C181 0.950 . S
H156 C182 0.950 . S
H157 C184 0.950 . S
H158 C187 0.945 1_554 S
H159 C188 0.950 . S
H160 C190 0.950 . S
H161 C191 0.950 . S
C162 H144 0.951 . S
C162 C163 1.366 1_554 S
C162 C164 1.388 1_554 S
C163 C162 1.366 1_556 S
C163 C167 1.385 . S
C164 H145 0.951 1_556 S
C164 C162 1.388 1_556 S
C164 C165 1.366 . S
C165 C164 1.366 . S
C165 C166 1.414 . S
C165 C168 1.499 . S
C166 H146 0.950 . S
C166 C165 1.414 . S
C166 C167 1.374 . S
C167 H147 0.950 . S
C167 C163 1.385 . S
C167 C166 1.374 . S
C168 C165 1.499 . S
C168 C169 1.373 . S
C168 C170 1.389 . S
C169 H148 0.950 . S
C169 C168 1.373 . S
C169 C185 1.377 . S
C170 C168 1.389 . S
C170 C171 1.524 . S
C170 C184 1.377 . S
C171 C170 1.524 . S
C171 C172 1.397 . S
C171 C176 1.363 . S
C172 H149 0.950 . S
C172 C171 1.397 . S
C172 C173 1.334 . S
C173 H150 0.950 . S
C173 C172 1.334 . S
C173 C174 1.287 . S
C174 C173 1.287 . S
C174 C175 1.524 . S
C174 H193 0.913 . S
C175 H151 0.950 . S
C175 C174 1.524 . S
C175 C176 1.415 . S
C176 H152 0.950 . S
C176 C171 1.363 . S
C176 C175 1.415 . S
C177 H153 0.951 . S
C177 C178 1.366 . S
C177 C179 1.388 . S
C178 C177 1.366 . S
C178 C182 1.385 . S
C179 H154 0.951 . S
C179 C177 1.388 . S
C179 C180 1.366 . S
C180 C179 1.366 . S
C180 C181 1.414 . S
C180 C183 1.499 . S
C181 H155 0.950 . S
C181 C180 1.414 . S
C181 C182 1.374 . S
C182 H156 0.950 . S
C182 C178 1.385 . S
C182 C181 1.374 . S
C183 C180 1.499 . S
C183 C184 1.373 . S
C183 C185 1.389 . S
C184 H157 0.950 . S
C184 C170 1.377 . S
C184 C183 1.373 . S
C185 C169 1.377 . S
C185 C183 1.389 . S
C185 C186 1.524 . S
C186 C185 1.524 . S
C186 C187 1.410 . S
C186 C191 1.363 . S
C187 H158 0.945 1_556 S
C187 C186 1.410 . S
C187 C188 1.326 1_556 S
C188 H159 0.950 . S
C188 C187 1.326 1_554 S
C188 C189 1.284 1_554 S
C189 C188 1.284 1_556 S
C189 C190 1.533 . S
C189 H192 0.994 1_556 S
C190 H160 0.950 . S
C190 C189 1.533 . S
C190 C191 1.415 . S
C191 H161 0.950 . S
C191 C186 1.363 . S
C191 C190 1.415 . S
H192 C189 0.994 1_554 S
H193 C174 0.913 . S
H194 C212 0.947 . S
H195 C214 0.951 1_556 S
H196 C216 0.950 . S
H197 C217 0.950 . S
H198 C219 0.950 . S
H199 C222 0.950 . S
H200 C223 0.950 . S
H201 C225 0.950 . S
H202 C226 0.950 . S
H203 C227 0.951 . S
H204 C229 0.951 . S
H205 C231 0.950 . S
H206 C232 0.950 . S
H207 C234 0.950 . S
H208 C237 0.950 . S
H209 C238 0.950 . S
H210 C240 0.950 . S
H211 C241 0.950 . S
C212 H194 0.947 . S
C212 C213 1.368 1_556 S
C212 C214 1.389 1_556 S
C213 C212 1.368 1_554 S
C213 C217 1.385 . S
C214 H195 0.951 1_554 S
C214 C212 1.389 1_554 S
C214 C215 1.366 . S
C215 C214 1.366 . S
C215 C216 1.414 . S
C215 C218 1.499 . S
C216 H196 0.950 . S
C216 C215 1.414 . S
C216 C217 1.374 . S
C217 H197 0.950 . S
C217 C213 1.385 . S
C217 C216 1.374 . S
C218 C215 1.499 . S
C218 C219 1.373 . S
C218 C220 1.389 . S
C219 H198 0.950 . S
C219 C218 1.373 . S
C219 C235 1.377 . S
C220 C218 1.389 . S
C220 C221 1.552 . S
C220 C234 1.377 . S
C221 C220 1.552 . S
C221 C222 1.406 . S
C221 C226 1.330 1_554 S
C222 H199 0.950 . S
C222 C221 1.406 . S
C222 C223 1.334 1_554 S
C223 H200 0.950 . S
C223 C222 1.334 1_556 S
C223 C224 1.287 . S
C224 C223 1.287 . S
C224 C225 1.524 . S
C224 H243 0.913 . S
C225 H201 0.950 . S
C225 C224 1.524 . S
C225 C226 1.415 . S
C226 H202 0.950 . S
C226 C221 1.330 1_556 S
C226 C225 1.415 . S
C227 H203 0.951 . S
C227 C228 1.366 . S
C227 C229 1.388 . S
C228 C227 1.366 . S
C228 C232 1.385 . S
C229 H204 0.951 . S
C229 C227 1.388 . S
C229 C230 1.366 . S
C230 C229 1.366 . S
C230 C231 1.414 . S
C230 C233 1.499 . S
C231 H205 0.950 . S
C231 C230 1.414 . S
C231 C232 1.374 . S
C232 H206 0.950 . S
C232 C228 1.385 . S
C232 C231 1.374 . S
C233 C230 1.499 . S
C233 C234 1.373 . S
C233 C235 1.389 . S
C234 H207 0.950 . S
C234 C220 1.377 . S
C234 C233 1.373 . S
C235 C219 1.377 . S
C235 C233 1.389 . S
C235 C236 1.524 . S
C236 C235 1.524 . S
C236 C237 1.397 . S
C236 C241 1.363 . S
C237 H208 0.950 . S
C237 C236 1.397 . S
C237 C238 1.334 . S
C238 H209 0.950 . S
C238 C237 1.334 . S
C238 C239 1.287 . S
C239 C238 1.287 . S
C239 C240 1.524 . S
C239 H242 0.999 . S
C240 H210 0.950 . S
C240 C239 1.524 . S
C240 C241 1.415 . S
C241 H211 0.950 . S
C241 C236 1.363 . S
C241 C240 1.415 . S
H242 C239 0.999 . S
H243 C224 0.913 . S
H244 C262 0.951 . S
H245 C264 0.951 . S
H246 C266 0.950 . S
H247 C267 0.950 . S
H248 C269 0.950 . S
H249 C272 0.950 . S
H250 C273 0.950 . S
H251 C275 0.950 . S
H252 C276 0.966 . S
H253 C277 0.951 . S
H254 C279 0.951 . S
H255 C281 0.950 . S
H256 C282 0.950 . S
H257 C284 0.950 . S
H258 C287 0.950 . S
H259 C288 0.950 . S
H260 C290 0.950 . S
H261 C291 0.950 . S
C262 H244 0.951 . S
C262 C263 1.366 . S
C262 C264 1.388 . S
C263 C262 1.366 . S
C263 C267 1.385 . S
C264 H245 0.951 . S
C264 C262 1.388 . S
C264 C265 1.366 . S
C265 C264 1.366 . S
C265 C266 1.414 . S
C265 C268 1.499 . S
C266 H246 0.950 . S
C266 C265 1.414 . S
C266 C267 1.374 . S
C267 H247 0.950 . S
C267 C263 1.385 . S
C267 C266 1.374 . S
C268 C265 1.499 . S
C268 C269 1.373 . S
C268 C270 1.389 . S
C269 H248 0.950 . S
C269 C268 1.373 . S
C269 C285 1.377 . S
C270 C268 1.389 . S
C270 C271 1.524 . S
C270 C284 1.377 . S
C271 C270 1.524 . S
C271 C272 1.398 1_556 S
C271 C276 1.361 . S
C272 H249 0.950 . S
C272 C271 1.398 1_554 S
C272 C273 1.334 . S
C273 H250 0.950 . S
C273 C272 1.334 . S
C273 C274 1.287 . S
C274 C273 1.287 . S
C274 C275 1.524 . S
C274 H293 0.913 . S
C275 H251 0.950 . S
C275 C274 1.524 . S
C275 C276 1.402 1_554 S
C276 H252 0.966 . S
C276 C271 1.361 . S
C276 C275 1.402 1_556 S
C277 H253 0.951 . S
C277 C278 1.366 . S
C277 C279 1.388 . S
C278 C277 1.366 . S
C278 C282 1.385 . S
C279 H254 0.951 . S
C279 C277 1.388 . S
C279 C280 1.366 . S
C280 C279 1.366 . S
C280 C281 1.414 . S
C280 C283 1.499 . S
C281 H255 0.950 . S
C281 C280 1.414 . S
C281 C282 1.374 . S
C282 H256 0.950 . S
C282 C278 1.385 . S
C282 C281 1.374 . S
C283 C280 1.499 . S
C283 C284 1.373 . S
C283 C285 1.389 . S
C284 H257 0.950 . S
C284 C270 1.377 . S
C284 C283 1.373 . S
C285 C269 1.377 . S
C285 C283 1.389 . S
C285 C286 1.524 . S
C286 C285 1.524 . S
C286 C287 1.397 . S
C286 C291 1.363 . S
C287 H258 0.950 . S
C287 C286 1.397 . S
C287 C288 1.334 . S
C288 H259 0.950 . S
C288 C287 1.334 . S
C288 C289 1.287 . S
C289 C288 1.287 . S
C289 C290 1.524 . S
C289 H292 0.999 . S
C290 H260 0.950 . S
C290 C289 1.524 . S
C290 C291 1.415 . S
C291 H261 0.950 . S
C291 C286 1.363 . S
C291 C290 1.415 . S
H292 C289 0.999 . S
H293 C274 0.913 . S
H294 C312 0.951 . S
H295 C314 0.951 . S
H296 C316 0.950 . S
H297 C317 0.950 . S
H298 C319 0.950 . S
H299 C322 0.950 . S
H300 C323 0.950 . S
H301 C325 0.950 . S
H302 C326 0.950 . S
H303 C327 0.951 . S
H304 C329 0.951 . S
H305 C331 0.950 . S
H306 C332 0.950 . S
H307 C334 0.950 . S
H308 C337 0.950 . S
H309 C338 0.950 . S
H310 C340 0.950 . S
H311 C341 0.950 . S
C312 H294 0.951 . S
C312 C313 1.366 . S
C312 C314 1.388 . S
C313 C312 1.366 . S
C313 C317 1.385 . S
C314 H295 0.951 . S
C314 C312 1.388 . S
C314 C315 1.366 . S
C315 C314 1.366 . S
C315 C316 1.414 . S
C315 C318 1.499 . S
C316 H296 0.950 . S
C316 C315 1.414 . S
C316 C317 1.374 . S
C317 H297 0.950 . S
C317 C313 1.385 . S
C317 C316 1.374 . S
C318 C315 1.499 . S
C318 C319 1.373 . S
C318 C320 1.389 . S
C319 H298 0.950 . S
C319 C318 1.373 . S
C319 C335 1.377 . S
C320 C318 1.389 . S
C320 C321 1.524 . S
C320 C334 1.377 . S
C321 C320 1.524 . S
C321 C322 1.397 . S
C321 C326 1.363 . S
C322 H299 0.950 . S
C322 C321 1.397 . S
C322 C323 1.334 . S
C323 H300 0.950 . S
C323 C322 1.334 . S
C323 C324 1.287 . S
C324 C323 1.287 . S
C324 C325 1.524 . S
C324 H343 0.913 . S
C325 H301 0.950 . S
C325 C324 1.524 . S
C325 C326 1.415 . S
C326 H302 0.950 . S
C326 C321 1.363 . S
C326 C325 1.415 . S
C327 H303 0.951 . S
C327 C328 1.366 . S
C327 C329 1.388 . S
C328 C327 1.366 . S
C328 C332 1.385 . S
C329 H304 0.951 . S
C329 C327 1.388 . S
C329 C330 1.366 . S
C330 C329 1.366 . S
C330 C331 1.414 . S
C330 C333 1.499 . S
C331 H305 0.950 . S
C331 C330 1.414 . S
C331 C332 1.374 . S
C332 H306 0.950 . S
C332 C328 1.385 . S
C332 C331 1.374 . S
C333 C330 1.499 . S
C333 C334 1.373 . S
C333 C335 1.389 . S
C334 H307 0.950 . S
C334 C320 1.377 . S
C334 C333 1.373 . S
C335 C319 1.377 . S
C335 C333 1.389 . S
C335 C336 1.524 . S
C336 C335 1.524 . S
C336 C337 1.397 . S
C336 C341 1.363 . S
C337 H308 0.950 . S
C337 C336 1.397 . S
C337 C338 1.334 . S
C338 H309 0.950 . S
C338 C337 1.334 . S
C338 C339 1.287 . S
C339 C338 1.287 . S
C339 C340 1.524 . S
C339 H342 0.999 . S
C340 H310 0.950 . S
C340 C339 1.524 . S
C340 C341 1.415 . S
C341 H311 0.950 . S
C341 C336 1.363 . S
C341 C340 1.415 . S
H342 C339 0.999 . S
H343 C324 0.913 . S
H344 C362 0.951 . S
H345 C364 0.951 . S
H346 C366 0.950 . S
H347 C367 0.950 . S
H348 C369 0.950 . S
H349 C372 0.950 . S
H350 C373 0.950 . S
H351 C375 0.950 . S
H352 C376 0.950 . S
H353 C377 0.951 . S
H354 C379 0.951 . S
H355 C381 0.950 . S
H356 C382 0.950 . S
H357 C384 0.950 . S
H358 C387 0.950 . S
H359 C388 0.950 . S
H360 C390 0.950 . S
H361 C391 0.950 . S
C362 H344 0.951 . S
C362 C363 1.366 . S
C362 C364 1.388 . S
C363 C362 1.366 . S
C363 C367 1.385 . S
C364 H345 0.951 . S
C364 C362 1.388 . S
C364 C365 1.366 . S
C365 C364 1.366 . S
C365 C366 1.414 . S
C365 C368 1.499 . S
C366 H346 0.950 . S
C366 C365 1.414 . S
C366 C367 1.374 . S
C367 H347 0.950 . S
C367 C363 1.385 . S
C367 C366 1.374 . S
C368 C365 1.499 . S
C368 C369 1.373 . S
C368 C370 1.389 . S
C369 H348 0.950 . S
C369 C368 1.373 . S
C369 C385 1.377 . S
C370 C368 1.389 . S
C370 C371 1.524 . S
C370 C384 1.377 . S
C371 C370 1.524 . S
C371 C372 1.397 . S
C371 C376 1.363 . S
C372 H349 0.950 . S
C372 C371 1.397 . S
C372 C373 1.334 . S
C373 H350 0.950 . S
C373 C372 1.334 . S
C373 C374 1.287 . S
C374 C373 1.287 . S
C374 C375 1.524 . S
C374 H393 0.913 . S
C375 H351 0.950 . S
C375 C374 1.524 . S
C375 C376 1.415 . S
C376 H352 0.950 . S
C376 C371 1.363 . S
C376 C375 1.415 . S
C377 H353 0.951 . S
C377 C378 1.366 . S
C377 C379 1.388 . S
C378 C377 1.366 . S
C378 C382 1.385 . S
C379 H354 0.951 . S
C379 C377 1.388 . S
C379 C380 1.366 . S
C380 C379 1.366 . S
C380 C381 1.414 . S
C380 C383 1.499 . S
C381 H355 0.950 . S
C381 C380 1.414 . S
C381 C382 1.374 . S
C382 H356 0.950 . S
C382 C378 1.385 . S
C382 C381 1.374 . S
C383 C380 1.499 . S
C383 C384 1.373 . S
C383 C385 1.389 . S
C384 H357 0.950 . S
C384 C370 1.377 . S
C384 C383 1.373 . S
C385 C369 1.377 . S
C385 C383 1.389 . S
C385 C386 1.524 . S
C386 C385 1.524 . S
C386 C387 1.397 . S
C386 C391 1.363 . S
C387 H358 0.950 . S
C387 C386 1.397 . S
C387 C388 1.334 . S
C388 H359 0.950 . S
C388 C387 1.334 . S
C388 C389 1.287 . S
C389 C388 1.287 . S
C389 C390 1.524 . S
C389 H392 0.999 . S
C390 H360 0.950 . S
C390 C389 1.524 . S
C390 C391 1.415 . S
C391 H361 0.950 . S
C391 C386 1.363 . S
C391 C390 1.415 . S
H392 C389 0.999 . S
H393 C374 0.913 . S
H394 C412 0.951 . S
H395 C414 0.951 . S
H396 C416 0.950 . S
H397 C417 0.950 . S
H398 C419 0.950 . S
H399 C422 0.950 . S
H400 C423 0.950 . S
H401 C425 0.950 . S
H402 C426 0.950 . S
H403 C427 0.951 . S
H404 C429 0.951 . S
H405 C431 0.950 . S
H406 C432 0.950 . S
H407 C434 0.950 . S
H408 C437 0.950 . S
H409 C438 0.950 . S
H410 C440 0.950 . S
H411 C441 0.950 . S
C412 H394 0.951 . S
C412 C413 1.366 . S
C412 C414 1.388 . S
C413 C412 1.366 . S
C413 C417 1.385 . S
C414 H395 0.951 . S
C414 C412 1.388 . S
C414 C415 1.366 . S
C415 C414 1.366 . S
C415 C416 1.414 . S
C415 C418 1.499 . S
C416 H396 0.950 . S
C416 C415 1.414 . S
C416 C417 1.374 . S
C417 H397 0.950 . S
C417 C413 1.385 . S
C417 C416 1.374 . S
C418 C415 1.499 . S
C418 C419 1.373 . S
C418 C420 1.389 . S
C419 H398 0.950 . S
C419 C418 1.373 . S
C419 C435 1.377 . S
C420 C418 1.389 . S
C420 C421 1.524 . S
C420 C434 1.377 . S
C421 C420 1.524 . S
C421 C422 1.397 . S
C421 C426 1.363 . S
C422 H399 0.950 . S
C422 C421 1.397 . S
C422 C423 1.334 . S
C423 H400 0.950 . S
C423 C422 1.334 . S
C423 C424 1.287 . S
C424 C423 1.287 . S
C424 C425 1.524 . S
C424 H443 0.913 . S
C425 H401 0.950 . S
C425 C424 1.524 . S
C425 C426 1.415 . S
C426 H402 0.950 . S
C426 C421 1.363 . S
C426 C425 1.415 . S
C427 H403 0.951 . S
C427 C428 1.366 . S
C427 C429 1.388 . S
C428 C427 1.366 . S
C428 C432 1.385 . S
C429 H404 0.951 . S
C429 C427 1.388 . S
C429 C430 1.366 . S
C430 C429 1.366 . S
C430 C431 1.414 . S
C430 C433 1.499 . S
C431 H405 0.950 . S
C431 C430 1.414 . S
C431 C432 1.374 . S
C432 H406 0.950 . S
C432 C428 1.385 . S
C432 C431 1.374 . S
C433 C430 1.499 . S
C433 C434 1.373 . S
C433 C435 1.389 . S
C434 H407 0.950 . S
C434 C420 1.377 . S
C434 C433 1.373 . S
C435 C419 1.377 . S
C435 C433 1.389 . S
C435 C436 1.524 . S
C436 C435 1.524 . S
C436 C437 1.397 . S
C436 C441 1.363 . S
C437 H408 0.950 . S
C437 C436 1.397 . S
C437 C438 1.334 . S
C438 H409 0.950 . S
C438 C437 1.334 . S
C438 C439 1.287 . S
C439 C438 1.287 . S
C439 C440 1.524 . S
C439 H442 0.999 . S
C440 H410 0.950 . S
C440 C439 1.524 . S
C440 C441 1.415 . S
C441 H411 0.950 . S
C441 C436 1.363 . S
C441 C440 1.415 . S
H442 C439 0.999 . S
H443 C424 0.913 . S
H444 C462 0.951 . S
H445 C464 0.951 . S
H446 C466 0.950 . S
H447 C467 0.950 . S
H448 C469 0.950 . S
H449 C472 0.950 . S
H450 C473 0.950 . S
H451 C475 0.950 . S
H452 C476 0.950 . S
H453 C477 0.951 . S
H454 C479 0.951 . S
H455 C481 0.950 . S
H456 C482 0.950 . S
H457 C484 0.950 . S
H458 C487 0.950 . S
H459 C488 0.950 . S
H460 C490 0.950 . S
H461 C491 0.950 . S
C462 H444 0.951 . S
C462 C463 1.366 . S
C462 C464 1.388 . S
C463 C462 1.366 . S
C463 C467 1.385 . S
C464 H445 0.951 . S
C464 C462 1.388 . S
C464 C465 1.366 . S
C465 C464 1.366 . S
C465 C466 1.414 . S
C465 C468 1.499 . S
C466 H446 0.950 . S
C466 C465 1.414 . S
C466 C467 1.374 . S
C467 H447 0.950 . S
C467 C463 1.385 . S
C467 C466 1.374 . S
C468 C465 1.499 . S
C468 C469 1.373 . S
C468 C470 1.389 . S
C469 H448 0.950 . S
C469 C468 1.373 . S
C469 C485 1.377 . S
C470 C468 1.389 . S
C470 C471 1.524 . S
C470 C484 1.377 . S
C471 C470 1.524 . S
C471 C472 1.397 . S
C471 C476 1.363 . S
C472 H449 0.950 . S
C472 C471 1.397 . S
C472 C473 1.334 . S
C473 H450 0.950 . S
C473 C472 1.334 . S
C473 C474 1.287 . S
C474 C473 1.287 . S
C474 C475 1.524 . S
C474 H493 0.913 . S
C475 H451 0.950 . S
C475 C474 1.524 . S
C475 C476 1.415 . S
C476 H452 0.950 . S
C476 C471 1.363 . S
C476 C475 1.415 . S
C477 H453 0.951 . S
C477 C478 1.366 . S
C477 C479 1.388 . S
C478 C477 1.366 . S
C478 C482 1.385 . S
C479 H454 0.951 . S
C479 C477 1.388 . S
C479 C480 1.366 . S
C480 C479 1.366 . S
C480 C481 1.414 . S
C480 C483 1.499 . S
C481 H455 0.950 . S
C481 C480 1.414 . S
C481 C482 1.374 . S
C482 H456 0.950 . S
C482 C478 1.385 . S
C482 C481 1.374 . S
C483 C480 1.499 . S
C483 C484 1.373 . S
C483 C485 1.389 . S
C484 H457 0.950 . S
C484 C470 1.377 . S
C484 C483 1.373 . S
C485 C469 1.377 . S
C485 C483 1.389 . S
C485 C486 1.524 . S
C486 C485 1.524 . S
C486 C487 1.397 . S
C486 C491 1.363 . S
C487 H458 0.950 . S
C487 C486 1.397 . S
C487 C488 1.334 . S
C488 H459 0.950 . S
C488 C487 1.334 . S
C488 C489 1.287 . S
C489 C488 1.287 . S
C489 C490 1.524 . S
C489 H492 0.999 . S
C490 H460 0.950 . S
C490 C489 1.524 . S
C490 C491 1.415 . S
C491 H461 0.950 . S
C491 C486 1.363 . S
C491 C490 1.415 . S
H492 C489 0.999 . S
H493 C474 0.913 . S
H494 C512 0.951 . S
H495 C514 0.951 . S
H496 C516 0.950 1_655 S
H497 C517 0.950 1_655 S
H498 C519 0.950 . S
H499 C522 0.950 . S
H500 C523 0.950 1_565 S
H501 C525 0.950 . S
H502 C526 0.950 . S
H503 C527 0.951 . S
H504 C529 0.951 . S
H505 C531 0.950 . S
H506 C532 0.950 . S
H507 C534 0.950 . S
H508 C537 0.950 . S
H509 C538 0.950 . S
H510 C540 0.950 . S
H511 C541 0.950 . S
C512 H494 0.951 . S
C512 C513 1.366 . S
C512 C514 1.388 . S
C513 C512 1.366 . S
C513 C517 1.385 1_545 S
C514 H495 0.951 . S
C514 C512 1.388 . S
C514 C515 1.366 . S
C515 C514 1.366 . S
C515 C516 1.414 1_545 S
C515 C518 1.499 . S
C516 H496 0.950 1_455 S
C516 C515 1.414 1_565 S
C516 C517 1.374 . S
C517 H497 0.950 1_455 S
C517 C513 1.385 1_565 S
C517 C516 1.374 . S
C518 C515 1.499 . S
C518 C519 1.373 1_445 S
C518 C520 1.389 . S
C519 H498 0.950 . S
C519 C518 1.373 1_665 S
C519 C535 1.376 1_565 S
C520 C518 1.389 . S
C520 C521 1.524 . S
C520 C534 1.377 . S
C521 C520 1.524 . S
C521 C522 1.397 1_545 S
C521 C526 1.363 . S
C522 H499 0.950 . S
C522 C521 1.397 1_565 S
C522 C523 1.334 1_565 S
C523 H500 0.950 1_545 S
C523 C522 1.334 1_545 S
C523 C524 1.287 . S
C524 C523 1.287 . S
C524 C525 1.524 . S
C524 H543 0.913 . S
C525 H501 0.950 . S
C525 C524 1.524 . S
C525 C526 1.415 . S
C526 H502 0.950 . S
C526 C521 1.363 . S
C526 C525 1.415 . S
C527 H503 0.951 . S
C527 C528 1.366 1_665 S
C527 C529 1.388 . S
C528 C527 1.366 1_445 S
C528 C532 1.385 . S
C529 H504 0.951 . S
C529 C527 1.388 . S
C529 C530 1.366 1_665 S
C530 C529 1.366 1_445 S
C530 C531 1.414 . S
C530 C533 1.499 . S
C531 H505 0.950 . S
C531 C530 1.414 . S
C531 C532 1.374 . S
C532 H506 0.950 . S
C532 C528 1.385 . S
C532 C531 1.374 . S
C533 C530 1.499 . S
C533 C534 1.373 . S
C533 C535 1.393 1_455 S
C534 H507 0.950 . S
C534 C520 1.377 . S
C534 C533 1.373 . S
C535 C519 1.376 1_545 S
C535 C533 1.393 1_655 S
C535 C536 1.522 1_545 S
C536 C535 1.522 1_565 S
C536 C537 1.397 1_565 S
C536 C541 1.363 . S
C537 H508 0.950 . S
C537 C536 1.397 1_545 S
C537 C538 1.334 . S
C538 H509 0.950 . S
C538 C537 1.334 . S
C538 C539 1.287 1_545 S
C539 C538 1.287 1_565 S
C539 C540 1.524 . S
C539 H542 0.999 . S
C540 H510 0.950 . S
C540 C539 1.524 . S
C540 C541 1.415 . S
C541 H511 0.950 . S
C541 C536 1.363 . S
C541 C540 1.415 . S
H542 C539 0.999 . S
H543 C524 0.913 . S
H544 C562 0.951 . S
H545 C564 0.951 . S
H546 C566 0.950 . S
H547 C567 0.950 . S
H548 C569 0.950 . S
H549 C572 0.950 . S
H550 C573 0.950 . S
H551 C575 0.950 . S
H552 C576 0.950 . S
H553 C577 0.951 . S
H554 C579 0.951 . S
H555 C581 0.950 . S
H556 C582 0.950 . S
H557 C584 0.950 1_565 S
H558 C587 0.950 . S
H559 C588 0.950 . S
H560 C590 0.950 . S
H561 C591 0.950 . S
C562 H544 0.951 . S
C562 C563 1.366 1_565 S
C562 C564 1.388 . S
C563 C562 1.366 1_545 S
C563 C567 1.385 1_455 S
C564 H545 0.951 . S
C564 C562 1.388 . S
C564 C565 1.366 1_565 S
C565 C564 1.366 1_545 S
C565 C566 1.414 1_455 S
C565 C568 1.499 . S
C566 H546 0.950 . S
C566 C565 1.414 1_655 S
C566 C567 1.374 . S
C567 H547 0.950 . S
C567 C563 1.385 1_655 S
C567 C566 1.374 . S
C568 C565 1.499 . S
C568 C569 1.373 1_455 S
C568 C570 1.389 . S
C569 H548 0.950 . S
C569 C568 1.373 1_655 S
C569 C585 1.377 . S
C570 C568 1.389 . S
C570 C571 1.524 1_545 S
C570 C584 1.377 . S
C571 C570 1.524 1_565 S
C571 C572 1.397 1_565 S
C571 C576 1.363 . S
C572 H549 0.950 . S
C572 C571 1.397 1_545 S
C572 C573 1.334 . S
C573 H550 0.950 . S
C573 C572 1.334 . S
C573 C574 1.287 1_545 S
C574 C573 1.287 1_565 S
C574 C575 1.524 . S
C574 H593 0.913 . S
C575 H551 0.950 . S
C575 C574 1.524 . S
C575 C576 1.415 . S
C576 H552 0.950 . S
C576 C571 1.363 . S
C576 C575 1.415 . S
C577 H553 0.951 . S
C577 C578 1.366 1_655 S
C577 C579 1.388 . S
C578 C577 1.366 1_455 S
C578 C582 1.385 1_545 S
C579 H554 0.951 . S
C579 C577 1.388 . S
C579 C580 1.366 1_655 S
C580 C579 1.366 1_455 S
C580 C581 1.414 1_545 S
C580 C583 1.499 . S
C581 H555 0.950 . S
C581 C580 1.414 1_565 S
C581 C582 1.374 . S
C582 H556 0.950 . S
C582 C578 1.385 1_565 S
C582 C581 1.374 . S
C583 C580 1.499 . S
C583 C584 1.373 . S
C583 C585 1.389 1_455 S
C584 H557 0.950 1_545 S
C584 C570 1.377 . S
C584 C583 1.373 . S
C585 C569 1.377 . S
C585 C583 1.389 1_655 S
C585 C586 1.524 . S
C586 C585 1.524 . S
C586 C587 1.397 1_545 S
C586 C591 1.363 . S
C587 H558 0.950 . S
C587 C586 1.397 1_565 S
C587 C588 1.334 . S
C588 H559 0.950 . S
C588 C587 1.334 . S
C588 C589 1.287 1_565 S
C589 C588 1.287 1_545 S
C589 C590 1.524 . S
C589 H592 0.999 . S
C590 H560 0.950 . S
C590 C589 1.524 . S
C590 C591 1.415 . S
C591 H561 0.950 . S
C591 C586 1.363 . S
C591 C590 1.415 . S
H592 C589 0.999 . S
H593 C574 0.913 . S
H594 C612 0.951 . S
H595 C614 0.951 . S
H596 C616 0.950 . S
H597 C617 0.950 . S
H598 C619 0.950 . S
H599 C622 0.950 . S
H600 C623 0.950 . S
H601 C625 0.950 . S
H602 C626 0.950 . S
H603 C627 0.951 . S
H604 C629 0.951 . S
H605 C631 0.950 . S
H606 C632 0.950 . S
H607 C634 0.950 . S
H608 C637 0.950 . S
H609 C638 0.950 . S
H610 C640 0.950 . S
H611 C641 0.950 . S
C612 H594 0.951 . S
C612 C613 1.366 . S
C612 C614 1.388 . S
C613 C612 1.366 . S
C613 C617 1.385 . S
C614 H595 0.951 . S
C614 C612 1.388 . S
C614 C615 1.366 . S
C615 C614 1.366 . S
C615 C616 1.414 . S
C615 C618 1.499 . S
C616 H596 0.950 . S
C616 C615 1.414 . S
C616 C617 1.374 . S
C617 H597 0.950 . S
C617 C613 1.385 . S
C617 C616 1.374 . S
C618 C615 1.499 . S
C618 C619 1.373 . S
C618 C620 1.389 . S
C619 H598 0.950 . S
C619 C618 1.373 . S
C619 C635 1.377 . S
C620 C618 1.389 . S
C620 C621 1.524 . S
C620 C634 1.377 . S
C621 C620 1.524 . S
C621 C622 1.397 . S
C621 C626 1.363 . S
C622 H599 0.950 . S
C622 C621 1.397 . S
C622 C623 1.334 . S
C623 H600 0.950 . S
C623 C622 1.334 . S
C623 C624 1.287 . S
C624 C623 1.287 . S
C624 C625 1.524 . S
C624 H643 0.913 . S
C625 H601 0.950 . S
C625 C624 1.524 . S
C625 C626 1.415 . S
C626 H602 0.950 . S
C626 C621 1.363 . S
C626 C625 1.415 . S
C627 H603 0.951 . S
C627 C628 1.366 . S
C627 C629 1.388 . S
C628 C627 1.366 . S
C628 C632 1.385 . S
C629 H604 0.951 . S
C629 C627 1.388 . S
C629 C630 1.366 . S
C630 C629 1.366 . S
C630 C631 1.414 . S
C630 C633 1.499 . S
C631 H605 0.950 . S
C631 C630 1.414 . S
C631 C632 1.374 . S
C632 H606 0.950 . S
C632 C628 1.385 . S
C632 C631 1.374 . S
C633 C630 1.499 . S
C633 C634 1.373 . S
C633 C635 1.389 . S
C634 H607 0.950 . S
C634 C620 1.377 . S
C634 C633 1.373 . S
C635 C619 1.377 . S
C635 C633 1.389 . S
C635 C636 1.524 . S
C636 C635 1.524 . S
C636 C637 1.397 . S
C636 C641 1.363 . S
C637 H608 0.950 . S
C637 C636 1.397 . S
C637 C638 1.334 . S
C638 H609 0.950 . S
C638 C637 1.334 . S
C638 C639 1.287 . S
C639 C638 1.287 . S
C639 C640 1.524 . S
C639 H642 0.999 . S
C640 H610 0.950 . S
C640 C639 1.524 . S
C640 C641 1.415 . S
C641 H611 0.950 . S
C641 C636 1.363 . S
C641 C640 1.415 . S
H642 C639 0.999 . S
H643 C624 0.913 . S
H644 C662 0.951 . S
H645 C664 0.951 . S
H646 C666 0.950 . S
H647 C667 0.950 . S
H648 C669 0.950 . S
H649 C672 0.950 . S
H650 C673 0.950 . S
H651 C675 0.950 . S
H652 C676 0.950 . S
H653 C677 0.951 . S
H654 C679 0.951 . S
H655 C681 0.950 . S
H656 C682 0.950 . S
H657 C684 0.950 . S
H658 C687 0.950 . S
H659 C688 0.950 . S
H660 C690 0.950 . S
H661 C691 0.950 . S
C662 H644 0.951 . S
C662 C663 1.366 . S
C662 C664 1.388 . S
C663 C662 1.366 . S
C663 C667 1.385 . S
C664 H645 0.951 . S
C664 C662 1.388 . S
C664 C665 1.366 . S
C665 C664 1.366 . S
C665 C666 1.414 . S
C665 C668 1.499 . S
C666 H646 0.950 . S
C666 C665 1.414 . S
C666 C667 1.374 . S
C667 H647 0.950 . S
C667 C663 1.385 . S
C667 C666 1.374 . S
C668 C665 1.499 . S
C668 C669 1.373 . S
C668 C670 1.389 . S
C669 H648 0.950 . S
C669 C668 1.373 . S
C669 C685 1.377 . S
C670 C668 1.389 . S
C670 C671 1.524 . S
C670 C684 1.377 . S
C671 C670 1.524 . S
C671 C672 1.397 . S
C671 C676 1.363 . S
C672 H649 0.950 . S
C672 C671 1.397 . S
C672 C673 1.334 . S
C673 H650 0.950 . S
C673 C672 1.334 . S
C673 C674 1.287 . S
C674 C673 1.287 . S
C674 C675 1.524 . S
C674 H693 0.913 . S
C675 H651 0.950 . S
C675 C674 1.524 . S
C675 C676 1.415 . S
C676 H652 0.950 . S
C676 C671 1.363 . S
C676 C675 1.415 . S
C677 H653 0.951 . S
C677 C678 1.366 . S
C677 C679 1.388 . S
C678 C677 1.366 . S
C678 C682 1.385 . S
C679 H654 0.951 . S
C679 C677 1.388 . S
C679 C680 1.366 . S
C680 C679 1.366 . S
C680 C681 1.414 . S
C680 C683 1.499 . S
C681 H655 0.950 . S
C681 C680 1.414 . S
C681 C682 1.374 . S
C682 H656 0.950 . S
C682 C678 1.385 . S
C682 C681 1.374 . S
C683 C680 1.499 . S
C683 C684 1.373 . S
C683 C685 1.389 . S
C684 H657 0.950 . S
C684 C670 1.377 . S
C684 C683 1.373 . S
C685 C669 1.377 . S
C685 C683 1.389 . S
C685 C686 1.524 . S
C686 C685 1.524 . S
C686 C687 1.397 . S
C686 C691 1.363 . S
C687 H658 0.950 . S
C687 C686 1.397 . S
C687 C688 1.334 . S
C688 H659 0.950 . S
C688 C687 1.334 . S
C688 C689 1.287 . S
C689 C688 1.287 . S
C689 C690 1.524 . S
C689 H692 0.999 . S
C690 H660 0.950 . S
C690 C689 1.524 . S
C690 C691 1.415 . S
C691 H661 0.950 . S
C691 C686 1.363 . S
C691 C690 1.415 . S
H692 C689 0.999 . S
H693 C674 0.913 . S
C128 C88 1.527 . S
C113 C21 1.526 . S
C163 C19 1.372 1_556 S
C178 C74 1.349 . S
C213 C18 1.337 . S
C228 C86 1.328 . S
C263 C20 1.507 . S
C278 C76 1.512 . S
C313 C44 1.526 . S
C328 C64 1.527 . S
C363 C42 1.372 . S
C378 C50 1.350 . S
C428 C62 1.327 . S
C413 C41 1.337 . S
C478 C52 1.511 . S
C463 C43 1.507 . S
C513 C16 1.531 . S
C528 C55 1.527 . S
C563 C17 1.489 . S
C578 C67 1.485 . S
C628 C79 1.527 . S
C613 C39 1.531 . S
C663 C40 1.489 . S
C678 C91 1.485 . S
