# Generated by pormake.
# Topology pyr, (3,6)-cn, num edge types: 1
# Building blocks:
#     Node 0, Type 0, BuildingBlock: PAMTOO_clean_linker_0, # of connection points: 3
#     Node 1, Type 0, BuildingBlock: PAMTOO_clean_linker_0, # of connection points: 3
#     Node 2, Type 0, BuildingBlock: PAMTOO_clean_linker_0, # of connection points: 3
#     Node 3, Type 0, BuildingBlock: PAMTOO_clean_linker_0, # of connection points: 3
#     Node 4, Type 0, BuildingBlock: PAMTOO_clean_linker_0, # of connection points: 3
#     Node 5, Type 0, BuildingBlock: PAMTOO_clean_linker_0, # of connection points: 3
#     Node 6, Type 0, BuildingBlock: PAMTOO_clean_linker_0, # of connection points: 3
#     Node 7, Type 0, BuildingBlock: PAMTOO_clean_linker_0, # of connection points: 3
#     Node 8, Type 1, BuildingBlock: PAMTUU_clean_sbu_0, # of connection points: 6
#     Node 9, Type 1, BuildingBlock: PAMTUU_clean_sbu_0, # of connection points: 6
#     Node 10, Type 1, BuildingBlock: PAMTUU_clean_sbu_0, # of connection points: 6
#     Node 11, Type 1, BuildingBlock: PAMTUU_clean_sbu_0, # of connection points: 6
#     Edge 12, Type (0, 1), BuildingBlock: CIFDUS_clean_linker_0, # of connection points: 2
#     Edge 13, Type (0, 1), BuildingBlock: CIFDUS_clean_linker_0, # of connection points: 2
#     Edge 14, Type (0, 1), BuildingBlock: CIFDUS_clean_linker_0, # of connection points: 2
#     Edge 15, Type (0, 1), BuildingBlock: CIFDUS_clean_linker_0, # of connection points: 2
#     Edge 16, Type (0, 1), BuildingBlock: CIFDUS_clean_linker_0, # of connection points: 2
#     Edge 17, Type (0, 1), BuildingBlock: CIFDUS_clean_linker_0, # of connection points: 2
#     Edge 18, Type (0, 1), BuildingBlock: CIFDUS_clean_linker_0, # of connection points: 2
#     Edge 19, Type (0, 1), BuildingBlock: CIFDUS_clean_linker_0, # of connection points: 2
#     Edge 20, Type (0, 1), BuildingBlock: CIFDUS_clean_linker_0, # of connection points: 2
#     Edge 21, Type (0, 1), BuildingBlock: CIFDUS_clean_linker_0, # of connection points: 2
#     Edge 22, Type (0, 1), BuildingBlock: CIFDUS_clean_linker_0, # of connection points: 2
#     Edge 23, Type (0, 1), BuildingBlock: CIFDUS_clean_linker_0, # of connection points: 2
#     Edge 24, Type (0, 1), BuildingBlock: CIFDUS_clean_linker_0, # of connection points: 2
#     Edge 25, Type (0, 1), BuildingBlock: CIFDUS_clean_linker_0, # of connection points: 2
#     Edge 26, Type (0, 1), BuildingBlock: CIFDUS_clean_linker_0, # of connection points: 2
#     Edge 27, Type (0, 1), BuildingBlock: CIFDUS_clean_linker_0, # of connection points: 2
#     Edge 28, Type (0, 1), BuildingBlock: CIFDUS_clean_linker_0, # of connection points: 2
#     Edge 29, Type (0, 1), BuildingBlock: CIFDUS_clean_linker_0, # of connection points: 2
#     Edge 30, Type (0, 1), BuildingBlock: CIFDUS_clean_linker_0, # of connection points: 2
#     Edge 31, Type (0, 1), BuildingBlock: CIFDUS_clean_linker_0, # of connection points: 2
#     Edge 32, Type (0, 1), BuildingBlock: CIFDUS_clean_linker_0, # of connection points: 2
#     Edge 33, Type (0, 1), BuildingBlock: CIFDUS_clean_linker_0, # of connection points: 2
#     Edge 34, Type (0, 1), BuildingBlock: CIFDUS_clean_linker_0, # of connection points: 2
#     Edge 35, Type (0, 1), BuildingBlock: CIFDUS_clean_linker_0, # of connection points: 2
# Relax obj value: 0.199
# Max RMSD: 0.244
# Mean RMSD: 0.147
data_MOF--net-pyr--node1-PAMTUU_clean_sbu_0--node2-PAMTOO_clean_linker_0--edge1-CIFDUS_clean_linker_0
_symmetry_space_group_name_H-M    P1
_symmetry_Int_Tables_number       1
_symmetry_cell_setting            triclinic
loop_
_symmetry_equiv_pos_as_xyz
'x, y, z'
_cell_length_a     33.077748
_cell_length_b     34.688721
_cell_length_c     31.39221
_cell_angle_alpha  91.148376
_cell_angle_beta   89.500093
_cell_angle_gamma 106.80717
loop_
_atom_site_label
_atom_site_type_symbol
_atom_site_fract_x
_atom_site_fract_y
_atom_site_fract_z
_atom_type_partial_charge
H0 H 0.33416 0.3806 0.3155 0.0
H1 H 0.39369 0.2852 0.31779 0.0
H2 H 0.39234 0.3484 0.20285 0.0
H3 H 0.47646 0.3131 0.27115 0.0
C4 C 0.46334 0.30272 0.23897 0.0
O5 O 0.4199 0.29387 0.23997 0.0
H6 H 0.47645 0.32714 0.21594 0.0
C7 C 0.35272 0.36305 0.30038 0.0
C8 C 0.36169 0.36799 0.25674 0.0
C9 C 0.36183 0.33185 0.32274 0.0
C10 C 0.38663 0.31008 0.30231 0.0
C11 C 0.39941 0.31757 0.2599 0.0
C12 C 0.38596 0.34568 0.23675 0.0
H13 H 0.16828 0.84589 0.78384 0.0
H14 H 0.14235 0.7774 0.66617 0.0
H15 H 0.22136 0.74794 0.75997 0.0
H16 H 0.22684 0.77489 0.64392 0.0
C17 C 0.21775 0.74183 0.6495 0.0
O18 O 0.18983 0.73145 0.68331 0.0
H19 H 0.20145 0.72723 0.62005 0.0
C20 C 0.17032 0.82055 0.76406 0.0
C21 C 0.19497 0.79629 0.77785 0.0
C22 C 0.15182 0.8148 0.72347 0.0
C23 C 0.1565 0.78278 0.69753 0.0
C24 C 0.18208 0.75927 0.71045 0.0
C25 C 0.20128 0.76601 0.75048 0.0
H26 H 0.74954 0.3431 0.97432 0.0
H27 H 0.65658 0.32814 0.8753 0.0
H28 H 0.76318 0.4347 0.8809 0.0
H29 H 0.67833 0.44741 0.86374 0.0
C30 C 0.66594 0.42196 0.84073 0.0
O31 O 0.69323 0.39815 0.83946 0.0
H32 H 0.63449 0.40373 0.85227 0.0
C33 C 0.73781 0.35399 0.94623 0.0
C34 C 0.76133 0.39102 0.92965 0.0
C35 C 0.70062 0.33015 0.92668 0.0
C36 C 0.68492 0.3459 0.8913 0.0
C37 C 0.70698 0.38413 0.87523 0.0
C38 C 0.74529 0.40637 0.89445 0.0
H39 H 0.87836 0.76389 0.49446 0.0
H40 H 0.86965 0.65889 0.41555 0.0
H41 H 0.97338 0.76576 0.39923 0.0
H42 H 0.93163 0.72067 0.31733 0.0
C43 C 0.92374 0.68951 0.32968 0.0
O44 O 0.93792 0.6912 0.37127 0.0
H45 H 0.88878 0.67672 0.32897 0.0
C46 C 0.89127 0.7486 0.46974 0.0
C47 C 0.92914 0.7695 0.44943 0.0
C48 C 0.86932 0.70877 0.45812 0.0
C49 C 0.88557 0.68978 0.42477 0.0
C50 C 0.92265 0.71037 0.40308 0.0
C51 C 0.94433 0.75028 0.41541 0.0
H52 H 0.70915 0.86343 0.9531 0.0
H53 H 0.69568 0.81772 0.08045 0.0
H54 H 0.77717 0.7815 0.99133 0.0
H55 H 0.71314 0.72063 1.05413 0.0
C56 C 0.74176 0.7362 0.07304 0.0
O57 O 0.75061 0.77747 1.07037 0.0
H58 H 0.73494 0.72769 0.10683 0.0
C59 C 0.71515 0.84302 0.97631 0.0
C60 C 0.74384 0.82112 0.96651 0.0
C61 C 0.69791 0.84239 1.01738 0.0
C62 C 0.70789 0.81788 1.04829 0.0
C63 C 0.73647 0.79607 1.03884 0.0
C64 C 0.75433 0.79772 0.99809 0.0
H65 H 0.88198 0.23027 0.44078 0.0
H66 H 0.8719 0.35041 0.43079 0.0
H67 H 0.97099 0.32922 0.50582 0.0
H68 H 0.94727 0.42788 0.52521 0.0
C69 C 0.92312 0.39938 0.51604 0.0
O70 O 0.93682 0.38372 0.47975 0.0
H71 H 0.92071 0.37876 0.54331 0.0
C72 C 0.89338 0.26196 0.44946 0.0
C73 C 0.92919 0.27603 0.47546 0.0
C74 C 0.8724 0.28843 0.43358 0.0
C75 C 0.88784 0.32968 0.44294 0.0
C76 C 0.92318 0.34413 0.46922 0.0
C77 C 0.94399 0.31751 0.48514 0.0
H78 H 0.3588 0.75489 0.1727 0.0
H79 H 0.3591 0.65528 0.25221 0.0
H80 H 0.44825 0.7715 0.27515 0.0
H81 H 0.47984 0.69443 0.28634 0.0
C82 C 0.44979 0.67496 0.29972 0.0
O83 O 0.4203 0.69642 0.30211 0.0
H84 H 0.43798 0.64867 0.27764 0.0
C85 C 0.37219 0.74262 0.19873 0.0
C86 C 0.40549 0.76837 0.22234 0.0
C87 C 0.35515 0.70176 0.20865 0.0
C88 C 0.37203 0.68651 0.24348 0.0
C89 C 0.40596 0.71132 0.26723 0.0
C90 C 0.42285 0.75219 0.25626 0.0
H91 H 0.11969 0.33208 0.82464 0.0
H92 H 0.20537 0.45096 0.80833 0.0
H93 H 0.21958 0.3533 0.73038 0.0
H94 H 0.2968 0.40935 0.77335 0.0
C95 C 0.29033 0.43782 0.76403 0.0
O96 O 0.24997 0.42969 0.74798 0.0
H97 H 0.29319 0.45712 0.79323 0.0
C98 C 0.14663 0.35208 0.80872 0.0
C99 C 0.16803 0.33688 0.77604 0.0
C100 C 0.16011 0.39336 0.82065 0.0
C101 C 0.19482 0.41921 0.79969 0.0
C102 C 0.21638 0.40449 0.76776 0.0
C103 C 0.20295 0.36373 0.75596 0.0
Tb104 Tb 0.07887 0.06338 0.59315 0.0
Tb105 Tb 0.9907 1.03809 0.64821 0.0
C106 C 1.00854 0.97953 0.57797 0.0
C107 C 0.17675 0.12052 0.5342 0.0
C108 C 0.23775 0.18713 0.49951 0.0
C109 C 0.19926 0.16963 0.47844 0.0
C110 C 0.16917 0.13678 0.49553 0.0
C111 C 0.21507 0.13807 0.55557 0.0
C112 C 0.24531 0.17115 0.53841 0.0
C113 C 0.14631 0.08358 0.55029 0.0
O114 O 0.04484 0.10571 0.57621 0.0
O115 O 0.9794 0.06292 0.58798 0.0
O116 O 0.02143 0.10073 0.66488 0.0
O117 O 0.09011 0.1042 0.64904 0.0
O118 O 0.92466 1.01675 0.64617 0.0
O119 O 0.9574 1.03723 0.70548 0.0
O120 O 0.03281 1.01135 0.68295 0.0
O121 O 0.08229 1.01299 0.63043 0.0
O122 O 0.03656 1.01017 0.56021 0.0
O123 O 0.99156 0.98319 0.61519 0.0
C124 C 1.00383 0.09602 0.5716 0.0
O125 O 0.14511 0.07829 0.59137 0.0
O126 O 0.10857 0.07322 0.53362 0.0
C127 C 0.06201 0.11885 0.66825 0.0
C128 C 0.89382 0.98496 0.70836 0.0
C129 C 0.84206 0.91987 0.75346 0.0
C130 C 0.82775 0.95315 0.74389 0.0
C131 C 0.85349 0.98542 0.72152 0.0
C132 C 0.90774 0.95121 0.71611 0.0
C133 C 0.88201 0.91884 0.73863 0.0
C134 C 0.9211 1.02025 0.68731 0.0
C135 C 0.0641 0.99937 0.66658 0.0
H136 H 0.19284 0.18043 0.44782 0.0
H137 H 0.14038 0.12359 0.4778 0.0
H138 H 0.22202 0.12581 0.58517 0.0
H139 H 0.27466 0.18398 0.55534 0.0
H140 H 0.79749 0.9552 0.75548 0.0
H141 H 0.84233 1.01127 0.71551 0.0
H142 H 0.93878 0.95036 0.70563 0.0
H143 H 0.89372 0.8935 0.74536 0.0
Tb144 Tb 0.58405 0.07223 0.11644 0.0
Tb145 Tb 0.49903 1.04267 1.0559 0.0
C146 C 0.57647 1.00881 1.04229 0.0
C147 C 0.67053 0.12365 0.19364 0.0
C148 C 0.71557 0.18334 0.25138 0.0
C149 C 0.71345 0.14269 0.25691 0.0
C150 C 0.69116 0.1132 0.22831 0.0
C151 C 0.67222 0.16414 0.18781 0.0
C152 C 0.69491 0.19392 0.21645 0.0
C153 C 0.64774 0.09133 0.16448 0.0
O154 O 0.58924 0.12361 0.07602 0.0
O155 O 0.54199 0.09358 1.0229 0.0
O156 O 0.49341 0.09534 0.09044 0.0
O157 O 0.53774 0.09743 0.14701 0.0
O158 O 0.47265 1.02992 0.99514 0.0
O159 O 0.43281 1.02519 1.05106 0.0
O160 O 0.48598 1.00387 0.11181 0.0
O161 O 0.55412 1.00917 0.13041 0.0
O162 O 0.60071 1.04111 1.06145 0.0
O163 O 0.5353 1.00108 1.04104 0.0
C164 C 0.57261 0.12397 1.03818 0.0
O165 O 0.61015 0.0706 0.17675 0.0
O166 O 0.64917 0.09918 0.12396 0.0
C167 C 0.50786 0.1089 0.12827 0.0
C168 C 0.40663 0.98095 0.99311 0.0
C169 C 0.35609 0.91192 0.95057 0.0
C170 C 0.34088 0.94528 0.95876 0.0
C171 C 0.36598 0.97947 0.97983 0.0
C172 C 0.42131 0.94708 0.98709 0.0
C173 C 0.39622 0.91278 0.96581 0.0
C174 C 0.43414 1.0191 1.01 0.0
C175 C 0.51366 0.99002 0.13168 0.0
H176 H 0.72977 0.1337 0.28298 0.0
H177 H 0.69024 0.0821 0.23316 0.0
H178 H 0.6562 0.17266 0.16121 0.0
H179 H 0.69608 0.22504 0.21153 0.0
H180 H 0.31046 0.94593 0.94685 0.0
H181 H 0.35426 1.00541 0.98421 0.0
H182 H 0.45266 0.9477 0.99746 0.0
H183 H 0.40862 0.88744 0.96022 0.0
Tb184 Tb 0.56147 0.51044 0.54674 0.0
Tb185 Tb 0.55955 0.59425 0.5963 0.0
C186 C 0.52015 0.57121 0.50389 0.0
C187 C 0.61117 0.4374 0.50514 0.0
C188 C 0.68715 0.41591 0.50176 0.0
C189 C 0.64862 0.38789 0.48984 0.0
C190 C 0.61086 0.3986 0.49153 0.0
C191 C 0.64953 0.46544 0.51669 0.0
C192 C 0.68708 0.45485 0.515 0.0
C193 C 0.57178 0.44865 0.50982 0.0
O194 O 0.61197 0.55904 0.52108 0.0
O195 O 0.62552 0.60399 0.57722 0.0
O196 O 0.57697 0.55728 0.64416 0.0
O197 O 0.60373 0.51617 0.60146 0.0
O198 O 0.56785 0.65674 0.59587 0.0
O199 O 0.54701 0.62265 0.65248 0.0
O200 O 0.49492 0.55498 0.59835 0.0
O201 O 0.50687 0.49342 0.58845 0.0
O202 O 0.51709 0.53291 0.51005 0.0
O203 O 0.54134 0.59958 0.5304 0.0
C204 C 0.63701 0.59016 0.54118 0.0
O205 O 0.5582 0.44906 0.54882 0.0
O206 O 0.57092 0.48101 0.48995 0.0
C207 C 0.59847 0.53099 0.63933 0.0
C208 C 0.51545 0.67303 0.63773 0.0
C209 C 0.44349 0.70044 0.64851 0.0
C210 C 0.481 0.7191 0.67089 0.0
C211 C 0.51665 0.70538 0.66561 0.0
C212 C 0.4783 0.65458 0.61505 0.0
C213 C 0.44268 0.66814 0.62037 0.0
C214 C 0.55186 0.6569 0.63394 0.0
C215 C 0.48302 0.51561 0.60181 0.0
H216 H 0.64766 0.35772 0.47929 0.0
H217 H 0.58147 0.37653 0.48273 0.0
H218 H 0.65034 0.49544 0.52779 0.0
H219 H 0.71593 0.47693 0.52524 0.0
H220 H 0.48255 0.74383 0.69303 0.0
H221 H 0.54497 0.71971 0.68365 0.0
H222 H 0.47676 0.62947 0.59342 0.0
H223 H 0.41461 0.65354 0.60212 0.0
Tb224 Tb 0.06108 0.57967 1.05046 0.0
Tb225 Tb 0.04489 0.50239 0.11186 0.0
C226 C 0.08753 0.50303 1.02236 0.0
C227 C 0.02906 0.6605 1.0098 0.0
C228 C 0.9602 0.69265 1.01467 0.0
C229 C 0.99161 0.70592 0.9833 0.0
C230 C 0.02582 0.68958 0.98063 0.0
C231 C 0.99826 0.64841 1.04166 0.0
C232 C 0.96425 0.66417 1.04405 0.0
C233 C 0.06209 0.63991 1.00679 0.0
O234 O 0.99303 0.55122 1.05288 0.0
O235 O 0.99366 0.48706 1.06563 0.0
O236 O 1.00802 0.53882 0.14235 0.0
O237 O 0.04723 0.59842 0.11418 0.0
O238 O 0.02755 0.43947 0.11764 0.0
O239 O 0.04867 0.47841 0.17225 0.0
O240 O 0.10143 0.54732 0.13437 0.0
O241 O 0.12424 0.58323 0.0739 0.0
O242 O 0.07132 0.53136 1.01008 0.0
O243 O 0.08985 0.49564 1.063 0.0
C244 C 0.97502 0.51231 1.0501 0.0
O245 O 0.08445 0.64214 1.04123 0.0
O246 O 0.04888 0.603 0.99219 0.0
C247 C 0.01993 0.57852 0.14239 0.0
C248 C 0.07809 0.42464 0.16253 0.0
C249 C 0.15451 0.40473 0.17164 0.0
C250 C 0.13621 0.41934 0.2067 0.0
C251 C 0.09832 0.42907 0.20221 0.0
C252 C 0.09558 0.40849 0.12786 0.0
C253 C 0.13331 0.39855 0.13242 0.0
C254 C 0.04295 0.44235 0.15605 0.0
C255 C 0.13126 0.57269 0.11263 0.0
H256 H 0.98912 0.72807 0.96042 0.0
H257 H 0.04921 0.69912 0.95568 0.0
H258 H 1.00009 0.62618 1.06455 0.0
H259 H 0.94101 0.65402 1.06905 0.0
H260 H 0.15145 0.42365 0.23755 0.0
H261 H 0.08567 0.44155 0.22939 0.0
H262 H 0.08109 0.40493 0.09666 0.0
H263 H 0.14667 0.3874 0.10484 0.0
H264 H 0.38626 0.29266 0.3892 0.0
H265 H 0.28285 0.33558 0.34697 0.0
H266 H 0.23957 0.30174 0.40456 0.0
H267 H 0.2257 0.25079 0.4588 0.0
H268 H 0.32318 0.19759 0.49384 0.0
H269 H 0.3735 0.24423 0.44766 0.0
C270 C 0.35433 0.29477 0.39248 0.0
C271 C 0.3385 0.31694 0.363 0.0
C272 C 0.32789 0.27268 0.4243 0.0
C273 C 0.29715 0.31995 0.36908 0.0
C274 C 0.27165 0.29987 0.4019 0.0
C275 C 0.25805 0.24955 0.45656 0.0
C276 C 0.27039 0.22022 0.47894 0.0
C277 C 0.28603 0.27482 0.4284 0.0
C278 C 0.31277 0.21985 0.47684 0.0
C279 C 0.34147 0.24626 0.4501 0.0
H280 H 0.27812 0.80613 0.79174 0.0
H281 H 0.16313 0.81006 0.85509 0.0
H282 H 0.2032 0.84055 0.91839 0.0
H283 H 0.27149 0.87516 0.95089 0.0
H284 H 0.38666 0.87532 0.88518 0.0
H285 H 0.346 0.83277 0.82847 0.0
C286 C 0.26176 0.81256 0.81989 0.0
C287 C 0.21789 0.80636 0.81872 0.0
C288 C 0.2851 0.83103 0.85566 0.0
C289 C 0.19703 0.81512 0.85521 0.0
C290 C 0.21989 0.83257 0.89131 0.0
C291 C 0.28765 0.86537 0.92443 0.0
C292 C 0.33196 0.87892 0.92192 0.0
C293 C 0.26407 0.84218 0.89116 0.0
C294 C 0.35258 0.86526 0.88799 0.0
C295 C 0.32932 0.84126 0.85527 0.0
H296 H 0.65367 0.49442 0.82367 0.0
H297 H 0.66155 0.3855 0.76048 0.0
H298 H 0.6443 0.41028 0.69223 0.0
H299 H 0.62303 0.462 0.6509 0.0
H300 H 0.61262 0.56925 0.71661 0.0
H301 H 0.63501 0.54634 0.78274 0.0
C302 C 0.65241 0.47639 0.79481 0.0
C303 C 0.6601 0.43857 0.7972 0.0
C304 C 0.64166 0.49054 0.75588 0.0
C305 C 0.6569 0.41512 0.75957 0.0
C306 C 0.64674 0.42923 0.72051 0.0
C307 C 0.62618 0.48058 0.67956 0.0
C308 C 0.61597 0.51746 0.67839 0.0
C309 C 0.63858 0.46681 0.71825 0.0
C310 C 0.61993 0.54076 0.71621 0.0
C311 C 0.63279 0.52765 0.75427 0.0
H312 H 0.96747 0.70977 0.25535 0.0
H313 H 0.92031 0.60967 0.33885 0.0
H314 H 0.94462 0.56561 0.28871 0.0
H315 H 0.97846 0.55547 0.21942 0.0
H316 H 0.02489 0.65766 0.13758 0.0
H317 H 1.00151 0.70032 0.18819 0.0
C318 C 0.96298 0.67843 0.26288 0.0
C319 C 0.94268 0.66321 0.30114 0.0
C320 C 0.97658 0.65333 0.23374 0.0
C321 C 0.93648 0.62228 0.30994 0.0
C322 C 0.95012 0.59704 0.28109 0.0
C323 C 0.98329 0.587 0.21265 0.0
C324 C 1.00351 0.60296 0.17435 0.0
C325 C 0.97 0.61213 0.24256 0.0
C326 C 1.00962 0.64414 0.16652 0.0
C327 C 0.99627 0.66886 0.19561 0.0
H328 H 0.42575 0.24609 0.17882 0.0
H329 H 0.53031 0.27823 0.26639 0.0
H330 H 0.55234 0.21982 0.24191 0.0
H331 H 0.54271 0.16059 0.19393 0.0
H332 H 0.43729 0.12919 0.10688 0.0
H333 H 0.41428 0.18573 0.13359 0.0
C334 C 0.453 0.23996 0.19299 0.0
C335 C 0.47585 0.26588 0.22501 0.0
C336 C 0.46523 0.20634 0.17898 0.0
C337 C 0.5118 0.25824 0.24221 0.0
C338 C 0.52439 0.2249 0.22821 0.0
C339 C 0.51437 0.16578 0.18126 0.0
C340 C 0.49189 0.14067 0.14835 0.0
C341 C 0.50137 0.19875 0.19651 0.0
C342 C 0.45541 0.1481 0.13204 0.0
C343 C 0.44219 0.18052 0.14722 0.0
H344 H 0.10202 0.85545 0.76452 0.0
H345 H 0.16162 0.84487 0.64348 0.0
H346 H 0.13899 0.9001 0.61607 0.0
H347 H 0.10623 0.95328 0.62684 0.0
H348 H 0.04671 0.9669 0.74686 0.0
H349 H 0.06618 0.90891 0.77457 0.0
C350 C 0.10994 0.86519 0.73212 0.0
C351 C 0.13337 0.84564 0.70612 0.0
C352 C 0.09754 0.89787 0.7166 0.0
C353 C 0.14291 0.85849 0.66404 0.0
C354 C 0.13045 0.89053 0.64842 0.0
C355 C 0.09768 0.94404 0.6593 0.0
C356 C 0.07576 0.96505 0.68506 0.0
C357 C 0.10844 0.91077 0.67459 0.0
C358 C 0.06406 0.95162 0.72655 0.0
C359 C 0.07507 0.91841 0.74229 0.0
H360 H 0.79696 0.47 0.95654 0.0
H361 H 0.82245 0.35518 0.94329 0.0
H362 H 0.88945 0.38195 0.98004 0.0
H363 H 0.94007 0.43678 1.01821 0.0
H364 H 0.91774 0.55297 1.03035 0.0
H365 H 0.85071 0.52703 0.99219 0.0
C366 C 0.81751 0.45112 0.96126 0.0
C367 C 0.80431 0.41044 0.94759 0.0
C368 C 0.85647 0.4668 0.98276 0.0
C369 C 0.83141 0.38639 0.95402 0.0
C370 C 0.86982 0.40165 0.97509 0.0
C371 C 0.92049 0.45645 1.01278 0.0
C372 C 0.9338 0.49662 1.02771 0.0
C373 C 0.8824 0.44156 0.99021 0.0
C374 C 0.90823 0.5218 1.01952 0.0
C375 C 0.86987 0.507 0.99756 0.0
H376 H 0.79699 0.65867 0.42394 0.0
H377 H 0.85114 0.7117 0.54352 0.0
H378 H 0.78415 0.68156 0.5797 0.0
H379 H 0.70929 0.64006 0.57749 0.0
H380 H 0.65727 0.58502 0.45783 0.0
H381 H 0.72399 0.61553 0.42216 0.0
C382 C 0.79444 0.66321 0.45802 0.0
C383 C 0.8292 0.68777 0.48069 0.0
C384 C 0.75588 0.64545 0.47884 0.0
C385 C 0.82482 0.69358 0.52489 0.0
C386 C 0.78648 0.67618 0.54576 0.0
C387 C 0.71258 0.63495 0.54361 0.0
C388 C 0.67811 0.61033 0.52053 0.0
C389 C 0.75159 0.65226 0.52303 0.0
C390 C 0.68315 0.60369 0.47663 0.0
C391 C 0.7214 0.62116 0.45602 0.0
H392 H 0.30788 0.33421 0.1938 0.0
H393 H 0.3553 0.4445 0.26661 0.0
H394 H 0.29601 0.46759 0.2429 0.0
H395 H 0.22535 0.4514 0.2107 0.0
H396 H 0.17606 0.33883 0.1419 0.0
H397 H 0.24149 0.32166 0.15448 0.0
C398 C 0.30612 0.36399 0.20303 0.0
C399 C 0.33589 0.38777 0.2317 0.0
C400 C 0.27098 0.37609 0.19093 0.0
C401 C 0.33283 0.42592 0.24427 0.0
C402 C 0.29866 0.43881 0.23119 0.0
C403 C 0.22907 0.42319 0.19834 0.0
C404 C 0.19566 0.39609 0.17606 0.0
C405 C 0.26656 0.41329 0.20619 0.0
C406 C 0.20126 0.36012 0.15926 0.0
C407 C 0.23863 0.35026 0.16651 0.0
H408 H 0.61582 0.28741 0.93616 0.0
H409 H 0.74179 0.27704 0.95238 0.0
H410 H 0.71372 0.21386 0.98873 0.0
H411 H 0.65409 0.16271 1.01999 0.0
H412 H 0.52729 0.1671 0.998 0.0
H413 H 0.55465 0.23064 0.95982 0.0
C414 C 0.63706 0.27105 0.94705 0.0
C415 C 0.68115 0.28822 0.94274 0.0
C416 C 0.62053 0.23351 0.96729 0.0
C417 C 0.7079 0.26586 0.95666 0.0
C418 C 0.69188 0.22935 0.97732 0.0
C419 C 0.63249 0.17749 1.00655 0.0
C420 C 0.58883 0.16054 1.01212 0.0
C421 C 0.6484 0.21329 0.98369 0.0
C422 C 0.5611 0.17964 0.99406 0.0
C423 C 0.57677 0.21603 0.97233 0.0
H424 H 0.94461 0.79438 0.53139 0.0
H425 H 0.96528 0.83804 0.40317 0.0
H426 H 0.99463 0.90723 0.43096 0.0
H427 H 1.00907 0.95619 0.49277 0.0
H428 H 0.98438 0.90958 0.61997 0.0
H429 H 0.96174 0.84125 0.59155 0.0
C430 C 0.95554 0.819 0.50939 0.0
C431 C 0.95213 0.81099 0.46524 0.0
C432 C 0.97132 0.8585 0.52554 0.0
C433 C 0.96751 0.84324 0.43732 0.0
C434 C 0.984 0.88289 0.45325 0.0
C435 C 0.999 0.93101 0.51413 0.0
C436 C 0.99781 0.9383 0.55849 0.0
C437 C 0.98526 0.89107 0.49742 0.0
C438 C 0.98485 0.90518 0.58571 0.0
C439 C 0.97203 0.86589 0.56953 0.0
H440 H 0.29999 0.78764 0.65642 0.0
H441 H 0.22136 0.6646 0.65641 0.0
H442 H 0.28422 0.64076 0.65863 0.0
H443 H 0.36146 0.65503 0.65583 0.0
H444 H 0.44004 0.77827 0.65322 0.0
H445 H 0.37738 0.80199 0.65735 0.0
C446 C 0.29672 0.75564 0.6574 0.0
C447 C 0.25627 0.72779 0.65612 0.0
C448 C 0.33296 0.74226 0.65798 0.0
C449 C 0.25229 0.68644 0.65743 0.0
C450 C 0.28817 0.67288 0.6585 0.0
C451 C 0.36487 0.68708 0.65606 0.0
C452 C 0.40543 0.7148 0.65384 0.0
C453 C 0.32867 0.70051 0.6579 0.0
C454 C 0.40929 0.75626 0.65514 0.0
C455 C 0.37344 0.76986 0.65725 0.0
H456 H 0.71237 0.82464 0.88739 0.0
H457 H 0.82838 0.83373 0.95419 0.0
H458 H 0.86902 0.85846 0.89027 0.0
H459 H 0.87211 0.88877 0.82034 0.0
H460 H 0.75674 0.88346 0.75429 0.0
H461 H 0.71533 0.84616 0.81301 0.0
C462 C 0.74652 0.8315 0.88767 0.0
C463 C 0.7673 0.82789 0.9256 0.0
C464 C 0.76984 0.84698 0.85119 0.0
C465 C 0.8115 0.83606 0.9254 0.0
C466 C 0.83486 0.85061 0.88895 0.0
C467 C 0.83795 0.87831 0.8181 0.0
C468 C 0.81748 0.88935 0.78337 0.0
C469 C 0.81444 0.85776 0.8523 0.0
C470 C 0.77316 0.8759 0.78114 0.0
C471 C 0.7495 0.85462 0.81467 0.0
H472 H 0.85868 0.30911 0.35317 0.0
H473 H 0.80152 0.23062 0.45552 0.0
H474 H 0.74346 0.19474 0.40894 0.0
H475 H 0.71444 0.1802 0.33724 0.0
H476 H 0.77375 0.25504 0.23298 0.0
H477 H 0.82479 0.29867 0.28219 0.0
C478 C 0.83292 0.28474 0.3653 0.0
C479 C 0.83428 0.27209 0.40736 0.0
C480 C 0.80029 0.26353 0.33796 0.0
C481 C 0.80106 0.24043 0.42301 0.0
C482 C 0.768 0.21995 0.39644 0.0
C483 C 0.73828 0.20635 0.32541 0.0
C484 C 0.74087 0.21407 0.28158 0.0
C485 C 0.76815 0.23032 0.35353 0.0
C486 C 0.7712 0.24851 0.26666 0.0
C487 C 0.80058 0.27322 0.29472 0.0
H488 H 0.44403 0.59779 0.32486 0.0
H489 H 0.47838 0.72046 0.37185 0.0
H490 H 0.50144 0.69932 0.43932 0.0
H491 H 0.51546 0.64649 0.48354 0.0
H492 H 0.48166 0.5237 0.43607 0.0
H493 H 0.45469 0.54427 0.37068 0.0
C494 C 0.45596 0.61981 0.35013 0.0
C495 C 0.45901 0.66074 0.34336 0.0
C496 C 0.46963 0.6074 0.38875 0.0
C497 C 0.47516 0.68883 0.37634 0.0
C498 C 0.48859 0.67672 0.41485 0.0
C499 C 0.50201 0.62405 0.45907 0.0
C500 C 0.50098 0.58343 0.46505 0.0
C501 C 0.48655 0.63616 0.42124 0.0
C502 C 0.48307 0.55507 0.43272 0.0
C503 C 0.46765 0.56688 0.39512 0.0
H504 H 0.16434 0.38814 0.90711 0.0
H505 H 0.10909 0.44052 0.80816 0.0
H506 H 0.08172 0.47913 0.86146 0.0
H507 H 0.07646 0.50066 0.93596 0.0
H508 H 0.1325 0.44912 1.03544 0.0
H509 H 0.15662 0.40795 0.98258 0.0
C510 C 0.14551 0.40738 0.89749 0.0
C511 C 0.13806 0.41102 0.85386 0.0
C512 C 0.13061 0.43022 0.92842 0.0
C513 C 0.11458 0.43681 0.84161 0.0
C514 C 0.09926 0.45913 0.87206 0.0
C515 C 0.09405 0.48053 0.94617 0.0
C516 C 0.10287 0.47845 0.98981 0.0
C517 C 0.10766 0.45662 0.91553 0.0
C518 C 0.12532 0.45167 1.0022 0.0
C519 C 0.1391 0.42795 0.97192 0.0
H520 H 0.63364 0.8598 0.97537 0.0
H521 H 0.71404 0.89346 0.08565 0.0
H522 H 0.68487 0.94914 0.10147 0.0
H523 H 0.63846 0.98946 0.08298 0.0
H524 H 0.55454 0.9548 0.97564 0.0
H525 H 0.58363 0.89858 0.95901 0.0
C526 C 0.64438 0.87918 1.00303 0.0
C527 C 0.67575 0.87246 1.02944 0.0
C528 C 0.62748 0.91128 1.01193 0.0
C529 C 0.68941 0.89761 1.06529 0.0
C530 C 0.67312 0.92973 0.07407 0.0
C531 C 0.62699 0.96994 1.05554 0.0
C532 C 0.59533 0.9767 1.0298 0.0
C533 C 0.64265 0.93714 1.04731 0.0
C534 C 0.5795 0.9504 0.99536 0.0
C535 C 0.59592 0.91822 0.98608 0.0
H536 H 0.89174 0.20056 0.50412 0.0
H537 H 1.01415 0.28627 0.48568 0.0
H538 H 0.04823 0.23783 0.51263 0.0
H539 H 0.04308 0.17094 0.54138 0.0
H540 H 0.92013 0.08505 0.55691 0.0
H541 H 0.88666 0.13343 0.52965 0.0
C542 C 0.92592 0.20858 0.50529 0.0
C543 C 0.95026 0.24706 0.49265 0.0
C544 C 0.94529 0.18038 0.51993 0.0
C545 C 0.99452 0.25711 0.49564 0.0
C546 C 1.01407 0.22927 0.5107 0.0
C547 C 1.00899 0.16264 0.53841 0.0
C548 C 0.98423 0.12433 0.55122 0.0
C549 C 0.98975 0.19076 0.52286 0.0
C550 C 0.94006 0.11424 0.54731 0.0
C551 C 0.9208 0.14196 0.53186 0.0
H552 H 0.28478 0.64504 0.23771 0.0
H553 H 0.34262 0.70123 0.12221 0.0
H554 H 0.27931 0.66656 0.08201 0.0
H555 H 0.20549 0.62253 0.08004 0.0
H556 H 0.14967 0.5647 0.19575 0.0
H557 H 0.21393 0.59708 0.23466 0.0
C558 C 0.28397 0.64917 0.20362 0.0
C559 C 0.31847 0.67631 0.18339 0.0
C560 C 0.24743 0.62889 0.18044 0.0
C561 C 0.31633 0.6813 0.13906 0.0
C562 C 0.28009 0.66132 0.11587 0.0
C563 C 0.20746 0.61685 0.11368 0.0
C564 C 0.1723 0.59134 0.13469 0.0
C565 C 0.24504 0.63554 0.13632 0.0
C566 C 0.17585 0.58421 0.17839 0.0
C567 C 0.21277 0.60279 0.20094 0.0
H568 H 0.32996 0.40381 0.70404 0.0
H569 H 0.32134 0.51885 0.75041 0.0
H570 H 0.37765 0.55346 0.70133 0.0
H571 H 0.43329 0.55074 0.64956 0.0
H572 H 0.44268 0.43506 0.60484 0.0
H573 H 0.38214 0.40108 0.64857 0.0
C574 C 0.34035 0.43645 0.7031 0.0
C575 C 0.32234 0.45886 0.73128 0.0
C576 C 0.37301 0.45601 0.67522 0.0
C577 C 0.33535 0.50109 0.72938 0.0
C578 C 0.3675 0.52082 0.70138 0.0
C579 C 0.42174 0.51811 0.64887 0.0
C580 C 0.44285 0.49557 0.62409 0.0
C581 C 0.3872 0.49858 0.67476 0.0
C582 C 0.42737 0.45327 0.62377 0.0
C583 C 0.39271 0.43371 0.64886 0.0
H584 H 0.82452 0.78182 1.05802 0.0
H585 H 0.74293 0.65958 1.05578 0.0
H586 H 0.80265 0.63522 1.03409 0.0
H587 H 0.87837 0.64869 1.01878 0.0
H588 H 0.9592 0.77098 1.0191 0.0
H589 H 0.89865 0.7957 1.03678 0.0
C590 C 0.81942 0.74987 1.05221 0.0
C591 C 0.77901 0.72245 1.058 0.0
C592 C 0.85359 0.73627 1.03894 0.0
C593 C 0.77359 0.68118 1.0511 0.0
C594 C 0.80764 0.66731 1.03866 0.0
C595 C 0.88251 0.68079 1.02225 0.0
C596 C 0.92303 0.70807 1.01799 0.0
C597 C 0.84778 0.69458 1.03279 0.0
C598 C 0.92818 0.74955 1.02204 0.0
C599 C 0.8937 0.76358 1.03255 0.0
H600 H 0.4868 0.81744 0.212 0.0
H601 H 0.3567 0.81792 0.20738 0.0
H602 H 0.37803 0.88604 0.17971 0.0
H603 H 0.4333 0.94461 0.1527 0.0
H604 H 0.56369 0.94493 0.15852 0.0
H605 H 0.54269 0.87826 0.18968 0.0
C606 C 0.46322 0.83273 0.20562 0.0
C607 C 0.42012 0.81213 0.21132 0.0
C608 C 0.47573 0.87224 0.18943 0.0
C609 C 0.39005 0.8326 0.20265 0.0
C610 C 0.40221 0.8717 0.18681 0.0
C611 C 0.45716 0.93024 0.161 0.0
C612 C 0.50005 0.95009 0.153 0.0
C613 C 0.4449 0.89162 0.17924 0.0
C614 C 0.53042 0.93076 0.1643 0.0
C615 C 0.51845 0.89239 0.18213 0.0
H616 H 0.08745 0.2884 0.76137 0.0
H617 H 0.21768 0.28797 0.7567 0.0
H618 H 0.19701 0.22099 0.72346 0.0
H619 H 0.14219 0.16337 0.69209 0.0
H620 H 1.01179 0.16348 0.69837 0.0
H621 H 0.03226 0.2289 0.73452 0.0
C622 C 0.11125 0.27338 0.75383 0.0
C623 C 0.15415 0.29368 0.76124 0.0
C624 C 0.09915 0.23461 0.7345 0.0
C625 C 0.18447 0.27358 0.75078 0.0
C626 C 0.17268 0.23511 0.73176 0.0
C627 C 0.11822 0.17759 0.70152 0.0
C628 C 0.07547 0.15822 0.69213 0.0
C629 C 0.13016 0.21554 0.72271 0.0
C630 C 0.04496 0.17731 0.70499 0.0
C631 C 0.05661 0.21496 0.72575 0.0
H632 H 0.84397 0.35024 0.53202 0.0
H633 H 0.9096 0.46579 0.48057 0.0
H634 H 0.84223 0.48001 0.46876 0.0
H635 H 0.7651 0.46069 0.47606 0.0
H636 H 0.69928 0.34557 0.52901 0.0
H637 H 0.76611 0.32956 0.53629 0.0
C638 C 0.84331 0.37853 0.51835 0.0
C639 C 0.88146 0.40744 0.50811 0.0
C640 C 0.80452 0.38638 0.51167 0.0
C641 C 0.88049 0.44355 0.4894 0.0
C642 C 0.84206 0.45157 0.48257 0.0
C643 C 0.76536 0.43212 0.48929 0.0
C644 C 0.72721 0.40455 0.50231 0.0
C645 C 0.80394 0.42344 0.49413 0.0
C646 C 0.72806 0.36725 0.51844 0.0
C647 C 0.76633 0.3582 0.52297 0.0
loop_
_geom_bond_atom_site_label_1
_geom_bond_atom_site_label_2
_geom_bond_distance
_geom_bond_site_symmetry_2
_ccdc_geom_bond_type
H0 C7 0.929 . S
H1 C10 0.930 . S
H2 C12 0.929 . S
H3 C4 0.969 . S
C4 H3 0.969 . S
C4 O5 1.550 . S
C4 H6 0.973 . S
O5 C4 1.550 . S
O5 C11 1.412 . S
H6 C4 0.973 . S
C7 H0 0.929 . S
C7 C8 1.400 . S
C7 C9 1.364 . S
C8 C7 1.400 . S
C8 C12 1.377 . S
C9 C7 1.364 . S
C9 C10 1.374 . S
C10 H1 0.930 . S
C10 C9 1.374 . S
C10 C11 1.383 . S
C11 O5 1.412 . S
C11 C10 1.383 . S
C11 C12 1.394 . S
C12 H2 0.929 . S
C12 C8 1.377 . S
C12 C11 1.394 . S
H13 C20 0.929 . S
H14 C23 0.930 . S
H15 C25 0.929 . S
H16 C17 0.969 . S
C17 H16 0.969 . S
C17 O18 1.550 . S
C17 H19 0.973 . S
O18 C17 1.550 . S
O18 C24 1.412 . S
H19 C17 0.973 . S
C20 H13 0.929 . S
C20 C21 1.400 . S
C20 C22 1.364 . S
C21 C20 1.400 . S
C21 C25 1.377 . S
C22 C20 1.364 . S
C22 C23 1.374 . S
C23 H14 0.930 . S
C23 C22 1.374 . S
C23 C24 1.383 . S
C24 O18 1.412 . S
C24 C23 1.383 . S
C24 C25 1.394 . S
C25 H15 0.929 . S
C25 C21 1.377 . S
C25 C24 1.394 . S
H26 C33 0.929 . S
H27 C36 0.930 . S
H28 C38 0.929 . S
H29 C30 0.969 . S
C30 H29 0.969 . S
C30 O31 1.550 . S
C30 H32 0.973 . S
O31 C30 1.550 . S
O31 C37 1.412 . S
H32 C30 0.973 . S
C33 H26 0.929 . S
C33 C34 1.400 . S
C33 C35 1.364 . S
C34 C33 1.400 . S
C34 C38 1.377 . S
C35 C33 1.364 . S
C35 C36 1.374 . S
C36 H27 0.930 . S
C36 C35 1.374 . S
C36 C37 1.383 . S
C37 O31 1.412 . S
C37 C36 1.383 . S
C37 C38 1.394 . S
C38 H28 0.929 . S
C38 C34 1.377 . S
C38 C37 1.394 . S
H39 C46 0.929 . S
H40 C49 0.930 . S
H41 C51 0.929 . S
H42 C43 0.969 . S
C43 H42 0.969 . S
C43 O44 1.550 . S
C43 H45 0.973 . S
O44 C43 1.550 . S
O44 C50 1.412 . S
H45 C43 0.973 . S
C46 H39 0.929 . S
C46 C47 1.400 . S
C46 C48 1.364 . S
C47 C46 1.400 . S
C47 C51 1.377 . S
C48 C46 1.364 . S
C48 C49 1.374 . S
C49 H40 0.930 . S
C49 C48 1.374 . S
C49 C50 1.383 . S
C50 O44 1.412 . S
C50 C49 1.383 . S
C50 C51 1.394 . S
C51 H41 0.929 . S
C51 C47 1.377 . S
C51 C50 1.394 . S
H52 C59 0.929 . S
H53 C62 0.930 . S
H54 C64 0.929 . S
H55 C56 0.969 . S
C56 H55 0.969 . S
C56 O57 1.550 . S
C56 H58 0.973 . S
O57 C56 1.550 . S
O57 C63 1.412 . S
H58 C56 0.973 . S
C59 H52 0.929 . S
C59 C60 1.400 . S
C59 C61 1.364 . S
C60 C59 1.400 . S
C60 C64 1.377 . S
C61 C59 1.364 . S
C61 C62 1.374 . S
C62 H53 0.930 . S
C62 C61 1.374 . S
C62 C63 1.383 . S
C63 O57 1.412 . S
C63 C62 1.383 . S
C63 C64 1.394 . S
C64 H54 0.929 . S
C64 C60 1.377 . S
C64 C63 1.394 . S
H65 C72 0.929 . S
H66 C75 0.930 . S
H67 C77 0.929 . S
H68 C69 0.969 . S
C69 H68 0.969 . S
C69 O70 1.550 . S
C69 H71 0.973 . S
O70 C69 1.550 . S
O70 C76 1.412 . S
H71 C69 0.973 . S
C72 H65 0.929 . S
C72 C73 1.400 . S
C72 C74 1.364 . S
C73 C72 1.400 . S
C73 C77 1.377 . S
C74 C72 1.364 . S
C74 C75 1.374 . S
C75 H66 0.930 . S
C75 C74 1.374 . S
C75 C76 1.383 . S
C76 O70 1.412 . S
C76 C75 1.383 . S
C76 C77 1.394 . S
C77 H67 0.929 . S
C77 C73 1.377 . S
C77 C76 1.394 . S
H78 C85 0.929 . S
H79 C88 0.930 . S
H80 C90 0.929 . S
H81 C82 0.969 . S
C82 H81 0.969 . S
C82 O83 1.550 . S
C82 H84 0.973 . S
O83 C82 1.550 . S
O83 C89 1.412 . S
H84 C82 0.973 . S
C85 H78 0.929 . S
C85 C86 1.400 . S
C85 C87 1.364 . S
C86 C85 1.400 . S
C86 C90 1.377 . S
C87 C85 1.364 . S
C87 C88 1.374 . S
C88 H79 0.930 . S
C88 C87 1.374 . S
C88 C89 1.383 . S
C89 O83 1.412 . S
C89 C88 1.383 . S
C89 C90 1.394 . S
C90 H80 0.929 . S
C90 C86 1.377 . S
C90 C89 1.394 . S
H91 C98 0.929 . S
H92 C101 0.930 . S
H93 C103 0.929 . S
H94 C95 0.969 . S
C95 H94 0.969 . S
C95 O96 1.550 . S
C95 H97 0.973 . S
O96 C95 1.550 . S
O96 C102 1.412 . S
H97 C95 0.973 . S
C98 H91 0.929 . S
C98 C99 1.400 . S
C98 C100 1.364 . S
C99 C98 1.400 . S
C99 C103 1.377 . S
C100 C98 1.364 . S
C100 C101 1.374 . S
C101 H92 0.930 . S
C101 C100 1.374 . S
C101 C102 1.383 . S
C102 O96 1.412 . S
C102 C101 1.383 . S
C102 C103 1.394 . S
C103 H93 0.929 . S
C103 C99 1.377 . S
C103 C102 1.394 . S
Tb104 C113 2.764 . S
Tb104 O114 2.325 . S
Tb104 O117 2.303 . S
Tb104 O121 2.322 1_545 S
Tb104 O122 2.349 1_545 S
Tb104 O125 2.415 . S
Tb104 O126 2.399 . S
Tb105 O115 2.322 . S
Tb105 O116 2.349 1_655 S
Tb105 O118 2.415 1_545 S
Tb105 O119 2.399 . S
Tb105 O120 2.325 1_645 S
Tb105 O123 2.303 1_545 S
Tb105 C134 2.764 1_545 S
C106 O122 1.261 1_655 S
C106 O123 1.257 . S
C107 C110 1.358 . S
C107 C111 1.332 . S
C107 C113 1.504 . S
C108 C109 1.373 . S
C108 C112 1.308 . S
C109 C108 1.373 . S
C109 C110 1.429 . S
C109 H136 0.932 . S
C110 C107 1.358 . S
C110 C109 1.429 . S
C110 H137 0.930 . S
C111 C107 1.332 . S
C111 C112 1.394 . S
C111 H138 0.932 . S
C112 C108 1.308 . S
C112 C111 1.394 . S
C112 H139 0.929 . S
C113 Tb104 2.764 . S
C113 C107 1.504 . S
C113 O125 1.239 . S
C113 O126 1.263 . S
O114 Tb104 2.325 . S
O114 C124 1.236 1_455 S
O115 Tb105 2.322 . S
O115 C124 1.257 . S
O116 Tb105 2.349 1_455 S
O116 C127 1.261 . S
O117 Tb104 2.303 . S
O117 C127 1.257 . S
O118 Tb105 2.415 1_565 S
O118 C134 1.239 . S
O119 Tb105 2.399 . S
O119 C134 1.263 1_545 S
O120 Tb105 2.325 1_465 S
O120 C135 1.236 . S
O121 Tb104 2.322 1_565 S
O121 C135 1.257 . S
O122 Tb104 2.349 1_565 S
O122 C106 1.261 1_455 S
O123 Tb105 2.303 1_565 S
O123 C106 1.257 . S
C124 O114 1.236 1_655 S
C124 O115 1.257 . S
O125 Tb104 2.415 . S
O125 C113 1.239 . S
O126 Tb104 2.399 . S
O126 C113 1.263 . S
C127 O116 1.261 . S
C127 O117 1.257 . S
C128 C131 1.358 . S
C128 C132 1.332 . S
C128 C134 1.504 . S
C129 C130 1.373 . S
C129 C133 1.308 . S
C130 C129 1.373 . S
C130 C131 1.429 . S
C130 H140 0.932 . S
C131 C128 1.358 . S
C131 C130 1.429 . S
C131 H141 0.930 . S
C132 C128 1.332 . S
C132 C133 1.394 . S
C132 H142 0.932 . S
C133 C129 1.308 . S
C133 C132 1.394 . S
C133 H143 0.929 . S
C134 Tb105 2.764 1_565 S
C134 O118 1.239 . S
C134 O119 1.263 1_565 S
C134 C128 1.504 . S
C135 O120 1.236 . S
C135 O121 1.257 . S
H136 C109 0.932 . S
H137 C110 0.930 . S
H138 C111 0.932 . S
H139 C112 0.929 . S
H140 C130 0.932 . S
H141 C131 0.930 . S
H142 C132 0.932 . S
H143 C133 0.929 . S
Tb144 C153 2.764 . S
Tb144 O154 2.325 . S
Tb144 O157 2.303 . S
Tb144 O161 2.322 1_545 S
Tb144 O162 2.349 1_545 S
Tb144 O165 2.415 . S
Tb144 O166 2.399 . S
Tb145 O155 2.322 . S
Tb145 O156 2.349 1_556 S
Tb145 O158 2.415 1_545 S
Tb145 O159 2.399 1_545 S
Tb145 O160 2.325 1_546 S
Tb145 O163 2.303 1_545 S
Tb145 C174 2.764 1_545 S
C146 O162 1.261 1_556 S
C146 O163 1.257 . S
C147 C150 1.358 . S
C147 C151 1.332 . S
C147 C153 1.504 . S
C148 C149 1.373 . S
C148 C152 1.308 . S
C149 C148 1.373 . S
C149 C150 1.429 . S
C149 H176 0.932 . S
C150 C147 1.358 . S
C150 C149 1.429 . S
C150 H177 0.930 . S
C151 C147 1.332 . S
C151 C152 1.394 . S
C151 H178 0.932 . S
C152 C148 1.308 . S
C152 C151 1.394 . S
C152 H179 0.929 . S
C153 Tb144 2.764 . S
C153 C147 1.504 . S
C153 O165 1.239 . S
C153 O166 1.263 . S
O154 Tb144 2.325 . S
O154 C164 1.236 1_554 S
O155 Tb145 2.322 . S
O155 C164 1.257 . S
O156 Tb145 2.349 1_554 S
O156 C167 1.261 . S
O157 Tb144 2.303 . S
O157 C167 1.257 . S
O158 Tb145 2.415 1_565 S
O158 C174 1.239 . S
O159 Tb145 2.399 1_565 S
O159 C174 1.263 . S
O160 Tb145 2.325 1_564 S
O160 C175 1.236 . S
O161 Tb144 2.322 1_565 S
O161 C175 1.257 . S
O162 Tb144 2.349 1_565 S
O162 C146 1.261 1_554 S
O163 Tb145 2.303 1_565 S
O163 C146 1.257 . S
C164 O154 1.236 1_556 S
C164 O155 1.257 . S
O165 Tb144 2.415 . S
O165 C153 1.239 . S
O166 Tb144 2.399 . S
O166 C153 1.263 . S
C167 O156 1.261 . S
C167 O157 1.257 . S
C168 C171 1.358 . S
C168 C172 1.332 . S
C168 C174 1.504 . S
C169 C170 1.373 . S
C169 C173 1.308 . S
C170 C169 1.373 . S
C170 C171 1.429 . S
C170 H180 0.932 . S
C171 C168 1.358 . S
C171 C170 1.429 . S
C171 H181 0.930 . S
C172 C168 1.332 . S
C172 C173 1.394 . S
C172 H182 0.932 . S
C173 C169 1.308 . S
C173 C172 1.394 . S
C173 H183 0.929 . S
C174 Tb145 2.764 1_565 S
C174 O158 1.239 . S
C174 O159 1.263 . S
C174 C168 1.504 . S
C175 O160 1.236 . S
C175 O161 1.257 . S
H176 C149 0.932 . S
H177 C150 0.930 . S
H178 C151 0.932 . S
H179 C152 0.929 . S
H180 C170 0.932 . S
H181 C171 0.930 . S
H182 C172 0.932 . S
H183 C173 0.929 . S
Tb184 C193 2.764 . S
Tb184 O194 2.325 . S
Tb184 O197 2.303 . S
Tb184 O201 2.322 . S
Tb184 O202 2.349 . S
Tb184 O205 2.415 . S
Tb184 O206 2.399 . S
Tb185 O195 2.322 . S
Tb185 O196 2.349 . S
Tb185 O198 2.415 . S
Tb185 O199 2.399 . S
Tb185 O200 2.325 . S
Tb185 O203 2.303 . S
Tb185 C214 2.764 . S
C186 O202 1.261 . S
C186 O203 1.257 . S
C187 C190 1.358 . S
C187 C191 1.332 . S
C187 C193 1.504 . S
C188 C189 1.373 . S
C188 C192 1.308 . S
C189 C188 1.373 . S
C189 C190 1.429 . S
C189 H216 0.932 . S
C190 C187 1.358 . S
C190 C189 1.429 . S
C190 H217 0.930 . S
C191 C187 1.332 . S
C191 C192 1.394 . S
C191 H218 0.932 . S
C192 C188 1.308 . S
C192 C191 1.394 . S
C192 H219 0.929 . S
C193 Tb184 2.764 . S
C193 C187 1.504 . S
C193 O205 1.239 . S
C193 O206 1.263 . S
O194 Tb184 2.325 . S
O194 C204 1.236 . S
O195 Tb185 2.322 . S
O195 C204 1.257 . S
O196 Tb185 2.349 . S
O196 C207 1.261 . S
O197 Tb184 2.303 . S
O197 C207 1.257 . S
O198 Tb185 2.415 . S
O198 C214 1.239 . S
O199 Tb185 2.399 . S
O199 C214 1.263 . S
O200 Tb185 2.325 . S
O200 C215 1.236 . S
O201 Tb184 2.322 . S
O201 C215 1.257 . S
O202 Tb184 2.349 . S
O202 C186 1.261 . S
O203 Tb185 2.303 . S
O203 C186 1.257 . S
C204 O194 1.236 . S
C204 O195 1.257 . S
O205 Tb184 2.415 . S
O205 C193 1.239 . S
O206 Tb184 2.399 . S
O206 C193 1.263 . S
C207 O196 1.261 . S
C207 O197 1.257 . S
C208 C211 1.358 . S
C208 C212 1.332 . S
C208 C214 1.504 . S
C209 C210 1.373 . S
C209 C213 1.308 . S
C210 C209 1.373 . S
C210 C211 1.429 . S
C210 H220 0.932 . S
C211 C208 1.358 . S
C211 C210 1.429 . S
C211 H221 0.930 . S
C212 C208 1.332 . S
C212 C213 1.394 . S
C212 H222 0.932 . S
C213 C209 1.308 . S
C213 C212 1.394 . S
C213 H223 0.929 . S
C214 Tb185 2.764 . S
C214 O198 1.239 . S
C214 O199 1.263 . S
C214 C208 1.504 . S
C215 O200 1.236 . S
C215 O201 1.257 . S
H216 C189 0.932 . S
H217 C190 0.930 . S
H218 C191 0.932 . S
H219 C192 0.929 . S
H220 C210 0.932 . S
H221 C211 0.930 . S
H222 C212 0.932 . S
H223 C213 0.929 . S
Tb224 C233 2.764 1_454 S
Tb224 O234 2.325 1_455 S
Tb224 O237 2.303 . S
Tb224 O241 2.322 . S
Tb224 O242 2.349 1_554 S
Tb224 O245 2.415 1_455 S
Tb224 O246 2.399 1_454 S
Tb225 O235 2.322 1_455 S
Tb225 O236 2.349 1_455 S
Tb225 O238 2.415 . S
Tb225 O239 2.399 . S
Tb225 O240 2.325 . S
Tb225 O243 2.303 . S
Tb225 C254 2.764 . S
C226 O242 1.261 . S
C226 O243 1.257 1_556 S
C227 C230 1.358 . S
C227 C231 1.332 . S
C227 C233 1.504 . S
C228 C229 1.373 . S
C228 C232 1.308 . S
C229 C228 1.373 . S
C229 C230 1.429 . S
C229 H256 0.932 . S
C230 C227 1.358 . S
C230 C229 1.429 . S
C230 H257 0.930 . S
C231 C227 1.332 . S
C231 C232 1.394 . S
C231 H258 0.932 1_556 S
C232 C228 1.308 . S
C232 C231 1.394 . S
C232 H259 0.929 . S
C233 Tb224 2.764 1_656 S
C233 C227 1.504 . S
C233 O245 1.239 1_556 S
C233 O246 1.263 . S
O234 Tb224 2.325 1_655 S
O234 C244 1.236 . S
O235 Tb225 2.322 1_655 S
O235 C244 1.257 . S
O236 Tb225 2.349 1_655 S
O236 C247 1.261 . S
O237 Tb224 2.303 . S
O237 C247 1.257 1_455 S
O238 Tb225 2.415 . S
O238 C254 1.239 . S
O239 Tb225 2.399 . S
O239 C254 1.263 . S
O240 Tb225 2.325 . S
O240 C255 1.236 . S
O241 Tb224 2.322 . S
O241 C255 1.257 . S
O242 Tb224 2.349 1_556 S
O242 C226 1.261 . S
O243 Tb225 2.303 . S
O243 C226 1.257 1_554 S
C244 O234 1.236 . S
C244 O235 1.257 . S
O245 Tb224 2.415 1_655 S
O245 C233 1.239 1_554 S
O246 Tb224 2.399 1_656 S
O246 C233 1.263 . S
C247 O236 1.261 . S
C247 O237 1.257 1_655 S
C248 C251 1.358 . S
C248 C252 1.332 . S
C248 C254 1.504 . S
C249 C250 1.373 . S
C249 C253 1.308 . S
C250 C249 1.373 . S
C250 C251 1.429 . S
C250 H260 0.932 . S
C251 C248 1.358 . S
C251 C250 1.429 . S
C251 H261 0.930 . S
C252 C248 1.332 . S
C252 C253 1.394 . S
C252 H262 0.932 . S
C253 C249 1.308 . S
C253 C252 1.394 . S
C253 H263 0.929 . S
C254 Tb225 2.764 . S
C254 O238 1.239 . S
C254 O239 1.263 . S
C254 C248 1.504 . S
C255 O240 1.236 . S
C255 O241 1.257 . S
H256 C229 0.932 . S
H257 C230 0.930 . S
H258 C231 0.932 1_554 S
H259 C232 0.929 . S
H260 C250 0.932 . S
H261 C251 0.930 . S
H262 C252 0.932 . S
H263 C253 0.929 . S
H264 C270 0.930 . S
H265 C273 0.930 . S
H266 C274 0.930 . S
H267 C275 0.930 . S
H268 C278 0.930 . S
H269 C279 0.930 . S
C270 H264 0.930 . S
C270 C271 1.355 . S
C270 C272 1.415 . S
C271 C270 1.355 . S
C271 C273 1.419 . S
C272 C270 1.415 . S
C272 C277 1.425 . S
C272 C279 1.409 . S
C273 H265 0.930 . S
C273 C271 1.419 . S
C273 C274 1.362 . S
C274 H266 0.930 . S
C274 C273 1.362 . S
C274 C277 1.409 . S
C275 H267 0.930 . S
C275 C276 1.355 . S
C275 C277 1.415 . S
C276 C275 1.355 . S
C276 C278 1.419 . S
C277 C272 1.425 . S
C277 C274 1.409 . S
C277 C275 1.415 . S
C278 H268 0.930 . S
C278 C276 1.419 . S
C278 C279 1.362 . S
C279 H269 0.930 . S
C279 C272 1.409 . S
C279 C278 1.362 . S
H280 C286 0.930 . S
H281 C289 0.930 . S
H282 C290 0.930 . S
H283 C291 0.930 . S
H284 C294 0.930 . S
H285 C295 0.930 . S
C286 H280 0.930 . S
C286 C287 1.355 . S
C286 C288 1.415 . S
C287 C286 1.355 . S
C287 C289 1.419 . S
C288 C286 1.415 . S
C288 C293 1.425 . S
C288 C295 1.409 . S
C289 H281 0.930 . S
C289 C287 1.419 . S
C289 C290 1.362 . S
C290 H282 0.930 . S
C290 C289 1.362 . S
C290 C293 1.409 . S
C291 H283 0.930 . S
C291 C292 1.355 . S
C291 C293 1.415 . S
C292 C291 1.355 . S
C292 C294 1.419 . S
C293 C288 1.425 . S
C293 C290 1.409 . S
C293 C291 1.415 . S
C294 H284 0.930 . S
C294 C292 1.419 . S
C294 C295 1.362 . S
C295 H285 0.930 . S
C295 C288 1.409 . S
C295 C294 1.362 . S
H296 C302 0.930 . S
H297 C305 0.930 . S
H298 C306 0.930 . S
H299 C307 0.930 . S
H300 C310 0.930 . S
H301 C311 0.930 . S
C302 H296 0.930 . S
C302 C303 1.355 . S
C302 C304 1.415 . S
C303 C302 1.355 . S
C303 C305 1.419 . S
C304 C302 1.415 . S
C304 C309 1.425 . S
C304 C311 1.409 . S
C305 H297 0.930 . S
C305 C303 1.419 . S
C305 C306 1.362 . S
C306 H298 0.930 . S
C306 C305 1.362 . S
C306 C309 1.409 . S
C307 H299 0.930 . S
C307 C308 1.355 . S
C307 C309 1.415 . S
C308 C307 1.355 . S
C308 C310 1.419 . S
C309 C304 1.425 . S
C309 C306 1.409 . S
C309 C307 1.415 . S
C310 H300 0.930 . S
C310 C308 1.419 . S
C310 C311 1.362 . S
C311 H301 0.930 . S
C311 C304 1.409 . S
C311 C310 1.362 . S
H312 C318 0.930 . S
H313 C321 0.930 . S
H314 C322 0.930 . S
H315 C323 0.930 . S
H316 C326 0.930 . S
H317 C327 0.930 . S
C318 H312 0.930 . S
C318 C319 1.355 . S
C318 C320 1.415 . S
C319 C318 1.355 . S
C319 C321 1.419 . S
C320 C318 1.415 . S
C320 C325 1.425 . S
C320 C327 1.409 . S
C321 H313 0.930 . S
C321 C319 1.419 . S
C321 C322 1.362 . S
C322 H314 0.930 . S
C322 C321 1.362 . S
C322 C325 1.409 . S
C323 H315 0.930 . S
C323 C324 1.355 . S
C323 C325 1.415 . S
C324 C323 1.355 . S
C324 C326 1.419 . S
C325 C320 1.425 . S
C325 C322 1.409 . S
C325 C323 1.415 . S
C326 H316 0.930 . S
C326 C324 1.419 . S
C326 C327 1.362 . S
C327 H317 0.930 . S
C327 C320 1.409 . S
C327 C326 1.362 . S
H328 C334 0.930 . S
H329 C337 0.930 . S
H330 C338 0.930 . S
H331 C339 0.930 . S
H332 C342 0.930 . S
H333 C343 0.930 . S
C334 H328 0.930 . S
C334 C335 1.355 . S
C334 C336 1.415 . S
C335 C334 1.355 . S
C335 C337 1.419 . S
C336 C334 1.415 . S
C336 C341 1.425 . S
C336 C343 1.409 . S
C337 H329 0.930 . S
C337 C335 1.419 . S
C337 C338 1.362 . S
C338 H330 0.930 . S
C338 C337 1.362 . S
C338 C341 1.409 . S
C339 H331 0.930 . S
C339 C340 1.355 . S
C339 C341 1.415 . S
C340 C339 1.355 . S
C340 C342 1.419 . S
C341 C336 1.425 . S
C341 C338 1.409 . S
C341 C339 1.415 . S
C342 H332 0.930 . S
C342 C340 1.419 . S
C342 C343 1.362 . S
C343 H333 0.930 . S
C343 C336 1.409 . S
C343 C342 1.362 . S
H344 C350 0.930 . S
H345 C353 0.930 . S
H346 C354 0.930 . S
H347 C355 0.930 . S
H348 C358 0.930 . S
H349 C359 0.930 . S
C350 H344 0.930 . S
C350 C351 1.355 . S
C350 C352 1.415 . S
C351 C350 1.355 . S
C351 C353 1.419 . S
C352 C350 1.415 . S
C352 C357 1.425 . S
C352 C359 1.409 . S
C353 H345 0.930 . S
C353 C351 1.419 . S
C353 C354 1.362 . S
C354 H346 0.930 . S
C354 C353 1.362 . S
C354 C357 1.409 . S
C355 H347 0.930 . S
C355 C356 1.355 . S
C355 C357 1.415 . S
C356 C355 1.355 . S
C356 C358 1.419 . S
C357 C352 1.425 . S
C357 C354 1.409 . S
C357 C355 1.415 . S
C358 H348 0.930 . S
C358 C356 1.419 . S
C358 C359 1.362 . S
C359 H349 0.930 . S
C359 C352 1.409 . S
C359 C358 1.362 . S
H360 C366 0.930 . S
H361 C369 0.930 . S
H362 C370 0.930 . S
H363 C371 0.930 . S
H364 C374 0.930 . S
H365 C375 0.930 1_554 S
C366 H360 0.930 . S
C366 C367 1.355 . S
C366 C368 1.415 . S
C367 C366 1.355 . S
C367 C369 1.419 . S
C368 C366 1.415 . S
C368 C373 1.425 . S
C368 C375 1.409 . S
C369 H361 0.930 . S
C369 C367 1.419 . S
C369 C370 1.362 . S
C370 H362 0.930 . S
C370 C369 1.362 . S
C370 C373 1.409 . S
C371 H363 0.930 . S
C371 C372 1.355 1_556 S
C371 C373 1.415 . S
C372 C371 1.355 1_554 S
C372 C374 1.419 . S
C373 C368 1.425 . S
C373 C370 1.409 . S
C373 C371 1.415 . S
C374 H364 0.930 . S
C374 C372 1.419 . S
C374 C375 1.362 1_554 S
C375 H365 0.930 1_556 S
C375 C368 1.409 . S
C375 C374 1.362 1_556 S
H376 C382 0.930 . S
H377 C385 0.930 . S
H378 C386 0.930 . S
H379 C387 0.930 . S
H380 C390 0.930 . S
H381 C391 0.930 . S
C382 H376 0.930 . S
C382 C383 1.355 . S
C382 C384 1.415 . S
C383 C382 1.355 . S
C383 C385 1.419 . S
C384 C382 1.415 . S
C384 C389 1.425 . S
C384 C391 1.409 . S
C385 H377 0.930 . S
C385 C383 1.419 . S
C385 C386 1.362 . S
C386 H378 0.930 . S
C386 C385 1.362 . S
C386 C389 1.409 . S
C387 H379 0.930 . S
C387 C388 1.355 . S
C387 C389 1.415 . S
C388 C387 1.355 . S
C388 C390 1.419 . S
C389 C384 1.425 . S
C389 C386 1.409 . S
C389 C387 1.415 . S
C390 H380 0.930 . S
C390 C388 1.419 . S
C390 C391 1.362 . S
C391 H381 0.930 . S
C391 C384 1.409 . S
C391 C390 1.362 . S
H392 C398 0.930 . S
H393 C401 0.930 . S
H394 C402 0.930 . S
H395 C403 0.930 . S
H396 C406 0.930 . S
H397 C407 0.930 . S
C398 H392 0.930 . S
C398 C399 1.355 . S
C398 C400 1.415 . S
C399 C398 1.355 . S
C399 C401 1.419 . S
C400 C398 1.415 . S
C400 C405 1.425 . S
C400 C407 1.409 . S
C401 H393 0.930 . S
C401 C399 1.419 . S
C401 C402 1.362 . S
C402 H394 0.930 . S
C402 C401 1.362 . S
C402 C405 1.409 . S
C403 H395 0.930 . S
C403 C404 1.355 . S
C403 C405 1.415 . S
C404 C403 1.355 . S
C404 C406 1.419 . S
C405 C400 1.425 . S
C405 C402 1.409 . S
C405 C403 1.415 . S
C406 H396 0.930 . S
C406 C404 1.419 . S
C406 C407 1.362 . S
C407 H397 0.930 . S
C407 C400 1.409 . S
C407 C406 1.362 . S
H408 C414 0.930 . S
H409 C417 0.930 . S
H410 C418 0.930 . S
H411 C419 0.930 . S
H412 C422 0.930 . S
H413 C423 0.930 . S
C414 H408 0.930 . S
C414 C415 1.355 . S
C414 C416 1.415 . S
C415 C414 1.355 . S
C415 C417 1.419 . S
C416 C414 1.415 . S
C416 C421 1.425 . S
C416 C423 1.409 . S
C417 H409 0.930 . S
C417 C415 1.419 . S
C417 C418 1.362 . S
C418 H410 0.930 . S
C418 C417 1.362 . S
C418 C421 1.409 . S
C419 H411 0.930 . S
C419 C420 1.355 . S
C419 C421 1.415 . S
C420 C419 1.355 . S
C420 C422 1.419 . S
C421 C416 1.425 . S
C421 C418 1.409 . S
C421 C419 1.415 . S
C422 H412 0.930 . S
C422 C420 1.419 . S
C422 C423 1.362 . S
C423 H413 0.930 . S
C423 C416 1.409 . S
C423 C422 1.362 . S
H424 C430 0.930 . S
H425 C433 0.930 . S
H426 C434 0.930 . S
H427 C435 0.930 . S
H428 C438 0.930 . S
H429 C439 0.930 . S
C430 H424 0.930 . S
C430 C431 1.355 . S
C430 C432 1.415 . S
C431 C430 1.355 . S
C431 C433 1.419 . S
C432 C430 1.415 . S
C432 C437 1.425 . S
C432 C439 1.409 . S
C433 H425 0.930 . S
C433 C431 1.419 . S
C433 C434 1.362 . S
C434 H426 0.930 . S
C434 C433 1.362 . S
C434 C437 1.409 . S
C435 H427 0.930 . S
C435 C436 1.355 . S
C435 C437 1.415 . S
C436 C435 1.355 . S
C436 C438 1.419 . S
C437 C432 1.425 . S
C437 C434 1.409 . S
C437 C435 1.415 . S
C438 H428 0.930 . S
C438 C436 1.419 . S
C438 C439 1.362 . S
C439 H429 0.930 . S
C439 C432 1.409 . S
C439 C438 1.362 . S
H440 C446 0.930 . S
H441 C449 0.930 . S
H442 C450 0.930 . S
H443 C451 0.930 . S
H444 C454 0.930 . S
H445 C455 0.930 . S
C446 H440 0.930 . S
C446 C447 1.355 . S
C446 C448 1.415 . S
C447 C446 1.355 . S
C447 C449 1.419 . S
C448 C446 1.415 . S
C448 C453 1.425 . S
C448 C455 1.409 . S
C449 H441 0.930 . S
C449 C447 1.419 . S
C449 C450 1.362 . S
C450 H442 0.930 . S
C450 C449 1.362 . S
C450 C453 1.409 . S
C451 H443 0.930 . S
C451 C452 1.355 . S
C451 C453 1.415 . S
C452 C451 1.355 . S
C452 C454 1.419 . S
C453 C448 1.425 . S
C453 C450 1.409 . S
C453 C451 1.415 . S
C454 H444 0.930 . S
C454 C452 1.419 . S
C454 C455 1.362 . S
C455 H445 0.930 . S
C455 C448 1.409 . S
C455 C454 1.362 . S
H456 C462 0.930 . S
H457 C465 0.930 . S
H458 C466 0.930 . S
H459 C467 0.930 . S
H460 C470 0.930 . S
H461 C471 0.930 . S
C462 H456 0.930 . S
C462 C463 1.355 . S
C462 C464 1.415 . S
C463 C462 1.355 . S
C463 C465 1.419 . S
C464 C462 1.415 . S
C464 C469 1.425 . S
C464 C471 1.409 . S
C465 H457 0.930 . S
C465 C463 1.419 . S
C465 C466 1.362 . S
C466 H458 0.930 . S
C466 C465 1.362 . S
C466 C469 1.409 . S
C467 H459 0.930 . S
C467 C468 1.355 . S
C467 C469 1.415 . S
C468 C467 1.355 . S
C468 C470 1.419 . S
C469 C464 1.425 . S
C469 C466 1.409 . S
C469 C467 1.415 . S
C470 H460 0.930 . S
C470 C468 1.419 . S
C470 C471 1.362 . S
C471 H461 0.930 . S
C471 C464 1.409 . S
C471 C470 1.362 . S
H472 C478 0.930 . S
H473 C481 0.930 . S
H474 C482 0.930 . S
H475 C483 0.930 . S
H476 C486 0.930 . S
H477 C487 0.930 . S
C478 H472 0.930 . S
C478 C479 1.355 . S
C478 C480 1.415 . S
C479 C478 1.355 . S
C479 C481 1.419 . S
C480 C478 1.415 . S
C480 C485 1.425 . S
C480 C487 1.409 . S
C481 H473 0.930 . S
C481 C479 1.419 . S
C481 C482 1.362 . S
C482 H474 0.930 . S
C482 C481 1.362 . S
C482 C485 1.409 . S
C483 H475 0.930 . S
C483 C484 1.355 . S
C483 C485 1.415 . S
C484 C483 1.355 . S
C484 C486 1.419 . S
C485 C480 1.425 . S
C485 C482 1.409 . S
C485 C483 1.415 . S
C486 H476 0.930 . S
C486 C484 1.419 . S
C486 C487 1.362 . S
C487 H477 0.930 . S
C487 C480 1.409 . S
C487 C486 1.362 . S
H488 C494 0.930 . S
H489 C497 0.930 . S
H490 C498 0.930 . S
H491 C499 0.930 . S
H492 C502 0.930 . S
H493 C503 0.930 . S
C494 H488 0.930 . S
C494 C495 1.355 . S
C494 C496 1.415 . S
C495 C494 1.355 . S
C495 C497 1.419 . S
C496 C494 1.415 . S
C496 C501 1.425 . S
C496 C503 1.409 . S
C497 H489 0.930 . S
C497 C495 1.419 . S
C497 C498 1.362 . S
C498 H490 0.930 . S
C498 C497 1.362 . S
C498 C501 1.409 . S
C499 H491 0.930 . S
C499 C500 1.355 . S
C499 C501 1.415 . S
C500 C499 1.355 . S
C500 C502 1.419 . S
C501 C496 1.425 . S
C501 C498 1.409 . S
C501 C499 1.415 . S
C502 H492 0.930 . S
C502 C500 1.419 . S
C502 C503 1.362 . S
C503 H493 0.930 . S
C503 C496 1.409 . S
C503 C502 1.362 . S
H504 C510 0.930 . S
H505 C513 0.930 . S
H506 C514 0.930 . S
H507 C515 0.930 . S
H508 C518 0.930 . S
H509 C519 0.930 . S
C510 H504 0.930 . S
C510 C511 1.355 . S
C510 C512 1.415 . S
C511 C510 1.355 . S
C511 C513 1.419 . S
C512 C510 1.415 . S
C512 C517 1.425 . S
C512 C519 1.409 . S
C513 H505 0.930 . S
C513 C511 1.419 . S
C513 C514 1.362 . S
C514 H506 0.930 . S
C514 C513 1.362 . S
C514 C517 1.409 . S
C515 H507 0.930 . S
C515 C516 1.355 . S
C515 C517 1.415 . S
C516 C515 1.355 . S
C516 C518 1.419 . S
C517 C512 1.425 . S
C517 C514 1.409 . S
C517 C515 1.415 . S
C518 H508 0.930 . S
C518 C516 1.419 . S
C518 C519 1.362 . S
C519 H509 0.930 . S
C519 C512 1.409 . S
C519 C518 1.362 . S
H520 C526 0.930 . S
H521 C529 0.930 . S
H522 C530 0.930 . S
H523 C531 0.930 . S
H524 C534 0.930 1_554 S
H525 C535 0.930 . S
C526 H520 0.930 . S
C526 C527 1.355 . S
C526 C528 1.415 . S
C527 C526 1.355 . S
C527 C529 1.419 . S
C528 C526 1.415 . S
C528 C533 1.425 . S
C528 C535 1.409 . S
C529 H521 0.930 . S
C529 C527 1.419 . S
C529 C530 1.362 . S
C530 H522 0.930 . S
C530 C529 1.362 . S
C530 C533 1.409 . S
C531 H523 0.930 . S
C531 C532 1.355 . S
C531 C533 1.415 . S
C532 C531 1.355 . S
C532 C534 1.419 . S
C533 C528 1.425 . S
C533 C530 1.409 . S
C533 C531 1.415 . S
C534 H524 0.930 1_556 S
C534 C532 1.419 . S
C534 C535 1.362 . S
C535 H525 0.930 . S
C535 C528 1.409 . S
C535 C534 1.362 . S
H536 C542 0.930 . S
H537 C545 0.928 1_455 S
H538 C546 0.930 1_455 S
H539 C547 0.930 1_455 S
H540 C550 0.930 . S
H541 C551 0.930 . S
C542 H536 0.930 . S
C542 C543 1.355 . S
C542 C544 1.415 . S
C543 C542 1.355 . S
C543 C545 1.419 . S
C544 C542 1.415 . S
C544 C549 1.425 . S
C544 C551 1.409 . S
C545 H537 0.928 1_655 S
C545 C543 1.419 . S
C545 C546 1.362 . S
C546 H538 0.930 1_655 S
C546 C545 1.362 . S
C546 C549 1.409 . S
C547 H539 0.930 1_655 S
C547 C548 1.355 . S
C547 C549 1.415 . S
C548 C547 1.355 . S
C548 C550 1.419 . S
C549 C544 1.425 . S
C549 C546 1.409 . S
C549 C547 1.415 . S
C550 H540 0.930 . S
C550 C548 1.419 . S
C550 C551 1.362 . S
C551 H541 0.930 . S
C551 C544 1.409 . S
C551 C550 1.362 . S
H552 C558 0.930 . S
H553 C561 0.930 . S
H554 C562 0.930 . S
H555 C563 0.930 . S
H556 C566 0.930 . S
H557 C567 0.930 . S
C558 H552 0.930 . S
C558 C559 1.355 . S
C558 C560 1.415 . S
C559 C558 1.355 . S
C559 C561 1.419 . S
C560 C558 1.415 . S
C560 C565 1.425 . S
C560 C567 1.409 . S
C561 H553 0.930 . S
C561 C559 1.419 . S
C561 C562 1.362 . S
C562 H554 0.930 . S
C562 C561 1.362 . S
C562 C565 1.409 . S
C563 H555 0.930 . S
C563 C564 1.355 . S
C563 C565 1.415 . S
C564 C563 1.355 . S
C564 C566 1.419 . S
C565 C560 1.425 . S
C565 C562 1.409 . S
C565 C563 1.415 . S
C566 H556 0.930 . S
C566 C564 1.419 . S
C566 C567 1.362 . S
C567 H557 0.930 . S
C567 C560 1.409 . S
C567 C566 1.362 . S
H568 C574 0.930 . S
H569 C577 0.930 . S
H570 C578 0.930 . S
H571 C579 0.930 . S
H572 C582 0.930 . S
H573 C583 0.930 . S
C574 H568 0.930 . S
C574 C575 1.355 . S
C574 C576 1.415 . S
C575 C574 1.355 . S
C575 C577 1.419 . S
C576 C574 1.415 . S
C576 C581 1.425 . S
C576 C583 1.409 . S
C577 H569 0.930 . S
C577 C575 1.419 . S
C577 C578 1.362 . S
C578 H570 0.930 . S
C578 C577 1.362 . S
C578 C581 1.409 . S
C579 H571 0.930 . S
C579 C580 1.355 . S
C579 C581 1.415 . S
C580 C579 1.355 . S
C580 C582 1.419 . S
C581 C576 1.425 . S
C581 C578 1.409 . S
C581 C579 1.415 . S
C582 H572 0.930 . S
C582 C580 1.419 . S
C582 C583 1.362 . S
C583 H573 0.930 . S
C583 C576 1.409 . S
C583 C582 1.362 . S
H584 C590 0.930 . S
H585 C593 0.930 . S
H586 C594 0.930 . S
H587 C595 0.930 . S
H588 C598 0.930 . S
H589 C599 0.930 . S
C590 H584 0.930 . S
C590 C591 1.355 . S
C590 C592 1.415 . S
C591 C590 1.355 . S
C591 C593 1.419 . S
C592 C590 1.415 . S
C592 C597 1.425 . S
C592 C599 1.409 . S
C593 H585 0.930 . S
C593 C591 1.419 . S
C593 C594 1.362 . S
C594 H586 0.930 . S
C594 C593 1.362 . S
C594 C597 1.409 . S
C595 H587 0.930 . S
C595 C596 1.355 . S
C595 C597 1.415 . S
C596 C595 1.355 . S
C596 C598 1.419 . S
C597 C592 1.425 . S
C597 C594 1.409 . S
C597 C595 1.415 . S
C598 H588 0.930 . S
C598 C596 1.419 . S
C598 C599 1.362 . S
C599 H589 0.930 . S
C599 C592 1.409 . S
C599 C598 1.362 . S
H600 C606 0.930 . S
H601 C609 0.930 . S
H602 C610 0.930 . S
H603 C611 0.930 . S
H604 C614 0.930 . S
H605 C615 0.930 . S
C606 H600 0.930 . S
C606 C607 1.355 . S
C606 C608 1.415 . S
C607 C606 1.355 . S
C607 C609 1.419 . S
C608 C606 1.415 . S
C608 C613 1.425 . S
C608 C615 1.409 . S
C609 H601 0.930 . S
C609 C607 1.419 . S
C609 C610 1.362 . S
C610 H602 0.930 . S
C610 C609 1.362 . S
C610 C613 1.409 . S
C611 H603 0.930 . S
C611 C612 1.355 . S
C611 C613 1.415 . S
C612 C611 1.355 . S
C612 C614 1.419 . S
C613 C608 1.425 . S
C613 C610 1.409 . S
C613 C611 1.415 . S
C614 H604 0.930 . S
C614 C612 1.419 . S
C614 C615 1.362 . S
C615 H605 0.930 . S
C615 C608 1.409 . S
C615 C614 1.362 . S
H616 C622 0.930 . S
H617 C625 0.930 . S
H618 C626 0.930 . S
H619 C627 0.930 . S
H620 C630 0.930 . S
H621 C631 0.930 . S
C622 H616 0.930 . S
C622 C623 1.355 . S
C622 C624 1.415 . S
C623 C622 1.355 . S
C623 C625 1.419 . S
C624 C622 1.415 . S
C624 C629 1.425 . S
C624 C631 1.409 . S
C625 H617 0.930 . S
C625 C623 1.419 . S
C625 C626 1.362 . S
C626 H618 0.930 . S
C626 C625 1.362 . S
C626 C629 1.409 . S
C627 H619 0.930 . S
C627 C628 1.355 . S
C627 C629 1.415 . S
C628 C627 1.355 . S
C628 C630 1.419 . S
C629 C624 1.425 . S
C629 C626 1.409 . S
C629 C627 1.415 . S
C630 H620 0.930 . S
C630 C628 1.419 . S
C630 C631 1.362 . S
C631 H621 0.930 . S
C631 C624 1.409 . S
C631 C630 1.362 . S
H632 C638 0.930 . S
H633 C641 0.930 . S
H634 C642 0.930 . S
H635 C643 0.930 . S
H636 C646 0.930 . S
H637 C647 0.930 . S
C638 H632 0.930 . S
C638 C639 1.355 . S
C638 C640 1.415 . S
C639 C638 1.355 . S
C639 C641 1.419 . S
C640 C638 1.415 . S
C640 C645 1.425 . S
C640 C647 1.409 . S
C641 H633 0.930 . S
C641 C639 1.419 . S
C641 C642 1.362 . S
C642 H634 0.930 . S
C642 C641 1.362 . S
C642 C645 1.409 . S
C643 H635 0.930 . S
C643 C644 1.355 . S
C643 C645 1.415 . S
C644 C643 1.355 . S
C644 C646 1.419 . S
C645 C640 1.425 . S
C645 C642 1.409 . S
C645 C643 1.415 . S
C646 H636 0.930 . S
C646 C644 1.419 . S
C646 C647 1.362 . S
C647 H637 0.930 . S
C647 C640 1.409 . S
C647 C646 1.362 . S
C271 C9 1.177 . S
C276 C108 1.253 . S
C287 C21 1.124 . S
C292 C169 1.118 . S
C308 C207 2.267 . S
C303 C30 2.250 . S
C319 C43 2.152 . S
C324 C247 2.261 . S
C340 C167 1.213 . S
C335 C4 0.993 . S
C356 C135 2.369 . S
C351 C22 2.278 . S
C372 C244 1.497 . S
C367 C34 1.510 . S
C388 C204 1.791 . S
C383 C48 1.803 . S
C399 C8 1.277 . S
C404 C249 1.280 . S
C420 C164 2.337 . S
C415 C35 2.315 . S
C431 C47 2.414 . S
C436 C106 2.368 . S
C447 C17 1.356 . S
C452 C209 1.430 . S
C468 C129 0.821 . S
C463 C60 0.790 . S
C479 C74 1.160 . S
C484 C148 1.201 . S
C495 C82 2.037 . S
C500 C186 2.025 . S
C511 C100 2.783 . S
C516 C226 2.733 . S
C527 C61 1.498 . S
C532 C146 1.536 . S
C548 C124 1.821 . S
C543 C73 1.729 . S
C564 C255 1.922 . S
C559 C87 1.963 . S
C580 C215 1.671 . S
C575 C95 1.634 . S
C591 C56 1.144 . S
C596 C228 1.133 . S
C612 C175 2.512 . S
C607 C86 2.510 . S
C628 C127 2.278 . S
C623 C99 2.316 . S
C639 C69 1.172 . S
C644 C188 1.301 . S
