# Generated by pormake.
# Topology anh, (6,3)-cn, num edge types: 1
# Building blocks:
#     Node 0, Type 0, BuildingBlock: INOVEN_clean_sbu_0, # of connection points: 6
#     Node 1, Type 0, BuildingBlock: INOVEN_clean_sbu_0, # of connection points: 6
#     Node 2, Type 0, BuildingBlock: INOVEN_clean_sbu_0, # of connection points: 6
#     Node 3, Type 1, BuildingBlock: BETDAH_clean_linker_0, # of connection points: 3
#     Node 4, Type 1, BuildingBlock: BETDAH_clean_linker_0, # of connection points: 3
#     Node 5, Type 1, BuildingBlock: BETDAH_clean_linker_0, # of connection points: 3
#     Node 6, Type 1, BuildingBlock: BETDAH_clean_linker_0, # of connection points: 3
#     Node 7, Type 1, BuildingBlock: BETDAH_clean_linker_0, # of connection points: 3
#     Node 8, Type 1, BuildingBlock: BETDAH_clean_linker_0, # of connection points: 3
#     Edge 9, Type (0, 1), BuildingBlock: EZIPEK_clean_linker_0, # of connection points: 2
#     Edge 10, Type (0, 1), BuildingBlock: EZIPEK_clean_linker_0, # of connection points: 2
#     Edge 11, Type (0, 1), BuildingBlock: EZIPEK_clean_linker_0, # of connection points: 2
#     Edge 12, Type (0, 1), BuildingBlock: EZIPEK_clean_linker_0, # of connection points: 2
#     Edge 13, Type (0, 1), BuildingBlock: EZIPEK_clean_linker_0, # of connection points: 2
#     Edge 14, Type (0, 1), BuildingBlock: EZIPEK_clean_linker_0, # of connection points: 2
#     Edge 15, Type (0, 1), BuildingBlock: EZIPEK_clean_linker_0, # of connection points: 2
#     Edge 16, Type (0, 1), BuildingBlock: EZIPEK_clean_linker_0, # of connection points: 2
#     Edge 17, Type (0, 1), BuildingBlock: EZIPEK_clean_linker_0, # of connection points: 2
#     Edge 18, Type (0, 1), BuildingBlock: EZIPEK_clean_linker_0, # of connection points: 2
#     Edge 19, Type (0, 1), BuildingBlock: EZIPEK_clean_linker_0, # of connection points: 2
#     Edge 20, Type (0, 1), BuildingBlock: EZIPEK_clean_linker_0, # of connection points: 2
#     Edge 21, Type (0, 1), BuildingBlock: EZIPEK_clean_linker_0, # of connection points: 2
#     Edge 22, Type (0, 1), BuildingBlock: EZIPEK_clean_linker_0, # of connection points: 2
#     Edge 23, Type (0, 1), BuildingBlock: EZIPEK_clean_linker_0, # of connection points: 2
#     Edge 24, Type (0, 1), BuildingBlock: EZIPEK_clean_linker_0, # of connection points: 2
#     Edge 25, Type (0, 1), BuildingBlock: EZIPEK_clean_linker_0, # of connection points: 2
#     Edge 26, Type (0, 1), BuildingBlock: EZIPEK_clean_linker_0, # of connection points: 2
# Relax obj value: 0.205
# Max RMSD: 0.217
# Mean RMSD: 0.120
data_MOF--net-anh--node1-INOVEN_clean_sbu_0--node2-BETDAH_clean_linker_0--edge1-EZIPEK_clean_linker_0
_symmetry_space_group_name_H-M    P1
_symmetry_Int_Tables_number       1
_symmetry_cell_setting            triclinic
loop_
_symmetry_equiv_pos_as_xyz
'x, y, z'
_cell_length_a     25.149335
_cell_length_b     30.141989
_cell_length_c     36.052719
_cell_angle_alpha  94.885153
_cell_angle_beta   91.754823
_cell_angle_gamma 132.74844
loop_
_atom_site_label
_atom_site_type_symbol
_atom_site_fract_x
_atom_site_fract_y
_atom_site_fract_z
_atom_type_partial_charge
Gd0 Gd 0.15199 0.55938 0.154 0.0
Gd1 Gd 0.06061 0.58514 0.16986 0.0
C2 C 0.23469 0.70343 0.16901 0.0
C3 C 0.23187 0.54558 0.12297 0.0
C4 C 0.22926 0.49595 0.11324 0.0
C5 C 0.29187 0.50979 0.103 0.0
C6 C 0.16357 0.43473 0.11146 0.0
C7 C 0.22275 0.40174 0.08774 0.0
C8 C 0.16025 0.38776 0.09859 0.0
C9 C 0.28868 0.4629 0.09035 0.0
C10 C 0.12475 0.55461 0.22646 0.0
C11 C 0.98047 0.44225 0.15967 0.0
C12 C 0.98899 0.6106 0.19659 0.0
C13 C 0.90946 0.57151 0.19473 0.0
C14 C 0.87672 0.58769 0.17546 0.0
C15 C 0.86494 0.51344 0.20641 0.0
C16 C 0.75831 0.48521 0.1736 0.0
C17 C 0.78965 0.47063 0.19604 0.0
C18 C 0.80152 0.54468 0.16484 0.0
C19 C 1.0538 0.55351 0.09564 0.0
O20 O 0.24218 0.6638 0.16418 0.0
O21 O 0.16898 0.6836 0.17087 0.0
O22 O 0.24306 0.56541 0.1587 0.0
O23 O 0.18139 0.53949 0.10419 0.0
O24 O 0.12989 0.51923 0.20769 0.0
O25 O 0.13912 0.59344 0.20662 0.0
O26 O 0.97881 0.48308 0.17432 0.0
O27 O 1.03933 0.46092 0.14469 0.0
O28 O 1.0153 0.62529 0.16442 0.0
O29 O 1.01662 0.59504 0.21698 0.0
O30 O 0.99789 0.53498 0.11202 0.0
O31 O 0.10997 0.58854 0.1193 0.0
H32 H 0.34277 0.55683 0.10404 0.0
H33 H 0.11466 0.42338 0.11919 0.0
H34 H 0.10902 0.3407 0.09663 0.0
H35 H 0.33726 0.47423 0.08198 0.0
H36 H 0.90986 0.63206 0.16621 0.0
H37 H 0.88846 0.49946 0.22128 0.0
H38 H 0.75679 0.42479 0.20291 0.0
H39 H 0.7778 0.55644 0.1475 0.0
Gd40 Gd 0.69237 0.08573 0.48098 0.0
Gd41 Gd 0.59499 0.10657 0.4705 0.0
C42 C 0.51428 0.96489 0.4655 0.0
C43 C 0.75552 0.05383 0.50992 0.0
C44 C 0.73533 0.99739 0.51855 0.0
C45 C 0.70136 0.94689 0.49069 0.0
C46 C 0.75124 0.99436 0.55542 0.0
C47 C 0.70299 0.89272 0.53615 0.0
C48 C 0.73488 0.94225 0.56423 0.0
C49 C 0.68561 0.895 0.49945 0.0
C50 C 0.66796 0.09091 0.40879 0.0
C51 C 0.77428 0.22554 0.4768 0.0
C52 C 0.53053 0.14283 0.45286 0.0
C53 C 0.54294 0.1958 0.46935 0.0
C54 C 0.58899 0.23021 0.50319 0.0
C55 C 0.50808 0.21158 0.45215 0.0
C56 C 0.56389 0.29493 0.50299 0.0
C57 C 0.51863 0.26107 0.46886 0.0
C58 C 0.59923 0.27936 0.51996 0.0
C59 C 0.62325 0.10454 0.54311 0.0
O60 O 0.58034 0.98731 0.47659 0.0
O61 O 0.50721 1.00292 0.45737 0.0
O62 O 0.75472 0.06062 0.47458 0.0
O63 O 0.7293 0.07207 0.52991 0.0
O64 O 0.72896 0.11021 0.42433 0.0
O65 O 0.61989 0.06443 0.43117 0.0
O66 O 0.70726 0.20322 0.46926 0.0
O67 O 0.78355 0.18915 0.48554 0.0
O68 O 0.50566 0.10176 0.4749 0.0
O69 O 0.58313 0.15516 0.43544 0.0
O70 O 0.56162 0.08389 0.52811 0.0
O71 O 0.66885 0.12955 0.51963 0.0
H72 H 0.68777 0.94769 0.4621 0.0
H73 H 0.77714 0.03266 0.57735 0.0
H74 H 0.74857 0.94105 0.59268 0.0
H75 H 0.66078 0.85692 0.47754 0.0
H76 H 0.61632 0.21854 0.51682 0.0
H77 H 0.47243 0.18543 0.42604 0.0
H78 H 0.49112 0.27269 0.45543 0.0
H79 H 0.6344 0.3051 0.54624 0.0
Gd80 Gd 0.66111 0.62972 0.86092 0.0
Gd81 Gd 0.55236 0.4971 0.84912 0.0
C82 C 0.477 0.55918 0.85761 0.0
C83 C 0.73309 0.74053 0.84843 0.0
C84 C 0.71633 0.77676 0.83763 0.0
C85 C 0.75667 0.83608 0.85637 0.0
C86 C 0.66303 0.75413 0.80748 0.0
C87 C 0.69191 0.84988 0.81477 0.0
C88 C 0.65115 0.79042 0.7961 0.0
C89 C 0.7445 0.87225 0.84511 0.0
C90 C 0.62499 0.57937 0.92416 0.0
C91 C 0.73782 0.56872 0.85919 0.0
C92 C 0.48412 0.38425 0.85236 0.0
C93 C 0.50166 0.34817 0.83891 0.0
C94 C 0.54585 0.36559 0.80989 0.0
C95 C 0.47659 0.29743 0.85562 0.0
C96 C 0.53896 0.28175 0.81418 0.0
C97 C 0.49497 0.26432 0.84328 0.0
C98 C 0.56431 0.33267 0.79764 0.0
C99 C 0.5869 0.54461 0.78458 0.0
O100 O 0.54874 0.6103 0.85649 0.0
O101 O 0.46544 0.50789 0.85753 0.0
O102 O 0.72201 0.72508 0.88218 0.0
O103 O 0.71334 0.6967 0.82292 0.0
O104 O 0.6916 0.62842 0.92025 0.0
O105 O 0.58194 0.56263 0.89575 0.0
O106 O 0.66515 0.51683 0.85489 0.0
O107 O 0.75028 0.62059 0.86165 0.0
O108 O 0.46654 0.40139 0.82629 0.0
O109 O 0.52893 0.42801 0.88035 0.0
O110 O 0.52137 0.49673 0.79002 0.0
O111 O 0.63119 0.56356 0.8131 0.0
H112 H 0.79828 0.85475 0.87949 0.0
H113 H 0.63103 0.70862 0.79236 0.0
H114 H 0.61027 0.77221 0.77268 0.0
H115 H 0.77652 0.91796 0.8599 0.0
H116 H 0.56627 0.40485 0.79675 0.0
H117 H 0.44301 0.28355 0.87824 0.0
H118 H 0.47506 0.22522 0.85642 0.0
H119 H 0.59833 0.34685 0.77521 0.0
H120 H 0.50148 0.95274 0.25201 0.0
H121 H 0.68742 0.13555 0.2336 0.0
H122 H 0.52513 1.00108 0.14072 0.0
C123 C 0.53166 0.98593 0.23278 0.0
C124 C 0.50444 0.96805 0.19459 0.0
C125 C 0.59658 0.04578 0.24696 0.0
C126 C 0.63713 0.08967 0.22246 0.0
C127 C 0.61221 0.07453 0.18392 0.0
C128 C 0.54531 0.01332 0.17024 0.0
N129 N 0.65207 0.11897 0.15835 0.0
C130 C 0.71757 0.18175 0.16594 0.0
H131 H 0.59953 0.47853 0.62989 0.0
H132 H 0.63565 0.63761 0.61619 0.0
H133 H 0.60775 0.52582 0.51987 0.0
C134 C 0.60602 0.50869 0.61195 0.0
C135 C 0.6033 0.49696 0.57319 0.0
C136 C 0.61723 0.55916 0.62767 0.0
C137 C 0.62655 0.59848 0.60411 0.0
C138 C 0.62212 0.5858 0.56498 0.0
C139 C 0.61062 0.53523 0.54994 0.0
N140 N 0.628 0.6219 0.5395 0.0
C141 C 0.64488 0.67608 0.54932 0.0
H142 H 0.97006 0.56095 0.9351 0.0
H143 H 0.13812 0.55746 0.92813 0.0
H144 H 1.04667 0.56659 0.8277 0.0
C145 C 1.00398 0.56119 0.91708 0.0
C146 C 0.99584 0.56413 0.87868 0.0
C147 C 1.05377 0.55877 0.93395 0.0
C148 C 0.10137 0.55908 0.9134 0.0
C149 C 0.10329 0.56192 0.87479 0.0
C150 C 1.04814 0.56415 0.85741 0.0
N151 N 0.15787 0.56272 0.85484 0.0
C152 C 0.21739 0.56171 0.86269 0.0
H153 H 0.26718 0.70452 0.38244 0.0
H154 H 0.08212 0.52339 0.40353 0.0
H155 H 0.21344 0.67237 0.49532 0.0
C156 C 0.23314 0.67386 0.40232 0.0
C157 C 0.24944 0.69729 0.44053 0.0
C158 C 0.17294 0.61198 0.38893 0.0
C159 C 0.12815 0.57108 0.41418 0.0
C160 C 0.14179 0.5919 0.45278 0.0
C161 C 0.20271 0.6555 0.46574 0.0
N162 N 0.0955 0.55088 0.47898 0.0
C163 C 1.03256 0.48729 0.47163 0.0
H164 H 0.61673 0.16633 0.70036 0.0
H165 H 0.66426 0.0556 0.71639 0.0
H166 H 0.62569 0.12538 0.81029 0.0
C167 C 0.62573 0.1448 0.71877 0.0
C168 C 0.61938 0.14988 0.75706 0.0
C169 C 0.64191 0.11097 0.70389 0.0
C170 C 0.65216 0.08195 0.72782 0.0
C171 C 0.64651 0.08735 0.76647 0.0
C172 C 0.63053 0.12155 0.78066 0.0
N173 N 0.65686 0.06004 0.79242 0.0
C174 C 0.66045 0.01612 0.78427 0.0
H175 H 0.59289 0.4439 0.05736 0.0
H176 H 0.38856 0.33073 0.98678 0.0
H177 H 0.40954 0.26484 0.08233 0.0
C178 C 0.53647 0.40109 0.05049 0.0
C179 C 0.50634 0.35513 0.07298 0.0
C180 C 0.49476 0.39238 0.01914 0.0
C181 C 0.42167 0.33726 0.01058 0.0
C182 C 0.39074 0.29118 0.03342 0.0
C183 C 0.4335 0.29985 0.06435 0.0
N184 N 0.31479 0.23982 0.02831 0.0
C185 C 0.26949 0.25005 0.034 0.0
C186 C 0.22142 0.34366 0.03335 0.0
C187 C 0.2195 0.35273 0.0724 0.0
C188 C 0.22425 0.27605 0.08216 0.0
C189 C 0.23837 0.27492 0.04461 0.0
N190 N 0.25012 0.30568 0.98367 0.0
N191 N 0.22157 0.33004 0.13473 0.0
C192 C 0.23584 0.30749 0.01977 0.0
C193 C 0.22032 0.31882 0.097 0.0
N194 N 0.20879 0.36927 0.00943 0.0
N195 N 0.21522 0.23647 0.10354 0.0
H196 H 0.21818 0.36071 0.14663 0.0
H197 H 0.23067 0.31206 0.15458 0.0
H198 H 0.21807 0.20482 0.09312 0.0
H199 H 0.19852 0.23109 0.13018 0.0
H200 H 0.20319 0.36026 0.98035 0.0
H201 H 0.19782 0.39586 0.01862 0.0
H202 H 0.25878 0.33452 0.96546 0.0
H203 H 0.25634 0.27657 0.97236 0.0
C204 C 0.89785 0.31122 0.45331 0.0
C205 C 0.84063 0.29323 0.47485 0.0
C206 C 0.9052 0.40302 0.48885 0.0
C207 C 0.96578 0.42097 0.47095 0.0
N208 N 1.02299 0.39148 0.43996 0.0
N209 N 0.79748 0.32532 0.51816 0.0
C210 C 0.96292 0.37477 0.45438 0.0
C211 C 0.84628 0.34015 0.49376 0.0
N212 N 0.88855 0.26783 0.42988 0.0
N213 N 0.9033 0.44612 0.50087 0.0
H214 H 0.7555 0.28089 0.52362 0.0
H215 H 0.80262 0.35757 0.53576 0.0
H216 H 0.94548 0.4922 0.49842 0.0
H217 H 0.8575 0.43556 0.51018 0.0
H218 H 0.92409 0.27805 0.41048 0.0
H219 H 0.84134 0.22169 0.4269 0.0
H220 H 1.02819 0.36075 0.4316 0.0
H221 H 0.07004 0.43693 0.43891 0.0
C222 C 0.61568 0.87614 0.80969 0.0
C223 C 0.68002 0.88911 0.80255 0.0
C224 C 0.72837 0.98322 0.77859 0.0
C225 C 0.66369 0.96962 0.7853 0.0
N226 N 0.53931 0.89728 0.79875 0.0
N227 N 0.79006 0.94714 0.77266 0.0
C228 C 0.60517 0.914 0.79801 0.0
C229 C 0.73414 0.94036 0.78466 0.0
N230 N 0.56636 0.82956 0.82933 0.0
N231 N 0.78507 0.0379 0.76745 0.0
H232 H 0.79558 0.91644 0.7764 0.0
H233 H 0.82735 0.97997 0.75624 0.0
H234 H 0.78116 0.06881 0.76107 0.0
H235 H 0.83695 0.05408 0.76639 0.0
H236 H 0.52258 0.82197 0.83908 0.0
H237 H 0.57213 0.80102 0.83856 0.0
H238 H 0.49222 0.85462 0.80417 0.0
H239 H 0.53014 0.92416 0.79046 0.0
C240 C 0.62707 0.43268 0.16503 0.0
C241 C 0.68355 0.43663 0.15394 0.0
C242 C 0.60321 0.36096 0.09868 0.0
C243 C 0.55371 0.36741 0.10554 0.0
N244 N 0.51343 0.40514 0.14562 0.0
N245 N 0.7278 0.40699 0.10918 0.0
C246 C 0.56329 0.40096 0.13935 0.0
C247 C 0.67178 0.40025 0.12096 0.0
N248 N 0.63531 0.46002 0.19975 0.0
N249 N 0.5852 0.31856 0.07004 0.0
H250 H 0.7794 0.43555 0.1244 0.0
H251 H 0.72482 0.38775 0.08288 0.0
H252 H 0.53515 0.28982 0.05313 0.0
H253 H 0.6163 0.30783 0.06555 0.0
H254 H 0.59411 0.45519 0.21078 0.0
H255 H 0.68199 0.48364 0.21882 0.0
H256 H 0.52108 0.43458 0.16744 0.0
H257 H 0.46488 0.38018 0.12787 0.0
C258 C 0.38627 0.86888 0.43322 0.0
C259 C 0.4467 0.89554 0.46059 0.0
C260 C 0.37791 0.79009 0.47536 0.0
C261 C 0.31453 0.76614 0.45189 0.0
N262 N 0.25528 0.78947 0.41648 0.0
N263 N 0.49012 0.87804 0.51348 0.0
C264 C 0.31786 0.80791 0.43366 0.0
C265 C 0.43973 0.85519 0.48333 0.0
N266 N 0.39499 0.89938 0.40453 0.0
N267 N 0.38105 0.75089 0.48893 0.0
H268 H 0.53538 0.92416 0.52158 0.0
H269 H 0.48296 0.85122 0.53296 0.0
H270 H 0.33794 0.70361 0.48381 0.0
H271 H 0.42875 0.76515 0.50234 0.0
H272 H 0.35409 0.87977 0.38241 0.0
H273 H 0.44559 0.94 0.39962 0.0
H274 H 0.25364 0.81947 0.40549 0.0
H275 H 0.20411 0.74601 0.41704 0.0
C276 C 0.50758 0.19121 0.77569 0.0
C277 C 0.55856 0.24672 0.80068 0.0
C278 C 0.65099 0.24097 0.79513 0.0
C279 C 0.59843 0.18324 0.77233 0.0
N280 N 0.47321 0.09808 0.74639 0.0
N281 N 0.67423 0.31911 0.83961 0.0
C282 C 0.52566 0.15684 0.76415 0.0
C283 C 0.62901 0.27005 0.81199 0.0
N284 N 0.44264 0.17221 0.76208 0.0
N285 N 0.7225 0.26909 0.79955 0.0
H286 H 0.66045 0.34211 0.8522 0.0
H287 H 0.72271 0.33392 0.85218 0.0
H288 H 0.74069 0.2493 0.78763 0.0
H289 H 0.76466 0.314 0.81234 0.0
H290 H 0.40678 0.13604 0.74052 0.0
H291 H 0.42695 0.19557 0.7703 0.0
H292 H 0.4178 0.07394 0.74327 0.0
H293 H 0.48419 0.07139 0.73755 0.0
C294 C 0.74801 0.84051 0.54211 0.0
C295 C 0.69085 0.83935 0.54464 0.0
C296 C 0.60989 0.73507 0.56012 0.0
C297 C 0.66379 0.73374 0.55277 0.0
N298 N 0.78345 0.78294 0.53645 0.0
N299 N 0.56698 0.78644 0.55488 0.0
C300 C 0.73306 0.78611 0.54414 0.0
C301 C 0.62175 0.787 0.55368 0.0
N302 N 0.81656 0.89377 0.53792 0.0
N303 N 0.54787 0.68682 0.57358 0.0
H304 H 0.57461 0.82444 0.55158 0.0
H305 H 0.51306 0.74764 0.55709 0.0
H306 H 0.53818 0.64836 0.57853 0.0
H307 H 0.50895 0.68674 0.58271 0.0
H308 H 0.86242 0.89963 0.53988 0.0
H309 H 0.82899 0.93398 0.53498 0.0
H310 H 0.83143 0.81662 0.52536 0.0
H311 H 0.77567 0.74482 0.53956 0.0
C312 C 0.87627 0.61449 0.88513 0.0
C313 C 0.80595 0.56859 0.8617 0.0
C314 C 0.86135 0.52033 0.846 0.0
C315 C 0.93316 0.56844 0.86744 0.0
N316 N 1.00564 0.66838 0.90239 0.0
N317 N 0.74511 0.48153 0.81413 0.0
C318 C 0.9383 0.61684 0.88536 0.0
C319 C 0.80321 0.52279 0.84092 0.0
N320 N 0.88384 0.65576 0.90988 0.0
N321 N 0.84672 0.46964 0.83065 0.0
H322 H 0.70449 0.48188 0.80882 0.0
H323 H 0.74079 0.4513 0.79477 0.0
H324 H 0.88588 0.46687 0.8326 0.0
H325 H 0.79541 0.42951 0.81826 0.0
H326 H 0.92681 0.685 0.93135 0.0
H327 H 0.84321 0.65651 0.91155 0.0
H328 H 1.01896 0.70882 0.91196 0.0
H329 H 1.05053 0.67273 0.90316 0.0
C330 C 0.31041 0.81437 0.20017 0.0
C331 C 0.30207 0.77221 0.17291 0.0
C332 C 0.42669 0.85943 0.15747 0.0
C333 C 0.43193 0.90192 0.18241 0.0
N334 N 0.36708 0.91887 0.21894 0.0
N335 N 0.34699 0.76037 0.11834 0.0
C336 C 0.36983 0.87888 0.20085 0.0
C337 C 0.35874 0.79648 0.14944 0.0
N338 N 0.26477 0.79339 0.22733 0.0
N339 N 0.48721 0.87806 0.14256 0.0
H340 H 0.2973 0.71572 0.11013 0.0
H341 H 0.38346 0.77701 0.09842 0.0
H342 H 0.53762 0.92291 0.14781 0.0
H343 H 0.48872 0.84782 0.12765 0.0
H344 H 0.27285 0.8222 0.24989 0.0
H345 H 0.22439 0.74733 0.23011 0.0
H346 H 0.32068 0.90486 0.22996 0.0
H347 H 0.40823 0.96597 0.21913 0.0
C348 C 0.51619 0.33473 0.53856 0.0
C349 C 0.57399 0.34658 0.52133 0.0
C350 C 0.6536 0.45606 0.54293 0.0
C351 C 0.59357 0.44477 0.55657 0.0
N352 N 0.465 0.37478 0.56273 0.0
N353 N 0.69426 0.41864 0.50198 0.0
C354 C 0.52403 0.38443 0.55317 0.0
C355 C 0.64188 0.40734 0.52213 0.0
N356 N 0.45478 0.27609 0.54208 0.0
N357 N 0.72216 0.51304 0.55078 0.0
H358 H 0.68759 0.38415 0.48623 0.0
H359 H 0.74174 0.46234 0.49821 0.0
H360 H 0.73289 0.54984 0.56611 0.0
H361 H 0.76914 0.52262 0.54506 0.0
H362 H 0.41428 0.26511 0.55795 0.0
H363 H 0.44708 0.23843 0.53185 0.0
H364 H 0.41157 0.33257 0.55693 0.0
H365 H 0.46861 0.40999 0.57376 0.0
C366 C 0.3475 0.52308 0.8812 0.0
C367 C 0.40946 0.55994 0.85928 0.0
C368 C 0.3434 0.59617 0.83909 0.0
C369 C 0.28383 0.56164 0.86228 0.0
N370 N 0.24115 0.4964 0.90934 0.0
N371 N 0.4618 0.63792 0.81956 0.0
C372 C 0.29005 0.52636 0.88404 0.0
C373 C 0.40522 0.59806 0.83926 0.0
N374 N 0.34258 0.48344 0.90026 0.0
N375 N 0.34002 0.62681 0.81487 0.0
H376 H 0.50176 0.6371 0.81502 0.0
H377 H 0.47157 0.67391 0.80939 0.0
H378 H 0.29999 0.62858 0.8145 0.0
H379 H 0.37269 0.64634 0.79337 0.0
H380 H 0.29659 0.44878 0.9122 0.0
H381 H 0.38378 0.48327 0.90263 0.0
H382 H 0.24445 0.47591 0.9299 0.0
H383 H 0.19975 0.49626 0.91154 0.0
C384 C 0.84328 0.34705 0.14418 0.0
C385 C 0.91371 0.374 0.16021 0.0
C386 C 0.85514 0.27257 0.17869 0.0
C387 C 0.78444 0.24796 0.16583 0.0
N388 N 0.71128 0.26579 0.14113 0.0
N389 N 0.98417 0.36207 0.19688 0.0
C390 C 0.77878 0.28652 0.15005 0.0
C391 C 0.91884 0.3364 0.1784 0.0
N392 N 0.83794 0.37785 0.12116 0.0
N393 N 0.86177 0.23452 0.19062 0.0
H394 H 1.03178 0.40727 0.19665 0.0
H395 H 0.99036 0.33998 0.21461 0.0
H396 H 0.81676 0.1888 0.19258 0.0
H397 H 0.91154 0.24688 0.19611 0.0
H398 H 0.79008 0.35755 0.10435 0.0
H399 H 0.88307 0.42122 0.11549 0.0
H400 H 0.70326 0.29368 0.13364 0.0
H401 H 0.66314 0.22195 0.14438 0.0
C402 C 0.0943 0.61112 0.03985 0.0
C403 C 1.05533 0.5549 0.05423 0.0
C404 C 1.01331 0.50057 0.98955 0.0
C405 C 1.05679 0.55728 0.97545 0.0
N406 N 0.14787 0.66717 0.98713 0.0
N407 N 0.98485 0.4469 0.0432 0.0
C408 C 0.10021 0.61273 0.00066 0.0
C409 C 1.0167 0.49979 0.02914 0.0
N410 N 0.12201 0.66247 0.06326 0.0
N411 N 0.96728 0.44735 0.96504 0.0
H412 H 0.9851 0.44441 0.07187 0.0
H413 H 0.96283 0.4065 0.02673 0.0
H414 H 0.96501 0.4462 0.936 0.0
H415 H 0.92797 0.40453 0.97332 0.0
H416 H 0.14407 0.70314 0.05387 0.0
H417 H 0.11649 0.6631 0.09177 0.0
H418 H 0.1871 0.70896 0.00425 0.0
H419 H 0.15245 0.67024 0.9586 0.0
C420 C 0.64278 0.03438 0.34534 0.0
C421 C 0.65088 0.08036 0.36737 0.0
C422 C 0.62233 0.10352 0.31063 0.0
C423 C 0.6206 0.06135 0.28822 0.0
N424 N 0.64582 0.99694 0.28399 0.0
N425 N 0.66752 0.16931 0.36984 0.0
C426 C 0.63579 0.02979 0.30555 0.0
C427 C 0.64632 0.11812 0.34969 0.0
N428 N 0.63998 0.99409 0.36234 0.0
N429 N 0.59808 0.1277 0.29513 0.0
H430 H 0.68813 0.18259 0.39809 0.0
H431 H 0.67197 0.20169 0.35765 0.0
H432 H 0.57835 0.11724 0.26685 0.0
H433 H 0.5911 0.15359 0.31106 0.0
H434 H 0.62636 0.95568 0.34763 0.0
H435 H 0.64495 0.99597 0.3914 0.0
H436 H 0.66384 0.97779 0.29516 0.0
H437 H 0.64331 0.99408 0.25485 0.0
C438 C 0.56245 0.56591 0.72421 0.0
C439 C 0.60641 0.56211 0.74651 0.0
C440 C 0.67322 0.57937 0.69288 0.0
C441 C 0.6193 0.56968 0.66907 0.0
N442 N 0.50723 0.54774 0.66186 0.0
N443 N 0.6991 0.55744 0.74985 0.0
C444 C 0.5629 0.56218 0.68467 0.0
C445 C 0.66159 0.5678 0.73056 0.0
N446 N 0.52062 0.57361 0.74089 0.0
N447 N 0.73538 0.59926 0.67932 0.0
H448 H 0.69081 0.54579 0.77675 0.0
H449 H 0.73373 0.55441 0.73762 0.0
H450 H 0.74562 0.60867 0.65188 0.0
H451 H 0.77961 0.61249 0.69631 0.0
H452 H 0.4927 0.58232 0.72642 0.0
H453 H 0.52032 0.5779 0.7699 0.0
H454 H 0.46068 0.53506 0.67178 0.0
H455 H 0.50435 0.54334 0.63272 0.0
C456 C 0.5821 0.04971 0.59937 0.0
C457 C 0.63702 0.10371 0.58368 0.0
C458 C 0.70518 0.155 0.64678 0.0
C459 C 0.64456 0.10468 0.6626 0.0
N460 N 0.52231 1.00529 0.65428 0.0
N461 N 0.74884 0.21071 0.59369 0.0
C462 C 0.58252 0.05202 0.63897 0.0
C463 C 0.69884 0.15697 0.60758 0.0
N464 N 0.52988 0.99563 0.57635 0.0
N465 N 0.7689 0.20105 0.66939 0.0
H466 H 0.74653 0.21525 0.56559 0.0
H467 H 0.78973 0.25237 0.6106 0.0
H468 H 0.77478 0.2009 0.69816 0.0
H469 H 0.81749 0.23607 0.65922 0.0
H470 H 0.49337 0.95365 0.58607 0.0
H471 H 0.52753 0.99178 0.54726 0.0
H472 H 0.47208 0.96933 0.63854 0.0
H473 H 0.52084 1.00443 0.6831 0.0
C474 C 0.6289 0.5131 0.95929 0.0
C475 C 0.60139 0.54084 0.95427 0.0
C476 C 0.50802 0.47537 -0.00449 0.0
C477 C 0.52905 0.44203 -0.00428 0.0
N478 N 0.60065 0.42195 0.97208 0.0
N479 N 0.51274 0.54728 0.96621 0.0
C480 C 0.58724 0.45903 0.97611 0.0
C481 C 0.54026 0.52158 0.97202 0.0
N482 N 0.69468 0.5381 0.9482 0.0
N483 N 0.45925 0.46443 0.01868 0.0
H484 H 0.53864 0.58494 0.95205 0.0
H485 H 0.46273 0.52971 0.97403 0.0
H486 H 0.43479 0.43125 0.03646 0.0
H487 H 0.44737 0.49142 0.02262 0.0
H488 H 0.71992 0.5225 0.9542 0.0
H489 H 0.7282 0.57865 0.9369 0.0
H490 H 0.63692 0.42845 0.95451 0.0
H491 H 0.57014 0.38105 0.98321 0.0
C492 C 0.20103 0.5895 0.28831 0.0
C493 C 0.13488 0.56552 0.26824 0.0
C494 C 0.09354 0.57247 0.32738 0.0
C495 C 0.15671 0.59131 0.34765 0.0
N496 N 0.26247 0.60431 0.34776 0.0
N497 N 1.01072 0.51922 0.26997 0.0
C498 C 0.20797 0.59562 0.32818 0.0
C499 C 0.07888 0.55256 0.28815 0.0
N500 N 0.25845 0.60883 0.26953 0.0
N501 N 1.04908 0.57612 0.34509 0.0
H502 H 0.99742 0.50181 0.24167 0.0
H503 H 0.96596 0.50338 0.28372 0.0
H504 H 1.05834 0.59155 0.37364 0.0
H505 H 1.00691 0.56928 0.33075 0.0
H506 H 0.31035 0.63261 0.28301 0.0
H507 H 0.25636 0.60629 0.24043 0.0
H508 H 0.29715 0.60188 0.33495 0.0
H509 H 0.26833 0.60785 0.37693 0.0
loop_
_geom_bond_atom_site_label_1
_geom_bond_atom_site_label_2
_geom_bond_distance
_geom_bond_site_symmetry_2
_ccdc_geom_bond_type
Gd0 C3 2.818 . S
Gd0 O20 2.377 . S
Gd0 O22 2.448 . S
Gd0 O23 2.506 . S
Gd0 O24 2.435 . S
Gd0 O25 2.717 . S
Gd0 O27 2.395 1_455 S
Gd0 O31 2.327 . S
Gd1 C12 2.818 1_455 S
Gd1 O21 2.395 . S
Gd1 O25 2.327 . S
Gd1 O26 2.377 1_455 S
Gd1 O28 2.448 1_455 S
Gd1 O29 2.506 1_455 S
Gd1 O30 2.435 . S
Gd1 O31 2.717 . S
C2 O20 1.240 . S
C2 O21 1.240 . S
C3 Gd0 2.818 . S
C3 C4 1.510 . S
C3 O22 1.249 . S
C3 O23 1.252 . S
C4 C3 1.510 . S
C4 C5 1.404 . S
C4 C6 1.352 . S
C5 C4 1.404 . S
C5 C9 1.389 . S
C5 H32 0.930 . S
C6 C4 1.352 . S
C6 C8 1.374 . S
C6 H33 0.931 . S
C7 C8 1.359 . S
C7 C9 1.364 . S
C8 C6 1.374 . S
C8 C7 1.359 . S
C8 H34 0.931 . S
C9 C5 1.389 . S
C9 C7 1.364 . S
C9 H35 0.931 . S
C10 O24 1.256 . S
C10 O25 1.257 . S
C11 O26 1.240 . S
C11 O27 1.240 . S
C12 Gd1 2.818 1_655 S
C12 C13 1.510 . S
C12 O28 1.249 . S
C12 O29 1.252 . S
C13 C12 1.510 . S
C13 C14 1.404 . S
C13 C15 1.352 . S
C14 C13 1.404 . S
C14 C18 1.389 . S
C14 H36 0.930 . S
C15 C13 1.352 . S
C15 C17 1.374 . S
C15 H37 0.931 . S
C16 C17 1.359 . S
C16 C18 1.364 . S
C17 C15 1.374 . S
C17 C16 1.359 . S
C17 H38 0.931 . S
C18 C14 1.389 . S
C18 C16 1.364 . S
C18 H39 0.931 . S
C19 O30 1.256 . S
C19 O31 1.257 . S
O20 Gd0 2.377 . S
O20 C2 1.240 . S
O21 Gd1 2.395 . S
O21 C2 1.240 . S
O22 Gd0 2.448 . S
O22 C3 1.249 . S
O23 Gd0 2.506 . S
O23 C3 1.252 . S
O24 Gd0 2.435 . S
O24 C10 1.256 . S
O25 Gd0 2.717 . S
O25 Gd1 2.327 . S
O25 C10 1.257 . S
O26 Gd1 2.377 1_655 S
O26 C11 1.240 . S
O27 Gd0 2.395 1_655 S
O27 C11 1.240 . S
O28 Gd1 2.448 1_655 S
O28 C12 1.249 . S
O29 Gd1 2.506 1_655 S
O29 C12 1.252 . S
O30 Gd1 2.435 . S
O30 C19 1.256 . S
O31 Gd0 2.327 . S
O31 Gd1 2.717 . S
O31 C19 1.257 . S
H32 C5 0.930 . S
H33 C6 0.931 . S
H34 C8 0.931 . S
H35 C9 0.931 . S
H36 C14 0.930 . S
H37 C15 0.931 . S
H38 C17 0.931 . S
H39 C18 0.931 . S
Gd40 C43 2.818 1_545 S
Gd40 O60 2.377 1_545 S
Gd40 O62 2.448 1_545 S
Gd40 O63 2.506 1_545 S
Gd40 O64 2.435 . S
Gd40 O65 2.717 . S
Gd40 O67 2.395 . S
Gd40 O71 2.327 . S
Gd41 C52 2.818 . S
Gd41 O61 2.395 1_545 S
Gd41 O65 2.327 . S
Gd41 O66 2.377 . S
Gd41 O68 2.448 . S
Gd41 O69 2.506 . S
Gd41 O70 2.435 . S
Gd41 O71 2.717 . S
C42 O60 1.240 . S
C42 O61 1.240 . S
C43 Gd40 2.818 1_565 S
C43 C44 1.510 . S
C43 O62 1.249 . S
C43 O63 1.252 . S
C44 C43 1.510 . S
C44 C45 1.404 . S
C44 C46 1.352 . S
C45 C44 1.404 . S
C45 C49 1.389 . S
C45 H72 0.930 . S
C46 C44 1.352 . S
C46 C48 1.374 . S
C46 H73 0.931 . S
C47 C48 1.359 . S
C47 C49 1.364 . S
C48 C46 1.374 . S
C48 C47 1.359 . S
C48 H74 0.931 . S
C49 C45 1.389 . S
C49 C47 1.364 . S
C49 H75 0.931 . S
C50 O64 1.256 . S
C50 O65 1.257 . S
C51 O66 1.240 . S
C51 O67 1.240 . S
C52 Gd41 2.818 . S
C52 C53 1.510 . S
C52 O68 1.249 . S
C52 O69 1.252 . S
C53 C52 1.510 . S
C53 C54 1.404 . S
C53 C55 1.352 . S
C54 C53 1.404 . S
C54 C58 1.389 . S
C54 H76 0.930 . S
C55 C53 1.352 . S
C55 C57 1.374 . S
C55 H77 0.931 . S
C56 C57 1.359 . S
C56 C58 1.364 . S
C57 C55 1.374 . S
C57 C56 1.359 . S
C57 H78 0.931 . S
C58 C54 1.389 . S
C58 C56 1.364 . S
C58 H79 0.931 . S
C59 O70 1.256 . S
C59 O71 1.257 . S
O60 Gd40 2.377 1_565 S
O60 C42 1.240 . S
O61 Gd41 2.395 1_565 S
O61 C42 1.240 . S
O62 Gd40 2.448 1_565 S
O62 C43 1.249 . S
O63 Gd40 2.506 1_565 S
O63 C43 1.252 . S
O64 Gd40 2.435 . S
O64 C50 1.256 . S
O65 Gd40 2.717 . S
O65 Gd41 2.327 . S
O65 C50 1.257 . S
O66 Gd41 2.377 . S
O66 C51 1.240 . S
O67 Gd40 2.395 . S
O67 C51 1.240 . S
O68 Gd41 2.448 . S
O68 C52 1.249 . S
O69 Gd41 2.506 . S
O69 C52 1.252 . S
O70 Gd41 2.435 . S
O70 C59 1.256 . S
O71 Gd40 2.327 . S
O71 Gd41 2.717 . S
O71 C59 1.257 . S
H72 C45 0.930 . S
H73 C46 0.931 . S
H74 C48 0.931 . S
H75 C49 0.931 . S
H76 C54 0.930 . S
H77 C55 0.931 . S
H78 C57 0.931 . S
H79 C58 0.931 . S
Gd80 C83 2.818 . S
Gd80 O100 2.377 . S
Gd80 O102 2.448 . S
Gd80 O103 2.506 . S
Gd80 O104 2.435 . S
Gd80 O105 2.717 . S
Gd80 O107 2.395 . S
Gd80 O111 2.327 . S
Gd81 C92 2.818 . S
Gd81 O101 2.395 . S
Gd81 O105 2.327 . S
Gd81 O106 2.377 . S
Gd81 O108 2.448 . S
Gd81 O109 2.506 . S
Gd81 O110 2.435 . S
Gd81 O111 2.717 . S
C82 O100 1.240 . S
C82 O101 1.240 . S
C83 Gd80 2.818 . S
C83 C84 1.510 . S
C83 O102 1.249 . S
C83 O103 1.252 . S
C84 C83 1.510 . S
C84 C85 1.404 . S
C84 C86 1.352 . S
C85 C84 1.404 . S
C85 C89 1.389 . S
C85 H112 0.930 . S
C86 C84 1.352 . S
C86 C88 1.374 . S
C86 H113 0.931 . S
C87 C88 1.359 . S
C87 C89 1.364 . S
C88 C86 1.374 . S
C88 C87 1.359 . S
C88 H114 0.931 . S
C89 C85 1.389 . S
C89 C87 1.364 . S
C89 H115 0.931 . S
C90 O104 1.256 . S
C90 O105 1.257 . S
C91 O106 1.240 . S
C91 O107 1.240 . S
C92 Gd81 2.818 . S
C92 C93 1.510 . S
C92 O108 1.249 . S
C92 O109 1.252 . S
C93 C92 1.510 . S
C93 C94 1.404 . S
C93 C95 1.352 . S
C94 C93 1.404 . S
C94 C98 1.389 . S
C94 H116 0.930 . S
C95 C93 1.352 . S
C95 C97 1.374 . S
C95 H117 0.931 . S
C96 C97 1.359 . S
C96 C98 1.364 . S
C97 C95 1.374 . S
C97 C96 1.359 . S
C97 H118 0.931 . S
C98 C94 1.389 . S
C98 C96 1.364 . S
C98 H119 0.931 . S
C99 O110 1.256 . S
C99 O111 1.257 . S
O100 Gd80 2.377 . S
O100 C82 1.240 . S
O101 Gd81 2.395 . S
O101 C82 1.240 . S
O102 Gd80 2.448 . S
O102 C83 1.249 . S
O103 Gd80 2.506 . S
O103 C83 1.252 . S
O104 Gd80 2.435 . S
O104 C90 1.256 . S
O105 Gd80 2.717 . S
O105 Gd81 2.327 . S
O105 C90 1.257 . S
O106 Gd81 2.377 . S
O106 C91 1.240 . S
O107 Gd80 2.395 . S
O107 C91 1.240 . S
O108 Gd81 2.448 . S
O108 C92 1.249 . S
O109 Gd81 2.506 . S
O109 C92 1.252 . S
O110 Gd81 2.435 . S
O110 C99 1.256 . S
O111 Gd80 2.327 . S
O111 Gd81 2.717 . S
O111 C99 1.257 . S
H112 C85 0.930 . S
H113 C86 0.931 . S
H114 C88 0.931 . S
H115 C89 0.931 . S
H116 C94 0.930 . S
H117 C95 0.931 . S
H118 C97 0.931 . S
H119 C98 0.931 . S
H120 C123 0.929 . S
H121 C126 0.929 . S
H122 C128 0.930 . S
C123 H120 0.929 . S
C123 C124 1.398 . S
C123 C125 1.396 1_565 S
C124 C123 1.398 . S
C124 C128 1.407 1_565 S
C125 C123 1.396 1_545 S
C125 C126 1.394 . S
C126 H121 0.929 . S
C126 C125 1.394 . S
C126 C127 1.382 . S
C127 C126 1.382 . S
C127 C128 1.392 . S
C127 N129 1.420 . S
C128 H122 0.930 . S
C128 C124 1.407 1_545 S
C128 C127 1.392 . S
N129 C127 1.420 . S
N129 C130 1.244 . S
C130 N129 1.244 . S
H131 C134 0.929 . S
H132 C137 0.929 . S
H133 C139 0.930 . S
C134 H131 0.929 . S
C134 C135 1.398 . S
C134 C136 1.396 . S
C135 C134 1.398 . S
C135 C139 1.407 . S
C136 C134 1.396 . S
C136 C137 1.394 . S
C137 H132 0.929 . S
C137 C136 1.394 . S
C137 C138 1.382 . S
C138 C137 1.382 . S
C138 C139 1.392 . S
C138 N140 1.420 . S
C139 H133 0.930 . S
C139 C135 1.407 . S
C139 C138 1.392 . S
N140 C138 1.420 . S
N140 C141 1.244 . S
C141 N140 1.244 . S
H142 C145 0.929 1_655 S
H143 C148 0.929 . S
H144 C150 0.930 . S
C145 H142 0.929 1_455 S
C145 C146 1.398 . S
C145 C147 1.396 . S
C146 C145 1.398 . S
C146 C150 1.407 . S
C147 C145 1.396 . S
C147 C148 1.394 . S
C148 H143 0.929 . S
C148 C147 1.394 . S
C148 C149 1.382 . S
C149 C148 1.382 . S
C149 C150 1.392 . S
C149 N151 1.420 . S
C150 H144 0.930 . S
C150 C146 1.407 . S
C150 C149 1.392 . S
N151 C149 1.420 . S
N151 C152 1.244 . S
C152 N151 1.244 . S
H153 C156 0.929 . S
H154 C159 0.929 . S
H155 C161 0.930 . S
C156 H153 0.929 . S
C156 C157 1.398 . S
C156 C158 1.396 . S
C157 C156 1.398 . S
C157 C161 1.407 . S
C158 C156 1.396 . S
C158 C159 1.394 1_455 S
C159 H154 0.929 . S
C159 C158 1.394 1_655 S
C159 C160 1.382 . S
C160 C159 1.382 . S
C160 C161 1.392 1_655 S
C160 N162 1.420 . S
C161 H155 0.930 . S
C161 C157 1.407 . S
C161 C160 1.392 1_455 S
N162 C160 1.420 . S
N162 C163 1.244 . S
C163 N162 1.244 . S
H164 C167 0.929 . S
H165 C170 0.929 1_565 S
H166 C172 0.930 . S
C167 H164 0.929 . S
C167 C168 1.398 . S
C167 C169 1.396 . S
C168 C167 1.398 . S
C168 C172 1.407 . S
C169 C167 1.396 . S
C169 C170 1.394 . S
C170 H165 0.929 1_545 S
C170 C169 1.394 . S
C170 C171 1.382 . S
C171 C170 1.382 . S
C171 C172 1.392 . S
C171 N173 1.420 . S
C172 H166 0.930 . S
C172 C168 1.407 . S
C172 C171 1.392 . S
N173 C171 1.420 . S
N173 C174 1.244 1_545 S
C174 N173 1.244 1_565 S
H175 C178 0.929 . S
H176 C181 0.929 . S
H177 C183 0.930 . S
C178 H175 0.929 . S
C178 C179 1.398 . S
C178 C180 1.396 . S
C179 C178 1.398 . S
C179 C183 1.407 . S
C180 C178 1.396 . S
C180 C181 1.394 . S
C181 H176 0.929 . S
C181 C180 1.394 . S
C181 C182 1.382 . S
C182 C181 1.382 . S
C182 C183 1.392 . S
C182 N184 1.420 . S
C183 H177 0.930 . S
C183 C179 1.407 . S
C183 C182 1.392 . S
N184 C182 1.420 . S
N184 C185 1.244 . S
C185 N184 1.244 . S
C186 C187 1.363 . S
C186 C192 1.379 . S
C186 N194 1.356 . S
C187 C186 1.363 . S
C187 C193 1.363 . S
C188 C189 1.363 . S
C188 C193 1.379 . S
C188 N195 1.356 . S
C189 C188 1.363 . S
C189 C192 1.363 . S
N190 C192 1.356 . S
N190 H202 0.984 . S
N190 H203 0.985 . S
N191 C193 1.356 . S
N191 H196 0.984 . S
N191 H197 0.985 . S
C192 C186 1.379 . S
C192 C189 1.363 . S
C192 N190 1.356 . S
C193 C187 1.363 . S
C193 C188 1.379 . S
C193 N191 1.356 . S
N194 C186 1.356 . S
N194 H200 0.984 . S
N194 H201 0.984 . S
N195 C188 1.356 . S
N195 H198 0.984 . S
N195 H199 0.985 . S
H196 N191 0.984 . S
H197 N191 0.985 . S
H198 N195 0.984 . S
H199 N195 0.985 . S
H200 N194 0.984 . S
H201 N194 0.984 . S
H202 N190 0.984 . S
H203 N190 0.985 . S
C204 C205 1.363 . S
C204 C210 1.379 . S
C204 N212 1.356 . S
C205 C204 1.363 . S
C205 C211 1.363 . S
C206 C207 1.363 . S
C206 C211 1.379 . S
C206 N213 1.356 . S
C207 C206 1.363 . S
C207 C210 1.363 . S
N208 C210 1.356 . S
N208 H220 0.984 . S
N208 H221 0.985 . S
N209 C211 1.356 . S
N209 H214 0.984 . S
N209 H215 0.985 . S
C210 C204 1.379 . S
C210 C207 1.363 . S
C210 N208 1.356 . S
C211 C205 1.363 . S
C211 C206 1.379 . S
C211 N209 1.356 . S
N212 C204 1.356 . S
N212 H218 0.984 . S
N212 H219 0.984 . S
N213 C206 1.356 . S
N213 H216 0.984 . S
N213 H217 0.985 . S
H214 N209 0.984 . S
H215 N209 0.985 . S
H216 N213 0.984 . S
H217 N213 0.985 . S
H218 N212 0.984 . S
H219 N212 0.984 . S
H220 N208 0.984 . S
H221 N208 0.985 . S
C222 C223 1.363 . S
C222 C228 1.379 . S
C222 N230 1.356 . S
C223 C222 1.363 . S
C223 C229 1.363 . S
C224 C225 1.363 . S
C224 C229 1.379 . S
C224 N231 1.356 1_565 S
C225 C224 1.363 . S
C225 C228 1.363 . S
N226 C228 1.356 . S
N226 H238 0.984 . S
N226 H239 0.985 . S
N227 C229 1.356 . S
N227 H232 0.984 . S
N227 H233 0.985 . S
C228 C222 1.379 . S
C228 C225 1.363 . S
C228 N226 1.356 . S
C229 C223 1.363 . S
C229 C224 1.379 . S
C229 N227 1.356 . S
N230 C222 1.356 . S
N230 H236 0.984 . S
N230 H237 0.984 . S
N231 C224 1.356 1_545 S
N231 H234 0.984 . S
N231 H235 0.985 . S
H232 N227 0.984 . S
H233 N227 0.985 . S
H234 N231 0.984 . S
H235 N231 0.985 . S
H236 N230 0.984 . S
H237 N230 0.984 . S
H238 N226 0.984 . S
H239 N226 0.985 . S
C240 C241 1.363 . S
C240 C246 1.379 . S
C240 N248 1.356 . S
C241 C240 1.363 . S
C241 C247 1.363 . S
C242 C243 1.363 . S
C242 C247 1.379 . S
C242 N249 1.356 . S
C243 C242 1.363 . S
C243 C246 1.363 . S
N244 C246 1.356 . S
N244 H256 0.984 . S
N244 H257 0.985 . S
N245 C247 1.356 . S
N245 H250 0.984 . S
N245 H251 0.985 . S
C246 C240 1.379 . S
C246 C243 1.363 . S
C246 N244 1.356 . S
C247 C241 1.363 . S
C247 C242 1.379 . S
C247 N245 1.356 . S
N248 C240 1.356 . S
N248 H254 0.984 . S
N248 H255 0.984 . S
N249 C242 1.356 . S
N249 H252 0.984 . S
N249 H253 0.985 . S
H250 N245 0.984 . S
H251 N245 0.985 . S
H252 N249 0.984 . S
H253 N249 0.985 . S
H254 N248 0.984 . S
H255 N248 0.984 . S
H256 N244 0.984 . S
H257 N244 0.985 . S
C258 C259 1.363 . S
C258 C264 1.379 . S
C258 N266 1.356 . S
C259 C258 1.363 . S
C259 C265 1.363 . S
C260 C261 1.363 . S
C260 C265 1.379 . S
C260 N267 1.356 . S
C261 C260 1.363 . S
C261 C264 1.363 . S
N262 C264 1.356 . S
N262 H274 0.984 . S
N262 H275 0.985 . S
N263 C265 1.356 . S
N263 H268 0.984 . S
N263 H269 0.985 . S
C264 C258 1.379 . S
C264 C261 1.363 . S
C264 N262 1.356 . S
C265 C259 1.363 . S
C265 C260 1.379 . S
C265 N263 1.356 . S
N266 C258 1.356 . S
N266 H272 0.984 . S
N266 H273 0.984 . S
N267 C260 1.356 . S
N267 H270 0.984 . S
N267 H271 0.985 . S
H268 N263 0.984 . S
H269 N263 0.985 . S
H270 N267 0.984 . S
H271 N267 0.985 . S
H272 N266 0.984 . S
H273 N266 0.984 . S
H274 N262 0.984 . S
H275 N262 0.985 . S
C276 C277 1.363 . S
C276 C282 1.379 . S
C276 N284 1.356 . S
C277 C276 1.363 . S
C277 C283 1.363 . S
C278 C279 1.363 . S
C278 C283 1.379 . S
C278 N285 1.356 . S
C279 C278 1.363 . S
C279 C282 1.363 . S
N280 C282 1.356 . S
N280 H292 0.984 . S
N280 H293 0.985 . S
N281 C283 1.356 . S
N281 H286 0.984 . S
N281 H287 0.985 . S
C282 C276 1.379 . S
C282 C279 1.363 . S
C282 N280 1.356 . S
C283 C277 1.363 . S
C283 C278 1.379 . S
C283 N281 1.356 . S
N284 C276 1.356 . S
N284 H290 0.984 . S
N284 H291 0.984 . S
N285 C278 1.356 . S
N285 H288 0.984 . S
N285 H289 0.985 . S
H286 N281 0.984 . S
H287 N281 0.985 . S
H288 N285 0.984 . S
H289 N285 0.985 . S
H290 N284 0.984 . S
H291 N284 0.984 . S
H292 N280 0.984 . S
H293 N280 0.985 . S
C294 C295 1.363 . S
C294 C300 1.379 . S
C294 N302 1.356 . S
C295 C294 1.363 . S
C295 C301 1.363 . S
C296 C297 1.363 . S
C296 C301 1.379 . S
C296 N303 1.356 . S
C297 C296 1.363 . S
C297 C300 1.363 . S
N298 C300 1.356 . S
N298 H310 0.984 . S
N298 H311 0.985 . S
N299 C301 1.356 . S
N299 H304 0.984 . S
N299 H305 0.985 . S
C300 C294 1.379 . S
C300 C297 1.363 . S
C300 N298 1.356 . S
C301 C295 1.363 . S
C301 C296 1.379 . S
C301 N299 1.356 . S
N302 C294 1.356 . S
N302 H308 0.984 . S
N302 H309 0.984 . S
N303 C296 1.356 . S
N303 H306 0.984 . S
N303 H307 0.985 . S
H304 N299 0.984 . S
H305 N299 0.985 . S
H306 N303 0.984 . S
H307 N303 0.985 . S
H308 N302 0.984 . S
H309 N302 0.984 . S
H310 N298 0.984 . S
H311 N298 0.985 . S
C312 C313 1.363 . S
C312 C318 1.379 . S
C312 N320 1.356 . S
C313 C312 1.363 . S
C313 C319 1.363 . S
C314 C315 1.363 . S
C314 C319 1.379 . S
C314 N321 1.356 . S
C315 C314 1.363 . S
C315 C318 1.363 . S
N316 C318 1.356 . S
N316 H328 0.984 . S
N316 H329 0.985 . S
N317 C319 1.356 . S
N317 H322 0.984 . S
N317 H323 0.985 . S
C318 C312 1.379 . S
C318 C315 1.363 . S
C318 N316 1.356 . S
C319 C313 1.363 . S
C319 C314 1.379 . S
C319 N317 1.356 . S
N320 C312 1.356 . S
N320 H326 0.984 . S
N320 H327 0.984 . S
N321 C314 1.356 . S
N321 H324 0.984 . S
N321 H325 0.985 . S
H322 N317 0.984 . S
H323 N317 0.985 . S
H324 N321 0.984 . S
H325 N321 0.985 . S
H326 N320 0.984 . S
H327 N320 0.984 . S
H328 N316 0.984 . S
H329 N316 0.985 . S
C330 C331 1.363 . S
C330 C336 1.379 . S
C330 N338 1.356 . S
C331 C330 1.363 . S
C331 C337 1.363 . S
C332 C333 1.363 . S
C332 C337 1.379 . S
C332 N339 1.356 . S
C333 C332 1.363 . S
C333 C336 1.363 . S
N334 C336 1.356 . S
N334 H346 0.984 . S
N334 H347 0.985 . S
N335 C337 1.356 . S
N335 H340 0.984 . S
N335 H341 0.985 . S
C336 C330 1.379 . S
C336 C333 1.363 . S
C336 N334 1.356 . S
C337 C331 1.363 . S
C337 C332 1.379 . S
C337 N335 1.356 . S
N338 C330 1.356 . S
N338 H344 0.984 . S
N338 H345 0.984 . S
N339 C332 1.356 . S
N339 H342 0.984 . S
N339 H343 0.985 . S
H340 N335 0.984 . S
H341 N335 0.985 . S
H342 N339 0.984 . S
H343 N339 0.985 . S
H344 N338 0.984 . S
H345 N338 0.984 . S
H346 N334 0.984 . S
H347 N334 0.985 . S
C348 C349 1.363 . S
C348 C354 1.379 . S
C348 N356 1.356 . S
C349 C348 1.363 . S
C349 C355 1.363 . S
C350 C351 1.363 . S
C350 C355 1.379 . S
C350 N357 1.356 . S
C351 C350 1.363 . S
C351 C354 1.363 . S
N352 C354 1.356 . S
N352 H364 0.984 . S
N352 H365 0.985 . S
N353 C355 1.356 . S
N353 H358 0.984 . S
N353 H359 0.985 . S
C354 C348 1.379 . S
C354 C351 1.363 . S
C354 N352 1.356 . S
C355 C349 1.363 . S
C355 C350 1.379 . S
C355 N353 1.356 . S
N356 C348 1.356 . S
N356 H362 0.984 . S
N356 H363 0.984 . S
N357 C350 1.356 . S
N357 H360 0.984 . S
N357 H361 0.985 . S
H358 N353 0.984 . S
H359 N353 0.985 . S
H360 N357 0.984 . S
H361 N357 0.985 . S
H362 N356 0.984 . S
H363 N356 0.984 . S
H364 N352 0.984 . S
H365 N352 0.985 . S
C366 C367 1.363 . S
C366 C372 1.379 . S
C366 N374 1.356 . S
C367 C366 1.363 . S
C367 C373 1.363 . S
C368 C369 1.363 . S
C368 C373 1.379 . S
C368 N375 1.356 . S
C369 C368 1.363 . S
C369 C372 1.363 . S
N370 C372 1.356 . S
N370 H382 0.984 . S
N370 H383 0.985 . S
N371 C373 1.356 . S
N371 H376 0.984 . S
N371 H377 0.985 . S
C372 C366 1.379 . S
C372 C369 1.363 . S
C372 N370 1.356 . S
C373 C367 1.363 . S
C373 C368 1.379 . S
C373 N371 1.356 . S
N374 C366 1.356 . S
N374 H380 0.984 . S
N374 H381 0.984 . S
N375 C368 1.356 . S
N375 H378 0.984 . S
N375 H379 0.985 . S
H376 N371 0.984 . S
H377 N371 0.985 . S
H378 N375 0.984 . S
H379 N375 0.985 . S
H380 N374 0.984 . S
H381 N374 0.984 . S
H382 N370 0.984 . S
H383 N370 0.985 . S
C384 C385 1.363 . S
C384 C390 1.379 . S
C384 N392 1.356 . S
C385 C384 1.363 . S
C385 C391 1.363 . S
C386 C387 1.363 . S
C386 C391 1.379 . S
C386 N393 1.356 . S
C387 C386 1.363 . S
C387 C390 1.363 . S
N388 C390 1.356 . S
N388 H400 0.984 . S
N388 H401 0.985 . S
N389 C391 1.356 . S
N389 H394 0.984 . S
N389 H395 0.985 . S
C390 C384 1.379 . S
C390 C387 1.363 . S
C390 N388 1.356 . S
C391 C385 1.363 . S
C391 C386 1.379 . S
C391 N389 1.356 . S
N392 C384 1.356 . S
N392 H398 0.984 . S
N392 H399 0.984 . S
N393 C386 1.356 . S
N393 H396 0.984 . S
N393 H397 0.985 . S
H394 N389 0.984 . S
H395 N389 0.985 . S
H396 N393 0.984 . S
H397 N393 0.985 . S
H398 N392 0.984 . S
H399 N392 0.984 . S
H400 N388 0.984 . S
H401 N388 0.985 . S
C402 C403 1.363 . S
C402 C408 1.379 . S
C402 N410 1.356 . S
C403 C402 1.363 . S
C403 C409 1.363 . S
C404 C405 1.363 1_554 S
C404 C409 1.379 . S
C404 N411 1.356 1_554 S
C405 C404 1.363 1_556 S
C405 C408 1.363 1_556 S
N406 C408 1.356 1_556 S
N406 H418 0.984 . S
N406 H419 0.985 . S
N407 C409 1.356 . S
N407 H412 0.984 . S
N407 H413 0.985 . S
C408 C402 1.379 . S
C408 C405 1.363 1_554 S
C408 N406 1.356 1_554 S
C409 C403 1.363 . S
C409 C404 1.379 . S
C409 N407 1.356 . S
N410 C402 1.356 . S
N410 H416 0.984 . S
N410 H417 0.984 . S
N411 C404 1.356 1_556 S
N411 H414 0.984 . S
N411 H415 0.985 . S
H412 N407 0.984 . S
H413 N407 0.985 . S
H414 N411 0.984 . S
H415 N411 0.985 . S
H416 N410 0.984 . S
H417 N410 0.984 . S
H418 N406 0.984 . S
H419 N406 0.985 . S
C420 C421 1.363 1_565 S
C420 C426 1.379 1_565 S
C420 N428 1.356 . S
C421 C420 1.363 1_545 S
C421 C427 1.363 . S
C422 C423 1.363 . S
C422 C427 1.379 . S
C422 N429 1.356 . S
C423 C422 1.363 . S
C423 C426 1.363 . S
N424 C426 1.356 1_565 S
N424 H436 0.984 . S
N424 H437 0.985 . S
N425 C427 1.356 . S
N425 H430 0.984 . S
N425 H431 0.985 . S
C426 C420 1.379 1_545 S
C426 C423 1.363 . S
C426 N424 1.356 1_545 S
C427 C421 1.363 . S
C427 C422 1.379 . S
C427 N425 1.356 . S
N428 C420 1.356 . S
N428 H434 0.984 . S
N428 H435 0.984 . S
N429 C422 1.356 . S
N429 H432 0.984 . S
N429 H433 0.985 . S
H430 N425 0.984 . S
H431 N425 0.985 . S
H432 N429 0.984 . S
H433 N429 0.985 . S
H434 N428 0.984 . S
H435 N428 0.984 . S
H436 N424 0.984 . S
H437 N424 0.985 . S
C438 C439 1.363 . S
C438 C444 1.379 . S
C438 N446 1.356 . S
C439 C438 1.363 . S
C439 C445 1.363 . S
C440 C441 1.363 . S
C440 C445 1.379 . S
C440 N447 1.356 . S
C441 C440 1.363 . S
C441 C444 1.363 . S
N442 C444 1.356 . S
N442 H454 0.984 . S
N442 H455 0.985 . S
N443 C445 1.356 . S
N443 H448 0.984 . S
N443 H449 0.985 . S
C444 C438 1.379 . S
C444 C441 1.363 . S
C444 N442 1.356 . S
C445 C439 1.363 . S
C445 C440 1.379 . S
C445 N443 1.356 . S
N446 C438 1.356 . S
N446 H452 0.984 . S
N446 H453 0.984 . S
N447 C440 1.356 . S
N447 H450 0.984 . S
N447 H451 0.985 . S
H448 N443 0.984 . S
H449 N443 0.985 . S
H450 N447 0.984 . S
H451 N447 0.985 . S
H452 N446 0.984 . S
H453 N446 0.984 . S
H454 N442 0.984 . S
H455 N442 0.985 . S
C456 C457 1.363 1_565 S
C456 C462 1.379 . S
C456 N464 1.356 . S
C457 C456 1.363 1_545 S
C457 C463 1.363 . S
C458 C459 1.363 . S
C458 C463 1.379 . S
C458 N465 1.356 . S
C459 C458 1.363 . S
C459 C462 1.363 1_545 S
N460 C462 1.356 . S
N460 H472 0.984 . S
N460 H473 0.985 . S
N461 C463 1.356 . S
N461 H466 0.984 . S
N461 H467 0.985 . S
C462 C456 1.379 . S
C462 C459 1.363 1_565 S
C462 N460 1.356 . S
C463 C457 1.363 . S
C463 C458 1.379 . S
C463 N461 1.356 . S
N464 C456 1.356 . S
N464 H470 0.984 . S
N464 H471 0.984 . S
N465 C458 1.356 . S
N465 H468 0.984 . S
N465 H469 0.985 . S
H466 N461 0.984 . S
H467 N461 0.985 . S
H468 N465 0.984 . S
H469 N465 0.985 . S
H470 N464 0.984 . S
H471 N464 0.984 . S
H472 N460 0.984 . S
H473 N460 0.985 . S
C474 C475 1.363 . S
C474 C480 1.379 . S
C474 N482 1.356 . S
C475 C474 1.363 . S
C475 C481 1.363 . S
C476 C477 1.363 . S
C476 C481 1.379 1_554 S
C476 N483 1.356 . S
C477 C476 1.363 . S
C477 C480 1.363 1_554 S
N478 C480 1.370 . S
N478 H490 0.996 . S
N478 H491 0.960 1_556 S
N479 C481 1.356 . S
N479 H484 0.984 . S
N479 H485 0.985 . S
C480 C474 1.379 . S
C480 C477 1.363 1_556 S
C480 N478 1.370 . S
C481 C475 1.363 . S
C481 C476 1.379 1_556 S
C481 N479 1.356 . S
N482 C474 1.356 . S
N482 H488 0.984 . S
N482 H489 0.984 . S
N483 C476 1.356 . S
N483 H486 0.984 . S
N483 H487 0.985 . S
H484 N479 0.984 . S
H485 N479 0.985 . S
H486 N483 0.984 . S
H487 N483 0.985 . S
H488 N482 0.984 . S
H489 N482 0.984 . S
H490 N478 0.996 . S
H491 N478 0.960 1_554 S
C492 C493 1.363 . S
C492 C498 1.379 . S
C492 N500 1.356 . S
C493 C492 1.363 . S
C493 C499 1.363 1_455 S
C494 C495 1.363 1_655 S
C494 C499 1.379 . S
C494 N501 1.356 . S
C495 C494 1.363 1_455 S
C495 C498 1.363 . S
N496 C498 1.356 . S
N496 H508 0.984 . S
N496 H509 0.985 . S
N497 C499 1.356 . S
N497 H502 0.984 . S
N497 H503 0.985 . S
C498 C492 1.379 . S
C498 C495 1.363 . S
C498 N496 1.356 . S
C499 C493 1.363 1_655 S
C499 C494 1.379 . S
C499 N497 1.356 . S
N500 C492 1.356 . S
N500 H506 0.984 . S
N500 H507 0.984 . S
N501 C494 1.356 . S
N501 H504 0.984 . S
N501 H505 0.985 . S
H502 N497 0.984 . S
H503 N497 0.985 . S
H504 N501 0.984 . S
H505 N501 0.985 . S
H506 N500 0.984 . S
H507 N500 0.984 . S
H508 N496 0.984 . S
H509 N496 0.985 . S
C187 C7 1.166 . S
C189 C185 1.301 . S
C205 C51 1.961 . S
C207 C163 1.897 . S
C223 C87 1.414 . S
C225 C174 1.482 . S
C241 C16 0.706 . S
C243 C179 0.673 . S
C261 C157 1.875 . S
C259 C42 1.932 . S
C279 C168 1.279 . S
C277 C96 1.261 . S
C295 C47 1.364 . S
C297 C141 1.405 . S
C313 C91 3.086 . S
C315 C146 3.034 1_655 S
C331 C2 1.964 . S
C333 C124 1.931 . S
C351 C135 1.307 . S
C349 C56 1.274 . S
C369 C152 3.023 . S
C367 C82 3.078 . S
C385 C11 1.974 . S
C387 C130 1.931 . S
C405 C147 1.753 . S
C403 C19 1.714 . S
C421 C50 1.388 . S
C423 C125 1.448 . S
C439 C99 1.500 . S
C441 C136 1.534 . S
C459 C169 1.493 . S
C457 C59 1.489 . S
C477 C180 1.217 . S
C475 C90 1.224 . S
C493 C10 1.365 . S
C495 C158 1.402 . S
