# Generated by pormake.
# Topology nom, (4,4)-cn, num edge types: 1
# Building blocks:
#     Node 0, Type 0, BuildingBlock: MIFKUJ_clean_linker_1, # of connection points: 4
#     Node 1, Type 0, BuildingBlock: MIFKUJ_clean_linker_1, # of connection points: 4
#     Node 2, Type 0, BuildingBlock: MIFKUJ_clean_linker_1, # of connection points: 4
#     Node 3, Type 0, BuildingBlock: MIFKUJ_clean_linker_1, # of connection points: 4
#     Node 4, Type 0, BuildingBlock: MIFKUJ_clean_linker_1, # of connection points: 4
#     Node 5, Type 0, BuildingBlock: MIFKUJ_clean_linker_1, # of connection points: 4
#     Node 6, Type 1, BuildingBlock: QUQFOY_clean_sbu_1, # of connection points: 4
#     Node 7, Type 1, BuildingBlock: QUQFOY_clean_sbu_1, # of connection points: 4
#     Node 8, Type 1, BuildingBlock: QUQFOY_clean_sbu_1, # of connection points: 4
#     Node 9, Type 1, BuildingBlock: QUQFOY_clean_sbu_1, # of connection points: 4
#     Node 10, Type 1, BuildingBlock: QUQFOY_clean_sbu_1, # of connection points: 4
#     Node 11, Type 1, BuildingBlock: QUQFOY_clean_sbu_1, # of connection points: 4
#     Edge 12, Type (0, 1), BuildingBlock: AJUNOK_clean_linker_0, # of connection points: 2
#     Edge 13, Type (0, 1), BuildingBlock: AJUNOK_clean_linker_0, # of connection points: 2
#     Edge 14, Type (0, 1), BuildingBlock: AJUNOK_clean_linker_0, # of connection points: 2
#     Edge 15, Type (0, 1), BuildingBlock: AJUNOK_clean_linker_0, # of connection points: 2
#     Edge 16, Type (0, 1), BuildingBlock: AJUNOK_clean_linker_0, # of connection points: 2
#     Edge 17, Type (0, 1), BuildingBlock: AJUNOK_clean_linker_0, # of connection points: 2
#     Edge 18, Type (0, 1), BuildingBlock: AJUNOK_clean_linker_0, # of connection points: 2
#     Edge 19, Type (0, 1), BuildingBlock: AJUNOK_clean_linker_0, # of connection points: 2
#     Edge 20, Type (0, 1), BuildingBlock: AJUNOK_clean_linker_0, # of connection points: 2
#     Edge 21, Type (0, 1), BuildingBlock: AJUNOK_clean_linker_0, # of connection points: 2
#     Edge 22, Type (0, 1), BuildingBlock: AJUNOK_clean_linker_0, # of connection points: 2
#     Edge 23, Type (0, 1), BuildingBlock: AJUNOK_clean_linker_0, # of connection points: 2
#     Edge 24, Type (0, 1), BuildingBlock: AJUNOK_clean_linker_0, # of connection points: 2
#     Edge 25, Type (0, 1), BuildingBlock: AJUNOK_clean_linker_0, # of connection points: 2
#     Edge 26, Type (0, 1), BuildingBlock: AJUNOK_clean_linker_0, # of connection points: 2
#     Edge 27, Type (0, 1), BuildingBlock: AJUNOK_clean_linker_0, # of connection points: 2
#     Edge 28, Type (0, 1), BuildingBlock: AJUNOK_clean_linker_0, # of connection points: 2
#     Edge 29, Type (0, 1), BuildingBlock: AJUNOK_clean_linker_0, # of connection points: 2
#     Edge 30, Type (0, 1), BuildingBlock: AJUNOK_clean_linker_0, # of connection points: 2
#     Edge 31, Type (0, 1), BuildingBlock: AJUNOK_clean_linker_0, # of connection points: 2
#     Edge 32, Type (0, 1), BuildingBlock: AJUNOK_clean_linker_0, # of connection points: 2
#     Edge 33, Type (0, 1), BuildingBlock: AJUNOK_clean_linker_0, # of connection points: 2
#     Edge 34, Type (0, 1), BuildingBlock: AJUNOK_clean_linker_0, # of connection points: 2
#     Edge 35, Type (0, 1), BuildingBlock: AJUNOK_clean_linker_0, # of connection points: 2
# Relax obj value: 0.014
# Max RMSD: 0.117
# Mean RMSD: 0.112
data_MOF--net-nom--node1-QUQFOY_clean_sbu_1--node2-MIFKUJ_clean_linker_1--edge1-AJUNOK_clean_linker_0
_symmetry_space_group_name_H-M    P1
_symmetry_Int_Tables_number       1
_symmetry_cell_setting            triclinic
loop_
_symmetry_equiv_pos_as_xyz
'x, y, z'
_cell_length_a     43.702318
_cell_length_b     43.602724
_cell_length_c     41.802771
_cell_angle_alpha  90.001489
_cell_angle_beta   89.940504
_cell_angle_gamma 120.025
loop_
_atom_site_label
_atom_site_type_symbol
_atom_site_fract_x
_atom_site_fract_y
_atom_site_fract_z
_atom_type_partial_charge
H0 H 0.97724 0.46162 0.26171 0.0
H1 H 0.92983 0.43868 0.22198 0.0
H2 H 0.89012 0.50301 0.26288 0.0
H3 H 0.93866 0.52719 0.30156 0.0
H4 H 0.03052 0.53097 0.27279 0.0
H5 H 0.92332 0.441 0.3293 0.0
H6 H 0.86235 0.42197 0.3452 0.0
H7 H 0.89994 0.5161 0.40302 0.0
H8 H 0.96024 0.53614 0.38544 0.0
H9 H 0.05648 0.57798 0.40478 0.0
H10 H 0.10464 0.60017 0.44371 0.0
H11 H 0.14997 0.54566 0.39372 0.0
H12 H 0.10119 0.52271 0.35519 0.0
H13 H 1.00589 0.51467 0.38933 0.0
H14 H 0.09713 0.61019 0.33618 0.0
H15 H 0.15714 0.65009 0.31742 0.0
H16 H 0.15108 0.5677 0.25585 0.0
H17 H 0.09097 0.52723 0.27553 0.0
C18 C 0.96133 0.49588 0.28474 0.0
C19 C 0.9585 0.471 0.26193 0.0
C20 C 0.93122 0.45768 0.23946 0.0
C21 C 0.90628 0.46907 0.23928 0.0
C22 C 0.90923 0.49412 0.26209 0.0
C23 C 0.93676 0.50771 0.28438 0.0
C24 C 0.9899 0.50903 0.30898 0.0
C25 C 0.02514 0.52679 0.29824 0.0
C26 C 0.98279 0.50536 0.34231 0.0
C27 C 0.94637 0.49054 0.35539 0.0
C28 C 0.91841 0.45759 0.34531 0.0
C29 C 0.88361 0.44658 0.35463 0.0
C30 C 0.87626 0.46803 0.37465 0.0
C31 C 0.9046 0.49957 0.38669 0.0
C32 C 0.93919 0.51083 0.37698 0.0
C33 C 0.07533 0.54887 0.37696 0.0
C34 C 0.07668 0.57066 0.40225 0.0
C35 C 0.10441 0.58366 0.42424 0.0
C36 C 0.13131 0.57509 0.42136 0.0
C37 C 0.12965 0.55279 0.39636 0.0
C38 C 0.10191 0.53981 0.37432 0.0
C39 C 0.04637 0.53597 0.35308 0.0
C40 C 0.01121 0.51826 0.36384 0.0
C41 C 0.05343 0.54144 0.3199 0.0
C42 C 0.08973 0.5655 0.30768 0.0
C43 C 0.10878 0.6005 0.31891 0.0
C44 C 0.14299 0.62339 0.30797 0.0
C45 C 0.15891 0.61194 0.28535 0.0
C46 C 0.13969 0.57705 0.2737 0.0
C47 C 0.1053 0.55404 0.28471 0.0
H48 H 0.43455 0.96197 0.53924 0.0
H49 H 0.39238 0.9023 0.55769 0.0
H50 H 0.45946 0.86423 0.52028 0.0
H51 H 0.50289 0.92468 0.50395 0.0
H52 H 0.50624 0.00737 0.55334 0.0
H53 H 0.43853 0.9613 0.44138 0.0
H54 H 0.41657 0.91406 0.4013 0.0
H55 H 0.51058 0.90608 0.41367 0.0
H56 H 0.53329 0.95505 0.45196 0.0
H57 H 0.5829 0.09228 0.43959 0.0
H58 H 0.6001 0.15111 0.41753 0.0
H59 H 0.52039 0.15486 0.47569 0.0
H60 H 0.50306 0.09634 0.49725 0.0
H61 H 0.52047 0.03024 0.43645 0.0
H62 H 0.59518 0.10363 0.51762 0.0
H63 H 0.62171 0.15181 0.55661 0.0
H64 H 0.52317 0.10514 0.60875 0.0
H65 H 0.49624 0.05781 0.56897 0.0
C66 C 0.47141 0.94766 0.5193 0.0
C67 C 0.44038 0.94086 0.53527 0.0
C68 C 0.41609 0.90664 0.54548 0.0
C69 C 0.42204 0.8783 0.53953 0.0
C70 C 0.45393 0.88542 0.52487 0.0
C71 C 0.47852 0.91987 0.51506 0.0
C72 C 0.49534 0.98377 0.50653 0.0
C73 C 0.50958 0.0125 0.52782 0.0
C74 C 0.50097 0.99038 0.47332 0.0
C75 C 0.48726 0.96122 0.44979 0.0
C76 C 0.45427 0.94924 0.43539 0.0
C77 C 0.44159 0.92191 0.41284 0.0
C78 C 0.46144 0.90564 0.40473 0.0
C79 C 0.4946 0.91796 0.41928 0.0
C80 C 0.50756 0.94579 0.44128 0.0
C81 C 0.54187 0.09 0.47025 0.0
C82 C 0.56917 0.10582 0.44754 0.0
C83 C 0.57905 0.13939 0.43506 0.0
C84 C 0.5613 0.15727 0.44469 0.0
C85 C 0.53415 0.14142 0.46751 0.0
C86 C 0.52447 0.10814 0.48006 0.0
C87 C 0.53039 0.05412 0.48328 0.0
C88 C 0.51816 0.02541 0.46204 0.0
C89 C 0.52764 0.04763 0.51666 0.0
C90 C 0.54363 0.07707 0.54025 0.0
C91 C 0.57913 0.10395 0.53723 0.0
C92 C 0.59441 0.13127 0.55972 0.0
C93 C 0.57462 0.13201 0.58591 0.0
C94 C 0.53902 0.1053 0.58874 0.0
C95 C 0.52371 0.07808 0.56618 0.0
H96 H 0.54212 0.59441 0.7024 0.0
H97 H 0.52133 0.62269 0.74046 0.0
H98 H 0.42043 0.52574 0.74593 0.0
H99 H 0.44073 0.49876 0.70612 0.0
H100 H 0.52952 0.5121 0.71291 0.0
H101 H 0.50275 0.59278 0.6493 0.0
H102 H 0.45889 0.60983 0.63532 0.0
H103 H 0.39096 0.50518 0.59699 0.0
H104 H 0.43359 0.48753 0.61311 0.0
H105 H 0.48863 0.43695 0.59523 0.0
H106 H 0.51095 0.41156 0.55565 0.0
H107 H 0.61772 0.49491 0.57558 0.0
H108 H 0.59524 0.51827 0.61676 0.0
H109 H 0.50096 0.50933 0.59763 0.0
H110 H 0.50576 0.42367 0.65701 0.0
H111 H 0.52665 0.38505 0.67719 0.0
H112 H 0.61238 0.47378 0.72585 0.0
H113 H 0.592 0.51301 0.7043 0.0
C114 C 0.4928 0.54471 0.70138 0.0
C115 C 0.51546 0.57946 0.71173 0.0
C116 C 0.50352 0.5955 0.7335 0.0
C117 C 0.46894 0.57677 0.74589 0.0
C118 C 0.44671 0.54149 0.73604 0.0
C119 C 0.45842 0.52577 0.71368 0.0
C120 C 0.50495 0.52839 0.67726 0.0
C121 C 0.52413 0.51227 0.6876 0.0
C122 C 0.49545 0.52639 0.64464 0.0
C123 C 0.47102 0.5385 0.63324 0.0
C124 C 0.47815 0.57332 0.63843 0.0
C125 C 0.45328 0.5832 0.63 0.0
C126 C 0.42107 0.55858 0.61578 0.0
C127 C 0.41498 0.52441 0.6089 0.0
C128 C 0.43956 0.51442 0.61774 0.0
C129 C 0.54034 0.47932 0.60893 0.0
C130 C 0.51686 0.44942 0.59121 0.0
C131 C 0.5297 0.43505 0.56857 0.0
C132 C 0.56624 0.45087 0.56261 0.0
C133 C 0.58959 0.48119 0.58023 0.0
C134 C 0.57676 0.49494 0.60348 0.0
C135 C 0.52696 0.49456 0.63306 0.0
C136 C 0.50729 0.5101 0.62282 0.0
C137 C 0.53415 0.49423 0.66598 0.0
C138 C 0.54777 0.47144 0.67849 0.0
C139 C 0.52949 0.43509 0.67146 0.0
C140 C 0.5412 0.41291 0.68337 0.0
C141 C 0.57126 0.42639 0.70298 0.0
C142 C 0.58948 0.46276 0.71035 0.0
C143 C 0.57773 0.48512 0.69826 0.0
H144 H 0.05855 0.57839 0.76415 0.0
H145 H 0.10514 0.60358 0.72354 0.0
H146 H 0.1443 0.53561 0.75626 0.0
H147 H 0.09662 0.50931 0.79578 0.0
H148 H 1.00484 0.50863 0.77272 0.0
H149 H 0.11274 0.59416 0.83088 0.0
H150 H 0.17415 0.61304 0.84499 0.0
H151 H 0.13895 0.51393 0.89437 0.0
H152 H 0.07817 0.49439 0.87875 0.0
H153 H 0.97227 0.44017 0.892 0.0
H154 H 0.92549 0.41591 0.93235 0.0
H155 H 0.90087 0.49816 0.91071 0.0
H156 H 0.94596 0.52047 0.86861 0.0
H157 H 0.03196 0.51468 0.88859 0.0
H158 H 0.94108 0.42405 0.83167 0.0
H159 H 0.88107 0.38474 0.81306 0.0
H160 H 0.88328 0.47139 0.76099 0.0
H161 H 0.94337 0.51133 0.78098 0.0
C162 C 0.07441 0.54236 0.7833 0.0
C163 C 0.07714 0.56889 0.76251 0.0
C164 C 0.10407 0.5836 0.73963 0.0
C165 C 0.12887 0.57213 0.73718 0.0
C166 C 0.12571 0.54512 0.75769 0.0
C167 C 0.09859 0.53021 0.78038 0.0
C168 C 0.0463 0.52759 0.80807 0.0
C169 C 0.01081 0.51073 0.79808 0.0
C170 C 0.05413 0.52841 0.84111 0.0
C171 C 0.09085 0.54246 0.85305 0.0
C172 C 0.11827 0.57648 0.84469 0.0
C173 C 0.15331 0.58736 0.85297 0.0
C174 C 0.16142 0.56459 0.8701 0.0
C175 C 0.13364 0.53162 0.88032 0.0
C176 C 0.09881 0.52061 0.87173 0.0
C177 C 0.96263 0.4822 0.87761 0.0
C178 C 0.95668 0.45285 0.89598 0.0
C179 C 0.93015 0.43926 0.91923 0.0
C180 C 0.90999 0.45566 0.92543 0.0
C181 C 0.91581 0.48484 0.90657 0.0
C182 C 0.94172 0.4978 0.88269 0.0
C183 C 0.9909 0.49674 0.85317 0.0
C184 C 0.0262 0.51348 0.86323 0.0
C185 C 0.98302 0.4942 0.82019 0.0
C186 C 0.94646 0.47086 0.80838 0.0
C187 C 0.92849 0.43486 0.81678 0.0
C188 C 0.89431 0.41228 0.80578 0.0
C189 C 0.87733 0.425 0.78572 0.0
C190 C 0.89544 0.46099 0.7769 0.0
C191 C 0.92982 0.48373 0.78808 0.0
H192 H 0.60106 0.07641 0.04339 0.0
H193 H 0.64147 0.13586 0.0632 0.0
H194 H 0.5766 0.17361 0.02004 0.0
H195 H 0.53447 0.11332 0.0031 0.0
H196 H 0.53032 0.03087 0.05508 0.0
H197 H 0.59924 0.07683 0.94254 0.0
H198 H 0.61962 0.12243 0.90081 0.0
H199 H 0.52483 0.12898 0.91357 0.0
H200 H 0.50359 0.08146 0.95317 0.0
H201 H 0.45701 0.94546 0.94054 0.0
H202 H 0.44066 0.88671 0.91894 0.0
H203 H 0.51802 0.88281 0.98031 0.0
H204 H 0.53474 0.94138 0.00119 0.0
H205 H 0.51833 0.00716 0.93835 0.0
H206 H 0.44277 0.93382 0.01948 0.0
H207 H 0.41645 0.88561 0.05855 0.0
H208 H 0.51447 0.93374 0.11136 0.0
H209 H 0.54118 0.98112 0.07156 0.0
C210 C 0.56515 0.09046 0.02092 0.0
C211 C 0.59522 0.09738 0.0386 0.0
C212 C 0.61849 0.13149 0.04971 0.0
C213 C 0.61249 0.15969 0.04312 0.0
C214 C 0.58188 0.15255 0.02602 0.0
C215 C 0.55816 0.11815 0.01552 0.0
C216 C 0.54189 0.05421 0.00811 0.0
C217 C 0.52753 0.02559 0.02958 0.0
C218 C 0.53685 0.0473 0.9749 0.0
C219 C 0.5501 0.0761 0.95099 0.0
C220 C 0.58291 0.08809 0.93613 0.0
C221 C 0.59456 0.11429 0.91247 0.0
C222 C 0.57367 0.12912 0.90346 0.0
C223 C 0.54113 0.11744 0.91907 0.0
C224 C 0.52913 0.09064 0.94206 0.0
C225 C 0.4969 0.94773 0.97268 0.0
C226 C 0.47044 0.93192 0.94927 0.0
C227 C 0.46103 0.89838 0.93705 0.0
C228 C 0.47837 0.88046 0.9477 0.0
C229 C 0.50464 0.89627 0.97126 0.0
C230 C 0.51392 0.92959 0.98347 0.0
C231 C 0.50795 0.98365 0.98537 0.0
C232 C 0.52024 0.01218 0.9639 0.0
C233 C 0.51004 0.99038 0.01868 0.0
C234 C 0.49404 0.96111 0.04247 0.0
C235 C 0.45873 0.93385 0.0393 0.0
C236 C 0.44357 0.90651 0.06182 0.0
C237 C 0.4633 0.90612 0.08817 0.0
C238 C 0.49867 0.93329 0.09122 0.0
C239 C 0.51386 0.96054 0.06865 0.0
H240 H 0.50316 0.46297 0.22315 0.0
H241 H 0.52698 0.43946 0.26302 0.0
H242 H 0.63152 0.50396 0.2233 0.0
H243 H 0.60778 0.52866 0.18442 0.0
H244 H 0.51974 0.5327 0.21253 0.0
H245 H 0.53774 0.44314 0.15566 0.0
H246 H 0.57989 0.42445 0.1394 0.0
H247 H 0.63618 0.51922 0.08228 0.0
H248 H 0.59573 0.5389 0.10018 0.0
H249 H 0.5412 0.57892 0.07958 0.0
H250 H 0.51515 0.59973 0.03943 0.0
H251 H 0.41625 0.54915 0.09108 0.0
H252 H 0.44203 0.52723 0.13065 0.0
H253 H 0.5287 0.51706 0.09602 0.0
H254 H 0.53343 0.61261 0.14924 0.0
H255 H 0.51555 0.65369 0.16981 0.0
H256 H 0.43867 0.57155 0.23116 0.0
H257 H 0.45626 0.52997 0.20994 0.0
C258 C 0.5536 0.49733 0.20065 0.0
C259 C 0.53125 0.47226 0.22321 0.0
C260 C 0.54484 0.45862 0.24577 0.0
C261 C 0.58112 0.46988 0.24633 0.0
C262 C 0.60354 0.49515 0.2238 0.0
C263 C 0.58996 0.50904 0.20139 0.0
C264 C 0.53854 0.51087 0.17636 0.0
C265 C 0.52108 0.52868 0.18707 0.0
C266 C 0.54225 0.5075 0.14303 0.0
C267 C 0.5641 0.49296 0.12992 0.0
C268 C 0.55925 0.45996 0.13974 0.0
C269 C 0.58314 0.44913 0.13021 0.0
C270 C 0.6119 0.47085 0.11026 0.0
C271 C 0.61499 0.50248 0.09853 0.0
C272 C 0.59157 0.51354 0.10844 0.0
C273 C 0.49362 0.5515 0.10818 0.0
C274 C 0.51383 0.57206 0.08218 0.0
C275 C 0.49901 0.58419 0.0594 0.0
C276 C 0.46362 0.5759 0.06205 0.0
C277 C 0.44342 0.5555 0.08817 0.0
C278 C 0.45825 0.54329 0.11095 0.0
C279 C 0.50948 0.53843 0.1322 0.0
C280 C 0.52686 0.52059 0.1215 0.0
C281 C 0.50773 0.54369 0.16541 0.0
C282 C 0.49596 0.56807 0.1778 0.0
C283 C 0.51248 0.60324 0.16689 0.0
C284 C 0.50251 0.62681 0.17891 0.0
C285 C 0.47603 0.61589 0.20236 0.0
C286 C 0.45919 0.58061 0.21312 0.0
C287 C 0.46929 0.55695 0.20112 0.0
O288 O 0.5969 0.37861 0.43862 0.0
Cd289 Cd 0.60882 0.35765 0.39947 0.0
Cd290 Cd 0.67149 0.41677 0.40616 0.0
O291 O 0.65154 0.41951 0.45036 0.0
O292 O 0.57215 0.30651 0.39919 0.0
O293 O 0.62889 0.32537 0.40637 0.0
C294 C 0.5968 0.29919 0.40479 0.0
C295 C 0.73039 0.4305 0.40104 0.0
C296 C 0.61878 0.40269 0.45714 0.0
C297 C 0.6266 0.41081 0.34859 0.0
O298 O 0.65241 0.43059 0.36666 0.0
O299 O 0.60676 0.37834 0.3557 0.0
O300 O 0.72212 0.4545 0.40657 0.0
O301 O 0.70505 0.39797 0.39986 0.0
O302 O 0.23808 0.60351 0.61906 0.0
Cd303 Cd 0.26905 0.61062 0.57949 0.0
Cd304 Cd 0.27067 0.67429 0.57922 0.0
O305 O 0.24456 0.65686 0.62258 0.0
O306 O 0.28075 0.57223 0.58419 0.0
O307 O 0.32138 0.62902 0.58441 0.0
C308 C 0.31344 0.59633 0.58715 0.0
C309 C 0.315 0.73339 0.57212 0.0
C310 C 0.23198 0.62558 0.63343 0.0
C311 C 0.23445 0.62332 0.52404 0.0
O312 O 0.24136 0.6517 0.53847 0.0
O313 O 0.24475 0.60304 0.53559 0.0
O314 O 0.2822 0.72441 0.57473 0.0
O315 O 0.32312 0.70884 0.57527 0.0
O316 O 0.65396 0.24045 0.78783 0.0
Cd317 Cd 0.6763 0.26994 0.74691 0.0
Cd318 Cd 0.61546 0.27084 0.74408 0.0
O319 O 0.60453 0.24246 0.7862 0.0
O320 O 0.7276 0.28582 0.74966 0.0
O321 O 0.70713 0.32301 0.75032 0.0
C322 C 0.73381 0.31794 0.75177 0.0
C323 C 0.60678 0.31945 0.7398 0.0
C324 C 0.62389 0.23203 0.79948 0.0
C325 C 0.62951 0.23396 0.69035 0.0
O326 O 0.60815 0.24233 0.70277 0.0
O327 O 0.65909 0.24351 0.70367 0.0
O328 O 0.58061 0.28746 0.74153 0.0
O329 O 0.63832 0.32405 0.74155 0.0
O330 O 0.4351 0.65619 0.94535 0.0
Cd331 Cd 0.4308 0.67961 0.90421 0.0
Cd332 Cd 0.36703 0.61766 0.90008 0.0
O333 O 0.38347 0.60701 0.94313 0.0
O334 O 0.46816 0.73026 0.90832 0.0
O335 O 0.41129 0.7129 0.90659 0.0
C336 C 0.44359 0.73837 0.90931 0.0
C337 C 0.30788 0.60293 0.89406 0.0
C338 C 0.41286 0.62631 0.95709 0.0
C339 C 0.42074 0.63344 0.84765 0.0
O340 O 0.39017 0.61261 0.85883 0.0
O341 O 0.4415 0.66221 0.86193 0.0
O342 O 0.31707 0.57914 0.89516 0.0
O343 O 0.33237 0.63557 0.89761 0.0
O344 O 0.80236 0.38267 0.04667 0.0
Cd345 Cd 0.768 0.36089 0.08463 0.0
Cd346 Cd 0.76595 0.4205 0.07813 0.0
O347 O 0.79067 0.42499 0.03468 0.0
O348 O 0.75265 0.30958 0.08273 0.0
O349 O 0.71567 0.32999 0.0772 0.0
C350 C 0.721 0.30338 0.07735 0.0
C351 C 0.72068 0.43413 0.08291 0.0
C352 C 0.80646 0.40786 0.02859 0.0
C353 C 0.80259 0.41226 0.13649 0.0
O354 O 0.79737 0.43265 0.11844 0.0
O355 O 0.78976 0.37986 0.12898 0.0
O356 O 0.75308 0.45828 0.07831 0.0
O357 O 0.71345 0.40155 0.08319 0.0
O358 O 0.43114 0.79553 0.20445 0.0
Cd359 Cd 0.42496 0.76673 0.24536 0.0
Cd360 Cd 0.36154 0.76491 0.24762 0.0
O361 O 0.3792 0.79229 0.2048 0.0
O362 O 0.46286 0.75414 0.24242 0.0
O363 O 0.40611 0.71401 0.24212 0.0
C364 C 0.43861 0.72133 0.24045 0.0
C365 C 0.30336 0.71776 0.25199 0.0
C366 C 0.40924 0.80304 0.19188 0.0
C367 C 0.41286 0.80237 0.3014 0.0
O368 O 0.38294 0.79335 0.28913 0.0
O369 O 0.43365 0.79378 0.28805 0.0
O370 O 0.31048 0.75019 0.25027 0.0
O371 O 0.32951 0.71188 0.25028 0.0
C372 C 0.20409 0.67137 0.2645 0.0
C373 C 0.19533 0.63698 0.27393 0.0
C374 C 0.23882 0.69674 0.25642 0.0
C375 C 0.26638 0.68888 0.25744 0.0
H376 H 0.18396 0.67894 0.2638 0.0
H377 H 0.24412 0.72301 0.24992 0.0
S378 S 0.25714 0.60219 0.27975 0.0
N379 N 0.21677 0.59596 0.2832 0.0
N380 N 0.28215 0.64356 0.26772 0.0
C381 C 0.2578 0.65417 0.26585 0.0
C382 C 0.22228 0.62826 0.27413 0.0
C383 C 0.60566 0.22086 0.43287 0.0
C384 C 0.57075 0.19242 0.43116 0.0
C385 C 0.61418 0.25512 0.42321 0.0
C386 C 0.58811 0.26214 0.41136 0.0
H387 H 0.62628 0.21686 0.44285 0.0
H388 H 0.6412 0.27641 0.42603 0.0
S389 S 0.49351 0.1954 0.39832 0.0
N390 N 0.51065 0.17264 0.41405 0.0
N391 N 0.52636 0.23668 0.39586 0.0
C392 C 0.5534 0.2334 0.40808 0.0
C393 C 0.54481 0.19866 0.418 0.0
C394 C 0.40229 0.60041 0.59378 0.0
C395 C 0.39344 0.56811 0.60886 0.0
C396 C 0.37637 0.60953 0.58689 0.0
C397 C 0.34062 0.58653 0.59458 0.0
H398 H 0.42939 0.61859 0.58691 0.0
H399 H 0.38433 0.63454 0.5751 0.0
S400 S 0.30424 0.50058 0.63728 0.0
N401 N 0.34682 0.51454 0.63363 0.0
N402 N 0.29813 0.53109 0.61994 0.0
C403 C 0.33155 0.55446 0.61014 0.0
C404 C 0.35793 0.5454 0.61746 0.0
C405 C 0.83336 0.36681 0.76187 0.0
C406 C 0.84107 0.40005 0.7739 0.0
C407 C 0.79883 0.34107 0.75376 0.0
C408 C 0.77044 0.34743 0.7572 0.0
H409 H 0.85417 0.36036 0.75924 0.0
H410 H 0.79434 0.31566 0.7453 0.0
S411 S 0.7767 0.43083 0.78638 0.0
N412 N 0.81769 0.43846 0.78798 0.0
N413 N 0.75268 0.39022 0.77224 0.0
C414 C 0.77793 0.38111 0.76799 0.0
C415 C 0.81325 0.40737 0.77642 0.0
C416 C 0.43418 0.81717 0.93458 0.0
C417 C 0.46935 0.84527 0.93452 0.0
C418 C 0.42581 0.78287 0.92523 0.0
C419 C 0.45232 0.77547 0.91545 0.0
H420 H 0.41317 0.82143 0.94305 0.0
H421 H 0.39853 0.7618 0.92676 0.0
S422 S 0.5479 0.84123 0.90683 0.0
N423 N 0.53031 0.86436 0.9208 0.0
N424 N 0.51485 0.80017 0.90339 0.0
C425 C 0.48737 0.80385 0.91377 0.0
C426 C 0.49581 0.83865 0.92327 0.0
C427 C 0.63079 0.42736 0.09314 0.0
C428 C 0.63977 0.46172 0.10307 0.0
C429 C 0.65703 0.41858 0.08642 0.0
C430 C 0.69318 0.44389 0.08923 0.0
H431 H 0.60331 0.40719 0.09031 0.0
H432 H 0.6489 0.39183 0.07882 0.0
S433 S 0.73044 0.53668 0.11731 0.0
N434 N 0.68728 0.52037 0.11762 0.0
N435 N 0.73639 0.5043 0.10435 0.0
C436 C 0.70242 0.47821 0.09953 0.0
C437 C 0.67579 0.48701 0.10662 0.0
C438 C 0.40366 0.81848 0.56347 0.0
C439 C 0.39453 0.84136 0.54776 0.0
C440 C 0.37787 0.78358 0.57139 0.0
C441 C 0.34199 0.77041 0.56413 0.0
H442 H 0.43088 0.8277 0.56998 0.0
H443 H 0.38607 0.76694 0.58354 0.0
S444 S 0.30481 0.81839 0.5202 0.0
N445 N 0.34743 0.84728 0.52298 0.0
N446 N 0.29904 0.78237 0.53855 0.0
C447 C 0.33263 0.79288 0.54802 0.0
C448 C 0.35885 0.82815 0.53966 0.0
C449 C 0.55714 0.36932 0.72928 0.0
C450 C 0.58256 0.40181 0.71588 0.0
C451 C 0.56572 0.34359 0.73813 0.0
C452 C 0.60015 0.34924 0.73412 0.0
H453 H 0.53008 0.36337 0.73229 0.0
H454 H 0.54486 0.31866 0.74752 0.0
S455 S 0.67696 0.43067 0.70159 0.0
N456 N 0.64396 0.43887 0.70006 0.0
N457 N 0.66035 0.39066 0.7172 0.0
C458 C 0.62629 0.38229 0.72211 0.0
C459 C 0.61745 0.40853 0.7129 0.0
C460 C 0.22328 0.6077 0.88839 0.0
C461 C 0.19876 0.57425 0.87599 0.0
C462 C 0.25854 0.61688 0.89424 0.0
C463 C 0.27052 0.59289 0.88796 0.0
H464 H 0.21507 0.62677 0.89396 0.0
H465 H 0.27643 0.64283 0.90398 0.0
S466 S 0.21748 0.5032 0.85239 0.0
N467 N 0.18958 0.51813 0.85541 0.0
N468 N 0.25528 0.5349 0.86687 0.0
C469 C 0.24631 0.55957 0.87503 0.0
C470 C 0.21061 0.55038 0.86893 0.0
C471 C 0.67542 0.20827 0.04856 0.0
C472 C 0.63923 0.19652 0.05272 0.0
C473 C 0.70144 0.2426 0.0571 0.0
C474 C 0.69246 0.26696 0.06973 0.0
H475 H 0.68385 0.19096 0.03813 0.0
H476 H 0.72886 0.25029 0.05312 0.0
S477 S 0.60182 0.2493 0.08711 0.0
N478 N 0.59591 0.2117 0.07204 0.0
N479 N 0.64494 0.27681 0.08692 0.0
C480 C 0.65647 0.25575 0.07413 0.0
C481 C 0.62986 0.22046 0.06587 0.0
C482 C 0.43099 0.63388 0.21503 0.0
C483 C 0.46633 0.64159 0.2154 0.0
C484 C 0.42198 0.65935 0.2243 0.0
C485 C 0.44799 0.69342 0.23435 0.0
H486 H 0.41034 0.60844 0.2064 0.0
H487 H 0.39459 0.65263 0.22255 0.0
S488 S 0.54377 0.72485 0.24372 0.0
N489 N 0.5269 0.68423 0.2296 0.0
N490 N 0.51026 0.73209 0.24693 0.0
C491 C 0.4832 0.70072 0.23632 0.0
C492 C 0.49229 0.67483 0.22686 0.0
C493 C 0.81376 0.42414 0.39101 0.0
C494 C 0.83916 0.45871 0.38159 0.0
C495 C 0.77864 0.41514 0.39743 0.0
C496 C 0.7677 0.44042 0.39484 0.0
H497 H 0.82115 0.40398 0.39367 0.0
H498 H 0.76001 0.38825 0.40467 0.0
S499 S 0.82321 0.53371 0.36804 0.0
N500 N 0.85021 0.51754 0.3677 0.0
N501 N 0.78481 0.50102 0.38046 0.0
C502 C 0.79279 0.47494 0.38504 0.0
C503 C 0.82833 0.48397 0.37825 0.0
C504 C 0.1685 0.56507 0.46084 0.0
C505 C 0.16043 0.58862 0.44505 0.0
C506 C 0.19364 0.57679 0.48546 0.0
C507 C 0.21161 0.6125 0.4952 0.0
H508 H 0.15432 0.53713 0.45495 0.0
H509 H 0.19795 0.5574 0.49772 0.0
S510 S 0.20363 0.68559 0.45801 0.0
N511 N 0.17497 0.64979 0.43837 0.0
N512 N 0.22205 0.67194 0.48468 0.0
C513 C 0.20505 0.63663 0.47837 0.0
C514 C 0.17949 0.62466 0.45332 0.0
C515 C 0.57321 0.17781 0.621 0.0
C516 C 0.59092 0.16015 0.61064 0.0
C517 C 0.58664 0.20258 0.64592 0.0
C518 C 0.61835 0.2107 0.66162 0.0
H519 H 0.54849 0.17213 0.60998 0.0
H520 H 0.57154 0.21489 0.65332 0.0
S521 S 0.67519 0.17201 0.64303 0.0
N522 N 0.64201 0.15267 0.61759 0.0
N523 N 0.6676 0.1995 0.66418 0.0
C524 C 0.63689 0.19394 0.65081 0.0
C525 C 0.62311 0.16862 0.62542 0.0
C526 C 0.47953 0.61412 0.79491 0.0
C527 C 0.45673 0.59353 0.77003 0.0
C528 C 0.46815 0.6284 0.81908 0.0
C529 C 0.43334 0.62215 0.81966 0.0
H530 H 0.50611 0.61832 0.79637 0.0
H531 H 0.48631 0.64312 0.83823 0.0
S532 S 0.36444 0.57403 0.7583 0.0
N533 N 0.39875 0.57115 0.74575 0.0
N534 N 0.37693 0.59648 0.79217 0.0
C535 C 0.41057 0.60267 0.79451 0.0
C536 C 0.42235 0.58873 0.76949 0.0
C537 C 0.85047 0.44071 0.94764 0.0
C538 C 0.88354 0.44292 0.95189 0.0
C539 C 0.82552 0.42944 0.97252 0.0
C540 C 0.83246 0.41926 0.00228 0.0
H541 H 0.84369 0.44755 0.92485 0.0
H542 H 0.80048 0.42825 0.96831 0.0
S543 S 0.91579 0.42311 0.02696 0.0
N544 N 0.92265 0.43664 0.98942 0.0
N545 N 0.87512 0.41378 0.03537 0.0
C546 C 0.86532 0.42146 0.00697 0.0
C547 C 0.89099 0.43366 0.98199 0.0
C548 C 0.46553 0.86066 0.12309 0.0
C549 C 0.44725 0.87773 0.11275 0.0
C550 C 0.45231 0.83563 0.14783 0.0
C551 C 0.42024 0.82663 0.16336 0.0
H552 H 0.49052 0.86699 0.11218 0.0
H553 H 0.46783 0.82378 0.1552 0.0
S554 S 0.36188 0.86352 0.14474 0.0
N555 N 0.39524 0.88371 0.11951 0.0
N556 N 0.37006 0.83638 0.16579 0.0
C557 C 0.40115 0.8428 0.15257 0.0
C558 C 0.41472 0.86839 0.12735 0.0
C559 C 0.57779 0.41864 0.27657 0.0
C560 C 0.59522 0.45533 0.27071 0.0
C561 C 0.5889 0.4044 0.301 0.0
C562 C 0.6179 0.42627 0.32066 0.0
H563 H 0.55506 0.40075 0.26235 0.0
H564 H 0.57406 0.37604 0.30486 0.0
S565 S 0.67314 0.5243 0.31456 0.0
N566 N 0.64322 0.51328 0.28617 0.0
N567 N 0.6646 0.48673 0.3317 0.0
C568 C 0.63625 0.46301 0.31438 0.0
C569 C 0.62481 0.47747 0.28953 0.0
C570 C 0.47215 0.87771 0.35671 0.0
C571 C 0.44859 0.87718 0.38003 0.0
C572 C 0.4606 0.85245 0.33218 0.0
C573 C 0.4249 0.82598 0.32964 0.0
H574 H 0.49963 0.89844 0.35678 0.0
H575 H 0.47956 0.85458 0.31433 0.0
S576 S 0.35319 0.81017 0.38642 0.0
N577 N 0.38843 0.84547 0.40071 0.0
N578 N 0.36648 0.79902 0.35368 0.0
C579 C 0.40119 0.82442 0.3532 0.0
C580 C 0.41307 0.84976 0.37857 0.0
C581 C 0.56129 0.4259 0.50757 0.0
C582 C 0.57961 0.43691 0.53683 0.0
C583 C 0.57376 0.41398 0.48236 0.0
C584 C 0.60544 0.41326 0.48507 0.0
H585 H 0.5375 0.42726 0.50372 0.0
H586 H 0.55899 0.40632 0.46016 0.0
S587 S 0.66186 0.4359 0.5572 0.0
N588 N 0.62963 0.44318 0.56781 0.0
N589 N 0.65396 0.42257 0.5196 0.0
C590 C 0.62384 0.42362 0.51417 0.0
C591 C 0.61073 0.43501 0.54022 0.0
C592 C 0.16276 0.56396 0.693 0.0
C593 C 0.15691 0.58697 0.71224 0.0
C594 C 0.18771 0.57689 0.66826 0.0
C595 C 0.20785 0.61342 0.66154 0.0
H596 H 0.14726 0.53557 0.69652 0.0
H597 H 0.1905 0.55782 0.65378 0.0
S598 S 0.20499 0.68511 0.70703 0.0
N599 N 0.17511 0.64824 0.72461 0.0
N600 N 0.22167 0.67264 0.67768 0.0
C601 C 0.20297 0.63686 0.68121 0.0
C602 C 0.17759 0.62363 0.70658 0.0
C603 C 0.62121 0.18338 0.87572 0.0
C604 C 0.58559 0.15619 0.8775 0.0
C605 C 0.63333 0.20827 0.85076 0.0
C606 C 0.61018 0.20738 0.82698 0.0
H607 H 0.63996 0.18542 0.8937 0.0
H608 H 0.66106 0.22836 0.85006 0.0
S609 S 0.515 0.14068 0.81934 0.0
N610 N 0.5278 0.12895 0.85198 0.0
N611 N 0.55029 0.17667 0.80611 0.0
C612 C 0.57448 0.18069 0.82859 0.0
C613 C 0.56227 0.1549 0.85358 0.0
C614 C 0.46669 0.62412 0.02742 0.0
C615 C 0.44813 0.58855 0.03731 0.0
C616 C 0.4543 0.63626 0.00234 0.0
C617 C 0.42281 0.61331 0.98597 0.0
H618 H 0.49133 0.6427 0.03891 0.0
H619 H 0.47006 0.66379 0.99533 0.0
S620 S 0.36381 0.51764 0.00335 0.0
N621 N 0.39633 0.53053 0.02941 0.0
N622 N 0.37269 0.55326 0.98241 0.0
C623 C 0.40334 0.57783 0.99636 0.0
C624 C 0.41607 0.56548 0.02196 0.0
C625 C 0.85834 0.41842 0.20863 0.0
C626 C 0.8777 0.45501 0.21491 0.0
C627 C 0.83315 0.40471 0.18408 0.0
C628 C 0.8263 0.42704 0.16473 0.0
H629 H 0.86302 0.40023 0.22257 0.0
H630 H 0.81959 0.37642 0.17983 0.0
S631 S 0.86934 0.525 0.17211 0.0
N632 N 0.88799 0.51334 0.20025 0.0
N633 N 0.84032 0.48778 0.15454 0.0
C634 C 0.84473 0.46367 0.1715 0.0
C635 C 0.87047 0.47759 0.19646 0.0
loop_
_geom_bond_atom_site_label_1
_geom_bond_atom_site_label_2
_geom_bond_distance
_geom_bond_site_symmetry_2
_ccdc_geom_bond_type
H0 C19 0.949 . S
H1 C20 0.950 . S
H2 C22 0.950 . S
H3 C23 0.950 . S
H4 C25 0.950 . S
H5 C28 0.950 . S
H6 C29 0.950 . S
H7 C31 0.951 . S
H8 C32 0.949 . S
H9 C34 0.949 . S
H10 C35 0.950 . S
H11 C37 0.950 . S
H12 C38 0.950 . S
H13 C40 0.940 1_655 S
H14 C43 0.950 . S
H15 C44 0.950 . S
H16 C46 0.951 . S
H17 C47 0.949 . S
C18 C19 1.376 . S
C18 C23 1.386 . S
C18 C24 1.483 . S
C19 H0 0.949 . S
C19 C18 1.376 . S
C19 C20 1.397 . S
C20 H1 0.950 . S
C20 C19 1.397 . S
C20 C21 1.391 . S
C21 C20 1.391 . S
C21 C22 1.405 . S
C22 H2 0.950 . S
C22 C21 1.405 . S
C22 C23 1.367 . S
C23 H3 0.950 . S
C23 C18 1.386 . S
C23 C22 1.367 . S
C24 C18 1.483 . S
C24 C25 1.382 1_655 S
C24 C26 1.403 . S
C25 H4 0.950 . S
C25 C24 1.382 1_455 S
C25 C41 1.411 . S
C26 C24 1.403 . S
C26 C27 1.489 . S
C26 C40 1.392 1_655 S
C27 C26 1.489 . S
C27 C28 1.383 . S
C27 C32 1.382 . S
C28 H5 0.950 . S
C28 C27 1.383 . S
C28 C29 1.395 . S
C29 H6 0.950 . S
C29 C28 1.395 . S
C29 C30 1.288 . S
C30 C29 1.288 . S
C30 C31 1.392 . S
C31 H7 0.951 . S
C31 C30 1.392 . S
C31 C32 1.392 . S
C32 H8 0.949 . S
C32 C27 1.382 . S
C32 C31 1.392 . S
C33 C34 1.376 . S
C33 C38 1.386 . S
C33 C39 1.483 . S
C34 H9 0.949 . S
C34 C33 1.376 . S
C34 C35 1.397 . S
C35 H10 0.950 . S
C35 C34 1.397 . S
C35 C36 1.391 . S
C36 C35 1.391 . S
C36 C37 1.405 . S
C37 H11 0.950 . S
C37 C36 1.405 . S
C37 C38 1.367 . S
C38 H12 0.950 . S
C38 C33 1.386 . S
C38 C37 1.367 . S
C39 C33 1.483 . S
C39 C40 1.411 . S
C39 C41 1.403 . S
C40 H13 0.940 1_455 S
C40 C26 1.392 1_455 S
C40 C39 1.411 . S
C41 C25 1.411 . S
C41 C39 1.403 . S
C41 C42 1.489 . S
C42 C41 1.489 . S
C42 C43 1.383 . S
C42 C47 1.382 . S
C43 H14 0.950 . S
C43 C42 1.383 . S
C43 C44 1.395 . S
C44 H15 0.950 . S
C44 C43 1.395 . S
C44 C45 1.288 . S
C45 C44 1.288 . S
C45 C46 1.392 . S
C46 H16 0.951 . S
C46 C45 1.392 . S
C46 C47 1.392 . S
C47 H17 0.949 . S
C47 C42 1.382 . S
C47 C46 1.392 . S
H48 C67 0.949 . S
H49 C68 0.950 . S
H50 C70 0.950 . S
H51 C71 0.950 . S
H52 C73 0.956 . S
H53 C76 0.950 . S
H54 C77 0.950 . S
H55 C79 0.951 . S
H56 C80 0.949 . S
H57 C82 0.949 . S
H58 C83 0.950 . S
H59 C85 0.950 . S
H60 C86 0.950 . S
H61 C88 0.950 . S
H62 C91 0.950 . S
H63 C92 0.950 . S
H64 C94 0.951 . S
H65 C95 0.949 . S
C66 C67 1.376 . S
C66 C71 1.386 . S
C66 C72 1.483 . S
C67 H48 0.949 . S
C67 C66 1.376 . S
C67 C68 1.397 . S
C68 H49 0.950 . S
C68 C67 1.397 . S
C68 C69 1.391 . S
C69 C68 1.391 . S
C69 C70 1.405 . S
C70 H50 0.950 . S
C70 C69 1.405 . S
C70 C71 1.367 . S
C71 H51 0.950 . S
C71 C66 1.386 . S
C71 C70 1.367 . S
C72 C66 1.483 . S
C72 C73 1.399 . S
C72 C74 1.403 . S
C73 H52 0.956 . S
C73 C72 1.399 . S
C73 C89 1.389 1_565 S
C74 C72 1.403 . S
C74 C75 1.489 . S
C74 C88 1.411 1_565 S
C75 C74 1.489 . S
C75 C76 1.383 . S
C75 C80 1.382 . S
C76 H53 0.950 . S
C76 C75 1.383 . S
C76 C77 1.395 . S
C77 H54 0.950 . S
C77 C76 1.395 . S
C77 C78 1.288 . S
C78 C77 1.288 . S
C78 C79 1.392 . S
C79 H55 0.951 . S
C79 C78 1.392 . S
C79 C80 1.392 . S
C80 H56 0.949 . S
C80 C75 1.382 . S
C80 C79 1.392 . S
C81 C82 1.376 . S
C81 C86 1.386 . S
C81 C87 1.483 . S
C82 H57 0.949 . S
C82 C81 1.376 . S
C82 C83 1.397 . S
C83 H58 0.950 . S
C83 C82 1.397 . S
C83 C84 1.391 . S
C84 C83 1.391 . S
C84 C85 1.405 . S
C85 H59 0.950 . S
C85 C84 1.405 . S
C85 C86 1.367 . S
C86 H60 0.950 . S
C86 C81 1.386 . S
C86 C85 1.367 . S
C87 C81 1.483 . S
C87 C88 1.382 . S
C87 C89 1.403 . S
C88 H61 0.950 . S
C88 C74 1.411 1_545 S
C88 C87 1.382 . S
C89 C73 1.389 1_545 S
C89 C87 1.403 . S
C89 C90 1.489 . S
C90 C89 1.489 . S
C90 C91 1.383 . S
C90 C95 1.382 . S
C91 H62 0.950 . S
C91 C90 1.383 . S
C91 C92 1.395 . S
C92 H63 0.950 . S
C92 C91 1.395 . S
C92 C93 1.288 . S
C93 C92 1.288 . S
C93 C94 1.392 . S
C94 H64 0.951 . S
C94 C93 1.392 . S
C94 C95 1.392 . S
C95 H65 0.949 . S
C95 C90 1.382 . S
C95 C94 1.392 . S
H96 C115 0.949 . S
H97 C116 0.950 . S
H98 C118 0.950 . S
H99 C119 0.950 . S
H100 C121 0.950 . S
H101 C124 0.950 . S
H102 C125 0.950 . S
H103 C127 0.951 . S
H104 C128 0.949 . S
H105 C130 0.949 . S
H106 C131 0.950 . S
H107 C133 0.950 . S
H108 C134 0.950 . S
H109 C136 0.950 . S
H110 C139 0.950 . S
H111 C140 0.950 . S
H112 C142 0.951 . S
H113 C143 0.949 . S
C114 C115 1.376 . S
C114 C119 1.386 . S
C114 C120 1.483 . S
C115 H96 0.949 . S
C115 C114 1.376 . S
C115 C116 1.397 . S
C116 H97 0.950 . S
C116 C115 1.397 . S
C116 C117 1.391 . S
C117 C116 1.391 . S
C117 C118 1.405 . S
C118 H98 0.950 . S
C118 C117 1.405 . S
C118 C119 1.367 . S
C119 H99 0.950 . S
C119 C114 1.386 . S
C119 C118 1.367 . S
C120 C114 1.483 . S
C120 C121 1.382 . S
C120 C122 1.403 . S
C121 H100 0.950 . S
C121 C120 1.382 . S
C121 C137 1.411 . S
C122 C120 1.403 . S
C122 C123 1.489 . S
C122 C136 1.411 . S
C123 C122 1.489 . S
C123 C124 1.383 . S
C123 C128 1.382 . S
C124 H101 0.950 . S
C124 C123 1.383 . S
C124 C125 1.395 . S
C125 H102 0.950 . S
C125 C124 1.395 . S
C125 C126 1.288 . S
C126 C125 1.288 . S
C126 C127 1.392 . S
C127 H103 0.951 . S
C127 C126 1.392 . S
C127 C128 1.392 . S
C128 H104 0.949 . S
C128 C123 1.382 . S
C128 C127 1.392 . S
C129 C130 1.376 . S
C129 C134 1.386 . S
C129 C135 1.483 . S
C130 H105 0.949 . S
C130 C129 1.376 . S
C130 C131 1.397 . S
C131 H106 0.950 . S
C131 C130 1.397 . S
C131 C132 1.391 . S
C132 C131 1.391 . S
C132 C133 1.405 . S
C133 H107 0.950 . S
C133 C132 1.405 . S
C133 C134 1.367 . S
C134 H108 0.950 . S
C134 C129 1.386 . S
C134 C133 1.367 . S
C135 C129 1.483 . S
C135 C136 1.382 . S
C135 C137 1.403 . S
C136 H109 0.950 . S
C136 C122 1.411 . S
C136 C135 1.382 . S
C137 C121 1.411 . S
C137 C135 1.403 . S
C137 C138 1.489 . S
C138 C137 1.489 . S
C138 C139 1.383 . S
C138 C143 1.382 . S
C139 H110 0.950 . S
C139 C138 1.383 . S
C139 C140 1.395 . S
C140 H111 0.950 . S
C140 C139 1.395 . S
C140 C141 1.288 . S
C141 C140 1.288 . S
C141 C142 1.392 . S
C142 H112 0.951 . S
C142 C141 1.392 . S
C142 C143 1.392 . S
C143 H113 0.949 . S
C143 C138 1.382 . S
C143 C142 1.392 . S
H144 C163 0.949 . S
H145 C164 0.950 . S
H146 C166 0.950 . S
H147 C167 0.950 . S
H148 C169 0.950 1_655 S
H149 C172 0.950 . S
H150 C173 0.950 . S
H151 C175 0.951 . S
H152 C176 0.949 . S
H153 C178 0.949 . S
H154 C179 0.950 . S
H155 C181 0.950 . S
H156 C182 0.950 . S
H157 C184 0.950 . S
H158 C187 0.950 . S
H159 C188 0.950 . S
H160 C190 0.951 . S
H161 C191 0.949 . S
C162 C163 1.376 . S
C162 C167 1.386 . S
C162 C168 1.483 . S
C163 H144 0.949 . S
C163 C162 1.376 . S
C163 C164 1.397 . S
C164 H145 0.950 . S
C164 C163 1.397 . S
C164 C165 1.391 . S
C165 C164 1.391 . S
C165 C166 1.405 . S
C166 H146 0.950 . S
C166 C165 1.405 . S
C166 C167 1.367 . S
C167 H147 0.950 . S
C167 C162 1.386 . S
C167 C166 1.367 . S
C168 C162 1.483 . S
C168 C169 1.382 . S
C168 C170 1.403 . S
C169 H148 0.950 1_455 S
C169 C168 1.382 . S
C169 C185 1.411 1_455 S
C170 C168 1.403 . S
C170 C171 1.489 . S
C170 C184 1.411 . S
C171 C170 1.489 . S
C171 C172 1.383 . S
C171 C176 1.382 . S
C172 H149 0.950 . S
C172 C171 1.383 . S
C172 C173 1.395 . S
C173 H150 0.950 . S
C173 C172 1.395 . S
C173 C174 1.288 . S
C174 C173 1.288 . S
C174 C175 1.392 . S
C175 H151 0.951 . S
C175 C174 1.392 . S
C175 C176 1.392 . S
C176 H152 0.949 . S
C176 C171 1.382 . S
C176 C175 1.392 . S
C177 C178 1.376 . S
C177 C182 1.386 . S
C177 C183 1.483 . S
C178 H153 0.949 . S
C178 C177 1.376 . S
C178 C179 1.397 . S
C179 H154 0.950 . S
C179 C178 1.397 . S
C179 C180 1.391 . S
C180 C179 1.391 . S
C180 C181 1.405 . S
C181 H155 0.950 . S
C181 C180 1.405 . S
C181 C182 1.367 . S
C182 H156 0.950 . S
C182 C177 1.386 . S
C182 C181 1.367 . S
C183 C177 1.483 . S
C183 C184 1.382 1_655 S
C183 C185 1.403 . S
C184 H157 0.950 . S
C184 C170 1.411 . S
C184 C183 1.382 1_455 S
C185 C169 1.411 1_655 S
C185 C183 1.403 . S
C185 C186 1.489 . S
C186 C185 1.489 . S
C186 C187 1.383 . S
C186 C191 1.382 . S
C187 H158 0.950 . S
C187 C186 1.383 . S
C187 C188 1.395 . S
C188 H159 0.950 . S
C188 C187 1.395 . S
C188 C189 1.288 . S
C189 C188 1.288 . S
C189 C190 1.392 . S
C190 H160 0.951 . S
C190 C189 1.392 . S
C190 C191 1.392 . S
C191 H161 0.949 . S
C191 C186 1.382 . S
C191 C190 1.392 . S
H192 C211 0.949 . S
H193 C212 0.950 . S
H194 C214 0.950 . S
H195 C215 0.950 1_556 S
H196 C217 0.950 . S
H197 C220 0.950 . S
H198 C221 0.950 . S
H199 C223 0.951 . S
H200 C224 0.949 . S
H201 C226 0.949 . S
H202 C227 0.950 . S
H203 C229 0.950 . S
H204 C230 0.950 . S
H205 C232 0.956 . S
H206 C235 0.950 . S
H207 C236 0.950 . S
H208 C238 0.951 . S
H209 C239 0.949 . S
C210 C211 1.376 . S
C210 C215 1.386 . S
C210 C216 1.478 1_554 S
C211 H192 0.949 . S
C211 C210 1.376 . S
C211 C212 1.397 . S
C212 H193 0.950 . S
C212 C211 1.397 . S
C212 C213 1.391 . S
C213 C212 1.391 . S
C213 C214 1.405 . S
C214 H194 0.950 . S
C214 C213 1.405 . S
C214 C215 1.367 . S
C215 H195 0.950 1_554 S
C215 C210 1.386 . S
C215 C214 1.367 . S
C216 C210 1.478 1_556 S
C216 C217 1.367 1_556 S
C216 C218 1.422 . S
C217 H196 0.950 . S
C217 C216 1.367 1_554 S
C217 C233 1.411 1_545 S
C218 C216 1.422 . S
C218 C219 1.489 . S
C218 C232 1.389 1_545 S
C219 C218 1.489 . S
C219 C220 1.383 . S
C219 C224 1.382 . S
C220 H197 0.950 . S
C220 C219 1.383 . S
C220 C221 1.395 . S
C221 H198 0.950 . S
C221 C220 1.395 . S
C221 C222 1.288 . S
C222 C221 1.288 . S
C222 C223 1.392 . S
C223 H199 0.951 . S
C223 C222 1.392 . S
C223 C224 1.392 . S
C224 H200 0.949 . S
C224 C219 1.382 . S
C224 C223 1.392 . S
C225 C226 1.376 . S
C225 C230 1.386 . S
C225 C231 1.483 . S
C226 H201 0.949 . S
C226 C225 1.376 . S
C226 C227 1.397 . S
C227 H202 0.950 . S
C227 C226 1.397 . S
C227 C228 1.391 . S
C228 C227 1.391 . S
C228 C229 1.405 . S
C229 H203 0.950 . S
C229 C228 1.405 . S
C229 C230 1.367 . S
C230 H204 0.950 . S
C230 C225 1.386 . S
C230 C229 1.367 . S
C231 C225 1.483 . S
C231 C232 1.399 . S
C231 C233 1.403 1_556 S
C232 H205 0.956 . S
C232 C218 1.389 1_565 S
C232 C231 1.399 . S
C233 C217 1.411 1_565 S
C233 C231 1.403 1_554 S
C233 C234 1.489 . S
C234 C233 1.489 . S
C234 C235 1.383 . S
C234 C239 1.382 . S
C235 H206 0.950 . S
C235 C234 1.383 . S
C235 C236 1.395 . S
C236 H207 0.950 . S
C236 C235 1.395 . S
C236 C237 1.288 . S
C237 C236 1.288 . S
C237 C238 1.392 . S
C238 H208 0.951 . S
C238 C237 1.392 . S
C238 C239 1.392 . S
C239 H209 0.949 . S
C239 C234 1.382 . S
C239 C238 1.392 . S
H240 C259 0.949 . S
H241 C260 0.950 . S
H242 C262 0.950 . S
H243 C263 0.950 . S
H244 C265 0.950 . S
H245 C268 0.950 . S
H246 C269 0.950 . S
H247 C271 0.951 . S
H248 C272 0.949 . S
H249 C274 0.949 . S
H250 C275 0.950 . S
H251 C277 0.950 . S
H252 C278 0.950 . S
H253 C280 0.950 . S
H254 C283 0.950 . S
H255 C284 0.950 . S
H256 C286 0.951 . S
H257 C287 0.949 . S
C258 C259 1.376 . S
C258 C263 1.386 . S
C258 C264 1.483 . S
C259 H240 0.949 . S
C259 C258 1.376 . S
C259 C260 1.397 . S
C260 H241 0.950 . S
C260 C259 1.397 . S
C260 C261 1.391 . S
C261 C260 1.391 . S
C261 C262 1.405 . S
C262 H242 0.950 . S
C262 C261 1.405 . S
C262 C263 1.367 . S
C263 H243 0.950 . S
C263 C258 1.386 . S
C263 C262 1.367 . S
C264 C258 1.483 . S
C264 C265 1.382 . S
C264 C266 1.403 . S
C265 H244 0.950 . S
C265 C264 1.382 . S
C265 C281 1.411 . S
C266 C264 1.403 . S
C266 C267 1.489 . S
C266 C280 1.411 . S
C267 C266 1.489 . S
C267 C268 1.383 . S
C267 C272 1.382 . S
C268 H245 0.950 . S
C268 C267 1.383 . S
C268 C269 1.395 . S
C269 H246 0.950 . S
C269 C268 1.395 . S
C269 C270 1.288 . S
C270 C269 1.288 . S
C270 C271 1.392 . S
C271 H247 0.951 . S
C271 C270 1.392 . S
C271 C272 1.392 . S
C272 H248 0.949 . S
C272 C267 1.382 . S
C272 C271 1.392 . S
C273 C274 1.376 . S
C273 C278 1.386 . S
C273 C279 1.483 . S
C274 H249 0.949 . S
C274 C273 1.376 . S
C274 C275 1.397 . S
C275 H250 0.950 . S
C275 C274 1.397 . S
C275 C276 1.391 . S
C276 C275 1.391 . S
C276 C277 1.405 . S
C277 H251 0.950 . S
C277 C276 1.405 . S
C277 C278 1.367 . S
C278 H252 0.950 . S
C278 C273 1.386 . S
C278 C277 1.367 . S
C279 C273 1.483 . S
C279 C280 1.382 . S
C279 C281 1.403 . S
C280 H253 0.950 . S
C280 C266 1.411 . S
C280 C279 1.382 . S
C281 C265 1.411 . S
C281 C279 1.403 . S
C281 C282 1.489 . S
C282 C281 1.489 . S
C282 C283 1.383 . S
C282 C287 1.382 . S
C283 H254 0.950 . S
C283 C282 1.383 . S
C283 C284 1.395 . S
C284 H255 0.950 . S
C284 C283 1.395 . S
C284 C285 1.288 . S
C285 C284 1.288 . S
C285 C286 1.392 . S
C286 H256 0.951 . S
C286 C285 1.392 . S
C286 C287 1.392 . S
C287 H257 0.949 . S
C287 C282 1.382 . S
C287 C286 1.392 . S
O288 Cd289 2.223 . S
O288 C296 1.315 . S
Cd289 O288 2.223 . S
Cd289 O292 2.297 . S
Cd289 O293 2.439 . S
Cd289 O299 2.240 . S
Cd290 O291 2.240 . S
Cd290 O298 2.223 . S
Cd290 O300 2.297 . S
Cd290 O301 2.439 . S
O291 Cd290 2.240 . S
O291 C296 1.279 . S
O292 Cd289 2.297 . S
O292 C294 1.247 . S
O293 Cd289 2.439 . S
O293 C294 1.208 . S
C294 O292 1.247 . S
C294 O293 1.208 . S
C295 O300 1.247 . S
C295 O301 1.208 . S
C296 O288 1.315 . S
C296 O291 1.279 . S
C297 O298 1.315 . S
C297 O299 1.279 . S
O298 Cd290 2.223 . S
O298 C297 1.315 . S
O299 Cd289 2.240 . S
O299 C297 1.279 . S
O300 Cd290 2.297 . S
O300 C295 1.247 . S
O301 Cd290 2.439 . S
O301 C295 1.208 . S
O302 Cd303 2.223 . S
O302 C310 1.315 . S
Cd303 O302 2.223 . S
Cd303 O306 2.297 . S
Cd303 O307 2.439 . S
Cd303 O313 2.240 . S
Cd304 O305 2.240 . S
Cd304 O312 2.223 . S
Cd304 O314 2.297 . S
Cd304 O315 2.439 . S
O305 Cd304 2.240 . S
O305 C310 1.279 . S
O306 Cd303 2.297 . S
O306 C308 1.247 . S
O307 Cd303 2.439 . S
O307 C308 1.208 . S
C308 O306 1.247 . S
C308 O307 1.208 . S
C309 O314 1.247 . S
C309 O315 1.208 . S
C310 O302 1.315 . S
C310 O305 1.279 . S
C311 O312 1.315 . S
C311 O313 1.279 . S
O312 Cd304 2.223 . S
O312 C311 1.315 . S
O313 Cd303 2.240 . S
O313 C311 1.279 . S
O314 Cd304 2.297 . S
O314 C309 1.247 . S
O315 Cd304 2.439 . S
O315 C309 1.208 . S
O316 Cd317 2.223 . S
O316 C324 1.315 . S
Cd317 O316 2.223 . S
Cd317 O320 2.297 . S
Cd317 O321 2.439 . S
Cd317 O327 2.240 . S
Cd318 O319 2.240 . S
Cd318 O326 2.223 . S
Cd318 O328 2.297 . S
Cd318 O329 2.439 . S
O319 Cd318 2.240 . S
O319 C324 1.279 . S
O320 Cd317 2.297 . S
O320 C322 1.247 . S
O321 Cd317 2.439 . S
O321 C322 1.208 . S
C322 O320 1.247 . S
C322 O321 1.208 . S
C323 O328 1.247 . S
C323 O329 1.208 . S
C324 O316 1.315 . S
C324 O319 1.279 . S
C325 O326 1.315 . S
C325 O327 1.279 . S
O326 Cd318 2.223 . S
O326 C325 1.315 . S
O327 Cd317 2.240 . S
O327 C325 1.279 . S
O328 Cd318 2.297 . S
O328 C323 1.247 . S
O329 Cd318 2.439 . S
O329 C323 1.208 . S
O330 Cd331 2.223 . S
O330 C338 1.315 . S
Cd331 O330 2.223 . S
Cd331 O334 2.297 . S
Cd331 O335 2.439 . S
Cd331 O341 2.240 . S
Cd332 O333 2.240 . S
Cd332 O340 2.223 . S
Cd332 O342 2.297 . S
Cd332 O343 2.439 . S
O333 Cd332 2.240 . S
O333 C338 1.279 . S
O334 Cd331 2.297 . S
O334 C336 1.247 . S
O335 Cd331 2.439 . S
O335 C336 1.208 . S
C336 O334 1.247 . S
C336 O335 1.208 . S
C337 O342 1.247 . S
C337 O343 1.208 . S
C338 O330 1.315 . S
C338 O333 1.279 . S
C339 O340 1.315 . S
C339 O341 1.279 . S
O340 Cd332 2.223 . S
O340 C339 1.315 . S
O341 Cd331 2.240 . S
O341 C339 1.279 . S
O342 Cd332 2.297 . S
O342 C337 1.247 . S
O343 Cd332 2.439 . S
O343 C337 1.208 . S
O344 Cd345 2.223 . S
O344 C352 1.315 . S
Cd345 O344 2.223 . S
Cd345 O348 2.297 . S
Cd345 O349 2.439 . S
Cd345 O355 2.240 . S
Cd346 O347 2.240 . S
Cd346 O354 2.223 . S
Cd346 O356 2.297 . S
Cd346 O357 2.439 . S
O347 Cd346 2.240 . S
O347 C352 1.279 . S
O348 Cd345 2.297 . S
O348 C350 1.247 . S
O349 Cd345 2.439 . S
O349 C350 1.208 . S
C350 O348 1.247 . S
C350 O349 1.208 . S
C351 O356 1.247 . S
C351 O357 1.208 . S
C352 O344 1.315 . S
C352 O347 1.279 . S
C353 O354 1.315 . S
C353 O355 1.279 . S
O354 Cd346 2.223 . S
O354 C353 1.315 . S
O355 Cd345 2.240 . S
O355 C353 1.279 . S
O356 Cd346 2.297 . S
O356 C351 1.247 . S
O357 Cd346 2.439 . S
O357 C351 1.208 . S
O358 Cd359 2.223 . S
O358 C366 1.315 . S
Cd359 O358 2.223 . S
Cd359 O362 2.297 . S
Cd359 O363 2.439 . S
Cd359 O369 2.240 . S
Cd360 O361 2.240 . S
Cd360 O368 2.223 . S
Cd360 O370 2.297 . S
Cd360 O371 2.439 . S
O361 Cd360 2.240 . S
O361 C366 1.279 . S
O362 Cd359 2.297 . S
O362 C364 1.247 . S
O363 Cd359 2.439 . S
O363 C364 1.208 . S
C364 O362 1.247 . S
C364 O363 1.208 . S
C365 O370 1.247 . S
C365 O371 1.208 . S
C366 O358 1.315 . S
C366 O361 1.279 . S
C367 O368 1.315 . S
C367 O369 1.279 . S
O368 Cd360 2.223 . S
O368 C367 1.315 . S
O369 Cd359 2.240 . S
O369 C367 1.279 . S
O370 Cd360 2.297 . S
O370 C365 1.247 . S
O371 Cd360 2.439 . S
O371 C365 1.208 . S
C372 C373 1.369 . S
C372 C374 1.419 . S
C372 H376 0.930 . S
C373 C372 1.369 . S
C373 C382 1.429 . S
C374 C372 1.419 . S
C374 C375 1.363 . S
C374 H377 0.929 . S
C375 C374 1.363 . S
C375 C381 1.428 . S
H376 C372 0.930 . S
H377 C374 0.929 . S
S378 N379 1.613 . S
S378 N380 1.610 . S
N379 S378 1.613 . S
N379 C382 1.350 . S
N380 S378 1.610 . S
N380 C381 1.351 . S
C381 C375 1.428 . S
C381 N380 1.351 . S
C381 C382 1.434 . S
C382 C373 1.429 . S
C382 N379 1.350 . S
C382 C381 1.434 . S
C383 C384 1.369 . S
C383 C385 1.419 . S
C383 H387 0.930 . S
C384 C383 1.369 . S
C384 C393 1.429 . S
C385 C383 1.419 . S
C385 C386 1.363 . S
C385 H388 0.929 . S
C386 C385 1.363 . S
C386 C392 1.428 . S
H387 C383 0.930 . S
H388 C385 0.929 . S
S389 N390 1.613 . S
S389 N391 1.610 . S
N390 S389 1.613 . S
N390 C393 1.350 . S
N391 S389 1.610 . S
N391 C392 1.351 . S
C392 C386 1.428 . S
C392 N391 1.351 . S
C392 C393 1.434 . S
C393 C384 1.429 . S
C393 N390 1.350 . S
C393 C392 1.434 . S
C394 C395 1.369 . S
C394 C396 1.419 . S
C394 H398 0.930 . S
C395 C394 1.369 . S
C395 C404 1.429 . S
C396 C394 1.419 . S
C396 C397 1.363 . S
C396 H399 0.929 . S
C397 C396 1.363 . S
C397 C403 1.428 . S
H398 C394 0.930 . S
H399 C396 0.929 . S
S400 N401 1.613 . S
S400 N402 1.610 . S
N401 S400 1.613 . S
N401 C404 1.350 . S
N402 S400 1.610 . S
N402 C403 1.351 . S
C403 C397 1.428 . S
C403 N402 1.351 . S
C403 C404 1.434 . S
C404 C395 1.429 . S
C404 N401 1.350 . S
C404 C403 1.434 . S
C405 C406 1.369 . S
C405 C407 1.419 . S
C405 H409 0.930 . S
C406 C405 1.369 . S
C406 C415 1.429 . S
C407 C405 1.419 . S
C407 C408 1.363 . S
C407 H410 0.929 . S
C408 C407 1.363 . S
C408 C414 1.428 . S
H409 C405 0.930 . S
H410 C407 0.929 . S
S411 N412 1.613 . S
S411 N413 1.610 . S
N412 S411 1.613 . S
N412 C415 1.350 . S
N413 S411 1.610 . S
N413 C414 1.351 . S
C414 C408 1.428 . S
C414 N413 1.351 . S
C414 C415 1.434 . S
C415 C406 1.429 . S
C415 N412 1.350 . S
C415 C414 1.434 . S
C416 C417 1.369 . S
C416 C418 1.419 . S
C416 H420 0.930 . S
C417 C416 1.369 . S
C417 C426 1.429 . S
C418 C416 1.419 . S
C418 C419 1.363 . S
C418 H421 0.929 . S
C419 C418 1.363 . S
C419 C425 1.428 . S
H420 C416 0.930 . S
H421 C418 0.929 . S
S422 N423 1.613 . S
S422 N424 1.610 . S
N423 S422 1.613 . S
N423 C426 1.350 . S
N424 S422 1.610 . S
N424 C425 1.351 . S
C425 C419 1.428 . S
C425 N424 1.351 . S
C425 C426 1.434 . S
C426 C417 1.429 . S
C426 N423 1.350 . S
C426 C425 1.434 . S
C427 C428 1.369 . S
C427 C429 1.419 . S
C427 H431 0.930 . S
C428 C427 1.369 . S
C428 C437 1.429 . S
C429 C427 1.419 . S
C429 C430 1.363 . S
C429 H432 0.929 . S
C430 C429 1.363 . S
C430 C436 1.428 . S
H431 C427 0.930 . S
H432 C429 0.929 . S
S433 N434 1.613 . S
S433 N435 1.610 . S
N434 S433 1.613 . S
N434 C437 1.350 . S
N435 S433 1.610 . S
N435 C436 1.351 . S
C436 C430 1.428 . S
C436 N435 1.351 . S
C436 C437 1.434 . S
C437 C428 1.429 . S
C437 N434 1.350 . S
C437 C436 1.434 . S
C438 C439 1.369 . S
C438 C440 1.419 . S
C438 H442 0.930 . S
C439 C438 1.369 . S
C439 C448 1.429 . S
C440 C438 1.419 . S
C440 C441 1.363 . S
C440 H443 0.929 . S
C441 C440 1.363 . S
C441 C447 1.428 . S
H442 C438 0.930 . S
H443 C440 0.929 . S
S444 N445 1.613 . S
S444 N446 1.610 . S
N445 S444 1.613 . S
N445 C448 1.350 . S
N446 S444 1.610 . S
N446 C447 1.351 . S
C447 C441 1.428 . S
C447 N446 1.351 . S
C447 C448 1.434 . S
C448 C439 1.429 . S
C448 N445 1.350 . S
C448 C447 1.434 . S
C449 C450 1.369 . S
C449 C451 1.419 . S
C449 H453 0.930 . S
C450 C449 1.369 . S
C450 C459 1.429 . S
C451 C449 1.419 . S
C451 C452 1.363 . S
C451 H454 0.929 . S
C452 C451 1.363 . S
C452 C458 1.428 . S
H453 C449 0.930 . S
H454 C451 0.929 . S
S455 N456 1.613 . S
S455 N457 1.610 . S
N456 S455 1.613 . S
N456 C459 1.350 . S
N457 S455 1.610 . S
N457 C458 1.351 . S
C458 C452 1.428 . S
C458 N457 1.351 . S
C458 C459 1.434 . S
C459 C450 1.429 . S
C459 N456 1.350 . S
C459 C458 1.434 . S
C460 C461 1.369 . S
C460 C462 1.419 . S
C460 H464 0.930 . S
C461 C460 1.369 . S
C461 C470 1.429 . S
C462 C460 1.419 . S
C462 C463 1.363 . S
C462 H465 0.929 . S
C463 C462 1.363 . S
C463 C469 1.428 . S
H464 C460 0.930 . S
H465 C462 0.929 . S
S466 N467 1.613 . S
S466 N468 1.610 . S
N467 S466 1.613 . S
N467 C470 1.350 . S
N468 S466 1.610 . S
N468 C469 1.351 . S
C469 C463 1.428 . S
C469 N468 1.351 . S
C469 C470 1.434 . S
C470 C461 1.429 . S
C470 N467 1.350 . S
C470 C469 1.434 . S
C471 C472 1.369 . S
C471 C473 1.419 . S
C471 H475 0.930 . S
C472 C471 1.369 . S
C472 C481 1.429 . S
C473 C471 1.419 . S
C473 C474 1.363 . S
C473 H476 0.929 . S
C474 C473 1.363 . S
C474 C480 1.428 . S
H475 C471 0.930 . S
H476 C473 0.929 . S
S477 N478 1.613 . S
S477 N479 1.610 . S
N478 S477 1.613 . S
N478 C481 1.350 . S
N479 S477 1.610 . S
N479 C480 1.351 . S
C480 C474 1.428 . S
C480 N479 1.351 . S
C480 C481 1.434 . S
C481 C472 1.429 . S
C481 N478 1.350 . S
C481 C480 1.434 . S
C482 C483 1.369 . S
C482 C484 1.419 . S
C482 H486 0.930 . S
C483 C482 1.369 . S
C483 C492 1.429 . S
C484 C482 1.419 . S
C484 C485 1.363 . S
C484 H487 0.929 . S
C485 C484 1.363 . S
C485 C491 1.428 . S
H486 C482 0.930 . S
H487 C484 0.929 . S
S488 N489 1.613 . S
S488 N490 1.610 . S
N489 S488 1.613 . S
N489 C492 1.350 . S
N490 S488 1.610 . S
N490 C491 1.351 . S
C491 C485 1.428 . S
C491 N490 1.351 . S
C491 C492 1.434 . S
C492 C483 1.429 . S
C492 N489 1.350 . S
C492 C491 1.434 . S
C493 C494 1.369 . S
C493 C495 1.419 . S
C493 H497 0.930 . S
C494 C493 1.369 . S
C494 C503 1.429 . S
C495 C493 1.419 . S
C495 C496 1.363 . S
C495 H498 0.929 . S
C496 C495 1.363 . S
C496 C502 1.428 . S
H497 C493 0.930 . S
H498 C495 0.929 . S
S499 N500 1.613 . S
S499 N501 1.610 . S
N500 S499 1.613 . S
N500 C503 1.350 . S
N501 S499 1.610 . S
N501 C502 1.351 . S
C502 C496 1.428 . S
C502 N501 1.351 . S
C502 C503 1.434 . S
C503 C494 1.429 . S
C503 N500 1.350 . S
C503 C502 1.434 . S
C504 C505 1.369 . S
C504 C506 1.419 . S
C504 H508 0.930 . S
C505 C504 1.369 . S
C505 C514 1.429 . S
C506 C504 1.419 . S
C506 C507 1.363 . S
C506 H509 0.929 . S
C507 C506 1.363 . S
C507 C513 1.428 . S
H508 C504 0.930 . S
H509 C506 0.929 . S
S510 N511 1.613 . S
S510 N512 1.610 . S
N511 S510 1.613 . S
N511 C514 1.350 . S
N512 S510 1.610 . S
N512 C513 1.351 . S
C513 C507 1.428 . S
C513 N512 1.351 . S
C513 C514 1.434 . S
C514 C505 1.429 . S
C514 N511 1.350 . S
C514 C513 1.434 . S
C515 C516 1.369 . S
C515 C517 1.419 . S
C515 H519 0.930 . S
C516 C515 1.369 . S
C516 C525 1.429 . S
C517 C515 1.419 . S
C517 C518 1.363 . S
C517 H520 0.929 . S
C518 C517 1.363 . S
C518 C524 1.428 . S
H519 C515 0.930 . S
H520 C517 0.929 . S
S521 N522 1.613 . S
S521 N523 1.610 . S
N522 S521 1.613 . S
N522 C525 1.350 . S
N523 S521 1.610 . S
N523 C524 1.351 . S
C524 C518 1.428 . S
C524 N523 1.351 . S
C524 C525 1.434 . S
C525 C516 1.429 . S
C525 N522 1.350 . S
C525 C524 1.434 . S
C526 C527 1.369 . S
C526 C528 1.419 . S
C526 H530 0.930 . S
C527 C526 1.369 . S
C527 C536 1.429 . S
C528 C526 1.419 . S
C528 C529 1.363 . S
C528 H531 0.929 . S
C529 C528 1.363 . S
C529 C535 1.428 . S
H530 C526 0.930 . S
H531 C528 0.929 . S
S532 N533 1.613 . S
S532 N534 1.610 . S
N533 S532 1.613 . S
N533 C536 1.350 . S
N534 S532 1.610 . S
N534 C535 1.351 . S
C535 C529 1.428 . S
C535 N534 1.351 . S
C535 C536 1.434 . S
C536 C527 1.429 . S
C536 N533 1.350 . S
C536 C535 1.434 . S
C537 C538 1.369 . S
C537 C539 1.419 . S
C537 H541 0.930 . S
C538 C537 1.369 . S
C538 C547 1.429 . S
C539 C537 1.419 . S
C539 C540 1.363 1_556 S
C539 H542 0.929 . S
C540 C539 1.363 1_554 S
C540 C546 1.428 . S
H541 C537 0.930 . S
H542 C539 0.929 . S
S543 N544 1.613 . S
S543 N545 1.610 . S
N544 S543 1.613 . S
N544 C547 1.350 1_554 S
N545 S543 1.610 . S
N545 C546 1.351 . S
C546 C540 1.428 . S
C546 N545 1.351 . S
C546 C547 1.434 1_554 S
C547 C538 1.429 . S
C547 N544 1.350 1_556 S
C547 C546 1.434 1_556 S
C548 C549 1.369 . S
C548 C550 1.419 . S
C548 H552 0.930 . S
C549 C548 1.369 . S
C549 C558 1.429 . S
C550 C548 1.419 . S
C550 C551 1.363 . S
C550 H553 0.929 . S
C551 C550 1.363 . S
C551 C557 1.428 . S
H552 C548 0.930 . S
H553 C550 0.929 . S
S554 N555 1.613 . S
S554 N556 1.610 . S
N555 S554 1.613 . S
N555 C558 1.350 . S
N556 S554 1.610 . S
N556 C557 1.351 . S
C557 C551 1.428 . S
C557 N556 1.351 . S
C557 C558 1.434 . S
C558 C549 1.429 . S
C558 N555 1.350 . S
C558 C557 1.434 . S
C559 C560 1.369 . S
C559 C561 1.419 . S
C559 H563 0.930 . S
C560 C559 1.369 . S
C560 C569 1.429 . S
C561 C559 1.419 . S
C561 C562 1.363 . S
C561 H564 0.929 . S
C562 C561 1.363 . S
C562 C568 1.428 . S
H563 C559 0.930 . S
H564 C561 0.929 . S
S565 N566 1.613 . S
S565 N567 1.610 . S
N566 S565 1.613 . S
N566 C569 1.350 . S
N567 S565 1.610 . S
N567 C568 1.351 . S
C568 C562 1.428 . S
C568 N567 1.351 . S
C568 C569 1.434 . S
C569 C560 1.429 . S
C569 N566 1.350 . S
C569 C568 1.434 . S
C570 C571 1.369 . S
C570 C572 1.419 . S
C570 H574 0.930 . S
C571 C570 1.369 . S
C571 C580 1.429 . S
C572 C570 1.419 . S
C572 C573 1.363 . S
C572 H575 0.929 . S
C573 C572 1.363 . S
C573 C579 1.428 . S
H574 C570 0.930 . S
H575 C572 0.929 . S
S576 N577 1.613 . S
S576 N578 1.610 . S
N577 S576 1.613 . S
N577 C580 1.350 . S
N578 S576 1.610 . S
N578 C579 1.351 . S
C579 C573 1.428 . S
C579 N578 1.351 . S
C579 C580 1.434 . S
C580 C571 1.429 . S
C580 N577 1.350 . S
C580 C579 1.434 . S
C581 C582 1.369 . S
C581 C583 1.419 . S
C581 H585 0.930 . S
C582 C581 1.369 . S
C582 C591 1.429 . S
C583 C581 1.419 . S
C583 C584 1.363 . S
C583 H586 0.929 . S
C584 C583 1.363 . S
C584 C590 1.428 . S
H585 C581 0.930 . S
H586 C583 0.929 . S
S587 N588 1.613 . S
S587 N589 1.610 . S
N588 S587 1.613 . S
N588 C591 1.350 . S
N589 S587 1.610 . S
N589 C590 1.351 . S
C590 C584 1.428 . S
C590 N589 1.351 . S
C590 C591 1.434 . S
C591 C582 1.429 . S
C591 N588 1.350 . S
C591 C590 1.434 . S
C592 C593 1.369 . S
C592 C594 1.419 . S
C592 H596 0.930 . S
C593 C592 1.369 . S
C593 C602 1.429 . S
C594 C592 1.419 . S
C594 C595 1.363 . S
C594 H597 0.929 . S
C595 C594 1.363 . S
C595 C601 1.428 . S
H596 C592 0.930 . S
H597 C594 0.929 . S
S598 N599 1.613 . S
S598 N600 1.610 . S
N599 S598 1.613 . S
N599 C602 1.350 . S
N600 S598 1.610 . S
N600 C601 1.351 . S
C601 C595 1.428 . S
C601 N600 1.351 . S
C601 C602 1.434 . S
C602 C593 1.429 . S
C602 N599 1.350 . S
C602 C601 1.434 . S
C603 C604 1.369 . S
C603 C605 1.419 . S
C603 H607 0.930 . S
C604 C603 1.369 . S
C604 C613 1.429 . S
C605 C603 1.419 . S
C605 C606 1.363 . S
C605 H608 0.929 . S
C606 C605 1.363 . S
C606 C612 1.428 . S
H607 C603 0.930 . S
H608 C605 0.929 . S
S609 N610 1.613 . S
S609 N611 1.610 . S
N610 S609 1.613 . S
N610 C613 1.350 . S
N611 S609 1.610 . S
N611 C612 1.351 . S
C612 C606 1.428 . S
C612 N611 1.351 . S
C612 C613 1.434 . S
C613 C604 1.429 . S
C613 N610 1.350 . S
C613 C612 1.434 . S
C614 C615 1.369 . S
C614 C616 1.419 1_554 S
C614 H618 0.930 . S
C615 C614 1.369 . S
C615 C624 1.429 . S
C616 C614 1.419 1_556 S
C616 C617 1.363 . S
C616 H619 0.929 . S
C617 C616 1.363 . S
C617 C623 1.428 . S
H618 C614 0.930 . S
H619 C616 0.929 . S
S620 N621 1.613 . S
S620 N622 1.610 1_554 S
N621 S620 1.613 . S
N621 C624 1.350 . S
N622 S620 1.610 1_556 S
N622 C623 1.351 . S
C623 C617 1.428 . S
C623 N622 1.351 . S
C623 C624 1.434 1_556 S
C624 C615 1.429 . S
C624 N621 1.350 . S
C624 C623 1.434 1_554 S
C625 C626 1.369 . S
C625 C627 1.419 . S
C625 H629 0.930 . S
C626 C625 1.369 . S
C626 C635 1.429 . S
C627 C625 1.419 . S
C627 C628 1.363 . S
C627 H630 0.929 . S
C628 C627 1.363 . S
C628 C634 1.428 . S
H629 C625 0.930 . S
H630 C627 0.929 . S
S631 N632 1.613 . S
S631 N633 1.610 . S
N632 S631 1.613 . S
N632 C635 1.350 . S
N633 S631 1.610 . S
N633 C634 1.351 . S
C634 C628 1.428 . S
C634 N633 1.351 . S
C634 C635 1.434 . S
C635 C626 1.429 . S
C635 N632 1.350 . S
C635 C634 1.434 . S
C375 C365 1.492 . S
C373 C45 1.520 . S
C384 C84 1.513 . S
C386 C294 1.489 . S
C395 C126 1.497 . S
C397 C308 1.491 . S
C406 C189 1.520 . S
C408 C322 1.492 . S
C419 C336 1.490 . S
C417 C228 1.513 . S
C428 C270 1.497 . S
C430 C351 1.490 . S
C439 C69 1.503 . S
C441 C309 1.489 . S
C450 C141 1.520 . S
C452 C323 1.493 . S
C461 C174 1.496 . S
C463 C337 1.491 . S
C474 C350 1.495 . S
C472 C213 1.505 . S
C485 C364 1.488 . S
C483 C285 1.520 . S
C496 C295 1.491 . S
C494 C30 1.497 . S
C505 C36 1.570 . S
C507 C311 1.535 . S
C516 C93 1.578 . S
C518 C325 1.540 . S
C529 C339 1.537 . S
C527 C117 1.553 . S
C538 C180 1.573 . S
C540 C352 1.537 . S
C551 C366 1.538 . S
C549 C237 1.577 . S
C562 C297 1.536 . S
C560 C261 1.560 . S
C573 C367 1.536 . S
C571 C78 1.542 . S
C582 C132 1.567 . S
C584 C296 1.540 . S
C595 C310 1.541 . S
C593 C165 1.554 . S
C604 C222 1.539 . S
C606 C324 1.537 . S
C615 C276 1.570 . S
C617 C338 1.542 . S
C626 C21 1.558 . S
C628 C353 1.533 . S
