# Generated by pormake.
# Topology tsx, (6,3)-cn, num edge types: 1
# Building blocks:
#     Node 0, Type 0, BuildingBlock: LEVNOQ01_clean_sbu_1, # of connection points: 6
#     Node 1, Type 0, BuildingBlock: LEVNOQ01_clean_sbu_1, # of connection points: 6
#     Node 2, Type 1, BuildingBlock: VETTIZ_charged_linker_0, # of connection points: 3
#     Node 3, Type 1, BuildingBlock: VETTIZ_charged_linker_0, # of connection points: 3
#     Node 4, Type 1, BuildingBlock: VETTIZ_charged_linker_0, # of connection points: 3
#     Node 5, Type 1, BuildingBlock: VETTIZ_charged_linker_0, # of connection points: 3
#     Edge 6, Type (0, 1), BuildingBlock: FUNLAD_clean_linker_1, # of connection points: 2
#     Edge 7, Type (0, 1), BuildingBlock: FUNLAD_clean_linker_1, # of connection points: 2
#     Edge 8, Type (0, 1), BuildingBlock: FUNLAD_clean_linker_1, # of connection points: 2
#     Edge 9, Type (0, 1), BuildingBlock: FUNLAD_clean_linker_1, # of connection points: 2
#     Edge 10, Type (0, 1), BuildingBlock: FUNLAD_clean_linker_1, # of connection points: 2
#     Edge 11, Type (0, 1), BuildingBlock: FUNLAD_clean_linker_1, # of connection points: 2
#     Edge 12, Type (0, 1), BuildingBlock: FUNLAD_clean_linker_1, # of connection points: 2
#     Edge 13, Type (0, 1), BuildingBlock: FUNLAD_clean_linker_1, # of connection points: 2
#     Edge 14, Type (0, 1), BuildingBlock: FUNLAD_clean_linker_1, # of connection points: 2
#     Edge 15, Type (0, 1), BuildingBlock: FUNLAD_clean_linker_1, # of connection points: 2
#     Edge 16, Type (0, 1), BuildingBlock: FUNLAD_clean_linker_1, # of connection points: 2
#     Edge 17, Type (0, 1), BuildingBlock: FUNLAD_clean_linker_1, # of connection points: 2
# Relax obj value: 0.135
# Max RMSD: 0.160
# Mean RMSD: 0.124
data_MOF--net-tsx--node1-LEVNOQ01_clean_sbu_1--node2-VETTIZ_charged_linker_0--edge1-FUNLAD_clean_linker_1
_symmetry_space_group_name_H-M    P1
_symmetry_Int_Tables_number       1
_symmetry_cell_setting            triclinic
loop_
_symmetry_equiv_pos_as_xyz
'x, y, z'
_cell_length_a     22.384604
_cell_length_b     27.872226
_cell_length_c     47.834816
_cell_angle_alpha  97.462465
_cell_angle_beta   90.920841
_cell_angle_gamma 90.634995
loop_
_atom_site_label
_atom_site_type_symbol
_atom_site_fract_x
_atom_site_fract_y
_atom_site_fract_z
_atom_type_partial_charge
O0 O 0.18508 0.00588 0.0481 0.0
Mg1 Mg 0.20239 0.0278 0.00782 0.0
O2 O 0.09035 0.02472 0.04416 0.0
Mg3 Mg 0.09055 0.02769 -0.00393 0.0
O4 O 0.16551 0.09109 -0.00079 0.0
O5 O 0.26162 0.08291 0.01212 0.0
O6 O 0.09415 0.03002 0.94779 0.0
O7 O 0.03448 0.10056 0.00316 0.0
Mg8 Mg 0.97583 0.02267 0.97725 0.0
O9 O 0.01427 0.96637 -0.00598 0.0
O10 O 0.99928 0.03598 0.93632 0.0
O11 O 0.94107 0.07832 0.00521 0.0
O12 O 0.9211 0.96524 0.97525 0.0
C13 C 0.19301 0.94367 0.97586 0.0
C14 C 0.13382 0.01152 0.05876 0.0
C15 C 0.21899 0.10942 0.00468 0.0
C16 C 0.05367 0.03519 0.92951 0.0
C17 C 0.98023 0.11138 0.00844 0.0
C18 C 0.96293 0.94456 -0.0121 0.0
O19 O 0.22958 0.97754 0.97409 0.0
O20 O 0.14358 0.95337 -0.01197 0.0
O21 O 0.65817 0.52314 0.55415 0.0
Mg22 Mg 0.6954 0.53114 0.51412 0.0
O23 O 0.56315 0.52063 0.53969 0.0
Mg24 Mg 0.56393 0.52077 0.49109 0.0
O25 O 0.64239 0.57566 0.49428 0.0
O26 O 0.73633 0.5948 0.50731 0.0
O27 O 0.56834 0.52016 0.44185 0.0
O28 O 0.50385 0.58988 0.49586 0.0
Mg29 Mg 0.43768 0.49739 0.45921 0.0
O30 O 0.48397 0.46865 0.4896 0.0
O31 O 0.48506 0.48717 0.42158 0.0
O32 O 0.41593 0.5693 0.47516 0.0
O33 O 0.39562 0.43928 0.47322 0.0
C34 C 0.6757 0.43757 0.48142 0.0
C35 C 0.6027 0.52033 0.55921 0.0
C36 C 0.68659 0.60643 0.4961 0.0
C37 C 0.53748 0.50383 0.41985 0.0
C38 C 0.45067 0.60055 0.4889 0.0
C39 C 0.4406 0.43778 0.49026 0.0
O40 O 0.71701 0.46857 0.48731 0.0
O41 O 0.62088 0.44903 0.48469 0.0
C42 C 0.14156 0.8887 0.44218 0.0
C43 C 0.17776 0.85322 0.42748 0.0
C44 C 0.18009 0.84926 0.39793 0.0
C45 C 0.11199 0.91582 0.3977 0.0
C46 C 0.10847 0.91933 0.42677 0.0
C47 C 0.06376 0.9567 0.43823 0.0
H48 H 0.88238 0.1403 0.41276 0.0
C49 C 0.07295 0.95253 0.38778 0.0
C50 C 0.04455 0.97693 0.41141 0.0
H51 H 0.89935 0.0776 0.49035 0.0
H52 H 0.97118 0.01982 0.46823 0.0
H53 H 0.0233 0.13332 0.39325 0.0
H54 H 0.86363 0.04722 0.37758 0.0
H55 H 0.90433 0.03437 0.34662 0.0
H56 H 0.88025 0.09548 0.35746 0.0
H57 H 0.96073 0.14929 0.37257 0.0
H58 H 0.0203 0.11251 0.3569 0.0
C59 C 0.09618 -0.00479 0.45948 0.0
C60 C 1.01156 0.93053 0.4512 0.0
C61 C 0.06165 0.9714 0.28302 0.0
C62 C 0.03163 0.00468 0.26804 0.0
C63 C 0.99793 0.04135 0.28322 0.0
C64 C 0.99382 0.04514 0.31253 0.0
C65 C 0.02327 0.01157 0.32715 0.0
C66 C 0.05686 0.97571 0.31251 0.0
C67 C 0.086 0.9441 0.33198 0.0
C68 C 0.06289 0.96631 0.36049 0.0
C69 C 0.0261 0.00557 0.35736 0.0
C70 C 0.15468 0.95019 0.32995 0.0
C71 C 0.06235 0.89161 0.32376 0.0
C72 C 0.90298 0.11552 0.42555 0.0
C73 C 0.8879 0.11535 0.45394 0.0
C74 C 0.91234 0.07962 0.46885 0.0
C75 C 0.95347 0.04612 0.45603 0.0
C76 C 0.96885 0.04755 0.42779 0.0
C77 C 0.9426 0.08132 0.41297 0.0
C78 C 0.95756 0.07404 0.38232 0.0
C79 C 0.99784 0.03065 0.38111 0.0
C80 C 1.00571 0.01582 0.40789 0.0
C81 C 0.99196 0.11965 0.37564 0.0
C82 C 0.8987 0.06248 0.36492 0.0
H83 H 0.15205 0.87574 0.36053 0.0
H84 H 0.13768 0.89148 0.46487 0.0
H85 H 0.96775 0.94641 0.44702 0.0
H86 H 0.01822 0.931 0.4743 0.0
H87 H 1.00722 0.892 0.44172 0.0
H88 H 0.13703 0.00886 0.45 0.0
H89 H 0.10994 0.97961 0.47878 0.0
H90 H 0.06834 0.027 0.46594 0.0
H91 H 0.08795 0.94252 0.27237 0.0
H92 H 0.97477 0.0676 0.27232 0.0
H93 H 0.96766 0.07415 0.32264 0.0
H94 H 0.16693 0.9873 0.32563 0.0
H95 H 0.17282 0.92423 0.31268 0.0
H96 H 0.17864 0.94608 0.34985 0.0
H97 H 0.01427 0.89142 0.31746 0.0
H98 H 0.06432 0.86973 0.34141 0.0
H99 H 0.0872 0.87287 0.3057 0.0
H100 H 0.20748 0.82196 0.38631 0.0
C101 C 0.14795 0.88055 0.38301 0.0
C102 C 0.13186 0.1598 0.54892 0.0
C103 C 0.16823 0.19592 0.56406 0.0
C104 C 0.16245 0.20577 0.59357 0.0
C105 C 0.08628 0.14327 0.59239 0.0
C106 C 0.09094 0.13425 0.56344 0.0
C107 C 0.04863 0.09472 0.5507 0.0
H108 H 0.83725 0.92638 0.56957 0.0
C109 C 0.04148 0.10944 0.60123 0.0
C110 C 0.01806 0.08159 0.57691 0.0
H111 H 0.91146 0.95849 0.49136 0.0
H112 H 0.97188 0.02355 0.51683 0.0
H113 H 0.96046 0.93017 0.60122 0.0
H114 H 0.82512 0.03857 0.60067 0.0
H115 H 0.85067 0.03916 0.63571 0.0
H116 H 0.81561 0.98512 0.61752 0.0
H117 H 0.8928 0.92776 0.62062 0.0
H118 H 0.95802 0.96074 0.63558 0.0
C119 C 0.08652 0.05256 0.53643 0.0
C120 C 1.00464 0.11616 0.5304 0.0
C121 C 0.01868 0.09733 0.7053 0.0
C122 C 0.98506 0.06628 0.72005 0.0
C123 C 0.94266 0.0346 0.7052 0.0
C124 C 0.93619 0.03184 0.67583 0.0
C125 C 0.9723 0.06139 0.66118 0.0
C126 C 1.01172 0.09414 0.67601 0.0
C127 C 0.04658 0.12257 0.65706 0.0
C128 C 0.02312 0.10032 0.6283 0.0
C129 C 0.97966 0.06457 0.63082 0.0
C130 C 0.11382 0.11221 0.66132 0.0
C131 C 0.02958 0.17662 0.66372 0.0
C132 C 0.86564 0.94822 0.55795 0.0
C133 C 0.86937 0.93836 0.5285 0.0
C134 C 0.90819 0.96603 0.51404 0.0
C135 C 0.94317 0.00336 0.52878 0.0
C136 C 0.94033 0.01207 0.55829 0.0
C137 C 0.90191 0.98481 0.57241 0.0
C138 C 0.90764 -0.00285 0.60389 0.0
C139 C 0.95441 0.03734 0.60626 0.0
C140 C 0.97352 0.04582 0.57947 0.0
C141 C 0.93049 0.95176 0.61621 0.0
C142 C 0.84663 0.01572 0.61528 0.0
H143 H 0.11946 0.18889 0.63016 0.0
H144 H 0.13526 0.15158 0.52623 0.0
H145 H 0.99915 0.15578 0.53637 0.0
H146 H 0.95906 0.10078 0.53115 0.0
H147 H 0.02049 0.11045 0.50834 0.0
H148 H 0.1247 0.0453 0.55039 0.0
H149 H 0.10519 0.0616 0.51635 0.0
H150 H 0.06154 0.01801 0.53211 0.0
H151 H 0.05013 0.12338 0.71617 0.0
H152 H 0.91564 0.01093 0.71628 0.0
H153 H 0.90407 0.00622 0.66563 0.0
H154 H 0.12055 0.07341 0.66363 0.0
H155 H 0.13224 0.13416 0.68064 0.0
H156 H 0.14143 0.11877 0.6433 0.0
H157 H 0.98364 0.18068 0.67219 0.0
H158 H 0.02853 0.19532 0.64467 0.0
H159 H 0.06067 0.19635 0.67966 0.0
H160 H 0.19074 0.23241 0.60603 0.0
C161 C 0.12136 0.17994 0.60771 0.0
C162 C 0.64836 0.3941 0.95723 0.0
C163 C 0.69441 0.36358 0.94647 0.0
C164 C 0.70681 0.35952 0.91743 0.0
C165 C 0.62951 0.41698 0.91059 0.0
C166 C 0.61704 0.4209 0.93902 0.0
C167 C 0.56861 0.45691 0.94705 0.0
H168 H 0.38691 0.63042 0.90822 0.0
C169 C 0.59004 0.44996 0.89743 0.0
C170 C 0.55446 0.47388 0.91872 0.0
H171 H 0.40057 0.58165 -0.00993 0.0
H172 H 0.47262 0.52103 0.97184 0.0
H173 H 0.52723 0.62545 0.89285 0.0
H174 H 0.37646 0.5293 0.87554 0.0
H175 H 0.42192 0.51718 0.84603 0.0
H176 H 0.3911 0.57681 0.85456 0.0
H177 H 0.46705 0.63527 0.86908 0.0
H178 H 0.53119 0.6002 0.85728 0.0
C179 C 0.59573 0.49801 0.96847 0.0
C180 C 0.51502 0.43002 0.95841 0.0
C181 C 0.60042 0.45984 0.79176 0.0
C182 C 0.57039 0.48851 0.77399 0.0
C183 C 0.52938 0.52311 0.78598 0.0
C184 C 0.51765 0.52831 0.81485 0.0
C185 C 0.54731 0.49897 0.83222 0.0
C186 C 0.58799 0.46546 0.8207 0.0
C187 C 0.61622 0.43844 0.84276 0.0
C188 C 0.58453 0.46057 0.8692 0.0
C189 C 0.54453 0.49601 0.8628 0.0
C190 C 0.68422 0.45012 0.8442 0.0
C191 C 0.60042 0.38404 0.83517 0.0
C192 C 0.40646 0.60765 0.92254 0.0
C193 C 0.39029 0.61205 0.95101 0.0
C194 C 0.41392 0.57952 0.9683 0.0
C195 C 0.45551 0.54461 0.95773 0.0
C196 C 0.47279 0.54183 0.92945 0.0
C197 C 0.44726 0.57245 0.91229 0.0
C198 C 0.46702 0.56227 0.88232 0.0
C199 C 0.5099 0.52125 0.88436 0.0
C200 C 0.51392 0.50974 0.91206 0.0
C201 C 0.49955 0.6081 0.8747 0.0
C202 C 0.41153 0.54584 0.86345 0.0
H203 H 0.68626 0.38126 0.87768 0.0
H204 H 0.63752 0.39747 0.97939 0.0
H205 H 0.47163 0.44632 0.95404 0.0
H206 H 0.51993 0.42881 0.98146 0.0
H207 H 0.51131 0.39205 0.94791 0.0
H208 H 0.63998 0.50975 0.96131 0.0
H209 H 0.60245 0.48564 -0.01056 0.0
H210 H 0.56827 0.53076 0.97103 0.0
H211 H 0.63301 0.43363 0.78331 0.0
H212 H 0.50724 0.54729 0.77333 0.0
H213 H 0.48632 0.55549 0.82256 0.0
H214 H 0.69402 0.48599 0.83733 0.0
H215 H 0.70946 0.42262 0.83038 0.0
H216 H 0.70289 0.45301 0.86591 0.0
H217 H 0.55275 0.37917 0.82834 0.0
H218 H 0.60557 0.36328 0.85317 0.0
H219 H 0.62824 0.36725 0.8176 0.0
H220 H 0.74056 0.33501 0.90832 0.0
C221 C 0.6747 0.38603 0.89952 0.0
C222 C 0.62362 0.68645 0.04563 0.0
C223 C 0.65736 0.72566 0.05966 0.0
C224 C 0.65415 0.7363 0.08911 0.0
C225 C 0.58969 0.66674 0.09083 0.0
C226 C 0.58914 0.65796 0.06172 0.0
C227 C 0.54721 0.61661 0.05091 0.0
H228 H 0.36235 0.43579 0.08129 0.0
C229 C 0.55266 0.62949 0.10163 0.0
C230 C 0.52622 0.60046 0.07847 0.0
H231 H 0.39591 0.47954 -0.00057 0.0
H232 H 0.46397 0.54274 0.02125 0.0
H233 H 0.49612 0.44106 0.10177 0.0
H234 H 0.35336 0.54286 0.1157 0.0
H235 H 0.39076 0.54014 0.14817 0.0
H236 H 0.35541 0.48639 0.12999 0.0
H237 H 0.44125 0.43619 0.12818 0.0
H238 H 0.50868 0.47206 0.13569 0.0
C239 C 0.58372 0.57703 0.03344 0.0
C240 C 0.49553 0.63677 0.03407 0.0
C241 C 0.56812 0.61142 0.20562 0.0
C242 C 0.54636 0.57668 0.22177 0.0
C243 C 0.50688 0.54012 0.20881 0.0
C244 C 0.49052 0.53805 0.18022 0.0
C245 C 0.51416 0.57245 0.16424 0.0
C246 C 0.55177 0.60859 0.17709 0.0
C247 C 0.57437 0.64111 0.15679 0.0
C248 C 0.54543 0.6177 0.12937 0.0
C249 C 0.51002 0.57773 0.13388 0.0
C250 C 0.64343 0.63745 0.15636 0.0
C251 C 0.5507 0.69286 0.16583 0.0
C252 C 0.38479 0.4583 0.0678 0.0
C253 C 0.37457 0.45203 0.03842 0.0
C254 C 0.40336 0.48358 0.02205 0.0
C255 C 0.44257 0.52015 0.03464 0.0
C256 C 0.45251 0.52568 0.06392 0.0
C257 C 0.42374 0.49502 0.07997 0.0
C258 C 0.43974 0.50594 0.11078 0.0
C259 C 0.48096 0.54943 0.1107 0.0
C260 C 0.48881 0.56073 0.08316 0.0
C261 C 0.47283 0.46163 0.11983 0.0
C262 C 0.38197 0.5193 0.12724 0.0
H263 H 0.62114 0.71669 0.12716 0.0
H264 H 0.62329 0.67878 0.02285 0.0
H265 H 0.48745 0.67557 0.04164 0.0
H266 H 0.45234 0.61841 0.03671 0.0
H267 H 0.50565 0.63398 0.01126 0.0
H268 H 0.62504 0.56926 0.04518 0.0
H269 H 0.59726 0.58895 0.01317 0.0
H270 H 0.55914 0.54234 0.02888 0.0
H271 H 0.59852 0.63984 0.21489 0.0
H272 H 0.48974 0.51208 0.22022 0.0
H273 H 0.46097 0.50916 0.17153 0.0
H274 H 0.65728 0.59912 0.15582 0.0
H275 H 0.66399 0.65844 0.1755 0.0
H276 H 0.66361 0.64995 0.13771 0.0
H277 H 0.51025 0.6924 0.17903 0.0
H278 H 0.5361 0.71073 0.14753 0.0
H279 H 0.58488 0.71604 0.17831 0.0
H280 H 0.67881 0.76689 0.10019 0.0
C281 C 0.62076 0.70708 0.10475 0.0
H282 H 0.28015 0.17134 0.00694 0.0
C283 C 0.23335 0.16084 0.00352 0.0
H284 H 0.14583 0.18685 -0.00106 0.0
H285 H 0.24169 0.38336 0.07097 0.0
H286 H 0.16004 0.35975 0.09934 0.0
H287 H 0.10202 0.28464 0.0847 0.0
H288 H 0.12515 0.23272 0.04154 0.0
C289 C 0.19326 0.19554 0.00089 0.0
C290 C 0.21436 0.24711 0.00501 0.0
C291 C 0.1992 0.27757 0.02984 0.0
C292 C 0.23305 0.32063 0.03841 0.0
C293 C 0.21791 0.34992 0.06369 0.0
C294 C 0.17104 0.33689 0.0801 0.0
C295 C 0.13836 0.2946 0.07185 0.0
C296 C 0.15218 0.26506 0.04708 0.0
H297 H 0.31082 0.41944 0.005 0.0
C298 C 0.33335 0.41359 0.02455 0.0
H299 H 0.34798 0.36444 0.05398 0.0
H300 H 0.24241 0.20427 0.95254 0.0
H301 H 0.32212 0.22867 0.92311 0.0
H302 H 0.38569 0.30014 0.93923 0.0
H303 H 0.36952 0.34804 -0.01566 0.0
C304 C 0.32496 0.37132 0.03479 0.0
C305 C 0.28189 0.33315 0.02213 0.0
C306 C 0.29307 0.30525 -0.00421 0.0
C307 C 0.25817 0.26282 -0.01302 0.0
C308 C 0.26908 0.23592 0.96044 0.0
C309 C 0.31437 0.24966 0.94337 0.0
C310 C 0.35003 0.28999 0.95241 0.0
C311 C 0.33998 0.31742 0.97836 0.0
H312 H 0.25049 0.88861 0.95357 0.0
C313 C 0.21217 0.8937 0.9673 0.0
H314 H 0.15477 0.86048 -0.00604 0.0
H315 H 0.28789 0.68562 0.9071 0.0
H316 H 0.22158 0.70947 0.8709 0.0
H317 H 0.15342 0.77818 0.88148 0.0
H318 H 0.15121 0.82342 0.92843 0.0
C319 C 0.19014 0.85569 0.97859 0.0
C320 C 0.22129 0.8085 0.97371 0.0
C321 C 0.22112 0.78183 0.94641 0.0
C322 C 0.2603 0.74224 0.94038 0.0
C323 C 0.25957 0.71645 0.9128 0.0
C324 C 0.22151 0.72959 0.89184 0.0
C325 C 0.18315 0.76828 0.89779 0.0
C326 C 0.1826 0.79411 0.92475 0.0
H327 H 0.31689 0.64121 0.9787 0.0
C328 C 0.34755 0.64946 0.96253 0.0
H329 H 0.37797 0.70202 0.93788 0.0
H330 H 0.22646 0.84793 0.02917 0.0
H331 H 0.29197 0.8238 0.06563 0.0
H332 H 0.36271 0.75695 0.05485 0.0
H333 H 0.36807 0.71364 0.00771 0.0
C334 C 0.34654 0.69322 0.95359 0.0
C335 C 0.29951 0.72932 0.96168 0.0
C336 C 0.29713 0.75411 -0.01053 0.0
C337 C 0.2572 0.79335 -0.00443 0.0
C338 C 0.2561 0.81803 0.02336 0.0
C339 C 0.29349 0.80457 0.04449 0.0
C340 C 0.33324 0.76688 0.03843 0.0
C341 C 0.33555 0.74205 0.01126 0.0
H342 H 0.96568 0.86491 -0.01704 0.0
C343 C 0.94926 0.89664 -0.00396 0.0
H344 H 0.88647 0.92595 0.02516 0.0
H345 H 0.66775 0.79438 -0.00598 0.0
H346 H 0.63824 0.86878 0.97644 0.0
H347 H 0.71155 0.93479 0.97399 0.0
H348 H 0.81433 0.92688 -0.01108 0.0
C349 C 0.90349 0.89292 0.01349 0.0
C350 C 0.86306 0.84968 0.01111 0.0
C351 C 0.80311 0.85464 0.00178 0.0
C352 C 0.76069 0.81684 0.00333 0.0
C353 C 0.70126 0.82264 -0.00614 0.0
C354 C 0.68389 0.86492 -0.01646 0.0
C355 C 0.72515 0.90205 0.98214 0.0
C356 C 0.78409 0.8971 -0.00902 0.0
H357 H 0.70066 0.79488 0.05423 0.0
C358 C 0.69568 0.75732 0.0448 0.0
H359 H 0.73114 0.70292 0.01494 0.0
H360 H 0.97508 0.82662 0.02854 0.0
H361 H 1.00497 0.75029 0.04345 0.0
H362 H 0.93163 0.68393 0.04479 0.0
H363 H 0.82779 0.69362 0.03149 0.0
C364 C 0.73124 0.74105 0.02334 0.0
C365 C 0.77791 0.77432 0.01445 0.0
C366 C 0.83893 0.76735 0.02112 0.0
C367 C 0.88154 0.80537 0.01983 0.0
C368 C 0.9413 0.79857 0.02841 0.0
C369 C 0.95896 0.75502 0.03715 0.0
C370 C 0.91764 0.71767 0.03796 0.0
C371 C 0.85817 0.72369 0.03028 0.0
H372 H 0.98957 0.18789 0.00172 0.0
C373 C 0.96044 0.16205 0.01017 0.0
H374 H 0.87403 0.14651 0.02341 0.0
H375 H 0.84455 0.37553 -0.00144 0.0
H376 H 0.91616 0.398 0.03689 0.0
H377 H 0.96804 0.33545 0.05983 0.0
H378 H 0.94856 0.25004 0.04465 0.0
C379 C 0.90289 0.17297 0.01532 0.0
C380 C 0.87262 0.21169 0.00196 0.0
C381 C 0.88427 0.26131 0.01127 0.0
C382 C 0.85415 0.2974 -0.00186 0.0
C383 C 0.86645 0.34674 0.00777 0.0
C384 C 0.9073 0.36009 0.02976 0.0
C385 C 0.9365 0.32486 0.04268 0.0
C386 C 0.92511 0.27597 0.03371 0.0
H387 H 0.70281 0.32117 0.98245 0.0
C388 C 0.72687 0.33404 0.96525 0.0
H389 H 0.80996 0.33553 0.94483 0.0
H390 H 0.84182 0.11954 0.97772 0.0
H391 H 0.77073 0.09765 0.9395 0.0
H392 H 0.71756 0.16039 0.91737 0.0
H393 H 0.73565 0.24537 0.93327 0.0
C394 C 0.78395 0.32107 0.96086 0.0
C395 C 0.81229 0.28374 0.97594 0.0
C396 C 0.8005 0.23415 0.96663 0.0
C397 C 0.83077 0.19807 0.97958 0.0
C398 C 0.81937 0.14871 0.9692 0.0
C399 C 0.77879 0.13552 0.94709 0.0
C400 C 0.74893 0.17081 0.93461 0.0
C401 C 0.75965 0.21955 0.94406 0.0
H402 H 0.63425 0.66941 0.48586 0.0
C403 C 0.67894 0.65639 0.48946 0.0
H404 H 0.77068 0.67391 0.49524 0.0
H405 H 0.79103 0.87845 0.46021 0.0
H406 H 0.81109 0.83358 0.41433 0.0
H407 H 0.78975 0.74583 0.40481 0.0
H408 H 0.74742 0.70255 0.44107 0.0
C409 C 0.72594 0.6873 0.49219 0.0
C410 C 0.72095 0.74079 0.49468 0.0
C411 C 0.7453 0.76556 0.47341 0.0
C412 C 0.75903 0.81582 0.47914 0.0
C413 C 0.78202 0.83988 0.45725 0.0
C414 C 0.79318 0.81465 0.43079 0.0
C415 C 0.78112 0.76524 0.42542 0.0
C416 C 0.75724 0.74081 0.44639 0.0
H417 H 0.86514 0.86777 0.50202 0.0
C418 C 0.83805 0.89577 0.51334 0.0
H419 H 0.75268 0.91794 0.52652 0.0
H420 H 0.6652 0.70596 0.5388 0.0
H421 H 0.64216 0.75107 0.58386 0.0
H422 H 0.66814 0.83779 0.59433 0.0
H423 H 0.71704 0.87977 0.55983 0.0
C424 C 0.7788 0.88921 0.51533 0.0
C425 C 0.75036 0.84078 0.50654 0.0
C426 C 0.71987 0.81722 0.52685 0.0
C427 C 0.70507 0.7671 0.52087 0.0
C428 C 0.67725 0.7439 0.542 0.0
C429 C 0.66376 0.7694 0.56806 0.0
C430 C 0.67835 0.8182 0.57395 0.0
C431 C 0.70641 0.84193 0.55379 0.0
H432 H 0.73266 0.38279 0.45878 0.0
C433 C 0.69336 0.3876 0.47188 0.0
H434 H 0.63617 0.35443 0.49858 0.0
H435 H 0.77702 0.18056 0.41397 0.0
H436 H 0.70781 0.19972 0.37758 0.0
H437 H 0.6355 0.26573 0.38741 0.0
H438 H 0.63202 0.31296 0.43382 0.0
C439 C 0.67153 0.34957 0.4832 0.0
C440 C 0.70445 0.30305 0.4791 0.0
C441 C 0.70504 0.27517 0.45218 0.0
C442 C 0.74669 0.23719 0.44656 0.0
C443 C 0.7468 0.21026 0.41931 0.0
C444 C 0.70711 0.22072 0.39827 0.0
C445 C 0.66641 0.25788 0.4038 0.0
C446 C 0.66509 0.28485 0.43043 0.0
H447 H 0.81403 0.13871 0.483 0.0
C448 C 0.84374 0.15019 0.46731 0.0
H449 H 0.86911 0.20692 0.44454 0.0
H450 H 0.70895 0.34496 0.5341 0.0
H451 H 0.77694 0.32498 0.57079 0.0
H452 H 0.85093 0.26032 0.56077 0.0
H453 H 0.85723 0.2151 0.51407 0.0
C454 C 0.83869 0.19484 0.45973 0.0
C455 C 0.78774 0.22716 0.46787 0.0
C456 C 0.78417 0.2526 0.49543 0.0
C457 C 0.74194 0.29032 0.50112 0.0
C458 C 0.7402 0.31606 0.52862 0.0
C459 C 0.77897 0.30496 0.54987 0.0
C460 C 0.8206 0.26852 0.54423 0.0
C461 C 0.8236 0.2427 0.51733 0.0
H462 H 0.42772 0.41868 0.53248 0.0
C463 C 0.4381 0.40358 0.51104 0.0
H464 H 0.43534 0.34323 0.48017 0.0
H465 H 0.31532 0.27041 0.59666 0.0
H466 H 0.41166 0.28715 0.61993 0.0
H467 H 0.49425 0.32261 0.59559 0.0
H468 H 0.48094 0.34203 0.54789 0.0
C469 C 0.42505 0.35703 0.50184 0.0
C470 C 0.37813 0.33091 0.51589 0.0
C471 C 0.38707 0.31908 0.54356 0.0
C472 C 0.33961 0.298 0.55742 0.0
C473 C 0.34966 0.28666 0.58513 0.0
C474 C 0.40483 0.29594 0.59873 0.0
C475 C 0.45132 0.316 0.58505 0.0
C476 C 0.44295 0.32726 0.55774 0.0
H477 H 0.22992 0.20243 0.52905 0.0
C478 C 0.21368 0.22101 0.54883 0.0
H479 H 0.21863 0.28573 0.57743 0.0
H480 H 0.34503 0.34855 0.46231 0.0
H481 H 0.24838 0.33367 0.43985 0.0
H482 H 0.16553 0.29939 0.46458 0.0
H483 H 0.17953 0.27951 0.51196 0.0
C484 C 0.23475 0.2657 0.55811 0.0
C485 C 0.28363 0.28818 0.54342 0.0
C486 C 0.27446 0.30016 0.51579 0.0
C487 C 0.32198 0.32088 0.50182 0.0
C488 C 0.31122 0.33261 0.47418 0.0
C489 C 0.25556 0.32441 0.46092 0.0
C490 C 0.20898 0.30505 0.47481 0.0
C491 C 0.2179 0.29333 0.50197 0.0
H492 H 0.46324 0.67987 0.50061 0.0
C493 C 0.43057 0.65129 0.49415 0.0
H494 H 0.34098 0.63403 0.48185 0.0
H495 H 0.21508 0.82875 0.51702 0.0
H496 H 0.20272 0.79547 0.56116 0.0
H497 H 0.26033 0.72454 0.57132 0.0
H498 H 0.33049 0.68619 0.53729 0.0
C499 C 0.37403 0.66252 0.48781 0.0
C500 C 0.35414 0.71261 0.48569 0.0
C501 C 0.31476 0.73544 0.506 0.0
C502 C 0.28206 0.77667 0.50026 0.0
C503 C 0.24126 0.79757 0.52045 0.0
C504 C 0.23381 0.77884 0.54583 0.0
C505 C 0.26621 0.73886 0.55155 0.0
C506 C 0.30611 0.71712 0.53188 0.0
H507 H 0.21695 0.78212 0.4302 0.0
C508 C 0.21237 0.81824 0.44165 0.0
H509 H 0.2437 0.86652 0.47681 0.0
H510 H 0.43017 0.68015 0.44303 0.0
H511 H 0.44808 0.71715 0.40079 0.0
H512 H 0.39725 0.79231 0.39267 0.0
H513 H 0.32681 0.83011 0.42651 0.0
C514 C 0.24588 0.83049 0.46512 0.0
C515 C 0.2892 0.79497 0.47424 0.0
C516 C 0.33405 0.77565 0.45547 0.0
C517 C 0.3654 0.73363 0.46081 0.0
C518 C 0.40605 0.7127 0.44046 0.0
C519 C 0.41689 0.73363 0.41609 0.0
C520 C 0.38811 0.77584 0.41147 0.0
C521 C 0.34738 0.79689 0.43092 0.0
H522 H 0.1668 -0.00193 0.10052 0.0
C523 C 0.12657 0.00391 0.08842 0.0
H524 H 0.03222 0.00807 0.08931 0.0
H525 H 0.03012 0.89452 0.1976 0.0
H526 H 0.99195 0.83167 0.16157 0.0
H527 H 0.98924 0.84429 0.11145 0.0
H528 H 0.02462 0.91988 0.09701 0.0
C529 C 0.07345 0.0042 0.10106 0.0
C530 C 0.07043 -0.00199 0.13146 0.0
C531 C 0.0494 0.95378 0.13955 0.0
C532 C 0.0511 0.94646 0.16846 0.0
C533 C 0.02989 0.90191 0.17594 0.0
C534 C 1.00791 0.86555 0.15548 0.0
C535 C 1.0064 0.87265 0.12725 0.0
C536 C 0.02689 0.91616 0.11924 0.0
H537 H 1.00506 0.02878 0.22752 0.0
C538 C 0.03403 0.00386 0.23689 0.0
H539 H 0.10136 0.95131 0.22736 0.0
H540 H 0.1072 0.08923 0.1235 0.0
H541 H 0.14788 0.15124 0.15919 0.0
H542 H 0.15774 0.13647 0.20879 0.0
H543 H 0.12579 0.06005 0.22307 0.0
C544 C 0.07152 0.97723 0.21969 0.0
C545 C 0.07338 0.98356 0.18922 0.0
C546 C 0.0949 0.0277 0.18105 0.0
C547 C 0.09195 0.03537 0.15225 0.0
C548 C 0.11056 0.08078 0.14491 0.0
C549 C 0.13369 0.11682 0.16521 0.0
C550 C 0.13901 0.10858 0.19315 0.0
C551 C 0.12003 0.06462 0.20109 0.0
H552 H 0.11734 0.04249 0.89529 0.0
C553 C 0.07029 0.0413 0.90047 0.0
H554 H 0.98135 0.04669 0.88599 0.0
H555 H 0.02095 0.16281 0.78571 0.0
H556 H 0.98735 0.22706 0.82105 0.0
H557 H 0.97957 0.21388 0.8709 0.0
H558 H 1.00535 0.13652 0.88576 0.0
C559 C 0.02839 0.0462 0.88067 0.0
C560 C 0.04334 0.05623 0.85187 0.0
C561 C 0.02858 0.10179 0.84368 0.0
C562 C 0.03303 0.10945 0.81502 0.0
C563 C 0.01773 0.15511 0.80725 0.0
C564 C 0.99865 0.19228 0.82731 0.0
C565 C 0.99427 0.18486 0.85538 0.0
C566 C 1.00898 0.14023 0.8636 0.0
H567 H 0.95622 0.05349 0.76246 0.0
C568 C 0.99348 0.06578 0.75077 0.0
H569 H 0.0856 0.08539 0.75317 0.0
H570 H 0.07878 0.9652 0.86067 0.0
H571 H 0.11867 0.90355 0.82574 0.0
H572 H 0.1298 0.91842 0.77634 0.0
H573 H 0.10029 -0.00494 0.76153 0.0
C574 C 0.04607 0.0762 0.7643 0.0
C575 C 0.05205 0.07153 0.79472 0.0
C576 C 0.07168 0.02746 0.80322 0.0
C577 C 0.06657 0.01942 0.83184 0.0
C578 C 0.08311 0.97388 0.83942 0.0
C579 C 0.10585 0.93803 0.81952 0.0
C580 C 0.11202 0.94636 0.79169 0.0
C581 C 0.09488 0.9904 0.78347 0.0
H582 H 0.53586 0.51682 0.59251 0.0
C583 C 0.5834 0.51602 0.58818 0.0
H584 H 0.67041 0.50919 0.60514 0.0
H585 H 0.56232 0.58855 0.72657 0.0
H586 H 0.58516 0.66645 0.71157 0.0
H587 H 0.6167 0.67227 0.66293 0.0
H588 H 0.62527 0.60016 0.62892 0.0
C589 C 0.62275 0.51057 0.60904 0.0
C590 C 0.6029 0.5069 0.63819 0.0
C591 C 0.59801 0.54934 0.65776 0.0
C592 C 0.58003 0.54593 0.68582 0.0
C593 C 0.57561 0.58898 0.70496 0.0
C594 C 0.58868 0.63396 0.69664 0.0
C595 C 0.60644 0.63723 0.66925 0.0
C596 C 0.61113 0.59556 0.64995 0.0
H597 H 0.62878 0.4699 0.73719 0.0
C598 C 0.58523 0.48397 0.74352 0.0
H599 H 0.50356 0.5106 0.72905 0.0
H600 H 0.61067 0.41857 0.6062 0.0
H601 H 0.58898 0.34041 0.62128 0.0
H602 H 0.55446 0.33458 0.66946 0.0
H603 H 0.54378 0.4068 0.7033 0.0
C604 C 0.54783 0.49735 0.72366 0.0
C605 C 0.56754 0.50003 0.69433 0.0
C606 C 0.57246 0.45755 0.67474 0.0
C607 C 0.59072 0.46099 0.64669 0.0
C608 C 0.59641 0.418 0.62767 0.0
C609 C 0.58389 0.37295 0.63602 0.0
C610 C 0.56472 0.36966 0.6632 0.0
C611 C 0.55894 0.41135 0.68243 0.0
H612 H 0.53297 0.48705 0.37408 0.0
C613 C 0.55944 0.50645 0.39133 0.0
H614 H 0.62758 0.559 0.40203 0.0
H615 H 0.59925 0.47317 0.26289 0.0
H616 H 0.64846 0.40128 0.2752 0.0
H617 H 0.68084 0.39599 0.32428 0.0
H618 H 0.66368 0.46273 0.36145 0.0
C619 C 0.60303 0.53669 0.38528 0.0
C620 C 0.60721 0.54683 0.35556 0.0
C621 C 0.6194 0.50862 0.33399 0.0
C622 C 0.6013 0.51197 0.30574 0.0
C623 C 0.61206 0.47247 0.28475 0.0
C624 C 0.64039 0.43109 0.29152 0.0
C625 C 0.65857 0.42809 0.31916 0.0
C626 C 0.64824 0.46633 0.34026 0.0
H627 H 0.60782 0.60132 0.25765 0.0
C628 C 0.5689 0.57849 0.25134 0.0
H629 H 0.50555 0.5305 0.26564 0.0
H630 H 0.59224 0.63098 0.39083 0.0
H631 H 0.54869 0.70493 0.37841 0.0
H632 H 0.51371 0.71023 0.32973 0.0
H633 H 0.52345 0.64208 0.29304 0.0
C634 C 0.54438 0.55376 0.27064 0.0
C635 C 0.57213 0.55401 0.2991 0.0
C636 C 0.56626 0.59446 0.32014 0.0
C637 C 0.58494 0.59107 0.34838 0.0
C638 C 0.57801 0.63154 0.36916 0.0
C639 C 0.55314 0.67417 0.3623 0.0
C640 C 0.53368 0.6772 0.33486 0.0
C641 C 0.53978 0.63785 0.31396 0.0
loop_
_geom_bond_atom_site_label_1
_geom_bond_atom_site_label_2
_geom_bond_distance
_geom_bond_site_symmetry_2
_ccdc_geom_bond_type
O0 Mg1 1.990 . S
O0 C14 1.253 . S
Mg1 O0 1.990 . S
Mg1 O4 2.180 . S
Mg1 O5 2.117 . S
Mg1 O19 2.030 1_545 S
O2 Mg3 2.072 . S
O2 C14 1.260 . S
Mg3 O2 2.072 . S
Mg3 O4 2.099 . S
Mg3 O6 2.079 1_554 S
Mg3 O7 2.072 . S
Mg3 O9 2.099 1_444 S
Mg3 O20 2.079 1_545 S
O4 Mg1 2.180 . S
O4 Mg3 2.099 . S
O4 C15 1.279 . S
O5 Mg1 2.117 . S
O5 C15 1.250 . S
O6 Mg3 2.079 1_556 S
O6 C16 1.264 . S
O7 Mg3 2.072 . S
O7 C17 1.260 1_455 S
Mg8 O9 2.180 1_545 S
Mg8 O10 2.030 . S
Mg8 O11 1.990 . S
Mg8 O12 2.117 1_546 S
O9 Mg3 2.099 1_666 S
O9 Mg8 2.180 1_565 S
O9 C18 1.279 1_556 S
O10 Mg8 2.030 . S
O10 C16 1.248 1_655 S
O11 Mg8 1.990 . S
O11 C17 1.253 1_556 S
O12 Mg8 2.117 1_564 S
O12 C18 1.250 . S
C13 O19 1.248 . S
C13 O20 1.264 . S
C14 O0 1.253 . S
C14 O2 1.260 . S
C15 O4 1.279 . S
C15 O5 1.250 . S
C16 O6 1.264 . S
C16 O10 1.248 1_455 S
C17 O7 1.260 1_655 S
C17 O11 1.253 1_554 S
C18 O9 1.279 1_554 S
C18 O12 1.250 . S
O19 Mg1 2.030 1_565 S
O19 C13 1.248 . S
O20 Mg3 2.079 1_565 S
O20 C13 1.264 . S
O21 Mg22 1.990 . S
O21 C35 1.253 . S
Mg22 O21 1.990 . S
Mg22 O25 2.180 . S
Mg22 O26 2.117 . S
Mg22 O40 2.030 . S
O23 Mg24 2.072 . S
O23 C35 1.260 . S
Mg24 O23 2.072 . S
Mg24 O25 2.099 . S
Mg24 O27 2.079 . S
Mg24 O28 2.072 . S
Mg24 O30 2.099 . S
Mg24 O41 2.079 . S
O25 Mg22 2.180 . S
O25 Mg24 2.099 . S
O25 C36 1.279 . S
O26 Mg22 2.117 . S
O26 C36 1.250 . S
O27 Mg24 2.079 . S
O27 C37 1.264 . S
O28 Mg24 2.072 . S
O28 C38 1.260 . S
Mg29 O30 2.180 . S
Mg29 O31 2.030 . S
Mg29 O32 1.990 . S
Mg29 O33 2.117 . S
O30 Mg24 2.099 . S
O30 Mg29 2.180 . S
O30 C39 1.279 . S
O31 Mg29 2.030 . S
O31 C37 1.248 . S
O32 Mg29 1.990 . S
O32 C38 1.253 . S
O33 Mg29 2.117 . S
O33 C39 1.250 . S
C34 O40 1.248 . S
C34 O41 1.264 . S
C35 O21 1.253 . S
C35 O23 1.260 . S
C36 O25 1.279 . S
C36 O26 1.250 . S
C37 O27 1.264 . S
C37 O31 1.248 . S
C38 O28 1.260 . S
C38 O32 1.253 . S
C39 O30 1.279 . S
C39 O33 1.250 . S
O40 Mg22 2.030 . S
O40 C34 1.248 . S
O41 Mg24 2.079 . S
O41 C34 1.264 . S
C42 C43 1.391 . S
C42 C46 1.391 . S
C42 H84 0.948 . S
C43 C42 1.391 . S
C43 C44 1.391 . S
C44 C43 1.391 . S
C44 H100 0.947 . S
C44 C101 1.392 . S
C45 C46 1.391 . S
C45 C49 1.397 . S
C45 C101 1.419 . S
C46 C42 1.391 . S
C46 C45 1.391 . S
C46 C47 1.399 . S
C47 C46 1.399 . S
C47 C50 1.396 . S
C47 C59 1.453 1_565 S
C47 C60 1.684 . S
H48 C72 0.948 . S
C49 C45 1.397 . S
C49 C50 1.394 . S
C49 C68 1.723 . S
C50 C47 1.396 . S
C50 C49 1.394 . S
C50 C80 1.723 1_565 S
H51 C74 0.947 . S
H52 C75 0.948 . S
H53 C81 0.982 1_455 S
H54 C82 0.979 . S
H55 C82 0.980 . S
H56 C82 0.983 . S
H57 C81 0.979 . S
H58 C81 0.977 . S
C59 C47 1.453 1_545 S
C59 H88 0.982 . S
C59 H89 0.979 1_545 S
C59 H90 0.977 . S
C60 C47 1.684 . S
C60 H85 0.979 1_455 S
C60 H86 0.980 1_455 S
C60 H87 0.983 . S
C61 C62 1.391 . S
C61 C66 1.391 . S
C61 H91 0.948 . S
C62 C61 1.391 . S
C62 C63 1.391 1_565 S
C63 C62 1.391 1_545 S
C63 C64 1.393 . S
C63 H92 0.947 1_455 S
C64 C63 1.393 . S
C64 C65 1.426 . S
C64 H93 0.939 1_455 S
C65 C64 1.426 . S
C65 C66 1.391 1_545 S
C65 C69 1.397 . S
C66 C61 1.391 . S
C66 C65 1.391 1_565 S
C66 C67 1.399 . S
C67 C66 1.399 . S
C67 C68 1.396 . S
C67 C70 1.453 . S
C67 C71 1.684 . S
C68 C49 1.723 . S
C68 C67 1.396 . S
C68 C69 1.394 1_565 S
C69 C65 1.397 . S
C69 C68 1.394 1_545 S
C69 C79 1.723 . S
C70 C67 1.453 . S
C70 H94 0.982 . S
C70 H95 0.979 . S
C70 H96 0.977 . S
C71 C67 1.684 . S
C71 H97 0.979 . S
C71 H98 0.980 . S
C71 H99 0.983 . S
C72 H48 0.948 . S
C72 C73 1.391 . S
C72 C77 1.391 . S
C73 C72 1.391 . S
C73 C74 1.391 . S
C74 H51 0.947 . S
C74 C73 1.391 . S
C74 C75 1.392 . S
C75 H52 0.948 . S
C75 C74 1.392 . S
C75 C76 1.419 . S
C76 C75 1.419 . S
C76 C77 1.391 . S
C76 C80 1.397 1_655 S
C77 C72 1.391 . S
C77 C76 1.391 . S
C77 C78 1.399 . S
C78 C77 1.399 . S
C78 C79 1.396 1_655 S
C78 C81 1.453 . S
C78 C82 1.684 . S
C79 C69 1.723 . S
C79 C78 1.396 1_455 S
C79 C80 1.394 . S
C80 C50 1.723 1_545 S
C80 C76 1.397 1_455 S
C80 C79 1.394 . S
C81 H53 0.982 1_655 S
C81 H57 0.979 . S
C81 H58 0.977 . S
C81 C78 1.453 . S
C82 H54 0.979 . S
C82 H55 0.980 . S
C82 H56 0.983 . S
C82 C78 1.684 . S
H83 C101 0.948 . S
H84 C42 0.948 . S
H85 C60 0.979 1_655 S
H86 C60 0.980 1_655 S
H87 C60 0.983 . S
H88 C59 0.982 . S
H89 C59 0.979 1_565 S
H90 C59 0.977 . S
H91 C61 0.948 . S
H92 C63 0.947 1_655 S
H93 C64 0.939 1_655 S
H94 C70 0.982 . S
H95 C70 0.979 . S
H96 C70 0.977 . S
H97 C71 0.979 . S
H98 C71 0.980 . S
H99 C71 0.983 . S
H100 C44 0.947 . S
C101 C44 1.392 . S
C101 C45 1.419 . S
C101 H83 0.948 . S
C102 C103 1.391 . S
C102 C106 1.391 . S
C102 H144 0.948 . S
C103 C102 1.391 . S
C103 C104 1.391 . S
C104 C103 1.391 . S
C104 H160 0.947 . S
C104 C161 1.392 . S
C105 C106 1.391 . S
C105 C109 1.397 . S
C105 C161 1.419 . S
C106 C102 1.391 . S
C106 C105 1.391 . S
C106 C107 1.399 . S
C107 C106 1.399 . S
C107 C110 1.396 . S
C107 C119 1.453 . S
C107 C120 1.684 1_455 S
H108 C132 0.948 . S
C109 C105 1.397 . S
C109 C110 1.394 . S
C109 C128 1.723 . S
C110 C107 1.396 . S
C110 C109 1.394 . S
C110 C140 1.723 1_455 S
H111 C134 0.947 . S
H112 C135 0.948 . S
H113 C141 0.982 . S
H114 C142 0.979 . S
H115 C142 0.980 . S
H116 C142 0.983 1_565 S
H117 C141 0.979 . S
H118 C141 0.977 . S
C119 C107 1.453 . S
C119 H148 0.982 . S
C119 H149 0.979 . S
C119 H150 0.977 . S
C120 C107 1.684 1_655 S
C120 H145 0.979 . S
C120 H146 0.980 . S
C120 H147 0.983 . S
C121 C122 1.391 1_455 S
C121 C126 1.391 . S
C121 H151 0.948 . S
C122 C121 1.391 1_655 S
C122 C123 1.391 . S
C123 C122 1.391 . S
C123 C124 1.392 . S
C123 H152 0.947 . S
C124 C123 1.392 . S
C124 C125 1.419 . S
C124 H153 0.948 . S
C125 C124 1.419 . S
C125 C126 1.391 1_655 S
C125 C129 1.397 . S
C126 C121 1.391 . S
C126 C125 1.391 1_455 S
C126 C127 1.399 . S
C127 C126 1.399 . S
C127 C128 1.396 . S
C127 C130 1.453 . S
C127 C131 1.684 . S
C128 C109 1.723 . S
C128 C127 1.396 . S
C128 C129 1.394 1_455 S
C129 C125 1.397 . S
C129 C128 1.394 1_655 S
C129 C139 1.723 . S
C130 C127 1.453 . S
C130 H154 0.982 . S
C130 H155 0.979 . S
C130 H156 0.977 . S
C131 C127 1.684 . S
C131 H157 0.979 . S
C131 H158 0.980 . S
C131 H159 0.983 . S
C132 H108 0.948 . S
C132 C133 1.391 . S
C132 C137 1.391 . S
C133 C132 1.391 . S
C133 C134 1.391 . S
C134 H111 0.947 . S
C134 C133 1.391 . S
C134 C135 1.392 1_565 S
C135 H112 0.948 . S
C135 C134 1.392 1_545 S
C135 C136 1.419 . S
C136 C135 1.419 . S
C136 C137 1.391 1_545 S
C136 C140 1.397 . S
C137 C132 1.391 . S
C137 C136 1.391 1_565 S
C137 C138 1.399 1_565 S
C138 C137 1.399 1_545 S
C138 C139 1.396 . S
C138 C141 1.453 1_545 S
C138 C142 1.684 . S
C139 C129 1.723 . S
C139 C138 1.396 . S
C139 C140 1.394 . S
C140 C110 1.723 1_655 S
C140 C136 1.397 . S
C140 C139 1.394 . S
C141 H113 0.982 . S
C141 H117 0.979 . S
C141 H118 0.977 . S
C141 C138 1.453 1_565 S
C142 H114 0.979 . S
C142 H115 0.980 . S
C142 H116 0.983 1_545 S
C142 C138 1.684 . S
H143 C161 0.948 . S
H144 C102 0.948 . S
H145 C120 0.979 . S
H146 C120 0.980 . S
H147 C120 0.983 . S
H148 C119 0.982 . S
H149 C119 0.979 . S
H150 C119 0.977 . S
H151 C121 0.948 . S
H152 C123 0.947 . S
H153 C124 0.948 . S
H154 C130 0.982 . S
H155 C130 0.979 . S
H156 C130 0.977 . S
H157 C131 0.979 . S
H158 C131 0.980 . S
H159 C131 0.983 . S
H160 C104 0.947 . S
C161 C104 1.392 . S
C161 C105 1.419 . S
C161 H143 0.948 . S
C162 C163 1.391 . S
C162 C166 1.391 . S
C162 H204 0.948 1_556 S
C163 C162 1.391 . S
C163 C164 1.391 . S
C164 C163 1.391 . S
C164 H220 0.947 . S
C164 C221 1.392 . S
C165 C166 1.391 . S
C165 C169 1.397 . S
C165 C221 1.419 . S
C166 C162 1.391 . S
C166 C165 1.391 . S
C166 C167 1.399 . S
C167 C166 1.399 . S
C167 C170 1.396 . S
C167 C179 1.457 . S
C167 C180 1.684 1_556 S
H168 C192 0.948 . S
C169 C165 1.397 . S
C169 C170 1.394 . S
C169 C188 1.723 . S
C170 C167 1.396 . S
C170 C169 1.394 . S
C170 C200 1.723 . S
H171 C194 0.947 . S
H172 C195 0.948 1_554 S
H173 C201 0.982 . S
H174 C202 0.979 . S
H175 C202 0.980 . S
H176 C202 0.983 . S
H177 C201 0.979 . S
H178 C201 0.977 . S
C179 C167 1.457 . S
C179 H208 0.985 . S
C179 H209 0.973 1_556 S
C179 H210 0.976 1_556 S
C180 C167 1.684 1_554 S
C180 H205 0.979 1_554 S
C180 H206 0.980 . S
C180 H207 0.983 . S
C181 C182 1.391 . S
C181 C186 1.391 . S
C181 H211 0.948 . S
C182 C181 1.391 . S
C182 C183 1.391 . S
C183 C182 1.391 . S
C183 C184 1.392 . S
C183 H212 0.947 . S
C184 C183 1.392 . S
C184 C185 1.419 . S
C184 H213 0.948 . S
C185 C184 1.419 . S
C185 C186 1.391 . S
C185 C189 1.397 . S
C186 C181 1.391 . S
C186 C185 1.391 . S
C186 C187 1.399 . S
C187 C186 1.399 . S
C187 C188 1.396 . S
C187 C190 1.453 . S
C187 C191 1.684 . S
C188 C169 1.723 . S
C188 C187 1.396 . S
C188 C189 1.394 . S
C189 C185 1.397 . S
C189 C188 1.394 . S
C189 C199 1.723 . S
C190 C187 1.453 . S
C190 H214 0.982 . S
C190 H215 0.979 . S
C190 H216 0.977 . S
C191 C187 1.684 . S
C191 H217 0.979 . S
C191 H218 0.980 . S
C191 H219 0.983 . S
C192 H168 0.948 . S
C192 C193 1.391 . S
C192 C197 1.391 . S
C193 C192 1.391 . S
C193 C194 1.391 1_556 S
C194 H171 0.947 . S
C194 C193 1.391 1_554 S
C194 C195 1.392 1_554 S
C195 H172 0.948 1_556 S
C195 C194 1.392 1_556 S
C195 C196 1.419 . S
C196 C195 1.419 . S
C196 C197 1.391 . S
C196 C200 1.397 . S
C197 C192 1.391 . S
C197 C196 1.391 . S
C197 C198 1.399 . S
C198 C197 1.399 . S
C198 C199 1.396 . S
C198 C201 1.453 . S
C198 C202 1.684 . S
C199 C189 1.723 . S
C199 C198 1.396 . S
C199 C200 1.394 . S
C200 C170 1.723 . S
C200 C196 1.397 . S
C200 C199 1.394 . S
C201 H173 0.982 . S
C201 H177 0.979 . S
C201 H178 0.977 . S
C201 C198 1.453 . S
C202 H174 0.979 . S
C202 H175 0.980 . S
C202 H176 0.983 . S
C202 C198 1.684 . S
H203 C221 0.948 . S
H204 C162 0.948 1_554 S
H205 C180 0.979 1_556 S
H206 C180 0.980 . S
H207 C180 0.983 . S
H208 C179 0.985 . S
H209 C179 0.973 1_554 S
H210 C179 0.976 1_554 S
H211 C181 0.948 . S
H212 C183 0.947 . S
H213 C184 0.948 . S
H214 C190 0.982 . S
H215 C190 0.979 . S
H216 C190 0.977 . S
H217 C191 0.979 . S
H218 C191 0.980 . S
H219 C191 0.983 . S
H220 C164 0.947 . S
C221 C164 1.392 . S
C221 C165 1.419 . S
C221 H203 0.948 . S
C222 C223 1.391 . S
C222 C226 1.391 . S
C222 H264 0.948 . S
C223 C222 1.391 . S
C223 C224 1.391 . S
C224 C223 1.391 . S
C224 H280 0.947 . S
C224 C281 1.392 . S
C225 C226 1.391 . S
C225 C229 1.397 . S
C225 C281 1.419 . S
C226 C222 1.391 . S
C226 C225 1.391 . S
C226 C227 1.399 . S
C227 C226 1.399 . S
C227 C230 1.396 . S
C227 C239 1.453 . S
C227 C240 1.684 . S
H228 C252 0.948 . S
C229 C225 1.397 . S
C229 C230 1.394 . S
C229 C248 1.723 . S
C230 C227 1.396 . S
C230 C229 1.394 . S
C230 C260 1.723 . S
H231 C254 0.947 1_556 S
H232 C255 0.948 . S
H233 C261 0.982 . S
H234 C262 0.979 . S
H235 C262 0.980 . S
H236 C262 0.983 . S
H237 C261 0.979 . S
H238 C261 0.977 . S
C239 C227 1.453 . S
C239 H268 0.982 . S
C239 H269 0.979 . S
C239 H270 0.977 . S
C240 C227 1.684 . S
C240 H265 0.979 . S
C240 H266 0.980 . S
C240 H267 0.983 . S
C241 C242 1.391 . S
C241 C246 1.391 . S
C241 H271 0.948 . S
C242 C241 1.391 . S
C242 C243 1.391 . S
C243 C242 1.391 . S
C243 C244 1.392 . S
C243 H272 0.947 . S
C244 C243 1.392 . S
C244 C245 1.419 . S
C244 H273 0.948 . S
C245 C244 1.419 . S
C245 C246 1.391 . S
C245 C249 1.397 . S
C246 C241 1.391 . S
C246 C245 1.391 . S
C246 C247 1.399 . S
C247 C246 1.399 . S
C247 C248 1.396 . S
C247 C250 1.453 . S
C247 C251 1.684 . S
C248 C229 1.723 . S
C248 C247 1.396 . S
C248 C249 1.394 . S
C249 C245 1.397 . S
C249 C248 1.394 . S
C249 C259 1.723 . S
C250 C247 1.453 . S
C250 H274 0.982 . S
C250 H275 0.979 . S
C250 H276 0.977 . S
C251 C247 1.684 . S
C251 H277 0.979 . S
C251 H278 0.980 . S
C251 H279 0.983 . S
C252 H228 0.948 . S
C252 C253 1.391 . S
C252 C257 1.391 . S
C253 C252 1.391 . S
C253 C254 1.391 . S
C254 H231 0.947 1_554 S
C254 C253 1.391 . S
C254 C255 1.392 . S
C255 H232 0.948 . S
C255 C254 1.392 . S
C255 C256 1.419 . S
C256 C255 1.419 . S
C256 C257 1.391 . S
C256 C260 1.397 . S
C257 C252 1.391 . S
C257 C256 1.391 . S
C257 C258 1.399 . S
C258 C257 1.399 . S
C258 C259 1.396 . S
C258 C261 1.453 . S
C258 C262 1.684 . S
C259 C249 1.723 . S
C259 C258 1.396 . S
C259 C260 1.394 . S
C260 C230 1.723 . S
C260 C256 1.397 . S
C260 C259 1.394 . S
C261 H233 0.982 . S
C261 H237 0.979 . S
C261 H238 0.977 . S
C261 C258 1.453 . S
C262 H234 0.979 . S
C262 H235 0.980 . S
C262 H236 0.983 . S
C262 C258 1.684 . S
H263 C281 0.948 . S
H264 C222 0.948 . S
H265 C240 0.979 . S
H266 C240 0.980 . S
H267 C240 0.983 . S
H268 C239 0.982 . S
H269 C239 0.979 . S
H270 C239 0.977 . S
H271 C241 0.948 . S
H272 C243 0.947 . S
H273 C244 0.948 . S
H274 C250 0.982 . S
H275 C250 0.979 . S
H276 C250 0.977 . S
H277 C251 0.979 . S
H278 C251 0.980 . S
H279 C251 0.983 . S
H280 C224 0.947 . S
C281 C224 1.392 . S
C281 C225 1.419 . S
C281 H263 0.948 . S
H282 C283 0.951 . S
C283 H282 0.951 . S
C283 C289 1.265 . S
H284 C289 0.950 . S
H285 C293 0.949 . S
H286 C294 0.950 . S
H287 C295 0.951 . S
H288 C296 0.951 . S
C289 C283 1.265 . S
C289 H284 0.950 . S
C289 C290 1.478 . S
C290 C289 1.478 . S
C290 C291 1.397 . S
C290 C307 1.394 1_554 S
C291 C290 1.397 . S
C291 C292 1.438 . S
C291 C296 1.429 . S
C292 C291 1.438 . S
C292 C293 1.428 . S
C292 C305 1.394 . S
C293 H285 0.949 . S
C293 C292 1.428 . S
C293 C294 1.345 . S
C294 H286 0.950 . S
C294 C293 1.345 . S
C294 C295 1.424 . S
C295 H287 0.951 . S
C295 C294 1.424 . S
C295 C296 1.347 . S
C296 H288 0.951 . S
C296 C291 1.429 . S
C296 C295 1.347 . S
H297 C298 0.951 . S
C298 H297 0.951 . S
C298 C304 1.265 . S
H299 C304 0.950 . S
H300 C308 0.949 . S
H301 C309 0.950 . S
H302 C310 0.951 . S
H303 C311 0.951 . S
C304 C298 1.265 . S
C304 H299 0.950 . S
C304 C305 1.478 . S
C305 C292 1.394 . S
C305 C304 1.478 . S
C305 C306 1.397 1_554 S
C306 C305 1.397 1_556 S
C306 C307 1.438 . S
C306 C311 1.429 . S
C307 C290 1.394 1_556 S
C307 C306 1.438 . S
C307 C308 1.428 . S
C308 H300 0.949 . S
C308 C307 1.428 . S
C308 C309 1.345 . S
C309 H301 0.950 . S
C309 C308 1.345 . S
C309 C310 1.424 . S
C310 H302 0.951 . S
C310 C309 1.424 . S
C310 C311 1.347 . S
C311 H303 0.951 . S
C311 C306 1.429 . S
C311 C310 1.347 . S
H312 C313 0.951 . S
C313 H312 0.951 . S
C313 C319 1.265 . S
H314 C319 0.950 1_556 S
H315 C323 0.949 . S
H316 C324 0.950 . S
H317 C325 0.951 . S
H318 C326 0.951 . S
C319 C313 1.265 . S
C319 H314 0.950 1_554 S
C319 C320 1.478 . S
C320 C319 1.478 . S
C320 C321 1.397 1_554 S
C320 C337 1.394 . S
C321 C320 1.397 1_556 S
C321 C322 1.438 . S
C321 C326 1.429 . S
C322 C321 1.438 . S
C322 C323 1.428 . S
C322 C335 1.394 1_556 S
C323 H315 0.949 . S
C323 C322 1.428 . S
C323 C324 1.345 . S
C324 H316 0.950 . S
C324 C323 1.345 . S
C324 C325 1.424 . S
C325 H317 0.951 . S
C325 C324 1.424 . S
C325 C326 1.347 . S
C326 H318 0.951 . S
C326 C321 1.429 . S
C326 C325 1.347 . S
H327 C328 0.951 . S
C328 H327 0.951 . S
C328 C334 1.265 1_556 S
H329 C334 0.950 . S
H330 C338 0.949 . S
H331 C339 0.950 . S
H332 C340 0.951 . S
H333 C341 0.951 . S
C334 C328 1.265 1_554 S
C334 H329 0.950 . S
C334 C335 1.478 . S
C335 C322 1.394 1_554 S
C335 C334 1.478 . S
C335 C336 1.397 . S
C336 C335 1.397 . S
C336 C337 1.438 . S
C336 C341 1.429 . S
C337 C320 1.394 . S
C337 C336 1.438 . S
C337 C338 1.428 . S
C338 H330 0.949 . S
C338 C337 1.428 . S
C338 C339 1.345 . S
C339 H331 0.950 . S
C339 C338 1.345 . S
C339 C340 1.424 . S
C340 H332 0.951 . S
C340 C339 1.424 . S
C340 C341 1.347 . S
C341 H333 0.951 . S
C341 C336 1.429 . S
C341 C340 1.347 . S
H342 C343 0.951 1_556 S
C343 H342 0.951 1_554 S
C343 C349 1.265 . S
H344 C349 0.950 . S
H345 C353 0.949 . S
H346 C354 0.950 . S
H347 C355 0.951 . S
H348 C356 0.951 . S
C349 C343 1.265 . S
C349 H344 0.950 . S
C349 C350 1.478 . S
C350 C349 1.478 . S
C350 C351 1.397 . S
C350 C367 1.394 . S
C351 C350 1.397 . S
C351 C352 1.438 . S
C351 C356 1.429 . S
C352 C351 1.438 . S
C352 C353 1.428 . S
C352 C365 1.394 . S
C353 H345 0.949 . S
C353 C352 1.428 . S
C353 C354 1.345 . S
C354 H346 0.950 . S
C354 C353 1.345 . S
C354 C355 1.424 . S
C355 H347 0.951 . S
C355 C354 1.424 . S
C355 C356 1.347 . S
C356 H348 0.951 . S
C356 C351 1.429 . S
C356 C355 1.347 . S
H357 C358 0.951 . S
C358 H357 0.951 . S
C358 C364 1.265 . S
H359 C364 0.950 . S
H360 C368 0.949 . S
H361 C369 0.950 . S
H362 C370 0.951 . S
H363 C371 0.951 . S
C364 C358 1.265 . S
C364 H359 0.950 . S
C364 C365 1.478 . S
C365 C352 1.394 . S
C365 C364 1.478 . S
C365 C366 1.397 . S
C366 C365 1.397 . S
C366 C367 1.438 . S
C366 C371 1.429 . S
C367 C350 1.394 . S
C367 C366 1.438 . S
C367 C368 1.428 . S
C368 H360 0.949 . S
C368 C367 1.428 . S
C368 C369 1.345 . S
C369 H361 0.950 . S
C369 C368 1.345 . S
C369 C370 1.424 . S
C370 H362 0.951 . S
C370 C369 1.424 . S
C370 C371 1.347 . S
C371 H363 0.951 . S
C371 C366 1.429 . S
C371 C370 1.347 . S
H372 C373 0.951 1_556 S
C373 H372 0.951 1_554 S
C373 C379 1.265 . S
H374 C379 0.950 . S
H375 C383 0.949 . S
H376 C384 0.950 . S
H377 C385 0.951 . S
H378 C386 0.951 . S
C379 C373 1.265 . S
C379 H374 0.950 . S
C379 C380 1.478 . S
C380 C379 1.478 . S
C380 C381 1.397 . S
C380 C397 1.394 1_554 S
C381 C380 1.397 . S
C381 C382 1.438 . S
C381 C386 1.429 . S
C382 C381 1.438 . S
C382 C383 1.428 . S
C382 C395 1.394 1_554 S
C383 H375 0.949 . S
C383 C382 1.428 . S
C383 C384 1.345 . S
C384 H376 0.950 . S
C384 C383 1.345 . S
C384 C385 1.424 . S
C385 H377 0.951 . S
C385 C384 1.424 . S
C385 C386 1.347 . S
C386 H378 0.951 . S
C386 C381 1.429 . S
C386 C385 1.347 . S
H387 C388 0.951 1_554 S
C388 H387 0.951 1_556 S
C388 C394 1.265 . S
H389 C394 0.950 . S
H390 C398 0.949 . S
H391 C399 0.950 . S
H392 C400 0.951 . S
H393 C401 0.951 . S
C394 C388 1.265 . S
C394 H389 0.950 . S
C394 C395 1.478 . S
C395 C382 1.394 1_556 S
C395 C394 1.478 . S
C395 C396 1.397 . S
C396 C395 1.397 . S
C396 C397 1.438 . S
C396 C401 1.429 . S
C397 C380 1.394 1_556 S
C397 C396 1.438 . S
C397 C398 1.428 . S
C398 H390 0.949 . S
C398 C397 1.428 . S
C398 C399 1.345 . S
C399 H391 0.950 . S
C399 C398 1.345 . S
C399 C400 1.424 . S
C400 H392 0.951 . S
C400 C399 1.424 . S
C400 C401 1.347 . S
C401 H393 0.951 . S
C401 C396 1.429 . S
C401 C400 1.347 . S
H402 C403 0.951 . S
C403 H402 0.951 . S
C403 C409 1.265 . S
H404 C409 0.950 . S
H405 C413 0.949 . S
H406 C414 0.950 . S
H407 C415 0.951 . S
H408 C416 0.951 . S
C409 C403 1.265 . S
C409 H404 0.950 . S
C409 C410 1.478 . S
C410 C409 1.478 . S
C410 C411 1.397 . S
C410 C427 1.394 . S
C411 C410 1.397 . S
C411 C412 1.438 . S
C411 C416 1.429 . S
C412 C411 1.438 . S
C412 C413 1.428 . S
C412 C425 1.394 . S
C413 H405 0.949 . S
C413 C412 1.428 . S
C413 C414 1.345 . S
C414 H406 0.950 . S
C414 C413 1.345 . S
C414 C415 1.424 . S
C415 H407 0.951 . S
C415 C414 1.424 . S
C415 C416 1.347 . S
C416 H408 0.951 . S
C416 C411 1.429 . S
C416 C415 1.347 . S
H417 C418 0.951 . S
C418 H417 0.951 . S
C418 C424 1.265 . S
H419 C424 0.950 . S
H420 C428 0.949 . S
H421 C429 0.950 . S
H422 C430 0.951 . S
H423 C431 0.951 . S
C424 C418 1.265 . S
C424 H419 0.950 . S
C424 C425 1.478 . S
C425 C412 1.394 . S
C425 C424 1.478 . S
C425 C426 1.397 . S
C426 C425 1.397 . S
C426 C427 1.438 . S
C426 C431 1.429 . S
C427 C410 1.394 . S
C427 C426 1.438 . S
C427 C428 1.428 . S
C428 H420 0.949 . S
C428 C427 1.428 . S
C428 C429 1.345 . S
C429 H421 0.950 . S
C429 C428 1.345 . S
C429 C430 1.424 . S
C430 H422 0.951 . S
C430 C429 1.424 . S
C430 C431 1.347 . S
C431 H423 0.951 . S
C431 C426 1.429 . S
C431 C430 1.347 . S
H432 C433 0.951 . S
C433 H432 0.951 . S
C433 C439 1.265 . S
H434 C439 0.950 . S
H435 C443 0.949 . S
H436 C444 0.950 . S
H437 C445 0.951 . S
H438 C446 0.951 . S
C439 C433 1.265 . S
C439 H434 0.950 . S
C439 C440 1.478 . S
C440 C439 1.478 . S
C440 C441 1.397 . S
C440 C457 1.394 . S
C441 C440 1.397 . S
C441 C442 1.438 . S
C441 C446 1.429 . S
C442 C441 1.438 . S
C442 C443 1.428 . S
C442 C455 1.394 . S
C443 H435 0.949 . S
C443 C442 1.428 . S
C443 C444 1.345 . S
C444 H436 0.950 . S
C444 C443 1.345 . S
C444 C445 1.424 . S
C445 H437 0.951 . S
C445 C444 1.424 . S
C445 C446 1.347 . S
C446 H438 0.951 . S
C446 C441 1.429 . S
C446 C445 1.347 . S
H447 C448 0.951 . S
C448 H447 0.951 . S
C448 C454 1.265 . S
H449 C454 0.950 . S
H450 C458 0.949 . S
H451 C459 0.950 . S
H452 C460 0.951 . S
H453 C461 0.951 . S
C454 C448 1.265 . S
C454 H449 0.950 . S
C454 C455 1.478 . S
C455 C442 1.394 . S
C455 C454 1.478 . S
C455 C456 1.397 . S
C456 C455 1.397 . S
C456 C457 1.438 . S
C456 C461 1.429 . S
C457 C440 1.394 . S
C457 C456 1.438 . S
C457 C458 1.428 . S
C458 H450 0.949 . S
C458 C457 1.428 . S
C458 C459 1.345 . S
C459 H451 0.950 . S
C459 C458 1.345 . S
C459 C460 1.424 . S
C460 H452 0.951 . S
C460 C459 1.424 . S
C460 C461 1.347 . S
C461 H453 0.951 . S
C461 C456 1.429 . S
C461 C460 1.347 . S
H462 C463 0.951 . S
C463 H462 0.951 . S
C463 C469 1.265 . S
H464 C469 0.950 . S
H465 C473 0.949 . S
H466 C474 0.950 . S
H467 C475 0.951 . S
H468 C476 0.951 . S
C469 C463 1.265 . S
C469 H464 0.950 . S
C469 C470 1.478 . S
C470 C469 1.478 . S
C470 C471 1.397 . S
C470 C487 1.394 . S
C471 C470 1.397 . S
C471 C472 1.438 . S
C471 C476 1.429 . S
C472 C471 1.438 . S
C472 C473 1.428 . S
C472 C485 1.394 . S
C473 H465 0.949 . S
C473 C472 1.428 . S
C473 C474 1.345 . S
C474 H466 0.950 . S
C474 C473 1.345 . S
C474 C475 1.424 . S
C475 H467 0.951 . S
C475 C474 1.424 . S
C475 C476 1.347 . S
C476 H468 0.951 . S
C476 C471 1.429 . S
C476 C475 1.347 . S
H477 C478 0.951 . S
C478 H477 0.951 . S
C478 C484 1.265 . S
H479 C484 0.950 . S
H480 C488 0.949 . S
H481 C489 0.950 . S
H482 C490 0.951 . S
H483 C491 0.951 . S
C484 C478 1.265 . S
C484 H479 0.950 . S
C484 C485 1.478 . S
C485 C472 1.394 . S
C485 C484 1.478 . S
C485 C486 1.397 . S
C486 C485 1.397 . S
C486 C487 1.438 . S
C486 C491 1.429 . S
C487 C470 1.394 . S
C487 C486 1.438 . S
C487 C488 1.428 . S
C488 H480 0.949 . S
C488 C487 1.428 . S
C488 C489 1.345 . S
C489 H481 0.950 . S
C489 C488 1.345 . S
C489 C490 1.424 . S
C490 H482 0.951 . S
C490 C489 1.424 . S
C490 C491 1.347 . S
C491 H483 0.951 . S
C491 C486 1.429 . S
C491 C490 1.347 . S
H492 C493 0.951 . S
C493 H492 0.951 . S
C493 C499 1.265 . S
H494 C499 0.950 . S
H495 C503 0.949 . S
H496 C504 0.950 . S
H497 C505 0.951 . S
H498 C506 0.951 . S
C499 C493 1.265 . S
C499 H494 0.950 . S
C499 C500 1.478 . S
C500 C499 1.478 . S
C500 C501 1.397 . S
C500 C517 1.394 . S
C501 C500 1.397 . S
C501 C502 1.438 . S
C501 C506 1.429 . S
C502 C501 1.438 . S
C502 C503 1.428 . S
C502 C515 1.394 . S
C503 H495 0.949 . S
C503 C502 1.428 . S
C503 C504 1.345 . S
C504 H496 0.950 . S
C504 C503 1.345 . S
C504 C505 1.424 . S
C505 H497 0.951 . S
C505 C504 1.424 . S
C505 C506 1.347 . S
C506 H498 0.951 . S
C506 C501 1.429 . S
C506 C505 1.347 . S
H507 C508 0.951 . S
C508 H507 0.951 . S
C508 C514 1.265 . S
H509 C514 0.950 . S
H510 C518 0.949 . S
H511 C519 0.950 . S
H512 C520 0.951 . S
H513 C521 0.951 . S
C514 C508 1.265 . S
C514 H509 0.950 . S
C514 C515 1.478 . S
C515 C502 1.394 . S
C515 C514 1.478 . S
C515 C516 1.397 . S
C516 C515 1.397 . S
C516 C517 1.438 . S
C516 C521 1.429 . S
C517 C500 1.394 . S
C517 C516 1.438 . S
C517 C518 1.428 . S
C518 H510 0.949 . S
C518 C517 1.428 . S
C518 C519 1.345 . S
C519 H511 0.950 . S
C519 C518 1.345 . S
C519 C520 1.424 . S
C520 H512 0.951 . S
C520 C519 1.424 . S
C520 C521 1.347 . S
C521 H513 0.951 . S
C521 C516 1.429 . S
C521 C520 1.347 . S
H522 C523 0.951 . S
C523 H522 0.951 . S
C523 C529 1.265 . S
H524 C529 0.950 1_655 S
H525 C533 0.949 . S
H526 C534 0.950 1_655 S
H527 C535 0.951 . S
H528 C536 0.950 1_655 S
C529 C523 1.265 . S
C529 H524 0.950 1_455 S
C529 C530 1.478 . S
C530 C529 1.478 . S
C530 C531 1.397 1_545 S
C530 C547 1.394 . S
C531 C530 1.397 1_565 S
C531 C532 1.438 . S
C531 C536 1.429 . S
C532 C531 1.438 . S
C532 C533 1.428 . S
C532 C545 1.394 1_565 S
C533 H525 0.949 . S
C533 C532 1.428 . S
C533 C534 1.345 . S
C534 H526 0.950 1_455 S
C534 C533 1.345 . S
C534 C535 1.424 1_455 S
C535 H527 0.951 . S
C535 C534 1.424 1_655 S
C535 C536 1.347 1_655 S
C536 H528 0.950 1_455 S
C536 C531 1.429 . S
C536 C535 1.347 1_455 S
H537 C538 0.951 . S
C538 H537 0.951 . S
C538 C544 1.265 1_565 S
H539 C544 0.950 . S
H540 C548 0.949 . S
H541 C549 0.950 . S
H542 C550 0.951 . S
H543 C551 0.951 . S
C544 C538 1.265 1_545 S
C544 H539 0.950 . S
C544 C545 1.478 . S
C545 C532 1.394 1_545 S
C545 C544 1.478 . S
C545 C546 1.397 . S
C546 C545 1.397 . S
C546 C547 1.438 . S
C546 C551 1.429 . S
C547 C530 1.394 . S
C547 C546 1.438 . S
C547 C548 1.428 . S
C548 H540 0.949 . S
C548 C547 1.428 . S
C548 C549 1.345 . S
C549 H541 0.950 . S
C549 C548 1.345 . S
C549 C550 1.424 . S
C550 H542 0.951 . S
C550 C549 1.424 . S
C550 C551 1.347 . S
C551 H543 0.951 . S
C551 C546 1.429 . S
C551 C550 1.347 . S
H552 C553 0.951 . S
C553 H552 0.951 . S
C553 C559 1.265 . S
H554 C559 0.950 1_655 S
H555 C563 0.948 1_455 S
H556 C564 0.950 . S
H557 C565 0.951 . S
H558 C566 0.951 . S
C559 C553 1.265 . S
C559 H554 0.950 1_455 S
C559 C560 1.478 . S
C560 C559 1.478 . S
C560 C561 1.397 . S
C560 C577 1.394 . S
C561 C560 1.397 . S
C561 C562 1.438 . S
C561 C566 1.429 1_455 S
C562 C561 1.438 . S
C562 C563 1.428 1_455 S
C562 C575 1.394 . S
C563 H555 0.948 1_655 S
C563 C562 1.428 1_655 S
C563 C564 1.345 . S
C564 H556 0.950 . S
C564 C563 1.345 . S
C564 C565 1.424 . S
C565 H557 0.951 . S
C565 C564 1.424 . S
C565 C566 1.347 . S
C566 H558 0.951 . S
C566 C561 1.429 1_655 S
C566 C565 1.347 . S
H567 C568 0.951 1_655 S
C568 H567 0.951 1_455 S
C568 C574 1.265 . S
H569 C574 0.950 . S
H570 C578 0.949 . S
H571 C579 0.950 . S
H572 C580 0.951 . S
H573 C581 0.951 . S
C574 C568 1.265 . S
C574 H569 0.950 . S
C574 C575 1.478 . S
C575 C562 1.394 . S
C575 C574 1.478 . S
C575 C576 1.397 . S
C576 C575 1.397 . S
C576 C577 1.438 . S
C576 C581 1.429 1_545 S
C577 C560 1.394 . S
C577 C576 1.438 . S
C577 C578 1.428 1_545 S
C578 H570 0.949 . S
C578 C577 1.428 1_565 S
C578 C579 1.345 . S
C579 H571 0.950 . S
C579 C578 1.345 . S
C579 C580 1.424 . S
C580 H572 0.951 . S
C580 C579 1.424 . S
C580 C581 1.347 . S
C581 H573 0.951 . S
C581 C576 1.429 1_565 S
C581 C580 1.347 . S
H582 C583 0.951 . S
C583 H582 0.951 . S
C583 C589 1.265 . S
H584 C589 0.950 . S
H585 C593 0.949 . S
H586 C594 0.950 . S
H587 C595 0.951 . S
H588 C596 0.951 . S
C589 C583 1.265 . S
C589 H584 0.950 . S
C589 C590 1.478 . S
C590 C589 1.478 . S
C590 C591 1.397 . S
C590 C607 1.394 . S
C591 C590 1.397 . S
C591 C592 1.438 . S
C591 C596 1.429 . S
C592 C591 1.438 . S
C592 C593 1.428 . S
C592 C605 1.394 . S
C593 H585 0.949 . S
C593 C592 1.428 . S
C593 C594 1.345 . S
C594 H586 0.950 . S
C594 C593 1.345 . S
C594 C595 1.424 . S
C595 H587 0.951 . S
C595 C594 1.424 . S
C595 C596 1.347 . S
C596 H588 0.951 . S
C596 C591 1.429 . S
C596 C595 1.347 . S
H597 C598 0.951 . S
C598 H597 0.951 . S
C598 C604 1.265 . S
H599 C604 0.950 . S
H600 C608 0.949 . S
H601 C609 0.950 . S
H602 C610 0.951 . S
H603 C611 0.951 . S
C604 C598 1.265 . S
C604 H599 0.950 . S
C604 C605 1.478 . S
C605 C592 1.394 . S
C605 C604 1.478 . S
C605 C606 1.397 . S
C606 C605 1.397 . S
C606 C607 1.438 . S
C606 C611 1.429 . S
C607 C590 1.394 . S
C607 C606 1.438 . S
C607 C608 1.428 . S
C608 H600 0.949 . S
C608 C607 1.428 . S
C608 C609 1.345 . S
C609 H601 0.950 . S
C609 C608 1.345 . S
C609 C610 1.424 . S
C610 H602 0.951 . S
C610 C609 1.424 . S
C610 C611 1.347 . S
C611 H603 0.951 . S
C611 C606 1.429 . S
C611 C610 1.347 . S
H612 C613 0.951 . S
C613 H612 0.951 . S
C613 C619 1.265 . S
H614 C619 0.950 . S
H615 C623 0.949 . S
H616 C624 0.950 . S
H617 C625 0.951 . S
H618 C626 0.951 . S
C619 C613 1.265 . S
C619 H614 0.950 . S
C619 C620 1.478 . S
C620 C619 1.478 . S
C620 C621 1.397 . S
C620 C637 1.394 . S
C621 C620 1.397 . S
C621 C622 1.438 . S
C621 C626 1.429 . S
C622 C621 1.438 . S
C622 C623 1.428 . S
C622 C635 1.394 . S
C623 H615 0.949 . S
C623 C622 1.428 . S
C623 C624 1.345 . S
C624 H616 0.950 . S
C624 C623 1.345 . S
C624 C625 1.424 . S
C625 H617 0.951 . S
C625 C624 1.424 . S
C625 C626 1.347 . S
C626 H618 0.951 . S
C626 C621 1.429 . S
C626 C625 1.347 . S
H627 C628 0.951 . S
C628 H627 0.951 . S
C628 C634 1.265 . S
H629 C634 0.950 . S
H630 C638 0.949 . S
H631 C639 0.950 . S
H632 C640 0.951 . S
H633 C641 0.951 . S
C634 C628 1.265 . S
C634 H629 0.950 . S
C634 C635 1.478 . S
C635 C622 1.394 . S
C635 C634 1.478 . S
C635 C636 1.397 . S
C636 C635 1.397 . S
C636 C637 1.438 . S
C636 C641 1.429 . S
C637 C620 1.394 . S
C637 C636 1.438 . S
C637 C638 1.428 . S
C638 H630 0.949 . S
C638 C637 1.428 . S
C638 C639 1.345 . S
C639 H631 0.950 . S
C639 C638 1.345 . S
C639 C640 1.424 . S
C640 H632 0.951 . S
C640 C639 1.424 . S
C640 C641 1.347 . S
C641 H633 0.951 . S
C641 C636 1.429 . S
C641 C640 1.347 . S
C298 C253 1.491 . S
C283 C15 1.273 . S
C313 C13 1.482 . S
C328 C193 1.520 . S
C343 C18 1.265 . S
C358 C223 1.360 . S
C373 C17 1.311 . S
C388 C163 1.370 . S
C403 C36 1.376 . S
C418 C133 1.494 . S
C433 C34 1.484 . S
C448 C73 1.522 . S
C478 C103 1.408 . S
C463 C39 1.202 . S
C508 C43 1.311 . S
C493 C38 1.372 . S
C523 C14 1.465 . S
C538 C62 1.487 . S
C553 C16 1.423 . S
C568 C122 1.372 1_455 S
C598 C182 1.548 . S
C583 C35 1.540 . S
C613 C37 1.320 . S
C628 C242 1.420 . S
