# Generated by pormake.
# Topology ctn, (3,4)-cn, num edge types: 1
# Building blocks:
#     Node 0, Type 0, BuildingBlock: BETDIP_clean_linker_0, # of connection points: 3
#     Node 1, Type 0, BuildingBlock: BETDIP_clean_linker_0, # of connection points: 3
#     Node 2, Type 0, BuildingBlock: BETDIP_clean_linker_0, # of connection points: 3
#     Node 3, Type 0, BuildingBlock: BETDIP_clean_linker_0, # of connection points: 3
#     Node 4, Type 0, BuildingBlock: BETDIP_clean_linker_0, # of connection points: 3
#     Node 5, Type 0, BuildingBlock: BETDIP_clean_linker_0, # of connection points: 3
#     Node 6, Type 0, BuildingBlock: BETDIP_clean_linker_0, # of connection points: 3
#     Node 7, Type 0, BuildingBlock: BETDIP_clean_linker_0, # of connection points: 3
#     Node 8, Type 0, BuildingBlock: BETDIP_clean_linker_0, # of connection points: 3
#     Node 9, Type 0, BuildingBlock: BETDIP_clean_linker_0, # of connection points: 3
#     Node 10, Type 0, BuildingBlock: BETDIP_clean_linker_0, # of connection points: 3
#     Node 11, Type 0, BuildingBlock: BETDIP_clean_linker_0, # of connection points: 3
#     Node 12, Type 0, BuildingBlock: BETDIP_clean_linker_0, # of connection points: 3
#     Node 13, Type 0, BuildingBlock: BETDIP_clean_linker_0, # of connection points: 3
#     Node 14, Type 0, BuildingBlock: BETDIP_clean_linker_0, # of connection points: 3
#     Node 15, Type 0, BuildingBlock: BETDIP_clean_linker_0, # of connection points: 3
#     Node 16, Type 1, BuildingBlock: AZAVOO_clean_sbu_0, # of connection points: 4
#     Node 17, Type 1, BuildingBlock: AZAVOO_clean_sbu_0, # of connection points: 4
#     Node 18, Type 1, BuildingBlock: AZAVOO_clean_sbu_0, # of connection points: 4
#     Node 19, Type 1, BuildingBlock: AZAVOO_clean_sbu_0, # of connection points: 4
#     Node 20, Type 1, BuildingBlock: AZAVOO_clean_sbu_0, # of connection points: 4
#     Node 21, Type 1, BuildingBlock: AZAVOO_clean_sbu_0, # of connection points: 4
#     Node 22, Type 1, BuildingBlock: AZAVOO_clean_sbu_0, # of connection points: 4
#     Node 23, Type 1, BuildingBlock: AZAVOO_clean_sbu_0, # of connection points: 4
#     Node 24, Type 1, BuildingBlock: AZAVOO_clean_sbu_0, # of connection points: 4
#     Node 25, Type 1, BuildingBlock: AZAVOO_clean_sbu_0, # of connection points: 4
#     Node 26, Type 1, BuildingBlock: AZAVOO_clean_sbu_0, # of connection points: 4
#     Node 27, Type 1, BuildingBlock: AZAVOO_clean_sbu_0, # of connection points: 4
#     Edge 28, Type (0, 1), BuildingBlock: OJICUG_clean_linker_0, # of connection points: 2
#     Edge 29, Type (0, 1), BuildingBlock: OJICUG_clean_linker_0, # of connection points: 2
#     Edge 30, Type (0, 1), BuildingBlock: OJICUG_clean_linker_0, # of connection points: 2
#     Edge 31, Type (0, 1), BuildingBlock: OJICUG_clean_linker_0, # of connection points: 2
#     Edge 32, Type (0, 1), BuildingBlock: OJICUG_clean_linker_0, # of connection points: 2
#     Edge 33, Type (0, 1), BuildingBlock: OJICUG_clean_linker_0, # of connection points: 2
#     Edge 34, Type (0, 1), BuildingBlock: OJICUG_clean_linker_0, # of connection points: 2
#     Edge 35, Type (0, 1), BuildingBlock: OJICUG_clean_linker_0, # of connection points: 2
#     Edge 36, Type (0, 1), BuildingBlock: OJICUG_clean_linker_0, # of connection points: 2
#     Edge 37, Type (0, 1), BuildingBlock: OJICUG_clean_linker_0, # of connection points: 2
#     Edge 38, Type (0, 1), BuildingBlock: OJICUG_clean_linker_0, # of connection points: 2
#     Edge 39, Type (0, 1), BuildingBlock: OJICUG_clean_linker_0, # of connection points: 2
#     Edge 40, Type (0, 1), BuildingBlock: OJICUG_clean_linker_0, # of connection points: 2
#     Edge 41, Type (0, 1), BuildingBlock: OJICUG_clean_linker_0, # of connection points: 2
#     Edge 42, Type (0, 1), BuildingBlock: OJICUG_clean_linker_0, # of connection points: 2
#     Edge 43, Type (0, 1), BuildingBlock: OJICUG_clean_linker_0, # of connection points: 2
#     Edge 44, Type (0, 1), BuildingBlock: OJICUG_clean_linker_0, # of connection points: 2
#     Edge 45, Type (0, 1), BuildingBlock: OJICUG_clean_linker_0, # of connection points: 2
#     Edge 46, Type (0, 1), BuildingBlock: OJICUG_clean_linker_0, # of connection points: 2
#     Edge 47, Type (0, 1), BuildingBlock: OJICUG_clean_linker_0, # of connection points: 2
#     Edge 48, Type (0, 1), BuildingBlock: OJICUG_clean_linker_0, # of connection points: 2
#     Edge 49, Type (0, 1), BuildingBlock: OJICUG_clean_linker_0, # of connection points: 2
#     Edge 50, Type (0, 1), BuildingBlock: OJICUG_clean_linker_0, # of connection points: 2
#     Edge 51, Type (0, 1), BuildingBlock: OJICUG_clean_linker_0, # of connection points: 2
#     Edge 52, Type (0, 1), BuildingBlock: OJICUG_clean_linker_0, # of connection points: 2
#     Edge 53, Type (0, 1), BuildingBlock: OJICUG_clean_linker_0, # of connection points: 2
#     Edge 54, Type (0, 1), BuildingBlock: OJICUG_clean_linker_0, # of connection points: 2
#     Edge 55, Type (0, 1), BuildingBlock: OJICUG_clean_linker_0, # of connection points: 2
#     Edge 56, Type (0, 1), BuildingBlock: OJICUG_clean_linker_0, # of connection points: 2
#     Edge 57, Type (0, 1), BuildingBlock: OJICUG_clean_linker_0, # of connection points: 2
#     Edge 58, Type (0, 1), BuildingBlock: OJICUG_clean_linker_0, # of connection points: 2
#     Edge 59, Type (0, 1), BuildingBlock: OJICUG_clean_linker_0, # of connection points: 2
#     Edge 60, Type (0, 1), BuildingBlock: OJICUG_clean_linker_0, # of connection points: 2
#     Edge 61, Type (0, 1), BuildingBlock: OJICUG_clean_linker_0, # of connection points: 2
#     Edge 62, Type (0, 1), BuildingBlock: OJICUG_clean_linker_0, # of connection points: 2
#     Edge 63, Type (0, 1), BuildingBlock: OJICUG_clean_linker_0, # of connection points: 2
#     Edge 64, Type (0, 1), BuildingBlock: OJICUG_clean_linker_0, # of connection points: 2
#     Edge 65, Type (0, 1), BuildingBlock: OJICUG_clean_linker_0, # of connection points: 2
#     Edge 66, Type (0, 1), BuildingBlock: OJICUG_clean_linker_0, # of connection points: 2
#     Edge 67, Type (0, 1), BuildingBlock: OJICUG_clean_linker_0, # of connection points: 2
#     Edge 68, Type (0, 1), BuildingBlock: OJICUG_clean_linker_0, # of connection points: 2
#     Edge 69, Type (0, 1), BuildingBlock: OJICUG_clean_linker_0, # of connection points: 2
#     Edge 70, Type (0, 1), BuildingBlock: OJICUG_clean_linker_0, # of connection points: 2
#     Edge 71, Type (0, 1), BuildingBlock: OJICUG_clean_linker_0, # of connection points: 2
#     Edge 72, Type (0, 1), BuildingBlock: OJICUG_clean_linker_0, # of connection points: 2
#     Edge 73, Type (0, 1), BuildingBlock: OJICUG_clean_linker_0, # of connection points: 2
#     Edge 74, Type (0, 1), BuildingBlock: OJICUG_clean_linker_0, # of connection points: 2
#     Edge 75, Type (0, 1), BuildingBlock: OJICUG_clean_linker_0, # of connection points: 2
# Relax obj value: 0.071
# Max RMSD: 0.209
# Mean RMSD: 0.112
data_MOF--net-ctn--node1-AZAVOO_clean_sbu_0--node2-BETDIP_clean_linker_0--edge1-OJICUG_clean_linker_0
_symmetry_space_group_name_H-M    P1
_symmetry_Int_Tables_number       1
_symmetry_cell_setting            triclinic
loop_
_symmetry_equiv_pos_as_xyz
'x, y, z'
_cell_length_a     36.759545
_cell_length_b     38.077927
_cell_length_c     42.050471
_cell_angle_alpha  93.650838
_cell_angle_beta   97.499462
_cell_angle_gamma 96.396423
loop_
_atom_site_label
_atom_site_type_symbol
_atom_site_fract_x
_atom_site_fract_y
_atom_site_fract_z
_atom_type_partial_charge
H0 H 0.99834 0.03702 0.03548 0.0
H1 H 0.07922 0.99195 0.98676 0.0
H2 H 0.06653 0.96564 0.08297 0.0
H3 H 0.06262 0.02531 0.94706 0.0
C4 C 0.04793 0.04557 0.95712 0.0
C5 C 0.01995 0.01986 0.0358 0.0
C6 C 0.03102 0.00293 0.06359 0.0
C7 C 0.03747 0.01666 0.00844 0.0
C8 C 0.06498 0.99396 0.00757 0.0
C9 C 0.075 0.97443 0.03399 0.0
C10 C 0.05812 0.97951 0.06211 0.0
N11 N 0.02866 0.03938 0.98378 0.0
H12 H 0.2892 0.6776 0.19557 0.0
H13 H 0.39168 0.73662 0.23816 0.0
H14 H 0.32706 0.67086 0.29567 0.0
H15 H 0.35912 0.77947 0.20449 0.0
C16 C 0.35143 0.76198 0.18261 0.0
C17 C 0.30974 0.68505 0.21656 0.0
C18 C 0.30479 0.67122 0.24593 0.0
C19 C 0.34008 0.70979 0.21433 0.0
C20 C 0.36728 0.71909 0.24105 0.0
C21 C 0.36361 0.70459 0.27066 0.0
C22 C 0.33136 0.68152 0.27301 0.0
N23 N 0.34235 0.7251 0.1848 0.0
H24 H 0.9308 0.49999 0.00166 0.0
H25 H 0.02586 0.46546 0.05493 0.0
H26 H 0.9744 0.5505 0.09588 0.0
H27 H 0.03874 0.46432 0.99614 0.0
C28 C 0.01383 0.44552 0.99053 0.0
C29 C 0.95103 0.50275 0.02314 0.0
C30 C 0.9492 0.5284 0.04829 0.0
C31 C 0.97905 0.48073 0.02522 0.0
C32 C 1.00499 0.48348 0.05307 0.0
C33 C 1.00349 0.5083 0.07892 0.0
C34 C 0.97529 0.53066 0.07644 0.0
N35 N 0.98009 0.45493 0.99958 0.0
H36 H 0.70841 0.79321 0.18131 0.0
H37 H 0.75949 0.88258 0.24633 0.0
H38 H 0.81046 0.85041 0.16465 0.0
H39 H 0.70962 0.87379 0.27101 0.0
C40 C 0.69358 0.84862 0.26217 0.0
C41 C 0.73035 0.8149 0.18811 0.0
C42 C 0.75927 0.81963 0.16974 0.0
C43 C 0.72957 0.83768 0.21544 0.0
C44 C 0.75875 0.86534 0.22477 0.0
C45 C 0.7883 0.86971 0.2066 0.0
C46 C 0.78785 0.84716 0.17883 0.0
N47 N 0.69989 0.83013 0.2334 0.0
H48 H 0.03764 0.96962 0.439 0.0
H49 H 0.11228 0.02182 0.51959 0.0
H50 H 0.08843 0.07594 0.43379 0.0
H51 H 0.07301 0.98088 0.54706 0.0
C52 C 0.07141 0.95753 0.53047 0.0
C53 C 0.05542 0.99304 0.45002 0.0
C54 C 0.06024 0.02313 0.43279 0.0
C55 C 0.07322 0.99264 0.48146 0.0
C56 C 0.09723 0.02244 0.49575 0.0
C57 C 0.10265 0.05273 0.47862 0.0
C58 C 0.08353 0.05305 0.44742 0.0
N59 N 0.06823 0.96073 0.4968 0.0
H60 H 0.19865 0.73989 0.80172 0.0
H61 H 0.25296 0.68507 0.73268 0.0
H62 H 0.30537 0.70584 0.83026 0.0
H63 H 0.21735 0.70944 0.69702 0.0
C64 C 0.1922 0.71376 0.70683 0.0
C65 C 0.22236 0.72746 0.79597 0.0
C66 C 0.25172 0.72434 0.82023 0.0
C67 C 0.22288 0.71431 0.7642 0.0
C68 C 0.25293 0.69698 0.75668 0.0
C69 C 0.28285 0.69377 0.78036 0.0
C70 C 0.28201 0.70755 0.81207 0.0
N71 N 0.19235 0.71836 0.74068 0.0
H72 H 0.96274 0.58987 0.4522 0.0
H73 H 0.91586 0.48143 0.43033 0.0
H74 H 0.90419 0.53534 0.52059 0.0
H75 H 0.95467 0.4807 0.39415 0.0
C76 C 0.96413 0.50754 0.38918 0.0
C77 C 0.94757 0.56628 0.45933 0.0
C78 C 0.93461 0.56659 0.48934 0.0
C79 C 0.94191 0.53569 0.4383 0.0
C80 C 0.92147 0.50508 0.44668 0.0
C81 C 0.90721 0.50513 0.47613 0.0
C82 C 0.91398 0.53587 0.49739 0.0
N83 N 0.9579 0.53703 0.40934 0.0
H84 H 0.78692 0.83158 0.74947 0.0
H85 H 0.82577 0.75449 0.81103 0.0
H86 H 0.72702 0.80035 0.82643 0.0
H87 H 0.87706 0.76292 0.78992 0.0
C88 C 0.8726 0.77661 0.76818 0.0
C89 C 0.78302 0.81536 0.76929 0.0
C90 C 0.75248 0.81774 0.78591 0.0
C91 C 0.80983 0.79336 0.77845 0.0
C92 C 0.80604 0.77269 0.80461 0.0
C93 C 0.77652 0.77524 0.82258 0.0
C94 C 0.74971 0.79778 0.81281 0.0
N95 N 0.84011 0.79319 0.76056 0.0
H96 H 0.26825 0.32833 0.24553 0.0
H97 H 0.32069 0.26005 0.30919 0.0
H98 H 0.22153 0.30233 0.3307 0.0
H99 H 0.36944 0.27118 0.28011 0.0
C100 C 0.35877 0.28121 0.25761 0.0
C101 C 0.26815 0.31402 0.267 0.0
C102 C 0.24046 0.31706 0.28659 0.0
C103 C 0.29715 0.2942 0.27504 0.0
C104 C 0.29872 0.27619 0.30329 0.0
C105 C 0.27118 0.27856 0.3236 0.0
C106 C 0.24231 0.29938 0.31502 0.0
N107 N 0.32348 0.29333 0.25326 0.0
H108 H 0.4281 0.01132 0.51127 0.0
H109 H 0.52236 0.97292 0.56192 0.0
H110 H 0.4772 0.06134 0.60445 0.0
H111 H 0.53235 0.97425 0.50091 0.0
C112 C 0.50773 0.95496 0.4969 0.0
C113 C 0.44897 0.01344 0.53226 0.0
C114 C 0.44949 0.03981 0.55736 0.0
C115 C 0.47562 0.99003 0.53361 0.0
C116 C 0.50247 0.99193 0.56072 0.0
C117 C 0.50319 0.01724 0.58664 0.0
C118 C 0.47636 0.04113 0.58494 0.0
N119 N 0.4748 0.96399 0.50783 0.0
H120 H 0.20739 0.30642 0.6901 0.0
H121 H 0.26711 0.39648 0.74961 0.0
H122 H 0.3045 0.36203 0.66171 0.0
H123 H 0.22164 0.39157 0.7784 0.0
C124 C 0.20478 0.36621 0.77246 0.0
C125 C 0.22966 0.32809 0.69432 0.0
C126 C 0.25523 0.33203 0.67251 0.0
C127 C 0.23289 0.35166 0.72186 0.0
C128 C 0.26287 0.37895 0.72789 0.0
C129 C 0.28903 0.38249 0.70635 0.0
C130 C 0.28439 0.35947 0.67842 0.0
N131 N 0.2067 0.34541 0.74357 0.0
H132 H 0.76351 0.20628 0.71719 0.0
H133 H 0.87532 0.2544 0.74462 0.0
H134 H 0.83162 0.16659 0.79411 0.0
H135 H 0.86566 0.25751 0.68647 0.0
C136 C 0.83934 0.26824 0.68449 0.0
C137 C 0.78962 0.20772 0.73283 0.0
C138 C 0.79481 0.18281 0.75552 0.0
C139 C 0.81873 0.23309 0.7286 0.0
C140 C 0.853 0.23463 0.74817 0.0
C141 C 0.85815 0.21104 0.77242 0.0
C142 C 0.82872 0.18501 0.77561 0.0
N143 N 0.81264 0.25659 0.70423 0.0
H144 H 0.50103 0.54532 0.53747 0.0
H145 H 0.57751 0.49723 0.48569 0.0
H146 H 0.5679 0.47171 0.58279 0.0
H147 H 0.56487 0.53496 0.44876 0.0
C148 C 0.54856 0.55397 0.45855 0.0
C149 C 0.52189 0.5274 0.53701 0.0
C150 C 0.53357 0.51038 0.56455 0.0
C151 C 0.53799 0.52345 0.50898 0.0
C152 C 0.56451 0.49984 0.50715 0.0
C153 C 0.57482 0.47992 0.53328 0.0
C154 C 0.55942 0.48582 0.56212 0.0
N155 N 0.52861 0.54612 0.48445 0.0
H156 H 0.52993 0.4658 0.9387 0.0
H157 H 0.60754 0.51295 0.01968 0.0
H158 H 0.58474 0.57113 0.93636 0.0
H159 H 0.56884 0.47206 0.04672 0.0
C160 C 0.56528 0.4492 0.02929 0.0
C161 C 0.54866 0.48835 0.95026 0.0
C162 C 0.5545 0.51907 0.93399 0.0
C163 C 0.56677 0.48622 0.98139 0.0
C164 C 0.59215 0.51487 0.99621 0.0
C165 C 0.59843 0.54575 0.98003 0.0
C166 C 0.57903 0.5478 0.94926 0.0
N167 N 0.56063 0.45377 0.9958 0.0
H168 H 0.70632 0.24569 0.3014 0.0
H169 H 0.75452 0.18081 0.23509 0.0
H170 H 0.80891 0.2042 0.33177 0.0
H171 H 0.72244 0.20846 0.19863 0.0
C172 C 0.69699 0.2126 0.20805 0.0
C173 C 0.72812 0.22999 0.29662 0.0
C174 C 0.75752 0.22693 0.32094 0.0
C175 C 0.72707 0.21408 0.26552 0.0
C176 C 0.75558 0.19434 0.25865 0.0
C177 C 0.78552 0.19118 0.28224 0.0
C178 C 0.78603 0.20704 0.31348 0.0
N179 N 0.69686 0.21832 0.24179 0.0
H180 H 0.46609 0.07835 0.95267 0.0
H181 H 0.41846 0.97018 0.93105 0.0
H182 H 0.40973 0.02353 0.02229 0.0
H183 H 0.46048 0.96897 0.89723 0.0
C184 C 0.4669 0.99562 0.89016 0.0
C185 C 0.4513 0.05474 0.96013 0.0
C186 C 0.43919 0.05499 0.99051 0.0
C187 C 0.44506 0.02417 0.93902 0.0
C188 C 0.42481 0.99362 0.94764 0.0
C189 C 0.41145 0.99353 0.97746 0.0
C190 C 0.41894 0.02416 0.99886 0.0
N191 N 0.45985 0.02542 0.90949 0.0
Mg192 Mg 0.24175 0.82639 0.01619 0.0
O193 O 0.2905 0.86697 0.0088 0.0
O194 O 0.34037 0.83809 0.0094 0.0
Mg195 Mg 0.32506 0.78 0.01823 0.0
C196 C 0.32483 0.86635 0.00675 0.0
C197 C 0.18494 0.87604 0.03031 0.0
O198 O 0.19412 0.86171 0.05731 0.0
O199 O 0.23893 0.80278 0.9632 0.0
O200 O 0.28827 0.7729 0.9698 0.0
O201 O 0.25766 0.83599 0.06989 0.0
O202 O 0.27821 0.79501 0.04018 0.0
C203 C 0.26003 0.7815 0.95236 0.0
C204 C 0.27861 0.81115 0.06795 0.0
O205 O 0.19944 0.86667 0.00559 0.0
Mg206 Mg 0.14112 0.51179 0.2699 0.0
O207 O 0.10775 0.51016 0.21879 0.0
O208 O 0.1484 0.50394 0.18436 0.0
Mg209 Mg 0.20614 0.50279 0.21169 0.0
C210 C 0.11561 0.50725 0.19004 0.0
C211 C 0.07336 0.5284 0.30312 0.0
O212 O 0.08818 0.56066 0.29947 0.0
O213 O 0.14661 0.45245 0.26605 0.0
O214 O 0.18899 0.45002 0.23257 0.0
O215 O 0.15548 0.57091 0.2716 0.0
O216 O 0.18934 0.5322 0.25292 0.0
C217 C 0.16797 0.4353 0.25108 0.0
C218 C 0.18445 0.56476 0.25868 0.0
O219 O 0.08798 0.50219 0.29236 0.0
Mg220 Mg 0.8031 0.69331 0.01601 0.0
O221 O 0.74691 0.65815 0.01226 0.0
O222 O 0.7032 0.69468 0.00912 0.0
Mg223 Mg 0.72951 0.75179 0.00983 0.0
C224 C 0.71297 0.66358 0.01012 0.0
C225 C 0.83852 0.62614 0.03466 0.0
O226 O 0.82113 0.63338 0.05919 0.0
O227 O 0.79307 0.70195 0.96173 0.0
O228 O 0.74907 0.73837 0.96144 0.0
O229 O 0.80503 0.70182 0.0694 0.0
O230 O 0.78053 0.73665 0.03478 0.0
C231 C 0.77073 0.72104 0.94697 0.0
C232 C 0.78746 0.72888 0.06404 0.0
O233 O 0.8345 0.64454 0.01041 0.0
Mg234 Mg 0.95649 0.05693 0.23792 0.0
O235 O 0.91594 0.00553 0.2324 0.0
O236 O 0.94932 0.96067 0.2257 0.0
Mg237 Mg 0.00976 0.98217 0.22531 0.0
C238 C 0.91854 0.97239 0.22847 0.0
C239 C 0.90208 0.11412 0.24275 0.0
O240 O 0.91676 0.12262 0.217 0.0
O241 O 0.97922 0.04457 0.28864 0.0
O242 O 0.01321 0.00095 0.27877 0.0
O243 O 0.94953 0.061 0.18432 0.0
O244 O 0.99133 0.03206 0.21016 0.0
C245 C 1.00113 0.02245 0.29832 0.0
C246 C 0.97573 0.04106 0.18323 0.0
O247 O 0.91259 0.08797 0.25733 0.0
Mg248 Mg 0.30334 0.20536 0.52149 0.0
O249 O 0.2476 0.16911 0.51534 0.0
O250 O 0.20285 0.20447 0.51003 0.0
Mg251 Mg 0.22818 0.26197 0.51134 0.0
C252 C 0.21338 0.17371 0.51161 0.0
C253 C 0.34172 0.14049 0.54326 0.0
O254 O 0.32496 0.14882 0.56791 0.0
O255 O 0.29612 0.21315 0.46678 0.0
O256 O 0.25064 0.24799 0.46444 0.0
O257 O 0.3017 0.21382 0.57448 0.0
O258 O 0.27824 0.24802 0.53884 0.0
C259 C 0.27355 0.23126 0.45101 0.0
C260 C 0.28347 0.24023 0.56822 0.0
O261 O 0.33649 0.15735 0.51809 0.0
Mg262 Mg 0.46116 0.56632 0.73945 0.0
O263 O 0.42006 0.51545 0.73114 0.0
O264 O 0.45252 0.47012 0.7232 0.0
Mg265 Mg 0.51357 0.49089 0.72602 0.0
C266 C 0.42194 0.48234 0.72573 0.0
C267 C 0.40349 0.62139 0.74211 0.0
O268 O 0.41666 0.62892 0.71544 0.0
O269 O 0.48093 0.5512 0.7901 0.0
O270 O 0.51376 0.50682 0.77966 0.0
O271 O 0.45661 0.57228 0.68618 0.0
O272 O 0.49687 0.54185 0.71219 0.0
C273 C 0.50128 0.52768 0.79948 0.0
C274 C 0.4823 0.55174 0.68526 0.0
O275 O 0.41626 0.59699 0.75795 0.0
Mg276 Mg 0.74143 0.33302 0.51367 0.0
O277 O 0.78928 0.3759 0.50796 0.0
O278 O 0.84114 0.34978 0.51147 0.0
Mg279 Mg 0.82787 0.29144 0.51925 0.0
C280 C 0.82415 0.37699 0.50759 0.0
C281 C 0.67931 0.37666 0.52486 0.0
O282 O 0.68482 0.35836 0.55008 0.0
O283 O 0.74228 0.30998 0.46124 0.0
O284 O 0.79503 0.28532 0.46884 0.0
O285 O 0.75279 0.34305 0.56711 0.0
O286 O 0.77892 0.30387 0.53998 0.0
C287 C 0.76659 0.29235 0.45063 0.0
C288 C 0.77575 0.3198 0.56722 0.0
O289 O 0.69765 0.37145 0.50155 0.0
Mg290 Mg 0.64452 0.00889 0.77332 0.0
O291 O 0.61075 0.00926 0.72286 0.0
O292 O 0.65123 0.00863 0.68774 0.0
Mg293 Mg 0.70962 0.00858 0.71466 0.0
C294 C 0.61827 0.0095 0.69404 0.0
C295 C 0.57122 0.01881 0.80041 0.0
O296 O 0.57983 0.05075 0.79143 0.0
O297 O 0.654 0.95052 0.76655 0.0
O298 O 0.69641 0.9534 0.73286 0.0
O299 O 0.65509 0.06846 0.77699 0.0
O300 O 0.69195 0.03292 0.75797 0.0
C301 C 0.67665 0.93604 0.75082 0.0
C302 C 0.68501 0.06466 0.76463 0.0
O303 O 0.59168 0.99494 0.795 0.0
Mg304 Mg 0.07364 0.25026 0.89984 0.0
O305 O 0.01766 0.23786 0.86725 0.0
O306 O 0.97616 0.21521 0.89738 0.0
Mg307 Mg 1.00408 0.21763 0.94925 0.0
C308 C 0.98509 0.22439 0.87052 0.0
C309 C 0.12007 0.30806 0.86739 0.0
O310 O 0.12713 0.32153 0.89741 0.0
O311 O 0.05432 0.30031 0.92072 0.0
O312 O 0.01229 0.2788 0.95066 0.0
O313 O 0.08552 0.19445 0.89126 0.0
O314 O 0.05688 0.21323 0.93095 0.0
C315 C 0.03052 0.30482 0.93968 0.0
C316 C 0.06826 0.18724 0.91544 0.0
O317 O 0.09826 0.27947 0.86055 0.0
Mg318 Mg 0.5692 0.76109 0.40748 0.0
O319 O 0.51299 0.74736 0.37493 0.0
O320 O 0.47294 0.72336 0.40575 0.0
Mg321 Mg 0.5014 0.72617 0.45741 0.0
C322 C 0.48088 0.73283 0.37866 0.0
C323 C 0.59586 0.77925 0.34208 0.0
O324 O 0.58138 0.74621 0.33423 0.0
O325 O 0.54875 0.80973 0.42897 0.0
O326 O 0.50768 0.78746 0.4594 0.0
O327 O 0.58301 0.70628 0.39772 0.0
O328 O 0.55365 0.72282 0.43775 0.0
C329 C 0.52522 0.81377 0.44823 0.0
C330 C 0.56577 0.69773 0.4216 0.0
O331 O 0.59374 0.7932 0.36991 0.0
Mg332 Mg 0.98129 0.75798 0.60034 0.0
O333 O 0.0363 0.74188 0.62465 0.0
O334 O 0.06787 0.72594 0.58517 0.0
Mg335 Mg 0.03349 0.7299 0.53653 0.0
C336 C 0.06504 0.73109 0.61502 0.0
C337 C 0.96831 0.76203 0.67138 0.0
O338 O 0.98192 0.73168 0.66864 0.0
O339 O 0.01228 0.81015 0.58825 0.0
O340 O 0.0394 0.79019 0.54722 0.0
O341 O 0.95304 0.70246 0.59764 0.0
O342 O 0.9839 0.72404 0.56016 0.0
C343 C 0.03196 0.81561 0.56569 0.0
C344 C 0.96565 0.6974 0.57064 0.0
O345 O 0.96735 0.78145 0.64783 0.0
Mg346 Mg 0.48376 0.24703 0.10115 0.0
O347 O 0.53954 0.233 0.12487 0.0
O348 O 0.57175 0.21866 0.0854 0.0
Mg349 Mg 0.5361 0.22083 0.0369 0.0
C350 C 0.56884 0.22362 0.11525 0.0
C351 C 0.43881 0.27888 0.14825 0.0
O352 O 0.41921 0.27971 0.11989 0.0
O353 O 0.51232 0.30018 0.08826 0.0
O354 O 0.53904 0.28112 0.04662 0.0
O355 O 0.45773 0.1908 0.09897 0.0
O356 O 0.48665 0.21332 0.06073 0.0
C357 C 0.53087 0.30623 0.06503 0.0
C358 C 0.46969 0.18619 0.07161 0.0
O359 O 0.47085 0.26914 0.14947 0.0
C360 C 0.23682 0.77057 0.86116 0.0
C361 C 0.25072 0.73828 0.85407 0.0
H362 H 0.22831 0.80962 0.89796 0.0
C363 C 0.26425 0.71935 0.87972 0.0
H364 H 0.2263 0.78597 0.842 0.0
C365 C 0.26559 0.73299 0.91145 0.0
C366 C 0.25313 0.76584 0.91861 0.0
H367 H 0.27417 0.69399 0.87532 0.0
H368 H 0.27707 0.71793 0.93052 0.0
C369 C 0.23786 0.78416 0.89319 0.0
C370 C 1.0014 0.48359 0.34908 0.0
C371 C 0.98924 0.51289 0.36467 0.0
H372 H 0.03751 0.46539 0.31721 0.0
C373 C 1.00286 0.5472 0.35798 0.0
H374 H 0.99121 0.45687 0.35376 0.0
C375 C 0.02923 0.55213 0.33709 0.0
C376 C 0.04262 0.52287 0.32247 0.0
H377 H 0.99384 0.57038 0.36942 0.0
H378 H 0.03982 0.57896 0.33312 0.0
C379 C 0.0279 0.4885 0.32819 0.0
C380 C 0.74078 0.7446 0.8626 0.0
C381 C 0.77489 0.75598 0.85248 0.0
H382 H 0.71282 0.72436 0.90049 0.0
C383 C 0.80761 0.75064 0.87229 0.0
H384 H 0.71495 0.74713 0.84782 0.0
C385 C 0.80622 0.73608 0.90193 0.0
C386 C 0.77217 0.72731 0.91283 0.0
H387 H 0.83452 0.75943 0.86587 0.0
H388 H 0.83184 0.73417 0.91733 0.0
C389 C 0.73948 0.73095 0.89259 0.0
C390 C 0.0255 0.05104 0.38743 0.0
C391 C 0.04307 0.02241 0.39878 0.0
H392 H 0.99789 0.07336 0.3468 0.0
C393 C 0.04535 0.99335 0.37715 0.0
H394 H 0.02319 0.07369 0.40367 0.0
C395 C 0.03114 0.99322 0.34472 0.0
C396 C 0.01401 0.02202 0.33315 0.0
H397 H 0.05907 0.97108 0.38514 0.0
H398 H 0.03394 0.9706 0.32864 0.0
C399 C 0.01086 0.05074 0.35495 0.0
C400 C 0.26171 0.27137 0.65003 0.0
C401 C 0.2543 0.30606 0.64485 0.0
H402 H 0.2771 0.22311 0.6296 0.0
C403 C 0.25249 0.31749 0.61371 0.0
H404 H 0.26369 0.26228 0.67402 0.0
C405 C 0.25984 0.29516 0.58832 0.0
C406 C 0.26985 0.26129 0.59385 0.0
H407 H 0.24713 0.34431 0.60936 0.0
H408 H 0.25976 0.30524 0.5648 0.0
C409 C 0.26969 0.24918 0.62472 0.0
C410 C 0.51128 0.55489 0.60247 0.0
C411 C 0.52005 0.52022 0.59579 0.0
H412 H 0.49166 0.59138 0.63527 0.0
C413 C 0.51604 0.49583 0.61932 0.0
H414 H 0.51517 0.57514 0.58591 0.0
C415 C 0.50382 0.50591 0.64847 0.0
C416 C 0.49451 0.54031 0.65447 0.0
H417 H 0.52191 0.46882 0.6152 0.0
H418 H 0.50097 0.48656 0.66601 0.0
C419 C 0.49805 0.56452 0.63105 0.0
C420 C 0.84159 0.27873 0.62688 0.0
C421 C 0.82704 0.28581 0.6555 0.0
H422 H 0.83642 0.28347 0.57615 0.0
C423 C 0.7982 0.30703 0.65545 0.0
H424 H 0.86383 0.26236 0.62645 0.0
C425 C 0.78299 0.31968 0.6269 0.0
C426 C 0.79582 0.3107 0.59775 0.0
H427 H 0.78672 0.31304 0.67734 0.0
H428 H 0.75997 0.33506 0.62745 0.0
C429 C 0.82578 0.29071 0.59811 0.0
C430 C 0.56923 0.01515 0.60959 0.0
C431 C 0.53266 0.01824 0.61477 0.0
H432 H 0.62436 0.00967 0.63003 0.0
C433 C 0.52441 0.01937 0.64652 0.0
H434 H 0.57664 0.01461 0.58547 0.0
C435 C 0.552 0.01638 0.67238 0.0
C436 C 0.58845 0.01241 0.667 0.0
H437 H 0.49644 0.02148 0.65126 0.0
H438 H 0.5447 0.01694 0.69653 0.0
C439 C 0.59666 0.01226 0.63525 0.0
C440 C 0.90589 0.18383 0.80858 0.0
C441 C 0.89349 0.21404 0.795 0.0
H442 H 0.94439 0.16369 0.84362 0.0
C443 C 0.91409 0.24736 0.80472 0.0
H444 H 0.89176 0.15756 0.80112 0.0
C445 C 0.94531 0.25045 0.82807 0.0
C446 C 0.95596 0.22048 0.84272 0.0
H447 H 0.90536 0.27137 0.79539 0.0
H448 H 0.95997 0.27648 0.83588 0.0
C449 C 0.93635 0.18715 0.83263 0.0
C450 C 0.54111 0.91315 0.46744 0.0
C451 C 0.51014 0.91922 0.48228 0.0
H452 H 0.56995 0.87514 0.44466 0.0
C453 C 0.48319 0.89069 0.48469 0.0
H454 H 0.56227 0.93478 0.46541 0.0
C455 C 0.4878 0.85639 0.47328 0.0
C456 C 0.51916 0.85017 0.45886 0.0
H457 H 0.4591 0.89463 0.4962 0.0
H458 H 0.46697 0.83474 0.47599 0.0
C459 C 0.54544 0.87902 0.45558 0.0
C460 C 0.18358 0.37034 0.82642 0.0
C461 C 0.18111 0.35244 0.79586 0.0
H462 H 0.1662 0.37041 0.87309 0.0
C463 C 0.15694 0.32087 0.78838 0.0
H464 H 0.20197 0.39477 0.83272 0.0
C465 C 0.13633 0.30701 0.81134 0.0
C466 C 0.13963 0.3243 0.84232 0.0
H467 H 0.15422 0.30654 0.76495 0.0
H468 H 0.11843 0.28231 0.80499 0.0
C469 C 0.16313 0.35636 0.84949 0.0
C470 C 0.56997 0.59861 0.42176 0.0
C471 C 0.55056 0.59011 0.44738 0.0
H472 H 0.58976 0.63939 0.39321 0.0
C473 C 0.53497 0.6169 0.46354 0.0
H474 H 0.58233 0.57843 0.409 0.0
C475 C 0.53957 0.65168 0.45487 0.0
C476 C 0.55945 0.66046 0.42957 0.0
H477 H 0.51997 0.61136 0.48353 0.0
H478 H 0.52809 0.67171 0.46851 0.0
C479 C 0.57424 0.63348 0.41281 0.0
C480 C 0.89841 0.79761 0.71938 0.0
C481 C 0.89991 0.77605 0.74531 0.0
H482 H 0.91954 0.81072 0.67601 0.0
C483 C 0.92686 0.7527 0.74862 0.0
H484 H 0.87823 0.81624 0.71641 0.0
C485 C 0.95046 0.74938 0.72535 0.0
C486 C 0.94783 0.76973 0.69856 0.0
H487 H 0.92873 0.736 0.76856 0.0
H488 H 0.96996 0.73006 0.72783 0.0
C489 C 0.9223 0.79464 0.69634 0.0
C490 C 0.0499 0.91646 0.57046 0.0
C491 C 0.06478 0.92171 0.54178 0.0
H492 H 0.02732 0.87859 0.60061 0.0
C493 C 0.07124 0.89219 0.52259 0.0
H494 H 0.04475 0.93892 0.58565 0.0
C495 C 0.06174 0.858 0.53116 0.0
C496 C 0.0451 0.85235 0.559 0.0
H497 H 0.08314 0.89543 0.50055 0.0
H498 H 0.06651 0.83597 0.51527 0.0
C499 C 0.03984 0.88199 0.57891 0.0
C500 C 0.12609 0.72621 0.69457 0.0
C501 C 0.15887 0.71729 0.68401 0.0
H502 H 0.0706 0.73757 0.68108 0.0
C503 C 0.16018 0.71204 0.6509 0.0
H504 H 0.12426 0.73038 0.72 0.0
C505 C 0.12955 0.71599 0.62866 0.0
C506 C 0.09681 0.72545 0.639 0.0
H507 H 0.1851 0.70506 0.64216 0.0
H508 H 0.13179 0.712 0.60329 0.0
C509 C 0.09535 0.73031 0.67226 0.0
C510 C 0.91758 0.60937 0.5317 0.0
C511 C 0.94343 0.59884 0.51221 0.0
H512 H 0.90473 0.64879 0.56588 0.0
C513 C 0.97777 0.61989 0.51417 0.0
H514 H 0.89078 0.59401 0.53072 0.0
C515 C 0.98531 0.65153 0.53372 0.0
C516 C 0.95905 0.66251 0.5523 0.0
H517 H 0.99891 0.61207 0.50044 0.0
H518 H 0.01178 0.66728 0.53433 0.0
C519 C 0.92549 0.64078 0.55178 0.0
C520 C 0.85646 0.88517 0.21839 0.0
C521 C 0.82111 0.89616 0.21677 0.0
H522 H 0.91461 0.90033 0.22341 0.0
C523 C 0.81784 0.93242 0.22163 0.0
H524 H 0.85971 0.85729 0.21507 0.0
C525 C 0.84952 0.95741 0.22629 0.0
C526 C 0.88489 0.94641 0.22628 0.0
H527 H 0.79083 0.9415 0.22037 0.0
H528 H 0.8462 0.98531 0.22893 0.0
C529 C 0.88792 0.90992 0.22309 0.0
C530 C 0.8311 0.17897 0.24477 0.0
C531 C 0.81659 0.17227 0.27341 0.0
H532 H 0.86925 0.16621 0.21285 0.0
C533 C 0.83123 0.14688 0.29261 0.0
H534 H 0.82078 0.1987 0.22965 0.0
C535 C 0.85911 0.12797 0.28286 0.0
C536 C 0.87317 0.13439 0.2539 0.0
H537 H 0.82051 0.14104 0.31473 0.0
H538 H 0.86947 0.10821 0.2979 0.0
C539 C 0.85904 0.16039 0.23519 0.0
C540 C 0.4026 0.9281 0.98222 0.0
C541 C 0.38979 0.96126 0.98617 0.0
H542 H 0.39236 0.87226 0.98589 0.0
C543 C 0.35581 0.96324 0.99767 0.0
H544 H 0.42885 0.9259 0.97362 0.0
C545 C 0.33464 0.93246 0.00444 0.0
C546 C 0.34736 0.89919 0.0003 0.0
H547 H 0.34525 0.98851 0.00074 0.0
H548 H 0.30834 0.93474 0.0129 0.0
C549 C 0.38175 0.89743 0.9894 0.0
C550 C 0.19928 0.34503 0.24544 0.0
C551 C 0.21206 0.34134 0.27801 0.0
H552 H 0.17521 0.37818 0.21121 0.0
C553 C 0.20195 0.36482 0.30162 0.0
H554 H 0.20538 0.32675 0.2266 0.0
C555 C 0.18317 0.39352 0.29267 0.0
C556 C 0.17482 0.39953 0.26003 0.0
H557 H 0.21124 0.36293 0.3269 0.0
H558 H 0.1786 0.4129 0.31128 0.0
C559 C 0.18153 0.3742 0.23653 0.0
C560 C 0.12043 0.11789 0.49029 0.0
C561 C 0.13008 0.08336 0.49176 0.0
H562 H 0.13891 0.17332 0.49571 0.0
C563 C 0.16691 0.07859 0.50244 0.0
H564 H 0.09218 0.12226 0.48227 0.0
C565 C 0.19401 0.10791 0.50987 0.0
C566 C 0.18462 0.14252 0.50702 0.0
H567 H 0.17507 0.05217 0.50352 0.0
H568 H 0.22241 0.10341 0.51694 0.0
C569 C 0.14731 0.14712 0.49799 0.0
C570 C 0.72945 0.1588 0.76048 0.0
C571 C 0.76582 0.15298 0.75686 0.0
H572 H 0.67503 0.13519 0.76606 0.0
C573 C 0.7747 0.11815 0.75414 0.0
H574 H 0.72203 0.18551 0.76251 0.0
C575 C 0.74792 0.08958 0.75549 0.0
C576 C 0.71177 0.09522 0.7601 0.0
H577 H 0.80245 0.11303 0.75091 0.0
H578 H 0.7559 0.06306 0.75376 0.0
C579 C 0.70266 0.13009 0.76245 0.0
C580 C 0.40353 0.07551 0.57966 0.0
C581 C 0.42224 0.06603 0.55398 0.0
H582 H 0.36313 0.10582 0.59624 0.0
C583 C 0.41396 0.08103 0.52448 0.0
H584 H 0.40897 0.06421 0.60255 0.0
C585 C 0.38756 0.10483 0.52073 0.0
C586 C 0.36869 0.11415 0.54637 0.0
H587 H 0.4282 0.07461 0.50428 0.0
H588 H 0.38212 0.11605 0.49781 0.0
C589 C 0.37699 0.09915 0.57587 0.0
C590 C 0.62696 0.4477 0.5576 0.0
C591 C 0.60245 0.45401 0.53055 0.0
H592 H 0.67002 0.41841 0.57679 0.0
C593 C 0.6048 0.43537 0.50082 0.0
H594 H 0.62716 0.462 0.58071 0.0
C595 C 0.6307 0.41121 0.49836 0.0
C596 C 0.65411 0.40436 0.52573 0.0
H597 H 0.58612 0.43879 0.47943 0.0
H598 H 0.63147 0.39697 0.47537 0.0
C599 C 0.65201 0.42292 0.55529 0.0
C600 C 0.72665 0.24904 0.36769 0.0
C601 C 0.75906 0.2455 0.35363 0.0
H602 H 0.70338 0.26731 0.40923 0.0
C603 C 0.7932 0.26015 0.37106 0.0
H604 H 0.69982 0.23788 0.35521 0.0
C605 C 0.79512 0.27639 0.40203 0.0
C606 C 0.76295 0.27909 0.41635 0.0
H607 H 0.81866 0.25911 0.36087 0.0
H608 H 0.82204 0.28662 0.41498 0.0
C609 C 0.72857 0.26593 0.39865 0.0
C610 C 0.49837 0.03472 0.85365 0.0
C611 C 0.49017 0.0009 0.86433 0.0
H612 H 0.53005 0.06678 0.8247 0.0
C613 C 0.50624 0.97236 0.85161 0.0
H614 H 0.48611 0.0572 0.86278 0.0
C615 C 0.53162 0.97786 0.82984 0.0
C616 C 0.54112 0.012 0.82022 0.0
H617 H 0.50021 0.94601 0.8594 0.0
H618 H 0.54455 0.95554 0.82128 0.0
C619 C 0.5235 0.04018 0.83172 0.0
C620 C 0.30669 0.2589 0.37388 0.0
C621 C 0.27279 0.2605 0.35426 0.0
H622 H 0.33365 0.24742 0.41997 0.0
C623 C 0.23996 0.24685 0.36531 0.0
H624 H 0.33257 0.26927 0.36635 0.0
C625 C 0.24068 0.23493 0.39608 0.0
C626 C 0.27427 0.23547 0.41638 0.0
H627 H 0.21342 0.2465 0.35062 0.0
H628 H 0.21471 0.2266 0.40456 0.0
C629 C 0.30741 0.24628 0.40461 0.0
C630 C 0.53902 0.49191 0.87744 0.0
C631 C 0.53756 0.52023 0.90011 0.0
H632 H 0.52876 0.47209 0.82804 0.0
C633 C 0.52206 0.55039 0.88974 0.0
H634 H 0.55115 0.46849 0.88464 0.0
C635 C 0.50904 0.55247 0.85718 0.0
C636 C 0.5118 0.52463 0.83434 0.0
H637 H 0.52041 0.57253 0.90678 0.0
H638 H 0.49788 0.5763 0.84981 0.0
C639 C 0.52644 0.49414 0.84494 0.0
C640 C 0.76096 0.80725 0.11128 0.0
C641 C 0.76128 0.79484 0.14195 0.0
H642 H 0.76838 0.79567 0.06232 0.0
C643 C 0.76756 0.75974 0.14655 0.0
H644 H 0.75637 0.83438 0.10743 0.0
C645 C 0.77518 0.73774 0.12096 0.0
C646 C 0.77596 0.75048 0.0904 0.0
H647 H 0.76822 0.7499 0.17021 0.0
H648 H 0.78122 0.71111 0.12525 0.0
C649 C 0.76784 0.78511 0.0856 0.0
C650 C 1.00463 0.04556 0.10051 0.0
C651 C 0.01569 0.01171 0.09424 0.0
H652 H 0.9825 0.08065 0.1328 0.0
C653 C 0.01254 0.98719 0.11779 0.0
H654 H 0.00769 0.06597 0.08398 0.0
C655 C 0.99938 0.99648 0.1467 0.0
C656 C 0.98808 0.03011 0.15237 0.0
H657 H 0.02004 0.96071 0.114 0.0
H658 H 0.99759 0.97716 0.16441 0.0
C659 C 0.99041 0.05431 0.12881 0.0
C660 C 0.33409 0.75648 0.12309 0.0
C661 C 0.33834 0.77714 0.15246 0.0
H662 H 0.31217 0.75134 0.07322 0.0
C663 C 0.32616 0.81077 0.15332 0.0
H664 H 0.34349 0.73052 0.12182 0.0
C665 C 0.30766 0.82257 0.12552 0.0
C666 C 0.30181 0.80111 0.09644 0.0
H667 H 0.32913 0.82707 0.17579 0.0
H668 H 0.29705 0.84795 0.12702 0.0
C669 C 0.31622 0.76847 0.09528 0.0
C670 C 0.06915 0.5084 0.10411 0.0
C671 C 0.03203 0.51058 0.10792 0.0
H672 H 0.12406 0.50544 0.1265 0.0
C673 C 0.02253 0.51281 0.13929 0.0
H674 H 0.0776 0.50726 0.08037 0.0
C675 C 0.04947 0.51182 0.16612 0.0
C676 C 0.08647 0.50869 0.16211 0.0
H677 H 0.99413 0.51432 0.14303 0.0
H678 H 0.04123 0.51312 0.18993 0.0
C679 C 0.09589 0.50739 0.13071 0.0
C680 C 0.41718 0.7448 0.3029 0.0
C681 C 0.39385 0.71232 0.29853 0.0
H682 H 0.46365 0.77641 0.33128 0.0
C683 C 0.40031 0.68671 0.32069 0.0
H684 H 0.4129 0.76557 0.28691 0.0
C685 C 0.42849 0.69363 0.34671 0.0
C686 C 0.45177 0.7258 0.35069 0.0
H687 H 0.38402 0.66095 0.31786 0.0
H688 H 0.43252 0.67347 0.36346 0.0
C689 C 0.44621 0.75121 0.32843 0.0
C690 C 0.04809 0.40385 0.96153 0.0
C691 C 0.01627 0.4101 0.97508 0.0
H692 H 0.07735 0.36574 0.93919 0.0
C693 C 0.98826 0.38194 0.97544 0.0
H694 H 0.07007 0.4252 0.96105 0.0
C695 C 0.99263 0.3478 0.96344 0.0
C696 C 0.02482 0.34133 0.9504 0.0
H697 H 0.96348 0.38597 0.98587 0.0
H698 H 0.97094 0.3264 0.96467 0.0
C699 C 0.0522 0.36986 0.949 0.0
C700 C 0.64551 0.79926 0.27076 0.0
C701 C 0.66612 0.83226 0.28132 0.0
H702 H 0.60698 0.75683 0.28154 0.0
C703 C 0.66146 0.84887 0.31099 0.0
H704 H 0.64823 0.78579 0.24789 0.0
C705 C 0.6376 0.83224 0.33032 0.0
C706 C 0.61802 0.7986 0.3203 0.0
H707 H 0.67692 0.87435 0.3196 0.0
H708 H 0.6353 0.84533 0.35348 0.0
C709 C 0.62175 0.78263 0.29006 0.0
C710 C 0.06933 0.08789 0.91834 0.0
C711 C 0.05077 0.08119 0.94485 0.0
H712 H 0.08919 0.12673 0.88793 0.0
C713 C 0.03677 0.10927 0.96072 0.0
H714 H 0.08046 0.06669 0.90577 0.0
C715 C 0.04209 0.1435 0.95084 0.0
C716 C 0.06111 0.15048 0.92462 0.0
H717 H 0.02249 0.10515 0.98137 0.0
H718 H 0.03188 0.16456 0.96429 0.0
C719 C 0.07434 0.12223 0.9082 0.0
C720 C 0.36744 0.29712 0.20197 0.0
C721 C 0.38121 0.28329 0.23076 0.0
H722 H 0.37512 0.30706 0.15375 0.0
C723 C 0.41596 0.27088 0.23325 0.0
H724 H 0.34097 0.30732 0.19918 0.0
C725 C 0.43586 0.27103 0.20694 0.0
C726 C 0.42117 0.28344 0.17771 0.0
H727 H 0.42729 0.26032 0.25522 0.0
H728 H 0.46201 0.26018 0.20912 0.0
C729 C 0.38713 0.29712 0.17581 0.0
C730 C 0.54765 0.40723 0.07004 0.0
C731 C 0.55881 0.41297 0.03989 0.0
H732 H 0.52949 0.36884 0.10174 0.0
C733 C 0.56243 0.38366 0.0191 0.0
H734 H 0.54472 0.42948 0.08649 0.0
C735 C 0.55426 0.3493 0.02785 0.0
C736 C 0.54179 0.3432 0.0575 0.0
H737 H 0.57136 0.38721 0.99584 0.0
H738 H 0.55694 0.32746 0.01085 0.0
C739 C 0.53885 0.37258 0.07868 0.0
C740 C 0.66525 0.20896 0.15185 0.0
C741 C 0.66358 0.21464 0.18487 0.0
H742 H 0.6368 0.2071 0.10402 0.0
C743 C 0.63026 0.22237 0.1951 0.0
H744 H 0.69062 0.20286 0.14339 0.0
C745 C 0.59929 0.22486 0.17254 0.0
C746 C 0.60104 0.21957 0.13936 0.0
H747 H 0.62814 0.22679 0.22045 0.0
H748 H 0.5741 0.23121 0.18114 0.0
C749 C 0.63435 0.21134 0.12933 0.0
C750 C 0.42279 0.0973 0.03363 0.0
C751 C 0.44807 0.08741 0.01328 0.0
H752 H 0.41024 0.13618 0.06844 0.0
C753 C 0.48176 0.10932 0.01423 0.0
H754 H 0.39644 0.08138 0.03343 0.0
C755 C 0.48913 0.14108 0.03367 0.0
C756 C 0.46344 0.1513 0.05321 0.0
H757 H 0.50253 0.1021 0.99981 0.0
H758 H 0.51503 0.15753 0.03344 0.0
C759 C 0.4306 0.12876 0.05364 0.0
C760 C 0.32117 0.44419 0.72208 0.0
C761 C 0.32288 0.40822 0.71358 0.0
H762 H 0.35119 0.49616 0.73229 0.0
C763 C 0.35732 0.39675 0.71041 0.0
H764 H 0.2949 0.45366 0.72461 0.0
C765 C 0.38931 0.42079 0.71468 0.0
C766 C 0.38773 0.45702 0.72223 0.0
H767 H 0.35949 0.36904 0.70436 0.0
H768 H 0.41525 0.41088 0.71166 0.0
C769 C 0.35334 0.46846 0.72625 0.0
C770 C 0.33073 0.65159 0.79113 0.0
C771 C 0.31488 0.67612 0.77159 0.0
H772 H 0.37089 0.61483 0.79716 0.0
C773 C 0.3292 0.6831 0.74291 0.0
H774 H 0.32019 0.64543 0.81326 0.0
C775 C 0.35813 0.66564 0.73369 0.0
C776 C 0.37354 0.64058 0.75283 0.0
H777 H 0.31804 0.70219 0.72751 0.0
H778 H 0.36818 0.67163 0.71132 0.0
C779 C 0.35965 0.63392 0.7818 0.0
C780 C 0.85161 0.47395 0.49583 0.0
C781 C 0.88609 0.47268 0.48505 0.0
H782 H 0.80464 0.44457 0.51118 0.0
C783 C 0.90034 0.4401 0.48255 0.0
H784 H 0.84002 0.49881 0.49785 0.0
C785 C 0.88046 0.40929 0.49051 0.0
C786 C 0.8456 0.41026 0.50073 0.0
H787 H 0.92701 0.4385 0.47457 0.0
H788 H 0.89221 0.38457 0.48807 0.0
C789 C 0.83137 0.44294 0.50334 0.0
C790 C 0.71054 0.86339 0.79929 0.0
C791 C 0.72547 0.84311 0.77612 0.0
H792 H 0.68213 0.90825 0.80912 0.0
C793 C 0.71741 0.84994 0.74355 0.0
H794 H 0.71615 0.85924 0.8246 0.0
C795 C 0.69867 0.87864 0.73484 0.0
C796 C 0.6864 0.90051 0.75832 0.0
H797 H 0.7272 0.83419 0.7248 0.0
H798 H 0.69543 0.88481 0.7099 0.0
C799 C 0.6909 0.89158 0.79041 0.0
C800 C 0.61832 0.6102 0.99401 0.0
C801 C 0.62707 0.57528 0.99347 0.0
H802 H 0.63833 0.66529 0.99999 0.0
C803 C 0.66407 0.56932 0.00148 0.0
H804 H 0.58996 0.61544 0.98796 0.0
C805 C 0.69212 0.59796 0.00802 0.0
C806 C 0.68352 0.63302 0.00689 0.0
H807 H 0.6715 0.54256 0.00092 0.0
H808 H 0.72055 0.5926 0.01286 0.0
C809 C 0.64615 0.63873 0.0008 0.0
C810 C 0.26497 0.61448 0.22669 0.0
C811 C 0.27233 0.64517 0.24793 0.0
H812 H 0.23116 0.56504 0.21329 0.0
C813 C 0.24887 0.65049 0.27115 0.0
H814 H 0.28268 0.60985 0.20856 0.0
C815 C 0.2189 0.62513 0.27345 0.0
C816 C 0.21247 0.59372 0.25306 0.0
H817 H 0.25388 0.67414 0.28759 0.0
H818 H 0.20171 0.62942 0.29205 0.0
C819 C 0.23554 0.58884 0.22944 0.0
C820 C 0.91226 0.56864 0.01541 0.0
C821 C 0.92037 0.55301 0.04459 0.0
H822 H 0.88011 0.60381 0.98923 0.0
C823 C 0.90051 0.56082 0.06995 0.0
H824 H 0.92731 0.56343 0.99547 0.0
C825 C 0.87331 0.58378 0.06629 0.0
C826 C 0.8655 0.59979 0.03727 0.0
H827 H 0.90576 0.54894 0.09258 0.0
H828 H 0.85876 0.58933 0.08649 0.0
C829 C 0.88522 0.59182 0.01182 0.0
C830 C 0.12878 0.94565 0.05998 0.0
C831 C 0.10402 0.94986 0.03244 0.0
H832 H 0.17346 0.91931 0.08068 0.0
C833 C 0.10746 0.93052 0.00338 0.0
H834 H 0.12801 0.96065 0.08258 0.0
C835 C 0.13459 0.90745 0.00208 0.0
C836 C 0.15837 0.90264 0.02995 0.0
H837 H 0.08869 0.93255 0.98167 0.0
H838 H 0.13611 0.89252 0.97959 0.0
C839 C 0.15526 0.92215 0.05881 0.0
loop_
_geom_bond_atom_site_label_1
_geom_bond_atom_site_label_2
_geom_bond_distance
_geom_bond_site_symmetry_2
_ccdc_geom_bond_type
H0 C5 0.930 1_655 S
H1 C8 0.930 1_556 S
H2 C10 0.930 1_565 S
H3 C4 1.016 . S
C4 H3 1.016 . S
C4 N11 1.286 . S
C5 H0 0.930 1_455 S
C5 C6 1.397 . S
C5 C7 1.361 . S
C6 C5 1.397 . S
C6 C10 1.390 . S
C7 C5 1.361 . S
C7 C8 1.393 . S
C7 N11 1.413 1_554 S
C8 H1 0.930 1_554 S
C8 C7 1.393 . S
C8 C9 1.399 . S
C9 C8 1.399 . S
C9 C10 1.381 . S
C10 H2 0.930 1_545 S
C10 C6 1.390 . S
C10 C9 1.381 . S
N11 C4 1.286 . S
N11 C7 1.413 1_556 S
H12 C17 0.930 . S
H13 C20 0.930 . S
H14 C22 0.930 . S
H15 C16 1.016 . S
C16 H15 1.016 . S
C16 N23 1.286 . S
C17 H12 0.930 . S
C17 C18 1.397 . S
C17 C19 1.361 . S
C18 C17 1.397 . S
C18 C22 1.390 . S
C19 C17 1.361 . S
C19 C20 1.393 . S
C19 N23 1.413 . S
C20 H13 0.930 . S
C20 C19 1.393 . S
C20 C21 1.399 . S
C21 C20 1.399 . S
C21 C22 1.381 . S
C22 H14 0.930 . S
C22 C18 1.390 . S
C22 C21 1.381 . S
N23 C16 1.286 . S
N23 C19 1.413 . S
H24 C29 0.930 . S
H25 C32 0.930 1_455 S
H26 C34 0.930 . S
H27 C28 1.016 1_455 S
C28 H27 1.016 1_655 S
C28 N35 1.286 . S
C29 H24 0.930 . S
C29 C30 1.397 . S
C29 C31 1.361 . S
C30 C29 1.397 . S
C30 C34 1.390 . S
C31 C29 1.361 . S
C31 C32 1.393 . S
C31 N35 1.413 . S
C32 H25 0.930 1_655 S
C32 C31 1.393 . S
C32 C33 1.396 . S
C33 C32 1.396 . S
C33 C34 1.400 . S
C34 H26 0.930 . S
C34 C30 1.390 . S
C34 C33 1.400 . S
N35 C28 1.286 . S
N35 C31 1.413 . S
H36 C41 0.930 . S
H37 C44 0.930 . S
H38 C46 0.930 . S
H39 C40 1.016 . S
C40 H39 1.016 . S
C40 N47 1.286 . S
C41 H36 0.930 . S
C41 C42 1.397 . S
C41 C43 1.361 . S
C42 C41 1.397 . S
C42 C46 1.390 . S
C43 C41 1.361 . S
C43 C44 1.393 . S
C43 N47 1.413 . S
C44 H37 0.930 . S
C44 C43 1.393 . S
C44 C45 1.399 . S
C45 C44 1.399 . S
C45 C46 1.381 . S
C46 H38 0.930 . S
C46 C42 1.390 . S
C46 C45 1.381 . S
N47 C40 1.286 . S
N47 C43 1.413 . S
H48 C53 0.930 . S
H49 C56 0.930 . S
H50 C58 0.930 . S
H51 C52 1.016 . S
C52 H51 1.016 . S
C52 N59 1.286 . S
C53 H48 0.930 . S
C53 C54 1.397 1_565 S
C53 C55 1.361 . S
C54 C53 1.397 1_545 S
C54 C58 1.390 . S
C55 C53 1.361 . S
C55 C56 1.393 . S
C55 N59 1.413 . S
C56 H49 0.930 . S
C56 C55 1.393 . S
C56 C57 1.399 1_565 S
C57 C56 1.399 1_545 S
C57 C58 1.381 . S
C58 H50 0.930 . S
C58 C54 1.390 . S
C58 C57 1.381 . S
N59 C52 1.286 . S
N59 C55 1.413 . S
H60 C65 0.930 . S
H61 C68 0.930 . S
H62 C70 0.930 . S
H63 C64 1.016 . S
C64 H63 1.016 . S
C64 N71 1.286 . S
C65 H60 0.930 . S
C65 C66 1.397 . S
C65 C67 1.361 . S
C66 C65 1.397 . S
C66 C70 1.390 . S
C67 C65 1.361 . S
C67 C68 1.393 . S
C67 N71 1.413 . S
C68 H61 0.930 . S
C68 C67 1.393 . S
C68 C69 1.399 . S
C69 C68 1.399 . S
C69 C70 1.381 . S
C70 H62 0.930 . S
C70 C66 1.390 . S
C70 C69 1.381 . S
N71 C64 1.286 . S
N71 C67 1.413 . S
H72 C77 0.930 1_455 S
H73 C80 0.930 . S
H74 C82 0.930 . S
H75 C76 1.020 . S
C76 H75 1.020 . S
C76 N83 1.286 . S
C77 H72 0.930 1_655 S
C77 C78 1.397 . S
C77 C79 1.361 . S
C78 C77 1.397 . S
C78 C82 1.390 . S
C79 C77 1.361 . S
C79 C80 1.393 . S
C79 N83 1.413 1_655 S
C80 H73 0.930 . S
C80 C79 1.393 . S
C80 C81 1.399 . S
C81 C80 1.399 . S
C81 C82 1.381 . S
C82 H74 0.930 . S
C82 C78 1.390 . S
C82 C81 1.381 . S
N83 C76 1.286 . S
N83 C79 1.413 1_455 S
H84 C89 0.930 . S
H85 C92 0.930 . S
H86 C94 0.930 . S
H87 C88 1.016 . S
C88 H87 1.016 . S
C88 N95 1.286 . S
C89 H84 0.930 . S
C89 C90 1.397 . S
C89 C91 1.361 . S
C90 C89 1.397 . S
C90 C94 1.390 . S
C91 C89 1.361 . S
C91 C92 1.393 . S
C91 N95 1.413 . S
C92 H85 0.930 . S
C92 C91 1.393 . S
C92 C93 1.399 . S
C93 C92 1.399 . S
C93 C94 1.381 . S
C94 H86 0.930 . S
C94 C90 1.390 . S
C94 C93 1.381 . S
N95 C88 1.286 . S
N95 C91 1.413 . S
H96 C101 0.930 . S
H97 C104 0.930 . S
H98 C106 0.930 . S
H99 C100 1.016 . S
C100 H99 1.016 . S
C100 N107 1.286 . S
C101 H96 0.930 . S
C101 C102 1.397 . S
C101 C103 1.361 . S
C102 C101 1.397 . S
C102 C106 1.390 . S
C103 C101 1.361 . S
C103 C104 1.393 . S
C103 N107 1.413 . S
C104 H97 0.930 . S
C104 C103 1.393 . S
C104 C105 1.399 . S
C105 C104 1.399 . S
C105 C106 1.381 . S
C106 H98 0.930 . S
C106 C102 1.390 . S
C106 C105 1.381 . S
N107 C100 1.286 . S
N107 C103 1.413 . S
H108 C113 0.930 . S
H109 C116 0.930 . S
H110 C118 0.930 . S
H111 C112 1.016 . S
C112 H111 1.016 . S
C112 N119 1.286 . S
C113 H108 0.930 . S
C113 C114 1.397 1_565 S
C113 C115 1.361 . S
C114 C113 1.397 1_545 S
C114 C118 1.390 . S
C115 C113 1.361 . S
C115 C116 1.393 . S
C115 N119 1.413 . S
C116 H109 0.930 . S
C116 C115 1.393 . S
C116 C117 1.399 . S
C117 C116 1.399 . S
C117 C118 1.381 1_565 S
C118 H110 0.930 . S
C118 C114 1.390 . S
C118 C117 1.381 1_545 S
N119 C112 1.286 . S
N119 C115 1.413 . S
H120 C125 0.930 . S
H121 C128 0.930 . S
H122 C130 0.930 . S
H123 C124 1.016 . S
C124 H123 1.016 . S
C124 N131 1.286 . S
C125 H120 0.930 . S
C125 C126 1.397 . S
C125 C127 1.361 . S
C126 C125 1.397 . S
C126 C130 1.390 . S
C127 C125 1.361 . S
C127 C128 1.393 . S
C127 N131 1.413 . S
C128 H121 0.930 . S
C128 C127 1.393 . S
C128 C129 1.399 . S
C129 C128 1.399 . S
C129 C130 1.381 . S
C130 H122 0.930 . S
C130 C126 1.390 . S
C130 C129 1.381 . S
N131 C124 1.286 . S
N131 C127 1.413 . S
H132 C137 0.930 . S
H133 C140 0.930 . S
H134 C142 0.930 . S
H135 C136 1.016 . S
C136 H135 1.016 . S
C136 N143 1.286 . S
C137 H132 0.930 . S
C137 C138 1.397 . S
C137 C139 1.361 . S
C138 C137 1.397 . S
C138 C142 1.390 . S
C139 C137 1.361 . S
C139 C140 1.393 . S
C139 N143 1.413 . S
C140 H133 0.930 . S
C140 C139 1.393 . S
C140 C141 1.399 . S
C141 C140 1.399 . S
C141 C142 1.381 . S
C142 H134 0.930 . S
C142 C138 1.390 . S
C142 C141 1.381 . S
N143 C136 1.286 . S
N143 C139 1.413 . S
H144 C149 0.930 . S
H145 C152 0.930 . S
H146 C154 0.930 . S
H147 C148 1.016 . S
C148 H147 1.016 . S
C148 N155 1.286 . S
C149 H144 0.930 . S
C149 C150 1.397 . S
C149 C151 1.361 . S
C150 C149 1.397 . S
C150 C154 1.390 . S
C151 C149 1.361 . S
C151 C152 1.393 . S
C151 N155 1.413 . S
C152 H145 0.930 . S
C152 C151 1.393 . S
C152 C153 1.399 . S
C153 C152 1.399 . S
C153 C154 1.381 . S
C154 H146 0.930 . S
C154 C150 1.390 . S
C154 C153 1.381 . S
N155 C148 1.286 . S
N155 C151 1.413 . S
H156 C161 0.930 . S
H157 C164 0.930 1_554 S
H158 C166 0.930 . S
H159 C160 1.016 . S
C160 H159 1.016 . S
C160 N167 1.286 1_554 S
C161 H156 0.930 . S
C161 C162 1.397 . S
C161 C163 1.361 . S
C162 C161 1.397 . S
C162 C166 1.390 . S
C163 C161 1.361 . S
C163 C164 1.393 . S
C163 N167 1.413 . S
C164 H157 0.930 1_556 S
C164 C163 1.393 . S
C164 C165 1.399 . S
C165 C164 1.399 . S
C165 C166 1.381 . S
C166 H158 0.930 . S
C166 C162 1.390 . S
C166 C165 1.381 . S
N167 C160 1.286 1_556 S
N167 C163 1.413 . S
H168 C173 0.930 . S
H169 C176 0.930 . S
H170 C178 0.930 . S
H171 C172 1.016 . S
C172 H171 1.016 . S
C172 N179 1.286 . S
C173 H168 0.930 . S
C173 C174 1.397 . S
C173 C175 1.361 . S
C174 C173 1.397 . S
C174 C178 1.390 . S
C175 C173 1.361 . S
C175 C176 1.393 . S
C175 N179 1.413 . S
C176 H169 0.930 . S
C176 C175 1.393 . S
C176 C177 1.399 . S
C177 C176 1.399 . S
C177 C178 1.381 . S
C178 H170 0.930 . S
C178 C174 1.390 . S
C178 C177 1.381 . S
N179 C172 1.286 . S
N179 C175 1.413 . S
H180 C185 0.930 . S
H181 C188 0.930 1_565 S
H182 C190 0.930 . S
H183 C184 1.016 1_565 S
C184 H183 1.016 1_545 S
C184 N191 1.286 . S
C185 H180 0.930 . S
C185 C186 1.397 1_556 S
C185 C187 1.361 . S
C186 C185 1.397 1_554 S
C186 C190 1.390 . S
C187 C185 1.361 . S
C187 C188 1.393 . S
C187 N191 1.413 . S
C188 H181 0.930 1_545 S
C188 C187 1.393 . S
C188 C189 1.399 . S
C189 C188 1.399 . S
C189 C190 1.381 1_556 S
C190 H182 0.930 . S
C190 C186 1.390 . S
C190 C189 1.381 1_554 S
N191 C184 1.286 . S
N191 C187 1.413 . S
Mg192 O193 2.028 . S
Mg192 O199 1.986 1_554 S
Mg192 O201 2.114 . S
Mg192 O202 2.251 . S
Mg192 O205 2.010 . S
O193 Mg192 2.028 . S
O193 C196 1.250 . S
O194 Mg195 2.028 . S
O194 C196 1.248 . S
Mg195 O194 2.028 . S
Mg195 O200 2.032 1_554 S
Mg195 O202 2.079 . S
C196 O193 1.250 . S
C196 O194 1.248 . S
C197 O198 1.264 . S
C197 O205 1.249 . S
O198 C197 1.264 . S
O199 Mg192 1.986 1_556 S
O199 C203 1.246 . S
O200 Mg195 2.032 1_556 S
O200 C203 1.259 . S
O201 Mg192 2.114 . S
O201 C204 1.252 . S
O202 Mg192 2.251 . S
O202 Mg195 2.079 . S
O202 C204 1.273 . S
C203 O199 1.246 . S
C203 O200 1.259 . S
C204 O201 1.252 . S
C204 O202 1.273 . S
O205 Mg192 2.010 . S
O205 C197 1.249 . S
Mg206 O207 2.028 . S
Mg206 O213 1.986 . S
Mg206 O215 2.114 . S
Mg206 O216 2.251 . S
Mg206 O219 2.010 . S
O207 Mg206 2.028 . S
O207 C210 1.250 . S
O208 Mg209 2.028 . S
O208 C210 1.248 . S
Mg209 O208 2.028 . S
Mg209 O214 2.032 . S
Mg209 O216 2.079 . S
C210 O207 1.250 . S
C210 O208 1.248 . S
C211 O212 1.264 . S
C211 O219 1.249 . S
O212 C211 1.264 . S
O213 Mg206 1.986 . S
O213 C217 1.246 . S
O214 Mg209 2.032 . S
O214 C217 1.259 . S
O215 Mg206 2.114 . S
O215 C218 1.252 . S
O216 Mg206 2.251 . S
O216 Mg209 2.079 . S
O216 C218 1.273 . S
C217 O213 1.246 . S
C217 O214 1.259 . S
C218 O215 1.252 . S
C218 O216 1.273 . S
O219 Mg206 2.010 . S
O219 C211 1.249 . S
Mg220 O221 2.028 . S
Mg220 O227 1.986 1_554 S
Mg220 O229 2.114 . S
Mg220 O230 2.251 . S
Mg220 O233 2.010 . S
O221 Mg220 2.028 . S
O221 C224 1.250 1_554 S
O222 Mg223 2.028 . S
O222 C224 1.248 . S
Mg223 O222 2.028 . S
Mg223 O228 2.032 . S
Mg223 O230 2.079 1_556 S
C224 O221 1.250 1_556 S
C224 O222 1.248 . S
C225 O226 1.264 . S
C225 O233 1.249 . S
O226 C225 1.264 . S
O227 Mg220 1.986 1_556 S
O227 C231 1.246 . S
O228 Mg223 2.032 . S
O228 C231 1.259 . S
O229 Mg220 2.114 . S
O229 C232 1.252 . S
O230 Mg220 2.251 . S
O230 Mg223 2.079 1_554 S
O230 C232 1.273 . S
C231 O227 1.246 . S
C231 O228 1.259 . S
C232 O229 1.252 . S
C232 O230 1.273 . S
O233 Mg220 2.010 . S
O233 C225 1.249 . S
Mg234 O235 2.028 . S
Mg234 O241 1.986 . S
Mg234 O243 2.114 . S
Mg234 O244 2.251 . S
Mg234 O247 2.010 . S
O235 Mg234 2.028 . S
O235 C238 1.250 1_545 S
O236 Mg237 2.028 . S
O236 C238 1.248 . S
Mg237 O236 2.028 . S
Mg237 O242 2.032 . S
Mg237 O244 2.079 1_565 S
C238 O235 1.250 1_565 S
C238 O236 1.248 . S
C239 O240 1.264 . S
C239 O247 1.249 . S
O240 C239 1.264 . S
O241 Mg234 1.986 . S
O241 C245 1.246 . S
O242 Mg237 2.032 . S
O242 C245 1.259 1_565 S
O243 Mg234 2.114 . S
O243 C246 1.252 . S
O244 Mg234 2.251 . S
O244 Mg237 2.079 1_545 S
O244 C246 1.273 . S
C245 O241 1.246 . S
C245 O242 1.259 1_545 S
C246 O243 1.252 . S
C246 O244 1.273 . S
O247 Mg234 2.010 . S
O247 C239 1.249 . S
Mg248 O249 2.028 . S
Mg248 O255 1.986 . S
Mg248 O257 2.114 . S
Mg248 O258 2.251 . S
Mg248 O261 2.010 . S
O249 Mg248 2.028 . S
O249 C252 1.250 . S
O250 Mg251 2.028 . S
O250 C252 1.248 . S
Mg251 O250 2.028 . S
Mg251 O256 2.032 . S
Mg251 O258 2.079 . S
C252 O249 1.250 . S
C252 O250 1.248 . S
C253 O254 1.264 . S
C253 O261 1.249 . S
O254 C253 1.264 . S
O255 Mg248 1.986 . S
O255 C259 1.246 . S
O256 Mg251 2.032 . S
O256 C259 1.259 . S
O257 Mg248 2.114 . S
O257 C260 1.252 . S
O258 Mg248 2.251 . S
O258 Mg251 2.079 . S
O258 C260 1.273 . S
C259 O255 1.246 . S
C259 O256 1.259 . S
C260 O257 1.252 . S
C260 O258 1.273 . S
O261 Mg248 2.010 . S
O261 C253 1.249 . S
Mg262 O263 2.028 . S
Mg262 O269 1.986 . S
Mg262 O271 2.114 . S
Mg262 O272 2.251 . S
Mg262 O275 2.010 . S
O263 Mg262 2.028 . S
O263 C266 1.250 . S
O264 Mg265 2.028 . S
O264 C266 1.248 . S
Mg265 O264 2.028 . S
Mg265 O270 2.032 . S
Mg265 O272 2.079 . S
C266 O263 1.250 . S
C266 O264 1.248 . S
C267 O268 1.264 . S
C267 O275 1.249 . S
O268 C267 1.264 . S
O269 Mg262 1.986 . S
O269 C273 1.246 . S
O270 Mg265 2.032 . S
O270 C273 1.259 . S
O271 Mg262 2.114 . S
O271 C274 1.252 . S
O272 Mg262 2.251 . S
O272 Mg265 2.079 . S
O272 C274 1.273 . S
C273 O269 1.246 . S
C273 O270 1.259 . S
C274 O271 1.252 . S
C274 O272 1.273 . S
O275 Mg262 2.010 . S
O275 C267 1.249 . S
Mg276 O277 2.028 . S
Mg276 O283 1.986 . S
Mg276 O285 2.114 . S
Mg276 O286 2.251 . S
Mg276 O289 2.010 . S
O277 Mg276 2.028 . S
O277 C280 1.250 . S
O278 Mg279 2.028 . S
O278 C280 1.248 . S
Mg279 O278 2.028 . S
Mg279 O284 2.032 . S
Mg279 O286 2.079 . S
C280 O277 1.250 . S
C280 O278 1.248 . S
C281 O282 1.264 . S
C281 O289 1.249 . S
O282 C281 1.264 . S
O283 Mg276 1.986 . S
O283 C287 1.246 . S
O284 Mg279 2.032 . S
O284 C287 1.259 . S
O285 Mg276 2.114 . S
O285 C288 1.252 . S
O286 Mg276 2.251 . S
O286 Mg279 2.079 . S
O286 C288 1.273 . S
C287 O283 1.246 . S
C287 O284 1.259 . S
C288 O285 1.252 . S
C288 O286 1.273 . S
O289 Mg276 2.010 . S
O289 C281 1.249 . S
Mg290 O291 2.028 1_545 S
Mg290 O297 1.986 1_545 S
Mg290 O299 2.114 . S
Mg290 O300 2.251 . S
Mg290 O303 2.010 . S
O291 Mg290 2.028 1_565 S
O291 C294 1.250 . S
O292 Mg293 2.028 . S
O292 C294 1.248 . S
Mg293 O292 2.028 . S
Mg293 O298 2.032 . S
Mg293 O300 2.079 1_565 S
C294 O291 1.250 . S
C294 O292 1.248 . S
C295 O296 1.264 . S
C295 O303 1.249 . S
O296 C295 1.264 . S
O297 Mg290 1.986 1_565 S
O297 C301 1.246 . S
O298 Mg293 2.032 . S
O298 C301 1.259 . S
O299 Mg290 2.114 . S
O299 C302 1.252 . S
O300 Mg290 2.251 . S
O300 Mg293 2.079 1_545 S
O300 C302 1.273 . S
C301 O297 1.246 . S
C301 O298 1.259 . S
C302 O299 1.252 . S
C302 O300 1.273 . S
O303 Mg290 2.010 . S
O303 C295 1.249 . S
Mg304 O305 2.028 1_455 S
Mg304 O311 1.986 . S
Mg304 O313 2.114 . S
Mg304 O314 2.251 1_455 S
Mg304 O317 2.010 . S
O305 Mg304 2.028 1_655 S
O305 C308 1.250 . S
O306 Mg307 2.028 . S
O306 C308 1.248 . S
Mg307 O306 2.028 . S
Mg307 O312 2.032 . S
Mg307 O314 2.079 . S
C308 O305 1.250 . S
C308 O306 1.248 . S
C309 O310 1.264 . S
C309 O317 1.249 . S
O310 C309 1.264 . S
O311 Mg304 1.986 . S
O311 C315 1.246 1_455 S
O312 Mg307 2.032 . S
O312 C315 1.259 . S
O313 Mg304 2.114 . S
O313 C316 1.252 . S
O314 Mg304 2.251 1_655 S
O314 Mg307 2.079 . S
O314 C316 1.273 1_655 S
C315 O311 1.246 1_655 S
C315 O312 1.259 . S
C316 O313 1.252 . S
C316 O314 1.273 1_455 S
O317 Mg304 2.010 . S
O317 C309 1.249 . S
Mg318 O319 2.028 . S
Mg318 O325 1.986 . S
Mg318 O327 2.114 . S
Mg318 O328 2.251 . S
Mg318 O331 2.010 . S
O319 Mg318 2.028 . S
O319 C322 1.250 . S
O320 Mg321 2.028 . S
O320 C322 1.248 . S
Mg321 O320 2.028 . S
Mg321 O326 2.032 . S
Mg321 O328 2.079 . S
C322 O319 1.250 . S
C322 O320 1.248 . S
C323 O324 1.264 . S
C323 O331 1.249 . S
O324 C323 1.264 . S
O325 Mg318 1.986 . S
O325 C329 1.246 . S
O326 Mg321 2.032 . S
O326 C329 1.259 . S
O327 Mg318 2.114 . S
O327 C330 1.252 . S
O328 Mg318 2.251 . S
O328 Mg321 2.079 . S
O328 C330 1.273 . S
C329 O325 1.246 . S
C329 O326 1.259 . S
C330 O327 1.252 . S
C330 O328 1.273 . S
O331 Mg318 2.010 . S
O331 C323 1.249 . S
Mg332 O333 2.028 1_655 S
Mg332 O339 1.985 . S
Mg332 O341 2.114 . S
Mg332 O342 2.251 1_655 S
Mg332 O345 2.010 . S
O333 Mg332 2.028 1_455 S
O333 C336 1.250 . S
O334 Mg335 2.028 . S
O334 C336 1.248 . S
Mg335 O334 2.028 . S
Mg335 O340 2.032 . S
Mg335 O342 2.079 . S
C336 O333 1.250 . S
C336 O334 1.248 . S
C337 O338 1.264 . S
C337 O345 1.249 . S
O338 C337 1.264 . S
O339 Mg332 1.985 . S
O339 C343 1.247 1_655 S
O340 Mg335 2.032 . S
O340 C343 1.259 . S
O341 Mg332 2.114 . S
O341 C344 1.252 . S
O342 Mg332 2.251 1_455 S
O342 Mg335 2.079 . S
O342 C344 1.273 1_455 S
C343 O339 1.247 1_455 S
C343 O340 1.259 . S
C344 O341 1.252 . S
C344 O342 1.273 1_655 S
O345 Mg332 2.010 . S
O345 C337 1.249 . S
Mg346 O347 2.028 . S
Mg346 O353 1.986 . S
Mg346 O355 2.114 . S
Mg346 O356 2.251 . S
Mg346 O359 2.010 . S
O347 Mg346 2.028 . S
O347 C350 1.250 . S
O348 Mg349 2.028 . S
O348 C350 1.248 . S
Mg349 O348 2.028 . S
Mg349 O354 2.032 . S
Mg349 O356 2.079 . S
C350 O347 1.250 . S
C350 O348 1.248 . S
C351 O352 1.264 . S
C351 O359 1.249 . S
O352 C351 1.264 . S
O353 Mg346 1.986 . S
O353 C357 1.246 . S
O354 Mg349 2.032 . S
O354 C357 1.259 . S
O355 Mg346 2.114 . S
O355 C358 1.252 . S
O356 Mg346 2.251 . S
O356 Mg349 2.079 . S
O356 C358 1.273 . S
C357 O353 1.246 . S
C357 O354 1.259 . S
C358 O355 1.252 . S
C358 O356 1.273 . S
O359 Mg346 2.010 . S
O359 C351 1.249 . S
C360 C361 1.387 . S
C360 H364 0.950 . S
C360 C369 1.390 . S
C361 C360 1.387 . S
C361 C363 1.387 . S
H362 C369 0.950 . S
C363 C361 1.387 . S
C363 C365 1.390 . S
C363 H367 0.950 . S
H364 C360 0.950 . S
C365 C363 1.390 . S
C365 C366 1.387 . S
C365 H368 0.950 . S
C366 C365 1.387 . S
C366 C369 1.387 . S
H367 C363 0.950 . S
H368 C365 0.950 . S
C369 C360 1.390 . S
C369 H362 0.950 . S
C369 C366 1.387 . S
C370 C371 1.387 . S
C370 H374 0.950 . S
C370 C379 1.390 . S
C371 C370 1.387 . S
C371 C373 1.387 . S
H372 C379 0.950 . S
C373 C371 1.387 . S
C373 C375 1.390 . S
C373 H377 0.950 . S
H374 C370 0.950 . S
C375 C373 1.390 . S
C375 C376 1.387 . S
C375 H378 0.950 . S
C376 C375 1.387 . S
C376 C379 1.387 . S
H377 C373 0.950 . S
H378 C375 0.950 . S
C379 C370 1.390 . S
C379 H372 0.950 . S
C379 C376 1.387 . S
C380 C381 1.387 . S
C380 H384 0.950 . S
C380 C389 1.390 . S
C381 C380 1.387 . S
C381 C383 1.387 . S
H382 C389 0.950 . S
C383 C381 1.387 . S
C383 C385 1.390 . S
C383 H387 0.950 . S
H384 C380 0.950 . S
C385 C383 1.390 . S
C385 C386 1.387 . S
C385 H388 0.950 . S
C386 C385 1.387 . S
C386 C389 1.387 . S
H387 C383 0.950 . S
H388 C385 0.950 . S
C389 C380 1.390 . S
C389 H382 0.950 . S
C389 C386 1.387 . S
C390 C391 1.387 . S
C390 H394 0.950 . S
C390 C399 1.390 . S
C391 C390 1.387 . S
C391 C393 1.387 1_545 S
H392 C399 0.950 1_655 S
C393 C391 1.387 1_565 S
C393 C395 1.390 . S
C393 H397 0.950 . S
H394 C390 0.950 . S
C395 C393 1.390 . S
C395 C396 1.392 1_565 S
C395 H398 0.950 . S
C396 C395 1.392 1_545 S
C396 C399 1.387 . S
H397 C393 0.950 . S
H398 C395 0.950 . S
C399 C390 1.390 . S
C399 H392 0.950 1_455 S
C399 C396 1.387 . S
C400 C401 1.387 . S
C400 H404 0.950 . S
C400 C409 1.390 . S
C401 C400 1.387 . S
C401 C403 1.387 . S
H402 C409 0.950 . S
C403 C401 1.387 . S
C403 C405 1.390 . S
C403 H407 0.950 . S
H404 C400 0.950 . S
C405 C403 1.390 . S
C405 C406 1.387 . S
C405 H408 0.950 . S
C406 C405 1.387 . S
C406 C409 1.387 . S
H407 C403 0.950 . S
H408 C405 0.950 . S
C409 C400 1.390 . S
C409 H402 0.950 . S
C409 C406 1.387 . S
C410 C411 1.387 . S
C410 H414 0.950 . S
C410 C419 1.390 . S
C411 C410 1.387 . S
C411 C413 1.387 . S
H412 C419 0.950 . S
C413 C411 1.387 . S
C413 C415 1.390 . S
C413 H417 0.950 . S
H414 C410 0.950 . S
C415 C413 1.390 . S
C415 C416 1.387 . S
C415 H418 0.950 . S
C416 C415 1.387 . S
C416 C419 1.387 . S
H417 C413 0.950 . S
H418 C415 0.950 . S
C419 C410 1.390 . S
C419 H412 0.950 . S
C419 C416 1.387 . S
C420 C421 1.387 . S
C420 H424 0.950 . S
C420 C429 1.390 . S
C421 C420 1.387 . S
C421 C423 1.387 . S
H422 C429 0.950 . S
C423 C421 1.387 . S
C423 C425 1.390 . S
C423 H427 0.950 . S
H424 C420 0.950 . S
C425 C423 1.390 . S
C425 C426 1.387 . S
C425 H428 0.950 . S
C426 C425 1.387 . S
C426 C429 1.387 . S
H427 C423 0.950 . S
H428 C425 0.950 . S
C429 C420 1.390 . S
C429 H422 0.950 . S
C429 C426 1.387 . S
C430 C431 1.387 1_545 S
C430 H434 0.950 . S
C430 C439 1.390 . S
C431 C430 1.387 1_565 S
C431 C433 1.387 . S
H432 C439 0.950 . S
C433 C431 1.387 . S
C433 C435 1.390 . S
C433 H437 0.950 . S
H434 C430 0.950 . S
C435 C433 1.390 . S
C435 C436 1.387 . S
C435 H438 0.950 . S
C436 C435 1.387 . S
C436 C439 1.387 1_565 S
H437 C433 0.950 . S
H438 C435 0.950 . S
C439 C430 1.390 . S
C439 H432 0.950 . S
C439 C436 1.387 1_545 S
C440 C441 1.387 . S
C440 H444 0.950 . S
C440 C449 1.390 . S
C441 C440 1.387 . S
C441 C443 1.387 . S
H442 C449 0.950 . S
C443 C441 1.387 . S
C443 C445 1.390 . S
C443 H447 0.950 . S
H444 C440 0.950 . S
C445 C443 1.390 . S
C445 C446 1.387 . S
C445 H448 0.950 . S
C446 C445 1.387 . S
C446 C449 1.387 . S
H447 C443 0.950 . S
H448 C445 0.950 . S
C449 C440 1.390 . S
C449 H442 0.950 . S
C449 C446 1.387 . S
C450 C451 1.387 . S
C450 H454 0.950 . S
C450 C459 1.390 . S
C451 C450 1.387 . S
C451 C453 1.387 . S
H452 C459 0.950 . S
C453 C451 1.387 . S
C453 C455 1.390 . S
C453 H457 0.950 . S
H454 C450 0.950 . S
C455 C453 1.390 . S
C455 C456 1.387 . S
C455 H458 0.950 . S
C456 C455 1.387 . S
C456 C459 1.387 . S
H457 C453 0.950 . S
H458 C455 0.950 . S
C459 C450 1.390 . S
C459 H452 0.950 . S
C459 C456 1.387 . S
C460 C461 1.387 . S
C460 H464 0.950 . S
C460 C469 1.390 . S
C461 C460 1.387 . S
C461 C463 1.387 . S
H462 C469 0.950 . S
C463 C461 1.387 . S
C463 C465 1.390 . S
C463 H467 0.950 . S
H464 C460 0.950 . S
C465 C463 1.390 . S
C465 C466 1.387 . S
C465 H468 0.950 . S
C466 C465 1.387 . S
C466 C469 1.387 . S
H467 C463 0.950 . S
H468 C465 0.950 . S
C469 C460 1.390 . S
C469 H462 0.950 . S
C469 C466 1.387 . S
C470 C471 1.387 . S
C470 H474 0.950 . S
C470 C479 1.390 . S
C471 C470 1.387 . S
C471 C473 1.387 . S
H472 C479 0.950 . S
C473 C471 1.387 . S
C473 C475 1.390 . S
C473 H477 0.950 . S
H474 C470 0.950 . S
C475 C473 1.390 . S
C475 C476 1.387 . S
C475 H478 0.950 . S
C476 C475 1.387 . S
C476 C479 1.387 . S
H477 C473 0.950 . S
H478 C475 0.950 . S
C479 C470 1.390 . S
C479 H472 0.950 . S
C479 C476 1.387 . S
C480 C481 1.387 . S
C480 H484 0.950 . S
C480 C489 1.390 . S
C481 C480 1.387 . S
C481 C483 1.387 . S
H482 C489 0.950 . S
C483 C481 1.387 . S
C483 C485 1.390 . S
C483 H487 0.950 . S
H484 C480 0.950 . S
C485 C483 1.390 . S
C485 C486 1.387 . S
C485 H488 0.950 . S
C486 C485 1.387 . S
C486 C489 1.387 . S
H487 C483 0.950 . S
H488 C485 0.950 . S
C489 C480 1.390 . S
C489 H482 0.950 . S
C489 C486 1.387 . S
C490 C491 1.387 . S
C490 H494 0.950 . S
C490 C499 1.390 . S
C491 C490 1.387 . S
C491 C493 1.387 . S
H492 C499 0.950 . S
C493 C491 1.387 . S
C493 C495 1.390 . S
C493 H497 0.950 . S
H494 C490 0.950 . S
C495 C493 1.390 . S
C495 C496 1.387 . S
C495 H498 0.950 . S
C496 C495 1.387 . S
C496 C499 1.387 . S
H497 C493 0.950 . S
H498 C495 0.950 . S
C499 C490 1.390 . S
C499 H492 0.950 . S
C499 C496 1.387 . S
C500 C501 1.387 . S
C500 H504 0.950 . S
C500 C509 1.390 . S
C501 C500 1.387 . S
C501 C503 1.387 . S
H502 C509 0.950 . S
C503 C501 1.387 . S
C503 C505 1.390 . S
C503 H507 0.950 . S
H504 C500 0.950 . S
C505 C503 1.390 . S
C505 C506 1.387 . S
C505 H508 0.950 . S
C506 C505 1.387 . S
C506 C509 1.387 . S
H507 C503 0.950 . S
H508 C505 0.950 . S
C509 C500 1.390 . S
C509 H502 0.950 . S
C509 C506 1.387 . S
C510 C511 1.387 . S
C510 H514 0.950 . S
C510 C519 1.390 . S
C511 C510 1.387 . S
C511 C513 1.387 1_655 S
H512 C519 0.950 . S
C513 C511 1.387 1_455 S
C513 C515 1.390 . S
C513 H517 0.950 . S
H514 C510 0.950 . S
C515 C513 1.390 . S
C515 C516 1.387 1_455 S
C515 H518 0.950 . S
C516 C515 1.387 1_655 S
C516 C519 1.387 . S
H517 C513 0.950 . S
H518 C515 0.950 . S
C519 C510 1.390 . S
C519 H512 0.950 . S
C519 C516 1.387 . S
C520 C521 1.387 . S
C520 H524 0.950 . S
C520 C529 1.390 . S
C521 C520 1.387 . S
C521 C523 1.387 . S
H522 C529 0.950 . S
C523 C521 1.387 . S
C523 C525 1.390 . S
C523 H527 0.950 . S
H524 C520 0.950 . S
C525 C523 1.390 . S
C525 C526 1.387 . S
C525 H528 0.950 . S
C526 C525 1.387 . S
C526 C529 1.387 . S
H527 C523 0.950 . S
H528 C525 0.950 . S
C529 C520 1.390 . S
C529 H522 0.950 . S
C529 C526 1.387 . S
C530 C531 1.387 . S
C530 H534 0.950 . S
C530 C539 1.390 . S
C531 C530 1.387 . S
C531 C533 1.387 . S
H532 C539 0.950 . S
C533 C531 1.387 . S
C533 C535 1.390 . S
C533 H537 0.950 . S
H534 C530 0.950 . S
C535 C533 1.390 . S
C535 C536 1.387 . S
C535 H538 0.950 . S
C536 C535 1.387 . S
C536 C539 1.387 . S
H537 C533 0.950 . S
H538 C535 0.950 . S
C539 C530 1.390 . S
C539 H532 0.950 . S
C539 C536 1.387 . S
C540 C541 1.387 . S
C540 H544 0.950 . S
C540 C549 1.390 . S
C541 C540 1.387 . S
C541 C543 1.387 1_556 S
H542 C549 0.950 . S
C543 C541 1.387 1_554 S
C543 C545 1.390 . S
C543 H547 0.950 1_565 S
H544 C540 0.950 . S
C545 C543 1.390 . S
C545 C546 1.387 . S
C545 H548 0.950 . S
C546 C545 1.387 . S
C546 C549 1.387 1_554 S
H547 C543 0.950 1_545 S
H548 C545 0.950 . S
C549 C540 1.390 . S
C549 H542 0.950 . S
C549 C546 1.387 1_556 S
C550 C551 1.387 . S
C550 H554 0.950 . S
C550 C559 1.390 . S
C551 C550 1.387 . S
C551 C553 1.387 . S
H552 C559 0.950 . S
C553 C551 1.387 . S
C553 C555 1.390 . S
C553 H557 0.950 . S
H554 C550 0.950 . S
C555 C553 1.390 . S
C555 C556 1.387 . S
C555 H558 0.950 . S
C556 C555 1.387 . S
C556 C559 1.387 . S
H557 C553 0.950 . S
H558 C555 0.950 . S
C559 C550 1.390 . S
C559 H552 0.950 . S
C559 C556 1.387 . S
C560 C561 1.387 . S
C560 H564 0.950 . S
C560 C569 1.390 . S
C561 C560 1.387 . S
C561 C563 1.387 . S
H562 C569 0.950 . S
C563 C561 1.387 . S
C563 C565 1.390 . S
C563 H567 0.950 . S
H564 C560 0.950 . S
C565 C563 1.390 . S
C565 C566 1.387 . S
C565 H568 0.950 . S
C566 C565 1.387 . S
C566 C569 1.387 . S
H567 C563 0.950 . S
H568 C565 0.950 . S
C569 C560 1.390 . S
C569 H562 0.950 . S
C569 C566 1.387 . S
C570 C571 1.387 . S
C570 H574 0.950 . S
C570 C579 1.390 . S
C571 C570 1.387 . S
C571 C573 1.387 . S
H572 C579 0.950 . S
C573 C571 1.387 . S
C573 C575 1.390 . S
C573 H577 0.950 . S
H574 C570 0.950 . S
C575 C573 1.390 . S
C575 C576 1.387 . S
C575 H578 0.950 . S
C576 C575 1.387 . S
C576 C579 1.387 . S
H577 C573 0.950 . S
H578 C575 0.950 . S
C579 C570 1.390 . S
C579 H572 0.950 . S
C579 C576 1.387 . S
C580 C581 1.387 . S
C580 H584 0.950 . S
C580 C589 1.390 . S
C581 C580 1.387 . S
C581 C583 1.387 . S
H582 C589 0.950 . S
C583 C581 1.387 . S
C583 C585 1.390 . S
C583 H587 0.950 . S
H584 C580 0.950 . S
C585 C583 1.390 . S
C585 C586 1.387 . S
C585 H588 0.950 . S
C586 C585 1.387 . S
C586 C589 1.387 . S
H587 C583 0.950 . S
H588 C585 0.950 . S
C589 C580 1.390 . S
C589 H582 0.950 . S
C589 C586 1.387 . S
C590 C591 1.387 . S
C590 H594 0.950 . S
C590 C599 1.390 . S
C591 C590 1.387 . S
C591 C593 1.387 . S
H592 C599 0.950 . S
C593 C591 1.387 . S
C593 C595 1.390 . S
C593 H597 0.950 . S
H594 C590 0.950 . S
C595 C593 1.390 . S
C595 C596 1.387 . S
C595 H598 0.950 . S
C596 C595 1.387 . S
C596 C599 1.387 . S
H597 C593 0.950 . S
H598 C595 0.950 . S
C599 C590 1.390 . S
C599 H592 0.950 . S
C599 C596 1.387 . S
C600 C601 1.387 . S
C600 H604 0.950 . S
C600 C609 1.390 . S
C601 C600 1.387 . S
C601 C603 1.387 . S
H602 C609 0.950 . S
C603 C601 1.387 . S
C603 C605 1.390 . S
C603 H607 0.950 . S
H604 C600 0.950 . S
C605 C603 1.390 . S
C605 C606 1.387 . S
C605 H608 0.950 . S
C606 C605 1.387 . S
C606 C609 1.387 . S
H607 C603 0.950 . S
H608 C605 0.950 . S
C609 C600 1.390 . S
C609 H602 0.950 . S
C609 C606 1.387 . S
C610 C611 1.387 . S
C610 H614 0.950 . S
C610 C619 1.390 . S
C611 C610 1.387 . S
C611 C613 1.387 1_545 S
H612 C619 0.950 . S
C613 C611 1.387 1_565 S
C613 C615 1.390 . S
C613 H617 0.950 . S
H614 C610 0.950 . S
C615 C613 1.390 . S
C615 C616 1.387 1_565 S
C615 H618 0.950 . S
C616 C615 1.387 1_545 S
C616 C619 1.387 . S
H617 C613 0.950 . S
H618 C615 0.950 . S
C619 C610 1.390 . S
C619 H612 0.950 . S
C619 C616 1.387 . S
C620 C621 1.387 . S
C620 H624 0.950 . S
C620 C629 1.390 . S
C621 C620 1.387 . S
C621 C623 1.387 . S
H622 C629 0.950 . S
C623 C621 1.387 . S
C623 C625 1.390 . S
C623 H627 0.950 . S
H624 C620 0.950 . S
C625 C623 1.390 . S
C625 C626 1.387 . S
C625 H628 0.950 . S
C626 C625 1.387 . S
C626 C629 1.387 . S
H627 C623 0.950 . S
H628 C625 0.950 . S
C629 C620 1.390 . S
C629 H622 0.950 . S
C629 C626 1.387 . S
C630 C631 1.387 . S
C630 H634 0.950 . S
C630 C639 1.390 . S
C631 C630 1.387 . S
C631 C633 1.387 . S
H632 C639 0.950 . S
C633 C631 1.387 . S
C633 C635 1.390 . S
C633 H637 0.950 . S
H634 C630 0.950 . S
C635 C633 1.390 . S
C635 C636 1.387 . S
C635 H638 0.950 . S
C636 C635 1.387 . S
C636 C639 1.387 . S
H637 C633 0.950 . S
H638 C635 0.950 . S
C639 C630 1.390 . S
C639 H632 0.950 . S
C639 C636 1.387 . S
C640 C641 1.387 . S
C640 H644 0.950 . S
C640 C649 1.390 . S
C641 C640 1.387 . S
C641 C643 1.387 . S
H642 C649 0.950 . S
C643 C641 1.387 . S
C643 C645 1.390 . S
C643 H647 0.950 . S
H644 C640 0.950 . S
C645 C643 1.390 . S
C645 C646 1.387 . S
C645 H648 0.950 . S
C646 C645 1.387 . S
C646 C649 1.387 . S
H647 C643 0.950 . S
H648 C645 0.950 . S
C649 C640 1.390 . S
C649 H642 0.950 . S
C649 C646 1.387 . S
C650 C651 1.387 . S
C650 H654 0.950 . S
C650 C659 1.390 1_455 S
C651 C650 1.387 . S
C651 C653 1.381 1_545 S
H652 C659 0.950 . S
C653 C651 1.381 1_565 S
C653 C655 1.389 1_465 S
C653 H657 0.958 . S
H654 C650 0.950 . S
C655 C653 1.389 1_645 S
C655 C656 1.387 . S
C655 H658 0.950 1_545 S
C656 C655 1.387 . S
C656 C659 1.387 . S
H657 C653 0.958 . S
H658 C655 0.950 1_565 S
C659 C650 1.390 1_655 S
C659 H652 0.950 . S
C659 C656 1.387 . S
C660 C661 1.387 . S
C660 H664 0.950 . S
C660 C669 1.390 . S
C661 C660 1.387 . S
C661 C663 1.387 . S
H662 C669 0.950 . S
C663 C661 1.387 . S
C663 C665 1.390 . S
C663 H667 0.950 . S
H664 C660 0.950 . S
C665 C663 1.390 . S
C665 C666 1.387 . S
C665 H668 0.950 . S
C666 C665 1.387 . S
C666 C669 1.387 . S
H667 C663 0.950 . S
H668 C665 0.950 . S
C669 C660 1.390 . S
C669 H662 0.950 . S
C669 C666 1.387 . S
C670 C671 1.387 . S
C670 H674 0.950 . S
C670 C679 1.390 . S
C671 C670 1.387 . S
C671 C673 1.387 . S
H672 C679 0.950 . S
C673 C671 1.387 . S
C673 C675 1.390 . S
C673 H677 0.950 . S
H674 C670 0.950 . S
C675 C673 1.390 . S
C675 C676 1.387 . S
C675 H678 0.950 . S
C676 C675 1.387 . S
C676 C679 1.387 . S
H677 C673 0.950 . S
H678 C675 0.950 . S
C679 C670 1.390 . S
C679 H672 0.950 . S
C679 C676 1.387 . S
C680 C681 1.387 . S
C680 H684 0.950 . S
C680 C689 1.390 . S
C681 C680 1.387 . S
C681 C683 1.387 . S
H682 C689 0.950 . S
C683 C681 1.387 . S
C683 C685 1.390 . S
C683 H687 0.950 . S
H684 C680 0.950 . S
C685 C683 1.390 . S
C685 C686 1.387 . S
C685 H688 0.950 . S
C686 C685 1.387 . S
C686 C689 1.387 . S
H687 C683 0.950 . S
H688 C685 0.950 . S
C689 C680 1.390 . S
C689 H682 0.950 . S
C689 C686 1.387 . S
C690 C691 1.387 1_455 S
C690 H694 0.950 . S
C690 C699 1.390 . S
C691 C690 1.387 1_655 S
C691 C693 1.387 . S
H692 C699 0.950 . S
C693 C691 1.387 . S
C693 C695 1.390 . S
C693 H697 0.950 . S
H694 C690 0.950 . S
C695 C693 1.390 . S
C695 C696 1.398 . S
C695 H698 0.950 . S
C696 C695 1.398 . S
C696 C699 1.380 1_655 S
H697 C693 0.950 . S
H698 C695 0.950 . S
C699 C690 1.390 . S
C699 H692 0.950 . S
C699 C696 1.380 1_455 S
C700 C701 1.387 . S
C700 H704 0.950 . S
C700 C709 1.390 . S
C701 C700 1.387 . S
C701 C703 1.387 . S
H702 C709 0.950 . S
C703 C701 1.387 . S
C703 C705 1.390 . S
C703 H707 0.950 . S
H704 C700 0.950 . S
C705 C703 1.390 . S
C705 C706 1.387 . S
C705 H708 0.950 . S
C706 C705 1.387 . S
C706 C709 1.387 . S
H707 C703 0.950 . S
H708 C705 0.950 . S
C709 C700 1.390 . S
C709 H702 0.950 . S
C709 C706 1.387 . S
C710 C711 1.387 . S
C710 H714 0.950 . S
C710 C719 1.390 . S
C711 C710 1.387 . S
C711 C713 1.387 . S
H712 C719 0.950 . S
C713 C711 1.387 . S
C713 C715 1.390 . S
C713 H717 0.950 . S
H714 C710 0.950 . S
C715 C713 1.390 . S
C715 C716 1.387 . S
C715 H718 0.950 1_455 S
C716 C715 1.387 . S
C716 C719 1.387 . S
H717 C713 0.950 . S
H718 C715 0.950 1_655 S
C719 C710 1.390 . S
C719 H712 0.950 . S
C719 C716 1.387 . S
C720 C721 1.387 . S
C720 H724 0.950 . S
C720 C729 1.390 . S
C721 C720 1.387 . S
C721 C723 1.387 . S
H722 C729 0.950 . S
C723 C721 1.387 . S
C723 C725 1.390 . S
C723 H727 0.950 . S
H724 C720 0.950 . S
C725 C723 1.390 . S
C725 C726 1.387 . S
C725 H728 0.950 . S
C726 C725 1.387 . S
C726 C729 1.387 . S
H727 C723 0.950 . S
H728 C725 0.950 . S
C729 C720 1.390 . S
C729 H722 0.950 . S
C729 C726 1.387 . S
C730 C731 1.387 . S
C730 H734 0.950 . S
C730 C739 1.390 . S
C731 C730 1.387 . S
C731 C733 1.387 . S
H732 C739 0.950 . S
C733 C731 1.387 . S
C733 C735 1.390 . S
C733 H737 0.950 1_554 S
H734 C730 0.950 . S
C735 C733 1.390 . S
C735 C736 1.387 . S
C735 H738 0.950 . S
C736 C735 1.387 . S
C736 C739 1.387 . S
H737 C733 0.950 1_556 S
H738 C735 0.950 . S
C739 C730 1.390 . S
C739 H732 0.950 . S
C739 C736 1.387 . S
C740 C741 1.387 . S
C740 H744 0.950 . S
C740 C749 1.390 . S
C741 C740 1.387 . S
C741 C743 1.387 . S
H742 C749 0.950 . S
C743 C741 1.387 . S
C743 C745 1.390 . S
C743 H747 0.950 . S
H744 C740 0.950 . S
C745 C743 1.390 . S
C745 C746 1.387 . S
C745 H748 0.950 . S
C746 C745 1.387 . S
C746 C749 1.387 . S
H747 C743 0.950 . S
H748 C745 0.950 . S
C749 C740 1.390 . S
C749 H742 0.950 . S
C749 C746 1.387 . S
C750 C751 1.387 . S
C750 H754 0.950 . S
C750 C759 1.390 . S
C751 C750 1.387 . S
C751 C753 1.387 . S
H752 C759 0.950 . S
C753 C751 1.387 . S
C753 C755 1.390 . S
C753 H757 0.950 . S
H754 C750 0.950 . S
C755 C753 1.390 . S
C755 C756 1.387 . S
C755 H758 0.950 . S
C756 C755 1.387 . S
C756 C759 1.387 . S
H757 C753 0.950 . S
H758 C755 0.950 . S
C759 C750 1.390 . S
C759 H752 0.950 . S
C759 C756 1.387 . S
C760 C761 1.387 . S
C760 H764 0.950 . S
C760 C769 1.390 . S
C761 C760 1.387 . S
C761 C763 1.387 . S
H762 C769 0.950 . S
C763 C761 1.387 . S
C763 C765 1.390 . S
C763 H767 0.950 . S
H764 C760 0.950 . S
C765 C763 1.390 . S
C765 C766 1.387 . S
C765 H768 0.950 . S
C766 C765 1.387 . S
C766 C769 1.387 . S
H767 C763 0.950 . S
H768 C765 0.950 . S
C769 C760 1.390 . S
C769 H762 0.950 . S
C769 C766 1.387 . S
C770 C771 1.387 . S
C770 H774 0.950 . S
C770 C779 1.390 . S
C771 C770 1.387 . S
C771 C773 1.387 . S
H772 C779 0.950 . S
C773 C771 1.387 . S
C773 C775 1.390 . S
C773 H777 0.950 . S
H774 C770 0.950 . S
C775 C773 1.390 . S
C775 C776 1.387 . S
C775 H778 0.950 . S
C776 C775 1.387 . S
C776 C779 1.387 . S
H777 C773 0.950 . S
H778 C775 0.950 . S
C779 C770 1.390 . S
C779 H772 0.950 . S
C779 C776 1.387 . S
C780 C781 1.387 . S
C780 H784 0.950 . S
C780 C789 1.390 . S
C781 C780 1.387 . S
C781 C783 1.387 . S
H782 C789 0.950 . S
C783 C781 1.387 . S
C783 C785 1.390 . S
C783 H787 0.950 . S
H784 C780 0.950 . S
C785 C783 1.390 . S
C785 C786 1.387 . S
C785 H788 0.950 . S
C786 C785 1.387 . S
C786 C789 1.387 . S
H787 C783 0.950 . S
H788 C785 0.950 . S
C789 C780 1.390 . S
C789 H782 0.950 . S
C789 C786 1.387 . S
C790 C791 1.387 . S
C790 H794 0.950 . S
C790 C799 1.390 . S
C791 C790 1.387 . S
C791 C793 1.387 . S
H792 C799 0.950 . S
C793 C791 1.387 . S
C793 C795 1.390 . S
C793 H797 0.950 . S
H794 C790 0.950 . S
C795 C793 1.390 . S
C795 C796 1.387 . S
C795 H798 0.950 . S
C796 C795 1.387 . S
C796 C799 1.387 . S
H797 C793 0.950 . S
H798 C795 0.950 . S
C799 C790 1.390 . S
C799 H792 0.950 . S
C799 C796 1.387 . S
C800 C801 1.387 1_554 S
C800 H804 0.950 . S
C800 C809 1.390 . S
C801 C800 1.387 1_556 S
C801 C803 1.387 . S
H802 C809 0.950 . S
C803 C801 1.387 . S
C803 C805 1.390 . S
C803 H807 0.950 . S
H804 C800 0.950 . S
C805 C803 1.390 . S
C805 C806 1.387 . S
C805 H808 0.950 . S
C806 C805 1.387 . S
C806 C809 1.387 1_556 S
H807 C803 0.950 . S
H808 C805 0.950 . S
C809 C800 1.390 . S
C809 H802 0.950 . S
C809 C806 1.387 1_554 S
C810 C811 1.387 . S
C810 H814 0.950 . S
C810 C819 1.390 . S
C811 C810 1.387 . S
C811 C813 1.387 . S
H812 C819 0.950 . S
C813 C811 1.387 . S
C813 C815 1.390 . S
C813 H817 0.950 . S
H814 C810 0.950 . S
C815 C813 1.390 . S
C815 C816 1.387 . S
C815 H818 0.950 . S
C816 C815 1.387 . S
C816 C819 1.387 . S
H817 C813 0.950 . S
H818 C815 0.950 . S
C819 C810 1.390 . S
C819 H812 0.950 . S
C819 C816 1.387 . S
C820 C821 1.387 . S
C820 H824 0.950 1_554 S
C820 C829 1.390 . S
C821 C820 1.387 . S
C821 C823 1.387 . S
H822 C829 0.950 1_556 S
C823 C821 1.387 . S
C823 C825 1.390 . S
C823 H827 0.950 . S
H824 C820 0.950 1_556 S
C825 C823 1.390 . S
C825 C826 1.387 . S
C825 H828 0.950 . S
C826 C825 1.387 . S
C826 C829 1.387 . S
H827 C823 0.950 . S
H828 C825 0.950 . S
C829 C820 1.390 . S
C829 H822 0.950 1_554 S
C829 C826 1.387 . S
C830 C831 1.387 . S
C830 H834 0.950 . S
C830 C839 1.390 . S
C831 C830 1.387 . S
C831 C833 1.387 1_554 S
H832 C839 0.950 . S
C833 C831 1.387 1_556 S
C833 C835 1.390 . S
C833 H837 0.950 . S
H834 C830 0.950 . S
C835 C833 1.390 . S
C835 C836 1.387 1_556 S
C835 H838 0.950 . S
C836 C835 1.387 1_554 S
C836 C839 1.387 . S
H837 C833 0.950 . S
H838 C835 0.950 . S
C839 C830 1.390 . S
C839 H832 0.950 . S
C839 C836 1.387 . S
C366 C203 1.658 . S
C361 C66 1.702 . S
C376 C211 1.065 . S
C371 C76 1.296 . S
C381 C93 1.738 . S
C386 C231 1.702 . S
C396 C245 1.481 1_455 S
C391 C54 1.506 . S
C406 C260 1.512 . S
C401 C126 1.513 . S
C416 C274 1.802 . S
C411 C150 1.804 . S
C421 C136 1.318 . S
C426 C288 1.324 . S
C436 C294 1.669 . S
C431 C117 1.740 . S
C441 C141 1.364 . S
C446 C308 1.338 . S
C456 C329 1.381 . S
C451 C112 1.404 . S
C461 C124 1.480 . S
C466 C309 1.249 . S
C476 C330 1.359 . S
C471 C148 1.352 . S
C481 C88 1.344 . S
C486 C337 1.174 . S
C491 C52 1.565 . S
C496 C343 1.538 . S
C501 C64 1.330 . S
C506 C336 1.286 . S
C511 C78 1.260 . S
C516 C344 1.268 . S
C521 C45 1.672 . S
C526 C238 1.644 . S
C531 C177 1.804 . S
C536 C239 1.597 . S
C546 C196 1.396 . S
C541 C189 1.436 1_565 S
C556 C217 1.568 . S
C551 C102 1.573 . S
C561 C57 1.672 . S
C566 C252 1.664 . S
C576 C302 1.488 . S
C571 C138 1.488 . S
C586 C253 1.509 . S
C581 C114 1.694 . S
C596 C281 1.386 . S
C591 C153 1.730 . S
C606 C287 1.656 . S
C601 C174 1.701 . S
C611 C184 1.295 . S
C616 C295 1.057 . S
C621 C105 1.739 . S
C626 C259 1.702 . S
C636 C273 1.483 . S
C631 C162 1.506 . S
C641 C42 1.513 . S
C646 C232 1.512 . S
C656 C246 1.802 . S
C651 C6 1.804 . S
C666 C204 1.323 . S
C661 C16 1.317 . S
C676 C210 1.669 . S
C671 C33 1.726 1_455 S
C681 C21 1.364 . S
C686 C322 1.335 . S
C691 C28 1.404 1_556 S
C696 C315 1.381 . S
C701 C40 1.480 . S
C706 C323 1.249 . S
C711 C4 1.352 . S
C716 C316 1.359 . S
C726 C351 1.173 . S
C721 C100 1.344 . S
C736 C357 1.539 . S
C731 C160 1.565 . S
C746 C350 1.291 . S
C741 C172 1.330 . S
C751 C186 1.260 . S
C756 C358 1.268 . S
C761 C129 1.672 . S
C766 C266 1.646 . S
C776 C267 1.600 . S
C771 C69 1.804 . S
C786 C280 1.398 . S
C781 C81 1.437 . S
C796 C301 1.567 . S
C791 C90 1.573 . S
C801 C165 1.672 . S
C806 C224 1.664 . S
C816 C218 1.488 . S
C811 C18 1.488 . S
C821 C30 1.694 . S
C826 C225 1.513 . S
C836 C197 1.386 . S
C831 C9 1.730 1_565 S
