# Generated by pormake.
# Topology eea, (3,6)-cn, num edge types: 1
# Building blocks:
#     Node 0, Type 0, BuildingBlock: ESEHIV_clean_linker_0, # of connection points: 3
#     Node 1, Type 0, BuildingBlock: ESEHIV_clean_linker_0, # of connection points: 3
#     Node 2, Type 0, BuildingBlock: ESEHIV_clean_linker_0, # of connection points: 3
#     Node 3, Type 0, BuildingBlock: ESEHIV_clean_linker_0, # of connection points: 3
#     Node 4, Type 0, BuildingBlock: ESEHIV_clean_linker_0, # of connection points: 3
#     Node 5, Type 0, BuildingBlock: ESEHIV_clean_linker_0, # of connection points: 3
#     Node 6, Type 0, BuildingBlock: ESEHIV_clean_linker_0, # of connection points: 3
#     Node 7, Type 0, BuildingBlock: ESEHIV_clean_linker_0, # of connection points: 3
#     Node 8, Type 0, BuildingBlock: ESEHIV_clean_linker_0, # of connection points: 3
#     Node 9, Type 0, BuildingBlock: ESEHIV_clean_linker_0, # of connection points: 3
#     Node 10, Type 0, BuildingBlock: ESEHIV_clean_linker_0, # of connection points: 3
#     Node 11, Type 0, BuildingBlock: ESEHIV_clean_linker_0, # of connection points: 3
#     Node 12, Type 0, BuildingBlock: ESEHIV_clean_linker_0, # of connection points: 3
#     Node 13, Type 0, BuildingBlock: ESEHIV_clean_linker_0, # of connection points: 3
#     Node 14, Type 0, BuildingBlock: ESEHIV_clean_linker_0, # of connection points: 3
#     Node 15, Type 0, BuildingBlock: ESEHIV_clean_linker_0, # of connection points: 3
#     Node 16, Type 0, BuildingBlock: ESEHIV_clean_linker_0, # of connection points: 3
#     Node 17, Type 0, BuildingBlock: ESEHIV_clean_linker_0, # of connection points: 3
#     Node 18, Type 1, BuildingBlock: NUHQIS_clean_sbu_0, # of connection points: 6
#     Node 19, Type 1, BuildingBlock: NUHQIS_clean_sbu_0, # of connection points: 6
#     Node 20, Type 1, BuildingBlock: NUHQIS_clean_sbu_0, # of connection points: 6
#     Node 21, Type 1, BuildingBlock: NUHQIS_clean_sbu_0, # of connection points: 6
#     Node 22, Type 1, BuildingBlock: NUHQIS_clean_sbu_0, # of connection points: 6
#     Node 23, Type 1, BuildingBlock: NUHQIS_clean_sbu_0, # of connection points: 6
#     Node 24, Type 1, BuildingBlock: NUHQIS_clean_sbu_0, # of connection points: 6
#     Node 25, Type 1, BuildingBlock: NUHQIS_clean_sbu_0, # of connection points: 6
#     Node 26, Type 1, BuildingBlock: NUHQIS_clean_sbu_0, # of connection points: 6
#     Edge 27, Type (0, 1), BuildingBlock: ZUJKAS_clean_linker_0, # of connection points: 2
#     Edge 28, Type (0, 1), BuildingBlock: ZUJKAS_clean_linker_0, # of connection points: 2
#     Edge 29, Type (0, 1), BuildingBlock: ZUJKAS_clean_linker_0, # of connection points: 2
#     Edge 30, Type (0, 1), BuildingBlock: ZUJKAS_clean_linker_0, # of connection points: 2
#     Edge 31, Type (0, 1), BuildingBlock: ZUJKAS_clean_linker_0, # of connection points: 2
#     Edge 32, Type (0, 1), BuildingBlock: ZUJKAS_clean_linker_0, # of connection points: 2
#     Edge 33, Type (0, 1), BuildingBlock: ZUJKAS_clean_linker_0, # of connection points: 2
#     Edge 34, Type (0, 1), BuildingBlock: ZUJKAS_clean_linker_0, # of connection points: 2
#     Edge 35, Type (0, 1), BuildingBlock: ZUJKAS_clean_linker_0, # of connection points: 2
#     Edge 36, Type (0, 1), BuildingBlock: ZUJKAS_clean_linker_0, # of connection points: 2
#     Edge 37, Type (0, 1), BuildingBlock: ZUJKAS_clean_linker_0, # of connection points: 2
#     Edge 38, Type (0, 1), BuildingBlock: ZUJKAS_clean_linker_0, # of connection points: 2
#     Edge 39, Type (0, 1), BuildingBlock: ZUJKAS_clean_linker_0, # of connection points: 2
#     Edge 40, Type (0, 1), BuildingBlock: ZUJKAS_clean_linker_0, # of connection points: 2
#     Edge 41, Type (0, 1), BuildingBlock: ZUJKAS_clean_linker_0, # of connection points: 2
#     Edge 42, Type (0, 1), BuildingBlock: ZUJKAS_clean_linker_0, # of connection points: 2
#     Edge 43, Type (0, 1), BuildingBlock: ZUJKAS_clean_linker_0, # of connection points: 2
#     Edge 44, Type (0, 1), BuildingBlock: ZUJKAS_clean_linker_0, # of connection points: 2
#     Edge 45, Type (0, 1), BuildingBlock: ZUJKAS_clean_linker_0, # of connection points: 2
#     Edge 46, Type (0, 1), BuildingBlock: ZUJKAS_clean_linker_0, # of connection points: 2
#     Edge 47, Type (0, 1), BuildingBlock: ZUJKAS_clean_linker_0, # of connection points: 2
#     Edge 48, Type (0, 1), BuildingBlock: ZUJKAS_clean_linker_0, # of connection points: 2
#     Edge 49, Type (0, 1), BuildingBlock: ZUJKAS_clean_linker_0, # of connection points: 2
#     Edge 50, Type (0, 1), BuildingBlock: ZUJKAS_clean_linker_0, # of connection points: 2
#     Edge 51, Type (0, 1), BuildingBlock: ZUJKAS_clean_linker_0, # of connection points: 2
#     Edge 52, Type (0, 1), BuildingBlock: ZUJKAS_clean_linker_0, # of connection points: 2
#     Edge 53, Type (0, 1), BuildingBlock: ZUJKAS_clean_linker_0, # of connection points: 2
#     Edge 54, Type (0, 1), BuildingBlock: ZUJKAS_clean_linker_0, # of connection points: 2
#     Edge 55, Type (0, 1), BuildingBlock: ZUJKAS_clean_linker_0, # of connection points: 2
#     Edge 56, Type (0, 1), BuildingBlock: ZUJKAS_clean_linker_0, # of connection points: 2
#     Edge 57, Type (0, 1), BuildingBlock: ZUJKAS_clean_linker_0, # of connection points: 2
#     Edge 58, Type (0, 1), BuildingBlock: ZUJKAS_clean_linker_0, # of connection points: 2
#     Edge 59, Type (0, 1), BuildingBlock: ZUJKAS_clean_linker_0, # of connection points: 2
#     Edge 60, Type (0, 1), BuildingBlock: ZUJKAS_clean_linker_0, # of connection points: 2
#     Edge 61, Type (0, 1), BuildingBlock: ZUJKAS_clean_linker_0, # of connection points: 2
#     Edge 62, Type (0, 1), BuildingBlock: ZUJKAS_clean_linker_0, # of connection points: 2
#     Edge 63, Type (0, 1), BuildingBlock: ZUJKAS_clean_linker_0, # of connection points: 2
#     Edge 64, Type (0, 1), BuildingBlock: ZUJKAS_clean_linker_0, # of connection points: 2
#     Edge 65, Type (0, 1), BuildingBlock: ZUJKAS_clean_linker_0, # of connection points: 2
#     Edge 66, Type (0, 1), BuildingBlock: ZUJKAS_clean_linker_0, # of connection points: 2
#     Edge 67, Type (0, 1), BuildingBlock: ZUJKAS_clean_linker_0, # of connection points: 2
#     Edge 68, Type (0, 1), BuildingBlock: ZUJKAS_clean_linker_0, # of connection points: 2
#     Edge 69, Type (0, 1), BuildingBlock: ZUJKAS_clean_linker_0, # of connection points: 2
#     Edge 70, Type (0, 1), BuildingBlock: ZUJKAS_clean_linker_0, # of connection points: 2
#     Edge 71, Type (0, 1), BuildingBlock: ZUJKAS_clean_linker_0, # of connection points: 2
#     Edge 72, Type (0, 1), BuildingBlock: ZUJKAS_clean_linker_0, # of connection points: 2
#     Edge 73, Type (0, 1), BuildingBlock: ZUJKAS_clean_linker_0, # of connection points: 2
#     Edge 74, Type (0, 1), BuildingBlock: ZUJKAS_clean_linker_0, # of connection points: 2
#     Edge 75, Type (0, 1), BuildingBlock: ZUJKAS_clean_linker_0, # of connection points: 2
#     Edge 76, Type (0, 1), BuildingBlock: ZUJKAS_clean_linker_0, # of connection points: 2
#     Edge 77, Type (0, 1), BuildingBlock: ZUJKAS_clean_linker_0, # of connection points: 2
#     Edge 78, Type (0, 1), BuildingBlock: ZUJKAS_clean_linker_0, # of connection points: 2
#     Edge 79, Type (0, 1), BuildingBlock: ZUJKAS_clean_linker_0, # of connection points: 2
#     Edge 80, Type (0, 1), BuildingBlock: ZUJKAS_clean_linker_0, # of connection points: 2
# Relax obj value: 0.035
# Max RMSD: 0.132
# Mean RMSD: 0.075
data_MOF--net-eea--node1-NUHQIS_clean_sbu_0--node2-ESEHIV_clean_linker_0--edge1-ZUJKAS_clean_linker_0
_symmetry_space_group_name_H-M    P1
_symmetry_Int_Tables_number       1
_symmetry_cell_setting            triclinic
loop_
_symmetry_equiv_pos_as_xyz
'x, y, z'
_cell_length_a     63.639036
_cell_length_b     63.890653
_cell_length_c     90.195637
_cell_angle_alpha  93.106396
_cell_angle_beta   93.623383
_cell_angle_gamma 119.80217
loop_
_atom_site_label
_atom_site_type_symbol
_atom_site_fract_x
_atom_site_fract_y
_atom_site_fract_z
_atom_type_partial_charge
H0 H 0.28846 0.18293 0.4371 0.0
H1 H 0.29084 0.11687 0.43773 0.0
H2 H 0.26605 0.13392 0.39722 0.0
C3 C 0.28598 0.16641 0.43134 0.0
C4 C 0.27633 0.16015 0.41628 0.0
C5 C 0.29161 0.15108 0.43915 0.0
C6 C 0.28772 0.1294 0.43164 0.0
C7 C 0.27829 0.12298 0.41656 0.0
C8 C 0.27302 0.13864 0.40892 0.0
H9 H 0.84537 0.11525 0.44353 0.0
H10 H 0.91336 0.18207 0.44515 0.0
H11 H 0.88669 0.13147 0.40567 0.0
C12 C 0.86114 0.12746 0.43816 0.0
C13 C 0.8637 0.12085 0.42358 0.0
C14 C 0.87897 0.14945 0.44602 0.0
C15 C 0.89952 0.16512 0.43909 0.0
C16 C 0.90252 0.15875 0.42452 0.0
C17 C 0.88444 0.13663 0.41684 0.0
H18 H 0.85133 0.75211 0.45197 0.0
H19 H 0.91763 0.74948 0.4516 0.0
H20 H 0.8979 0.78233 0.41719 0.0
C21 C 0.86768 0.75601 0.44685 0.0
C22 C 0.87239 0.76766 0.43366 0.0
C23 C 0.88391 0.74945 0.45351 0.0
C24 C 0.90504 0.75458 0.4467 0.0
C25 C 0.91024 0.76656 0.43365 0.0
C26 C 0.89387 0.77305 0.42723 0.0
H27 H 0.07977 0.24469 0.57837 0.0
H28 H 0.14873 0.24754 0.57897 0.0
H29 H 0.10358 0.21699 0.61426 0.0
C30 C 0.09323 0.24114 0.58374 0.0
C31 C 0.08892 0.23005 0.59717 0.0
C32 C 0.11487 0.2477 0.57716 0.0
C33 C 0.13212 0.24272 0.58405 0.0
C34 C 0.12814 0.23151 0.59736 0.0
C35 C 0.10661 0.22544 0.60391 0.0
H36 H 0.69709 0.8703 0.58736 0.0
H37 H 0.69889 0.80414 0.58919 0.0
H38 H 0.73545 0.86115 0.62508 0.0
C39 C 0.70249 0.85912 0.59327 0.0
C40 C 0.71649 0.86825 0.60717 0.0
C41 C 0.69628 0.83614 0.58664 0.0
C42 C 0.70377 0.82197 0.59422 0.0
C43 C 0.71769 0.83075 0.60819 0.0
C44 C 0.72384 0.85385 0.61462 0.0
H45 H 0.08038 0.81944 0.57984 0.0
H46 H 0.15042 0.88339 0.57964 0.0
H47 H 0.11047 0.87325 0.61778 0.0
C48 C 0.09511 0.83631 0.58546 0.0
C49 C 0.09304 0.84439 0.59985 0.0
C50 C 0.11563 0.85043 0.57801 0.0
C51 C 0.13428 0.87269 0.58517 0.0
C52 C 0.13249 0.88117 0.59944 0.0
C53 C 0.11192 0.8668 0.60675 0.0
H54 H 0.95542 0.51417 0.77129 0.0
H55 H 0.95418 0.44639 0.77228 0.0
H56 H 0.92735 0.46285 0.73225 0.0
C57 C 0.95132 0.4969 0.76572 0.0
C58 C 0.94067 0.49033 0.75087 0.0
C59 C 0.95649 0.48126 0.77349 0.0
C60 C 0.95128 0.45901 0.76614 0.0
C61 C 0.9408 0.45221 0.75125 0.0
C62 C 0.93579 0.46812 0.74366 0.0
H63 H 0.51384 0.44972 0.77697 0.0
H64 H 0.58023 0.51784 0.77765 0.0
H65 H 0.55511 0.46562 0.73906 0.0
C66 C 0.52933 0.46206 0.77143 0.0
C67 C 0.53216 0.45505 0.75701 0.0
C68 C 0.54655 0.48464 0.77894 0.0
C69 C 0.56681 0.50046 0.77184 0.0
C70 C 0.57014 0.49371 0.75745 0.0
C71 C 0.55261 0.47103 0.7501 0.0
H72 H 0.51671 0.08216 0.78544 0.0
H73 H 0.58183 0.07749 0.78494 0.0
H74 H 0.5617 0.10879 0.74963 0.0
C75 C 0.5327 0.08528 0.78016 0.0
C76 C 0.53699 0.09582 0.76658 0.0
C77 C 0.54884 0.07876 0.78698 0.0
C78 C 0.56959 0.08298 0.77999 0.0
C79 C 0.57429 0.09359 0.76642 0.0
C80 C 0.55787 0.09996 0.75985 0.0
H81 H 0.74753 0.5812 0.91228 0.0
H82 H 0.81406 0.57926 0.91172 0.0
H83 H 0.76972 0.55169 0.94774 0.0
C84 C 0.76031 0.5764 0.91727 0.0
C85 C 0.75584 0.56543 0.93072 0.0
C86 C 0.7815 0.58185 0.91044 0.0
C87 C 0.79819 0.57601 0.91721 0.0
C88 C 0.79423 0.56526 0.9307 0.0
C89 C 0.77299 0.56006 0.93737 0.0
H90 H 0.36215 0.20403 0.92757 0.0
H91 H 0.36375 0.13755 0.92529 0.0
H92 H 0.3862 0.1831 0.96674 0.0
C93 C 0.36521 0.19098 0.93309 0.0
C94 C 0.37467 0.19613 0.94817 0.0
C95 C 0.36085 0.16969 0.92484 0.0
C96 C 0.36582 0.15331 0.93185 0.0
C97 C 0.37535 0.1582 0.94692 0.0
C98 C 0.37912 0.17935 0.95506 0.0
H99 H 0.74361 0.15293 0.9113 0.0
H100 H 0.81258 0.21816 0.91118 0.0
H101 H 0.7732 0.20587 0.94973 0.0
C102 C 0.75807 0.16989 0.91701 0.0
C103 C 0.75593 0.1775 0.93151 0.0
C104 C 0.77833 0.18469 0.90956 0.0
C105 C 0.7967 0.20697 0.9168 0.0
C106 C 0.79499 0.21477 0.93126 0.0
C107 C 0.77463 0.19987 0.93857 0.0
H108 H 0.62411 0.84477 0.10312 0.0
H109 H 0.62396 0.77741 0.10173 0.0
H110 H 0.60055 0.79794 0.06214 0.0
C111 C 0.62141 0.82856 0.09679 0.0
C112 C 0.61182 0.8234 0.08172 0.0
C113 C 0.62601 0.81212 0.10404 0.0
C114 C 0.62104 0.7904 0.09605 0.0
C115 C 0.61154 0.78498 0.08098 0.0
C116 C 0.60746 0.80181 0.07385 0.0
H117 H 0.17927 0.77984 0.11024 0.0
H118 H 0.24836 0.84548 0.11211 0.0
H119 H 0.21963 0.79615 0.07198 0.0
C120 C 0.19503 0.79193 0.10481 0.0
C121 C 0.19727 0.78537 0.09016 0.0
C122 C 0.21323 0.81368 0.11272 0.0
C123 C 0.23394 0.82909 0.10582 0.0
C124 C 0.23668 0.82266 0.09119 0.0
C125 C 0.21801 0.80096 0.08339 0.0
H126 H 0.18278 0.4158 0.1181 0.0
H127 H 0.25019 0.41515 0.11822 0.0
H128 H 0.22801 0.44456 0.08268 0.0
C129 C 0.19903 0.41948 0.11291 0.0
C130 C 0.20329 0.43047 0.09953 0.0
C131 C 0.21593 0.41407 0.1199 0.0
C132 C 0.23728 0.41974 0.11317 0.0
C133 C 0.24173 0.4306 0.09969 0.0
C134 C 0.22468 0.43602 0.09301 0.0
H135 H 0.41426 0.9142 0.24518 0.0
H136 H 0.48282 0.91628 0.24514 0.0
H137 H 0.43788 0.88567 0.28057 0.0
C138 C 0.42769 0.9104 0.25035 0.0
C139 C 0.42328 0.89878 0.26356 0.0
C140 C 0.44933 0.91709 0.24375 0.0
C141 C 0.46653 0.91192 0.25048 0.0
C142 C 0.46256 0.90043 0.2637 0.0
C143 C 0.44087 0.89397 0.27016 0.0
H144 H 0.03528 0.54772 0.26252 0.0
H145 H 0.03176 0.47881 0.25714 0.0
H146 H 0.05941 0.52233 0.29942 0.0
C147 C 0.03771 0.53374 0.26727 0.0
C148 C 0.04755 0.53736 0.28219 0.0
C149 C 0.03193 0.51268 0.25818 0.0
C150 C 0.03577 0.4949 0.2642 0.0
C151 C 0.04582 0.49829 0.27906 0.0
C152 C 0.05132 0.51942 0.28802 0.0
H153 H 0.41092 0.48695 0.24678 0.0
H154 H 0.48004 0.55145 0.24537 0.0
H155 H 0.44196 0.54155 0.28435 0.0
C156 C 0.42564 0.50402 0.25219 0.0
C157 C 0.42406 0.51233 0.26664 0.0
C158 C 0.44565 0.51823 0.24438 0.0
C159 C 0.46431 0.5407 0.25122 0.0
C160 C 0.46308 0.54933 0.26558 0.0
C161 C 0.443 0.53494 0.27326 0.0
Tb162 Tb 0.49237 0.98176 0.99948 0.0
Eu163 Eu 0.51129 0.01559 0.03201 0.0
C164 C 0.5197 0.97077 0.0249 0.0
C165 C 0.46045 0.96635 0.02661 0.0
C166 C 0.48515 0.96779 0.95872 0.0
C167 C 0.48774 0.95982 0.93244 0.0
C168 C 0.4825 0.95171 0.94659 0.0
C169 C 0.49324 0.99213 0.95656 0.0
C170 C 0.49828 0.0002 0.94242 0.0
C171 C 0.49559 0.98414 0.93018 0.0
C172 C 0.48 0.95934 0.97365 0.0
O173 O 0.49119 0.01447 0.99598 0.0
O174 O 0.48452 0.02316 0.01951 0.0
O175 O 0.53621 0.03904 0.01584 0.0
O176 O 0.53105 0.00756 0.99955 0.0
C177 C 0.48274 0.02451 1.00508 0.0
O178 O 0.50452 0.03479 0.05013 0.0
O179 O 0.53793 0.03361 0.0516 0.0
O180 O 0.52965 0.99336 0.03065 0.0
O181 O 0.50083 0.96116 0.01473 0.0
O182 O 0.46066 0.96769 0.0121 0.0
O183 O 0.4801 0.97948 0.03589 0.0
C184 C 0.5433 0.03054 1.00483 0.0
O185 O 0.49871 0.96254 0.98234 0.0
O186 O 0.46647 0.96566 0.98074 0.0
C187 C 0.51903 0.03064 0.07366 0.0
C188 C 0.50759 0.01436 0.1021 0.0
C189 C 0.52072 0.03933 0.1004 0.0
C190 C 0.52633 0.04739 0.08627 0.0
C191 C 0.50623 0.00575 0.07531 0.0
C192 C 0.50054 -0.00232 0.08939 0.0
C193 C 0.52373 0.03898 0.0587 0.0
H194 H 0.48532 0.94698 0.92321 0.0
H195 H 0.4764 0.93289 0.94806 0.0
H196 H 0.49572 0.00493 0.96583 0.0
H197 H 0.50464 0.01911 0.94111 0.0
H198 H 0.52622 0.05264 0.10994 0.0
H199 H 0.53609 0.06667 0.08518 0.0
H200 H 0.50048 0.99255 0.06568 0.0
H201 H 0.49073 0.97835 0.09032 0.0
Tb202 Tb 0.01402 0.50339 1.00071 0.0
Eu203 Eu 0.98169 0.48975 0.02936 0.0
C204 C 0.02767 0.54213 0.02767 0.0
C205 C 0.02968 0.4865 0.0295 0.0
C206 C 0.03311 0.51295 0.96248 0.0
C207 C 0.04694 0.52012 0.93786 0.0
C208 C 0.05198 0.52099 0.95325 0.0
C209 C 0.00913 0.50409 0.95624 0.0
C210 C 0.00406 0.50321 0.94085 0.0
C211 C 0.02292 0.51119 0.93148 0.0
C212 C 0.03863 0.51388 0.97859 0.0
O213 O 0.98051 0.46999 0.99299 0.0
O214 O 0.97203 0.45512 0.01568 0.0
O215 O 0.95807 0.49101 1.01029 0.0
O216 O 0.98867 0.51675 0.99701 0.0
C217 C 0.9695 0.45178 1.00106 0.0
O218 O 0.96454 0.46521 0.04627 0.0
O219 O 0.96012 0.49656 0.0447 0.0
O220 O 0.00527 0.53037 0.03125 0.0
O221 O 0.03588 0.53185 0.01853 0.0
O222 O 0.02629 0.48402 0.01483 0.0
O223 O 0.01776 0.49391 0.03758 0.0
C224 C 0.96593 0.50639 1.00014 0.0
O225 O 0.03571 0.52944 0.98683 0.0
O226 O 0.02949 0.49298 0.98404 0.0
C227 C 0.9612 0.48345 0.06853 0.0
C228 C 0.97112 0.4909 0.09983 0.0
C229 C 0.94846 0.47219 0.09302 0.0
C230 C 0.94357 0.46853 0.0775 0.0
C231 C 0.98374 0.50232 0.0752 0.0
C232 C 0.98864 0.50607 0.09073 0.0
C233 C 0.95629 0.47835 0.05227 0.0
H234 H 0.06189 0.52668 0.93097 0.0
H235 H 0.0706 0.52796 0.95795 0.0
H236 H 0.99435 0.49778 0.96327 0.0
H237 H 0.98534 0.49595 0.93626 0.0
H238 H 0.93472 0.45995 0.09967 0.0
H239 H 0.92615 0.45375 0.07249 0.0
H240 H -0.00239 0.51394 0.06838 0.0
H241 H 0.00615 0.52081 0.09562 0.0
Tb242 Tb 0.50664 0.48692 0.02854 0.0
Eu243 Eu 0.48348 0.4953 0.99714 0.0
C244 C 0.47409 0.44415 1.0049 0.0
C245 C 0.53596 0.49921 1.0002 0.0
C246 C 0.51536 0.48151 0.06842 0.0
C247 C 0.51663 0.47362 0.09439 0.0
C248 C 0.52372 0.473 0.08007 0.0
C249 C 0.4999 0.49071 0.0712 0.0
C250 C 0.49282 0.49136 0.08548 0.0
C251 C 0.50106 0.48278 0.09724 0.0
C252 C 0.52179 0.4798 0.05323 0.0
O253 O 0.50853 0.52171 0.03199 0.0
O254 O 0.51301 0.53151 1.00799 0.0
O255 O 0.45963 0.49598 0.01434 0.0
O256 O 0.46914 0.47628 0.03191 0.0
C257 C 0.51597 0.53797 0.02235 0.0
O258 O 0.47826 0.51848 0.98211 0.0
O259 O 0.46219 0.48015 0.97551 0.0
O260 O 0.46306 0.45591 1.00087 0.0
O261 O 0.49554 0.45561 0.01265 0.0
O262 O 0.53693 0.50212 0.01484 0.0
O263 O 0.51569 0.4919 0.99153 0.0
C264 C 0.45531 0.4846 0.0265 0.0
O265 O 0.50434 0.46269 0.04402 0.0
O266 O 0.53285 0.50017 0.04719 0.0
C267 C 0.477 0.50626 0.95676 0.0
C268 C 0.49386 0.5118 0.92829 0.0
C269 C 0.47296 0.51319 0.93079 0.0
C270 C 0.46454 0.51033 0.94493 0.0
C271 C 0.49832 0.50572 0.95443 0.0
C272 C 0.50664 0.50839 0.94032 0.0
C273 C 0.46711 0.50115 0.97126 0.0
H274 H 0.52347 0.4671 0.10324 0.0
H275 H 0.53558 0.46574 0.07807 0.0
H276 H 0.49308 0.49714 0.06227 0.0
H277 H 0.48054 0.49818 0.08724 0.0
H278 H 0.46266 0.51564 0.92171 0.0
H279 H 0.44802 0.51074 0.94655 0.0
H280 H 0.50822 0.50271 0.96347 0.0
H281 H 0.52296 0.50755 0.93878 0.0
Tb282 Tb 0.1578 0.31905 0.33258 0.0
Eu283 Eu 0.17646 0.35109 0.36563 0.0
C284 C 0.18396 0.30601 0.35756 0.0
C285 C 0.12514 0.30278 0.35924 0.0
C286 C 0.15094 0.30558 0.29167 0.0
C287 C 0.15662 0.29789 0.26596 0.0
C288 C 0.15059 0.2899 0.28005 0.0
C289 C 0.15745 0.32941 0.28904 0.0
C290 C 0.16331 0.33737 0.27495 0.0
C291 C 0.16307 0.32175 0.26322 0.0
C292 C 0.14526 0.29725 0.30657 0.0
O293 O 0.1583 0.35274 0.32959 0.0
O294 O 0.15105 0.36054 0.35316 0.0
O295 O 0.20253 0.37508 0.35009 0.0
O296 O 0.19672 0.34422 0.33296 0.0
C297 C 0.15016 0.36294 0.33883 0.0
O298 O 0.16925 0.36908 0.38422 0.0
O299 O 0.20284 0.36823 0.38542 0.0
O300 O 0.19422 0.32835 0.3638 0.0
O301 O 0.16519 0.29723 0.34737 0.0
O302 O 0.12576 0.30549 0.34488 0.0
O303 O 0.14474 0.3148 0.3687 0.0
C304 C 0.20952 0.36687 0.33887 0.0
O305 O 0.1635 0.2995 0.31532 0.0
O306 O 0.13225 0.30431 0.31362 0.0
C307 C 0.18376 0.36404 0.40752 0.0
C308 C 0.17254 0.34659 0.43573 0.0
C309 C 0.18606 0.37167 0.43442 0.0
C310 C 0.19156 0.38031 0.42041 0.0
C311 C 0.17055 0.33904 0.40877 0.0
C312 C 0.16497 0.33039 0.42273 0.0
C313 C 0.18846 0.37306 0.39272 0.0
H314 H 0.1566 0.28547 0.2573 0.0
H315 H 0.14585 0.27152 0.28192 0.0
H316 H 0.15802 0.34189 0.29789 0.0
H317 H 0.16781 0.35572 0.27324 0.0
H318 H 0.19196 0.38464 0.44418 0.0
H319 H 0.20165 0.39967 0.41963 0.0
H320 H 0.1644 0.3262 0.39891 0.0
H321 H 0.15485 0.31098 0.42334 0.0
Tb322 Tb 0.68424 0.83972 0.33205 0.0
Eu323 Eu 0.65108 0.82502 0.36029 0.0
C324 C 0.69678 0.87803 0.35903 0.0
C325 C 0.70012 0.82336 0.36127 0.0
C326 C 0.70287 0.84869 0.2934 0.0
C327 C 0.69939 0.86723 0.2712 0.0
C328 C 0.70466 0.86874 0.28663 0.0
C329 C 0.69616 0.82725 0.28438 0.0
C330 C 0.69092 0.82575 0.26896 0.0
C331 C 0.69237 0.84568 0.2622 0.0
C332 C 0.70842 0.85034 0.30975 0.0
O333 O 0.65121 0.80584 0.32425 0.0
O334 O 0.64343 0.79085 0.34689 0.0
O335 O 0.62775 0.82602 0.34097 0.0
O336 O 0.65866 0.85284 0.32837 0.0
C337 C 0.64077 0.7875 0.33228 0.0
O338 O 0.63106 0.79869 0.37569 0.0
O339 O 0.63052 0.83234 0.37623 0.0
O340 O 0.6743 0.86576 0.36246 0.0
O341 O 0.7055 0.8683 0.34988 0.0
O342 O 0.69787 0.82182 0.34657 0.0
O343 O 0.68686 0.82926 0.36915 0.0
C344 C 0.63573 0.84188 0.33112 0.0
O345 O 0.70511 0.86576 0.31789 0.0
O346 O 0.70069 0.82995 0.31572 0.0
C347 C 0.62792 0.81478 0.39883 0.0
C348 C 0.63438 0.81628 0.43007 0.0
C349 C 0.61089 0.80599 0.42251 0.0
C350 C 0.60771 0.80523 0.407 0.0
C351 C 0.65143 0.82543 0.40628 0.0
C352 C 0.65465 0.82618 0.4218 0.0
C353 C 0.62418 0.81243 0.38252 0.0
H354 H 0.70051 0.88285 0.26635 0.0
H355 H 0.71004 0.88561 0.29326 0.0
H356 H 0.69497 0.81158 0.2892 0.0
H357 H 0.68601 0.80903 0.26231 0.0
H358 H 0.59493 0.79797 0.42855 0.0
H359 H 0.58944 0.79682 0.40135 0.0
H360 H 0.66722 0.83285 0.40007 0.0
H361 H 0.67298 0.83451 0.42733 0.0
Tb362 Tb 0.17752 0.82856 0.3628 0.0
Eu363 Eu 0.15311 0.8354 0.33139 0.0
C364 C 0.14604 0.78485 0.3389 0.0
C365 C 0.20591 0.83895 0.33402 0.0
C366 C 0.18389 0.81701 0.40211 0.0
C367 C 0.19025 0.81675 0.42889 0.0
C368 C 0.19927 0.82059 0.41495 0.0
C369 C 0.15915 0.80882 0.40324 0.0
C370 C 0.15009 0.80499 0.41717 0.0
C371 C 0.16564 0.80935 0.4302 0.0
C372 C 0.19422 0.82417 0.3879 0.0
O373 O 0.1973 0.86642 0.35864 0.0
O374 O 0.16506 0.86801 0.34769 0.0
O375 O 0.12276 0.81915 0.34612 0.0
O376 O 0.14618 0.83126 0.36874 0.0
C377 C 0.1865 0.87875 0.35539 0.0
O378 O 0.15398 0.85945 0.31488 0.0
O379 O 0.12558 0.82165 0.3122 0.0
O380 O 0.15198 0.79981 0.32851 0.0
O381 O 0.14921 0.79277 0.35306 0.0
O382 O 0.20159 0.82861 0.34659 0.0
O383 O 0.19162 0.84601 0.32765 0.0
C384 C 0.12506 0.82277 0.36075 0.0
O385 O 0.18541 0.80737 0.3767 0.0
O386 O 0.19617 0.84431 0.38398 0.0
C387 C 0.14143 0.84029 0.29049 0.0
C388 C 0.15455 0.8398 0.26122 0.0
C389 C 0.14519 0.85466 0.26589 0.0
C390 C 0.13868 0.85487 0.28039 0.0
C391 C 0.15065 0.82536 0.28591 0.0
C392 C 0.15701 0.82501 0.2714 0.0
C393 C 0.13621 0.84195 0.30601 0.0
H394 H 0.2028 0.82062 0.43869 0.0
H395 H 0.21846 0.82715 0.41428 0.0
H396 H 0.14702 0.80605 0.39342 0.0
H397 H 0.13101 0.79903 0.41776 0.0
H398 H 0.14339 0.86655 0.25844 0.0
H399 H 0.13189 0.86674 0.28381 0.0
H400 H 0.15316 0.81415 0.29361 0.0
H401 H 0.16378 0.81307 0.26815 0.0
Tb402 Tb 0.8262 0.65182 0.66586 0.0
Eu403 Eu 0.84561 0.68353 0.69902 0.0
C404 C 0.85138 0.63728 0.69073 0.0
C405 C 0.79369 0.63597 0.69266 0.0
C406 C 0.81821 0.63883 0.62487 0.0
C407 C 0.82088 0.63071 0.59863 0.0
C408 C 0.81536 0.62263 0.61276 0.0
C409 C 0.82676 0.66326 0.62273 0.0
C410 C 0.8321 0.6713 0.60861 0.0
C411 C 0.82924 0.65513 0.5964 0.0
C412 C 0.81279 0.63033 0.63976 0.0
O413 O 0.82802 0.68617 0.66306 0.0
O414 O 0.82114 0.69422 0.68667 0.0
O415 O 0.872 0.70703 0.68346 0.0
O416 O 0.86533 0.67597 0.66622 0.0
C417 C 0.82056 0.69694 0.67238 0.0
O418 O 0.8386 0.70134 0.71781 0.0
O419 O 0.87254 0.70113 0.71849 0.0
O420 O 0.86187 0.65942 0.69736 0.0
O421 O 0.83304 0.62923 0.68027 0.0
O422 O 0.79435 0.63883 0.67832 0.0
O423 O 0.81334 0.64765 0.70212 0.0
C424 C 0.87865 0.69853 0.6722 0.0
O425 O 0.83106 0.63215 0.64826 0.0
O426 O 0.80028 0.63772 0.64708 0.0
C427 C 0.85429 0.69725 0.74097 0.0
C428 C 0.84281 0.67992 0.76917 0.0
C429 C 0.84976 0.70409 0.76703 0.0
C430 C 0.85546 0.71267 0.75305 0.0
C431 C 0.8476 0.67319 0.74306 0.0
C432 C 0.84203 0.66464 0.75705 0.0
C433 C 0.85822 0.70577 0.72602 0.0
H434 H 0.81834 0.61779 0.58943 0.0
H435 H 0.80888 0.60374 0.61423 0.0
H436 H 0.8294 0.67613 0.63199 0.0
H437 H 0.83883 0.69028 0.6073 0.0
H438 H 0.85075 0.71636 0.77617 0.0
H439 H 0.8604 0.73123 0.7516 0.0
H440 H 0.84624 0.6609 0.73379 0.0
H441 H 0.83644 0.64586 0.75827 0.0
Tb442 Tb 0.34983 0.17202 0.66704 0.0
Eu443 Eu 0.31816 0.15835 0.69598 0.0
C444 C 0.36402 0.21088 0.69398 0.0
C445 C 0.36639 0.1553 0.69577 0.0
C446 C 0.36688 0.18054 0.62836 0.0
C447 C 0.37838 0.19486 0.60418 0.0
C448 C 0.38433 0.1961 0.6195 0.0
C449 C 0.34332 0.16377 0.62178 0.0
C450 C 0.33741 0.16239 0.60644 0.0
C451 C 0.35489 0.17794 0.59749 0.0
C452 C 0.37334 0.18227 0.64446 0.0
O453 O 0.31626 0.13848 0.6596 0.0
O454 O 0.30873 0.12374 0.68234 0.0
O455 O 0.29414 0.15998 0.67736 0.0
O456 O 0.32424 0.18519 0.66358 0.0
C457 C 0.30563 0.12029 0.66773 0.0
O458 O 0.29828 0.13214 0.71148 0.0
O459 O 0.29981 0.1668 0.713 0.0
O460 O 0.3417 0.19904 0.69771 0.0
O461 O 0.37207 0.20067 0.68467 0.0
O462 O 0.36331 0.15348 0.68109 0.0
O463 O 0.35399 0.16191 0.70399 0.0
C464 C 0.30167 0.17508 0.66705 0.0
O465 O 0.37035 0.19784 0.65265 0.0
O466 O 0.3653 0.16176 0.65032 0.0
C467 C 0.29836 0.14871 0.73526 0.0
C468 C 0.30777 0.14991 0.76627 0.0
C469 C 0.2838 0.14048 0.75964 0.0
C470 C 0.27916 0.13989 0.74424 0.0
C471 C 0.32234 0.15842 0.74178 0.0
C472 C 0.32702 0.15904 0.75719 0.0
C473 C 0.29308 0.14662 0.71905 0.0
H474 H 0.39224 0.20692 0.59753 0.0
H475 H 0.40256 0.2092 0.62444 0.0
H476 H 0.32951 0.15179 0.62849 0.0
H477 H 0.31909 0.14938 0.60161 0.0
H478 H 0.26865 0.13363 0.76637 0.0
H479 H 0.26054 0.13231 0.73933 0.0
H480 H 0.33735 0.16516 0.73493 0.0
H481 H 0.34564 0.16617 0.76194 0.0
Tb482 Tb 0.83979 0.15395 0.69428 0.0
Eu483 Eu 0.81827 0.16672 0.6641 0.0
C484 C 0.81192 0.11506 0.66691 0.0
C485 C 0.87076 0.17069 0.66718 0.0
C486 C 0.8499 0.14673 0.73379 0.0
C487 C 0.84552 0.13306 0.75858 0.0
C488 C 0.8517 0.1319 0.74407 0.0
C489 C 0.84213 0.16297 0.73819 0.0
C490 C 0.83604 0.16421 0.75268 0.0
C491 C 0.83738 0.14906 0.76301 0.0
C492 C 0.85394 0.14365 0.71818 0.0
O493 O 0.85677 0.19327 0.69561 0.0
O494 O 0.82714 0.1965 0.68194 0.0
O495 O 0.78702 0.14813 0.67811 0.0
O496 O 0.80942 0.15765 0.70092 0.0
C497 C 0.84633 0.20576 0.69179 0.0
O498 O 0.82103 0.19297 0.64873 0.0
O499 O 0.79157 0.15574 0.64466 0.0
O500 O 0.81821 0.13222 0.65798 0.0
O501 O 0.81376 0.11992 0.6814 0.0
O502 O 0.86356 0.15542 0.67748 0.0
O503 O 0.85826 0.18091 0.66273 0.0
C504 C 0.78863 0.15021 0.69278 0.0
O505 O 0.83445 0.12849 0.70952 0.0
O506 O 0.8671 0.16342 0.71194 0.0
C507 C 0.80925 0.17592 0.6239 0.0
C508 C 0.82205 0.17557 0.59459 0.0
C509 C 0.80712 0.18513 0.59828 0.0
C510 C 0.80075 0.18527 0.61285 0.0
C511 C 0.82419 0.16644 0.62029 0.0
C512 C 0.8305 0.16622 0.60577 0.0
C513 C 0.80326 0.17668 0.63928 0.0
H514 H 0.84646 0.12092 0.76618 0.0
H515 H 0.85733 0.11903 0.74077 0.0
H516 H 0.84039 0.1744 0.73033 0.0
H517 H 0.83022 0.17701 0.75577 0.0
H518 H 0.80016 0.19227 0.58989 0.0
H519 H 0.78927 0.19274 0.61549 0.0
H520 H 0.83112 0.15936 0.62876 0.0
H521 H 0.84232 0.15908 0.60334 0.0
H522 H 0.26399 0.87239 0.09255 0.0
H523 H 0.30185 0.89669 0.08132 0.0
H524 H 0.29837 0.83132 0.06264 0.0
H525 H 0.26133 0.807 0.07435 0.0
H526 H 0.34327 0.86366 0.07567 0.0
H527 H 0.30979 0.90874 0.03774 0.0
H528 H 0.30591 0.91304 0.057 0.0
H529 H 0.28958 0.88315 0.04722 0.0
C530 C 0.27136 0.8632 0.08611 0.0
C531 C 0.25947 0.83773 0.08424 0.0
C532 C 0.29283 0.87711 0.07955 0.0
C533 C 0.30267 0.8658 0.0709 0.0
C534 C 0.29097 0.84043 0.06915 0.0
H535 H 0.41594 0.93422 0.01142 0.0
H536 H 0.37767 0.90904 0.02204 0.0
C537 C 0.26965 0.82655 0.07575 0.0
C538 C 0.32561 0.88024 0.06405 0.0
H539 H 0.35231 0.92302 0.03975 0.0
C540 C 0.34522 0.87659 0.06778 0.0
C541 C 0.328 0.89683 0.05359 0.0
C542 C 0.30714 0.90056 0.04852 0.0
C543 C 0.36727 0.88928 0.06149 0.0
C544 C 0.36996 0.9065 0.05145 0.0
C545 C 0.35025 0.90992 0.04754 0.0
C546 C 0.39321 0.92137 0.04502 0.0
C547 C 0.3873 0.88378 0.06548 0.0
C548 C 0.41455 0.93674 0.05441 0.0
C549 C 0.43642 0.95097 0.04841 0.0
C550 C 0.43735 0.95036 0.03285 0.0
C551 C 0.41589 0.93505 0.02344 0.0
C552 C 0.394 0.92071 0.02949 0.0
H553 H 0.38004 0.86561 0.0696 0.0
H554 H 0.3974 0.88453 0.05573 0.0
H555 H 0.40034 0.89743 0.07451 0.0
H556 H 0.41426 0.93797 0.06641 0.0
H557 H 0.45251 0.96272 0.05601 0.0
H558 H 0.15434 0.40037 0.09311 0.0
H559 H 0.12483 0.40971 0.081 0.0
H560 H 0.18227 0.48322 0.07849 0.0
H561 H 0.21192 0.47363 0.09007 0.0
H562 H 0.11023 0.44003 0.08903 0.0
H563 H 0.15235 0.46618 0.03629 0.0
H564 H 0.16204 0.45211 0.04981 0.0
H565 H 0.17306 0.4842 0.05228 0.0
C566 C 0.16062 0.41848 0.0899 0.0
C567 C 0.1854 0.43623 0.09238 0.0
C568 C 0.14378 0.42381 0.08299 0.0
C569 C 0.15137 0.44705 0.07854 0.0
C570 C 0.17606 0.46496 0.08137 0.0
H571 H 0.05168 0.50085 0.05814 0.0
H572 H 0.08112 0.49147 0.07021 0.0
C573 C 0.19297 0.45952 0.08805 0.0
C574 C 0.13332 0.4526 0.07125 0.0
H575 H 0.12129 0.47558 0.04063 0.0
C576 C 0.11258 0.44768 0.0784 0.0
C577 C 0.13615 0.46222 0.05726 0.0
C578 C 0.15697 0.46624 0.04839 0.0
C579 C 0.09475 0.45231 0.07205 0.0
C580 C 0.09815 0.46297 0.05839 0.0
C581 C 0.11878 0.46767 0.05118 0.0
C582 C 0.08032 0.46885 0.05115 0.0
C583 C 0.07217 0.44508 0.07986 0.0
C584 C 0.0707 0.46003 0.03624 0.0
C585 C 0.05433 0.46585 0.02921 0.0
C586 C 0.04706 0.48044 0.03699 0.0
C587 C 0.0567 0.48931 0.05191 0.0
C588 C 0.07341 0.48381 0.05886 0.0
H589 H 0.06887 0.43065 0.08729 0.0
H590 H 0.07456 0.46104 0.08692 0.0
H591 H 0.05582 0.43849 0.07173 0.0
H592 H 0.07579 0.44853 0.03003 0.0
H593 H 0.0472 0.4587 0.01771 0.0
H594 H 0.63525 0.75895 0.08236 0.0
H595 H 0.62051 0.71767 0.0712 0.0
H596 H 0.55657 0.71563 0.05029 0.0
H597 H 0.57049 0.75628 0.06197 0.0
H598 H 0.54534 0.67643 0.06504 0.0
H599 H 0.61775 0.6916 0.02866 0.0
H600 H 0.62912 0.70338 0.04777 0.0
H601 H 0.61438 0.71606 0.03682 0.0
C602 C 0.61808 0.74973 0.07535 0.0
C603 C 0.60407 0.76095 0.07305 0.0
C604 C 0.60984 0.72626 0.06883 0.0
C605 C 0.58761 0.71374 0.05975 0.0
C606 C 0.57386 0.72507 0.05718 0.0
H607 H 0.52903 0.57629 1.00568 0.0
H608 H 0.54658 0.61901 0.01476 0.0
C609 C 0.58197 0.74841 0.06376 0.0
C610 C 0.57771 0.68818 0.05382 0.0
H611 H 0.58967 0.65053 0.03225 0.0
C612 C 0.55498 0.67078 0.05781 0.0
C613 C 0.59022 0.68093 0.04428 0.0
C614 C 0.61411 0.69899 0.039 0.0
C615 C 0.5445 0.64624 0.05266 0.0
C616 C 0.55739 0.63884 0.04356 0.0
C617 C 0.57997 0.65626 0.03938 0.0
C618 C 0.54754 0.61311 0.03813 0.0
C619 C 0.51952 0.62853 0.05681 0.0
C620 C 0.54267 0.59575 0.04828 0.0
C621 C 0.53249 0.57133 0.04315 0.0
C622 C 0.52726 0.56388 0.02775 0.0
C623 C 0.53276 0.58142 0.01761 0.0
C624 C 0.54283 0.60584 0.02276 0.0
H625 H 0.50953 0.63783 0.06027 0.0
H626 H 0.50843 0.61467 0.04733 0.0
H627 H 0.52141 0.61909 0.06633 0.0
H628 H 0.54668 0.6011 0.06018 0.0
H629 H 0.52871 0.55832 0.05125 0.0
H630 H 0.8155 0.2263 0.9603 0.0
H631 H 0.84642 0.26626 0.97231 0.0
H632 H 0.84895 0.29726 0.93072 0.0
H633 H 0.81782 0.25754 0.91866 0.0
H634 H 0.89581 0.31094 0.94649 0.0
H635 H 0.83386 0.3233 0.98218 0.0
H636 H 0.83412 0.2954 0.98318 0.0
H637 H 0.82274 0.30117 0.96608 0.0
C638 C 0.82249 0.24167 0.95375 0.0
C639 C 0.81416 0.23878 0.93855 0.0
C640 C 0.84017 0.26443 0.96061 0.0
C641 C 0.84972 0.28466 0.95241 0.0
C642 C 0.84176 0.28181 0.9372 0.0
H643 H 0.95508 0.43807 0.97118 0.0
H644 H 0.92687 0.39725 0.95922 0.0
C645 C 0.82407 0.25909 0.93034 0.0
C646 C 0.86792 0.30889 0.95967 0.0
H647 H 0.87547 0.35333 0.98582 0.0
C648 C 0.89143 0.32027 0.95508 0.0
C649 C 0.86203 0.32089 0.97086 0.0
C650 C 0.83678 0.30972 0.97583 0.0
C651 C 0.90941 0.34334 0.96158 0.0
C652 C 0.90347 0.35543 0.97269 0.0
C653 C 0.87995 0.34398 0.97729 0.0
C654 C 0.92131 0.38001 0.97976 0.0
C655 C 0.9347 0.35432 0.95669 0.0
C656 C 0.92716 0.38388 0.99529 0.0
C657 C 0.94302 0.40717 1.00216 0.0
C658 C 0.95332 0.42706 0.99364 0.0
C659 C 0.94757 0.42311 0.97806 0.0
C660 C 0.93158 0.39978 0.97119 0.0
H661 H 0.93797 0.34031 0.95126 0.0
H662 H 0.93692 0.3674 0.94847 0.0
H663 H 0.94876 0.3642 0.96631 0.0
H664 H 0.91933 0.36886 1.0021 0.0
H665 H 0.94709 0.40955 0.01419 0.0
H666 H 0.75097 0.57144 0.9604 0.0
H667 H 0.71346 0.55964 0.97206 0.0
H668 H 0.67207 0.53462 0.92875 0.0
H669 H 0.7094 0.54566 0.91703 0.0
H670 H 0.67952 0.57502 0.96766 0.0
H671 H 0.63681 0.47593 0.95245 0.0
H672 H 0.66867 0.49677 0.95119 0.0
H673 H 0.64606 0.49388 0.93694 0.0
C674 C 0.73386 0.5632 0.95336 0.0
C675 C 0.73318 0.55931 0.93778 0.0
C676 C 0.71246 0.55661 0.96004 0.0
C677 C 0.68992 0.54588 0.9513 0.0
C678 C 0.68921 0.54245 0.93573 0.0
H679 H 0.54088 0.49335 0.97052 0.0
H680 H 0.57835 0.50507 0.95893 0.0
C681 C 0.71061 0.54904 0.92904 0.0
C682 C 0.66722 0.5385 0.9585 0.0
H683 H 0.61224 0.48955 0.96335 0.0
C684 C 0.66484 0.55632 0.96678 0.0
C685 C 0.64809 0.51409 0.95732 0.0
C686 C 0.65003 0.494 0.94912 0.0
C687 C 0.64367 0.55047 0.97369 0.0
C688 C 0.62455 0.52607 0.97251 0.0
C689 C 0.62692 0.50825 0.96423 0.0
C690 C 0.60184 0.51868 0.9797 0.0
C691 C 0.64173 0.57056 0.98191 0.0
C692 C 0.60252 0.52202 0.99527 0.0
C693 C 0.58111 0.51539 1.00196 0.0
C694 C 0.55854 0.50517 0.99321 0.0
C695 C 0.5579 0.50134 0.97762 0.0
C696 C 0.57932 0.50798 0.97096 0.0
H697 H 0.65499 0.58864 0.97862 0.0
H698 H 0.6231 0.56781 0.9798 0.0
H699 H 0.64561 0.5706 0.99408 0.0
H700 H 0.61964 0.52977 1.00226 0.0
H701 H 0.58231 0.5185 0.01399 0.0
H702 H 0.41725 0.17296 0.96501 0.0
H703 H 0.43295 0.14801 0.97473 0.0
H704 H 0.36965 0.08367 0.95315 0.0
H705 H 0.35316 0.10851 0.94383 0.0
H706 H 0.38357 0.07847 0.98219 0.0
H707 H 0.46197 0.11683 0.94847 0.0
H708 H 0.45992 0.13955 0.95984 0.0
H709 H 0.43624 0.12123 0.94508 0.0
C710 C 0.40636 0.15346 0.96256 0.0
C711 C 0.38391 0.14271 0.95364 0.0
C712 C 0.41556 0.13927 0.96796 0.0
C713 C 0.40269 0.1141 0.96438 0.0
C714 C 0.37993 0.10314 0.9559 0.0
H715 H 0.4704 0.02585 0.97573 0.0
H716 H 0.44932 0.04591 0.96557 0.0
C717 C 0.37062 0.11734 0.95053 0.0
C718 C 0.41332 0.09939 0.96938 0.0
H719 H 0.46357 0.09351 0.96782 0.0
C720 C 0.40096 0.08158 0.97898 0.0
C721 C 0.4358 0.10325 0.96493 0.0
C722 C 0.44915 0.12108 0.95389 0.0
C723 C 0.41092 0.06802 0.98467 0.0
C724 C 0.43403 0.07281 0.98085 0.0
C725 C 0.44599 0.09009 0.97087 0.0
C726 C 0.44628 0.06025 0.98712 0.0
C727 C 0.39652 0.04858 0.99459 0.0
C728 C 0.45187 0.06199 1.00259 0.0
C729 C 0.46384 0.05047 1.00845 0.0
C730 C 0.4707 0.03727 0.99891 0.0
C731 C 0.46542 0.03591 0.98339 0.0
C732 C 0.45332 0.04731 0.97756 0.0
H733 H 0.37677 0.04239 0.99283 0.0
H734 H 0.39898 0.03267 0.99256 0.0
H735 H 0.40292 0.056 1.00644 0.0
H736 H 0.44718 0.07244 1.01014 0.0
H737 H 0.46778 0.052 0.02045 0.0
H738 H 0.73108 0.19318 0.9482 0.0
H739 H 0.69609 0.16908 0.96171 0.0
H740 H 0.69499 0.10394 0.94507 0.0
H741 H 0.73081 0.12807 0.93206 0.0
H742 H 0.65058 0.13341 0.95132 0.0
H743 H 0.69417 0.09755 0.98949 0.0
H744 H 0.71143 0.12207 0.97841 0.0
H745 H 0.69593 0.09118 0.97013 0.0
C746 C 0.72368 0.17376 0.9476 0.0
C747 C 0.73399 0.16259 0.93921 0.0
C748 C 0.70354 0.16 0.95524 0.0
C749 C 0.69322 0.13478 0.95464 0.0
C750 C 0.70303 0.12345 0.94598 0.0
H751 H 0.56606 0.01774 0.98464 0.0
H752 H 0.60266 0.04424 0.97316 0.0
C753 C 0.7233 0.13724 0.93839 0.0
C754 C 0.67185 0.12036 0.96283 0.0
H755 H 0.65114 0.07987 0.98899 0.0
C756 C 0.65077 0.12186 0.95965 0.0
C757 C 0.67219 0.10541 0.97375 0.0
C758 C 0.69471 0.10409 0.97828 0.0
C759 C 0.62979 0.10829 0.96681 0.0
C760 C 0.63001 0.093 0.97748 0.0
C761 C 0.65112 0.09166 0.98079 0.0
C762 C 0.60809 0.0773 0.98478 0.0
C763 C 0.60731 0.10986 0.96267 0.0
C764 C 0.59919 0.08719 0.99525 0.0
C765 C 0.57823 0.07206 1.00194 0.0
C766 C 0.56585 0.04682 0.9982 0.0
C767 C 0.57504 0.03708 0.98777 0.0
C768 C 0.596 0.05217 0.9812 0.0
H769 H 0.60897 0.11975 0.95265 0.0
H770 H 0.59107 0.09142 0.96048 0.0
H771 H 0.60421 0.11951 0.97212 0.0
H772 H 0.60846 0.10659 0.99824 0.0
H773 H 0.57164 0.08013 1.00992 0.0
H774 H 0.84405 0.59224 0.93274 0.0
H775 H 0.87352 0.58186 0.94348 0.0
H776 H 0.81487 0.51521 0.95601 0.0
H777 H 0.78523 0.52483 0.94463 0.0
H778 H 0.88247 0.57446 0.97179 0.0
H779 H 0.85338 0.49081 0.93452 0.0
H780 H 0.8431 0.51188 0.93071 0.0
H781 H 0.82902 0.49004 0.94391 0.0
C782 C 0.83737 0.57518 0.93757 0.0
C783 C 0.81221 0.55928 0.93769 0.0
C784 C 0.85427 0.56937 0.94381 0.0
C785 C 0.84641 0.54755 0.9503 0.0
C786 C 0.82136 0.53188 0.95074 0.0
H787 H 0.91671 0.48473 1.00121 0.0
H788 H 0.88851 0.49528 0.98872 0.0
C789 C 0.80443 0.53759 0.94442 0.0
C790 C 0.86447 0.54152 0.95694 0.0
H791 H 0.88098 0.4981 0.95593 0.0
C792 C 0.88226 0.55786 0.96823 0.0
C793 C 0.86425 0.51988 0.95225 0.0
C794 C 0.84657 0.50226 0.93958 0.0
C795 C 0.89944 0.55287 0.97521 0.0
C796 C 0.89887 0.53105 0.97071 0.0
C797 C 0.88126 0.51479 0.95936 0.0
C798 C 0.91609 0.52454 0.97794 0.0
C799 C 0.91774 0.57067 0.98757 0.0
C800 C 0.94089 0.53733 0.97581 0.0
C801 C 0.9571 0.53127 0.98287 0.0
C802 C 0.94876 0.51239 0.99223 0.0
C803 C 0.9238 0.49946 0.99415 0.0
C804 C 0.90762 0.50541 0.98701 0.0
H805 H 0.91329 0.58473 0.99135 0.0
H806 H 0.91868 0.56108 0.99728 0.0
H807 H 0.93605 0.57989 0.98353 0.0
H808 H 0.94769 0.552 0.96871 0.0
H809 H 0.97617 0.54156 0.98111 0.0
H810 H 0.35083 0.22205 0.94762 0.0
H811 H 0.36638 0.26373 0.95853 0.0
H812 H 0.43124 0.26589 0.97786 0.0
H813 H 0.4164 0.22481 0.96659 0.0
H814 H 0.38197 0.28563 0.98854 0.0
H815 H 0.45706 0.32308 0.95209 0.0
H816 H 0.43149 0.2926 0.94863 0.0
H817 H 0.45605 0.29961 0.96264 0.0
C818 C 0.36839 0.23142 0.95421 0.0
C819 C 0.38243 0.22016 0.95616 0.0
C820 C 0.37716 0.25513 0.96049 0.0
C821 C 0.40011 0.26793 0.96876 0.0
C822 C 0.41365 0.25639 0.9713 0.0
H823 H 0.4927 0.41439 1.00978 0.0
H824 H 0.47365 0.3711 1.00174 0.0
C825 C 0.40498 0.23279 0.965 0.0
C826 C 0.4104 0.29367 0.97428 0.0
H827 H 0.45806 0.35028 0.97145 0.0
C828 C 0.39854 0.29982 0.98479 0.0
C829 C 0.43196 0.31205 0.96927 0.0
C830 C 0.44479 0.30661 0.95743 0.0
C831 C 0.40805 0.32395 0.9907 0.0
C832 C 0.42976 0.34225 0.98581 0.0
C833 C 0.4415 0.3361 0.97523 0.0
C834 C 0.44054 0.36804 0.99134 0.0
C835 C 0.39511 0.32964 1.00233 0.0
C836 C 0.42822 0.38057 0.98804 0.0
C837 C 0.43906 0.40529 0.99256 0.0
C838 C 0.46245 0.4179 1.00041 0.0
C839 C 0.47467 0.40521 1.00377 0.0
C840 C 0.46383 0.3805 0.9992 0.0
H841 H 0.38203 0.31314 1.00733 0.0
H842 H 0.40837 0.3431 0.01138 0.0
H843 H 0.3848 0.33757 0.99705 0.0
H844 H 0.41041 0.37132 0.98173 0.0
H845 H 0.42917 0.41453 0.98977 0.0
H846 H 0.20483 0.75346 0.07316 0.0
H847 H 0.17446 0.71305 0.06174 0.0
H848 H 0.11741 0.7222 0.07879 0.0
H849 H 0.1476 0.76309 0.08973 0.0
H850 H 0.14394 0.67529 0.07703 0.0
H851 H 0.09034 0.69608 0.03552 0.0
H852 H 0.11993 0.71887 0.04435 0.0
H853 H 0.09341 0.70922 0.05419 0.0
C854 C 0.18578 0.74715 0.07417 0.0
C855 C 0.17863 0.76154 0.08232 0.0
C856 C 0.16846 0.72397 0.06774 0.0
C857 C 0.14368 0.71473 0.06929 0.0
C858 C 0.1364 0.72914 0.07722 0.0
H859 H 0.01684 0.57101 0.04539 0.0
H860 H 0.0446 0.61291 0.05597 0.0
C861 C 0.15371 0.75239 0.08362 0.0
C862 C 0.12573 0.68944 0.06345 0.0
H863 H 0.07444 0.65462 0.03942 0.0
C864 C 0.12879 0.67078 0.06877 0.0
C865 C 0.10591 0.68363 0.05275 0.0
C866 C 0.10225 0.70299 0.04625 0.0
C867 C 0.11254 0.64642 0.06369 0.0
C868 C 0.09287 0.64064 0.05292 0.0
C869 C 0.08956 0.65922 0.04772 0.0
C870 C 0.07608 0.61542 0.04652 0.0
C871 C 0.11639 0.62702 0.06996 0.0
C872 C 0.08464 0.60318 0.03762 0.0
C873 C 0.06891 0.57935 0.03155 0.0
C874 C 0.04428 0.56732 0.03427 0.0
C875 C 0.03573 0.57971 0.04315 0.0
C876 C 0.0515 0.60364 0.04916 0.0
H877 H 0.12875 0.63391 0.08052 0.0
H878 H 0.09877 0.61126 0.0721 0.0
H879 H 0.12468 0.62057 0.06174 0.0
H880 H 0.10351 0.61214 0.03532 0.0
H881 H 0.0761 0.5704 0.02473 0.0
H882 H 0.24519 0.42151 0.07026 0.0
H883 H 0.28205 0.43132 0.05822 0.0
H884 H 0.3255 0.46202 0.10062 0.0
H885 H 0.28868 0.45233 0.11277 0.0
H886 H 0.34112 0.49141 0.07335 0.0
H887 H 0.32504 0.39733 0.06573 0.0
H888 H 0.29964 0.40161 0.06083 0.0
H889 H 0.31202 0.40693 0.07997 0.0
C890 C 0.26261 0.43042 0.07701 0.0
C891 C 0.26406 0.43616 0.09246 0.0
C892 C 0.28359 0.43589 0.07014 0.0
C893 C 0.30641 0.44729 0.07856 0.0
C894 C 0.308 0.45316 0.09396 0.0
H895 H 0.44281 0.4651 0.053 0.0
H896 H 0.40721 0.45723 0.06568 0.0
C897 C 0.28698 0.44749 0.10088 0.0
C898 C 0.32861 0.4532 0.07123 0.0
H899 H 0.35832 0.42745 0.05484 0.0
C900 C 0.34496 0.47749 0.0693 0.0
C901 C 0.33355 0.43497 0.06609 0.0
C902 C 0.31679 0.40871 0.06829 0.0
C903 C 0.3661 0.48401 0.06218 0.0
C904 C 0.37082 0.4657 0.05677 0.0
C905 C 0.35458 0.44144 0.0589 0.0
C906 C 0.39276 0.4713 0.04912 0.0
C907 C 0.38338 0.51045 0.06072 0.0
C908 C 0.39644 0.48178 0.03554 0.0
C909 C 0.41686 0.48635 0.02822 0.0
C910 C 0.43387 0.48035 0.0343 0.0
C911 C 0.43008 0.46989 0.04793 0.0
C912 C 0.40972 0.46537 0.05523 0.0
H913 H 0.38025 0.52245 0.06852 0.0
H914 H 0.4026 0.5149 0.06289 0.0
H915 H 0.38059 0.51443 0.04918 0.0
H916 H 0.38334 0.48609 0.0305 0.0
H917 H 0.41913 0.49432 0.01772 0.0
H918 H 0.57076 0.81007 0.06306 0.0
H919 H 0.55756 0.8363 0.05221 0.0
H920 H 0.6222 0.89932 0.07375 0.0
H921 H 0.636 0.87318 0.08442 0.0
H922 H 0.57574 0.89606 0.07844 0.0
H923 H 0.58585 0.88207 0.01854 0.0
H924 H 0.5702 0.85492 0.02774 0.0
H925 H 0.60182 0.87593 0.03341 0.0
C926 C 0.58252 0.82951 0.06522 0.0
C927 C 0.60455 0.83953 0.07453 0.0
C928 C 0.57488 0.84446 0.05904 0.0
C929 C 0.58906 0.86968 0.06205 0.0
C930 C 0.6111 0.87984 0.07126 0.0
H931 H 0.5613 0.98603 0.04339 0.0
H932 H 0.57848 0.96178 0.05224 0.0
C933 C 0.61886 0.86489 0.07739 0.0
C934 C 0.58001 0.88527 0.05634 0.0
H935 H 0.56427 0.90242 0.02427 0.0
C936 C 0.57341 0.89767 0.06662 0.0
C937 C 0.57681 0.88702 0.0409 0.0
C938 C 0.5842 0.87445 0.02947 0.0
C939 C 0.56313 0.91144 0.06184 0.0
C940 C 0.55996 0.91326 0.04638 0.0
C941 C 0.56671 0.90095 0.03611 0.0
C942 C 0.54977 0.92798 0.04068 0.0
C943 C 0.55513 0.92332 0.07335 0.0
C944 C 0.52832 0.91713 0.03085 0.0
C945 C 0.51852 0.931 0.02562 0.0
C946 C 0.53007 0.95597 0.03014 0.0
C947 C 0.55178 0.9668 0.0398 0.0
C948 C 0.5616 0.95296 0.04494 0.0
H949 H 0.55257 0.91477 0.08399 0.0
H950 H 0.56932 0.94271 0.07579 0.0
H951 H 0.53783 0.92235 0.0692 0.0
H952 H 0.51902 0.89787 0.02737 0.0
H953 H 0.50182 0.92212 0.01816 0.0
H954 H 0.90642 0.17039 0.39562 0.0
H955 H 0.94374 0.19399 0.38376 0.0
H956 H 0.98666 0.20701 0.42576 0.0
H957 H 0.94955 0.18277 0.43758 0.0
H958 H 0.98099 0.24205 0.39026 0.0
H959 H 0.01587 0.17866 0.39744 0.0
H960 H 0.98488 0.17048 0.39995 0.0
H961 H 0.009 0.18864 0.4145 0.0
C962 C 0.92382 0.17814 0.40231 0.0
C963 C 0.92501 0.17454 0.41753 0.0
C964 C 0.9451 0.19173 0.39553 0.0
C965 C 0.96796 0.20186 0.40381 0.0
C966 C 0.96921 0.19893 0.41909 0.0
H967 H 0.11766 0.29129 0.38791 0.0
H968 H 0.07895 0.26641 0.39791 0.0
C969 C 0.94796 0.18533 0.42588 0.0
C970 C 0.99052 0.21553 0.39649 0.0
H971 H 0.04319 0.21686 0.38928 0.0
C972 C 0.99453 0.23647 0.38994 0.0
C973 C 0.00807 0.20813 0.39605 0.0
C974 C 0.0042 0.18512 0.40223 0.0
C975 C 0.016 0.25063 0.38333 0.0
C976 C 0.0337 0.24342 0.38311 0.0
C977 C 0.02956 0.22233 0.3895 0.0
C978 C 0.05705 0.25797 0.37676 0.0
C979 C 0.01991 0.27357 0.37704 0.0
C980 C 0.05757 0.2611 0.36148 0.0
C981 C 0.07972 0.27531 0.35568 0.0
C982 C 0.10173 0.28659 0.36508 0.0
C983 C 0.1011 0.28296 0.38034 0.0
C984 C 0.07898 0.26872 0.38609 0.0
H985 H 0.00701 0.27917 0.38085 0.0
H986 H 0.03881 0.28864 0.38031 0.0
H987 H 0.01711 0.27052 0.36467 0.0
H988 H 0.04084 0.25259 0.35406 0.0
H989 H 0.07955 0.27768 0.34388 0.0
H990 H 0.8575 0.76301 0.40391 0.0
H991 H 0.82865 0.77349 0.39224 0.0
H992 H 0.8178 0.79616 0.4356 0.0
H993 H 0.84733 0.78663 0.44733 0.0
H994 H 0.78015 0.75486 0.39617 0.0
H995 H 0.83195 0.85405 0.41258 0.0
H996 H 0.84562 0.83525 0.41401 0.0
H997 H 0.8269 0.83594 0.42794 0.0
C998 C 0.84928 0.7706 0.41096 0.0
C999 C 0.85486 0.7741 0.42656 0.0
C1000 C 0.83266 0.7764 0.40427 0.0
C1001 C 0.82133 0.78593 0.41302 0.0
C1002 C 0.82667 0.78928 0.4286 0.0
H1003 H 0.71155 0.82632 0.39144 0.0
H1004 H 0.74047 0.81679 0.40415 0.0
C1005 C 0.84334 0.78353 0.4353 0.0
C1006 C 0.80341 0.79168 0.40583 0.0
H1007 H 0.79153 0.83768 0.40124 0.0
C1008 C 0.78268 0.77299 0.39723 0.0
C1009 C 0.8067 0.81533 0.40727 0.0
C1010 C 0.82909 0.83637 0.41583 0.0
C1011 C 0.76506 0.77725 0.39015 0.0
C1012 C 0.76841 0.8009 0.39154 0.0
C1013 C 0.78901 0.81956 0.40023 0.0
C1014 C 0.75095 0.80671 0.38382 0.0
C1015 C 0.74279 0.75633 0.38141 0.0
C1016 C 0.74753 0.80451 0.36817 0.0
C1017 C 0.73109 0.80998 0.36086 0.0
C1018 C 0.71775 0.81782 0.36907 0.0
C1019 C 0.72143 0.82024 0.38476 0.0
C1020 C 0.73797 0.81484 0.39206 0.0
H1021 H 0.74 0.73856 0.38445 0.0
H1022 H 0.72621 0.75731 0.3833 0.0
H1023 H 0.74506 0.75716 0.36932 0.0
H1024 H 0.7577 0.79867 0.36161 0.0
H1025 H 0.72882 0.808 0.34877 0.0
H1026 H 0.23728 0.09152 0.39833 0.0
H1027 H 0.2261 0.05136 0.38692 0.0
H1028 H 0.29372 0.05982 0.40667 0.0
H1029 H 0.30525 0.10031 0.41806 0.0
H1030 H 0.25133 0.03702 0.3672 0.0
H1031 H 0.24013 0.99638 0.42127 0.0
H1032 H 0.24169 0.02512 0.41949 0.0
H1033 H 0.2689 0.02315 0.41988 0.0
C1034 C 0.24997 0.08504 0.40007 0.0
C1035 C 0.27217 0.09909 0.40909 0.0
C1036 C 0.24349 0.06205 0.3936 0.0
C1037 C 0.25898 0.05261 0.3961 0.0
C1038 C 0.28138 0.06672 0.40482 0.0
H1039 H 0.23115 0.90668 0.37118 0.0
H1040 H 0.25079 0.94964 0.38015 0.0
C1041 C 0.28791 0.08978 0.41131 0.0
C1042 C 0.2512 0.02773 0.3898 0.0
H1043 H 0.23284 0.97074 0.39949 0.0
C1044 C 0.24741 0.02252 0.37423 0.0
C1045 C 0.24615 0.00896 0.39905 0.0
C1046 C 0.24922 0.01351 0.41586 0.0
C1047 C 0.2385 -0.00113 0.36763 0.0
C1048 C 0.23285 0.97999 0.37689 0.0
C1049 C 0.2372 0.98532 0.39245 0.0
C1050 C 0.22152 0.95439 0.37071 0.0
C1051 C 0.23527 0.99433 0.35083 0.0
C1052 C 0.19849 0.94286 0.36252 0.0
C1053 C 0.1872 0.91832 0.35736 0.0
C1054 C 0.19869 0.90487 0.36043 0.0
C1055 C 0.22181 0.91653 0.36861 0.0
C1056 C 0.23309 0.94106 0.37375 0.0
H1057 H 0.24674 0.01118 0.34557 0.0
H1058 H 0.23992 0.98041 0.34711 0.0
H1059 H 0.21597 0.98765 0.34675 0.0
H1060 H 0.18903 0.95272 0.36035 0.0
H1061 H 0.16934 0.90985 0.35115 0.0
H1062 H 0.48445 0.56291 0.29448 0.0
H1063 H 0.51563 0.60351 0.30546 0.0
H1064 H 0.51721 0.63114 0.26272 0.0
H1065 H 0.48547 0.59098 0.25181 0.0
H1066 H 0.56269 0.63328 0.29777 0.0
H1067 H 0.50637 0.67677 0.29037 0.0
H1068 H 0.49344 0.6443 0.28855 0.0
H1069 H 0.50793 0.66164 0.27347 0.0
C1070 C 0.49124 0.5777 0.28747 0.0
C1071 C 0.4824 0.57373 0.27229 0.0
C1072 C 0.50916 0.60081 0.29373 0.0
C1073 C 0.51844 0.62036 0.28494 0.0
C1074 C 0.50996 0.61639 0.26975 0.0
H1075 H 0.62581 0.7737 0.30245 0.0
H1076 H 0.5974 0.73279 0.29059 0.0
C1077 C 0.49203 0.59334 0.2635 0.0
C1078 C 0.53713 0.64491 0.29161 0.0
H1079 H 0.54845 0.70293 0.29801 0.0
C1080 C 0.55957 0.6485 0.29788 0.0
C1081 C 0.53297 0.66471 0.29172 0.0
C1082 C 0.5088 0.66169 0.2858 0.0
C1083 C 0.57814 0.6715 0.30408 0.0
C1084 C 0.57398 0.69128 0.30412 0.0
C1085 C 0.55158 0.68771 0.29783 0.0
C1086 C 0.59227 0.71569 0.31114 0.0
C1087 C 0.60216 0.67457 0.31035 0.0
C1088 C 0.59868 0.71952 0.32661 0.0
C1089 C 0.61478 0.74281 0.33342 0.0
C1090 C 0.62473 0.76272 0.32488 0.0
C1091 C 0.61852 0.75876 0.30934 0.0
C1092 C 0.60229 0.73543 0.30254 0.0
H1093 H 0.60453 0.65924 0.30624 0.0
H1094 H 0.6176 0.69175 0.3074 0.0
H1095 H 0.60292 0.67532 0.32271 0.0
H1096 H 0.59081 0.70456 0.33346 0.0
H1097 H 0.61916 0.74521 0.34542 0.0
H1098 H 0.40084 0.92547 0.26792 0.0
H1099 H 0.36372 0.91402 0.28005 0.0
H1100 H 0.35714 0.84498 0.28738 0.0
H1101 H 0.394 0.85611 0.27507 0.0
H1102 H 0.31295 0.84259 0.27558 0.0
H1103 H 0.35837 0.90923 0.32561 0.0
H1104 H 0.36522 0.92168 0.30797 0.0
H1105 H 0.37488 0.90085 0.31332 0.0
C1106 C 0.39139 0.90778 0.27202 0.0
C1107 C 0.40043 0.89174 0.27059 0.0
C1108 C 0.37032 0.90136 0.27906 0.0
C1109 C 0.35788 0.87879 0.28479 0.0
C1110 C 0.36657 0.86255 0.28314 0.0
H1111 H 0.24426 0.8341 0.34526 0.0
H1112 H 0.28084 0.84246 0.3333 0.0
C1113 C 0.3877 0.869 0.27617 0.0
C1114 C 0.33568 0.87198 0.2924 0.0
H1115 H 0.31517 0.88752 0.32284 0.0
C1116 C 0.31342 0.85235 0.28594 0.0
C1117 C 0.33642 0.88455 0.30601 0.0
C1118 C 0.36001 0.90513 0.31375 0.0
C1119 C 0.29175 0.84531 0.29254 0.0
C1120 C 0.29238 0.85836 0.30591 0.0
C1121 C 0.31473 0.87764 0.31255 0.0
C1122 C 0.26994 0.85264 0.31298 0.0
C1123 C 0.26838 0.82386 0.28524 0.0
C1124 C 0.25179 0.85573 0.30555 0.0
C1125 C 0.23095 0.85107 0.31235 0.0
C1126 C 0.22782 0.84322 0.32675 0.0
C1127 C 0.24602 0.84002 0.33415 0.0
C1128 C 0.26696 0.84484 0.32735 0.0
H1129 H 0.27187 0.8123 0.2773 0.0
H1130 H 0.25718 0.81259 0.29374 0.0
H1131 H 0.25766 0.83047 0.27892 0.0
H1132 H 0.25389 0.86209 0.29455 0.0
H1133 H 0.21734 0.85373 0.30629 0.0
H1134 H 0.06762 0.47674 0.26459 0.0
H1135 H 0.08276 0.45154 0.27477 0.0
H1136 H 0.05676 0.45703 0.31701 0.0
H1137 H 0.04065 0.4815 0.30671 0.0
H1138 H 0.1179 0.46673 0.2986 0.0
H1139 H 0.0331 0.38477 0.31012 0.0
H1140 H 0.03297 0.40646 0.29814 0.0
H1141 H 0.03651 0.41279 0.31809 0.0
C1142 C 0.06447 0.47203 0.27591 0.0
C1143 C 0.05282 0.48105 0.28483 0.0
C1144 C 0.07334 0.4578 0.28175 0.0
C1145 C 0.07069 0.45225 0.29659 0.0
C1146 C 0.05862 0.46075 0.30544 0.0
H1147 H 0.12813 0.38365 0.35403 0.0
H1148 H 0.10926 0.40589 0.34392 0.0
C1149 C 0.04965 0.47494 0.29959 0.0
C1150 C 0.0822 0.43914 0.30306 0.0
H1151 H 0.07047 0.38835 0.31986 0.0
C1152 C 0.10752 0.44953 0.30318 0.0
C1153 C 0.0686 0.41679 0.3091 0.0
C1154 C 0.04126 0.4044 0.30877 0.0
C1155 C 0.11967 0.43825 0.30929 0.0
C1156 C 0.10607 0.41588 0.31527 0.0
C1157 C 0.08079 0.40554 0.31526 0.0
C1158 C 0.11777 0.40274 0.32136 0.0
C1159 C 0.147 0.45051 0.30951 0.0
C1160 C 0.12865 0.39356 0.31197 0.0
C1161 C 0.13943 0.38087 0.31768 0.0
C1162 C 0.13946 0.37709 0.3329 0.0
C1163 C 0.12853 0.38635 0.34228 0.0
C1164 C 0.11768 0.39898 0.33653 0.0
H1165 H 0.15522 0.47001 0.30776 0.0
H1166 H 0.15535 0.44893 0.32027 0.0
H1167 H 0.1516 0.44156 0.30042 0.0
H1168 H 0.12857 0.39601 0.30018 0.0
H1169 H 0.14759 0.3739 0.31013 0.0
H1170 H 0.4 0.52884 0.28353 0.0
H1171 H 0.36511 0.50537 0.29727 0.0
H1172 H 0.36298 0.43953 0.28102 0.0
H1173 H 0.39869 0.46302 0.26781 0.0
H1174 H 0.3195 0.47029 0.28703 0.0
H1175 H 0.36146 0.43313 0.32532 0.0
H1176 H 0.37917 0.45742 0.31421 0.0
H1177 H 0.36322 0.42647 0.30601 0.0
C1178 C 0.39242 0.50941 0.28308 0.0
C1179 C 0.40238 0.49786 0.2747 0.0
C1180 C 0.37233 0.496 0.29086 0.0
C1181 C 0.3617 0.47075 0.29041 0.0
C1182 C 0.37124 0.45907 0.28183 0.0
H1183 H 0.23249 0.35423 0.31873 0.0
H1184 H 0.26976 0.38075 0.30783 0.0
C1185 C 0.39146 0.4725 0.27411 0.0
C1186 C 0.34016 0.45663 0.29857 0.0
H1187 H 0.31834 0.41566 0.32442 0.0
C1188 C 0.31933 0.45853 0.29531 0.0
C1189 C 0.34001 0.44138 0.30943 0.0
C1190 C 0.36224 0.43963 0.31408 0.0
C1191 C 0.29812 0.44505 0.30229 0.0
C1192 C 0.29782 0.4294 0.31286 0.0
C1193 C 0.3187 0.42771 0.31629 0.0
C1194 C 0.27555 0.41366 0.31989 0.0
C1195 C 0.27591 0.44703 0.29804 0.0
C1196 C 0.26664 0.42344 0.33042 0.0
C1197 C 0.2453 0.40828 0.33678 0.0
C1198 C 0.23253 0.38314 0.33263 0.0
C1199 C 0.24175 0.3735 0.32216 0.0
C1200 C 0.2631 0.3886 0.31592 0.0
H1201 H 0.27804 0.45739 0.2882 0.0
H1202 H 0.25959 0.42871 0.29552 0.0
H1203 H 0.27261 0.45638 0.30757 0.0
H1204 H 0.27617 0.44277 0.33369 0.0
H1205 H 0.23869 0.41628 0.3448 0.0
H1206 H 0.45467 0.85973 0.27685 0.0
H1207 H 0.48504 0.85098 0.28816 0.0
H1208 H 0.54254 0.9194 0.27685 0.0
H1209 H 0.51235 0.92886 0.2662 0.0
H1210 H 0.52001 0.84611 0.27532 0.0
H1211 H 0.56311 0.92187 0.32045 0.0
H1212 H 0.53465 0.91356 0.30979 0.0
H1213 H 0.56303 0.93164 0.30218 0.0
C1214 C 0.47376 0.87314 0.27701 0.0
C1215 C 0.48102 0.89507 0.27068 0.0
C1216 C 0.49111 0.868 0.28337 0.0
C1217 C 0.51607 0.88468 0.28356 0.0
C1218 C 0.5234 0.90648 0.27713 0.0
H1219 H 0.64615 0.87875 0.31341 0.0
H1220 H 0.61747 0.88908 0.30113 0.0
C1221 C 0.50607 0.9117 0.27085 0.0
C1222 C 0.53438 0.8789 0.2901 0.0
H1223 H 0.58285 0.89903 0.31663 0.0
C1224 C 0.53369 0.85765 0.28438 0.0
C1225 C 0.55227 0.894 0.30192 0.0
C1226 C 0.55323 0.91642 0.30905 0.0
C1227 C 0.55047 0.85116 0.2901 0.0
C1228 C 0.56831 0.86626 0.30188 0.0
C1229 C 0.5692 0.88761 0.30752 0.0
C1230 C 0.58558 0.85966 0.30892 0.0
C1231 C 0.54916 0.82832 0.28344 0.0
C1232 C 0.5771 0.83979 0.3174 0.0
C1233 C 0.59339 0.83392 0.32449 0.0
C1234 C 0.61851 0.84781 0.32321 0.0
C1235 C 0.62693 0.86763 0.31458 0.0
C1236 C 0.6106 0.8736 0.30759 0.0
H1237 H 0.53788 0.82149 0.27249 0.0
H1238 H 0.56767 0.83147 0.28196 0.0
H1239 H 0.54091 0.81402 0.29115 0.0
H1240 H 0.55788 0.82898 0.3187 0.0
H1241 H 0.58625 0.81854 0.33103 0.0
H1242 H 0.08949 0.56397 0.30094 0.0
H1243 H 0.10497 0.6042 0.31386 0.0
H1244 H 0.04102 0.605 0.29576 0.0
H1245 H 0.02476 0.56418 0.28343 0.0
H1246 H 0.11666 0.644 0.30027 0.0
H1247 H 0.04741 0.63098 0.33857 0.0
H1248 H 0.04896 0.60593 0.32955 0.0
H1249 H 0.03429 0.6197 0.31965 0.0
C1250 C 0.07832 0.57234 0.30008 0.0
C1251 C 0.05583 0.5608 0.29117 0.0
C1252 C 0.08731 0.59544 0.30738 0.0
C1253 C 0.07405 0.6075 0.30591 0.0
C1254 C 0.05134 0.59584 0.29732 0.0
H1255 H 0.13235 0.76154 0.31072 0.0
H1256 H 0.1151 0.71832 0.30352 0.0
C1257 C 0.04223 0.57264 0.2901 0.0
C1258 C 0.08502 0.63309 0.31214 0.0
H1259 H 0.07469 0.67197 0.33371 0.0
C1260 C 0.1076 0.65007 0.30772 0.0
C1261 C 0.07332 0.64094 0.32198 0.0
C1262 C 0.04978 0.62339 0.32784 0.0
C1263 C 0.11847 0.67478 0.31251 0.0
C1264 C 0.10613 0.6828 0.32168 0.0
C1265 C 0.08394 0.66578 0.32651 0.0
C1266 C 0.11585 0.70885 0.32615 0.0
C1267 C 0.14314 0.69204 0.30776 0.0
C1268 C 0.12123 0.71771 0.34129 0.0
C1269 C 0.1309 0.74241 0.34547 0.0
C1270 C 0.13529 0.75863 0.33455 0.0
C1271 C 0.12943 0.74958 0.3194 0.0
C1272 C 0.11967 0.7249 0.31525 0.0
H1273 H 0.15306 0.68251 0.30464 0.0
H1274 H 0.14072 0.70047 0.29784 0.0
H1275 H 0.15453 0.70671 0.31678 0.0
H1276 H 0.11827 0.70555 0.34986 0.0
H1277 H 0.13515 0.7488 0.35724 0.0
H1278 H 0.81405 0.09882 0.42268 0.0
H1279 H 0.78377 0.05823 0.41125 0.0
H1280 H 0.84096 0.04839 0.39519 0.0
H1281 H 0.87142 0.08874 0.40681 0.0
H1282 H 0.79838 0.03425 0.37366 0.0
H1283 H 0.77493 0.99465 0.42782 0.0
H1284 H 0.77405 0.02208 0.42584 0.0
H1285 H 0.8026 0.02274 0.42619 0.0
C1286 C 0.8202 0.08798 0.41677 0.0
C1287 C 0.84517 0.09696 0.41574 0.0
C1288 C 0.80288 0.06484 0.41024 0.0
C1289 C 0.81022 0.05029 0.40256 0.0
C1290 C 0.835 0.0594 0.4011 0.0
H1291 H 0.74522 0.90729 0.35647 0.0
H1292 H 0.77155 0.9493 0.36681 0.0
C1293 C 0.85235 0.08251 0.40768 0.0
C1294 C 0.79211 0.02535 0.39623 0.0
H1295 H 0.75305 0.96895 0.40596 0.0
C1296 C 0.7884 0.01995 0.38069 0.0
C1297 C 0.77909 0.00686 0.40548 0.0
C1298 C 0.78289 0.01169 0.42227 0.0
C1299 C 0.77193 0.99643 0.3741 0.0
C1300 C 0.75934 0.97776 0.38336 0.0
C1301 C 0.76275 0.98329 0.3989 0.0
C1302 C 0.74322 0.9522 0.37717 0.0
C1303 C 0.76798 0.99187 0.3573 0.0
C1304 C 0.71871 0.93959 0.38 0.0
C1305 C 0.7036 0.91539 0.37424 0.0
C1306 C 0.71279 0.90339 0.36558 0.0
C1307 C 0.73746 0.91601 0.36298 0.0
C1308 C 0.75254 0.94012 0.36879 0.0
H1309 H 0.77297 0.00881 0.35199 0.0
H1310 H 0.77967 0.98479 0.35341 0.0
H1311 H 0.74872 0.9783 0.3534 0.0
H1312 H 0.71123 0.94854 0.38656 0.0
H1313 H 0.6847 0.9062 0.37646 0.0
H1314 H 0.9278 0.7364 0.42655 0.0
H1315 H 0.9647 0.7462 0.41459 0.0
H1316 H 0.98095 0.8202 0.41366 0.0
H1317 H 0.94363 0.8102 0.42512 0.0
H1318 H 0.98753 0.80467 0.388 0.0
H1319 H 0.0339 0.78095 0.43235 0.0
H1320 H 0.00447 0.75588 0.4256 0.0
H1321 H 0.00697 0.78271 0.43505 0.0
C1322 C 0.93939 0.75479 0.42388 0.0
C1323 C 0.93292 0.77257 0.42678 0.0
C1324 C 0.96056 0.76043 0.41714 0.0
C1325 C 0.97595 0.78409 0.41348 0.0
C1326 C 0.96946 0.80184 0.4164 0.0
H1327 H 0.12353 0.8367 0.38973 0.0
H1328 H 0.08754 0.82805 0.40232 0.0
C1329 C 0.94813 0.79613 0.42293 0.0
C1330 C -0.00169 0.7902 0.4061 0.0
H1331 H 0.05068 0.78748 0.40898 0.0
C1332 C 0.0014 0.80104 0.39265 0.0
C1333 C 0.01667 0.78586 0.41225 0.0
C1334 C 0.01549 0.77596 0.42718 0.0
C1335 C 0.02208 0.80736 0.38512 0.0
C1336 C 0.03985 0.80191 0.39088 0.0
C1337 C 0.03695 0.79139 0.40444 0.0
C1338 C 0.06169 0.80719 0.38313 0.0
C1339 C 0.02488 0.82035 0.37125 0.0
C1340 C 0.05922 0.79809 0.3682 0.0
C1341 C 0.07979 0.80336 0.3609 0.0
C1342 C 0.10328 0.8174 0.36847 0.0
C1343 C 0.10571 0.82595 0.38354 0.0
C1344 C 0.08513 0.82096 0.39077 0.0
H1345 H 0.01431 0.82992 0.37113 0.0
H1346 H 0.04426 0.83377 0.37032 0.0
H1347 H 0.01782 0.80691 0.36127 0.0
H1348 H 0.04136 0.78675 0.36219 0.0
H1349 H 0.07724 0.79615 0.34936 0.0
H1350 H 0.29872 0.20976 0.41765 0.0
H1351 H 0.28293 0.23387 0.40635 0.0
H1352 H 0.2198 0.1684 0.38576 0.0
H1353 H 0.23479 0.14417 0.39751 0.0
H1354 H 0.27052 0.23658 0.37659 0.0
H1355 H 0.18996 0.20205 0.40867 0.0
H1356 H 0.21516 0.19731 0.4134 0.0
H1357 H 0.19238 0.17869 0.39829 0.0
C1358 C 0.2814 0.20051 0.41079 0.0
C1359 C 0.26795 0.17505 0.40856 0.0
C1360 C 0.2725 0.2143 0.40427 0.0
C1361 C 0.25002 0.20286 0.39545 0.0
C1362 C 0.23697 0.17753 0.39277 0.0
H1363 H 0.16477 0.25734 0.35007 0.0
H1364 H 0.18121 0.23192 0.35831 0.0
C1365 C 0.24575 0.16374 0.39934 0.0
C1366 C 0.23999 0.21739 0.38922 0.0
H1367 H 0.19164 0.22671 0.38955 0.0
C1368 C 0.2533 0.23448 0.37944 0.0
C1369 C 0.21752 0.21456 0.39299 0.0
C1370 C 0.20301 0.19733 0.40402 0.0
C1371 C 0.2446 0.24871 0.37319 0.0
C1372 C 0.22217 0.24585 0.37696 0.0
C1373 C 0.20877 0.22866 0.38664 0.0
C1374 C 0.21275 0.26128 0.3715 0.0
C1375 C 0.25933 0.26657 0.36252 0.0
C1376 C 0.22499 0.28607 0.37635 0.0
C1377 C 0.21562 0.30057 0.37178 0.0
C1378 C 0.19382 0.29052 0.36225 0.0
C1379 C 0.18163 0.26564 0.35737 0.0
C1380 C 0.19097 0.2511 0.36205 0.0
H1381 H 0.27312 0.26271 0.35817 0.0
H1382 H 0.24731 0.26634 0.35296 0.0
H1383 H 0.26902 0.28511 0.36843 0.0
H1384 H 0.24163 0.29413 0.38386 0.0
H1385 H 0.22548 0.31966 0.37575 0.0
H1386 H 0.61708 0.51911 0.77055 0.0
H1387 H 0.65407 0.54356 0.75865 0.0
H1388 H 0.61101 0.52789 0.71637 0.0
H1389 H 0.57383 0.50402 0.72828 0.0
H1390 H 0.67066 0.5271 0.73536 0.0
H1391 H 0.6554 0.60156 0.7192 0.0
H1392 H 0.63839 0.58124 0.73261 0.0
H1393 H 0.6308 0.57158 0.71297 0.0
C1394 C 0.61541 0.52127 0.75878 0.0
C1395 C 0.59248 0.50968 0.75038 0.0
C1396 C 0.63659 0.53509 0.75198 0.0
C1397 C 0.63527 0.53774 0.73666 0.0
C1398 C 0.61242 0.52641 0.72825 0.0
H1399 H 0.74811 0.6111 0.67725 0.0
H1400 H 0.7093 0.58606 0.68736 0.0
C1401 C 0.59121 0.51258 0.73505 0.0
C1402 C 0.65793 0.55138 0.72941 0.0
H1403 H 0.68917 0.60066 0.71021 0.0
C1404 C 0.67474 0.54321 0.72988 0.0
C1405 C 0.66311 0.5723 0.72219 0.0
C1406 C 0.64611 0.58238 0.72179 0.0
C1407 C 0.69658 0.55535 0.7233 0.0
C1408 C 0.70192 0.57644 0.71626 0.0
C1409 C 0.68498 0.58445 0.7156 0.0
C1410 C 0.72542 0.59099 0.71004 0.0
C1411 C 0.71365 0.54535 0.7238 0.0
C1412 C 0.74728 0.60214 0.71946 0.0
C1413 C 0.76944 0.61641 0.71375 0.0
C1414 C 0.77019 0.61994 0.69848 0.0
C1415 C 0.74822 0.60868 0.68904 0.0
C1416 C 0.72602 0.59442 0.6948 0.0
H1417 H 0.70413 0.52592 0.72586 0.0
H1418 H 0.72217 0.5473 0.71321 0.0
H1419 H 0.72837 0.55558 0.73303 0.0
H1420 H 0.74719 0.60009 0.73131 0.0
H1421 H 0.78595 0.62489 0.72138 0.0
H1422 H 0.52092 0.08977 0.7369 0.0
H1423 H 0.49261 0.1009 0.72518 0.0
H1424 H 0.4846 0.12702 0.76834 0.0
H1425 H 0.51363 0.11687 0.78009 0.0
H1426 H 0.44476 0.0844 0.7296 0.0
H1427 H 0.49965 0.18389 0.74426 0.0
H1428 H 0.51234 0.16428 0.74598 0.0
H1429 H 0.49458 0.16662 0.76004 0.0
C1430 C 0.51345 0.09824 0.74388 0.0
C1431 C 0.51968 0.10254 0.75944 0.0
C1432 C 0.49712 0.10442 0.73717 0.0
C1433 C 0.48676 0.11513 0.74585 0.0
C1434 C 0.49274 0.11924 0.76138 0.0
H1435 H 0.37945 0.15891 0.72577 0.0
H1436 H 0.40828 0.14876 0.73789 0.0
C1437 C 0.50911 0.11312 0.76811 0.0
C1438 C 0.46918 0.12134 0.73866 0.0
H1439 H 0.45885 0.16826 0.73376 0.0
C1440 C 0.44789 0.10275 0.73045 0.0
C1441 C 0.47328 0.1453 0.7398 0.0
C1442 C 0.4963 0.16623 0.74787 0.0
C1443 C 0.43044 0.10741 0.72353 0.0
C1444 C 0.43453 0.13134 0.72469 0.0
C1445 C 0.45575 0.14992 0.73293 0.0
C1446 C 0.4171 0.1375 0.71728 0.0
C1447 C 0.40755 0.08662 0.71524 0.0
C1448 C 0.41275 0.13482 0.70166 0.0
C1449 C 0.39634 0.14066 0.69468 0.0
C1450 C 0.38397 0.14933 0.70319 0.0
C1451 C 0.38857 0.1522 0.71886 0.0
C1452 C 0.40507 0.14644 0.72582 0.0
H1453 H 0.40448 0.0688 0.71836 0.0
H1454 H 0.39139 0.08818 0.71747 0.0
H1455 H 0.40913 0.08702 0.70306 0.0
H1456 H 0.42217 0.12834 0.69486 0.0
H1457 H 0.39335 0.13831 0.6826 0.0
H1458 H 0.96587 0.42762 0.75288 0.0
H1459 H 0.95214 0.38617 0.74232 0.0
H1460 H 0.88549 0.38016 0.72288 0.0
H1461 H 0.89868 0.4212 0.73364 0.0
H1462 H 0.90698 0.34351 0.74807 0.0
H1463 H 0.91219 0.35799 0.68792 0.0
H1464 H 0.92864 0.38241 0.70262 0.0
H1465 H 0.89666 0.37055 0.69777 0.0
C1466 C 0.9483 0.41747 0.74634 0.0
C1467 C 0.93342 0.42776 0.74405 0.0
C1468 C 0.94057 0.39388 0.74027 0.0
C1469 C 0.91798 0.38032 0.73169 0.0
C1470 C 0.9032 0.39057 0.72923 0.0
H1471 H 0.82834 0.23627 0.68795 0.0
H1472 H 0.84654 0.27851 0.69821 0.0
C1473 C 0.91083 0.41406 0.73535 0.0
C1474 C 0.90913 0.35495 0.72594 0.0
H1475 H 0.89133 0.31717 0.69379 0.0
C1476 C 0.90376 0.33771 0.73621 0.0
C1477 C 0.90488 0.34759 0.71048 0.0
C1478 C 0.91106 0.36559 0.69902 0.0
C1479 C 0.89347 0.31302 0.73141 0.0
C1480 C 0.88898 0.30559 0.71592 0.0
C1481 C 0.89474 0.32294 0.70566 0.0
C1482 C 0.87786 0.27983 0.71009 0.0
C1483 C 0.88672 0.29506 0.74294 0.0
C1484 C 0.88952 0.26664 0.71334 0.0
C1485 C 0.8791 0.24244 0.70758 0.0
C1486 C 0.85696 0.23111 0.69831 0.0
C1487 C 0.84539 0.24443 0.69505 0.0
C1488 C 0.85577 0.26858 0.70088 0.0
H1489 H 0.8855 0.30285 0.75395 0.0
H1490 H 0.86902 0.27839 0.73931 0.0
H1491 H 0.90089 0.28984 0.74443 0.0
H1492 H 0.90684 0.27515 0.72019 0.0
H1493 H 0.88857 0.23275 0.71023 0.0
H1494 H 0.15595 0.92311 0.58606 0.0
H1495 H 0.18713 0.96317 0.59752 0.0
H1496 H 0.18285 0.93468 0.6402 0.0
H1497 H 0.15229 0.89426 0.62869 0.0
H1498 H 0.18249 0.99079 0.62008 0.0
H1499 H 0.25592 0.9713 0.63707 0.0
H1500 H 0.22987 0.95093 0.62407 0.0
H1501 H 0.22726 0.95154 0.6438 0.0
C1502 C 0.16196 0.92523 0.59783 0.0
C1503 C 0.15174 0.90542 0.60644 0.0
C1504 C 0.17965 0.94819 0.60438 0.0
C1505 C 0.18754 0.95183 0.61966 0.0
C1506 C 0.17736 0.93217 0.62832 0.0
H1507 H 0.28227 0.07823 0.68101 0.0
H1508 H 0.25398 0.03755 0.669 0.0
C1509 C 0.15969 0.90914 0.62177 0.0
C1510 C 0.20563 0.97647 0.62658 0.0
H1511 H 0.26184 0.00969 0.64615 0.0
C1512 C 0.19991 0.99497 0.6257 0.0
C1513 C 0.2283 0.98183 0.63393 0.0
C1514 C 0.23587 0.96292 0.63469 0.0
C1515 C 0.21609 0.01863 0.63217 0.0
C1516 C 0.23871 0.02395 0.63955 0.0
C1517 C 0.24446 0.00549 0.64046 0.0
C1518 C 0.25645 0.04854 0.64663 0.0
C1519 C 0.20865 0.03762 0.63137 0.0
C1520 C 0.26749 0.06811 0.63796 0.0
C1521 C 0.28372 0.09142 0.64477 0.0
C1522 C 0.28918 0.09553 0.66038 0.0
C1523 C 0.2784 0.07575 0.66898 0.0
C1524 C 0.26225 0.05247 0.66215 0.0
H1525 H 0.18877 0.02943 0.62824 0.0
H1526 H 0.21362 0.04882 0.64224 0.0
H1527 H 0.21838 0.04981 0.62282 0.0
H1528 H 0.2635 0.06533 0.62593 0.0
H1529 H 0.29178 0.10622 0.63782 0.0
H1530 H 0.06453 0.25539 0.59918 0.0
H1531 H 0.02719 0.24424 0.61092 0.0
H1532 H 0.02435 0.1787 0.62317 0.0
H1533 H 0.0612 0.18921 0.61107 0.0
H1534 H 0.97936 0.19753 0.6044 0.0
H1535 H 0.02154 0.2152 0.66302 0.0
H1536 H 0.03918 0.22852 0.64771 0.0
H1537 H 0.02812 0.19719 0.65016 0.0
C1538 C 0.05585 0.23845 0.6042 0.0
C1539 C 0.06602 0.22326 0.6042 0.0
C1540 C 0.03459 0.2322 0.61099 0.0
C1541 C 0.02321 0.2108 0.61805 0.0
C1542 C 0.03309 0.19548 0.61798 0.0
H1543 H 0.89862 0.14903 0.6702 0.0
H1544 H 0.93502 0.15792 0.65791 0.0
C1545 C 0.05424 0.20161 0.6111 0.0
C1546 C 0.00083 0.20436 0.62537 0.0
H1547 H 0.979 0.19877 0.65944 0.0
C1548 C 0.97923 0.19782 0.61643 0.0
C1549 C 0.00074 0.20457 0.64105 0.0
C1550 C 0.02362 0.21188 0.65113 0.0
C1551 C 0.95741 0.19125 0.62276 0.0
C1552 C 0.95738 0.1919 0.63849 0.0
C1553 C 0.97901 0.19829 0.6474 0.0
C1554 C 0.93523 0.18646 0.64592 0.0
C1555 C 0.93452 0.18314 0.61247 0.0
C1556 C 0.92345 0.1998 0.6435 0.0
C1557 C 0.90258 0.19465 0.6504 0.0
C1558 C 0.89319 0.17627 0.66011 0.0
C1559 C 0.90532 0.16327 0.66279 0.0
C1560 C 0.92614 0.16834 0.65577 0.0
H1561 H 0.93589 0.17643 0.60115 0.0
H1562 H 0.91833 0.16854 0.61696 0.0
H1563 H 0.93164 0.19876 0.61128 0.0
H1564 H 0.93048 0.21434 0.6363 0.0
H1565 H 0.89388 0.2052 0.64817 0.0
H1566 H 0.7375 0.8059 0.59523 0.0
H1567 H 0.7546 0.78367 0.60745 0.0
H1568 H 0.73787 0.80226 0.65006 0.0
H1569 H 0.72002 0.82399 0.63785 0.0
H1570 H 0.79378 0.80315 0.6302 0.0
H1571 H 0.70923 0.72835 0.64853 0.0
H1572 H 0.70872 0.74732 0.63454 0.0
H1573 H 0.71526 0.75847 0.65396 0.0
C1574 C 0.73702 0.80487 0.60716 0.0
C1575 C 0.72723 0.81653 0.61557 0.0
C1576 C 0.74698 0.79235 0.61413 0.0
C1577 C 0.74725 0.79114 0.62961 0.0
C1578 C 0.73747 0.80269 0.63806 0.0
H1579 H 0.80246 0.72123 0.68809 0.0
H1580 H 0.78585 0.7456 0.67831 0.0
C1581 C 0.7275 0.81526 0.6311 0.0
C1582 C 0.75855 0.77845 0.63689 0.0
H1583 H 0.7462 0.7299 0.65629 0.0
C1584 C 0.78341 0.78714 0.63592 0.0
C1585 C 0.74494 0.75768 0.64439 0.0
C1586 C 0.71801 0.74721 0.64536 0.0
C1587 C 0.79507 0.77554 0.64225 0.0
C1588 C 0.78137 0.7545 0.6495 0.0
C1589 C 0.7566 0.74606 0.65071 0.0
C1590 C 0.79219 0.74049 0.65547 0.0
C1591 C 0.82198 0.786 0.64123 0.0
C1592 C 0.80108 0.72947 0.64581 0.0
C1593 C 0.81059 0.71556 0.65134 0.0
C1594 C 0.81123 0.71232 0.66663 0.0
C1595 C 0.80231 0.72343 0.67627 0.0
C1596 C 0.79278 0.73732 0.67072 0.0
H1597 H 0.83097 0.80538 0.63905 0.0
H1598 H 0.83113 0.78443 0.65166 0.0
H1599 H 0.82465 0.77583 0.63187 0.0
H1600 H 0.80034 0.73132 0.63395 0.0
H1601 H 0.81718 0.70717 0.64359 0.0
H1602 H 0.06738 0.79505 0.60066 0.0
H1603 H 0.03106 0.77134 0.61336 0.0
H1604 H 0.03317 0.8371 0.62978 0.0
H1605 H 0.06864 0.86078 0.61655 0.0
H1606 H 0.02532 0.77271 0.64304 0.0
H1607 H 0.96329 0.79637 0.61186 0.0
H1608 H 0.99218 0.80279 0.60575 0.0
H1609 H 0.99088 0.82236 0.62033 0.0
C1610 C 0.05988 0.80444 0.60677 0.0
C1611 C 0.07093 0.82984 0.60754 0.0
C1612 C 0.03924 0.79088 0.61412 0.0
C1613 C 0.02918 0.80241 0.62234 0.0
C1614 C 0.04029 0.82775 0.62325 0.0
H1615 H 0.90795 0.74796 0.67761 0.0
H1616 H 0.94539 0.77396 0.66632 0.0
C1617 C 0.06082 0.8413 0.61585 0.0
C1618 C 0.00743 0.78799 0.63025 0.0
H1619 H 0.94904 0.77523 0.63323 0.0
C1620 C 0.00863 0.77321 0.64086 0.0
C1621 C 0.98565 0.78869 0.62741 0.0
C1622 C 0.98277 0.80322 0.61562 0.0
C1623 C 0.9887 0.75923 0.64875 0.0
C1624 C 0.96701 0.76 0.64592 0.0
C1625 C 0.96582 0.7749 0.63544 0.0
C1626 C 0.94489 0.7444 0.65312 0.0
C1627 C 0.99094 0.74381 0.66013 0.0
C1628 C 0.93226 0.71928 0.64933 0.0
C1629 C 0.91088 0.70446 0.65564 0.0
C1630 C 0.90174 0.71446 0.66593 0.0
C1631 C 0.91456 0.73967 0.66979 0.0
C1632 C 0.9359 0.75455 0.66335 0.0
H1633 H 0.01022 0.74905 0.66326 0.0
H1634 H 0.98273 0.74524 0.67037 0.0
H1635 H 0.98095 0.72455 0.6554 0.0
H1636 H 0.93878 0.71117 0.64132 0.0
H1637 H 0.9015 0.68513 0.65239 0.0
H1638 H 0.14485 0.23784 0.62699 0.0
H1639 H 0.17498 0.22861 0.63826 0.0
H1640 H 0.18331 0.20392 0.59475 0.0
H1641 H 0.15273 0.21243 0.58345 0.0
H1642 H 0.17823 0.17253 0.61618 0.0
H1643 H 0.24888 0.26707 0.63642 0.0
H1644 H 0.21944 0.2579 0.64249 0.0
H1645 H 0.22342 0.25991 0.62297 0.0
C1646 C 0.15299 0.23032 0.61983 0.0
C1647 C 0.14646 0.22598 0.60431 0.0
C1648 C 0.17041 0.22531 0.62627 0.0
C1649 C 0.18169 0.21596 0.61731 0.0
C1650 C 0.17499 0.21133 0.60185 0.0
H1651 H 0.30985 0.20536 0.64492 0.0
H1652 H 0.28087 0.21493 0.63229 0.0
C1653 C 0.15762 0.21635 0.59541 0.0
C1654 C 0.20001 0.2104 0.62406 0.0
H1655 H 0.25536 0.23582 0.64473 0.0
C1656 C 0.19514 0.18637 0.62238 0.0
C1657 C 0.22221 0.22855 0.63196 0.0
C1658 C 0.22899 0.25485 0.63348 0.0
C1659 C 0.21162 0.17991 0.62865 0.0
C1660 C 0.23341 0.1979 0.63702 0.0
C1661 C 0.23855 0.22203 0.63842 0.0
C1662 C 0.25091 0.19196 0.64458 0.0
C1663 C 0.20568 0.15392 0.62614 0.0
C1664 C 0.24374 0.17609 0.65579 0.0
C1665 C 0.2602 0.17057 0.66301 0.0
C1666 C 0.28427 0.18094 0.65925 0.0
C1667 C 0.29146 0.19701 0.64809 0.0
C1668 C 0.27495 0.20253 0.64086 0.0
H1669 H 0.19199 0.14404 0.61634 0.0
H1670 H 0.22228 0.15288 0.6244 0.0
H1671 H 0.198 0.14451 0.63611 0.0
H1672 H 0.22543 0.16811 0.65904 0.0
H1673 H 0.25403 0.15823 0.6716 0.0
H1674 H 0.7185 0.88482 0.63619 0.0
H1675 H 0.73375 0.9268 0.64638 0.0
H1676 H 0.74884 0.95042 0.60244 0.0
H1677 H 0.73402 0.90874 0.59221 0.0
H1678 H 0.78138 0.96711 0.64451 0.0
H1679 H 0.70868 0.98055 0.61739 0.0
H1680 H 0.70496 0.95087 0.61905 0.0
H1681 H 0.72222 0.96888 0.60495 0.0
C1682 C 0.72506 0.89897 0.62871 0.0
C1683 C 0.72486 0.89344 0.61338 0.0
C1684 C 0.73366 0.92287 0.63453 0.0
C1685 C 0.74203 0.94156 0.6251 0.0
C1686 C 0.74192 0.93614 0.60982 0.0
H1687 H 0.80629 0.09773 0.63761 0.0
H1688 H 0.78979 0.05554 0.62752 0.0
C1689 C 0.7334 0.9123 0.604 0.0
C1690 C 0.7519 0.96693 0.6313 0.0
H1691 H 0.74351 0.01554 0.62967 0.0
C1692 C 0.77305 0.97769 0.64136 0.0
C1693 C 0.74102 0.98063 0.62704 0.0
C1694 C 0.71785 0.96964 0.61661 0.0
C1695 C 0.78391 0.00204 0.64712 0.0
C1696 C 0.773 0.01574 0.6429 0.0
C1697 C 0.75183 0.00496 0.63284 0.0
C1698 C 0.78307 0.04121 0.649 0.0
C1699 C 0.80725 0.01302 0.6574 0.0
C1700 C 0.78442 0.04699 0.66437 0.0
C1701 C 0.79387 0.07101 0.67017 0.0
C1702 C 0.80195 0.08968 0.66067 0.0
C1703 C 0.80028 0.08378 0.64523 0.0
C1704 C 0.79085 0.05971 0.63944 0.0
H1705 H 0.81659 0.00232 0.6563 0.0
H1706 H 0.81996 0.03193 0.65511 0.0
H1707 H 0.80304 0.01335 0.66913 0.0
H1708 H 0.77801 0.03289 0.67189 0.0
H1709 H 0.79473 0.07487 0.6821 0.0
H1710 H 0.48242 0.43112 0.75633 0.0
H1711 H 0.45337 0.38972 0.7456 0.0
H1712 H 0.51213 0.38262 0.72952 0.0
H1713 H 0.5414 0.42355 0.74075 0.0
H1714 H 0.44247 0.36827 0.71666 0.0
H1715 H 0.47918 0.32432 0.75324 0.0
H1716 H 0.48757 0.35572 0.7568 0.0
H1717 H 0.5016 0.34679 0.74302 0.0
C1718 C 0.48919 0.42067 0.75061 0.0
C1719 C 0.51428 0.43059 0.74953 0.0
C1720 C 0.47255 0.39709 0.74441 0.0
C1721 C 0.48065 0.38294 0.73702 0.0
C1722 C 0.50555 0.39304 0.73546 0.0
H1723 H 0.41257 0.23902 0.69122 0.0
H1724 H 0.44 0.28089 0.70165 0.0
C1725 C 0.52223 0.41658 0.74172 0.0
C1726 C 0.46306 0.35757 0.73104 0.0
H1727 H 0.44981 0.29909 0.7331 0.0
C1728 C 0.44396 0.35312 0.72031 0.0
C1729 C 0.465 0.33783 0.73589 0.0
C1730 C 0.48429 0.34131 0.74797 0.0
C1731 C 0.4271 0.32948 0.71403 0.0
C1732 C 0.42931 0.30985 0.71872 0.0
C1733 C 0.44826 0.31425 0.72951 0.0
C1734 C 0.4124 0.28457 0.71237 0.0
C1735 C 0.40737 0.32568 0.70219 0.0
C1736 C 0.38785 0.27273 0.71511 0.0
C1737 C 0.37209 0.24871 0.70923 0.0
C1738 C 0.38065 0.23616 0.70049 0.0
C1739 C 0.40533 0.24813 0.69786 0.0
C1740 C 0.42106 0.27206 0.70381 0.0
H1741 H 0.41094 0.34295 0.6978 0.0
H1742 H 0.40562 0.31282 0.69275 0.0
H1743 H 0.3897 0.31773 0.70702 0.0
H1744 H 0.38094 0.28202 0.72188 0.0
H1745 H 0.35322 0.24003 0.71148 0.0
H1746 H 0.57796 0.08696 0.73661 0.0
H1747 H 0.61451 0.09615 0.72451 0.0
H1748 H 0.65717 0.11985 0.7674 0.0
H1749 H 0.62074 0.11098 0.77961 0.0
H1750 H 0.65764 0.14132 0.72558 0.0
H1751 H 0.67568 0.07208 0.74837 0.0
H1752 H 0.64679 0.07086 0.74898 0.0
H1753 H 0.67228 0.09128 0.76215 0.0
C1754 C 0.59512 0.0942 0.74349 0.0
C1755 C 0.59638 0.09824 0.7591 0.0
C1756 C 0.61598 0.09933 0.73655 0.0
C1757 C 0.63852 0.10841 0.74506 0.0
C1758 C 0.63988 0.11238 0.76064 0.0
H1759 H 0.78523 0.15384 0.72286 0.0
H1760 H 0.74898 0.14428 0.73538 0.0
C1761 C 0.61902 0.10728 0.7676 0.0
C1762 C 0.66071 0.11455 0.73754 0.0
H1763 H 0.70586 0.1008 0.7347 0.0
C1764 C 0.66814 0.1324 0.72752 0.0
C1765 C 0.67443 0.10297 0.74015 0.0
C1766 C 0.66685 0.08308 0.7504 0.0
C1767 C 0.68912 0.13924 0.72019 0.0
C1768 C 0.70278 0.12754 0.72271 0.0
C1769 C 0.69538 0.10974 0.73278 0.0
C1770 C 0.72476 0.13347 0.71499 0.0
C1771 C 0.69677 0.15932 0.71007 0.0
C1772 C 0.72318 0.13032 0.69935 0.0
C1773 C 0.7439 0.13586 0.69212 0.0
C1774 C 0.76663 0.14448 0.70041 0.0
C1775 C 0.76808 0.14734 0.7161 0.0
C1776 C 0.74735 0.14184 0.7233 0.0
H1777 H 0.68854 0.17075 0.71254 0.0
H1778 H 0.71689 0.17111 0.71115 0.0
H1779 H 0.6906 0.15127 0.69831 0.0
H1780 H 0.70585 0.12336 0.69271 0.0
H1781 H 0.74204 0.13324 0.68005 0.0
H1782 H 0.91811 0.51328 0.76256 0.0
H1783 H 0.9033 0.53691 0.74981 0.0
H1784 H 0.92967 0.52508 0.70912 0.0
H1785 H 0.94532 0.50196 0.72196 0.0
H1786 H 0.9405 0.57303 0.71562 0.0
H1787 H 0.84293 0.5079 0.71926 0.0
H1788 H 0.86096 0.51688 0.73701 0.0
H1789 H 0.86641 0.50015 0.72255 0.0
C1790 C 0.9211 0.51598 0.75096 0.0
C1791 C 0.93288 0.50574 0.74326 0.0
C1792 C 0.91232 0.5292 0.74364 0.0
C1793 C 0.91496 0.53228 0.72847 0.0
C1794 C 0.92725 0.52265 0.72081 0.0
H1795 H 0.83694 0.5913 0.67854 0.0
H1796 H 0.85293 0.56515 0.68596 0.0
C1797 C 0.93607 0.5094 0.72813 0.0
C1798 C 0.90508 0.54584 0.72073 0.0
H1799 H 0.85279 0.54758 0.7132 0.0
C1800 C 0.92129 0.56736 0.71492 0.0
C1801 C 0.87995 0.53812 0.71959 0.0
C1802 C 0.86151 0.51436 0.72479 0.0
C1803 C 0.91317 0.58202 0.70863 0.0
C1804 C 0.88829 0.57509 0.70841 0.0
C1805 C 0.87191 0.55298 0.71355 0.0
C1806 C 0.87908 0.59108 0.70358 0.0
C1807 C 0.93132 0.60484 0.70237 0.0
C1808 C 0.88824 0.61411 0.71121 0.0
C1809 C 0.87919 0.62906 0.70703 0.0
C1810 C 0.86062 0.62117 0.6952 0.0
C1811 C 0.85125 0.59794 0.68769 0.0
C1812 C 0.86038 0.58299 0.69188 0.0
H1813 H 0.94732 0.60368 0.69918 0.0
H1814 H 0.92289 0.60851 0.69243 0.0
H1815 H 0.93799 0.62042 0.711 0.0
H1816 H 0.90223 0.62044 0.72053 0.0
H1817 H 0.8867 0.64676 0.71314 0.0
H1818 H 0.4916 0.9559 0.2372 0.0
H1819 H 0.50038 0.97396 0.21353 0.0
H1820 H 0.42679 0.9234 0.19475 0.0
H1821 H 0.41785 0.90531 0.21846 0.0
H1822 H 0.49855 0.95126 0.18654 0.0
H1823 H 0.43527 0.98733 0.18274 0.0
H1824 H 0.44271 0.97787 0.19983 0.0
H1825 H 0.42076 0.95572 0.1855 0.0
C1826 C 0.47724 0.9487 0.22805 0.0
C1827 C 0.45403 0.92914 0.2297 0.0
C1828 C 0.48227 0.9591 0.21455 0.0
C1829 C 0.46419 0.95024 0.20241 0.0
C1830 C 0.44088 0.93092 0.20406 0.0
H1831 H 0.46429 0.9773 0.10914 0.0
H1832 H 0.45408 0.96214 0.13354 0.0
C1833 C 0.4358 0.92056 0.21761 0.0
C1834 C 0.47026 0.96029 0.1878 0.0
H1835 H 0.45466 0.98739 0.16101 0.0
C1836 C 0.48906 0.95931 0.18101 0.0
C1837 C 0.4578 0.97071 0.18056 0.0
C1838 C 0.43816 0.97321 0.18758 0.0
C1839 C 0.4955 0.96811 0.1671 0.0
C1840 C 0.48302 0.97847 0.15986 0.0
C1841 C 0.46419 0.97944 0.1666 0.0
C1842 C 0.48915 0.98818 0.14519 0.0
C1843 C 0.51524 0.96576 0.1601 0.0
C1844 C 0.51215 0.00808 0.1437 0.0
C1845 C 0.51809 0.01674 0.12976 0.0
C1846 C 0.50111 0.00566 0.11704 0.0
C1847 C 0.47792 0.98599 0.11865 0.0
C1848 C 0.47198 0.97741 0.13261 0.0
H1849 H 0.51903 0.95248 0.16536 0.0
H1850 H 0.51016 0.96005 0.14795 0.0
H1851 H 0.53229 0.98362 0.16155 0.0
H1852 H 0.52555 0.01687 0.15332 0.0
H1853 H 0.53613 0.03183 0.12889 0.0
H1854 H 0.99462 0.47287 0.24151 0.0
H1855 H 0.98236 0.46863 0.21469 0.0
H1856 H 0.03888 0.54238 0.21181 0.0
H1857 H 0.05107 0.54678 0.23854 0.0
H1858 H 0.99534 0.53155 0.19667 0.0
H1859 H 0.01969 0.46139 0.18159 0.0
H1860 H -0.00149 0.45353 0.19538 0.0
H1861 H 0.02901 0.47861 0.19967 0.0
C1862 C 0.00442 0.48813 0.23512 0.0
C1863 C 0.02377 0.51015 0.2421 0.0
C1864 C 0.99746 0.48567 0.21982 0.0
C1865 C 0.00995 0.50509 0.21125 0.0
C1866 C 0.02901 0.52718 0.21824 0.0
H1867 H 0.01379 0.50139 0.11577 0.0
H1868 H 0.02263 0.50559 0.14287 0.0
C1869 C 0.03588 0.52969 0.23351 0.0
C1870 C 0.00335 0.50255 0.19496 0.0
H1871 H 0.00026 0.47127 0.16223 0.0
C1872 C 0.99637 0.51836 0.18912 0.0
C1873 C 0.00506 0.48553 0.18515 0.0
C1874 C 0.01369 0.46893 0.19071 0.0
C1875 C 0.991 0.51761 0.17371 0.0
C1876 C 0.9922 0.50025 0.16393 0.0
C1877 C -0.0008 0.48445 0.16977 0.0
C1878 C 0.98688 0.49853 0.14756 0.0
C1879 C 0.98476 0.53584 0.16801 0.0
C1880 C 0.96383 0.49314 0.14123 0.0
C1881 C 0.95881 0.49105 0.12575 0.0
C1882 C 0.97668 0.49405 0.1163 0.0
C1883 C -0.00025 0.49939 0.12271 0.0
C1884 C 0.00477 0.50158 0.13819 0.0
H1885 H 0.99084 0.55166 0.1764 0.0
H1886 H 0.9932 0.54249 0.15758 0.0
H1887 H 0.96472 0.52709 0.16552 0.0
H1888 H 0.94963 0.49029 0.14826 0.0
H1889 H 0.94092 0.4871 0.12118 0.0
H1890 H 0.43691 0.4735 0.23317 0.0
H1891 H 0.44213 0.4617 0.20786 0.0
H1892 H 0.46309 0.5333 0.1956 0.0
H1893 H 0.45754 0.54502 0.22063 0.0
H1894 H 0.42889 0.49403 0.17414 0.0
H1895 H 0.5102 0.48686 0.19236 0.0
H1896 H 0.48325 0.46984 0.20156 0.0
H1897 H 0.49922 0.50234 0.20413 0.0
C1898 C 0.44236 0.48658 0.225 0.0
C1899 C 0.44707 0.51025 0.2289 0.0
C1900 C 0.44553 0.4799 0.21062 0.0
C1901 C 0.45333 0.49676 0.19996 0.0
C1902 C 0.45721 0.52008 0.2037 0.0
H1903 H 0.49769 0.51921 0.11217 0.0
H1904 H 0.48413 0.51985 0.13684 0.0
C1905 C 0.45416 0.52678 0.21802 0.0
C1906 C 0.45802 0.49059 0.18494 0.0
H1907 H 0.4982 0.4809 0.16658 0.0
C1908 C 0.44389 0.49092 0.17247 0.0
C1909 C 0.47755 0.48647 0.18283 0.0
C1910 C 0.4936 0.48647 0.19588 0.0
C1911 C 0.44907 0.48771 0.15791 0.0
C1912 C 0.46924 0.48463 0.1558 0.0
C1913 C 0.48281 0.48338 0.16825 0.0
C1914 C 0.47734 0.484 0.14081 0.0
C1915 C 0.43294 0.48777 0.14492 0.0
C1916 C 0.47874 0.46394 0.13504 0.0
C1917 C 0.48658 0.46356 0.12094 0.0
C1918 C 0.49327 0.4833 0.11238 0.0
C1919 C 0.49221 0.50352 0.11833 0.0
C1920 C 0.48443 0.5039 0.13242 0.0
H1921 H 0.41458 0.48284 0.14812 0.0
H1922 H 0.44124 0.50624 0.14119 0.0
H1923 H 0.43087 0.47494 0.13537 0.0
H1924 H 0.47351 0.44847 0.14139 0.0
H1925 H 0.48701 0.44764 0.11662 0.0
H1926 H 0.99166 0.4749 0.78812 0.0
H1927 H 0.00414 0.4818 0.81502 0.0
H1928 H 0.95484 0.50848 0.82202 0.0
H1929 H 0.94172 0.50097 0.79527 0.0
H1930 H 0.02405 0.52491 0.83501 0.0
H1931 H 0.93417 0.45319 0.84924 0.0
H1932 H 0.94276 0.45546 0.83045 0.0
H1933 H 0.93301 0.4753 0.83826 0.0
C1934 C 0.98344 0.48218 0.79541 0.0
C1935 C 0.96561 0.48726 0.78958 0.0
C1936 C 0.99069 0.48624 0.81073 0.0
C1937 C 0.98012 0.49529 0.82048 0.0
C1938 C 0.96292 0.50112 0.81467 0.0
H1939 H 0.99173 0.52269 0.91664 0.0
H1940 H 0.9823 0.51989 0.88963 0.0
C1941 C 0.95566 0.49707 0.79937 0.0
C1942 C 0.9867 0.49818 0.83677 0.0
H1943 H 0.96319 0.47802 0.86946 0.0
C1944 C 0.01081 0.51464 0.84256 0.0
C1945 C 0.96932 0.48469 0.84654 0.0
C1946 C 0.94341 0.466 0.84084 0.0
C1947 C 0.01793 0.5183 0.85797 0.0
C1948 C 0.00052 0.50483 0.86773 0.0
C1949 C 0.97643 0.48837 0.86192 0.0
C1950 C 0.00693 0.50726 0.88402 0.0
C1951 C 0.04386 0.53684 0.86369 0.0
C1952 C 0.02372 0.50084 0.88976 0.0
C1953 C 0.02904 0.50228 0.90517 0.0
C1954 C 0.01754 0.51003 0.91511 0.0
C1955 C 0.00069 0.51641 0.90929 0.0
C1956 C 0.99539 0.51496 0.89388 0.0
H1957 H 0.05309 0.54979 0.85536 0.0
H1958 H 0.04458 0.5472 0.87419 0.0
H1959 H 0.05419 0.52742 0.8661 0.0
H1960 H 0.03239 0.49431 0.88233 0.0
H1961 H 0.04178 0.49684 0.9093 0.0
H1962 H 0.53557 0.45663 0.80215 0.0
H1963 H 0.52943 0.46662 0.8275 0.0
H1964 H 0.54506 0.53731 0.8162 0.0
H1965 H 0.55115 0.52738 0.79069 0.0
H1966 H 0.56581 0.51145 0.84852 0.0
H1967 H 0.47527 0.50273 0.83346 0.0
H1968 H 0.48702 0.48776 0.82188 0.0
H1969 H 0.49983 0.51993 0.82242 0.0
C1970 C 0.5376 0.47427 0.80504 0.0
C1971 C 0.54366 0.49118 0.79442 0.0
C1972 C 0.53422 0.47998 0.81952 0.0
C1973 C 0.53663 0.5026 0.82363 0.0
C1974 C 0.54298 0.51969 0.81316 0.0
H1975 H 0.49775 0.54334 0.90773 0.0
H1976 H 0.51028 0.54412 0.88249 0.0
C1977 C 0.54657 0.51405 0.79866 0.0
C1978 C 0.5323 0.508 0.83891 0.0
H1979 H 0.48963 0.51029 0.85892 0.0
C1980 C 0.54929 0.51144 0.85083 0.0
C1981 C 0.51083 0.50816 0.8418 0.0
C1982 C 0.49203 0.50437 0.82928 0.0
C1983 C 0.54514 0.51461 0.86566 0.0
C1984 C 0.52307 0.51358 0.86864 0.0
C1985 C 0.50648 0.51098 0.85665 0.0
C1986 C 0.51621 0.51372 0.88406 0.0
C1987 C 0.5645 0.51907 0.87798 0.0
C1988 C 0.51503 0.49617 0.89322 0.0
C1989 C 0.50805 0.4958 0.90761 0.0
C1990 C 0.50171 0.51272 0.91307 0.0
C1991 C 0.50249 0.53005 0.90381 0.0
C1992 C 0.50971 0.53055 0.88942 0.0
H1993 H 0.58283 0.52749 0.87393 0.0
H1994 H 0.56495 0.53101 0.88756 0.0
H1995 H 0.56061 0.5015 0.88199 0.0
H1996 H 0.51915 0.48249 0.88917 0.0
H1997 H 0.5071 0.48189 0.91436 0.0
H1998 H 0.50499 0.045 0.7957 0.0
H1999 H 0.49676 0.02884 0.81992 0.0
H2000 H 0.57344 0.07003 0.83499 0.0
H2001 H 0.58173 0.08726 0.81104 0.0
H2002 H 0.51148 0.00191 0.83464 0.0
H2003 H 0.54491 0.09024 0.86781 0.0
H2004 H 0.54008 0.08669 0.8477 0.0
H2005 H 0.56727 0.08937 0.85704 0.0
C2006 C 0.52011 0.05091 0.80422 0.0
C2007 C 0.54401 0.06772 0.80144 0.0
C2008 C 0.51538 0.04146 0.81803 0.0
C2009 C 0.53441 0.04855 0.82939 0.0
C2010 C 0.55838 0.06471 0.82652 0.0
H2011 H 0.52106 0.97456 0.91013 0.0
H2012 H 0.53055 0.98964 0.88563 0.0
C2013 C 0.56312 0.0743 0.81273 0.0
C2014 C 0.52905 0.03902 0.84421 0.0
H2015 H 0.53485 0.05634 0.88144 0.0
C2016 C 0.51657 0.01381 0.84488 0.0
C2017 C 0.53535 0.05453 0.85755 0.0
C2018 C 0.54742 0.08169 0.85753 0.0
C2019 C 0.51039 0.0037 0.8585 0.0
C2020 C 0.51737 0.01923 0.87189 0.0
C2021 C 0.5297 0.04443 0.87121 0.0
C2022 C 0.51151 0.0098 0.88671 0.0
C2023 C 0.49587 0.97647 0.85834 0.0
C2024 C 0.4982 0.01658 0.89566 0.0
C2025 C 0.49298 0.0082 0.90972 0.0
C2026 C 0.50095 0.99281 0.91514 0.0
C2027 C 0.51432 0.98606 0.90617 0.0
C2028 C 0.5197 0.99462 0.89214 0.0
H2029 H 0.48622 0.96763 0.84713 0.0
H2030 H 0.50839 0.96962 0.86131 0.0
H2031 H 0.48224 0.97095 0.86657 0.0
H2032 H 0.49171 0.0283 0.89173 0.0
H2033 H 0.48246 0.01356 0.9163 0.0
H2034 H 0.15715 0.28639 0.57044 0.0
H2035 H 0.16581 0.30423 0.5467 0.0
H2036 H 0.09219 0.25352 0.52806 0.0
H2037 H 0.08337 0.23558 0.55183 0.0
H2038 H 0.1637 0.28132 0.51954 0.0
H2039 H 0.1006 0.31767 0.51629 0.0
H2040 H 0.10832 0.30828 0.53332 0.0
H2041 H 0.08619 0.28608 0.51909 0.0
C2042 C 0.14276 0.27907 0.5613 0.0
C2043 C 0.11957 0.25953 0.56301 0.0
C2044 C 0.14772 0.28935 0.54775 0.0
C2045 C 0.1296 0.28041 0.53564 0.0
C2046 C 0.10632 0.26108 0.53735 0.0
H2047 H 0.12912 0.30953 0.44266 0.0
H2048 H 0.11901 0.29363 0.46689 0.0
C2049 C 0.10131 0.25082 0.55093 0.0
C2050 C 0.13554 0.29049 0.52102 0.0
H2051 H 0.11997 0.31805 0.49453 0.0
C2052 C 0.15423 0.28948 0.51411 0.0
C2053 C 0.12312 0.30106 0.51393 0.0
C2054 C 0.10358 0.30358 0.52108 0.0
C2055 C 0.16059 0.2984 0.50022 0.0
C2056 C 0.14819 0.30897 0.49313 0.0
C2057 C 0.12945 0.30994 0.5 0.0
C2058 C 0.15434 0.31898 0.47853 0.0
C2059 C 0.1802 0.29598 0.49309 0.0
C2060 C 0.17746 0.33872 0.47708 0.0
C2061 C 0.18335 0.34779 0.46323 0.0
C2062 C 0.16619 0.33731 0.45056 0.0
C2063 C 0.1429 0.31777 0.45213 0.0
C2064 C 0.13702 0.30877 0.46599 0.0
H2065 H 0.18373 0.28239 0.49813 0.0
H2066 H 0.17516 0.29066 0.4809 0.0
H2067 H 0.19739 0.31371 0.4947 0.0
H2068 H 0.19099 0.34711 0.48667 0.0
H2069 H 0.20148 0.36276 0.4624 0.0
H2070 H 0.65754 0.83944 0.57467 0.0
H2071 H 0.64122 0.83141 0.54836 0.0
H2072 H 0.69131 0.8073 0.53751 0.0
H2073 H 0.70775 0.81536 0.56369 0.0
H2074 H 0.66947 0.85498 0.52608 0.0
H2075 H 0.62777 0.75555 0.514 0.0
H2076 H 0.63478 0.77024 0.53278 0.0
H2077 H 0.65835 0.76997 0.5229 0.0
C2078 C 0.66481 0.8321 0.56669 0.0
C2079 C 0.68394 0.82806 0.57123 0.0
C2080 C 0.65542 0.82744 0.5517 0.0
C2081 C 0.66488 0.81851 0.54104 0.0
C2082 C 0.68335 0.81363 0.54562 0.0
H2083 H 0.66543 0.80593 0.44607 0.0
H2084 H 0.67112 0.80616 0.47317 0.0
C2085 C 0.69274 0.81826 0.56059 0.0
C2086 C 0.65743 0.81686 0.52496 0.0
H2087 H 0.636 0.7786 0.49285 0.0
C2088 C 0.66181 0.83822 0.51883 0.0
C2089 C 0.6476 0.79499 0.51557 0.0
C2090 C 0.64162 0.77133 0.52166 0.0
C2091 C 0.65745 0.8385 0.50344 0.0
C2092 C 0.64809 0.81674 0.49401 0.0
C2093 C 0.64323 0.79525 0.50016 0.0
C2094 C 0.64409 0.81614 0.47764 0.0
C2095 C 0.66377 0.86225 0.49734 0.0
C2096 C 0.62687 0.8215 0.47124 0.0
C2097 C 0.62372 0.8216 0.45579 0.0
C2098 C 0.6377 0.81624 0.44649 0.0
C2099 C 0.6547 0.81055 0.45296 0.0
C2100 C 0.65781 0.81044 0.4684 0.0
H2101 H 0.67561 0.87803 0.50562 0.0
H2102 H 0.67316 0.8643 0.48709 0.0
H2103 H 0.64678 0.86262 0.49435 0.0
H2104 H 0.6159 0.82565 0.47821 0.0
H2105 H 0.61058 0.82617 0.45114 0.0
H2106 H 0.13128 0.87803 0.55468 0.0
H2107 H 0.13694 0.8659 0.5298 0.0
H2108 H 0.10987 0.79286 0.54134 0.0
H2109 H 0.10441 0.80495 0.56646 0.0
H2110 H 0.16707 0.84583 0.52362 0.0
H2111 H 0.07038 0.78506 0.5007 0.0
H2112 H 0.0791 0.80682 0.51681 0.0
H2113 H 0.07962 0.77924 0.51855 0.0
C2114 C 0.12658 0.85938 0.55197 0.0
C2115 C 0.11757 0.84249 0.5626 0.0
C2116 C 0.12971 0.85247 0.53772 0.0
C2117 C 0.12371 0.82849 0.53372 0.0
C2118 C 0.11429 0.8114 0.54416 0.0
H2119 H 0.17632 0.79112 0.45461 0.0
H2120 H 0.16508 0.79288 0.47994 0.0
C2121 C 0.11117 0.81832 0.55849 0.0
C2122 C 0.12842 0.82192 0.51879 0.0
H2123 H 0.10046 0.78956 0.48507 0.0
C2124 C 0.15255 0.83337 0.51521 0.0
C2125 C 0.10938 0.80581 0.50786 0.0
C2126 C 0.08311 0.79359 0.51105 0.0
C2127 C 0.15816 0.82946 0.50091 0.0
C2128 C 0.13913 0.8134 0.48994 0.0
C2129 C 0.115 0.80169 0.49356 0.0
C2130 C 0.1439 0.80991 0.4744 0.0
C2131 C 0.18431 0.84325 0.49748 0.0
C2132 C 0.13501 0.81811 0.46282 0.0
C2133 C 0.14142 0.81718 0.44836 0.0
C2134 C 0.15679 0.80792 0.4452 0.0
C2135 C 0.1648 0.79874 0.45673 0.0
C2136 C 0.15837 0.79969 0.47119 0.0
H2137 H 0.19597 0.8584 0.50619 0.0
H2138 H 0.19168 0.83074 0.49689 0.0
H2139 H 0.18562 0.85073 0.48653 0.0
H2140 H 0.12384 0.82609 0.46508 0.0
H2141 H 0.13513 0.82465 0.43982 0.0
H2142 H 0.66218 0.85444 0.1192 0.0
H2143 H 0.67595 0.86208 0.14599 0.0
H2144 H 0.6224 0.7885 0.15204 0.0
H2145 H 0.60865 0.78073 0.1254 0.0
H2146 H 0.64983 0.8586 0.17011 0.0
H2147 H 0.68477 0.79465 0.17178 0.0
H2148 H 0.6778 0.80409 0.15454 0.0
H2149 H 0.65386 0.78068 0.16352 0.0
C2150 C 0.65339 0.83992 0.12627 0.0
C2151 C 0.63455 0.81691 0.1202 0.0
C2152 C 0.6613 0.84428 0.14153 0.0
C2153 C 0.65051 0.82571 0.15092 0.0
C2154 C 0.63142 0.80288 0.14492 0.0
H2155 H 0.65529 0.80757 0.24434 0.0
H2156 H 0.64631 0.80427 0.21728 0.0
C2157 C 0.62358 0.79847 0.12969 0.0
C2158 C 0.65864 0.83027 0.16709 0.0
H2159 H 0.67943 0.80954 0.19528 0.0
C2160 C 0.65657 0.84809 0.17561 0.0
C2161 C 0.66747 0.81655 0.1742 0.0
C2162 C 0.67136 0.79809 0.16552 0.0
C2163 C 0.66226 0.85192 0.19117 0.0
C2164 C 0.67043 0.83771 0.19829 0.0
C2165 C 0.67299 0.82027 0.18975 0.0
C2166 C 0.67583 0.84017 0.21467 0.0
C2167 C 0.65875 0.87055 0.19994 0.0
C2168 C 0.69551 0.86142 0.2221 0.0
C2169 C 0.70082 0.86331 0.23756 0.0
C2170 C 0.68657 0.84392 0.24582 0.0
C2171 C 0.66682 0.82269 0.23829 0.0
C2172 C 0.66158 0.82081 0.22285 0.0
H2173 H 0.64798 0.87664 0.19315 0.0
H2174 H 0.64943 0.86315 0.21 0.0
H2175 H 0.67681 0.88661 0.20375 0.0
H2176 H 0.70695 0.8764 0.21592 0.0
H2177 H 0.71637 0.87976 0.24299 0.0
H2178 H 0.21833 0.85596 0.1256 0.0
H2179 H 0.21021 0.86369 0.15099 0.0
H2180 H 0.19459 0.79215 0.16044 0.0
H2181 H 0.2022 0.78425 0.1351 0.0
H2182 H 0.15934 0.80107 0.16795 0.0
H2183 H 0.24975 0.87781 0.19106 0.0
H2184 H 0.2375 0.88284 0.17402 0.0
H2185 H 0.24542 0.85947 0.17396 0.0
C2186 C 0.21352 0.84209 0.13321 0.0
C2187 C 0.21074 0.81948 0.12841 0.0
C2188 C 0.20896 0.84652 0.1477 0.0
C2189 C 0.20197 0.82855 0.15765 0.0
C2190 C 0.1999 0.80624 0.15295 0.0
H2191 H 0.19389 0.83733 0.25263 0.0
H2192 H 0.20482 0.83541 0.22733 0.0
C2193 C 0.20421 0.80174 0.13848 0.0
C2194 C 0.19535 0.83217 0.17267 0.0
H2195 H 0.21724 0.8672 0.20606 0.0
C2196 C 0.172 0.81555 0.17628 0.0
C2197 C 0.21196 0.85095 0.18355 0.0
C2198 C 0.23764 0.86867 0.18055 0.0
C2199 C 0.16486 0.817 0.19051 0.0
C2200 C 0.18129 0.83603 0.20133 0.0
C2201 C 0.20461 0.85277 0.1977 0.0
C2202 C 0.17499 0.83817 0.21667 0.0
C2203 C 0.14006 0.79765 0.19396 0.0
C2204 C 0.15478 0.84073 0.21911 0.0
C2205 C 0.14819 0.84138 0.23355 0.0
C2206 C 0.16189 0.8398 0.24587 0.0
C2207 C 0.18259 0.83803 0.2434 0.0
C2208 C 0.18904 0.8372 0.22895 0.0
H2209 H 0.13248 0.78116 0.18593 0.0
H2210 H 0.14082 0.79237 0.20542 0.0
H2211 H 0.1273 0.80474 0.19317 0.0
H2212 H 0.14396 0.84201 0.20983 0.0
H2213 H 0.13208 0.84264 0.23501 0.0
H2214 H 0.17253 0.37871 0.1282 0.0
H2215 H 0.16448 0.36239 0.15243 0.0
H2216 H 0.24054 0.40682 0.16829 0.0
H2217 H 0.24877 0.42393 0.14425 0.0
H2218 H 0.21145 0.35091 0.1734 0.0
H2219 H 0.1735 0.40848 0.1927 0.0
H2220 H 0.16384 0.3936 0.17398 0.0
H2221 H 0.1948 0.41721 0.17878 0.0
C2222 C 0.18757 0.38518 0.13685 0.0
C2223 C 0.21129 0.40284 0.13428 0.0
C2224 C 0.18293 0.37569 0.15065 0.0
C2225 C 0.2019 0.38351 0.16211 0.0
C2226 C 0.22568 0.40056 0.15952 0.0
H2227 H 0.19835 0.36659 0.25675 0.0
H2228 H 0.20799 0.38106 0.23217 0.0
C2229 C 0.23035 0.41021 0.14575 0.0
C2230 C 0.19672 0.37445 0.17696 0.0
H2231 H 0.17242 0.37995 0.20862 0.0
C2232 C 0.20292 0.35721 0.18113 0.0
C2233 C 0.18573 0.38286 0.18698 0.0
C2234 C 0.17912 0.40166 0.18302 0.0
C2235 C 0.19813 0.34795 0.19508 0.0
C2236 C 0.18688 0.35618 0.20504 0.0
C2237 C 0.18097 0.37363 0.20092 0.0
C2238 C 0.18127 0.34705 0.21986 0.0
C2239 C 0.20534 0.32964 0.19918 0.0
C2240 C 0.16291 0.32317 0.22106 0.0
C2241 C 0.15707 0.3149 0.2351 0.0
C2242 C 0.16954 0.33036 0.24823 0.0
C2243 C 0.18807 0.35427 0.24692 0.0
C2244 C 0.19376 0.36255 0.23288 0.0
H2245 H 0.21758 0.32831 0.1914 0.0
H2246 H 0.21462 0.33445 0.21072 0.0
H2247 H 0.18874 0.31154 0.19882 0.0
H2248 H 0.15283 0.31104 0.21111 0.0
H2249 H 0.14244 0.29653 0.23564 0.0
H2250 H 0.825 0.61732 0.90248 0.0
H2251 H 0.83342 0.63445 0.87858 0.0
H2252 H 0.75738 0.59058 0.86231 0.0
H2253 H 0.74894 0.57246 0.88602 0.0
H2254 H 0.78619 0.58855 0.84227 0.0
H2255 H 0.81989 0.68447 0.8621 0.0
H2256 H 0.83619 0.67228 0.87184 0.0
H2257 H 0.80426 0.66009 0.87361 0.0
C2258 C 0.81004 0.61122 0.89381 0.0
C2259 C 0.78628 0.59343 0.89618 0.0
C2260 C 0.81484 0.62131 0.88021 0.0
C2261 C 0.79598 0.61413 0.86872 0.0
C2262 C 0.7722 0.59654 0.87106 0.0
H2263 H 0.81416 0.68755 0.78756 0.0
H2264 H 0.80178 0.67118 0.81143 0.0
C2265 C 0.76738 0.58633 0.88467 0.0
C2266 C 0.80133 0.62406 0.85403 0.0
H2267 H 0.82838 0.67692 0.83753 0.0
C2268 C 0.79523 0.60786 0.84121 0.0
C2269 C 0.81282 0.64924 0.85261 0.0
C2270 C 0.81844 0.66751 0.86575 0.0
C2271 C 0.8009 0.61617 0.8271 0.0
C2272 C 0.81354 0.64141 0.82581 0.0
C2273 C 0.81901 0.65758 0.83855 0.0
C2274 C 0.82124 0.65142 0.81136 0.0
C2275 C 0.79302 0.59778 0.8137 0.0
C2276 C 0.83664 0.6461 0.80348 0.0
C2277 C 0.8437 0.65539 0.78983 0.0
C2278 C 0.83578 0.67048 0.78386 0.0
C2279 C 0.82076 0.67617 0.79192 0.0
C2280 C 0.81358 0.66675 0.80553 0.0
H2281 H 0.77762 0.5799 0.81579 0.0
H2282 H 0.78743 0.60397 0.8037 0.0
H2283 H 0.80846 0.59516 0.8112 0.0
H2284 H 0.84334 0.63486 0.80795 0.0
H2285 H 0.8556 0.65099 0.78401 0.0
H2286 H 0.37943 0.20244 0.90437 0.0
H2287 H 0.36828 0.19574 0.8774 0.0
H2288 H 0.31515 0.12117 0.88142 0.0
H2289 H 0.32598 0.12782 0.90856 0.0
H2290 H 0.36988 0.15868 0.85741 0.0
H2291 H 0.27801 0.1494 0.85687 0.0
H2292 H 0.3008 0.16407 0.8727 0.0
H2293 H 0.28479 0.13168 0.86907 0.0
C2294 C 0.36509 0.18471 0.89956 0.0
C2295 C 0.35339 0.1657 0.90857 0.0
C2296 C 0.35889 0.18088 0.88415 0.0
C2297 C 0.34079 0.15804 0.87751 0.0
C2298 C 0.32899 0.13899 0.88642 0.0
H2299 H 0.28229 0.11376 0.78386 0.0
H2300 H 0.29023 0.11405 0.8108 0.0
C2301 C 0.33527 0.14278 0.90187 0.0
C2302 C 0.33486 0.15421 0.86115 0.0
H2303 H 0.29131 0.14567 0.83361 0.0
C2304 C 0.35268 0.15573 0.85217 0.0
C2305 C 0.31234 0.1502 0.85445 0.0
C2306 C 0.29285 0.14885 0.8637 0.0
C2307 C 0.34864 0.15356 0.83656 0.0
C2308 C 0.32642 0.15036 0.82984 0.0
C2309 C 0.30835 0.14822 0.83883 0.0
C2310 C 0.32189 0.15005 0.81353 0.0
C2311 C 0.36813 0.15458 0.82742 0.0
C2312 C 0.3369 0.17032 0.80621 0.0
C2313 C 0.33239 0.17025 0.79085 0.0
C2314 C 0.31263 0.14997 0.78257 0.0
C2315 C 0.2975 0.12975 0.78997 0.0
C2316 C 0.30207 0.12983 0.80533 0.0
H2317 H 0.38048 0.14993 0.83384 0.0
H2318 H 0.36001 0.142 0.81704 0.0
H2319 H 0.37928 0.17325 0.82424 0.0
H2320 H 0.35195 0.18634 0.81241 0.0
H2321 H 0.34411 0.18624 0.78551 0.0
H2322 H 0.78896 0.21194 0.88611 0.0
H2323 H 0.79646 0.20195 0.86121 0.0
H2324 H 0.78081 0.13155 0.87327 0.0
H2325 H 0.77286 0.1414 0.89825 0.0
H2326 H 0.83205 0.19207 0.85516 0.0
H2327 H 0.74144 0.11486 0.83265 0.0
H2328 H 0.74567 0.13459 0.84905 0.0
H2329 H 0.75338 0.11118 0.85029 0.0
C2330 C 0.78688 0.19424 0.8834 0.0
C2331 C 0.78044 0.17746 0.8941 0.0
C2332 C 0.79114 0.18854 0.86918 0.0
C2333 C 0.78908 0.16597 0.86535 0.0
C2334 C 0.78207 0.14891 0.87589 0.0
H2335 H 0.85878 0.14588 0.78954 0.0
H2336 H 0.84668 0.14767 0.81456 0.0
C2337 C 0.77759 0.15455 0.89014 0.0
C2338 C 0.79586 0.16122 0.85064 0.0
H2339 H 0.77399 0.12451 0.81787 0.0
C2340 C 0.81937 0.17726 0.84701 0.0
C2341 C 0.77923 0.14198 0.84002 0.0
C2342 C 0.75344 0.12476 0.8431 0.0
C2343 C 0.82664 0.17484 0.83297 0.0
C2344 C 0.81012 0.15545 0.8224 0.0
C2345 C 0.78667 0.13923 0.82606 0.0
C2346 C 0.81648 0.15252 0.8072 0.0
C2347 C 0.85165 0.19359 0.82944 0.0
C2348 C 0.80298 0.15376 0.79472 0.0
C2349 C 0.8096 0.15237 0.78039 0.0
C2350 C 0.82991 0.14972 0.77825 0.0
C2351 C 0.84301 0.14784 0.79076 0.0
C2352 C 0.83628 0.1491 0.80509 0.0
H2353 H 0.85958 0.21034 0.83726 0.0
H2354 H 0.86401 0.18604 0.83043 0.0
H2355 H 0.85106 0.19854 0.81787 0.0
H2356 H 0.78753 0.15623 0.79609 0.0
H2357 H 0.79877 0.15333 0.77098 0.0
H2358 H 0.27573 0.1703 0.46065 0.0
H2359 H 0.28833 0.17822 0.48742 0.0
H2360 H 0.33749 0.15103 0.48143 0.0
H2361 H 0.32602 0.14433 0.4545 0.0
H2362 H 0.28275 0.14604 0.50663 0.0
H2363 H 0.3809 0.21309 0.50762 0.0
H2364 H 0.35976 0.20472 0.49111 0.0
H2365 H 0.37208 0.18573 0.49601 0.0
C2366 C 0.28971 0.16659 0.46494 0.0
C2367 C 0.30001 0.15684 0.45538 0.0
C2368 C 0.29672 0.17092 0.48028 0.0
C2369 C 0.3141 0.16554 0.4864 0.0
C2370 C 0.32445 0.15585 0.47692 0.0
H2371 H 0.33074 0.13725 0.57785 0.0
H2372 H 0.32063 0.1348 0.55096 0.0
C2373 C 0.31762 0.15171 0.46155 0.0
C2374 C 0.32028 0.16874 0.50279 0.0
H2375 H 0.36779 0.19493 0.53025 0.0
C2376 C 0.30133 0.15689 0.5118 0.0
C2377 C 0.34447 0.18317 0.50955 0.0
C2378 C 0.36543 0.19761 0.50059 0.0
C2379 C 0.30595 0.15864 0.52736 0.0
C2380 C 0.33027 0.17207 0.53404 0.0
C2381 C 0.34918 0.18439 0.52508 0.0
C2382 C 0.3365 0.17354 0.55031 0.0
C2383 C 0.28468 0.14635 0.53647 0.0
C2384 C 0.34943 0.19617 0.55878 0.0
C2385 C 0.35547 0.19762 0.57411 0.0
C2386 C 0.34863 0.17645 0.58123 0.0
C2387 C 0.33587 0.15383 0.57269 0.0
C2388 C 0.33003 0.15241 0.55735 0.0
H2389 H 0.26752 0.14331 0.53037 0.0
H2390 H 0.28208 0.1284 0.53884 0.0
H2391 H 0.28791 0.15722 0.54727 0.0
H2392 H 0.35468 0.21271 0.55354 0.0
H2393 H 0.36518 0.21529 0.58043 0.0
H2394 H 0.88555 0.19248 0.45882 0.0
H2395 H 0.87929 0.20144 0.48448 0.0
H2396 H 0.85963 0.12883 0.49387 0.0
H2397 H 0.86617 0.1199 0.46846 0.0
H2398 H 0.83476 0.17561 0.49813 0.0
H2399 H 0.91132 0.17236 0.52868 0.0
H2400 H 0.91011 0.17614 0.509 0.0
H2401 H 0.89285 0.14659 0.51533 0.0
C2402 C 0.88021 0.17857 0.46645 0.0
C2403 C 0.87629 0.15548 0.46165 0.0
C2404 C 0.87655 0.18367 0.48104 0.0
C2405 C 0.86927 0.16587 0.49108 0.0
C2406 C 0.8656 0.14292 0.48635 0.0
H2407 H 0.82331 0.13891 0.57837 0.0
H2408 H 0.83551 0.1388 0.55323 0.0
C2409 C 0.86912 0.13778 0.4718 0.0
C2410 C 0.86433 0.17067 0.50634 0.0
H2411 H 0.88016 0.17006 0.5431 0.0
C2412 C 0.84486 0.17476 0.508 0.0
C2413 C 0.87757 0.16949 0.51914 0.0
C2414 C 0.89928 0.16613 0.51801 0.0
C2415 C 0.83753 0.1766 0.52215 0.0
C2416 C 0.85034 0.17472 0.53493 0.0
C2417 C 0.87029 0.17138 0.53327 0.0
C2418 C 0.84271 0.17504 0.55009 0.0
C2419 C 0.81551 0.17946 0.52324 0.0
C2420 C 0.84284 0.19551 0.55668 0.0
C2421 C 0.83587 0.19562 0.57108 0.0
C2422 C 0.82888 0.17534 0.57916 0.0
C2423 C 0.82885 0.15491 0.57251 0.0
C2424 C 0.83574 0.15479 0.55813 0.0
H2425 H 0.80457 0.17515 0.51225 0.0
H2426 H 0.80363 0.16757 0.53128 0.0
H2427 H 0.82156 0.19851 0.52729 0.0
H2428 H 0.84864 0.21151 0.55079 0.0
H2429 H 0.83644 0.21177 0.57599 0.0
H2430 H 0.91662 0.75786 0.47759 0.0
H2431 H 0.9084 0.73981 0.50125 0.0
H2432 H 0.83186 0.69795 0.48586 0.0
H2433 H 0.84006 0.71488 0.46188 0.0
H2434 H 0.8817 0.74336 0.52172 0.0
H2435 H 0.84304 0.64649 0.50203 0.0
H2436 H 0.85866 0.67041 0.49023 0.0
H2437 H 0.82723 0.65967 0.49287 0.0
C2438 C 0.8981 0.74439 0.47908 0.0
C2439 C 0.87903 0.7378 0.46776 0.0
C2440 C 0.8934 0.73423 0.49268 0.0
C2441 C 0.86956 0.71725 0.49529 0.0
C2442 C 0.85048 0.71059 0.48402 0.0
H2443 H 0.81689 0.68485 0.58225 0.0
H2444 H 0.82713 0.69975 0.55781 0.0
C2445 C 0.85518 0.7206 0.47037 0.0
C2446 C 0.86451 0.70756 0.51007 0.0
H2447 H 0.83706 0.65517 0.52703 0.0
C2448 C 0.87209 0.72407 0.52288 0.0
C2449 C 0.85228 0.6824 0.51164 0.0
C2450 C 0.84506 0.66373 0.49847 0.0
C2451 C 0.86733 0.71615 0.53715 0.0
C2452 C 0.85403 0.69098 0.53863 0.0
C2453 C 0.84696 0.67446 0.52587 0.0
C2454 C 0.84732 0.68147 0.55333 0.0
C2455 C 0.87694 0.73486 0.55051 0.0
C2456 C 0.8545 0.66552 0.55873 0.0
C2457 C 0.84843 0.65676 0.57263 0.0
C2458 C 0.83509 0.66381 0.58142 0.0
C2459 C 0.82758 0.67945 0.57587 0.0
C2460 C 0.83347 0.68803 0.56192 0.0
H2461 H 0.89258 0.7523 0.54802 0.0
H2462 H 0.86234 0.73844 0.5536 0.0
H2463 H 0.88284 0.72845 0.56026 0.0
H2464 H 0.86509 0.66011 0.55226 0.0
H2465 H 0.85461 0.64485 0.57665 0.0
loop_
_geom_bond_atom_site_label_1
_geom_bond_atom_site_label_2
_geom_bond_distance
_geom_bond_site_symmetry_2
_ccdc_geom_bond_type
H0 C3 0.931 . S
H1 C6 0.928 . S
H2 C8 0.930 . S
C3 H0 0.931 . S
C3 C4 1.413 . S
C3 C5 1.360 . S
C4 C3 1.413 . S
C4 C8 1.429 . S
C5 C3 1.360 . S
C5 C6 1.372 . S
C6 H1 0.928 . S
C6 C5 1.372 . S
C6 C7 1.404 . S
C7 C6 1.404 . S
C7 C8 1.391 . S
C8 H2 0.930 . S
C8 C4 1.429 . S
C8 C7 1.391 . S
H9 C12 0.931 . S
H10 C15 0.928 . S
H11 C17 0.930 . S
C12 H9 0.931 . S
C12 C13 1.413 . S
C12 C14 1.360 . S
C13 C12 1.413 . S
C13 C17 1.429 . S
C14 C12 1.360 . S
C14 C15 1.372 . S
C15 H10 0.928 . S
C15 C14 1.372 . S
C15 C16 1.404 . S
C16 C15 1.404 . S
C16 C17 1.391 . S
C17 H11 0.930 . S
C17 C13 1.429 . S
C17 C16 1.391 . S
H18 C21 0.931 . S
H19 C24 0.928 . S
H20 C26 0.930 . S
C21 H18 0.931 . S
C21 C22 1.413 . S
C21 C23 1.360 . S
C22 C21 1.413 . S
C22 C26 1.429 . S
C23 C21 1.360 . S
C23 C24 1.372 . S
C24 H19 0.928 . S
C24 C23 1.372 . S
C24 C25 1.404 . S
C25 C24 1.404 . S
C25 C26 1.391 . S
C26 H20 0.930 . S
C26 C22 1.429 . S
C26 C25 1.391 . S
H27 C30 0.931 . S
H28 C33 0.928 . S
H29 C35 0.930 . S
C30 H27 0.931 . S
C30 C31 1.413 . S
C30 C32 1.360 . S
C31 C30 1.413 . S
C31 C35 1.429 . S
C32 C30 1.360 . S
C32 C33 1.372 . S
C33 H28 0.928 . S
C33 C32 1.372 . S
C33 C34 1.404 . S
C34 C33 1.404 . S
C34 C35 1.391 . S
C35 H29 0.930 . S
C35 C31 1.429 . S
C35 C34 1.391 . S
H36 C39 0.931 . S
H37 C42 0.928 . S
H38 C44 0.930 . S
C39 H36 0.931 . S
C39 C40 1.413 . S
C39 C41 1.360 . S
C40 C39 1.413 . S
C40 C44 1.429 . S
C41 C39 1.360 . S
C41 C42 1.372 . S
C42 H37 0.928 . S
C42 C41 1.372 . S
C42 C43 1.404 . S
C43 C42 1.404 . S
C43 C44 1.391 . S
C44 H38 0.930 . S
C44 C40 1.429 . S
C44 C43 1.391 . S
H45 C48 0.931 . S
H46 C51 0.928 . S
H47 C53 0.930 . S
C48 H45 0.931 . S
C48 C49 1.413 . S
C48 C50 1.360 . S
C49 C48 1.413 . S
C49 C53 1.429 . S
C50 C48 1.360 . S
C50 C51 1.372 . S
C51 H46 0.928 . S
C51 C50 1.372 . S
C51 C52 1.404 . S
C52 C51 1.404 . S
C52 C53 1.391 . S
C53 H47 0.930 . S
C53 C49 1.429 . S
C53 C52 1.391 . S
H54 C57 0.931 . S
H55 C60 0.928 . S
H56 C62 0.930 . S
C57 H54 0.931 . S
C57 C58 1.413 . S
C57 C59 1.360 . S
C58 C57 1.413 . S
C58 C62 1.429 . S
C59 C57 1.360 . S
C59 C60 1.372 . S
C60 H55 0.928 . S
C60 C59 1.372 . S
C60 C61 1.404 . S
C61 C60 1.404 . S
C61 C62 1.391 . S
C62 H56 0.930 . S
C62 C58 1.429 . S
C62 C61 1.391 . S
H63 C66 0.931 . S
H64 C69 0.928 . S
H65 C71 0.930 . S
C66 H63 0.931 . S
C66 C67 1.413 . S
C66 C68 1.360 . S
C67 C66 1.413 . S
C67 C71 1.429 . S
C68 C66 1.360 . S
C68 C69 1.372 . S
C69 H64 0.928 . S
C69 C68 1.372 . S
C69 C70 1.404 . S
C70 C69 1.404 . S
C70 C71 1.391 . S
C71 H65 0.930 . S
C71 C67 1.429 . S
C71 C70 1.391 . S
H72 C75 0.931 . S
H73 C78 0.928 . S
H74 C80 0.930 . S
C75 H72 0.931 . S
C75 C76 1.413 . S
C75 C77 1.360 . S
C76 C75 1.413 . S
C76 C80 1.429 . S
C77 C75 1.360 . S
C77 C78 1.372 . S
C78 H73 0.928 . S
C78 C77 1.372 . S
C78 C79 1.404 . S
C79 C78 1.404 . S
C79 C80 1.391 . S
C80 H74 0.930 . S
C80 C76 1.429 . S
C80 C79 1.391 . S
H81 C84 0.931 . S
H82 C87 0.928 . S
H83 C89 0.930 . S
C84 H81 0.931 . S
C84 C85 1.413 . S
C84 C86 1.360 . S
C85 C84 1.413 . S
C85 C89 1.429 . S
C86 C84 1.360 . S
C86 C87 1.372 . S
C87 H82 0.928 . S
C87 C86 1.372 . S
C87 C88 1.404 . S
C88 C87 1.404 . S
C88 C89 1.391 . S
C89 H83 0.930 . S
C89 C85 1.429 . S
C89 C88 1.391 . S
H90 C93 0.931 . S
H91 C96 0.928 . S
H92 C98 0.930 . S
C93 H90 0.931 . S
C93 C94 1.413 . S
C93 C95 1.360 . S
C94 C93 1.413 . S
C94 C98 1.429 . S
C95 C93 1.360 . S
C95 C96 1.372 . S
C96 H91 0.928 . S
C96 C95 1.372 . S
C96 C97 1.404 . S
C97 C96 1.404 . S
C97 C98 1.391 . S
C98 H92 0.930 . S
C98 C94 1.429 . S
C98 C97 1.391 . S
H99 C102 0.931 . S
H100 C105 0.928 . S
H101 C107 0.930 . S
C102 H99 0.931 . S
C102 C103 1.413 . S
C102 C104 1.360 . S
C103 C102 1.413 . S
C103 C107 1.429 . S
C104 C102 1.360 . S
C104 C105 1.372 . S
C105 H100 0.928 . S
C105 C104 1.372 . S
C105 C106 1.404 . S
C106 C105 1.404 . S
C106 C107 1.391 . S
C107 H101 0.930 . S
C107 C103 1.429 . S
C107 C106 1.391 . S
H108 C111 0.931 . S
H109 C114 0.928 . S
H110 C116 0.930 . S
C111 H108 0.931 . S
C111 C112 1.413 . S
C111 C113 1.360 . S
C112 C111 1.413 . S
C112 C116 1.429 . S
C113 C111 1.360 . S
C113 C114 1.372 . S
C114 H109 0.928 . S
C114 C113 1.372 . S
C114 C115 1.404 . S
C115 C114 1.404 . S
C115 C116 1.391 . S
C116 H110 0.930 . S
C116 C112 1.429 . S
C116 C115 1.391 . S
H117 C120 0.931 . S
H118 C123 0.928 . S
H119 C125 0.930 . S
C120 H117 0.931 . S
C120 C121 1.413 . S
C120 C122 1.360 . S
C121 C120 1.413 . S
C121 C125 1.429 . S
C122 C120 1.360 . S
C122 C123 1.372 . S
C123 H118 0.928 . S
C123 C122 1.372 . S
C123 C124 1.404 . S
C124 C123 1.404 . S
C124 C125 1.391 . S
C125 H119 0.930 . S
C125 C121 1.429 . S
C125 C124 1.391 . S
H126 C129 0.931 . S
H127 C132 0.928 . S
H128 C134 0.930 . S
C129 H126 0.931 . S
C129 C130 1.413 . S
C129 C131 1.360 . S
C130 C129 1.413 . S
C130 C134 1.429 . S
C131 C129 1.360 . S
C131 C132 1.372 . S
C132 H127 0.928 . S
C132 C131 1.372 . S
C132 C133 1.404 . S
C133 C132 1.404 . S
C133 C134 1.391 . S
C134 H128 0.930 . S
C134 C130 1.429 . S
C134 C133 1.391 . S
H135 C138 0.931 . S
H136 C141 0.928 . S
H137 C143 0.930 . S
C138 H135 0.931 . S
C138 C139 1.413 . S
C138 C140 1.360 . S
C139 C138 1.413 . S
C139 C143 1.429 . S
C140 C138 1.360 . S
C140 C141 1.372 . S
C141 H136 0.928 . S
C141 C140 1.372 . S
C141 C142 1.404 . S
C142 C141 1.404 . S
C142 C143 1.391 . S
C143 H137 0.930 . S
C143 C139 1.429 . S
C143 C142 1.391 . S
H144 C147 0.931 . S
H145 C150 0.928 . S
H146 C152 0.930 . S
C147 H144 0.931 . S
C147 C148 1.413 . S
C147 C149 1.360 . S
C148 C147 1.413 . S
C148 C152 1.429 . S
C149 C147 1.360 . S
C149 C150 1.372 . S
C150 H145 0.928 . S
C150 C149 1.372 . S
C150 C151 1.404 . S
C151 C150 1.404 . S
C151 C152 1.391 . S
C152 H146 0.930 . S
C152 C148 1.429 . S
C152 C151 1.391 . S
H153 C156 0.931 . S
H154 C159 0.928 . S
H155 C161 0.930 . S
C156 H153 0.931 . S
C156 C157 1.413 . S
C156 C158 1.360 . S
C157 C156 1.413 . S
C157 C161 1.429 . S
C158 C156 1.360 . S
C158 C159 1.372 . S
C159 H154 0.928 . S
C159 C158 1.372 . S
C159 C160 1.404 . S
C160 C159 1.404 . S
C160 C161 1.391 . S
C161 H155 0.930 . S
C161 C157 1.429 . S
C161 C160 1.391 . S
Tb162 C172 2.825 . S
Tb162 O173 2.347 1_565 S
Tb162 O176 2.366 1_565 S
Tb162 O181 2.418 . S
Tb162 O182 2.323 1_556 S
Tb162 O185 2.479 . S
Tb162 O186 2.471 1_565 S
Eu163 O174 2.418 . S
Eu163 O175 2.384 . S
Eu163 O178 2.479 . S
Eu163 O179 2.463 1_545 S
Eu163 O180 2.347 1_545 S
Eu163 O183 2.366 1_545 S
Eu163 C193 2.825 . S
C164 O180 1.259 . S
C164 O181 1.265 1_554 S
C165 O182 1.329 . S
C165 O183 1.265 . S
C166 C168 1.380 . S
C166 C169 1.374 1_565 S
C166 C172 1.507 . S
C167 C168 1.384 . S
C167 C171 1.387 1_565 S
C167 H194 0.930 . S
C168 C166 1.380 . S
C168 C167 1.384 . S
C168 H195 0.931 . S
C169 C166 1.374 1_545 S
C169 C170 1.390 . S
C169 H196 0.930 . S
C170 C169 1.390 . S
C170 C171 1.391 . S
C170 H197 0.930 . S
C171 C167 1.387 1_545 S
C171 C170 1.391 . S
C172 Tb162 2.825 . S
C172 C166 1.507 . S
C172 O185 1.238 . S
C172 O186 1.247 1_565 S
O173 Tb162 2.347 1_545 S
O173 C177 1.250 1_556 S
O174 Eu163 2.418 . S
O174 C177 1.288 . S
O175 Eu163 2.384 . S
O175 C184 1.255 1_554 S
O176 Tb162 2.366 1_545 S
O176 C184 1.265 . S
C177 O173 1.250 1_554 S
C177 O174 1.288 . S
O178 Eu163 2.479 . S
O178 C193 1.238 . S
O179 Eu163 2.463 1_565 S
O179 C193 1.235 1_565 S
O180 Eu163 2.347 1_565 S
O180 C164 1.259 . S
O181 Tb162 2.418 . S
O181 C164 1.265 1_556 S
O182 Tb162 2.323 1_554 S
O182 C165 1.329 . S
O183 Eu163 2.366 1_565 S
O183 C165 1.265 . S
C184 O175 1.255 1_556 S
C184 O176 1.265 . S
O185 Tb162 2.479 . S
O185 C172 1.238 . S
O186 Tb162 2.471 1_545 S
O186 C172 1.247 1_545 S
C187 C190 1.380 . S
C187 C191 1.374 1_545 S
C187 C193 1.507 . S
C188 C189 1.387 1_565 S
C188 C192 1.391 . S
C189 C188 1.387 1_545 S
C189 C190 1.384 . S
C189 H198 0.930 . S
C190 C187 1.380 . S
C190 C189 1.384 . S
C190 H199 0.931 . S
C191 C187 1.374 1_565 S
C191 C192 1.390 . S
C191 H200 0.930 . S
C192 C188 1.391 . S
C192 C191 1.390 . S
C192 H201 0.930 . S
C193 Eu163 2.825 . S
C193 O178 1.238 . S
C193 O179 1.235 1_545 S
C193 C187 1.507 . S
H194 C167 0.930 . S
H195 C168 0.931 . S
H196 C169 0.930 . S
H197 C170 0.930 . S
H198 C189 0.930 . S
H199 C190 0.931 . S
H200 C191 0.930 . S
H201 C192 0.930 . S
Tb202 C212 2.825 . S
Tb202 O213 2.347 1_455 S
Tb202 O216 2.366 1_455 S
Tb202 O221 2.418 . S
Tb202 O222 2.384 1_556 S
Tb202 O225 2.479 . S
Tb202 O226 2.471 1_455 S
Eu203 O214 2.418 . S
Eu203 O215 2.384 . S
Eu203 O218 2.479 . S
Eu203 O219 2.471 1_655 S
Eu203 O220 2.347 1_655 S
Eu203 O223 2.366 1_655 S
Eu203 C233 2.825 . S
C204 O220 1.259 . S
C204 O221 1.265 1_554 S
C205 O222 1.255 . S
C205 O223 1.265 . S
C206 C208 1.380 . S
C206 C209 1.374 1_455 S
C206 C212 1.507 . S
C207 C208 1.384 . S
C207 C211 1.387 1_455 S
C207 H234 0.930 . S
C208 C206 1.380 . S
C208 C207 1.384 . S
C208 H235 0.931 . S
C209 C206 1.374 1_655 S
C209 C210 1.390 . S
C209 H236 0.930 . S
C210 C209 1.390 . S
C210 C211 1.391 . S
C210 H237 0.930 . S
C211 C207 1.387 1_655 S
C211 C210 1.391 . S
C212 Tb202 2.825 . S
C212 C206 1.507 . S
C212 O225 1.238 . S
C212 O226 1.247 1_455 S
O213 Tb202 2.347 1_655 S
O213 C217 1.259 . S
O214 Eu203 2.418 . S
O214 C217 1.265 1_554 S
O215 Eu203 2.384 . S
O215 C224 1.255 1_554 S
O216 Tb202 2.366 1_655 S
O216 C224 1.265 . S
C217 O213 1.259 . S
C217 O214 1.265 1_556 S
O218 Eu203 2.479 . S
O218 C233 1.238 . S
O219 Eu203 2.471 1_455 S
O219 C233 1.247 1_455 S
O220 Eu203 2.347 1_455 S
O220 C204 1.259 . S
O221 Tb202 2.418 . S
O221 C204 1.265 1_556 S
O222 Tb202 2.384 1_554 S
O222 C205 1.255 . S
O223 Eu203 2.366 1_455 S
O223 C205 1.265 . S
C224 O215 1.255 1_556 S
C224 O216 1.265 . S
O225 Tb202 2.479 . S
O225 C212 1.238 . S
O226 Tb202 2.471 1_655 S
O226 C212 1.247 1_655 S
C227 C230 1.396 . S
C227 C231 1.345 1_655 S
C227 C233 1.520 . S
C228 C229 1.387 1_455 S
C228 C232 1.391 . S
C229 C228 1.387 1_655 S
C229 C230 1.384 . S
C229 H238 0.930 . S
C230 C227 1.396 . S
C230 C229 1.384 . S
C230 H239 0.931 . S
C231 C227 1.345 1_455 S
C231 C232 1.390 . S
C231 H240 0.930 . S
C232 C228 1.391 . S
C232 C231 1.390 . S
C232 H241 0.930 . S
C233 Eu203 2.825 . S
C233 O218 1.238 . S
C233 O219 1.247 1_655 S
C233 C227 1.520 . S
H234 C207 0.930 . S
H235 C208 0.931 . S
H236 C209 0.930 . S
H237 C210 0.930 . S
H238 C229 0.930 . S
H239 C230 0.931 . S
H240 C231 0.930 . S
H241 C232 0.930 . S
Tb242 C252 2.825 . S
Tb242 O253 2.347 . S
Tb242 O256 2.366 . S
Tb242 O261 2.418 . S
Tb242 O262 2.384 . S
Tb242 O265 2.479 . S
Tb242 O266 2.471 . S
Eu243 O254 2.418 . S
Eu243 O255 2.384 1_556 S
Eu243 O258 2.479 . S
Eu243 O259 2.471 . S
Eu243 O260 2.347 . S
Eu243 O263 2.366 . S
Eu243 C273 2.825 . S
C244 O260 1.259 . S
C244 O261 1.265 1_556 S
C245 O262 1.255 1_556 S
C245 O263 1.265 . S
C246 C248 1.380 . S
C246 C249 1.374 . S
C246 C252 1.507 . S
C247 C248 1.384 . S
C247 C251 1.387 . S
C247 H274 0.930 . S
C248 C246 1.380 . S
C248 C247 1.384 . S
C248 H275 0.931 . S
C249 C246 1.374 . S
C249 C250 1.390 . S
C249 H276 0.930 . S
C250 C249 1.390 . S
C250 C251 1.391 . S
C250 H277 0.930 . S
C251 C247 1.387 . S
C251 C250 1.391 . S
C252 Tb242 2.825 . S
C252 C246 1.507 . S
C252 O265 1.238 . S
C252 O266 1.247 . S
O253 Tb242 2.347 . S
O253 C257 1.259 . S
O254 Eu243 2.418 . S
O254 C257 1.265 1_556 S
O255 Eu243 2.384 1_554 S
O255 C264 1.255 . S
O256 Tb242 2.366 . S
O256 C264 1.265 . S
C257 O253 1.259 . S
C257 O254 1.265 1_554 S
O258 Eu243 2.479 . S
O258 C273 1.238 . S
O259 Eu243 2.471 . S
O259 C273 1.247 . S
O260 Eu243 2.347 . S
O260 C244 1.259 . S
O261 Tb242 2.418 . S
O261 C244 1.265 1_554 S
O262 Tb242 2.384 . S
O262 C245 1.255 1_554 S
O263 Eu243 2.366 . S
O263 C245 1.265 . S
C264 O255 1.255 . S
C264 O256 1.265 . S
O265 Tb242 2.479 . S
O265 C252 1.238 . S
O266 Tb242 2.471 . S
O266 C252 1.247 . S
C267 C270 1.380 . S
C267 C271 1.374 . S
C267 C273 1.507 . S
C268 C269 1.387 . S
C268 C272 1.391 . S
C269 C268 1.387 . S
C269 C270 1.384 . S
C269 H278 0.930 . S
C270 C267 1.380 . S
C270 C269 1.384 . S
C270 H279 0.931 . S
C271 C267 1.374 . S
C271 C272 1.390 . S
C271 H280 0.930 . S
C272 C268 1.391 . S
C272 C271 1.390 . S
C272 H281 0.930 . S
C273 Eu243 2.825 . S
C273 O258 1.238 . S
C273 O259 1.247 . S
C273 C267 1.507 . S
H274 C247 0.930 . S
H275 C248 0.931 . S
H276 C249 0.930 . S
H277 C250 0.930 . S
H278 C269 0.930 . S
H279 C270 0.931 . S
H280 C271 0.930 . S
H281 C272 0.930 . S
Tb282 C292 2.825 . S
Tb282 O293 2.347 . S
Tb282 O296 2.366 . S
Tb282 O301 2.418 . S
Tb282 O302 2.384 . S
Tb282 O305 2.479 . S
Tb282 O306 2.471 . S
Eu283 O294 2.418 . S
Eu283 O295 2.384 . S
Eu283 O298 2.479 . S
Eu283 O299 2.471 . S
Eu283 O300 2.347 . S
Eu283 O303 2.366 . S
Eu283 C313 2.825 . S
C284 O300 1.259 . S
C284 O301 1.265 . S
C285 O302 1.255 . S
C285 O303 1.265 . S
C286 C288 1.380 . S
C286 C289 1.374 . S
C286 C292 1.507 . S
C287 C288 1.384 . S
C287 C291 1.387 . S
C287 H314 0.930 . S
C288 C286 1.380 . S
C288 C287 1.384 . S
C288 H315 0.931 . S
C289 C286 1.374 . S
C289 C290 1.390 . S
C289 H316 0.930 . S
C290 C289 1.390 . S
C290 C291 1.391 . S
C290 H317 0.930 . S
C291 C287 1.387 . S
C291 C290 1.391 . S
C292 Tb282 2.825 . S
C292 C286 1.507 . S
C292 O305 1.238 . S
C292 O306 1.247 . S
O293 Tb282 2.347 . S
O293 C297 1.259 . S
O294 Eu283 2.418 . S
O294 C297 1.265 . S
O295 Eu283 2.384 . S
O295 C304 1.255 . S
O296 Tb282 2.366 . S
O296 C304 1.265 . S
C297 O293 1.259 . S
C297 O294 1.265 . S
O298 Eu283 2.479 . S
O298 C313 1.238 . S
O299 Eu283 2.471 . S
O299 C313 1.247 . S
O300 Eu283 2.347 . S
O300 C284 1.259 . S
O301 Tb282 2.418 . S
O301 C284 1.265 . S
O302 Tb282 2.384 . S
O302 C285 1.255 . S
O303 Eu283 2.366 . S
O303 C285 1.265 . S
C304 O295 1.255 . S
C304 O296 1.265 . S
O305 Tb282 2.479 . S
O305 C292 1.238 . S
O306 Tb282 2.471 . S
O306 C292 1.247 . S
C307 C310 1.380 . S
C307 C311 1.374 . S
C307 C313 1.507 . S
C308 C309 1.387 . S
C308 C312 1.391 . S
C309 C308 1.387 . S
C309 C310 1.384 . S
C309 H318 0.930 . S
C310 C307 1.380 . S
C310 C309 1.384 . S
C310 H319 0.931 . S
C311 C307 1.374 . S
C311 C312 1.390 . S
C311 H320 0.930 . S
C312 C308 1.391 . S
C312 C311 1.390 . S
C312 H321 0.930 . S
C313 Eu283 2.825 . S
C313 O298 1.238 . S
C313 O299 1.247 . S
C313 C307 1.507 . S
H314 C287 0.930 . S
H315 C288 0.931 . S
H316 C289 0.930 . S
H317 C290 0.930 . S
H318 C309 0.930 . S
H319 C310 0.931 . S
H320 C311 0.930 . S
H321 C312 0.930 . S
Tb322 C332 2.825 . S
Tb322 O333 2.347 . S
Tb322 O336 2.366 . S
Tb322 O341 2.418 . S
Tb322 O342 2.384 . S
Tb322 O345 2.479 . S
Tb322 O346 2.471 . S
Eu323 O334 2.418 . S
Eu323 O335 2.384 . S
Eu323 O338 2.479 . S
Eu323 O339 2.471 . S
Eu323 O340 2.347 . S
Eu323 O343 2.366 . S
Eu323 C353 2.825 . S
C324 O340 1.259 . S
C324 O341 1.265 . S
C325 O342 1.255 . S
C325 O343 1.265 . S
C326 C328 1.380 . S
C326 C329 1.374 . S
C326 C332 1.507 . S
C327 C328 1.384 . S
C327 C331 1.387 . S
C327 H354 0.930 . S
C328 C326 1.380 . S
C328 C327 1.384 . S
C328 H355 0.931 . S
C329 C326 1.374 . S
C329 C330 1.390 . S
C329 H356 0.930 . S
C330 C329 1.390 . S
C330 C331 1.391 . S
C330 H357 0.930 . S
C331 C327 1.387 . S
C331 C330 1.391 . S
C332 Tb322 2.825 . S
C332 C326 1.507 . S
C332 O345 1.238 . S
C332 O346 1.247 . S
O333 Tb322 2.347 . S
O333 C337 1.259 . S
O334 Eu323 2.418 . S
O334 C337 1.265 . S
O335 Eu323 2.384 . S
O335 C344 1.255 . S
O336 Tb322 2.366 . S
O336 C344 1.265 . S
C337 O333 1.259 . S
C337 O334 1.265 . S
O338 Eu323 2.479 . S
O338 C353 1.238 . S
O339 Eu323 2.471 . S
O339 C353 1.247 . S
O340 Eu323 2.347 . S
O340 C324 1.259 . S
O341 Tb322 2.418 . S
O341 C324 1.265 . S
O342 Tb322 2.384 . S
O342 C325 1.255 . S
O343 Eu323 2.366 . S
O343 C325 1.265 . S
C344 O335 1.255 . S
C344 O336 1.265 . S
O345 Tb322 2.479 . S
O345 C332 1.238 . S
O346 Tb322 2.471 . S
O346 C332 1.247 . S
C347 C350 1.380 . S
C347 C351 1.374 . S
C347 C353 1.507 . S
C348 C349 1.387 . S
C348 C352 1.391 . S
C349 C348 1.387 . S
C349 C350 1.384 . S
C349 H358 0.930 . S
C350 C347 1.380 . S
C350 C349 1.384 . S
C350 H359 0.931 . S
C351 C347 1.374 . S
C351 C352 1.390 . S
C351 H360 0.930 . S
C352 C348 1.391 . S
C352 C351 1.390 . S
C352 H361 0.930 . S
C353 Eu323 2.825 . S
C353 O338 1.238 . S
C353 O339 1.247 . S
C353 C347 1.507 . S
H354 C327 0.930 . S
H355 C328 0.931 . S
H356 C329 0.930 . S
H357 C330 0.930 . S
H358 C349 0.930 . S
H359 C350 0.931 . S
H360 C351 0.930 . S
H361 C352 0.930 . S
Tb362 C372 2.825 . S
Tb362 O373 2.347 . S
Tb362 O376 2.366 . S
Tb362 O381 2.418 . S
Tb362 O382 2.384 . S
Tb362 O385 2.479 . S
Tb362 O386 2.471 . S
Eu363 O374 2.418 . S
Eu363 O375 2.384 . S
Eu363 O378 2.479 . S
Eu363 O379 2.471 . S
Eu363 O380 2.347 . S
Eu363 O383 2.366 . S
Eu363 C393 2.825 . S
C364 O380 1.259 . S
C364 O381 1.265 . S
C365 O382 1.255 . S
C365 O383 1.265 . S
C366 C368 1.380 . S
C366 C369 1.374 . S
C366 C372 1.507 . S
C367 C368 1.384 . S
C367 C371 1.387 . S
C367 H394 0.930 . S
C368 C366 1.380 . S
C368 C367 1.384 . S
C368 H395 0.931 . S
C369 C366 1.374 . S
C369 C370 1.390 . S
C369 H396 0.930 . S
C370 C369 1.390 . S
C370 C371 1.391 . S
C370 H397 0.930 . S
C371 C367 1.387 . S
C371 C370 1.391 . S
C372 Tb362 2.825 . S
C372 C366 1.507 . S
C372 O385 1.238 . S
C372 O386 1.247 . S
O373 Tb362 2.347 . S
O373 C377 1.259 . S
O374 Eu363 2.418 . S
O374 C377 1.265 . S
O375 Eu363 2.384 . S
O375 C384 1.255 . S
O376 Tb362 2.366 . S
O376 C384 1.265 . S
C377 O373 1.259 . S
C377 O374 1.265 . S
O378 Eu363 2.479 . S
O378 C393 1.238 . S
O379 Eu363 2.471 . S
O379 C393 1.247 . S
O380 Eu363 2.347 . S
O380 C364 1.259 . S
O381 Tb362 2.418 . S
O381 C364 1.265 . S
O382 Tb362 2.384 . S
O382 C365 1.255 . S
O383 Eu363 2.366 . S
O383 C365 1.265 . S
C384 O375 1.255 . S
C384 O376 1.265 . S
O385 Tb362 2.479 . S
O385 C372 1.238 . S
O386 Tb362 2.471 . S
O386 C372 1.247 . S
C387 C390 1.380 . S
C387 C391 1.374 . S
C387 C393 1.507 . S
C388 C389 1.387 . S
C388 C392 1.391 . S
C389 C388 1.387 . S
C389 C390 1.384 . S
C389 H398 0.930 . S
C390 C387 1.380 . S
C390 C389 1.384 . S
C390 H399 0.931 . S
C391 C387 1.374 . S
C391 C392 1.390 . S
C391 H400 0.930 . S
C392 C388 1.391 . S
C392 C391 1.390 . S
C392 H401 0.930 . S
C393 Eu363 2.825 . S
C393 O378 1.238 . S
C393 O379 1.247 . S
C393 C387 1.507 . S
H394 C367 0.930 . S
H395 C368 0.931 . S
H396 C369 0.930 . S
H397 C370 0.930 . S
H398 C389 0.930 . S
H399 C390 0.931 . S
H400 C391 0.930 . S
H401 C392 0.930 . S
Tb402 C412 2.825 . S
Tb402 O413 2.347 . S
Tb402 O416 2.366 . S
Tb402 O421 2.418 . S
Tb402 O422 2.384 . S
Tb402 O425 2.479 . S
Tb402 O426 2.471 . S
Eu403 O414 2.418 . S
Eu403 O415 2.384 . S
Eu403 O418 2.479 . S
Eu403 O419 2.471 . S
Eu403 O420 2.347 . S
Eu403 O423 2.366 . S
Eu403 C433 2.825 . S
C404 O420 1.259 . S
C404 O421 1.265 . S
C405 O422 1.255 . S
C405 O423 1.265 . S
C406 C408 1.380 . S
C406 C409 1.374 . S
C406 C412 1.507 . S
C407 C408 1.384 . S
C407 C411 1.387 . S
C407 H434 0.930 . S
C408 C406 1.380 . S
C408 C407 1.384 . S
C408 H435 0.931 . S
C409 C406 1.374 . S
C409 C410 1.390 . S
C409 H436 0.930 . S
C410 C409 1.390 . S
C410 C411 1.391 . S
C410 H437 0.930 . S
C411 C407 1.387 . S
C411 C410 1.391 . S
C412 Tb402 2.825 . S
C412 C406 1.507 . S
C412 O425 1.238 . S
C412 O426 1.247 . S
O413 Tb402 2.347 . S
O413 C417 1.259 . S
O414 Eu403 2.418 . S
O414 C417 1.265 . S
O415 Eu403 2.384 . S
O415 C424 1.255 . S
O416 Tb402 2.366 . S
O416 C424 1.265 . S
C417 O413 1.259 . S
C417 O414 1.265 . S
O418 Eu403 2.479 . S
O418 C433 1.238 . S
O419 Eu403 2.471 . S
O419 C433 1.247 . S
O420 Eu403 2.347 . S
O420 C404 1.259 . S
O421 Tb402 2.418 . S
O421 C404 1.265 . S
O422 Tb402 2.384 . S
O422 C405 1.255 . S
O423 Eu403 2.366 . S
O423 C405 1.265 . S
C424 O415 1.255 . S
C424 O416 1.265 . S
O425 Tb402 2.479 . S
O425 C412 1.238 . S
O426 Tb402 2.471 . S
O426 C412 1.247 . S
C427 C430 1.380 . S
C427 C431 1.374 . S
C427 C433 1.507 . S
C428 C429 1.387 . S
C428 C432 1.391 . S
C429 C428 1.387 . S
C429 C430 1.384 . S
C429 H438 0.930 . S
C430 C427 1.380 . S
C430 C429 1.384 . S
C430 H439 0.931 . S
C431 C427 1.374 . S
C431 C432 1.390 . S
C431 H440 0.930 . S
C432 C428 1.391 . S
C432 C431 1.390 . S
C432 H441 0.930 . S
C433 Eu403 2.825 . S
C433 O418 1.238 . S
C433 O419 1.247 . S
C433 C427 1.507 . S
H434 C407 0.930 . S
H435 C408 0.931 . S
H436 C409 0.930 . S
H437 C410 0.930 . S
H438 C429 0.930 . S
H439 C430 0.931 . S
H440 C431 0.930 . S
H441 C432 0.930 . S
Tb442 C452 2.825 . S
Tb442 O453 2.347 . S
Tb442 O456 2.366 . S
Tb442 O461 2.418 . S
Tb442 O462 2.384 . S
Tb442 O465 2.479 . S
Tb442 O466 2.471 . S
Eu443 O454 2.418 . S
Eu443 O455 2.384 . S
Eu443 O458 2.479 . S
Eu443 O459 2.471 . S
Eu443 O460 2.347 . S
Eu443 O463 2.366 . S
Eu443 C473 2.825 . S
C444 O460 1.259 . S
C444 O461 1.265 . S
C445 O462 1.255 . S
C445 O463 1.265 . S
C446 C448 1.380 . S
C446 C449 1.374 . S
C446 C452 1.507 . S
C447 C448 1.384 . S
C447 C451 1.387 . S
C447 H474 0.930 . S
C448 C446 1.380 . S
C448 C447 1.384 . S
C448 H475 0.931 . S
C449 C446 1.374 . S
C449 C450 1.390 . S
C449 H476 0.930 . S
C450 C449 1.390 . S
C450 C451 1.391 . S
C450 H477 0.930 . S
C451 C447 1.387 . S
C451 C450 1.391 . S
C452 Tb442 2.825 . S
C452 C446 1.507 . S
C452 O465 1.238 . S
C452 O466 1.247 . S
O453 Tb442 2.347 . S
O453 C457 1.259 . S
O454 Eu443 2.418 . S
O454 C457 1.265 . S
O455 Eu443 2.384 . S
O455 C464 1.255 . S
O456 Tb442 2.366 . S
O456 C464 1.265 . S
C457 O453 1.259 . S
C457 O454 1.265 . S
O458 Eu443 2.479 . S
O458 C473 1.238 . S
O459 Eu443 2.471 . S
O459 C473 1.247 . S
O460 Eu443 2.347 . S
O460 C444 1.259 . S
O461 Tb442 2.418 . S
O461 C444 1.265 . S
O462 Tb442 2.384 . S
O462 C445 1.255 . S
O463 Eu443 2.366 . S
O463 C445 1.265 . S
C464 O455 1.255 . S
C464 O456 1.265 . S
O465 Tb442 2.479 . S
O465 C452 1.238 . S
O466 Tb442 2.471 . S
O466 C452 1.247 . S
C467 C470 1.380 . S
C467 C471 1.374 . S
C467 C473 1.507 . S
C468 C469 1.387 . S
C468 C472 1.391 . S
C469 C468 1.387 . S
C469 C470 1.384 . S
C469 H478 0.930 . S
C470 C467 1.380 . S
C470 C469 1.384 . S
C470 H479 0.931 . S
C471 C467 1.374 . S
C471 C472 1.390 . S
C471 H480 0.930 . S
C472 C468 1.391 . S
C472 C471 1.390 . S
C472 H481 0.930 . S
C473 Eu443 2.825 . S
C473 O458 1.238 . S
C473 O459 1.247 . S
C473 C467 1.507 . S
H474 C447 0.930 . S
H475 C448 0.931 . S
H476 C449 0.930 . S
H477 C450 0.930 . S
H478 C469 0.930 . S
H479 C470 0.931 . S
H480 C471 0.930 . S
H481 C472 0.930 . S
Tb482 C492 2.825 . S
Tb482 O493 2.347 . S
Tb482 O496 2.366 . S
Tb482 O501 2.418 . S
Tb482 O502 2.384 . S
Tb482 O505 2.479 . S
Tb482 O506 2.471 . S
Eu483 O494 2.418 . S
Eu483 O495 2.384 . S
Eu483 O498 2.479 . S
Eu483 O499 2.471 . S
Eu483 O500 2.347 . S
Eu483 O503 2.366 . S
Eu483 C513 2.825 . S
C484 O500 1.259 . S
C484 O501 1.265 . S
C485 O502 1.255 . S
C485 O503 1.265 . S
C486 C488 1.380 . S
C486 C489 1.374 . S
C486 C492 1.507 . S
C487 C488 1.384 . S
C487 C491 1.387 . S
C487 H514 0.930 . S
C488 C486 1.380 . S
C488 C487 1.384 . S
C488 H515 0.931 . S
C489 C486 1.374 . S
C489 C490 1.390 . S
C489 H516 0.930 . S
C490 C489 1.390 . S
C490 C491 1.391 . S
C490 H517 0.930 . S
C491 C487 1.387 . S
C491 C490 1.391 . S
C492 Tb482 2.825 . S
C492 C486 1.507 . S
C492 O505 1.238 . S
C492 O506 1.247 . S
O493 Tb482 2.347 . S
O493 C497 1.259 . S
O494 Eu483 2.418 . S
O494 C497 1.265 . S
O495 Eu483 2.384 . S
O495 C504 1.255 . S
O496 Tb482 2.366 . S
O496 C504 1.265 . S
C497 O493 1.259 . S
C497 O494 1.265 . S
O498 Eu483 2.479 . S
O498 C513 1.238 . S
O499 Eu483 2.471 . S
O499 C513 1.247 . S
O500 Eu483 2.347 . S
O500 C484 1.259 . S
O501 Tb482 2.418 . S
O501 C484 1.265 . S
O502 Tb482 2.384 . S
O502 C485 1.255 . S
O503 Eu483 2.366 . S
O503 C485 1.265 . S
C504 O495 1.255 . S
C504 O496 1.265 . S
O505 Tb482 2.479 . S
O505 C492 1.238 . S
O506 Tb482 2.471 . S
O506 C492 1.247 . S
C507 C510 1.380 . S
C507 C511 1.374 . S
C507 C513 1.507 . S
C508 C509 1.387 . S
C508 C512 1.391 . S
C509 C508 1.387 . S
C509 C510 1.384 . S
C509 H518 0.930 . S
C510 C507 1.380 . S
C510 C509 1.384 . S
C510 H519 0.931 . S
C511 C507 1.374 . S
C511 C512 1.390 . S
C511 H520 0.930 . S
C512 C508 1.391 . S
C512 C511 1.390 . S
C512 H521 0.930 . S
C513 Eu483 2.825 . S
C513 O498 1.238 . S
C513 O499 1.247 . S
C513 C507 1.507 . S
H514 C487 0.930 . S
H515 C488 0.931 . S
H516 C489 0.930 . S
H517 C490 0.930 . S
H518 C509 0.930 . S
H519 C510 0.931 . S
H520 C511 0.930 . S
H521 C512 0.930 . S
H522 C530 0.929 . S
H523 C532 0.930 . S
H524 C534 0.930 . S
H525 C537 0.929 . S
H526 C540 0.930 . S
H527 C542 0.960 . S
H528 C542 0.960 . S
H529 C542 0.960 . S
C530 H522 0.929 . S
C530 C531 1.377 . S
C530 C532 1.384 . S
C531 C530 1.377 . S
C531 C537 1.390 . S
C532 H523 0.930 . S
C532 C530 1.384 . S
C532 C533 1.372 . S
C533 C532 1.372 . S
C533 C534 1.400 . S
C533 C538 1.490 . S
C534 H524 0.930 . S
C534 C533 1.400 . S
C534 C537 1.386 . S
H535 C551 0.930 . S
H536 C552 0.931 . S
C537 H525 0.929 . S
C537 C531 1.390 . S
C537 C534 1.386 . S
C538 C533 1.490 . S
C538 C540 1.395 . S
C538 C541 1.403 . S
H539 C545 0.930 . S
C540 H526 0.930 . S
C540 C538 1.395 . S
C540 C543 1.403 . S
C541 C538 1.403 . S
C541 C542 1.524 . S
C541 C545 1.400 . S
C542 H527 0.960 . S
C542 H528 0.960 . S
C542 H529 0.960 . S
C542 C541 1.524 . S
C543 C540 1.403 . S
C543 C544 1.392 . S
C543 C547 1.495 . S
C544 C543 1.392 . S
C544 C545 1.385 . S
C544 C546 1.478 . S
C545 H539 0.930 . S
C545 C541 1.400 . S
C545 C544 1.385 . S
C546 C544 1.478 . S
C546 C548 1.381 . S
C546 C552 1.383 . S
C547 C543 1.495 . S
C547 H553 0.959 . S
C547 H554 0.961 . S
C547 H555 0.960 . S
C548 C546 1.381 . S
C548 C549 1.394 . S
C548 H556 0.930 . S
C549 C548 1.394 . S
C549 C550 1.383 . S
C549 H557 0.929 . S
C550 C549 1.383 . S
C550 C551 1.377 . S
C551 H535 0.930 . S
C551 C550 1.377 . S
C551 C552 1.379 . S
C552 H536 0.931 . S
C552 C546 1.383 . S
C552 C551 1.379 . S
H553 C547 0.959 . S
H554 C547 0.961 . S
H555 C547 0.960 . S
H556 C548 0.930 . S
H557 C549 0.929 . S
H558 C566 0.929 . S
H559 C568 0.930 . S
H560 C570 0.930 . S
H561 C573 0.929 . S
H562 C576 0.930 . S
H563 C578 0.960 . S
H564 C578 0.960 . S
H565 C578 0.960 . S
C566 H558 0.929 . S
C566 C567 1.377 . S
C566 C568 1.384 . S
C567 C566 1.377 . S
C567 C573 1.390 . S
C568 H559 0.930 . S
C568 C566 1.384 . S
C568 C569 1.372 . S
C569 C568 1.372 . S
C569 C570 1.400 . S
C569 C574 1.490 . S
C570 H560 0.930 . S
C570 C569 1.400 . S
C570 C573 1.386 . S
H571 C587 0.930 . S
H572 C588 0.931 . S
C573 H561 0.929 . S
C573 C567 1.390 . S
C573 C570 1.386 . S
C574 C569 1.490 . S
C574 C576 1.395 . S
C574 C577 1.403 . S
H575 C581 0.930 . S
C576 H562 0.930 . S
C576 C574 1.395 . S
C576 C579 1.403 . S
C577 C574 1.403 . S
C577 C578 1.524 . S
C577 C581 1.400 . S
C578 H563 0.960 . S
C578 H564 0.960 . S
C578 H565 0.960 . S
C578 C577 1.524 . S
C579 C576 1.403 . S
C579 C580 1.392 . S
C579 C583 1.495 . S
C580 C579 1.392 . S
C580 C581 1.385 . S
C580 C582 1.478 . S
C581 H575 0.930 . S
C581 C577 1.400 . S
C581 C580 1.385 . S
C582 C580 1.478 . S
C582 C584 1.381 . S
C582 C588 1.383 . S
C583 C579 1.495 . S
C583 H589 0.959 . S
C583 H590 0.961 . S
C583 H591 0.960 . S
C584 C582 1.381 . S
C584 C585 1.394 . S
C584 H592 0.930 . S
C585 C584 1.394 . S
C585 C586 1.383 . S
C585 H593 0.929 . S
C586 C585 1.383 . S
C586 C587 1.377 . S
C587 H571 0.930 . S
C587 C586 1.377 . S
C587 C588 1.379 . S
C588 H572 0.931 . S
C588 C582 1.383 . S
C588 C587 1.379 . S
H589 C583 0.959 . S
H590 C583 0.961 . S
H591 C583 0.960 . S
H592 C584 0.930 . S
H593 C585 0.929 . S
H594 C602 0.929 . S
H595 C604 0.930 . S
H596 C606 0.930 . S
H597 C609 0.929 . S
H598 C612 0.930 . S
H599 C614 0.960 . S
H600 C614 0.960 . S
H601 C614 0.960 . S
C602 H594 0.929 . S
C602 C603 1.377 . S
C602 C604 1.384 . S
C603 C602 1.377 . S
C603 C609 1.390 . S
C604 H595 0.930 . S
C604 C602 1.384 . S
C604 C605 1.372 . S
C605 C604 1.372 . S
C605 C606 1.400 . S
C605 C610 1.490 . S
C606 H596 0.930 . S
C606 C605 1.400 . S
C606 C609 1.386 . S
H607 C623 0.930 . S
H608 C624 0.931 . S
C609 H597 0.929 . S
C609 C603 1.390 . S
C609 C606 1.386 . S
C610 C605 1.490 . S
C610 C612 1.395 . S
C610 C613 1.403 . S
H611 C617 0.930 . S
C612 H598 0.930 . S
C612 C610 1.395 . S
C612 C615 1.403 . S
C613 C610 1.403 . S
C613 C614 1.524 . S
C613 C617 1.400 . S
C614 H599 0.960 . S
C614 H600 0.960 . S
C614 H601 0.960 . S
C614 C613 1.524 . S
C615 C612 1.403 . S
C615 C616 1.392 . S
C615 C619 1.495 . S
C616 C615 1.392 . S
C616 C617 1.385 . S
C616 C618 1.478 . S
C617 H611 0.930 . S
C617 C613 1.400 . S
C617 C616 1.385 . S
C618 C616 1.478 . S
C618 C620 1.381 . S
C618 C624 1.383 . S
C619 C615 1.495 . S
C619 H625 0.959 . S
C619 H626 0.961 . S
C619 H627 0.960 . S
C620 C618 1.381 . S
C620 C621 1.394 . S
C620 H628 0.930 . S
C621 C620 1.394 . S
C621 C622 1.383 . S
C621 H629 0.929 . S
C622 C621 1.383 . S
C622 C623 1.377 . S
C623 H607 0.930 . S
C623 C622 1.377 . S
C623 C624 1.379 . S
C624 H608 0.931 . S
C624 C618 1.383 . S
C624 C623 1.379 . S
H625 C619 0.959 . S
H626 C619 0.961 . S
H627 C619 0.960 . S
H628 C620 0.930 . S
H629 C621 0.929 . S
H630 C638 0.929 . S
H631 C640 0.930 . S
H632 C642 0.930 . S
H633 C645 0.929 . S
H634 C648 0.930 . S
H635 C650 0.960 . S
H636 C650 0.960 . S
H637 C650 0.960 . S
C638 H630 0.929 . S
C638 C639 1.377 . S
C638 C640 1.384 . S
C639 C638 1.377 . S
C639 C645 1.390 . S
C640 H631 0.930 . S
C640 C638 1.384 . S
C640 C641 1.372 . S
C641 C640 1.372 . S
C641 C642 1.400 . S
C641 C646 1.490 . S
C642 H632 0.930 . S
C642 C641 1.400 . S
C642 C645 1.386 . S
H643 C659 0.930 . S
H644 C660 0.931 . S
C645 H633 0.929 . S
C645 C639 1.390 . S
C645 C642 1.386 . S
C646 C641 1.490 . S
C646 C648 1.395 . S
C646 C649 1.403 . S
H647 C653 0.930 . S
C648 H634 0.930 . S
C648 C646 1.395 . S
C648 C651 1.403 . S
C649 C646 1.403 . S
C649 C650 1.524 . S
C649 C653 1.400 . S
C650 H635 0.960 . S
C650 H636 0.960 . S
C650 H637 0.960 . S
C650 C649 1.524 . S
C651 C648 1.403 . S
C651 C652 1.392 . S
C651 C655 1.495 . S
C652 C651 1.392 . S
C652 C653 1.385 . S
C652 C654 1.478 . S
C653 H647 0.930 . S
C653 C649 1.400 . S
C653 C652 1.385 . S
C654 C652 1.478 . S
C654 C656 1.381 . S
C654 C660 1.383 . S
C655 C651 1.495 . S
C655 H661 0.959 . S
C655 H662 0.961 . S
C655 H663 0.960 . S
C656 C654 1.381 . S
C656 C657 1.394 . S
C656 H664 0.930 . S
C657 C656 1.394 . S
C657 C658 1.383 . S
C657 H665 0.929 1_556 S
C658 C657 1.383 . S
C658 C659 1.377 . S
C659 H643 0.930 . S
C659 C658 1.377 . S
C659 C660 1.379 . S
C660 H644 0.931 . S
C660 C654 1.383 . S
C660 C659 1.379 . S
H661 C655 0.959 . S
H662 C655 0.961 . S
H663 C655 0.960 . S
H664 C656 0.930 . S
H665 C657 0.929 1_554 S
H666 C674 0.929 . S
H667 C676 0.930 . S
H668 C678 0.930 . S
H669 C681 0.929 . S
H670 C684 0.930 . S
H671 C686 0.960 . S
H672 C686 0.960 . S
H673 C686 0.960 . S
C674 H666 0.929 . S
C674 C675 1.377 . S
C674 C676 1.384 . S
C675 C674 1.377 . S
C675 C681 1.390 . S
C676 H667 0.930 . S
C676 C674 1.384 . S
C676 C677 1.372 . S
C677 C676 1.372 . S
C677 C678 1.400 . S
C677 C682 1.490 . S
C678 H668 0.930 . S
C678 C677 1.400 . S
C678 C681 1.386 . S
H679 C695 0.930 . S
H680 C696 0.931 . S
C681 H669 0.929 . S
C681 C675 1.390 . S
C681 C678 1.386 . S
C682 C677 1.490 . S
C682 C684 1.395 . S
C682 C685 1.403 . S
H683 C689 0.930 . S
C684 H670 0.930 . S
C684 C682 1.395 . S
C684 C687 1.403 . S
C685 C682 1.403 . S
C685 C686 1.524 . S
C685 C689 1.400 . S
C686 H671 0.960 . S
C686 H672 0.960 . S
C686 H673 0.960 . S
C686 C685 1.524 . S
C687 C684 1.403 . S
C687 C688 1.392 . S
C687 C691 1.495 . S
C688 C687 1.392 . S
C688 C689 1.385 . S
C688 C690 1.478 . S
C689 H683 0.930 . S
C689 C685 1.400 . S
C689 C688 1.385 . S
C690 C688 1.478 . S
C690 C692 1.381 . S
C690 C696 1.383 . S
C691 C687 1.495 . S
C691 H697 0.959 . S
C691 H698 0.961 . S
C691 H699 0.960 . S
C692 C690 1.381 . S
C692 C693 1.394 . S
C692 H700 0.930 . S
C693 C692 1.394 . S
C693 C694 1.383 . S
C693 H701 0.929 1_556 S
C694 C693 1.383 . S
C694 C695 1.377 . S
C695 H679 0.930 . S
C695 C694 1.377 . S
C695 C696 1.379 . S
C696 H680 0.931 . S
C696 C690 1.383 . S
C696 C695 1.379 . S
H697 C691 0.959 . S
H698 C691 0.961 . S
H699 C691 0.960 . S
H700 C692 0.930 . S
H701 C693 0.929 1_554 S
H702 C710 0.929 . S
H703 C712 0.930 . S
H704 C714 0.930 . S
H705 C717 0.929 . S
H706 C720 0.930 . S
H707 C722 0.960 . S
H708 C722 0.960 . S
H709 C722 0.960 . S
C710 H702 0.929 . S
C710 C711 1.377 . S
C710 C712 1.384 . S
C711 C710 1.377 . S
C711 C717 1.390 . S
C712 H703 0.930 . S
C712 C710 1.384 . S
C712 C713 1.372 . S
C713 C712 1.372 . S
C713 C714 1.400 . S
C713 C718 1.490 . S
C714 H704 0.930 . S
C714 C713 1.400 . S
C714 C717 1.386 . S
H715 C731 0.930 . S
H716 C732 0.931 . S
C717 H705 0.929 . S
C717 C711 1.390 . S
C717 C714 1.386 . S
C718 C713 1.490 . S
C718 C720 1.395 . S
C718 C721 1.403 . S
H719 C725 0.930 . S
C720 H706 0.930 . S
C720 C718 1.395 . S
C720 C723 1.403 . S
C721 C718 1.403 . S
C721 C722 1.524 . S
C721 C725 1.400 . S
C722 H707 0.960 . S
C722 H708 0.960 . S
C722 H709 0.960 . S
C722 C721 1.524 . S
C723 C720 1.403 . S
C723 C724 1.392 . S
C723 C727 1.438 1_556 S
C724 C723 1.392 . S
C724 C725 1.385 . S
C724 C726 1.478 . S
C725 H719 0.930 . S
C725 C721 1.400 . S
C725 C724 1.385 . S
C726 C724 1.478 . S
C726 C728 1.431 . S
C726 C732 1.383 . S
C727 C723 1.438 1_554 S
C727 H733 0.983 . S
C727 H734 0.954 1_554 S
C727 H735 1.006 . S
C728 C726 1.431 . S
C728 C729 1.378 1_556 S
C728 H736 0.899 1_556 S
C729 C728 1.378 1_554 S
C729 C730 1.383 1_554 S
C729 H737 0.929 . S
C730 C729 1.383 1_556 S
C730 C731 1.377 . S
C731 H715 0.930 . S
C731 C730 1.377 . S
C731 C732 1.379 . S
C732 H716 0.931 . S
C732 C726 1.383 . S
C732 C731 1.379 . S
H733 C727 0.983 . S
H734 C727 0.954 1_556 S
H735 C727 1.006 . S
H736 C728 0.899 1_554 S
H737 C729 0.929 . S
H738 C746 0.929 . S
H739 C748 0.930 . S
H740 C750 0.930 . S
H741 C753 0.929 . S
H742 C756 0.930 . S
H743 C758 0.960 . S
H744 C758 0.960 . S
H745 C758 0.960 . S
C746 H738 0.929 . S
C746 C747 1.377 . S
C746 C748 1.384 . S
C747 C746 1.377 . S
C747 C753 1.390 . S
C748 H739 0.930 . S
C748 C746 1.384 . S
C748 C749 1.372 . S
C749 C748 1.372 . S
C749 C750 1.400 . S
C749 C754 1.490 . S
C750 H740 0.930 . S
C750 C749 1.400 . S
C750 C753 1.386 . S
H751 C767 0.930 . S
H752 C768 0.931 . S
C753 H741 0.929 . S
C753 C747 1.390 . S
C753 C750 1.386 . S
C754 C749 1.490 . S
C754 C756 1.395 . S
C754 C757 1.403 . S
H755 C761 0.930 . S
C756 H742 0.930 . S
C756 C754 1.395 . S
C756 C759 1.403 . S
C757 C754 1.403 . S
C757 C758 1.524 . S
C757 C761 1.400 . S
C758 H743 0.960 . S
C758 H744 0.960 . S
C758 H745 0.960 . S
C758 C757 1.524 . S
C759 C756 1.403 . S
C759 C760 1.392 . S
C759 C763 1.495 . S
C760 C759 1.392 . S
C760 C761 1.385 . S
C760 C762 1.478 . S
C761 H755 0.930 . S
C761 C757 1.400 . S
C761 C760 1.385 . S
C762 C760 1.478 . S
C762 C764 1.381 . S
C762 C768 1.383 . S
C763 C759 1.495 . S
C763 H769 0.959 . S
C763 H770 0.961 . S
C763 H771 0.960 . S
C764 C762 1.381 . S
C764 C765 1.394 . S
C764 H772 0.930 . S
C765 C764 1.394 . S
C765 C766 1.383 . S
C765 H773 0.929 . S
C766 C765 1.383 . S
C766 C767 1.377 . S
C767 H751 0.930 . S
C767 C766 1.377 . S
C767 C768 1.379 . S
C768 H752 0.931 . S
C768 C762 1.383 . S
C768 C767 1.379 . S
H769 C763 0.959 . S
H770 C763 0.961 . S
H771 C763 0.960 . S
H772 C764 0.930 . S
H773 C765 0.929 . S
H774 C782 0.929 . S
H775 C784 0.930 . S
H776 C786 0.930 . S
H777 C789 0.929 . S
H778 C792 0.930 . S
H779 C794 0.960 . S
H780 C794 0.960 . S
H781 C794 0.960 . S
C782 H774 0.929 . S
C782 C783 1.377 . S
C782 C784 1.384 . S
C783 C782 1.377 . S
C783 C789 1.390 . S
C784 H775 0.930 . S
C784 C782 1.384 . S
C784 C785 1.372 . S
C785 C784 1.372 . S
C785 C786 1.400 . S
C785 C790 1.490 . S
C786 H776 0.930 . S
C786 C785 1.400 . S
C786 C789 1.386 . S
H787 C803 0.930 . S
H788 C804 0.931 . S
C789 H777 0.929 . S
C789 C783 1.390 . S
C789 C786 1.386 . S
C790 C785 1.490 . S
C790 C792 1.395 . S
C790 C793 1.403 . S
H791 C797 0.930 . S
C792 H778 0.930 . S
C792 C790 1.395 . S
C792 C795 1.403 . S
C793 C790 1.403 . S
C793 C794 1.524 . S
C793 C797 1.400 . S
C794 H779 0.960 . S
C794 H780 0.960 . S
C794 H781 0.960 . S
C794 C793 1.524 . S
C795 C792 1.403 . S
C795 C796 1.392 . S
C795 C799 1.495 . S
C796 C795 1.392 . S
C796 C797 1.385 . S
C796 C798 1.478 . S
C797 H791 0.930 . S
C797 C793 1.400 . S
C797 C796 1.385 . S
C798 C796 1.478 . S
C798 C800 1.381 . S
C798 C804 1.383 . S
C799 C795 1.495 . S
C799 H805 0.959 . S
C799 H806 0.961 . S
C799 H807 0.960 . S
C800 C798 1.381 . S
C800 C801 1.394 . S
C800 H808 0.930 . S
C801 C800 1.394 . S
C801 C802 1.383 . S
C801 H809 0.929 . S
C802 C801 1.383 . S
C802 C803 1.377 . S
C803 H787 0.930 . S
C803 C802 1.377 . S
C803 C804 1.379 . S
C804 H788 0.931 . S
C804 C798 1.383 . S
C804 C803 1.379 . S
H805 C799 0.959 . S
H806 C799 0.961 . S
H807 C799 0.960 . S
H808 C800 0.930 . S
H809 C801 0.929 . S
H810 C818 0.929 . S
H811 C820 0.930 . S
H812 C822 0.930 . S
H813 C825 0.929 . S
H814 C828 0.930 . S
H815 C830 0.960 . S
H816 C830 0.960 . S
H817 C830 0.960 . S
C818 H810 0.929 . S
C818 C819 1.377 . S
C818 C820 1.384 . S
C819 C818 1.377 . S
C819 C825 1.390 . S
C820 H811 0.930 . S
C820 C818 1.384 . S
C820 C821 1.372 . S
C821 C820 1.372 . S
C821 C822 1.400 . S
C821 C826 1.490 . S
C822 H812 0.930 . S
C822 C821 1.400 . S
C822 C825 1.386 . S
H823 C839 0.930 . S
H824 C840 0.931 . S
C825 H813 0.929 . S
C825 C819 1.390 . S
C825 C822 1.386 . S
C826 C821 1.490 . S
C826 C828 1.395 . S
C826 C829 1.403 . S
H827 C833 0.930 . S
C828 H814 0.930 . S
C828 C826 1.395 . S
C828 C831 1.403 . S
C829 C826 1.403 . S
C829 C830 1.524 . S
C829 C833 1.400 . S
C830 H815 0.960 . S
C830 H816 0.960 . S
C830 H817 0.960 . S
C830 C829 1.524 . S
C831 C828 1.403 . S
C831 C832 1.392 . S
C831 C835 1.495 1_556 S
C832 C831 1.392 . S
C832 C833 1.385 . S
C832 C834 1.478 . S
C833 H827 0.930 . S
C833 C829 1.400 . S
C833 C832 1.385 . S
C834 C832 1.478 . S
C834 C836 1.381 . S
C834 C840 1.383 . S
C835 C831 1.495 1_554 S
C835 H841 0.959 . S
C835 H842 0.961 . S
C835 H843 0.960 . S
C836 C834 1.381 . S
C836 C837 1.394 . S
C836 H844 0.930 . S
C837 C836 1.394 . S
C837 C838 1.383 . S
C837 H845 0.929 . S
C838 C837 1.383 . S
C838 C839 1.377 . S
C839 H823 0.930 . S
C839 C838 1.377 . S
C839 C840 1.379 . S
C840 H824 0.931 . S
C840 C834 1.383 . S
C840 C839 1.379 . S
H841 C835 0.959 . S
H842 C835 0.961 . S
H843 C835 0.960 . S
H844 C836 0.930 . S
H845 C837 0.929 . S
H846 C854 0.929 . S
H847 C856 0.930 . S
H848 C858 0.930 . S
H849 C861 0.929 . S
H850 C864 0.930 . S
H851 C866 0.960 . S
H852 C866 0.960 . S
H853 C866 0.960 . S
C854 H846 0.929 . S
C854 C855 1.377 . S
C854 C856 1.384 . S
C855 C854 1.377 . S
C855 C861 1.390 . S
C856 H847 0.930 . S
C856 C854 1.384 . S
C856 C857 1.372 . S
C857 C856 1.372 . S
C857 C858 1.400 . S
C857 C862 1.490 . S
C858 H848 0.930 . S
C858 C857 1.400 . S
C858 C861 1.386 . S
H859 C875 0.930 . S
H860 C876 0.931 . S
C861 H849 0.929 . S
C861 C855 1.390 . S
C861 C858 1.386 . S
C862 C857 1.490 . S
C862 C864 1.395 . S
C862 C865 1.403 . S
H863 C869 0.930 . S
C864 H850 0.930 . S
C864 C862 1.395 . S
C864 C867 1.403 . S
C865 C862 1.403 . S
C865 C866 1.524 . S
C865 C869 1.400 . S
C866 H851 0.960 . S
C866 H852 0.960 . S
C866 H853 0.960 . S
C866 C865 1.524 . S
C867 C864 1.403 . S
C867 C868 1.392 . S
C867 C871 1.495 . S
C868 C867 1.392 . S
C868 C869 1.385 . S
C868 C870 1.478 . S
C869 H863 0.930 . S
C869 C865 1.400 . S
C869 C868 1.385 . S
C870 C868 1.478 . S
C870 C872 1.381 . S
C870 C876 1.383 . S
C871 C867 1.495 . S
C871 H877 0.959 . S
C871 H878 0.961 . S
C871 H879 0.960 . S
C872 C870 1.381 . S
C872 C873 1.394 . S
C872 H880 0.930 . S
C873 C872 1.394 . S
C873 C874 1.383 . S
C873 H881 0.929 . S
C874 C873 1.383 . S
C874 C875 1.377 . S
C875 H859 0.930 . S
C875 C874 1.377 . S
C875 C876 1.379 . S
C876 H860 0.931 . S
C876 C870 1.383 . S
C876 C875 1.379 . S
H877 C871 0.959 . S
H878 C871 0.961 . S
H879 C871 0.960 . S
H880 C872 0.930 . S
H881 C873 0.929 . S
H882 C890 0.929 . S
H883 C892 0.930 . S
H884 C894 0.930 . S
H885 C897 0.929 . S
H886 C900 0.930 . S
H887 C902 0.960 . S
H888 C902 0.960 . S
H889 C902 0.960 . S
C890 H882 0.929 . S
C890 C891 1.377 . S
C890 C892 1.384 . S
C891 C890 1.377 . S
C891 C897 1.390 . S
C892 H883 0.930 . S
C892 C890 1.384 . S
C892 C893 1.372 . S
C893 C892 1.372 . S
C893 C894 1.400 . S
C893 C898 1.490 . S
C894 H884 0.930 . S
C894 C893 1.400 . S
C894 C897 1.386 . S
H895 C911 0.930 . S
H896 C912 0.931 . S
C897 H885 0.929 . S
C897 C891 1.390 . S
C897 C894 1.386 . S
C898 C893 1.490 . S
C898 C900 1.395 . S
C898 C901 1.403 . S
H899 C905 0.930 . S
C900 H886 0.930 . S
C900 C898 1.395 . S
C900 C903 1.403 . S
C901 C898 1.403 . S
C901 C902 1.524 . S
C901 C905 1.400 . S
C902 H887 0.960 . S
C902 H888 0.960 . S
C902 H889 0.960 . S
C902 C901 1.524 . S
C903 C900 1.403 . S
C903 C904 1.392 . S
C903 C907 1.495 . S
C904 C903 1.392 . S
C904 C905 1.385 . S
C904 C906 1.478 . S
C905 H899 0.930 . S
C905 C901 1.400 . S
C905 C904 1.385 . S
C906 C904 1.478 . S
C906 C908 1.381 . S
C906 C912 1.383 . S
C907 C903 1.495 . S
C907 H913 0.959 . S
C907 H914 0.961 . S
C907 H915 0.960 . S
C908 C906 1.381 . S
C908 C909 1.394 . S
C908 H916 0.930 . S
C909 C908 1.394 . S
C909 C910 1.383 . S
C909 H917 0.929 . S
C910 C909 1.383 . S
C910 C911 1.377 . S
C911 H895 0.930 . S
C911 C910 1.377 . S
C911 C912 1.379 . S
C912 H896 0.931 . S
C912 C906 1.383 . S
C912 C911 1.379 . S
H913 C907 0.959 . S
H914 C907 0.961 . S
H915 C907 0.960 . S
H916 C908 0.930 . S
H917 C909 0.929 . S
H918 C926 0.929 . S
H919 C928 0.930 . S
H920 C930 0.930 . S
H921 C933 0.929 . S
H922 C936 0.930 . S
H923 C938 0.960 . S
H924 C938 0.960 . S
H925 C938 0.960 . S
C926 H918 0.929 . S
C926 C927 1.377 . S
C926 C928 1.384 . S
C927 C926 1.377 . S
C927 C933 1.390 . S
C928 H919 0.930 . S
C928 C926 1.384 . S
C928 C929 1.372 . S
C929 C928 1.372 . S
C929 C930 1.400 . S
C929 C934 1.490 . S
C930 H920 0.930 . S
C930 C929 1.400 . S
C930 C933 1.386 . S
H931 C947 0.930 . S
H932 C948 0.931 . S
C933 H921 0.929 . S
C933 C927 1.390 . S
C933 C930 1.386 . S
C934 C929 1.490 . S
C934 C936 1.395 . S
C934 C937 1.403 . S
H935 C941 0.930 . S
C936 H922 0.930 . S
C936 C934 1.395 . S
C936 C939 1.403 . S
C937 C934 1.403 . S
C937 C938 1.524 . S
C937 C941 1.400 . S
C938 H923 0.960 . S
C938 H924 0.960 . S
C938 H925 0.960 . S
C938 C937 1.524 . S
C939 C936 1.403 . S
C939 C940 1.392 . S
C939 C943 1.495 . S
C940 C939 1.392 . S
C940 C941 1.385 . S
C940 C942 1.478 . S
C941 H935 0.930 . S
C941 C937 1.400 . S
C941 C940 1.385 . S
C942 C940 1.478 . S
C942 C944 1.381 . S
C942 C948 1.383 . S
C943 C939 1.495 . S
C943 H949 0.959 . S
C943 H950 0.961 . S
C943 H951 0.960 . S
C944 C942 1.381 . S
C944 C945 1.394 . S
C944 H952 0.930 . S
C945 C944 1.394 . S
C945 C946 1.383 . S
C945 H953 0.929 . S
C946 C945 1.383 . S
C946 C947 1.377 . S
C947 H931 0.930 . S
C947 C946 1.377 . S
C947 C948 1.379 . S
C948 H932 0.931 . S
C948 C942 1.383 . S
C948 C947 1.379 . S
H949 C943 0.959 . S
H950 C943 0.961 . S
H951 C943 0.960 . S
H952 C944 0.930 . S
H953 C945 0.929 . S
H954 C962 0.929 . S
H955 C964 0.930 . S
H956 C966 0.930 . S
H957 C969 0.929 . S
H958 C972 0.930 . S
H959 C974 0.923 1_455 S
H960 C974 0.971 . S
H961 C974 0.978 . S
C962 H954 0.929 . S
C962 C963 1.377 . S
C962 C964 1.384 . S
C963 C962 1.377 . S
C963 C969 1.390 . S
C964 H955 0.930 . S
C964 C962 1.384 . S
C964 C965 1.372 . S
C965 C964 1.372 . S
C965 C966 1.400 . S
C965 C970 1.490 . S
C966 H956 0.930 . S
C966 C965 1.400 . S
C966 C969 1.386 . S
H967 C983 0.930 . S
H968 C984 0.931 . S
C969 H957 0.929 . S
C969 C963 1.390 . S
C969 C966 1.386 . S
C970 C965 1.490 . S
C970 C972 1.395 . S
C970 C973 1.403 1_655 S
H971 C977 0.930 . S
C972 H958 0.930 . S
C972 C970 1.395 . S
C972 C975 1.403 1_655 S
C973 C970 1.403 1_455 S
C973 C974 1.534 1_455 S
C973 C977 1.400 . S
C974 H959 0.923 1_655 S
C974 H960 0.971 . S
C974 H961 0.978 . S
C974 C973 1.534 1_655 S
C975 C972 1.403 1_455 S
C975 C976 1.392 . S
C975 C979 1.495 . S
C976 C975 1.392 . S
C976 C977 1.385 . S
C976 C978 1.478 . S
C977 H971 0.930 . S
C977 C973 1.400 . S
C977 C976 1.385 . S
C978 C976 1.478 . S
C978 C980 1.381 . S
C978 C984 1.383 . S
C979 C975 1.495 . S
C979 H985 0.959 1_455 S
C979 H986 0.961 . S
C979 H987 0.960 . S
C980 C978 1.381 . S
C980 C981 1.394 . S
C980 H988 0.930 . S
C981 C980 1.394 . S
C981 C982 1.383 . S
C981 H989 0.929 . S
C982 C981 1.383 . S
C982 C983 1.377 . S
C983 H967 0.930 . S
C983 C982 1.377 . S
C983 C984 1.379 . S
C984 H968 0.931 . S
C984 C978 1.383 . S
C984 C983 1.379 . S
H985 C979 0.959 1_655 S
H986 C979 0.961 . S
H987 C979 0.960 . S
H988 C980 0.930 . S
H989 C981 0.929 . S
H990 C998 0.929 . S
H991 C1000 0.930 . S
H992 C1002 0.930 . S
H993 C1005 0.929 . S
H994 C1008 0.930 . S
H995 C1010 0.960 . S
H996 C1010 0.960 . S
H997 C1010 0.960 . S
C998 H990 0.929 . S
C998 C999 1.377 . S
C998 C1000 1.384 . S
C999 C998 1.377 . S
C999 C1005 1.390 . S
C1000 H991 0.930 . S
C1000 C998 1.384 . S
C1000 C1001 1.372 . S
C1001 C1000 1.372 . S
C1001 C1002 1.400 . S
C1001 C1006 1.490 . S
C1002 H992 0.930 . S
C1002 C1001 1.400 . S
C1002 C1005 1.386 . S
H1003 C1019 0.930 . S
H1004 C1020 0.931 . S
C1005 H993 0.929 . S
C1005 C999 1.390 . S
C1005 C1002 1.386 . S
C1006 C1001 1.490 . S
C1006 C1008 1.395 . S
C1006 C1009 1.403 . S
H1007 C1013 0.930 . S
C1008 H994 0.930 . S
C1008 C1006 1.395 . S
C1008 C1011 1.403 . S
C1009 C1006 1.403 . S
C1009 C1010 1.524 . S
C1009 C1013 1.400 . S
C1010 H995 0.960 . S
C1010 H996 0.960 . S
C1010 H997 0.960 . S
C1010 C1009 1.524 . S
C1011 C1008 1.403 . S
C1011 C1012 1.392 . S
C1011 C1015 1.495 . S
C1012 C1011 1.392 . S
C1012 C1013 1.385 . S
C1012 C1014 1.478 . S
C1013 H1007 0.930 . S
C1013 C1009 1.400 . S
C1013 C1012 1.385 . S
C1014 C1012 1.478 . S
C1014 C1016 1.381 . S
C1014 C1020 1.383 . S
C1015 C1011 1.495 . S
C1015 H1021 0.959 . S
C1015 H1022 0.961 . S
C1015 H1023 0.960 . S
C1016 C1014 1.381 . S
C1016 C1017 1.394 . S
C1016 H1024 0.930 . S
C1017 C1016 1.394 . S
C1017 C1018 1.383 . S
C1017 H1025 0.929 . S
C1018 C1017 1.383 . S
C1018 C1019 1.377 . S
C1019 H1003 0.930 . S
C1019 C1018 1.377 . S
C1019 C1020 1.379 . S
C1020 H1004 0.931 . S
C1020 C1014 1.383 . S
C1020 C1019 1.379 . S
H1021 C1015 0.959 . S
H1022 C1015 0.961 . S
H1023 C1015 0.960 . S
H1024 C1016 0.930 . S
H1025 C1017 0.929 . S
H1026 C1034 0.929 . S
H1027 C1036 0.930 . S
H1028 C1038 0.930 . S
H1029 C1041 0.929 . S
H1030 C1044 0.930 . S
H1031 C1046 0.960 . S
H1032 C1046 0.960 . S
H1033 C1046 0.960 . S
C1034 H1026 0.929 . S
C1034 C1035 1.377 . S
C1034 C1036 1.384 . S
C1035 C1034 1.377 . S
C1035 C1041 1.390 . S
C1036 H1027 0.930 . S
C1036 C1034 1.384 . S
C1036 C1037 1.372 . S
C1037 C1036 1.372 . S
C1037 C1038 1.400 . S
C1037 C1042 1.490 . S
C1038 H1028 0.930 . S
C1038 C1037 1.400 . S
C1038 C1041 1.386 . S
H1039 C1055 0.930 . S
H1040 C1056 0.931 . S
C1041 H1029 0.929 . S
C1041 C1035 1.390 . S
C1041 C1038 1.386 . S
C1042 C1037 1.490 . S
C1042 C1044 1.395 . S
C1042 C1045 1.403 . S
H1043 C1049 0.930 . S
C1044 H1030 0.930 . S
C1044 C1042 1.395 . S
C1044 C1047 1.437 . S
C1045 C1042 1.403 . S
C1045 C1046 1.524 . S
C1045 C1049 1.400 1_545 S
C1046 H1031 0.960 . S
C1046 H1032 0.960 . S
C1046 H1033 0.960 . S
C1046 C1045 1.524 . S
C1047 C1044 1.437 . S
C1047 C1048 1.360 1_545 S
C1047 C1051 1.495 1_545 S
C1048 C1047 1.360 1_565 S
C1048 C1049 1.385 . S
C1048 C1050 1.478 . S
C1049 H1043 0.930 . S
C1049 C1045 1.400 1_565 S
C1049 C1048 1.385 . S
C1050 C1048 1.478 . S
C1050 C1052 1.381 . S
C1050 C1056 1.383 . S
C1051 C1047 1.495 1_565 S
C1051 H1057 0.959 1_565 S
C1051 H1058 0.961 . S
C1051 H1059 0.960 . S
C1052 C1050 1.381 . S
C1052 C1053 1.394 . S
C1052 H1060 0.930 . S
C1053 C1052 1.394 . S
C1053 C1054 1.383 . S
C1053 H1061 0.929 . S
C1054 C1053 1.383 . S
C1054 C1055 1.377 . S
C1055 H1039 0.930 . S
C1055 C1054 1.377 . S
C1055 C1056 1.379 . S
C1056 H1040 0.931 . S
C1056 C1050 1.383 . S
C1056 C1055 1.379 . S
H1057 C1051 0.959 1_545 S
H1058 C1051 0.961 . S
H1059 C1051 0.960 . S
H1060 C1052 0.930 . S
H1061 C1053 0.929 . S
H1062 C1070 0.929 . S
H1063 C1072 0.930 . S
H1064 C1074 0.930 . S
H1065 C1077 0.929 . S
H1066 C1080 0.930 . S
H1067 C1082 0.960 . S
H1068 C1082 0.960 . S
H1069 C1082 0.960 . S
C1070 H1062 0.929 . S
C1070 C1071 1.377 . S
C1070 C1072 1.384 . S
C1071 C1070 1.377 . S
C1071 C1077 1.390 . S
C1072 H1063 0.930 . S
C1072 C1070 1.384 . S
C1072 C1073 1.372 . S
C1073 C1072 1.372 . S
C1073 C1074 1.400 . S
C1073 C1078 1.490 . S
C1074 H1064 0.930 . S
C1074 C1073 1.400 . S
C1074 C1077 1.386 . S
H1075 C1091 0.930 . S
H1076 C1092 0.931 . S
C1077 H1065 0.929 . S
C1077 C1071 1.390 . S
C1077 C1074 1.386 . S
C1078 C1073 1.490 . S
C1078 C1080 1.395 . S
C1078 C1081 1.403 . S
H1079 C1085 0.930 . S
C1080 H1066 0.930 . S
C1080 C1078 1.395 . S
C1080 C1083 1.403 . S
C1081 C1078 1.403 . S
C1081 C1082 1.524 . S
C1081 C1085 1.400 . S
C1082 H1067 0.960 . S
C1082 H1068 0.960 . S
C1082 H1069 0.960 . S
C1082 C1081 1.524 . S
C1083 C1080 1.403 . S
C1083 C1084 1.392 . S
C1083 C1087 1.495 . S
C1084 C1083 1.392 . S
C1084 C1085 1.385 . S
C1084 C1086 1.478 . S
C1085 H1079 0.930 . S
C1085 C1081 1.400 . S
C1085 C1084 1.385 . S
C1086 C1084 1.478 . S
C1086 C1088 1.381 . S
C1086 C1092 1.383 . S
C1087 C1083 1.495 . S
C1087 H1093 0.959 . S
C1087 H1094 0.961 . S
C1087 H1095 0.960 . S
C1088 C1086 1.381 . S
C1088 C1089 1.394 . S
C1088 H1096 0.930 . S
C1089 C1088 1.394 . S
C1089 C1090 1.383 . S
C1089 H1097 0.929 . S
C1090 C1089 1.383 . S
C1090 C1091 1.377 . S
C1091 H1075 0.930 . S
C1091 C1090 1.377 . S
C1091 C1092 1.379 . S
C1092 H1076 0.931 . S
C1092 C1086 1.383 . S
C1092 C1091 1.379 . S
H1093 C1087 0.959 . S
H1094 C1087 0.961 . S
H1095 C1087 0.960 . S
H1096 C1088 0.930 . S
H1097 C1089 0.929 . S
H1098 C1106 0.929 . S
H1099 C1108 0.930 . S
H1100 C1110 0.930 . S
H1101 C1113 0.929 . S
H1102 C1116 0.930 . S
H1103 C1118 0.960 . S
H1104 C1118 0.960 . S
H1105 C1118 0.960 . S
C1106 H1098 0.929 . S
C1106 C1107 1.377 . S
C1106 C1108 1.384 . S
C1107 C1106 1.377 . S
C1107 C1113 1.390 . S
C1108 H1099 0.930 . S
C1108 C1106 1.384 . S
C1108 C1109 1.372 . S
C1109 C1108 1.372 . S
C1109 C1110 1.400 . S
C1109 C1114 1.490 . S
C1110 H1100 0.930 . S
C1110 C1109 1.400 . S
C1110 C1113 1.386 . S
H1111 C1127 0.930 . S
H1112 C1128 0.931 . S
C1113 H1101 0.929 . S
C1113 C1107 1.390 . S
C1113 C1110 1.386 . S
C1114 C1109 1.490 . S
C1114 C1116 1.395 . S
C1114 C1117 1.403 . S
H1115 C1121 0.930 . S
C1116 H1102 0.930 . S
C1116 C1114 1.395 . S
C1116 C1119 1.403 . S
C1117 C1114 1.403 . S
C1117 C1118 1.524 . S
C1117 C1121 1.400 . S
C1118 H1103 0.960 . S
C1118 H1104 0.960 . S
C1118 H1105 0.960 . S
C1118 C1117 1.524 . S
C1119 C1116 1.403 . S
C1119 C1120 1.392 . S
C1119 C1123 1.495 . S
C1120 C1119 1.392 . S
C1120 C1121 1.385 . S
C1120 C1122 1.478 . S
C1121 H1115 0.930 . S
C1121 C1117 1.400 . S
C1121 C1120 1.385 . S
C1122 C1120 1.478 . S
C1122 C1124 1.381 . S
C1122 C1128 1.383 . S
C1123 C1119 1.495 . S
C1123 H1129 0.959 . S
C1123 H1130 0.961 . S
C1123 H1131 0.960 . S
C1124 C1122 1.381 . S
C1124 C1125 1.394 . S
C1124 H1132 0.930 . S
C1125 C1124 1.394 . S
C1125 C1126 1.383 . S
C1125 H1133 0.929 . S
C1126 C1125 1.383 . S
C1126 C1127 1.377 . S
C1127 H1111 0.930 . S
C1127 C1126 1.377 . S
C1127 C1128 1.379 . S
C1128 H1112 0.931 . S
C1128 C1122 1.383 . S
C1128 C1127 1.379 . S
H1129 C1123 0.959 . S
H1130 C1123 0.961 . S
H1131 C1123 0.960 . S
H1132 C1124 0.930 . S
H1133 C1125 0.929 . S
H1134 C1142 0.929 . S
H1135 C1144 0.930 . S
H1136 C1146 0.930 . S
H1137 C1149 0.929 . S
H1138 C1152 0.930 . S
H1139 C1154 0.960 . S
H1140 C1154 0.960 . S
H1141 C1154 0.960 . S
C1142 H1134 0.929 . S
C1142 C1143 1.377 . S
C1142 C1144 1.384 . S
C1143 C1142 1.377 . S
C1143 C1149 1.390 . S
C1144 H1135 0.930 . S
C1144 C1142 1.384 . S
C1144 C1145 1.372 . S
C1145 C1144 1.372 . S
C1145 C1146 1.400 . S
C1145 C1150 1.490 . S
C1146 H1136 0.930 . S
C1146 C1145 1.400 . S
C1146 C1149 1.386 . S
H1147 C1163 0.930 . S
H1148 C1164 0.931 . S
C1149 H1137 0.929 . S
C1149 C1143 1.390 . S
C1149 C1146 1.386 . S
C1150 C1145 1.490 . S
C1150 C1152 1.395 . S
C1150 C1153 1.403 . S
H1151 C1157 0.930 . S
C1152 H1138 0.930 . S
C1152 C1150 1.395 . S
C1152 C1155 1.403 . S
C1153 C1150 1.403 . S
C1153 C1154 1.524 . S
C1153 C1157 1.400 . S
C1154 H1139 0.960 . S
C1154 H1140 0.960 . S
C1154 H1141 0.960 . S
C1154 C1153 1.524 . S
C1155 C1152 1.403 . S
C1155 C1156 1.392 . S
C1155 C1159 1.495 . S
C1156 C1155 1.392 . S
C1156 C1157 1.385 . S
C1156 C1158 1.478 . S
C1157 H1151 0.930 . S
C1157 C1153 1.400 . S
C1157 C1156 1.385 . S
C1158 C1156 1.478 . S
C1158 C1160 1.381 . S
C1158 C1164 1.383 . S
C1159 C1155 1.495 . S
C1159 H1165 0.959 . S
C1159 H1166 0.961 . S
C1159 H1167 0.960 . S
C1160 C1158 1.381 . S
C1160 C1161 1.394 . S
C1160 H1168 0.930 . S
C1161 C1160 1.394 . S
C1161 C1162 1.383 . S
C1161 H1169 0.929 . S
C1162 C1161 1.383 . S
C1162 C1163 1.377 . S
C1163 H1147 0.930 . S
C1163 C1162 1.377 . S
C1163 C1164 1.379 . S
C1164 H1148 0.931 . S
C1164 C1158 1.383 . S
C1164 C1163 1.379 . S
H1165 C1159 0.959 . S
H1166 C1159 0.961 . S
H1167 C1159 0.960 . S
H1168 C1160 0.930 . S
H1169 C1161 0.929 . S
H1170 C1178 0.929 . S
H1171 C1180 0.930 . S
H1172 C1182 0.930 . S
H1173 C1185 0.929 . S
H1174 C1188 0.930 . S
H1175 C1190 0.960 . S
H1176 C1190 0.960 . S
H1177 C1190 0.960 . S
C1178 H1170 0.929 . S
C1178 C1179 1.377 . S
C1178 C1180 1.384 . S
C1179 C1178 1.377 . S
C1179 C1185 1.390 . S
C1180 H1171 0.930 . S
C1180 C1178 1.384 . S
C1180 C1181 1.372 . S
C1181 C1180 1.372 . S
C1181 C1182 1.400 . S
C1181 C1186 1.490 . S
C1182 H1172 0.930 . S
C1182 C1181 1.400 . S
C1182 C1185 1.386 . S
H1183 C1199 0.930 . S
H1184 C1200 0.931 . S
C1185 H1173 0.929 . S
C1185 C1179 1.390 . S
C1185 C1182 1.386 . S
C1186 C1181 1.490 . S
C1186 C1188 1.395 . S
C1186 C1189 1.403 . S
H1187 C1193 0.930 . S
C1188 H1174 0.930 . S
C1188 C1186 1.395 . S
C1188 C1191 1.403 . S
C1189 C1186 1.403 . S
C1189 C1190 1.524 . S
C1189 C1193 1.400 . S
C1190 H1175 0.960 . S
C1190 H1176 0.960 . S
C1190 H1177 0.960 . S
C1190 C1189 1.524 . S
C1191 C1188 1.403 . S
C1191 C1192 1.392 . S
C1191 C1195 1.495 . S
C1192 C1191 1.392 . S
C1192 C1193 1.385 . S
C1192 C1194 1.478 . S
C1193 H1187 0.930 . S
C1193 C1189 1.400 . S
C1193 C1192 1.385 . S
C1194 C1192 1.478 . S
C1194 C1196 1.381 . S
C1194 C1200 1.383 . S
C1195 C1191 1.495 . S
C1195 H1201 0.959 . S
C1195 H1202 0.961 . S
C1195 H1203 0.960 . S
C1196 C1194 1.381 . S
C1196 C1197 1.394 . S
C1196 H1204 0.930 . S
C1197 C1196 1.394 . S
C1197 C1198 1.383 . S
C1197 H1205 0.929 . S
C1198 C1197 1.383 . S
C1198 C1199 1.377 . S
C1199 H1183 0.930 . S
C1199 C1198 1.377 . S
C1199 C1200 1.379 . S
C1200 H1184 0.931 . S
C1200 C1194 1.383 . S
C1200 C1199 1.379 . S
H1201 C1195 0.959 . S
H1202 C1195 0.961 . S
H1203 C1195 0.960 . S
H1204 C1196 0.930 . S
H1205 C1197 0.929 . S
H1206 C1214 0.929 . S
H1207 C1216 0.930 . S
H1208 C1218 0.930 . S
H1209 C1221 0.929 . S
H1210 C1224 0.930 . S
H1211 C1226 0.960 . S
H1212 C1226 0.960 . S
H1213 C1226 0.960 . S
C1214 H1206 0.929 . S
C1214 C1215 1.377 . S
C1214 C1216 1.384 . S
C1215 C1214 1.377 . S
C1215 C1221 1.390 . S
C1216 H1207 0.930 . S
C1216 C1214 1.384 . S
C1216 C1217 1.372 . S
C1217 C1216 1.372 . S
C1217 C1218 1.400 . S
C1217 C1222 1.490 . S
C1218 H1208 0.930 . S
C1218 C1217 1.400 . S
C1218 C1221 1.386 . S
H1219 C1235 0.930 . S
H1220 C1236 0.931 . S
C1221 H1209 0.929 . S
C1221 C1215 1.390 . S
C1221 C1218 1.386 . S
C1222 C1217 1.490 . S
C1222 C1224 1.395 . S
C1222 C1225 1.403 . S
H1223 C1229 0.930 . S
C1224 H1210 0.930 . S
C1224 C1222 1.395 . S
C1224 C1227 1.403 . S
C1225 C1222 1.403 . S
C1225 C1226 1.524 . S
C1225 C1229 1.400 . S
C1226 H1211 0.960 . S
C1226 H1212 0.960 . S
C1226 H1213 0.960 . S
C1226 C1225 1.524 . S
C1227 C1224 1.403 . S
C1227 C1228 1.392 . S
C1227 C1231 1.495 . S
C1228 C1227 1.392 . S
C1228 C1229 1.385 . S
C1228 C1230 1.478 . S
C1229 H1223 0.930 . S
C1229 C1225 1.400 . S
C1229 C1228 1.385 . S
C1230 C1228 1.478 . S
C1230 C1232 1.381 . S
C1230 C1236 1.383 . S
C1231 C1227 1.495 . S
C1231 H1237 0.959 . S
C1231 H1238 0.961 . S
C1231 H1239 0.960 . S
C1232 C1230 1.381 . S
C1232 C1233 1.394 . S
C1232 H1240 0.930 . S
C1233 C1232 1.394 . S
C1233 C1234 1.383 . S
C1233 H1241 0.929 . S
C1234 C1233 1.383 . S
C1234 C1235 1.377 . S
C1235 H1219 0.930 . S
C1235 C1234 1.377 . S
C1235 C1236 1.379 . S
C1236 H1220 0.931 . S
C1236 C1230 1.383 . S
C1236 C1235 1.379 . S
H1237 C1231 0.959 . S
H1238 C1231 0.961 . S
H1239 C1231 0.960 . S
H1240 C1232 0.930 . S
H1241 C1233 0.929 . S
H1242 C1250 0.929 . S
H1243 C1252 0.930 . S
H1244 C1254 0.930 . S
H1245 C1257 0.929 . S
H1246 C1260 0.930 . S
H1247 C1262 0.960 . S
H1248 C1262 0.960 . S
H1249 C1262 0.960 . S
C1250 H1242 0.929 . S
C1250 C1251 1.377 . S
C1250 C1252 1.384 . S
C1251 C1250 1.377 . S
C1251 C1257 1.390 . S
C1252 H1243 0.930 . S
C1252 C1250 1.384 . S
C1252 C1253 1.372 . S
C1253 C1252 1.372 . S
C1253 C1254 1.400 . S
C1253 C1258 1.490 . S
C1254 H1244 0.930 . S
C1254 C1253 1.400 . S
C1254 C1257 1.386 . S
H1255 C1271 0.930 . S
H1256 C1272 0.931 . S
C1257 H1245 0.929 . S
C1257 C1251 1.390 . S
C1257 C1254 1.386 . S
C1258 C1253 1.490 . S
C1258 C1260 1.395 . S
C1258 C1261 1.403 . S
H1259 C1265 0.930 . S
C1260 H1246 0.930 . S
C1260 C1258 1.395 . S
C1260 C1263 1.403 . S
C1261 C1258 1.403 . S
C1261 C1262 1.524 . S
C1261 C1265 1.400 . S
C1262 H1247 0.960 . S
C1262 H1248 0.960 . S
C1262 H1249 0.960 . S
C1262 C1261 1.524 . S
C1263 C1260 1.403 . S
C1263 C1264 1.392 . S
C1263 C1267 1.495 . S
C1264 C1263 1.392 . S
C1264 C1265 1.385 . S
C1264 C1266 1.478 . S
C1265 H1259 0.930 . S
C1265 C1261 1.400 . S
C1265 C1264 1.385 . S
C1266 C1264 1.478 . S
C1266 C1268 1.381 . S
C1266 C1272 1.383 . S
C1267 C1263 1.495 . S
C1267 H1273 0.959 . S
C1267 H1274 0.961 . S
C1267 H1275 0.960 . S
C1268 C1266 1.381 . S
C1268 C1269 1.394 . S
C1268 H1276 0.930 . S
C1269 C1268 1.394 . S
C1269 C1270 1.383 . S
C1269 H1277 0.929 . S
C1270 C1269 1.383 . S
C1270 C1271 1.377 . S
C1271 H1255 0.930 . S
C1271 C1270 1.377 . S
C1271 C1272 1.379 . S
C1272 H1256 0.931 . S
C1272 C1266 1.383 . S
C1272 C1271 1.379 . S
H1273 C1267 0.959 . S
H1274 C1267 0.961 . S
H1275 C1267 0.960 . S
H1276 C1268 0.930 . S
H1277 C1269 0.929 . S
H1278 C1286 0.929 . S
H1279 C1288 0.930 . S
H1280 C1290 0.930 . S
H1281 C1293 0.929 . S
H1282 C1296 0.930 . S
H1283 C1298 0.960 . S
H1284 C1298 0.960 . S
H1285 C1298 0.960 . S
C1286 H1278 0.929 . S
C1286 C1287 1.377 . S
C1286 C1288 1.384 . S
C1287 C1286 1.377 . S
C1287 C1293 1.390 . S
C1288 H1279 0.930 . S
C1288 C1286 1.384 . S
C1288 C1289 1.372 . S
C1289 C1288 1.372 . S
C1289 C1290 1.400 . S
C1289 C1294 1.490 . S
C1290 H1280 0.930 . S
C1290 C1289 1.400 . S
C1290 C1293 1.386 . S
H1291 C1307 0.930 . S
H1292 C1308 0.931 . S
C1293 H1281 0.929 . S
C1293 C1287 1.390 . S
C1293 C1290 1.386 . S
C1294 C1289 1.490 . S
C1294 C1296 1.395 . S
C1294 C1297 1.403 . S
H1295 C1301 0.930 . S
C1296 H1282 0.930 . S
C1296 C1294 1.395 . S
C1296 C1299 1.435 . S
C1297 C1294 1.403 . S
C1297 C1298 1.524 . S
C1297 C1301 1.400 1_545 S
C1298 H1283 0.960 . S
C1298 H1284 0.960 . S
C1298 H1285 0.960 . S
C1298 C1297 1.524 . S
C1299 C1296 1.435 . S
C1299 C1300 1.364 1_545 S
C1299 C1303 1.494 1_545 S
C1300 C1299 1.364 1_565 S
C1300 C1301 1.385 . S
C1300 C1302 1.478 . S
C1301 H1295 0.930 . S
C1301 C1297 1.400 1_565 S
C1301 C1300 1.385 . S
C1302 C1300 1.478 . S
C1302 C1304 1.381 . S
C1302 C1308 1.383 . S
C1303 C1299 1.494 1_565 S
C1303 H1309 0.959 1_565 S
C1303 H1310 0.961 . S
C1303 H1311 0.960 . S
C1304 C1302 1.381 . S
C1304 C1305 1.394 . S
C1304 H1312 0.930 . S
C1305 C1304 1.394 . S
C1305 C1306 1.383 . S
C1305 H1313 0.929 . S
C1306 C1305 1.383 . S
C1306 C1307 1.377 . S
C1307 H1291 0.930 . S
C1307 C1306 1.377 . S
C1307 C1308 1.379 . S
C1308 H1292 0.931 . S
C1308 C1302 1.383 . S
C1308 C1307 1.379 . S
H1309 C1303 0.959 1_545 S
H1310 C1303 0.961 . S
H1311 C1303 0.960 . S
H1312 C1304 0.930 . S
H1313 C1305 0.929 . S
H1314 C1322 0.929 . S
H1315 C1324 0.930 . S
H1316 C1326 0.930 . S
H1317 C1329 0.929 . S
H1318 C1332 0.930 . S
H1319 C1334 0.960 . S
H1320 C1334 0.960 . S
H1321 C1334 0.960 . S
C1322 H1314 0.929 . S
C1322 C1323 1.377 . S
C1322 C1324 1.384 . S
C1323 C1322 1.377 . S
C1323 C1329 1.390 . S
C1324 H1315 0.930 . S
C1324 C1322 1.384 . S
C1324 C1325 1.372 . S
C1325 C1324 1.372 . S
C1325 C1326 1.400 . S
C1325 C1330 1.490 . S
C1326 H1316 0.930 . S
C1326 C1325 1.400 . S
C1326 C1329 1.386 . S
H1327 C1343 0.930 . S
H1328 C1344 0.931 . S
C1329 H1317 0.929 . S
C1329 C1323 1.390 . S
C1329 C1326 1.386 . S
C1330 C1325 1.490 . S
C1330 C1332 1.395 . S
C1330 C1333 1.403 1_655 S
H1331 C1337 0.930 . S
C1332 H1318 0.930 . S
C1332 C1330 1.395 . S
C1332 C1335 1.403 1_655 S
C1333 C1330 1.403 1_455 S
C1333 C1334 1.524 . S
C1333 C1337 1.400 . S
C1334 H1319 0.960 . S
C1334 H1320 0.960 . S
C1334 H1321 0.960 . S
C1334 C1333 1.524 . S
C1335 C1332 1.403 1_455 S
C1335 C1336 1.392 . S
C1335 C1339 1.495 . S
C1336 C1335 1.392 . S
C1336 C1337 1.385 . S
C1336 C1338 1.478 . S
C1337 H1331 0.930 . S
C1337 C1333 1.400 . S
C1337 C1336 1.385 . S
C1338 C1336 1.478 . S
C1338 C1340 1.381 . S
C1338 C1344 1.383 . S
C1339 C1335 1.495 . S
C1339 H1345 0.959 1_455 S
C1339 H1346 0.961 . S
C1339 H1347 0.960 . S
C1340 C1338 1.381 . S
C1340 C1341 1.394 . S
C1340 H1348 0.930 . S
C1341 C1340 1.394 . S
C1341 C1342 1.383 . S
C1341 H1349 0.929 . S
C1342 C1341 1.383 . S
C1342 C1343 1.377 . S
C1343 H1327 0.930 . S
C1343 C1342 1.377 . S
C1343 C1344 1.379 . S
C1344 H1328 0.931 . S
C1344 C1338 1.383 . S
C1344 C1343 1.379 . S
H1345 C1339 0.959 1_655 S
H1346 C1339 0.961 . S
H1347 C1339 0.960 . S
H1348 C1340 0.930 . S
H1349 C1341 0.929 . S
H1350 C1358 0.929 . S
H1351 C1360 0.930 . S
H1352 C1362 0.930 . S
H1353 C1365 0.929 . S
H1354 C1368 0.930 . S
H1355 C1370 0.960 . S
H1356 C1370 0.960 . S
H1357 C1370 0.960 . S
C1358 H1350 0.929 . S
C1358 C1359 1.377 . S
C1358 C1360 1.384 . S
C1359 C1358 1.377 . S
C1359 C1365 1.390 . S
C1360 H1351 0.930 . S
C1360 C1358 1.384 . S
C1360 C1361 1.372 . S
C1361 C1360 1.372 . S
C1361 C1362 1.400 . S
C1361 C1366 1.490 . S
C1362 H1352 0.930 . S
C1362 C1361 1.400 . S
C1362 C1365 1.386 . S
H1363 C1379 0.930 . S
H1364 C1380 0.931 . S
C1365 H1353 0.929 . S
C1365 C1359 1.390 . S
C1365 C1362 1.386 . S
C1366 C1361 1.490 . S
C1366 C1368 1.395 . S
C1366 C1369 1.403 . S
H1367 C1373 0.930 . S
C1368 H1354 0.930 . S
C1368 C1366 1.395 . S
C1368 C1371 1.403 . S
C1369 C1366 1.403 . S
C1369 C1370 1.524 . S
C1369 C1373 1.400 . S
C1370 H1355 0.960 . S
C1370 H1356 0.960 . S
C1370 H1357 0.960 . S
C1370 C1369 1.524 . S
C1371 C1368 1.403 . S
C1371 C1372 1.392 . S
C1371 C1375 1.495 . S
C1372 C1371 1.392 . S
C1372 C1373 1.385 . S
C1372 C1374 1.478 . S
C1373 H1367 0.930 . S
C1373 C1369 1.400 . S
C1373 C1372 1.385 . S
C1374 C1372 1.478 . S
C1374 C1376 1.381 . S
C1374 C1380 1.383 . S
C1375 C1371 1.495 . S
C1375 H1381 0.959 . S
C1375 H1382 0.961 . S
C1375 H1383 0.960 . S
C1376 C1374 1.381 . S
C1376 C1377 1.394 . S
C1376 H1384 0.930 . S
C1377 C1376 1.394 . S
C1377 C1378 1.383 . S
C1377 H1385 0.929 . S
C1378 C1377 1.383 . S
C1378 C1379 1.377 . S
C1379 H1363 0.930 . S
C1379 C1378 1.377 . S
C1379 C1380 1.379 . S
C1380 H1364 0.931 . S
C1380 C1374 1.383 . S
C1380 C1379 1.379 . S
H1381 C1375 0.959 . S
H1382 C1375 0.961 . S
H1383 C1375 0.960 . S
H1384 C1376 0.930 . S
H1385 C1377 0.929 . S
H1386 C1394 0.929 . S
H1387 C1396 0.930 . S
H1388 C1398 0.930 . S
H1389 C1401 0.929 . S
H1390 C1404 0.930 . S
H1391 C1406 0.960 . S
H1392 C1406 0.960 . S
H1393 C1406 0.960 . S
C1394 H1386 0.929 . S
C1394 C1395 1.377 . S
C1394 C1396 1.384 . S
C1395 C1394 1.377 . S
C1395 C1401 1.390 . S
C1396 H1387 0.930 . S
C1396 C1394 1.384 . S
C1396 C1397 1.372 . S
C1397 C1396 1.372 . S
C1397 C1398 1.400 . S
C1397 C1402 1.490 . S
C1398 H1388 0.930 . S
C1398 C1397 1.400 . S
C1398 C1401 1.386 . S
H1399 C1415 0.930 . S
H1400 C1416 0.931 . S
C1401 H1389 0.929 . S
C1401 C1395 1.390 . S
C1401 C1398 1.386 . S
C1402 C1397 1.490 . S
C1402 C1404 1.395 . S
C1402 C1405 1.403 . S
H1403 C1409 0.930 . S
C1404 H1390 0.930 . S
C1404 C1402 1.395 . S
C1404 C1407 1.403 . S
C1405 C1402 1.403 . S
C1405 C1406 1.524 . S
C1405 C1409 1.400 . S
C1406 H1391 0.960 . S
C1406 H1392 0.960 . S
C1406 H1393 0.960 . S
C1406 C1405 1.524 . S
C1407 C1404 1.403 . S
C1407 C1408 1.392 . S
C1407 C1411 1.495 . S
C1408 C1407 1.392 . S
C1408 C1409 1.385 . S
C1408 C1410 1.478 . S
C1409 H1403 0.930 . S
C1409 C1405 1.400 . S
C1409 C1408 1.385 . S
C1410 C1408 1.478 . S
C1410 C1412 1.381 . S
C1410 C1416 1.383 . S
C1411 C1407 1.495 . S
C1411 H1417 0.959 . S
C1411 H1418 0.961 . S
C1411 H1419 0.960 . S
C1412 C1410 1.381 . S
C1412 C1413 1.394 . S
C1412 H1420 0.930 . S
C1413 C1412 1.394 . S
C1413 C1414 1.383 . S
C1413 H1421 0.929 . S
C1414 C1413 1.383 . S
C1414 C1415 1.377 . S
C1415 H1399 0.930 . S
C1415 C1414 1.377 . S
C1415 C1416 1.379 . S
C1416 H1400 0.931 . S
C1416 C1410 1.383 . S
C1416 C1415 1.379 . S
H1417 C1411 0.959 . S
H1418 C1411 0.961 . S
H1419 C1411 0.960 . S
H1420 C1412 0.930 . S
H1421 C1413 0.929 . S
H1422 C1430 0.929 . S
H1423 C1432 0.930 . S
H1424 C1434 0.930 . S
H1425 C1437 0.929 . S
H1426 C1440 0.930 . S
H1427 C1442 0.960 . S
H1428 C1442 0.960 . S
H1429 C1442 0.960 . S
C1430 H1422 0.929 . S
C1430 C1431 1.377 . S
C1430 C1432 1.384 . S
C1431 C1430 1.377 . S
C1431 C1437 1.390 . S
C1432 H1423 0.930 . S
C1432 C1430 1.384 . S
C1432 C1433 1.372 . S
C1433 C1432 1.372 . S
C1433 C1434 1.400 . S
C1433 C1438 1.490 . S
C1434 H1424 0.930 . S
C1434 C1433 1.400 . S
C1434 C1437 1.386 . S
H1435 C1451 0.930 . S
H1436 C1452 0.931 . S
C1437 H1425 0.929 . S
C1437 C1431 1.390 . S
C1437 C1434 1.386 . S
C1438 C1433 1.490 . S
C1438 C1440 1.395 . S
C1438 C1441 1.403 . S
H1439 C1445 0.930 . S
C1440 H1426 0.930 . S
C1440 C1438 1.395 . S
C1440 C1443 1.403 . S
C1441 C1438 1.403 . S
C1441 C1442 1.524 . S
C1441 C1445 1.400 . S
C1442 H1427 0.960 . S
C1442 H1428 0.960 . S
C1442 H1429 0.960 . S
C1442 C1441 1.524 . S
C1443 C1440 1.403 . S
C1443 C1444 1.392 . S
C1443 C1447 1.495 . S
C1444 C1443 1.392 . S
C1444 C1445 1.385 . S
C1444 C1446 1.478 . S
C1445 H1439 0.930 . S
C1445 C1441 1.400 . S
C1445 C1444 1.385 . S
C1446 C1444 1.478 . S
C1446 C1448 1.381 . S
C1446 C1452 1.383 . S
C1447 C1443 1.495 . S
C1447 H1453 0.959 . S
C1447 H1454 0.961 . S
C1447 H1455 0.960 . S
C1448 C1446 1.381 . S
C1448 C1449 1.394 . S
C1448 H1456 0.930 . S
C1449 C1448 1.394 . S
C1449 C1450 1.383 . S
C1449 H1457 0.929 . S
C1450 C1449 1.383 . S
C1450 C1451 1.377 . S
C1451 H1435 0.930 . S
C1451 C1450 1.377 . S
C1451 C1452 1.379 . S
C1452 H1436 0.931 . S
C1452 C1446 1.383 . S
C1452 C1451 1.379 . S
H1453 C1447 0.959 . S
H1454 C1447 0.961 . S
H1455 C1447 0.960 . S
H1456 C1448 0.930 . S
H1457 C1449 0.929 . S
H1458 C1466 0.929 . S
H1459 C1468 0.930 . S
H1460 C1470 0.930 . S
H1461 C1473 0.929 . S
H1462 C1476 0.930 . S
H1463 C1478 0.960 . S
H1464 C1478 0.960 . S
H1465 C1478 0.960 . S
C1466 H1458 0.929 . S
C1466 C1467 1.377 . S
C1466 C1468 1.384 . S
C1467 C1466 1.377 . S
C1467 C1473 1.390 . S
C1468 H1459 0.930 . S
C1468 C1466 1.384 . S
C1468 C1469 1.372 . S
C1469 C1468 1.372 . S
C1469 C1470 1.400 . S
C1469 C1474 1.490 . S
C1470 H1460 0.930 . S
C1470 C1469 1.400 . S
C1470 C1473 1.386 . S
H1471 C1487 0.930 . S
H1472 C1488 0.931 . S
C1473 H1461 0.929 . S
C1473 C1467 1.390 . S
C1473 C1470 1.386 . S
C1474 C1469 1.490 . S
C1474 C1476 1.395 . S
C1474 C1477 1.403 . S
H1475 C1481 0.930 . S
C1476 H1462 0.930 . S
C1476 C1474 1.395 . S
C1476 C1479 1.403 . S
C1477 C1474 1.403 . S
C1477 C1478 1.524 . S
C1477 C1481 1.400 . S
C1478 H1463 0.960 . S
C1478 H1464 0.960 . S
C1478 H1465 0.960 . S
C1478 C1477 1.524 . S
C1479 C1476 1.403 . S
C1479 C1480 1.392 . S
C1479 C1483 1.495 . S
C1480 C1479 1.392 . S
C1480 C1481 1.385 . S
C1480 C1482 1.478 . S
C1481 H1475 0.930 . S
C1481 C1477 1.400 . S
C1481 C1480 1.385 . S
C1482 C1480 1.478 . S
C1482 C1484 1.381 . S
C1482 C1488 1.383 . S
C1483 C1479 1.495 . S
C1483 H1489 0.959 . S
C1483 H1490 0.961 . S
C1483 H1491 0.960 . S
C1484 C1482 1.381 . S
C1484 C1485 1.394 . S
C1484 H1492 0.930 . S
C1485 C1484 1.394 . S
C1485 C1486 1.383 . S
C1485 H1493 0.929 . S
C1486 C1485 1.383 . S
C1486 C1487 1.377 . S
C1487 H1471 0.930 . S
C1487 C1486 1.377 . S
C1487 C1488 1.379 . S
C1488 H1472 0.931 . S
C1488 C1482 1.383 . S
C1488 C1487 1.379 . S
H1489 C1483 0.959 . S
H1490 C1483 0.961 . S
H1491 C1483 0.960 . S
H1492 C1484 0.930 . S
H1493 C1485 0.929 . S
H1494 C1502 0.929 . S
H1495 C1504 0.930 . S
H1496 C1506 0.930 . S
H1497 C1509 0.929 . S
H1498 C1512 0.930 . S
H1499 C1514 0.960 . S
H1500 C1514 0.960 . S
H1501 C1514 0.960 . S
C1502 H1494 0.929 . S
C1502 C1503 1.377 . S
C1502 C1504 1.384 . S
C1503 C1502 1.377 . S
C1503 C1509 1.390 . S
C1504 H1495 0.930 . S
C1504 C1502 1.384 . S
C1504 C1505 1.372 . S
C1505 C1504 1.372 . S
C1505 C1506 1.400 . S
C1505 C1510 1.490 . S
C1506 H1496 0.930 . S
C1506 C1505 1.400 . S
C1506 C1509 1.386 . S
H1507 C1523 0.930 . S
H1508 C1524 0.931 . S
C1509 H1497 0.929 . S
C1509 C1503 1.390 . S
C1509 C1506 1.386 . S
C1510 C1505 1.490 . S
C1510 C1512 1.395 . S
C1510 C1513 1.403 . S
H1511 C1517 0.930 . S
C1512 H1498 0.930 . S
C1512 C1510 1.395 . S
C1512 C1515 1.403 1_565 S
C1513 C1510 1.403 . S
C1513 C1514 1.524 . S
C1513 C1517 1.400 1_565 S
C1514 H1499 0.960 . S
C1514 H1500 0.960 . S
C1514 H1501 0.960 . S
C1514 C1513 1.524 . S
C1515 C1512 1.403 1_545 S
C1515 C1516 1.392 . S
C1515 C1519 1.495 . S
C1516 C1515 1.392 . S
C1516 C1517 1.385 . S
C1516 C1518 1.478 . S
C1517 H1511 0.930 . S
C1517 C1513 1.400 1_545 S
C1517 C1516 1.385 . S
C1518 C1516 1.478 . S
C1518 C1520 1.381 . S
C1518 C1524 1.383 . S
C1519 C1515 1.495 . S
C1519 H1525 0.959 . S
C1519 H1526 0.961 . S
C1519 H1527 0.960 . S
C1520 C1518 1.381 . S
C1520 C1521 1.394 . S
C1520 H1528 0.930 . S
C1521 C1520 1.394 . S
C1521 C1522 1.383 . S
C1521 H1529 0.929 . S
C1522 C1521 1.383 . S
C1522 C1523 1.377 . S
C1523 H1507 0.930 . S
C1523 C1522 1.377 . S
C1523 C1524 1.379 . S
C1524 H1508 0.931 . S
C1524 C1518 1.383 . S
C1524 C1523 1.379 . S
H1525 C1519 0.959 . S
H1526 C1519 0.961 . S
H1527 C1519 0.960 . S
H1528 C1520 0.930 . S
H1529 C1521 0.929 . S
H1530 C1538 0.929 . S
H1531 C1540 0.930 . S
H1532 C1542 0.930 . S
H1533 C1545 0.929 . S
H1534 C1548 0.930 . S
H1535 C1550 0.960 . S
H1536 C1550 0.960 . S
H1537 C1550 0.960 . S
C1538 H1530 0.929 . S
C1538 C1539 1.377 . S
C1538 C1540 1.384 . S
C1539 C1538 1.377 . S
C1539 C1545 1.390 . S
C1540 H1531 0.930 . S
C1540 C1538 1.384 . S
C1540 C1541 1.372 . S
C1541 C1540 1.372 . S
C1541 C1542 1.400 . S
C1541 C1546 1.490 . S
C1542 H1532 0.930 . S
C1542 C1541 1.400 . S
C1542 C1545 1.386 . S
H1543 C1559 0.930 . S
H1544 C1560 0.931 . S
C1545 H1533 0.929 . S
C1545 C1539 1.390 . S
C1545 C1542 1.386 . S
C1546 C1541 1.490 . S
C1546 C1548 1.395 1_455 S
C1546 C1549 1.403 . S
H1547 C1553 0.930 . S
C1548 H1534 0.930 . S
C1548 C1546 1.395 1_655 S
C1548 C1551 1.403 . S
C1549 C1546 1.403 . S
C1549 C1550 1.524 . S
C1549 C1553 1.400 1_455 S
C1550 H1535 0.960 . S
C1550 H1536 0.960 . S
C1550 H1537 0.960 . S
C1550 C1549 1.524 . S
C1551 C1548 1.403 . S
C1551 C1552 1.392 . S
C1551 C1555 1.495 . S
C1552 C1551 1.392 . S
C1552 C1553 1.385 . S
C1552 C1554 1.478 . S
C1553 H1547 0.930 . S
C1553 C1549 1.400 1_655 S
C1553 C1552 1.385 . S
C1554 C1552 1.478 . S
C1554 C1556 1.381 . S
C1554 C1560 1.383 . S
C1555 C1551 1.495 . S
C1555 H1561 0.959 . S
C1555 H1562 0.961 . S
C1555 H1563 0.960 . S
C1556 C1554 1.381 . S
C1556 C1557 1.394 . S
C1556 H1564 0.930 . S
C1557 C1556 1.394 . S
C1557 C1558 1.383 . S
C1557 H1565 0.929 . S
C1558 C1557 1.383 . S
C1558 C1559 1.377 . S
C1559 H1543 0.930 . S
C1559 C1558 1.377 . S
C1559 C1560 1.379 . S
C1560 H1544 0.931 . S
C1560 C1554 1.383 . S
C1560 C1559 1.379 . S
H1561 C1555 0.959 . S
H1562 C1555 0.961 . S
H1563 C1555 0.960 . S
H1564 C1556 0.930 . S
H1565 C1557 0.929 . S
H1566 C1574 0.929 . S
H1567 C1576 0.930 . S
H1568 C1578 0.930 . S
H1569 C1581 0.929 . S
H1570 C1584 0.930 . S
H1571 C1586 0.960 . S
H1572 C1586 0.960 . S
H1573 C1586 0.960 . S
C1574 H1566 0.929 . S
C1574 C1575 1.377 . S
C1574 C1576 1.384 . S
C1575 C1574 1.377 . S
C1575 C1581 1.390 . S
C1576 H1567 0.930 . S
C1576 C1574 1.384 . S
C1576 C1577 1.372 . S
C1577 C1576 1.372 . S
C1577 C1578 1.400 . S
C1577 C1582 1.490 . S
C1578 H1568 0.930 . S
C1578 C1577 1.400 . S
C1578 C1581 1.386 . S
H1579 C1595 0.930 . S
H1580 C1596 0.931 . S
C1581 H1569 0.929 . S
C1581 C1575 1.390 . S
C1581 C1578 1.386 . S
C1582 C1577 1.490 . S
C1582 C1584 1.395 . S
C1582 C1585 1.403 . S
H1583 C1589 0.930 . S
C1584 H1570 0.930 . S
C1584 C1582 1.395 . S
C1584 C1587 1.403 . S
C1585 C1582 1.403 . S
C1585 C1586 1.524 . S
C1585 C1589 1.400 . S
C1586 H1571 0.960 . S
C1586 H1572 0.960 . S
C1586 H1573 0.960 . S
C1586 C1585 1.524 . S
C1587 C1584 1.403 . S
C1587 C1588 1.392 . S
C1587 C1591 1.495 . S
C1588 C1587 1.392 . S
C1588 C1589 1.385 . S
C1588 C1590 1.478 . S
C1589 H1583 0.930 . S
C1589 C1585 1.400 . S
C1589 C1588 1.385 . S
C1590 C1588 1.478 . S
C1590 C1592 1.381 . S
C1590 C1596 1.383 . S
C1591 C1587 1.495 . S
C1591 H1597 0.959 . S
C1591 H1598 0.961 . S
C1591 H1599 0.960 . S
C1592 C1590 1.381 . S
C1592 C1593 1.394 . S
C1592 H1600 0.930 . S
C1593 C1592 1.394 . S
C1593 C1594 1.383 . S
C1593 H1601 0.929 . S
C1594 C1593 1.383 . S
C1594 C1595 1.377 . S
C1595 H1579 0.930 . S
C1595 C1594 1.377 . S
C1595 C1596 1.379 . S
C1596 H1580 0.931 . S
C1596 C1590 1.383 . S
C1596 C1595 1.379 . S
H1597 C1591 0.959 . S
H1598 C1591 0.961 . S
H1599 C1591 0.960 . S
H1600 C1592 0.930 . S
H1601 C1593 0.929 . S
H1602 C1610 0.929 . S
H1603 C1612 0.930 . S
H1604 C1614 0.930 . S
H1605 C1617 0.929 . S
H1606 C1620 0.930 . S
H1607 C1622 0.960 . S
H1608 C1622 0.960 1_455 S
H1609 C1622 0.960 1_455 S
C1610 H1602 0.929 . S
C1610 C1611 1.377 . S
C1610 C1612 1.384 . S
C1611 C1610 1.377 . S
C1611 C1617 1.390 . S
C1612 H1603 0.930 . S
C1612 C1610 1.384 . S
C1612 C1613 1.372 . S
C1613 C1612 1.372 . S
C1613 C1614 1.400 . S
C1613 C1618 1.490 . S
C1614 H1604 0.930 . S
C1614 C1613 1.400 . S
C1614 C1617 1.386 . S
H1615 C1631 0.930 . S
H1616 C1632 0.931 . S
C1617 H1605 0.929 . S
C1617 C1611 1.390 . S
C1617 C1614 1.386 . S
C1618 C1613 1.490 . S
C1618 C1620 1.395 . S
C1618 C1621 1.403 1_455 S
H1619 C1625 0.930 . S
C1620 H1606 0.930 . S
C1620 C1618 1.395 . S
C1620 C1623 1.403 1_455 S
C1621 C1618 1.403 1_655 S
C1621 C1622 1.524 . S
C1621 C1625 1.400 . S
C1622 H1607 0.960 . S
C1622 H1608 0.960 1_655 S
C1622 H1609 0.960 1_655 S
C1622 C1621 1.524 . S
C1623 C1620 1.403 1_655 S
C1623 C1624 1.392 . S
C1623 C1627 1.495 . S
C1624 C1623 1.392 . S
C1624 C1625 1.385 . S
C1624 C1626 1.478 . S
C1625 H1619 0.930 . S
C1625 C1621 1.400 . S
C1625 C1624 1.385 . S
C1626 C1624 1.478 . S
C1626 C1628 1.381 . S
C1626 C1632 1.383 . S
C1627 C1623 1.495 . S
C1627 H1633 0.959 1_655 S
C1627 H1634 0.961 . S
C1627 H1635 0.960 . S
C1628 C1626 1.381 . S
C1628 C1629 1.394 . S
C1628 H1636 0.930 . S
C1629 C1628 1.394 . S
C1629 C1630 1.383 . S
C1629 H1637 0.929 . S
C1630 C1629 1.383 . S
C1630 C1631 1.377 . S
C1631 H1615 0.930 . S
C1631 C1630 1.377 . S
C1631 C1632 1.379 . S
C1632 H1616 0.931 . S
C1632 C1626 1.383 . S
C1632 C1631 1.379 . S
H1633 C1627 0.959 1_455 S
H1634 C1627 0.961 . S
H1635 C1627 0.960 . S
H1636 C1628 0.930 . S
H1637 C1629 0.929 . S
H1638 C1646 0.929 . S
H1639 C1648 0.930 . S
H1640 C1650 0.930 . S
H1641 C1653 0.929 . S
H1642 C1656 0.930 . S
H1643 C1658 0.960 . S
H1644 C1658 0.960 . S
H1645 C1658 0.960 . S
C1646 H1638 0.929 . S
C1646 C1647 1.377 . S
C1646 C1648 1.384 . S
C1647 C1646 1.377 . S
C1647 C1653 1.390 . S
C1648 H1639 0.930 . S
C1648 C1646 1.384 . S
C1648 C1649 1.372 . S
C1649 C1648 1.372 . S
C1649 C1650 1.400 . S
C1649 C1654 1.490 . S
C1650 H1640 0.930 . S
C1650 C1649 1.400 . S
C1650 C1653 1.386 . S
H1651 C1667 0.930 . S
H1652 C1668 0.931 . S
C1653 H1641 0.929 . S
C1653 C1647 1.390 . S
C1653 C1650 1.386 . S
C1654 C1649 1.490 . S
C1654 C1656 1.395 . S
C1654 C1657 1.403 . S
H1655 C1661 0.930 . S
C1656 H1642 0.930 . S
C1656 C1654 1.395 . S
C1656 C1659 1.403 . S
C1657 C1654 1.403 . S
C1657 C1658 1.524 . S
C1657 C1661 1.400 . S
C1658 H1643 0.960 . S
C1658 H1644 0.960 . S
C1658 H1645 0.960 . S
C1658 C1657 1.524 . S
C1659 C1656 1.403 . S
C1659 C1660 1.392 . S
C1659 C1663 1.495 . S
C1660 C1659 1.392 . S
C1660 C1661 1.385 . S
C1660 C1662 1.478 . S
C1661 H1655 0.930 . S
C1661 C1657 1.400 . S
C1661 C1660 1.385 . S
C1662 C1660 1.478 . S
C1662 C1664 1.381 . S
C1662 C1668 1.383 . S
C1663 C1659 1.495 . S
C1663 H1669 0.959 . S
C1663 H1670 0.961 . S
C1663 H1671 0.960 . S
C1664 C1662 1.381 . S
C1664 C1665 1.394 . S
C1664 H1672 0.930 . S
C1665 C1664 1.394 . S
C1665 C1666 1.383 . S
C1665 H1673 0.929 . S
C1666 C1665 1.383 . S
C1666 C1667 1.377 . S
C1667 H1651 0.930 . S
C1667 C1666 1.377 . S
C1667 C1668 1.379 . S
C1668 H1652 0.931 . S
C1668 C1662 1.383 . S
C1668 C1667 1.379 . S
H1669 C1663 0.959 . S
H1670 C1663 0.961 . S
H1671 C1663 0.960 . S
H1672 C1664 0.930 . S
H1673 C1665 0.929 . S
H1674 C1682 0.929 . S
H1675 C1684 0.930 . S
H1676 C1686 0.930 . S
H1677 C1689 0.929 . S
H1678 C1692 0.930 . S
H1679 C1694 0.960 . S
H1680 C1694 0.960 . S
H1681 C1694 0.960 . S
C1682 H1674 0.929 . S
C1682 C1683 1.377 . S
C1682 C1684 1.384 . S
C1683 C1682 1.377 . S
C1683 C1689 1.390 . S
C1684 H1675 0.930 . S
C1684 C1682 1.384 . S
C1684 C1685 1.372 . S
C1685 C1684 1.372 . S
C1685 C1686 1.400 . S
C1685 C1690 1.490 . S
C1686 H1676 0.930 . S
C1686 C1685 1.400 . S
C1686 C1689 1.386 . S
H1687 C1703 0.930 . S
H1688 C1704 0.931 . S
C1689 H1677 0.929 . S
C1689 C1683 1.390 . S
C1689 C1686 1.386 . S
C1690 C1685 1.490 . S
C1690 C1692 1.395 . S
C1690 C1693 1.403 . S
H1691 C1697 0.930 . S
C1692 H1678 0.930 . S
C1692 C1690 1.395 . S
C1692 C1695 1.403 1_565 S
C1693 C1690 1.403 . S
C1693 C1694 1.524 . S
C1693 C1697 1.400 1_565 S
C1694 H1679 0.960 . S
C1694 H1680 0.960 . S
C1694 H1681 0.960 . S
C1694 C1693 1.524 . S
C1695 C1692 1.403 1_545 S
C1695 C1696 1.392 . S
C1695 C1699 1.495 . S
C1696 C1695 1.392 . S
C1696 C1697 1.385 . S
C1696 C1698 1.478 . S
C1697 H1691 0.930 . S
C1697 C1693 1.400 1_545 S
C1697 C1696 1.385 . S
C1698 C1696 1.478 . S
C1698 C1700 1.381 . S
C1698 C1704 1.383 . S
C1699 C1695 1.495 . S
C1699 H1705 0.959 . S
C1699 H1706 0.961 . S
C1699 H1707 0.960 . S
C1700 C1698 1.381 . S
C1700 C1701 1.394 . S
C1700 H1708 0.930 . S
C1701 C1700 1.394 . S
C1701 C1702 1.383 . S
C1701 H1709 0.929 . S
C1702 C1701 1.383 . S
C1702 C1703 1.377 . S
C1703 H1687 0.930 . S
C1703 C1702 1.377 . S
C1703 C1704 1.379 . S
C1704 H1688 0.931 . S
C1704 C1698 1.383 . S
C1704 C1703 1.379 . S
H1705 C1699 0.959 . S
H1706 C1699 0.961 . S
H1707 C1699 0.960 . S
H1708 C1700 0.930 . S
H1709 C1701 0.929 . S
H1710 C1718 0.929 . S
H1711 C1720 0.930 . S
H1712 C1722 0.930 . S
H1713 C1725 0.929 . S
H1714 C1728 0.930 . S
H1715 C1730 0.960 . S
H1716 C1730 0.960 . S
H1717 C1730 0.960 . S
C1718 H1710 0.929 . S
C1718 C1719 1.377 . S
C1718 C1720 1.384 . S
C1719 C1718 1.377 . S
C1719 C1725 1.390 . S
C1720 H1711 0.930 . S
C1720 C1718 1.384 . S
C1720 C1721 1.372 . S
C1721 C1720 1.372 . S
C1721 C1722 1.400 . S
C1721 C1726 1.490 . S
C1722 H1712 0.930 . S
C1722 C1721 1.400 . S
C1722 C1725 1.386 . S
H1723 C1739 0.930 . S
H1724 C1740 0.931 . S
C1725 H1713 0.929 . S
C1725 C1719 1.390 . S
C1725 C1722 1.386 . S
C1726 C1721 1.490 . S
C1726 C1728 1.395 . S
C1726 C1729 1.403 . S
H1727 C1733 0.930 . S
C1728 H1714 0.930 . S
C1728 C1726 1.395 . S
C1728 C1731 1.403 . S
C1729 C1726 1.403 . S
C1729 C1730 1.524 . S
C1729 C1733 1.400 . S
C1730 H1715 0.960 . S
C1730 H1716 0.960 . S
C1730 H1717 0.960 . S
C1730 C1729 1.524 . S
C1731 C1728 1.403 . S
C1731 C1732 1.392 . S
C1731 C1735 1.495 . S
C1732 C1731 1.392 . S
C1732 C1733 1.385 . S
C1732 C1734 1.478 . S
C1733 H1727 0.930 . S
C1733 C1729 1.400 . S
C1733 C1732 1.385 . S
C1734 C1732 1.478 . S
C1734 C1736 1.381 . S
C1734 C1740 1.383 . S
C1735 C1731 1.495 . S
C1735 H1741 0.959 . S
C1735 H1742 0.961 . S
C1735 H1743 0.960 . S
C1736 C1734 1.381 . S
C1736 C1737 1.394 . S
C1736 H1744 0.930 . S
C1737 C1736 1.394 . S
C1737 C1738 1.383 . S
C1737 H1745 0.929 . S
C1738 C1737 1.383 . S
C1738 C1739 1.377 . S
C1739 H1723 0.930 . S
C1739 C1738 1.377 . S
C1739 C1740 1.379 . S
C1740 H1724 0.931 . S
C1740 C1734 1.383 . S
C1740 C1739 1.379 . S
H1741 C1735 0.959 . S
H1742 C1735 0.961 . S
H1743 C1735 0.960 . S
H1744 C1736 0.930 . S
H1745 C1737 0.929 . S
H1746 C1754 0.929 . S
H1747 C1756 0.930 . S
H1748 C1758 0.930 . S
H1749 C1761 0.929 . S
H1750 C1764 0.930 . S
H1751 C1766 0.960 . S
H1752 C1766 0.960 . S
H1753 C1766 0.960 . S
C1754 H1746 0.929 . S
C1754 C1755 1.377 . S
C1754 C1756 1.384 . S
C1755 C1754 1.377 . S
C1755 C1761 1.390 . S
C1756 H1747 0.930 . S
C1756 C1754 1.384 . S
C1756 C1757 1.372 . S
C1757 C1756 1.372 . S
C1757 C1758 1.400 . S
C1757 C1762 1.490 . S
C1758 H1748 0.930 . S
C1758 C1757 1.400 . S
C1758 C1761 1.386 . S
H1759 C1775 0.930 . S
H1760 C1776 0.931 . S
C1761 H1749 0.929 . S
C1761 C1755 1.390 . S
C1761 C1758 1.386 . S
C1762 C1757 1.490 . S
C1762 C1764 1.395 . S
C1762 C1765 1.403 . S
H1763 C1769 0.930 . S
C1764 H1750 0.930 . S
C1764 C1762 1.395 . S
C1764 C1767 1.403 . S
C1765 C1762 1.403 . S
C1765 C1766 1.524 . S
C1765 C1769 1.400 . S
C1766 H1751 0.960 . S
C1766 H1752 0.960 . S
C1766 H1753 0.960 . S
C1766 C1765 1.524 . S
C1767 C1764 1.403 . S
C1767 C1768 1.392 . S
C1767 C1771 1.495 . S
C1768 C1767 1.392 . S
C1768 C1769 1.385 . S
C1768 C1770 1.478 . S
C1769 H1763 0.930 . S
C1769 C1765 1.400 . S
C1769 C1768 1.385 . S
C1770 C1768 1.478 . S
C1770 C1772 1.381 . S
C1770 C1776 1.383 . S
C1771 C1767 1.495 . S
C1771 H1777 0.959 . S
C1771 H1778 0.961 . S
C1771 H1779 0.960 . S
C1772 C1770 1.381 . S
C1772 C1773 1.394 . S
C1772 H1780 0.930 . S
C1773 C1772 1.394 . S
C1773 C1774 1.383 . S
C1773 H1781 0.929 . S
C1774 C1773 1.383 . S
C1774 C1775 1.377 . S
C1775 H1759 0.930 . S
C1775 C1774 1.377 . S
C1775 C1776 1.379 . S
C1776 H1760 0.931 . S
C1776 C1770 1.383 . S
C1776 C1775 1.379 . S
H1777 C1771 0.959 . S
H1778 C1771 0.961 . S
H1779 C1771 0.960 . S
H1780 C1772 0.930 . S
H1781 C1773 0.929 . S
H1782 C1790 0.929 . S
H1783 C1792 0.930 . S
H1784 C1794 0.930 . S
H1785 C1797 0.929 . S
H1786 C1800 0.930 . S
H1787 C1802 0.960 . S
H1788 C1802 0.960 . S
H1789 C1802 0.960 . S
C1790 H1782 0.929 . S
C1790 C1791 1.377 . S
C1790 C1792 1.384 . S
C1791 C1790 1.377 . S
C1791 C1797 1.390 . S
C1792 H1783 0.930 . S
C1792 C1790 1.384 . S
C1792 C1793 1.372 . S
C1793 C1792 1.372 . S
C1793 C1794 1.400 . S
C1793 C1798 1.490 . S
C1794 H1784 0.930 . S
C1794 C1793 1.400 . S
C1794 C1797 1.386 . S
H1795 C1811 0.930 . S
H1796 C1812 0.931 . S
C1797 H1785 0.929 . S
C1797 C1791 1.390 . S
C1797 C1794 1.386 . S
C1798 C1793 1.490 . S
C1798 C1800 1.395 . S
C1798 C1801 1.403 . S
H1799 C1805 0.930 . S
C1800 H1786 0.930 . S
C1800 C1798 1.395 . S
C1800 C1803 1.403 . S
C1801 C1798 1.403 . S
C1801 C1802 1.524 . S
C1801 C1805 1.400 . S
C1802 H1787 0.960 . S
C1802 H1788 0.960 . S
C1802 H1789 0.960 . S
C1802 C1801 1.524 . S
C1803 C1800 1.403 . S
C1803 C1804 1.392 . S
C1803 C1807 1.495 . S
C1804 C1803 1.392 . S
C1804 C1805 1.385 . S
C1804 C1806 1.478 . S
C1805 H1799 0.930 . S
C1805 C1801 1.400 . S
C1805 C1804 1.385 . S
C1806 C1804 1.478 . S
C1806 C1808 1.381 . S
C1806 C1812 1.383 . S
C1807 C1803 1.495 . S
C1807 H1813 0.959 . S
C1807 H1814 0.961 . S
C1807 H1815 0.960 . S
C1808 C1806 1.381 . S
C1808 C1809 1.394 . S
C1808 H1816 0.930 . S
C1809 C1808 1.394 . S
C1809 C1810 1.383 . S
C1809 H1817 0.929 . S
C1810 C1809 1.383 . S
C1810 C1811 1.377 . S
C1811 H1795 0.930 . S
C1811 C1810 1.377 . S
C1811 C1812 1.379 . S
C1812 H1796 0.931 . S
C1812 C1806 1.383 . S
C1812 C1811 1.379 . S
H1813 C1807 0.959 . S
H1814 C1807 0.961 . S
H1815 C1807 0.960 . S
H1816 C1808 0.930 . S
H1817 C1809 0.929 . S
H1818 C1826 0.929 . S
H1819 C1828 0.930 . S
H1820 C1830 0.930 . S
H1821 C1833 0.929 . S
H1822 C1836 0.930 . S
H1823 C1838 0.960 . S
H1824 C1838 0.960 . S
H1825 C1838 0.960 . S
C1826 H1818 0.929 . S
C1826 C1827 1.377 . S
C1826 C1828 1.384 . S
C1827 C1826 1.377 . S
C1827 C1833 1.390 . S
C1828 H1819 0.930 . S
C1828 C1826 1.384 . S
C1828 C1829 1.372 . S
C1829 C1828 1.372 . S
C1829 C1830 1.400 . S
C1829 C1834 1.490 . S
C1830 H1820 0.930 . S
C1830 C1829 1.400 . S
C1830 C1833 1.386 . S
H1831 C1847 0.930 . S
H1832 C1848 0.931 . S
C1833 H1821 0.929 . S
C1833 C1827 1.390 . S
C1833 C1830 1.386 . S
C1834 C1829 1.490 . S
C1834 C1836 1.395 . S
C1834 C1837 1.403 . S
H1835 C1841 0.930 . S
C1836 H1822 0.930 . S
C1836 C1834 1.395 . S
C1836 C1839 1.403 . S
C1837 C1834 1.403 . S
C1837 C1838 1.524 . S
C1837 C1841 1.400 . S
C1838 H1823 0.960 . S
C1838 H1824 0.960 . S
C1838 H1825 0.960 . S
C1838 C1837 1.524 . S
C1839 C1836 1.403 . S
C1839 C1840 1.392 . S
C1839 C1843 1.495 . S
C1840 C1839 1.392 . S
C1840 C1841 1.385 . S
C1840 C1842 1.478 . S
C1841 H1835 0.930 . S
C1841 C1837 1.400 . S
C1841 C1840 1.385 . S
C1842 C1840 1.478 . S
C1842 C1844 1.381 . S
C1842 C1848 1.383 . S
C1843 C1839 1.495 . S
C1843 H1849 0.959 . S
C1843 H1850 0.961 . S
C1843 H1851 0.960 . S
C1844 C1842 1.381 . S
C1844 C1845 1.394 1_565 S
C1844 H1852 0.930 1_565 S
C1845 C1844 1.394 1_545 S
C1845 C1846 1.383 1_545 S
C1845 H1853 0.929 . S
C1846 C1845 1.383 1_565 S
C1846 C1847 1.377 . S
C1847 H1831 0.930 . S
C1847 C1846 1.377 . S
C1847 C1848 1.379 . S
C1848 H1832 0.931 . S
C1848 C1842 1.383 . S
C1848 C1847 1.379 . S
H1849 C1843 0.959 . S
H1850 C1843 0.961 . S
H1851 C1843 0.960 . S
H1852 C1844 0.930 1_545 S
H1853 C1845 0.929 . S
H1854 C1862 0.929 1_655 S
H1855 C1864 0.930 1_655 S
H1856 C1866 0.930 . S
H1857 C1869 0.929 . S
H1858 C1872 0.930 . S
H1859 C1874 0.960 . S
H1860 C1874 0.960 . S
H1861 C1874 0.960 . S
C1862 H1854 0.929 1_455 S
C1862 C1863 1.377 . S
C1862 C1864 1.384 . S
C1863 C1862 1.377 . S
C1863 C1869 1.390 . S
C1864 H1855 0.930 1_455 S
C1864 C1862 1.384 . S
C1864 C1865 1.372 . S
C1865 C1864 1.372 . S
C1865 C1866 1.400 . S
C1865 C1870 1.490 . S
C1866 H1856 0.930 . S
C1866 C1865 1.400 . S
C1866 C1869 1.386 . S
H1867 C1883 0.930 . S
H1868 C1884 0.931 . S
C1869 H1857 0.929 . S
C1869 C1863 1.390 . S
C1869 C1866 1.386 . S
C1870 C1865 1.490 . S
C1870 C1872 1.395 . S
C1870 C1873 1.403 . S
H1871 C1877 0.930 . S
C1872 H1858 0.930 . S
C1872 C1870 1.395 . S
C1872 C1875 1.403 . S
C1873 C1870 1.403 . S
C1873 C1874 1.524 . S
C1873 C1877 1.400 . S
C1874 H1859 0.960 . S
C1874 H1860 0.960 . S
C1874 H1861 0.960 . S
C1874 C1873 1.524 . S
C1875 C1872 1.403 . S
C1875 C1876 1.392 . S
C1875 C1879 1.495 1_455 S
C1876 C1875 1.392 . S
C1876 C1877 1.385 . S
C1876 C1878 1.478 . S
C1877 H1871 0.930 . S
C1877 C1873 1.400 . S
C1877 C1876 1.385 . S
C1878 C1876 1.478 . S
C1878 C1880 1.381 1_455 S
C1878 C1884 1.383 . S
C1879 C1875 1.495 1_655 S
C1879 H1885 0.959 . S
C1879 H1886 0.961 1_655 S
C1879 H1887 0.960 . S
C1880 C1878 1.381 1_655 S
C1880 C1881 1.394 . S
C1880 H1888 0.930 . S
C1881 C1880 1.394 . S
C1881 C1882 1.383 1_655 S
C1881 H1889 0.929 . S
C1882 C1881 1.383 1_455 S
C1882 C1883 1.377 . S
C1883 H1867 0.930 . S
C1883 C1882 1.377 . S
C1883 C1884 1.379 . S
C1884 H1868 0.931 . S
C1884 C1878 1.383 . S
C1884 C1883 1.379 . S
H1885 C1879 0.959 . S
H1886 C1879 0.961 1_455 S
H1887 C1879 0.960 . S
H1888 C1880 0.930 . S
H1889 C1881 0.929 . S
H1890 C1898 0.929 . S
H1891 C1900 0.930 . S
H1892 C1902 0.930 . S
H1893 C1905 0.929 . S
H1894 C1908 0.930 . S
H1895 C1910 0.960 . S
H1896 C1910 0.960 . S
H1897 C1910 0.960 . S
C1898 H1890 0.929 . S
C1898 C1899 1.377 . S
C1898 C1900 1.384 . S
C1899 C1898 1.377 . S
C1899 C1905 1.390 . S
C1900 H1891 0.930 . S
C1900 C1898 1.384 . S
C1900 C1901 1.372 . S
C1901 C1900 1.372 . S
C1901 C1902 1.400 . S
C1901 C1906 1.490 . S
C1902 H1892 0.930 . S
C1902 C1901 1.400 . S
C1902 C1905 1.386 . S
H1903 C1919 0.930 . S
H1904 C1920 0.931 . S
C1905 H1893 0.929 . S
C1905 C1899 1.390 . S
C1905 C1902 1.386 . S
C1906 C1901 1.490 . S
C1906 C1908 1.395 . S
C1906 C1909 1.403 . S
H1907 C1913 0.930 . S
C1908 H1894 0.930 . S
C1908 C1906 1.395 . S
C1908 C1911 1.403 . S
C1909 C1906 1.403 . S
C1909 C1910 1.524 . S
C1909 C1913 1.400 . S
C1910 H1895 0.960 . S
C1910 H1896 0.960 . S
C1910 H1897 0.960 . S
C1910 C1909 1.524 . S
C1911 C1908 1.403 . S
C1911 C1912 1.392 . S
C1911 C1915 1.495 . S
C1912 C1911 1.392 . S
C1912 C1913 1.385 . S
C1912 C1914 1.478 . S
C1913 H1907 0.930 . S
C1913 C1909 1.400 . S
C1913 C1912 1.385 . S
C1914 C1912 1.478 . S
C1914 C1916 1.381 . S
C1914 C1920 1.383 . S
C1915 C1911 1.495 . S
C1915 H1921 0.959 . S
C1915 H1922 0.961 . S
C1915 H1923 0.960 . S
C1916 C1914 1.381 . S
C1916 C1917 1.394 . S
C1916 H1924 0.930 . S
C1917 C1916 1.394 . S
C1917 C1918 1.383 . S
C1917 H1925 0.929 . S
C1918 C1917 1.383 . S
C1918 C1919 1.377 . S
C1919 H1903 0.930 . S
C1919 C1918 1.377 . S
C1919 C1920 1.379 . S
C1920 H1904 0.931 . S
C1920 C1914 1.383 . S
C1920 C1919 1.379 . S
H1921 C1915 0.959 . S
H1922 C1915 0.961 . S
H1923 C1915 0.960 . S
H1924 C1916 0.930 . S
H1925 C1917 0.929 . S
H1926 C1934 0.929 1_455 S
H1927 C1936 0.930 1_455 S
H1928 C1938 0.930 . S
H1929 C1941 0.929 . S
H1930 C1944 0.922 1_455 S
H1931 C1946 0.960 . S
H1932 C1946 0.960 . S
H1933 C1946 0.960 . S
C1934 H1926 0.929 1_655 S
C1934 C1935 1.377 . S
C1934 C1936 1.384 . S
C1935 C1934 1.377 . S
C1935 C1941 1.390 . S
C1936 H1927 0.930 1_655 S
C1936 C1934 1.384 . S
C1936 C1937 1.372 . S
C1937 C1936 1.372 . S
C1937 C1938 1.400 . S
C1937 C1942 1.490 . S
C1938 H1928 0.930 . S
C1938 C1937 1.400 . S
C1938 C1941 1.386 . S
H1939 C1955 0.930 . S
H1940 C1956 0.931 . S
C1941 H1929 0.929 . S
C1941 C1935 1.390 . S
C1941 C1938 1.386 . S
C1942 C1937 1.490 . S
C1942 C1944 1.402 . S
C1942 C1945 1.403 . S
H1943 C1949 0.930 . S
C1944 H1930 0.922 1_655 S
C1944 C1942 1.402 . S
C1944 C1947 1.404 1_655 S
C1945 C1942 1.403 . S
C1945 C1946 1.524 . S
C1945 C1949 1.400 . S
C1946 H1931 0.960 . S
C1946 H1932 0.960 . S
C1946 H1933 0.960 . S
C1946 C1945 1.524 . S
C1947 C1944 1.404 1_455 S
C1947 C1948 1.392 1_455 S
C1947 C1951 1.495 . S
C1948 C1947 1.392 1_655 S
C1948 C1949 1.385 . S
C1948 C1950 1.478 . S
C1949 H1943 0.930 . S
C1949 C1945 1.400 . S
C1949 C1948 1.385 . S
C1950 C1948 1.478 . S
C1950 C1952 1.381 1_655 S
C1950 C1956 1.383 . S
C1951 C1947 1.495 . S
C1951 H1957 0.959 . S
C1951 H1958 0.961 . S
C1951 H1959 0.960 . S
C1952 C1950 1.381 1_455 S
C1952 C1953 1.394 . S
C1952 H1960 0.930 . S
C1953 C1952 1.394 . S
C1953 C1954 1.383 1_455 S
C1953 H1961 0.929 . S
C1954 C1953 1.383 1_655 S
C1954 C1955 1.377 . S
C1955 H1939 0.930 . S
C1955 C1954 1.377 . S
C1955 C1956 1.379 . S
C1956 H1940 0.931 . S
C1956 C1950 1.383 . S
C1956 C1955 1.379 . S
H1957 C1951 0.959 . S
H1958 C1951 0.961 . S
H1959 C1951 0.960 . S
H1960 C1952 0.930 . S
H1961 C1953 0.929 . S
H1962 C1970 0.929 . S
H1963 C1972 0.930 . S
H1964 C1974 0.930 . S
H1965 C1977 0.929 . S
H1966 C1980 0.930 . S
H1967 C1982 0.960 . S
H1968 C1982 0.960 . S
H1969 C1982 0.960 . S
C1970 H1962 0.929 . S
C1970 C1971 1.377 . S
C1970 C1972 1.384 . S
C1971 C1970 1.377 . S
C1971 C1977 1.390 . S
C1972 H1963 0.930 . S
C1972 C1970 1.384 . S
C1972 C1973 1.372 . S
C1973 C1972 1.372 . S
C1973 C1974 1.400 . S
C1973 C1978 1.490 . S
C1974 H1964 0.930 . S
C1974 C1973 1.400 . S
C1974 C1977 1.386 . S
H1975 C1991 0.930 . S
H1976 C1992 0.931 . S
C1977 H1965 0.929 . S
C1977 C1971 1.390 . S
C1977 C1974 1.386 . S
C1978 C1973 1.490 . S
C1978 C1980 1.395 . S
C1978 C1981 1.403 . S
H1979 C1985 0.930 . S
C1980 H1966 0.930 . S
C1980 C1978 1.395 . S
C1980 C1983 1.403 . S
C1981 C1978 1.403 . S
C1981 C1982 1.524 . S
C1981 C1985 1.400 . S
C1982 H1967 0.960 . S
C1982 H1968 0.960 . S
C1982 H1969 0.960 . S
C1982 C1981 1.524 . S
C1983 C1980 1.403 . S
C1983 C1984 1.392 . S
C1983 C1987 1.495 . S
C1984 C1983 1.392 . S
C1984 C1985 1.385 . S
C1984 C1986 1.478 . S
C1985 H1979 0.930 . S
C1985 C1981 1.400 . S
C1985 C1984 1.385 . S
C1986 C1984 1.478 . S
C1986 C1988 1.381 . S
C1986 C1992 1.383 . S
C1987 C1983 1.495 . S
C1987 H1993 0.959 . S
C1987 H1994 0.961 . S
C1987 H1995 0.960 . S
C1988 C1986 1.381 . S
C1988 C1989 1.394 . S
C1988 H1996 0.930 . S
C1989 C1988 1.394 . S
C1989 C1990 1.383 . S
C1989 H1997 0.929 . S
C1990 C1989 1.383 . S
C1990 C1991 1.377 . S
C1991 H1975 0.930 . S
C1991 C1990 1.377 . S
C1991 C1992 1.379 . S
C1992 H1976 0.931 . S
C1992 C1986 1.383 . S
C1992 C1991 1.379 . S
H1993 C1987 0.959 . S
H1994 C1987 0.961 . S
H1995 C1987 0.960 . S
H1996 C1988 0.930 . S
H1997 C1989 0.929 . S
H1998 C2006 0.929 . S
H1999 C2008 0.930 . S
H2000 C2010 0.930 . S
H2001 C2013 0.929 . S
H2002 C2016 0.930 . S
H2003 C2018 0.960 . S
H2004 C2018 0.960 . S
H2005 C2018 0.960 . S
C2006 H1998 0.929 . S
C2006 C2007 1.377 . S
C2006 C2008 1.384 . S
C2007 C2006 1.377 . S
C2007 C2013 1.390 . S
C2008 H1999 0.930 . S
C2008 C2006 1.384 . S
C2008 C2009 1.372 . S
C2009 C2008 1.372 . S
C2009 C2010 1.400 . S
C2009 C2014 1.490 . S
C2010 H2000 0.930 . S
C2010 C2009 1.400 . S
C2010 C2013 1.386 . S
H2011 C2027 0.930 . S
H2012 C2028 0.931 . S
C2013 H2001 0.929 . S
C2013 C2007 1.390 . S
C2013 C2010 1.386 . S
C2014 C2009 1.490 . S
C2014 C2016 1.395 . S
C2014 C2017 1.403 . S
H2015 C2021 0.930 . S
C2016 H2002 0.930 . S
C2016 C2014 1.395 . S
C2016 C2019 1.403 . S
C2017 C2014 1.403 . S
C2017 C2018 1.524 . S
C2017 C2021 1.400 . S
C2018 H2003 0.960 . S
C2018 H2004 0.960 . S
C2018 H2005 0.960 . S
C2018 C2017 1.524 . S
C2019 C2016 1.403 . S
C2019 C2020 1.392 . S
C2019 C2023 1.495 1_545 S
C2020 C2019 1.392 . S
C2020 C2021 1.385 . S
C2020 C2022 1.478 . S
C2021 H2015 0.930 . S
C2021 C2017 1.400 . S
C2021 C2020 1.385 . S
C2022 C2020 1.478 . S
C2022 C2024 1.381 . S
C2022 C2028 1.383 . S
C2023 C2019 1.495 1_565 S
C2023 H2029 0.959 . S
C2023 H2030 0.961 . S
C2023 H2031 0.960 . S
C2024 C2022 1.381 . S
C2024 C2025 1.394 . S
C2024 H2032 0.930 . S
C2025 C2024 1.394 . S
C2025 C2026 1.383 . S
C2025 H2033 0.929 . S
C2026 C2025 1.383 . S
C2026 C2027 1.377 . S
C2027 H2011 0.930 . S
C2027 C2026 1.377 . S
C2027 C2028 1.379 . S
C2028 H2012 0.931 . S
C2028 C2022 1.383 . S
C2028 C2027 1.379 . S
H2029 C2023 0.959 . S
H2030 C2023 0.961 . S
H2031 C2023 0.960 . S
H2032 C2024 0.930 . S
H2033 C2025 0.929 . S
H2034 C2042 0.929 . S
H2035 C2044 0.930 . S
H2036 C2046 0.930 . S
H2037 C2049 0.929 . S
H2038 C2052 0.930 . S
H2039 C2054 0.960 . S
H2040 C2054 0.960 . S
H2041 C2054 0.960 . S
C2042 H2034 0.929 . S
C2042 C2043 1.377 . S
C2042 C2044 1.384 . S
C2043 C2042 1.377 . S
C2043 C2049 1.390 . S
C2044 H2035 0.930 . S
C2044 C2042 1.384 . S
C2044 C2045 1.372 . S
C2045 C2044 1.372 . S
C2045 C2046 1.400 . S
C2045 C2050 1.490 . S
C2046 H2036 0.930 . S
C2046 C2045 1.400 . S
C2046 C2049 1.386 . S
H2047 C2063 0.930 . S
H2048 C2064 0.931 . S
C2049 H2037 0.929 . S
C2049 C2043 1.390 . S
C2049 C2046 1.386 . S
C2050 C2045 1.490 . S
C2050 C2052 1.395 . S
C2050 C2053 1.403 . S
H2051 C2057 0.930 . S
C2052 H2038 0.930 . S
C2052 C2050 1.395 . S
C2052 C2055 1.403 . S
C2053 C2050 1.403 . S
C2053 C2054 1.524 . S
C2053 C2057 1.400 . S
C2054 H2039 0.960 . S
C2054 H2040 0.960 . S
C2054 H2041 0.960 . S
C2054 C2053 1.524 . S
C2055 C2052 1.403 . S
C2055 C2056 1.392 . S
C2055 C2059 1.495 . S
C2056 C2055 1.392 . S
C2056 C2057 1.385 . S
C2056 C2058 1.478 . S
C2057 H2051 0.930 . S
C2057 C2053 1.400 . S
C2057 C2056 1.385 . S
C2058 C2056 1.478 . S
C2058 C2060 1.381 . S
C2058 C2064 1.383 . S
C2059 C2055 1.495 . S
C2059 H2065 0.959 . S
C2059 H2066 0.961 . S
C2059 H2067 0.960 . S
C2060 C2058 1.381 . S
C2060 C2061 1.394 . S
C2060 H2068 0.930 . S
C2061 C2060 1.394 . S
C2061 C2062 1.383 . S
C2061 H2069 0.929 . S
C2062 C2061 1.383 . S
C2062 C2063 1.377 . S
C2063 H2047 0.930 . S
C2063 C2062 1.377 . S
C2063 C2064 1.379 . S
C2064 H2048 0.931 . S
C2064 C2058 1.383 . S
C2064 C2063 1.379 . S
H2065 C2059 0.959 . S
H2066 C2059 0.961 . S
H2067 C2059 0.960 . S
H2068 C2060 0.930 . S
H2069 C2061 0.929 . S
H2070 C2078 0.929 . S
H2071 C2080 0.930 . S
H2072 C2082 0.930 . S
H2073 C2085 0.929 . S
H2074 C2088 0.930 . S
H2075 C2090 0.960 . S
H2076 C2090 0.960 . S
H2077 C2090 0.960 . S
C2078 H2070 0.929 . S
C2078 C2079 1.377 . S
C2078 C2080 1.384 . S
C2079 C2078 1.377 . S
C2079 C2085 1.390 . S
C2080 H2071 0.930 . S
C2080 C2078 1.384 . S
C2080 C2081 1.372 . S
C2081 C2080 1.372 . S
C2081 C2082 1.400 . S
C2081 C2086 1.490 . S
C2082 H2072 0.930 . S
C2082 C2081 1.400 . S
C2082 C2085 1.386 . S
H2083 C2099 0.930 . S
H2084 C2100 0.931 . S
C2085 H2073 0.929 . S
C2085 C2079 1.390 . S
C2085 C2082 1.386 . S
C2086 C2081 1.490 . S
C2086 C2088 1.395 . S
C2086 C2089 1.403 . S
H2087 C2093 0.930 . S
C2088 H2074 0.930 . S
C2088 C2086 1.395 . S
C2088 C2091 1.403 . S
C2089 C2086 1.403 . S
C2089 C2090 1.524 . S
C2089 C2093 1.400 . S
C2090 H2075 0.960 . S
C2090 H2076 0.960 . S
C2090 H2077 0.960 . S
C2090 C2089 1.524 . S
C2091 C2088 1.403 . S
C2091 C2092 1.392 . S
C2091 C2095 1.495 . S
C2092 C2091 1.392 . S
C2092 C2093 1.385 . S
C2092 C2094 1.478 . S
C2093 H2087 0.930 . S
C2093 C2089 1.400 . S
C2093 C2092 1.385 . S
C2094 C2092 1.478 . S
C2094 C2096 1.381 . S
C2094 C2100 1.383 . S
C2095 C2091 1.495 . S
C2095 H2101 0.959 . S
C2095 H2102 0.961 . S
C2095 H2103 0.960 . S
C2096 C2094 1.381 . S
C2096 C2097 1.394 . S
C2096 H2104 0.930 . S
C2097 C2096 1.394 . S
C2097 C2098 1.383 . S
C2097 H2105 0.929 . S
C2098 C2097 1.383 . S
C2098 C2099 1.377 . S
C2099 H2083 0.930 . S
C2099 C2098 1.377 . S
C2099 C2100 1.379 . S
C2100 H2084 0.931 . S
C2100 C2094 1.383 . S
C2100 C2099 1.379 . S
H2101 C2095 0.959 . S
H2102 C2095 0.961 . S
H2103 C2095 0.960 . S
H2104 C2096 0.930 . S
H2105 C2097 0.929 . S
H2106 C2114 0.929 . S
H2107 C2116 0.930 . S
H2108 C2118 0.930 . S
H2109 C2121 0.929 . S
H2110 C2124 0.930 . S
H2111 C2126 0.960 . S
H2112 C2126 0.960 . S
H2113 C2126 0.960 . S
C2114 H2106 0.929 . S
C2114 C2115 1.377 . S
C2114 C2116 1.384 . S
C2115 C2114 1.377 . S
C2115 C2121 1.390 . S
C2116 H2107 0.930 . S
C2116 C2114 1.384 . S
C2116 C2117 1.372 . S
C2117 C2116 1.372 . S
C2117 C2118 1.400 . S
C2117 C2122 1.490 . S
C2118 H2108 0.930 . S
C2118 C2117 1.400 . S
C2118 C2121 1.386 . S
H2119 C2135 0.930 . S
H2120 C2136 0.931 . S
C2121 H2109 0.929 . S
C2121 C2115 1.390 . S
C2121 C2118 1.386 . S
C2122 C2117 1.490 . S
C2122 C2124 1.395 . S
C2122 C2125 1.403 . S
H2123 C2129 0.930 . S
C2124 H2110 0.930 . S
C2124 C2122 1.395 . S
C2124 C2127 1.403 . S
C2125 C2122 1.403 . S
C2125 C2126 1.524 . S
C2125 C2129 1.400 . S
C2126 H2111 0.960 . S
C2126 H2112 0.960 . S
C2126 H2113 0.960 . S
C2126 C2125 1.524 . S
C2127 C2124 1.403 . S
C2127 C2128 1.392 . S
C2127 C2131 1.495 . S
C2128 C2127 1.392 . S
C2128 C2129 1.385 . S
C2128 C2130 1.478 . S
C2129 H2123 0.930 . S
C2129 C2125 1.400 . S
C2129 C2128 1.385 . S
C2130 C2128 1.478 . S
C2130 C2132 1.381 . S
C2130 C2136 1.383 . S
C2131 C2127 1.495 . S
C2131 H2137 0.959 . S
C2131 H2138 0.961 . S
C2131 H2139 0.960 . S
C2132 C2130 1.381 . S
C2132 C2133 1.394 . S
C2132 H2140 0.930 . S
C2133 C2132 1.394 . S
C2133 C2134 1.383 . S
C2133 H2141 0.929 . S
C2134 C2133 1.383 . S
C2134 C2135 1.377 . S
C2135 H2119 0.930 . S
C2135 C2134 1.377 . S
C2135 C2136 1.379 . S
C2136 H2120 0.931 . S
C2136 C2130 1.383 . S
C2136 C2135 1.379 . S
H2137 C2131 0.959 . S
H2138 C2131 0.961 . S
H2139 C2131 0.960 . S
H2140 C2132 0.930 . S
H2141 C2133 0.929 . S
H2142 C2150 0.929 . S
H2143 C2152 0.930 . S
H2144 C2154 0.930 . S
H2145 C2157 0.929 . S
H2146 C2160 0.930 . S
H2147 C2162 0.960 . S
H2148 C2162 0.960 . S
H2149 C2162 0.960 . S
C2150 H2142 0.929 . S
C2150 C2151 1.377 . S
C2150 C2152 1.384 . S
C2151 C2150 1.377 . S
C2151 C2157 1.390 . S
C2152 H2143 0.930 . S
C2152 C2150 1.384 . S
C2152 C2153 1.372 . S
C2153 C2152 1.372 . S
C2153 C2154 1.400 . S
C2153 C2158 1.490 . S
C2154 H2144 0.930 . S
C2154 C2153 1.400 . S
C2154 C2157 1.386 . S
H2155 C2171 0.930 . S
H2156 C2172 0.931 . S
C2157 H2145 0.929 . S
C2157 C2151 1.390 . S
C2157 C2154 1.386 . S
C2158 C2153 1.490 . S
C2158 C2160 1.395 . S
C2158 C2161 1.403 . S
H2159 C2165 0.930 . S
C2160 H2146 0.930 . S
C2160 C2158 1.395 . S
C2160 C2163 1.403 . S
C2161 C2158 1.403 . S
C2161 C2162 1.524 . S
C2161 C2165 1.400 . S
C2162 H2147 0.960 . S
C2162 H2148 0.960 . S
C2162 H2149 0.960 . S
C2162 C2161 1.524 . S
C2163 C2160 1.403 . S
C2163 C2164 1.392 . S
C2163 C2167 1.495 . S
C2164 C2163 1.392 . S
C2164 C2165 1.385 . S
C2164 C2166 1.478 . S
C2165 H2159 0.930 . S
C2165 C2161 1.400 . S
C2165 C2164 1.385 . S
C2166 C2164 1.478 . S
C2166 C2168 1.381 . S
C2166 C2172 1.383 . S
C2167 C2163 1.495 . S
C2167 H2173 0.959 . S
C2167 H2174 0.961 . S
C2167 H2175 0.960 . S
C2168 C2166 1.381 . S
C2168 C2169 1.394 . S
C2168 H2176 0.930 . S
C2169 C2168 1.394 . S
C2169 C2170 1.383 . S
C2169 H2177 0.929 . S
C2170 C2169 1.383 . S
C2170 C2171 1.377 . S
C2171 H2155 0.930 . S
C2171 C2170 1.377 . S
C2171 C2172 1.379 . S
C2172 H2156 0.931 . S
C2172 C2166 1.383 . S
C2172 C2171 1.379 . S
H2173 C2167 0.959 . S
H2174 C2167 0.961 . S
H2175 C2167 0.960 . S
H2176 C2168 0.930 . S
H2177 C2169 0.929 . S
H2178 C2186 0.929 . S
H2179 C2188 0.930 . S
H2180 C2190 0.930 . S
H2181 C2193 0.929 . S
H2182 C2196 0.930 . S
H2183 C2198 0.960 . S
H2184 C2198 0.960 . S
H2185 C2198 0.960 . S
C2186 H2178 0.929 . S
C2186 C2187 1.377 . S
C2186 C2188 1.384 . S
C2187 C2186 1.377 . S
C2187 C2193 1.390 . S
C2188 H2179 0.930 . S
C2188 C2186 1.384 . S
C2188 C2189 1.372 . S
C2189 C2188 1.372 . S
C2189 C2190 1.400 . S
C2189 C2194 1.490 . S
C2190 H2180 0.930 . S
C2190 C2189 1.400 . S
C2190 C2193 1.386 . S
H2191 C2207 0.930 . S
H2192 C2208 0.931 . S
C2193 H2181 0.929 . S
C2193 C2187 1.390 . S
C2193 C2190 1.386 . S
C2194 C2189 1.490 . S
C2194 C2196 1.395 . S
C2194 C2197 1.403 . S
H2195 C2201 0.930 . S
C2196 H2182 0.930 . S
C2196 C2194 1.395 . S
C2196 C2199 1.403 . S
C2197 C2194 1.403 . S
C2197 C2198 1.524 . S
C2197 C2201 1.400 . S
C2198 H2183 0.960 . S
C2198 H2184 0.960 . S
C2198 H2185 0.960 . S
C2198 C2197 1.524 . S
C2199 C2196 1.403 . S
C2199 C2200 1.392 . S
C2199 C2203 1.495 . S
C2200 C2199 1.392 . S
C2200 C2201 1.385 . S
C2200 C2202 1.478 . S
C2201 H2195 0.930 . S
C2201 C2197 1.400 . S
C2201 C2200 1.385 . S
C2202 C2200 1.478 . S
C2202 C2204 1.381 . S
C2202 C2208 1.383 . S
C2203 C2199 1.495 . S
C2203 H2209 0.959 . S
C2203 H2210 0.961 . S
C2203 H2211 0.960 . S
C2204 C2202 1.381 . S
C2204 C2205 1.394 . S
C2204 H2212 0.930 . S
C2205 C2204 1.394 . S
C2205 C2206 1.383 . S
C2205 H2213 0.929 . S
C2206 C2205 1.383 . S
C2206 C2207 1.377 . S
C2207 H2191 0.930 . S
C2207 C2206 1.377 . S
C2207 C2208 1.379 . S
C2208 H2192 0.931 . S
C2208 C2202 1.383 . S
C2208 C2207 1.379 . S
H2209 C2203 0.959 . S
H2210 C2203 0.961 . S
H2211 C2203 0.960 . S
H2212 C2204 0.930 . S
H2213 C2205 0.929 . S
H2214 C2222 0.929 . S
H2215 C2224 0.930 . S
H2216 C2226 0.930 . S
H2217 C2229 0.929 . S
H2218 C2232 0.930 . S
H2219 C2234 0.960 . S
H2220 C2234 0.960 . S
H2221 C2234 0.960 . S
C2222 H2214 0.929 . S
C2222 C2223 1.377 . S
C2222 C2224 1.384 . S
C2223 C2222 1.377 . S
C2223 C2229 1.390 . S
C2224 H2215 0.930 . S
C2224 C2222 1.384 . S
C2224 C2225 1.372 . S
C2225 C2224 1.372 . S
C2225 C2226 1.400 . S
C2225 C2230 1.490 . S
C2226 H2216 0.930 . S
C2226 C2225 1.400 . S
C2226 C2229 1.386 . S
H2227 C2243 0.930 . S
H2228 C2244 0.931 . S
C2229 H2217 0.929 . S
C2229 C2223 1.390 . S
C2229 C2226 1.386 . S
C2230 C2225 1.490 . S
C2230 C2232 1.395 . S
C2230 C2233 1.403 . S
H2231 C2237 0.930 . S
C2232 H2218 0.930 . S
C2232 C2230 1.395 . S
C2232 C2235 1.403 . S
C2233 C2230 1.403 . S
C2233 C2234 1.524 . S
C2233 C2237 1.400 . S
C2234 H2219 0.960 . S
C2234 H2220 0.960 . S
C2234 H2221 0.960 . S
C2234 C2233 1.524 . S
C2235 C2232 1.403 . S
C2235 C2236 1.392 . S
C2235 C2239 1.495 . S
C2236 C2235 1.392 . S
C2236 C2237 1.385 . S
C2236 C2238 1.478 . S
C2237 H2231 0.930 . S
C2237 C2233 1.400 . S
C2237 C2236 1.385 . S
C2238 C2236 1.478 . S
C2238 C2240 1.381 . S
C2238 C2244 1.383 . S
C2239 C2235 1.495 . S
C2239 H2245 0.959 . S
C2239 H2246 0.961 . S
C2239 H2247 0.960 . S
C2240 C2238 1.381 . S
C2240 C2241 1.394 . S
C2240 H2248 0.930 . S
C2241 C2240 1.394 . S
C2241 C2242 1.383 . S
C2241 H2249 0.929 . S
C2242 C2241 1.383 . S
C2242 C2243 1.377 . S
C2243 H2227 0.930 . S
C2243 C2242 1.377 . S
C2243 C2244 1.379 . S
C2244 H2228 0.931 . S
C2244 C2238 1.383 . S
C2244 C2243 1.379 . S
H2245 C2239 0.959 . S
H2246 C2239 0.961 . S
H2247 C2239 0.960 . S
H2248 C2240 0.930 . S
H2249 C2241 0.929 . S
H2250 C2258 0.929 . S
H2251 C2260 0.930 . S
H2252 C2262 0.930 . S
H2253 C2265 0.929 . S
H2254 C2268 0.930 . S
H2255 C2270 0.960 . S
H2256 C2270 0.960 . S
H2257 C2270 0.960 . S
C2258 H2250 0.929 . S
C2258 C2259 1.377 . S
C2258 C2260 1.384 . S
C2259 C2258 1.377 . S
C2259 C2265 1.390 . S
C2260 H2251 0.930 . S
C2260 C2258 1.384 . S
C2260 C2261 1.372 . S
C2261 C2260 1.372 . S
C2261 C2262 1.400 . S
C2261 C2266 1.490 . S
C2262 H2252 0.930 . S
C2262 C2261 1.400 . S
C2262 C2265 1.386 . S
H2263 C2279 0.930 . S
H2264 C2280 0.931 . S
C2265 H2253 0.929 . S
C2265 C2259 1.390 . S
C2265 C2262 1.386 . S
C2266 C2261 1.490 . S
C2266 C2268 1.395 . S
C2266 C2269 1.403 . S
H2267 C2273 0.930 . S
C2268 H2254 0.930 . S
C2268 C2266 1.395 . S
C2268 C2271 1.403 . S
C2269 C2266 1.403 . S
C2269 C2270 1.524 . S
C2269 C2273 1.400 . S
C2270 H2255 0.960 . S
C2270 H2256 0.960 . S
C2270 H2257 0.960 . S
C2270 C2269 1.524 . S
C2271 C2268 1.403 . S
C2271 C2272 1.392 . S
C2271 C2275 1.495 . S
C2272 C2271 1.392 . S
C2272 C2273 1.385 . S
C2272 C2274 1.478 . S
C2273 H2267 0.930 . S
C2273 C2269 1.400 . S
C2273 C2272 1.385 . S
C2274 C2272 1.478 . S
C2274 C2276 1.381 . S
C2274 C2280 1.383 . S
C2275 C2271 1.495 . S
C2275 H2281 0.959 . S
C2275 H2282 0.961 . S
C2275 H2283 0.960 . S
C2276 C2274 1.381 . S
C2276 C2277 1.394 . S
C2276 H2284 0.930 . S
C2277 C2276 1.394 . S
C2277 C2278 1.383 . S
C2277 H2285 0.929 . S
C2278 C2277 1.383 . S
C2278 C2279 1.377 . S
C2279 H2263 0.930 . S
C2279 C2278 1.377 . S
C2279 C2280 1.379 . S
C2280 H2264 0.931 . S
C2280 C2274 1.383 . S
C2280 C2279 1.379 . S
H2281 C2275 0.959 . S
H2282 C2275 0.961 . S
H2283 C2275 0.960 . S
H2284 C2276 0.930 . S
H2285 C2277 0.929 . S
H2286 C2294 0.929 . S
H2287 C2296 0.930 . S
H2288 C2298 0.930 . S
H2289 C2301 0.929 . S
H2290 C2304 0.930 . S
H2291 C2306 0.960 . S
H2292 C2306 0.960 . S
H2293 C2306 0.960 . S
C2294 H2286 0.929 . S
C2294 C2295 1.377 . S
C2294 C2296 1.384 . S
C2295 C2294 1.377 . S
C2295 C2301 1.390 . S
C2296 H2287 0.930 . S
C2296 C2294 1.384 . S
C2296 C2297 1.372 . S
C2297 C2296 1.372 . S
C2297 C2298 1.400 . S
C2297 C2302 1.490 . S
C2298 H2288 0.930 . S
C2298 C2297 1.400 . S
C2298 C2301 1.386 . S
H2299 C2315 0.930 . S
H2300 C2316 0.931 . S
C2301 H2289 0.929 . S
C2301 C2295 1.390 . S
C2301 C2298 1.386 . S
C2302 C2297 1.490 . S
C2302 C2304 1.395 . S
C2302 C2305 1.403 . S
H2303 C2309 0.930 . S
C2304 H2290 0.930 . S
C2304 C2302 1.395 . S
C2304 C2307 1.403 . S
C2305 C2302 1.403 . S
C2305 C2306 1.524 . S
C2305 C2309 1.400 . S
C2306 H2291 0.960 . S
C2306 H2292 0.960 . S
C2306 H2293 0.960 . S
C2306 C2305 1.524 . S
C2307 C2304 1.403 . S
C2307 C2308 1.392 . S
C2307 C2311 1.495 . S
C2308 C2307 1.392 . S
C2308 C2309 1.385 . S
C2308 C2310 1.478 . S
C2309 H2303 0.930 . S
C2309 C2305 1.400 . S
C2309 C2308 1.385 . S
C2310 C2308 1.478 . S
C2310 C2312 1.381 . S
C2310 C2316 1.383 . S
C2311 C2307 1.495 . S
C2311 H2317 0.959 . S
C2311 H2318 0.961 . S
C2311 H2319 0.960 . S
C2312 C2310 1.381 . S
C2312 C2313 1.394 . S
C2312 H2320 0.930 . S
C2313 C2312 1.394 . S
C2313 C2314 1.383 . S
C2313 H2321 0.929 . S
C2314 C2313 1.383 . S
C2314 C2315 1.377 . S
C2315 H2299 0.930 . S
C2315 C2314 1.377 . S
C2315 C2316 1.379 . S
C2316 H2300 0.931 . S
C2316 C2310 1.383 . S
C2316 C2315 1.379 . S
H2317 C2311 0.959 . S
H2318 C2311 0.961 . S
H2319 C2311 0.960 . S
H2320 C2312 0.930 . S
H2321 C2313 0.929 . S
H2322 C2330 0.929 . S
H2323 C2332 0.930 . S
H2324 C2334 0.930 . S
H2325 C2337 0.929 . S
H2326 C2340 0.930 . S
H2327 C2342 0.960 . S
H2328 C2342 0.960 . S
H2329 C2342 0.960 . S
C2330 H2322 0.929 . S
C2330 C2331 1.377 . S
C2330 C2332 1.384 . S
C2331 C2330 1.377 . S
C2331 C2337 1.390 . S
C2332 H2323 0.930 . S
C2332 C2330 1.384 . S
C2332 C2333 1.372 . S
C2333 C2332 1.372 . S
C2333 C2334 1.400 . S
C2333 C2338 1.490 . S
C2334 H2324 0.930 . S
C2334 C2333 1.400 . S
C2334 C2337 1.386 . S
H2335 C2351 0.930 . S
H2336 C2352 0.931 . S
C2337 H2325 0.929 . S
C2337 C2331 1.390 . S
C2337 C2334 1.386 . S
C2338 C2333 1.490 . S
C2338 C2340 1.395 . S
C2338 C2341 1.403 . S
H2339 C2345 0.930 . S
C2340 H2326 0.930 . S
C2340 C2338 1.395 . S
C2340 C2343 1.403 . S
C2341 C2338 1.403 . S
C2341 C2342 1.524 . S
C2341 C2345 1.400 . S
C2342 H2327 0.960 . S
C2342 H2328 0.960 . S
C2342 H2329 0.960 . S
C2342 C2341 1.524 . S
C2343 C2340 1.403 . S
C2343 C2344 1.392 . S
C2343 C2347 1.495 . S
C2344 C2343 1.392 . S
C2344 C2345 1.385 . S
C2344 C2346 1.478 . S
C2345 H2339 0.930 . S
C2345 C2341 1.400 . S
C2345 C2344 1.385 . S
C2346 C2344 1.478 . S
C2346 C2348 1.381 . S
C2346 C2352 1.383 . S
C2347 C2343 1.495 . S
C2347 H2353 0.959 . S
C2347 H2354 0.961 . S
C2347 H2355 0.960 . S
C2348 C2346 1.381 . S
C2348 C2349 1.394 . S
C2348 H2356 0.930 . S
C2349 C2348 1.394 . S
C2349 C2350 1.383 . S
C2349 H2357 0.929 . S
C2350 C2349 1.383 . S
C2350 C2351 1.377 . S
C2351 H2335 0.930 . S
C2351 C2350 1.377 . S
C2351 C2352 1.379 . S
C2352 H2336 0.931 . S
C2352 C2346 1.383 . S
C2352 C2351 1.379 . S
H2353 C2347 0.959 . S
H2354 C2347 0.961 . S
H2355 C2347 0.960 . S
H2356 C2348 0.930 . S
H2357 C2349 0.929 . S
H2358 C2366 0.929 . S
H2359 C2368 0.930 . S
H2360 C2370 0.930 . S
H2361 C2373 0.929 . S
H2362 C2376 0.930 . S
H2363 C2378 0.960 . S
H2364 C2378 0.960 . S
H2365 C2378 0.960 . S
C2366 H2358 0.929 . S
C2366 C2367 1.377 . S
C2366 C2368 1.384 . S
C2367 C2366 1.377 . S
C2367 C2373 1.390 . S
C2368 H2359 0.930 . S
C2368 C2366 1.384 . S
C2368 C2369 1.372 . S
C2369 C2368 1.372 . S
C2369 C2370 1.400 . S
C2369 C2374 1.490 . S
C2370 H2360 0.930 . S
C2370 C2369 1.400 . S
C2370 C2373 1.386 . S
H2371 C2387 0.930 . S
H2372 C2388 0.931 . S
C2373 H2361 0.929 . S
C2373 C2367 1.390 . S
C2373 C2370 1.386 . S
C2374 C2369 1.490 . S
C2374 C2376 1.395 . S
C2374 C2377 1.403 . S
H2375 C2381 0.930 . S
C2376 H2362 0.930 . S
C2376 C2374 1.395 . S
C2376 C2379 1.403 . S
C2377 C2374 1.403 . S
C2377 C2378 1.524 . S
C2377 C2381 1.400 . S
C2378 H2363 0.960 . S
C2378 H2364 0.960 . S
C2378 H2365 0.960 . S
C2378 C2377 1.524 . S
C2379 C2376 1.403 . S
C2379 C2380 1.392 . S
C2379 C2383 1.495 . S
C2380 C2379 1.392 . S
C2380 C2381 1.385 . S
C2380 C2382 1.478 . S
C2381 H2375 0.930 . S
C2381 C2377 1.400 . S
C2381 C2380 1.385 . S
C2382 C2380 1.478 . S
C2382 C2384 1.381 . S
C2382 C2388 1.383 . S
C2383 C2379 1.495 . S
C2383 H2389 0.959 . S
C2383 H2390 0.961 . S
C2383 H2391 0.960 . S
C2384 C2382 1.381 . S
C2384 C2385 1.394 . S
C2384 H2392 0.930 . S
C2385 C2384 1.394 . S
C2385 C2386 1.383 . S
C2385 H2393 0.929 . S
C2386 C2385 1.383 . S
C2386 C2387 1.377 . S
C2387 H2371 0.930 . S
C2387 C2386 1.377 . S
C2387 C2388 1.379 . S
C2388 H2372 0.931 . S
C2388 C2382 1.383 . S
C2388 C2387 1.379 . S
H2389 C2383 0.959 . S
H2390 C2383 0.961 . S
H2391 C2383 0.960 . S
H2392 C2384 0.930 . S
H2393 C2385 0.929 . S
H2394 C2402 0.929 . S
H2395 C2404 0.930 . S
H2396 C2406 0.930 . S
H2397 C2409 0.929 . S
H2398 C2412 0.930 . S
H2399 C2414 0.960 . S
H2400 C2414 0.960 . S
H2401 C2414 0.960 . S
C2402 H2394 0.929 . S
C2402 C2403 1.377 . S
C2402 C2404 1.384 . S
C2403 C2402 1.377 . S
C2403 C2409 1.390 . S
C2404 H2395 0.930 . S
C2404 C2402 1.384 . S
C2404 C2405 1.372 . S
C2405 C2404 1.372 . S
C2405 C2406 1.400 . S
C2405 C2410 1.490 . S
C2406 H2396 0.930 . S
C2406 C2405 1.400 . S
C2406 C2409 1.386 . S
H2407 C2423 0.930 . S
H2408 C2424 0.931 . S
C2409 H2397 0.929 . S
C2409 C2403 1.390 . S
C2409 C2406 1.386 . S
C2410 C2405 1.490 . S
C2410 C2412 1.395 . S
C2410 C2413 1.403 . S
H2411 C2417 0.930 . S
C2412 H2398 0.930 . S
C2412 C2410 1.395 . S
C2412 C2415 1.403 . S
C2413 C2410 1.403 . S
C2413 C2414 1.524 . S
C2413 C2417 1.400 . S
C2414 H2399 0.960 . S
C2414 H2400 0.960 . S
C2414 H2401 0.960 . S
C2414 C2413 1.524 . S
C2415 C2412 1.403 . S
C2415 C2416 1.392 . S
C2415 C2419 1.495 . S
C2416 C2415 1.392 . S
C2416 C2417 1.385 . S
C2416 C2418 1.478 . S
C2417 H2411 0.930 . S
C2417 C2413 1.400 . S
C2417 C2416 1.385 . S
C2418 C2416 1.478 . S
C2418 C2420 1.381 . S
C2418 C2424 1.383 . S
C2419 C2415 1.495 . S
C2419 H2425 0.959 . S
C2419 H2426 0.961 . S
C2419 H2427 0.960 . S
C2420 C2418 1.381 . S
C2420 C2421 1.394 . S
C2420 H2428 0.930 . S
C2421 C2420 1.394 . S
C2421 C2422 1.383 . S
C2421 H2429 0.929 . S
C2422 C2421 1.383 . S
C2422 C2423 1.377 . S
C2423 H2407 0.930 . S
C2423 C2422 1.377 . S
C2423 C2424 1.379 . S
C2424 H2408 0.931 . S
C2424 C2418 1.383 . S
C2424 C2423 1.379 . S
H2425 C2419 0.959 . S
H2426 C2419 0.961 . S
H2427 C2419 0.960 . S
H2428 C2420 0.930 . S
H2429 C2421 0.929 . S
H2430 C2438 0.929 . S
H2431 C2440 0.930 . S
H2432 C2442 0.930 . S
H2433 C2445 0.929 . S
H2434 C2448 0.930 . S
H2435 C2450 0.960 . S
H2436 C2450 0.960 . S
H2437 C2450 0.960 . S
C2438 H2430 0.929 . S
C2438 C2439 1.377 . S
C2438 C2440 1.384 . S
C2439 C2438 1.377 . S
C2439 C2445 1.390 . S
C2440 H2431 0.930 . S
C2440 C2438 1.384 . S
C2440 C2441 1.372 . S
C2441 C2440 1.372 . S
C2441 C2442 1.400 . S
C2441 C2446 1.490 . S
C2442 H2432 0.930 . S
C2442 C2441 1.400 . S
C2442 C2445 1.386 . S
H2443 C2459 0.930 . S
H2444 C2460 0.931 . S
C2445 H2433 0.929 . S
C2445 C2439 1.390 . S
C2445 C2442 1.386 . S
C2446 C2441 1.490 . S
C2446 C2448 1.395 . S
C2446 C2449 1.403 . S
H2447 C2453 0.930 . S
C2448 H2434 0.930 . S
C2448 C2446 1.395 . S
C2448 C2451 1.403 . S
C2449 C2446 1.403 . S
C2449 C2450 1.524 . S
C2449 C2453 1.400 . S
C2450 H2435 0.960 . S
C2450 H2436 0.960 . S
C2450 H2437 0.960 . S
C2450 C2449 1.524 . S
C2451 C2448 1.403 . S
C2451 C2452 1.392 . S
C2451 C2455 1.495 . S
C2452 C2451 1.392 . S
C2452 C2453 1.385 . S
C2452 C2454 1.478 . S
C2453 H2447 0.930 . S
C2453 C2449 1.400 . S
C2453 C2452 1.385 . S
C2454 C2452 1.478 . S
C2454 C2456 1.381 . S
C2454 C2460 1.383 . S
C2455 C2451 1.495 . S
C2455 H2461 0.959 . S
C2455 H2462 0.961 . S
C2455 H2463 0.960 . S
C2456 C2454 1.381 . S
C2456 C2457 1.394 . S
C2456 H2464 0.930 . S
C2457 C2456 1.394 . S
C2457 C2458 1.383 . S
C2457 H2465 0.929 . S
C2458 C2457 1.383 . S
C2458 C2459 1.377 . S
C2459 H2443 0.930 . S
C2459 C2458 1.377 . S
C2459 C2460 1.379 . S
C2460 H2444 0.931 . S
C2460 C2454 1.383 . S
C2460 C2459 1.379 . S
H2461 C2455 0.959 . S
H2462 C2455 0.961 . S
H2463 C2455 0.960 . S
H2464 C2456 0.930 . S
H2465 C2457 0.929 . S
C531 C124 1.557 . S
C550 C165 1.561 . S
C567 C130 1.771 . S
C586 C205 1.773 . S
C603 C115 1.575 . S
C622 C257 1.585 . S
C639 C106 1.462 . S
C658 C217 1.462 . S
C694 C245 1.426 . S
C675 C85 1.426 . S
C711 C97 1.238 . S
C730 C177 1.225 1_556 S
C766 C184 1.594 . S
C747 C103 1.580 . S
C802 C224 1.736 . S
C783 C88 1.741 . S
C819 C94 1.571 . S
C838 C244 1.555 . S
C855 C121 1.460 . S
C874 C204 1.455 . S
C891 C133 1.402 . S
C910 C264 1.405 . S
C946 C164 1.286 . S
C927 C112 1.264 . S
C982 C285 1.552 . S
C963 C16 1.552 . S
C999 C22 1.769 . S
C1018 C325 1.766 . S
C1035 C7 1.568 . S
C1054 C377 1.553 . S
C1071 C160 1.461 . S
C1090 C337 1.455 . S
C1107 C139 1.430 . S
C1126 C365 1.435 . S
C1143 C151 1.239 . S
C1162 C297 1.237 . S
C1179 C157 1.582 . S
C1198 C304 1.596 . S
C1215 C142 1.743 . S
C1234 C344 1.745 . S
C1270 C364 1.564 . S
C1251 C148 1.575 . S
C1287 C13 1.460 . S
C1306 C324 1.431 . S
C1342 C384 1.400 . S
C1323 C25 1.401 . S
C1359 C4 1.265 . S
C1378 C284 1.264 . S
C1414 C405 1.568 . S
C1395 C70 1.556 . S
C1431 C76 1.770 . S
C1450 C445 1.769 . S
C1486 C497 1.580 . S
C1467 C61 1.574 . S
C1522 C457 1.457 . S
C1503 C52 1.461 . S
C1558 C485 1.431 . S
C1539 C31 1.429 . S
C1575 C43 1.239 . S
C1594 C417 1.237 . S
C1611 C49 1.581 . S
C1630 C424 1.582 . S
C1647 C34 1.743 . S
C1666 C464 1.741 . S
C1702 C484 1.562 . S
C1683 C40 1.575 . S
C1719 C67 1.459 . S
C1738 C444 1.435 . S
C1755 C79 1.402 . S
C1774 C504 1.404 . S
C1791 C58 1.263 . S
C1810 C404 1.282 . S
C1827 C140 1.319 . S
C1846 C188 1.293 . S
C1882 C228 1.759 . S
C1863 C149 1.785 . S
C1899 C158 1.550 . S
C1918 C251 1.551 . S
C1935 C59 1.808 . S
C1954 C211 1.792 . S
C1971 C68 1.525 . S
C1990 C268 1.524 . S
C2026 C171 1.305 . S
C2007 C77 1.317 . S
C2043 C32 1.319 . S
C2062 C308 1.293 . S
C2079 C41 1.786 . S
C2098 C348 1.766 . S
C2115 C50 1.547 . S
C2134 C371 1.537 . S
C2151 C113 1.809 . S
C2170 C331 1.802 . S
C2206 C388 1.512 . S
C2187 C122 1.526 . S
C2223 C131 1.318 . S
C2242 C291 1.318 . S
C2259 C86 1.319 . S
C2278 C428 1.301 . S
C2295 C95 1.784 . S
C2314 C468 1.783 . S
C2350 C491 1.538 . S
C2331 C104 1.548 . S
C2367 C5 1.810 . S
C2386 C451 1.806 . S
C2403 C14 1.525 . S
C2422 C508 1.514 . S
C2439 C23 1.317 . S
C2458 C411 1.308 . S
