# Generated by pormake.
# Topology tsx, (6,3)-cn, num edge types: 1
# Building blocks:
#     Node 0, Type 0, BuildingBlock: VOLQOD_clean_sbu_1, # of connection points: 6
#     Node 1, Type 0, BuildingBlock: VOLQOD_clean_sbu_1, # of connection points: 6
#     Node 2, Type 1, BuildingBlock: QEWDON_clean_linker_0, # of connection points: 3
#     Node 3, Type 1, BuildingBlock: QEWDON_clean_linker_0, # of connection points: 3
#     Node 4, Type 1, BuildingBlock: QEWDON_clean_linker_0, # of connection points: 3
#     Node 5, Type 1, BuildingBlock: QEWDON_clean_linker_0, # of connection points: 3
#     Edge 6, Type (0, 1), BuildingBlock: MIFKUJ_clean_linker_0, # of connection points: 2
#     Edge 7, Type (0, 1), BuildingBlock: MIFKUJ_clean_linker_0, # of connection points: 2
#     Edge 8, Type (0, 1), BuildingBlock: MIFKUJ_clean_linker_0, # of connection points: 2
#     Edge 9, Type (0, 1), BuildingBlock: MIFKUJ_clean_linker_0, # of connection points: 2
#     Edge 10, Type (0, 1), BuildingBlock: MIFKUJ_clean_linker_0, # of connection points: 2
#     Edge 11, Type (0, 1), BuildingBlock: MIFKUJ_clean_linker_0, # of connection points: 2
#     Edge 12, Type (0, 1), BuildingBlock: MIFKUJ_clean_linker_0, # of connection points: 2
#     Edge 13, Type (0, 1), BuildingBlock: MIFKUJ_clean_linker_0, # of connection points: 2
#     Edge 14, Type (0, 1), BuildingBlock: MIFKUJ_clean_linker_0, # of connection points: 2
#     Edge 15, Type (0, 1), BuildingBlock: MIFKUJ_clean_linker_0, # of connection points: 2
#     Edge 16, Type (0, 1), BuildingBlock: MIFKUJ_clean_linker_0, # of connection points: 2
#     Edge 17, Type (0, 1), BuildingBlock: MIFKUJ_clean_linker_0, # of connection points: 2
# Relax obj value: 0.077
# Max RMSD: 0.180
# Mean RMSD: 0.150
data_MOF--net-tsx--node1-VOLQOD_clean_sbu_1--node2-QEWDON_clean_linker_0--edge1-MIFKUJ_clean_linker_0
_symmetry_space_group_name_H-M    P1
_symmetry_Int_Tables_number       1
_symmetry_cell_setting            triclinic
loop_
_symmetry_equiv_pos_as_xyz
'x, y, z'
_cell_length_a     28.249582
_cell_length_b     29.239164
_cell_length_c     48.275377
_cell_angle_alpha  90.272432
_cell_angle_beta   102.91
_cell_angle_gamma 89.855065
loop_
_atom_site_label
_atom_site_type_symbol
_atom_site_fract_x
_atom_site_fract_y
_atom_site_fract_z
_atom_type_partial_charge
O0 O 0.05096 0.99892 0.07266 0.0
Zn1 Zn 0.06392 0.00125 0.03297 0.0
O2 O 0.00436 0.01176 0.00412 0.0
Zn3 Zn 0.99095 0.95912 0.97846 0.0
Zn4 Zn 0.95132 0.01924 0.02307 0.0
Zn5 Zn 0.00963 0.06716 0.98262 0.0
O6 O 0.97906 0.97931 0.93743 0.0
O7 O 0.00632 0.05098 0.94148 0.0
O8 O 0.09845 0.94413 0.02413 0.0
O9 O 0.04963 0.91775 0.98474 0.0
O10 O 0.93503 0.92109 0.98588 0.0
O11 O 0.91061 0.96294 0.01859 0.0
O12 O 0.90946 0.07345 0.00837 0.0
O13 O 0.11015 0.05348 0.03311 0.0
O14 O 0.95403 0.11111 0.98348 0.0
O15 O 0.07306 0.09947 0.99846 0.0
C16 C 0.01477 0.01349 0.08194 0.0
C17 C 0.9908 0.01593 0.92638 0.0
C18 C 0.90775 0.927 0.00338 0.0
C19 C 0.08892 0.91529 0.00375 0.0
C20 C 0.91626 0.10791 0.99371 0.0
C21 C 0.10934 0.08976 0.01851 0.0
O22 O 0.97578 0.02624 0.06501 0.0
O23 O 0.53773 0.4961 0.57034 0.0
Zn24 Zn 0.55396 0.50086 0.53166 0.0
O25 O 0.49458 0.50838 0.50178 0.0
Zn26 Zn 0.48609 0.45455 0.47675 0.0
Zn27 Zn 0.43816 0.51412 0.51857 0.0
Zn28 Zn 0.49926 0.56406 0.48031 0.0
O29 O 0.48184 0.47355 0.43599 0.0
O30 O 0.4961 0.54845 0.43929 0.0
O31 O 0.59247 0.4453 0.52427 0.0
O32 O 0.54489 0.41409 0.48609 0.0
O33 O 0.42835 0.41585 0.48113 0.0
O34 O 0.39399 0.46009 0.50863 0.0
O35 O 0.39974 0.57192 0.50673 0.0
O36 O 0.59879 0.55485 0.53258 0.0
O37 O 0.44504 0.60855 0.4819 0.0
O38 O 0.56228 0.59696 0.49582 0.0
C39 C 0.49865 0.50388 0.57865 0.0
C40 C 0.48847 0.51169 0.42469 0.0
C41 C 0.39494 0.42334 0.49453 0.0
C42 C 0.58415 0.41435 0.50511 0.0
C43 C 0.40787 0.60669 0.4927 0.0
C44 C 0.59783 0.58977 0.51677 0.0
O45 O 0.45911 0.51339 0.56108 0.0
H46 H 0.01706 0.09333 0.38782 0.0
C47 C 0.03702 0.0647 0.39898 0.0
C48 C 0.04746 0.02638 0.38363 0.0
C49 C 0.05448 0.06754 0.42854 0.0
H50 H 0.08247 0.96015 0.38718 0.0
C51 C 0.07308 0.98959 0.39861 0.0
C52 C 0.09006 0.99161 0.42818 0.0
C53 C 0.08158 0.03103 0.44306 0.0
C54 C 0.04833 0.11061 0.44358 0.0
H55 H 0.09597 0.03329 0.46581 0.0
C56 C 0.00195 0.12991 0.4417 0.0
C57 C 0.99686 0.1725 0.45456 0.0
C58 C 0.08955 0.13423 0.45833 0.0
H59 H 0.12561 0.12042 0.45966 0.0
C60 C 0.08466 0.17671 0.47058 0.0
H61 H 0.97008 0.11191 0.43012 0.0
C62 C 0.03884 0.1956 0.46897 0.0
H63 H 0.03633 0.22803 0.47948 0.0
H64 H 0.11644 0.19535 0.48127 0.0
H65 H 0.00343 0.05759 0.61928 0.0
C66 C 0.99152 0.02454 0.61008 0.0
C67 C 0.9805 0.98941 0.62741 0.0
C68 C 0.98269 0.01853 0.58046 0.0
H69 H 0.95409 0.92045 0.62817 0.0
C70 C 0.96308 0.94747 0.61492 0.0
C71 C 0.95389 0.94103 0.5854 0.0
C72 C 0.96387 0.97678 0.56828 0.0
C73 C 0.98532 0.05796 0.56184 0.0
H74 H 0.95566 0.9727 0.54537 0.0
C75 C 0.02917 0.08139 0.56278 0.0
C76 C 0.02996 0.1198 0.54532 0.0
C77 C 0.94255 0.07299 0.54337 0.0
H78 H 0.90837 0.05572 0.54257 0.0
C79 C 0.94315 0.11108 0.52632 0.0
H80 H 0.06226 0.06997 0.57709 0.0
C81 C 0.98641 0.13449 0.5273 0.0
H82 H 0.98583 0.16414 0.51393 0.0
H83 H 0.9097 0.1229 0.51269 0.0
H84 H 0.49216 0.55797 0.87616 0.0
C85 C 0.50943 0.53043 0.88973 0.0
C86 C 0.51826 0.48833 0.8777 0.0
C87 C 0.52767 0.53904 0.91875 0.0
H88 H 0.55008 0.42138 0.88624 0.0
C89 C 0.54269 0.45382 0.89544 0.0
C90 C 0.5616 0.46209 0.92445 0.0
C91 C 0.55443 0.50506 0.93601 0.0
C92 C 0.52689 0.58626 0.92938 0.0
H93 H 0.57093 0.51256 0.95807 0.0
C94 C 0.48443 0.60557 0.93519 0.0
C95 C 0.48402 0.65174 0.94376 0.0
C96 C 0.56858 0.61319 0.93171 0.0
H97 H 0.60129 0.59891 0.92692 0.0
C98 C 0.56802 0.65901 0.93955 0.0
H99 H 0.45235 0.58456 0.93347 0.0
C100 C 0.5262 0.67804 0.9456 0.0
H101 H 0.52662 0.71357 0.9515 0.0
H102 H 0.60007 0.67987 0.94095 0.0
H103 H 0.53315 0.55327 0.11936 0.0
C104 C 0.51724 0.52033 0.1124 0.0
C105 C 0.50967 0.48812 0.13258 0.0
C106 C 0.50224 0.51076 0.08318 0.0
H107 H 0.47806 0.42285 0.13853 0.0
C108 C 0.48687 0.44639 0.12316 0.0
C109 C 0.47187 0.43633 0.09409 0.0
C110 C 0.48097 0.46823 0.07435 0.0
C111 C 0.5041 0.54607 0.06147 0.0
H112 H 0.47019 0.46048 0.05184 0.0
C113 C 0.54634 0.57202 0.06205 0.0
C114 C 0.54777 0.60297 0.03996 0.0
C115 C 0.46297 0.55291 0.03927 0.0
H116 H 0.42968 0.53418 0.0386 0.0
C117 C 0.46421 0.58388 0.01767 0.0
H118 H 0.57832 0.56696 0.07895 0.0
C119 C 0.50637 0.6084 0.01791 0.0
H120 H 0.50668 0.63212 0.00096 0.0
H121 H 0.43247 0.58879 0.00063 0.0
H122 H 0.19266 0.08041 0.0598 0.0
H123 H 0.26084 0.13344 0.07172 0.0
H124 H 0.18946 0.22386 0.00491 0.0
H125 H 0.12125 0.17075 0.99254 0.0
H126 H 0.28505 0.2156 0.00567 0.0
H127 H 0.1874 0.24596 0.07354 0.0
H128 H 0.14395 0.22832 0.11118 0.0
H129 H 0.27691 0.18161 0.16536 0.0
H130 H 0.32109 0.19845 0.12789 0.0
H131 H 0.39246 0.4294 0.04998 0.0
H132 H 0.34004 0.36344 0.03606 0.0
H133 H 0.42944 0.28387 0.10287 0.0
H134 H 0.48328 0.34968 0.11659 0.0
H135 H 0.33194 0.28042 0.10312 0.0
H136 H 0.43088 0.25886 0.03602 0.0
H137 H 0.47325 0.28161 0.99881 0.0
H138 H 0.33678 0.31515 0.94308 0.0
H139 H 0.29359 0.29325 0.98011 0.0
C140 C 0.19141 0.1115 0.04754 0.0
C141 C 0.15127 0.12142 0.02529 0.0
C142 C 0.23042 0.14182 0.05446 0.0
C143 C 0.22998 0.18279 0.0394 0.0
C144 C 0.19051 0.1924 0.0168 0.0
C145 C 0.15145 0.16207 0.00984 0.0
C146 C 0.27018 0.21614 0.04753 0.0
C147 C 0.29509 0.23006 0.0269 0.0
C148 C 0.28409 0.23405 0.07547 0.0
C149 C 0.25744 0.22299 0.09779 0.0
C150 C 0.20728 0.23146 0.09336 0.0
C151 C 0.18255 0.22171 0.11469 0.0
C152 C 0.20766 0.20382 0.14062 0.0
C153 C 0.25752 0.19545 0.14525 0.0
C154 C 0.28243 0.2051 0.12399 0.0
C155 C 0.40193 0.3976 0.06129 0.0
C156 C 0.44235 0.39484 0.08434 0.0
C157 C 0.37171 0.35993 0.05335 0.0
C158 C 0.3811 0.3187 0.06829 0.0
C159 C 0.42167 0.31544 0.09106 0.0
C160 C 0.45223 0.3531 0.09892 0.0
C161 C 0.34642 0.28027 0.06118 0.0
C162 C 0.32244 0.26545 0.08199 0.0
C163 C 0.33322 0.26179 0.03339 0.0
C164 C 0.35901 0.2747 0.01095 0.0
C165 C 0.4099 0.2714 0.01591 0.0
C166 C 0.43407 0.2841 0.99483 0.0
C167 C 0.40773 0.2999 0.96862 0.0
C168 C 0.35714 0.30292 0.9634 0.0
C169 C 0.33279 0.29031 0.98442 0.0
H170 H 0.42652 0.30973 0.95233 0.0
H171 H 0.18856 0.19671 0.15719 0.0
H172 H 0.082 0.84856 0.96293 0.0
H173 H 0.1461 0.79729 0.95496 0.0
H174 H 0.24351 0.85166 0.02952 0.0
H175 H 0.17984 0.90338 0.03756 0.0
H176 H 0.2829 0.85336 0.98359 0.0
H177 H 0.19899 0.74299 0.02844 0.0
H178 H 0.12792 0.69904 0.03495 0.0
H179 H 0.11054 0.64219 0.95111 0.0
H180 H 0.18114 0.68631 0.94395 0.0
H181 H 0.48202 0.70987 0.988 0.0
H182 H 0.41232 0.74801 -0.00053 0.0
H183 H 0.31764 0.68156 0.9282 0.0
H184 H 0.38771 0.64181 0.91701 0.0
H185 H 0.27486 0.68478 0.97142 0.0
H186 H 0.35379 0.79605 0.92485 0.0
H187 H 0.4208 0.84319 0.91554 0.0
H188 H 0.44431 0.90002 -0.00032 0.0
H189 H 0.37756 0.85305 0.00954 0.0
C190 C 0.11682 0.84922 0.9779 0.0
C191 C 0.12578 0.88038 0.00081 0.0
C192 C 0.15339 0.81967 0.97336 0.0
C193 C 0.19958 0.82051 0.99169 0.0
C194 C 0.20814 0.85046 0.0151 0.0
C195 C 0.17161 0.87996 0.01969 0.0
C196 C 0.24011 0.79305 0.98521 0.0
C197 C 0.28146 0.81639 0.98142 0.0
C198 C 0.23739 0.74504 0.98123 0.0
C199 C 0.1951 0.7183 0.98556 0.0
C200 C 0.17979 0.7214 0.01131 0.0
C201 C 0.13963 0.6964 0.01513 0.0
C202 C 0.11465 0.66793 0.99343 0.0
C203 C 0.12989 0.6643 0.96789 0.0
C204 C 0.17001 0.68926 0.96395 0.0
C205 C 0.44643 0.70317 0.9747 0.0
C206 C 0.44059 0.67294 0.95139 0.0
C207 C 0.40651 0.7252 0.98128 0.0
C208 C 0.35975 0.7186 0.96432 0.0
C209 C 0.3534 0.68739 0.94154 0.0
C210 C 0.39346 0.66465 0.93517 0.0
C211 C 0.31799 0.74512 0.9702 0.0
C212 C 0.27635 0.72171 0.9737 0.0
C213 C 0.32006 0.79328 0.97363 0.0
C214 C 0.36089 0.82083 0.96798 0.0
C215 C 0.37346 0.81838 0.94142 0.0
C216 C 0.41124 0.84522 0.93601 0.0
C217 C 0.43666 0.8747 0.95697 0.0
C218 C 0.42448 0.87729 0.98343 0.0
C219 C 0.38662 0.85064 0.98892 0.0
H220 H 0.46595 0.89539 0.95275 0.0
H221 H 0.08357 0.64861 0.99643 0.0
H222 H 0.87051 0.91386 0.05002 0.0
H223 H 0.81545 0.8536 0.05802 0.0
H224 H 0.81336 0.79739 0.97504 0.0
H225 H 0.86959 0.85729 0.96698 0.0
H226 H 0.71887 0.81773 0.99 0.0
H227 H 0.87124 0.73967 0.02582 0.0
H228 H 0.95362 0.73298 0.05617 0.0
H229 H 0.89568 0.74706 0.13078 0.0
H230 H 0.81298 0.75452 0.10084 0.0
H231 H 0.58966 0.61421 0.99506 0.0
H232 H 0.65369 0.66813 0.99083 0.0
H233 H 0.67007 0.70632 0.07884 0.0
H234 H 0.60488 0.65293 0.08298 0.0
H235 H 0.75839 0.69646 0.06313 0.0
H236 H 0.61034 0.77435 0.03233 0.0
H237 H 0.52845 0.79776 0.00668 0.0
H238 H 0.57545 0.79826 0.92805 0.0
H239 H 0.6572 0.77339 0.95301 0.0
C240 C 0.85843 0.88869 0.03342 0.0
C241 C 0.8741 0.89048 0.00774 0.0
C242 C 0.82731 0.85411 0.03817 0.0
C243 C 0.8108 0.821 0.01722 0.0
C244 C 0.82612 0.82261 0.99151 0.0
C245 C 0.85807 0.8568 0.98692 0.0
C246 C 0.77507 0.78653 0.02159 0.0
C247 C 0.72754 0.79041 0.00546 0.0
C248 C 0.78629 0.75296 0.04305 0.0
C249 C 0.83596 0.74807 0.06106 0.0
C250 C 0.8761 0.74174 0.04868 0.0
C251 C 0.92285 0.73773 0.06582 0.0
C252 C 0.9299 0.73971 0.09539 0.0
C253 C 0.89018 0.74558 0.10788 0.0
C254 C 0.84335 0.74964 0.09083 0.0
C255 C 0.60689 0.63419 0.01347 0.0
C256 C 0.59175 0.63008 0.03917 0.0
C257 C 0.64335 0.66493 0.01103 0.0
C258 C 0.66574 0.69194 0.03431 0.0
C259 C 0.65287 0.686 0.06055 0.0
C260 C 0.61593 0.65536 0.06295 0.0
C261 C 0.70202 0.72668 0.03082 0.0
C262 C 0.74959 0.72322 0.04731 0.0
C263 C 0.69053 0.76158 0.01012 0.0
C264 C 0.63995 0.77147 0.99457 0.0
C265 C 0.60303 0.77842 0.00949 0.0
C266 C 0.55671 0.79238 0.9951 0.0
C267 C 0.547 0.80002 0.96584 0.0
C268 C 0.58323 0.79282 0.95078 0.0
C269 C 0.62945 0.77848 0.96501 0.0
H270 H 0.51118 0.8106 0.95469 0.0
H271 H 0.96613 0.7366 0.10862 0.0
H272 H 0.92917 0.1981 0.9823 0.0
H273 H 0.86788 0.25921 0.97503 0.0
H274 H 0.75881 0.162 0.98545 0.0
H275 H 0.81995 0.10105 0.99357 0.0
H276 H 0.73804 0.22648 0.93372 0.0
H277 H 0.78883 0.22057 0.0368 0.0
H278 H 0.85012 0.22199 0.08205 0.0
H279 H 0.89638 0.35537 0.06233 0.0
H280 H 0.83581 0.3544 0.01672 0.0
H281 H 0.54285 0.37236 0.93231 0.0
H282 H 0.60262 0.31238 0.94966 0.0
H283 H 0.71581 0.41414 0.96869 0.0
H284 H 0.65567 0.47429 0.95228 0.0
H285 H 0.73607 0.34733 0.00605 0.0
H286 H 0.69062 0.35748 0.90517 0.0
H287 H 0.63383 0.36042 0.85829 0.0
H288 H 0.58481 0.22457 0.87028 0.0
H289 H 0.64064 0.22118 0.91752 0.0
C290 C 0.89212 0.18977 0.98302 0.0
C291 C 0.87937 0.14481 0.98856 0.0
C292 C 0.85727 0.22468 0.97894 0.0
C293 C 0.809 0.21498 0.97979 0.0
C294 C 0.79596 0.17006 0.98478 0.0
C295 C 0.83094 0.13538 0.98948 0.0
C296 C 0.77193 0.25168 0.97534 0.0
C297 C 0.73707 0.25256 0.94964 0.0
C298 C 0.77198 0.28649 0.99577 0.0
C299 C 0.80821 0.28717 0.02321 0.0
C300 C 0.81242 0.24999 0.04197 0.0
C301 C 0.84694 0.25076 0.06772 0.0
C302 C 0.87723 0.28869 0.07502 0.0
C303 C 0.87295 0.32598 0.05662 0.0
C304 C 0.83852 0.32535 0.03083 0.0
C305 C 0.58027 0.38191 0.94101 0.0
C306 C 0.59481 0.42777 0.94091 0.0
C307 C 0.61445 0.34768 0.95071 0.0
C308 C 0.66395 0.35862 0.95973 0.0
C309 C 0.67791 0.40482 0.96168 0.0
C310 C 0.64354 0.43918 0.9524 0.0
C311 C 0.70136 0.32189 0.96452 0.0
C312 C 0.73663 0.32115 0.99013 0.0
C313 C 0.70244 0.28774 0.94368 0.0
C314 C 0.66948 0.28925 0.91502 0.0
C315 C 0.66752 0.32833 0.89789 0.0
C316 C 0.6355 0.33009 0.87126 0.0
C317 C 0.60567 0.29274 0.86134 0.0
C318 C 0.6079 0.2535 0.87801 0.0
C319 C 0.63972 0.25164 0.90473 0.0
H320 H 0.58089 0.29417 0.84073 0.0
H321 H 0.90393 0.28923 0.09496 0.0
H322 H 0.60489 0.67171 0.49083 0.0
H323 H 0.67255 0.72542 0.50043 0.0
H324 H 0.75206 0.63572 0.5652 0.0
H325 H 0.68399 0.58209 0.55615 0.0
H326 H 0.75938 0.7213 0.58354 0.0
H327 H 0.78132 0.64458 0.49988 0.0
H328 H 0.75733 0.61416 0.45104 0.0
H329 H 0.72534 0.75011 0.41891 0.0
H330 H 0.74847 0.78132 0.46763 0.0
H331 H 0.97268 0.85219 0.60197 0.0
H332 H 0.92021 0.7859 0.58712 0.0
H333 H 0.82331 0.86942 0.52593 0.0
H334 H 0.87551 0.93573 0.54065 0.0
H335 H 0.8312 0.78135 0.5061 0.0
H336 H 0.8029 0.85602 0.59085 0.0
H337 H 0.83012 0.88618 0.63961 0.0
H338 H 0.87659 0.75184 0.66966 0.0
H339 H 0.85039 0.721 0.62094 0.0
C340 C 0.63676 0.66326 0.5071 0.0
C341 C 0.63898 0.62245 0.52266 0.0
C342 C 0.67558 0.69395 0.51246 0.0
C343 C 0.71776 0.68429 0.53323 0.0
C344 C 0.71997 0.64382 0.549 0.0
C345 C 0.681 0.61317 0.54377 0.0
C346 C 0.759 0.71703 0.53889 0.0
C347 C 0.77563 0.73375 0.56667 0.0
C348 C 0.77987 0.73383 0.51684 0.0
C349 C 0.76627 0.71525 0.48746 0.0
C350 C 0.76885 0.66797 0.48243 0.0
C351 C 0.75545 0.65059 0.45476 0.0
C352 C 0.73972 0.68017 0.43189 0.0
C353 C 0.7375 0.72723 0.43665 0.0
C354 C 0.7508 0.74479 0.46428 0.0
C355 C 0.94064 0.85618 0.58499 0.0
C356 C 0.92794 0.89925 0.57267 0.0
C357 C 0.91076 0.81832 0.57652 0.0
C358 C 0.86744 0.823 0.55579 0.0
C359 C 0.85655 0.86511 0.54198 0.0
C360 C 0.88652 0.90295 0.55037 0.0
C361 C 0.83103 0.7857 0.55058 0.0
C362 C 0.81523 0.76833 0.52294 0.0
C363 C 0.81104 0.76811 0.57276 0.0
C364 C 0.82509 0.78628 0.60222 0.0
C365 C 0.81908 0.83294 0.60784 0.0
C366 C 0.83435 0.85017 0.63546 0.0
C367 C 0.85517 0.82096 0.65771 0.0
C368 C 0.86051 0.77442 0.6524 0.0
C369 C 0.84544 0.75704 0.62479 0.0
H370 H 0.86707 0.83437 0.67906 0.0
H371 H 0.72934 0.66664 0.41049 0.0
H372 H 0.67927 0.41377 0.53438 0.0
H373 H 0.74479 0.36539 0.52511 0.0
H374 H 0.64174 0.29026 0.46195 0.0
H375 H 0.57617 0.33891 0.47065 0.0
H376 H 0.76692 0.275 0.52654 0.0
H377 H 0.69303 0.26954 0.40562 0.0
H378 H 0.63503 0.31257 0.36912 0.0
H379 H 0.66665 0.43536 0.41887 0.0
H380 H 0.72552 0.39328 0.45538 0.0
H381 H 0.91511 0.12842 0.46194 0.0
H382 H 0.84012 0.16355 0.4696 0.0
H383 H 0.89333 0.29663 0.45357 0.0
H384 H 0.96857 0.262 0.44638 0.0
H385 H 0.79151 0.2801 0.42791 0.0
H386 H 0.9079 0.27425 0.51809 0.0
H387 H 0.96541 0.23862 0.5582 0.0
H388 H 0.85369 0.14774 0.57173 0.0
H389 H 0.79541 0.18296 0.53166 0.0
C390 C 0.67036 0.38649 0.51884 0.0
C391 C 0.62253 0.38066 0.50299 0.0
C392 C 0.70789 0.3588 0.5136 0.0
C393 C 0.69827 0.32478 0.49247 0.0
C394 C 0.6501 0.31687 0.47798 0.0
C395 C 0.61264 0.34469 0.48305 0.0
C396 C 0.73899 0.30012 0.48415 0.0
C397 C 0.77201 0.27577 0.50492 0.0
C398 C 0.7461 0.30173 0.45602 0.0
C399 C 0.71324 0.3281 0.43336 0.0
C400 C 0.68794 0.30581 0.40863 0.0
C401 C 0.65486 0.33002 0.38797 0.0
C402 C 0.64692 0.37659 0.39177 0.0
C403 C 0.67266 0.39924 0.41602 0.0
C404 C 0.70593 0.37524 0.43668 0.0
C405 C 0.91051 0.16508 0.45959 0.0
C406 C 0.94824 0.19251 0.4542 0.0
C407 C 0.86777 0.18508 0.46409 0.0
C408 C 0.86159 0.23269 0.46252 0.0
C409 C 0.89761 0.25983 0.45508 0.0
C410 C 0.94066 0.23999 0.45113 0.0
C411 C 0.81903 0.25467 0.47026 0.0
C412 C 0.78584 0.27867 0.44939 0.0
C413 C 0.81213 0.25332 0.49838 0.0
C414 C 0.84749 0.23088 0.52171 0.0
C415 C 0.89574 0.24634 0.52942 0.0
C416 C 0.92839 0.22643 0.55226 0.0
C417 C 0.91321 0.191 0.56754 0.0
C418 C 0.86534 0.17532 0.55995 0.0
C419 C 0.83248 0.19527 0.5372 0.0
H420 H 0.93861 0.1755 0.58514 0.0
H421 H 0.62082 0.39511 0.37593 0.0
H422 H 0.4035 0.33066 0.48777 0.0
H423 H 0.3498 0.27112 0.49884 0.0
H424 H 0.25199 0.37501 0.51689 0.0
H425 H 0.30618 0.43435 0.50685 0.0
H426 H 0.26823 0.31647 0.55783 0.0
H427 H 0.22759 0.30373 0.45541 0.0
H428 H 0.24381 0.29164 0.40779 0.0
H429 H 0.30224 0.15852 0.43262 0.0
H430 H 0.28693 0.17008 0.48054 0.0
H431 H 0.04379 0.21188 0.54842 0.0
H432 H 0.11543 0.25442 0.5435 0.0
H433 H 0.19123 0.12781 0.5373 0.0
H434 H 0.11862 0.0848 0.54177 0.0
H435 H 0.20096 0.18556 0.49598 0.0
H436 H 0.22642 0.19591 0.59584 0.0
H437 H 0.20581 0.2083 0.6423 0.0
H438 H 0.16997 0.34838 0.62071 0.0
H439 H 0.18965 0.33669 0.57393 0.0
C440 C 0.37007 0.34073 0.49358 0.0
C441 C 0.35912 0.38723 0.49648 0.0
C442 C 0.33939 0.30663 0.49994 0.0
C443 C 0.29673 0.31845 0.50876 0.0
C444 C 0.28486 0.36491 0.51043 0.0
C445 C 0.31576 0.39886 0.5045 0.0
C446 C 0.26528 0.28305 0.51759 0.0
C447 C 0.25288 0.28829 0.54406 0.0
C448 C 0.24711 0.24485 0.50036 0.0
C449 C 0.25678 0.23804 0.47167 0.0
C450 C 0.24436 0.27207 0.45081 0.0
C451 C 0.25328 0.26527 0.42374 0.0
C452 C 0.27422 0.22441 0.41722 0.0
C453 C 0.28616 0.19021 0.43773 0.0
C454 C 0.27736 0.19686 0.46484 0.0
C455 C 0.07587 0.19305 0.54636 0.0
C456 C 0.07562 0.14502 0.54554 0.0
C457 C 0.11704 0.21741 0.5438 0.0
C458 C 0.15912 0.19438 0.54048 0.0
C459 C 0.15937 0.14631 0.54012 0.0
C460 C 0.11803 0.1218 0.54284 0.0
C461 C 0.20088 0.22118 0.53515 0.0
C462 C 0.21605 0.21388 0.50968 0.0
C463 C 0.22098 0.25796 0.55306 0.0
C464 C 0.20933 0.26532 0.58128 0.0
C465 C 0.21384 0.22929 0.60091 0.0
C466 C 0.20236 0.2362 0.62732 0.0
C467 C 0.18654 0.27908 0.63444 0.0
C468 C 0.18225 0.31518 0.61517 0.0
C469 C 0.19365 0.30844 0.58871 0.0
H470 H 0.17766 0.28436 0.6549 0.0
H471 H 0.28106 0.2192 0.39625 0.0
H472 H 0.42703 0.69597 0.48303 0.0
H473 H 0.37063 0.76089 0.47722 0.0
H474 H 0.2552 0.67101 0.48759 0.0
H475 H 0.31169 0.60601 0.49427 0.0
H476 H 0.23969 0.73626 0.43587 0.0
H477 H 0.2869 0.72875 0.53855 0.0
H478 H 0.34655 0.72574 0.58439 0.0
H479 H 0.40599 0.85441 0.56645 0.0
H480 H 0.34714 0.85782 0.52026 0.0
H481 H 0.06157 0.9037 0.43168 0.0
H482 H 0.11336 0.83759 0.4483 0.0
H483 H 0.23764 0.92679 0.47147 0.0
H484 H 0.18512 0.99317 0.4561 0.0
H485 H 0.24821 0.85984 0.50768 0.0
H486 H 0.20817 0.86931 0.40637 0.0
H487 H 0.15406 0.87513 0.35876 0.0
H488 H 0.08882 0.74644 0.37092 0.0
H489 H 0.142 0.74024 0.41884 0.0
C490 C 0.38966 0.69002 0.48413 0.0
C491 C 0.37376 0.64588 0.48909 0.0
C492 C 0.35761 0.72713 0.48091 0.0
C493 C 0.30893 0.72062 0.48208 0.0
C494 C 0.29274 0.67661 0.48672 0.0
C495 C 0.32504 0.63962 0.49058 0.0
C496 C 0.27474 0.75973 0.47768 0.0
C497 C 0.24085 0.76294 0.45171 0.0
C498 C 0.27773 0.79516 0.49801 0.0
C499 C 0.31298 0.79327 0.52581 0.0
C500 C 0.31302 0.75616 0.54424 0.0
C501 C 0.3466 0.75444 0.57032 0.0
C502 C 0.38013 0.78979 0.57829 0.0
C503 C 0.38004 0.82701 0.56023 0.0
C504 C 0.34656 0.82887 0.53411 0.0
C505 C 0.09975 0.90911 0.44099 0.0
C506 C 0.11957 0.95325 0.44265 0.0
C507 C 0.12941 0.87139 0.45025 0.0
C508 C 0.17973 0.87699 0.46042 0.0
C509 C 0.19903 0.92149 0.46359 0.0
C510 C 0.1691 0.95939 0.45486 0.0
C511 C 0.21247 0.83645 0.46582 0.0
C512 C 0.24648 0.83305 0.49186 0.0
C513 C 0.21036 0.80121 0.44526 0.0
C514 C 0.17872 0.80454 0.41631 0.0
C515 C 0.18207 0.84239 0.39896 0.0
C516 C 0.15157 0.84576 0.37192 0.0
C517 C 0.11794 0.81123 0.36185 0.0
C518 C 0.11483 0.7732 0.37877 0.0
C519 C 0.14514 0.76973 0.40588 0.0
H520 H 0.09436 0.81389 0.34091 0.0
H521 H 0.4061 0.7884 0.5985 0.0
H522 H 0.9476 0.04935 0.10874 0.0
H523 H 0.95076 0.05216 0.15954 0.0
H524 H 0.08948 0.9834 0.1763 0.0
H525 H 0.08715 0.98124 0.12532 0.0
H526 H 0.95226 0.9884 0.19775 0.0
H527 H 0.15815 0.02237 0.23931 0.0
H528 H 0.22561 0.05905 0.22299 0.0
H529 H 0.12424 0.14594 0.16742 0.0
H530 H 0.05645 0.11045 0.18379 0.0
H531 H 0.01812 0.95427 0.34705 0.0
H532 H 0.01039 0.95275 0.29571 0.0
H533 H 0.04171 0.09721 0.29688 0.0
H534 H 0.05283 0.09838 0.34836 0.0
H535 H 0.09208 0.05662 0.26601 0.0
H536 H 0.92469 0.05212 0.27062 0.0
H537 H 0.85237 0.02359 0.28573 0.0
H538 H 0.86778 0.89313 0.24745 0.0
H539 H 0.94059 0.92071 0.23243 0.0
C540 C 0.97892 0.03485 0.12316 0.0
C541 C 0.01726 0.01521 0.11291 0.0
C542 C 0.98052 0.03633 0.15224 0.0
C543 C 0.02043 0.01824 0.17175 0.0
C544 C 0.0586 0.99814 0.16164 0.0
C545 C 0.05717 0.99687 0.13249 0.0
C546 C 0.02202 0.02089 0.20265 0.0
C547 C 0.98287 0.00323 0.21271 0.0
C548 C 0.06147 0.0411 0.22207 0.0
C549 C 0.1022 0.06334 0.21255 0.0
C550 C 0.15033 0.04946 0.22371 0.0
C551 C 0.18864 0.07006 0.21445 0.0
C552 C 0.17926 0.10472 0.19411 0.0
C553 C 0.13156 0.11904 0.18311 0.0
C554 C 0.09316 0.09867 0.19237 0.0
C555 C 0.02344 0.98575 0.33643 0.0
C556 C 0.03619 0.02644 0.35198 0.0
C557 C 0.01847 0.98492 0.30697 0.0
C558 C 0.02512 0.02495 0.29233 0.0
C559 C 0.03645 0.06586 0.30768 0.0
C560 C 0.04208 0.0666 0.33715 0.0
C561 C 0.02235 0.02393 0.26124 0.0
C562 C 0.06144 0.04171 0.25112 0.0
C563 C 0.98218 0.00502 0.24167 0.0
C564 C 0.93836 0.98836 0.25063 0.0
C565 C 0.91287 0.01724 0.26561 0.0
C566 C 0.87175 0.00126 0.27413 0.0
C567 C 0.85556 0.95654 0.26762 0.0
C568 C 0.88039 0.92774 0.25251 0.0
C569 C 0.92156 0.94355 0.24396 0.0
H570 H 0.82372 0.94423 0.27423 0.0
H571 H 0.20896 0.12051 0.18692 0.0
H572 H 0.04686 0.06616 0.8987 0.0
H573 H 0.04661 0.06474 0.84812 0.0
H574 H 0.92791 0.96837 0.83349 0.0
H575 H 0.93023 0.96762 0.88444 0.0
H576 H 0.98618 0.94207 0.8046 0.0
H577 H 0.91655 0.08871 0.81494 0.0
H578 H 0.91104 0.16568 0.83509 0.0
H579 H 0.04234 0.20509 0.81081 0.0
H580 H 0.04898 0.12813 0.79082 0.0
H581 H 0.9119 0.96613 0.65646 0.0
H582 H 0.91541 0.97481 0.70709 0.0
H583 H 0.05477 0.04089 0.71846 0.0
H584 H 0.05178 0.03185 0.66741 0.0
H585 H 0.98942 0.08326 0.74843 0.0
H586 H 0.05277 0.9322 0.73587 0.0
H587 H 0.04828 0.85673 0.71239 0.0
H588 H 0.91584 0.82745 0.73842 0.0
H589 H 0.91924 0.903 0.76177 0.0
C590 C 0.02049 0.04491 0.88464 0.0
C591 C 0.98842 0.01711 0.89548 0.0
C592 C 0.02017 0.04431 0.85564 0.0
C593 C 0.98665 0.01708 0.83671 0.0
C594 C 0.95422 0.98966 0.84756 0.0
C595 C 0.9554 0.98935 0.87667 0.0
C596 C 0.98641 0.01587 0.80579 0.0
C597 C 0.98626 0.97309 0.79237 0.0
C598 C 0.98742 0.05618 0.78966 0.0
C599 C 0.98352 0.1025 0.80165 0.0
C600 C 0.94444 0.11368 0.81409 0.0
C601 C 0.94108 0.15733 0.82545 0.0
C602 C 0.97639 0.19021 0.82431 0.0
C603 C 0.01506 0.17956 0.81172 0.0
C604 C 0.01862 0.13595 0.80035 0.0
C605 C 0.94357 0.9822 0.6697 0.0
C606 C 0.98212 0.99743 0.65803 0.0
C607 C 0.94533 0.98737 0.69862 0.0
C608 C 0.98568 0.00779 0.71656 0.0
C609 C 0.02341 0.02482 0.70491 0.0
C610 C 0.02168 0.01964 0.67582 0.0
C611 C 0.98875 0.00973 0.74759 0.0
C612 C 0.98953 0.0525 0.76092 0.0
C613 C 0.98715 0.96951 0.76352 0.0
C614 C 0.98614 0.92335 0.75045 0.0
C615 C 0.02264 0.9097 0.73653 0.0
C616 C 0.02027 0.86692 0.72324 0.0
C617 C 0.98175 0.83735 0.72387 0.0
C618 C 0.94567 0.85039 0.73796 0.0
C619 C 0.94784 0.89315 0.75127 0.0
H620 H 0.97987 0.80432 0.71346 0.0
H621 H 0.97372 0.22399 0.83311 0.0
H622 H 0.42425 0.52505 0.60422 0.0
H623 H 0.42313 0.51891 0.65443 0.0
H624 H 0.5709 0.46984 0.67279 0.0
H625 H 0.57242 0.4756 0.62242 0.0
H626 H 0.51129 0.419 0.69924 0.0
H627 H 0.54863 0.57748 0.68829 0.0
H628 H 0.53586 0.65395 0.66655 0.0
H629 H 0.39706 0.66348 0.68858 0.0
H630 H 0.40873 0.58674 0.71012 0.0
H631 H 0.58007 0.4532 0.84721 0.0
H632 H 0.57016 0.45159 0.79589 0.0
H633 H 0.42755 0.51151 0.78559 0.0
H634 H 0.43755 0.51366 0.83742 0.0
H635 H 0.47854 0.55485 0.75411 0.0
H636 H 0.44321 0.39807 0.76786 0.0
H637 H 0.45653 0.32196 0.79005 0.0
H638 H 0.59082 0.30877 0.76306 0.0
H639 H 0.57865 0.38509 0.74102 0.0
C640 C 0.45663 0.51299 0.61887 0.0
C641 C 0.49853 0.50095 0.60927 0.0
C642 C 0.4559 0.5096 0.6476 0.0
C643 C 0.49702 0.49421 0.66732 0.0
C644 C 0.53878 0.48178 0.65785 0.0
C645 C 0.53964 0.48533 0.6291 0.0
C646 C 0.49643 0.49131 0.69785 0.0
C647 C 0.50463 0.44873 0.71136 0.0
C648 C 0.4863 0.52991 0.71335 0.0
C649 C 0.47933 0.57616 0.70055 0.0
C650 C 0.51521 0.59572 0.68829 0.0
C651 C 0.5082 0.63915 0.67604 0.0
C652 C 0.46561 0.6635 0.6761 0.0
C653 C 0.43 0.64454 0.6885 0.0
C654 C 0.4368 0.6011 0.70076 0.0
C655 C 0.54603 0.46499 0.83408 0.0
C656 C 0.5093 0.48311 0.84638 0.0
C657 C 0.54046 0.46412 0.80467 0.0
C658 C 0.49783 0.48082 0.78684 0.0
C659 C 0.4607 0.49831 0.79898 0.0
C660 C 0.46639 0.49949 0.82852 0.0
C661 C 0.49371 0.48251 0.75568 0.0
C662 C 0.48469 0.52492 0.742 0.0
C663 C 0.50299 0.44369 0.74003 0.0
C664 C 0.51013 0.39746 0.75293 0.0
C665 C 0.47572 0.37906 0.76679 0.0
C666 C 0.48305 0.33586 0.77932 0.0
C667 C 0.52451 0.31057 0.77798 0.0
C668 C 0.5587 0.32839 0.76406 0.0
C669 C 0.55157 0.3716 0.7515 0.0
H670 H 0.53011 0.27713 0.7877 0.0
H671 H 0.46024 0.69711 0.6666 0.0
H672 H 0.51154 0.44165 0.39244 0.0
H673 H 0.52244 0.44551 0.34358 0.0
H674 H 0.48276 0.58822 0.33981 0.0
H675 H 0.47268 0.58493 0.38888 0.0
H676 H 0.43546 0.5347 0.29182 0.0
H677 H 0.59403 0.5658 0.34782 0.0
H678 H 0.66817 0.55295 0.38499 0.0
H679 H 0.69496 0.4277 0.34429 0.0
H680 H 0.6202 0.43908 0.30727 0.0
H681 H 0.49113 0.56786 0.15834 0.0
H682 H 0.49574 0.58029 0.20904 0.0
H683 H 0.55451 0.44457 0.22705 0.0
H684 H 0.55167 0.4326 0.17659 0.0
H685 H 0.59485 0.50232 0.26868 0.0
H686 H 0.43284 0.46495 0.21709 0.0
H687 H 0.35841 0.47514 0.17964 0.0
H688 H 0.3381 0.60901 0.21212 0.0
H689 H 0.41287 0.59984 0.24954 0.0
C690 C 0.50468 0.47375 0.38112 0.0
C691 C 0.49109 0.51297 0.39445 0.0
C692 C 0.5113 0.47597 0.35332 0.0
C693 C 0.50379 0.51725 0.33824 0.0
C694 C 0.48891 0.55613 0.35118 0.0
C695 C 0.48316 0.55416 0.37916 0.0
C696 C 0.51095 0.51961 0.30883 0.0
C697 C 0.47047 0.52841 0.28677 0.0
C698 C 0.5565 0.51048 0.30233 0.0
C699 C 0.60109 0.50307 0.3249 0.0
C700 C 0.6153 0.53517 0.34698 0.0
C701 C 0.65753 0.5282 0.36801 0.0
C702 C 0.68623 0.48951 0.36701 0.0
C703 C 0.67273 0.45769 0.345 0.0
C704 C 0.63033 0.46432 0.32404 0.0
C705 C 0.50641 0.54121 0.17319 0.0
C706 C 0.52052 0.49903 0.16344 0.0
C707 C 0.50856 0.54818 0.20214 0.0
C708 C 0.52444 0.51296 0.22175 0.0
C709 C 0.54181 0.47211 0.2123 0.0
C710 C 0.53987 0.46521 0.18343 0.0
C711 C 0.51923 0.51687 0.25161 0.0
C712 C 0.55997 0.50911 0.27376 0.0
C713 C 0.47382 0.52647 0.25824 0.0
C714 C 0.42871 0.53192 0.23589 0.0
C715 C 0.41268 0.49669 0.21611 0.0
C716 C 0.37042 0.50226 0.19491 0.0
C717 C 0.34362 0.54275 0.19345 0.0
C718 C 0.35896 0.5777 0.21324 0.0
C719 C 0.40126 0.57234 0.23446 0.0
H720 H 0.3109 0.54701 0.17702 0.0
H721 H 0.71893 0.48419 0.3833 0.0
loop_
_geom_bond_atom_site_label_1
_geom_bond_atom_site_label_2
_geom_bond_distance
_geom_bond_site_symmetry_2
_ccdc_geom_bond_type
O0 Zn1 1.953 . S
O0 C16 1.225 1_565 S
Zn1 O0 1.953 . S
Zn1 O2 1.949 1_565 S
Zn1 O8 1.919 . S
Zn1 O13 1.924 1_565 S
O2 Zn1 1.949 1_545 S
O2 Zn3 1.923 1_444 S
O2 Zn4 1.950 1_455 S
O2 Zn5 1.945 1_554 S
Zn3 O2 1.923 1_666 S
Zn3 O6 1.933 . S
Zn3 O9 1.941 1_655 S
Zn3 O10 1.965 . S
Zn4 O2 1.950 1_655 S
Zn4 O11 1.938 1_545 S
Zn4 O12 1.906 . S
Zn4 O22 1.953 . S
Zn5 O2 1.945 1_556 S
Zn5 O7 1.932 . S
Zn5 O14 1.977 1_455 S
Zn5 O15 1.910 . S
O6 Zn3 1.933 . S
O6 C17 1.226 1_565 S
O7 Zn5 1.932 . S
O7 C17 1.307 1_455 S
O8 Zn1 1.919 . S
O8 C19 1.253 . S
O9 Zn3 1.941 1_455 S
O9 C19 1.283 1_556 S
O10 Zn3 1.965 . S
O10 C18 1.303 1_556 S
O11 Zn4 1.938 1_565 S
O11 C18 1.247 . S
O12 Zn4 1.906 . S
O12 C20 1.304 1_554 S
O13 Zn1 1.924 1_545 S
O13 C21 1.311 . S
O14 Zn5 1.977 1_655 S
O14 C20 1.272 . S
O15 Zn5 1.910 . S
O15 C21 1.231 1_556 S
C16 O0 1.225 1_545 S
C16 O22 1.298 1_455 S
C17 O6 1.226 1_545 S
C17 O7 1.307 1_655 S
C18 O10 1.303 1_554 S
C18 O11 1.247 . S
C19 O8 1.253 . S
C19 O9 1.283 1_554 S
C20 O12 1.304 1_556 S
C20 O14 1.272 . S
C21 O13 1.311 . S
C21 O15 1.231 1_554 S
O22 Zn4 1.953 . S
O22 C16 1.298 1_655 S
O23 Zn24 1.953 . S
O23 C39 1.225 . S
Zn24 O23 1.953 . S
Zn24 O25 1.949 . S
Zn24 O31 1.919 . S
Zn24 O36 1.924 . S
O25 Zn24 1.949 . S
O25 Zn26 1.923 . S
O25 Zn27 1.950 . S
O25 Zn28 1.945 . S
Zn26 O25 1.923 . S
Zn26 O29 1.933 . S
Zn26 O32 1.941 . S
Zn26 O33 1.965 . S
Zn27 O25 1.950 . S
Zn27 O34 1.938 . S
Zn27 O35 1.906 . S
Zn27 O45 1.953 . S
Zn28 O25 1.945 . S
Zn28 O30 1.932 . S
Zn28 O37 1.977 . S
Zn28 O38 1.910 . S
O29 Zn26 1.933 . S
O29 C40 1.226 . S
O30 Zn28 1.932 . S
O30 C40 1.307 . S
O31 Zn24 1.919 . S
O31 C42 1.253 . S
O32 Zn26 1.941 . S
O32 C42 1.283 . S
O33 Zn26 1.965 . S
O33 C41 1.303 . S
O34 Zn27 1.938 . S
O34 C41 1.247 . S
O35 Zn27 1.906 . S
O35 C43 1.304 . S
O36 Zn24 1.924 . S
O36 C44 1.311 . S
O37 Zn28 1.977 . S
O37 C43 1.272 . S
O38 Zn28 1.910 . S
O38 C44 1.231 . S
C39 O23 1.225 . S
C39 O45 1.298 . S
C40 O29 1.226 . S
C40 O30 1.307 . S
C41 O33 1.303 . S
C41 O34 1.247 . S
C42 O31 1.253 . S
C42 O32 1.283 . S
C43 O35 1.304 . S
C43 O37 1.272 . S
C44 O36 1.311 . S
C44 O38 1.231 . S
O45 Zn27 1.953 . S
O45 C39 1.298 . S
H46 C47 0.949 1_655 S
C47 H46 0.949 1_455 S
C47 C48 1.395 . S
C47 C49 1.391 . S
C48 C47 1.395 . S
C48 C51 1.390 1_545 S
C49 C47 1.391 . S
C49 C53 1.387 1_545 S
C49 C54 1.491 . S
H50 C51 0.950 . S
C51 C48 1.390 1_565 S
C51 H50 0.950 . S
C51 C52 1.378 . S
C52 C51 1.378 . S
C52 C53 1.409 . S
C53 C49 1.387 1_565 S
C53 C52 1.409 . S
C53 H55 0.951 . S
C54 C49 1.491 . S
C54 C56 1.382 1_455 S
C54 C58 1.404 . S
H55 C53 0.951 . S
C56 C54 1.382 1_655 S
C56 C57 1.390 . S
C56 H61 0.949 . S
C57 C56 1.390 . S
C57 C62 1.399 . S
C58 C54 1.404 . S
C58 H59 0.950 . S
C58 C60 1.375 . S
H59 C58 0.950 . S
C60 C58 1.375 . S
C60 C62 1.382 1_455 S
C60 H64 0.950 . S
H61 C56 0.949 . S
C62 C57 1.399 . S
C62 C60 1.382 1_655 S
C62 H63 0.952 . S
H63 C62 0.952 . S
H64 C60 0.950 . S
H65 C66 0.949 . S
C66 H65 0.949 . S
C66 C67 1.395 1_455 S
C66 C68 1.391 1_455 S
C67 C66 1.395 1_655 S
C67 C70 1.390 1_545 S
C68 C66 1.391 1_655 S
C68 C72 1.387 1_545 S
C68 C73 1.491 1_655 S
H69 C70 0.950 . S
C70 C67 1.390 1_565 S
C70 H69 0.950 . S
C70 C71 1.378 . S
C71 C70 1.378 . S
C71 C72 1.409 . S
C72 C68 1.387 1_565 S
C72 C71 1.409 . S
C72 H74 0.951 . S
C73 C68 1.491 1_455 S
C73 C75 1.382 . S
C73 C77 1.404 1_455 S
H74 C72 0.951 . S
C75 C73 1.382 . S
C75 C76 1.390 . S
C75 H80 0.949 . S
C76 C75 1.390 . S
C76 C81 1.399 . S
C77 C73 1.404 1_655 S
C77 H78 0.950 . S
C77 C79 1.375 1_655 S
H78 C77 0.950 . S
C79 C77 1.375 1_455 S
C79 C81 1.382 . S
C79 H83 0.950 1_455 S
H80 C75 0.949 . S
C81 C76 1.399 . S
C81 C79 1.382 . S
C81 H82 0.952 . S
H82 C81 0.952 . S
H83 C79 0.950 1_655 S
H84 C85 0.949 . S
C85 H84 0.949 . S
C85 C86 1.395 . S
C85 C87 1.391 . S
C86 C85 1.395 . S
C86 C89 1.390 . S
C87 C85 1.391 . S
C87 C91 1.387 . S
C87 C92 1.491 . S
H88 C89 0.950 . S
C89 C86 1.390 . S
C89 H88 0.950 . S
C89 C90 1.378 . S
C90 C89 1.378 . S
C90 C91 1.409 . S
C91 C87 1.387 . S
C91 C90 1.409 . S
C91 H93 0.951 . S
C92 C87 1.491 . S
C92 C94 1.382 . S
C92 C96 1.404 . S
H93 C91 0.951 . S
C94 C92 1.382 . S
C94 C95 1.390 . S
C94 H99 0.949 . S
C95 C94 1.390 . S
C95 C100 1.399 . S
C96 C92 1.404 . S
C96 H97 0.950 . S
C96 C98 1.375 . S
H97 C96 0.950 . S
C98 C96 1.375 . S
C98 C100 1.382 . S
C98 H102 0.950 1_556 S
H99 C94 0.949 . S
C100 C95 1.399 . S
C100 C98 1.382 . S
C100 H101 0.952 . S
H101 C100 0.952 . S
H102 C98 0.950 1_554 S
H103 C104 0.949 . S
C104 H103 0.949 . S
C104 C105 1.395 . S
C104 C106 1.391 . S
C105 C104 1.395 . S
C105 C108 1.390 . S
C106 C104 1.391 . S
C106 C110 1.387 . S
C106 C111 1.491 . S
H107 C108 0.950 . S
C108 C105 1.390 . S
C108 H107 0.950 . S
C108 C109 1.378 . S
C109 C108 1.378 . S
C109 C110 1.409 . S
C110 C106 1.387 . S
C110 C109 1.409 . S
C110 H112 0.951 . S
C111 C106 1.491 . S
C111 C113 1.382 . S
C111 C115 1.404 . S
H112 C110 0.951 . S
C113 C111 1.382 . S
C113 C114 1.390 . S
C113 H118 0.949 . S
C114 C113 1.390 . S
C114 C119 1.399 . S
C115 C111 1.404 . S
C115 H116 0.950 . S
C115 C117 1.375 . S
H116 C115 0.950 . S
C117 C115 1.375 . S
C117 C119 1.382 . S
C117 H121 0.950 . S
H118 C113 0.949 . S
C119 C114 1.399 . S
C119 C117 1.382 . S
C119 H120 0.952 . S
H120 C119 0.952 . S
H121 C117 0.950 . S
H122 C140 0.951 . S
H123 C142 0.951 . S
H124 C144 0.947 1_556 S
H125 C145 0.950 1_556 S
H126 C147 0.950 . S
H127 C150 0.950 . S
H128 C151 0.950 . S
H129 C153 0.950 . S
H130 C154 0.950 . S
H131 C155 0.951 . S
H132 C157 0.951 . S
H133 C159 0.950 . S
H134 C160 0.950 . S
H135 C162 0.950 . S
H136 C165 0.950 . S
H137 C166 0.950 . S
H138 C168 0.950 . S
H139 C169 0.950 . S
C140 H122 0.951 . S
C140 C141 1.366 . S
C140 C142 1.388 . S
C141 C140 1.366 . S
C141 C145 1.385 . S
C142 H123 0.951 . S
C142 C140 1.388 . S
C142 C143 1.366 . S
C143 C142 1.366 . S
C143 C144 1.414 . S
C143 C146 1.499 . S
C144 H124 0.947 1_554 S
C144 C143 1.414 . S
C144 C145 1.374 . S
C145 H125 0.950 1_554 S
C145 C141 1.385 . S
C145 C144 1.374 . S
C146 C143 1.499 . S
C146 C147 1.373 . S
C146 C148 1.389 . S
C147 H126 0.950 . S
C147 C146 1.373 . S
C147 C163 1.377 . S
C148 C146 1.389 . S
C148 C149 1.524 . S
C148 C162 1.377 . S
C149 C148 1.524 . S
C149 C150 1.397 . S
C149 C154 1.363 . S
C150 H127 0.950 . S
C150 C149 1.397 . S
C150 C151 1.334 . S
C151 H128 0.950 . S
C151 C150 1.334 . S
C151 C152 1.287 . S
C152 C151 1.287 . S
C152 C153 1.524 . S
C152 H171 0.913 . S
C153 H129 0.950 . S
C153 C152 1.524 . S
C153 C154 1.415 . S
C154 H130 0.950 . S
C154 C149 1.363 . S
C154 C153 1.415 . S
C155 H131 0.951 . S
C155 C156 1.366 . S
C155 C157 1.388 . S
C156 C155 1.366 . S
C156 C160 1.385 . S
C157 H132 0.951 . S
C157 C155 1.388 . S
C157 C158 1.366 . S
C158 C157 1.366 . S
C158 C159 1.414 . S
C158 C161 1.499 . S
C159 H133 0.950 . S
C159 C158 1.414 . S
C159 C160 1.374 . S
C160 H134 0.950 . S
C160 C156 1.385 . S
C160 C159 1.374 . S
C161 C158 1.499 . S
C161 C162 1.373 . S
C161 C163 1.389 . S
C162 H135 0.950 . S
C162 C148 1.377 . S
C162 C161 1.373 . S
C163 C147 1.377 . S
C163 C161 1.389 . S
C163 C164 1.524 . S
C164 C163 1.524 . S
C164 C165 1.397 . S
C164 C169 1.363 1_554 S
C165 H136 0.950 . S
C165 C164 1.397 . S
C165 C166 1.334 . S
C166 H137 0.950 . S
C166 C165 1.334 . S
C166 C167 1.287 . S
C167 C166 1.287 . S
C167 C168 1.524 1_554 S
C167 H170 0.999 1_554 S
C168 H138 0.950 . S
C168 C167 1.524 1_556 S
C168 C169 1.415 . S
C169 H139 0.950 . S
C169 C164 1.363 1_556 S
C169 C168 1.415 . S
H170 C167 0.999 1_556 S
H171 C152 0.913 . S
H172 C190 0.951 . S
H173 C192 0.951 . S
H174 C194 0.950 . S
H175 C195 0.950 . S
H176 C197 0.950 . S
H177 C200 0.950 1_554 S
H178 C201 0.950 1_554 S
H179 C203 0.950 . S
H180 C204 0.950 . S
H181 C205 0.951 . S
H182 C207 0.951 . S
H183 C209 0.950 . S
H184 C210 0.950 . S
H185 C212 0.950 . S
H186 C215 0.950 . S
H187 C216 0.950 . S
H188 C218 0.950 . S
H189 C219 0.950 . S
C190 H172 0.951 . S
C190 C191 1.366 . S
C190 C192 1.388 . S
C191 C190 1.366 . S
C191 C195 1.385 1_556 S
C192 H173 0.951 . S
C192 C190 1.388 . S
C192 C193 1.366 . S
C193 C192 1.366 . S
C193 C194 1.414 1_556 S
C193 C196 1.499 . S
C194 H174 0.950 . S
C194 C193 1.414 1_554 S
C194 C195 1.374 . S
C195 H175 0.950 . S
C195 C191 1.385 1_554 S
C195 C194 1.374 . S
C196 C193 1.499 . S
C196 C197 1.373 . S
C196 C198 1.389 . S
C197 H176 0.950 . S
C197 C196 1.373 . S
C197 C213 1.377 . S
C198 C196 1.389 . S
C198 C199 1.524 . S
C198 C212 1.377 . S
C199 C198 1.524 . S
C199 C200 1.397 . S
C199 C204 1.363 . S
C200 H177 0.950 1_556 S
C200 C199 1.397 . S
C200 C201 1.334 . S
C201 H178 0.950 1_556 S
C201 C200 1.334 . S
C201 C202 1.287 . S
C202 C201 1.287 . S
C202 C203 1.524 . S
C202 H221 0.913 . S
C203 H179 0.950 . S
C203 C202 1.524 . S
C203 C204 1.415 . S
C204 H180 0.950 . S
C204 C199 1.363 . S
C204 C203 1.415 . S
C205 H181 0.951 . S
C205 C206 1.366 . S
C205 C207 1.388 . S
C206 C205 1.366 . S
C206 C210 1.385 . S
C207 H182 0.951 . S
C207 C205 1.388 . S
C207 C208 1.366 . S
C208 C207 1.366 . S
C208 C209 1.414 . S
C208 C211 1.499 . S
C209 H183 0.950 . S
C209 C208 1.414 . S
C209 C210 1.374 . S
C210 H184 0.950 . S
C210 C206 1.385 . S
C210 C209 1.374 . S
C211 C208 1.499 . S
C211 C212 1.373 . S
C211 C213 1.389 . S
C212 H185 0.950 . S
C212 C198 1.377 . S
C212 C211 1.373 . S
C213 C197 1.377 . S
C213 C211 1.389 . S
C213 C214 1.524 . S
C214 C213 1.524 . S
C214 C215 1.397 . S
C214 C219 1.363 1_556 S
C215 H186 0.950 . S
C215 C214 1.397 . S
C215 C216 1.334 . S
C216 H187 0.950 . S
C216 C215 1.334 . S
C216 C217 1.287 . S
C217 C216 1.287 . S
C217 C218 1.524 1_556 S
C217 H220 0.999 . S
C218 H188 0.950 . S
C218 C217 1.524 1_554 S
C218 C219 1.415 . S
C219 H189 0.950 . S
C219 C214 1.363 1_554 S
C219 C218 1.415 . S
H220 C217 0.999 . S
H221 C202 0.913 . S
H222 C240 0.951 . S
H223 C242 0.951 . S
H224 C244 0.950 1_556 S
H225 C245 0.978 . S
H226 C247 0.950 1_556 S
H227 C250 0.950 . S
H228 C251 0.950 . S
H229 C253 0.950 . S
H230 C254 0.950 . S
H231 C255 0.951 . S
H232 C257 0.951 . S
H233 C259 0.950 . S
H234 C260 0.950 . S
H235 C262 0.950 . S
H236 C265 0.950 1_554 S
H237 C266 0.950 . S
H238 C268 0.950 . S
H239 C269 0.950 . S
C240 H222 0.951 . S
C240 C241 1.366 . S
C240 C242 1.388 . S
C241 C240 1.366 . S
C241 C245 1.368 1_554 S
C242 H223 0.951 . S
C242 C240 1.388 . S
C242 C243 1.366 . S
C243 C242 1.366 . S
C243 C244 1.414 . S
C243 C246 1.499 . S
C244 H224 0.950 1_554 S
C244 C243 1.414 . S
C244 C245 1.363 1_554 S
C245 H225 0.978 . S
C245 C241 1.368 1_556 S
C245 C244 1.363 1_556 S
C246 C243 1.499 . S
C246 C247 1.373 . S
C246 C248 1.389 . S
C247 H226 0.950 1_554 S
C247 C246 1.373 . S
C247 C263 1.377 . S
C248 C246 1.389 . S
C248 C249 1.524 . S
C248 C262 1.377 . S
C249 C248 1.524 . S
C249 C250 1.397 . S
C249 C254 1.363 . S
C250 H227 0.950 . S
C250 C249 1.397 . S
C250 C251 1.334 . S
C251 H228 0.950 . S
C251 C250 1.334 . S
C251 C252 1.287 . S
C252 C251 1.287 . S
C252 C253 1.524 . S
C252 H271 0.913 . S
C253 H229 0.950 . S
C253 C252 1.524 . S
C253 C254 1.415 . S
C254 H230 0.950 . S
C254 C249 1.363 . S
C254 C253 1.415 . S
C255 H231 0.951 . S
C255 C256 1.366 . S
C255 C257 1.388 . S
C256 C255 1.366 . S
C256 C260 1.385 . S
C257 H232 0.951 . S
C257 C255 1.388 . S
C257 C258 1.366 . S
C258 C257 1.366 . S
C258 C259 1.414 . S
C258 C261 1.499 . S
C259 H233 0.950 . S
C259 C258 1.414 . S
C259 C260 1.374 . S
C260 H234 0.950 . S
C260 C256 1.385 . S
C260 C259 1.374 . S
C261 C258 1.499 . S
C261 C262 1.373 . S
C261 C263 1.389 . S
C262 H235 0.950 . S
C262 C248 1.377 . S
C262 C261 1.373 . S
C263 C247 1.377 . S
C263 C261 1.389 . S
C263 C264 1.524 1_554 S
C264 C263 1.524 1_556 S
C264 C265 1.397 . S
C264 C269 1.363 . S
C265 H236 0.950 1_556 S
C265 C264 1.397 . S
C265 C266 1.334 . S
C266 H237 0.950 . S
C266 C265 1.334 . S
C266 C267 1.287 . S
C267 C266 1.287 . S
C267 C268 1.524 . S
C267 H270 0.999 . S
C268 H238 0.950 . S
C268 C267 1.524 . S
C268 C269 1.415 . S
C269 H239 0.950 . S
C269 C264 1.363 . S
C269 C268 1.415 . S
H270 C267 0.999 . S
H271 C252 0.913 . S
H272 C290 0.951 . S
H273 C292 0.951 . S
H274 C294 0.950 . S
H275 C295 0.950 . S
H276 C297 0.950 . S
H277 C300 0.950 . S
H278 C301 0.950 . S
H279 C303 0.950 . S
H280 C304 0.950 . S
H281 C305 0.951 . S
H282 C307 0.951 . S
H283 C309 0.950 . S
H284 C310 0.950 . S
H285 C312 0.950 . S
H286 C315 0.950 . S
H287 C316 0.950 . S
H288 C318 0.950 . S
H289 C319 0.950 . S
C290 H272 0.951 . S
C290 C291 1.366 . S
C290 C292 1.388 . S
C291 C290 1.366 . S
C291 C295 1.385 . S
C292 H273 0.951 . S
C292 C290 1.388 . S
C292 C293 1.366 . S
C293 C292 1.366 . S
C293 C294 1.414 . S
C293 C296 1.499 . S
C294 H274 0.950 . S
C294 C293 1.414 . S
C294 C295 1.374 . S
C295 H275 0.950 . S
C295 C291 1.385 . S
C295 C294 1.374 . S
C296 C293 1.499 . S
C296 C297 1.373 . S
C296 C298 1.389 . S
C297 H276 0.950 . S
C297 C296 1.373 . S
C297 C313 1.377 . S
C298 C296 1.389 . S
C298 C299 1.524 1_556 S
C298 C312 1.377 . S
C299 C298 1.524 1_554 S
C299 C300 1.397 . S
C299 C304 1.363 . S
C300 H277 0.950 . S
C300 C299 1.397 . S
C300 C301 1.334 . S
C301 H278 0.950 . S
C301 C300 1.334 . S
C301 C302 1.287 . S
C302 C301 1.287 . S
C302 C303 1.524 . S
C302 H321 0.913 . S
C303 H279 0.950 . S
C303 C302 1.524 . S
C303 C304 1.415 . S
C304 H280 0.950 . S
C304 C299 1.363 . S
C304 C303 1.415 . S
C305 H281 0.951 . S
C305 C306 1.366 . S
C305 C307 1.388 . S
C306 C305 1.366 . S
C306 C310 1.385 . S
C307 H282 0.951 . S
C307 C305 1.388 . S
C307 C308 1.366 . S
C308 C307 1.366 . S
C308 C309 1.414 . S
C308 C311 1.499 . S
C309 H283 0.950 . S
C309 C308 1.414 . S
C309 C310 1.374 . S
C310 H284 0.950 . S
C310 C306 1.385 . S
C310 C309 1.374 . S
C311 C308 1.499 . S
C311 C312 1.373 . S
C311 C313 1.389 . S
C312 H285 0.950 . S
C312 C298 1.377 . S
C312 C311 1.373 . S
C313 C297 1.377 . S
C313 C311 1.389 . S
C313 C314 1.524 . S
C314 C313 1.524 . S
C314 C315 1.397 . S
C314 C319 1.363 . S
C315 H286 0.950 . S
C315 C314 1.397 . S
C315 C316 1.334 . S
C316 H287 0.950 . S
C316 C315 1.334 . S
C316 C317 1.287 . S
C317 C316 1.287 . S
C317 C318 1.524 . S
C317 H320 0.999 . S
C318 H288 0.950 . S
C318 C317 1.524 . S
C318 C319 1.415 . S
C319 H289 0.950 . S
C319 C314 1.363 . S
C319 C318 1.415 . S
H320 C317 0.999 . S
H321 C302 0.913 . S
H322 C340 0.951 . S
H323 C342 0.951 . S
H324 C344 0.950 . S
H325 C345 0.950 . S
H326 C347 0.950 . S
H327 C350 0.950 . S
H328 C351 0.950 . S
H329 C353 0.950 . S
H330 C354 0.950 . S
H331 C355 0.951 . S
H332 C357 0.951 . S
H333 C359 0.950 . S
H334 C360 0.950 . S
H335 C362 0.950 . S
H336 C365 0.950 . S
H337 C366 0.950 . S
H338 C368 0.950 . S
H339 C369 0.950 . S
C340 H322 0.951 . S
C340 C341 1.366 . S
C340 C342 1.388 . S
C341 C340 1.366 . S
C341 C345 1.385 . S
C342 H323 0.951 . S
C342 C340 1.388 . S
C342 C343 1.366 . S
C343 C342 1.366 . S
C343 C344 1.414 . S
C343 C346 1.499 . S
C344 H324 0.950 . S
C344 C343 1.414 . S
C344 C345 1.374 . S
C345 H325 0.950 . S
C345 C341 1.385 . S
C345 C344 1.374 . S
C346 C343 1.499 . S
C346 C347 1.373 . S
C346 C348 1.389 . S
C347 H326 0.950 . S
C347 C346 1.373 . S
C347 C363 1.377 . S
C348 C346 1.389 . S
C348 C349 1.524 . S
C348 C362 1.377 . S
C349 C348 1.524 . S
C349 C350 1.397 . S
C349 C354 1.363 . S
C350 H327 0.950 . S
C350 C349 1.397 . S
C350 C351 1.334 . S
C351 H328 0.950 . S
C351 C350 1.334 . S
C351 C352 1.287 . S
C352 C351 1.287 . S
C352 C353 1.524 . S
C352 H371 0.913 . S
C353 H329 0.950 . S
C353 C352 1.524 . S
C353 C354 1.415 . S
C354 H330 0.950 . S
C354 C349 1.363 . S
C354 C353 1.415 . S
C355 H331 0.951 . S
C355 C356 1.366 . S
C355 C357 1.388 . S
C356 C355 1.366 . S
C356 C360 1.385 . S
C357 H332 0.951 . S
C357 C355 1.388 . S
C357 C358 1.366 . S
C358 C357 1.366 . S
C358 C359 1.414 . S
C358 C361 1.499 . S
C359 H333 0.950 . S
C359 C358 1.414 . S
C359 C360 1.374 . S
C360 H334 0.950 . S
C360 C356 1.385 . S
C360 C359 1.374 . S
C361 C358 1.499 . S
C361 C362 1.373 . S
C361 C363 1.389 . S
C362 H335 0.950 . S
C362 C348 1.377 . S
C362 C361 1.373 . S
C363 C347 1.377 . S
C363 C361 1.389 . S
C363 C364 1.524 . S
C364 C363 1.524 . S
C364 C365 1.397 . S
C364 C369 1.363 . S
C365 H336 0.950 . S
C365 C364 1.397 . S
C365 C366 1.334 . S
C366 H337 0.950 . S
C366 C365 1.334 . S
C366 C367 1.287 . S
C367 C366 1.287 . S
C367 C368 1.524 . S
C367 H370 0.999 . S
C368 H338 0.950 . S
C368 C367 1.524 . S
C368 C369 1.415 . S
C369 H339 0.950 . S
C369 C364 1.363 . S
C369 C368 1.415 . S
H370 C367 0.999 . S
H371 C352 0.913 . S
H372 C390 0.951 . S
H373 C392 0.951 . S
H374 C394 0.950 . S
H375 C395 0.950 . S
H376 C397 0.950 . S
H377 C400 0.950 . S
H378 C401 0.950 . S
H379 C403 0.950 . S
H380 C404 0.950 . S
H381 C405 0.951 . S
H382 C407 0.951 . S
H383 C409 0.950 . S
H384 C410 0.950 . S
H385 C412 0.950 . S
H386 C415 0.950 . S
H387 C416 0.950 . S
H388 C418 0.950 . S
H389 C419 0.950 . S
C390 H372 0.951 . S
C390 C391 1.366 . S
C390 C392 1.388 . S
C391 C390 1.366 . S
C391 C395 1.385 . S
C392 H373 0.951 . S
C392 C390 1.388 . S
C392 C393 1.366 . S
C393 C392 1.366 . S
C393 C394 1.414 . S
C393 C396 1.499 . S
C394 H374 0.950 . S
C394 C393 1.414 . S
C394 C395 1.374 . S
C395 H375 0.950 . S
C395 C391 1.385 . S
C395 C394 1.374 . S
C396 C393 1.499 . S
C396 C397 1.373 . S
C396 C398 1.389 . S
C397 H376 0.950 . S
C397 C396 1.373 . S
C397 C413 1.377 . S
C398 C396 1.389 . S
C398 C399 1.524 . S
C398 C412 1.377 . S
C399 C398 1.524 . S
C399 C400 1.397 . S
C399 C404 1.363 . S
C400 H377 0.950 . S
C400 C399 1.397 . S
C400 C401 1.334 . S
C401 H378 0.950 . S
C401 C400 1.334 . S
C401 C402 1.287 . S
C402 C401 1.287 . S
C402 C403 1.524 . S
C402 H421 0.913 . S
C403 H379 0.950 . S
C403 C402 1.524 . S
C403 C404 1.415 . S
C404 H380 0.950 . S
C404 C399 1.363 . S
C404 C403 1.415 . S
C405 H381 0.951 . S
C405 C406 1.366 . S
C405 C407 1.388 . S
C406 C405 1.366 . S
C406 C410 1.385 . S
C407 H382 0.951 . S
C407 C405 1.388 . S
C407 C408 1.366 . S
C408 C407 1.366 . S
C408 C409 1.414 . S
C408 C411 1.499 . S
C409 H383 0.950 . S
C409 C408 1.414 . S
C409 C410 1.374 . S
C410 H384 0.950 . S
C410 C406 1.385 . S
C410 C409 1.374 . S
C411 C408 1.499 . S
C411 C412 1.373 . S
C411 C413 1.389 . S
C412 H385 0.950 . S
C412 C398 1.377 . S
C412 C411 1.373 . S
C413 C397 1.377 . S
C413 C411 1.389 . S
C413 C414 1.524 . S
C414 C413 1.524 . S
C414 C415 1.397 . S
C414 C419 1.363 . S
C415 H386 0.950 . S
C415 C414 1.397 . S
C415 C416 1.334 . S
C416 H387 0.950 . S
C416 C415 1.334 . S
C416 C417 1.287 . S
C417 C416 1.287 . S
C417 C418 1.524 . S
C417 H420 0.999 . S
C418 H388 0.950 . S
C418 C417 1.524 . S
C418 C419 1.415 . S
C419 H389 0.950 . S
C419 C414 1.363 . S
C419 C418 1.415 . S
H420 C417 0.999 . S
H421 C402 0.913 . S
H422 C440 0.951 . S
H423 C442 0.951 . S
H424 C444 0.950 . S
H425 C445 0.950 . S
H426 C447 0.950 . S
H427 C450 0.950 . S
H428 C451 0.950 . S
H429 C453 0.950 . S
H430 C454 0.950 . S
H431 C455 0.951 . S
H432 C457 0.951 . S
H433 C459 0.950 . S
H434 C460 0.950 . S
H435 C462 0.950 . S
H436 C465 0.950 . S
H437 C466 0.950 . S
H438 C468 0.950 . S
H439 C469 0.950 . S
C440 H422 0.951 . S
C440 C441 1.366 . S
C440 C442 1.388 . S
C441 C440 1.366 . S
C441 C445 1.385 . S
C442 H423 0.951 . S
C442 C440 1.388 . S
C442 C443 1.366 . S
C443 C442 1.366 . S
C443 C444 1.414 . S
C443 C446 1.499 . S
C444 H424 0.950 . S
C444 C443 1.414 . S
C444 C445 1.374 . S
C445 H425 0.950 . S
C445 C441 1.385 . S
C445 C444 1.374 . S
C446 C443 1.499 . S
C446 C447 1.373 . S
C446 C448 1.389 . S
C447 H426 0.950 . S
C447 C446 1.373 . S
C447 C463 1.377 . S
C448 C446 1.389 . S
C448 C449 1.524 . S
C448 C462 1.377 . S
C449 C448 1.524 . S
C449 C450 1.397 . S
C449 C454 1.363 . S
C450 H427 0.950 . S
C450 C449 1.397 . S
C450 C451 1.334 . S
C451 H428 0.950 . S
C451 C450 1.334 . S
C451 C452 1.287 . S
C452 C451 1.287 . S
C452 C453 1.524 . S
C452 H471 0.913 . S
C453 H429 0.950 . S
C453 C452 1.524 . S
C453 C454 1.415 . S
C454 H430 0.950 . S
C454 C449 1.363 . S
C454 C453 1.415 . S
C455 H431 0.951 . S
C455 C456 1.366 . S
C455 C457 1.388 . S
C456 C455 1.366 . S
C456 C460 1.385 . S
C457 H432 0.951 . S
C457 C455 1.388 . S
C457 C458 1.366 . S
C458 C457 1.366 . S
C458 C459 1.414 . S
C458 C461 1.499 . S
C459 H433 0.950 . S
C459 C458 1.414 . S
C459 C460 1.374 . S
C460 H434 0.950 . S
C460 C456 1.385 . S
C460 C459 1.374 . S
C461 C458 1.499 . S
C461 C462 1.373 . S
C461 C463 1.389 . S
C462 H435 0.950 . S
C462 C448 1.377 . S
C462 C461 1.373 . S
C463 C447 1.377 . S
C463 C461 1.389 . S
C463 C464 1.524 . S
C464 C463 1.524 . S
C464 C465 1.397 . S
C464 C469 1.363 . S
C465 H436 0.950 . S
C465 C464 1.397 . S
C465 C466 1.334 . S
C466 H437 0.950 . S
C466 C465 1.334 . S
C466 C467 1.287 . S
C467 C466 1.287 . S
C467 C468 1.524 . S
C467 H470 0.999 . S
C468 H438 0.950 . S
C468 C467 1.524 . S
C468 C469 1.415 . S
C469 H439 0.950 . S
C469 C464 1.363 . S
C469 C468 1.415 . S
H470 C467 0.999 . S
H471 C452 0.913 . S
H472 C490 0.951 . S
H473 C492 0.951 . S
H474 C494 0.950 . S
H475 C495 0.950 . S
H476 C497 0.950 . S
H477 C500 0.950 . S
H478 C501 0.950 . S
H479 C503 0.950 . S
H480 C504 0.950 . S
H481 C505 0.951 . S
H482 C507 0.951 . S
H483 C509 0.950 . S
H484 C510 0.950 . S
H485 C512 0.950 . S
H486 C515 0.950 . S
H487 C516 0.950 . S
H488 C518 0.950 . S
H489 C519 0.950 . S
C490 H472 0.951 . S
C490 C491 1.366 . S
C490 C492 1.388 . S
C491 C490 1.366 . S
C491 C495 1.385 . S
C492 H473 0.951 . S
C492 C490 1.388 . S
C492 C493 1.366 . S
C493 C492 1.366 . S
C493 C494 1.414 . S
C493 C496 1.499 . S
C494 H474 0.950 . S
C494 C493 1.414 . S
C494 C495 1.374 . S
C495 H475 0.950 . S
C495 C491 1.385 . S
C495 C494 1.374 . S
C496 C493 1.499 . S
C496 C497 1.373 . S
C496 C498 1.389 . S
C497 H476 0.950 . S
C497 C496 1.373 . S
C497 C513 1.377 . S
C498 C496 1.389 . S
C498 C499 1.524 . S
C498 C512 1.377 . S
C499 C498 1.524 . S
C499 C500 1.397 . S
C499 C504 1.363 . S
C500 H477 0.950 . S
C500 C499 1.397 . S
C500 C501 1.334 . S
C501 H478 0.950 . S
C501 C500 1.334 . S
C501 C502 1.287 . S
C502 C501 1.287 . S
C502 C503 1.524 . S
C502 H521 0.913 . S
C503 H479 0.950 . S
C503 C502 1.524 . S
C503 C504 1.415 . S
C504 H480 0.950 . S
C504 C499 1.363 . S
C504 C503 1.415 . S
C505 H481 0.951 . S
C505 C506 1.366 . S
C505 C507 1.388 . S
C506 C505 1.366 . S
C506 C510 1.385 . S
C507 H482 0.951 . S
C507 C505 1.388 . S
C507 C508 1.366 . S
C508 C507 1.366 . S
C508 C509 1.414 . S
C508 C511 1.499 . S
C509 H483 0.950 . S
C509 C508 1.414 . S
C509 C510 1.374 . S
C510 H484 0.950 . S
C510 C506 1.385 . S
C510 C509 1.374 . S
C511 C508 1.499 . S
C511 C512 1.373 . S
C511 C513 1.389 . S
C512 H485 0.950 . S
C512 C498 1.377 . S
C512 C511 1.373 . S
C513 C497 1.377 . S
C513 C511 1.389 . S
C513 C514 1.524 . S
C514 C513 1.524 . S
C514 C515 1.397 . S
C514 C519 1.363 . S
C515 H486 0.950 . S
C515 C514 1.397 . S
C515 C516 1.334 . S
C516 H487 0.950 . S
C516 C515 1.334 . S
C516 C517 1.287 . S
C517 C516 1.287 . S
C517 C518 1.524 . S
C517 H520 0.999 . S
C518 H488 0.950 . S
C518 C517 1.524 . S
C518 C519 1.415 . S
C519 H489 0.950 . S
C519 C514 1.363 . S
C519 C518 1.415 . S
H520 C517 0.999 . S
H521 C502 0.913 . S
H522 C540 0.951 . S
H523 C542 0.951 . S
H524 C544 0.950 . S
H525 C545 0.950 . S
H526 C547 0.950 1_655 S
H527 C550 0.950 . S
H528 C551 0.950 . S
H529 C553 0.950 . S
H530 C554 0.950 . S
H531 C555 0.951 . S
H532 C557 0.951 . S
H533 C559 0.950 . S
H534 C560 0.950 . S
H535 C562 0.950 . S
H536 C565 0.950 . S
H537 C566 0.950 . S
H538 C568 0.950 . S
H539 C569 0.950 . S
C540 H522 0.951 . S
C540 C541 1.366 . S
C540 C542 1.388 . S
C541 C540 1.366 . S
C541 C545 1.385 1_545 S
C542 H523 0.951 . S
C542 C540 1.388 . S
C542 C543 1.366 . S
C543 C542 1.366 . S
C543 C544 1.414 1_545 S
C543 C546 1.499 . S
C544 H524 0.950 . S
C544 C543 1.414 1_565 S
C544 C545 1.374 . S
C545 H525 0.950 . S
C545 C541 1.385 1_565 S
C545 C544 1.374 . S
C546 C543 1.499 . S
C546 C547 1.373 1_545 S
C546 C548 1.389 . S
C547 H526 0.950 1_455 S
C547 C546 1.373 1_565 S
C547 C563 1.377 1_455 S
C548 C546 1.389 . S
C548 C549 1.524 . S
C548 C562 1.377 . S
C549 C548 1.524 . S
C549 C550 1.397 . S
C549 C554 1.363 . S
C550 H527 0.950 . S
C550 C549 1.397 . S
C550 C551 1.334 . S
C551 H528 0.950 . S
C551 C550 1.334 . S
C551 C552 1.287 . S
C552 C551 1.287 . S
C552 C553 1.524 . S
C552 H571 0.913 . S
C553 H529 0.950 . S
C553 C552 1.524 . S
C553 C554 1.415 . S
C554 H530 0.950 . S
C554 C549 1.363 . S
C554 C553 1.415 . S
C555 H531 0.951 . S
C555 C556 1.366 1_565 S
C555 C557 1.388 . S
C556 C555 1.366 1_545 S
C556 C560 1.385 . S
C557 H532 0.951 . S
C557 C555 1.388 . S
C557 C558 1.366 1_565 S
C558 C557 1.366 1_545 S
C558 C559 1.414 . S
C558 C561 1.499 . S
C559 H533 0.950 . S
C559 C558 1.414 . S
C559 C560 1.374 . S
C560 H534 0.950 . S
C560 C556 1.385 . S
C560 C559 1.374 . S
C561 C558 1.499 . S
C561 C562 1.373 . S
C561 C563 1.389 1_445 S
C562 H535 0.950 . S
C562 C548 1.377 . S
C562 C561 1.373 . S
C563 C547 1.377 1_655 S
C563 C561 1.389 1_665 S
C563 C564 1.524 . S
C564 C563 1.524 . S
C564 C565 1.397 . S
C564 C569 1.363 . S
C565 H536 0.950 . S
C565 C564 1.397 . S
C565 C566 1.334 . S
C566 H537 0.950 . S
C566 C565 1.334 . S
C566 C567 1.287 . S
C567 C566 1.287 . S
C567 C568 1.524 . S
C567 H570 0.999 . S
C568 H538 0.950 . S
C568 C567 1.524 . S
C568 C569 1.415 . S
C569 H539 0.950 . S
C569 C564 1.363 . S
C569 C568 1.415 . S
H570 C567 0.999 . S
H571 C552 0.913 . S
H572 C590 0.951 . S
H573 C592 0.951 . S
H574 C594 0.950 . S
H575 C595 0.950 . S
H576 C597 0.950 . S
H577 C600 0.950 1_655 S
H578 C601 0.950 . S
H579 C603 0.950 . S
H580 C604 0.950 . S
H581 C605 0.951 . S
H582 C607 0.951 . S
H583 C609 0.950 . S
H584 C610 0.950 . S
H585 C612 0.950 . S
H586 C615 0.964 . S
H587 C616 0.950 . S
H588 C618 0.950 . S
H589 C619 0.950 . S
C590 H572 0.951 . S
C590 C591 1.366 1_455 S
C590 C592 1.388 . S
C591 C590 1.366 1_655 S
C591 C595 1.385 . S
C592 H573 0.951 . S
C592 C590 1.388 . S
C592 C593 1.366 1_455 S
C593 C592 1.366 1_655 S
C593 C594 1.414 . S
C593 C596 1.499 . S
C594 H574 0.950 . S
C594 C593 1.414 . S
C594 C595 1.374 . S
C595 H575 0.950 . S
C595 C591 1.385 . S
C595 C594 1.374 . S
C596 C593 1.499 . S
C596 C597 1.373 1_545 S
C596 C598 1.389 1_655 S
C597 H576 0.950 . S
C597 C596 1.373 1_565 S
C597 C613 1.377 . S
C598 C596 1.389 1_455 S
C598 C599 1.524 . S
C598 C612 1.377 . S
C599 C598 1.524 . S
C599 C600 1.397 . S
C599 C604 1.363 . S
C600 H577 0.950 1_455 S
C600 C599 1.397 . S
C600 C601 1.334 . S
C601 H578 0.950 . S
C601 C600 1.334 . S
C601 C602 1.287 . S
C602 C601 1.287 . S
C602 C603 1.524 . S
C602 H621 0.913 . S
C603 H579 0.950 . S
C603 C602 1.524 . S
C603 C604 1.415 . S
C604 H580 0.950 . S
C604 C599 1.363 . S
C604 C603 1.415 . S
C605 H581 0.951 . S
C605 C606 1.366 . S
C605 C607 1.388 . S
C606 C605 1.366 . S
C606 C610 1.385 1_655 S
C607 H582 0.951 . S
C607 C605 1.388 . S
C607 C608 1.366 . S
C608 C607 1.366 . S
C608 C609 1.414 1_655 S
C608 C611 1.499 . S
C609 H583 0.950 . S
C609 C608 1.414 1_455 S
C609 C610 1.374 . S
C610 H584 0.950 . S
C610 C606 1.385 1_455 S
C610 C609 1.374 . S
C611 C608 1.499 . S
C611 C612 1.373 1_655 S
C611 C613 1.389 1_545 S
C612 H585 0.950 . S
C612 C598 1.377 . S
C612 C611 1.373 1_455 S
C613 C597 1.377 . S
C613 C611 1.389 1_565 S
C613 C614 1.524 . S
C614 C613 1.524 . S
C614 C615 1.397 . S
C614 C619 1.363 . S
C615 H586 0.964 . S
C615 C614 1.397 . S
C615 C616 1.334 . S
C616 H587 0.950 . S
C616 C615 1.334 . S
C616 C617 1.287 . S
C617 C616 1.287 . S
C617 C618 1.524 . S
C617 H620 0.999 . S
C618 H588 0.950 . S
C618 C617 1.524 . S
C618 C619 1.415 . S
C619 H589 0.950 . S
C619 C614 1.363 . S
C619 C618 1.415 . S
H620 C617 0.999 . S
H621 C602 0.913 . S
H622 C640 0.951 . S
H623 C642 0.951 . S
H624 C644 0.950 . S
H625 C645 0.950 . S
H626 C647 0.950 . S
H627 C650 0.950 . S
H628 C651 0.950 . S
H629 C653 0.950 . S
H630 C654 0.950 . S
H631 C655 0.951 . S
H632 C657 0.951 . S
H633 C659 0.950 . S
H634 C660 0.950 . S
H635 C662 0.950 . S
H636 C665 0.950 . S
H637 C666 0.950 . S
H638 C668 0.950 . S
H639 C669 0.950 . S
C640 H622 0.951 . S
C640 C641 1.366 . S
C640 C642 1.388 . S
C641 C640 1.366 . S
C641 C645 1.385 . S
C642 H623 0.951 . S
C642 C640 1.388 . S
C642 C643 1.366 . S
C643 C642 1.366 . S
C643 C644 1.414 . S
C643 C646 1.499 . S
C644 H624 0.950 . S
C644 C643 1.414 . S
C644 C645 1.374 . S
C645 H625 0.950 . S
C645 C641 1.385 . S
C645 C644 1.374 . S
C646 C643 1.499 . S
C646 C647 1.373 . S
C646 C648 1.389 . S
C647 H626 0.950 . S
C647 C646 1.373 . S
C647 C663 1.377 . S
C648 C646 1.389 . S
C648 C649 1.524 . S
C648 C662 1.377 . S
C649 C648 1.524 . S
C649 C650 1.397 . S
C649 C654 1.363 . S
C650 H627 0.950 . S
C650 C649 1.397 . S
C650 C651 1.334 . S
C651 H628 0.950 . S
C651 C650 1.334 . S
C651 C652 1.287 . S
C652 C651 1.287 . S
C652 C653 1.524 . S
C652 H671 0.913 . S
C653 H629 0.950 . S
C653 C652 1.524 . S
C653 C654 1.415 . S
C654 H630 0.950 . S
C654 C649 1.363 . S
C654 C653 1.415 . S
C655 H631 0.951 . S
C655 C656 1.366 . S
C655 C657 1.388 . S
C656 C655 1.366 . S
C656 C660 1.385 . S
C657 H632 0.951 . S
C657 C655 1.388 . S
C657 C658 1.366 . S
C658 C657 1.366 . S
C658 C659 1.414 . S
C658 C661 1.499 . S
C659 H633 0.950 . S
C659 C658 1.414 . S
C659 C660 1.374 . S
C660 H634 0.950 . S
C660 C656 1.385 . S
C660 C659 1.374 . S
C661 C658 1.499 . S
C661 C662 1.373 . S
C661 C663 1.389 . S
C662 H635 0.950 . S
C662 C648 1.377 . S
C662 C661 1.373 . S
C663 C647 1.377 . S
C663 C661 1.389 . S
C663 C664 1.524 . S
C664 C663 1.524 . S
C664 C665 1.397 . S
C664 C669 1.363 . S
C665 H636 0.950 . S
C665 C664 1.397 . S
C665 C666 1.334 . S
C666 H637 0.950 . S
C666 C665 1.334 . S
C666 C667 1.287 . S
C667 C666 1.287 . S
C667 C668 1.524 . S
C667 H670 0.999 . S
C668 H638 0.950 . S
C668 C667 1.524 . S
C668 C669 1.415 . S
C669 H639 0.950 . S
C669 C664 1.363 . S
C669 C668 1.415 . S
H670 C667 0.999 . S
H671 C652 0.913 . S
H672 C690 0.951 . S
H673 C692 0.951 . S
H674 C694 0.950 . S
H675 C695 0.950 . S
H676 C697 0.950 . S
H677 C700 0.950 . S
H678 C701 0.950 . S
H679 C703 0.950 . S
H680 C704 0.950 . S
H681 C705 0.951 . S
H682 C707 0.951 . S
H683 C709 0.950 . S
H684 C710 0.950 . S
H685 C712 0.950 . S
H686 C715 0.950 . S
H687 C716 0.950 . S
H688 C718 0.950 . S
H689 C719 0.950 . S
C690 H672 0.951 . S
C690 C691 1.366 . S
C690 C692 1.388 . S
C691 C690 1.366 . S
C691 C695 1.385 . S
C692 H673 0.951 . S
C692 C690 1.388 . S
C692 C693 1.366 . S
C693 C692 1.366 . S
C693 C694 1.414 . S
C693 C696 1.499 . S
C694 H674 0.950 . S
C694 C693 1.414 . S
C694 C695 1.374 . S
C695 H675 0.950 . S
C695 C691 1.385 . S
C695 C694 1.374 . S
C696 C693 1.499 . S
C696 C697 1.373 . S
C696 C698 1.389 . S
C697 H676 0.950 . S
C697 C696 1.373 . S
C697 C713 1.377 . S
C698 C696 1.389 . S
C698 C699 1.524 . S
C698 C712 1.377 . S
C699 C698 1.524 . S
C699 C700 1.397 . S
C699 C704 1.363 . S
C700 H677 0.950 . S
C700 C699 1.397 . S
C700 C701 1.334 . S
C701 H678 0.950 . S
C701 C700 1.334 . S
C701 C702 1.287 . S
C702 C701 1.287 . S
C702 C703 1.524 . S
C702 H721 0.913 . S
C703 H679 0.950 . S
C703 C702 1.524 . S
C703 C704 1.415 . S
C704 H680 0.950 . S
C704 C699 1.363 . S
C704 C703 1.415 . S
C705 H681 0.951 . S
C705 C706 1.366 . S
C705 C707 1.388 . S
C706 C705 1.366 . S
C706 C710 1.385 . S
C707 H682 0.951 . S
C707 C705 1.388 . S
C707 C708 1.366 . S
C708 C707 1.366 . S
C708 C709 1.414 . S
C708 C711 1.499 . S
C709 H683 0.950 . S
C709 C708 1.414 . S
C709 C710 1.374 . S
C710 H684 0.950 . S
C710 C706 1.385 . S
C710 C709 1.374 . S
C711 C708 1.499 . S
C711 C712 1.373 . S
C711 C713 1.389 . S
C712 H685 0.950 . S
C712 C698 1.377 . S
C712 C711 1.373 . S
C713 C697 1.377 . S
C713 C711 1.389 . S
C713 C714 1.524 . S
C714 C713 1.524 . S
C714 C715 1.397 . S
C714 C719 1.363 . S
C715 H686 0.950 . S
C715 C714 1.397 . S
C715 C716 1.334 . S
C716 H687 0.950 . S
C716 C715 1.334 . S
C716 C717 1.287 . S
C717 C716 1.287 . S
C717 C718 1.524 . S
C717 H720 0.999 . S
C718 H688 0.950 . S
C718 C717 1.524 . S
C718 C719 1.415 . S
C719 H689 0.950 . S
C719 C714 1.363 . S
C719 C718 1.415 . S
H720 C717 0.999 . S
H721 C702 0.913 . S
C156 C109 1.611 . S
C141 C21 1.601 . S
C191 C19 1.362 1_556 S
C206 C95 1.310 . S
C241 C18 1.324 . S
C256 C114 1.288 . S
C291 C20 1.580 . S
C306 C90 1.595 . S
C341 C44 1.602 . S
C356 C71 1.611 . S
C391 C42 1.361 . S
C406 C57 1.311 . S
C456 C76 1.287 . S
C441 C41 1.324 . S
C506 C52 1.595 . S
C491 C43 1.580 . S
C541 C16 1.561 . S
C556 C48 1.550 . S
C591 C17 1.517 . S
C606 C67 1.505 . S
C656 C86 1.550 . S
C641 C39 1.561 . S
C691 C40 1.517 . S
C706 C105 1.505 . S
