# Generated by pormake.
# Topology pyr, (3,6)-cn, num edge types: 1
# Building blocks:
#     Node 0, Type 0, BuildingBlock: QEWDON_clean_linker_0, # of connection points: 3
#     Node 1, Type 0, BuildingBlock: QEWDON_clean_linker_0, # of connection points: 3
#     Node 2, Type 0, BuildingBlock: QEWDON_clean_linker_0, # of connection points: 3
#     Node 3, Type 0, BuildingBlock: QEWDON_clean_linker_0, # of connection points: 3
#     Node 4, Type 0, BuildingBlock: QEWDON_clean_linker_0, # of connection points: 3
#     Node 5, Type 0, BuildingBlock: QEWDON_clean_linker_0, # of connection points: 3
#     Node 6, Type 0, BuildingBlock: QEWDON_clean_linker_0, # of connection points: 3
#     Node 7, Type 0, BuildingBlock: QEWDON_clean_linker_0, # of connection points: 3
#     Node 8, Type 1, BuildingBlock: MIDCAF_clean_sbu_0, # of connection points: 6
#     Node 9, Type 1, BuildingBlock: MIDCAF_clean_sbu_0, # of connection points: 6
#     Node 10, Type 1, BuildingBlock: MIDCAF_clean_sbu_0, # of connection points: 6
#     Node 11, Type 1, BuildingBlock: MIDCAF_clean_sbu_0, # of connection points: 6
#     Edge 12, Type (0, 1), BuildingBlock: TEMPAE_clean_linker_10, # of connection points: 2
#     Edge 13, Type (0, 1), BuildingBlock: TEMPAE_clean_linker_10, # of connection points: 2
#     Edge 14, Type (0, 1), BuildingBlock: TEMPAE_clean_linker_10, # of connection points: 2
#     Edge 15, Type (0, 1), BuildingBlock: TEMPAE_clean_linker_10, # of connection points: 2
#     Edge 16, Type (0, 1), BuildingBlock: TEMPAE_clean_linker_10, # of connection points: 2
#     Edge 17, Type (0, 1), BuildingBlock: TEMPAE_clean_linker_10, # of connection points: 2
#     Edge 18, Type (0, 1), BuildingBlock: TEMPAE_clean_linker_10, # of connection points: 2
#     Edge 19, Type (0, 1), BuildingBlock: TEMPAE_clean_linker_10, # of connection points: 2
#     Edge 20, Type (0, 1), BuildingBlock: TEMPAE_clean_linker_10, # of connection points: 2
#     Edge 21, Type (0, 1), BuildingBlock: TEMPAE_clean_linker_10, # of connection points: 2
#     Edge 22, Type (0, 1), BuildingBlock: TEMPAE_clean_linker_10, # of connection points: 2
#     Edge 23, Type (0, 1), BuildingBlock: TEMPAE_clean_linker_10, # of connection points: 2
#     Edge 24, Type (0, 1), BuildingBlock: TEMPAE_clean_linker_10, # of connection points: 2
#     Edge 25, Type (0, 1), BuildingBlock: TEMPAE_clean_linker_10, # of connection points: 2
#     Edge 26, Type (0, 1), BuildingBlock: TEMPAE_clean_linker_10, # of connection points: 2
#     Edge 27, Type (0, 1), BuildingBlock: TEMPAE_clean_linker_10, # of connection points: 2
#     Edge 28, Type (0, 1), BuildingBlock: TEMPAE_clean_linker_10, # of connection points: 2
#     Edge 29, Type (0, 1), BuildingBlock: TEMPAE_clean_linker_10, # of connection points: 2
#     Edge 30, Type (0, 1), BuildingBlock: TEMPAE_clean_linker_10, # of connection points: 2
#     Edge 31, Type (0, 1), BuildingBlock: TEMPAE_clean_linker_10, # of connection points: 2
#     Edge 32, Type (0, 1), BuildingBlock: TEMPAE_clean_linker_10, # of connection points: 2
#     Edge 33, Type (0, 1), BuildingBlock: TEMPAE_clean_linker_10, # of connection points: 2
#     Edge 34, Type (0, 1), BuildingBlock: TEMPAE_clean_linker_10, # of connection points: 2
#     Edge 35, Type (0, 1), BuildingBlock: TEMPAE_clean_linker_10, # of connection points: 2
# Relax obj value: 0.146
# Max RMSD: 0.265
# Mean RMSD: 0.191
data_MOF--net-pry--node1-MIDCAF_clean_sbu_0--node2-QEWDON_clean_linker_0--edge1-TEMPAE_clean_linker_10
_symmetry_space_group_name_H-M    P1
_symmetry_Int_Tables_number       1
_symmetry_cell_setting            triclinic
loop_
_symmetry_equiv_pos_as_xyz
'x, y, z'
_cell_length_a     35.623865
_cell_length_b     36.005772
_cell_length_c     38.470771
_cell_angle_alpha  90.369552
_cell_angle_beta   90.529802
_cell_angle_gamma 100.60157
loop_
_atom_site_label
_atom_site_type_symbol
_atom_site_fract_x
_atom_site_fract_y
_atom_site_fract_z
_atom_type_partial_charge
H0 H 0.28835 0.28639 0.23069 0.0
C1 C 0.26966 0.27311 0.25093 0.0
C2 C 0.27184 0.23626 0.2616 0.0
C3 C 0.24411 0.29353 0.26648 0.0
H4 H 0.25012 0.19204 0.29751 0.0
C5 C 0.24758 0.21982 0.28823 0.0
C6 C 0.22166 0.2397 0.30433 0.0
C7 C 0.21998 0.27661 0.29294 0.0
C8 C 0.24758 0.33437 0.25854 0.0
H9 H 0.20083 0.29266 0.30533 0.0
C10 C 0.21859 0.34932 0.24104 0.0
C11 C 0.22508 0.38789 0.23149 0.0
C12 C 0.28208 0.35847 0.26725 0.0
H13 H 0.30465 0.34762 0.28064 0.0
C14 C 0.28803 0.39659 0.25864 0.0
H15 H 0.19206 0.33092 0.23373 0.0
C16 C 0.25993 0.41117 0.24073 0.0
H17 H 0.26543 0.44084 0.23396 0.0
H18 H 0.31476 0.41484 0.26552 0.0
H19 H 0.28937 0.86457 0.8312 0.0
C20 C 0.30593 0.84811 0.81592 0.0
C21 C 0.34348 0.84572 0.82643 0.0
C22 C 0.28911 0.8282 0.7865 0.0
H23 H 0.39304 0.8215 0.81456 0.0
C24 C 0.36421 0.82339 0.80659 0.0
C25 C 0.34759 0.80278 0.77715 0.0
C26 C 0.30999 0.8056 0.76753 0.0
C27 C 0.24772 0.82511 0.77878 0.0
H28 H 0.296 0.78879 0.74601 0.0
C29 C 0.23226 0.85457 0.76317 0.0
C30 C 0.19288 0.84899 0.75394 0.0
C31 C 0.2237 0.79056 0.78558 0.0
H32 H 0.23501 0.76764 0.79742 0.0
C33 C 0.18514 0.78492 0.77675 0.0
H34 H 0.25086 0.88124 0.75795 0.0
C35 C 0.16994 0.81353 0.7608 0.0
H36 H 0.14014 0.80726 0.75309 0.0
H37 H 0.16701 0.75793 0.78173 0.0
H38 H 0.73409 0.4017 0.88222 0.0
C39 C 0.73262 0.37372 0.89296 0.0
C40 C 0.76382 0.36524 0.91213 0.0
C41 C 0.69859 0.34705 0.88974 0.0
H42 H 0.78352 0.32346 0.94436 0.0
C43 C 0.76072 0.32956 0.92771 0.0
C44 C 0.72721 0.30257 0.92402 0.0
C45 C 0.69672 0.31118 0.90433 0.0
C46 C 0.66325 0.35796 0.87574 0.0
H47 H 0.67028 0.29073 0.90254 0.0
C48 C 0.66329 0.37837 0.84465 0.0
C49 C 0.62952 0.38928 0.8326 0.0
C50 C 0.62911 0.3487 0.89453 0.0
H51 H 0.62836 0.33374 0.91893 0.0
C52 C 0.59565 0.35924 0.88249 0.0
H53 H 0.68944 0.38596 0.83008 0.0
C54 C 0.59577 0.37939 0.85173 0.0
H55 H 0.56936 0.38715 0.84279 0.0
H56 H 0.56958 0.35194 0.89715 0.0
H57 H 0.81154 0.82029 0.30461 0.0
C58 C 0.79081 0.80227 0.32046 0.0
C59 C 0.78933 0.80907 0.35643 0.0
C60 C 0.76535 0.77215 0.30495 0.0
H61 H 0.76053 0.79117 0.40409 0.0
C62 C 0.76236 0.78536 0.37653 0.0
C63 C 0.73702 0.75502 0.36136 0.0
C64 C 0.73857 0.74875 0.32544 0.0
C65 C 0.76549 0.76507 0.26718 0.0
H66 H 0.71927 0.72532 0.31336 0.0
C67 C 0.79504 0.74982 0.25186 0.0
C68 C 0.7922 0.73848 0.21671 0.0
C69 C 0.73386 0.77009 0.24695 0.0
H70 H 0.71072 0.7815 0.25849 0.0
C71 C 0.73155 0.75985 0.21186 0.0
H72 H 0.81911 0.74509 0.26758 0.0
C73 C 0.76036 0.7438 0.19685 0.0
H74 H 0.75778 0.73542 0.1697 0.0
H75 H 0.70705 0.76374 0.19641 0.0
H76 H 0.91169 0.92518 0.97022 0.0
C77 C 0.91823 0.92796 0.94279 0.0
C78 C 0.93993 0.90366 0.92688 0.0
C79 C 0.90639 0.95701 0.92379 0.0
H80 H 0.96703 0.89096 0.87924 0.0
C81 C 0.94954 0.90884 0.89152 0.0
C82 C 0.93782 0.93779 0.87216 0.0
C83 C 0.916 0.96149 0.88855 0.0
C84 C 0.89118 0.98743 0.94189 0.0
H85 H 0.9083 0.98501 0.87441 0.0
C86 C 0.85255 0.98357 0.95183 0.0
C87 C 0.83912 0.01467 0.96672 0.0
C88 C 0.91617 0.02186 0.94777 0.0
H89 H 0.94586 0.0253 0.94029 0.0
C90 C 0.90321 0.05218 0.96312 0.0
H91 H 0.833 0.95717 0.94705 0.0
C92 C 0.86506 0.04873 0.97241 0.0
H93 H 0.85579 0.07282 0.98432 0.0
H94 H 0.92278 0.07858 0.96761 0.0
H95 H 0.69207 0.16828 0.48694 0.0
C96 C 0.67871 0.16483 0.46138 0.0
C97 C 0.69443 0.14493 0.43534 0.0
C98 C 0.64434 0.17788 0.45578 0.0
H99 H 0.68693 0.12271 0.38308 0.0
C100 C 0.67539 0.13868 0.40301 0.0
C101 C 0.64097 0.15178 0.39661 0.0
C102 C 0.6257 0.17147 0.42331 0.0
C103 C 0.62445 0.19049 0.4862 0.0
H104 H 0.59865 0.18059 0.41935 0.0
C105 C 0.62236 0.22882 0.49267 0.0
C106 C 0.60533 0.23921 0.52359 0.0
C107 C 0.60874 0.16294 0.51021 0.0
H108 H 0.61011 0.13346 0.50575 0.0
C109 C 0.59131 0.17295 0.54017 0.0
H110 H 0.63475 0.2503 0.47441 0.0
C111 C 0.58965 0.21065 0.54688 0.0
H112 H 0.5756 0.21744 0.57032 0.0
H113 H 0.57913 0.15138 0.5584 0.0
H114 H 0.49188 0.68895 0.17584 0.0
C115 C 0.46318 0.67567 0.16806 0.0
C116 C 0.43831 0.69743 0.1537 0.0
C117 C 0.45054 0.63696 0.17348 0.0
H118 H 0.38159 0.69801 0.13505 0.0
C119 C 0.40085 0.68045 0.14501 0.0
C120 C 0.38807 0.64146 0.14937 0.0
C121 C 0.41332 0.61979 0.16365 0.0
C122 C 0.47493 0.61505 0.19236 0.0
H123 H 0.40402 0.58975 0.16771 0.0
C124 C 0.47865 0.61906 0.22854 0.0
C125 C 0.49941 0.5964 0.24766 0.0
C126 C 0.49279 0.58897 0.17488 0.0
H127 H 0.48988 0.58549 0.14693 0.0
C128 C 0.51441 0.56709 0.19353 0.0
H129 H 0.46467 0.63938 0.24175 0.0
C130 C 0.51759 0.57056 0.22971 0.0
H131 H 0.53336 0.55225 0.24364 0.0
H132 H 0.52817 0.54688 0.18001 0.0
H133 H 0.13723 0.46101 0.69199 0.0
C134 C 0.12881 0.44714 0.66735 0.0
C135 C 0.15479 0.45217 0.63966 0.0
C136 C 0.09339 0.42223 0.664 0.0
H137 H 0.16498 0.43515 0.58708 0.0
C138 C 0.14508 0.43192 0.60845 0.0
C139 C 0.11092 0.40579 0.60515 0.0
C140 C 0.08453 0.40271 0.63231 0.0
C141 C 0.06675 0.41398 0.69403 0.0
H142 H 0.05775 0.38317 0.62942 0.0
C143 C 0.06456 0.44151 0.71979 0.0
C144 C 0.03929 0.43332 0.74773 0.0
C145 C 0.04346 0.37792 0.69747 0.0
H146 H 0.04538 0.35506 0.67959 0.0
C147 C 0.01763 0.3703 0.72465 0.0
H148 H 0.08214 0.46938 0.71828 0.0
C149 C 0.01536 0.39789 0.74961 0.0
H150 H 0.9959 0.39115 0.7711 0.0
H151 H 0.99983 0.34261 0.72673 0.0
Zn152 Zn 0.9725 0.0912 0.59155 0.0
Zn153 Zn 0.0538 0.01796 0.51682 0.0
Zn154 Zn 0.01089 0.05611 0.5514 0.0
C155 C 0.08175 0.09237 0.50011 0.0
C156 C 0.9778 0.99855 0.49044 0.0
O157 O 0.0126 0.03548 0.60747 0.0
O158 O 0.9752 0.06711 0.63648 0.0
C159 C 0.03075 0.14517 0.5638 0.0
O160 O 0.05436 0.09657 0.52079 0.0
O161 O 0.08941 0.05996 0.49493 0.0
O162 O 0.01107 0.99152 0.48718 0.0
O163 O 0.97129 0.02258 0.51357 0.0
O164 O 0.00519 0.14122 0.58665 0.0
O165 O 0.03671 0.11647 0.54596 0.0
O166 O 0.95083 0.04832 0.52968 0.0
O167 O 0.92314 0.08198 0.56643 0.0
C168 C 0.92143 0.06211 0.53914 0.0
O169 O 0.03846 0.01935 0.58799 0.0
O170 O 0.07321 0.98919 0.55436 0.0
C171 C 0.99641 0.04274 0.63614 0.0
C172 C 0.06174 0.99592 0.58426 0.0
Zn173 Zn 0.47331 0.08724 0.05411 0.0
Zn174 Zn 0.56872 0.99898 0.16139 0.0
Zn175 Zn 0.50494 0.05181 0.09254 0.0
C176 C 0.60057 0.03665 0.09414 0.0
C177 C 0.49766 0.97664 0.11044 0.0
O178 O 0.47248 0.08907 0.12505 0.0
O179 O 0.43724 0.10802 0.0839 0.0
C180 C 0.55371 0.11263 0.0492 0.0
O181 O 0.56892 0.04791 0.08515 0.0
O182 O 0.6047 0.01861 0.12218 0.0
O183 O 0.52271 0.99847 0.12829 0.0
O184 O 0.47962 0.99275 0.08803 0.0
O185 O 0.52167 0.12153 0.04279 0.0
O186 O 0.55507 0.08243 0.06638 0.0
O187 O 0.46637 0.00893 0.05763 0.0
O188 O 0.45137 0.0488 0.0191 0.0
C189 C 0.4505 0.01511 0.02838 0.0
O190 O 0.49763 0.07496 0.14533 0.0
O191 O 0.52979 0.03131 0.15291 0.0
C192 C 0.44542 0.10666 0.11577 0.0
C193 C 0.51776 0.05903 0.16604 0.0
Zn194 Zn 0.56121 0.6157 0.61356 0.0
Zn195 Zn 0.45285 0.5118 0.56047 0.0
Zn196 Zn 0.50476 0.56509 0.58624 0.0
C197 C 0.50607 0.47291 0.58354 0.0
C198 C 0.48272 0.55625 0.50485 0.0
O199 O 0.4781 0.60169 0.62377 0.0
O200 O 0.5283 0.6441 0.64022 0.0
C201 C 0.57256 0.54427 0.63444 0.0
O202 O 0.52124 0.50737 0.59177 0.0
O203 O 0.4727 0.46577 0.57095 0.0
O204 O 0.45768 0.52767 0.51155 0.0
O205 O 0.50327 0.57428 0.52949 0.0
O206 O 0.58713 0.57881 0.63828 0.0
O207 O 0.54266 0.53435 0.61505 0.0
O208 O 0.53425 0.59966 0.54369 0.0
O209 O 0.58211 0.63836 0.56949 0.0
C210 C 0.56393 0.62613 0.54221 0.0
O211 O 0.44981 0.57174 0.61023 0.0
O212 O 0.40982 0.52339 0.58676 0.0
C213 C 0.4927 0.63206 0.64099 0.0
C214 C 0.416 0.55176 0.60675 0.0
Zn215 Zn 0.09986 0.64122 0.01195 0.0
Zn216 Zn 0.96825 0.54547 0.11286 0.0
Zn217 Zn 0.0428 0.60496 0.04507 0.0
C218 C 0.05104 0.54241 0.11561 0.0
C219 C 0.97629 0.54532 0.02639 0.0
O220 O 0.03683 0.66652 0.04437 0.0
O221 O 0.0879 0.69287 0.01537 0.0
C222 C 0.12661 0.60298 0.0684 0.0
O223 O 0.05776 0.56566 0.08941 0.0
O224 O 0.01788 0.53184 0.12855 0.0
O225 O 0.97333 0.54545 0.05924 0.0
O226 O 0.00488 0.56661 0.01249 0.0
O227 O 0.13811 0.62468 0.04349 0.0
O228 O 0.09086 0.59206 0.07378 0.0
O229 O 0.03716 0.58117 0.99217 0.0
O230 O 0.08757 0.61453 0.96661 0.0
C231 C 0.058 0.58907 0.96513 0.0
O232 O 0.00858 0.64451 0.06357 0.0
O233 O 0.98809 0.59036 0.08555 0.0
C234 C 0.05707 0.69591 0.03014 0.0
C235 C 0.98492 0.6244 0.08341 0.0
C236 C 0.19351 0.24396 0.36403 0.0
C237 C 0.1982 0.22243 0.3343 0.0
C238 C 0.17384 0.22733 0.39333 0.0
C239 C 0.15812 0.18817 0.39295 0.0
C240 C 0.16205 0.1665 0.36273 0.0
C241 C 0.1819 0.18382 0.33391 0.0
C242 C 0.16988 0.25184 0.42456 0.0
C243 C 0.14584 0.1247 0.36105 0.0
C244 C 0.14141 0.1297 0.4755 0.0
C245 C 0.10155 0.12358 0.47827 0.0
C246 C 0.16035 0.15253 0.44909 0.0
C247 C 0.13888 0.16916 0.42436 0.0
C248 C 0.09872 0.16439 0.42801 0.0
C249 C 0.08053 0.14139 0.45472 0.0
C250 C 0.2032 0.15716 0.44652 0.0
C251 C 0.07468 0.18182 0.40257 0.0
H252 H 0.20615 0.27372 0.36485 0.0
H253 H 0.18478 0.16698 0.31097 0.0
H254 H 0.14044 0.2578 0.42501 0.0
H255 H 0.17468 0.23737 0.44914 0.0
H256 H 0.1901 0.27928 0.42375 0.0
H257 H 0.15046 0.112 0.33541 0.0
H258 H 0.15936 0.1098 0.38149 0.0
H259 H 0.11473 0.1197 0.36618 0.0
H260 H 0.15767 0.11528 0.49318 0.0
H261 H 0.04961 0.13564 0.45599 0.0
H262 H 0.21619 0.18754 0.44454 0.0
H263 H 0.21067 0.14287 0.42259 0.0
H264 H 0.21604 0.14506 0.46925 0.0
H265 H 0.08716 0.21204 0.39856 0.0
H266 H 0.0448 0.17967 0.4115 0.0
H267 H 0.07425 0.16726 0.37702 0.0
C268 C 0.33964 0.8621 0.88994 0.0
C269 C 0.36039 0.86542 0.85889 0.0
C270 C 0.35445 0.88162 0.9204 0.0
C271 C 0.39066 0.90582 0.91982 0.0
C272 C 0.41218 0.90844 0.88876 0.0
C273 C 0.39698 0.88798 0.85886 0.0
C274 C 0.33075 0.87727 0.95293 0.0
C275 C 0.45055 0.93432 0.88658 0.0
C276 C 0.40661 0.99302 0.97848 0.0
C277 C 0.43223 0.98445 1.00393 0.0
C278 C 0.39268 0.96755 0.95156 0.0
C279 C 0.40386 0.93184 0.95001 0.0
C280 C 0.42844 0.92216 0.97642 0.0
C281 C 0.44275 0.94876 1.00281 0.0
C282 C 0.36696 0.97955 0.92399 0.0
C283 C 0.44047 0.88414 0.97627 0.0
H284 H 0.31163 0.8442 0.89038 0.0
H285 H 0.41317 0.89074 0.835 0.0
H286 H 0.34834 0.87165 0.97558 0.0
H287 H 0.32043 0.90393 0.95844 0.0
H288 H 0.3056 0.85401 0.95051 0.0
H289 H 0.46495 0.93116 0.86153 0.0
H290 H 0.44678 0.96411 0.88934 0.0
H291 H 0.46948 0.9286 0.90817 0.0
H292 H 0.39815 0.02044 0.97896 0.0
H293 H 0.46338 0.94221 0.02154 0.0
H294 H 0.33957 0.95916 0.92246 0.0
H295 H 0.38066 0.97963 0.89819 0.0
H296 H 0.36064 0.00817 0.92909 0.0
H297 H 0.41502 0.86124 0.97406 0.0
H298 H 0.45682 0.87961 1.00012 0.0
H299 H 0.45853 0.88175 0.95333 0.0
C300 C 0.61152 0.44326 0.80061 0.0
C301 C 0.62889 0.4114 0.80039 0.0
C302 C 0.60679 0.46257 0.76994 0.0
C303 C 0.61983 0.44972 0.73817 0.0
C304 C 0.6387 0.41837 0.73788 0.0
C305 C 0.64311 0.39954 0.76915 0.0
C306 C 0.58675 0.49607 0.77144 0.0
C307 C 0.65287 0.40393 0.70446 0.0
C308 C 0.56453 0.48159 0.66361 0.0
C309 C 0.588 0.51589 0.65506 0.0
C310 C 0.57625 0.45762 0.68839 0.0
C311 C 0.61198 0.46866 0.70545 0.0
C312 C 0.63706 0.50171 0.69489 0.0
C313 C 0.62473 0.52499 0.6698 0.0
C314 C 0.54881 0.42232 0.69852 0.0
C315 C 0.6756 0.51418 0.71212 0.0
H316 H 0.60103 0.45273 0.82487 0.0
H317 H 0.65637 0.37475 0.76898 0.0
H318 H 0.60509 0.52128 0.76017 0.0
H319 H 0.56001 0.49004 0.75573 0.0
H320 H 0.57944 0.50307 0.79842 0.0
H321 H 0.67072 0.38216 0.70916 0.0
H322 H 0.62815 0.39129 0.68782 0.0
H323 H 0.66979 0.4275 0.68969 0.0
H324 H 0.53589 0.4746 0.65291 0.0
H325 H 0.64318 0.55132 0.66303 0.0
H326 H 0.53552 0.42728 0.7237 0.0
H327 H 0.56397 0.3983 0.70199 0.0
H328 H 0.52571 0.41423 0.67879 0.0
H329 H 0.67167 0.52575 0.73837 0.0
H330 H 0.69414 0.53641 0.69699 0.0
H331 H 0.69045 0.4899 0.71546 0.0
C332 C 0.85962 0.73797 0.19959 0.0
C333 C 0.82143 0.71968 0.20077 0.0
C334 C 0.8868 0.7216 0.18173 0.0
C335 C 0.87552 0.68582 0.16543 0.0
C336 C 0.83722 0.66661 0.16785 0.0
C337 C 0.81054 0.684 0.1852 0.0
C338 C 0.92726 0.74312 0.17928 0.0
C339 C 0.8242 0.62815 0.15139 0.0
C340 C 0.93373 0.66267 0.08876 0.0
C341 C 0.95702 0.64003 0.10428 0.0
C342 C 0.90666 0.67731 0.10833 0.0
C343 C 0.90328 0.6694 0.14431 0.0
C344 C 0.92631 0.64588 0.15992 0.0
C345 C 0.95273 0.63115 0.13957 0.0
C346 C 0.88159 0.70113 0.09054 0.0
C347 C 0.92307 0.63635 0.19806 0.0
H348 H 0.86788 0.76565 0.21156 0.0
H349 H 0.78097 0.66981 0.18644 0.0
H350 H 0.94763 0.72546 0.1887 0.0
H351 H 0.93411 0.74992 0.15168 0.0
H352 H 0.93181 0.76988 0.19457 0.0
H353 H 0.79409 0.61598 0.15767 0.0
H354 H 0.82681 0.63022 0.12273 0.0
H355 H 0.84268 0.60833 0.16027 0.0
H356 H 0.93601 0.66811 0.06112 0.0
H357 H 0.97049 0.61313 0.15135 0.0
H358 H 0.8879 0.73032 0.10129 0.0
H359 H 0.85105 0.68979 0.09558 0.0
H360 H 0.88576 0.70224 0.06198 0.0
H361 H 0.92982 0.66261 0.21393 0.0
H362 H 0.94258 0.6171 0.20606 0.0
H363 H 0.89333 0.62276 0.20408 0.0
C364 C 0.29002 0.17703 0.23679 0.0
C365 C 0.30021 0.21553 0.24552 0.0
C366 C 0.31568 0.15788 0.21961 0.0
C367 C 0.35256 0.17758 0.21086 0.0
C368 C 0.36359 0.21598 0.22095 0.0
C369 C 0.33737 0.23443 0.23807 0.0
C370 C 0.30259 0.11701 0.20929 0.0
C371 C 0.4026 0.23809 0.21237 0.0
C372 C 0.42713 0.12185 0.17731 0.0
C373 C 0.42315 0.12526 0.14118 0.0
C374 C 0.40481 0.13903 0.20052 0.0
C375 C 0.37749 0.15964 0.18728 0.0
C376 C 0.37358 0.16322 0.1509 0.0
C377 C 0.39638 0.14623 0.1285 0.0
C378 C 0.41011 0.13476 0.23914 0.0
C379 C 0.34502 0.18489 0.13543 0.0
H380 H 0.26141 0.16214 0.24225 0.0
H381 H 0.34593 0.26392 0.24537 0.0
H382 H 0.2995 0.11469 0.18059 0.0
H383 H 0.32417 0.1 0.21724 0.0
H384 H 0.27477 0.10463 0.22108 0.0
H385 H 0.40832 0.26634 0.22519 0.0
H386 H 0.42514 0.22226 0.22041 0.0
H387 H 0.40485 0.24211 0.18384 0.0
H388 H 0.44727 0.10542 0.18748 0.0
H389 H 0.39289 0.14929 0.10072 0.0
H390 H 0.38387 0.11766 0.25014 0.0
H391 H 0.41466 0.16281 0.25223 0.0
H392 H 0.4347 0.12083 0.24537 0.0
H393 H 0.31576 0.17225 0.14381 0.0
H394 H 0.3455 0.18506 0.10656 0.0
H395 H 0.35104 0.21456 0.14495 0.0
C396 C 0.13653 0.88035 0.74109 0.0
C397 C 0.17516 0.8784 0.73561 0.0
C398 C 0.11694 0.90209 0.71974 0.0
C399 C 0.13661 0.92406 0.69293 0.0
C400 C 0.17639 0.92506 0.68921 0.0
C401 C 0.19508 0.90192 0.71023 0.0
C402 C 0.07448 0.89908 0.72432 0.0
C403 C 0.19879 0.94908 0.66174 0.0
C404 C 0.08282 0.93978 0.60994 0.0
C405 C 0.07639 0.9768 0.61426 0.0
C406 C 0.10142 0.92219 0.63568 0.0
C407 C 0.11484 0.9423 0.66646 0.0
C408 C 0.1073 0.97934 0.67156 0.0
C409 C 0.0881 0.99615 0.64539 0.0
C410 C 0.10731 0.88219 0.62957 0.0
C411 C 0.12085 0.00184 0.70395 0.0
H412 H 0.12089 0.86356 0.76136 0.0
H413 H 0.22483 0.90098 0.70554 0.0
H414 H 0.06565 0.92661 0.71993 0.0
H415 H 0.05922 0.8788 0.70481 0.0
H416 H 0.06519 0.88877 0.75058 0.0
H417 H 0.23007 0.9507 0.66503 0.0
H418 H 0.19017 0.93701 0.63563 0.0
H419 H 0.19247 0.97813 0.66252 0.0
H420 H 0.0737 0.92463 0.58597 0.0
H421 H 0.08375 0.02497 0.64866 0.0
H422 H 0.09561 0.86403 0.65157 0.0
H423 H 0.1383 0.88163 0.62823 0.0
H424 H 0.09342 0.86978 0.60511 0.0
H425 H 0.11547 0.98408 0.72748 0.0
H426 H 0.10674 0.02672 0.70705 0.0
H427 H 0.15215 0.01198 0.70241 0.0
C428 C 0.7929 0.43087 0.93113 0.0
C429 C 0.79769 0.39485 0.92007 0.0
C430 C 0.82387 0.45718 0.94416 0.0
C431 C 0.8604 0.44714 0.94626 0.0
C432 C 0.86589 0.41173 0.9332 0.0
C433 C 0.83442 0.38597 0.92023 0.0
C434 C 0.81694 0.49471 0.95787 0.0
C435 C 0.90452 0.40018 0.93487 0.0
C436 C 0.94484 0.52454 0.96928 0.0
C437 C 0.94779 0.51972 0.00524 0.0
C438 C 0.91719 0.50049 0.94938 0.0
C439 C 0.89148 0.47159 0.9661 0.0
C440 C 0.89448 0.46657 1.00241 0.0
C441 C 0.92263 0.49066 0.0215 0.0
C442 C 0.91497 0.50655 0.91071 0.0
C443 C 0.86763 0.43605 0.02125 0.0
H444 H 0.76455 0.43777 0.93149 0.0
H445 H 0.83829 0.35831 0.91132 0.0
H446 H 0.81988 0.49542 0.98662 0.0
H447 H 0.83853 0.51814 0.9476 0.0
H448 H 0.78802 0.49985 0.95087 0.0
H449 H 0.90493 0.37356 0.92023 0.0
H450 H 0.9268 0.42279 0.9243 0.0
H451 H 0.91226 0.39598 0.96238 0.0
H452 H 0.96365 0.54754 0.95676 0.0
H453 H 0.92477 0.48677 0.04932 0.0
H454 H 0.88858 0.51746 0.90437 0.0
H455 H 0.91337 0.4794 0.89649 0.0
H456 H 0.93991 0.52699 0.90118 0.0
H457 H 0.83783 0.44068 0.01828 0.0
H458 H 0.87449 0.43537 0.04945 0.0
H459 H 0.86887 0.40799 0.00973 0.0
C460 C 0.71922 0.71923 0.41609 0.0
C461 C 0.7086 0.73056 0.38319 0.0
C462 C 0.69212 0.69906 0.43842 0.0
C463 C 0.65344 0.6897 0.42751 0.0
C464 C 0.64289 0.69941 0.39366 0.0
C465 C 0.67055 0.71991 0.37195 0.0
C466 C 0.7047 0.68901 0.4742 0.0
C467 C 0.60218 0.68969 0.38081 0.0
C468 C 0.59236 0.61744 0.48472 0.0
C469 C 0.57907 0.64117 0.50877 0.0
C470 C 0.61522 0.63267 0.45684 0.0
C471 C 0.62402 0.67241 0.45272 0.0
C472 C 0.608 0.69614 0.47554 0.0
C473 C 0.5862 0.68022 0.50367 0.0
C474 C 0.63265 0.60633 0.43396 0.0
C475 C 0.61611 0.73857 0.47172 0.0
H476 H 0.74875 0.72667 0.42461 0.0
H477 H 0.66207 0.72875 0.34664 0.0
H478 H 0.6908 0.70406 0.49421 0.0
H479 H 0.69567 0.65828 0.4787 0.0
H480 H 0.73614 0.69659 0.47798 0.0
H481 H 0.60025 0.69041 0.35199 0.0
H482 H 0.58856 0.66128 0.38973 0.0
H483 H 0.58581 0.71047 0.39154 0.0
H484 H 0.5872 0.58721 0.48912 0.0
H485 H 0.57593 0.69842 0.52253 0.0
H486 H 0.6613 0.60423 0.44443 0.0
H487 H 0.63634 0.6169 0.40696 0.0
H488 H 0.61503 0.57746 0.43351 0.0
H489 H 0.64674 0.74959 0.47746 0.0
H490 H 0.59863 0.75266 0.48952 0.0
H491 H 0.61037 0.7464 0.44461 0.0
C492 C 0.20844 0.4231 0.17963 0.0
C493 C 0.197 0.40486 0.21092 0.0
C494 C 0.1853 0.44486 0.16229 0.0
C495 C 0.14975 0.44881 0.17659 0.0
C496 C 0.13737 0.42927 0.20758 0.0
C497 C 0.16112 0.40739 0.22434 0.0
C498 C 0.19926 0.46399 0.12885 0.0
C499 C 0.09957 0.4324 0.22356 0.0
C500 C 0.10716 0.53576 0.15326 0.0
C501 C 0.08045 0.52117 0.12753 0.0
C502 C 0.13046 0.51279 0.16898 0.0
C503 C 0.12605 0.474 0.15942 0.0
C504 C 0.09927 0.45942 0.13307 0.0
C505 C 0.07689 0.48318 0.11746 0.0
C506 C 0.15862 0.52984 0.19679 0.0
C507 C 0.09334 0.41839 0.12213 0.0
H508 H 0.23615 0.42107 0.16913 0.0
H509 H 0.15238 0.39365 0.24871 0.0
H510 H 0.19334 0.49312 0.12812 0.0
H511 H 0.23035 0.46511 0.12525 0.0
H512 H 0.18383 0.44818 0.10659 0.0
H513 H 0.09303 0.41382 0.2465 0.0
H514 H 0.09996 0.46205 0.23181 0.0
H515 H 0.0762 0.42486 0.20407 0.0
H516 H 0.10899 0.56477 0.16187 0.0
H517 H 0.05546 0.47168 0.09813 0.0
H518 H 0.1855 0.51862 0.19513 0.0
H519 H 0.14612 0.52233 0.22268 0.0
H520 H 0.16545 0.56115 0.19504 0.0
H521 H 0.1205 0.41142 0.11255 0.0
H522 H 0.07124 0.41139 0.10137 0.0
H523 H 0.08458 0.40009 0.14484 0.0
C524 C 0.7052 0.23323 0.93084 0.0
C525 C 0.72035 0.26841 0.9458 0.0
C526 C 0.68728 0.20336 0.95151 0.0
C527 C 0.68337 0.20952 0.98756 0.0
C528 C 0.70299 0.24327 1.00324 0.0
C529 C 0.72145 0.27246 0.98207 0.0
C530 C 0.66881 0.1667 0.93429 0.0
C531 C 0.70064 0.25024 0.04178 0.0
C532 C 0.58333 0.16966 0.01641 0.0
C533 C 0.58815 0.13786 0.03573 0.0
C534 C 0.61439 0.19383 1.00211 0.0
C535 C 0.65152 0.18566 0.00624 0.0
C536 C 0.65702 0.15453 0.02671 0.0
C537 C 0.62523 0.13141 0.04174 0.0
C538 C 0.60721 0.22795 0.98211 0.0
C539 C 0.69605 0.1454 0.03334 0.0
H540 H 0.70488 0.22999 0.90279 0.0
H541 H 0.73335 0.29967 0.99366 0.0
H542 H 0.67278 0.14232 0.95056 0.0
H543 H 0.63766 0.16601 0.9314 0.0
H544 H 0.68072 0.16344 0.90809 0.0
H545 H 0.72168 0.27533 0.05057 0.0
H546 H 0.67154 0.25497 0.04813 0.0
H547 H 0.70572 0.22521 0.0565 0.0
H548 H 0.555 0.17583 0.01217 0.0
H549 H 0.62951 0.1085 0.05817 0.0
H550 H 0.61359 0.22458 0.95421 0.0
H551 H 0.62627 0.25388 0.99186 0.0
H552 H 0.57719 0.23216 0.98415 0.0
H553 H 0.71789 0.15938 0.01496 0.0
H554 H 0.69465 0.11449 0.03167 0.0
H555 H 0.70539 0.15433 0.0602 0.0
C556 C 0.83484 0.83385 0.40433 0.0
C557 C 0.81571 0.84063 0.37369 0.0
C558 C 0.85856 0.86327 0.42223 0.0
C559 C 0.86322 0.90055 0.4093 0.0
C560 C 0.84372 0.90772 0.3785 0.0
C561 C 0.82035 0.87754 0.36086 0.0
C562 C 0.87918 0.85427 0.45473 0.0
C563 C 0.84764 0.94718 0.36424 0.0
C564 C 0.90846 0.97417 0.47588 0.0
C565 C 0.94716 0.97814 0.46736 0.0
C566 C 0.88017 0.95117 0.45558 0.0
C567 C 0.89107 0.93102 0.42671 0.0
C568 C 0.92988 0.93653 0.41705 0.0
C569 C 0.95732 0.96013 0.43733 0.0
C570 C 0.83896 0.94681 0.46627 0.0
C571 C 0.94286 0.91564 0.38654 0.0
H572 H 0.83146 0.80528 0.41416 0.0
H573 H 0.80514 0.8829 0.33743 0.0
H574 H 0.9105 0.86131 0.45081 0.0
H575 H 0.87233 0.87171 0.47683 0.0
H576 H 0.8715 0.824 0.46191 0.0
H577 H 0.82894 0.94837 0.34116 0.0
H578 H 0.84039 0.96665 0.38455 0.0
H579 H 0.87768 0.95775 0.35675 0.0
H580 H 0.90037 0.9875 0.49921 0.0
H581 H 0.98711 0.96342 0.4302 0.0
H582 H 0.8303 0.91935 0.47954 0.0
H583 H 0.82002 0.94681 0.44321 0.0
H584 H 0.83439 0.96974 0.48434 0.0
H585 H 0.93869 0.88502 0.39241 0.0
H586 H 0.97347 0.92574 0.38052 0.0
H587 H 0.92554 0.91884 0.36303 0.0
C588 C 0.36383 0.77283 0.72097 0.0
C589 C 0.36828 0.7768 0.75726 0.0
C590 C 0.38168 0.74747 0.70203 0.0
C591 C 0.40518 0.7257 0.71951 0.0
C592 C 0.40991 0.72953 0.75608 0.0
C593 C 0.39135 0.75481 0.77447 0.0
C594 C 0.37578 0.7444 0.66312 0.0
C595 C 0.43495 0.70717 0.77578 0.0
C596 C 0.43296 0.63994 0.67364 0.0
C597 C 0.46907 0.6552 0.66066 0.0
C598 C 0.41153 0.66242 0.69255 0.0
C599 C 0.42696 0.70107 0.69925 0.0
C600 C 0.46358 0.71652 0.68645 0.0
C601 C 0.48396 0.69358 0.66734 0.0
C602 C 0.37248 0.6448 0.70547 0.0
C603 C 0.48142 0.75741 0.69301 0.0
H604 H 0.34661 0.78991 0.70716 0.0
H605 H 0.39455 0.75694 0.80248 0.0
H606 H 0.40332 0.75421 0.64989 0.0
H607 H 0.36569 0.71446 0.65536 0.0
H608 H 0.35477 0.7614 0.65366 0.0
H609 H 0.43479 0.71241 0.80426 0.0
H610 H 0.42528 0.67651 0.77077 0.0
H611 H 0.46478 0.7147 0.76655 0.0
H612 H 0.42195 0.6103 0.66985 0.0
H613 H 0.51185 0.70594 0.65751 0.0
H614 H 0.3507 0.65999 0.69454 0.0
H615 H 0.37157 0.6475 0.73418 0.0
H616 H 0.36453 0.61445 0.69823 0.0
H617 H 0.46303 0.77612 0.68179 0.0
H618 H 0.51033 0.76502 0.68163 0.0
H619 H 0.48371 0.76323 0.72139 0.0
C620 C 0.98932 0.94884 0.82702 0.0
C621 C 0.95066 0.94554 0.83567 0.0
C622 C 1.00253 0.96076 0.79379 0.0
C623 C 0.97631 0.96904 0.76826 0.0
C624 C 0.93696 0.96401 0.77649 0.0
C625 C 0.92471 0.95256 0.81003 0.0
C626 C 0.0449 0.96632 0.78743 0.0
C627 C 0.90793 0.97267 0.75037 0.0
C628 C 0.00406 0.04447 0.7002 0.0
C629 C 1.00105 0.02322 0.6693 0.0
C630 C 0.99876 0.02701 0.73271 0.0
C631 C 0.98981 0.98712 0.73453 0.0
C632 C 0.99005 0.96539 0.70362 0.0
C633 C 0.99557 0.98373 0.67122 0.0
C634 C 1.0003 0.05138 0.76496 0.0
C635 C 0.98185 0.92282 0.70431 0.0
H636 H 0.00972 0.94389 0.84677 0.0
H637 H 0.89476 0.9498 0.81648 0.0
H638 H 0.05271 0.97309 0.76011 0.0
H639 H 0.05976 0.98971 0.80429 0.0
H640 H 0.05575 0.94049 0.79501 0.0
H641 H 0.87823 0.96525 0.76006 0.0
H642 H 0.91399 0.00326 0.74423 0.0
H643 H 0.90995 0.95692 0.72579 0.0
H644 H 0.00866 0.07505 0.69881 0.0
H645 H 0.99307 0.96715 0.64741 0.0
H646 H 0.02027 0.04283 0.78436 0.0
H647 H 0.97162 0.04734 0.77693 0.0
H648 H 0.00968 0.08189 0.75933 0.0
H649 H 0.99289 0.91196 0.72855 0.0
H650 H 0.99462 0.91072 0.68161 0.0
H651 H 0.9505 0.91273 0.7032 0.0
C652 C 0.63977 0.1459 0.33128 0.0
C653 C 0.61997 0.14259 0.36283 0.0
C654 C 0.62097 0.13479 0.29951 0.0
C655 C 0.58131 0.11963 0.29907 0.0
C656 C 0.56092 0.11719 0.3307 0.0
C657 C 0.58042 0.12875 0.36211 0.0
C658 C 0.64386 0.13829 0.26648 0.0
C659 C 0.51873 0.101 0.33156 0.0
C660 C 0.52931 0.11147 0.21093 0.0
C661 C 0.53061 0.0741 0.20117 0.0
C662 C 0.54479 0.12651 0.24306 0.0
C663 C 0.56201 0.10367 0.26597 0.0
C664 C 0.56223 0.06559 0.25662 0.0
C665 C 0.54666 0.05138 0.22444 0.0
C666 C 0.5438 0.16718 0.25195 0.0
C667 C 0.57976 0.03997 0.28027 0.0
H668 H 0.6702 0.157 0.33147 0.0
H669 H 0.56488 0.12565 0.38631 0.0
H670 H 0.6443 0.10975 0.25562 0.0
H671 H 0.63029 0.15395 0.24668 0.0
H672 H 0.67379 0.15304 0.2708 0.0
H673 H 0.50635 0.10392 0.35761 0.0
H674 H 0.50309 0.11523 0.31218 0.0
H675 H 0.51393 0.07057 0.32444 0.0
H676 H 0.51731 0.12935 0.19301 0.0
H677 H 0.54745 0.02237 0.21734 0.0
H678 H 0.57332 0.18376 0.25239 0.0
H679 H 0.53186 0.16935 0.27826 0.0
H680 H 0.52651 0.18017 0.23295 0.0
H681 H 0.61078 0.05108 0.28356 0.0
H682 H 0.57597 0.01059 0.27001 0.0
H683 H 0.56678 0.03931 0.30641 0.0
C684 C 0.53328 0.59467 0.30493 0.0
C685 C 0.50011 0.59806 0.28628 0.0
C686 C 0.53316 0.59243 0.34129 0.0
C687 C 0.49908 0.59389 0.35952 0.0
C688 C 0.46603 0.59921 0.34098 0.0
C689 C 0.46687 0.60106 0.3046 0.0
C690 C 0.56912 0.58618 0.35946 0.0
C691 C 0.42916 0.60084 0.35947 0.0
C692 C 0.4838 0.53828 0.44277 0.0
C693 C 0.48912 0.56683 0.46819 0.0
C694 C 0.48743 0.54692 0.40746 0.0
C695 C 0.49645 0.58517 0.3972 0.0
C696 C 0.50207 0.61426 0.42284 0.0
C697 C 0.4985 0.60465 0.45816 0.0
C698 C 0.4808 0.51503 0.38109 0.0
C699 C 0.51017 0.6556 0.4137 0.0
H700 H 0.55929 0.59296 0.29109 0.0
H701 H 0.44092 0.60322 0.29047 0.0
H702 H 0.56916 0.5928 0.38759 0.0
H703 H 0.57186 0.55614 0.35627 0.0
H704 H 0.59461 0.60368 0.3475 0.0
H705 H 0.40641 0.60659 0.34144 0.0
H706 H 0.41886 0.57357 0.37264 0.0
H707 H 0.43407 0.62324 0.37981 0.0
H708 H 0.47665 0.50896 0.45056 0.0
H709 H 0.50182 0.62679 0.47779 0.0
H710 H 0.50721 0.51503 0.36605 0.0
H711 H 0.45802 0.5191 0.36239 0.0
H712 H 0.4724 0.48693 0.39338 0.0
H713 H 0.51861 0.66084 0.38626 0.0
H714 H 0.533 0.67108 0.43102 0.0
H715 H 0.48413 0.66765 0.41838 0.0
C716 C 0.0729 0.47041 0.79695 0.0
C717 C 0.03981 0.46041 0.77662 0.0
C718 C 0.07278 0.49222 0.8272 0.0
C719 C 0.039 0.50512 0.83668 0.0
C720 C 0.00593 0.49638 0.81529 0.0
C721 C 0.00654 0.47341 0.78579 0.0
C722 C 0.10845 0.50041 0.8496 0.0
C723 C 0.96949 0.51003 0.82388 0.0
C724 C 0.03286 0.52969 0.93216 0.0
C725 C 0.04853 0.56829 0.9322 0.0
C726 C 0.0278 0.50895 0.90093 0.0
C727 C 0.03869 0.52742 0.8692 0.0
C728 C 0.05256 0.56682 0.86902 0.0
C729 C 0.05774 0.58673 0.9006 0.0
C730 C 0.0124 0.46704 0.90206 0.0
C731 C 0.06289 0.58773 0.83553 0.0
H732 H 0.09841 0.4598 0.7899 0.0
H733 H 0.98093 0.46537 0.76998 0.0
H734 H 0.11845 0.53136 0.85213 0.0
H735 H 0.10204 0.48925 0.87615 0.0
H736 H 0.13204 0.48765 0.83885 0.0
H737 H 0.95185 0.51166 0.80017 0.0
H738 H 0.95248 0.48969 0.84177 0.0
H739 H 0.97519 0.53819 0.83677 0.0
H740 H 0.02601 0.51543 0.95666 0.0
H741 H 0.06951 0.61673 0.90064 0.0
H742 H 0.03444 0.45133 0.8927 0.0
H743 H 0.98723 0.45975 0.88449 0.0
H744 H 0.00382 0.45731 0.92867 0.0
H745 H 0.08807 0.57851 0.82389 0.0
H746 H 0.0697 0.61884 0.83955 0.0
H747 H 0.03895 0.58098 0.81649 0.0
C748 C 0.77989 0.98501 0.99885 0.0
C749 C 0.79847 0.01301 0.9766 0.0
C750 C 0.74447 0.98796 0.01368 0.0
C751 C 0.72735 0.01971 0.00617 0.0
C752 C 0.74463 0.0463 0.98141 0.0
C753 C 0.77987 0.04262 0.96709 0.0
C754 C 0.72637 0.95813 0.03885 0.0
C755 C 0.72805 0.08046 0.97153 0.0
C756 C 0.62551 0.02202 0.03597 0.0
C757 C 0.63222 0.03838 0.06915 0.0
C758 C 0.65609 0.01575 0.01503 0.0
C759 C 0.69423 0.02722 0.02712 0.0
C760 C 0.70098 0.04558 0.05989 0.0
C761 C 0.66996 0.05017 0.08075 0.0
C762 C 0.64763 0.99563 0.98055 0.0
C763 C 0.74106 0.0604 0.07298 0.0
H764 H 0.79403 0.96199 0.00623 0.0
H765 H 0.79379 0.06406 0.94941 0.0
H766 H 0.72919 0.96988 0.06567 0.0
H767 H 0.69542 0.94942 0.033 0.0
H768 H 0.73997 0.93274 0.03806 0.0
H769 H 0.74336 0.10526 0.9864 0.0
H770 H 0.73262 0.0868 0.9435 0.0
H771 H 0.69709 0.0771 0.97684 0.0
H772 H 0.59633 0.01208 0.0273 0.0
H773 H 0.67517 0.06265 0.10648 0.0
H774 H 0.65985 0.9694 0.98039 0.0
H775 H 0.6614 0.01375 0.95931 0.0
H776 H 0.61649 0.98808 0.97497 0.0
H777 H 0.7563 0.03656 0.07725 0.0
H778 H 0.7414 0.07654 0.09773 0.0
H779 H 0.75716 0.07912 0.05323 0.0
C780 C 0.73025 0.09058 0.43553 0.0
C781 C 0.72923 0.1286 0.4432 0.0
C782 C 0.7613 0.07394 0.44624 0.0
C783 C 0.79223 0.09586 0.46487 0.0
C784 C 0.79206 0.13469 0.47123 0.0
C785 C 0.76058 0.15045 0.46053 0.0
C786 C 0.7601 0.03247 0.43909 0.0
C787 C 0.82455 0.15936 0.49059 0.0
C788 C 0.85114 0.05681 0.53348 0.0
C789 C 0.88658 0.05951 0.51719 0.0
C790 C 0.8193 0.06554 0.51575 0.0
C791 C 0.823 0.07795 0.48088 0.0
C792 C 0.85785 0.0776 0.46336 0.0
C793 C 0.88926 0.06819 0.48172 0.0
C794 C 0.78261 0.06453 0.53536 0.0
C795 C 0.86307 0.09031 0.42616 0.0
H796 H 0.70601 0.07337 0.42244 0.0
H797 H 0.76022 0.17991 0.46621 0.0
H798 H 0.78774 0.02774 0.42856 0.0
H799 H 0.75534 0.0166 0.46377 0.0
H800 H 0.73689 0.02062 0.42047 0.0
H801 H 0.82165 0.18956 0.4909 0.0
H802 H 0.82549 0.14966 0.51785 0.0
H803 H 0.85221 0.15703 0.47855 0.0
H804 H 0.84895 0.05005 0.56091 0.0
H805 H 0.91668 0.07067 0.46909 0.0
H806 H 0.75778 0.0504 0.51957 0.0
H807 H 0.77855 0.09385 0.54073 0.0
H808 H 0.7827 0.04957 0.56052 0.0
H809 H 0.83763 0.07838 0.41011 0.0
H810 H 0.88871 0.08198 0.41445 0.0
H811 H 0.86649 0.12156 0.42527 0.0
C812 C 0.33065 0.63784 0.11093 0.0
C813 C 0.34804 0.62435 0.13987 0.0
C814 C 0.29165 0.62636 0.10405 0.0
C815 C 0.26962 0.59921 0.12571 0.0
C816 C 0.28747 0.58323 0.15343 0.0
C817 C 0.3264 0.59649 0.1606 0.0
C818 C 0.27385 0.64456 0.07433 0.0
C819 C 0.2654 0.55312 0.17619 0.0
C820 C 0.16795 0.61316 0.12045 0.0
C821 C 0.15549 0.59139 0.09097 0.0
C822 C 0.20395 0.61248 0.13517 0.0
C823 C 0.22772 0.58963 0.11967 0.0
C824 C 0.21311 0.56427 0.09245 0.0
C825 C 0.17707 0.56568 0.07818 0.0
C826 C 0.21837 0.63999 0.16416 0.0
C827 C 0.23716 0.53897 0.07553 0.0
H828 H 0.34739 0.65831 0.094 0.0
H829 H 0.33945 0.58586 0.18309 0.0
H830 H 0.26106 0.62279 0.05501 0.0
H831 H 0.25058 0.65837 0.08413 0.0
H832 H 0.29488 0.66613 0.0608 0.0
H833 H 0.2846 0.53783 0.19108 0.0
H834 H 0.24835 0.5663 0.19503 0.0
H835 H 0.24539 0.53238 0.16037 0.0
H836 H 0.15114 0.63326 0.12995 0.0
H837 H 0.16726 0.54905 0.05514 0.0
H838 H 0.23883 0.66411 0.15346 0.0
H839 H 0.23374 0.62645 0.18422 0.0
H840 H 0.19478 0.6512 0.17677 0.0
H841 H 0.2548 0.55485 0.05497 0.0
H842 H 0.21898 0.51392 0.0631 0.0
H843 H 0.25671 0.52926 0.09464 0.0
C844 C 0.2251 0.46188 0.63044 0.0
C845 C 0.19374 0.47534 0.64405 0.0
C846 C 0.26175 0.48384 0.63146 0.0
C847 C 0.26777 0.51994 0.64768 0.0
C848 C 0.23675 0.53293 0.66343 0.0
C849 C 0.1999 0.51061 0.66108 0.0
C850 C 0.29386 0.46853 0.61428 0.0
C851 C 0.24193 0.57068 0.68184 0.0
C852 C 0.37367 0.54363 0.65747 0.0
C853 C 0.38294 0.56045 0.62524 0.0
C854 C 0.33562 0.53602 0.66854 0.0
C855 C 0.3065 0.54382 0.64596 0.0
C856 C 0.31655 0.56571 0.61587 0.0
C857 C 0.35489 0.57381 0.60584 0.0
C858 C 0.32619 0.51505 0.70204 0.0
C859 C 0.28651 0.57546 0.59145 0.0
H860 H 0.22095 0.43405 0.6185 0.0
H861 H 0.17587 0.52117 0.67189 0.0
H862 H 0.30737 0.48841 0.59414 0.0
H863 H 0.31617 0.46555 0.63381 0.0
H864 H 0.28392 0.44051 0.60174 0.0
H865 H 0.22038 0.57046 0.70256 0.0
H866 H 0.27089 0.57876 0.69358 0.0
H867 H 0.23789 0.59272 0.66288 0.0
H868 H 0.39548 0.53321 0.67241 0.0
H869 H 0.36223 0.58656 0.58075 0.0
H870 H 0.31852 0.48429 0.69645 0.0
H871 H 0.30142 0.52396 0.71478 0.0
H872 H 0.35096 0.5198 0.72034 0.0
H873 H 0.27328 0.54977 0.57657 0.0
H874 H 0.29879 0.59761 0.57267 0.0
H875 H 0.2636 0.58541 0.60616 0.0
C876 C 0.972 0.88311 0.9802 0.0
C877 C 0.95466 0.87431 0.94749 0.0
C878 C 0.98835 0.85635 0.99872 0.0
C879 C 0.98718 0.81985 0.98433 0.0
C880 C 0.96849 0.81043 0.95192 0.0
C881 C 0.95271 0.83779 0.93384 0.0
C882 C 0.00752 0.8673 0.03338 0.0
C883 C 0.9657 0.77155 0.93606 0.0
C884 C 0.06216 0.76031 1.00428 0.0
C885 C 0.04198 0.73157 0.02514 0.0
C886 C 0.04536 0.79034 0.9925 0.0
C887 C 0.00739 0.79204 1.00183 0.0
C888 C 0.98808 0.76508 0.02533 0.0
C889 C 0.00559 0.73517 0.03663 0.0
C890 C 0.06754 0.81897 0.96827 0.0
C891 C 0.94805 0.76603 0.03714 0.0
H892 H 0.97385 0.91133 0.99085 0.0
H893 H 0.93886 0.83062 0.90885 0.0
H894 H 0.99492 0.84701 0.05358 0.0
H895 H 0.03832 0.8659 0.03186 0.0
H896 H 0.00472 0.89625 0.0417 0.0
H897 H 0.9487 0.76813 0.91151 0.0
H898 H 0.99474 0.76614 0.93051 0.0
H899 H 0.95234 0.74981 0.95473 0.0
H900 H 0.09057 0.7584 0.9955 0.0
H901 H 0.9901 0.71386 0.05335 0.0
H902 H 0.06626 0.84809 0.97713 0.0
H903 H 0.05452 0.81525 0.94187 0.0
H904 H 0.09798 0.8161 0.96644 0.0
H905 H 0.94068 0.79457 0.03538 0.0
H906 H 0.94442 0.75641 0.06445 0.0
H907 H 0.9276 0.74636 0.02063 0.0
C908 C 0.47902 0.75143 0.12414 0.0
C909 C 0.4506 0.73825 0.14825 0.0
C910 C 0.48802 0.78999 0.11611 0.0
C911 C 0.46857 0.81569 0.13321 0.0
C912 C 0.44052 0.80244 0.15828 0.0
C913 C 0.4316 0.76373 0.16524 0.0
C914 C 0.51765 0.80313 0.08887 0.0
C915 C 0.41973 0.82909 0.17756 0.0
C916 C 0.51341 0.9193 0.13876 0.0
C917 C 0.49141 0.93523 0.11459 0.0
C918 C 0.50677 0.88033 0.14458 0.0
C919 C 0.47773 0.8566 0.12538 0.0
C920 C 0.45602 0.87231 0.10026 0.0
C921 C 0.46274 0.91158 0.09556 0.0
C922 C 0.53005 0.8647 0.17203 0.0
C923 C 0.4252 0.84775 0.07889 0.0
H924 H 0.49325 0.73139 0.11079 0.0
H925 H 0.40958 0.75321 0.18386 0.0
H926 H 0.50462 0.81695 0.06735 0.0
H927 H 0.54107 0.82451 0.10016 0.0
H928 H 0.53007 0.7795 0.07793 0.0
H929 H 0.39952 0.81428 0.19697 0.0
H930 H 0.44057 0.85125 0.19117 0.0
H931 H 0.4035 0.84358 0.15889 0.0
H932 H 0.53541 0.93731 0.1538 0.0
H933 H 0.44503 0.92376 0.07752 0.0
H934 H 0.54398 0.84236 0.16069 0.0
H935 H 0.51101 0.85148 0.19296 0.0
H936 H 0.55246 0.88686 0.18384 0.0
H937 H 0.43694 0.82488 0.06581 0.0
H938 H 0.41276 0.8641 0.05881 0.0
H939 H 0.40196 0.83409 0.0961 0.0
C940 C 0.13639 0.3578 0.56955 0.0
C941 C 0.10588 0.37615 0.57743 0.0
C942 C 0.12959 0.32144 0.55477 0.0
C943 C 0.09154 0.30291 0.54883 0.0
C944 C 0.06159 0.32376 0.55095 0.0
C945 C 0.06922 0.36045 0.56496 0.0
C946 C 0.16258 0.30099 0.55026 0.0
C947 C 0.02072 0.30554 0.54331 0.0
C948 C 0.05973 0.19884 0.52564 0.0
C949 C 0.05305 0.18338 0.55878 0.0
C950 C 0.07478 0.23751 0.52154 0.0
C951 C 0.08208 0.26108 0.55139 0.0
C952 C 0.07698 0.24497 0.58495 0.0
C953 C 0.06279 0.20635 0.58812 0.0
C954 C 0.08056 0.25304 0.4853 0.0
C955 C 0.08437 0.2688 0.6177 0.0
H956 H 0.16508 0.36977 0.57832 0.0
H957 H 0.04576 0.3752 0.56948 0.0
H958 H 0.16514 0.28362 0.57359 0.0
H959 H 0.15785 0.28176 0.52732 0.0
H960 H 0.18994 0.32115 0.54716 0.0
H961 H 1.00194 0.32683 0.5406 0.0
H962 H 0.01877 0.28838 0.5191 0.0
H963 H 0.00988 0.28632 0.5649 0.0
H964 H 0.05089 0.18139 0.50303 0.0
H965 H 0.05763 0.19428 0.61379 0.0
H966 H 0.10251 0.27923 0.48453 0.0
H967 H 0.0532 0.25951 0.47527 0.0
H968 H 0.08915 0.23176 0.46756 0.0
H969 H 0.11436 0.28415 0.61843 0.0
H970 H 0.07916 0.25165 0.64167 0.0
H971 H 0.06556 0.29019 0.61808 0.0
C972 C 0.60996 0.29274 0.56655 0.0
C973 C 0.60259 0.27916 0.53233 0.0
C974 C 0.60035 0.32709 0.57754 0.0
C975 C 0.58303 0.34872 0.55373 0.0
C976 C 0.5782 0.33664 0.51849 0.0
C977 C 0.58806 0.30202 0.50819 0.0
C978 C 0.60635 0.33886 0.61523 0.0
C979 C 0.56025 0.35904 0.49212 0.0
C980 C 0.50877 0.40431 0.58537 0.0
C981 C 0.52833 0.4418 0.5837 0.0
C982 C 0.52678 0.37389 0.57707 0.0
C983 C 0.56542 0.38095 0.56653 0.0
C984 C 0.58611 0.41861 0.56698 0.0
C985 C 0.56733 0.44864 0.57568 0.0
C986 C 0.50372 0.33426 0.57787 0.0
C987 C 0.62738 0.42745 0.55625 0.0
H988 H 0.62182 0.27556 0.58527 0.0
H989 H 0.58221 0.2918 0.48177 0.0
H990 H 0.61959 0.36919 0.61748 0.0
H991 H 0.57831 0.33515 0.62836 0.0
H992 H 0.62467 0.32191 0.62927 0.0
H993 H 0.56256 0.34844 0.46519 0.0
H994 H 0.52956 0.35726 0.49812 0.0
H995 H 0.57396 0.3893 0.49343 0.0
H996 H 0.47867 0.3988 0.59169 0.0
H997 H 0.58256 0.47754 0.574 0.0
H998 H 0.51873 0.31576 0.59369 0.0
H999 H 0.50055 0.3223 0.55112 0.0
H1000 H 0.47478 0.33336 0.58873 0.0
H1001 H 0.64399 0.40798 0.56891 0.0
H1002 H 0.64089 0.45702 0.56282 0.0
H1003 H 0.62916 0.42335 0.52774 0.0
loop_
_geom_bond_atom_site_label_1
_geom_bond_atom_site_label_2
_geom_bond_distance
_geom_bond_site_symmetry_2
_ccdc_geom_bond_type
H0 C1 0.949 . S
C1 H0 0.949 . S
C1 C2 1.395 . S
C1 C3 1.391 . S
C2 C1 1.395 . S
C2 C5 1.390 . S
C3 C1 1.391 . S
C3 C7 1.387 . S
C3 C8 1.491 . S
H4 C5 0.950 . S
C5 C2 1.390 . S
C5 H4 0.950 . S
C5 C6 1.378 . S
C6 C5 1.378 . S
C6 C7 1.409 . S
C7 C3 1.387 . S
C7 C6 1.409 . S
C7 H9 0.951 . S
C8 C3 1.491 . S
C8 C10 1.382 . S
C8 C12 1.404 . S
H9 C7 0.951 . S
C10 C8 1.382 . S
C10 C11 1.390 . S
C10 H15 0.949 . S
C11 C10 1.390 . S
C11 C16 1.399 . S
C12 C8 1.404 . S
C12 H13 0.950 . S
C12 C14 1.375 . S
H13 C12 0.950 . S
C14 C12 1.375 . S
C14 C16 1.382 . S
C14 H18 0.950 . S
H15 C10 0.949 . S
C16 C11 1.399 . S
C16 C14 1.382 . S
C16 H17 0.952 . S
H17 C16 0.952 . S
H18 C14 0.950 . S
H19 C20 0.949 . S
C20 H19 0.949 . S
C20 C21 1.395 . S
C20 C22 1.391 . S
C21 C20 1.395 . S
C21 C24 1.390 . S
C22 C20 1.391 . S
C22 C26 1.387 . S
C22 C27 1.491 . S
H23 C24 0.950 . S
C24 C21 1.390 . S
C24 H23 0.950 . S
C24 C25 1.378 . S
C25 C24 1.378 . S
C25 C26 1.409 . S
C26 C22 1.387 . S
C26 C25 1.409 . S
C26 H28 0.951 . S
C27 C22 1.491 . S
C27 C29 1.382 . S
C27 C31 1.404 . S
H28 C26 0.951 . S
C29 C27 1.382 . S
C29 C30 1.390 . S
C29 H34 0.949 . S
C30 C29 1.390 . S
C30 C35 1.399 . S
C31 C27 1.404 . S
C31 H32 0.950 . S
C31 C33 1.375 . S
H32 C31 0.950 . S
C33 C31 1.375 . S
C33 C35 1.382 . S
C33 H37 0.950 . S
H34 C29 0.949 . S
C35 C30 1.399 . S
C35 C33 1.382 . S
C35 H36 0.952 . S
H36 C35 0.952 . S
H37 C33 0.950 . S
H38 C39 0.949 . S
C39 H38 0.949 . S
C39 C40 1.395 . S
C39 C41 1.391 . S
C40 C39 1.395 . S
C40 C43 1.390 . S
C41 C39 1.391 . S
C41 C45 1.387 . S
C41 C46 1.491 . S
H42 C43 0.950 . S
C43 C40 1.390 . S
C43 H42 0.950 . S
C43 C44 1.378 . S
C44 C43 1.378 . S
C44 C45 1.409 . S
C45 C41 1.387 . S
C45 C44 1.409 . S
C45 H47 0.951 . S
C46 C41 1.491 . S
C46 C48 1.382 . S
C46 C50 1.404 . S
H47 C45 0.951 . S
C48 C46 1.382 . S
C48 C49 1.390 . S
C48 H53 0.949 . S
C49 C48 1.390 . S
C49 C54 1.399 . S
C50 C46 1.404 . S
C50 H51 0.950 . S
C50 C52 1.375 . S
H51 C50 0.950 . S
C52 C50 1.375 . S
C52 C54 1.382 . S
C52 H56 0.950 . S
H53 C48 0.949 . S
C54 C49 1.399 . S
C54 C52 1.382 . S
C54 H55 0.952 . S
H55 C54 0.952 . S
H56 C52 0.950 . S
H57 C58 0.949 . S
C58 H57 0.949 . S
C58 C59 1.395 . S
C58 C60 1.391 . S
C59 C58 1.395 . S
C59 C62 1.390 . S
C60 C58 1.391 . S
C60 C64 1.387 . S
C60 C65 1.491 . S
H61 C62 0.950 . S
C62 C59 1.390 . S
C62 H61 0.950 . S
C62 C63 1.378 . S
C63 C62 1.378 . S
C63 C64 1.409 . S
C64 C60 1.387 . S
C64 C63 1.409 . S
C64 H66 0.951 . S
C65 C60 1.491 . S
C65 C67 1.382 . S
C65 C69 1.404 . S
H66 C64 0.951 . S
C67 C65 1.382 . S
C67 C68 1.390 . S
C67 H72 0.949 . S
C68 C67 1.390 . S
C68 C73 1.399 . S
C69 C65 1.404 . S
C69 H70 0.950 . S
C69 C71 1.375 . S
H70 C69 0.950 . S
C71 C69 1.375 . S
C71 C73 1.382 . S
C71 H75 0.950 . S
H72 C67 0.949 . S
C73 C68 1.399 . S
C73 C71 1.382 . S
C73 H74 0.952 . S
H74 C73 0.952 . S
H75 C71 0.950 . S
H76 C77 0.949 . S
C77 H76 0.949 . S
C77 C78 1.395 . S
C77 C79 1.391 . S
C78 C77 1.395 . S
C78 C81 1.390 . S
C79 C77 1.391 . S
C79 C83 1.387 1_565 S
C79 C84 1.491 1_565 S
H80 C81 0.950 1_455 S
C81 C78 1.390 . S
C81 H80 0.950 1_655 S
C81 C82 1.378 . S
C82 C81 1.378 . S
C82 C83 1.409 1_565 S
C83 C79 1.387 1_545 S
C83 C82 1.409 1_545 S
C83 H85 0.951 . S
C84 C79 1.491 1_545 S
C84 C86 1.382 . S
C84 C88 1.404 . S
H85 C83 0.951 . S
C86 C84 1.382 . S
C86 C87 1.390 1_556 S
C86 H91 0.949 1_556 S
C87 C86 1.390 1_554 S
C87 C92 1.399 1_554 S
C88 C84 1.404 . S
C88 H89 0.950 . S
C88 C90 1.375 . S
H89 C88 0.950 . S
C90 C88 1.375 . S
C90 C92 1.382 . S
C90 H94 0.950 . S
H91 C86 0.949 1_554 S
C92 C87 1.399 1_556 S
C92 C90 1.382 . S
C92 H93 0.952 . S
H93 C92 0.952 . S
H94 C90 0.950 . S
H95 C96 0.949 . S
C96 H95 0.949 . S
C96 C97 1.395 . S
C96 C98 1.391 . S
C97 C96 1.395 . S
C97 C100 1.390 . S
C98 C96 1.391 . S
C98 C102 1.387 . S
C98 C103 1.491 . S
H99 C100 0.950 . S
C100 C97 1.390 . S
C100 H99 0.950 . S
C100 C101 1.378 . S
C101 C100 1.378 . S
C101 C102 1.409 . S
C102 C98 1.387 . S
C102 C101 1.409 . S
C102 H104 0.951 . S
C103 C98 1.491 . S
C103 C105 1.382 . S
C103 C107 1.404 . S
H104 C102 0.951 . S
C105 C103 1.382 . S
C105 C106 1.390 . S
C105 H110 0.949 . S
C106 C105 1.390 . S
C106 C111 1.399 . S
C107 C103 1.404 . S
C107 H108 0.950 . S
C107 C109 1.375 . S
H108 C107 0.950 . S
C109 C107 1.375 . S
C109 C111 1.382 . S
C109 H113 0.950 . S
H110 C105 0.949 . S
C111 C106 1.399 . S
C111 C109 1.382 . S
C111 H112 0.952 . S
H112 C111 0.952 . S
H113 C109 0.950 . S
H114 C115 0.949 . S
C115 H114 0.949 . S
C115 C116 1.395 . S
C115 C117 1.391 . S
C116 C115 1.395 . S
C116 C119 1.390 . S
C117 C115 1.391 . S
C117 C121 1.387 . S
C117 C122 1.491 . S
H118 C119 0.950 . S
C119 C116 1.390 . S
C119 H118 0.950 . S
C119 C120 1.378 . S
C120 C119 1.378 . S
C120 C121 1.409 . S
C121 C117 1.387 . S
C121 C120 1.409 . S
C121 H123 0.951 . S
C122 C117 1.491 . S
C122 C124 1.382 . S
C122 C126 1.404 . S
H123 C121 0.951 . S
C124 C122 1.382 . S
C124 C125 1.390 . S
C124 H129 0.949 . S
C125 C124 1.390 . S
C125 C130 1.399 . S
C126 C122 1.404 . S
C126 H127 0.950 . S
C126 C128 1.375 . S
H127 C126 0.950 . S
C128 C126 1.375 . S
C128 C130 1.382 . S
C128 H132 0.950 . S
H129 C124 0.949 . S
C130 C125 1.399 . S
C130 C128 1.382 . S
C130 H131 0.952 . S
H131 C130 0.952 . S
H132 C128 0.950 . S
H133 C134 0.949 . S
C134 H133 0.949 . S
C134 C135 1.395 . S
C134 C136 1.391 . S
C135 C134 1.395 . S
C135 C138 1.390 . S
C136 C134 1.391 . S
C136 C140 1.387 . S
C136 C141 1.491 . S
H137 C138 0.950 . S
C138 C135 1.390 . S
C138 H137 0.950 . S
C138 C139 1.378 . S
C139 C138 1.378 . S
C139 C140 1.409 . S
C140 C136 1.387 . S
C140 C139 1.409 . S
C140 H142 0.951 . S
C141 C136 1.491 . S
C141 C143 1.382 . S
C141 C145 1.404 . S
H142 C140 0.951 . S
C143 C141 1.382 . S
C143 C144 1.390 . S
C143 H148 0.949 . S
C144 C143 1.390 . S
C144 C149 1.399 . S
C145 C141 1.404 . S
C145 H146 0.950 . S
C145 C147 1.375 . S
H146 C145 0.950 . S
C147 C145 1.375 . S
C147 C149 1.382 . S
C147 H151 0.950 . S
H148 C143 0.949 . S
C149 C144 1.399 . S
C149 C147 1.382 . S
C149 H150 0.952 . S
H150 C149 0.952 . S
H151 C147 0.950 . S
Zn152 O158 1.920 . S
Zn152 O164 1.898 . S
Zn152 O167 1.905 . S
Zn153 O161 1.921 . S
Zn153 O162 1.893 1_545 S
Zn153 O170 1.915 1_545 S
Zn154 O157 2.080 1_455 S
Zn154 O160 2.114 . S
Zn154 O163 2.120 1_445 S
Zn154 O165 2.120 . S
Zn154 O166 2.114 1_455 S
Zn154 O169 2.080 . S
C155 O160 1.166 . S
C155 O161 1.182 . S
C156 O162 1.167 1_655 S
C156 O163 1.299 . S
O157 Zn154 2.080 1_655 S
O157 C171 1.305 . S
O158 Zn152 1.920 . S
O158 C171 1.234 . S
C159 O164 1.167 1_455 S
C159 O165 1.299 . S
O160 Zn154 2.114 . S
O160 C155 1.166 . S
O161 Zn153 1.921 . S
O161 C155 1.182 . S
O162 Zn153 1.893 1_565 S
O162 C156 1.167 1_455 S
O163 Zn154 2.120 1_665 S
O163 C156 1.299 . S
O164 Zn152 1.898 . S
O164 C159 1.167 1_655 S
O165 Zn154 2.120 . S
O165 C159 1.299 . S
O166 Zn154 2.114 1_655 S
O166 C168 1.166 . S
O167 Zn152 1.905 . S
O167 C168 1.182 . S
C168 O166 1.166 . S
C168 O167 1.182 . S
O169 Zn154 2.080 . S
O169 C172 1.305 . S
O170 Zn153 1.915 1_565 S
O170 C172 1.234 1_565 S
C171 O157 1.305 . S
C171 O158 1.234 . S
C172 O169 1.305 . S
C172 O170 1.234 1_545 S
Zn173 O179 1.920 . S
Zn173 O185 1.898 . S
Zn173 O188 1.905 . S
Zn174 O182 1.905 1_565 S
Zn174 O183 1.898 . S
Zn174 O191 1.920 1_565 S
Zn175 O178 2.080 . S
Zn175 O181 2.114 . S
Zn175 O184 2.120 1_545 S
Zn175 O186 2.120 . S
Zn175 O187 2.114 . S
Zn175 O190 2.080 . S
C176 O181 1.166 . S
C176 O182 1.182 . S
C177 O183 1.167 . S
C177 O184 1.299 . S
O178 Zn175 2.080 . S
O178 C192 1.305 . S
O179 Zn173 1.920 . S
O179 C192 1.234 . S
C180 O185 1.167 . S
C180 O186 1.299 . S
O181 Zn175 2.114 . S
O181 C176 1.166 . S
O182 Zn174 1.905 1_545 S
O182 C176 1.182 . S
O183 Zn174 1.898 . S
O183 C177 1.167 . S
O184 Zn175 2.120 1_565 S
O184 C177 1.299 . S
O185 Zn173 1.898 . S
O185 C180 1.167 . S
O186 Zn175 2.120 . S
O186 C180 1.299 . S
O187 Zn175 2.114 . S
O187 C189 1.166 . S
O188 Zn173 1.905 . S
O188 C189 1.182 . S
C189 O187 1.166 . S
C189 O188 1.182 . S
O190 Zn175 2.080 . S
O190 C193 1.305 . S
O191 Zn174 1.920 1_545 S
O191 C193 1.234 . S
C192 O178 1.305 . S
C192 O179 1.234 . S
C193 O190 1.305 . S
C193 O191 1.234 . S
Zn194 O200 1.920 . S
Zn194 O206 1.898 . S
Zn194 O209 1.905 . S
Zn195 O203 1.905 . S
Zn195 O204 1.898 . S
Zn195 O212 1.920 . S
Zn196 O199 2.080 . S
Zn196 O202 2.114 . S
Zn196 O205 2.120 . S
Zn196 O207 2.120 . S
Zn196 O208 2.114 . S
Zn196 O211 2.080 . S
C197 O202 1.166 . S
C197 O203 1.182 . S
C198 O204 1.167 . S
C198 O205 1.299 . S
O199 Zn196 2.080 . S
O199 C213 1.305 . S
O200 Zn194 1.920 . S
O200 C213 1.234 . S
C201 O206 1.167 . S
C201 O207 1.299 . S
O202 Zn196 2.114 . S
O202 C197 1.166 . S
O203 Zn195 1.905 . S
O203 C197 1.182 . S
O204 Zn195 1.898 . S
O204 C198 1.167 . S
O205 Zn196 2.120 . S
O205 C198 1.299 . S
O206 Zn194 1.898 . S
O206 C201 1.167 . S
O207 Zn196 2.120 . S
O207 C201 1.299 . S
O208 Zn196 2.114 . S
O208 C210 1.166 . S
O209 Zn194 1.905 . S
O209 C210 1.182 . S
C210 O208 1.166 . S
C210 O209 1.182 . S
O211 Zn196 2.080 . S
O211 C214 1.305 . S
O212 Zn195 1.920 . S
O212 C214 1.234 . S
C213 O199 1.305 . S
C213 O200 1.234 . S
C214 O211 1.305 . S
C214 O212 1.234 . S
Zn215 O221 1.920 . S
Zn215 O227 1.898 1_556 S
Zn215 O230 1.905 . S
Zn216 O224 1.905 1_655 S
Zn216 O225 1.898 . S
Zn216 O233 1.920 . S
Zn217 O220 2.080 . S
Zn217 O223 2.114 . S
Zn217 O226 2.120 1_455 S
Zn217 O228 2.120 . S
Zn217 O229 2.114 1_554 S
Zn217 O232 2.080 . S
C218 O223 1.166 . S
C218 O224 1.182 . S
C219 O225 1.167 . S
C219 O226 1.299 . S
O220 Zn217 2.080 . S
O220 C234 1.306 . S
O221 Zn215 1.920 . S
O221 C234 1.222 1_556 S
C222 O227 1.167 . S
C222 O228 1.299 . S
O223 Zn217 2.114 . S
O223 C218 1.166 . S
O224 Zn216 1.905 1_455 S
O224 C218 1.182 . S
O225 Zn216 1.898 . S
O225 C219 1.167 . S
O226 Zn217 2.120 1_655 S
O226 C219 1.299 . S
O227 Zn215 1.898 1_554 S
O227 C222 1.167 . S
O228 Zn217 2.120 . S
O228 C222 1.299 . S
O229 Zn217 2.114 1_556 S
O229 C231 1.166 . S
O230 Zn215 1.905 . S
O230 C231 1.182 . S
C231 O229 1.166 . S
C231 O230 1.182 . S
O232 Zn217 2.080 . S
O232 C235 1.305 1_455 S
O233 Zn216 1.920 . S
O233 C235 1.234 . S
C234 O220 1.306 . S
C234 O221 1.222 1_554 S
C235 O232 1.305 1_655 S
C235 O233 1.234 . S
C236 C237 1.391 . S
C236 C238 1.394 . S
C236 H252 0.931 . S
C237 C236 1.391 . S
C237 C241 1.376 . S
C238 C236 1.394 . S
C238 C239 1.369 . S
C238 C242 1.531 . S
C239 C238 1.369 . S
C239 C240 1.410 . S
C239 C247 1.503 . S
C240 C239 1.410 . S
C240 C241 1.392 . S
C240 C243 1.511 . S
C241 C237 1.376 . S
C241 C240 1.392 . S
C241 H253 0.929 . S
C242 C238 1.531 . S
C242 H254 0.960 . S
C242 H255 0.962 . S
C242 H256 0.960 . S
C243 C240 1.511 . S
C243 H257 0.961 . S
C243 H258 0.961 . S
C243 H259 0.961 . S
C244 C245 1.370 . S
C244 C246 1.363 . S
C244 H260 0.931 . S
C245 C244 1.370 . S
C245 C249 1.408 . S
C246 C244 1.363 . S
C246 C247 1.370 . S
C246 C250 1.524 . S
C247 C239 1.503 . S
C247 C246 1.370 . S
C247 C248 1.403 . S
C248 C247 1.403 . S
C248 C249 1.404 . S
C248 C251 1.539 . S
C249 C245 1.408 . S
C249 C248 1.404 . S
C249 H261 0.930 . S
C250 C246 1.524 . S
C250 H262 0.956 . S
C250 H263 0.961 . S
C250 H264 0.961 . S
C251 C248 1.539 . S
C251 H265 0.958 . S
C251 H266 0.961 . S
C251 H267 0.960 . S
H252 C236 0.931 . S
H253 C241 0.929 . S
H254 C242 0.960 . S
H255 C242 0.962 . S
H256 C242 0.960 . S
H257 C243 0.961 . S
H258 C243 0.961 . S
H259 C243 0.961 . S
H260 C244 0.931 . S
H261 C249 0.930 . S
H262 C250 0.956 . S
H263 C250 0.961 . S
H264 C250 0.961 . S
H265 C251 0.958 . S
H266 C251 0.961 . S
H267 C251 0.960 . S
C268 C269 1.391 . S
C268 C270 1.394 . S
C268 H284 0.931 . S
C269 C268 1.391 . S
C269 C273 1.376 . S
C270 C268 1.394 . S
C270 C271 1.369 . S
C270 C274 1.531 . S
C271 C270 1.369 . S
C271 C272 1.410 . S
C271 C279 1.503 . S
C272 C271 1.410 . S
C272 C273 1.392 . S
C272 C275 1.511 . S
C273 C269 1.376 . S
C273 C272 1.392 . S
C273 H285 0.929 . S
C274 C270 1.531 . S
C274 H286 0.960 . S
C274 H287 0.962 . S
C274 H288 0.960 . S
C275 C272 1.511 . S
C275 H289 0.961 . S
C275 H290 0.961 . S
C275 H291 0.961 . S
C276 C277 1.370 . S
C276 C278 1.363 . S
C276 H292 0.931 1_565 S
C277 C276 1.370 . S
C277 C281 1.408 . S
C278 C276 1.363 . S
C278 C279 1.370 . S
C278 C282 1.524 . S
C279 C271 1.503 . S
C279 C278 1.370 . S
C279 C280 1.403 . S
C280 C279 1.403 . S
C280 C281 1.404 . S
C280 C283 1.539 . S
C281 C277 1.408 . S
C281 C280 1.404 . S
C281 H293 0.930 . S
C282 C278 1.524 . S
C282 H294 0.956 . S
C282 H295 0.961 1_565 S
C282 H296 0.961 1_565 S
C283 C280 1.539 . S
C283 H297 0.958 . S
C283 H298 0.961 . S
C283 H299 0.960 . S
H284 C268 0.931 . S
H285 C273 0.929 . S
H286 C274 0.960 . S
H287 C274 0.962 . S
H288 C274 0.960 . S
H289 C275 0.961 . S
H290 C275 0.961 . S
H291 C275 0.961 . S
H292 C276 0.931 1_545 S
H293 C281 0.930 . S
H294 C282 0.956 . S
H295 C282 0.961 1_545 S
H296 C282 0.961 1_545 S
H297 C283 0.958 . S
H298 C283 0.961 . S
H299 C283 0.960 . S
C300 C301 1.391 . S
C300 C302 1.394 . S
C300 H316 0.931 . S
C301 C300 1.391 . S
C301 C305 1.376 . S
C302 C300 1.394 . S
C302 C303 1.369 . S
C302 C306 1.531 . S
C303 C302 1.369 . S
C303 C304 1.410 . S
C303 C311 1.503 . S
C304 C303 1.410 . S
C304 C305 1.392 . S
C304 C307 1.511 . S
C305 C301 1.376 . S
C305 C304 1.392 . S
C305 H317 0.929 . S
C306 C302 1.531 . S
C306 H318 0.960 . S
C306 H319 0.962 . S
C306 H320 0.960 . S
C307 C304 1.511 . S
C307 H321 0.961 . S
C307 H322 0.961 . S
C307 H323 0.961 . S
C308 C309 1.370 . S
C308 C310 1.363 . S
C308 H324 0.931 . S
C309 C308 1.370 . S
C309 C313 1.408 . S
C310 C308 1.363 . S
C310 C311 1.370 . S
C310 C314 1.524 . S
C311 C303 1.503 . S
C311 C310 1.370 . S
C311 C312 1.403 . S
C312 C311 1.403 . S
C312 C313 1.404 . S
C312 C315 1.539 . S
C313 C309 1.408 . S
C313 C312 1.404 . S
C313 H325 0.930 . S
C314 C310 1.524 . S
C314 H326 0.956 . S
C314 H327 0.961 . S
C314 H328 0.961 . S
C315 C312 1.539 . S
C315 H329 0.958 . S
C315 H330 0.961 . S
C315 H331 0.960 . S
H316 C300 0.931 . S
H317 C305 0.929 . S
H318 C306 0.960 . S
H319 C306 0.962 . S
H320 C306 0.960 . S
H321 C307 0.961 . S
H322 C307 0.961 . S
H323 C307 0.961 . S
H324 C308 0.931 . S
H325 C313 0.930 . S
H326 C314 0.956 . S
H327 C314 0.961 . S
H328 C314 0.961 . S
H329 C315 0.958 . S
H330 C315 0.961 . S
H331 C315 0.960 . S
C332 C333 1.391 . S
C332 C334 1.394 . S
C332 H348 0.931 . S
C333 C332 1.391 . S
C333 C337 1.376 . S
C334 C332 1.394 . S
C334 C335 1.369 . S
C334 C338 1.531 . S
C335 C334 1.369 . S
C335 C336 1.410 . S
C335 C343 1.503 . S
C336 C335 1.410 . S
C336 C337 1.392 . S
C336 C339 1.511 . S
C337 C333 1.376 . S
C337 C336 1.392 . S
C337 H349 0.929 . S
C338 C334 1.531 . S
C338 H350 0.960 1_655 S
C338 H351 0.962 . S
C338 H352 0.960 1_655 S
C339 C336 1.511 . S
C339 H353 0.961 . S
C339 H354 0.961 . S
C339 H355 0.961 . S
C340 C341 1.370 . S
C340 C342 1.363 . S
C340 H356 0.931 . S
C341 C340 1.370 . S
C341 C345 1.408 . S
C342 C340 1.363 . S
C342 C343 1.370 . S
C342 C346 1.524 . S
C343 C335 1.503 . S
C343 C342 1.370 . S
C343 C344 1.403 . S
C344 C343 1.403 . S
C344 C345 1.404 . S
C344 C347 1.539 . S
C345 C341 1.408 . S
C345 C344 1.404 . S
C345 H357 0.944 . S
C346 C342 1.524 . S
C346 H358 0.956 . S
C346 H359 0.961 . S
C346 H360 0.961 . S
C347 C344 1.539 . S
C347 H361 0.958 . S
C347 H362 0.961 . S
C347 H363 0.960 . S
H348 C332 0.931 . S
H349 C337 0.929 . S
H350 C338 0.960 1_455 S
H351 C338 0.962 . S
H352 C338 0.960 1_455 S
H353 C339 0.961 . S
H354 C339 0.961 . S
H355 C339 0.961 . S
H356 C340 0.931 . S
H357 C345 0.944 . S
H358 C346 0.956 . S
H359 C346 0.961 . S
H360 C346 0.961 . S
H361 C347 0.958 . S
H362 C347 0.961 . S
H363 C347 0.960 . S
C364 C365 1.391 . S
C364 C366 1.394 . S
C364 H380 0.931 . S
C365 C364 1.391 . S
C365 C369 1.376 . S
C366 C364 1.394 . S
C366 C367 1.369 . S
C366 C370 1.531 . S
C367 C366 1.369 . S
C367 C368 1.410 . S
C367 C375 1.503 . S
C368 C367 1.410 . S
C368 C369 1.392 . S
C368 C371 1.511 . S
C369 C365 1.376 . S
C369 C368 1.392 . S
C369 H381 0.929 . S
C370 C366 1.531 . S
C370 H382 0.960 . S
C370 H383 0.962 . S
C370 H384 0.960 . S
C371 C368 1.511 . S
C371 H385 0.961 . S
C371 H386 0.961 . S
C371 H387 0.961 . S
C372 C373 1.370 . S
C372 C374 1.363 . S
C372 H388 0.931 . S
C373 C372 1.370 . S
C373 C377 1.408 . S
C374 C372 1.363 . S
C374 C375 1.370 . S
C374 C378 1.524 . S
C375 C367 1.503 . S
C375 C374 1.370 . S
C375 C376 1.403 . S
C376 C375 1.403 . S
C376 C377 1.404 . S
C376 C379 1.539 . S
C377 C373 1.408 . S
C377 C376 1.404 . S
C377 H389 0.930 . S
C378 C374 1.524 . S
C378 H390 0.956 . S
C378 H391 0.961 . S
C378 H392 0.961 . S
C379 C376 1.539 . S
C379 H393 0.958 . S
C379 H394 0.961 . S
C379 H395 0.960 . S
H380 C364 0.931 . S
H381 C369 0.929 . S
H382 C370 0.960 . S
H383 C370 0.962 . S
H384 C370 0.960 . S
H385 C371 0.961 . S
H386 C371 0.961 . S
H387 C371 0.961 . S
H388 C372 0.931 . S
H389 C377 0.930 . S
H390 C378 0.956 . S
H391 C378 0.961 . S
H392 C378 0.961 . S
H393 C379 0.958 . S
H394 C379 0.961 . S
H395 C379 0.960 . S
C396 C397 1.391 . S
C396 C398 1.394 . S
C396 H412 0.931 . S
C397 C396 1.391 . S
C397 C401 1.376 . S
C398 C396 1.394 . S
C398 C399 1.369 . S
C398 C402 1.531 . S
C399 C398 1.369 . S
C399 C400 1.410 . S
C399 C407 1.503 . S
C400 C399 1.410 . S
C400 C401 1.392 . S
C400 C403 1.511 1_565 S
C401 C397 1.376 . S
C401 C400 1.392 . S
C401 H413 0.929 . S
C402 C398 1.531 . S
C402 H414 0.960 . S
C402 H415 0.962 . S
C402 H416 0.960 . S
C403 C400 1.511 1_545 S
C403 H417 0.961 . S
C403 H418 0.961 . S
C403 H419 0.961 . S
C404 C405 1.370 1_565 S
C404 C406 1.363 . S
C404 H420 0.933 . S
C405 C404 1.370 1_545 S
C405 C409 1.410 . S
C406 C404 1.363 . S
C406 C407 1.370 . S
C406 C410 1.524 . S
C407 C399 1.503 . S
C407 C406 1.370 . S
C407 C408 1.403 . S
C408 C407 1.403 . S
C408 C409 1.395 1_565 S
C408 C411 1.539 . S
C409 C405 1.410 . S
C409 C408 1.395 1_545 S
C409 H421 0.937 . S
C410 C406 1.524 . S
C410 H422 0.956 . S
C410 H423 0.961 . S
C410 H424 0.961 . S
C411 C408 1.539 . S
C411 H425 0.958 . S
C411 H426 0.961 1_565 S
C411 H427 0.960 . S
H412 C396 0.931 . S
H413 C401 0.929 . S
H414 C402 0.960 . S
H415 C402 0.962 . S
H416 C402 0.960 . S
H417 C403 0.961 . S
H418 C403 0.961 . S
H419 C403 0.961 . S
H420 C404 0.933 . S
H421 C409 0.937 . S
H422 C410 0.956 . S
H423 C410 0.961 . S
H424 C410 0.961 . S
H425 C411 0.958 . S
H426 C411 0.961 1_545 S
H427 C411 0.960 . S
C428 C429 1.391 . S
C428 C430 1.394 . S
C428 H444 0.931 . S
C429 C428 1.391 . S
C429 C433 1.376 . S
C430 C428 1.394 . S
C430 C431 1.369 . S
C430 C434 1.531 . S
C431 C430 1.369 . S
C431 C432 1.410 . S
C431 C439 1.503 . S
C432 C431 1.410 . S
C432 C433 1.392 . S
C432 C435 1.511 . S
C433 C429 1.376 . S
C433 C432 1.392 . S
C433 H445 0.929 . S
C434 C430 1.531 . S
C434 H446 0.960 1_556 S
C434 H447 0.962 . S
C434 H448 0.960 1_556 S
C435 C432 1.511 . S
C435 H449 0.961 . S
C435 H450 0.961 . S
C435 H451 0.961 . S
C436 C437 1.370 . S
C436 C438 1.363 . S
C436 H452 0.931 . S
C437 C436 1.370 . S
C437 C441 1.408 1_556 S
C438 C436 1.363 . S
C438 C439 1.370 . S
C438 C442 1.524 . S
C439 C431 1.503 . S
C439 C438 1.370 . S
C439 C440 1.403 . S
C440 C439 1.403 . S
C440 C441 1.404 1_556 S
C440 C443 1.539 1_556 S
C441 C437 1.408 1_554 S
C441 C440 1.404 1_554 S
C441 H453 0.930 . S
C442 C438 1.524 . S
C442 H454 0.956 . S
C442 H455 0.961 . S
C442 H456 0.961 . S
C443 C440 1.539 1_554 S
C443 H457 0.958 . S
C443 H458 0.961 . S
C443 H459 0.963 . S
H444 C428 0.931 . S
H445 C433 0.929 . S
H446 C434 0.960 1_554 S
H447 C434 0.962 . S
H448 C434 0.960 1_554 S
H449 C435 0.961 . S
H450 C435 0.961 . S
H451 C435 0.961 . S
H452 C436 0.931 . S
H453 C441 0.930 . S
H454 C442 0.956 . S
H455 C442 0.961 . S
H456 C442 0.961 . S
H457 C443 0.958 . S
H458 C443 0.961 . S
H459 C443 0.963 . S
C460 C461 1.391 . S
C460 C462 1.394 . S
C460 H476 0.931 . S
C461 C460 1.391 . S
C461 C465 1.376 . S
C462 C460 1.394 . S
C462 C463 1.369 . S
C462 C466 1.531 . S
C463 C462 1.369 . S
C463 C464 1.410 . S
C463 C471 1.503 . S
C464 C463 1.410 . S
C464 C465 1.392 . S
C464 C467 1.511 . S
C465 C461 1.376 . S
C465 C464 1.392 . S
C465 H477 0.929 . S
C466 C462 1.531 . S
C466 H478 0.960 . S
C466 H479 0.962 . S
C466 H480 0.960 . S
C467 C464 1.511 . S
C467 H481 0.961 . S
C467 H482 0.961 . S
C467 H483 0.961 . S
C468 C469 1.370 . S
C468 C470 1.363 . S
C468 H484 0.931 . S
C469 C468 1.370 . S
C469 C473 1.408 . S
C470 C468 1.363 . S
C470 C471 1.370 . S
C470 C474 1.524 . S
C471 C463 1.503 . S
C471 C470 1.370 . S
C471 C472 1.403 . S
C472 C471 1.403 . S
C472 C473 1.404 . S
C472 C475 1.539 . S
C473 C469 1.408 . S
C473 C472 1.404 . S
C473 H485 0.930 . S
C474 C470 1.524 . S
C474 H486 0.956 . S
C474 H487 0.961 . S
C474 H488 0.961 . S
C475 C472 1.539 . S
C475 H489 0.958 . S
C475 H490 0.961 . S
C475 H491 0.960 . S
H476 C460 0.931 . S
H477 C465 0.929 . S
H478 C466 0.960 . S
H479 C466 0.962 . S
H480 C466 0.960 . S
H481 C467 0.961 . S
H482 C467 0.961 . S
H483 C467 0.961 . S
H484 C468 0.931 . S
H485 C473 0.930 . S
H486 C474 0.956 . S
H487 C474 0.961 . S
H488 C474 0.961 . S
H489 C475 0.958 . S
H490 C475 0.961 . S
H491 C475 0.960 . S
C492 C493 1.391 . S
C492 C494 1.394 . S
C492 H508 0.931 . S
C493 C492 1.391 . S
C493 C497 1.376 . S
C494 C492 1.394 . S
C494 C495 1.369 . S
C494 C498 1.531 . S
C495 C494 1.369 . S
C495 C496 1.410 . S
C495 C503 1.503 . S
C496 C495 1.410 . S
C496 C497 1.392 . S
C496 C499 1.511 . S
C497 C493 1.376 . S
C497 C496 1.392 . S
C497 H509 0.929 . S
C498 C494 1.531 . S
C498 H510 0.960 . S
C498 H511 0.962 . S
C498 H512 0.960 . S
C499 C496 1.511 . S
C499 H513 0.961 . S
C499 H514 0.961 . S
C499 H515 0.961 . S
C500 C501 1.370 . S
C500 C502 1.363 . S
C500 H516 0.931 . S
C501 C500 1.370 . S
C501 C505 1.408 . S
C502 C500 1.363 . S
C502 C503 1.370 . S
C502 C506 1.524 . S
C503 C495 1.503 . S
C503 C502 1.370 . S
C503 C504 1.403 . S
C504 C503 1.403 . S
C504 C505 1.404 . S
C504 C507 1.539 . S
C505 C501 1.408 . S
C505 C504 1.404 . S
C505 H517 0.930 . S
C506 C502 1.524 . S
C506 H518 0.956 . S
C506 H519 0.961 . S
C506 H520 0.961 . S
C507 C504 1.539 . S
C507 H521 0.958 . S
C507 H522 0.961 . S
C507 H523 0.960 . S
H508 C492 0.931 . S
H509 C497 0.929 . S
H510 C498 0.960 . S
H511 C498 0.962 . S
H512 C498 0.960 . S
H513 C499 0.961 . S
H514 C499 0.961 . S
H515 C499 0.961 . S
H516 C500 0.931 . S
H517 C505 0.930 . S
H518 C506 0.956 . S
H519 C506 0.961 . S
H520 C506 0.961 . S
H521 C507 0.958 . S
H522 C507 0.961 . S
H523 C507 0.960 . S
C524 C525 1.391 . S
C524 C526 1.394 . S
C524 H540 0.931 . S
C525 C524 1.391 . S
C525 C529 1.376 . S
C526 C524 1.394 . S
C526 C527 1.369 . S
C526 C530 1.531 . S
C527 C526 1.369 . S
C527 C528 1.410 . S
C527 C535 1.503 . S
C528 C527 1.410 . S
C528 C529 1.392 . S
C528 C531 1.511 1_556 S
C529 C525 1.376 . S
C529 C528 1.392 . S
C529 H541 0.929 . S
C530 C526 1.531 . S
C530 H542 0.960 . S
C530 H543 0.962 . S
C530 H544 0.960 . S
C531 C528 1.511 1_554 S
C531 H545 0.961 . S
C531 H546 0.961 . S
C531 H547 0.961 . S
C532 C533 1.370 . S
C532 C534 1.363 . S
C532 H548 0.931 . S
C533 C532 1.370 . S
C533 C537 1.408 . S
C534 C532 1.363 . S
C534 C535 1.370 1_554 S
C534 C538 1.524 . S
C535 C527 1.503 . S
C535 C534 1.370 1_556 S
C535 C536 1.403 . S
C536 C535 1.403 . S
C536 C537 1.404 1_556 S
C536 C539 1.539 . S
C537 C533 1.408 . S
C537 C536 1.404 1_554 S
C537 H549 0.939 . S
C538 C534 1.524 . S
C538 H550 0.956 . S
C538 H551 0.961 . S
C538 H552 0.961 . S
C539 C536 1.539 . S
C539 H553 0.958 . S
C539 H554 0.961 . S
C539 H555 0.960 . S
H540 C524 0.931 . S
H541 C529 0.929 . S
H542 C530 0.960 . S
H543 C530 0.962 . S
H544 C530 0.960 . S
H545 C531 0.961 . S
H546 C531 0.961 . S
H547 C531 0.961 . S
H548 C532 0.931 . S
H549 C537 0.939 . S
H550 C538 0.956 . S
H551 C538 0.961 . S
H552 C538 0.961 . S
H553 C539 0.958 . S
H554 C539 0.961 . S
H555 C539 0.960 . S
C556 C557 1.391 . S
C556 C558 1.394 . S
C556 H572 0.931 . S
C557 C556 1.391 . S
C557 C561 1.376 . S
C558 C556 1.394 . S
C558 C559 1.369 . S
C558 C562 1.531 . S
C559 C558 1.369 . S
C559 C560 1.410 . S
C559 C567 1.503 . S
C560 C559 1.410 . S
C560 C561 1.392 . S
C560 C563 1.511 . S
C561 C557 1.376 . S
C561 C560 1.392 . S
C561 H573 0.929 . S
C562 C558 1.531 . S
C562 H574 0.960 . S
C562 H575 0.962 . S
C562 H576 0.960 . S
C563 C560 1.511 . S
C563 H577 0.961 . S
C563 H578 0.961 . S
C563 H579 0.961 . S
C564 C565 1.370 . S
C564 C566 1.363 . S
C564 H580 0.931 . S
C565 C564 1.370 . S
C565 C569 1.408 . S
C566 C564 1.363 . S
C566 C567 1.370 . S
C566 C570 1.524 . S
C567 C559 1.503 . S
C567 C566 1.370 . S
C567 C568 1.403 . S
C568 C567 1.403 . S
C568 C569 1.404 . S
C568 C571 1.539 . S
C569 C565 1.408 . S
C569 C568 1.404 . S
C569 H581 0.930 . S
C570 C566 1.524 . S
C570 H582 0.956 . S
C570 H583 0.961 . S
C570 H584 0.961 . S
C571 C568 1.539 . S
C571 H585 0.958 . S
C571 H586 0.961 1_655 S
C571 H587 0.960 . S
H572 C556 0.931 . S
H573 C561 0.929 . S
H574 C562 0.960 . S
H575 C562 0.962 . S
H576 C562 0.960 . S
H577 C563 0.961 . S
H578 C563 0.961 . S
H579 C563 0.961 . S
H580 C564 0.931 . S
H581 C569 0.930 . S
H582 C570 0.956 . S
H583 C570 0.961 . S
H584 C570 0.961 . S
H585 C571 0.958 . S
H586 C571 0.961 1_455 S
H587 C571 0.960 . S
C588 C589 1.391 . S
C588 C590 1.394 . S
C588 H604 0.931 . S
C589 C588 1.391 . S
C589 C593 1.376 . S
C590 C588 1.394 . S
C590 C591 1.369 . S
C590 C594 1.531 . S
C591 C590 1.369 . S
C591 C592 1.410 . S
C591 C599 1.503 . S
C592 C591 1.410 . S
C592 C593 1.392 . S
C592 C595 1.511 . S
C593 C589 1.376 . S
C593 C592 1.392 . S
C593 H605 0.929 . S
C594 C590 1.531 . S
C594 H606 0.960 . S
C594 H607 0.962 . S
C594 H608 0.960 . S
C595 C592 1.511 . S
C595 H609 0.961 . S
C595 H610 0.961 . S
C595 H611 0.961 . S
C596 C597 1.370 . S
C596 C598 1.363 . S
C596 H612 0.931 . S
C597 C596 1.370 . S
C597 C601 1.408 . S
C598 C596 1.363 . S
C598 C599 1.370 . S
C598 C602 1.524 . S
C599 C591 1.503 . S
C599 C598 1.370 . S
C599 C600 1.403 . S
C600 C599 1.403 . S
C600 C601 1.404 . S
C600 C603 1.539 . S
C601 C597 1.408 . S
C601 C600 1.404 . S
C601 H613 0.930 . S
C602 C598 1.524 . S
C602 H614 0.956 . S
C602 H615 0.961 . S
C602 H616 0.961 . S
C603 C600 1.539 . S
C603 H617 0.958 . S
C603 H618 0.961 . S
C603 H619 0.960 . S
H604 C588 0.931 . S
H605 C593 0.929 . S
H606 C594 0.960 . S
H607 C594 0.962 . S
H608 C594 0.960 . S
H609 C595 0.961 . S
H610 C595 0.961 . S
H611 C595 0.961 . S
H612 C596 0.931 . S
H613 C601 0.930 . S
H614 C602 0.956 . S
H615 C602 0.961 . S
H616 C602 0.961 . S
H617 C603 0.958 . S
H618 C603 0.961 . S
H619 C603 0.960 . S
C620 C621 1.391 1_455 S
C620 C622 1.394 . S
C620 H636 0.931 . S
C621 C620 1.391 1_655 S
C621 C625 1.376 1_545 S
C622 C620 1.394 . S
C622 C623 1.369 1_455 S
C622 C626 1.531 . S
C623 C622 1.369 1_655 S
C623 C624 1.410 1_545 S
C623 C631 1.503 . S
C624 C623 1.410 1_565 S
C624 C625 1.392 . S
C624 C627 1.511 . S
C625 C621 1.376 1_565 S
C625 C624 1.392 . S
C625 H637 0.929 . S
C626 C622 1.531 . S
C626 H638 0.960 . S
C626 H639 0.962 . S
C626 H640 0.960 . S
C627 C624 1.511 . S
C627 H641 0.961 . S
C627 H642 0.961 . S
C627 H643 0.961 . S
C628 C629 1.370 . S
C628 C630 1.363 . S
C628 H644 0.931 . S
C629 C628 1.370 . S
C629 C633 1.408 1_545 S
C630 C628 1.363 . S
C630 C631 1.370 . S
C630 C634 1.524 . S
C631 C623 1.503 . S
C631 C630 1.370 . S
C631 C632 1.403 1_545 S
C632 C631 1.403 1_565 S
C632 C633 1.404 . S
C632 C635 1.539 1_655 S
C633 C629 1.408 1_565 S
C633 C632 1.404 . S
C633 H645 0.930 1_655 S
C634 C630 1.524 . S
C634 H646 0.956 . S
C634 H647 0.961 . S
C634 H648 0.961 . S
C635 C632 1.539 1_455 S
C635 H649 0.958 . S
C635 H650 0.959 1_455 S
C635 H651 0.960 1_455 S
H636 C620 0.931 . S
H637 C625 0.929 . S
H638 C626 0.960 . S
H639 C626 0.962 . S
H640 C626 0.960 . S
H641 C627 0.961 . S
H642 C627 0.961 . S
H643 C627 0.961 . S
H644 C628 0.931 . S
H645 C633 0.930 1_455 S
H646 C634 0.956 . S
H647 C634 0.961 . S
H648 C634 0.961 . S
H649 C635 0.958 . S
H650 C635 0.959 1_655 S
H651 C635 0.960 1_655 S
C652 C653 1.391 . S
C652 C654 1.394 . S
C652 H668 0.931 . S
C653 C652 1.391 . S
C653 C657 1.376 . S
C654 C652 1.394 . S
C654 C655 1.369 . S
C654 C658 1.531 . S
C655 C654 1.369 . S
C655 C656 1.410 . S
C655 C663 1.503 . S
C656 C655 1.410 . S
C656 C657 1.392 . S
C656 C659 1.511 . S
C657 C653 1.376 . S
C657 C656 1.392 . S
C657 H669 0.929 . S
C658 C654 1.531 . S
C658 H670 0.960 . S
C658 H671 0.962 . S
C658 H672 0.960 . S
C659 C656 1.511 . S
C659 H673 0.962 . S
C659 H674 0.961 . S
C659 H675 0.961 1_545 S
C660 C661 1.370 . S
C660 C662 1.363 . S
C660 H676 0.931 . S
C661 C660 1.370 . S
C661 C665 1.408 . S
C662 C660 1.363 . S
C662 C663 1.370 . S
C662 C666 1.524 . S
C663 C655 1.503 . S
C663 C662 1.370 . S
C663 C664 1.403 . S
C664 C663 1.403 . S
C664 C665 1.404 . S
C664 C667 1.539 . S
C665 C661 1.408 . S
C665 C664 1.404 . S
C665 H677 0.930 . S
C666 C662 1.524 . S
C666 H678 0.956 . S
C666 H679 0.961 . S
C666 H680 0.961 . S
C667 C664 1.539 . S
C667 H681 0.958 . S
C667 H682 0.961 1_545 S
C667 H683 0.960 . S
H668 C652 0.931 . S
H669 C657 0.929 . S
H670 C658 0.960 . S
H671 C658 0.962 . S
H672 C658 0.960 . S
H673 C659 0.962 . S
H674 C659 0.961 . S
H675 C659 0.961 1_565 S
H676 C660 0.931 . S
H677 C665 0.930 . S
H678 C666 0.956 . S
H679 C666 0.961 . S
H680 C666 0.961 . S
H681 C667 0.958 . S
H682 C667 0.961 1_565 S
H683 C667 0.960 . S
C684 C685 1.391 . S
C684 C686 1.394 . S
C684 H700 0.931 . S
C685 C684 1.391 . S
C685 C689 1.376 . S
C686 C684 1.394 . S
C686 C687 1.369 . S
C686 C690 1.531 . S
C687 C686 1.369 . S
C687 C688 1.410 . S
C687 C695 1.503 . S
C688 C687 1.410 . S
C688 C689 1.392 . S
C688 C691 1.511 . S
C689 C685 1.376 . S
C689 C688 1.392 . S
C689 H701 0.929 . S
C690 C686 1.531 . S
C690 H702 0.960 . S
C690 H703 0.962 . S
C690 H704 0.960 . S
C691 C688 1.511 . S
C691 H705 0.961 . S
C691 H706 0.961 . S
C691 H707 0.961 . S
C692 C693 1.370 . S
C692 C694 1.363 . S
C692 H708 0.931 . S
C693 C692 1.370 . S
C693 C697 1.408 . S
C694 C692 1.363 . S
C694 C695 1.370 . S
C694 C698 1.524 . S
C695 C687 1.503 . S
C695 C694 1.370 . S
C695 C696 1.403 . S
C696 C695 1.403 . S
C696 C697 1.404 . S
C696 C699 1.539 . S
C697 C693 1.408 . S
C697 C696 1.404 . S
C697 H709 0.930 . S
C698 C694 1.524 . S
C698 H710 0.956 . S
C698 H711 0.961 . S
C698 H712 0.961 . S
C699 C696 1.539 . S
C699 H713 0.958 . S
C699 H714 0.961 . S
C699 H715 0.960 . S
H700 C684 0.931 . S
H701 C689 0.929 . S
H702 C690 0.960 . S
H703 C690 0.962 . S
H704 C690 0.960 . S
H705 C691 0.961 . S
H706 C691 0.961 . S
H707 C691 0.961 . S
H708 C692 0.931 . S
H709 C697 0.930 . S
H710 C698 0.956 . S
H711 C698 0.961 . S
H712 C698 0.961 . S
H713 C699 0.958 . S
H714 C699 0.961 . S
H715 C699 0.960 . S
C716 C717 1.391 . S
C716 C718 1.394 . S
C716 H732 0.931 . S
C717 C716 1.391 . S
C717 C721 1.376 . S
C718 C716 1.394 . S
C718 C719 1.369 . S
C718 C722 1.531 . S
C719 C718 1.369 . S
C719 C720 1.410 . S
C719 C727 1.503 . S
C720 C719 1.410 . S
C720 C721 1.392 . S
C720 C723 1.511 1_455 S
C721 C717 1.376 . S
C721 C720 1.392 . S
C721 H733 0.929 . S
C722 C718 1.531 . S
C722 H734 0.960 . S
C722 H735 0.962 . S
C722 H736 0.960 . S
C723 C720 1.511 1_655 S
C723 H737 0.961 . S
C723 H738 0.957 1_655 S
C723 H739 0.961 . S
C724 C725 1.370 . S
C724 C726 1.363 . S
C724 H740 0.931 . S
C725 C724 1.370 . S
C725 C729 1.408 . S
C726 C724 1.363 . S
C726 C727 1.370 . S
C726 C730 1.524 . S
C727 C719 1.503 . S
C727 C726 1.370 . S
C727 C728 1.403 . S
C728 C727 1.403 . S
C728 C729 1.404 . S
C728 C731 1.539 . S
C729 C725 1.408 . S
C729 C728 1.404 . S
C729 H741 0.930 . S
C730 C726 1.524 . S
C730 H742 0.956 . S
C730 H743 0.961 . S
C730 H744 0.961 . S
C731 C728 1.539 . S
C731 H745 0.958 . S
C731 H746 0.954 1_455 S
C731 H747 0.960 . S
H732 C716 0.931 . S
H733 C721 0.929 . S
H734 C722 0.960 . S
H735 C722 0.962 . S
H736 C722 0.960 . S
H737 C723 0.961 . S
H738 C723 0.957 1_455 S
H739 C723 0.961 . S
H740 C724 0.931 . S
H741 C729 0.930 . S
H742 C730 0.956 . S
H743 C730 0.961 . S
H744 C730 0.961 . S
H745 C731 0.958 . S
H746 C731 0.954 1_655 S
H747 C731 0.960 . S
C748 C749 1.391 . S
C748 C750 1.394 . S
C748 H764 0.931 . S
C749 C748 1.391 . S
C749 C753 1.376 . S
C750 C748 1.394 . S
C750 C751 1.369 . S
C750 C754 1.531 . S
C751 C750 1.369 . S
C751 C752 1.410 . S
C751 C759 1.503 . S
C752 C751 1.410 . S
C752 C753 1.392 . S
C752 C755 1.511 1_554 S
C753 C749 1.376 . S
C753 C752 1.392 . S
C753 H765 0.929 1_554 S
C754 C750 1.531 . S
C754 H766 0.960 . S
C754 H767 0.962 . S
C754 H768 0.960 . S
C755 C752 1.511 1_556 S
C755 H769 0.961 . S
C755 H770 0.961 . S
C755 H771 0.961 . S
C756 C757 1.370 1_565 S
C756 C758 1.363 . S
C756 H772 0.931 . S
C757 C756 1.370 1_545 S
C757 C761 1.408 . S
C758 C756 1.363 . S
C758 C759 1.370 1_565 S
C758 C762 1.524 . S
C759 C751 1.503 . S
C759 C758 1.370 1_545 S
C759 C760 1.403 . S
C760 C759 1.403 . S
C760 C761 1.404 . S
C760 C763 1.539 . S
C761 C757 1.408 . S
C761 C760 1.404 . S
C761 H773 0.930 . S
C762 C758 1.524 . S
C762 H774 0.956 . S
C762 H775 0.961 . S
C762 H776 0.961 . S
C763 C760 1.539 . S
C763 H777 0.958 . S
C763 H778 0.961 . S
C763 H779 0.960 . S
H764 C748 0.931 . S
H765 C753 0.929 1_556 S
H766 C754 0.960 . S
H767 C754 0.962 . S
H768 C754 0.960 . S
H769 C755 0.961 . S
H770 C755 0.961 . S
H771 C755 0.961 . S
H772 C756 0.931 . S
H773 C761 0.930 . S
H774 C762 0.956 . S
H775 C762 0.961 . S
H776 C762 0.961 . S
H777 C763 0.958 . S
H778 C763 0.961 . S
H779 C763 0.960 . S
C780 C781 1.391 . S
C780 C782 1.394 . S
C780 H796 0.931 . S
C781 C780 1.391 . S
C781 C785 1.376 . S
C782 C780 1.394 . S
C782 C783 1.369 . S
C782 C786 1.531 . S
C783 C782 1.369 . S
C783 C784 1.410 . S
C783 C791 1.503 . S
C784 C783 1.410 . S
C784 C785 1.392 . S
C784 C787 1.511 . S
C785 C781 1.376 . S
C785 C784 1.392 . S
C785 H797 0.929 . S
C786 C782 1.531 . S
C786 H798 0.960 . S
C786 H799 0.962 . S
C786 H800 0.960 1_545 S
C787 C784 1.511 . S
C787 H801 0.961 . S
C787 H802 0.961 . S
C787 H803 0.961 . S
C788 C789 1.370 . S
C788 C790 1.363 . S
C788 H804 0.931 . S
C789 C788 1.370 . S
C789 C793 1.408 . S
C790 C788 1.363 . S
C790 C791 1.370 . S
C790 C794 1.524 . S
C791 C783 1.503 . S
C791 C790 1.370 . S
C791 C792 1.403 . S
C792 C791 1.403 . S
C792 C793 1.404 . S
C792 C795 1.539 . S
C793 C789 1.408 . S
C793 C792 1.404 . S
C793 H805 0.930 . S
C794 C790 1.524 . S
C794 H806 0.956 . S
C794 H807 0.961 . S
C794 H808 0.961 . S
C795 C792 1.539 . S
C795 H809 0.958 . S
C795 H810 0.961 . S
C795 H811 0.960 . S
H796 C780 0.931 . S
H797 C785 0.929 . S
H798 C786 0.960 . S
H799 C786 0.962 . S
H800 C786 0.960 1_565 S
H801 C787 0.961 . S
H802 C787 0.961 . S
H803 C787 0.961 . S
H804 C788 0.931 . S
H805 C793 0.930 . S
H806 C794 0.956 . S
H807 C794 0.961 . S
H808 C794 0.961 . S
H809 C795 0.958 . S
H810 C795 0.961 . S
H811 C795 0.960 . S
C812 C813 1.391 . S
C812 C814 1.394 . S
C812 H828 0.931 . S
C813 C812 1.391 . S
C813 C817 1.376 . S
C814 C812 1.394 . S
C814 C815 1.369 . S
C814 C818 1.531 . S
C815 C814 1.369 . S
C815 C816 1.410 . S
C815 C823 1.503 . S
C816 C815 1.410 . S
C816 C817 1.392 . S
C816 C819 1.511 . S
C817 C813 1.376 . S
C817 C816 1.392 . S
C817 H829 0.929 . S
C818 C814 1.531 . S
C818 H830 0.960 . S
C818 H831 0.962 . S
C818 H832 0.960 . S
C819 C816 1.511 . S
C819 H833 0.961 . S
C819 H834 0.961 . S
C819 H835 0.961 . S
C820 C821 1.370 . S
C820 C822 1.363 . S
C820 H836 0.931 . S
C821 C820 1.370 . S
C821 C825 1.408 . S
C822 C820 1.363 . S
C822 C823 1.370 . S
C822 C826 1.524 . S
C823 C815 1.503 . S
C823 C822 1.370 . S
C823 C824 1.403 . S
C824 C823 1.403 . S
C824 C825 1.404 . S
C824 C827 1.539 . S
C825 C821 1.408 . S
C825 C824 1.404 . S
C825 H837 0.930 . S
C826 C822 1.524 . S
C826 H838 0.956 . S
C826 H839 0.961 . S
C826 H840 0.961 . S
C827 C824 1.539 . S
C827 H841 0.958 . S
C827 H842 0.961 . S
C827 H843 0.960 . S
H828 C812 0.931 . S
H829 C817 0.929 . S
H830 C818 0.960 . S
H831 C818 0.962 . S
H832 C818 0.960 . S
H833 C819 0.961 . S
H834 C819 0.961 . S
H835 C819 0.961 . S
H836 C820 0.931 . S
H837 C825 0.930 . S
H838 C826 0.956 . S
H839 C826 0.961 . S
H840 C826 0.961 . S
H841 C827 0.958 . S
H842 C827 0.961 . S
H843 C827 0.960 . S
C844 C845 1.391 . S
C844 C846 1.394 . S
C844 H860 0.931 . S
C845 C844 1.391 . S
C845 C849 1.376 . S
C846 C844 1.394 . S
C846 C847 1.369 . S
C846 C850 1.531 . S
C847 C846 1.369 . S
C847 C848 1.410 . S
C847 C855 1.503 . S
C848 C847 1.410 . S
C848 C849 1.392 . S
C848 C851 1.511 . S
C849 C845 1.376 . S
C849 C848 1.392 . S
C849 H861 0.929 . S
C850 C846 1.531 . S
C850 H862 0.960 . S
C850 H863 0.962 . S
C850 H864 0.960 . S
C851 C848 1.511 . S
C851 H865 0.961 . S
C851 H866 0.961 . S
C851 H867 0.961 . S
C852 C853 1.370 . S
C852 C854 1.363 . S
C852 H868 0.931 . S
C853 C852 1.370 . S
C853 C857 1.408 . S
C854 C852 1.363 . S
C854 C855 1.370 . S
C854 C858 1.524 . S
C855 C847 1.503 . S
C855 C854 1.370 . S
C855 C856 1.403 . S
C856 C855 1.403 . S
C856 C857 1.404 . S
C856 C859 1.539 . S
C857 C853 1.408 . S
C857 C856 1.404 . S
C857 H869 0.930 . S
C858 C854 1.524 . S
C858 H870 0.956 . S
C858 H871 0.961 . S
C858 H872 0.961 . S
C859 C856 1.539 . S
C859 H873 0.958 . S
C859 H874 0.961 . S
C859 H875 0.960 . S
H860 C844 0.931 . S
H861 C849 0.929 . S
H862 C850 0.960 . S
H863 C850 0.962 . S
H864 C850 0.960 . S
H865 C851 0.961 . S
H866 C851 0.961 . S
H867 C851 0.961 . S
H868 C852 0.931 . S
H869 C857 0.930 . S
H870 C858 0.956 . S
H871 C858 0.961 . S
H872 C858 0.961 . S
H873 C859 0.958 . S
H874 C859 0.961 . S
H875 C859 0.960 . S
C876 C877 1.391 1_455 S
C876 C878 1.394 1_556 S
C876 H892 0.931 1_556 S
C877 C876 1.391 1_655 S
C877 C881 1.376 . S
C878 C876 1.394 1_554 S
C878 C879 1.369 1_454 S
C878 C882 1.531 . S
C879 C878 1.369 1_656 S
C879 C880 1.410 . S
C879 C887 1.503 1_655 S
C880 C879 1.410 . S
C880 C881 1.392 . S
C880 C883 1.511 . S
C881 C877 1.376 . S
C881 C880 1.392 . S
C881 H893 0.929 . S
C882 C878 1.531 . S
C882 H894 0.960 . S
C882 H895 0.962 . S
C882 H896 0.960 . S
C883 C880 1.511 . S
C883 H897 0.961 . S
C883 H898 0.961 . S
C883 H899 0.961 . S
C884 C885 1.370 1_556 S
C884 C886 1.363 . S
C884 H900 0.931 . S
C885 C884 1.370 1_554 S
C885 C889 1.412 . S
C886 C884 1.363 . S
C886 C887 1.370 . S
C886 C890 1.524 . S
C887 C879 1.503 1_455 S
C887 C886 1.370 . S
C887 C888 1.403 1_456 S
C888 C887 1.403 1_654 S
C888 C889 1.402 1_655 S
C888 C891 1.539 . S
C889 C885 1.412 . S
C889 C888 1.402 1_455 S
C889 H901 0.928 1_455 S
C890 C886 1.524 . S
C890 H902 0.956 . S
C890 H903 0.961 . S
C890 H904 0.961 . S
C891 C888 1.539 . S
C891 H905 0.958 . S
C891 H906 0.961 . S
C891 H907 0.960 . S
H892 C876 0.931 1_554 S
H893 C881 0.929 . S
H894 C882 0.960 . S
H895 C882 0.962 . S
H896 C882 0.960 . S
H897 C883 0.961 . S
H898 C883 0.961 . S
H899 C883 0.961 . S
H900 C884 0.931 . S
H901 C889 0.928 1_655 S
H902 C890 0.956 . S
H903 C890 0.961 . S
H904 C890 0.961 . S
H905 C891 0.958 . S
H906 C891 0.961 . S
H907 C891 0.960 . S
C908 C909 1.391 . S
C908 C910 1.394 . S
C908 H924 0.931 . S
C909 C908 1.391 . S
C909 C913 1.376 . S
C910 C908 1.394 . S
C910 C911 1.369 . S
C910 C914 1.531 . S
C911 C910 1.369 . S
C911 C912 1.410 . S
C911 C919 1.503 . S
C912 C911 1.410 . S
C912 C913 1.392 . S
C912 C915 1.511 . S
C913 C909 1.376 . S
C913 C912 1.392 . S
C913 H925 0.929 . S
C914 C910 1.531 . S
C914 H926 0.960 . S
C914 H927 0.962 . S
C914 H928 0.960 . S
C915 C912 1.511 . S
C915 H929 0.961 . S
C915 H930 0.961 . S
C915 H931 0.961 . S
C916 C917 1.370 . S
C916 C918 1.363 . S
C916 H932 0.931 . S
C917 C916 1.370 . S
C917 C921 1.408 . S
C918 C916 1.363 . S
C918 C919 1.370 . S
C918 C922 1.524 . S
C919 C911 1.503 . S
C919 C918 1.370 . S
C919 C920 1.403 . S
C920 C919 1.403 . S
C920 C921 1.404 . S
C920 C923 1.539 . S
C921 C917 1.408 . S
C921 C920 1.404 . S
C921 H933 0.930 . S
C922 C918 1.524 . S
C922 H934 0.956 . S
C922 H935 0.961 . S
C922 H936 0.961 . S
C923 C920 1.539 . S
C923 H937 0.958 . S
C923 H938 0.961 . S
C923 H939 0.960 . S
H924 C908 0.931 . S
H925 C913 0.929 . S
H926 C914 0.960 . S
H927 C914 0.962 . S
H928 C914 0.960 . S
H929 C915 0.961 . S
H930 C915 0.961 . S
H931 C915 0.961 . S
H932 C916 0.931 . S
H933 C921 0.930 . S
H934 C922 0.956 . S
H935 C922 0.961 . S
H936 C922 0.961 . S
H937 C923 0.958 . S
H938 C923 0.961 . S
H939 C923 0.960 . S
C940 C941 1.391 . S
C940 C942 1.394 . S
C940 H956 0.931 . S
C941 C940 1.391 . S
C941 C945 1.376 . S
C942 C940 1.394 . S
C942 C943 1.369 . S
C942 C946 1.531 . S
C943 C942 1.369 . S
C943 C944 1.410 . S
C943 C951 1.503 . S
C944 C943 1.410 . S
C944 C945 1.392 . S
C944 C947 1.511 1_455 S
C945 C941 1.376 . S
C945 C944 1.392 . S
C945 H957 0.929 . S
C946 C942 1.531 . S
C946 H958 0.960 . S
C946 H959 0.962 . S
C946 H960 0.960 . S
C947 C944 1.511 1_655 S
C947 H961 0.961 . S
C947 H962 0.961 . S
C947 H963 0.961 . S
C948 C949 1.370 . S
C948 C950 1.363 . S
C948 H964 0.931 . S
C949 C948 1.370 . S
C949 C953 1.408 . S
C950 C948 1.363 . S
C950 C951 1.370 . S
C950 C954 1.524 . S
C951 C943 1.503 . S
C951 C950 1.370 . S
C951 C952 1.403 . S
C952 C951 1.403 . S
C952 C953 1.404 . S
C952 C955 1.539 . S
C953 C949 1.408 . S
C953 C952 1.404 . S
C953 H965 0.930 . S
C954 C950 1.524 . S
C954 H966 0.956 . S
C954 H967 0.961 . S
C954 H968 0.961 . S
C955 C952 1.539 . S
C955 H969 0.958 . S
C955 H970 0.961 . S
C955 H971 0.960 . S
H956 C940 0.931 . S
H957 C945 0.929 . S
H958 C946 0.960 . S
H959 C946 0.962 . S
H960 C946 0.960 . S
H961 C947 0.961 . S
H962 C947 0.961 . S
H963 C947 0.961 . S
H964 C948 0.931 . S
H965 C953 0.930 . S
H966 C954 0.956 . S
H967 C954 0.961 . S
H968 C954 0.961 . S
H969 C955 0.958 . S
H970 C955 0.961 . S
H971 C955 0.960 . S
C972 C973 1.391 . S
C972 C974 1.394 . S
C972 H988 0.931 . S
C973 C972 1.391 . S
C973 C977 1.376 . S
C974 C972 1.394 . S
C974 C975 1.369 . S
C974 C978 1.531 . S
C975 C974 1.369 . S
C975 C976 1.410 . S
C975 C983 1.503 . S
C976 C975 1.410 . S
C976 C977 1.392 . S
C976 C979 1.511 . S
C977 C973 1.376 . S
C977 C976 1.392 . S
C977 H989 0.929 . S
C978 C974 1.531 . S
C978 H990 0.960 . S
C978 H991 0.962 . S
C978 H992 0.960 . S
C979 C976 1.511 . S
C979 H993 0.961 . S
C979 H994 0.961 . S
C979 H995 0.961 . S
C980 C981 1.370 . S
C980 C982 1.363 . S
C980 H996 0.931 . S
C981 C980 1.370 . S
C981 C985 1.408 . S
C982 C980 1.363 . S
C982 C983 1.370 . S
C982 C986 1.524 . S
C983 C975 1.503 . S
C983 C982 1.370 . S
C983 C984 1.403 . S
C984 C983 1.403 . S
C984 C985 1.404 . S
C984 C987 1.539 . S
C985 C981 1.408 . S
C985 C984 1.404 . S
C985 H997 0.930 . S
C986 C982 1.524 . S
C986 H998 0.956 . S
C986 H999 0.961 . S
C986 H1000 0.961 . S
C987 C984 1.539 . S
C987 H1001 0.958 . S
C987 H1002 0.961 . S
C987 H1003 0.960 . S
H988 C972 0.931 . S
H989 C977 0.929 . S
H990 C978 0.960 . S
H991 C978 0.962 . S
H992 C978 0.960 . S
H993 C979 0.961 . S
H994 C979 0.961 . S
H995 C979 0.961 . S
H996 C980 0.931 . S
H997 C985 0.930 . S
H998 C986 0.956 . S
H999 C986 0.961 . S
H1000 C986 0.961 . S
H1001 C987 0.958 . S
H1002 C987 0.961 . S
H1003 C987 0.960 . S
C237 C6 1.811 . S
C245 C155 1.692 . S
C269 C21 2.042 . S
C277 C189 1.903 1_566 S
C309 C201 0.881 . S
C301 C49 0.883 . S
C333 C68 1.231 . S
C341 C235 1.176 . S
C373 C192 2.072 . S
C365 C2 2.255 . S
C405 C172 1.249 . S
C397 C30 1.182 . S
C437 C219 1.195 1_556 S
C429 C40 1.351 . S
C469 C210 1.313 . S
C461 C63 1.369 . S
C493 C11 1.475 . S
C501 C218 1.513 . S
C533 C180 1.566 . S
C525 C44 1.678 . S
C557 C59 1.159 . S
C565 C156 1.058 . S
C589 C25 1.803 . S
C597 C213 1.697 . S
C629 C171 1.992 . S
C621 C82 2.072 1_545 S
C653 C101 1.840 . S
C661 C193 1.682 . S
C685 C125 1.459 . S
C693 C198 1.376 . S
C717 C144 1.127 . S
C725 C231 1.161 . S
C749 C87 1.258 . S
C757 C176 1.403 . S
C789 C168 2.084 . S
C781 C97 2.204 . S
C821 C222 1.402 . S
C813 C120 1.443 . S
C853 C214 1.314 . S
C845 C135 1.450 . S
C877 C78 1.916 . S
C885 C234 1.840 . S
C917 C177 1.226 . S
C909 C116 1.255 . S
C949 C159 1.614 . S
C941 C139 1.717 . S
C973 C106 1.554 . S
C981 C197 1.527 . S
