# Generated by pormake.
# Topology ant, (3,6)-cn, num edge types: 1
# Building blocks:
#     Node 0, Type 0, BuildingBlock: CUQRIR_clean_linker_1, # of connection points: 3
#     Node 1, Type 0, BuildingBlock: CUQRIR_clean_linker_1, # of connection points: 3
#     Node 2, Type 0, BuildingBlock: CUQRIR_clean_linker_1, # of connection points: 3
#     Node 3, Type 0, BuildingBlock: CUQRIR_clean_linker_1, # of connection points: 3
#     Node 4, Type 0, BuildingBlock: CUQRIR_clean_linker_1, # of connection points: 3
#     Node 5, Type 0, BuildingBlock: CUQRIR_clean_linker_1, # of connection points: 3
#     Node 6, Type 0, BuildingBlock: CUQRIR_clean_linker_1, # of connection points: 3
#     Node 7, Type 0, BuildingBlock: CUQRIR_clean_linker_1, # of connection points: 3
#     Node 8, Type 1, BuildingBlock: MIDCAF_clean_sbu_0, # of connection points: 6
#     Node 9, Type 1, BuildingBlock: MIDCAF_clean_sbu_0, # of connection points: 6
#     Node 10, Type 1, BuildingBlock: MIDCAF_clean_sbu_0, # of connection points: 6
#     Node 11, Type 1, BuildingBlock: MIDCAF_clean_sbu_0, # of connection points: 6
#     Edge 12, Type (0, 1), BuildingBlock: TEMPAE_clean_linker_10, # of connection points: 2
#     Edge 13, Type (0, 1), BuildingBlock: TEMPAE_clean_linker_10, # of connection points: 2
#     Edge 14, Type (0, 1), BuildingBlock: TEMPAE_clean_linker_10, # of connection points: 2
#     Edge 15, Type (0, 1), BuildingBlock: TEMPAE_clean_linker_10, # of connection points: 2
#     Edge 16, Type (0, 1), BuildingBlock: TEMPAE_clean_linker_10, # of connection points: 2
#     Edge 17, Type (0, 1), BuildingBlock: TEMPAE_clean_linker_10, # of connection points: 2
#     Edge 18, Type (0, 1), BuildingBlock: TEMPAE_clean_linker_10, # of connection points: 2
#     Edge 19, Type (0, 1), BuildingBlock: TEMPAE_clean_linker_10, # of connection points: 2
#     Edge 20, Type (0, 1), BuildingBlock: TEMPAE_clean_linker_10, # of connection points: 2
#     Edge 21, Type (0, 1), BuildingBlock: TEMPAE_clean_linker_10, # of connection points: 2
#     Edge 22, Type (0, 1), BuildingBlock: TEMPAE_clean_linker_10, # of connection points: 2
#     Edge 23, Type (0, 1), BuildingBlock: TEMPAE_clean_linker_10, # of connection points: 2
#     Edge 24, Type (0, 1), BuildingBlock: TEMPAE_clean_linker_10, # of connection points: 2
#     Edge 25, Type (0, 1), BuildingBlock: TEMPAE_clean_linker_10, # of connection points: 2
#     Edge 26, Type (0, 1), BuildingBlock: TEMPAE_clean_linker_10, # of connection points: 2
#     Edge 27, Type (0, 1), BuildingBlock: TEMPAE_clean_linker_10, # of connection points: 2
#     Edge 28, Type (0, 1), BuildingBlock: TEMPAE_clean_linker_10, # of connection points: 2
#     Edge 29, Type (0, 1), BuildingBlock: TEMPAE_clean_linker_10, # of connection points: 2
#     Edge 30, Type (0, 1), BuildingBlock: TEMPAE_clean_linker_10, # of connection points: 2
#     Edge 31, Type (0, 1), BuildingBlock: TEMPAE_clean_linker_10, # of connection points: 2
#     Edge 32, Type (0, 1), BuildingBlock: TEMPAE_clean_linker_10, # of connection points: 2
#     Edge 33, Type (0, 1), BuildingBlock: TEMPAE_clean_linker_10, # of connection points: 2
#     Edge 34, Type (0, 1), BuildingBlock: TEMPAE_clean_linker_10, # of connection points: 2
#     Edge 35, Type (0, 1), BuildingBlock: TEMPAE_clean_linker_10, # of connection points: 2
# Relax obj value: 0.110
# Max RMSD: 0.219
# Mean RMSD: 0.147
data_MOF--net-ant--node1-MIDCAF_clean_sbu_0--node2-CUQRIR_clean_linker_1--edge1-TEMPAE_clean_linker_10
_symmetry_space_group_name_H-M    P1
_symmetry_Int_Tables_number       1
_symmetry_cell_setting            triclinic
loop_
_symmetry_equiv_pos_as_xyz
'x, y, z'
_cell_length_a     26.974293
_cell_length_b     26.837482
_cell_length_c     67.159294
_cell_angle_alpha  84.870274
_cell_angle_beta   93.916957
_cell_angle_gamma 89.877693
loop_
_atom_site_label
_atom_site_type_symbol
_atom_site_fract_x
_atom_site_fract_y
_atom_site_fract_z
_atom_type_partial_charge
C0 C 0.14607 0.28929 0.07647 0.0
N1 N 0.14272 0.24629 0.06726 0.0
N2 N 0.12648 0.32841 0.06419 0.0
C3 C 0.16926 0.29323 0.09728 0.0
C4 C 0.11088 0.30755 0.04723 0.0
N5 N 0.12011 0.25757 0.04918 0.0
C6 C 0.08774 0.33602 0.02854 0.0
H7 H 0.16269 0.25868 0.10707 0.0
H8 H 0.15466 0.32584 0.1041 0.0
H9 H 0.20994 0.29794 0.0965 0.0
H10 H 0.09239 0.37697 0.02872 0.0
H11 H 0.04736 0.32815 0.02728 0.0
H12 H 0.10412 0.32342 0.01511 0.0
C13 C 0.07325 0.80428 0.33964 0.0
N14 N 0.10982 0.8055 0.32673 0.0
N15 N 0.02779 0.80365 0.32958 0.0
C16 C 0.08201 0.80608 0.3619 0.0
C17 C 0.03828 0.8042 0.31011 0.0
N18 N 0.08782 0.80614 0.30842 0.0
C19 C 0.00074 0.7965 0.29296 0.0
H20 H 0.08672 0.76738 0.36912 0.0
H21 H 0.05005 0.8239 0.36815 0.0
H22 H 0.11641 0.82704 0.3655 0.0
H23 H 0.98641 0.83348 0.28628 0.0
H24 H 0.96907 0.7737 0.29814 0.0
H25 H 0.01772 0.77754 0.28104 0.0
C26 C 0.67932 0.76801 0.5724 0.0
N27 N 0.67441 0.72541 0.56302 0.0
N28 N 0.65256 0.80595 0.56211 0.0
C29 C 0.7138 0.77369 0.59064 0.0
C30 C 0.63136 0.78494 0.54605 0.0
N31 N 0.64469 0.73606 0.54652 0.0
C32 C 0.59458 0.81114 0.53073 0.0
H33 H 0.69265 0.76798 0.60425 0.0
H34 H 0.72983 0.8118 0.59006 0.0
H35 H 0.74442 0.74568 0.59188 0.0
H36 H 0.61484 0.82958 0.51829 0.0
H37 H 0.57355 0.84025 0.53744 0.0
H38 H 0.56808 0.7841 0.52444 0.0
C39 C 0.56884 0.31114 0.83417 0.0
N40 N 0.60708 0.3079 0.82221 0.0
N41 N 0.52441 0.30816 0.82345 0.0
C42 C 0.57501 0.31971 0.856 0.0
C43 C 0.53729 0.30244 0.80463 0.0
N44 N 0.58712 0.3031 0.80389 0.0
C45 C 0.50172 0.29056 0.78739 0.0
H46 H 0.57821 0.28302 0.86503 0.0
H47 H 0.54253 0.34029 0.86056 0.0
H48 H 0.60941 0.34103 0.8592 0.0
H49 H 0.48877 0.32604 0.77885 0.0
H50 H 0.46901 0.26984 0.7928 0.0
H51 H 0.51999 0.26778 0.77695 0.0
C52 C 0.02672 0.68651 0.90819 0.0
N53 N 0.0402 0.71603 0.92309 0.0
N54 N 0.02282 0.63815 0.91563 0.0
C55 C 0.01547 0.70471 0.88655 0.0
C56 C 0.03448 0.63897 0.93547 0.0
N57 N 0.0445 0.68616 0.94007 0.0
C58 C 0.03789 0.59315 0.95022 0.0
H59 H 0.98979 0.67888 0.87904 0.0
H60 H 0.05057 0.70613 0.87882 0.0
H61 H 0.99886 0.74284 0.88512 0.0
H62 H 0.06705 0.59756 0.96239 0.0
H63 H 0.04605 0.55907 0.94278 0.0
H64 H 0.00169 0.58777 0.95699 0.0
C65 C 0.67032 0.8245 0.16707 0.0
N66 N 0.7051 0.81171 0.18243 0.0
N67 N 0.62459 0.82967 0.17399 0.0
C68 C 0.67981 0.82691 0.1452 0.0
C69 C 0.63285 0.81996 0.19404 0.0
N70 N 0.68119 0.80813 0.1992 0.0
C71 C 0.59341 0.8231 0.20875 0.0
H72 H 0.6885 0.86605 0.13991 0.0
H73 H 0.64642 0.81546 0.13621 0.0
H74 H 0.7117 0.80259 0.1427 0.0
H75 H 0.57543 0.78614 0.21123 0.0
H76 H 0.56437 0.85096 0.20284 0.0
H77 H 0.60993 0.83357 0.22337 0.0
C78 C 0.50536 0.18368 0.40695 0.0
N79 N 0.51984 0.21227 0.42197 0.0
N80 N 0.50214 0.13502 0.41407 0.0
C81 C 0.49619 0.20272 0.38531 0.0
C82 C 0.51549 0.13496 0.43384 0.0
N83 N 0.52585 0.18175 0.43866 0.0
C84 C 0.52096 0.08874 0.44825 0.0
H85 H 0.46985 0.1782 0.37742 0.0
H86 H 0.53188 0.20274 0.37802 0.0
H87 H 0.48138 0.24159 0.3839 0.0
H88 H 0.55978 0.07472 0.44864 0.0
H89 H 0.49567 0.05888 0.44341 0.0
H90 H 0.5132 0.0973 0.46361 0.0
C91 C 0.17575 0.31189 0.66167 0.0
N92 N 0.21039 0.29857 0.67704 0.0
N93 N 0.13029 0.31863 0.66863 0.0
C94 C 0.18485 0.31305 0.6398 0.0
C95 C 0.13854 0.3092 0.68867 0.0
N96 N 0.18659 0.29625 0.69384 0.0
C97 C 0.09904 0.31217 0.70336 0.0
H98 H 0.1945 0.35174 0.63423 0.0
H99 H 0.15096 0.3022 0.63096 0.0
H100 H 0.21596 0.28765 0.63738 0.0
H101 H 0.0813 0.27509 0.70585 0.0
H102 H 0.06986 0.33988 0.69745 0.0
H103 H 0.11554 0.3227 0.71797 0.0
Zn104 Zn 0.22044 0.72551 0.13798 0.0
Zn105 Zn 0.09867 0.83487 0.11065 0.0
Zn106 Zn 0.15913 0.7806 0.12417 0.0
C107 C 0.12185 0.78344 0.07937 0.0
C108 C 0.17108 0.89696 0.11996 0.0
O109 O 0.13823 0.76502 0.15499 0.0
O110 O 0.21457 0.74255 0.16596 0.0
C111 C 0.16928 0.66674 0.11394 0.0
O112 O 0.1373 0.75344 0.09463 0.0
O113 O 0.10853 0.82721 0.08218 0.0
O114 O 0.12478 0.89663 0.12159 0.0
O115 O 0.19379 0.85545 0.11819 0.0
O116 O 0.1946 0.6611 0.13048 0.0
O117 O 0.15557 0.71145 0.10687 0.0
O118 O 0.23411 0.81938 0.12564 0.0
O119 O 0.27952 0.75166 0.12466 0.0
C120 C 0.27676 0.79868 0.12397 0.0
O121 O 0.09353 0.78028 0.14456 0.0
O122 O 0.03703 0.80678 0.1208 0.0
C123 C 0.17137 0.75559 0.16958 0.0
C124 C 0.0473 0.78788 0.13844 0.0
Zn125 Zn 0.54321 0.64465 0.34503 0.0
Zn126 Zn 0.61437 0.73927 0.40275 0.0
Zn127 Zn 0.57492 0.69385 0.37488 0.0
C128 C 0.52841 0.79274 0.3905 0.0
C129 C 0.68548 0.74601 0.37664 0.0
O130 O 0.56276 0.61386 0.38692 0.0
O131 O 0.53916 0.57791 0.35951 0.0
C132 C 0.47033 0.71801 0.34952 0.0
O133 O 0.52593 0.75988 0.37757 0.0
O134 O 0.56297 0.79035 0.40417 0.0
O135 O 0.67734 0.76255 0.39308 0.0
O136 O 0.65186 0.7199 0.36774 0.0
O137 O 0.47981 0.68259 0.33914 0.0
O138 O 0.50217 0.72941 0.3636 0.0
O139 O 0.62768 0.70226 0.35041 0.0
O140 O 0.59629 0.65783 0.32641 0.0
C141 C 0.62946 0.6865 0.33284 0.0
O142 O 0.57716 0.64182 0.40324 0.0
O143 O 0.61976 0.68649 0.42447 0.0
C144 C 0.54903 0.57458 0.37823 0.0
C145 C 0.59746 0.64679 0.42092 0.0
Zn146 Zn 0.60569 0.30587 0.60747 0.0
Zn147 Zn 0.73111 0.20329 0.63692 0.0
Zn148 Zn 0.66652 0.25772 0.62233 0.0
C149 C 0.78321 0.28227 0.62257 0.0
C150 C 0.6834 0.14378 0.61209 0.0
O151 O 0.60026 0.25958 0.64227 0.0
O152 O 0.54494 0.27372 0.61681 0.0
C153 C 0.67091 0.37345 0.61445 0.0
O154 O 0.73898 0.30071 0.62276 0.0
O155 O 0.7895 0.23555 0.62526 0.0
O156 O 0.71221 0.13826 0.62772 0.0
O157 O 0.66501 0.18753 0.60612 0.0
O158 O 0.62572 0.36951 0.61807 0.0
O159 O 0.69675 0.33326 0.61389 0.0
O160 O 0.64529 0.22712 0.59311 0.0
O161 O 0.62006 0.30089 0.5793 0.0
C162 C 0.63303 0.25662 0.57728 0.0
O163 O 0.64532 0.24442 0.6532 0.0
O164 O 0.71975 0.21685 0.66488 0.0
C165 C 0.55425 0.26176 0.63526 0.0
C166 C 0.67703 0.23232 0.66807 0.0
Zn167 Zn 0.03774 0.14318 0.84347 0.0
Zn168 Zn 0.11812 0.24291 0.89211 0.0
Zn169 Zn 0.07345 0.19758 0.87014 0.0
C170 C 0.12066 0.16041 0.9133 0.0
C171 C 0.02965 0.28854 0.88996 0.0
O172 O 0.12283 0.19906 0.8447 0.0
O173 O 0.08762 0.15036 0.82303 0.0
C174 C 0.04794 0.07983 0.87901 0.0
O175 O 0.08246 0.15697 0.90092 0.0
O176 O 0.15641 0.18603 0.90715 0.0
O177 O 0.0621 0.27556 0.90393 0.0
O178 O 0.02772 0.2649 0.87402 0.0
O179 O 0.03492 0.07974 0.86059 0.0
O180 O 0.06349 0.1207 0.88598 0.0
O181 O 0.00046 0.23398 0.86007 0.0
O182 O 0.97474 0.18208 0.83794 0.0
C183 C 0.96693 0.22011 0.84714 0.0
O184 O 0.14828 0.22508 0.85968 0.0
O185 O 0.16139 0.28931 0.8775 0.0
C186 C 0.12221 0.1794 0.82783 0.0
C187 C 0.1749 0.26321 0.86414 0.0
C188 C 0.15423 0.41542 0.0573 0.0
C189 C 0.12517 0.38051 0.06792 0.0
C190 C 0.15585 0.46571 0.0617 0.0
C191 C 0.12854 0.48116 0.07741 0.0
C192 C 0.09737 0.4463 0.08755 0.0
C193 C 0.09586 0.39647 0.08257 0.0
C194 C 0.18885 0.50165 0.05027 0.0
C195 C 0.06805 0.46076 0.10452 0.0
C196 C 0.18817 0.57823 0.10884 0.0
C197 C 0.1589 0.62124 0.10319 0.0
C198 C 0.17871 0.53308 0.10041 0.0
C199 C 0.13927 0.5304 0.08557 0.0
C200 C 0.1102 0.5739 0.07928 0.0
C201 C 0.11994 0.61874 0.08837 0.0
C202 C 0.21063 0.48785 0.10775 0.0
C203 C 0.06841 0.57288 0.06323 0.0
H204 H 0.17663 0.40288 0.04588 0.0
H205 H 0.07302 0.36937 0.09057 0.0
H206 H 0.16873 0.53729 0.0455 0.0
H207 H 0.2217 0.5106 0.06014 0.0
H208 H 0.2021 0.48591 0.03682 0.0
H209 H 0.04144 0.43125 0.10931 0.0
H210 H 0.09397 0.46734 0.11757 0.0
H211 H 0.04718 0.4961 0.10008 0.0
H212 H 0.21863 0.57954 0.12017 0.0
H213 H 0.09657 0.65138 0.08416 0.0
H214 H 0.22904 0.47371 0.09508 0.0
H215 H 0.18709 0.45729 0.11405 0.0
H216 H 0.23977 0.49619 0.11946 0.0
H217 H 0.08161 0.55676 0.04987 0.0
H218 H 0.05277 0.6108 0.05858 0.0
H219 H 0.03826 0.54855 0.06884 0.0
C220 C 0.97088 0.76254 0.35308 0.0
C221 C 0.97938 0.79876 0.33738 0.0
C222 C 0.92291 0.75458 0.35956 0.0
C223 C 0.88227 0.78192 0.34944 0.0
C224 C 0.89064 0.81836 0.3335 0.0
C225 C 0.93931 0.82741 0.32811 0.0
C226 C 0.91559 0.71631 0.37697 0.0
C227 C 0.84813 0.8469 0.32184 0.0
C228 C 0.75397 0.72591 0.355 0.0
C229 C 0.73441 0.75635 0.36847 0.0
C230 C 0.80174 0.73435 0.3483 0.0
C231 C 0.83111 0.77315 0.3558 0.0
C232 C 0.81184 0.80346 0.36966 0.0
C233 C 0.76359 0.79513 0.3756 0.0
C234 C 0.82047 0.70202 0.33309 0.0
C235 C 0.84263 0.84396 0.3786 0.0
H236 H 0.00153 0.73962 0.35998 0.0
H237 H 0.94601 0.85595 0.31617 0.0
H238 H 0.89542 0.73349 0.38853 0.0
H239 H 0.8925 0.68517 0.37182 0.0
H240 H 0.95139 0.70057 0.38401 0.0
H241 H 0.86071 0.87161 0.30903 0.0
H242 H 0.82044 0.82032 0.316 0.0
H243 H 0.82889 0.87018 0.33182 0.0
H244 H 0.73267 0.69455 0.35021 0.0
H245 H 0.74901 0.81863 0.38618 0.0
H246 H 0.85965 0.69037 0.33695 0.0
H247 H 0.81902 0.72396 0.31824 0.0
H248 H 0.79772 0.66791 0.33176 0.0
H249 H 0.87766 0.8276 0.38609 0.0
H250 H 0.82267 0.86312 0.38972 0.0
H251 H 0.85301 0.87235 0.36661 0.0
C252 C 0.6801 0.65825 0.59037 0.0
C253 C 0.69147 0.67621 0.57102 0.0
C254 C 0.69106 0.60884 0.59788 0.0
C255 C 0.71284 0.57602 0.58552 0.0
C256 C 0.72771 0.59497 0.56646 0.0
C257 C 0.71704 0.64511 0.55946 0.0
C258 C 0.67468 0.5906 0.61831 0.0
C259 C 0.75071 0.56139 0.55272 0.0
C260 C 0.73362 0.44302 0.61022 0.0
C261 C 0.68699 0.42255 0.6056 0.0
C262 C 0.74441 0.49253 0.60285 0.0
C263 C 0.70784 0.52115 0.59052 0.0
C264 C 0.66229 0.49881 0.58478 0.0
C265 C 0.65251 0.45012 0.59242 0.0
C266 C 0.79366 0.5149 0.60904 0.0
C267 C 0.6223 0.52729 0.57152 0.0
H268 H 0.6601 0.68226 0.59925 0.0
H269 H 0.72674 0.65939 0.54464 0.0
H270 H 0.64052 0.56799 0.61653 0.0
H271 H 0.70365 0.56632 0.62678 0.0
H272 H 0.66643 0.62209 0.62728 0.0
H273 H 0.77161 0.58325 0.54125 0.0
H274 H 0.77607 0.53336 0.56127 0.0
H275 H 0.72085 0.54084 0.5448 0.0
H276 H 0.76053 0.42141 0.6202 0.0
H277 H 0.61688 0.43379 0.58835 0.0
H278 H 0.78822 0.54098 0.62064 0.0
H279 H 0.80913 0.53678 0.59612 0.0
H280 H 0.8211 0.48572 0.61533 0.0
H281 H 0.60606 0.55655 0.57985 0.0
H282 H 0.59183 0.50264 0.56644 0.0
H283 H 0.63831 0.54632 0.55815 0.0
C284 C 0.67816 0.26654 0.84203 0.0
C285 C 0.65953 0.30497 0.82807 0.0
C286 C 0.72959 0.25968 0.84629 0.0
C287 C 0.76321 0.2925 0.83649 0.0
C288 C 0.74426 0.33301 0.82312 0.0
C289 C 0.6926 0.33838 0.81889 0.0
C290 C 0.74794 0.21547 0.86036 0.0
C291 C 0.77857 0.36939 0.81262 0.0
C292 C 0.89928 0.27774 0.85643 0.0
C293 C 0.91736 0.24518 0.84334 0.0
C294 C 0.84986 0.29586 0.85384 0.0
C295 C 0.81749 0.28 0.83811 0.0
C296 C 0.83619 0.2487 0.82445 0.0
C297 C 0.88573 0.23221 0.82711 0.0
C298 C 0.83186 0.33032 0.86842 0.0
C299 C 0.80321 0.23051 0.8075 0.0
H300 H 0.65238 0.24047 0.84891 0.0
H301 H 0.6779 0.3682 0.80815 0.0
H302 H 0.76696 0.1884 0.85183 0.0
H303 H 0.77546 0.22768 0.87193 0.0
H304 H 0.71722 0.19591 0.86796 0.0
H305 H 0.7583 0.40292 0.80526 0.0
H306 H 0.80813 0.38163 0.82339 0.0
H307 H 0.79706 0.35075 0.801 0.0
H308 H 0.92296 0.28756 0.86911 0.0
H309 H 0.89919 0.20746 0.81674 0.0
H310 H 0.80751 0.30932 0.87882 0.0
H311 H 0.80952 0.3616 0.86038 0.0
H312 H 0.86317 0.34607 0.87743 0.0
H313 H 0.77268 0.20762 0.81369 0.0
H314 H 0.82388 0.20751 0.79782 0.0
H315 H 0.78585 0.26268 0.79801 0.0
C316 C 0.05195 0.56589 0.89976 0.0
C317 C 0.01248 0.59434 0.90523 0.0
C318 C 0.04442 0.51705 0.89426 0.0
C319 C 0.99601 0.49636 0.89407 0.0
C320 C 0.95539 0.52668 0.89806 0.0
C321 C 0.96426 0.5752 0.90387 0.0
C322 C 0.08898 0.48624 0.89027 0.0
C323 C 0.9031 0.50682 0.89755 0.0
C324 C 0.99299 0.36899 0.87319 0.0
C325 C 0.00426 0.33744 0.89074 0.0
C326 C 0.98539 0.42076 0.87404 0.0
C327 C 0.98997 0.44129 0.89281 0.0
C328 C 0.99616 0.4087 0.9106 0.0
C329 C 0.00268 0.35725 0.90934 0.0
C330 C 0.97677 0.45381 0.85474 0.0
C331 C 0.00103 0.42856 0.931 0.0
H332 H 0.08921 0.58081 0.90116 0.0
H333 H 0.93395 0.59731 0.90835 0.0
H334 H 0.09547 0.45578 0.90249 0.0
H335 H 0.08214 0.4685 0.87605 0.0
H336 H 0.12324 0.50899 0.88936 0.0
H337 H 0.87513 0.53757 0.89644 0.0
H338 H 0.89579 0.48382 0.88475 0.0
H339 H 0.89809 0.48251 0.9115 0.0
H340 H 0.99408 0.35411 0.85874 0.0
H341 H 0.01084 0.33303 0.92299 0.0
H342 H 0.01239 0.47117 0.85065 0.0
H343 H 0.95009 0.48443 0.85643 0.0
H344 H 0.96246 0.43216 0.84225 0.0
H345 H 0.03625 0.44961 0.93259 0.0
H346 H 0.00119 0.39816 0.94337 0.0
H347 H 0.97015 0.45485 0.93268 0.0
C348 C 0.78458 0.84217 0.16997 0.0
C349 C 0.75821 0.80546 0.18095 0.0
C350 C 0.83491 0.83539 0.16653 0.0
C351 C 0.86041 0.79113 0.17468 0.0
C352 C 0.83474 0.75514 0.18682 0.0
C353 C 0.78382 0.76239 0.18958 0.0
C354 C 0.8601 0.8747 0.15331 0.0
C355 C 0.86042 0.70795 0.19619 0.0
C356 C 0.96249 0.75492 0.14227 0.0
C357 C 0.00473 0.77694 0.15106 0.0
C358 C 0.91617 0.7564 0.15058 0.0
C359 C 0.9115 0.78046 0.1683 0.0
C360 C 0.95485 0.79954 0.17812 0.0
C361 C 0.00099 0.79784 0.16931 0.0
C362 C 0.87139 0.73584 0.13937 0.0
C363 C 0.95191 0.82423 0.19731 0.0
H364 H 0.76519 0.87589 0.1636 0.0
H365 H 0.76374 0.73355 0.19792 0.0
H366 H 0.89512 0.88674 0.16103 0.0
H367 H 0.86996 0.85867 0.13941 0.0
H368 H 0.83609 0.90817 0.14905 0.0
H369 H 0.83882 0.68867 0.20808 0.0
H370 H 0.86505 0.68191 0.18452 0.0
H371 H 0.89802 0.71635 0.20276 0.0
H372 H 0.96506 0.73915 0.12805 0.0
H373 H 0.03313 0.81596 0.17595 0.0
H374 H 0.84627 0.76713 0.13323 0.0
H375 H 0.85013 0.71076 0.14963 0.0
H376 H 0.88181 0.71471 0.12677 0.0
H377 H 0.92677 0.8573 0.19479 0.0
H378 H 0.98888 0.83651 0.20328 0.0
H379 H 0.93595 0.79783 0.2088 0.0
C380 C 0.56579 0.28473 0.40774 0.0
C381 C 0.52985 0.26521 0.42026 0.0
C382 C 0.57231 0.33665 0.40423 0.0
C383 C 0.54201 0.36985 0.41348 0.0
C384 C 0.50764 0.35 0.42709 0.0
C385 C 0.50181 0.29786 0.43023 0.0
C386 C 0.60951 0.35596 0.38967 0.0
C387 C 0.47477 0.38379 0.43736 0.0
C388 C 0.57416 0.509 0.40661 0.0
C389 C 0.54388 0.52467 0.38937 0.0
C390 C 0.5728 0.4591 0.41526 0.0
C391 C 0.54065 0.42427 0.40634 0.0
C392 C 0.50857 0.44075 0.38948 0.0
C393 C 0.51058 0.49048 0.38128 0.0
C394 C 0.60724 0.44322 0.43336 0.0
C395 C 0.47337 0.4053 0.37951 0.0
H396 H 0.58777 0.25921 0.40025 0.0
H397 H 0.47366 0.28264 0.43973 0.0
H398 H 0.58952 0.37335 0.37578 0.0
H399 H 0.63292 0.38526 0.39612 0.0
H400 H 0.63406 0.32572 0.3856 0.0
H401 H 0.45626 0.36312 0.44984 0.0
H402 H 0.49657 0.41484 0.44333 0.0
H403 H 0.44563 0.4007 0.42633 0.0
H404 H 0.60049 0.53491 0.41276 0.0
H405 H 0.48664 0.50237 0.36807 0.0
H406 H 0.63754 0.4195 0.42886 0.0
H407 H 0.58714 0.42045 0.44479 0.0
H408 H 0.62414 0.47582 0.44028 0.0
H409 H 0.49487 0.37562 0.37335 0.0
H410 H 0.44922 0.4246 0.3671 0.0
H411 H 0.44932 0.38663 0.39063 0.0
C412 C 0.06691 0.36448 0.64528 0.0
C413 C 0.08201 0.32171 0.65775 0.0
C414 C 0.01768 0.36942 0.63657 0.0
C415 C 0.98289 0.33076 0.64056 0.0
C416 C 0.99875 0.28707 0.65282 0.0
C417 C 0.04796 0.28307 0.6611 0.0
C418 C 0.00264 0.41628 0.62345 0.0
C419 C 0.96347 0.24465 0.65752 0.0
C420 C 0.84187 0.34108 0.63836 0.0
C421 C 0.82881 0.31289 0.62224 0.0
C422 C 0.89211 0.35193 0.64344 0.0
C423 C 0.92994 0.33454 0.632 0.0
C424 C 0.91602 0.3116 0.61428 0.0
C425 C 0.86576 0.30062 0.60975 0.0
C426 C 0.90491 0.3768 0.66237 0.0
C427 C 0.95456 0.29336 0.60131 0.0
H428 H 0.09324 0.39446 0.6428 0.0
H429 H 0.05989 0.24989 0.67062 0.0
H430 H 0.98493 0.40657 0.60892 0.0
H431 H 0.97472 0.43742 0.63079 0.0
H432 H 0.03479 0.44103 0.62052 0.0
H433 H 0.9815 0.2136 0.66751 0.0
H434 H 0.93123 0.25856 0.66489 0.0
H435 H 0.94889 0.22951 0.64346 0.0
H436 H 0.81362 0.34989 0.64827 0.0
H437 H 0.85588 0.27836 0.59739 0.0
H438 H 0.93525 0.40415 0.6602 0.0
H439 H 0.91816 0.34798 0.67446 0.0
H440 H 0.87222 0.39628 0.66739 0.0
H441 H 0.98466 0.32112 0.59938 0.0
H442 H 0.93802 0.28573 0.58629 0.0
H443 H 0.97165 0.25817 0.60866 0.0
C444 C 0.28845 0.24838 0.68499 0.0
C445 C 0.26337 0.291 0.67559 0.0
C446 C 0.3394 0.24019 0.6826 0.0
C447 C 0.36564 0.27448 0.66996 0.0
C448 C 0.34067 0.31818 0.6609 0.0
C449 C 0.29036 0.32617 0.66409 0.0
C450 C 0.36456 0.19382 0.69302 0.0
C451 C 0.3664 0.35554 0.64701 0.0
C452 C 0.5066 0.2784 0.66518 0.0
C453 C 0.51076 0.25421 0.64769 0.0
C454 C 0.46014 0.28236 0.67357 0.0
C455 C 0.41684 0.26234 0.66407 0.0
C456 C 0.4218 0.23524 0.64715 0.0
C457 C 0.46846 0.23136 0.63931 0.0
C458 C 0.45687 0.31013 0.692 0.0
C459 C 0.37708 0.21373 0.63624 0.0
H460 H 0.26801 0.22053 0.69368 0.0
H461 H 0.27153 0.35966 0.65716 0.0
H462 H 0.36922 0.16603 0.682 0.0
H463 H 0.40211 0.20271 0.69949 0.0
H464 H 0.34258 0.17635 0.70516 0.0
H465 H 0.34259 0.38866 0.64187 0.0
H466 H 0.4012 0.36853 0.6546 0.0
H467 H 0.37677 0.33737 0.63366 0.0
H468 H 0.53876 0.2971 0.67151 0.0
H469 H 0.47132 0.21288 0.62571 0.0
H470 H 0.44086 0.28537 0.70401 0.0
H471 H 0.43164 0.34294 0.68866 0.0
H472 H 0.49374 0.32332 0.69769 0.0
H473 H 0.35545 0.19004 0.64684 0.0
H474 H 0.38757 0.19089 0.62416 0.0
H475 H 0.35224 0.24463 0.62946 0.0
C476 C 0.54167 0.79496 0.16667 0.0
C477 C 0.57638 0.83285 0.16303 0.0
C478 C 0.49277 0.79898 0.15805 0.0
C479 C 0.47793 0.84181 0.14508 0.0
C480 C 0.51336 0.87968 0.14081 0.0
C481 C 0.56222 0.87481 0.14991 0.0
C482 C 0.45678 0.7574 0.16305 0.0
C483 C 0.49944 0.92556 0.12691 0.0
C484 C 0.36243 0.81129 0.11322 0.0
C485 C 0.32448 0.82607 0.12478 0.0
C486 C 0.41263 0.82107 0.11843 0.0
C487 C 0.4255 0.84538 0.13591 0.0
C488 C 0.38696 0.86478 0.14647 0.0
C489 C 0.3368 0.85516 0.14069 0.0
C490 C 0.452 0.80057 0.10639 0.0
C491 C 0.39868 0.89098 0.16516 0.0
H492 H 0.55287 0.76225 0.17661 0.0
H493 H 0.58905 0.90419 0.14716 0.0
H494 H 0.42407 0.77257 0.16974 0.0
H495 H 0.44303 0.74082 0.14918 0.0
H496 H 0.4739 0.72716 0.17372 0.0
H497 H 0.53178 0.95025 0.12426 0.0
H498 H 0.48351 0.91452 0.1123 0.0
H499 H 0.47038 0.94723 0.13337 0.0
H500 H 0.35311 0.78853 0.10096 0.0
H501 H 0.30775 0.86601 0.14987 0.0
H502 H 0.46815 0.76587 0.11455 0.0
H503 H 0.48263 0.82767 0.10438 0.0
H504 H 0.43652 0.79142 0.09141 0.0
H505 H 0.41092 0.86288 0.17767 0.0
H506 H 0.3658 0.91132 0.16956 0.0
H507 H 0.42947 0.91783 0.16302 0.0
C508 C 0.43641 0.33416 0.81856 0.0
C509 C 0.47466 0.30759 0.83016 0.0
C510 C 0.38653 0.32758 0.82277 0.0
C511 C 0.37487 0.29653 0.83993 0.0
C512 C 0.41363 0.27222 0.85251 0.0
C513 C 0.46298 0.27702 0.84717 0.0
C514 C 0.3464 0.35289 0.80858 0.0
C515 C 0.40288 0.24023 0.87135 0.0
C516 C 0.24992 0.3168 0.86078 0.0
C517 C 0.22365 0.274 0.85574 0.0
C518 C 0.29911 0.32446 0.85579 0.0
C519 C 0.32218 0.28953 0.84478 0.0
C520 C 0.29533 0.2473 0.83891 0.0
C521 C 0.24681 0.23947 0.84489 0.0
C522 C 0.32707 0.36879 0.8631 0.0
C523 C 0.31782 0.21035 0.82635 0.0
H524 H 0.4455 0.35876 0.80567 0.0
H525 H 0.49221 0.25582 0.85601 0.0
H526 H 0.31661 0.326 0.805 0.0
H527 H 0.32918 0.38363 0.81575 0.0
H528 H 0.36115 0.36884 0.79434 0.0
H529 H 0.43739 0.22763 0.88039 0.0
H530 H 0.37955 0.26139 0.88073 0.0
H531 H 0.38166 0.20673 0.8674 0.0
H532 H 0.23272 0.34358 0.86938 0.0
H533 H 0.22784 0.20539 0.8417 0.0
H534 H 0.3399 0.39295 0.85024 0.0
H535 H 0.36063 0.3556 0.87262 0.0
H536 H 0.30407 0.39185 0.87194 0.0
H537 H 0.3216 0.22856 0.81103 0.0
H538 H 0.29471 0.17642 0.82522 0.0
H539 H 0.35554 0.19856 0.83262 0.0
C540 C 0.18192 0.75931 0.34359 0.0
C541 C 0.16259 0.80107 0.33161 0.0
C542 C 0.23342 0.75217 0.34724 0.0
C543 C 0.26639 0.78807 0.33886 0.0
C544 C 0.2468 0.83137 0.32733 0.0
C545 C 0.19502 0.83704 0.32364 0.0
C546 C 0.25253 0.70501 0.35929 0.0
C547 C 0.28051 0.87092 0.31843 0.0
C548 C 0.4009 0.77129 0.35995 0.0
C549 C 0.42081 0.74303 0.34578 0.0
C550 C 0.35153 0.78921 0.35732 0.0
C551 C 0.3209 0.77721 0.34042 0.0
C552 C 0.34141 0.75042 0.3257 0.0
C553 C 0.39104 0.73419 0.32846 0.0
C554 C 0.33159 0.81889 0.37311 0.0
C555 C 0.31017 0.73636 0.30752 0.0
H556 H 0.15658 0.73131 0.34947 0.0
H557 H 0.17969 0.86933 0.3144 0.0
H558 H 0.2731 0.68196 0.34962 0.0
H559 H 0.27891 0.71441 0.37178 0.0
H560 H 0.22209 0.68215 0.36562 0.0
H561 H 0.25962 0.90506 0.31207 0.0
H562 H 0.30905 0.88149 0.32996 0.0
H563 H 0.30038 0.85588 0.3063 0.0
H564 H 0.42298 0.77753 0.37353 0.0
H565 H 0.40597 0.7127 0.31729 0.0
H566 H 0.30706 0.7948 0.3824 0.0
H567 H 0.30898 0.85119 0.36608 0.0
H568 H 0.36191 0.83294 0.38313 0.0
H569 H 0.28021 0.71064 0.31234 0.0
H570 H 0.33236 0.71767 0.29695 0.0
H571 H 0.292 0.77004 0.29937 0.0
C572 C 0.65702 0.89687 0.55273 0.0
C573 C 0.64849 0.85701 0.567 0.0
C574 C 0.65651 0.9466 0.55774 0.0
C575 C 0.64843 0.95649 0.57764 0.0
C576 C 0.63801 0.91639 0.5919 0.0
C577 C 0.63764 0.86721 0.58632 0.0
C578 C 0.66659 0.98836 0.54199 0.0
C579 C 0.62981 0.92509 0.61334 0.0
C580 C 0.7135 0.06626 0.5994 0.0
C581 C 0.67411 0.09964 0.60076 0.0
C582 C 0.7057 0.02038 0.59133 0.0
C583 C 0.6572 0.00747 0.58427 0.0
C584 C 0.61742 0.04185 0.5849 0.0
C585 C 0.62627 0.08741 0.59341 0.0
C586 C 0.74915 0.98478 0.59118 0.0
C587 C 0.56529 0.02975 0.57733 0.0
H588 H 0.66567 0.88897 0.53781 0.0
H589 H 0.63 0.83641 0.59721 0.0
H590 H 0.63788 0.01814 0.54163 0.0
H591 H 0.70303 0.0055 0.54576 0.0
H592 H 0.66708 0.97503 0.52681 0.0
H593 H 0.61892 0.8904 0.62221 0.0
H594 H 0.66449 0.93935 0.6206 0.0
H595 H 0.60051 0.9539 0.61384 0.0
H596 H 0.75051 0.07557 0.6052 0.0
H597 H 0.59556 0.11258 0.59497 0.0
H598 H 0.7531 0.97408 0.5758 0.0
H599 H 0.74245 0.94998 0.60081 0.0
H600 H 0.78474 1.00118 0.59668 0.0
H601 H 0.56542 0.01351 0.56271 0.0
H602 H 0.54075 0.06339 0.57557 0.0
H603 H 0.54927 1.00148 0.58809 0.0
C604 C 0.20611 0.1867 0.08393 0.0
C605 C 0.15764 0.19657 0.07556 0.0
C606 C 0.22048 0.13835 0.09221 0.0
C607 C 0.18569 0.09893 0.09182 0.0
C608 C 0.13705 0.1087 0.08289 0.0
C609 C 0.12362 0.15741 0.07502 0.0
C610 C 0.27251 0.12958 0.10163 0.0
C611 C 0.09876 0.06783 0.08193 0.0
C612 C 0.21337 0.95955 0.09772 0.0
C613 C 0.19426 0.9463 0.11632 0.0
C614 C 0.21528 0.01009 0.0901 0.0
C615 C 0.19837 0.04785 0.10156 0.0
C616 C 0.18512 0.03468 0.12138 0.0
C617 C 0.18274 0.98399 0.12843 0.0
C618 C 0.22979 0.02236 0.06893 0.0
C619 C 0.1679 0.07361 0.13432 0.0
H620 H 0.23272 0.21686 0.08394 0.0
H621 H 0.08617 0.16521 0.06859 0.0
H622 H 0.27107 0.11745 0.11781 0.0
H623 H 0.29086 0.09907 0.09469 0.0
H624 H 0.2957 0.16369 0.10003 0.0
H625 H 0.06355 0.08108 0.07356 0.0
H626 H 0.11356 0.03605 0.07459 0.0
H627 H 0.09031 0.05344 0.09733 0.0
H628 H 0.22153 0.93041 0.0882 0.0
H629 H 0.16759 0.97368 0.14277 0.0
H630 H 0.2524 0.05682 0.06773 0.0
H631 H 0.19569 0.02924 0.05883 0.0
H632 H 0.25103 0.99123 0.06359 0.0
H633 H 0.19211 0.10697 0.13331 0.0
H634 H 0.16754 0.05871 0.15029 0.0
H635 H 0.12963 0.086 0.12897 0.0
C636 C 0.44779 0.07577 0.39721 0.0
C637 C 0.49552 0.09162 0.40313 0.0
C638 C 0.4403 0.02784 0.39058 0.0
C639 C 0.48155 0.99518 0.39026 0.0
C640 C 0.53016 0.01287 0.39487 0.0
C641 C 0.53643 0.06089 0.40125 0.0
C642 C 0.38803 0.01113 0.3854 0.0
C643 C 0.5754 0.97965 0.39472 0.0
C644 C 0.48336 0.85744 0.4061 0.0
C645 C 0.49667 0.83798 0.38853 0.0
C646 C 0.47226 0.90837 0.40634 0.0
C647 C 0.47458 0.94055 0.38853 0.0
C648 C 0.48093 0.91969 0.3702 0.0
C649 C 0.49208 0.86832 0.3704 0.0
C650 C 0.46459 0.92853 0.42621 0.0
C651 C 0.48161 0.95233 0.35075 0.0
H652 H 0.41625 0.09977 0.39885 0.0
H653 H 0.57315 0.07354 0.40599 0.0
H654 H 0.38693 0.98584 0.37318 0.0
H655 H 0.3735 0.99026 0.39875 0.0
H656 H 0.36292 0.0436 0.3808 0.0
H657 H 0.61061 1.00046 0.39696 0.0
H658 H 0.5744 0.94887 0.40687 0.0
H659 H 0.57556 0.96242 0.38032 0.0
H660 H 0.48647 0.83376 0.4201 0.0
H661 H 0.50223 0.85328 0.35677 0.0
H662 H 0.43322 0.95565 0.42472 0.0
H663 H 0.4985 0.94858 0.43124 0.0
H664 H 0.45706 0.89827 0.43798 0.0
H665 H 0.45389 0.98314 0.35009 0.0
H666 H 0.47396 0.93031 0.33765 0.0
H667 H 0.51887 0.96937 0.34961 0.0
C668 C 0.02193 0.80038 0.93332 0.0
C669 C 0.04675 0.76984 0.92124 0.0
C670 C 0.02505 0.85296 0.93056 0.0
C671 C 0.05279 0.87568 0.91504 0.0
C672 C 0.07989 0.84477 0.9035 0.0
C673 C 0.07683 0.79238 0.90686 0.0
C674 C 0.99655 0.88411 0.94358 0.0
C675 C 0.11003 0.86699 0.88682 0.0
C676 C 0.00854 0.99707 0.88583 0.0
C677 C 0.04493 0.03137 0.89153 0.0
C678 C 0.00945 0.94722 0.89413 0.0
C679 C 0.04764 0.93066 0.90874 0.0
C680 C 0.08263 0.96589 0.91564 0.0
C681 C 0.08107 0.01588 0.90685 0.0
C682 C 0.97109 0.91153 0.8863 0.0
C683 C 0.12332 0.95029 0.9315 0.0
H684 H 0.99864 0.78315 0.94448 0.0
H685 H 0.09709 0.76885 0.89788 0.0
H686 H 0.01912 0.91618 0.9482 0.0
H687 H 0.96258 0.89957 0.93495 0.0
H688 H 0.9852 0.86172 0.95722 0.0
H689 H 0.13227 0.83825 0.88039 0.0
H690 H 0.08476 0.88567 0.87466 0.0
H691 H 0.13553 0.89584 0.89236 0.0
H692 H 0.98018 0.0088 0.8741 0.0
H693 H 0.10973 0.04185 0.91114 0.0
H694 H 0.95258 0.89157 0.8989 0.0
H695 H 0.98958 0.88292 0.87835 0.0
H696 H 0.94217 0.93089 0.87579 0.0
H697 H 0.10889 0.92461 0.9436 0.0
H698 H 0.14046 0.98309 0.93819 0.0
H699 H 0.15273 0.9299 0.92468 0.0
C700 C 0.15442 0.19874 0.02748 0.0
C701 C 0.11348 0.22409 0.03357 0.0
C702 C 0.1506 0.17373 0.00996 0.0
C703 C 0.10502 0.17518 0.99808 0.0
C704 C 0.0623 0.19593 0.00545 0.0
C705 C 0.06707 0.22006 0.02319 0.0
C706 C 0.19686 0.15104 0.00298 0.0
C707 C 0.01285 0.19793 0.99347 0.0
C708 C 0.12212 0.20689 0.94319 0.0
C709 C 0.11348 0.16129 0.9349 0.0
C710 C 0.11821 0.2116 0.9635 0.0
C711 C 0.10583 0.16931 0.97624 0.0
C712 C 0.09604 0.123 0.96803 0.0
C713 C 0.09931 0.11965 0.94725 0.0
C714 C 0.12824 0.26209 0.97131 0.0
C715 C 0.08247 0.07721 0.98115 0.0
H716 H 0.19021 0.20147 0.03565 0.0
H717 H 0.03511 0.23833 0.02836 0.0
H718 H 0.18812 0.11614 0.99581 0.0
H719 H 0.21295 0.17785 0.99167 0.0
H720 H 0.22538 0.14258 0.01557 0.0
H721 H 0.98177 0.205 0.00292 0.0
H722 H 0.0132 0.22871 0.98129 0.0
H723 H 0.00584 0.16257 0.98642 0.0
H724 H 0.13223 0.2395 0.93363 0.0
H725 H 0.09206 0.08455 0.94085 0.0
H726 H 0.16071 0.25936 0.98243 0.0
H727 H 0.09583 0.27445 0.97898 0.0
H728 H 0.13595 0.29145 0.9592 0.0
H729 H 0.10861 0.07182 0.99467 0.0
H730 H 0.08262 0.04284 0.97307 0.0
H731 H 0.04478 0.08229 0.98634 0.0
C732 C 0.10471 0.8411 0.27482 0.0
C733 C 0.11175 0.80264 0.29021 0.0
C734 C 0.11717 0.83418 0.25536 0.0
C735 C 0.13658 0.78739 0.2513 0.0
C736 C 0.1461 0.74924 0.26712 0.0
C737 C 0.13361 0.75748 0.2865 0.0
C738 C 0.10725 0.87602 0.23898 0.0
C739 C 0.16676 0.69888 0.26336 0.0
C740 C 0.11495 0.75319 0.19773 0.0
C741 C 0.16149 0.76323 0.19038 0.0
C742 C 0.10645 0.76016 0.2177 0.0
C743 C 0.14538 0.77804 0.2304 0.0
C744 C 0.19239 0.78828 0.22297 0.0
C745 C 0.19996 0.78036 0.20309 0.0
C746 C 0.05607 0.74798 0.22528 0.0
C747 C 0.23445 0.80828 0.23593 0.0
H748 H 0.0871 0.87564 0.27792 0.0
H749 H 0.13799 0.72772 0.29852 0.0
H750 H 0.14092 0.88335 0.2306 0.0
H751 H 0.07729 0.86492 0.22813 0.0
H752 H 0.0958 0.91127 0.24495 0.0
H753 H 0.17529 0.67469 0.27749 0.0
H754 H 0.13938 0.6795 0.25373 0.0
H755 H 0.20114 0.70349 0.25524 0.0
H756 H 0.08567 0.73891 0.18799 0.0
H757 H 0.23598 0.78842 0.19735 0.0
H758 H 0.0401 0.78124 0.23126 0.0
H759 H 0.05996 0.71803 0.2378 0.0
H760 H 0.02954 0.73539 0.21339 0.0
H761 H 0.22336 0.84465 0.24102 0.0
H762 H 0.26895 0.81376 0.22789 0.0
H763 H 0.24275 0.78225 0.24954 0.0
C764 C 0.646 0.72088 0.5112 0.0
C765 C 0.63423 0.7041 0.53058 0.0
C766 C 0.63317 0.69338 0.49492 0.0
C767 C 0.60909 0.64664 0.4981 0.0
C768 C 0.59841 0.62849 0.51782 0.0
C769 C 0.61088 0.6577 0.53389 0.0
C770 C 0.64454 0.71526 0.4742 0.0
C771 C 0.57446 0.57827 0.52202 0.0
C772 C 0.54521 0.62721 0.44842 0.0
C773 C 0.58686 0.61367 0.4387 0.0
C774 C 0.5489 0.63139 0.46918 0.0
C775 C 0.59445 0.61894 0.48031 0.0
C776 C 0.63153 0.59332 0.4712 0.0
C777 C 0.62768 0.59165 0.45028 0.0
C778 C 0.50763 0.65773 0.47824 0.0
C779 C 0.67892 0.57555 0.48289 0.0
H780 H 0.66474 0.75636 0.5088 0.0
H781 H 0.6019 0.64468 0.54895 0.0
H782 H 0.67082 0.69049 0.46767 0.0
H783 H 0.60998 0.71821 0.4642 0.0
H784 H 0.66123 0.75306 0.47431 0.0
H785 H 0.55696 0.57546 0.53657 0.0
H786 H 0.54594 0.57061 0.51002 0.0
H787 H 0.60338 0.54861 0.5226 0.0
H788 H 0.51327 0.64368 0.43949 0.0
H789 H 0.65972 0.58022 0.44284 0.0
H790 H 0.51682 0.69799 0.47848 0.0
H791 H 0.5033 0.64231 0.49389 0.0
H792 H 0.47163 0.65474 0.46937 0.0
H793 H 0.70503 0.60733 0.48372 0.0
H794 H 0.69722 0.54564 0.47553 0.0
H795 H 0.67158 0.56127 0.49843 0.0
C796 C 0.61054 0.33203 0.77045 0.0
C797 C 0.61309 0.29518 0.78654 0.0
C798 C 0.62406 0.32126 0.75154 0.0
C799 C 0.63977 0.27216 0.74874 0.0
C800 C 0.6448 0.23544 0.7653 0.0
C801 C 0.63146 0.24757 0.78412 0.0
C802 C 0.61906 0.36168 0.73436 0.0
C803 C 0.66134 0.1827 0.76288 0.0
C804 C 0.61905 0.23461 0.69559 0.0
C805 C 0.66669 0.24055 0.68879 0.0
C806 C 0.60992 0.24352 0.71533 0.0
C807 C 0.6494 0.25917 0.72834 0.0
C808 C 0.69766 0.26461 0.72154 0.0
C809 C 0.70577 0.25489 0.7019 0.0
C810 C 0.55813 0.23634 0.72226 0.0
C811 C 0.74047 0.28194 0.73485 0.0
H812 H 0.59544 0.36851 0.77254 0.0
H813 H 0.63224 0.21914 0.79667 0.0
H814 H 0.654 0.36475 0.72653 0.0
H815 H 0.58908 0.35181 0.72328 0.0
H816 H 0.61017 0.39877 0.73941 0.0
H817 H 0.66708 0.15988 0.77751 0.0
H818 H 0.63282 0.16436 0.75339 0.0
H819 H 0.69643 0.18294 0.75518 0.0
H820 H 0.58926 0.22228 0.6856 0.0
H821 H 0.7427 0.25973 0.69662 0.0
H822 H 0.54392 0.27199 0.72696 0.0
H823 H 0.55896 0.2085 0.73553 0.0
H824 H 0.53176 0.22341 0.71039 0.0
H825 H 0.73261 0.32018 0.73895 0.0
H826 H 0.77614 0.28251 0.72749 0.0
H827 H 0.74493 0.25716 0.749 0.0
C828 C 0.02834 0.68798 0.9755 0.0
C829 C 0.05862 0.70072 0.95976 0.0
C830 C 0.04272 0.69857 0.9951 0.0
C831 C 0.08821 0.72329 -0.00105 0.0
C832 C 0.11889 0.73654 0.98302 0.0
C833 C 0.1037 0.72491 0.96355 0.0
C834 C 0.00882 0.68401 0.01161 0.0
C835 C 0.16728 0.76354 0.9865 0.0
C836 C 0.09039 0.79947 0.04366 0.0
C837 C 0.11652 0.76798 0.05867 0.0
C838 C 0.0826 0.78599 0.02406 0.0
C839 C 0.10088 0.73949 0.01926 0.0
C840 C 0.12832 0.70786 0.03414 0.0
C841 C 0.13644 0.72288 0.05365 0.0
C842 C 0.0534 0.821 0.00863 0.0
C843 C 0.1482 0.65785 0.02956 0.0
H844 H 0.9933 0.66962 0.97238 0.0
H845 H 0.12714 0.73418 0.95129 0.0
H846 H 0.02962 0.66143 0.02411 0.0
H847 H 0.99497 0.71812 0.0177 0.0
H848 H 0.97636 0.66214 0.00632 0.0
H849 H 0.18802 0.76883 0.97274 0.0
H850 H 0.15992 0.80082 0.99167 0.0
H851 H 0.19116 0.74239 -0.00152 0.0
H852 H 0.07511 0.83471 0.04725 0.0
H853 H 0.1582 0.69932 0.06494 0.0
H854 H 0.01802 0.80316 0.00383 0.0
H855 H 0.07454 0.82873 0.99511 0.0
H856 H 0.04453 0.8572 0.01446 0.0
H857 H 0.11704 0.63383 0.02469 0.0
H858 H 0.16922 0.63792 0.04273 0.0
H859 H 0.17292 0.66301 0.01701 0.0
C860 C 0.67289 0.74229 0.22615 0.0
C861 C 0.69856 0.78416 0.2185 0.0
C862 C 0.67558 0.72744 0.24667 0.0
C863 C 0.70825 0.75256 0.2598 0.0
C864 C 0.73984 0.79033 0.25167 0.0
C865 C 0.7336 0.80677 0.23108 0.0
C866 C 0.63945 0.68839 0.25435 0.0
C867 C 0.77816 0.81558 0.26465 0.0
C868 C 0.6509 0.75745 0.30923 0.0
C869 C 0.6628 0.70955 0.31824 0.0
C870 C 0.66954 0.77455 0.29085 0.0
C871 C 0.70271 0.74374 0.28182 0.0
C872 C 0.72034 0.69851 0.29245 0.0
C873 C 0.69847 0.68079 0.31014 0.0
C874 C 0.64933 0.82297 0.28013 0.0
C875 C 0.75982 0.66747 0.28442 0.0
H876 H 0.64664 0.7244 0.21617 0.0
H877 H 0.75409 0.83874 0.22508 0.0
H878 H 0.65982 0.65552 0.26206 0.0
H879 H 0.61626 0.70396 0.26539 0.0
H880 H 0.61428 0.67519 0.24215 0.0
H881 H 0.81272 0.82173 0.2567 0.0
H882 H 0.76408 0.85293 0.26755 0.0
H883 H 0.78747 0.79349 0.27921 0.0
H884 H 0.62299 0.7794 0.3155 0.0
H885 H 0.70788 0.64377 0.31722 0.0
H886 H 0.62902 0.8155 0.26577 0.0
H887 H 0.6803 0.84853 0.27654 0.0
H888 H 0.62366 0.84236 0.2892 0.0
H889 H 0.74381 0.64788 0.27166 0.0
H890 H 0.77611 0.63894 0.29605 0.0
H891 H 0.7899 0.69196 0.27878 0.0
C892 C 0.51636 0.21113 0.47166 0.0
C893 C 0.54705 0.19454 0.45767 0.0
C894 C 0.53553 0.21882 0.49107 0.0
C895 C 0.58647 0.20866 0.49661 0.0
C896 C 0.61756 0.19157 0.48243 0.0
C897 C 0.59735 0.18476 0.46305 0.0
C898 C 0.5012 0.23743 0.50568 0.0
C899 C 0.67184 0.17997 0.48782 0.0
C900 C 0.63598 0.27658 0.54061 0.0
C901 C 0.63063 0.24047 0.55677 0.0
C902 C 0.62445 0.26579 0.52082 0.0
C903 C 0.60707 0.21765 0.51706 0.0
C904 C 0.60485 0.17998 0.53318 0.0
C905 C 0.61667 0.19195 0.5529 0.0
C906 C 0.62776 0.30694 0.50408 0.0
C907 C 0.58688 0.12804 0.52976 0.0
H908 H 0.47716 0.21709 0.46745 0.0
H909 H 0.6204 0.1708 0.45214 0.0
H910 H 0.5003 0.21002 0.51903 0.0
H911 H 0.51524 0.27316 0.51094 0.0
H912 H 0.46265 0.24362 0.49896 0.0
H913 H 0.69088 0.16691 0.47506 0.0
H914 H 0.69105 0.21374 0.49274 0.0
H915 H 0.67573 0.15063 0.50057 0.0
H916 H 0.64726 0.31416 0.54352 0.0
H917 H 0.61187 0.16438 0.56529 0.0
H918 H 0.5898 0.31791 0.49778 0.0
H919 H 0.64815 0.29361 0.49176 0.0
H920 H 0.64663 0.34067 0.50928 0.0
H921 H 0.54629 0.12928 0.52573 0.0
H922 H 0.5941 0.10152 0.5433 0.0
H923 H 0.60516 0.11353 0.51712 0.0
C924 C 0.23505 0.29409 0.72656 0.0
C925 C 0.20289 0.27104 0.71301 0.0
C926 C 0.2384 0.2769 0.74709 0.0
C927 C 0.20674 0.23789 0.7541 0.0
C928 C 0.17775 0.21192 0.74003 0.0
C929 C 0.1777 0.22785 0.71964 0.0
C930 C 0.27297 0.30293 0.76133 0.0
C931 C 0.14199 0.17128 0.74654 0.0
C932 C 0.19185 0.17123 0.80543 0.0
C933 C 0.15354 0.19964 0.81197 0.0
C934 C 0.21469 0.18699 0.78771 0.0
C935 C 0.19607 0.22991 0.77566 0.0
C936 C 0.15907 0.25992 0.7829 0.0
C937 C 0.13911 0.24488 0.80119 0.0
C938 C 0.257 0.15658 0.78136 0.0
C939 C 0.13674 0.30511 0.77042 0.0
H940 H 0.25504 0.32718 0.72134 0.0
H941 H 0.15338 0.20999 0.70893 0.0
H942 H 0.25352 0.33531 0.76653 0.0
H943 H 0.28551 0.27744 0.77466 0.0
H944 H 0.30606 0.31742 0.75377 0.0
H945 H 0.12277 0.1545 0.73361 0.0
H946 H 0.16171 0.14101 0.75627 0.0
H947 H 0.1134 0.18707 0.75538 0.0
H948 H 0.20313 0.1363 0.81391 0.0
H949 H 0.10912 0.26644 0.80627 0.0
H950 H 0.28761 0.18168 0.77672 0.0
H951 H 0.24451 0.13639 0.76825 0.0
H952 H 0.27167 0.12871 0.79358 0.0
H953 H 0.16623 0.33171 0.76601 0.0
H954 H 0.10936 0.32515 0.77849 0.0
H955 H 0.1177 0.29322 0.75646 0.0
loop_
_geom_bond_atom_site_label_1
_geom_bond_atom_site_label_2
_geom_bond_distance
_geom_bond_site_symmetry_2
_ccdc_geom_bond_type
C0 N1 1.317 . S
C0 N2 1.348 . S
C0 C3 1.485 . S
N1 C0 1.317 . S
N1 N5 1.370 . S
N2 C0 1.348 . S
N2 C4 1.346 . S
C3 C0 1.485 . S
C3 H7 0.960 . S
C3 H8 0.961 . S
C3 H9 0.960 . S
C4 N2 1.346 . S
C4 N5 1.307 . S
C4 C6 1.486 . S
N5 N1 1.370 . S
N5 C4 1.307 . S
C6 C4 1.486 . S
C6 H10 0.960 . S
C6 H11 0.960 . S
C6 H12 0.959 . S
H7 C3 0.960 . S
H8 C3 0.961 . S
H9 C3 0.960 . S
H10 C6 0.960 . S
H11 C6 0.960 . S
H12 C6 0.959 . S
C13 N14 1.317 . S
C13 N15 1.348 . S
C13 C16 1.485 . S
N14 C13 1.317 . S
N14 N18 1.370 . S
N15 C13 1.348 . S
N15 C17 1.346 . S
C16 C13 1.485 . S
C16 H20 0.960 . S
C16 H21 0.961 . S
C16 H22 0.960 . S
C17 N15 1.346 . S
C17 N18 1.307 . S
C17 C19 1.486 . S
N18 N14 1.370 . S
N18 C17 1.307 . S
C19 C17 1.486 . S
C19 H23 0.960 1_455 S
C19 H24 0.960 1_455 S
C19 H25 0.959 . S
H20 C16 0.960 . S
H21 C16 0.961 . S
H22 C16 0.960 . S
H23 C19 0.960 1_655 S
H24 C19 0.960 1_655 S
H25 C19 0.959 . S
C26 N27 1.317 . S
C26 N28 1.348 . S
C26 C29 1.485 . S
N27 C26 1.317 . S
N27 N31 1.370 . S
N28 C26 1.348 . S
N28 C30 1.346 . S
C29 C26 1.485 . S
C29 H33 0.960 . S
C29 H34 0.961 . S
C29 H35 0.960 . S
C30 N28 1.346 . S
C30 N31 1.307 . S
C30 C32 1.486 . S
N31 N27 1.370 . S
N31 C30 1.307 . S
C32 C30 1.486 . S
C32 H36 0.960 . S
C32 H37 0.960 . S
C32 H38 0.959 . S
H33 C29 0.960 . S
H34 C29 0.961 . S
H35 C29 0.960 . S
H36 C32 0.960 . S
H37 C32 0.960 . S
H38 C32 0.959 . S
C39 N40 1.317 . S
C39 N41 1.348 . S
C39 C42 1.485 . S
N40 C39 1.317 . S
N40 N44 1.370 . S
N41 C39 1.348 . S
N41 C43 1.346 . S
C42 C39 1.485 . S
C42 H46 0.960 . S
C42 H47 0.961 . S
C42 H48 0.960 . S
C43 N41 1.346 . S
C43 N44 1.307 . S
C43 C45 1.486 . S
N44 N40 1.370 . S
N44 C43 1.307 . S
C45 C43 1.486 . S
C45 H49 0.960 . S
C45 H50 0.960 . S
C45 H51 0.959 . S
H46 C42 0.960 . S
H47 C42 0.961 . S
H48 C42 0.960 . S
H49 C45 0.960 . S
H50 C45 0.960 . S
H51 C45 0.959 . S
C52 N53 1.317 . S
C52 N54 1.348 . S
C52 C55 1.485 . S
N53 C52 1.317 . S
N53 N57 1.370 . S
N54 C52 1.348 . S
N54 C56 1.346 . S
C55 C52 1.485 . S
C55 H59 0.960 . S
C55 H60 0.961 . S
C55 H61 0.960 . S
C56 N54 1.346 . S
C56 N57 1.307 . S
C56 C58 1.486 . S
N57 N53 1.370 . S
N57 C56 1.307 . S
C58 C56 1.486 . S
C58 H62 0.960 . S
C58 H63 0.960 . S
C58 H64 0.959 . S
H59 C55 0.960 . S
H60 C55 0.961 . S
H61 C55 0.960 . S
H62 C58 0.960 . S
H63 C58 0.960 . S
H64 C58 0.959 . S
C65 N66 1.317 . S
C65 N67 1.348 . S
C65 C68 1.485 . S
N66 C65 1.317 . S
N66 N70 1.370 . S
N67 C65 1.348 . S
N67 C69 1.346 . S
C68 C65 1.485 . S
C68 H72 0.960 . S
C68 H73 0.961 . S
C68 H74 0.960 . S
C69 N67 1.346 . S
C69 N70 1.307 . S
C69 C71 1.486 . S
N70 N66 1.370 . S
N70 C69 1.307 . S
C71 C69 1.486 . S
C71 H75 0.960 . S
C71 H76 0.960 . S
C71 H77 0.959 . S
H72 C68 0.960 . S
H73 C68 0.961 . S
H74 C68 0.960 . S
H75 C71 0.960 . S
H76 C71 0.960 . S
H77 C71 0.959 . S
C78 N79 1.317 . S
C78 N80 1.348 . S
C78 C81 1.485 . S
N79 C78 1.317 . S
N79 N83 1.370 . S
N80 C78 1.348 . S
N80 C82 1.346 . S
C81 C78 1.485 . S
C81 H85 0.960 . S
C81 H86 0.961 . S
C81 H87 0.960 . S
C82 N80 1.346 . S
C82 N83 1.307 . S
C82 C84 1.486 . S
N83 N79 1.370 . S
N83 C82 1.307 . S
C84 C82 1.486 . S
C84 H88 0.960 . S
C84 H89 0.960 . S
C84 H90 0.959 . S
H85 C81 0.960 . S
H86 C81 0.961 . S
H87 C81 0.960 . S
H88 C84 0.960 . S
H89 C84 0.960 . S
H90 C84 0.959 . S
C91 N92 1.317 . S
C91 N93 1.348 . S
C91 C94 1.485 . S
N92 C91 1.317 . S
N92 N96 1.370 . S
N93 C91 1.348 . S
N93 C95 1.346 . S
C94 C91 1.485 . S
C94 H98 0.960 . S
C94 H99 0.961 . S
C94 H100 0.960 . S
C95 N93 1.346 . S
C95 N96 1.307 . S
C95 C97 1.486 . S
N96 N92 1.370 . S
N96 C95 1.307 . S
C97 C95 1.486 . S
C97 H101 0.960 . S
C97 H102 0.960 . S
C97 H103 0.959 . S
H98 C94 0.960 . S
H99 C94 0.961 . S
H100 C94 0.960 . S
H101 C97 0.960 . S
H102 C97 0.960 . S
H103 C97 0.959 . S
Zn104 O110 1.920 . S
Zn104 O116 1.898 . S
Zn104 O119 1.905 . S
Zn105 O113 1.905 . S
Zn105 O114 1.898 . S
Zn105 O122 1.920 1_455 S
Zn106 O109 2.080 . S
Zn106 O112 2.114 . S
Zn106 O115 2.120 . S
Zn106 O117 2.120 . S
Zn106 O118 2.114 . S
Zn106 O121 2.080 . S
C107 O112 1.166 . S
C107 O113 1.182 . S
C108 O114 1.167 . S
C108 O115 1.299 . S
O109 Zn106 2.080 . S
O109 C123 1.305 . S
O110 Zn104 1.920 . S
O110 C123 1.234 . S
C111 O116 1.167 . S
C111 O117 1.299 . S
O112 Zn106 2.114 . S
O112 C107 1.166 . S
O113 Zn105 1.905 . S
O113 C107 1.182 . S
O114 Zn105 1.898 . S
O114 C108 1.167 . S
O115 Zn106 2.120 . S
O115 C108 1.299 . S
O116 Zn104 1.898 . S
O116 C111 1.167 . S
O117 Zn106 2.120 . S
O117 C111 1.299 . S
O118 Zn106 2.114 . S
O118 C120 1.166 . S
O119 Zn104 1.905 . S
O119 C120 1.182 . S
C120 O118 1.166 . S
C120 O119 1.182 . S
O121 Zn106 2.080 . S
O121 C124 1.305 . S
O122 Zn105 1.920 1_655 S
O122 C124 1.234 1_655 S
C123 O109 1.305 . S
C123 O110 1.234 . S
C124 O121 1.305 . S
C124 O122 1.234 1_455 S
Zn125 O131 1.920 . S
Zn125 O137 1.898 . S
Zn125 O140 1.905 . S
Zn126 O134 1.905 . S
Zn126 O135 1.898 . S
Zn126 O143 1.920 . S
Zn127 O130 2.080 . S
Zn127 O133 2.114 . S
Zn127 O136 2.120 . S
Zn127 O138 2.120 . S
Zn127 O139 2.114 . S
Zn127 O142 2.080 . S
C128 O133 1.166 . S
C128 O134 1.182 . S
C129 O135 1.167 . S
C129 O136 1.299 . S
O130 Zn127 2.080 . S
O130 C144 1.305 . S
O131 Zn125 1.920 . S
O131 C144 1.234 . S
C132 O137 1.167 . S
C132 O138 1.299 . S
O133 Zn127 2.114 . S
O133 C128 1.166 . S
O134 Zn126 1.905 . S
O134 C128 1.182 . S
O135 Zn126 1.898 . S
O135 C129 1.167 . S
O136 Zn127 2.120 . S
O136 C129 1.299 . S
O137 Zn125 1.898 . S
O137 C132 1.167 . S
O138 Zn127 2.120 . S
O138 C132 1.299 . S
O139 Zn127 2.114 . S
O139 C141 1.166 . S
O140 Zn125 1.905 . S
O140 C141 1.182 . S
C141 O139 1.166 . S
C141 O140 1.182 . S
O142 Zn127 2.080 . S
O142 C145 1.305 . S
O143 Zn126 1.920 . S
O143 C145 1.234 . S
C144 O130 1.305 . S
C144 O131 1.234 . S
C145 O142 1.305 . S
C145 O143 1.234 . S
Zn146 O152 1.920 . S
Zn146 O158 1.898 . S
Zn146 O161 1.905 . S
Zn147 O155 1.905 . S
Zn147 O156 1.898 . S
Zn147 O164 1.920 . S
Zn148 O151 2.080 . S
Zn148 O154 2.114 . S
Zn148 O157 2.120 . S
Zn148 O159 2.120 . S
Zn148 O160 2.114 . S
Zn148 O163 2.080 . S
C149 O154 1.166 . S
C149 O155 1.182 . S
C150 O156 1.167 . S
C150 O157 1.299 . S
O151 Zn148 2.080 . S
O151 C165 1.305 . S
O152 Zn146 1.920 . S
O152 C165 1.234 . S
C153 O158 1.167 . S
C153 O159 1.299 . S
O154 Zn148 2.114 . S
O154 C149 1.166 . S
O155 Zn147 1.905 . S
O155 C149 1.182 . S
O156 Zn147 1.898 . S
O156 C150 1.167 . S
O157 Zn148 2.120 . S
O157 C150 1.299 . S
O158 Zn146 1.898 . S
O158 C153 1.167 . S
O159 Zn148 2.120 . S
O159 C153 1.299 . S
O160 Zn148 2.114 . S
O160 C162 1.166 . S
O161 Zn146 1.905 . S
O161 C162 1.182 . S
C162 O160 1.166 . S
C162 O161 1.182 . S
O163 Zn148 2.080 . S
O163 C166 1.305 . S
O164 Zn147 1.920 . S
O164 C166 1.234 . S
C165 O151 1.305 . S
C165 O152 1.234 . S
C166 O163 1.305 . S
C166 O164 1.234 . S
Zn167 O173 1.920 . S
Zn167 O179 1.898 . S
Zn167 O182 1.905 1_455 S
Zn168 O176 1.905 . S
Zn168 O177 1.898 . S
Zn168 O185 1.920 . S
Zn169 O172 2.080 . S
Zn169 O175 2.114 . S
Zn169 O178 2.120 . S
Zn169 O180 2.120 . S
Zn169 O181 2.114 . S
Zn169 O184 2.080 . S
C170 O175 1.166 . S
C170 O176 1.182 . S
C171 O177 1.167 . S
C171 O178 1.299 . S
O172 Zn169 2.080 . S
O172 C186 1.305 . S
O173 Zn167 1.920 . S
O173 C186 1.234 . S
C174 O179 1.167 . S
C174 O180 1.299 . S
O175 Zn169 2.114 . S
O175 C170 1.166 . S
O176 Zn168 1.905 . S
O176 C170 1.182 . S
O177 Zn168 1.898 . S
O177 C171 1.167 . S
O178 Zn169 2.120 . S
O178 C171 1.299 . S
O179 Zn167 1.898 . S
O179 C174 1.167 . S
O180 Zn169 2.120 . S
O180 C174 1.299 . S
O181 Zn169 2.114 . S
O181 C183 1.166 . S
O182 Zn167 1.905 1_655 S
O182 C183 1.182 1_655 S
C183 O181 1.166 . S
C183 O182 1.182 1_455 S
O184 Zn169 2.080 . S
O184 C187 1.305 . S
O185 Zn168 1.920 . S
O185 C187 1.234 . S
C186 O172 1.305 . S
C186 O173 1.234 . S
C187 O184 1.305 . S
C187 O185 1.234 . S
C188 C189 1.391 . S
C188 C190 1.394 . S
C188 H204 0.931 . S
C189 C188 1.391 . S
C189 C193 1.376 . S
C190 C188 1.394 . S
C190 C191 1.369 . S
C190 C194 1.531 . S
C191 C190 1.369 . S
C191 C192 1.410 . S
C191 C199 1.503 . S
C192 C191 1.410 . S
C192 C193 1.392 . S
C192 C195 1.511 . S
C193 C189 1.376 . S
C193 C192 1.392 . S
C193 H205 0.929 . S
C194 C190 1.531 . S
C194 H206 0.960 . S
C194 H207 0.962 . S
C194 H208 0.960 . S
C195 C192 1.511 . S
C195 H209 0.961 . S
C195 H210 0.961 . S
C195 H211 0.961 . S
C196 C197 1.370 . S
C196 C198 1.363 . S
C196 H212 0.931 . S
C197 C196 1.370 . S
C197 C201 1.408 . S
C198 C196 1.363 . S
C198 C199 1.370 . S
C198 C202 1.524 . S
C199 C191 1.503 . S
C199 C198 1.370 . S
C199 C200 1.403 . S
C200 C199 1.403 . S
C200 C201 1.404 . S
C200 C203 1.539 . S
C201 C197 1.408 . S
C201 C200 1.404 . S
C201 H213 0.930 . S
C202 C198 1.524 . S
C202 H214 0.956 . S
C202 H215 0.961 . S
C202 H216 0.961 . S
C203 C200 1.539 . S
C203 H217 0.958 . S
C203 H218 0.961 . S
C203 H219 0.960 . S
H204 C188 0.931 . S
H205 C193 0.929 . S
H206 C194 0.960 . S
H207 C194 0.962 . S
H208 C194 0.960 . S
H209 C195 0.961 . S
H210 C195 0.961 . S
H211 C195 0.961 . S
H212 C196 0.931 . S
H213 C201 0.930 . S
H214 C202 0.956 . S
H215 C202 0.961 . S
H216 C202 0.961 . S
H217 C203 0.958 . S
H218 C203 0.961 . S
H219 C203 0.960 . S
C220 C221 1.391 1_655 S
C220 C222 1.394 . S
C220 H236 0.931 1_655 S
C221 C220 1.391 1_455 S
C221 C225 1.376 1_455 S
C222 C220 1.394 . S
C222 C223 1.369 . S
C222 C226 1.531 . S
C223 C222 1.369 . S
C223 C224 1.410 . S
C223 C231 1.503 . S
C224 C223 1.410 . S
C224 C225 1.392 . S
C224 C227 1.511 . S
C225 C221 1.376 1_655 S
C225 C224 1.392 . S
C225 H237 0.929 . S
C226 C222 1.531 . S
C226 H238 0.960 . S
C226 H239 0.962 . S
C226 H240 0.960 . S
C227 C224 1.511 . S
C227 H241 0.961 . S
C227 H242 0.961 . S
C227 H243 0.961 . S
C228 C229 1.370 . S
C228 C230 1.363 . S
C228 H244 0.931 . S
C229 C228 1.370 . S
C229 C233 1.408 . S
C230 C228 1.363 . S
C230 C231 1.370 . S
C230 C234 1.524 . S
C231 C223 1.503 . S
C231 C230 1.370 . S
C231 C232 1.403 . S
C232 C231 1.403 . S
C232 C233 1.404 . S
C232 C235 1.539 . S
C233 C229 1.408 . S
C233 C232 1.404 . S
C233 H245 0.930 . S
C234 C230 1.524 . S
C234 H246 0.956 . S
C234 H247 0.961 . S
C234 H248 0.961 . S
C235 C232 1.539 . S
C235 H249 0.958 . S
C235 H250 0.961 . S
C235 H251 0.960 . S
H236 C220 0.931 1_455 S
H237 C225 0.929 . S
H238 C226 0.960 . S
H239 C226 0.962 . S
H240 C226 0.960 . S
H241 C227 0.961 . S
H242 C227 0.961 . S
H243 C227 0.961 . S
H244 C228 0.931 . S
H245 C233 0.930 . S
H246 C234 0.956 . S
H247 C234 0.961 . S
H248 C234 0.961 . S
H249 C235 0.958 . S
H250 C235 0.961 . S
H251 C235 0.960 . S
C252 C253 1.391 . S
C252 C254 1.394 . S
C252 H268 0.931 . S
C253 C252 1.391 . S
C253 C257 1.376 . S
C254 C252 1.394 . S
C254 C255 1.369 . S
C254 C258 1.531 . S
C255 C254 1.369 . S
C255 C256 1.410 . S
C255 C263 1.503 . S
C256 C255 1.410 . S
C256 C257 1.392 . S
C256 C259 1.511 . S
C257 C253 1.376 . S
C257 C256 1.392 . S
C257 H269 0.929 . S
C258 C254 1.531 . S
C258 H270 0.960 . S
C258 H271 0.962 . S
C258 H272 0.960 . S
C259 C256 1.511 . S
C259 H273 0.961 . S
C259 H274 0.961 . S
C259 H275 0.961 . S
C260 C261 1.370 . S
C260 C262 1.363 . S
C260 H276 0.931 . S
C261 C260 1.370 . S
C261 C265 1.408 . S
C262 C260 1.363 . S
C262 C263 1.370 . S
C262 C266 1.524 . S
C263 C255 1.503 . S
C263 C262 1.370 . S
C263 C264 1.403 . S
C264 C263 1.403 . S
C264 C265 1.404 . S
C264 C267 1.539 . S
C265 C261 1.408 . S
C265 C264 1.404 . S
C265 H277 0.930 . S
C266 C262 1.524 . S
C266 H278 0.956 . S
C266 H279 0.961 . S
C266 H280 0.961 . S
C267 C264 1.539 . S
C267 H281 0.958 . S
C267 H282 0.961 . S
C267 H283 0.960 . S
H268 C252 0.931 . S
H269 C257 0.929 . S
H270 C258 0.960 . S
H271 C258 0.962 . S
H272 C258 0.960 . S
H273 C259 0.961 . S
H274 C259 0.961 . S
H275 C259 0.961 . S
H276 C260 0.931 . S
H277 C265 0.930 . S
H278 C266 0.956 . S
H279 C266 0.961 . S
H280 C266 0.961 . S
H281 C267 0.958 . S
H282 C267 0.961 . S
H283 C267 0.960 . S
C284 C285 1.391 . S
C284 C286 1.394 . S
C284 H300 0.931 . S
C285 C284 1.391 . S
C285 C289 1.376 . S
C286 C284 1.394 . S
C286 C287 1.369 . S
C286 C290 1.531 . S
C287 C286 1.369 . S
C287 C288 1.410 . S
C287 C295 1.503 . S
C288 C287 1.410 . S
C288 C289 1.392 . S
C288 C291 1.511 . S
C289 C285 1.376 . S
C289 C288 1.392 . S
C289 H301 0.929 . S
C290 C286 1.531 . S
C290 H302 0.960 . S
C290 H303 0.962 . S
C290 H304 0.960 . S
C291 C288 1.511 . S
C291 H305 0.961 . S
C291 H306 0.961 . S
C291 H307 0.961 . S
C292 C293 1.370 . S
C292 C294 1.363 . S
C292 H308 0.931 . S
C293 C292 1.370 . S
C293 C297 1.408 . S
C294 C292 1.363 . S
C294 C295 1.370 . S
C294 C298 1.524 . S
C295 C287 1.503 . S
C295 C294 1.370 . S
C295 C296 1.403 . S
C296 C295 1.403 . S
C296 C297 1.404 . S
C296 C299 1.539 . S
C297 C293 1.408 . S
C297 C296 1.404 . S
C297 H309 0.930 . S
C298 C294 1.524 . S
C298 H310 0.956 . S
C298 H311 0.961 . S
C298 H312 0.961 . S
C299 C296 1.539 . S
C299 H313 0.958 . S
C299 H314 0.961 . S
C299 H315 0.960 . S
H300 C284 0.931 . S
H301 C289 0.929 . S
H302 C290 0.960 . S
H303 C290 0.962 . S
H304 C290 0.960 . S
H305 C291 0.961 . S
H306 C291 0.961 . S
H307 C291 0.961 . S
H308 C292 0.931 . S
H309 C297 0.930 . S
H310 C298 0.956 . S
H311 C298 0.961 . S
H312 C298 0.961 . S
H313 C299 0.958 . S
H314 C299 0.961 . S
H315 C299 0.960 . S
C316 C317 1.391 . S
C316 C318 1.394 . S
C316 H332 0.931 . S
C317 C316 1.391 . S
C317 C321 1.376 . S
C318 C316 1.394 . S
C318 C319 1.369 . S
C318 C322 1.531 . S
C319 C318 1.369 . S
C319 C320 1.410 . S
C319 C327 1.503 . S
C320 C319 1.410 . S
C320 C321 1.392 . S
C320 C323 1.511 1_455 S
C321 C317 1.376 . S
C321 C320 1.392 . S
C321 H333 0.929 1_455 S
C322 C318 1.531 . S
C322 H334 0.960 . S
C322 H335 0.962 . S
C322 H336 0.960 . S
C323 C320 1.511 1_655 S
C323 H337 0.961 . S
C323 H338 0.961 . S
C323 H339 0.961 . S
C324 C325 1.370 . S
C324 C326 1.363 . S
C324 H340 0.931 . S
C325 C324 1.370 . S
C325 C329 1.408 . S
C326 C324 1.363 . S
C326 C327 1.370 . S
C326 C330 1.524 . S
C327 C319 1.503 . S
C327 C326 1.370 . S
C327 C328 1.403 . S
C328 C327 1.403 . S
C328 C329 1.404 . S
C328 C331 1.539 . S
C329 C325 1.408 . S
C329 C328 1.404 . S
C329 H341 0.930 . S
C330 C326 1.524 . S
C330 H342 0.956 . S
C330 H343 0.961 . S
C330 H344 0.961 . S
C331 C328 1.539 . S
C331 H345 0.958 . S
C331 H346 0.961 . S
C331 H347 0.960 . S
H332 C316 0.931 . S
H333 C321 0.929 1_655 S
H334 C322 0.960 . S
H335 C322 0.962 . S
H336 C322 0.960 . S
H337 C323 0.961 . S
H338 C323 0.961 . S
H339 C323 0.961 . S
H340 C324 0.931 . S
H341 C329 0.930 . S
H342 C330 0.956 . S
H343 C330 0.961 . S
H344 C330 0.961 . S
H345 C331 0.958 . S
H346 C331 0.961 . S
H347 C331 0.960 . S
C348 C349 1.391 . S
C348 C350 1.394 . S
C348 H364 0.931 . S
C349 C348 1.391 . S
C349 C353 1.376 . S
C350 C348 1.394 . S
C350 C351 1.369 . S
C350 C354 1.531 . S
C351 C350 1.369 . S
C351 C352 1.410 . S
C351 C359 1.503 . S
C352 C351 1.410 . S
C352 C353 1.392 . S
C352 C355 1.511 . S
C353 C349 1.376 . S
C353 C352 1.392 . S
C353 H365 0.929 . S
C354 C350 1.531 . S
C354 H366 0.960 . S
C354 H367 0.962 . S
C354 H368 0.960 . S
C355 C352 1.511 . S
C355 H369 0.961 . S
C355 H370 0.961 . S
C355 H371 0.961 . S
C356 C357 1.370 . S
C356 C358 1.363 . S
C356 H372 0.931 . S
C357 C356 1.370 . S
C357 C361 1.408 . S
C358 C356 1.363 . S
C358 C359 1.370 . S
C358 C362 1.524 . S
C359 C351 1.503 . S
C359 C358 1.370 . S
C359 C360 1.403 . S
C360 C359 1.403 . S
C360 C361 1.404 . S
C360 C363 1.539 . S
C361 C357 1.408 . S
C361 C360 1.404 . S
C361 H373 0.930 . S
C362 C358 1.524 . S
C362 H374 0.956 . S
C362 H375 0.961 . S
C362 H376 0.961 . S
C363 C360 1.539 . S
C363 H377 0.958 . S
C363 H378 0.961 . S
C363 H379 0.960 . S
H364 C348 0.931 . S
H365 C353 0.929 . S
H366 C354 0.960 . S
H367 C354 0.962 . S
H368 C354 0.960 . S
H369 C355 0.961 . S
H370 C355 0.961 . S
H371 C355 0.961 . S
H372 C356 0.931 . S
H373 C361 0.930 . S
H374 C362 0.956 . S
H375 C362 0.961 . S
H376 C362 0.961 . S
H377 C363 0.958 . S
H378 C363 0.961 . S
H379 C363 0.960 . S
C380 C381 1.391 . S
C380 C382 1.394 . S
C380 H396 0.931 . S
C381 C380 1.391 . S
C381 C385 1.376 . S
C382 C380 1.394 . S
C382 C383 1.369 . S
C382 C386 1.531 . S
C383 C382 1.369 . S
C383 C384 1.410 . S
C383 C391 1.503 . S
C384 C383 1.410 . S
C384 C385 1.392 . S
C384 C387 1.511 . S
C385 C381 1.376 . S
C385 C384 1.392 . S
C385 H397 0.929 . S
C386 C382 1.531 . S
C386 H398 0.960 . S
C386 H399 0.962 . S
C386 H400 0.960 . S
C387 C384 1.511 . S
C387 H401 0.961 . S
C387 H402 0.961 . S
C387 H403 0.961 . S
C388 C389 1.370 . S
C388 C390 1.363 . S
C388 H404 0.931 . S
C389 C388 1.370 . S
C389 C393 1.408 . S
C390 C388 1.363 . S
C390 C391 1.370 . S
C390 C394 1.524 . S
C391 C383 1.503 . S
C391 C390 1.370 . S
C391 C392 1.403 . S
C392 C391 1.403 . S
C392 C393 1.404 . S
C392 C395 1.539 . S
C393 C389 1.408 . S
C393 C392 1.404 . S
C393 H405 0.930 . S
C394 C390 1.524 . S
C394 H406 0.956 . S
C394 H407 0.961 . S
C394 H408 0.961 . S
C395 C392 1.539 . S
C395 H409 0.958 . S
C395 H410 0.961 . S
C395 H411 0.960 . S
H396 C380 0.931 . S
H397 C385 0.929 . S
H398 C386 0.960 . S
H399 C386 0.962 . S
H400 C386 0.960 . S
H401 C387 0.961 . S
H402 C387 0.961 . S
H403 C387 0.961 . S
H404 C388 0.931 . S
H405 C393 0.930 . S
H406 C394 0.956 . S
H407 C394 0.961 . S
H408 C394 0.961 . S
H409 C395 0.958 . S
H410 C395 0.961 . S
H411 C395 0.960 . S
C412 C413 1.394 . S
C412 C414 1.389 1_455 S
C412 H428 0.932 . S
C413 C412 1.394 . S
C413 C417 1.376 . S
C414 C412 1.389 1_655 S
C414 C415 1.369 . S
C414 C418 1.531 . S
C415 C414 1.369 . S
C415 C416 1.410 . S
C415 C423 1.503 . S
C416 C415 1.410 . S
C416 C417 1.392 1_655 S
C416 C419 1.511 . S
C417 C413 1.376 . S
C417 C416 1.392 1_455 S
C417 H429 0.929 . S
C418 C414 1.531 . S
C418 H430 0.960 . S
C418 H431 0.962 . S
C418 H432 0.960 . S
C419 C416 1.511 . S
C419 H433 0.961 . S
C419 H434 0.961 . S
C419 H435 0.961 . S
C420 C421 1.370 . S
C420 C422 1.363 . S
C420 H436 0.931 . S
C421 C420 1.370 . S
C421 C425 1.408 . S
C422 C420 1.363 . S
C422 C423 1.370 . S
C422 C426 1.524 . S
C423 C415 1.503 . S
C423 C422 1.370 . S
C423 C424 1.403 . S
C424 C423 1.403 . S
C424 C425 1.404 . S
C424 C427 1.539 . S
C425 C421 1.408 . S
C425 C424 1.404 . S
C425 H437 0.930 . S
C426 C422 1.524 . S
C426 H438 0.956 . S
C426 H439 0.961 . S
C426 H440 0.961 . S
C427 C424 1.539 . S
C427 H441 0.958 . S
C427 H442 0.961 . S
C427 H443 0.960 . S
H428 C412 0.932 . S
H429 C417 0.929 . S
H430 C418 0.960 . S
H431 C418 0.962 . S
H432 C418 0.960 . S
H433 C419 0.961 . S
H434 C419 0.961 . S
H435 C419 0.961 . S
H436 C420 0.931 . S
H437 C425 0.930 . S
H438 C426 0.956 . S
H439 C426 0.961 . S
H440 C426 0.961 . S
H441 C427 0.958 . S
H442 C427 0.961 . S
H443 C427 0.960 . S
C444 C445 1.391 . S
C444 C446 1.394 . S
C444 H460 0.931 . S
C445 C444 1.391 . S
C445 C449 1.376 . S
C446 C444 1.394 . S
C446 C447 1.369 . S
C446 C450 1.531 . S
C447 C446 1.369 . S
C447 C448 1.410 . S
C447 C455 1.503 . S
C448 C447 1.410 . S
C448 C449 1.392 . S
C448 C451 1.511 . S
C449 C445 1.376 . S
C449 C448 1.392 . S
C449 H461 0.929 . S
C450 C446 1.531 . S
C450 H462 0.960 . S
C450 H463 0.962 . S
C450 H464 0.960 . S
C451 C448 1.511 . S
C451 H465 0.961 . S
C451 H466 0.961 . S
C451 H467 0.961 . S
C452 C453 1.370 . S
C452 C454 1.363 . S
C452 H468 0.931 . S
C453 C452 1.370 . S
C453 C457 1.408 . S
C454 C452 1.363 . S
C454 C455 1.370 . S
C454 C458 1.524 . S
C455 C447 1.503 . S
C455 C454 1.370 . S
C455 C456 1.403 . S
C456 C455 1.403 . S
C456 C457 1.404 . S
C456 C459 1.539 . S
C457 C453 1.408 . S
C457 C456 1.404 . S
C457 H469 0.930 . S
C458 C454 1.524 . S
C458 H470 0.956 . S
C458 H471 0.961 . S
C458 H472 0.961 . S
C459 C456 1.539 . S
C459 H473 0.958 . S
C459 H474 0.961 . S
C459 H475 0.960 . S
H460 C444 0.931 . S
H461 C449 0.929 . S
H462 C450 0.960 . S
H463 C450 0.962 . S
H464 C450 0.960 . S
H465 C451 0.961 . S
H466 C451 0.961 . S
H467 C451 0.961 . S
H468 C452 0.931 . S
H469 C457 0.930 . S
H470 C458 0.956 . S
H471 C458 0.961 . S
H472 C458 0.961 . S
H473 C459 0.958 . S
H474 C459 0.961 . S
H475 C459 0.960 . S
C476 C477 1.391 . S
C476 C478 1.394 . S
C476 H492 0.931 . S
C477 C476 1.391 . S
C477 C481 1.376 . S
C478 C476 1.394 . S
C478 C479 1.369 . S
C478 C482 1.531 . S
C479 C478 1.369 . S
C479 C480 1.410 . S
C479 C487 1.503 . S
C480 C479 1.410 . S
C480 C481 1.392 . S
C480 C483 1.511 . S
C481 C477 1.376 . S
C481 C480 1.392 . S
C481 H493 0.929 . S
C482 C478 1.531 . S
C482 H494 0.960 . S
C482 H495 0.962 . S
C482 H496 0.960 . S
C483 C480 1.511 . S
C483 H497 0.961 . S
C483 H498 0.961 . S
C483 H499 0.961 . S
C484 C485 1.370 . S
C484 C486 1.363 . S
C484 H500 0.931 . S
C485 C484 1.370 . S
C485 C489 1.408 . S
C486 C484 1.363 . S
C486 C487 1.370 . S
C486 C490 1.524 . S
C487 C479 1.503 . S
C487 C486 1.370 . S
C487 C488 1.403 . S
C488 C487 1.403 . S
C488 C489 1.404 . S
C488 C491 1.539 . S
C489 C485 1.408 . S
C489 C488 1.404 . S
C489 H501 0.930 . S
C490 C486 1.524 . S
C490 H502 0.956 . S
C490 H503 0.961 . S
C490 H504 0.961 . S
C491 C488 1.539 . S
C491 H505 0.958 . S
C491 H506 0.961 . S
C491 H507 0.960 . S
H492 C476 0.931 . S
H493 C481 0.929 . S
H494 C482 0.960 . S
H495 C482 0.962 . S
H496 C482 0.960 . S
H497 C483 0.961 . S
H498 C483 0.961 . S
H499 C483 0.961 . S
H500 C484 0.931 . S
H501 C489 0.930 . S
H502 C490 0.956 . S
H503 C490 0.961 . S
H504 C490 0.961 . S
H505 C491 0.958 . S
H506 C491 0.961 . S
H507 C491 0.960 . S
C508 C509 1.391 . S
C508 C510 1.394 . S
C508 H524 0.931 . S
C509 C508 1.391 . S
C509 C513 1.376 . S
C510 C508 1.394 . S
C510 C511 1.369 . S
C510 C514 1.531 . S
C511 C510 1.369 . S
C511 C512 1.410 . S
C511 C519 1.503 . S
C512 C511 1.410 . S
C512 C513 1.392 . S
C512 C515 1.511 . S
C513 C509 1.376 . S
C513 C512 1.392 . S
C513 H525 0.929 . S
C514 C510 1.531 . S
C514 H526 0.960 . S
C514 H527 0.962 . S
C514 H528 0.960 . S
C515 C512 1.511 . S
C515 H529 0.961 . S
C515 H530 0.961 . S
C515 H531 0.961 . S
C516 C517 1.370 . S
C516 C518 1.363 . S
C516 H532 0.931 . S
C517 C516 1.370 . S
C517 C521 1.408 . S
C518 C516 1.363 . S
C518 C519 1.370 . S
C518 C522 1.524 . S
C519 C511 1.503 . S
C519 C518 1.370 . S
C519 C520 1.403 . S
C520 C519 1.403 . S
C520 C521 1.404 . S
C520 C523 1.539 . S
C521 C517 1.408 . S
C521 C520 1.404 . S
C521 H533 0.930 . S
C522 C518 1.524 . S
C522 H534 0.956 . S
C522 H535 0.961 . S
C522 H536 0.961 . S
C523 C520 1.539 . S
C523 H537 0.958 . S
C523 H538 0.961 . S
C523 H539 0.960 . S
H524 C508 0.931 . S
H525 C513 0.929 . S
H526 C514 0.960 . S
H527 C514 0.962 . S
H528 C514 0.960 . S
H529 C515 0.961 . S
H530 C515 0.961 . S
H531 C515 0.961 . S
H532 C516 0.931 . S
H533 C521 0.930 . S
H534 C522 0.956 . S
H535 C522 0.961 . S
H536 C522 0.961 . S
H537 C523 0.958 . S
H538 C523 0.961 . S
H539 C523 0.960 . S
C540 C541 1.391 . S
C540 C542 1.394 . S
C540 H556 0.931 . S
C541 C540 1.391 . S
C541 C545 1.376 . S
C542 C540 1.394 . S
C542 C543 1.369 . S
C542 C546 1.531 . S
C543 C542 1.369 . S
C543 C544 1.410 . S
C543 C551 1.503 . S
C544 C543 1.410 . S
C544 C545 1.392 . S
C544 C547 1.511 . S
C545 C541 1.376 . S
C545 C544 1.392 . S
C545 H557 0.929 . S
C546 C542 1.531 . S
C546 H558 0.960 . S
C546 H559 0.962 . S
C546 H560 0.960 . S
C547 C544 1.511 . S
C547 H561 0.961 . S
C547 H562 0.961 . S
C547 H563 0.961 . S
C548 C549 1.370 . S
C548 C550 1.363 . S
C548 H564 0.931 . S
C549 C548 1.370 . S
C549 C553 1.408 . S
C550 C548 1.363 . S
C550 C551 1.370 . S
C550 C554 1.524 . S
C551 C543 1.503 . S
C551 C550 1.370 . S
C551 C552 1.403 . S
C552 C551 1.403 . S
C552 C553 1.404 . S
C552 C555 1.539 . S
C553 C549 1.408 . S
C553 C552 1.404 . S
C553 H565 0.930 . S
C554 C550 1.524 . S
C554 H566 0.956 . S
C554 H567 0.961 . S
C554 H568 0.961 . S
C555 C552 1.539 . S
C555 H569 0.958 . S
C555 H570 0.961 . S
C555 H571 0.960 . S
H556 C540 0.931 . S
H557 C545 0.929 . S
H558 C546 0.960 . S
H559 C546 0.962 . S
H560 C546 0.960 . S
H561 C547 0.961 . S
H562 C547 0.961 . S
H563 C547 0.961 . S
H564 C548 0.931 . S
H565 C553 0.930 . S
H566 C554 0.956 . S
H567 C554 0.961 . S
H568 C554 0.961 . S
H569 C555 0.958 . S
H570 C555 0.961 . S
H571 C555 0.960 . S
C572 C573 1.391 . S
C572 C574 1.394 . S
C572 H588 0.931 . S
C573 C572 1.391 . S
C573 C577 1.376 . S
C574 C572 1.394 . S
C574 C575 1.369 . S
C574 C578 1.531 . S
C575 C574 1.369 . S
C575 C576 1.410 . S
C575 C583 1.503 1_565 S
C576 C575 1.410 . S
C576 C577 1.392 . S
C576 C579 1.511 . S
C577 C573 1.376 . S
C577 C576 1.392 . S
C577 H589 0.929 . S
C578 C574 1.531 . S
C578 H590 0.960 1_565 S
C578 H591 0.959 1_565 S
C578 H592 0.960 . S
C579 C576 1.511 . S
C579 H593 0.961 . S
C579 H594 0.961 . S
C579 H595 0.961 . S
C580 C581 1.370 . S
C580 C582 1.363 . S
C580 H596 0.931 . S
C581 C580 1.370 . S
C581 C585 1.408 . S
C582 C580 1.363 . S
C582 C583 1.370 . S
C582 C586 1.524 1_545 S
C583 C575 1.503 1_545 S
C583 C582 1.370 . S
C583 C584 1.403 . S
C584 C583 1.403 . S
C584 C585 1.404 . S
C584 C587 1.539 . S
C585 C581 1.408 . S
C585 C584 1.404 . S
C585 H597 0.930 . S
C586 C582 1.524 1_565 S
C586 H598 0.956 . S
C586 H599 0.961 . S
C586 H600 0.961 1_565 S
C587 C584 1.539 . S
C587 H601 0.958 . S
C587 H602 0.961 . S
C587 H603 0.960 1_545 S
H588 C572 0.931 . S
H589 C577 0.929 . S
H590 C578 0.960 1_545 S
H591 C578 0.959 1_545 S
H592 C578 0.960 . S
H593 C579 0.961 . S
H594 C579 0.961 . S
H595 C579 0.961 . S
H596 C580 0.931 . S
H597 C585 0.930 . S
H598 C586 0.956 . S
H599 C586 0.961 . S
H600 C586 0.961 1_545 S
H601 C587 0.958 . S
H602 C587 0.961 . S
H603 C587 0.960 1_565 S
C604 C605 1.391 . S
C604 C606 1.394 . S
C604 H620 0.931 . S
C605 C604 1.391 . S
C605 C609 1.376 . S
C606 C604 1.394 . S
C606 C607 1.369 . S
C606 C610 1.531 . S
C607 C606 1.369 . S
C607 C608 1.410 . S
C607 C615 1.503 . S
C608 C607 1.410 . S
C608 C609 1.392 . S
C608 C611 1.511 . S
C609 C605 1.376 . S
C609 C608 1.392 . S
C609 H621 0.929 . S
C610 C606 1.531 . S
C610 H622 0.960 . S
C610 H623 0.962 . S
C610 H624 0.960 . S
C611 C608 1.511 . S
C611 H625 0.961 . S
C611 H626 0.961 . S
C611 H627 0.961 . S
C612 C613 1.370 . S
C612 C614 1.359 1_565 S
C612 H628 0.931 . S
C613 C612 1.370 . S
C613 C617 1.408 . S
C614 C612 1.359 1_545 S
C614 C615 1.373 . S
C614 C618 1.525 . S
C615 C607 1.503 . S
C615 C614 1.373 . S
C615 C616 1.403 . S
C616 C615 1.403 . S
C616 C617 1.404 1_545 S
C616 C619 1.539 . S
C617 C613 1.408 . S
C617 C616 1.404 1_565 S
C617 H629 0.930 . S
C618 C614 1.525 . S
C618 H630 0.956 . S
C618 H631 0.961 . S
C618 H632 0.961 1_545 S
C619 C616 1.539 . S
C619 H633 0.958 . S
C619 H634 0.961 . S
C619 H635 0.960 . S
H620 C604 0.931 . S
H621 C609 0.929 . S
H622 C610 0.960 . S
H623 C610 0.962 . S
H624 C610 0.960 . S
H625 C611 0.961 . S
H626 C611 0.961 . S
H627 C611 0.961 . S
H628 C612 0.931 . S
H629 C617 0.930 . S
H630 C618 0.956 . S
H631 C618 0.961 . S
H632 C618 0.961 1_565 S
H633 C619 0.958 . S
H634 C619 0.961 . S
H635 C619 0.960 . S
C636 C637 1.391 . S
C636 C638 1.394 . S
C636 H652 0.931 . S
C637 C636 1.391 . S
C637 C641 1.376 . S
C638 C636 1.394 . S
C638 C639 1.369 . S
C638 C642 1.531 1_545 S
C639 C638 1.369 . S
C639 C640 1.410 . S
C639 C647 1.503 1_545 S
C640 C639 1.410 . S
C640 C641 1.392 . S
C640 C643 1.511 . S
C641 C637 1.376 . S
C641 C640 1.392 . S
C641 H653 0.929 . S
C642 C638 1.531 1_565 S
C642 H654 0.960 . S
C642 H655 0.962 . S
C642 H656 0.960 1_565 S
C643 C640 1.511 . S
C643 H657 0.961 . S
C643 H658 0.961 . S
C643 H659 0.961 . S
C644 C645 1.370 . S
C644 C646 1.363 . S
C644 H660 0.931 . S
C645 C644 1.370 . S
C645 C649 1.408 . S
C646 C644 1.363 . S
C646 C647 1.370 . S
C646 C650 1.524 . S
C647 C639 1.503 1_565 S
C647 C646 1.370 . S
C647 C648 1.403 . S
C648 C647 1.403 . S
C648 C649 1.404 . S
C648 C651 1.539 . S
C649 C645 1.408 . S
C649 C648 1.404 . S
C649 H661 0.930 . S
C650 C646 1.524 . S
C650 H662 0.956 . S
C650 H663 0.961 . S
C650 H664 0.961 . S
C651 C648 1.539 . S
C651 H665 0.958 . S
C651 H666 0.961 . S
C651 H667 0.960 1_565 S
H652 C636 0.931 . S
H653 C641 0.929 . S
H654 C642 0.960 . S
H655 C642 0.962 . S
H656 C642 0.960 1_545 S
H657 C643 0.961 . S
H658 C643 0.961 . S
H659 C643 0.961 . S
H660 C644 0.931 . S
H661 C649 0.930 . S
H662 C650 0.956 . S
H663 C650 0.961 . S
H664 C650 0.961 . S
H665 C651 0.958 . S
H666 C651 0.961 . S
H667 C651 0.960 1_545 S
C668 C669 1.391 . S
C668 C670 1.394 . S
C668 H684 0.931 1_455 S
C669 C668 1.391 . S
C669 C673 1.376 . S
C670 C668 1.394 . S
C670 C671 1.369 . S
C670 C674 1.531 1_455 S
C671 C670 1.369 . S
C671 C672 1.410 . S
C671 C679 1.503 . S
C672 C671 1.410 . S
C672 C673 1.392 . S
C672 C675 1.511 . S
C673 C669 1.376 . S
C673 C672 1.392 . S
C673 H685 0.929 . S
C674 C670 1.531 1_655 S
C674 H686 0.960 1_655 S
C674 H687 0.962 . S
C674 H688 0.960 . S
C675 C672 1.511 . S
C675 H689 0.961 . S
C675 H690 0.961 . S
C675 H691 0.961 . S
C676 C677 1.370 . S
C676 C678 1.363 1_545 S
C676 H692 0.931 . S
C677 C676 1.370 . S
C677 C681 1.408 . S
C678 C676 1.363 1_565 S
C678 C679 1.370 . S
C678 C682 1.524 . S
C679 C671 1.503 . S
C679 C678 1.370 . S
C679 C680 1.403 . S
C680 C679 1.403 . S
C680 C681 1.404 1_565 S
C680 C683 1.539 . S
C681 C677 1.408 . S
C681 C680 1.404 1_545 S
C681 H693 0.930 . S
C682 C678 1.524 . S
C682 H694 0.956 . S
C682 H695 0.961 . S
C682 H696 0.961 . S
C683 C680 1.539 . S
C683 H697 0.958 . S
C683 H698 0.961 . S
C683 H699 0.960 . S
H684 C668 0.931 1_655 S
H685 C673 0.929 . S
H686 C674 0.960 1_455 S
H687 C674 0.962 . S
H688 C674 0.960 . S
H689 C675 0.961 . S
H690 C675 0.961 . S
H691 C675 0.961 . S
H692 C676 0.931 . S
H693 C681 0.930 . S
H694 C682 0.956 . S
H695 C682 0.961 . S
H696 C682 0.961 . S
H697 C683 0.958 . S
H698 C683 0.961 . S
H699 C683 0.960 . S
C700 C701 1.391 . S
C700 C702 1.394 . S
C700 H716 0.931 . S
C701 C700 1.391 . S
C701 C705 1.376 . S
C702 C700 1.394 . S
C702 C703 1.369 . S
C702 C706 1.531 1_554 S
C703 C702 1.369 . S
C703 C704 1.410 . S
C703 C711 1.503 1_554 S
C704 C703 1.410 . S
C704 C705 1.392 . S
C704 C707 1.511 . S
C705 C701 1.376 . S
C705 C704 1.392 . S
C705 H717 0.929 . S
C706 C702 1.531 1_556 S
C706 H718 0.960 . S
C706 H719 0.962 . S
C706 H720 0.960 1_556 S
C707 C704 1.511 . S
C707 H721 0.961 . S
C707 H722 0.961 1_554 S
C707 H723 0.961 . S
C708 C709 1.370 . S
C708 C710 1.363 . S
C708 H724 0.931 . S
C709 C708 1.370 . S
C709 C713 1.408 . S
C710 C708 1.363 . S
C710 C711 1.370 . S
C710 C714 1.524 . S
C711 C703 1.503 1_556 S
C711 C710 1.370 . S
C711 C712 1.403 . S
C712 C711 1.403 . S
C712 C713 1.404 . S
C712 C715 1.539 . S
C713 C709 1.408 . S
C713 C712 1.404 . S
C713 H725 0.930 . S
C714 C710 1.524 . S
C714 H726 0.956 . S
C714 H727 0.961 . S
C714 H728 0.961 . S
C715 C712 1.539 . S
C715 H729 0.958 . S
C715 H730 0.961 . S
C715 H731 0.960 1_556 S
H716 C700 0.931 . S
H717 C705 0.929 . S
H718 C706 0.960 . S
H719 C706 0.962 . S
H720 C706 0.960 1_554 S
H721 C707 0.961 . S
H722 C707 0.961 1_556 S
H723 C707 0.961 . S
H724 C708 0.931 . S
H725 C713 0.930 . S
H726 C714 0.956 . S
H727 C714 0.961 . S
H728 C714 0.961 . S
H729 C715 0.958 . S
H730 C715 0.961 . S
H731 C715 0.960 1_554 S
C732 C733 1.391 . S
C732 C734 1.394 . S
C732 H748 0.931 . S
C733 C732 1.391 . S
C733 C737 1.376 . S
C734 C732 1.394 . S
C734 C735 1.369 . S
C734 C738 1.531 . S
C735 C734 1.369 . S
C735 C736 1.410 . S
C735 C743 1.503 . S
C736 C735 1.410 . S
C736 C737 1.392 . S
C736 C739 1.511 . S
C737 C733 1.376 . S
C737 C736 1.392 . S
C737 H749 0.929 . S
C738 C734 1.531 . S
C738 H750 0.960 . S
C738 H751 0.962 . S
C738 H752 0.960 . S
C739 C736 1.511 . S
C739 H753 0.961 . S
C739 H754 0.961 . S
C739 H755 0.961 . S
C740 C741 1.370 . S
C740 C742 1.363 . S
C740 H756 0.931 . S
C741 C740 1.370 . S
C741 C745 1.408 . S
C742 C740 1.363 . S
C742 C743 1.370 . S
C742 C746 1.524 . S
C743 C735 1.503 . S
C743 C742 1.370 . S
C743 C744 1.403 . S
C744 C743 1.403 . S
C744 C745 1.404 . S
C744 C747 1.539 . S
C745 C741 1.408 . S
C745 C744 1.404 . S
C745 H757 0.930 . S
C746 C742 1.524 . S
C746 H758 0.956 . S
C746 H759 0.961 . S
C746 H760 0.961 . S
C747 C744 1.539 . S
C747 H761 0.958 . S
C747 H762 0.961 . S
C747 H763 0.960 . S
H748 C732 0.931 . S
H749 C737 0.929 . S
H750 C738 0.960 . S
H751 C738 0.962 . S
H752 C738 0.960 . S
H753 C739 0.961 . S
H754 C739 0.961 . S
H755 C739 0.961 . S
H756 C740 0.931 . S
H757 C745 0.930 . S
H758 C746 0.956 . S
H759 C746 0.961 . S
H760 C746 0.961 . S
H761 C747 0.958 . S
H762 C747 0.961 . S
H763 C747 0.960 . S
C764 C765 1.391 . S
C764 C766 1.394 . S
C764 H780 0.931 . S
C765 C764 1.391 . S
C765 C769 1.376 . S
C766 C764 1.394 . S
C766 C767 1.369 . S
C766 C770 1.531 . S
C767 C766 1.369 . S
C767 C768 1.410 . S
C767 C775 1.503 . S
C768 C767 1.410 . S
C768 C769 1.392 . S
C768 C771 1.511 . S
C769 C765 1.376 . S
C769 C768 1.392 . S
C769 H781 0.929 . S
C770 C766 1.531 . S
C770 H782 0.960 . S
C770 H783 0.962 . S
C770 H784 0.960 . S
C771 C768 1.511 . S
C771 H785 0.961 . S
C771 H786 0.961 . S
C771 H787 0.961 . S
C772 C773 1.370 . S
C772 C774 1.363 . S
C772 H788 0.931 . S
C773 C772 1.370 . S
C773 C777 1.408 . S
C774 C772 1.363 . S
C774 C775 1.370 . S
C774 C778 1.524 . S
C775 C767 1.503 . S
C775 C774 1.370 . S
C775 C776 1.403 . S
C776 C775 1.403 . S
C776 C777 1.404 . S
C776 C779 1.539 . S
C777 C773 1.408 . S
C777 C776 1.404 . S
C777 H789 0.930 . S
C778 C774 1.524 . S
C778 H790 0.956 . S
C778 H791 0.961 . S
C778 H792 0.961 . S
C779 C776 1.539 . S
C779 H793 0.958 . S
C779 H794 0.961 . S
C779 H795 0.960 . S
H780 C764 0.931 . S
H781 C769 0.929 . S
H782 C770 0.960 . S
H783 C770 0.962 . S
H784 C770 0.960 . S
H785 C771 0.961 . S
H786 C771 0.961 . S
H787 C771 0.961 . S
H788 C772 0.931 . S
H789 C777 0.930 . S
H790 C778 0.956 . S
H791 C778 0.961 . S
H792 C778 0.961 . S
H793 C779 0.958 . S
H794 C779 0.961 . S
H795 C779 0.960 . S
C796 C797 1.391 . S
C796 C798 1.394 . S
C796 H812 0.931 . S
C797 C796 1.391 . S
C797 C801 1.376 . S
C798 C796 1.394 . S
C798 C799 1.369 . S
C798 C802 1.531 . S
C799 C798 1.369 . S
C799 C800 1.410 . S
C799 C807 1.503 . S
C800 C799 1.410 . S
C800 C801 1.392 . S
C800 C803 1.511 . S
C801 C797 1.376 . S
C801 C800 1.392 . S
C801 H813 0.929 . S
C802 C798 1.531 . S
C802 H814 0.960 . S
C802 H815 0.962 . S
C802 H816 0.960 . S
C803 C800 1.511 . S
C803 H817 0.961 . S
C803 H818 0.961 . S
C803 H819 0.961 . S
C804 C805 1.370 . S
C804 C806 1.363 . S
C804 H820 0.931 . S
C805 C804 1.370 . S
C805 C809 1.408 . S
C806 C804 1.363 . S
C806 C807 1.370 . S
C806 C810 1.524 . S
C807 C799 1.503 . S
C807 C806 1.370 . S
C807 C808 1.403 . S
C808 C807 1.403 . S
C808 C809 1.404 . S
C808 C811 1.539 . S
C809 C805 1.408 . S
C809 C808 1.404 . S
C809 H821 0.930 . S
C810 C806 1.524 . S
C810 H822 0.956 . S
C810 H823 0.961 . S
C810 H824 0.961 . S
C811 C808 1.539 . S
C811 H825 0.958 . S
C811 H826 0.961 . S
C811 H827 0.960 . S
H812 C796 0.931 . S
H813 C801 0.929 . S
H814 C802 0.960 . S
H815 C802 0.962 . S
H816 C802 0.960 . S
H817 C803 0.961 . S
H818 C803 0.961 . S
H819 C803 0.961 . S
H820 C804 0.931 . S
H821 C809 0.930 . S
H822 C810 0.956 . S
H823 C810 0.961 . S
H824 C810 0.961 . S
H825 C811 0.958 . S
H826 C811 0.961 . S
H827 C811 0.960 . S
C828 C829 1.391 . S
C828 C830 1.394 . S
C828 H844 0.931 1_455 S
C829 C828 1.391 . S
C829 C833 1.376 . S
C830 C828 1.394 . S
C830 C831 1.369 . S
C830 C834 1.531 1_456 S
C831 C830 1.369 . S
C831 C832 1.410 . S
C831 C839 1.503 1_556 S
C832 C831 1.410 . S
C832 C833 1.392 . S
C832 C835 1.511 . S
C833 C829 1.376 . S
C833 C832 1.392 . S
C833 H845 0.929 . S
C834 C830 1.531 1_654 S
C834 H846 0.960 1_655 S
C834 H847 0.962 . S
C834 H848 0.960 . S
C835 C832 1.511 . S
C835 H849 0.961 . S
C835 H850 0.961 1_556 S
C835 H851 0.961 . S
C836 C837 1.370 . S
C836 C838 1.363 . S
C836 H852 0.931 . S
C837 C836 1.370 . S
C837 C841 1.408 . S
C838 C836 1.363 . S
C838 C839 1.370 . S
C838 C842 1.524 . S
C839 C831 1.503 1_554 S
C839 C838 1.370 . S
C839 C840 1.403 . S
C840 C839 1.403 . S
C840 C841 1.404 . S
C840 C843 1.539 . S
C841 C837 1.408 . S
C841 C840 1.404 . S
C841 H853 0.930 . S
C842 C838 1.524 . S
C842 H854 0.969 . S
C842 H855 0.961 . S
C842 H856 0.961 . S
C843 C840 1.539 . S
C843 H857 0.958 . S
C843 H858 0.961 . S
C843 H859 0.960 . S
H844 C828 0.931 1_655 S
H845 C833 0.929 . S
H846 C834 0.960 1_455 S
H847 C834 0.962 . S
H848 C834 0.960 . S
H849 C835 0.961 . S
H850 C835 0.961 1_554 S
H851 C835 0.961 . S
H852 C836 0.931 . S
H853 C841 0.930 . S
H854 C842 0.969 . S
H855 C842 0.961 . S
H856 C842 0.961 . S
H857 C843 0.958 . S
H858 C843 0.961 . S
H859 C843 0.960 . S
C860 C861 1.391 . S
C860 C862 1.394 . S
C860 H876 0.931 . S
C861 C860 1.391 . S
C861 C865 1.376 . S
C862 C860 1.394 . S
C862 C863 1.369 . S
C862 C866 1.531 . S
C863 C862 1.369 . S
C863 C864 1.410 . S
C863 C871 1.503 . S
C864 C863 1.410 . S
C864 C865 1.392 . S
C864 C867 1.511 . S
C865 C861 1.376 . S
C865 C864 1.392 . S
C865 H877 0.929 . S
C866 C862 1.531 . S
C866 H878 0.960 . S
C866 H879 0.962 . S
C866 H880 0.960 . S
C867 C864 1.511 . S
C867 H881 0.961 . S
C867 H882 0.961 . S
C867 H883 0.961 . S
C868 C869 1.370 . S
C868 C870 1.363 . S
C868 H884 0.931 . S
C869 C868 1.370 . S
C869 C873 1.408 . S
C870 C868 1.363 . S
C870 C871 1.370 . S
C870 C874 1.524 . S
C871 C863 1.503 . S
C871 C870 1.370 . S
C871 C872 1.403 . S
C872 C871 1.403 . S
C872 C873 1.404 . S
C872 C875 1.539 . S
C873 C869 1.408 . S
C873 C872 1.404 . S
C873 H885 0.930 . S
C874 C870 1.524 . S
C874 H886 0.956 . S
C874 H887 0.961 . S
C874 H888 0.961 . S
C875 C872 1.539 . S
C875 H889 0.958 . S
C875 H890 0.961 . S
C875 H891 0.960 . S
H876 C860 0.931 . S
H877 C865 0.929 . S
H878 C866 0.960 . S
H879 C866 0.962 . S
H880 C866 0.960 . S
H881 C867 0.961 . S
H882 C867 0.961 . S
H883 C867 0.961 . S
H884 C868 0.931 . S
H885 C873 0.930 . S
H886 C874 0.956 . S
H887 C874 0.961 . S
H888 C874 0.961 . S
H889 C875 0.958 . S
H890 C875 0.961 . S
H891 C875 0.960 . S
C892 C893 1.391 . S
C892 C894 1.394 . S
C892 H908 0.931 . S
C893 C892 1.391 . S
C893 C897 1.376 . S
C894 C892 1.394 . S
C894 C895 1.369 . S
C894 C898 1.531 . S
C895 C894 1.369 . S
C895 C896 1.410 . S
C895 C903 1.503 . S
C896 C895 1.410 . S
C896 C897 1.392 . S
C896 C899 1.511 . S
C897 C893 1.376 . S
C897 C896 1.392 . S
C897 H909 0.929 . S
C898 C894 1.531 . S
C898 H910 0.960 . S
C898 H911 0.962 . S
C898 H912 0.960 . S
C899 C896 1.511 . S
C899 H913 0.961 . S
C899 H914 0.961 . S
C899 H915 0.961 . S
C900 C901 1.370 . S
C900 C902 1.363 . S
C900 H916 0.931 . S
C901 C900 1.370 . S
C901 C905 1.408 . S
C902 C900 1.363 . S
C902 C903 1.370 . S
C902 C906 1.524 . S
C903 C895 1.503 . S
C903 C902 1.370 . S
C903 C904 1.403 . S
C904 C903 1.403 . S
C904 C905 1.404 . S
C904 C907 1.539 . S
C905 C901 1.408 . S
C905 C904 1.404 . S
C905 H917 0.930 . S
C906 C902 1.524 . S
C906 H918 0.956 . S
C906 H919 0.961 . S
C906 H920 0.961 . S
C907 C904 1.539 . S
C907 H921 0.958 . S
C907 H922 0.961 . S
C907 H923 0.960 . S
H908 C892 0.931 . S
H909 C897 0.929 . S
H910 C898 0.960 . S
H911 C898 0.962 . S
H912 C898 0.960 . S
H913 C899 0.961 . S
H914 C899 0.961 . S
H915 C899 0.961 . S
H916 C900 0.931 . S
H917 C905 0.930 . S
H918 C906 0.956 . S
H919 C906 0.961 . S
H920 C906 0.961 . S
H921 C907 0.958 . S
H922 C907 0.961 . S
H923 C907 0.960 . S
C924 C925 1.391 . S
C924 C926 1.394 . S
C924 H940 0.931 . S
C925 C924 1.391 . S
C925 C929 1.376 . S
C926 C924 1.394 . S
C926 C927 1.369 . S
C926 C930 1.531 . S
C927 C926 1.369 . S
C927 C928 1.410 . S
C927 C935 1.503 . S
C928 C927 1.410 . S
C928 C929 1.392 . S
C928 C931 1.511 . S
C929 C925 1.376 . S
C929 C928 1.392 . S
C929 H941 0.929 . S
C930 C926 1.531 . S
C930 H942 0.960 . S
C930 H943 0.962 . S
C930 H944 0.960 . S
C931 C928 1.511 . S
C931 H945 0.961 . S
C931 H946 0.961 . S
C931 H947 0.961 . S
C932 C933 1.370 . S
C932 C934 1.363 . S
C932 H948 0.931 . S
C933 C932 1.370 . S
C933 C937 1.408 . S
C934 C932 1.363 . S
C934 C935 1.370 . S
C934 C938 1.524 . S
C935 C927 1.503 . S
C935 C934 1.370 . S
C935 C936 1.403 . S
C936 C935 1.403 . S
C936 C937 1.404 . S
C936 C939 1.539 . S
C937 C933 1.408 . S
C937 C936 1.404 . S
C937 H949 0.930 . S
C938 C934 1.524 . S
C938 H950 0.956 . S
C938 H951 0.961 . S
C938 H952 0.961 . S
C939 C936 1.539 . S
C939 H953 0.958 . S
C939 H954 0.961 . S
C939 H955 0.960 . S
H940 C924 0.931 . S
H941 C929 0.929 . S
H942 C930 0.960 . S
H943 C930 0.962 . S
H944 C930 0.960 . S
H945 C931 0.961 . S
H946 C931 0.961 . S
H947 C931 0.961 . S
H948 C932 0.931 . S
H949 C937 0.930 . S
H950 C938 0.956 . S
H951 C938 0.961 . S
H952 C938 0.961 . S
H953 C939 0.958 . S
H954 C939 0.961 . S
H955 C939 0.960 . S
C197 C111 1.505 . S
C189 N2 1.588 . S
C229 C129 1.072 . S
C221 N15 1.179 . S
C253 N27 1.337 . S
C261 C153 1.204 . S
C293 C183 1.524 1_655 S
C285 N40 1.727 . S
C325 C171 1.287 . S
C317 N54 1.413 . S
C349 N66 1.716 . S
C357 C124 1.628 1_655 S
C381 N79 1.545 . S
C389 C144 1.400 . S
C413 N93 1.208 . S
C421 C149 1.101 . S
C445 N92 1.689 . S
C453 C165 1.611 . S
C477 N67 1.193 . S
C485 C120 1.097 . S
C517 C187 1.130 . S
C509 N41 1.155 . S
C549 C132 1.502 . S
C541 N14 1.725 . S
C573 N28 1.581 . S
C581 C150 1.499 . S
C605 N1 1.344 . S
C613 C108 1.217 . S
C645 C128 1.313 . S
C637 N80 1.434 . S
C677 C174 1.437 . S
C669 N53 1.539 . S
C709 C170 1.358 . S
C701 N5 1.577 . S
C741 C123 1.341 . S
C733 N18 1.459 . S
C765 N31 1.561 . S
C773 C145 1.341 . S
C797 N44 1.455 . S
C805 C166 1.361 . S
C837 C107 1.391 . S
C829 N57 1.450 . S
C861 N70 1.558 . S
C869 C141 1.505 . S
C901 C162 1.406 . S
C893 N83 1.474 . S
C933 C186 1.469 . S
C925 N96 1.522 . S
