# Generated by pormake.
# Topology anh, (6,3)-cn, num edge types: 1
# Building blocks:
#     Node 0, Type 0, BuildingBlock: BETDEL_clean_sbu_0, # of connection points: 6
#     Node 1, Type 0, BuildingBlock: BETDEL_clean_sbu_0, # of connection points: 6
#     Node 2, Type 0, BuildingBlock: BETDEL_clean_sbu_0, # of connection points: 6
#     Node 3, Type 1, BuildingBlock: PAMTOO_clean_linker_0, # of connection points: 3
#     Node 4, Type 1, BuildingBlock: PAMTOO_clean_linker_0, # of connection points: 3
#     Node 5, Type 1, BuildingBlock: PAMTOO_clean_linker_0, # of connection points: 3
#     Node 6, Type 1, BuildingBlock: PAMTOO_clean_linker_0, # of connection points: 3
#     Node 7, Type 1, BuildingBlock: PAMTOO_clean_linker_0, # of connection points: 3
#     Node 8, Type 1, BuildingBlock: PAMTOO_clean_linker_0, # of connection points: 3
#     Edge 9, Type (0, 1), BuildingBlock: TEMPAE_clean_linker_10, # of connection points: 2
#     Edge 10, Type (0, 1), BuildingBlock: TEMPAE_clean_linker_10, # of connection points: 2
#     Edge 11, Type (0, 1), BuildingBlock: TEMPAE_clean_linker_10, # of connection points: 2
#     Edge 12, Type (0, 1), BuildingBlock: TEMPAE_clean_linker_10, # of connection points: 2
#     Edge 13, Type (0, 1), BuildingBlock: TEMPAE_clean_linker_10, # of connection points: 2
#     Edge 14, Type (0, 1), BuildingBlock: TEMPAE_clean_linker_10, # of connection points: 2
#     Edge 15, Type (0, 1), BuildingBlock: TEMPAE_clean_linker_10, # of connection points: 2
#     Edge 16, Type (0, 1), BuildingBlock: TEMPAE_clean_linker_10, # of connection points: 2
#     Edge 17, Type (0, 1), BuildingBlock: TEMPAE_clean_linker_10, # of connection points: 2
#     Edge 18, Type (0, 1), BuildingBlock: TEMPAE_clean_linker_10, # of connection points: 2
#     Edge 19, Type (0, 1), BuildingBlock: TEMPAE_clean_linker_10, # of connection points: 2
#     Edge 20, Type (0, 1), BuildingBlock: TEMPAE_clean_linker_10, # of connection points: 2
#     Edge 21, Type (0, 1), BuildingBlock: TEMPAE_clean_linker_10, # of connection points: 2
#     Edge 22, Type (0, 1), BuildingBlock: TEMPAE_clean_linker_10, # of connection points: 2
#     Edge 23, Type (0, 1), BuildingBlock: TEMPAE_clean_linker_10, # of connection points: 2
#     Edge 24, Type (0, 1), BuildingBlock: TEMPAE_clean_linker_10, # of connection points: 2
#     Edge 25, Type (0, 1), BuildingBlock: TEMPAE_clean_linker_10, # of connection points: 2
#     Edge 26, Type (0, 1), BuildingBlock: TEMPAE_clean_linker_10, # of connection points: 2
# Relax obj value: 0.094
# Max RMSD: 0.132
# Mean RMSD: 0.100
data_MOF--net-anh--node1-BETDEL_clean_sbu_0--node2-PAMTOO_clean_linker_0--edge1-TEMPAE_clean_linker_10
_symmetry_space_group_name_H-M    P1
_symmetry_Int_Tables_number       1
_symmetry_cell_setting            triclinic
loop_
_symmetry_equiv_pos_as_xyz
'x, y, z'
_cell_length_a     30.693258
_cell_length_b     30.555721
_cell_length_c     48.469037
_cell_angle_alpha  84.799254
_cell_angle_beta   92.442305
_cell_angle_gamma 120.03785
loop_
_atom_site_label
_atom_site_type_symbol
_atom_site_fract_x
_atom_site_fract_y
_atom_site_fract_z
_atom_type_partial_charge
Dy0 Dy 0.10027 0.51769 0.15811 0.0
C1 C 0.96705 0.59392 0.1829 0.0
C2 C 0.15558 0.48156 0.13705 0.0
Dy3 Dy 0.03803 0.57372 0.16516 0.0
O4 O 0.12118 0.45761 0.15612 0.0
O5 O 0.15897 0.525 0.12904 0.0
O6 O 0.11864 0.5103 0.20387 0.0
O7 O 0.07695 0.54388 0.19045 0.0
C8 C 0.09467 0.53214 0.21162 0.0
C9 C 0.06347 0.57183 0.11311 0.0
O10 O 0.11662 0.63582 0.17516 0.0
O11 O 0.15968 0.60185 0.15488 0.0
O12 O 0.99725 0.61815 0.162 0.0
O13 O 0.97747 0.56036 0.19452 0.0
O14 O 0.05583 0.60695 0.12108 0.0
O15 O 0.05153 0.53715 0.13235 0.0
O16 O 0.02029 0.45065 0.15617 0.0
O17 O 0.97615 0.49111 0.16639 0.0
C18 C 0.15915 0.64026 0.16582 0.0
C19 C 0.97737 0.44935 0.16184 0.0
Dy20 Dy 0.51702 0.0454 0.48946 0.0
C21 C 0.73287 0.1686 0.50997 0.0
C22 C 0.4241 0.99072 0.46718 0.0
Dy23 Dy 0.63543 0.10417 0.49629 0.0
O24 O 0.43535 0.02267 0.48591 0.0
O25 O 0.46401 0.98972 0.46018 0.0
O26 O 0.49695 0.02607 0.53552 0.0
O27 O 0.57044 0.06575 0.52187 0.0
C28 C 0.54379 0.04905 0.54319 0.0
C29 C 0.59943 0.07831 0.44543 0.0
O30 O 0.61841 0.02409 0.50897 0.0
O31 O 0.53896 0.98419 0.48864 0.0
O32 O 0.71801 0.14724 0.48682 0.0
O33 O 0.69436 0.15363 0.52605 0.0
O34 O 0.6403 0.07981 0.45492 0.0
O35 O 0.58183 0.09421 0.46258 0.0
O36 O 0.53169 0.12638 0.48605 0.0
O37 O 0.61773 0.1682 0.49594 0.0
C38 C 0.57878 0.98276 0.49996 0.0
C39 C 0.57466 0.16843 0.49125 0.0
Dy40 Dy 0.62368 0.59033 0.83126 0.0
C41 C 0.53681 0.37923 0.83486 0.0
C42 C 0.65992 0.6923 0.82409 0.0
Dy43 Dy 0.56867 0.48057 0.82864 0.0
O44 O 0.64241 0.66448 0.84709 0.0
O45 O 0.65788 0.66445 0.80482 0.0
O46 O 0.65413 0.5821 0.87266 0.0
O47 O 0.58039 0.52757 0.86232 0.0
C48 C 0.6143 0.53968 0.88055 0.0
C49 C 0.57859 0.53207 0.7794 0.0
O50 O 0.50143 0.48756 0.83899 0.0
O51 O 0.54221 0.57371 0.82704 0.0
O52 O 0.53369 0.4037 0.81229 0.0
O53 O 0.55581 0.40994 0.85441 0.0
O54 O 0.53801 0.49061 0.78745 0.0
O55 O 0.61256 0.54315 0.79753 0.0
O56 O 0.69305 0.58376 0.82699 0.0
O57 O 0.64977 0.49615 0.83115 0.0
C58 C 0.50004 0.53032 0.83374 0.0
C59 C 0.69291 0.54008 0.82925 0.0
H60 H 0.6572 0.14662 0.23752 0.0
H61 H 0.52478 1.00001 0.23277 0.0
H62 H 0.61272 0.07964 0.15946 0.0
H63 H 0.48667 1.01073 0.15078 0.0
C64 C 0.48158 0.98979 0.17146 0.0
O65 O 0.52829 0.99617 0.18004 0.0
H66 H 0.46841 1.00735 0.18575 0.0
C67 C 0.63196 0.11517 0.22563 0.0
C68 C 0.64238 0.11793 0.19733 0.0
C69 C 0.59048 0.07287 0.23896 0.0
C70 C 0.5564 0.03356 0.22298 0.0
C71 C 0.56272 0.03621 0.19428 0.0
C72 C 0.60626 0.07851 0.18136 0.0
H73 H 0.58654 0.66562 0.5738 0.0
H74 H 0.605 0.53776 0.56247 0.0
H75 H 0.58017 0.61843 0.49187 0.0
H76 H 0.53331 0.49431 0.48581 0.0
C77 C 0.5524 0.4913 0.50529 0.0
O78 O 0.59334 0.53916 0.50945 0.0
H79 H 0.5241 0.47907 0.52214 0.0
C80 C 0.58845 0.64036 0.56024 0.0
C81 C 0.5829 0.64806 0.53152 0.0
C82 C 0.59636 0.60099 0.57184 0.0
C83 C 0.59812 0.56786 0.55414 0.0
C84 C 0.5913 0.57286 0.5255 0.0
C85 C 0.58449 0.61374 0.51404 0.0
H86 H 1.00411 0.54173 0.90878 0.0
H87 H 0.14353 0.54271 0.90223 0.0
H88 H 0.05547 0.53331 0.829 0.0
H89 H 0.13053 0.48211 0.82786 0.0
C90 C 0.15165 0.50192 0.84623 0.0
O91 O 0.14349 0.54244 0.84883 0.0
H92 H 0.13559 0.47369 0.86445 0.0
C93 C 0.03069 0.53879 0.89617 0.0
C94 C 0.02203 0.53472 0.8675 0.0
C95 C 0.07314 0.54015 0.9091 0.0
C96 C 0.11023 0.54104 0.89268 0.0
C97 C 0.10469 0.53886 0.86386 0.0
C98 C 0.06016 0.5354 0.85119 0.0
H99 H 0.98563 0.47788 0.41786 0.0
H100 H 0.10886 0.63212 0.41676 0.0
H101 H 0.03292 0.55403 0.49292 0.0
H102 H 0.07199 0.67066 0.49247 0.0
C103 C 0.08876 0.67659 0.47163 0.0
O104 O 0.10202 0.64013 0.4691 0.0
H105 H 0.05993 0.67376 0.45598 0.0
C106 C 1.01067 0.51145 0.42835 0.0
C107 C 1.00549 0.51049 0.45709 0.0
C108 C 0.04818 0.55482 0.4133 0.0
C109 C 0.07922 0.59815 0.4275 0.0
C110 C 0.07288 0.59792 0.45594 0.0
C111 C 0.03684 0.55397 0.47081 0.0
H112 H 0.65797 1.00385 0.7364 0.0
H113 H 0.64693 0.13335 0.75535 0.0
H114 H 0.68058 0.04847 0.81952 0.0
H115 H 0.63074 0.09583 0.84736 0.0
C116 C 0.61956 0.10333 0.82615 0.0
O117 O 0.66063 0.12183 0.80866 0.0
H118 H 0.58805 0.06667 0.81957 0.0
C119 C 0.66099 0.03033 0.75085 0.0
C120 C 0.67123 0.02231 0.77866 0.0
C121 C 0.65344 0.07104 0.74174 0.0
C122 C 0.65376 0.10234 0.76149 0.0
C123 C 0.66335 0.0939 0.78946 0.0
C124 C 0.67373 0.05502 0.79782 0.0
H125 H 0.64462 0.50304 0.08629 0.0
H126 H 0.49474 0.47922 0.08974 0.0
H127 H 0.58989 0.52869 0.16048 0.0
H128 H 0.47304 0.45561 0.17766 0.0
C129 C 0.46419 0.4547 0.15516 0.0
O130 O 0.50013 0.49904 0.14136 0.0
H131 H 0.46385 0.42083 0.14803 0.0
C132 C 0.61543 0.50344 0.09784 0.0
C133 C 0.62442 0.51847 0.12517 0.0
C134 C 0.56941 0.49058 0.08463 0.0
C135 C 0.53069 0.48948 0.09948 0.0
C136 C 0.53805 0.50148 0.12704 0.0
C137 C 0.5848 0.51698 0.13962 0.0
C138 C 0.18958 0.42275 0.14373 0.0
C139 C 0.19345 0.46762 0.13106 0.0
C140 C 0.23071 0.41467 0.14414 0.0
C141 C 0.2766 0.45254 0.13166 0.0
C142 C 0.27909 0.49569 0.11661 0.0
C143 C 0.23727 0.50266 0.11643 0.0
C144 C 0.22634 0.36779 0.16002 0.0
C145 C 0.32725 0.53675 0.10285 0.0
C146 C 0.39664 0.47284 0.16746 0.0
C147 C 0.41375 0.45046 0.15009 0.0
C148 C 0.35168 0.47316 0.16177 0.0
C149 C 0.32351 0.4509 0.13797 0.0
C150 C 0.34066 0.42816 0.12034 0.0
C151 C 0.38594 0.42854 0.12653 0.0
C152 C 0.33477 0.49805 0.18101 0.0
C153 C 0.31166 0.40422 0.0948 0.0
H154 H 0.15548 0.39537 0.15485 0.0
H155 H 0.24018 0.53727 0.10647 0.0
H156 H 0.24382 0.35098 0.14829 0.0
H157 H 0.24676 0.37826 0.17995 0.0
H158 H 0.18652 0.33859 0.16461 0.0
H159 H 0.32085 0.56344 0.08848 0.0
H160 H 0.35434 0.55866 0.11896 0.0
H161 H 0.34494 0.52011 0.09116 0.0
H162 H 0.41889 0.49072 0.18531 0.0
H163 H 0.40002 0.41225 0.11282 0.0
H164 H 0.29664 0.47039 0.18922 0.0
H165 H 0.33236 0.52983 0.16946 0.0
H166 H 0.36074 0.51305 0.19877 0.0
H167 H 0.2724 0.37502 0.10046 0.0
H168 H 0.32908 0.38629 0.0839 0.0
H169 H 0.30977 0.43338 0.08023 0.0
C170 C 0.7874 0.25046 0.53061 0.0
C171 C 0.78224 0.21402 0.51316 0.0
C172 C 0.82832 0.30015 0.5275 0.0
C173 C 0.86473 0.31298 0.5067 0.0
C174 C 0.86256 0.2746 0.49139 0.0
C175 C 0.82104 0.22551 0.49471 0.0
C176 C 0.82951 0.33983 0.54441 0.0
C177 C 0.90118 0.28644 0.46941 0.0
C178 C 0.91819 0.43789 0.46329 0.0
C179 C 0.96796 0.46331 0.47256 0.0
C180 C 0.88344 0.39006 0.47546 0.0
C181 C 0.89914 0.3669 0.49722 0.0
C182 C 0.94872 0.39355 0.50764 0.0
C183 C 0.98265 0.44173 0.49519 0.0
C184 C 0.83059 0.36328 0.46404 0.0
C185 C 0.96674 0.37014 0.53082 0.0
H186 H 0.75737 0.24153 0.54496 0.0
H187 H 0.81719 0.19708 0.48141 0.0
H188 H 0.86854 0.36712 0.55044 0.0
H189 H 0.81456 0.36152 0.53177 0.0
H190 H 0.80604 0.32245 0.56342 0.0
H191 H 0.89856 0.25149 0.46252 0.0
H192 H 0.89519 0.30748 0.45114 0.0
H193 H 0.93979 0.31091 0.47714 0.0
H194 H 0.9068 0.45502 0.44601 0.0
H195 H 0.02131 0.46145 0.50228 0.0
H196 H 0.80265 0.34988 0.48107 0.0
H197 H 0.82427 0.32946 0.45388 0.0
H198 H 0.82339 0.38813 0.44863 0.0
H199 H 0.93847 0.352 0.54775 0.0
H200 H 1.00315 0.39858 0.53949 0.0
H201 H 0.97188 0.34009 0.52287 0.0
C202 C 0.69205 0.77315 0.79421 0.0
C203 C 0.67343 0.74588 0.81982 0.0
C204 C 0.69868 0.82201 0.78886 0.0
C205 C 0.68556 0.84338 0.80951 0.0
C206 C 0.66937 0.81699 0.83592 0.0
C207 C 0.6638 0.76857 0.84081 0.0
C208 C 0.71687 0.84946 0.7606 0.0
C209 C 0.6545 0.83827 0.85836 0.0
C210 C 0.71917 0.98161 0.79987 0.0
C211 C 0.67504 0.97706 0.78774 0.0
C212 C 0.72351 0.93837 0.80702 0.0
C213 C 0.68232 0.88987 0.80235 0.0
C214 C 0.63728 0.88531 0.79068 0.0
C215 C 0.6344 0.92908 0.7833 0.0
C216 C 0.77226 0.94454 0.81905 0.0
C217 C 0.59216 0.8342 0.78588 0.0
H218 H 0.69986 0.75569 0.77805 0.0
H219 H 0.64952 0.74748 0.86068 0.0
H220 H 0.68521 0.85005 0.74898 0.0
H221 H 0.74661 0.88942 0.76255 0.0
H222 H 0.73195 0.83097 0.74832 0.0
H223 H 0.6483 0.81582 0.87862 0.0
H224 H 0.68379 0.87814 0.86093 0.0
H225 H 0.61916 0.83819 0.85235 0.0
H226 H 0.75057 0.019 0.8031 0.0
H227 H 0.60022 0.92592 0.77406 0.0
H228 H 0.78852 0.9293 0.80524 0.0
H229 H 0.76526 0.92244 0.83943 0.0
H230 H 0.8004 0.98483 0.82176 0.0
H231 H 0.60211 0.81482 0.77115 0.0
H232 H 0.55952 0.83732 0.77743 0.0
H233 H 0.58054 0.80978 0.80561 0.0
C234 C 0.87533 0.53823 0.18273 0.0
C235 C 0.9164 0.58731 0.18392 0.0
C236 C 0.82712 0.53031 0.17656 0.0
C237 C 0.81942 0.57244 0.17314 0.0
C238 C 0.86 0.62171 0.17718 0.0
C239 C 0.90865 0.62885 0.18156 0.0
C240 C 0.78555 0.47735 0.17148 0.0
C241 C 0.85256 0.66706 0.17566 0.0
C242 C 0.71867 0.55956 0.12144 0.0
C243 C 0.67518 0.53656 0.1381 0.0
C244 C 0.76591 0.57222 0.13269 0.0
C245 C 0.77082 0.56527 0.16168 0.0
C246 C 0.72814 0.54627 0.17897 0.0
C247 C 0.68066 0.53065 0.16696 0.0
C248 C 0.81006 0.59064 0.11329 0.0
C249 C 0.73201 0.54076 0.21011 0.0
H250 H 0.88162 0.50619 0.18427 0.0
H251 H 0.9406 0.66678 0.18255 0.0
H252 H 0.75467 0.4646 0.18663 0.0
H253 H 0.76959 0.4771 0.15047 0.0
H254 H 0.79885 0.44943 0.1732 0.0
H255 H 0.88346 0.69891 0.18624 0.0
H256 H 0.85202 0.6805 0.15369 0.0
H257 H 0.81613 0.65698 0.18521 0.0
H258 H 0.71604 0.56702 0.09936 0.0
H259 H 0.64793 0.51279 0.18035 0.0
H260 H 0.82672 0.56563 0.11656 0.0
H261 H 0.83976 0.62941 0.11765 0.0
H262 H 0.79922 0.59135 0.09116 0.0
H263 H 0.72895 0.50358 0.2166 0.0
H264 H 0.70108 0.54211 0.22039 0.0
H265 H 0.76856 0.57098 0.21761 0.0
C266 C 0.33142 0.95422 0.47066 0.0
C267 C 0.37237 0.95264 0.46016 0.0
C268 C 0.28246 0.91279 0.46927 0.0
C269 C 0.27471 0.86877 0.45741 0.0
C270 C 0.3155 0.86859 0.44493 0.0
C271 C 0.36392 0.91079 0.44632 0.0
C272 C 0.23973 0.91474 0.48229 0.0
C273 C 0.30883 0.82234 0.43216 0.0
C274 C 0.17247 0.74194 0.48875 0.0
C275 C 0.1352 0.72791 0.4684 0.0
C276 C 0.21782 0.788 0.48548 0.0
C277 C 0.22581 0.82091 0.46131 0.0
C278 C 0.18788 0.80725 0.44084 0.0
C279 C 0.14305 0.76052 0.44453 0.0
C280 C 0.2576 0.80093 0.50764 0.0
C281 C 0.19498 0.8416 0.41497 0.0
H282 H 0.33792 0.98676 0.48122 0.0
H283 H 0.3956 0.90958 0.43813 0.0
H284 H 0.20633 0.89986 0.46856 0.0
H285 H 0.22855 0.89038 0.50204 0.0
H286 H 0.25039 0.9539 0.48677 0.0
H287 H 0.3427 0.83048 0.42039 0.0
H288 H 0.30144 0.79194 0.44878 0.0
H289 H 0.27597 0.80747 0.41806 0.0
H290 H 0.16634 0.71626 0.50703 0.0
H291 H 0.1143 0.74927 0.42866 0.0
H292 H 0.26727 0.83752 0.51577 0.0
H293 H 0.29246 0.80553 0.49867 0.0
H294 H 0.24523 0.77131 0.52524 0.0
H295 H 0.20484 0.87992 0.42054 0.0
H296 H 0.16072 0.82671 0.40183 0.0
H297 H 0.22669 0.84604 0.40256 0.0
C298 C 0.54558 0.30932 0.86003 0.0
C299 C 0.53351 0.32938 0.83572 0.0
C300 C 0.55366 0.26806 0.85957 0.0
C301 C 0.55003 0.24701 0.83414 0.0
C302 C 0.53437 0.26493 0.80996 0.0
C303 C 0.52599 0.3058 0.8111 0.0
C304 C 0.56935 0.24933 0.88589 0.0
C305 C 0.53015 0.24355 0.78245 0.0
C306 C 0.63552 0.19322 0.82438 0.0
C307 C 0.60159 0.1409 0.8271 0.0
C308 C 0.61903 0.22809 0.82647 0.0
C309 C 0.56764 0.21015 0.83213 0.0
C310 C 0.53345 0.15739 0.83556 0.0
C311 C 0.55091 0.12338 0.83304 0.0
C312 C 0.65664 0.28417 0.82261 0.0
C313 C 0.47861 0.13696 0.84206 0.0
H314 H 0.55128 0.32748 0.87911 0.0
H315 H 0.5166 0.32127 0.79227 0.0
H316 H 0.54797 0.20729 0.88866 0.0
H317 H 0.60983 0.26119 0.88458 0.0
H318 H 0.56354 0.26464 0.90446 0.0
H319 H 0.51256 0.25796 0.76634 0.0
H320 H 0.56825 0.25413 0.77518 0.0
H321 H 0.50767 0.20154 0.78462 0.0
H322 H 0.67501 0.20694 0.8206 0.0
H323 H 0.52494 0.0829 0.83587 0.0
H324 H 0.65839 0.30263 0.84163 0.0
H325 H 0.64453 0.30222 0.80543 0.0
H326 H 0.69506 0.29183 0.81791 0.0
H327 H 0.47509 0.15153 0.8615 0.0
H328 H 0.45702 0.09484 0.84439 0.0
H329 H 0.46121 0.15033 0.82534 0.0
C330 C 0.54458 0.89237 0.48696 0.0
C331 C 0.57901 0.93311 0.50208 0.0
C332 C 0.54426 0.84561 0.48866 0.0
C333 C 0.57861 0.83824 0.50629 0.0
C334 C 0.61361 0.87931 0.5215 0.0
C335 C 0.61367 0.92597 0.51906 0.0
C336 C 0.50668 0.80381 0.47165 0.0
C337 C 0.65053 0.87363 0.54091 0.0
C338 C 0.54433 0.70359 0.5359 0.0
C339 C 0.57618 0.6928 0.52129 0.0
C340 C 0.54416 0.7498 0.53087 0.0
C341 C 0.57599 0.78693 0.51021 0.0
C342 C 0.60617 0.77523 0.49422 0.0
C343 C 0.60607 0.72866 0.49997 0.0
C344 C 0.51123 0.75968 0.54861 0.0
C345 C 0.64003 0.81276 0.47161 0.0
H346 H 0.51781 0.89704 0.47353 0.0
H347 H 0.6405 0.9567 0.53092 0.0
H348 H 0.52633 0.79033 0.45906 0.0
H349 H 0.48009 0.77101 0.48556 0.0
H350 H 0.48471 0.81625 0.45759 0.0
H351 H 0.67613 0.90913 0.55083 0.0
H352 H 0.62981 0.84298 0.5574 0.0
H353 H 0.67356 0.86246 0.52952 0.0
H354 H 0.5204 0.67622 0.55216 0.0
H355 H 0.63113 0.7214 0.4886 0.0
H356 H 0.48633 0.76927 0.53538 0.0
H357 H 0.53509 0.79272 0.56073 0.0
H358 H 0.48746 0.72657 0.56325 0.0
H359 H 0.61855 0.82569 0.4575 0.0
H360 H 0.65737 0.79651 0.45925 0.0
H361 H 0.67053 0.8467 0.48089 0.0
C362 C 0.78543 0.57929 0.84216 0.0
C363 C 0.74223 0.53999 0.83057 0.0
C364 C 0.83093 0.57793 0.84544 0.0
C365 C 0.83472 0.53716 0.83605 0.0
C366 C 0.79175 0.49844 0.82326 0.0
C367 C 0.74614 0.4998 0.8212 0.0
C368 C 0.87443 0.61928 0.86008 0.0
C369 C 0.79365 0.45499 0.812 0.0
C370 C 0.96957 0.55638 0.83167 0.0
C371 C 0.97268 0.53004 0.85638 0.0
C372 C 0.92466 0.5575 0.82415 0.0
C373 C 0.88172 0.53277 0.84195 0.0
C374 C 0.88423 0.50469 0.8663 0.0
C375 C 0.92857 0.5027 0.87271 0.0
C376 C 0.92363 0.58626 0.79741 0.0
C377 C 0.8406 0.47825 0.88642 0.0
H378 H 0.78311 0.61038 0.84972 0.0
H379 H 0.71341 0.46931 0.81203 0.0
H380 H 0.88343 0.60258 0.87924 0.0
H381 H 0.90847 0.63765 0.84674 0.0
H382 H 0.86622 0.64883 0.86576 0.0
H383 H 0.76 0.43192 0.79936 0.0
H384 H 0.82787 0.4695 0.79907 0.0
H385 H 0.79577 0.42986 0.82934 0.0
H386 H 1.0027 0.57761 0.81863 0.0
H387 H 0.92909 0.4806 0.89139 0.0
H388 H 0.92357 0.62114 0.80197 0.0
H389 H 0.88871 0.56298 0.78574 0.0
H390 H 0.95666 0.59733 0.78405 0.0
H391 H 0.83153 0.50621 0.89368 0.0
H392 H 0.84867 0.45893 0.90478 0.0
H393 H 0.80661 0.44966 0.87602 0.0
C394 C 0.20944 0.73329 0.17633 0.0
C395 C 0.20822 0.68999 0.16755 0.0
C396 C 0.25505 0.78019 0.17752 0.0
C397 C 0.30151 0.78474 0.16998 0.0
C398 C 0.30062 0.74099 0.16148 0.0
C399 C 0.25445 0.69468 0.16028 0.0
C400 C 0.25335 0.82528 0.18655 0.0
C401 C 0.34863 0.74317 0.15338 0.0
C402 C 0.40986 0.91824 0.14635 0.0
C403 C 0.43978 0.93391 0.17025 0.0
C404 C 0.3659 0.86998 0.14587 0.0
C405 C 0.35041 0.83553 0.16993 0.0
C406 C 0.3811 0.85061 0.19398 0.0
C407 C 0.4249 0.8994 0.19392 0.0
C408 C 0.33501 0.85654 0.11971 0.0
C409 C 0.36687 0.81565 0.22014 0.0
H410 H 0.17448 0.73081 0.18205 0.0
H411 H 0.25472 0.66195 0.15356 0.0
H412 H 0.27853 0.84043 0.20455 0.0
H413 H 0.26727 0.85602 0.16955 0.0
H414 H 0.21475 0.81571 0.19234 0.0
H415 H 0.3423 0.70568 0.14832 0.0
H416 H 0.36566 0.77066 0.13508 0.0
H417 H 0.37631 0.75676 0.17049 0.0
H418 H 0.42002 0.9446 0.12806 0.0
H419 H 0.44679 0.9112 0.2127 0.0
H420 H 0.29714 0.85093 0.12371 0.0
H421 H 0.32956 0.82031 0.1131 0.0
H422 H 0.3528 0.88638 0.10242 0.0
H423 H 0.33076 0.80932 0.22828 0.0
H424 H 0.39597 0.83117 0.23649 0.0
H425 H 0.3611 0.77813 0.21565 0.0
C426 C 0.53023 0.22039 0.48973 0.0
C427 C 0.57491 0.21805 0.49233 0.0
C428 C 0.52991 0.26626 0.49182 0.0
C429 C 0.57535 0.31182 0.49658 0.0
C430 C 0.62064 0.30983 0.49895 0.0
C431 C 0.61987 0.26342 0.49689 0.0
C432 C 0.48054 0.26581 0.48917 0.0
C433 C 0.67018 0.35685 0.50387 0.0
C434 C 0.57621 0.43805 0.47802 0.0
C435 C 0.56667 0.44985 0.50368 0.0
C436 C 0.58051 0.39444 0.47553 0.0
C437 C 0.57521 0.36111 0.49924 0.0
C438 C 0.56787 0.37419 0.52539 0.0
C439 C 0.56387 0.41812 0.52728 0.0
C440 C 0.5889 0.38304 0.44724 0.0
C441 C 0.56226 0.34061 0.55137 0.0
H442 H 0.4951 0.18607 0.48632 0.0
H443 H 0.65485 0.26281 0.49901 0.0
H444 H 0.47281 0.27792 0.5084 0.0
H445 H 0.4827 0.29328 0.47191 0.0
H446 H 0.44849 0.22773 0.48533 0.0
H447 H 0.7023 0.34964 0.50465 0.0
H448 H 0.67735 0.38706 0.48719 0.0
H449 H 0.66864 0.37153 0.5237 0.0
H450 H 0.5783 0.46198 0.45961 0.0
H451 H 0.55638 0.42656 0.5472 0.0
H452 H 0.55546 0.34759 0.44121 0.0
H453 H 0.62155 0.37678 0.44765 0.0
H454 H 0.59569 0.41409 0.43114 0.0
H455 H 0.52776 0.30313 0.54997 0.0
H456 H 0.5597 0.35721 0.57029 0.0
H457 H 0.59462 0.33391 0.55355 0.0
C458 C 0.40504 0.48442 0.84168 0.0
C459 C 0.45051 0.52988 0.83558 0.0
C460 C 0.35847 0.4834 0.8434 0.0
C461 C 0.3563 0.52893 0.83906 0.0
C462 C 0.40209 0.57501 0.83304 0.0
C463 C 0.44816 0.57493 0.83134 0.0
C464 C 0.31125 0.43318 0.84978 0.0
C465 C 0.40247 0.62468 0.82831 0.0
C466 C 0.22739 0.5158 0.81828 0.0
C467 C 0.2077 0.51752 0.84361 0.0
C468 C 0.27574 0.52085 0.81639 0.0
C469 C 0.30615 0.52797 0.84039 0.0
C470 C 0.28731 0.53194 0.86582 0.0
C471 C 0.2387 0.52667 0.86712 0.0
C472 C 0.29349 0.51655 0.78874 0.0
C473 C 0.31781 0.53993 0.89202 0.0
H474 H 0.40568 0.4492 0.84505 0.0
H475 H 0.48255 0.6105 0.82668 0.0
H476 H 0.29312 0.43443 0.86878 0.0
H477 H 0.28395 0.42568 0.8326 0.0
H478 H 0.31884 0.40113 0.85284 0.0
H479 H 0.44095 0.6574 0.8243 0.0
H480 H 0.37825 0.62334 0.81037 0.0
H481 H 0.3866 0.63111 0.84665 0.0
H482 H 0.204 0.50844 0.79996 0.0
H483 H 0.22402 0.52767 0.88685 0.0
H484 H 0.29724 0.48216 0.78975 0.0
H485 H 0.33118 0.54968 0.78366 0.0
H486 H 0.26718 0.51415 0.7717 0.0
H487 H 0.3222 0.50635 0.89771 0.0
H488 H 0.29995 0.54593 0.90965 0.0
H489 H 0.3561 0.57317 0.88866 0.0
C490 C 0.88601 0.39469 0.1769 0.0
C491 C 0.92808 0.3994 0.16339 0.0
C492 C 0.83988 0.34823 0.17961 0.0
C493 C 0.83424 0.30461 0.16802 0.0
C494 C 0.87611 0.30938 0.15368 0.0
C495 C 0.92235 0.35616 0.15183 0.0
C496 C 0.79735 0.34563 0.19556 0.0
C497 C 0.87223 0.26473 0.14048 0.0
C498 C 0.73616 0.17549 0.20279 0.0
C499 C 0.69264 0.16155 0.18649 0.0
C500 C 0.78207 0.22069 0.19662 0.0
C501 C 0.78617 0.25351 0.173 0.0
C502 C 0.74336 0.23838 0.15543 0.0
C503 C 0.69726 0.19292 0.16238 0.0
C504 C 0.82567 0.23447 0.21634 0.0
C505 C 0.7457 0.27115 0.12971 0.0
H506 H 0.88942 0.42727 0.18611 0.0
H507 H 0.95403 0.35888 0.14115 0.0
H508 H 0.76461 0.33608 0.18171 0.0
H509 H 0.78497 0.31517 0.21267 0.0
H510 H 0.80819 0.38193 0.20449 0.0
H511 H 0.9061 0.27533 0.12796 0.0
H512 H 0.86746 0.2347 0.15675 0.0
H513 H 0.83859 0.24822 0.12694 0.0
H514 H 0.73383 0.15152 0.22124 0.0
H515 H 0.66435 0.18313 0.14955 0.0
H516 H 0.8351 0.27002 0.22568 0.0
H517 H 0.85954 0.24159 0.20502 0.0
H518 H 0.81727 0.20432 0.2333 0.0
H519 H 0.74818 0.30653 0.13567 0.0
H520 H 0.71207 0.25166 0.11639 0.0
H521 H 0.77993 0.28221 0.11746 0.0
C522 C 0.08099 0.5291 0.07678 0.0
C523 C 0.07276 0.56778 0.084 0.0
C524 C 0.08724 0.52383 0.0489 0.0
C525 C 0.08348 0.55702 0.02776 0.0
C526 C 0.07609 0.59669 0.03509 0.0
C527 C 0.07146 0.60194 0.0631 0.0
C528 C 0.09643 0.48191 0.04207 0.0
C529 C 0.07084 0.63233 0.01327 0.0
C530 C 0.124 0.57098 0.95273 0.0
C531 C 0.07773 0.54058 0.93993 0.0
C532 C 0.12707 0.57461 0.98159 0.0
C533 C 0.08274 0.54801 -0.00205 0.0
C534 C 0.03641 0.51572 0.98531 0.0
C535 C 0.03465 0.51186 0.95664 0.0
C536 C 0.17742 0.60835 -0.00558 0.0
C537 C 0.9881 0.48698 0.00186 0.0
H538 H 0.08193 0.50256 0.09288 0.0
H539 H 0.06509 0.63191 0.06858 0.0
H540 H 0.06215 0.45179 0.03261 0.0
H541 H 0.12741 0.49649 0.02673 0.0
H542 H 0.10605 0.46461 0.06077 0.0
H543 H 0.06693 0.66224 0.02241 0.0
H544 H 0.10403 0.65087 -0.00072 0.0
H545 H 0.03721 0.61055 0.00036 0.0
H546 H 0.15756 0.59336 0.94014 0.0
H547 H 0.99898 0.48697 0.94717 0.0
H548 H 0.18355 0.58824 0.01308 0.0
H549 H 0.17815 0.64244 0.00117 0.0
H550 H 0.20903 0.62094 0.97969 0.0
H551 H 0.99206 0.46321 0.01935 0.0
H552 H 0.95548 0.46216 0.98906 0.0
H553 H 0.97982 0.51419 0.01084 0.0
C554 C 0.57287 0.10339 0.40025 0.0
C555 C 0.58319 0.0694 0.41648 0.0
C556 C 0.56739 0.10094 0.37137 0.0
C557 C 0.57051 0.06245 0.35878 0.0
C558 C 0.57656 0.02546 0.37561 0.0
C559 C 0.58399 0.0301 0.4042 0.0
C560 C 0.5625 0.14199 0.35419 0.0
C561 C 0.57811 0.98264 0.36326 0.0
C562 C 0.5366 0.04497 0.28231 0.0
C563 C 0.58444 0.06944 0.26976 0.0
C564 C 0.53124 0.04168 0.31127 0.0
C565 C 0.57463 0.06489 0.32806 0.0
C566 C 0.62286 0.08999 0.31556 0.0
C567 C 0.62715 0.09087 0.28683 0.0
C568 C 0.47923 0.01302 0.32393 0.0
C569 C 0.67024 0.11599 0.33257 0.0
H570 H 0.57272 0.13403 0.40983 0.0
H571 H 0.59167 1.00365 0.41692 0.0
H572 H 0.59797 0.16692 0.34247 0.0
H573 H 0.53183 0.12537 0.33883 0.0
H574 H 0.55502 0.1657 0.36716 0.0
H575 H 0.57416 0.95255 0.37934 0.0
H576 H 0.54771 0.96544 0.34777 0.0
H577 H 0.61451 0.99755 0.35239 0.0
H578 H 0.50318 0.02858 0.26956 0.0
H579 H 0.6644 0.10825 0.27782 0.0
H580 H 0.47185 0.03891 0.33497 0.0
H581 H 0.47659 0.98279 0.33948 0.0
H582 H 0.44938 0.99538 0.30816 0.0
H583 H 0.66806 0.14279 0.34568 0.0
H584 H 0.7046 0.13729 0.31946 0.0
H585 H 0.67421 0.08748 0.34663 0.0
C586 C 0.54921 0.55157 0.73395 0.0
C587 C 0.58791 0.55085 0.74995 0.0
C588 C 0.55477 0.56366 0.70522 0.0
C589 C 0.59942 0.57334 0.69205 0.0
C590 C 0.63907 0.57354 0.70826 0.0
C591 C 0.63314 0.56309 0.73716 0.0
C592 C 0.51229 0.56479 0.68888 0.0
C593 C 0.68661 0.58216 0.69497 0.0
C594 C 0.58124 0.54532 0.61626 0.0
C595 C 0.60139 0.59408 0.6026 0.0
C596 C 0.58267 0.53826 0.64527 0.0
C597 C 0.60327 0.58082 0.66122 0.0
C598 C 0.62465 0.63014 0.64768 0.0
C599 C 0.62434 0.6362 0.6186 0.0
C600 C 0.5607 0.48504 0.65888 0.0
C601 C 0.6461 0.67648 0.66391 0.0
H602 H 0.51429 0.54213 0.74395 0.0
H603 H 0.66281 0.56185 0.74956 0.0
H604 H 0.5268 0.60072 0.67547 0.0
H605 H 0.49531 0.53322 0.67513 0.0
H606 H 0.48227 0.5612 0.7025 0.0
H607 H 0.71503 0.58412 0.71056 0.0
H608 H 0.67742 0.55071 0.68184 0.0
H609 H 0.70356 0.61777 0.68124 0.0
H610 H 0.56289 0.51232 0.6044 0.0
H611 H 0.64154 0.67419 0.60846 0.0
H612 H 0.52586 0.47478 0.67027 0.0
H613 H 0.58755 0.48272 0.6742 0.0
H614 H 0.55137 0.45662 0.6436 0.0
H615 H 0.61588 0.67479 0.67653 0.0
H616 H 0.66287 0.71231 0.65027 0.0
H617 H 0.67536 0.67741 0.67846 0.0
C618 C 0.53667 0.01895 0.59292 0.0
C619 C 0.56188 0.05706 0.5718 0.0
C620 C 0.55373 0.02577 0.62035 0.0
C621 C 0.59583 0.07258 0.6268 0.0
C622 C 0.62043 0.11179 0.60552 0.0
C623 C 0.60354 0.10322 0.57812 0.0
C624 C 0.52745 0.98246 0.64228 0.0
C625 C 0.66428 0.16278 0.61172 0.0
C626 C 0.60759 0.09295 0.7035 0.0
C627 C 0.6433 0.07856 0.71185 0.0
C628 C 0.59386 0.09414 0.67553 0.0
C629 C 0.61528 0.07921 0.65561 0.0
C630 C 0.65283 0.06679 0.6637 0.0
C631 C 0.66709 0.06768 0.69155 0.0
C632 C 0.55492 0.10933 0.66748 0.0
C633 C 0.67606 0.04987 0.64321 0.0
H634 H 0.50435 0.98333 0.58785 0.0
H635 H 0.62202 0.13306 0.56173 0.0
H636 H 0.5547 0.97201 0.65207 0.0
H637 H 0.51258 0.99423 0.65884 0.0
H638 H 0.49578 0.94831 0.63373 0.0
H639 H 0.67804 0.18978 0.59294 0.0
H640 H 0.65306 0.17948 0.62748 0.0
H641 H 0.69587 0.15828 0.62055 0.0
H642 H 0.58883 0.10137 0.7189 0.0
H643 H 0.69599 0.05822 0.69757 0.0
H644 H 0.51913 0.07541 0.66222 0.0
H645 H 0.56737 0.13658 0.64882 0.0
H646 H 0.5474 0.12679 0.68445 0.0
H647 H 0.64649 0.0142 0.63489 0.0
H648 H 0.70599 0.04311 0.65269 0.0
H649 H 0.69245 0.07868 0.6254 0.0
C650 C 0.55733 0.4796 0.91854 0.0
C651 C 0.60443 0.52015 0.9099 0.0
C652 C 0.54608 0.46525 0.94687 0.0
C653 C 0.58264 0.49263 0.9668 0.0
C654 C 0.63102 0.53198 0.95804 0.0
C655 C 0.64141 0.54495 0.92969 0.0
C656 C 0.4945 0.42237 0.95545 0.0
C657 C 0.67105 0.56231 0.9786 0.0
C658 C 0.54828 0.5116 0.03693 0.0
C659 C 0.56404 0.48336 0.05461 0.0
C660 C 0.55115 0.51239 0.0081 0.0
C661 C 0.56969 0.48375 -0.00327 0.0
C662 C 0.58207 0.45217 0.01448 0.0
C663 C 0.57955 0.45271 0.04329 0.0
C664 C 0.538 0.54695 0.98992 0.0
C665 C 0.60085 0.42021 0.00312 0.0
H666 H 0.52881 0.46008 0.90322 0.0
H667 H 0.67803 0.57605 0.92307 0.0
H668 H 0.49748 0.39628 0.9719 0.0
H669 H 0.47267 0.4379 0.96414 0.0
H670 H 0.4732 0.40033 0.93773 0.0
H671 H 0.70742 0.5901 0.96839 0.0
H672 H 0.65824 0.58325 0.99045 0.0
H673 H 0.67753 0.53666 -0.00629 0.0
H674 H 0.53665 0.53561 0.04564 0.0
H675 H 0.59118 0.43039 0.05699 0.0
H676 H 0.51252 0.5263 0.97298 0.0
H677 H 0.5728 0.57891 0.98019 0.0
H678 H 0.51963 0.56282 0.00176 0.0
H679 H 0.57747 0.40029 0.98536 0.0
H680 H 0.60067 0.39167 0.01911 0.0
H681 H 0.63995 0.44502 -0.00458 0.0
C682 C 0.04421 0.5361 0.2491 0.0
C683 C 0.08921 0.54077 0.24026 0.0
C684 C 0.03729 0.5406 0.27692 0.0
C685 C 0.07694 0.55128 0.29604 0.0
C686 C 0.12319 0.55782 0.28686 0.0
C687 C 0.12842 0.55155 0.25911 0.0
C688 C 0.9869 0.53178 0.28605 0.0
C689 C 0.16681 0.57061 0.30642 0.0
C690 C 0.07077 0.59809 0.36502 0.0
C691 C 0.05537 0.55422 0.38309 0.0
C692 C 0.07848 0.59792 0.33668 0.0
C693 C 0.06908 0.55244 0.32595 0.0
C694 C 0.05277 0.50788 0.34388 0.0
C695 C 0.04706 0.50955 0.37223 0.0
C696 C 0.09706 0.64648 0.31826 0.0
C697 C 0.04143 0.45833 0.33315 0.0
H698 H 1.01363 0.52662 0.23454 0.0
H699 H 0.1633 0.5553 0.25209 0.0
H700 H 0.96916 0.49766 0.30092 0.0
H701 H 0.99179 0.56431 0.29696 0.0
H702 H 0.96085 0.52618 0.26837 0.0
H703 H 0.20155 0.57899 0.29547 0.0
H704 H 0.17483 0.60395 0.31763 0.0
H705 H 0.15703 0.53839 0.32218 0.0
H706 H 0.07658 0.63266 0.37292 0.0
H707 H 0.03652 0.4757 0.38591 0.0
H708 H 0.06908 0.64163 0.30182 0.0
H709 H 0.13249 0.6558 0.30778 0.0
H710 H 0.10411 0.67902 0.32997 0.0
H711 H 1.01385 0.44876 0.31597 0.0
H712 H 0.02602 0.42642 0.34952 0.0
H713 H 0.07621 0.46196 0.32471 0.0
loop_
_geom_bond_atom_site_label_1
_geom_bond_atom_site_label_2
_geom_bond_distance
_geom_bond_site_symmetry_2
_ccdc_geom_bond_type
Dy0 O4 2.398 . S
Dy0 O5 2.491 . S
Dy0 O6 2.403 . S
Dy0 O7 2.664 1_455 S
Dy0 O11 2.326 . S
Dy0 O15 2.310 . S
Dy0 O16 2.351 1_455 S
C1 O12 1.185 . S
C1 O13 1.355 . S
C2 O4 1.185 . S
C2 O5 1.355 . S
Dy3 O7 2.310 . S
Dy3 O10 2.351 1_655 S
Dy3 O12 2.398 . S
Dy3 O13 2.491 . S
Dy3 O14 2.403 . S
Dy3 O15 2.664 1_655 S
Dy3 O17 2.326 . S
O4 Dy0 2.398 . S
O4 C2 1.185 . S
O5 Dy0 2.491 . S
O5 C2 1.355 . S
O6 Dy0 2.403 . S
O6 C8 1.254 . S
O7 Dy0 2.664 1_655 S
O7 Dy3 2.310 . S
O7 C8 1.268 1_655 S
C8 O6 1.254 . S
C8 O7 1.268 1_455 S
C9 O14 1.254 1_455 S
C9 O15 1.268 . S
O10 Dy3 2.351 1_455 S
O10 C18 1.249 . S
O11 Dy0 2.326 . S
O11 C18 1.267 . S
O12 C1 1.185 . S
O12 Dy3 2.398 . S
O13 C1 1.355 . S
O13 Dy3 2.491 . S
O14 Dy3 2.403 . S
O14 C9 1.254 1_655 S
O15 Dy0 2.310 . S
O15 Dy3 2.664 1_455 S
O15 C9 1.268 . S
O16 Dy0 2.351 1_655 S
O16 C19 1.249 . S
O17 Dy3 2.326 . S
O17 C19 1.267 . S
C18 O10 1.249 . S
C18 O11 1.267 . S
C19 O16 1.249 . S
C19 O17 1.267 . S
Dy20 O24 2.398 1_545 S
Dy20 O25 2.491 1_545 S
Dy20 O26 2.403 . S
Dy20 O27 2.664 . S
Dy20 O31 2.326 1_545 S
Dy20 O35 2.310 . S
Dy20 O36 2.351 . S
C21 O32 1.185 . S
C21 O33 1.355 . S
C22 O24 1.185 . S
C22 O25 1.355 . S
Dy23 O27 2.310 . S
Dy23 O30 2.351 1_545 S
Dy23 O32 2.398 . S
Dy23 O33 2.491 . S
Dy23 O34 2.403 . S
Dy23 O35 2.664 . S
Dy23 O37 2.326 . S
O24 Dy20 2.398 1_565 S
O24 C22 1.185 . S
O25 Dy20 2.491 1_565 S
O25 C22 1.355 . S
O26 Dy20 2.403 . S
O26 C28 1.254 . S
O27 Dy20 2.664 . S
O27 Dy23 2.310 . S
O27 C28 1.268 . S
C28 O26 1.254 . S
C28 O27 1.268 . S
C29 O34 1.254 . S
C29 O35 1.268 . S
O30 Dy23 2.351 1_565 S
O30 C38 1.249 . S
O31 Dy20 2.326 1_565 S
O31 C38 1.267 . S
O32 C21 1.185 . S
O32 Dy23 2.398 . S
O33 C21 1.355 . S
O33 Dy23 2.491 . S
O34 Dy23 2.403 . S
O34 C29 1.254 . S
O35 Dy20 2.310 . S
O35 Dy23 2.664 . S
O35 C29 1.268 . S
O36 Dy20 2.351 . S
O36 C39 1.249 . S
O37 Dy23 2.326 . S
O37 C39 1.267 . S
C38 O30 1.249 . S
C38 O31 1.267 . S
C39 O36 1.249 . S
C39 O37 1.267 . S
Dy40 O44 2.398 . S
Dy40 O45 2.491 . S
Dy40 O46 2.403 . S
Dy40 O47 2.664 . S
Dy40 O51 2.326 . S
Dy40 O55 2.310 . S
Dy40 O56 2.351 . S
C41 O52 1.185 . S
C41 O53 1.355 . S
C42 O44 1.185 . S
C42 O45 1.355 . S
Dy43 O47 2.310 . S
Dy43 O50 2.351 . S
Dy43 O52 2.398 . S
Dy43 O53 2.491 . S
Dy43 O54 2.403 . S
Dy43 O55 2.664 . S
Dy43 O57 2.326 . S
O44 Dy40 2.398 . S
O44 C42 1.185 . S
O45 Dy40 2.491 . S
O45 C42 1.355 . S
O46 Dy40 2.403 . S
O46 C48 1.254 . S
O47 Dy40 2.664 . S
O47 Dy43 2.310 . S
O47 C48 1.268 . S
C48 O46 1.254 . S
C48 O47 1.268 . S
C49 O54 1.254 . S
C49 O55 1.268 . S
O50 Dy43 2.351 . S
O50 C58 1.249 . S
O51 Dy40 2.326 . S
O51 C58 1.267 . S
O52 C41 1.185 . S
O52 Dy43 2.398 . S
O53 C41 1.355 . S
O53 Dy43 2.491 . S
O54 Dy43 2.403 . S
O54 C49 1.254 . S
O55 Dy40 2.310 . S
O55 Dy43 2.664 . S
O55 C49 1.268 . S
O56 Dy40 2.351 . S
O56 C59 1.249 . S
O57 Dy43 2.326 . S
O57 C59 1.267 . S
C58 O50 1.249 . S
C58 O51 1.267 . S
C59 O56 1.249 . S
C59 O57 1.267 . S
H60 C67 0.929 . S
H61 C70 0.930 . S
H62 C72 0.929 . S
H63 C64 0.969 . S
C64 H63 0.969 . S
C64 O65 1.550 . S
C64 H66 0.973 . S
O65 C64 1.550 . S
O65 C71 1.412 . S
H66 C64 0.973 . S
C67 H60 0.929 . S
C67 C68 1.400 . S
C67 C69 1.364 . S
C68 C67 1.400 . S
C68 C72 1.377 . S
C69 C67 1.364 . S
C69 C70 1.374 1_545 S
C70 H61 0.930 . S
C70 C69 1.374 1_565 S
C70 C71 1.383 . S
C71 O65 1.412 . S
C71 C70 1.383 . S
C71 C72 1.394 1_565 S
C72 H62 0.929 . S
C72 C68 1.377 . S
C72 C71 1.394 1_545 S
H73 C80 0.929 . S
H74 C83 0.930 . S
H75 C85 0.929 . S
H76 C77 0.969 . S
C77 H76 0.969 . S
C77 O78 1.550 . S
C77 H79 0.973 . S
O78 C77 1.550 . S
O78 C84 1.412 . S
H79 C77 0.973 . S
C80 H73 0.929 . S
C80 C81 1.400 . S
C80 C82 1.364 . S
C81 C80 1.400 . S
C81 C85 1.377 . S
C82 C80 1.364 . S
C82 C83 1.374 . S
C83 H74 0.930 . S
C83 C82 1.374 . S
C83 C84 1.383 . S
C84 O78 1.412 . S
C84 C83 1.383 . S
C84 C85 1.394 . S
C85 H75 0.929 . S
C85 C81 1.377 . S
C85 C84 1.394 . S
H86 C93 0.929 . S
H87 C96 0.930 . S
H88 C98 0.929 . S
H89 C90 0.969 . S
C90 H89 0.969 . S
C90 O91 1.550 . S
C90 H92 0.973 . S
O91 C90 1.550 . S
O91 C97 1.412 . S
H92 C90 0.973 . S
C93 H86 0.929 . S
C93 C94 1.400 . S
C93 C95 1.364 . S
C94 C93 1.400 . S
C94 C98 1.377 . S
C95 C93 1.364 . S
C95 C96 1.374 . S
C96 H87 0.930 . S
C96 C95 1.374 . S
C96 C97 1.383 . S
C97 O91 1.412 . S
C97 C96 1.383 . S
C97 C98 1.394 . S
C98 H88 0.929 . S
C98 C94 1.377 . S
C98 C97 1.394 . S
H99 C106 0.929 . S
H100 C109 0.930 . S
H101 C111 0.929 . S
H102 C103 0.969 . S
C103 H102 0.969 . S
C103 O104 1.550 . S
C103 H105 0.973 . S
O104 C103 1.550 . S
O104 C110 1.412 . S
H105 C103 0.973 . S
C106 H99 0.929 . S
C106 C107 1.400 . S
C106 C108 1.364 1_655 S
C107 C106 1.400 . S
C107 C111 1.377 1_655 S
C108 C106 1.364 1_455 S
C108 C109 1.374 . S
C109 H100 0.930 . S
C109 C108 1.374 . S
C109 C110 1.383 . S
C110 O104 1.412 . S
C110 C109 1.383 . S
C110 C111 1.394 . S
C111 H101 0.929 . S
C111 C107 1.377 1_455 S
C111 C110 1.394 . S
H112 C119 0.929 1_565 S
H113 C122 0.930 . S
H114 C124 0.929 . S
H115 C116 0.969 . S
C116 H115 0.969 . S
C116 O117 1.550 . S
C116 H118 0.973 . S
O117 C116 1.550 . S
O117 C123 1.412 . S
H118 C116 0.973 . S
C119 H112 0.929 1_545 S
C119 C120 1.400 . S
C119 C121 1.364 . S
C120 C119 1.400 . S
C120 C124 1.377 . S
C121 C119 1.364 . S
C121 C122 1.374 . S
C122 H113 0.930 . S
C122 C121 1.374 . S
C122 C123 1.383 . S
C123 O117 1.412 . S
C123 C122 1.383 . S
C123 C124 1.394 . S
C124 H114 0.929 . S
C124 C120 1.377 . S
C124 C123 1.394 . S
H125 C132 0.929 . S
H126 C135 0.930 . S
H127 C137 0.929 . S
H128 C129 0.969 . S
C129 H128 0.969 . S
C129 O130 1.550 . S
C129 H131 0.973 . S
O130 C129 1.550 . S
O130 C136 1.412 . S
H131 C129 0.973 . S
C132 H125 0.929 . S
C132 C133 1.400 . S
C132 C134 1.364 . S
C133 C132 1.400 . S
C133 C137 1.377 . S
C134 C132 1.364 . S
C134 C135 1.374 . S
C135 H126 0.930 . S
C135 C134 1.374 . S
C135 C136 1.383 . S
C136 O130 1.412 . S
C136 C135 1.383 . S
C136 C137 1.394 . S
C137 H127 0.929 . S
C137 C133 1.377 . S
C137 C136 1.394 . S
C138 C139 1.391 . S
C138 C140 1.394 . S
C138 H154 0.931 . S
C139 C138 1.391 . S
C139 C143 1.376 . S
C140 C138 1.394 . S
C140 C141 1.369 . S
C140 C144 1.531 . S
C141 C140 1.369 . S
C141 C142 1.410 . S
C141 C149 1.503 . S
C142 C141 1.410 . S
C142 C143 1.392 . S
C142 C145 1.511 . S
C143 C139 1.376 . S
C143 C142 1.392 . S
C143 H155 0.929 . S
C144 C140 1.531 . S
C144 H156 0.960 . S
C144 H157 0.962 . S
C144 H158 0.960 . S
C145 C142 1.511 . S
C145 H159 0.961 . S
C145 H160 0.961 . S
C145 H161 0.961 . S
C146 C147 1.370 . S
C146 C148 1.363 . S
C146 H162 0.931 . S
C147 C146 1.370 . S
C147 C151 1.408 . S
C148 C146 1.363 . S
C148 C149 1.370 . S
C148 C152 1.524 . S
C149 C141 1.503 . S
C149 C148 1.370 . S
C149 C150 1.403 . S
C150 C149 1.403 . S
C150 C151 1.404 . S
C150 C153 1.539 . S
C151 C147 1.408 . S
C151 C150 1.404 . S
C151 H163 0.930 . S
C152 C148 1.524 . S
C152 H164 0.956 . S
C152 H165 0.961 . S
C152 H166 0.961 . S
C153 C150 1.539 . S
C153 H167 0.958 . S
C153 H168 0.961 . S
C153 H169 0.960 . S
H154 C138 0.931 . S
H155 C143 0.929 . S
H156 C144 0.960 . S
H157 C144 0.962 . S
H158 C144 0.960 . S
H159 C145 0.961 . S
H160 C145 0.961 . S
H161 C145 0.961 . S
H162 C146 0.931 . S
H163 C151 0.930 . S
H164 C152 0.956 . S
H165 C152 0.961 . S
H166 C152 0.961 . S
H167 C153 0.958 . S
H168 C153 0.961 . S
H169 C153 0.960 . S
C170 C171 1.391 . S
C170 C172 1.394 . S
C170 H186 0.931 . S
C171 C170 1.391 . S
C171 C175 1.376 . S
C172 C170 1.394 . S
C172 C173 1.369 . S
C172 C176 1.531 . S
C173 C172 1.369 . S
C173 C174 1.410 . S
C173 C181 1.503 . S
C174 C173 1.410 . S
C174 C175 1.392 . S
C174 C177 1.511 . S
C175 C171 1.376 . S
C175 C174 1.392 . S
C175 H187 0.929 . S
C176 C172 1.531 . S
C176 H188 0.960 . S
C176 H189 0.962 . S
C176 H190 0.960 . S
C177 C174 1.511 . S
C177 H191 0.961 . S
C177 H192 0.961 . S
C177 H193 0.961 . S
C178 C179 1.370 . S
C178 C180 1.363 . S
C178 H194 0.931 . S
C179 C178 1.370 . S
C179 C183 1.408 . S
C180 C178 1.363 . S
C180 C181 1.370 . S
C180 C184 1.524 . S
C181 C173 1.503 . S
C181 C180 1.370 . S
C181 C182 1.403 . S
C182 C181 1.403 . S
C182 C183 1.404 . S
C182 C185 1.539 . S
C183 C179 1.408 . S
C183 C182 1.404 . S
C183 H195 0.930 . S
C184 C180 1.524 . S
C184 H196 0.956 . S
C184 H197 0.961 . S
C184 H198 0.961 . S
C185 C182 1.539 . S
C185 H199 0.958 . S
C185 H200 0.961 . S
C185 H201 0.960 . S
H186 C170 0.931 . S
H187 C175 0.929 . S
H188 C176 0.960 . S
H189 C176 0.962 . S
H190 C176 0.960 . S
H191 C177 0.961 . S
H192 C177 0.961 . S
H193 C177 0.961 . S
H194 C178 0.931 . S
H195 C183 0.930 . S
H196 C184 0.956 . S
H197 C184 0.961 . S
H198 C184 0.961 . S
H199 C185 0.958 . S
H200 C185 0.961 . S
H201 C185 0.960 . S
C202 C203 1.391 . S
C202 C204 1.394 . S
C202 H218 0.931 . S
C203 C202 1.391 . S
C203 C207 1.376 . S
C204 C202 1.394 . S
C204 C205 1.369 . S
C204 C208 1.531 . S
C205 C204 1.369 . S
C205 C206 1.410 . S
C205 C213 1.503 . S
C206 C205 1.410 . S
C206 C207 1.392 . S
C206 C209 1.511 . S
C207 C203 1.376 . S
C207 C206 1.392 . S
C207 H219 0.929 . S
C208 C204 1.531 . S
C208 H220 0.960 . S
C208 H221 0.962 . S
C208 H222 0.960 . S
C209 C206 1.511 . S
C209 H223 0.961 . S
C209 H224 0.961 . S
C209 H225 0.961 . S
C210 C211 1.370 . S
C210 C212 1.363 . S
C210 H226 0.931 . S
C211 C210 1.370 . S
C211 C215 1.408 . S
C212 C210 1.363 . S
C212 C213 1.370 . S
C212 C216 1.524 . S
C213 C205 1.503 . S
C213 C212 1.370 . S
C213 C214 1.403 . S
C214 C213 1.403 . S
C214 C215 1.404 . S
C214 C217 1.539 . S
C215 C211 1.408 . S
C215 C214 1.404 . S
C215 H227 0.930 . S
C216 C212 1.524 . S
C216 H228 0.956 . S
C216 H229 0.961 . S
C216 H230 0.961 . S
C217 C214 1.539 . S
C217 H231 0.958 . S
C217 H232 0.961 . S
C217 H233 0.960 . S
H218 C202 0.931 . S
H219 C207 0.929 . S
H220 C208 0.960 . S
H221 C208 0.962 . S
H222 C208 0.960 . S
H223 C209 0.961 . S
H224 C209 0.961 . S
H225 C209 0.961 . S
H226 C210 0.931 . S
H227 C215 0.930 . S
H228 C216 0.956 . S
H229 C216 0.961 . S
H230 C216 0.961 . S
H231 C217 0.958 . S
H232 C217 0.961 . S
H233 C217 0.960 . S
C234 C235 1.391 . S
C234 C236 1.394 . S
C234 H250 0.931 . S
C235 C234 1.391 . S
C235 C239 1.376 . S
C236 C234 1.394 . S
C236 C237 1.369 . S
C236 C240 1.531 . S
C237 C236 1.369 . S
C237 C238 1.410 . S
C237 C245 1.503 . S
C238 C237 1.410 . S
C238 C239 1.392 . S
C238 C241 1.511 . S
C239 C235 1.376 . S
C239 C238 1.392 . S
C239 H251 0.929 . S
C240 C236 1.531 . S
C240 H252 0.960 . S
C240 H253 0.962 . S
C240 H254 0.960 . S
C241 C238 1.511 . S
C241 H255 0.961 . S
C241 H256 0.961 . S
C241 H257 0.961 . S
C242 C243 1.370 . S
C242 C244 1.363 . S
C242 H258 0.931 . S
C243 C242 1.370 . S
C243 C247 1.408 . S
C244 C242 1.363 . S
C244 C245 1.370 . S
C244 C248 1.524 . S
C245 C237 1.503 . S
C245 C244 1.370 . S
C245 C246 1.403 . S
C246 C245 1.403 . S
C246 C247 1.404 . S
C246 C249 1.539 . S
C247 C243 1.408 . S
C247 C246 1.404 . S
C247 H259 0.930 . S
C248 C244 1.524 . S
C248 H260 0.956 . S
C248 H261 0.961 . S
C248 H262 0.961 . S
C249 C246 1.539 . S
C249 H263 0.958 . S
C249 H264 0.961 . S
C249 H265 0.960 . S
H250 C234 0.931 . S
H251 C239 0.929 . S
H252 C240 0.960 . S
H253 C240 0.962 . S
H254 C240 0.960 . S
H255 C241 0.961 . S
H256 C241 0.961 . S
H257 C241 0.961 . S
H258 C242 0.931 . S
H259 C247 0.930 . S
H260 C248 0.956 . S
H261 C248 0.961 . S
H262 C248 0.961 . S
H263 C249 0.958 . S
H264 C249 0.961 . S
H265 C249 0.960 . S
C266 C267 1.391 . S
C266 C268 1.394 . S
C266 H282 0.931 . S
C267 C266 1.391 . S
C267 C271 1.376 . S
C268 C266 1.394 . S
C268 C269 1.369 . S
C268 C272 1.531 . S
C269 C268 1.369 . S
C269 C270 1.410 . S
C269 C277 1.503 . S
C270 C269 1.410 . S
C270 C271 1.392 . S
C270 C273 1.511 . S
C271 C267 1.376 . S
C271 C270 1.392 . S
C271 H283 0.929 . S
C272 C268 1.531 . S
C272 H284 0.960 . S
C272 H285 0.962 . S
C272 H286 0.960 . S
C273 C270 1.511 . S
C273 H287 0.961 . S
C273 H288 0.961 . S
C273 H289 0.961 . S
C274 C275 1.370 . S
C274 C276 1.363 . S
C274 H290 0.931 . S
C275 C274 1.370 . S
C275 C279 1.408 . S
C276 C274 1.363 . S
C276 C277 1.370 . S
C276 C280 1.524 . S
C277 C269 1.503 . S
C277 C276 1.370 . S
C277 C278 1.403 . S
C278 C277 1.403 . S
C278 C279 1.404 . S
C278 C281 1.539 . S
C279 C275 1.408 . S
C279 C278 1.404 . S
C279 H291 0.930 . S
C280 C276 1.524 . S
C280 H292 0.956 . S
C280 H293 0.961 . S
C280 H294 0.961 . S
C281 C278 1.539 . S
C281 H295 0.958 . S
C281 H296 0.961 . S
C281 H297 0.960 . S
H282 C266 0.931 . S
H283 C271 0.929 . S
H284 C272 0.960 . S
H285 C272 0.962 . S
H286 C272 0.960 . S
H287 C273 0.961 . S
H288 C273 0.961 . S
H289 C273 0.961 . S
H290 C274 0.931 . S
H291 C279 0.930 . S
H292 C280 0.956 . S
H293 C280 0.961 . S
H294 C280 0.961 . S
H295 C281 0.958 . S
H296 C281 0.961 . S
H297 C281 0.960 . S
C298 C299 1.391 . S
C298 C300 1.394 . S
C298 H314 0.931 . S
C299 C298 1.391 . S
C299 C303 1.376 . S
C300 C298 1.394 . S
C300 C301 1.369 . S
C300 C304 1.531 . S
C301 C300 1.369 . S
C301 C302 1.410 . S
C301 C309 1.503 . S
C302 C301 1.410 . S
C302 C303 1.392 . S
C302 C305 1.511 . S
C303 C299 1.376 . S
C303 C302 1.392 . S
C303 H315 0.929 . S
C304 C300 1.531 . S
C304 H316 0.960 . S
C304 H317 0.962 . S
C304 H318 0.960 . S
C305 C302 1.511 . S
C305 H319 0.961 . S
C305 H320 0.961 . S
C305 H321 0.961 . S
C306 C307 1.370 . S
C306 C308 1.363 . S
C306 H322 0.931 . S
C307 C306 1.370 . S
C307 C311 1.408 . S
C308 C306 1.363 . S
C308 C309 1.370 . S
C308 C312 1.524 . S
C309 C301 1.503 . S
C309 C308 1.370 . S
C309 C310 1.403 . S
C310 C309 1.403 . S
C310 C311 1.404 . S
C310 C313 1.539 . S
C311 C307 1.408 . S
C311 C310 1.404 . S
C311 H323 0.930 . S
C312 C308 1.524 . S
C312 H324 0.956 . S
C312 H325 0.961 . S
C312 H326 0.961 . S
C313 C310 1.539 . S
C313 H327 0.958 . S
C313 H328 0.961 . S
C313 H329 0.960 . S
H314 C298 0.931 . S
H315 C303 0.929 . S
H316 C304 0.960 . S
H317 C304 0.962 . S
H318 C304 0.960 . S
H319 C305 0.961 . S
H320 C305 0.961 . S
H321 C305 0.961 . S
H322 C306 0.931 . S
H323 C311 0.930 . S
H324 C312 0.956 . S
H325 C312 0.961 . S
H326 C312 0.961 . S
H327 C313 0.958 . S
H328 C313 0.961 . S
H329 C313 0.960 . S
C330 C331 1.391 . S
C330 C332 1.394 . S
C330 H346 0.931 . S
C331 C330 1.391 . S
C331 C335 1.376 . S
C332 C330 1.394 . S
C332 C333 1.369 . S
C332 C336 1.531 . S
C333 C332 1.369 . S
C333 C334 1.410 . S
C333 C341 1.503 . S
C334 C333 1.410 . S
C334 C335 1.392 . S
C334 C337 1.511 . S
C335 C331 1.376 . S
C335 C334 1.392 . S
C335 H347 0.929 . S
C336 C332 1.531 . S
C336 H348 0.960 . S
C336 H349 0.962 . S
C336 H350 0.960 . S
C337 C334 1.511 . S
C337 H351 0.961 . S
C337 H352 0.961 . S
C337 H353 0.961 . S
C338 C339 1.370 . S
C338 C340 1.363 . S
C338 H354 0.931 . S
C339 C338 1.370 . S
C339 C343 1.408 . S
C340 C338 1.363 . S
C340 C341 1.370 . S
C340 C344 1.524 . S
C341 C333 1.503 . S
C341 C340 1.370 . S
C341 C342 1.403 . S
C342 C341 1.403 . S
C342 C343 1.404 . S
C342 C345 1.539 . S
C343 C339 1.408 . S
C343 C342 1.404 . S
C343 H355 0.930 . S
C344 C340 1.524 . S
C344 H356 0.956 . S
C344 H357 0.961 . S
C344 H358 0.961 . S
C345 C342 1.539 . S
C345 H359 0.958 . S
C345 H360 0.961 . S
C345 H361 0.960 . S
H346 C330 0.931 . S
H347 C335 0.929 . S
H348 C336 0.960 . S
H349 C336 0.962 . S
H350 C336 0.960 . S
H351 C337 0.961 . S
H352 C337 0.961 . S
H353 C337 0.961 . S
H354 C338 0.931 . S
H355 C343 0.930 . S
H356 C344 0.956 . S
H357 C344 0.961 . S
H358 C344 0.961 . S
H359 C345 0.958 . S
H360 C345 0.961 . S
H361 C345 0.960 . S
C362 C363 1.391 . S
C362 C364 1.394 . S
C362 H378 0.931 . S
C363 C362 1.391 . S
C363 C367 1.376 . S
C364 C362 1.394 . S
C364 C365 1.369 . S
C364 C368 1.531 . S
C365 C364 1.369 . S
C365 C366 1.410 . S
C365 C373 1.503 . S
C366 C365 1.410 . S
C366 C367 1.392 . S
C366 C369 1.511 . S
C367 C363 1.376 . S
C367 C366 1.392 . S
C367 H379 0.929 . S
C368 C364 1.531 . S
C368 H380 0.960 . S
C368 H381 0.962 . S
C368 H382 0.960 . S
C369 C366 1.511 . S
C369 H383 0.961 . S
C369 H384 0.961 . S
C369 H385 0.961 . S
C370 C371 1.370 . S
C370 C372 1.363 . S
C370 H386 0.931 1_655 S
C371 C370 1.370 . S
C371 C375 1.408 . S
C372 C370 1.363 . S
C372 C373 1.370 . S
C372 C376 1.524 . S
C373 C365 1.503 . S
C373 C372 1.370 . S
C373 C374 1.403 . S
C374 C373 1.403 . S
C374 C375 1.404 . S
C374 C377 1.539 . S
C375 C371 1.408 . S
C375 C374 1.404 . S
C375 H387 0.930 . S
C376 C372 1.524 . S
C376 H388 0.956 . S
C376 H389 0.961 . S
C376 H390 0.961 . S
C377 C374 1.539 . S
C377 H391 0.958 . S
C377 H392 0.961 . S
C377 H393 0.960 . S
H378 C362 0.931 . S
H379 C367 0.929 . S
H380 C368 0.960 . S
H381 C368 0.962 . S
H382 C368 0.960 . S
H383 C369 0.961 . S
H384 C369 0.961 . S
H385 C369 0.961 . S
H386 C370 0.931 1_455 S
H387 C375 0.930 . S
H388 C376 0.956 . S
H389 C376 0.961 . S
H390 C376 0.961 . S
H391 C377 0.958 . S
H392 C377 0.961 . S
H393 C377 0.960 . S
C394 C395 1.391 . S
C394 C396 1.394 . S
C394 H410 0.931 . S
C395 C394 1.391 . S
C395 C399 1.376 . S
C396 C394 1.394 . S
C396 C397 1.369 . S
C396 C400 1.531 . S
C397 C396 1.369 . S
C397 C398 1.410 . S
C397 C405 1.503 . S
C398 C397 1.410 . S
C398 C399 1.392 . S
C398 C401 1.511 . S
C399 C395 1.376 . S
C399 C398 1.392 . S
C399 H411 0.929 . S
C400 C396 1.531 . S
C400 H412 0.960 . S
C400 H413 0.962 . S
C400 H414 0.960 . S
C401 C398 1.511 . S
C401 H415 0.961 . S
C401 H416 0.961 . S
C401 H417 0.961 . S
C402 C403 1.370 . S
C402 C404 1.363 . S
C402 H418 0.931 . S
C403 C402 1.370 . S
C403 C407 1.408 . S
C404 C402 1.363 . S
C404 C405 1.370 . S
C404 C408 1.524 . S
C405 C397 1.503 . S
C405 C404 1.370 . S
C405 C406 1.403 . S
C406 C405 1.403 . S
C406 C407 1.404 . S
C406 C409 1.539 . S
C407 C403 1.408 . S
C407 C406 1.404 . S
C407 H419 0.930 . S
C408 C404 1.524 . S
C408 H420 0.956 . S
C408 H421 0.961 . S
C408 H422 0.961 . S
C409 C406 1.539 . S
C409 H423 0.958 . S
C409 H424 0.961 . S
C409 H425 0.960 . S
H410 C394 0.931 . S
H411 C399 0.929 . S
H412 C400 0.960 . S
H413 C400 0.962 . S
H414 C400 0.960 . S
H415 C401 0.961 . S
H416 C401 0.961 . S
H417 C401 0.961 . S
H418 C402 0.931 . S
H419 C407 0.930 . S
H420 C408 0.956 . S
H421 C408 0.961 . S
H422 C408 0.961 . S
H423 C409 0.958 . S
H424 C409 0.961 . S
H425 C409 0.960 . S
C426 C427 1.391 . S
C426 C428 1.394 . S
C426 H442 0.931 . S
C427 C426 1.391 . S
C427 C431 1.376 . S
C428 C426 1.394 . S
C428 C429 1.369 . S
C428 C432 1.531 . S
C429 C428 1.369 . S
C429 C430 1.410 . S
C429 C437 1.503 . S
C430 C429 1.410 . S
C430 C431 1.392 . S
C430 C433 1.511 . S
C431 C427 1.376 . S
C431 C430 1.392 . S
C431 H443 0.929 . S
C432 C428 1.531 . S
C432 H444 0.960 . S
C432 H445 0.962 . S
C432 H446 0.960 . S
C433 C430 1.511 . S
C433 H447 0.961 . S
C433 H448 0.961 . S
C433 H449 0.961 . S
C434 C435 1.370 . S
C434 C436 1.363 . S
C434 H450 0.931 . S
C435 C434 1.370 . S
C435 C439 1.408 . S
C436 C434 1.363 . S
C436 C437 1.370 . S
C436 C440 1.524 . S
C437 C429 1.503 . S
C437 C436 1.370 . S
C437 C438 1.403 . S
C438 C437 1.403 . S
C438 C439 1.404 . S
C438 C441 1.539 . S
C439 C435 1.408 . S
C439 C438 1.404 . S
C439 H451 0.930 . S
C440 C436 1.524 . S
C440 H452 0.956 . S
C440 H453 0.961 . S
C440 H454 0.961 . S
C441 C438 1.539 . S
C441 H455 0.958 . S
C441 H456 0.961 . S
C441 H457 0.960 . S
H442 C426 0.931 . S
H443 C431 0.929 . S
H444 C432 0.960 . S
H445 C432 0.962 . S
H446 C432 0.960 . S
H447 C433 0.961 . S
H448 C433 0.961 . S
H449 C433 0.961 . S
H450 C434 0.931 . S
H451 C439 0.930 . S
H452 C440 0.956 . S
H453 C440 0.961 . S
H454 C440 0.961 . S
H455 C441 0.958 . S
H456 C441 0.961 . S
H457 C441 0.960 . S
C458 C459 1.391 . S
C458 C460 1.394 . S
C458 H474 0.931 . S
C459 C458 1.391 . S
C459 C463 1.376 . S
C460 C458 1.394 . S
C460 C461 1.369 . S
C460 C464 1.531 . S
C461 C460 1.369 . S
C461 C462 1.410 . S
C461 C469 1.503 . S
C462 C461 1.410 . S
C462 C463 1.392 . S
C462 C465 1.511 . S
C463 C459 1.376 . S
C463 C462 1.392 . S
C463 H475 0.929 . S
C464 C460 1.531 . S
C464 H476 0.960 . S
C464 H477 0.962 . S
C464 H478 0.960 . S
C465 C462 1.511 . S
C465 H479 0.961 . S
C465 H480 0.961 . S
C465 H481 0.961 . S
C466 C467 1.370 . S
C466 C468 1.363 . S
C466 H482 0.931 . S
C467 C466 1.370 . S
C467 C471 1.408 . S
C468 C466 1.363 . S
C468 C469 1.370 . S
C468 C472 1.524 . S
C469 C461 1.503 . S
C469 C468 1.370 . S
C469 C470 1.403 . S
C470 C469 1.403 . S
C470 C471 1.404 . S
C470 C473 1.539 . S
C471 C467 1.408 . S
C471 C470 1.404 . S
C471 H483 0.930 . S
C472 C468 1.524 . S
C472 H484 0.956 . S
C472 H485 0.961 . S
C472 H486 0.961 . S
C473 C470 1.539 . S
C473 H487 0.958 . S
C473 H488 0.961 . S
C473 H489 0.960 . S
H474 C458 0.931 . S
H475 C463 0.929 . S
H476 C464 0.960 . S
H477 C464 0.962 . S
H478 C464 0.960 . S
H479 C465 0.961 . S
H480 C465 0.961 . S
H481 C465 0.961 . S
H482 C466 0.931 . S
H483 C471 0.930 . S
H484 C472 0.956 . S
H485 C472 0.961 . S
H486 C472 0.961 . S
H487 C473 0.958 . S
H488 C473 0.961 . S
H489 C473 0.960 . S
C490 C491 1.391 . S
C490 C492 1.394 . S
C490 H506 0.931 . S
C491 C490 1.391 . S
C491 C495 1.376 . S
C492 C490 1.394 . S
C492 C493 1.369 . S
C492 C496 1.531 . S
C493 C492 1.369 . S
C493 C494 1.410 . S
C493 C501 1.503 . S
C494 C493 1.410 . S
C494 C495 1.392 . S
C494 C497 1.511 . S
C495 C491 1.376 . S
C495 C494 1.392 . S
C495 H507 0.929 . S
C496 C492 1.531 . S
C496 H508 0.960 . S
C496 H509 0.962 . S
C496 H510 0.960 . S
C497 C494 1.511 . S
C497 H511 0.961 . S
C497 H512 0.961 . S
C497 H513 0.961 . S
C498 C499 1.370 . S
C498 C500 1.363 . S
C498 H514 0.931 . S
C499 C498 1.370 . S
C499 C503 1.408 . S
C500 C498 1.363 . S
C500 C501 1.370 . S
C500 C504 1.524 . S
C501 C493 1.503 . S
C501 C500 1.370 . S
C501 C502 1.403 . S
C502 C501 1.403 . S
C502 C503 1.404 . S
C502 C505 1.539 . S
C503 C499 1.408 . S
C503 C502 1.404 . S
C503 H515 0.930 . S
C504 C500 1.524 . S
C504 H516 0.956 . S
C504 H517 0.961 . S
C504 H518 0.961 . S
C505 C502 1.539 . S
C505 H519 0.958 . S
C505 H520 0.961 . S
C505 H521 0.960 . S
H506 C490 0.931 . S
H507 C495 0.929 . S
H508 C496 0.960 . S
H509 C496 0.962 . S
H510 C496 0.960 . S
H511 C497 0.961 . S
H512 C497 0.961 . S
H513 C497 0.961 . S
H514 C498 0.931 . S
H515 C503 0.930 . S
H516 C504 0.956 . S
H517 C504 0.961 . S
H518 C504 0.961 . S
H519 C505 0.958 . S
H520 C505 0.961 . S
H521 C505 0.960 . S
C522 C523 1.391 . S
C522 C524 1.394 . S
C522 H538 0.931 . S
C523 C522 1.391 . S
C523 C527 1.376 . S
C524 C522 1.394 . S
C524 C525 1.369 . S
C524 C528 1.531 . S
C525 C524 1.369 . S
C525 C526 1.410 . S
C525 C533 1.503 1_554 S
C526 C525 1.410 . S
C526 C527 1.392 . S
C526 C529 1.511 1_455 S
C527 C523 1.376 . S
C527 C526 1.392 . S
C527 H539 0.929 1_455 S
C528 C524 1.531 . S
C528 H540 0.960 . S
C528 H541 0.962 . S
C528 H542 0.960 . S
C529 C526 1.511 1_655 S
C529 H543 0.961 . S
C529 H544 0.961 1_655 S
C529 H545 0.961 . S
C530 C531 1.370 . S
C530 C532 1.363 . S
C530 H546 0.931 . S
C531 C530 1.370 . S
C531 C535 1.408 . S
C532 C530 1.363 . S
C532 C533 1.370 . S
C532 C536 1.524 1_556 S
C533 C525 1.503 1_556 S
C533 C532 1.370 . S
C533 C534 1.403 . S
C534 C533 1.403 . S
C534 C535 1.404 . S
C534 C537 1.539 1_455 S
C535 C531 1.408 . S
C535 C534 1.404 . S
C535 H547 0.930 1_455 S
C536 C532 1.524 1_554 S
C536 H548 0.956 . S
C536 H549 0.961 . S
C536 H550 0.961 1_554 S
C537 C534 1.539 1_655 S
C537 H551 0.958 . S
C537 H552 0.961 . S
C537 H553 0.960 1_556 S
H538 C522 0.931 . S
H539 C527 0.929 1_655 S
H540 C528 0.960 . S
H541 C528 0.962 . S
H542 C528 0.960 . S
H543 C529 0.961 . S
H544 C529 0.961 1_455 S
H545 C529 0.961 . S
H546 C530 0.931 . S
H547 C535 0.930 1_655 S
H548 C536 0.956 . S
H549 C536 0.961 . S
H550 C536 0.961 1_556 S
H551 C537 0.958 . S
H552 C537 0.961 . S
H553 C537 0.960 1_554 S
C554 C555 1.391 . S
C554 C556 1.394 . S
C554 H570 0.931 . S
C555 C554 1.391 . S
C555 C559 1.376 . S
C556 C554 1.394 . S
C556 C557 1.369 . S
C556 C560 1.531 . S
C557 C556 1.369 . S
C557 C558 1.410 . S
C557 C565 1.503 . S
C558 C557 1.410 . S
C558 C559 1.392 . S
C558 C561 1.511 1_545 S
C559 C555 1.376 . S
C559 C558 1.392 . S
C559 H571 0.929 . S
C560 C556 1.531 . S
C560 H572 0.960 . S
C560 H573 0.962 . S
C560 H574 0.960 . S
C561 C558 1.511 1_565 S
C561 H575 0.961 . S
C561 H576 0.961 . S
C561 H577 0.961 1_565 S
C562 C563 1.370 1_565 S
C562 C564 1.363 . S
C562 H578 0.931 . S
C563 C562 1.370 1_545 S
C563 C567 1.408 . S
C564 C562 1.363 . S
C564 C565 1.370 1_565 S
C564 C568 1.524 . S
C565 C557 1.503 . S
C565 C564 1.370 1_545 S
C565 C566 1.403 . S
C566 C565 1.403 . S
C566 C567 1.404 . S
C566 C569 1.539 . S
C567 C563 1.408 . S
C567 C566 1.404 . S
C567 H579 0.930 . S
C568 C564 1.524 . S
C568 H580 0.956 . S
C568 H581 0.961 . S
C568 H582 0.961 . S
C569 C566 1.539 . S
C569 H583 0.958 . S
C569 H584 0.961 . S
C569 H585 0.960 . S
H570 C554 0.931 . S
H571 C559 0.929 . S
H572 C560 0.960 . S
H573 C560 0.962 . S
H574 C560 0.960 . S
H575 C561 0.961 . S
H576 C561 0.961 . S
H577 C561 0.961 1_545 S
H578 C562 0.931 . S
H579 C567 0.930 . S
H580 C568 0.956 . S
H581 C568 0.961 . S
H582 C568 0.961 . S
H583 C569 0.958 . S
H584 C569 0.961 . S
H585 C569 0.960 . S
C586 C587 1.391 . S
C586 C588 1.394 . S
C586 H602 0.931 . S
C587 C586 1.391 . S
C587 C591 1.376 . S
C588 C586 1.394 . S
C588 C589 1.369 . S
C588 C592 1.531 . S
C589 C588 1.369 . S
C589 C590 1.410 . S
C589 C597 1.503 . S
C590 C589 1.410 . S
C590 C591 1.392 . S
C590 C593 1.511 . S
C591 C587 1.376 . S
C591 C590 1.392 . S
C591 H603 0.929 . S
C592 C588 1.531 . S
C592 H604 0.960 . S
C592 H605 0.962 . S
C592 H606 0.960 . S
C593 C590 1.511 . S
C593 H607 0.961 . S
C593 H608 0.961 . S
C593 H609 0.961 . S
C594 C595 1.370 . S
C594 C596 1.363 . S
C594 H610 0.931 . S
C595 C594 1.370 . S
C595 C599 1.408 . S
C596 C594 1.363 . S
C596 C597 1.370 . S
C596 C600 1.524 . S
C597 C589 1.503 . S
C597 C596 1.370 . S
C597 C598 1.403 . S
C598 C597 1.403 . S
C598 C599 1.404 . S
C598 C601 1.539 . S
C599 C595 1.408 . S
C599 C598 1.404 . S
C599 H611 0.930 . S
C600 C596 1.524 . S
C600 H612 0.956 . S
C600 H613 0.961 . S
C600 H614 0.961 . S
C601 C598 1.539 . S
C601 H615 0.958 . S
C601 H616 0.961 . S
C601 H617 0.960 . S
H602 C586 0.931 . S
H603 C591 0.929 . S
H604 C592 0.960 . S
H605 C592 0.962 . S
H606 C592 0.960 . S
H607 C593 0.961 . S
H608 C593 0.961 . S
H609 C593 0.961 . S
H610 C594 0.931 . S
H611 C599 0.930 . S
H612 C600 0.956 . S
H613 C600 0.961 . S
H614 C600 0.961 . S
H615 C601 0.958 . S
H616 C601 0.961 . S
H617 C601 0.960 . S
C618 C619 1.391 . S
C618 C620 1.394 . S
C618 H634 0.931 1_545 S
C619 C618 1.391 . S
C619 C623 1.376 . S
C620 C618 1.394 . S
C620 C621 1.369 . S
C620 C624 1.531 1_545 S
C621 C620 1.369 . S
C621 C622 1.410 . S
C621 C629 1.503 . S
C622 C621 1.410 . S
C622 C623 1.392 . S
C622 C625 1.511 . S
C623 C619 1.376 . S
C623 C622 1.392 . S
C623 H635 0.929 . S
C624 C620 1.531 1_565 S
C624 H636 0.960 . S
C624 H637 0.962 . S
C624 H638 0.960 . S
C625 C622 1.511 . S
C625 H639 0.961 . S
C625 H640 0.961 . S
C625 H641 0.961 . S
C626 C627 1.370 . S
C626 C628 1.363 . S
C626 H642 0.931 . S
C627 C626 1.370 . S
C627 C631 1.408 . S
C628 C626 1.363 . S
C628 C629 1.370 . S
C628 C632 1.524 . S
C629 C621 1.503 . S
C629 C628 1.370 . S
C629 C630 1.403 . S
C630 C629 1.403 . S
C630 C631 1.404 . S
C630 C633 1.539 1_545 S
C631 C627 1.408 . S
C631 C630 1.404 . S
C631 H643 0.916 1_545 S
C632 C628 1.524 . S
C632 H644 0.956 . S
C632 H645 0.961 . S
C632 H646 0.961 . S
C633 C630 1.539 1_565 S
C633 H647 0.958 . S
C633 H648 0.961 . S
C633 H649 0.960 . S
H634 C618 0.931 1_565 S
H635 C623 0.929 . S
H636 C624 0.960 . S
H637 C624 0.962 . S
H638 C624 0.960 . S
H639 C625 0.961 . S
H640 C625 0.961 . S
H641 C625 0.961 . S
H642 C626 0.931 . S
H643 C631 0.916 1_565 S
H644 C632 0.956 . S
H645 C632 0.961 . S
H646 C632 0.961 . S
H647 C633 0.958 . S
H648 C633 0.961 . S
H649 C633 0.960 . S
C650 C651 1.391 . S
C650 C652 1.394 . S
C650 H666 0.931 . S
C651 C650 1.391 . S
C651 C655 1.376 . S
C652 C650 1.394 . S
C652 C653 1.369 . S
C652 C656 1.531 . S
C653 C652 1.369 . S
C653 C654 1.410 . S
C653 C661 1.503 1_556 S
C654 C653 1.410 . S
C654 C655 1.392 . S
C654 C657 1.511 . S
C655 C651 1.376 . S
C655 C654 1.392 . S
C655 H667 0.929 . S
C656 C652 1.531 . S
C656 H668 0.960 . S
C656 H669 0.962 . S
C656 H670 0.960 . S
C657 C654 1.511 . S
C657 H671 0.961 . S
C657 H672 0.961 1_556 S
C657 H673 0.961 . S
C658 C659 1.370 . S
C658 C660 1.363 . S
C658 H674 0.931 . S
C659 C658 1.370 . S
C659 C663 1.408 . S
C660 C658 1.363 . S
C660 C661 1.370 . S
C660 C664 1.524 . S
C661 C653 1.503 1_554 S
C661 C660 1.370 . S
C661 C662 1.403 . S
C662 C661 1.403 . S
C662 C663 1.404 . S
C662 C665 1.539 . S
C663 C659 1.408 . S
C663 C662 1.404 . S
C663 H675 0.930 . S
C664 C660 1.524 . S
C664 H676 0.956 1_554 S
C664 H677 0.961 1_554 S
C664 H678 0.961 . S
C665 C662 1.539 . S
C665 H679 0.965 . S
C665 H680 0.961 . S
C665 H681 0.960 1_554 S
H666 C650 0.931 . S
H667 C655 0.929 . S
H668 C656 0.960 . S
H669 C656 0.962 . S
H670 C656 0.960 . S
H671 C657 0.961 . S
H672 C657 0.961 1_554 S
H673 C657 0.961 . S
H674 C658 0.931 . S
H675 C663 0.930 . S
H676 C664 0.956 1_556 S
H677 C664 0.961 1_556 S
H678 C664 0.961 . S
H679 C665 0.965 . S
H680 C665 0.961 . S
H681 C665 0.960 1_556 S
C682 C683 1.391 1_655 S
C682 C684 1.394 . S
C682 H698 0.931 . S
C683 C682 1.391 1_455 S
C683 C687 1.376 . S
C684 C682 1.394 . S
C684 C685 1.369 1_655 S
C684 C688 1.531 . S
C685 C684 1.369 1_455 S
C685 C686 1.410 . S
C685 C693 1.503 . S
C686 C685 1.410 . S
C686 C687 1.392 . S
C686 C689 1.511 . S
C687 C683 1.376 . S
C687 C686 1.392 . S
C687 H699 0.929 . S
C688 C684 1.531 . S
C688 H700 0.960 . S
C688 H701 0.962 . S
C688 H702 0.960 . S
C689 C686 1.511 . S
C689 H703 0.961 . S
C689 H704 0.961 . S
C689 H705 0.961 . S
C690 C691 1.370 . S
C690 C692 1.363 . S
C690 H706 0.931 . S
C691 C690 1.370 . S
C691 C695 1.408 . S
C692 C690 1.363 . S
C692 C693 1.370 . S
C692 C696 1.524 . S
C693 C685 1.503 . S
C693 C692 1.370 . S
C693 C694 1.403 . S
C694 C693 1.403 . S
C694 C695 1.404 . S
C694 C697 1.539 . S
C695 C691 1.408 . S
C695 C694 1.404 . S
C695 H707 0.930 . S
C696 C692 1.524 . S
C696 H708 0.956 1_455 S
C696 H709 0.961 . S
C696 H710 0.961 . S
C697 C694 1.539 . S
C697 H711 0.958 1_455 S
C697 H712 0.961 . S
C697 H713 0.960 . S
H698 C682 0.931 . S
H699 C687 0.929 . S
H700 C688 0.960 . S
H701 C688 0.962 . S
H702 C688 0.960 . S
H703 C689 0.961 . S
H704 C689 0.961 . S
H705 C689 0.961 . S
H706 C690 0.931 . S
H707 C695 0.930 . S
H708 C696 0.956 1_655 S
H709 C696 0.961 . S
H710 C696 0.961 . S
H711 C697 0.958 1_655 S
H712 C697 0.961 . S
H713 C697 0.960 . S
C139 C2 1.092 . S
C147 C129 1.033 . S
C171 C21 0.927 . S
C179 C107 0.928 . S
C203 C42 1.008 . S
C211 C120 0.981 1_565 S
C235 C1 0.952 . S
C243 C133 0.937 . S
C275 C103 1.065 . S
C267 C22 1.144 . S
C307 C116 0.986 . S
C299 C41 1.016 . S
C331 C38 1.783 . S
C339 C81 1.769 . S
C363 C59 1.860 . S
C371 C94 1.833 1_655 S
C395 C18 1.903 . S
C403 C64 1.769 . S
C435 C77 1.831 . S
C427 C39 2.006 . S
C467 C90 1.775 . S
C459 C58 1.905 . S
C491 C19 1.866 . S
C499 C68 1.837 . S
C531 C95 1.586 . S
C523 C9 1.545 . S
C555 C29 1.513 . S
C563 C69 1.564 . S
C587 C49 1.549 . S
C595 C82 1.618 . S
C627 C121 1.439 . S
C619 C28 1.408 . S
C659 C134 1.495 . S
C651 C48 1.497 . S
C683 C8 1.416 . S
C691 C108 1.470 . S
