# Generated by pormake.
# Topology zzz, (3,6)-cn, num edge types: 1
# Building blocks:
#     Node 0, Type 0, BuildingBlock: ESEHIV_clean_linker_0, # of connection points: 3
#     Node 1, Type 0, BuildingBlock: ESEHIV_clean_linker_0, # of connection points: 3
#     Node 2, Type 0, BuildingBlock: ESEHIV_clean_linker_0, # of connection points: 3
#     Node 3, Type 0, BuildingBlock: ESEHIV_clean_linker_0, # of connection points: 3
#     Node 4, Type 0, BuildingBlock: ESEHIV_clean_linker_0, # of connection points: 3
#     Node 5, Type 0, BuildingBlock: ESEHIV_clean_linker_0, # of connection points: 3
#     Node 6, Type 0, BuildingBlock: ESEHIV_clean_linker_0, # of connection points: 3
#     Node 7, Type 0, BuildingBlock: ESEHIV_clean_linker_0, # of connection points: 3
#     Node 8, Type 1, BuildingBlock: CUKXOW_clean_sbu_0, # of connection points: 6
#     Node 9, Type 1, BuildingBlock: CUKXOW_clean_sbu_0, # of connection points: 6
#     Node 10, Type 1, BuildingBlock: CUKXOW_clean_sbu_0, # of connection points: 6
#     Node 11, Type 1, BuildingBlock: CUKXOW_clean_sbu_0, # of connection points: 6
#     Edge 12, Type (0, 1), BuildingBlock: MIFKUJ_clean_linker_0, # of connection points: 2
#     Edge 13, Type (0, 1), BuildingBlock: MIFKUJ_clean_linker_0, # of connection points: 2
#     Edge 14, Type (0, 1), BuildingBlock: MIFKUJ_clean_linker_0, # of connection points: 2
#     Edge 15, Type (0, 1), BuildingBlock: MIFKUJ_clean_linker_0, # of connection points: 2
#     Edge 16, Type (0, 1), BuildingBlock: MIFKUJ_clean_linker_0, # of connection points: 2
#     Edge 17, Type (0, 1), BuildingBlock: MIFKUJ_clean_linker_0, # of connection points: 2
#     Edge 18, Type (0, 1), BuildingBlock: MIFKUJ_clean_linker_0, # of connection points: 2
#     Edge 19, Type (0, 1), BuildingBlock: MIFKUJ_clean_linker_0, # of connection points: 2
#     Edge 20, Type (0, 1), BuildingBlock: MIFKUJ_clean_linker_0, # of connection points: 2
#     Edge 21, Type (0, 1), BuildingBlock: MIFKUJ_clean_linker_0, # of connection points: 2
#     Edge 22, Type (0, 1), BuildingBlock: MIFKUJ_clean_linker_0, # of connection points: 2
#     Edge 23, Type (0, 1), BuildingBlock: MIFKUJ_clean_linker_0, # of connection points: 2
#     Edge 24, Type (0, 1), BuildingBlock: MIFKUJ_clean_linker_0, # of connection points: 2
#     Edge 25, Type (0, 1), BuildingBlock: MIFKUJ_clean_linker_0, # of connection points: 2
#     Edge 26, Type (0, 1), BuildingBlock: MIFKUJ_clean_linker_0, # of connection points: 2
#     Edge 27, Type (0, 1), BuildingBlock: MIFKUJ_clean_linker_0, # of connection points: 2
#     Edge 28, Type (0, 1), BuildingBlock: MIFKUJ_clean_linker_0, # of connection points: 2
#     Edge 29, Type (0, 1), BuildingBlock: MIFKUJ_clean_linker_0, # of connection points: 2
#     Edge 30, Type (0, 1), BuildingBlock: MIFKUJ_clean_linker_0, # of connection points: 2
#     Edge 31, Type (0, 1), BuildingBlock: MIFKUJ_clean_linker_0, # of connection points: 2
#     Edge 32, Type (0, 1), BuildingBlock: MIFKUJ_clean_linker_0, # of connection points: 2
#     Edge 33, Type (0, 1), BuildingBlock: MIFKUJ_clean_linker_0, # of connection points: 2
#     Edge 34, Type (0, 1), BuildingBlock: MIFKUJ_clean_linker_0, # of connection points: 2
#     Edge 35, Type (0, 1), BuildingBlock: MIFKUJ_clean_linker_0, # of connection points: 2
# Relax obj value: 0.214
# Max RMSD: 0.230
# Mean RMSD: 0.186
data_MOF--net-zzz--node1-CUKXOW_clean_sbu_0--node2-ESEHIV_clean_linker_0--edge1-MIFKUJ_clean_linker_0
_symmetry_space_group_name_H-M    P1
_symmetry_Int_Tables_number       1
_symmetry_cell_setting            triclinic
loop_
_symmetry_equiv_pos_as_xyz
'x, y, z'
_cell_length_a     59.343601
_cell_length_b     57.945154
_cell_length_c     20.774289
_cell_angle_alpha  92.568193
_cell_angle_beta   88.201224
_cell_angle_gamma 95.398605
loop_
_atom_site_label
_atom_site_type_symbol
_atom_site_fract_x
_atom_site_fract_y
_atom_site_fract_z
_atom_type_partial_charge
H0 H 0.80072 0.42691 0.12827 0.0
H1 H 0.74873 0.42579 0.98948 0.0
H2 H 0.73603 0.4506 0.18452 0.0
C3 C 0.78333 0.42915 0.11744 0.0
C4 C 0.76909 0.43838 0.16533 0.0
C5 C 0.77615 0.42447 0.05424 0.0
C6 C 0.75425 0.42889 0.03866 0.0
C7 C 0.73977 0.4383 0.08553 0.0
C8 C 0.74723 0.44317 0.14872 0.0
H9 H 0.89334 0.80542 0.1163 0.0
H10 H 0.9051 0.75051 0.97798 0.0
H11 H 0.90004 0.73703 0.18048 0.0
C12 C 0.89433 0.78706 0.10515 0.0
C13 C 0.89504 0.77193 0.15563 0.0
C14 C 0.89842 0.77961 0.04136 0.0
C15 C 0.90128 0.75619 0.02726 0.0
C16 C 0.90129 0.74053 0.07707 0.0
C17 C 0.89862 0.7486 0.14152 0.0
H18 H 0.7002 0.03067 0.21487 0.0
H19 H 0.74797 0.02876 0.05601 0.0
H20 H 0.77053 0.02623 0.25094 0.0
C21 C 0.71746 0.02987 0.19673 0.0
C22 C 0.73477 0.02854 0.24036 0.0
C23 C 0.722 0.02977 0.13029 0.0
C24 C 0.7444 0.02916 0.10752 0.0
C25 C 0.76213 0.02813 0.15051 0.0
C26 C 0.75713 0.0273 0.21724 0.0
H27 H 0.60617 0.69789 0.15089 0.0
H28 H 0.60339 0.76842 0.22145 0.0
H29 H 0.59074 0.74958 0.0217 0.0
C30 C 0.60469 0.71594 0.14135 0.0
C31 C 0.59864 0.72179 0.08007 0.0
C32 C 0.60646 0.73257 0.19244 0.0
C33 C 0.60265 0.75563 0.18167 0.0
C34 C 0.59775 0.76205 0.11936 0.0
C35 C 0.59567 0.74498 0.06896 0.0
H36 H 0.21166 0.56325 0.2445 0.0
H37 H 0.26099 0.55503 0.38635 0.0
H38 H 0.27538 0.53793 0.18643 0.0
C39 C 0.22857 0.55953 0.25637 0.0
C40 C 0.24307 0.55149 0.20728 0.0
C41 C 0.23476 0.56072 0.32113 0.0
C42 C 0.25602 0.55421 0.33645 0.0
C43 C 0.27071 0.54596 0.28828 0.0
C44 C 0.26428 0.54477 0.22354 0.0
H45 H 0.11824 0.20944 0.27789 0.0
H46 H 0.11034 0.26667 0.41254 0.0
H47 H 0.11471 0.27757 0.20855 0.0
C48 C 0.11804 0.22793 0.2881 0.0
C49 C 0.11823 0.24269 0.23643 0.0
C50 C 0.11471 0.23628 0.35171 0.0
C51 C 0.11319 0.26011 0.36355 0.0
C52 C 0.11341 0.27523 0.31234 0.0
C53 C 0.11559 0.26632 0.24854 0.0
H54 H 0.3129 0.01848 0.17965 0.0
H55 H 0.26558 0.01281 0.33967 0.0
H56 H 0.24228 0.02223 0.14813 0.0
C57 C 0.29565 0.01824 0.19881 0.0
C58 C 0.27817 0.02095 0.15711 0.0
C59 C 0.29124 0.01493 0.26433 0.0
C60 C 0.26895 0.01509 0.28868 0.0
C61 C 0.251 0.0177 0.24737 0.0
C62 C 0.2558 0.02065 0.18106 0.0
H63 H 0.39769 0.2971 0.21358 0.0
H64 H 0.40099 0.22662 0.14303 0.0
H65 H 0.39609 0.24255 0.34728 0.0
C66 C 0.39674 0.27876 0.22283 0.0
C67 C 0.39615 0.27175 0.28674 0.0
C68 C 0.39835 0.26269 0.17061 0.0
C69 C 0.39917 0.2391 0.18285 0.0
C70 C 0.39784 0.23166 0.2466 0.0
C71 C 0.39619 0.24808 0.29809 0.0
Tb72 Tb 0.98949 0.99587 0.63793 0.0
C73 C 0.04105 0.01284 0.6079 0.0
Tb74 Tb 0.01861 0.0242 0.74569 0.0
O75 O 0.99007 0.02557 0.57585 0.0
O76 O 0.9956 0.03024 0.6742 0.0
O77 O 0.02311 0.99852 0.59135 0.0
C78 C 0.03929 0.05851 0.81803 0.0
O79 O 0.04211 0.02553 0.66279 0.0
C80 C 0.0114 0.97923 0.76121 0.0
C81 C 0.9662 0.01097 0.77224 0.0
O82 O 0.04893 0.04083 0.79291 0.0
O83 O 0.0182 0.05678 0.80234 0.0
O84 O 0.01826 0.99408 0.8069 0.0
O85 O 0.01226 0.98988 0.70958 0.0
O86 O 0.98486 0.024 0.78937 0.0
O87 O 0.9645 0.99811 0.71752 0.0
C88 C 0.97185 0.95965 0.56667 0.0
O89 O 0.96241 0.97891 0.57772 0.0
O90 O 0.99073 0.96073 0.59691 0.0
C91 C 0.99647 0.04055 0.62188 0.0
Tb92 Tb 0.50138 0.02295 0.64335 0.0
C93 C 0.54545 0.99847 0.62198 0.0
Tb94 Tb 0.50951 0.98261 0.73078 0.0
O95 O 0.52685 0.04738 0.68974 0.0
O96 O 0.51148 0.01935 0.7385 0.0
O97 O 0.52953 0.00825 0.59215 0.0
C98 C 0.52453 0.95259 0.80956 0.0
O99 O 0.54204 0.98969 0.67983 0.0
C100 C 0.48207 0.97268 0.63438 0.0
C101 C 0.46541 0.00777 0.75565 0.0
O102 O 0.52047 0.94853 0.74889 0.0
O103 O 0.52017 0.97362 0.82598 0.0
O104 O 0.48055 0.96188 0.688 0.0
O105 O 0.49967 0.98653 0.63507 0.0
O106 O 0.47965 0.99449 0.78102 0.0
O107 O 0.47015 0.01903 0.70186 0.0
C108 C 0.48174 0.04791 0.55953 0.0
O109 O 0.47132 0.03426 0.60061 0.0
O110 O 0.50342 0.04768 0.56552 0.0
C111 C 0.52757 0.03513 0.74036 0.0
Tb112 Tb 0.52404 0.50933 0.62093 0.0
C113 C 0.47193 0.49806 0.59882 0.0
Tb114 Tb 0.49673 0.47127 0.70244 0.0
O115 O 0.51916 0.48746 0.53256 0.0
O116 O 0.51924 0.47288 0.62166 0.0
O117 O 0.48964 0.51378 0.5946 0.0
C118 C 0.47466 0.43156 0.73977 0.0
O119 O 0.47182 0.47921 0.63317 0.0
C120 C 0.50501 0.51198 0.76166 0.0
C121 C 0.54842 0.48335 0.72759 0.0
O122 O 0.46821 0.45214 0.75273 0.0
O123 O 0.49351 0.43346 0.70632 0.0
O124 O 0.5002 0.49291 0.79204 0.0
O125 O 0.50198 0.50776 0.70242 0.0
O126 O 0.53096 0.46728 0.73105 0.0
O127 O 0.54846 0.50216 0.693 0.0
C128 C 0.54546 0.54806 0.57551 0.0
O129 O 0.55384 0.52811 0.57552 0.0
O130 O 0.52522 0.54615 0.60127 0.0
C131 C 0.51555 0.46833 0.56308 0.0
Tb132 Tb 0.98205 0.50417 0.64818 0.0
C133 C 0.01972 0.47002 0.6189 0.0
Tb134 Tb 0.02257 0.50609 0.74027 0.0
O135 O 0.00426 0.51829 0.57121 0.0
O136 O 0.01166 0.52658 0.66776 0.0
O137 O 0.99861 0.47449 0.60793 0.0
C138 C 0.06353 0.51144 0.79212 0.0
O139 O 0.03211 0.48095 0.66524 0.0
C140 C 0.9862 0.48059 0.77741 0.0
C141 C 0.98584 0.54095 0.76646 0.0
O142 O 0.05971 0.50942 0.7309 0.0
O143 O 0.04433 0.51046 0.82391 0.0
O144 O 0.00198 0.48842 0.81649 0.0
O145 O 0.99313 0.48398 0.72061 0.0
O146 O 0.00767 0.53788 0.77058 0.0
O147 O 0.97222 0.52811 0.72649 0.0
C148 C 0.94152 0.49873 0.59444 0.0
O149 O 0.95742 0.51494 0.58175 0.0
O150 O 0.94847 0.48544 0.63676 0.0
C151 C 0.01902 0.52849 0.61051 0.0
H152 H 0.23109 0.98889 0.33784 0.0
H153 H 0.19346 0.98937 0.38764 0.0
H154 H 0.17911 0.04405 0.26503 0.0
H155 H 0.21738 0.04455 0.21718 0.0
H156 H 0.16574 0.05406 0.38253 0.0
H157 H 0.15479 0.98727 0.24146 0.0
H158 H 0.16301 0.94965 0.19027 0.0
H159 H 0.1548 0.91798 0.3735 0.0
H160 H 0.14683 0.95549 0.42599 0.0
H161 H 0.04395 0.99671 0.48196 0.0
H162 H 0.07703 0.00018 0.40869 0.0
H163 H 0.11638 0.03627 0.55961 0.0
H164 H 0.08328 0.03395 0.63173 0.0
H165 H 0.11452 0.98246 0.41333 0.0
H166 H 0.15054 0.0653 0.52914 0.0
H167 H 0.14226 0.10511 0.5633 0.0
H168 H 0.09928 0.10702 0.40158 0.0
H169 H 0.10605 0.0667 0.36936 0.0
C170 C 0.22002 0.00116 0.32165 0.0
C171 C 0.22737 0.01684 0.27386 0.0
C172 C 0.19835 0.00118 0.3496 0.0
C173 C 0.18331 0.01656 0.32962 0.0
C174 C 0.1904 0.03198 0.28113 0.0
C175 C 0.21221 0.03211 0.25342 0.0
C176 C 0.16062 0.01719 0.36166 0.0
C177 C 0.15448 0.03839 0.38875 0.0
C178 C 0.14567 0.99689 0.3691 0.0
C179 C 0.15036 0.97425 0.33772 0.0
C180 C 0.15488 0.97232 0.27092 0.0
C181 C 0.15948 0.95101 0.24166 0.0
C182 C 0.15947 0.93145 0.27863 0.0
C183 C 0.15481 0.93315 0.34493 0.0
C184 C 0.15022 0.95443 0.37445 0.0
C185 C 0.0596 0.00563 0.49932 0.0
C186 C 0.06092 0.01507 0.56278 0.0
C187 C 0.07851 0.00766 0.45728 0.0
C188 C 0.09916 0.01907 0.47782 0.0
C189 C 0.10049 0.02836 0.54131 0.0
C190 C 0.08154 0.02666 0.58302 0.0
C191 C 0.1198 0.01927 0.43516 0.0
C192 C 0.12563 0.99816 0.40635 0.0
C193 C 0.13424 0.03971 0.42476 0.0
C194 C 0.12836 0.06291 0.44787 0.0
C195 C 0.13889 0.07408 0.50192 0.0
C196 C 0.13435 0.09666 0.52114 0.0
C197 C 0.11991 0.10847 0.48532 0.0
C198 C 0.10995 0.09768 0.43033 0.0
C199 C 0.11387 0.07485 0.41212 0.0
H200 H 0.11663 0.12604 0.49979 0.0
H201 H 0.16304 0.91497 0.25588 0.0
H202 H 0.43098 0.20517 0.20157 0.0
H203 H 0.43994 0.16831 0.24241 0.0
H204 H 0.37991 0.16634 0.36568 0.0
H205 H 0.37135 0.20364 0.32621 0.0
H206 H 0.41366 0.16109 0.43417 0.0
H207 H 0.38676 0.12257 0.24097 0.0
H208 H 0.38202 0.1162 0.12375 0.0
H209 H 0.45355 0.11184 0.09678 0.0
H210 H 0.45867 0.11796 0.21389 0.0
H211 H 0.43751 0.05578 0.56389 0.0
H212 H 0.41897 0.08233 0.49974 0.0
H213 H 0.48148 0.09907 0.39343 0.0
H214 H 0.50045 0.07286 0.45924 0.0
H215 H 0.44236 0.09335 0.31443 0.0
H216 H 0.46738 0.13415 0.51348 0.0
H217 H 0.46942 0.13886 0.63182 0.0
H218 H 0.39698 0.13752 0.64764 0.0
H219 H 0.39452 0.13254 0.52938 0.0
C220 C 0.41936 0.1965 0.23593 0.0
C221 C 0.40054 0.20726 0.26098 0.0
C222 C 0.42444 0.17536 0.25918 0.0
C223 C 0.41057 0.1644 0.30712 0.0
C224 C 0.39094 0.17446 0.32897 0.0
C225 C 0.38603 0.19573 0.30637 0.0
C226 C 0.41816 0.14437 0.34035 0.0
C227 C 0.41943 0.14606 0.4078 0.0
C228 C 0.42607 0.12485 0.30638 0.0
C229 C 0.42311 0.1209 0.23606 0.0
C230 C 0.40148 0.12032 0.20996 0.0
C231 C 0.39871 0.11666 0.14359 0.0
C232 C 0.41747 0.11361 0.10283 0.0
C233 C 0.43902 0.1141 0.12841 0.0
C234 C 0.44185 0.11755 0.19481 0.0
C235 C 0.44725 0.06491 0.52632 0.0
C236 C 0.47042 0.06244 0.51663 0.0
C237 C 0.43657 0.07994 0.4894 0.0
C238 C 0.44877 0.09256 0.44156 0.0
C239 C 0.47174 0.08938 0.42992 0.0
C240 C 0.48257 0.07456 0.46766 0.0
C241 C 0.43803 0.11043 0.40756 0.0
C242 C 0.43626 0.1083 0.34032 0.0
C243 C 0.42923 0.12939 0.44175 0.0
C244 C 0.43075 0.13273 0.51272 0.0
C245 C 0.45189 0.13471 0.54225 0.0
C246 C 0.45312 0.13745 0.60929 0.0
C247 C 0.43334 0.13842 0.64724 0.0
C248 C 0.41229 0.13673 0.6182 0.0
C249 C 0.41096 0.13397 0.55118 0.0
H250 H 0.43433 0.14053 0.69914 0.0
H251 H 0.41531 0.11086 0.05143 0.0
H252 H 0.31396 0.55929 0.24636 0.0
H253 H 0.34916 0.54852 0.29115 0.0
H254 H 0.31017 0.50205 0.41814 0.0
H255 H 0.2752 0.51326 0.37476 0.0
H256 H 0.33911 0.52887 0.48431 0.0
H257 H 0.34306 0.48245 0.2884 0.0
H258 H 0.34334 0.47431 0.17088 0.0
H259 H 0.40263 0.52207 0.14859 0.0
H260 H 0.40253 0.53076 0.26595 0.0
H261 H 0.42987 0.47431 0.60773 0.0
H262 H 0.39638 0.48033 0.5471 0.0
H263 H 0.43461 0.53491 0.44505 0.0
H264 H 0.46815 0.52917 0.50553 0.0
H265 H 0.40685 0.50372 0.36475 0.0
H266 H 0.40166 0.55039 0.56166 0.0
H267 H 0.40129 0.55754 0.67958 0.0
H268 H 0.34357 0.50756 0.69932 0.0
H269 H 0.34381 0.49987 0.5815 0.0
C270 C 0.31305 0.54647 0.28297 0.0
C271 C 0.29199 0.53721 0.30759 0.0
C272 C 0.33311 0.54029 0.30847 0.0
C273 C 0.33232 0.52446 0.3581 0.0
C274 C 0.31122 0.51441 0.38029 0.0
C275 C 0.29127 0.52077 0.35544 0.0
C276 C 0.35319 0.51965 0.39072 0.0
C277 C 0.35375 0.523 0.45807 0.0
C278 C 0.37257 0.51258 0.35653 0.0
C279 C 0.37264 0.50744 0.28592 0.0
C280 C 0.35604 0.49138 0.25839 0.0
C281 C 0.35619 0.48663 0.19181 0.0
C282 C 0.37295 0.49772 0.15227 0.0
C283 C 0.38964 0.51353 0.17926 0.0
C284 C 0.38955 0.51836 0.24582 0.0
C285 C 0.43119 0.4876 0.5724 0.0
C286 C 0.45162 0.50144 0.56204 0.0
C287 C 0.41204 0.49098 0.53776 0.0
C288 C 0.41305 0.50814 0.4919 0.0
C289 C 0.43353 0.52158 0.48024 0.0
C290 C 0.45262 0.51837 0.51527 0.0
C291 C 0.39247 0.51269 0.45792 0.0
C292 C 0.39207 0.50944 0.3906 0.0
C293 C 0.37313 0.51971 0.49203 0.0
C294 C 0.37291 0.52437 0.56285 0.0
C295 C 0.38901 0.54078 0.5912 0.0
C296 C 0.38881 0.54496 0.658 0.0
C297 C 0.37246 0.53296 0.69694 0.0
C298 C 0.35625 0.51681 0.66911 0.0
C299 C 0.3564 0.51254 0.60232 0.0
H300 H 0.37232 0.53623 0.74865 0.0
H301 H 0.37304 0.49401 0.10074 0.0
H302 H 0.08151 0.29867 0.25809 0.0
H303 H 0.06788 0.33539 0.29809 0.0
H304 H 0.11995 0.3429 0.43993 0.0
H305 H 0.1334 0.30608 0.40058 0.0
H306 H 0.07975 0.34492 0.49536 0.0
H307 H 0.11923 0.38052 0.31589 0.0
H308 H 0.13038 0.38625 0.20199 0.0
H309 H 0.06165 0.39563 0.15869 0.0
H310 H 0.05 0.38961 0.27221 0.0
H311 H 0.0612 0.45434 0.63231 0.0
H312 H 0.07821 0.42395 0.56851 0.0
H313 H 0.01935 0.41398 0.45041 0.0
H314 H 0.00199 0.44463 0.5142 0.0
H315 H 0.06182 0.41371 0.37966 0.0
H316 H 0.02279 0.37726 0.56008 0.0
H317 H 0.01253 0.37298 0.67515 0.0
H318 H 0.08194 0.36591 0.71633 0.0
H319 H 0.09268 0.3705 0.60158 0.0
C320 C 0.09048 0.30856 0.29641 0.0
C321 C 0.10842 0.29953 0.32656 0.0
C322 C 0.08267 0.32953 0.31928 0.0
C323 C 0.09285 0.34187 0.37218 0.0
C324 C 0.11176 0.3336 0.39933 0.0
C325 C 0.11945 0.31262 0.37681 0.0
C326 C 0.0822 0.36165 0.4044 0.0
C327 C 0.0762 0.36011 0.47009 0.0
C328 C 0.07682 0.38112 0.37105 0.0
C329 C 0.0837 0.38435 0.30249 0.0
C330 C 0.10644 0.38354 0.28197 0.0
C331 C 0.11286 0.38691 0.21749 0.0
C332 C 0.09673 0.39125 0.17309 0.0
C333 C 0.07412 0.39223 0.19311 0.0
C334 C 0.06761 0.38886 0.25753 0.0
C335 C 0.05178 0.44581 0.59275 0.0
C336 C 0.03007 0.4518 0.57888 0.0
C337 C 0.0616 0.42844 0.55625 0.0
C338 C 0.04996 0.41664 0.50515 0.0
C339 C 0.02858 0.42294 0.48974 0.0
C340 C 0.01864 0.44032 0.52652 0.0
C341 C 0.05982 0.39696 0.47034 0.0
C342 C 0.06548 0.39847 0.40447 0.0
C343 C 0.06502 0.37742 0.50336 0.0
C344 C 0.05857 0.37443 0.57232 0.0
C345 C 0.0359 0.37497 0.59375 0.0
C346 C 0.02999 0.37246 0.6589 0.0
C347 C 0.04658 0.36923 0.70304 0.0
C348 C 0.06911 0.36844 0.68208 0.0
C349 C 0.07511 0.37097 0.61699 0.0
H350 H 0.04197 0.3673 0.75347 0.0
H351 H 0.10174 0.39391 0.12323 0.0
H352 H 0.78294 0.05551 0.0593 0.0
H353 H 0.81943 0.05161 0.00473 0.0
H354 H 0.8313 0.99629 0.12817 0.0
H355 H 0.79423 0.99967 0.1819 0.0
H356 H 0.86192 0.05579 0.038 0.0
H357 H 0.85944 0.95611 0.03665 0.0
H358 H 0.83151 0.92188 0.04361 0.0
H359 H 0.78101 0.95994 0.96423 0.0
H360 H 0.80871 0.99425 0.95601 0.0
H361 H 0.96547 0.0253 0.89908 0.0
H362 H 0.93267 0.02662 0.9723 0.0
H363 H 0.88901 0.9984 0.82026 0.0
H364 H 0.92193 0.99632 0.74698 0.0
H365 H 0.87535 0.97997 0.93009 0.0
H366 H 0.89577 0.05745 0.86042 0.0
H367 H 0.92158 0.09267 0.84301 0.0
H368 H 0.93215 0.10109 0.04657 0.0
H369 H 0.90661 0.06574 0.06509 0.0
C370 C 0.79335 0.04256 0.07501 0.0
C371 C 0.78561 0.02766 0.12422 0.0
C372 C 0.81428 0.04046 0.0441 0.0
C373 C 0.82796 0.02345 0.06171 0.0
C374 C 0.82085 0.00932 0.11319 0.0
C375 C 0.79979 0.01139 0.1442 0.0
C376 C 0.84904 0.01999 0.02359 0.0
C377 C 0.86495 0.03916 0.01491 0.0
C378 C 0.85281 0.99839 0.99244 0.0
C379 C 0.83607 0.9778 0.99652 0.0
C380 C 0.84239 0.95713 0.02057 0.0
C381 C 0.8266 0.93772 0.02472 0.0
C382 C 0.80447 0.93876 0.00462 0.0
C383 C 0.79812 0.95918 0.98004 0.0
C384 C 0.81385 0.97862 0.97568 0.0
C385 C 0.9489 0.01934 0.88108 0.0
C386 C 0.94627 0.01102 0.81685 0.0
C387 C 0.93015 0.02012 0.92311 0.0
C388 C 0.90832 0.01303 0.90149 0.0
C389 C 0.9057 0.00403 0.83796 0.0
C390 C 0.92452 0.00295 0.79604 0.0
C391 C 0.88818 0.01581 0.94434 0.0
C392 C 0.87248 0.99652 0.95394 0.0
C393 C 0.88428 0.03746 0.97503 0.0
C394 C 0.89946 0.05883 0.96406 0.0
C395 C 0.90371 0.06674 0.90141 0.0
C396 C 0.91827 0.08673 0.89135 0.0
C397 C 0.92854 0.09907 0.94363 0.0
C398 C 0.92421 0.09149 0.00612 0.0
C399 C 0.90968 0.07149 0.01643 0.0
H400 H 0.93982 0.11454 0.93574 0.0
H401 H 0.79227 0.92373 0.00793 0.0
H402 H 0.61663 0.78946 0.0254 0.0
H403 H 0.6048 0.82661 0.99383 0.0
H404 H 0.55555 0.82536 0.15111 0.0
H405 H 0.56754 0.7882 0.18327 0.0
H406 H 0.53732 0.83101 0.03144 0.0
H407 H 0.59805 0.86543 0.15813 0.0
H408 H 0.63712 0.87149 0.19663 0.0
H409 H 0.6613 0.89053 0.0076 0.0
H410 H 0.62242 0.88426 0.96766 0.0
H411 H 0.53528 0.95951 0.93637 0.0
H412 H 0.5475 0.93079 0.00836 0.0
H413 H 0.5433 0.87908 0.85223 0.0
H414 H 0.53115 0.90757 0.78042 0.0
H415 H 0.58573 0.90405 0.99448 0.0
H416 H 0.52012 0.82852 0.91619 0.0
H417 H 0.48093 0.82283 0.87829 0.0
H418 H 0.46606 0.88678 0.97574 0.0
H419 H 0.50505 0.89267 0.01501 0.0
C420 C 0.60361 0.79738 0.05396 0.0
C421 C 0.59298 0.78604 0.10671 0.0
C422 C 0.59692 0.81861 0.03609 0.0
C423 C 0.57935 0.82876 0.07026 0.0
C424 C 0.56921 0.81784 0.12432 0.0
C425 C 0.57614 0.79673 0.14282 0.0
C426 C 0.57017 0.84944 0.04527 0.0
C427 C 0.54784 0.84706 0.02392 0.0
C428 C 0.58385 0.87044 0.03601 0.0
C429 C 0.6073 0.8742 0.05979 0.0
C430 C 0.61171 0.87071 0.1246 0.0
C431 C 0.63383 0.87423 0.14672 0.0
C432 C 0.65169 0.88135 0.10456 0.0
C433 C 0.64746 0.88501 0.0402 0.0
C434 C 0.62537 0.8815 0.01782 0.0
C435 C 0.53693 0.94198 0.91764 0.0
C436 C 0.53219 0.93567 0.85303 0.0
C437 C 0.54394 0.92566 0.95867 0.0
C438 C 0.5461 0.9028 0.93569 0.0
C439 C 0.54152 0.89658 0.87103 0.0
C440 C 0.53463 0.91286 0.83006 0.0
C441 C 0.55322 0.88523 0.97861 0.0
C442 C 0.57514 0.88814 0.00293 0.0
C443 C 0.53918 0.86469 0.99067 0.0
C444 C 0.51557 0.8611 0.96815 0.0
C445 C 0.50845 0.8413 0.92983 0.0
C446 C 0.48628 0.83805 0.90804 0.0
C447 C 0.47103 0.85446 0.92447 0.0
C448 C 0.47791 0.87412 0.96288 0.0
C449 C 0.50005 0.87744 0.98483 0.0
H450 H 0.45388 0.85193 0.90751 0.0
H451 H 0.6688 0.88407 0.12179 0.0
H452 H 0.70498 0.40876 0.0417 0.0
H453 H 0.67111 0.41896 0.9894 0.0
H454 H 0.69158 0.49164 0.02773 0.0
H455 H 0.72504 0.48127 0.08271 0.0
H456 H 0.6468 0.4847 0.03304 0.0
H457 H 0.70484 0.46528 0.88427 0.0
H458 H 0.73405 0.44191 0.83543 0.0
H459 H 0.6831 0.38655 0.78915 0.0
H460 H 0.6536 0.40941 0.83889 0.0
H461 H 0.5814 0.51672 0.76751 0.0
H462 H 0.61362 0.5117 0.83511 0.0
H463 H 0.59264 0.43852 0.84205 0.0
H464 H 0.56045 0.44335 0.77513 0.0
H465 H 0.63935 0.44958 0.81148 0.0
H466 H 0.58116 0.47311 0.96499 0.0
H467 H 0.55431 0.50019 0.00882 0.0
H468 H 0.60914 0.55309 0.03818 0.0
H469 H 0.63626 0.52651 0.99312 0.0
C470 C 0.70184 0.42685 0.04043 0.0
C471 C 0.71746 0.44427 0.06586 0.0
C472 C 0.68264 0.4327 0.01021 0.0
C473 C 0.67914 0.4561 0.0031 0.0
C474 C 0.69399 0.47349 0.03235 0.0
C475 C 0.71304 0.46759 0.06374 0.0
C476 C 0.66116 0.46222 0.96051 0.0
C477 C 0.64532 0.47723 0.98437 0.0
C478 C 0.65938 0.45274 0.8966 0.0
C479 C 0.67702 0.43899 0.86585 0.0
C480 C 0.69987 0.44806 0.86408 0.0
C481 C 0.71649 0.4349 0.83622 0.0
C482 C 0.71044 0.41274 0.80931 0.0
C483 C 0.68776 0.40371 0.81009 0.0
C484 C 0.67108 0.41676 0.8381 0.0
C485 C 0.58376 0.49954 0.78311 0.0
C486 C 0.56843 0.48041 0.76591 0.0
C487 C 0.60206 0.49675 0.82202 0.0
C488 C 0.60537 0.47477 0.84378 0.0
C489 C 0.59031 0.45563 0.82579 0.0
C490 C 0.57192 0.45843 0.78766 0.0
C491 C 0.62464 0.4714 0.88472 0.0
C492 C 0.64088 0.45704 0.86018 0.0
C493 C 0.62707 0.48204 0.94711 0.0
C494 C 0.61072 0.49789 0.9749 0.0
C495 C 0.58747 0.49059 0.98015 0.0
C496 C 0.5722 0.50586 0.00527 0.0
C497 C 0.57999 0.5284 0.02597 0.0
C498 C 0.6031 0.53568 0.02185 0.0
C499 C 0.61842 0.52052 0.99652 0.0
H500 H 0.56815 0.54021 0.04538 0.0
H501 H 0.72333 0.40259 0.78774 0.0
H502 H 0.8811 0.70924 0.99036 0.0
H503 H 0.89444 0.67215 0.95184 0.0
H504 H 0.94863 0.68163 0.08684 0.0
H505 H 0.93516 0.71862 0.12606 0.0
H506 H 0.96249 0.67395 0.95587 0.0
H507 H 0.91008 0.6401 0.11242 0.0
H508 H 0.87312 0.63272 0.1689 0.0
H509 H 0.84349 0.60465 0.99292 0.0
H510 H 0.88021 0.61217 0.9351 0.0
H511 H 0.00646 0.56778 0.86336 0.0
H512 H 0.99111 0.59918 0.92798 0.0
H513 H 0.92899 0.58855 0.8237 0.0
H514 H 0.94397 0.55673 0.7599 0.0
H515 H 0.91994 0.596 0.94818 0.0
H516 H 0.96974 0.63272 0.78913 0.0
H517 H 0.00569 0.64084 0.72797 0.0
H518 H 0.03892 0.66476 0.90249 0.0
H519 H 0.00321 0.65646 0.96486 0.0
C520 C 0.89555 0.7031 0.01268 0.0
C521 C 0.90709 0.71665 0.0612 0.0
C522 C 0.90311 0.68196 0.99083 0.0
C523 C 0.92248 0.6742 0.01665 0.0
C524 C 0.9336 0.68733 0.06659 0.0
C525 C 0.92583 0.70833 0.08916 0.0
C526 C 0.93225 0.65354 0.98714 0.0
C527 C 0.95342 0.65678 0.95527 0.0
C528 C 0.92001 0.6314 0.98473 0.0
C529 C 0.89787 0.6269 0.01929 0.0
C530 C 0.89564 0.63256 0.0856 0.0
C531 C 0.87474 0.6283 0.1179 0.0
C532 C 0.85596 0.61828 0.08449 0.0
C533 C 0.85805 0.61244 0.01872 0.0
C534 C 0.87891 0.61667 0.98618 0.0
C535 C 0.98952 0.5721 0.85411 0.0
C536 C 0.97652 0.55987 0.80602 0.0
C537 C 0.98079 0.59008 0.89108 0.0
C538 C 0.95902 0.59643 0.88008 0.0
C539 C 0.94584 0.58396 0.833 0.0
C540 C 0.95448 0.56584 0.79635 0.0
C541 C 0.95017 0.61641 0.91654 0.0
C542 C 0.92915 0.61309 0.9494 0.0
C543 C 0.96239 0.63861 0.91915 0.0
C544 C 0.98387 0.64372 0.88175 0.0
C545 C 0.98476 0.63954 0.81453 0.0
C546 C 0.00508 0.6442 0.77964 0.0
C547 C 0.02459 0.65324 0.81135 0.0
C548 C 0.0238 0.65771 0.87801 0.0
C549 C 0.00352 0.65304 0.91315 0.0
H550 H 0.04031 0.65683 0.78425 0.0
H551 H 0.83979 0.61498 0.10959 0.0
H552 H 0.08096 0.23777 0.44382 0.0
H553 H 0.06511 0.20611 0.50926 0.0
H554 H 0.11764 0.16425 0.43795 0.0
H555 H 0.13401 0.19618 0.3732 0.0
H556 H 0.07695 0.14355 0.41404 0.0
H557 H 0.11374 0.17868 0.59456 0.0
H558 H 0.12703 0.20822 0.67717 0.0
H559 H 0.0584 0.21507 0.74122 0.0
H560 H 0.04463 0.18584 0.65823 0.0
H561 H 0.02992 0.06539 0.68984 0.0
H562 H 0.05236 0.10053 0.65805 0.0
H563 H 0.00903 0.10459 0.49655 0.0
H564 H 0.98757 0.06831 0.52634 0.0
H565 H 0.04917 0.14285 0.64157 0.0
H566 H 0.04017 0.12502 0.36433 0.0
H567 H 0.03264 0.09205 0.28647 0.0
H568 H 0.05492 0.04574 0.42157 0.0
H569 H 0.06313 0.0784 0.49982 0.0
C570 C 0.08978 0.22225 0.44405 0.0
C571 C 0.10869 0.21946 0.40282 0.0
C572 C 0.08059 0.20408 0.48141 0.0
C573 C 0.09013 0.1828 0.47824 0.0
C574 C 0.10998 0.18053 0.44088 0.0
C575 C 0.11927 0.19876 0.40382 0.0
C576 C 0.07751 0.16216 0.50606 0.0
C577 C 0.07102 0.14329 0.46397 0.0
C578 C 0.07006 0.16179 0.57133 0.0
C579 C 0.07812 0.18023 0.61944 0.0
C580 C 0.10143 0.18677 0.62542 0.0
C581 C 0.10906 0.20339 0.67258 0.0
C582 C 0.09357 0.21358 0.71428 0.0
C583 C 0.07039 0.20719 0.70882 0.0
C584 C 0.06266 0.19058 0.66171 0.0
C585 C 0.02496 0.07393 0.6484 0.0
C586 C 0.00724 0.06397 0.61026 0.0
C587 C 0.03782 0.09409 0.63005 0.0
C588 C 0.0328 0.10492 0.57382 0.0
C589 C 0.01372 0.09613 0.53895 0.0
C590 C 0.00137 0.07553 0.5562 0.0
C591 C 0.04843 0.12429 0.54941 0.0
C592 C 0.0553 0.143 0.59186 0.0
C593 C 0.05694 0.12416 0.48488 0.0
C594 C 0.05195 0.1042 0.4384 0.0
C595 C 0.04352 0.10781 0.37747 0.0
C596 C 0.03917 0.08916 0.33321 0.0
C597 C 0.04322 0.06679 0.34922 0.0
C598 C 0.05169 0.06304 0.40945 0.0
C599 C 0.05615 0.08162 0.45384 0.0
H600 H 0.03984 0.05236 0.3149 0.0
H601 H 0.09952 0.22637 0.75094 0.0
H602 H 0.30128 0.03388 0.38471 0.0
H603 H 0.33359 0.02694 0.44998 0.0
H604 H 0.35595 0.9792 0.30131 0.0
H605 H 0.32354 0.98546 0.23723 0.0
H606 H 0.35772 0.96176 0.41696 0.0
H607 H 0.38868 0.03404 0.31767 0.0
H608 H 0.38635 0.07456 0.28802 0.0
H609 H 0.372 0.09408 0.48583 0.0
H610 H 0.37461 0.05373 0.51663 0.0
H611 H 0.48244 0.99249 0.51811 0.0
H612 H 0.44955 0.00017 0.45647 0.0
H613 H 0.40503 0.96732 0.60055 0.0
H614 H 0.43778 0.95948 0.66177 0.0
H615 H 0.41441 0.02562 0.48722 0.0
H616 H 0.35969 0.93904 0.52706 0.0
H617 H 0.36475 0.89799 0.5442 0.0
H618 H 0.42952 0.90536 0.44547 0.0
H619 H 0.42472 0.94633 0.42701 0.0
C620 C 0.31301 0.02176 0.36643 0.0
C621 C 0.31002 0.01034 0.30578 0.0
C622 C 0.33155 0.01801 0.40331 0.0
C623 C 0.34731 0.0028 0.37997 0.0
C624 C 0.34405 0.99108 0.32005 0.0
C625 C 0.32561 0.99479 0.28336 0.0
C626 C 0.36706 0.99861 0.418 0.0
C627 C 0.37005 0.97573 0.43274 0.0
C628 C 0.38332 0.01677 0.43741 0.0
C629 C 0.38177 0.04097 0.41933 0.0
C630 C 0.38501 0.04702 0.35473 0.0
C631 C 0.38369 0.06993 0.33777 0.0
C632 C 0.37897 0.08687 0.385 0.0
C633 C 0.3756 0.08094 0.44928 0.0
C634 C 0.37712 0.05809 0.46658 0.0
C635 C 0.46561 0.98668 0.536 0.0
C636 C 0.46257 0.97527 0.59425 0.0
C637 C 0.44688 0.99124 0.50118 0.0
C638 C 0.42488 0.98423 0.52385 0.0
C639 C 0.42187 0.97264 0.58184 0.0
C640 C 0.44058 0.96806 0.61656 0.0
C641 C 0.40503 0.98873 0.48652 0.0
C642 C 0.402 0.01166 0.47204 0.0
C643 C 0.38897 0.9705 0.46599 0.0
C644 C 0.39193 0.94581 0.47632 0.0
C645 C 0.37498 0.93187 0.50886 0.0
C646 C 0.37781 0.90862 0.51882 0.0
C647 C 0.39748 0.8991 0.49614 0.0
C648 C 0.41433 0.91278 0.46325 0.0
C649 C 0.41158 0.93602 0.45311 0.0
H650 H 0.39964 0.8811 0.50393 0.0
H651 H 0.37798 0.1046 0.37181 0.0
H652 H 0.42393 0.27238 0.38965 0.0
H653 H 0.4363 0.30608 0.45868 0.0
H654 H 0.38825 0.34575 0.37204 0.0
H655 H 0.37534 0.31193 0.30378 0.0
H656 H 0.4336 0.36042 0.34705 0.0
H657 H 0.38517 0.34026 0.52634 0.0
H658 H 0.36715 0.318 0.61546 0.0
H659 H 0.43159 0.31722 0.70317 0.0
H660 H 0.45018 0.33886 0.61368 0.0
H661 H 0.48164 0.46741 0.47824 0.0
H662 H 0.45506 0.4343 0.44736 0.0
H663 H 0.49086 0.39012 0.56232 0.0
H664 H 0.5168 0.42367 0.59583 0.0
H665 H 0.4478 0.37932 0.57814 0.0
H666 H 0.497 0.39157 0.39172 0.0
H667 H 0.51648 0.41397 0.30469 0.0
H668 H 0.45234 0.42781 0.23223 0.0
H669 H 0.43249 0.40571 0.31931 0.0
C670 C 0.41521 0.28791 0.38731 0.0
C671 C 0.39894 0.28962 0.34027 0.0
C672 C 0.42232 0.30719 0.42699 0.0
C673 C 0.4133 0.32843 0.42014 0.0
C674 C 0.39543 0.32949 0.378 0.0
C675 C 0.38821 0.31021 0.33865 0.0
C676 C 0.42591 0.35018 0.44435 0.0
C677 C 0.4363 0.36478 0.39777 0.0
C678 C 0.43015 0.35528 0.51039 0.0
C679 C 0.41916 0.34098 0.56244 0.0
C680 C 0.39562 0.33495 0.56379 0.0
C681 C 0.38527 0.3225 0.61464 0.0
C682 C 0.39822 0.31612 0.66482 0.0
C683 C 0.42158 0.32208 0.66413 0.0
C684 C 0.43204 0.33441 0.61325 0.0
C685 C 0.48391 0.45057 0.49637 0.0
C686 C 0.5012 0.44792 0.53921 0.0
C687 C 0.46873 0.43166 0.47878 0.0
C688 C 0.47112 0.40959 0.50172 0.0
C689 C 0.48862 0.40695 0.5441 0.0
C690 C 0.50349 0.42602 0.56286 0.0
C691 C 0.45565 0.3892 0.48071 0.0
C692 C 0.44488 0.37491 0.52759 0.0
C693 C 0.45136 0.38393 0.41484 0.0
C694 C 0.46328 0.3972 0.36239 0.0
C695 C 0.48707 0.39953 0.35747 0.0
C696 C 0.49817 0.41214 0.3081 0.0
C697 C 0.48566 0.42236 0.26306 0.0
C698 C 0.46201 0.41992 0.2672 0.0
C699 C 0.45082 0.40734 0.31651 0.0
H700 H 0.49428 0.43212 0.22487 0.0
H701 H 0.39015 0.30665 0.70439 0.0
H702 H 0.22632 0.53849 0.43388 0.0
H703 H 0.19298 0.54005 0.50474 0.0
H704 H 0.17035 0.59429 0.39422 0.0
H705 H 0.20424 0.59355 0.32431 0.0
H706 H 0.1558 0.59718 0.52516 0.0
H707 H 0.15628 0.54161 0.34421 0.0
H708 H 0.17184 0.51013 0.27803 0.0
H709 H 0.16498 0.46607 0.43966 0.0
H710 H 0.14977 0.4975 0.50715 0.0
H711 H 0.03714 0.52786 0.4897 0.0
H712 H 0.07603 0.53965 0.456 0.0
H713 H 0.09204 0.56073 0.65257 0.0
H714 H 0.05249 0.55006 0.68595 0.0
H715 H 0.11158 0.52091 0.4884 0.0
H716 H 0.13881 0.60169 0.64925 0.0
H717 H 0.12185 0.63449 0.70582 0.0
H718 H 0.06935 0.6303 0.56699 0.0
H719 H 0.08616 0.59769 0.50918 0.0
C720 C 0.21483 0.55149 0.42617 0.0
C721 C 0.21771 0.56561 0.3726 0.0
C722 C 0.19571 0.55229 0.46671 0.0
C723 C 0.17904 0.56696 0.45386 0.0
C724 C 0.183 0.58279 0.40474 0.0
C725 C 0.20222 0.58213 0.36436 0.0
C726 C 0.15599 0.56263 0.48251 0.0
C727 C 0.14612 0.58048 0.51778 0.0
C728 C 0.14329 0.54098 0.47155 0.0
C729 C 0.15216 0.52197 0.43089 0.0
C730 C 0.15826 0.52527 0.36575 0.0
C731 C 0.167 0.50744 0.328 0.0
C732 C 0.16945 0.48613 0.35468 0.0
C733 C 0.16312 0.4826 0.41912 0.0
C734 C 0.15445 0.50042 0.45715 0.0
C735 C 0.04885 0.53532 0.52562 0.0
C736 C 0.04201 0.53764 0.5906 0.0
C737 C 0.0711 0.54196 0.50637 0.0
C738 C 0.08701 0.5509 0.55177 0.0
C739 C 0.08003 0.554 0.6166 0.0
C740 C 0.05755 0.54768 0.63574 0.0
C741 C 0.11105 0.55552 0.53084 0.0
C742 C 0.12122 0.53758 0.49691 0.0
C743 C 0.12367 0.57725 0.54172 0.0
C744 C 0.11361 0.59709 0.57538 0.0
C745 C 0.12369 0.60783 0.6307 0.0
C746 C 0.1141 0.62638 0.66299 0.0
C747 C 0.09449 0.63442 0.64015 0.0
C748 C 0.08449 0.624 0.58479 0.0
C749 C 0.09402 0.60546 0.5523 0.0
H750 H 0.08707 0.64875 0.66527 0.0
H751 H 0.17621 0.47234 0.32537 0.0
H752 H 0.93774 0.78493 0.97215 0.0
H753 H 0.95306 0.81964 0.91694 0.0
H754 H 0.8899 0.84986 0.95118 0.0
H755 H 0.87456 0.81526 0.00823 0.0
H756 H 0.92098 0.84942 0.81025 0.0
H757 H 0.9125 0.87745 0.03324 0.0
H758 H 0.91499 0.8741 0.15077 0.0
H759 H 0.98608 0.86625 0.12872 0.0
H760 H 0.98392 0.8693 0.01088 0.0
H761 H 0.97176 0.9588 0.71008 0.0
H762 H 0.94784 0.92704 0.75337 0.0
H763 H 0.00192 0.91245 0.87599 0.0
H764 H 0.02388 0.94774 0.84187 0.0
H765 H 0.96926 0.90636 0.9428 0.0
H766 H 0.97482 0.87741 0.70965 0.0
H767 H 0.96778 0.87938 0.5935 0.0
H768 H 0.89812 0.88985 0.63664 0.0
H769 H 0.9047 0.88771 0.75267 0.0
C770 C 0.92686 0.79863 0.96608 0.0
C771 C 0.90493 0.79742 0.99389 0.0
C772 C 0.93572 0.81852 0.93535 0.0
C773 C 0.92268 0.83729 0.93131 0.0
C774 C 0.90021 0.83553 0.95472 0.0
C775 C 0.89144 0.81577 0.98657 0.0
C776 C 0.93314 0.85898 0.90467 0.0
C777 C 0.93148 0.86208 0.83892 0.0
C778 C 0.94662 0.87529 0.9426 0.0
C779 C 0.94798 0.87326 0.01325 0.0
C780 C 0.9286 0.87471 0.05339 0.0
C781 C 0.92996 0.87296 0.12007 0.0
C782 C 0.95066 0.86986 0.14717 0.0
C783 C 0.97005 0.86859 0.10765 0.0
C784 C 0.96877 0.87035 0.04093 0.0
C785 C 0.97846 0.94913 0.74679 0.0
C786 C 0.99948 0.95625 0.77371 0.0
C787 C 0.96489 0.93021 0.77053 0.0
C788 C 0.97292 0.9165 0.81752 0.0
C789 C 0.99486 0.92268 0.84059 0.0
C790 C 0.00766 0.94269 0.82035 0.0
C791 C 0.95838 0.89669 0.84589 0.0
C792 C 0.95911 0.89384 0.91289 0.0
C793 C 0.94371 0.88074 0.80902 0.0
C794 C 0.9403 0.8826 0.7395 0.0
C795 C 0.95807 0.88026 0.69419 0.0
C796 C 0.95413 0.88138 0.62845 0.0
C797 C 0.93252 0.88487 0.60795 0.0
C798 C 0.91482 0.8872 0.65276 0.0
C799 C 0.91862 0.88595 0.71833 0.0
H800 H 0.92927 0.88565 0.55747 0.0
H801 H 0.9517 0.86852 0.19878 0.0
H802 H 0.72046 0.05468 0.02151 0.0
H803 H 0.68839 0.05551 0.95041 0.0
H804 H 0.64872 0.00635 0.068 0.0
H805 H 0.68087 0.00466 0.13721 0.0
H806 H 0.64275 0.99548 0.94524 0.0
H807 H 0.64245 0.06513 0.08069 0.0
H808 H 0.65874 0.10239 0.12911 0.0
H809 H 0.66914 0.13 0.94096 0.0
H810 H 0.65318 0.09277 0.89135 0.0
H811 H 0.53068 0.0155 0.85627 0.0
H812 H 0.56518 0.01323 0.91718 0.0
H813 H 0.60353 0.05496 0.7776 0.0
H814 H 0.56941 0.0563 0.71535 0.0
H815 H 0.6113 0.06976 0.90582 0.0
H816 H 0.60843 0.00022 0.77195 0.0
H817 H 0.5944 0.96201 0.7248 0.0
H818 H 0.59062 0.93342 0.91188 0.0
H819 H 0.60395 0.97155 0.96095 0.0
C820 C 0.70498 0.04385 0.03162 0.0
C821 C 0.70309 0.02979 0.08531 0.0
C822 C 0.68662 0.04451 0.99141 0.0
C823 C 0.66606 0.03128 0.0046 0.0
C824 C 0.66438 0.0168 0.05715 0.0
C825 C 0.6827 0.01602 0.09701 0.0
C826 C 0.64613 0.03245 0.96416 0.0
C827 C 0.63565 0.01168 0.93731 0.0
C828 C 0.63731 0.05368 0.95253 0.0
C829 C 0.64685 0.07609 0.98229 0.0
C830 C 0.64838 0.07909 0.04962 0.0
C831 C 0.65752 0.10021 0.07728 0.0
C832 C 0.66503 0.11853 0.03813 0.0
C833 C 0.66335 0.11578 0.97123 0.0
C834 C 0.65425 0.09468 0.94331 0.0
C835 C 0.54659 0.02371 0.83814 0.0
C836 C 0.54756 0.03555 0.78059 0.0
C837 C 0.56619 0.02259 0.87304 0.0
C838 C 0.5869 0.03368 0.85125 0.0
C839 C 0.58771 0.04621 0.79492 0.0
C840 C 0.56821 0.04705 0.75967 0.0
C841 C 0.60768 0.03271 0.88793 0.0
C842 C 0.61835 0.05355 0.91388 0.0
C843 C 0.61654 0.01148 0.89923 0.0
C844 C 0.60687 0.98893 0.87033 0.0
C845 C 0.60407 0.98597 0.80338 0.0
C846 C 0.59623 0.96429 0.77627 0.0
C847 C 0.59126 0.9454 0.81537 0.0
C848 C 0.59415 0.94813 0.88178 0.0
C849 C 0.6018 0.96979 0.90931 0.0
H850 H 0.58536 0.92861 0.79415 0.0
H851 H 0.6721 0.13487 0.05964 0.0
H852 H 0.56023 0.71601 0.01084 0.0
H853 H 0.54541 0.68094 0.95087 0.0
H854 H 0.60703 0.64949 0.98216 0.0
H855 H 0.62183 0.68454 0.0431 0.0
H856 H 0.5561 0.65606 0.8484 0.0
H857 H 0.5929 0.59151 0.01399 0.0
H858 H 0.60607 0.59054 0.12534 0.0
H859 H 0.56399 0.64432 0.18553 0.0
H860 H 0.55015 0.6452 0.07507 0.0
H861 H 0.53731 0.54288 0.7107 0.0
H862 H 0.554 0.57912 0.75948 0.0
H863 H 0.51233 0.56698 0.93091 0.0
H864 H 0.49604 0.53007 0.88176 0.0
H865 H 0.55205 0.58281 0.96484 0.0
H866 H 0.50114 0.60585 0.81107 0.0
H867 H 0.48415 0.60896 0.70538 0.0
H868 H 0.54719 0.64117 0.63112 0.0
H869 H 0.56478 0.63747 0.73549 0.0
C870 C 0.57089 0.70189 0.00332 0.0
C871 C 0.59212 0.70293 0.03187 0.0
C872 C 0.56234 0.68179 0.96938 0.0
C873 C 0.5749 0.66241 0.96334 0.0
C874 C 0.59684 0.66406 0.98755 0.0
C875 C 0.60533 0.6841 0.02194 0.0
C876 C 0.56443 0.64016 0.93504 0.0
C877 C 0.55529 0.64 0.87363 0.0
C878 C 0.56288 0.61935 0.9689 0.0
C879 C 0.57075 0.61864 0.03594 0.0
C880 C 0.58638 0.60304 0.05106 0.0
C881 C 0.59395 0.6025 0.11403 0.0
C882 C 0.58597 0.61746 0.16233 0.0
C883 C 0.57023 0.63283 0.14797 0.0
C884 C 0.56252 0.63334 0.08519 0.0
C885 C 0.53131 0.54816 0.7579 0.0
C886 C 0.51487 0.53406 0.79141 0.0
C887 C 0.54099 0.56886 0.78618 0.0
C888 C 0.53403 0.57618 0.84833 0.0
C889 C 0.51787 0.56182 0.88266 0.0
C890 C 0.50851 0.54082 0.85456 0.0
C891 C 0.54383 0.59861 0.87762 0.0
C892 C 0.55291 0.59881 0.9393 0.0
C893 C 0.54478 0.61961 0.84466 0.0
C894 C 0.53435 0.62115 0.78108 0.0
C895 C 0.51148 0.61328 0.77194 0.0
C896 C 0.50174 0.61514 0.7122 0.0
C897 C 0.5146 0.62517 0.66146 0.0
C898 C 0.53726 0.63327 0.67028 0.0
C899 C 0.54715 0.63123 0.72967 0.0
H900 H 0.507 0.6267 0.61534 0.0
H901 H 0.59194 0.61716 0.21089 0.0
H902 H 0.80509 0.39065 0.05717 0.0
H903 H 0.84012 0.38893 0.99253 0.0
H904 H 0.8206 0.44285 0.87504 0.0
H905 H 0.78556 0.44458 0.9393 0.0
H906 H 0.84872 0.41189 0.8079 0.0
H907 H 0.84587 0.45937 0.00694 0.0
H908 H 0.83666 0.46449 0.12303 0.0
H909 H 0.88235 0.41433 0.16545 0.0
H910 H 0.89151 0.40861 0.04936 0.0
H911 H 0.94414 0.49188 0.7529 0.0
H912 H 0.90792 0.47125 0.78389 0.0
H913 H 0.94312 0.42289 0.88583 0.0
H914 H 0.97961 0.44295 0.85119 0.0
H915 H 0.90883 0.44275 0.95816 0.0
H916 H 0.9189 0.40449 0.75515 0.0
H917 H 0.92671 0.40012 0.63837 0.0
H918 H 0.86685 0.43283 0.60074 0.0
H919 H 0.85924 0.43858 0.71726 0.0
C920 C 0.80791 0.40149 0.01599 0.0
C921 C 0.79291 0.41807 0.00391 0.0
C922 C 0.82785 0.40045 0.97905 0.0
C923 C 0.8331 0.41613 0.93006 0.0
C924 C 0.81684 0.43065 0.91279 0.0
C925 C 0.79682 0.43163 0.94958 0.0
C926 C 0.85678 0.42089 0.90657 0.0
C927 C 0.86194 0.41863 0.84042 0.0
C928 C 0.87399 0.42931 0.94961 0.0
C929 C 0.86919 0.43338 0.01952 0.0
C930 C 0.85389 0.44937 0.04104 0.0
C931 C 0.84866 0.45238 0.1068 0.0
C932 C 0.85886 0.4397 0.15158 0.0
C933 C 0.87442 0.4241 0.13069 0.0
C934 C 0.87964 0.42097 0.06492 0.0
C935 C 0.94415 0.47618 0.77894 0.0
C936 C 0.96452 0.4682 0.79672 0.0
C937 C 0.92348 0.46463 0.79763 0.0
C938 C 0.92289 0.44521 0.83581 0.0
C939 C 0.94328 0.43762 0.85544 0.0
C940 C 0.96401 0.44905 0.83588 0.0
C941 C 0.90084 0.43415 0.85898 0.0
C942 C 0.89589 0.43545 0.92538 0.0
C943 C 0.88386 0.4251 0.81587 0.0
C944 C 0.88862 0.42219 0.74536 0.0
C945 C 0.9076 0.41118 0.72212 0.0
C946 C 0.91202 0.40849 0.65584 0.0
C947 C 0.89738 0.4164 0.61213 0.0
C948 C 0.8783 0.42698 0.63464 0.0
C949 C 0.87396 0.43003 0.70085 0.0
H950 H 0.90075 0.4142 0.56082 0.0
H951 H 0.85473 0.44199 0.20246 0.0
H952 H 0.08325 0.24197 0.156 0.0
H953 H 0.0746 0.21267 0.06956 0.0
H954 H 0.14056 0.18834 0.08554 0.0
H955 H 0.14907 0.21731 0.17333 0.0
H956 H 0.11723 0.18686 0.94812 0.0
H957 H 0.11176 0.1605 0.16757 0.0
H958 H 0.10091 0.16413 0.28295 0.0
H959 H 0.03132 0.16569 0.23415 0.0
H960 H 0.04185 0.16246 0.11833 0.0
H961 H 0.08452 0.06844 0.83959 0.0
H962 H 0.10247 0.10221 0.90082 0.0
H963 H 0.03681 0.12642 0.94264 0.0
H964 H 0.01892 0.09299 0.88157 0.0
H965 H 0.06353 0.12743 0.05021 0.0
H966 H 0.0696 0.14956 0.82873 0.0
H967 H 0.0813 0.14403 0.71482 0.0
H968 H 0.15107 0.14992 0.7669 0.0
H969 H 0.13976 0.15452 0.88175 0.0
C970 C 0.09631 0.23116 0.1388 0.0
C971 C 0.11681 0.23183 0.17093 0.0
C972 C 0.09132 0.21437 0.08975 0.0
C973 C 0.10691 0.19833 0.07178 0.0
C974 C 0.12841 0.2007 0.09865 0.0
C975 C 0.13326 0.21724 0.14855 0.0
C976 C 0.0991 0.17678 0.03527 0.0
C977 C 0.10574 0.17367 0.97036 0.0
C978 C 0.08408 0.15973 0.06471 0.0
C979 C 0.07764 0.16158 0.13428 0.0
C980 C 0.09419 0.1619 0.18141 0.0
C981 C 0.08809 0.16382 0.24689 0.0
C982 C 0.06546 0.16525 0.26586 0.0
C983 C 0.04886 0.16466 0.21938 0.0
C984 C 0.05488 0.16278 0.15381 0.0
C985 C 0.07399 0.08097 0.86211 0.0
C986 C 0.05038 0.07818 0.85604 0.0
C987 C 0.08423 0.10024 0.89677 0.0
C988 C 0.07094 0.11683 0.92594 0.0
C989 C 0.04734 0.11381 0.92053 0.0
C990 C 0.03717 0.09474 0.88556 0.0
C991 C 0.08138 0.13744 0.96236 0.0
C992 C 0.07518 0.14044 0.02769 0.0
C993 C 0.09696 0.15417 0.93325 0.0
C994 C 0.1038 0.15205 0.86404 0.0
C995 C 0.08743 0.14943 0.81607 0.0
C996 C 0.09399 0.14647 0.75128 0.0
C997 C 0.1169 0.14661 0.73356 0.0
C998 C 0.13332 0.14975 0.7807 0.0
C999 C 0.12684 0.15246 0.84571 0.0
H1000 H 0.12192 0.14433 0.6833 0.0
H1001 H 0.06078 0.16674 0.31657 0.0
H1002 H 0.29145 0.06024 0.09536 0.0
H1003 H 0.31774 0.06199 0.00212 0.0
H1004 H 0.30822 0.98741 0.97681 0.0
H1005 H 0.28163 0.98584 0.06887 0.0
H1006 H 0.35579 0.04395 0.01646 0.0
H1007 H 0.3279 0.96916 0.83085 0.0
H1008 H 0.29321 0.95273 0.77699 0.0
H1009 H 0.26477 0.01803 0.80413 0.0
H1010 H 0.29941 0.03497 0.85733 0.0
H1011 H 0.45014 0.99368 0.87514 0.0
H1012 H 0.41307 0.99854 0.92656 0.0
H1013 H 0.39297 0.03196 0.7589 0.0
H1014 H 0.42966 0.02697 0.70692 0.0
H1015 H 0.35906 0.00168 0.80394 0.0
H1016 H 0.40998 0.0641 0.88871 0.0
H1017 H 0.44508 0.0808 0.94006 0.0
H1018 H 0.42639 0.04366 0.11081 0.0
H1019 H 0.39138 0.02636 0.06002 0.0
C1020 C 0.2939 0.04444 0.06715 0.0
C1021 C 0.28441 0.02294 0.08842 0.0
C1022 C 0.30914 0.04539 0.01447 0.0
C1023 C 0.31515 0.02482 0.98278 0.0
C1024 C 0.30368 0.00355 -0.00025 0.0
C1025 C 0.28835 0.00263 0.05218 0.0
C1026 C 0.3362 0.02504 0.94215 0.0
C1027 C 0.35639 0.03495 0.96959 0.0
C1028 C 0.33708 0.01327 0.88108 0.0
C1029 C 0.31624 0.00329 0.84851 0.0
C1030 C 0.31431 0.98006 0.82503 0.0
C1031 C 0.29463 0.97064 0.79467 0.0
C1032 C 0.27677 0.98431 0.78728 0.0
C1033 C 0.27858 0.00744 0.81009 0.0
C1034 C 0.29822 0.01695 0.84046 0.0
C1035 C 0.43782 0.00201 0.84918 0.0
C1036 C 0.44301 0.0102 0.78732 0.0
C1037 C 0.41667 0.00481 0.87862 0.0
C1038 C 0.40038 0.01585 0.84675 0.0
C1039 C 0.4053 0.02345 0.78438 0.0
C1040 C 0.4264 0.02073 0.75503 0.0
C1041 C 0.37845 0.02011 0.87915 0.0
C1042 C 0.35825 0.01096 0.85035 0.0
C1043 C 0.37747 0.03277 0.93879 0.0
C1044 C 0.39818 0.04371 0.97022 0.0
C1045 C 0.41342 0.05937 0.93704 0.0
C1046 C 0.43332 0.06892 0.96602 0.0
C1047 C 0.43806 0.06311 0.0284 0.0
C1048 C 0.42276 0.048 0.06231 0.0
C1049 C 0.40289 0.03833 0.03346 0.0
H1050 H 0.45354 0.07038 0.05059 0.0
H1051 H 0.26155 0.97698 0.76379 0.0
H1052 H 0.37398 0.29344 0.11386 0.0
H1053 H 0.38447 0.31458 0.01673 0.0
H1054 H 0.44094 0.27353 0.98128 0.0
H1055 H 0.43069 0.25259 0.0795 0.0
H1056 H 0.45481 0.31795 0.98464 0.0
H1057 H 0.39748 0.27157 0.87376 0.0
H1058 H 0.35979 0.25142 0.8531 0.0
H1059 H 0.33102 0.31676 0.85794 0.0
H1060 H 0.36847 0.33731 0.87963 0.0
H1061 H 0.48904 0.38844 0.72239 0.0
H1062 H 0.4733 0.35285 0.7731 0.0
H1063 H 0.41955 0.38947 0.86137 0.0
H1064 H 0.43534 0.42521 0.81117 0.0
H1065 H 0.40595 0.34199 0.81489 0.0
H1066 H 0.46248 0.3864 0.94684 0.0
H1067 H 0.5004 0.40636 0.96586 0.0
H1068 H 0.5306 0.34304 0.9185 0.0
H1069 H 0.49283 0.32279 0.8983 0.0
C1070 C 0.3883 0.28854 0.08445 0.0
C1071 C 0.40161 0.27148 0.10451 0.0
C1072 C 0.3942 0.30052 0.0286 0.0
C1073 C 0.41349 0.29565 0.99142 0.0
C1074 C 0.42596 0.27757 0.0091 0.0
C1075 C 0.42 0.2655 0.06499 0.0
C1076 C 0.4223 0.31161 0.94033 0.0
C1077 C 0.44425 0.32269 0.94653 0.0
C1078 C 0.40846 0.31825 0.8912 0.0
C1079 C 0.3858 0.30598 0.87887 0.0
C1080 C 0.38309 0.28165 0.87106 0.0
C1081 C 0.36177 0.27015 0.85901 0.0
C1082 C 0.34302 0.2828 0.85433 0.0
C1083 C 0.34556 0.30698 0.86161 0.0
C1084 C 0.36684 0.31857 0.87371 0.0
C1085 C 0.47369 0.38881 0.75192 0.0
C1086 C 0.46356 0.40962 0.76375 0.0
C1087 C 0.4647 0.36847 0.78063 0.0
C1088 C 0.44538 0.3686 0.82133 0.0
C1089 C 0.43445 0.38902 0.82998 0.0
C1090 C 0.44354 0.40943 0.80166 0.0
C1091 C 0.43808 0.34836 0.8606 0.0
C1092 C 0.4165 0.3367 0.85227 0.0
C1093 C 0.45222 0.34106 0.90776 0.0
C1094 C 0.47489 0.35317 0.92026 0.0
C1095 C 0.47723 0.37679 0.93993 0.0
C1096 C 0.49869 0.38815 0.95103 0.0
C1097 C 0.51791 0.376 0.94317 0.0
C1098 C 0.5157 0.35245 0.92441 0.0
C1099 C 0.49428 0.34102 0.91314 0.0
H1100 H 0.53451 0.38482 0.9518 0.0
H1101 H 0.32652 0.27387 0.84496 0.0
H1102 H 0.24404 0.51259 0.12794 0.0
H1103 H 0.22149 0.50308 0.03195 0.0
H1104 H 0.19834 0.5716 0.0447 0.0
H1105 H 0.22138 0.58134 0.13882 0.0
H1106 H 0.17801 0.49946 0.03585 0.0
H1107 H 0.17901 0.58745 0.90677 0.0
H1108 H 0.2069 0.61937 0.87442 0.0
H1109 H 0.26012 0.57411 0.8764 0.0
H1110 H 0.23254 0.54181 0.90781 0.0
H1111 H 0.07248 0.516 0.91947 0.0
H1112 H 0.10943 0.51974 0.96928 0.0
H1113 H 0.14226 0.51601 0.78125 0.0
H1114 H 0.10509 0.51273 0.73094 0.0
H1115 H 0.16393 0.54881 0.85497 0.0
H1116 H 0.13919 0.46955 0.87789 0.0
H1117 H 0.11327 0.43533 0.90464 0.0
H1118 H 0.11145 0.45891 0.10347 0.0
H1119 H 0.13706 0.49349 0.0778 0.0
C1120 C 0.23488 0.52591 0.10859 0.0
C1121 C 0.23433 0.54766 0.14109 0.0
C1122 C 0.22183 0.5204 0.05405 0.0
C1123 C 0.20814 0.53658 0.03097 0.0
C1124 C 0.20896 0.55888 0.06069 0.0
C1125 C 0.22202 0.5644 0.11491 0.0
C1126 C 0.19054 0.52935 0.98279 0.0
C1127 C 0.17514 0.51011 0.9958 0.0
C1128 C 0.18699 0.54286 0.92949 0.0
C1129 C 0.20367 0.56221 0.91003 0.0
C1130 C 0.19664 0.58425 0.89993 0.0
C1131 C 0.21241 0.60243 0.88184 0.0
C1132 C 0.23527 0.59878 0.87348 0.0
C1133 C 0.24242 0.57693 0.88308 0.0
C1134 C 0.22672 0.55869 0.90113 0.0
C1135 C 0.08757 0.51596 0.88874 0.0
C1136 C 0.08597 0.51394 0.82145 0.0
C1137 C 0.10868 0.51795 0.91724 0.0
C1138 C 0.12863 0.5177 0.87909 0.0
C1139 C 0.12709 0.51608 0.81165 0.0
C1140 C 0.1059 0.51416 0.78301 0.0
C1141 C 0.15096 0.51969 0.91035 0.0
C1142 C 0.16714 0.53792 0.89419 0.0
C1143 C 0.15551 0.50496 0.96 0.0
C1144 C 0.13998 0.48421 0.97578 0.0
C1145 C 0.13313 0.46755 0.92724 0.0
C1146 C 0.1185 0.44806 0.94224 0.0
C1147 C 0.1107 0.44496 0.0057 0.0
C1148 C 0.11751 0.46134 0.05432 0.0
C1149 C 0.1321 0.48088 0.03958 0.0
H1150 H 0.0994 0.42985 0.01723 0.0
H1151 H 0.24745 0.61288 0.8595 0.0
H1152 H 0.92997 0.7706 0.23573 0.0
H1153 H 0.94071 0.8003 0.31906 0.0
H1154 H 0.87627 0.82821 0.30391 0.0
H1155 H 0.86563 0.79862 0.21987 0.0
H1156 H 0.91115 0.85922 0.27437 0.0
H1157 H 0.89222 0.80768 0.44586 0.0
H1158 H 0.89252 0.77176 0.50499 0.0
H1159 H 0.96465 0.78367 0.52155 0.0
H1160 H 0.96485 0.81949 0.46168 0.0
H1161 H 0.93117 0.95279 0.50682 0.0
H1162 H 0.91724 0.91895 0.4392 0.0
H1163 H 0.98016 0.88875 0.46146 0.0
H1164 H 0.99383 0.92215 0.52999 0.0
H1165 H 0.9465 0.85831 0.48695 0.0
H1166 H 0.96612 0.90822 0.31586 0.0
H1167 H 0.96793 0.94275 0.25011 0.0
H1168 H 0.89589 0.9333 0.22851 0.0
H1169 H 0.8936 0.89889 0.29496 0.0
C1170 C 0.91763 0.78227 0.25276 0.0
C1171 C 0.89703 0.78245 0.22144 0.0
C1172 C 0.92384 0.79936 0.30009 0.0
C1173 C 0.90938 0.81663 0.31706 0.0
C1174 C 0.88772 0.81513 0.29111 0.0
C1175 C 0.88156 0.79811 0.24368 0.0
C1176 C 0.91821 0.83811 0.35277 0.0
C1177 C 0.91826 0.85918 0.32185 0.0
C1178 C 0.92861 0.83778 0.41288 0.0
C1179 C 0.92857 0.81618 0.4487 0.0
C1180 C 0.90818 0.80253 0.46156 0.0
C1181 C 0.90825 0.78221 0.49534 0.0
C1182 C 0.9286 0.77541 0.51687 0.0
C1183 C 0.94891 0.78894 0.50478 0.0
C1184 C 0.94894 0.80927 0.47098 0.0
C1185 C 0.94202 0.93897 0.4968 0.0
C1186 C 0.96344 0.93992 0.52401 0.0
C1187 C 0.93418 0.91978 0.45764 0.0
C1188 C 0.94775 0.90137 0.44478 0.0
C1189 C 0.96942 0.90272 0.47059 0.0
C1190 C 0.97716 0.92177 0.50997 0.0
C1191 C 0.93854 0.87975 0.41001 0.0
C1192 C 0.9388 0.85857 0.44041 0.0
C1193 C 0.92848 0.87997 0.34927 0.0
C1194 C 0.92965 0.90117 0.3113 0.0
C1195 C 0.95062 0.9137 0.29794 0.0
C1196 C 0.95174 0.93319 0.26029 0.0
C1197 C 0.93203 0.94027 0.23537 0.0
C1198 C 0.91114 0.92784 0.24801 0.0
C1199 C 0.90992 0.90834 0.28568 0.0
H1200 H 0.93294 0.95533 0.2061 0.0
H1201 H 0.92862 0.75967 0.54303 0.0
H1202 H 0.71518 0.06105 0.31397 0.0
H1203 H 0.69093 0.0535 0.40845 0.0
H1204 H 0.71403 0.9852 0.4159 0.0
H1205 H 0.73784 0.99264 0.31897 0.0
H1206 H 0.67134 0.98091 0.40565 0.0
H1207 H 0.71822 0.02656 0.54919 0.0
H1208 H 0.74372 0.05961 0.59025 0.0
H1209 H 0.69053 0.10458 0.58035 0.0
H1210 H 0.66479 0.07192 0.53828 0.0
H1211 H 0.57566 0.96621 0.62899 0.0
H1212 H 0.61524 0.96915 0.58915 0.0
H1213 H 0.60624 0.03505 0.50946 0.0
H1214 H 0.56688 0.03224 0.54975 0.0
H1215 H 0.64677 0.03459 0.58106 0.0
H1216 H 0.60448 0.98913 0.41287 0.0
H1217 H 0.57955 0.95551 0.37227 0.0
H1218 H 0.62621 0.90924 0.43425 0.0
H1219 H 0.65128 0.94262 0.47598 0.0
C1220 C 0.7159 0.04487 0.33772 0.0
C1221 C 0.72823 0.02739 0.30934 0.0
C1222 C 0.70205 0.04053 0.39205 0.0
C1223 C 0.7005 0.0187 0.41959 0.0
C1224 C 0.71486 0.00215 0.39546 0.0
C1225 C 0.72865 0.00646 0.34054 0.0
C1226 C 0.68092 0.01198 0.46351 0.0
C1227 C 0.66642 0.99231 0.44544 0.0
C1228 C 0.67416 0.0269 0.51502 0.0
C1229 C 0.68956 0.04672 0.54036 0.0
C1230 C 0.71198 0.04352 0.55534 0.0
C1231 C 0.72648 0.0622 0.57887 0.0
C1232 C 0.71875 0.08418 0.58788 0.0
C1233 C 0.69649 0.08753 0.57343 0.0
C1234 C 0.68192 0.06892 0.54986 0.0
C1235 C 0.58227 0.98132 0.60321 0.0
C1236 C 0.56837 0.99901 0.59253 0.0
C1237 C 0.60476 0.98296 0.5804 0.0
C1238 C 0.61366 0.0024 0.54682 0.0
C1239 C 0.59971 0.02 0.53574 0.0
C1240 C 0.57719 0.01824 0.55796 0.0
C1241 C 0.63726 0.00425 0.52103 0.0
C1242 C 0.65228 0.02293 0.54264 0.0
C1243 C 0.64467 0.98833 0.4733 0.0
C1244 C 0.62958 0.96832 0.44829 0.0
C1245 C 0.60931 0.97177 0.41838 0.0
C1246 C 0.59518 0.95277 0.39505 0.0
C1247 C 0.60125 0.93024 0.40089 0.0
C1248 C 0.6215 0.92669 0.42991 0.0
C1249 C 0.63567 0.94564 0.45339 0.0
H1250 H 0.5903 0.91555 0.38276 0.0
H1251 H 0.73001 0.09862 0.60609 0.0
H1252 H 0.57621 0.73314 0.29289 0.0
H1253 H 0.57358 0.70614 0.3805 0.0
H1254 H 0.63922 0.68455 0.32368 0.0
H1255 H 0.64157 0.71123 0.23521 0.0
H1256 H 0.60781 0.64957 0.315 0.0
H1257 H 0.6284 0.70775 0.47698 0.0
H1258 H 0.62743 0.74506 0.53836 0.0
H1259 H 0.55801 0.72688 0.59448 0.0
H1260 H 0.55842 0.6896 0.53264 0.0
H1261 H 0.58879 0.55577 0.52702 0.0
H1262 H 0.60626 0.59131 0.47886 0.0
H1263 H 0.54414 0.6236 0.51368 0.0
H1264 H 0.5269 0.58846 0.56286 0.0
H1265 H 0.58011 0.65362 0.54248 0.0
H1266 H 0.55722 0.60071 0.36481 0.0
H1267 H 0.55601 0.56464 0.29676 0.0
H1268 H 0.62815 0.57415 0.26677 0.0
H1269 H 0.6298 0.61018 0.33524 0.0
C1270 C 0.59056 0.72353 0.30136 0.0
C1271 C 0.60908 0.72418 0.25758 0.0
C1272 C 0.58904 0.70801 0.35132 0.0
C1273 C 0.60615 0.69316 0.35842 0.0
C1274 C 0.62579 0.69576 0.31898 0.0
C1275 C 0.62723 0.71112 0.26883 0.0
C1276 C 0.60161 0.67229 0.39747 0.0
C1277 C 0.60241 0.65051 0.36538 0.0
C1278 C 0.59377 0.67346 0.46244 0.0
C1279 C 0.59341 0.69591 0.49969 0.0
C1280 C 0.61286 0.71178 0.50193 0.0
C1281 C 0.61242 0.73291 0.53692 0.0
C1282 C 0.59266 0.73836 0.5702 0.0
C1283 C 0.5733 0.72265 0.56866 0.0
C1284 C 0.57364 0.70149 0.5337 0.0
C1285 C 0.57899 0.57056 0.52474 0.0
C1286 C 0.55653 0.56945 0.54853 0.0
C1287 C 0.58894 0.5908 0.49718 0.0
C1288 C 0.57647 0.61009 0.49252 0.0
C1289 C 0.55415 0.60902 0.51727 0.0
C1290 C 0.54429 0.58892 0.54511 0.0
C1291 C 0.58616 0.63112 0.45964 0.0
C1292 C 0.58615 0.65282 0.49267 0.0
C1293 C 0.59454 0.62997 0.39522 0.0
C1294 C 0.59367 0.60793 0.3559 0.0
C1295 C 0.57285 0.59495 0.34437 0.0
C1296 C 0.57208 0.57456 0.30555 0.0
C1297 C 0.592 0.56705 0.27769 0.0
C1298 C 0.61274 0.57993 0.2886 0.0
C1299 C 0.61361 0.60033 0.32741 0.0
H1300 H 0.59135 0.55132 0.24742 0.0
H1301 H 0.59236 0.75473 0.59727 0.0
H1302 H 0.79685 0.41387 0.23279 0.0
H1303 H 0.81852 0.42729 0.32604 0.0
H1304 H 0.78273 0.4889 0.34366 0.0
H1305 H 0.76246 0.47652 0.24546 0.0
H1306 H 0.82293 0.50218 0.3558 0.0
H1307 H 0.7784 0.44417 0.46161 0.0
H1308 H 0.75773 0.40615 0.48171 0.0
H1309 H 0.82039 0.37454 0.47623 0.0
H1310 H 0.84145 0.41227 0.45508 0.0
H1311 H 0.90159 0.48153 0.64918 0.0
H1312 H 0.86444 0.47644 0.59949 0.0
H1313 H 0.89505 0.50163 0.4214 0.0
H1314 H 0.9315 0.50891 0.47328 0.0
H1315 H 0.84847 0.45006 0.51578 0.0
H1316 H 0.86098 0.52193 0.32327 0.0
H1317 H 0.87709 0.56261 0.31775 0.0
H1318 H 0.86993 0.5716 0.52341 0.0
H1319 H 0.85346 0.53108 0.53017 0.0
C1320 C 0.79347 0.43027 0.25644 0.0
C1321 C 0.77821 0.44432 0.2306 0.0
C1322 C 0.80563 0.43776 0.3109 0.0
C1323 C 0.8022 0.45906 0.34291 0.0
C1324 C 0.78579 0.47242 0.31991 0.0
C1325 C 0.77397 0.46518 0.2641 0.0
C1326 C 0.81762 0.46825 0.39526 0.0
C1327 C 0.82827 0.49087 0.39142 0.0
C1328 C 0.82405 0.45398 0.44388 0.0
C1329 C 0.81151 0.43111 0.45649 0.0
C1330 C 0.78778 0.42909 0.46425 0.0
C1331 C 0.77599 0.40758 0.47589 0.0
C1332 C 0.78774 0.38794 0.48019 0.0
C1333 C 0.81131 0.38977 0.47293 0.0
C1334 C 0.82319 0.41124 0.46123 0.0
C1335 C 0.90015 0.48632 0.59974 0.0
C1336 C 0.91922 0.49571 0.56491 0.0
C1337 C 0.87898 0.48333 0.57123 0.0
C1338 C 0.87667 0.48887 0.50665 0.0
C1339 C 0.89598 0.49797 0.47184 0.0
C1340 C 0.91692 0.50187 0.50119 0.0
C1341 C 0.85466 0.48349 0.47389 0.0
C1342 C 0.84277 0.46161 0.48146 0.0
C1343 C 0.84635 0.49888 0.43109 0.0
C1344 C 0.85607 0.52338 0.42722 0.0
C1345 C 0.86269 0.53261 0.3673 0.0
C1346 C 0.87193 0.55564 0.36396 0.0
C1347 C 0.87457 0.56967 0.4202 0.0
C1348 C 0.86793 0.5607 0.4799 0.0
C1349 C 0.85867 0.53769 0.48352 0.0
H1350 H 0.88174 0.58749 0.4175 0.0
H1351 H 0.77857 0.3713 0.4892 0.0
loop_
_geom_bond_atom_site_label_1
_geom_bond_atom_site_label_2
_geom_bond_distance
_geom_bond_site_symmetry_2
_ccdc_geom_bond_type
H0 C3 0.931 . S
H1 C6 0.928 . S
H2 C8 0.930 . S
C3 H0 0.931 . S
C3 C4 1.413 . S
C3 C5 1.360 . S
C4 C3 1.413 . S
C4 C8 1.429 . S
C5 C3 1.360 . S
C5 C6 1.372 1_554 S
C6 H1 0.928 . S
C6 C5 1.372 1_556 S
C6 C7 1.404 1_556 S
C7 C6 1.404 1_554 S
C7 C8 1.391 . S
C8 H2 0.930 . S
C8 C4 1.429 . S
C8 C7 1.391 . S
H9 C12 0.931 . S
H10 C15 0.928 . S
H11 C17 0.930 . S
C12 H9 0.931 . S
C12 C13 1.413 . S
C12 C14 1.360 1_554 S
C13 C12 1.413 . S
C13 C17 1.429 . S
C14 C12 1.360 1_556 S
C14 C15 1.372 . S
C15 H10 0.928 . S
C15 C14 1.372 . S
C15 C16 1.404 1_556 S
C16 C15 1.404 1_554 S
C16 C17 1.391 . S
C17 H11 0.930 . S
C17 C13 1.429 . S
C17 C16 1.391 . S
H18 C21 0.931 . S
H19 C24 0.928 1_556 S
H20 C26 0.932 . S
C21 H18 0.931 . S
C21 C22 1.414 . S
C21 C23 1.360 . S
C22 C21 1.414 . S
C22 C26 1.430 1_565 S
C23 C21 1.360 . S
C23 C24 1.374 . S
C24 H19 0.928 1_554 S
C24 C23 1.374 . S
C24 C25 1.403 . S
C25 C24 1.403 . S
C25 C26 1.391 1_565 S
C26 H20 0.932 . S
C26 C22 1.430 1_545 S
C26 C25 1.391 1_545 S
H27 C30 0.931 . S
H28 C33 0.928 . S
H29 C35 0.930 1_556 S
C30 H27 0.931 . S
C30 C31 1.413 . S
C30 C32 1.360 . S
C31 C30 1.413 . S
C31 C35 1.429 . S
C32 C30 1.360 . S
C32 C33 1.372 . S
C33 H28 0.928 . S
C33 C32 1.372 . S
C33 C34 1.404 . S
C34 C33 1.404 . S
C34 C35 1.391 . S
C35 H29 0.930 1_554 S
C35 C31 1.429 . S
C35 C34 1.391 . S
H36 C39 0.931 . S
H37 C42 0.928 . S
H38 C44 0.930 . S
C39 H36 0.931 . S
C39 C40 1.413 . S
C39 C41 1.360 . S
C40 C39 1.413 . S
C40 C44 1.429 . S
C41 C39 1.360 . S
C41 C42 1.372 . S
C42 H37 0.928 . S
C42 C41 1.372 . S
C42 C43 1.404 . S
C43 C42 1.404 . S
C43 C44 1.391 . S
C44 H38 0.930 . S
C44 C40 1.429 . S
C44 C43 1.391 . S
H45 C48 0.931 . S
H46 C51 0.928 . S
H47 C53 0.930 . S
C48 H45 0.931 . S
C48 C49 1.413 . S
C48 C50 1.360 . S
C49 C48 1.413 . S
C49 C53 1.429 . S
C50 C48 1.360 . S
C50 C51 1.372 . S
C51 H46 0.928 . S
C51 C50 1.372 . S
C51 C52 1.404 . S
C52 C51 1.404 . S
C52 C53 1.391 . S
C53 H47 0.930 . S
C53 C49 1.429 . S
C53 C52 1.391 . S
H54 C57 0.931 . S
H55 C60 0.928 . S
H56 C62 0.930 . S
C57 H54 0.931 . S
C57 C58 1.413 . S
C57 C59 1.360 . S
C58 C57 1.413 . S
C58 C62 1.429 . S
C59 C57 1.360 . S
C59 C60 1.372 . S
C60 H55 0.928 . S
C60 C59 1.372 . S
C60 C61 1.404 . S
C61 C60 1.404 . S
C61 C62 1.391 . S
C62 H56 0.930 . S
C62 C58 1.429 . S
C62 C61 1.391 . S
H63 C66 0.931 . S
H64 C69 0.928 . S
H65 C71 0.930 . S
C66 H63 0.931 . S
C66 C67 1.413 . S
C66 C68 1.360 . S
C67 C66 1.413 . S
C67 C71 1.429 . S
C68 C66 1.360 . S
C68 C69 1.372 . S
C69 H64 0.928 . S
C69 C68 1.372 . S
C69 C70 1.404 . S
C70 C69 1.404 . S
C70 C71 1.391 . S
C71 H65 0.930 . S
C71 C67 1.429 . S
C71 C70 1.391 . S
Tb72 O75 2.453 1_665 S
Tb72 O76 2.596 1_665 S
Tb72 O77 2.374 1_655 S
Tb72 O85 2.343 . S
Tb72 O87 2.353 1_565 S
Tb72 O89 2.427 . S
Tb72 O90 2.513 . S
C73 O77 1.251 . S
C73 O79 1.263 . S
Tb74 O76 2.343 . S
Tb74 O79 2.353 1_545 S
Tb74 O82 2.427 . S
Tb74 O83 2.513 . S
Tb74 O84 2.453 1_545 S
Tb74 O85 2.596 1_445 S
Tb74 O86 2.374 1_455 S
O75 Tb72 2.453 1_445 S
O75 C91 1.245 . S
O76 Tb72 2.596 1_445 S
O76 Tb74 2.343 . S
O76 C91 1.259 . S
O77 Tb72 2.374 1_455 S
O77 C73 1.251 . S
C78 O82 1.275 . S
C78 O83 1.246 . S
O79 C73 1.263 . S
O79 Tb74 2.353 1_565 S
C80 O84 1.245 1_655 S
C80 O85 1.259 . S
C81 O86 1.250 . S
C81 O87 1.263 . S
O82 Tb74 2.427 . S
O82 C78 1.275 . S
O83 Tb74 2.513 . S
O83 C78 1.246 . S
O84 Tb74 2.453 1_565 S
O84 C80 1.245 1_455 S
O85 Tb72 2.343 . S
O85 Tb74 2.596 1_665 S
O85 C80 1.259 . S
O86 Tb74 2.374 1_655 S
O86 C81 1.250 . S
O87 Tb72 2.353 1_545 S
O87 C81 1.263 . S
C88 O89 1.275 . S
C88 O90 1.246 . S
O89 Tb72 2.427 . S
O89 C88 1.275 . S
O90 Tb72 2.513 . S
O90 C88 1.246 . S
C91 O75 1.245 . S
C91 O76 1.259 . S
Tb92 O95 2.453 . S
Tb92 O96 2.576 1_545 S
Tb92 O97 2.374 . S
Tb92 O105 2.343 . S
Tb92 O107 2.353 . S
Tb92 O109 2.427 . S
Tb92 O110 2.513 . S
C93 O97 1.251 . S
C93 O99 1.263 1_545 S
Tb94 O96 2.358 . S
Tb94 O99 2.353 . S
Tb94 O102 2.427 . S
Tb94 O103 2.513 . S
Tb94 O104 2.453 . S
Tb94 O105 2.596 1_565 S
Tb94 O106 2.374 . S
O95 Tb92 2.453 . S
O95 C111 1.245 . S
O96 Tb92 2.576 1_565 S
O96 Tb94 2.358 . S
O96 C111 1.249 1_565 S
O97 Tb92 2.374 . S
O97 C93 1.251 . S
C98 O102 1.275 . S
C98 O103 1.246 . S
O99 C93 1.263 1_565 S
O99 Tb94 2.353 . S
C100 O104 1.245 . S
C100 O105 1.259 1_565 S
C101 O106 1.250 1_545 S
C101 O107 1.263 . S
O102 Tb94 2.427 . S
O102 C98 1.275 . S
O103 Tb94 2.513 . S
O103 C98 1.246 . S
O104 Tb94 2.453 . S
O104 C100 1.245 . S
O105 Tb92 2.343 . S
O105 Tb94 2.596 1_545 S
O105 C100 1.259 1_545 S
O106 Tb94 2.374 . S
O106 C101 1.250 1_565 S
O107 Tb92 2.353 . S
O107 C101 1.263 . S
C108 O109 1.275 . S
C108 O110 1.246 . S
O109 Tb92 2.427 . S
O109 C108 1.275 . S
O110 Tb92 2.513 . S
O110 C108 1.246 . S
C111 O95 1.245 . S
C111 O96 1.249 1_545 S
Tb112 O115 2.453 . S
Tb112 O116 2.596 . S
Tb112 O117 2.374 . S
Tb112 O125 2.343 . S
Tb112 O127 2.353 . S
Tb112 O129 2.427 . S
Tb112 O130 2.513 . S
C113 O117 1.251 . S
C113 O119 1.263 . S
Tb114 O116 2.343 . S
Tb114 O119 2.353 . S
Tb114 O122 2.427 . S
Tb114 O123 2.513 . S
Tb114 O124 2.453 . S
Tb114 O125 2.596 . S
Tb114 O126 2.374 . S
O115 Tb112 2.453 . S
O115 C131 1.245 . S
O116 Tb112 2.596 . S
O116 Tb114 2.343 . S
O116 C131 1.259 . S
O117 Tb112 2.374 . S
O117 C113 1.251 . S
C118 O122 1.275 . S
C118 O123 1.246 . S
O119 C113 1.263 . S
O119 Tb114 2.353 . S
C120 O124 1.245 . S
C120 O125 1.259 . S
C121 O126 1.250 . S
C121 O127 1.263 . S
O122 Tb114 2.427 . S
O122 C118 1.275 . S
O123 Tb114 2.513 . S
O123 C118 1.246 . S
O124 Tb114 2.453 . S
O124 C120 1.245 . S
O125 Tb112 2.343 . S
O125 Tb114 2.596 . S
O125 C120 1.259 . S
O126 Tb114 2.374 . S
O126 C121 1.250 . S
O127 Tb112 2.353 . S
O127 C121 1.263 . S
C128 O129 1.275 . S
C128 O130 1.246 . S
O129 Tb112 2.427 . S
O129 C128 1.275 . S
O130 Tb112 2.513 . S
O130 C128 1.246 . S
C131 O115 1.245 . S
C131 O116 1.259 . S
Tb132 O135 2.453 1_655 S
Tb132 O136 2.596 1_655 S
Tb132 O137 2.374 1_655 S
Tb132 O145 2.343 . S
Tb132 O147 2.353 . S
Tb132 O149 2.427 . S
Tb132 O150 2.513 . S
C133 O137 1.251 . S
C133 O139 1.263 . S
Tb134 O136 2.343 . S
Tb134 O139 2.353 . S
Tb134 O142 2.427 . S
Tb134 O143 2.513 . S
Tb134 O144 2.453 1_455 S
Tb134 O145 2.596 1_455 S
Tb134 O146 2.374 . S
O135 Tb132 2.453 1_455 S
O135 C151 1.245 . S
O136 Tb132 2.596 1_455 S
O136 Tb134 2.343 . S
O136 C151 1.259 . S
O137 Tb132 2.374 1_455 S
O137 C133 1.251 . S
C138 O142 1.275 . S
C138 O143 1.246 . S
O139 C133 1.263 . S
O139 Tb134 2.353 . S
C140 O144 1.245 . S
C140 O145 1.259 . S
C141 O146 1.250 1_655 S
C141 O147 1.263 . S
O142 Tb134 2.427 . S
O142 C138 1.275 . S
O143 Tb134 2.513 . S
O143 C138 1.246 . S
O144 Tb134 2.453 1_655 S
O144 C140 1.245 . S
O145 Tb132 2.343 . S
O145 Tb134 2.596 1_655 S
O145 C140 1.259 . S
O146 Tb134 2.374 . S
O146 C141 1.250 1_455 S
O147 Tb132 2.353 . S
O147 C141 1.263 . S
C148 O149 1.275 . S
C148 O150 1.246 . S
O149 Tb132 2.427 . S
O149 C148 1.275 . S
O150 Tb132 2.513 . S
O150 C148 1.246 . S
C151 O135 1.245 . S
C151 O136 1.259 . S
H152 C170 0.951 . S
H153 C172 0.951 . S
H154 C174 0.950 . S
H155 C175 0.950 . S
H156 C177 0.950 . S
H157 C180 0.950 . S
H158 C181 0.950 . S
H159 C183 0.950 . S
H160 C184 0.950 . S
H161 C185 0.951 . S
H162 C187 0.951 . S
H163 C189 0.950 . S
H164 C190 0.950 . S
H165 C192 0.950 . S
H166 C195 0.950 . S
H167 C196 0.950 . S
H168 C198 0.950 . S
H169 C199 0.950 . S
C170 H152 0.951 . S
C170 C171 1.366 1_565 S
C170 C172 1.388 . S
C171 C170 1.366 1_545 S
C171 C175 1.385 . S
C172 H153 0.951 . S
C172 C170 1.388 . S
C172 C173 1.366 1_565 S
C173 C172 1.366 1_545 S
C173 C174 1.414 . S
C173 C176 1.499 . S
C174 H154 0.950 . S
C174 C173 1.414 . S
C174 C175 1.374 . S
C175 H155 0.950 . S
C175 C171 1.385 . S
C175 C174 1.374 . S
C176 C173 1.499 . S
C176 C177 1.373 . S
C176 C178 1.389 1_545 S
C177 H156 0.950 . S
C177 C176 1.373 . S
C177 C193 1.377 . S
C178 C176 1.389 1_565 S
C178 C179 1.524 . S
C178 C192 1.377 . S
C179 C178 1.524 . S
C179 C180 1.397 . S
C179 C184 1.363 . S
C180 H157 0.950 . S
C180 C179 1.397 . S
C180 C181 1.334 . S
C181 H158 0.950 . S
C181 C180 1.334 . S
C181 C182 1.287 . S
C182 C181 1.287 . S
C182 C183 1.524 . S
C182 H201 0.913 . S
C183 H159 0.950 . S
C183 C182 1.524 . S
C183 C184 1.415 . S
C184 H160 0.950 . S
C184 C179 1.363 . S
C184 C183 1.415 . S
C185 H161 0.951 . S
C185 C186 1.351 1_545 S
C185 C187 1.388 . S
C186 C185 1.351 1_565 S
C186 C190 1.400 . S
C187 H162 0.951 . S
C187 C185 1.388 . S
C187 C188 1.366 . S
C188 C187 1.366 . S
C188 C189 1.414 1_545 S
C188 C191 1.499 . S
C189 H163 0.950 . S
C189 C188 1.414 1_565 S
C189 C190 1.374 . S
C190 H164 0.950 . S
C190 C186 1.400 . S
C190 C189 1.374 . S
C191 C188 1.499 . S
C191 C192 1.373 1_545 S
C191 C193 1.389 . S
C192 H165 0.950 . S
C192 C178 1.377 . S
C192 C191 1.373 1_565 S
C193 C177 1.377 . S
C193 C191 1.389 . S
C193 C194 1.524 . S
C194 C193 1.524 . S
C194 C195 1.397 . S
C194 C199 1.363 . S
C195 H166 0.950 . S
C195 C194 1.397 . S
C195 C196 1.334 . S
C196 H167 0.950 . S
C196 C195 1.334 . S
C196 C197 1.287 . S
C197 C196 1.287 . S
C197 C198 1.524 . S
C197 H200 0.999 . S
C198 H168 0.950 . S
C198 C197 1.524 . S
C198 C199 1.415 . S
C199 H169 0.950 . S
C199 C194 1.363 . S
C199 C198 1.415 . S
H200 C197 0.999 . S
H201 C182 0.913 . S
H202 C220 0.951 . S
H203 C222 0.951 . S
H204 C224 0.950 . S
H205 C225 0.950 . S
H206 C227 0.950 . S
H207 C230 0.950 . S
H208 C231 0.950 . S
H209 C233 0.950 . S
H210 C234 0.950 . S
H211 C235 0.951 . S
H212 C237 0.951 . S
H213 C239 0.950 . S
H214 C240 0.950 . S
H215 C242 0.950 . S
H216 C245 0.950 . S
H217 C246 0.950 . S
H218 C248 0.950 . S
H219 C249 0.950 . S
C220 H202 0.951 . S
C220 C221 1.366 . S
C220 C222 1.388 . S
C221 C220 1.366 . S
C221 C225 1.385 . S
C222 H203 0.951 . S
C222 C220 1.388 . S
C222 C223 1.366 . S
C223 C222 1.366 . S
C223 C224 1.414 . S
C223 C226 1.499 . S
C224 H204 0.950 . S
C224 C223 1.414 . S
C224 C225 1.374 . S
C225 H205 0.950 . S
C225 C221 1.385 . S
C225 C224 1.374 . S
C226 C223 1.499 . S
C226 C227 1.373 . S
C226 C228 1.389 . S
C227 H206 0.950 . S
C227 C226 1.373 . S
C227 C243 1.377 . S
C228 C226 1.389 . S
C228 C229 1.524 . S
C228 C242 1.377 . S
C229 C228 1.524 . S
C229 C230 1.397 . S
C229 C234 1.363 . S
C230 H207 0.950 . S
C230 C229 1.397 . S
C230 C231 1.334 . S
C231 H208 0.950 . S
C231 C230 1.334 . S
C231 C232 1.287 . S
C232 C231 1.287 . S
C232 C233 1.524 . S
C232 H251 0.913 . S
C233 H209 0.950 . S
C233 C232 1.524 . S
C233 C234 1.415 . S
C234 H210 0.950 . S
C234 C229 1.363 . S
C234 C233 1.415 . S
C235 H211 0.951 . S
C235 C236 1.366 . S
C235 C237 1.388 . S
C236 C235 1.366 . S
C236 C240 1.385 . S
C237 H212 0.951 . S
C237 C235 1.388 . S
C237 C238 1.366 . S
C238 C237 1.366 . S
C238 C239 1.414 . S
C238 C241 1.499 . S
C239 H213 0.950 . S
C239 C238 1.414 . S
C239 C240 1.374 . S
C240 H214 0.950 . S
C240 C236 1.385 . S
C240 C239 1.374 . S
C241 C238 1.499 . S
C241 C242 1.373 . S
C241 C243 1.389 . S
C242 H215 0.950 . S
C242 C228 1.377 . S
C242 C241 1.373 . S
C243 C227 1.377 . S
C243 C241 1.389 . S
C243 C244 1.524 . S
C244 C243 1.524 . S
C244 C245 1.397 . S
C244 C249 1.363 . S
C245 H216 0.950 . S
C245 C244 1.397 . S
C245 C246 1.334 . S
C246 H217 0.950 . S
C246 C245 1.334 . S
C246 C247 1.287 . S
C247 C246 1.287 . S
C247 C248 1.524 . S
C247 H250 0.999 . S
C248 H218 0.950 . S
C248 C247 1.524 . S
C248 C249 1.415 . S
C249 H219 0.950 . S
C249 C244 1.363 . S
C249 C248 1.415 . S
H250 C247 0.999 . S
H251 C232 0.913 . S
H252 C270 0.951 . S
H253 C272 0.951 . S
H254 C274 0.950 . S
H255 C275 0.950 . S
H256 C277 0.950 . S
H257 C280 0.950 . S
H258 C281 0.950 . S
H259 C283 0.950 . S
H260 C284 0.950 . S
H261 C285 0.951 . S
H262 C287 0.951 . S
H263 C289 0.950 . S
H264 C290 0.950 . S
H265 C292 0.950 . S
H266 C295 0.950 . S
H267 C296 0.950 . S
H268 C298 0.950 . S
H269 C299 0.950 . S
C270 H252 0.951 . S
C270 C271 1.366 . S
C270 C272 1.388 . S
C271 C270 1.366 . S
C271 C275 1.385 . S
C272 H253 0.951 . S
C272 C270 1.388 . S
C272 C273 1.366 . S
C273 C272 1.366 . S
C273 C274 1.414 . S
C273 C276 1.499 . S
C274 H254 0.950 . S
C274 C273 1.414 . S
C274 C275 1.374 . S
C275 H255 0.950 . S
C275 C271 1.385 . S
C275 C274 1.374 . S
C276 C273 1.499 . S
C276 C277 1.373 . S
C276 C278 1.389 . S
C277 H256 0.950 . S
C277 C276 1.373 . S
C277 C293 1.377 . S
C278 C276 1.389 . S
C278 C279 1.524 . S
C278 C292 1.377 . S
C279 C278 1.524 . S
C279 C280 1.397 . S
C279 C284 1.363 . S
C280 H257 0.950 . S
C280 C279 1.397 . S
C280 C281 1.334 . S
C281 H258 0.950 . S
C281 C280 1.334 . S
C281 C282 1.287 . S
C282 C281 1.287 . S
C282 C283 1.524 . S
C282 H301 0.913 . S
C283 H259 0.950 . S
C283 C282 1.524 . S
C283 C284 1.415 . S
C284 H260 0.950 . S
C284 C279 1.363 . S
C284 C283 1.415 . S
C285 H261 0.951 . S
C285 C286 1.366 . S
C285 C287 1.388 . S
C286 C285 1.366 . S
C286 C290 1.385 . S
C287 H262 0.951 . S
C287 C285 1.388 . S
C287 C288 1.366 . S
C288 C287 1.366 . S
C288 C289 1.414 . S
C288 C291 1.499 . S
C289 H263 0.950 . S
C289 C288 1.414 . S
C289 C290 1.374 . S
C290 H264 0.950 . S
C290 C286 1.385 . S
C290 C289 1.374 . S
C291 C288 1.499 . S
C291 C292 1.373 . S
C291 C293 1.389 . S
C292 H265 0.950 . S
C292 C278 1.377 . S
C292 C291 1.373 . S
C293 C277 1.377 . S
C293 C291 1.389 . S
C293 C294 1.524 . S
C294 C293 1.524 . S
C294 C295 1.397 . S
C294 C299 1.363 . S
C295 H266 0.950 . S
C295 C294 1.397 . S
C295 C296 1.334 . S
C296 H267 0.950 . S
C296 C295 1.334 . S
C296 C297 1.287 . S
C297 C296 1.287 . S
C297 C298 1.524 . S
C297 H300 0.999 . S
C298 H268 0.950 . S
C298 C297 1.524 . S
C298 C299 1.415 . S
C299 H269 0.950 . S
C299 C294 1.363 . S
C299 C298 1.415 . S
H300 C297 0.999 . S
H301 C282 0.913 . S
H302 C320 0.951 . S
H303 C322 0.951 . S
H304 C324 0.950 . S
H305 C325 0.950 . S
H306 C327 0.950 . S
H307 C330 0.950 . S
H308 C331 0.950 . S
H309 C333 0.950 . S
H310 C334 0.950 . S
H311 C335 0.951 . S
H312 C337 0.951 . S
H313 C339 0.950 . S
H314 C340 0.950 . S
H315 C342 0.950 . S
H316 C345 0.950 . S
H317 C346 0.950 . S
H318 C348 0.950 . S
H319 C349 0.950 . S
C320 H302 0.951 . S
C320 C321 1.366 . S
C320 C322 1.388 . S
C321 C320 1.366 . S
C321 C325 1.385 . S
C322 H303 0.951 . S
C322 C320 1.388 . S
C322 C323 1.366 . S
C323 C322 1.366 . S
C323 C324 1.414 . S
C323 C326 1.499 . S
C324 H304 0.950 . S
C324 C323 1.414 . S
C324 C325 1.374 . S
C325 H305 0.950 . S
C325 C321 1.385 . S
C325 C324 1.374 . S
C326 C323 1.499 . S
C326 C327 1.373 . S
C326 C328 1.389 . S
C327 H306 0.950 . S
C327 C326 1.373 . S
C327 C343 1.377 . S
C328 C326 1.389 . S
C328 C329 1.524 . S
C328 C342 1.377 . S
C329 C328 1.524 . S
C329 C330 1.397 . S
C329 C334 1.363 . S
C330 H307 0.950 . S
C330 C329 1.397 . S
C330 C331 1.334 . S
C331 H308 0.950 . S
C331 C330 1.334 . S
C331 C332 1.287 . S
C332 C331 1.287 . S
C332 C333 1.524 . S
C332 H351 0.913 . S
C333 H309 0.950 . S
C333 C332 1.524 . S
C333 C334 1.415 . S
C334 H310 0.950 . S
C334 C329 1.363 . S
C334 C333 1.415 . S
C335 H311 0.951 . S
C335 C336 1.366 . S
C335 C337 1.388 . S
C336 C335 1.366 . S
C336 C340 1.385 . S
C337 H312 0.951 . S
C337 C335 1.388 . S
C337 C338 1.366 . S
C338 C337 1.366 . S
C338 C339 1.414 . S
C338 C341 1.499 . S
C339 H313 0.950 . S
C339 C338 1.414 . S
C339 C340 1.374 . S
C340 H314 0.950 . S
C340 C336 1.385 . S
C340 C339 1.374 . S
C341 C338 1.499 . S
C341 C342 1.373 . S
C341 C343 1.389 . S
C342 H315 0.950 . S
C342 C328 1.377 . S
C342 C341 1.373 . S
C343 C327 1.377 . S
C343 C341 1.389 . S
C343 C344 1.524 . S
C344 C343 1.524 . S
C344 C345 1.397 . S
C344 C349 1.363 . S
C345 H316 0.950 . S
C345 C344 1.397 . S
C345 C346 1.334 . S
C346 H317 0.950 . S
C346 C345 1.334 . S
C346 C347 1.287 . S
C347 C346 1.287 . S
C347 C348 1.524 . S
C347 H350 0.999 . S
C348 H318 0.950 . S
C348 C347 1.524 . S
C348 C349 1.415 . S
C349 H319 0.950 . S
C349 C344 1.363 . S
C349 C348 1.415 . S
H350 C347 0.999 . S
H351 C332 0.913 . S
H352 C370 0.954 . S
H353 C372 0.951 1_565 S
H354 C374 0.950 . S
H355 C375 0.950 . S
H356 C377 0.950 1_554 S
H357 C380 0.950 . S
H358 C381 0.950 . S
H359 C383 0.950 . S
H360 C384 0.950 . S
H361 C385 0.951 . S
H362 C387 0.951 . S
H363 C389 0.950 . S
H364 C390 0.950 . S
H365 C392 0.950 . S
H366 C395 0.950 . S
H367 C396 0.950 . S
H368 C398 0.950 . S
H369 C399 0.950 . S
C370 H352 0.954 . S
C370 C371 1.366 1_566 S
C370 C372 1.388 1_565 S
C371 C370 1.366 1_544 S
C371 C375 1.384 . S
C372 H353 0.951 1_545 S
C372 C370 1.388 1_545 S
C372 C373 1.369 . S
C373 C372 1.369 . S
C373 C374 1.415 1_556 S
C373 C376 1.498 . S
C374 H354 0.950 . S
C374 C373 1.415 1_554 S
C374 C375 1.374 . S
C375 H355 0.950 . S
C375 C371 1.384 . S
C375 C374 1.374 . S
C376 C373 1.498 . S
C376 C377 1.373 . S
C376 C378 1.389 1_545 S
C377 H356 0.950 1_556 S
C377 C376 1.373 . S
C377 C393 1.377 . S
C378 C376 1.389 1_565 S
C378 C379 1.524 . S
C378 C392 1.377 . S
C379 C378 1.524 . S
C379 C380 1.397 . S
C379 C384 1.363 . S
C380 H357 0.950 . S
C380 C379 1.397 . S
C380 C381 1.334 . S
C381 H358 0.950 . S
C381 C380 1.334 . S
C381 C382 1.287 . S
C382 C381 1.287 . S
C382 C383 1.524 . S
C382 H401 0.913 . S
C383 H359 0.950 . S
C383 C382 1.524 . S
C383 C384 1.415 . S
C384 H360 0.950 . S
C384 C379 1.363 . S
C384 C383 1.415 . S
C385 H361 0.951 . S
C385 C386 1.366 . S
C385 C387 1.388 . S
C386 C385 1.366 . S
C386 C390 1.385 . S
C387 H362 0.951 . S
C387 C385 1.388 . S
C387 C388 1.366 . S
C388 C387 1.366 . S
C388 C389 1.414 . S
C388 C391 1.499 . S
C389 H363 0.950 . S
C389 C388 1.414 . S
C389 C390 1.374 . S
C390 H364 0.950 . S
C390 C386 1.385 . S
C390 C389 1.374 . S
C391 C388 1.499 . S
C391 C392 1.373 1_545 S
C391 C393 1.389 . S
C392 H365 0.950 . S
C392 C378 1.377 . S
C392 C391 1.373 1_565 S
C393 C377 1.377 . S
C393 C391 1.389 . S
C393 C394 1.524 . S
C394 C393 1.524 . S
C394 C395 1.397 . S
C394 C399 1.363 1_556 S
C395 H366 0.950 . S
C395 C394 1.397 . S
C395 C396 1.334 . S
C396 H367 0.950 . S
C396 C395 1.334 . S
C396 C397 1.287 . S
C397 C396 1.287 . S
C397 C398 1.524 1_556 S
C397 H400 0.999 . S
C398 H368 0.950 . S
C398 C397 1.524 1_554 S
C398 C399 1.415 . S
C399 H369 0.950 . S
C399 C394 1.363 1_554 S
C399 C398 1.415 . S
H400 C397 0.999 . S
H401 C382 0.913 . S
H402 C420 0.951 . S
H403 C422 0.951 . S
H404 C424 0.950 . S
H405 C425 0.950 . S
H406 C427 0.950 . S
H407 C430 0.950 . S
H408 C431 0.950 . S
H409 C433 0.950 . S
H410 C434 0.950 1_556 S
H411 C435 0.951 . S
H412 C437 0.951 . S
H413 C439 0.950 . S
H414 C440 0.950 . S
H415 C442 0.950 . S
H416 C445 0.950 . S
H417 C446 0.950 . S
H418 C448 0.950 . S
H419 C449 0.950 . S
C420 H402 0.951 . S
C420 C421 1.366 . S
C420 C422 1.388 1_554 S
C421 C420 1.366 . S
C421 C425 1.385 . S
C422 H403 0.951 . S
C422 C420 1.388 1_556 S
C422 C423 1.366 . S
C423 C422 1.366 . S
C423 C424 1.414 1_556 S
C423 C426 1.499 . S
C424 H404 0.950 . S
C424 C423 1.414 1_554 S
C424 C425 1.374 . S
C425 H405 0.950 . S
C425 C421 1.385 . S
C425 C424 1.374 . S
C426 C423 1.499 . S
C426 C427 1.373 . S
C426 C428 1.389 . S
C427 H406 0.950 . S
C427 C426 1.373 . S
C427 C443 1.377 . S
C428 C426 1.389 . S
C428 C429 1.524 1_556 S
C428 C442 1.377 . S
C429 C428 1.524 1_554 S
C429 C430 1.397 . S
C429 C434 1.363 . S
C430 H407 0.950 . S
C430 C429 1.397 . S
C430 C431 1.334 . S
C431 H408 0.950 . S
C431 C430 1.334 . S
C431 C432 1.287 . S
C432 C431 1.287 . S
C432 C433 1.524 . S
C432 H451 0.913 . S
C433 H409 0.950 . S
C433 C432 1.524 . S
C433 C434 1.415 . S
C434 H410 0.950 1_554 S
C434 C429 1.363 . S
C434 C433 1.415 . S
C435 H411 0.951 . S
C435 C436 1.366 . S
C435 C437 1.388 . S
C436 C435 1.366 . S
C436 C440 1.385 . S
C437 H412 0.951 . S
C437 C435 1.388 . S
C437 C438 1.366 . S
C438 C437 1.366 . S
C438 C439 1.414 . S
C438 C441 1.499 . S
C439 H413 0.950 . S
C439 C438 1.414 . S
C439 C440 1.374 . S
C440 H414 0.950 . S
C440 C436 1.385 . S
C440 C439 1.374 . S
C441 C438 1.499 . S
C441 C442 1.373 . S
C441 C443 1.389 . S
C442 H415 0.950 . S
C442 C428 1.377 . S
C442 C441 1.373 . S
C443 C427 1.377 . S
C443 C441 1.389 . S
C443 C444 1.524 . S
C444 C443 1.524 . S
C444 C445 1.397 . S
C444 C449 1.363 . S
C445 H416 0.950 . S
C445 C444 1.397 . S
C445 C446 1.334 . S
C446 H417 0.950 . S
C446 C445 1.334 . S
C446 C447 1.287 . S
C447 C446 1.287 . S
C447 C448 1.524 . S
C447 H450 0.999 . S
C448 H418 0.950 . S
C448 C447 1.524 . S
C448 C449 1.415 . S
C449 H419 0.950 . S
C449 C444 1.363 . S
C449 C448 1.415 . S
H450 C447 0.999 . S
H451 C432 0.913 . S
H452 C470 0.951 . S
H453 C472 0.951 . S
H454 C474 0.950 . S
H455 C475 0.950 . S
H456 C477 0.950 . S
H457 C480 0.950 . S
H458 C481 0.950 . S
H459 C483 0.950 . S
H460 C484 0.950 . S
H461 C485 0.951 . S
H462 C487 0.951 . S
H463 C489 0.950 . S
H464 C490 0.950 . S
H465 C492 0.950 . S
H466 C495 0.950 . S
H467 C496 0.950 . S
H468 C498 0.950 . S
H469 C499 0.950 . S
C470 H452 0.951 . S
C470 C471 1.366 1_556 S
C470 C472 1.388 . S
C471 C470 1.366 1_554 S
C471 C475 1.385 . S
C472 H453 0.951 . S
C472 C470 1.388 . S
C472 C473 1.366 . S
C473 C472 1.366 . S
C473 C474 1.414 1_556 S
C473 C476 1.499 . S
C474 H454 0.950 . S
C474 C473 1.414 1_554 S
C474 C475 1.374 . S
C475 H455 0.950 . S
C475 C471 1.385 . S
C475 C474 1.374 . S
C476 C473 1.499 . S
C476 C477 1.373 . S
C476 C478 1.389 . S
C477 H456 0.950 . S
C477 C476 1.373 . S
C477 C493 1.377 . S
C478 C476 1.389 . S
C478 C479 1.524 . S
C478 C492 1.377 . S
C479 C478 1.524 . S
C479 C480 1.397 . S
C479 C484 1.363 . S
C480 H457 0.950 . S
C480 C479 1.397 . S
C480 C481 1.334 . S
C481 H458 0.950 . S
C481 C480 1.334 . S
C481 C482 1.287 . S
C482 C481 1.287 . S
C482 C483 1.524 . S
C482 H501 0.913 . S
C483 H459 0.950 . S
C483 C482 1.524 . S
C483 C484 1.415 . S
C484 H460 0.950 . S
C484 C479 1.363 . S
C484 C483 1.415 . S
C485 H461 0.951 . S
C485 C486 1.366 . S
C485 C487 1.388 . S
C486 C485 1.366 . S
C486 C490 1.385 . S
C487 H462 0.951 . S
C487 C485 1.388 . S
C487 C488 1.366 . S
C488 C487 1.366 . S
C488 C489 1.414 . S
C488 C491 1.499 . S
C489 H463 0.950 . S
C489 C488 1.414 . S
C489 C490 1.374 . S
C490 H464 0.950 . S
C490 C486 1.385 . S
C490 C489 1.374 . S
C491 C488 1.499 . S
C491 C492 1.373 . S
C491 C493 1.389 . S
C492 H465 0.950 . S
C492 C478 1.377 . S
C492 C491 1.373 . S
C493 C477 1.377 . S
C493 C491 1.389 . S
C493 C494 1.524 . S
C494 C493 1.524 . S
C494 C495 1.397 . S
C494 C499 1.363 1_556 S
C495 H466 0.950 . S
C495 C494 1.397 . S
C495 C496 1.334 . S
C496 H467 0.950 . S
C496 C495 1.334 . S
C496 C497 1.287 1_556 S
C497 C496 1.287 1_554 S
C497 C498 1.524 . S
C497 H500 0.999 . S
C498 H468 0.950 . S
C498 C497 1.524 . S
C498 C499 1.415 . S
C499 H469 0.950 . S
C499 C494 1.363 1_554 S
C499 C498 1.415 . S
H500 C497 0.999 . S
H501 C482 0.913 . S
H502 C520 0.951 . S
H503 C522 0.951 . S
H504 C524 0.950 . S
H505 C525 0.950 . S
H506 C527 0.950 . S
H507 C530 0.950 . S
H508 C531 0.950 . S
H509 C533 0.950 . S
H510 C534 0.950 1_556 S
H511 C535 0.951 1_455 S
H512 C537 0.951 . S
H513 C539 0.950 . S
H514 C540 0.950 . S
H515 C542 0.950 . S
H516 C545 0.950 . S
H517 C546 0.950 . S
H518 C548 0.950 . S
H519 C549 0.950 . S
C520 H502 0.951 . S
C520 C521 1.366 . S
C520 C522 1.388 . S
C521 C520 1.366 . S
C521 C525 1.385 . S
C522 H503 0.951 . S
C522 C520 1.388 . S
C522 C523 1.366 . S
C523 C522 1.366 . S
C523 C524 1.414 . S
C523 C526 1.499 . S
C524 H504 0.950 . S
C524 C523 1.414 . S
C524 C525 1.374 . S
C525 H505 0.950 . S
C525 C521 1.385 . S
C525 C524 1.374 . S
C526 C523 1.499 . S
C526 C527 1.373 . S
C526 C528 1.389 . S
C527 H506 0.950 . S
C527 C526 1.373 . S
C527 C543 1.377 . S
C528 C526 1.389 . S
C528 C529 1.524 1_556 S
C528 C542 1.377 . S
C529 C528 1.524 1_554 S
C529 C530 1.397 . S
C529 C534 1.363 . S
C530 H507 0.950 . S
C530 C529 1.397 . S
C530 C531 1.334 . S
C531 H508 0.950 . S
C531 C530 1.334 . S
C531 C532 1.287 . S
C532 C531 1.287 . S
C532 C533 1.524 . S
C532 H551 0.913 . S
C533 H509 0.950 . S
C533 C532 1.524 . S
C533 C534 1.415 . S
C534 H510 0.950 1_554 S
C534 C529 1.363 . S
C534 C533 1.415 . S
C535 H511 0.951 1_655 S
C535 C536 1.366 . S
C535 C537 1.388 . S
C536 C535 1.366 . S
C536 C540 1.385 . S
C537 H512 0.951 . S
C537 C535 1.388 . S
C537 C538 1.366 . S
C538 C537 1.366 . S
C538 C539 1.414 . S
C538 C541 1.499 . S
C539 H513 0.950 . S
C539 C538 1.414 . S
C539 C540 1.374 . S
C540 H514 0.950 . S
C540 C536 1.385 . S
C540 C539 1.374 . S
C541 C538 1.499 . S
C541 C542 1.373 . S
C541 C543 1.389 . S
C542 H515 0.950 . S
C542 C528 1.377 . S
C542 C541 1.373 . S
C543 C527 1.377 . S
C543 C541 1.389 . S
C543 C544 1.524 . S
C544 C543 1.524 . S
C544 C545 1.397 . S
C544 C549 1.363 . S
C545 H516 0.950 . S
C545 C544 1.397 . S
C545 C546 1.334 . S
C546 H517 0.950 . S
C546 C545 1.334 . S
C546 C547 1.287 . S
C547 C546 1.287 . S
C547 C548 1.524 . S
C547 H550 0.999 . S
C548 H518 0.950 . S
C548 C547 1.524 . S
C548 C549 1.415 . S
C549 H519 0.950 . S
C549 C544 1.363 . S
C549 C548 1.415 . S
H550 C547 0.999 . S
H551 C532 0.913 . S
H552 C570 0.951 . S
H553 C572 0.951 . S
H554 C574 0.950 . S
H555 C575 0.950 . S
H556 C577 0.950 . S
H557 C580 0.950 . S
H558 C581 0.950 . S
H559 C583 0.950 . S
H560 C584 0.950 . S
H561 C585 0.951 . S
H562 C587 0.951 . S
H563 C589 0.950 . S
H564 C590 0.950 1_655 S
H565 C592 0.950 . S
H566 C595 0.950 . S
H567 C596 0.950 . S
H568 C598 0.950 . S
H569 C599 0.950 . S
C570 H552 0.951 . S
C570 C571 1.366 . S
C570 C572 1.388 . S
C571 C570 1.366 . S
C571 C575 1.385 . S
C572 H553 0.951 . S
C572 C570 1.388 . S
C572 C573 1.366 . S
C573 C572 1.366 . S
C573 C574 1.414 . S
C573 C576 1.499 . S
C574 H554 0.950 . S
C574 C573 1.414 . S
C574 C575 1.374 . S
C575 H555 0.950 . S
C575 C571 1.385 . S
C575 C574 1.374 . S
C576 C573 1.499 . S
C576 C577 1.373 . S
C576 C578 1.389 . S
C577 H556 0.950 . S
C577 C576 1.373 . S
C577 C593 1.377 . S
C578 C576 1.389 . S
C578 C579 1.524 . S
C578 C592 1.377 . S
C579 C578 1.524 . S
C579 C580 1.397 . S
C579 C584 1.363 . S
C580 H557 0.950 . S
C580 C579 1.397 . S
C580 C581 1.334 . S
C581 H558 0.950 . S
C581 C580 1.334 . S
C581 C582 1.287 . S
C582 C581 1.287 . S
C582 C583 1.524 . S
C582 H601 0.913 . S
C583 H559 0.950 . S
C583 C582 1.524 . S
C583 C584 1.415 . S
C584 H560 0.950 . S
C584 C579 1.363 . S
C584 C583 1.415 . S
C585 H561 0.951 . S
C585 C586 1.366 . S
C585 C587 1.388 . S
C586 C585 1.366 . S
C586 C590 1.385 . S
C587 H562 0.951 . S
C587 C585 1.388 . S
C587 C588 1.366 . S
C588 C587 1.366 . S
C588 C589 1.414 . S
C588 C591 1.499 . S
C589 H563 0.950 . S
C589 C588 1.414 . S
C589 C590 1.374 . S
C590 H564 0.950 1_455 S
C590 C586 1.385 . S
C590 C589 1.374 . S
C591 C588 1.499 . S
C591 C592 1.373 . S
C591 C593 1.389 . S
C592 H565 0.950 . S
C592 C578 1.377 . S
C592 C591 1.373 . S
C593 C577 1.377 . S
C593 C591 1.389 . S
C593 C594 1.524 . S
C594 C593 1.524 . S
C594 C595 1.397 . S
C594 C599 1.363 . S
C595 H566 0.950 . S
C595 C594 1.397 . S
C595 C596 1.334 . S
C596 H567 0.950 . S
C596 C595 1.334 . S
C596 C597 1.287 . S
C597 C596 1.287 . S
C597 C598 1.524 . S
C597 H600 0.999 . S
C598 H568 0.950 . S
C598 C597 1.524 . S
C598 C599 1.415 . S
C599 H569 0.950 . S
C599 C594 1.363 . S
C599 C598 1.415 . S
H600 C597 0.999 . S
H601 C582 0.913 . S
H602 C620 0.951 . S
H603 C622 0.951 . S
H604 C624 0.937 1_565 S
H605 C625 0.950 1_565 S
H606 C627 0.950 . S
H607 C630 0.950 . S
H608 C631 0.950 . S
H609 C633 0.950 . S
H610 C634 0.950 . S
H611 C635 0.951 . S
H612 C637 0.951 . S
H613 C639 0.950 . S
H614 C640 0.950 . S
H615 C642 0.950 . S
H616 C645 0.950 . S
H617 C646 0.950 . S
H618 C648 0.950 . S
H619 C649 0.950 . S
C620 H602 0.951 . S
C620 C621 1.366 . S
C620 C622 1.388 . S
C621 C620 1.366 . S
C621 C625 1.385 . S
C622 H603 0.951 . S
C622 C620 1.388 . S
C622 C623 1.366 . S
C623 C622 1.366 . S
C623 C624 1.423 . S
C623 C626 1.499 . S
C624 H604 0.937 1_545 S
C624 C623 1.423 . S
C624 C625 1.380 . S
C625 H605 0.950 1_545 S
C625 C621 1.385 . S
C625 C624 1.380 . S
C626 C623 1.499 . S
C626 C627 1.373 1_545 S
C626 C628 1.389 . S
C627 H606 0.950 . S
C627 C626 1.373 1_565 S
C627 C643 1.377 . S
C628 C626 1.389 . S
C628 C629 1.524 . S
C628 C642 1.377 . S
C629 C628 1.524 . S
C629 C630 1.397 . S
C629 C634 1.363 . S
C630 H607 0.950 . S
C630 C629 1.397 . S
C630 C631 1.334 . S
C631 H608 0.950 . S
C631 C630 1.334 . S
C631 C632 1.287 . S
C632 C631 1.287 . S
C632 C633 1.524 . S
C632 H651 0.913 . S
C633 H609 0.950 . S
C633 C632 1.524 . S
C633 C634 1.415 . S
C634 H610 0.950 . S
C634 C629 1.363 . S
C634 C633 1.415 . S
C635 H611 0.951 . S
C635 C636 1.366 1_565 S
C635 C637 1.388 . S
C636 C635 1.366 1_545 S
C636 C640 1.385 . S
C637 H612 0.951 . S
C637 C635 1.388 . S
C637 C638 1.366 1_565 S
C638 C637 1.366 1_545 S
C638 C639 1.414 . S
C638 C641 1.499 . S
C639 H613 0.950 . S
C639 C638 1.414 . S
C639 C640 1.374 . S
C640 H614 0.950 . S
C640 C636 1.385 . S
C640 C639 1.374 . S
C641 C638 1.499 . S
C641 C642 1.373 . S
C641 C643 1.389 1_545 S
C642 H615 0.950 . S
C642 C628 1.377 . S
C642 C641 1.373 . S
C643 C627 1.377 . S
C643 C641 1.389 1_565 S
C643 C644 1.524 . S
C644 C643 1.524 . S
C644 C645 1.397 . S
C644 C649 1.363 . S
C645 H616 0.950 . S
C645 C644 1.397 . S
C645 C646 1.334 . S
C646 H617 0.950 . S
C646 C645 1.334 . S
C646 C647 1.287 . S
C647 C646 1.287 . S
C647 C648 1.524 . S
C647 H650 0.999 . S
C648 H618 0.950 . S
C648 C647 1.524 . S
C648 C649 1.415 . S
C649 H619 0.950 . S
C649 C644 1.363 . S
C649 C648 1.415 . S
H650 C647 0.999 . S
H651 C632 0.913 . S
H652 C670 0.951 . S
H653 C672 0.951 . S
H654 C674 0.950 . S
H655 C675 0.950 . S
H656 C677 0.950 . S
H657 C680 0.950 . S
H658 C681 0.950 . S
H659 C683 0.950 . S
H660 C684 0.950 . S
H661 C685 0.951 . S
H662 C687 0.951 . S
H663 C689 0.950 . S
H664 C690 0.950 . S
H665 C692 0.950 . S
H666 C695 0.950 . S
H667 C696 0.950 . S
H668 C698 0.950 . S
H669 C699 0.950 . S
C670 H652 0.951 . S
C670 C671 1.366 . S
C670 C672 1.388 . S
C671 C670 1.366 . S
C671 C675 1.385 . S
C672 H653 0.951 . S
C672 C670 1.388 . S
C672 C673 1.366 . S
C673 C672 1.366 . S
C673 C674 1.414 . S
C673 C676 1.499 . S
C674 H654 0.950 . S
C674 C673 1.414 . S
C674 C675 1.374 . S
C675 H655 0.950 . S
C675 C671 1.385 . S
C675 C674 1.374 . S
C676 C673 1.499 . S
C676 C677 1.373 . S
C676 C678 1.389 . S
C677 H656 0.950 . S
C677 C676 1.373 . S
C677 C693 1.377 . S
C678 C676 1.389 . S
C678 C679 1.524 . S
C678 C692 1.377 . S
C679 C678 1.524 . S
C679 C680 1.397 . S
C679 C684 1.363 . S
C680 H657 0.950 . S
C680 C679 1.397 . S
C680 C681 1.334 . S
C681 H658 0.950 . S
C681 C680 1.334 . S
C681 C682 1.287 . S
C682 C681 1.287 . S
C682 C683 1.524 . S
C682 H701 0.913 . S
C683 H659 0.950 . S
C683 C682 1.524 . S
C683 C684 1.415 . S
C684 H660 0.950 . S
C684 C679 1.363 . S
C684 C683 1.415 . S
C685 H661 0.951 . S
C685 C686 1.366 . S
C685 C687 1.388 . S
C686 C685 1.366 . S
C686 C690 1.385 . S
C687 H662 0.951 . S
C687 C685 1.388 . S
C687 C688 1.366 . S
C688 C687 1.366 . S
C688 C689 1.414 . S
C688 C691 1.499 . S
C689 H663 0.950 . S
C689 C688 1.414 . S
C689 C690 1.374 . S
C690 H664 0.950 . S
C690 C686 1.385 . S
C690 C689 1.374 . S
C691 C688 1.499 . S
C691 C692 1.373 . S
C691 C693 1.389 . S
C692 H665 0.950 . S
C692 C678 1.377 . S
C692 C691 1.373 . S
C693 C677 1.377 . S
C693 C691 1.389 . S
C693 C694 1.524 . S
C694 C693 1.524 . S
C694 C695 1.397 . S
C694 C699 1.363 . S
C695 H666 0.950 . S
C695 C694 1.397 . S
C695 C696 1.334 . S
C696 H667 0.950 . S
C696 C695 1.334 . S
C696 C697 1.287 . S
C697 C696 1.287 . S
C697 C698 1.524 . S
C697 H700 0.999 . S
C698 H668 0.950 . S
C698 C697 1.524 . S
C698 C699 1.415 . S
C699 H669 0.950 . S
C699 C694 1.363 . S
C699 C698 1.415 . S
H700 C697 0.999 . S
H701 C682 0.913 . S
H702 C720 0.951 . S
H703 C722 0.951 . S
H704 C724 0.950 . S
H705 C725 0.950 . S
H706 C727 0.950 . S
H707 C730 0.950 . S
H708 C731 0.950 . S
H709 C733 0.950 . S
H710 C734 0.950 . S
H711 C735 0.951 . S
H712 C737 0.951 . S
H713 C739 0.950 . S
H714 C740 0.950 . S
H715 C742 0.950 . S
H716 C745 0.950 . S
H717 C746 0.950 . S
H718 C748 0.950 . S
H719 C749 0.950 . S
C720 H702 0.951 . S
C720 C721 1.366 . S
C720 C722 1.388 . S
C721 C720 1.366 . S
C721 C725 1.385 . S
C722 H703 0.951 . S
C722 C720 1.388 . S
C722 C723 1.366 . S
C723 C722 1.366 . S
C723 C724 1.414 . S
C723 C726 1.499 . S
C724 H704 0.950 . S
C724 C723 1.414 . S
C724 C725 1.374 . S
C725 H705 0.950 . S
C725 C721 1.385 . S
C725 C724 1.374 . S
C726 C723 1.499 . S
C726 C727 1.373 . S
C726 C728 1.389 . S
C727 H706 0.950 . S
C727 C726 1.373 . S
C727 C743 1.377 . S
C728 C726 1.389 . S
C728 C729 1.524 . S
C728 C742 1.377 . S
C729 C728 1.524 . S
C729 C730 1.397 . S
C729 C734 1.363 . S
C730 H707 0.950 . S
C730 C729 1.397 . S
C730 C731 1.334 . S
C731 H708 0.950 . S
C731 C730 1.334 . S
C731 C732 1.287 . S
C732 C731 1.287 . S
C732 C733 1.524 . S
C732 H751 0.913 . S
C733 H709 0.950 . S
C733 C732 1.524 . S
C733 C734 1.415 . S
C734 H710 0.950 . S
C734 C729 1.363 . S
C734 C733 1.415 . S
C735 H711 0.951 . S
C735 C736 1.366 . S
C735 C737 1.388 . S
C736 C735 1.366 . S
C736 C740 1.385 . S
C737 H712 0.951 . S
C737 C735 1.388 . S
C737 C738 1.366 . S
C738 C737 1.366 . S
C738 C739 1.414 . S
C738 C741 1.499 . S
C739 H713 0.950 . S
C739 C738 1.414 . S
C739 C740 1.374 . S
C740 H714 0.950 . S
C740 C736 1.385 . S
C740 C739 1.374 . S
C741 C738 1.499 . S
C741 C742 1.373 . S
C741 C743 1.389 . S
C742 H715 0.950 . S
C742 C728 1.377 . S
C742 C741 1.373 . S
C743 C727 1.377 . S
C743 C741 1.389 . S
C743 C744 1.524 . S
C744 C743 1.524 . S
C744 C745 1.397 . S
C744 C749 1.363 . S
C745 H716 0.950 . S
C745 C744 1.397 . S
C745 C746 1.334 . S
C746 H717 0.950 . S
C746 C745 1.334 . S
C746 C747 1.287 . S
C747 C746 1.287 . S
C747 C748 1.524 . S
C747 H750 0.999 . S
C748 H718 0.950 . S
C748 C747 1.524 . S
C748 C749 1.415 . S
C749 H719 0.950 . S
C749 C744 1.363 . S
C749 C748 1.415 . S
H750 C747 0.999 . S
H751 C732 0.913 . S
H752 C770 0.951 . S
H753 C772 0.951 . S
H754 C774 0.950 . S
H755 C775 0.950 . S
H756 C777 0.950 . S
H757 C780 0.950 1_556 S
H758 C781 0.950 . S
H759 C783 0.950 . S
H760 C784 0.950 1_556 S
H761 C785 0.951 . S
H762 C787 0.951 . S
H763 C789 0.950 . S
H764 C790 0.950 1_455 S
H765 C792 0.950 . S
H766 C795 0.950 . S
H767 C796 0.950 . S
H768 C798 0.950 . S
H769 C799 0.950 . S
C770 H752 0.951 . S
C770 C771 1.366 . S
C770 C772 1.388 . S
C771 C770 1.366 . S
C771 C775 1.385 . S
C772 H753 0.951 . S
C772 C770 1.388 . S
C772 C773 1.366 . S
C773 C772 1.366 . S
C773 C774 1.414 . S
C773 C776 1.499 . S
C774 H754 0.950 . S
C774 C773 1.414 . S
C774 C775 1.374 . S
C775 H755 0.950 . S
C775 C771 1.385 . S
C775 C774 1.374 . S
C776 C773 1.499 . S
C776 C777 1.373 . S
C776 C778 1.389 . S
C777 H756 0.950 . S
C777 C776 1.373 . S
C777 C793 1.377 . S
C778 C776 1.389 . S
C778 C779 1.524 . S
C778 C792 1.377 . S
C779 C778 1.524 . S
C779 C780 1.397 1_556 S
C779 C784 1.363 1_556 S
C780 H757 0.950 1_554 S
C780 C779 1.397 1_554 S
C780 C781 1.334 . S
C781 H758 0.950 . S
C781 C780 1.334 . S
C781 C782 1.287 . S
C782 C781 1.287 . S
C782 C783 1.524 . S
C782 H801 0.913 . S
C783 H759 0.950 . S
C783 C782 1.524 . S
C783 C784 1.415 . S
C784 H760 0.950 1_554 S
C784 C779 1.363 1_554 S
C784 C783 1.415 . S
C785 H761 0.951 . S
C785 C786 1.366 . S
C785 C787 1.388 . S
C786 C785 1.366 . S
C786 C790 1.385 . S
C787 H762 0.951 . S
C787 C785 1.388 . S
C787 C788 1.366 . S
C788 C787 1.366 . S
C788 C789 1.414 . S
C788 C791 1.499 . S
C789 H763 0.950 . S
C789 C788 1.414 . S
C789 C790 1.374 . S
C790 H764 0.950 1_655 S
C790 C786 1.385 . S
C790 C789 1.374 . S
C791 C788 1.499 . S
C791 C792 1.373 . S
C791 C793 1.389 . S
C792 H765 0.950 . S
C792 C778 1.377 . S
C792 C791 1.373 . S
C793 C777 1.377 . S
C793 C791 1.389 . S
C793 C794 1.524 . S
C794 C793 1.524 . S
C794 C795 1.397 . S
C794 C799 1.363 . S
C795 H766 0.950 . S
C795 C794 1.397 . S
C795 C796 1.334 . S
C796 H767 0.950 . S
C796 C795 1.334 . S
C796 C797 1.287 . S
C797 C796 1.287 . S
C797 C798 1.524 . S
C797 H800 0.999 . S
C798 H768 0.950 . S
C798 C797 1.524 . S
C798 C799 1.415 . S
C799 H769 0.950 . S
C799 C794 1.363 . S
C799 C798 1.415 . S
H800 C797 0.999 . S
H801 C782 0.913 . S
H802 C820 0.951 . S
H803 C822 0.951 . S
H804 C824 0.950 . S
H805 C825 0.950 . S
H806 C827 0.950 . S
H807 C830 0.950 . S
H808 C831 0.950 . S
H809 C833 0.950 . S
H810 C834 0.950 . S
H811 C835 0.949 1_565 S
H812 C837 0.961 . S
H813 C839 0.950 . S
H814 C840 0.950 . S
H815 C842 0.950 . S
H816 C845 0.950 . S
H817 C846 0.950 . S
H818 C848 0.950 1_554 S
H819 C849 0.950 1_554 S
C820 H802 0.951 . S
C820 C821 1.365 1_546 S
C820 C822 1.388 . S
C821 C820 1.365 1_564 S
C821 C825 1.385 . S
C822 H803 0.951 . S
C822 C820 1.388 . S
C822 C823 1.366 . S
C823 C822 1.366 . S
C823 C824 1.414 1_546 S
C823 C826 1.499 . S
C824 H804 0.950 . S
C824 C823 1.414 1_564 S
C824 C825 1.374 . S
C825 H805 0.950 . S
C825 C821 1.385 . S
C825 C824 1.374 . S
C826 C823 1.499 . S
C826 C827 1.373 1_545 S
C826 C828 1.389 . S
C827 H806 0.950 . S
C827 C826 1.373 1_565 S
C827 C843 1.377 . S
C828 C826 1.389 . S
C828 C829 1.524 . S
C828 C842 1.377 . S
C829 C828 1.524 . S
C829 C830 1.397 . S
C829 C834 1.363 . S
C830 H807 0.950 . S
C830 C829 1.397 . S
C830 C831 1.334 . S
C831 H808 0.950 . S
C831 C830 1.334 . S
C831 C832 1.287 . S
C832 C831 1.287 . S
C832 C833 1.524 . S
C832 H851 0.913 . S
C833 H809 0.950 . S
C833 C832 1.524 . S
C833 C834 1.415 . S
C834 H810 0.950 . S
C834 C829 1.363 . S
C834 C833 1.415 . S
C835 H811 0.949 1_545 S
C835 C836 1.372 . S
C835 C837 1.380 1_545 S
C836 C835 1.372 . S
C836 C840 1.385 . S
C837 H812 0.961 . S
C837 C835 1.380 1_565 S
C837 C838 1.363 1_565 S
C838 C837 1.363 1_545 S
C838 C839 1.414 . S
C838 C841 1.499 . S
C839 H813 0.950 . S
C839 C838 1.414 . S
C839 C840 1.374 . S
C840 H814 0.950 . S
C840 C836 1.385 . S
C840 C839 1.374 . S
C841 C838 1.499 . S
C841 C842 1.373 . S
C841 C843 1.389 1_545 S
C842 H815 0.950 . S
C842 C828 1.377 . S
C842 C841 1.373 . S
C843 C827 1.377 . S
C843 C841 1.389 1_565 S
C843 C844 1.524 . S
C844 C843 1.524 . S
C844 C845 1.397 . S
C844 C849 1.363 . S
C845 H816 0.950 . S
C845 C844 1.397 . S
C845 C846 1.334 . S
C846 H817 0.950 . S
C846 C845 1.334 . S
C846 C847 1.287 . S
C847 C846 1.287 . S
C847 C848 1.524 . S
C847 H850 0.999 . S
C848 H818 0.950 1_556 S
C848 C847 1.524 . S
C848 C849 1.415 . S
C849 H819 0.950 1_556 S
C849 C844 1.363 . S
C849 C848 1.415 . S
H850 C847 0.999 . S
H851 C832 0.913 . S
H852 C870 0.951 . S
H853 C872 0.951 1_554 S
H854 C874 0.950 . S
H855 C875 0.950 . S
H856 C877 0.950 . S
H857 C880 0.950 . S
H858 C881 0.950 . S
H859 C883 0.950 . S
H860 C884 0.950 . S
H861 C885 0.951 . S
H862 C887 0.951 . S
H863 C889 0.950 . S
H864 C890 0.950 . S
H865 C892 0.950 . S
H866 C895 0.950 . S
H867 C896 0.950 . S
H868 C898 0.950 . S
H869 C899 0.950 . S
C870 H852 0.951 . S
C870 C871 1.364 1_554 S
C870 C872 1.388 1_554 S
C871 C870 1.364 1_556 S
C871 C875 1.389 . S
C872 H853 0.951 1_556 S
C872 C870 1.388 1_556 S
C872 C873 1.366 . S
C873 C872 1.366 . S
C873 C874 1.414 . S
C873 C876 1.499 . S
C874 H854 0.950 . S
C874 C873 1.414 . S
C874 C875 1.374 . S
C875 H855 0.950 . S
C875 C871 1.389 . S
C875 C874 1.374 . S
C876 C873 1.499 . S
C876 C877 1.373 . S
C876 C878 1.389 . S
C877 H856 0.950 . S
C877 C876 1.373 . S
C877 C893 1.377 . S
C878 C876 1.389 . S
C878 C879 1.524 1_556 S
C878 C892 1.377 . S
C879 C878 1.524 1_554 S
C879 C880 1.397 . S
C879 C884 1.363 . S
C880 H857 0.950 . S
C880 C879 1.397 . S
C880 C881 1.334 . S
C881 H858 0.950 . S
C881 C880 1.334 . S
C881 C882 1.287 . S
C882 C881 1.287 . S
C882 C883 1.524 . S
C882 H901 0.913 . S
C883 H859 0.950 . S
C883 C882 1.524 . S
C883 C884 1.415 . S
C884 H860 0.950 . S
C884 C879 1.363 . S
C884 C883 1.415 . S
C885 H861 0.951 . S
C885 C886 1.366 . S
C885 C887 1.388 . S
C886 C885 1.366 . S
C886 C890 1.385 . S
C887 H862 0.951 . S
C887 C885 1.388 . S
C887 C888 1.366 . S
C888 C887 1.366 . S
C888 C889 1.414 . S
C888 C891 1.499 . S
C889 H863 0.950 . S
C889 C888 1.414 . S
C889 C890 1.374 . S
C890 H864 0.950 . S
C890 C886 1.385 . S
C890 C889 1.374 . S
C891 C888 1.499 . S
C891 C892 1.373 . S
C891 C893 1.389 . S
C892 H865 0.950 . S
C892 C878 1.377 . S
C892 C891 1.373 . S
C893 C877 1.377 . S
C893 C891 1.389 . S
C893 C894 1.524 . S
C894 C893 1.524 . S
C894 C895 1.397 . S
C894 C899 1.363 . S
C895 H866 0.950 . S
C895 C894 1.397 . S
C895 C896 1.334 . S
C896 H867 0.950 . S
C896 C895 1.334 . S
C896 C897 1.287 . S
C897 C896 1.287 . S
C897 C898 1.524 . S
C897 H900 0.999 . S
C898 H868 0.950 . S
C898 C897 1.524 . S
C898 C899 1.415 . S
C899 H869 0.950 . S
C899 C894 1.363 . S
C899 C898 1.415 . S
H900 C897 0.999 . S
H901 C882 0.913 . S
H902 C920 0.951 . S
H903 C922 0.951 . S
H904 C924 0.950 . S
H905 C925 0.950 . S
H906 C927 0.950 . S
H907 C930 0.950 1_556 S
H908 C931 0.950 . S
H909 C933 0.950 . S
H910 C934 0.950 . S
H911 C935 0.951 . S
H912 C937 0.951 . S
H913 C939 0.950 . S
H914 C940 0.950 . S
H915 C942 0.950 . S
H916 C945 0.950 . S
H917 C946 0.950 . S
H918 C948 0.950 . S
H919 C949 0.950 . S
C920 H902 0.951 . S
C920 C921 1.366 1_554 S
C920 C922 1.388 1_554 S
C921 C920 1.366 1_556 S
C921 C925 1.385 . S
C922 H903 0.951 . S
C922 C920 1.388 1_556 S
C922 C923 1.366 . S
C923 C922 1.366 . S
C923 C924 1.414 . S
C923 C926 1.499 . S
C924 H904 0.950 . S
C924 C923 1.414 . S
C924 C925 1.374 . S
C925 H905 0.950 . S
C925 C921 1.385 . S
C925 C924 1.374 . S
C926 C923 1.499 . S
C926 C927 1.373 . S
C926 C928 1.389 . S
C927 H906 0.950 . S
C927 C926 1.373 . S
C927 C943 1.377 . S
C928 C926 1.389 . S
C928 C929 1.524 1_556 S
C928 C942 1.377 . S
C929 C928 1.524 1_554 S
C929 C930 1.397 . S
C929 C934 1.363 . S
C930 H907 0.950 1_554 S
C930 C929 1.397 . S
C930 C931 1.334 . S
C931 H908 0.950 . S
C931 C930 1.334 . S
C931 C932 1.287 . S
C932 C931 1.287 . S
C932 C933 1.524 . S
C932 H951 0.913 . S
C933 H909 0.950 . S
C933 C932 1.524 . S
C933 C934 1.415 . S
C934 H910 0.950 . S
C934 C929 1.363 . S
C934 C933 1.415 . S
C935 H911 0.951 . S
C935 C936 1.366 . S
C935 C937 1.388 . S
C936 C935 1.366 . S
C936 C940 1.385 . S
C937 H912 0.951 . S
C937 C935 1.388 . S
C937 C938 1.366 . S
C938 C937 1.366 . S
C938 C939 1.414 . S
C938 C941 1.499 . S
C939 H913 0.950 . S
C939 C938 1.414 . S
C939 C940 1.374 . S
C940 H914 0.950 . S
C940 C936 1.385 . S
C940 C939 1.374 . S
C941 C938 1.499 . S
C941 C942 1.373 . S
C941 C943 1.389 . S
C942 H915 0.950 . S
C942 C928 1.377 . S
C942 C941 1.373 . S
C943 C927 1.377 . S
C943 C941 1.389 . S
C943 C944 1.524 . S
C944 C943 1.524 . S
C944 C945 1.397 . S
C944 C949 1.363 . S
C945 H916 0.950 . S
C945 C944 1.397 . S
C945 C946 1.334 . S
C946 H917 0.950 . S
C946 C945 1.334 . S
C946 C947 1.287 . S
C947 C946 1.287 . S
C947 C948 1.524 . S
C947 H950 0.999 . S
C948 H918 0.950 . S
C948 C947 1.524 . S
C948 C949 1.415 . S
C949 H919 0.950 . S
C949 C944 1.363 . S
C949 C948 1.415 . S
H950 C947 0.999 . S
H951 C932 0.913 . S
H952 C970 0.951 . S
H953 C972 0.951 . S
H954 C974 0.950 . S
H955 C975 0.950 . S
H956 C977 0.950 . S
H957 C980 0.950 . S
H958 C981 0.950 . S
H959 C983 0.950 . S
H960 C984 0.950 . S
H961 C985 0.951 . S
H962 C987 0.951 . S
H963 C989 0.950 . S
H964 C990 0.950 . S
H965 C992 0.946 1_556 S
H966 C995 0.950 . S
H967 C996 0.950 . S
H968 C998 0.947 1_554 S
H969 C999 0.950 . S
C970 H952 0.951 . S
C970 C971 1.366 . S
C970 C972 1.388 . S
C971 C970 1.366 . S
C971 C975 1.385 . S
C972 H953 0.951 . S
C972 C970 1.388 . S
C972 C973 1.366 . S
C973 C972 1.366 . S
C973 C974 1.414 . S
C973 C976 1.499 . S
C974 H954 0.950 . S
C974 C973 1.414 . S
C974 C975 1.374 . S
C975 H955 0.950 . S
C975 C971 1.385 . S
C975 C974 1.374 . S
C976 C973 1.499 . S
C976 C977 1.373 . S
C976 C978 1.389 . S
C977 H956 0.950 . S
C977 C976 1.373 . S
C977 C993 1.377 . S
C978 C976 1.389 . S
C978 C979 1.524 . S
C978 C992 1.377 . S
C979 C978 1.524 . S
C979 C980 1.397 . S
C979 C984 1.363 . S
C980 H957 0.950 . S
C980 C979 1.397 . S
C980 C981 1.334 . S
C981 H958 0.950 . S
C981 C980 1.334 . S
C981 C982 1.287 . S
C982 C981 1.287 . S
C982 C983 1.524 . S
C982 H1001 0.913 . S
C983 H959 0.950 . S
C983 C982 1.524 . S
C983 C984 1.415 . S
C984 H960 0.950 . S
C984 C979 1.363 . S
C984 C983 1.415 . S
C985 H961 0.951 . S
C985 C986 1.366 . S
C985 C987 1.388 . S
C986 C985 1.366 . S
C986 C990 1.385 . S
C987 H962 0.951 . S
C987 C985 1.388 . S
C987 C988 1.366 . S
C988 C987 1.366 . S
C988 C989 1.414 . S
C988 C991 1.499 . S
C989 H963 0.950 . S
C989 C988 1.414 . S
C989 C990 1.374 . S
C990 H964 0.950 . S
C990 C986 1.385 . S
C990 C989 1.374 . S
C991 C988 1.499 . S
C991 C992 1.373 1_556 S
C991 C993 1.389 1_556 S
C992 H965 0.946 1_554 S
C992 C978 1.377 . S
C992 C991 1.373 1_554 S
C993 C977 1.377 . S
C993 C991 1.389 1_554 S
C993 C994 1.524 1_554 S
C994 C993 1.524 1_556 S
C994 C995 1.397 . S
C994 C999 1.363 1_556 S
C995 H966 0.950 . S
C995 C994 1.397 . S
C995 C996 1.334 . S
C996 H967 0.950 . S
C996 C995 1.334 . S
C996 C997 1.287 . S
C997 C996 1.287 . S
C997 C998 1.529 . S
C997 H1000 0.999 . S
C998 H968 0.947 1_556 S
C998 C997 1.529 . S
C998 C999 1.413 1_556 S
C999 H969 0.950 . S
C999 C994 1.363 1_554 S
C999 C998 1.413 1_554 S
H1000 C997 0.999 . S
H1001 C982 0.913 . S
H1002 C1020 0.951 . S
H1003 C1022 0.951 . S
H1004 C1024 0.950 1_565 S
H1005 C1025 0.950 1_565 S
H1006 C1027 0.950 . S
H1007 C1030 0.950 1_554 S
H1008 C1031 0.950 1_554 S
H1009 C1033 0.950 . S
H1010 C1034 0.950 . S
H1011 C1035 0.951 1_565 S
H1012 C1037 0.951 1_565 S
H1013 C1039 0.950 . S
H1014 C1040 0.950 . S
H1015 C1042 0.950 . S
H1016 C1045 0.950 . S
H1017 C1046 0.950 1_556 S
H1018 C1048 0.950 . S
H1019 C1049 0.950 . S
C1020 H1002 0.951 . S
C1020 C1021 1.366 . S
C1020 C1022 1.388 . S
C1021 C1020 1.366 . S
C1021 C1025 1.385 . S
C1022 H1003 0.951 . S
C1022 C1020 1.388 . S
C1022 C1023 1.366 . S
C1023 C1022 1.366 . S
C1023 C1024 1.414 . S
C1023 C1026 1.499 . S
C1024 H1004 0.950 1_545 S
C1024 C1023 1.414 . S
C1024 C1025 1.374 . S
C1025 H1005 0.950 1_545 S
C1025 C1021 1.385 . S
C1025 C1024 1.374 . S
C1026 C1023 1.499 . S
C1026 C1027 1.373 . S
C1026 C1028 1.389 1_544 S
C1027 H1006 0.950 . S
C1027 C1026 1.373 . S
C1027 C1043 1.377 . S
C1028 C1026 1.389 1_566 S
C1028 C1029 1.524 . S
C1028 C1042 1.377 . S
C1029 C1028 1.524 . S
C1029 C1030 1.397 . S
C1029 C1034 1.363 . S
C1030 H1007 0.950 1_556 S
C1030 C1029 1.397 . S
C1030 C1031 1.334 . S
C1031 H1008 0.950 1_556 S
C1031 C1030 1.334 . S
C1031 C1032 1.287 . S
C1032 C1031 1.287 . S
C1032 C1033 1.524 . S
C1032 H1051 0.913 . S
C1033 H1009 0.950 . S
C1033 C1032 1.524 . S
C1033 C1034 1.415 . S
C1034 H1010 0.950 . S
C1034 C1029 1.363 . S
C1034 C1033 1.415 . S
C1035 H1011 0.951 1_545 S
C1035 C1036 1.366 . S
C1035 C1037 1.388 . S
C1036 C1035 1.366 . S
C1036 C1040 1.385 . S
C1037 H1012 0.951 1_545 S
C1037 C1035 1.388 . S
C1037 C1038 1.366 . S
C1038 C1037 1.366 . S
C1038 C1039 1.414 . S
C1038 C1041 1.499 . S
C1039 H1013 0.950 . S
C1039 C1038 1.414 . S
C1039 C1040 1.374 . S
C1040 H1014 0.950 . S
C1040 C1036 1.385 . S
C1040 C1039 1.374 . S
C1041 C1038 1.499 . S
C1041 C1042 1.373 1_545 S
C1041 C1043 1.389 1_556 S
C1042 H1015 0.950 . S
C1042 C1028 1.377 . S
C1042 C1041 1.373 1_565 S
C1043 C1027 1.377 . S
C1043 C1041 1.389 1_554 S
C1043 C1044 1.524 . S
C1044 C1043 1.524 . S
C1044 C1045 1.397 1_554 S
C1044 C1049 1.363 . S
C1045 H1016 0.950 . S
C1045 C1044 1.397 1_556 S
C1045 C1046 1.334 1_556 S
C1046 H1017 0.950 1_554 S
C1046 C1045 1.334 1_554 S
C1046 C1047 1.287 . S
C1047 C1046 1.287 . S
C1047 C1048 1.524 . S
C1047 H1050 0.999 . S
C1048 H1018 0.950 . S
C1048 C1047 1.524 . S
C1048 C1049 1.415 . S
C1049 H1019 0.950 . S
C1049 C1044 1.363 . S
C1049 C1048 1.415 . S
H1050 C1047 0.999 . S
H1051 C1032 0.913 . S
H1052 C1070 0.951 . S
H1053 C1072 0.951 . S
H1054 C1074 0.950 . S
H1055 C1075 0.950 . S
H1056 C1077 0.950 . S
H1057 C1080 0.950 . S
H1058 C1081 0.950 . S
H1059 C1083 0.950 . S
H1060 C1084 0.950 . S
H1061 C1085 0.951 . S
H1062 C1087 0.951 . S
H1063 C1089 0.950 . S
H1064 C1090 0.950 . S
H1065 C1092 0.950 . S
H1066 C1095 0.950 . S
H1067 C1096 0.950 . S
H1068 C1098 0.950 . S
H1069 C1099 0.950 . S
C1070 H1052 0.951 . S
C1070 C1071 1.366 . S
C1070 C1072 1.388 . S
C1071 C1070 1.366 . S
C1071 C1075 1.385 . S
C1072 H1053 0.951 . S
C1072 C1070 1.388 . S
C1072 C1073 1.366 . S
C1073 C1072 1.366 . S
C1073 C1074 1.414 . S
C1073 C1076 1.499 . S
C1074 H1054 0.950 . S
C1074 C1073 1.414 . S
C1074 C1075 1.374 . S
C1075 H1055 0.950 . S
C1075 C1071 1.385 . S
C1075 C1074 1.374 . S
C1076 C1073 1.499 . S
C1076 C1077 1.373 . S
C1076 C1078 1.389 1_554 S
C1077 H1056 0.950 . S
C1077 C1076 1.373 . S
C1077 C1093 1.377 . S
C1078 C1076 1.389 1_556 S
C1078 C1079 1.524 . S
C1078 C1092 1.377 . S
C1079 C1078 1.524 . S
C1079 C1080 1.397 . S
C1079 C1084 1.363 . S
C1080 H1057 0.950 . S
C1080 C1079 1.397 . S
C1080 C1081 1.334 . S
C1081 H1058 0.950 . S
C1081 C1080 1.334 . S
C1081 C1082 1.287 . S
C1082 C1081 1.287 . S
C1082 C1083 1.524 . S
C1082 H1101 0.913 . S
C1083 H1059 0.950 . S
C1083 C1082 1.524 . S
C1083 C1084 1.415 . S
C1084 H1060 0.950 . S
C1084 C1079 1.363 . S
C1084 C1083 1.415 . S
C1085 H1061 0.951 . S
C1085 C1086 1.366 . S
C1085 C1087 1.388 . S
C1086 C1085 1.366 . S
C1086 C1090 1.385 . S
C1087 H1062 0.951 . S
C1087 C1085 1.388 . S
C1087 C1088 1.366 . S
C1088 C1087 1.366 . S
C1088 C1089 1.414 . S
C1088 C1091 1.499 . S
C1089 H1063 0.950 . S
C1089 C1088 1.414 . S
C1089 C1090 1.374 . S
C1090 H1064 0.950 . S
C1090 C1086 1.385 . S
C1090 C1089 1.374 . S
C1091 C1088 1.499 . S
C1091 C1092 1.373 . S
C1091 C1093 1.389 1_556 S
C1092 H1065 0.950 . S
C1092 C1078 1.377 . S
C1092 C1091 1.373 . S
C1093 C1077 1.377 . S
C1093 C1091 1.389 1_554 S
C1093 C1094 1.524 . S
C1094 C1093 1.524 . S
C1094 C1095 1.397 . S
C1094 C1099 1.363 . S
C1095 H1066 0.950 . S
C1095 C1094 1.397 . S
C1095 C1096 1.334 . S
C1096 H1067 0.950 . S
C1096 C1095 1.334 . S
C1096 C1097 1.287 . S
C1097 C1096 1.287 . S
C1097 C1098 1.524 . S
C1097 H1100 0.999 . S
C1098 H1068 0.950 . S
C1098 C1097 1.524 . S
C1098 C1099 1.415 . S
C1099 H1069 0.950 . S
C1099 C1094 1.363 . S
C1099 C1098 1.415 . S
H1100 C1097 0.999 . S
H1101 C1082 0.913 . S
H1102 C1120 0.951 . S
H1103 C1122 0.951 . S
H1104 C1124 0.950 . S
H1105 C1125 0.950 . S
H1106 C1127 0.950 . S
H1107 C1130 0.950 1_554 S
H1108 C1131 0.957 . S
H1109 C1133 0.950 . S
H1110 C1134 0.950 . S
H1111 C1135 0.951 . S
H1112 C1137 0.951 . S
H1113 C1139 0.950 . S
H1114 C1140 0.950 . S
H1115 C1142 0.950 . S
H1116 C1145 0.937 1_556 S
H1117 C1146 0.950 . S
H1118 C1148 0.950 . S
H1119 C1149 0.950 . S
C1120 H1102 0.951 . S
C1120 C1121 1.366 . S
C1120 C1122 1.388 . S
C1121 C1120 1.366 . S
C1121 C1125 1.385 . S
C1122 H1103 0.951 . S
C1122 C1120 1.388 . S
C1122 C1123 1.366 . S
C1123 C1122 1.366 . S
C1123 C1124 1.414 . S
C1123 C1126 1.499 . S
C1124 H1104 0.950 . S
C1124 C1123 1.414 . S
C1124 C1125 1.374 . S
C1125 H1105 0.950 . S
C1125 C1121 1.385 . S
C1125 C1124 1.374 . S
C1126 C1123 1.499 . S
C1126 C1127 1.373 . S
C1126 C1128 1.389 1_554 S
C1127 H1106 0.950 . S
C1127 C1126 1.373 . S
C1127 C1143 1.377 . S
C1128 C1126 1.389 1_556 S
C1128 C1129 1.524 . S
C1128 C1142 1.377 . S
C1129 C1128 1.524 . S
C1129 C1130 1.397 . S
C1129 C1134 1.363 . S
C1130 H1107 0.950 1_556 S
C1130 C1129 1.397 . S
C1130 C1131 1.334 . S
C1131 H1108 0.957 . S
C1131 C1130 1.334 . S
C1131 C1132 1.287 . S
C1132 C1131 1.287 . S
C1132 C1133 1.524 . S
C1132 H1151 0.913 . S
C1133 H1109 0.950 . S
C1133 C1132 1.524 . S
C1133 C1134 1.415 . S
C1134 H1110 0.950 . S
C1134 C1129 1.363 . S
C1134 C1133 1.415 . S
C1135 H1111 0.951 . S
C1135 C1136 1.366 . S
C1135 C1137 1.388 . S
C1136 C1135 1.366 . S
C1136 C1140 1.385 . S
C1137 H1112 0.951 . S
C1137 C1135 1.388 . S
C1137 C1138 1.366 . S
C1138 C1137 1.366 . S
C1138 C1139 1.414 . S
C1138 C1141 1.499 . S
C1139 H1113 0.950 . S
C1139 C1138 1.414 . S
C1139 C1140 1.374 . S
C1140 H1114 0.950 . S
C1140 C1136 1.385 . S
C1140 C1139 1.374 . S
C1141 C1138 1.499 . S
C1141 C1142 1.373 . S
C1141 C1143 1.389 1_556 S
C1142 H1115 0.950 . S
C1142 C1128 1.377 . S
C1142 C1141 1.373 . S
C1143 C1127 1.377 . S
C1143 C1141 1.389 1_554 S
C1143 C1144 1.524 . S
C1144 C1143 1.524 . S
C1144 C1145 1.397 . S
C1144 C1149 1.363 . S
C1145 H1116 0.937 1_554 S
C1145 C1144 1.397 . S
C1145 C1146 1.334 . S
C1146 H1117 0.950 . S
C1146 C1145 1.334 . S
C1146 C1147 1.287 . S
C1147 C1146 1.287 . S
C1147 C1148 1.524 . S
C1147 H1150 0.999 . S
C1148 H1118 0.950 . S
C1148 C1147 1.524 . S
C1148 C1149 1.415 . S
C1149 H1119 0.950 . S
C1149 C1144 1.363 . S
C1149 C1148 1.415 . S
H1150 C1147 0.999 . S
H1151 C1132 0.913 . S
H1152 C1170 0.951 . S
H1153 C1172 0.951 . S
H1154 C1174 0.950 . S
H1155 C1175 0.950 . S
H1156 C1177 0.950 . S
H1157 C1180 0.950 . S
H1158 C1181 0.950 . S
H1159 C1183 0.950 . S
H1160 C1184 0.950 . S
H1161 C1185 0.951 . S
H1162 C1187 0.951 . S
H1163 C1189 0.950 . S
H1164 C1190 0.950 . S
H1165 C1192 0.950 . S
H1166 C1195 0.950 . S
H1167 C1196 0.960 . S
H1168 C1198 0.950 . S
H1169 C1199 0.950 . S
C1170 H1152 0.951 . S
C1170 C1171 1.366 . S
C1170 C1172 1.388 . S
C1171 C1170 1.366 . S
C1171 C1175 1.385 . S
C1172 H1153 0.951 . S
C1172 C1170 1.388 . S
C1172 C1173 1.366 . S
C1173 C1172 1.366 . S
C1173 C1174 1.414 . S
C1173 C1176 1.499 . S
C1174 H1154 0.950 . S
C1174 C1173 1.414 . S
C1174 C1175 1.374 . S
C1175 H1155 0.950 . S
C1175 C1171 1.385 . S
C1175 C1174 1.374 . S
C1176 C1173 1.499 . S
C1176 C1177 1.373 . S
C1176 C1178 1.389 . S
C1177 H1156 0.950 . S
C1177 C1176 1.373 . S
C1177 C1193 1.377 . S
C1178 C1176 1.389 . S
C1178 C1179 1.524 . S
C1178 C1192 1.377 . S
C1179 C1178 1.524 . S
C1179 C1180 1.397 . S
C1179 C1184 1.363 . S
C1180 H1157 0.950 . S
C1180 C1179 1.397 . S
C1180 C1181 1.334 . S
C1181 H1158 0.950 . S
C1181 C1180 1.334 . S
C1181 C1182 1.287 . S
C1182 C1181 1.287 . S
C1182 C1183 1.524 . S
C1182 H1201 0.913 . S
C1183 H1159 0.950 . S
C1183 C1182 1.524 . S
C1183 C1184 1.415 . S
C1184 H1160 0.950 . S
C1184 C1179 1.363 . S
C1184 C1183 1.415 . S
C1185 H1161 0.951 . S
C1185 C1186 1.366 . S
C1185 C1187 1.388 . S
C1186 C1185 1.366 . S
C1186 C1190 1.385 . S
C1187 H1162 0.951 . S
C1187 C1185 1.388 . S
C1187 C1188 1.366 . S
C1188 C1187 1.366 . S
C1188 C1189 1.414 . S
C1188 C1191 1.499 . S
C1189 H1163 0.950 . S
C1189 C1188 1.414 . S
C1189 C1190 1.374 . S
C1190 H1164 0.950 . S
C1190 C1186 1.385 . S
C1190 C1189 1.374 . S
C1191 C1188 1.499 . S
C1191 C1192 1.373 . S
C1191 C1193 1.389 . S
C1192 H1165 0.950 . S
C1192 C1178 1.377 . S
C1192 C1191 1.373 . S
C1193 C1177 1.377 . S
C1193 C1191 1.389 . S
C1193 C1194 1.524 . S
C1194 C1193 1.524 . S
C1194 C1195 1.397 . S
C1194 C1199 1.363 . S
C1195 H1166 0.950 . S
C1195 C1194 1.397 . S
C1195 C1196 1.334 . S
C1196 H1167 0.960 . S
C1196 C1195 1.334 . S
C1196 C1197 1.287 . S
C1197 C1196 1.287 . S
C1197 C1198 1.524 . S
C1197 H1200 0.999 . S
C1198 H1168 0.950 . S
C1198 C1197 1.524 . S
C1198 C1199 1.415 . S
C1199 H1169 0.950 . S
C1199 C1194 1.363 . S
C1199 C1198 1.415 . S
H1200 C1197 0.999 . S
H1201 C1182 0.913 . S
H1202 C1220 0.951 . S
H1203 C1222 0.951 . S
H1204 C1224 0.950 . S
H1205 C1225 0.950 . S
H1206 C1227 0.950 . S
H1207 C1230 0.950 . S
H1208 C1231 0.950 . S
H1209 C1233 0.950 . S
H1210 C1234 0.950 . S
H1211 C1235 0.951 . S
H1212 C1237 0.951 . S
H1213 C1239 0.950 . S
H1214 C1240 0.950 . S
H1215 C1242 0.950 . S
H1216 C1245 0.950 . S
H1217 C1246 0.950 . S
H1218 C1248 0.950 . S
H1219 C1249 0.950 . S
C1220 H1202 0.951 . S
C1220 C1221 1.363 . S
C1220 C1222 1.388 . S
C1221 C1220 1.363 . S
C1221 C1225 1.387 1_545 S
C1222 H1203 0.951 . S
C1222 C1220 1.388 . S
C1222 C1223 1.366 . S
C1223 C1222 1.366 . S
C1223 C1224 1.414 1_545 S
C1223 C1226 1.499 . S
C1224 H1204 0.950 . S
C1224 C1223 1.414 1_565 S
C1224 C1225 1.374 . S
C1225 H1205 0.950 . S
C1225 C1221 1.387 1_565 S
C1225 C1224 1.374 . S
C1226 C1223 1.499 . S
C1226 C1227 1.373 1_545 S
C1226 C1228 1.389 . S
C1227 H1206 0.950 . S
C1227 C1226 1.373 1_565 S
C1227 C1243 1.377 . S
C1228 C1226 1.389 . S
C1228 C1229 1.524 . S
C1228 C1242 1.377 . S
C1229 C1228 1.524 . S
C1229 C1230 1.397 . S
C1229 C1234 1.363 . S
C1230 H1207 0.950 . S
C1230 C1229 1.397 . S
C1230 C1231 1.334 . S
C1231 H1208 0.950 . S
C1231 C1230 1.334 . S
C1231 C1232 1.287 . S
C1232 C1231 1.287 . S
C1232 C1233 1.524 . S
C1232 H1251 0.913 . S
C1233 H1209 0.950 . S
C1233 C1232 1.524 . S
C1233 C1234 1.415 . S
C1234 H1210 0.950 . S
C1234 C1229 1.363 . S
C1234 C1233 1.415 . S
C1235 H1211 0.951 . S
C1235 C1236 1.366 1_565 S
C1235 C1237 1.388 . S
C1236 C1235 1.366 1_545 S
C1236 C1240 1.385 . S
C1237 H1212 0.951 . S
C1237 C1235 1.388 . S
C1237 C1238 1.364 . S
C1238 C1237 1.364 . S
C1238 C1239 1.416 1_565 S
C1238 C1241 1.498 1_565 S
C1239 H1213 0.950 . S
C1239 C1238 1.416 1_545 S
C1239 C1240 1.374 . S
C1240 H1214 0.950 . S
C1240 C1236 1.385 . S
C1240 C1239 1.374 . S
C1241 C1238 1.498 1_545 S
C1241 C1242 1.373 . S
C1241 C1243 1.390 1_545 S
C1242 H1215 0.950 . S
C1242 C1228 1.377 . S
C1242 C1241 1.373 . S
C1243 C1227 1.377 . S
C1243 C1241 1.390 1_565 S
C1243 C1244 1.524 . S
C1244 C1243 1.524 . S
C1244 C1245 1.397 . S
C1244 C1249 1.363 . S
C1245 H1216 0.950 . S
C1245 C1244 1.397 . S
C1245 C1246 1.334 . S
C1246 H1217 0.950 . S
C1246 C1245 1.334 . S
C1246 C1247 1.287 . S
C1247 C1246 1.287 . S
C1247 C1248 1.524 . S
C1247 H1250 0.999 . S
C1248 H1218 0.950 . S
C1248 C1247 1.524 . S
C1248 C1249 1.415 . S
C1249 H1219 0.950 . S
C1249 C1244 1.363 . S
C1249 C1248 1.415 . S
H1250 C1247 0.999 . S
H1251 C1232 0.913 . S
H1252 C1270 0.951 . S
H1253 C1272 0.951 . S
H1254 C1274 0.950 . S
H1255 C1275 0.950 . S
H1256 C1277 0.950 . S
H1257 C1280 0.950 . S
H1258 C1281 0.950 . S
H1259 C1283 0.950 . S
H1260 C1284 0.950 . S
H1261 C1285 0.951 . S
H1262 C1287 0.951 . S
H1263 C1289 0.950 . S
H1264 C1290 0.950 . S
H1265 C1292 0.950 . S
H1266 C1295 0.950 . S
H1267 C1296 0.950 . S
H1268 C1298 0.950 . S
H1269 C1299 0.950 . S
C1270 H1252 0.951 . S
C1270 C1271 1.366 . S
C1270 C1272 1.388 . S
C1271 C1270 1.366 . S
C1271 C1275 1.385 . S
C1272 H1253 0.951 . S
C1272 C1270 1.388 . S
C1272 C1273 1.366 . S
C1273 C1272 1.366 . S
C1273 C1274 1.414 . S
C1273 C1276 1.499 . S
C1274 H1254 0.950 . S
C1274 C1273 1.414 . S
C1274 C1275 1.374 . S
C1275 H1255 0.950 . S
C1275 C1271 1.385 . S
C1275 C1274 1.374 . S
C1276 C1273 1.499 . S
C1276 C1277 1.373 . S
C1276 C1278 1.389 . S
C1277 H1256 0.950 . S
C1277 C1276 1.373 . S
C1277 C1293 1.377 . S
C1278 C1276 1.389 . S
C1278 C1279 1.524 . S
C1278 C1292 1.377 . S
C1279 C1278 1.524 . S
C1279 C1280 1.397 . S
C1279 C1284 1.363 . S
C1280 H1257 0.950 . S
C1280 C1279 1.397 . S
C1280 C1281 1.334 . S
C1281 H1258 0.950 . S
C1281 C1280 1.334 . S
C1281 C1282 1.287 . S
C1282 C1281 1.287 . S
C1282 C1283 1.524 . S
C1282 H1301 0.913 . S
C1283 H1259 0.950 . S
C1283 C1282 1.524 . S
C1283 C1284 1.415 . S
C1284 H1260 0.950 . S
C1284 C1279 1.363 . S
C1284 C1283 1.415 . S
C1285 H1261 0.951 . S
C1285 C1286 1.366 . S
C1285 C1287 1.388 . S
C1286 C1285 1.366 . S
C1286 C1290 1.385 . S
C1287 H1262 0.951 . S
C1287 C1285 1.388 . S
C1287 C1288 1.366 . S
C1288 C1287 1.366 . S
C1288 C1289 1.414 . S
C1288 C1291 1.499 . S
C1289 H1263 0.950 . S
C1289 C1288 1.414 . S
C1289 C1290 1.374 . S
C1290 H1264 0.950 . S
C1290 C1286 1.385 . S
C1290 C1289 1.374 . S
C1291 C1288 1.499 . S
C1291 C1292 1.373 . S
C1291 C1293 1.389 . S
C1292 H1265 0.950 . S
C1292 C1278 1.377 . S
C1292 C1291 1.373 . S
C1293 C1277 1.377 . S
C1293 C1291 1.389 . S
C1293 C1294 1.524 . S
C1294 C1293 1.524 . S
C1294 C1295 1.397 . S
C1294 C1299 1.363 . S
C1295 H1266 0.950 . S
C1295 C1294 1.397 . S
C1295 C1296 1.334 . S
C1296 H1267 0.950 . S
C1296 C1295 1.334 . S
C1296 C1297 1.287 . S
C1297 C1296 1.287 . S
C1297 C1298 1.524 . S
C1297 H1300 0.999 . S
C1298 H1268 0.950 . S
C1298 C1297 1.524 . S
C1298 C1299 1.415 . S
C1299 H1269 0.950 . S
C1299 C1294 1.363 . S
C1299 C1298 1.415 . S
H1300 C1297 0.999 . S
H1301 C1282 0.913 . S
H1302 C1320 0.951 . S
H1303 C1322 0.951 . S
H1304 C1324 0.950 . S
H1305 C1325 0.950 . S
H1306 C1327 0.950 . S
H1307 C1330 0.950 . S
H1308 C1331 0.950 . S
H1309 C1333 0.950 . S
H1310 C1334 0.950 . S
H1311 C1335 0.951 . S
H1312 C1337 0.951 . S
H1313 C1339 0.950 . S
H1314 C1340 0.950 . S
H1315 C1342 0.950 . S
H1316 C1345 0.950 . S
H1317 C1346 0.950 . S
H1318 C1348 0.950 . S
H1319 C1349 0.950 . S
C1320 H1302 0.951 . S
C1320 C1321 1.366 . S
C1320 C1322 1.388 . S
C1321 C1320 1.366 . S
C1321 C1325 1.385 . S
C1322 H1303 0.951 . S
C1322 C1320 1.388 . S
C1322 C1323 1.366 . S
C1323 C1322 1.366 . S
C1323 C1324 1.414 . S
C1323 C1326 1.499 . S
C1324 H1304 0.950 . S
C1324 C1323 1.414 . S
C1324 C1325 1.374 . S
C1325 H1305 0.950 . S
C1325 C1321 1.385 . S
C1325 C1324 1.374 . S
C1326 C1323 1.499 . S
C1326 C1327 1.373 . S
C1326 C1328 1.389 . S
C1327 H1306 0.950 . S
C1327 C1326 1.373 . S
C1327 C1343 1.377 . S
C1328 C1326 1.389 . S
C1328 C1329 1.524 . S
C1328 C1342 1.377 . S
C1329 C1328 1.524 . S
C1329 C1330 1.397 . S
C1329 C1334 1.363 . S
C1330 H1307 0.950 . S
C1330 C1329 1.397 . S
C1330 C1331 1.334 . S
C1331 H1308 0.950 . S
C1331 C1330 1.334 . S
C1331 C1332 1.287 . S
C1332 C1331 1.287 . S
C1332 C1333 1.524 . S
C1332 H1351 0.913 . S
C1333 H1309 0.950 . S
C1333 C1332 1.524 . S
C1333 C1334 1.415 . S
C1334 H1310 0.950 . S
C1334 C1329 1.363 . S
C1334 C1333 1.415 . S
C1335 H1311 0.951 . S
C1335 C1336 1.366 . S
C1335 C1337 1.388 . S
C1336 C1335 1.366 . S
C1336 C1340 1.385 . S
C1337 H1312 0.951 . S
C1337 C1335 1.388 . S
C1337 C1338 1.366 . S
C1338 C1337 1.366 . S
C1338 C1339 1.414 . S
C1338 C1341 1.499 . S
C1339 H1313 0.950 . S
C1339 C1338 1.414 . S
C1339 C1340 1.374 . S
C1340 H1314 0.950 . S
C1340 C1336 1.385 . S
C1340 C1339 1.374 . S
C1341 C1338 1.499 . S
C1341 C1342 1.373 . S
C1341 C1343 1.389 . S
C1342 H1315 0.950 . S
C1342 C1328 1.377 . S
C1342 C1341 1.373 . S
C1343 C1327 1.377 . S
C1343 C1341 1.389 . S
C1343 C1344 1.524 . S
C1344 C1343 1.524 . S
C1344 C1345 1.397 . S
C1344 C1349 1.363 . S
C1345 H1316 0.950 . S
C1345 C1344 1.397 . S
C1345 C1346 1.334 . S
C1346 H1317 0.950 . S
C1346 C1345 1.334 . S
C1346 C1347 1.287 . S
C1347 C1346 1.287 . S
C1347 C1348 1.524 . S
C1347 H1350 0.999 . S
C1348 H1318 0.950 . S
C1348 C1347 1.524 . S
C1348 C1349 1.415 . S
C1349 H1319 0.950 . S
C1349 C1344 1.363 . S
C1349 C1348 1.415 . S
H1350 C1347 0.999 . S
H1351 C1332 0.913 . S
C171 C61 1.387 . S
C186 C73 1.401 . S
C236 C108 1.779 . S
C221 C70 1.728 . S
C286 C113 1.227 . S
C271 C43 1.221 . S
C336 C133 1.567 . S
C321 C52 1.517 . S
C386 C81 1.400 . S
C371 C25 1.389 1_545 S
C421 C34 1.719 . S
C436 C98 1.779 . S
C471 C7 1.219 . S
C486 C121 1.228 . S
C521 C16 1.525 1_556 S
C536 C141 1.567 . S
C586 C91 0.902 . S
C571 C50 0.892 . S
C636 C100 0.543 1_545 S
C621 C59 0.518 . S
C686 C131 1.047 . S
C671 C67 1.036 . S
C721 C41 0.657 . S
C736 C151 0.669 . S
C771 C14 0.897 . S
C786 C80 0.900 . S
C836 C111 0.540 . S
C821 C23 0.516 . S
C886 C120 1.045 . S
C871 C31 1.029 1_556 S
C921 C5 0.659 1_556 S
C936 C140 0.669 . S
C971 C49 1.649 . S
C986 C78 1.682 . S
C1021 C58 1.303 . S
C1036 C101 1.355 . S
C1086 C118 1.705 . S
C1071 C68 1.656 . S
C1136 C138 1.564 . S
C1121 C40 1.539 . S
C1171 C13 1.652 . S
C1186 C88 1.683 . S
C1236 C93 1.356 . S
C1221 C22 1.304 1_545 S
C1286 C128 1.705 . S
C1271 C32 1.647 . S
C1321 C4 1.538 . S
C1336 C148 1.564 . S
