# Generated by pormake.
# Topology zzz, (3,6)-cn, num edge types: 1
# Building blocks:
#     Node 0, Type 0, BuildingBlock: VETTIZ_charged_linker_0, # of connection points: 3
#     Node 1, Type 0, BuildingBlock: VETTIZ_charged_linker_0, # of connection points: 3
#     Node 2, Type 0, BuildingBlock: VETTIZ_charged_linker_0, # of connection points: 3
#     Node 3, Type 0, BuildingBlock: VETTIZ_charged_linker_0, # of connection points: 3
#     Node 4, Type 0, BuildingBlock: VETTIZ_charged_linker_0, # of connection points: 3
#     Node 5, Type 0, BuildingBlock: VETTIZ_charged_linker_0, # of connection points: 3
#     Node 6, Type 0, BuildingBlock: VETTIZ_charged_linker_0, # of connection points: 3
#     Node 7, Type 0, BuildingBlock: VETTIZ_charged_linker_0, # of connection points: 3
#     Node 8, Type 1, BuildingBlock: KUMBOL_clean_sbu_1, # of connection points: 6
#     Node 9, Type 1, BuildingBlock: KUMBOL_clean_sbu_1, # of connection points: 6
#     Node 10, Type 1, BuildingBlock: KUMBOL_clean_sbu_1, # of connection points: 6
#     Node 11, Type 1, BuildingBlock: KUMBOL_clean_sbu_1, # of connection points: 6
#     Edge 12, Type (0, 1), BuildingBlock: CIFDUS_clean_linker_0, # of connection points: 2
#     Edge 13, Type (0, 1), BuildingBlock: CIFDUS_clean_linker_0, # of connection points: 2
#     Edge 14, Type (0, 1), BuildingBlock: CIFDUS_clean_linker_0, # of connection points: 2
#     Edge 15, Type (0, 1), BuildingBlock: CIFDUS_clean_linker_0, # of connection points: 2
#     Edge 16, Type (0, 1), BuildingBlock: CIFDUS_clean_linker_0, # of connection points: 2
#     Edge 17, Type (0, 1), BuildingBlock: CIFDUS_clean_linker_0, # of connection points: 2
#     Edge 18, Type (0, 1), BuildingBlock: CIFDUS_clean_linker_0, # of connection points: 2
#     Edge 19, Type (0, 1), BuildingBlock: CIFDUS_clean_linker_0, # of connection points: 2
#     Edge 20, Type (0, 1), BuildingBlock: CIFDUS_clean_linker_0, # of connection points: 2
#     Edge 21, Type (0, 1), BuildingBlock: CIFDUS_clean_linker_0, # of connection points: 2
#     Edge 22, Type (0, 1), BuildingBlock: CIFDUS_clean_linker_0, # of connection points: 2
#     Edge 23, Type (0, 1), BuildingBlock: CIFDUS_clean_linker_0, # of connection points: 2
#     Edge 24, Type (0, 1), BuildingBlock: CIFDUS_clean_linker_0, # of connection points: 2
#     Edge 25, Type (0, 1), BuildingBlock: CIFDUS_clean_linker_0, # of connection points: 2
#     Edge 26, Type (0, 1), BuildingBlock: CIFDUS_clean_linker_0, # of connection points: 2
#     Edge 27, Type (0, 1), BuildingBlock: CIFDUS_clean_linker_0, # of connection points: 2
#     Edge 28, Type (0, 1), BuildingBlock: CIFDUS_clean_linker_0, # of connection points: 2
#     Edge 29, Type (0, 1), BuildingBlock: CIFDUS_clean_linker_0, # of connection points: 2
#     Edge 30, Type (0, 1), BuildingBlock: CIFDUS_clean_linker_0, # of connection points: 2
#     Edge 31, Type (0, 1), BuildingBlock: CIFDUS_clean_linker_0, # of connection points: 2
#     Edge 32, Type (0, 1), BuildingBlock: CIFDUS_clean_linker_0, # of connection points: 2
#     Edge 33, Type (0, 1), BuildingBlock: CIFDUS_clean_linker_0, # of connection points: 2
#     Edge 34, Type (0, 1), BuildingBlock: CIFDUS_clean_linker_0, # of connection points: 2
#     Edge 35, Type (0, 1), BuildingBlock: CIFDUS_clean_linker_0, # of connection points: 2
# Relax obj value: 0.336
# Max RMSD: 0.210
# Mean RMSD: 0.186
data_MOF--net-zzz--node1-KUMBOL_clean_sbu_1--node2-VETTIZ_charged_linker_0--edge1-CIFDUS_clean_linker_0
_symmetry_space_group_name_H-M    P1
_symmetry_Int_Tables_number       1
_symmetry_cell_setting            triclinic
loop_
_symmetry_equiv_pos_as_xyz
'x, y, z'
_cell_length_a     50.043657
_cell_length_b     50.207589
_cell_length_c     18.693318
_cell_angle_alpha  90.2579
_cell_angle_beta   90.196295
_cell_angle_gamma 90.414597
loop_
_atom_site_label
_atom_site_type_symbol
_atom_site_fract_x
_atom_site_fract_y
_atom_site_fract_z
_atom_type_partial_charge
C0 C 0.81663 0.5415 0.37468 0.0
C1 C 0.83962 0.55513 0.40318 0.0
C2 C 0.84546 0.58086 0.37787 0.0
C3 C 0.81127 0.57661 0.28747 0.0
C4 C 0.8021 0.5533 0.31696 0.0
C5 C 0.77543 0.5454 0.28077 0.0
H6 H 0.68907 0.57581 0.99793 0.0
C7 C 0.79515 0.58345 0.22532 0.0
C8 C 0.77251 0.56675 0.22174 0.0
H9 H 0.67464 0.51408 0.15303 0.0
H10 H 0.71664 0.5263 0.21502 0.0
H11 H 0.71216 0.62152 0.10218 0.0
H12 H 0.73793 0.56348 0.95893 0.0
H13 H 0.76967 0.57681 0.9789 0.0
H14 H 0.74437 0.59705 0.93668 0.0
H15 H 0.71127 0.62097 1.00602 0.0
H16 H 0.73918 0.6354 0.05408 0.0
C17 C 0.75294 0.54738 0.33638 0.0
C18 C 0.77759 0.51726 0.24872 0.0
C19 C 0.84446 0.61595 1.01007 0.0
C20 C 0.83537 0.62013 0.93959 0.0
C21 C 0.80856 0.62772 0.92921 0.0
C22 C 0.79028 0.6261 0.98571 0.0
C23 C 0.7989 0.61612 0.05181 0.0
C24 C 0.82582 0.6138 0.0654 0.0
C25 C 0.83131 0.60526 0.14101 0.0
C26 C 0.80276 0.59936 0.16662 0.0
C27 C 0.78426 0.60406 0.11204 0.0
C28 C 0.84526 0.62877 0.18028 0.0
C29 C 0.8488 0.57996 0.14106 0.0
C30 C 0.69461 0.5646 0.04502 0.0
C31 C 0.67833 0.54372 0.06922 0.0
C32 C 0.68662 0.53034 0.13241 0.0
C33 C 0.71094 0.53741 0.16844 0.0
C34 C 0.72719 0.55817 0.14151 0.0
C35 C 0.7186 0.57103 0.08018 0.0
C36 C 0.73818 0.59119 0.05356 0.0
C37 C 0.75958 0.58987 0.11099 0.0
C38 C 0.7536 0.57049 0.16375 0.0
C39 C 0.72454 0.61879 0.05339 0.0
C40 C 0.74813 0.58189 0.97845 0.0
H41 H 0.83416 0.61236 0.30823 0.0
H42 H 0.81032 0.52256 0.39654 0.0
H43 H 0.79473 0.5162 0.21114 0.0
H44 H 0.75928 0.51167 0.21872 0.0
H45 H 0.78072 0.50233 0.29159 0.0
H46 H 0.75301 0.56743 0.36189 0.0
H47 H 0.75566 0.53228 0.37903 0.0
H48 H 0.73305 0.54429 0.31193 0.0
H49 H 0.86511 0.61113 0.02071 0.0
H50 H 0.80124 0.6324 0.87618 0.0
H51 H 0.76986 0.63104 0.97501 0.0
H52 H 0.85713 0.64133 0.143 0.0
H53 H 0.86004 0.62172 0.22012 0.0
H54 H 0.83045 0.64192 0.20668 0.0
H55 H 0.83911 0.56375 0.10935 0.0
H56 H 0.85222 0.57253 0.19597 0.0
H57 H 0.86884 0.58406 0.11818 0.0
H58 H 0.86147 0.59255 0.40185 0.0
C59 C 0.83085 0.59189 0.32186 0.0
C60 C 0.90976 0.82957 0.92368 0.0
C61 C 0.91277 0.85746 0.92131 0.0
C62 C 0.91339 0.87141 0.9872 0.0
C63 C 0.9212 0.83014 0.04969 0.0
C64 C 0.91568 0.81628 0.98755 0.0
C65 C 0.92249 0.78728 0.994 0.0
H66 H 0.99528 0.68962 0.13991 0.0
C67 C 0.93435 0.81172 0.1003 0.0
C68 C 0.93525 0.7866 0.06828 0.0
H69 H 0.94088 0.68809 0.95917 0.0
H70 H 0.92709 0.73196 0.98615 0.0
H71 H 0.01632 0.75768 0.13295 0.0
H72 H 0.9478 0.72675 0.25009 0.0
H73 H 0.97178 0.74567 0.30019 0.0
H74 H 0.98059 0.71342 0.26606 0.0
H75 H 0.02058 0.73092 0.19578 0.0
H76 H 0.01524 0.76432 0.22721 0.0
C77 C 0.94282 0.78048 0.93387 0.0
C78 C 0.89588 0.77116 0.99087 0.0
C79 C 0.97406 0.85407 0.32096 0.0
C80 C 0.98919 0.84584 0.37964 0.0
C81 C 0.9968 0.8186 0.38191 0.0
C82 C 0.98978 0.80046 0.32538 0.0
C83 C 0.97444 0.80941 0.26662 0.0
C84 C 0.96679 0.83594 0.26691 0.0
C85 C 0.95026 0.84312 0.20377 0.0
C86 C 0.94826 0.81669 0.16515 0.0
C87 C 0.96278 0.79634 0.19996 0.0
C88 C 0.9661 0.86438 0.1602 0.0
C89 C 0.92252 0.85231 0.23122 0.0
C90 C 0.9807 0.69917 0.10591 0.0
C91 C 0.96955 0.68517 0.04565 0.0
C92 C 0.94998 0.69805 1.00484 0.0
C93 C 0.94189 0.72381 0.0207 0.0
C94 C 0.95366 0.738 0.07751 0.0
C95 C 0.972 0.72577 0.12157 0.0
C96 C 0.97929 0.74454 0.18427 0.0
C97 C 0.96366 0.77014 0.16646 0.0
C98 C 0.94923 0.7656 0.10233 0.0
C99 C 1.00961 0.74967 0.18531 0.0
C100 C 0.9694 0.73194 0.25429 0.0
H101 H 0.91983 0.86979 0.09855 0.0
H102 H 0.90719 0.81812 0.87493 0.0
H103 H 0.8782 0.78378 1.00244 0.0
H104 H 0.89513 0.75529 0.03195 0.0
H105 H 0.89262 0.76209 0.93721 0.0
H106 H 0.95732 0.79714 0.92636 0.0
H107 H 0.93248 0.77699 0.88196 0.0
H108 H 0.95538 0.76311 0.9452 0.0
H109 H 0.96749 0.87456 0.3174 0.0
H110 H 1.00845 0.81147 0.42672 0.0
H111 H 0.9964 0.78018 0.3289 0.0
H112 H 0.98788 0.8641 0.17253 0.0
H113 H 0.95897 0.88483 0.1719 0.0
H114 H 0.96516 0.86082 0.1018 0.0
H115 H 0.91639 0.84085 0.27936 0.0
H116 H 0.90626 0.84873 0.19204 0.0
H117 H 0.92285 0.87374 0.24623 0.0
H118 H 0.91441 0.89293 0.98937 0.0
C119 C 0.91733 0.85781 0.05141 0.0
C120 C 0.84636 0.9927 0.09042 0.0
C121 C 0.86161 0.97928 0.03657 0.0
C122 C 0.85133 0.95538 1.00823 0.0
C123 C 0.81271 0.95733 0.08539 0.0
C124 C 0.82172 0.98106 0.1146 0.0
C125 C 0.8018 0.99074 0.1716 0.0
H126 H 0.68227 0.96048 0.3466 0.0
C127 C 0.7876 0.94914 0.12028 0.0
C128 C 0.78074 0.96805 0.1731 0.0
H129 H 0.72693 0.03357 0.37597 0.0
H130 H 0.76118 0.01721 0.29233 0.0
H131 H 0.67951 0.9571 0.20879 0.0
H132 H 0.73373 0.92102 0.34877 0.0
H133 H 0.72697 0.89704 0.28203 0.0
H134 H 0.69964 0.91169 0.33103 0.0
H135 H 0.67678 0.92224 0.22288 0.0
H136 H 0.69459 0.93567 0.14706 0.0
C137 C 0.78951 0.01707 0.14616 0.0
C138 C 0.81611 0.99379 0.24408 0.0
C139 C 0.72915 0.88115 0.99898 0.0
C140 C 0.70202 0.87637 1.0135 0.0
C141 C 0.69453 0.87375 0.08585 0.0
C142 C 0.7105 0.88556 0.13921 0.0
C143 C 0.73422 0.89864 0.1189 0.0
C144 C 0.74466 0.8937 0.05208 0.0
C145 C 0.77056 0.9084 0.04085 0.0
C146 C 0.7711 0.9266 0.10649 0.0
C147 C 0.74947 0.92109 0.15106 0.0
C148 C 0.76857 0.92445 0.97002 0.0
C149 C 0.79327 0.88741 0.04265 0.0
C150 C 0.69953 0.97311 0.33746 0.0
C151 C 0.70158 0.99825 0.37004 0.0
C152 C 0.72436 1.01403 0.35211 0.0
C153 C 0.74425 1.0046 0.30341 0.0
C154 C 0.7413 0.97925 0.27097 0.0
C155 C 0.71896 0.96429 0.28922 0.0
C156 C 0.71715 0.93846 0.24996 0.0
C157 C 0.74192 0.93986 0.20403 0.0
C158 C 0.75681 0.96367 0.21541 0.0
C159 C 0.69076 0.93812 0.20505 0.0
C160 C 0.71927 0.91572 0.30554 0.0
H161 H 0.82151 0.92626 1.00742 0.0
H162 H 0.85361 1.01119 0.11357 0.0
H163 H 0.82605 0.97486 0.25897 0.0
H164 H 0.80192 0.99886 0.28717 0.0
H165 H 0.8316 1.00974 0.24166 0.0
H166 H 0.78086 0.01466 0.09162 0.0
H167 H 0.80497 0.03306 0.14424 0.0
H168 H 0.77328 0.02375 0.18167 0.0
H169 H 0.73616 0.88113 0.94427 0.0
H170 H 0.67423 0.86807 0.09923 0.0
H171 H 0.70255 0.88641 0.19228 0.0
H172 H 0.74848 0.93362 0.96464 0.0
H173 H 0.77178 0.91138 0.9228 0.0
H174 H 0.78275 0.94126 0.9666 0.0
H175 H 0.78651 0.86793 0.06457 0.0
H176 H 0.81 0.89371 0.07818 0.0
H177 H 0.80117 0.88341 0.98824 0.0
H178 H 0.86196 0.94481 0.96647 0.0
C179 C 0.82759 0.94439 0.03256 0.0
C180 C 0.53123 0.71877 0.33639 0.0
C181 C 0.54055 0.69277 0.35432 0.0
C182 C 0.56251 0.68264 0.317 0.0
C183 C 0.56661 0.72323 0.24779 0.0
C184 C 0.54447 0.73362 0.28155 0.0
C185 C 0.53768 0.76096 0.2498 0.0
H186 H 0.57772 0.85852 1.00692 0.0
C187 C 0.57725 0.74306 0.19674 0.0
C188 C 0.56076 0.76576 0.19673 0.0
H189 H 0.50345 0.85917 0.12292 0.0
H190 H 0.51673 0.81828 0.18612 0.0
H191 H 0.6155 0.8383 0.14079 0.0
H192 H 0.57561 0.8071 0.95729 0.0
H193 H 0.60003 0.78304 0.97151 0.0
H194 H 0.60994 0.81691 0.95282 0.0
H195 H 0.62568 0.84298 0.04972 0.0
H196 H 0.6376 0.81531 0.10205 0.0
C197 C 0.53742 0.78216 0.30939 0.0
C198 C 0.5106 0.75858 0.2109 0.0
C199 C 0.65159 0.71502 0.03228 0.0
C200 C 0.66126 0.72732 0.96957 0.0
C201 C 0.66182 0.75547 0.9684 0.0
C202 C 0.64673 0.77014 1.01777 0.0
C203 C 0.63151 0.75646 0.06924 0.0
C204 C 0.63586 0.72972 0.07954 0.0
C205 C 0.61792 0.71822 0.13594 0.0
C206 C 0.60036 0.74197 0.1531 0.0
C207 C 0.60812 0.76411 0.11308 0.0
C208 C 0.63582 0.71028 0.20037 0.0
C209 C 0.60144 0.69496 0.10177 0.0
C210 C 0.564 0.85004 0.04552 0.0
C211 C 0.53926 0.86198 0.05804 0.0
C212 C 0.52258 0.85031 0.11094 0.0
C213 C 0.53013 0.82643 0.14695 0.0
C214 C 0.55456 0.81397 0.12991 0.0
C215 C 0.57095 0.82642 0.08031 0.0
C216 C 0.59556 0.81102 0.06406 0.0
C217 C 0.59146 0.78676 0.1104 0.0
C218 C 0.56759 0.78803 0.15083 0.0
C219 C 0.62 0.82771 0.08985 0.0
C220 C 0.59555 0.8042 0.98251 0.0
H221 H 0.59214 0.68819 0.23981 0.0
H222 H 0.51419 0.7271 0.36382 0.0
H223 H 0.51075 0.74159 0.1725 0.0
H224 H 0.5059 0.77659 0.17994 0.0
H225 H 0.49421 0.75511 0.24981 0.0
H226 H 0.55668 0.78215 0.33923 0.0
H227 H 0.52104 0.77812 0.3479 0.0
H228 H 0.53461 0.80235 0.28738 0.0
H229 H 0.65197 0.69366 0.03892 0.0
H230 H 0.67092 0.76598 0.9242 0.0
H231 H 0.64563 0.79123 1.00979 0.0
H232 H 0.65498 0.72166 0.20135 0.0
H233 H 0.64092 0.68879 0.19843 0.0
H234 H 0.62643 0.7149 0.25252 0.0
H235 H 0.59672 0.69914 0.04469 0.0
H236 H 0.58171 0.69187 0.12679 0.0
H237 H 0.61263 0.67595 0.10358 0.0
H238 H 0.57013 0.66302 0.32938 0.0
C239 C 0.57555 0.69759 0.26504 0.0
C240 C 0.33622 0.49903 0.29238 0.0
C241 C 0.35301 0.48378 0.33909 0.0
C242 C 0.34666 0.45651 0.34816 0.0
C243 C 0.30662 0.461 0.27788 0.0
C244 C 0.3132 0.48673 0.26043 0.0
C245 C 0.29328 0.49695 0.20386 0.0
H246 H 0.17858 0.46302 1.00782 0.0
C247 C 0.28212 0.45306 0.24162 0.0
C248 C 0.27439 0.47269 0.19287 0.0
H249 H 0.21851 0.53937 1.00106 0.0
H250 H 0.25273 0.52293 0.08453 0.0
H251 H 0.2319 0.42416 1.01309 0.0
H252 H 0.17083 0.45429 0.13257 0.0
H253 H 0.18875 0.44354 0.20841 0.0
H254 H 0.17575 0.42 0.14272 0.0
H255 H 0.19694 0.41605 0.02118 0.0
H256 H 0.22165 0.39984 0.07578 0.0
C257 C 0.30843 0.5039 0.13494 0.0
C258 C 0.27831 0.521 0.23489 0.0
C259 C 0.2106 0.40432 0.37028 0.0
C260 C 0.18536 0.39636 0.34317 0.0
C261 C 0.18438 0.38535 0.27349 0.0
C262 C 0.20528 0.39057 0.22569 0.0
C263 C 0.22673 0.4063 0.2496 0.0
C264 C 0.23129 0.40931 0.3217 0.0
C265 C 0.25735 0.42356 0.33581 0.0
C266 C 0.26487 0.43189 0.25942 0.0
C267 C 0.24458 0.4247 0.21147 0.0
C268 C 0.27672 0.40361 0.37047 0.0
C269 C 0.2531 0.44807 0.38479 0.0
C270 C 0.19488 0.47632 0.02225 0.0
C271 C 0.19564 0.50242 0.99605 0.0
C272 C 0.21707 0.51906 1.0199 0.0
C273 C 0.23694 0.50957 0.06834 0.0
C274 C 0.23519 0.48334 0.09488 0.0
C275 C 0.21399 0.46754 0.07174 0.0
C276 C 0.21272 0.44123 0.10856 0.0
C277 C 0.23723 0.44299 0.15678 0.0
C278 C 0.25096 0.46769 0.149 0.0
C279 C 0.21583 0.41901 0.05175 0.0
C280 C 0.18583 0.43953 0.15041 0.0
H281 H 0.32141 0.4238 0.31846 0.0
H282 H 0.34101 0.5196 0.28076 0.0
H283 H 0.26887 0.51569 0.28673 0.0
H284 H 0.26229 0.52778 0.19867 0.0
H285 H 0.29231 0.53795 0.24441 0.0
H286 H 0.3203 0.48657 0.11642 0.0
H287 H 0.32236 0.52091 0.14435 0.0
H288 H 0.29461 0.50931 0.09122 0.0
H289 H 0.21284 0.41102 0.42502 0.0
H290 H 0.1659 0.37699 0.25263 0.0
H291 H 0.20299 0.38477 0.17059 0.0
H292 H 0.26616 0.39084 0.40995 0.0
H293 H 0.29264 0.41394 0.4015 0.0
H294 H 0.28575 0.39034 0.32953 0.0
H295 H 0.23777 0.4615 0.36176 0.0
H296 H 0.27194 0.45961 0.39155 0.0
H297 H 0.24662 0.44197 0.43908 0.0
H298 H 0.35886 0.44378 0.38126 0.0
C299 C 0.32422 0.44504 0.31583 0.0
C300 C 0.13925 0.22452 0.35388 0.0
C301 C 0.14782 0.19973 0.32639 0.0
C302 C 0.15831 0.19938 0.25628 0.0
C303 C 0.13495 0.2401 0.23322 0.0
C304 C 0.13277 0.24474 0.30544 0.0
C305 C 0.11734 0.26981 0.32011 0.0
H306 H 1.01412 0.34297 0.28062 0.0
C307 C 0.11485 0.25629 0.1964 0.0
C308 C 0.10724 0.27621 0.24444 0.0
H309 H 0.09073 0.36971 0.36513 0.0
H310 H 0.11254 0.33384 0.30013 0.0
H311 H 0.04571 0.32681 0.11001 0.0
H312 H 0.02393 0.27213 0.28068 0.0
H313 H 1.0106 0.26499 0.19371 0.0
H314 H 0.99907 0.29361 0.24227 0.0
H315 H 1.01177 0.32539 0.14158 0.0
H316 H 0.02467 0.29928 0.08579 0.0
C317 C 0.13684 0.29076 0.35145 0.0
C318 C 0.09397 0.26427 0.37209 0.0
C319 C 0.06328 0.20254 1.01198 0.0
C320 C 0.03688 0.2017 0.98665 0.0
C321 C 0.01935 0.22187 1.01181 0.0
C322 C 0.02825 0.2421 0.06045 0.0
C323 C 0.05488 0.24212 0.08554 0.0
C324 C 0.07159 0.22215 0.06118 0.0
C325 C 0.09855 0.22292 0.09577 0.0
C326 C 0.09609 0.24733 0.14376 0.0
C327 C 0.0704 0.25907 0.13824 0.0
C328 C 0.11977 0.22742 0.03707 0.0
C329 C 0.10242 0.19645 0.13783 0.0
C330 C 0.03541 0.34045 0.28797 0.0
C331 C 0.0504 0.35874 0.33182 0.0
C332 C 0.07842 0.35572 0.33516 0.0
C333 C 0.09103 0.3345 0.30108 0.0
C334 C 0.07563 0.31528 0.26592 0.0
C335 C 0.04893 0.31907 0.25302 0.0
C336 C 0.03913 0.29852 0.19704 0.0
C337 C 0.06461 0.28205 0.18247 0.0
C338 C 0.08467 0.29163 0.22849 0.0
C339 C 0.02971 0.31325 0.12969 0.0
C340 C 0.01687 0.28131 0.23005 0.0
H341 H 0.15661 0.21757 0.15304 0.0
H342 H 0.13316 0.22653 0.40901 0.0
H343 H 0.08092 0.24796 0.35124 0.0
H344 H 0.08155 0.28226 0.37965 0.0
H345 H 0.10146 0.25861 0.42584 0.0
H346 H 0.15086 0.28149 0.39016 0.0
H347 H 0.12616 0.30622 0.38247 0.0
H348 H 0.14891 0.30027 0.30863 0.0
H349 H 0.07732 0.18724 0.99673 0.0
H350 H 0.99878 0.2221 0.99377 0.0
H351 H 1.01418 0.25683 0.0778 0.0
H352 H 0.11311 0.24288 0.9986 0.0
H353 H 0.12341 0.20874 1.0066 0.0
H354 H 0.13896 0.23469 0.05939 0.0
H355 H 0.08828 0.1804 0.12132 0.0
H356 H 0.09906 0.19926 0.19608 0.0
H357 H 0.12245 0.18782 0.12874 0.0
H358 H 0.16744 0.18151 0.23513 0.0
C359 C 0.15142 0.21967 0.20851 0.0
C360 C 0.32186 0.04076 1.00749 0.0
C361 C 0.34701 0.05101 0.98384 0.0
C362 C 0.35779 0.07337 1.0189 0.0
C363 C 0.31966 0.07572 0.09829 0.0
C364 C 0.30844 0.05357 0.06555 0.0
C365 C 0.28174 0.04647 0.1012 0.0
H366 H 0.18959 0.08349 0.3611 0.0
C367 C 0.30147 0.08544 0.1547 0.0
C368 C 0.27855 0.06892 0.15705 0.0
H369 H 0.18466 1.01193 0.23305 0.0
H370 H 0.22565 0.02511 0.16992 0.0
H371 H 0.24145 0.07845 0.40451 0.0
H372 H 0.20975 0.12409 0.23389 0.0
H373 H 0.23409 0.14427 0.27617 0.0
H374 H 0.2065 0.13124 0.32762 0.0
H375 H 0.23459 0.11297 0.41709 0.0
H376 H 0.26728 0.10147 0.39115 0.0
C377 C 0.28455 0.01908 0.13709 0.0
C378 C 0.25923 0.04689 0.045 0.0
C379 C 0.33672 0.15273 0.33218 0.0
C380 C 0.32627 0.15971 0.39958 0.0
C381 C 0.29824 0.16119 0.4062 0.0
C382 C 0.28162 0.14907 0.35475 0.0
C383 C 0.29333 0.13578 0.29643 0.0
C384 C 0.32008 0.13974 0.28262 0.0
C385 C 0.32928 0.12391 0.21897 0.0
C386 C 0.30443 0.10733 0.20249 0.0
C387 C 0.2836 0.11417 0.24845 0.0
C388 C 0.35312 0.1062 0.24262 0.0
C389 C 0.33576 0.14394 0.1582 0.0
C390 C 0.19664 0.07071 0.31841 0.0
C391 C 0.18326 0.04683 0.30203 0.0
C392 C 0.19439 0.03051 0.24753 0.0
C393 C 0.21824 0.03811 0.21099 0.0
C394 C 0.23157 0.06202 0.22989 0.0
C395 C 0.22034 0.07763 0.28315 0.0
C396 C 0.23718 0.10121 0.30252 0.0
C397 C 0.26045 0.09783 0.25198 0.0
C398 C 0.25759 0.07497 0.20782 0.0
C399 C 0.24553 0.09865 0.38271 0.0
C400 C 0.22112 0.12666 0.28477 0.0
H401 H 0.3542 0.10256 0.0984 0.0
H402 H 0.31293 0.0236 0.98127 0.0
H403 H 0.25914 0.06629 1.01655 0.0
H404 H 0.23937 0.04421 0.06972 0.0
H405 H 0.26201 0.0308 1.00475 0.0
H406 H 0.3026 0.01875 0.17194 0.0
H407 H 0.28657 1.00311 0.09615 0.0
H408 H 0.26731 1.01422 0.1713 0.0
H409 H 0.35805 0.15254 0.32311 0.0
H410 H 0.28941 0.16796 0.45583 0.0
H411 H 0.26065 0.14834 0.36597 0.0
H412 H 0.35 0.09854 0.29777 0.0
H413 H 0.3722 0.11764 0.24238 0.0
H414 H 0.35567 0.08817 0.20956 0.0
H415 H 0.35757 0.14786 0.1544 0.0
H416 H 0.32591 0.16351 0.16668 0.0
H417 H 0.32818 0.13699 0.10547 0.0
H418 H 0.37682 0.08166 1.00204 0.0
C419 C 0.34437 0.08573 0.07486 0.0
C420 C 0.50778 0.32423 1.00657 0.0
C421 C 0.49398 0.34737 0.98135 0.0
C422 C 0.46896 0.35323 1.01223 0.0
C423 C 0.47474 0.31869 0.09971 0.0
C424 C 0.49695 0.30942 0.06507 0.0
C425 C 0.50507 0.28254 0.09792 0.0
H426 H 0.47817 0.19318 0.37585 0.0
C427 C 0.46912 0.30235 0.16204 0.0
C428 C 0.4851 0.27946 0.16053 0.0
H429 H 0.53785 0.18179 0.21366 0.0
H430 H 0.52487 0.22412 0.15691 0.0
H431 H 0.49327 0.24089 0.41728 0.0
H432 H 0.42991 0.21999 0.28213 0.0
H433 H 0.41898 0.2462 0.33815 0.0
H434 H 0.43324 0.2168 0.37752 0.0
H435 H 0.46061 0.24795 0.44698 0.0
H436 H 0.481 0.27319 0.40425 0.0
C437 C 0.53408 0.28432 0.12488 0.0
C438 C 0.50115 0.2605 0.04135 0.0
C439 C 0.44545 0.35001 0.38851 0.0
C440 C 0.44261 0.34011 0.45834 0.0
C441 C 0.43441 0.31347 0.4678 0.0
C442 C 0.43326 0.29602 0.40922 0.0
C443 C 0.44161 0.30515 0.34206 0.0
C444 C 0.445 0.33207 0.33084 0.0
C445 C 0.45167 0.33811 0.25415 0.0
C446 C 0.45522 0.30977 0.22452 0.0
C447 C 0.45112 0.29086 0.27807 0.0
C448 C 0.4779 0.35452 0.25031 0.0
C449 C 0.4279 0.35337 0.22125 0.0
C450 C 0.48797 0.19925 0.32686 0.0
C451 C 0.50839 0.1837 0.29834 0.0
C452 C 0.52155 0.19312 0.23612 0.0
C453 C 0.51408 0.21761 0.20334 0.0
C454 C 0.49366 0.23317 0.23396 0.0
C455 C 0.48147 0.22375 0.2956 0.0
C456 C 0.46305 0.24357 0.3285 0.0
C457 C 0.4641 0.26579 0.27376 0.0
C458 C 0.48199 0.26007 0.21712 0.0
C459 C 0.47485 0.25191 0.40285 0.0
C460 C 0.43474 0.23104 0.33233 0.0
H461 H 0.43915 0.34216 0.08807 0.0
H462 H 0.52615 0.31795 0.98145 0.0
H463 H 0.48043 0.26088 1.01969 0.0
H464 H 0.50442 0.2405 0.06386 0.0
H465 H 0.51522 0.26339 0.99613 0.0
H466 H 0.53652 0.30135 0.16265 0.0
H467 H 0.54804 0.28733 0.07949 0.0
H468 H 0.53997 0.26603 0.15341 0.0
H469 H 0.45105 0.37061 0.37992 0.0
H470 H 0.43127 0.30566 0.52107 0.0
H471 H 0.42761 0.27573 0.41876 0.0
H472 H 0.4945 0.34383 0.27723 0.0
H473 H 0.4756 0.37431 0.27622 0.0
H474 H 0.48382 0.35834 0.19423 0.0
H475 H 0.4176 0.36584 0.26188 0.0
H476 H 0.41281 0.33943 0.19809 0.0
H477 H 0.43461 0.3677 0.17998 0.0
H478 H 0.45712 0.36973 0.99324 0.0
C479 C 0.45909 0.33854 0.06963 0.0
C480 C 0.07003 0.04713 0.8474 0.0
C481 C 0.04645 0.04098 0.95914 0.0
C482 C 0.05006 0.03465 0.88624 0.0
C483 C 0.06198 0.06131 0.99076 0.0
C484 C 0.08689 0.06623 0.88014 0.0
C485 C 0.08221 0.07388 0.95135 0.0
N486 N 0.07382 0.03953 0.77838 0.0
C487 C 0.09579 0.04803 0.74147 0.0
C488 C 0.10843 0.07644 0.84096 0.0
C489 C 0.11319 0.06691 0.77182 0.0
Gd490 Gd 0.99278 0.04472 0.60176 0.0
Gd491 Gd 0.04284 1.00874 0.73092 0.0
N492 N 0.03586 0.01468 0.85449 0.0
C493 C 0.02828 0.02579 0.99888 0.0
C494 C 0.02036 0.99811 0.89481 0.0
C495 C 0.01566 1.00384 0.96695 0.0
H496 H 1.01192 0.98023 0.87145 0.0
H497 H 1.00269 0.99107 0.99811 0.0
H498 H 0.02244 0.04119 0.44263 0.0
H499 H 0.09949 0.04071 0.68802 0.0
H500 H 0.01772 0.0155 0.32975 0.0
H501 H 0.02491 0.03 0.05502 0.0
H502 H 0.05922 0.06672 0.04642 0.0
H503 H 0.93105 0.0424 0.67797 0.0
H504 H 0.12188 0.09113 0.86424 0.0
H505 H 0.13019 0.07416 0.7418 0.0
H506 H 0.93892 0.96199 0.36576 0.0
H507 H 0.09466 0.08887 0.97712 0.0
H508 H 0.8863 0.98072 0.57326 0.0
H509 H 0.89059 1.01434 0.66984 0.0
N510 N 0.95122 0.02235 0.59374 0.0
C511 C 0.94822 1.00576 0.53647 0.0
C512 C 0.93018 0.02673 0.63851 0.0
C513 C 0.90451 0.9924 0.57813 0.0
C514 C 0.90689 1.0113 0.63282 0.0
C515 C 0.92493 0.99007 0.5276 0.0
H516 H 0.90464 0.96114 0.45981 0.0
N517 N 0.98891 0.02263 0.49158 0.0
C518 C 0.96743 1.00626 0.48317 0.0
C519 C 0.98269 0.9941 0.36505 0.0
C520 C 0.96401 0.99109 0.42015 0.0
C521 C 1.00624 0.02701 0.4365 0.0
C522 C 1.00359 1.01254 0.37272 0.0
O523 O 0.04232 0.05417 0.71752 0.0
O524 O 0.99857 0.06476 0.70988 0.0
O525 O 1.00114 0.086 0.57934 0.0
O526 O 0.96434 0.06851 0.54073 0.0
O527 O 0.99859 1.00082 0.75812 0.0
O528 O 0.97679 0.03782 0.7144 0.0
O529 O 1.01309 1.00586 0.57113 0.0
O530 O 1.01187 0.98266 0.6738 0.0
O531 O 0.06428 0.98081 0.79792 0.0
O532 O 0.0711 0.98104 0.68431 0.0
O533 O 0.03677 0.05194 0.57418 0.0
O534 O 0.06096 0.0168 0.62102 0.0
C535 C 0.02243 0.0698 0.73592 0.0
C536 C 0.97853 0.01792 0.76026 0.0
C537 C 0.98716 0.09852 0.46405 0.0
C538 C 0.0202 0.11447 0.37767 0.0
C539 C 0.97312 0.11138 0.34486 0.0
C540 C 0.96688 0.10197 0.41308 0.0
C541 C 0.99955 0.11771 0.3272 0.0
C542 C 1.01373 0.10457 0.44551 0.0
C543 C 0.98087 0.08854 0.53633 0.0
C544 C 0.94171 0.97413 0.41332 0.0
C545 C 0.92222 0.97359 0.46699 0.0
H546 H 0.98074 0.98283 0.31571 0.0
C547 C 1.01035 0.98292 0.60378 0.0
C548 C 0.05817 0.03659 0.57534 0.0
C549 C 0.07222 0.9399 0.74235 0.0
C550 C 0.04205 0.90142 0.74159 0.0
C551 C 0.09027 0.89566 0.75474 0.0
C552 C 0.09416 0.92317 0.75123 0.0
C553 C 0.06446 0.88483 0.75108 0.0
C554 C 0.04656 0.92897 0.73528 0.0
C555 C 0.07559 0.96887 0.74431 0.0
H556 H 0.95738 0.11408 0.30577 0.0
H557 H 0.94627 0.0974 0.42599 0.0
H558 H 1.00363 0.12573 0.27467 0.0
H559 H 0.02951 0.10155 0.4841 0.0
H560 H 0.10723 0.88271 0.76249 0.0
H561 H 0.11415 0.93139 0.75654 0.0
H562 H 0.06225 0.86358 0.75833 0.0
H563 H 0.03013 0.9423 0.72691 0.0
C564 C 0.51473 0.94374 0.48934 0.0
C565 C 0.49883 0.90286 0.54374 0.0
C566 C 0.50189 0.9308 0.54473 0.0
C567 C 0.50945 0.8881 0.48663 0.0
C568 C 0.52501 0.92909 0.4312 0.0
C569 C 0.52251 0.90119 0.43047 0.0
N570 N 0.51668 0.97072 0.49168 0.0
C571 C 0.52832 0.98436 0.43677 0.0
C572 C 0.5373 0.94293 0.37532 0.0
C573 C 0.53886 0.9707 0.37803 0.0
Gd574 Gd 0.5325 0.04283 0.72708 0.0
Gd575 Gd 0.50043 0.99146 0.59578 0.0
N576 N 0.49175 0.94563 0.59877 0.0
C577 C 0.48495 0.89068 0.59984 0.0
C578 C 0.4776 0.93402 0.65268 0.0
C579 C 0.47415 0.90636 0.65435 0.0
H580 H 0.46934 0.94609 0.69507 0.0
H581 H 0.46322 0.89716 0.69768 0.0
H582 H 0.56801 0.09081 0.6494 0.0
H583 H 0.53002 1.00576 0.43826 0.0
H584 H 0.57047 0.14014 0.64874 0.0
H585 H 0.48223 0.86926 0.60118 0.0
H586 H 0.50744 0.8666 0.48504 0.0
H587 H 0.49911 0.02611 0.87595 0.0
H588 H 0.54549 0.93242 0.32974 0.0
H589 H 0.54828 0.9816 0.335 0.0
H590 H 0.50825 0.16651 0.83085 0.0
H591 H 0.53039 0.88958 0.38642 0.0
H592 H 0.46772 0.09712 0.97013 0.0
H593 H 0.47211 0.04803 0.96909 0.0
N594 N 0.50859 0.06219 0.82222 0.0
C595 C 0.50751 0.08915 0.82407 0.0
C596 C 0.49711 0.04748 0.87535 0.0
C597 C 0.47936 0.08755 0.92867 0.0
C598 C 0.48185 0.05986 0.92838 0.0
C599 C 0.49277 0.10263 0.87701 0.0
H600 H 0.48124 0.14137 0.9178 0.0
N601 N 0.53777 0.08936 0.72869 0.0
C602 C 0.52263 0.10323 0.77551 0.0
C603 C 0.54064 0.14468 0.73077 0.0
C604 C 0.52355 0.13129 0.77791 0.0
C605 C 0.55533 0.1022 0.68473 0.0
C606 C 0.55682 0.13003 0.68448 0.0
O607 O 0.51954 0.97077 0.68949 0.0
O608 O 0.52316 1.00207 0.78008 0.0
O609 O 0.55944 0.01694 0.78194 0.0
O610 O 0.56761 0.05948 0.7817 0.0
O611 O 0.47923 0.99624 0.70271 0.0
O612 O 0.48674 0.04036 0.72805 0.0
O613 O 0.52486 0.06192 0.618 0.0
O614 O 0.51099 0.02951 0.53674 0.0
O615 O 0.46869 0.02018 0.58492 0.0
O616 O 0.46451 0.9795 0.53855 0.0
O617 O 0.55916 0.03466 0.63023 0.0
O618 O 0.54549 0.99388 0.58439 0.0
C619 C 0.52364 0.97702 0.757 0.0
C620 C 0.47188 0.01866 0.7333 0.0
C621 C 0.60401 0.02884 0.78394 0.0
C622 C 0.63939 0.99724 0.80929 0.0
C623 C 0.64264 0.02647 0.7063 0.0
C624 C 0.61795 0.03778 0.72356 0.0
C625 C 0.65326 1.00607 0.74853 0.0
C626 C 0.61494 1.00894 0.8265 0.0
C627 C 0.57624 0.03585 0.79848 0.0
C628 C 0.508 0.14494 0.82845 0.0
C629 C 0.49262 0.13062 0.87793 0.0
H630 H 0.54193 0.16623 0.73086 0.0
C631 C 0.51716 0.05439 0.55324 0.0
C632 C 0.56379 1.01257 0.59399 0.0
C633 C 0.42652 1.00929 0.52645 0.0
C634 C 0.38843 0.03922 0.52744 0.0
C635 C 0.38494 0.9959 0.46921 0.0
C636 C 0.41133 0.99047 0.48785 0.0
C637 C 0.37348 0.02006 0.48901 0.0
C638 C 0.41502 0.03375 0.54567 0.0
C639 C 0.45349 1.00265 0.55157 0.0
H640 H 0.6533 0.03315 0.65931 0.0
H641 H 0.60945 0.05274 0.68886 0.0
H642 H 0.67223 0.99734 0.73405 0.0
H643 H 0.60348 1.00147 0.87148 0.0
H644 H 0.37332 0.98133 0.4394 0.0
H645 H 0.41971 0.97141 0.47285 0.0
H646 H 0.35307 0.02399 0.47291 0.0
H647 H 0.42651 0.04836 0.5759 0.0
C648 C 0.43422 0.53419 0.80193 0.0
C649 C 0.43343 0.50974 0.91288 0.0
C650 C 0.4476 0.52162 0.85616 0.0
C651 C 0.40535 0.50976 0.91185 0.0
C652 C 0.4061 0.5355 0.80203 0.0
C653 C 0.39168 0.52265 0.85643 0.0
N654 N 0.44892 0.54676 0.7516 0.0
C655 C 0.43681 0.56255 0.702 0.0
C656 C 0.39345 0.5504 0.74881 0.0
C657 C 0.40892 0.56428 0.69909 0.0
Gd658 Gd 0.54733 0.51039 0.6161 0.0
Gd659 Gd 0.49559 0.54083 0.75378 0.0
N660 N 0.47463 0.52266 0.85577 0.0
C661 C 0.44794 0.499 0.96986 0.0
C662 C 0.48883 0.51352 0.91311 0.0
C663 C 0.47577 0.50123 0.97038 0.0
H664 H 0.51033 0.51532 0.91446 0.0
H665 H 0.48719 0.49356 1.01496 0.0
H666 H 0.52171 0.46377 0.50541 0.0
H667 H 0.44865 0.57349 0.6637 0.0
H668 H 0.50673 0.46054 0.37914 0.0
H669 H 0.43784 0.48966 1.01449 0.0
H670 H 0.39406 0.50053 0.95458 0.0
H671 H 0.59741 0.55515 0.6193 0.0
H672 H 0.37187 0.5519 0.74685 0.0
H673 H 0.39941 0.57635 0.65865 0.0
H674 H 0.53874 0.542 0.27381 0.0
H675 H 0.37004 0.52319 0.8572 0.0
H676 H 0.59837 0.59542 0.41751 0.0
H677 H 0.61572 0.59047 0.54099 0.0
N678 N 0.56993 0.54072 0.54115 0.0
C679 C 0.56147 0.54208 0.47248 0.0
C680 C 0.59016 0.55693 0.56508 0.0
C681 C 0.59045 0.57985 0.45151 0.0
C682 C 0.60037 0.57705 0.52108 0.0
C683 C 0.5712 0.56181 0.42577 0.0
H684 H 0.56886 0.57754 0.3181 0.0
N685 N 0.53739 0.50293 0.49419 0.0
C686 C 0.54444 0.52244 0.44808 0.0
C687 C 0.52219 0.4993 0.35118 0.0
C688 C 0.53675 0.52148 0.37555 0.0
C689 C 0.52541 0.48017 0.46942 0.0
C690 C 0.51708 0.47824 0.39799 0.0
O691 O 0.50871 0.49843 0.77952 0.0
O692 O 0.52016 0.4799 0.67064 0.0
O693 O 0.57671 0.48289 0.57224 0.0
O694 O 0.57726 0.49267 0.68435 0.0
O695 O 0.53448 0.52481 0.80156 0.0
O696 O 0.56074 0.53672 0.70869 0.0
O697 O 0.54065 0.55509 0.62058 0.0
O698 O 0.49618 0.55842 0.6412 0.0
O699 O 0.52403 0.57319 0.75486 0.0
O700 O 0.48794 0.57592 0.82113 0.0
O701 O 0.50391 0.49707 0.59607 0.0
O702 O 0.47565 0.52787 0.64865 0.0
C703 C 0.51394 0.47759 0.7389 0.0
C704 C 0.55838 0.53045 0.77665 0.0
C705 C 0.58588 0.4488 0.65626 0.0
C706 C 0.56055 0.40727 0.66867 0.0
C707 C 0.6012 0.41482 0.73811 0.0
C708 C 0.60445 0.43981 0.70674 0.0
C709 C 0.57926 0.39876 0.72001 0.0
C710 C 0.56434 0.43231 0.63647 0.0
C711 C 0.5862 0.47693 0.63512 0.0
C712 C 0.54484 0.54206 0.32947 0.0
C713 C 0.56204 0.56226 0.35464 0.0
H714 H 0.51584 0.49775 0.29584 0.0
C715 C 0.51767 0.56632 0.60691 0.0
C716 C 0.48054 0.50922 0.60043 0.0
C717 C 0.51999 0.6131 0.82483 0.0
C718 C 0.55686 0.64463 0.83795 0.0
C719 C 0.51159 0.65774 0.86857 0.0
C720 C 0.50219 0.63238 0.85007 0.0
C721 C 0.53874 0.66393 0.86226 0.0
C722 C 0.54736 0.61922 0.81957 0.0
C723 C 0.51013 0.58713 0.79974 0.0
H724 H 0.61536 0.40815 0.77797 0.0
H725 H 0.62087 0.45253 0.72384 0.0
H726 H 0.5768 0.37992 0.74718 0.0
H727 H 0.55028 0.43937 0.59686 0.0
H728 H 0.49781 0.67266 0.88777 0.0
H729 H 0.48102 0.62802 0.85417 0.0
H730 H 0.54567 0.68361 0.8779 0.0
H731 H 0.56129 0.60433 0.80064 0.0
C732 C 0.03849 0.47458 0.87307 0.0
C733 C 0.03198 0.49937 0.98292 0.0
C734 C 0.02577 0.49466 0.91028 0.0
C735 C 0.05254 0.48486 1.0157 0.0
C736 C 0.05776 0.45864 0.90711 0.0
C737 C 0.06539 0.46449 0.97786 0.0
N738 N 0.03077 0.46957 0.80467 0.0
C739 C 0.03932 0.44726 0.76968 0.0
C740 C 0.06804 0.43676 0.8698 0.0
C741 C 0.05835 0.43073 0.80133 0.0
Gd742 Gd 0.0357 0.55112 0.62745 0.0
Gd743 Gd 1.00008 0.4993 0.75391 0.0
N744 N 1.00556 0.50779 0.87741 0.0
C745 C 0.01643 0.51752 0.02131 0.0
C746 C 0.98863 0.52324 0.91665 0.0
C747 C 0.99425 0.52901 0.98845 0.0
H748 H 0.9707 0.53109 0.89266 0.0
H749 H 0.98124 0.54199 1.01862 0.0
H750 H 0.03087 0.52645 0.4621 0.0
H751 H 0.03196 0.44266 0.71661 0.0
H752 H 1.00326 0.53312 0.35342 0.0
H753 H 0.02055 0.52172 0.0772 0.0
H754 H 0.05788 0.48848 0.07115 0.0
H755 H 0.03562 0.61124 0.71249 0.0
H756 H 0.08284 0.42399 0.8941 0.0
H757 H 0.06565 0.41347 0.77277 0.0
H758 H 0.9488 0.60857 0.41207 0.0
H759 H 0.0805 0.45277 1.0046 0.0
H760 H 0.97141 0.65679 0.62585 0.0
H761 H 1.00737 0.65125 0.71567 0.0
N762 N 1.0134 0.59244 0.62902 0.0
C763 C 0.9956 0.59633 0.57502 0.0
C764 C 0.019 0.61267 0.67593 0.0
C765 C 0.98319 0.63876 0.62584 0.0
C766 C 1.00343 0.6357 0.67669 0.0
C767 C 0.97973 0.61941 0.57246 0.0
H768 H 0.94941 0.64049 0.51245 0.0
N769 N 1.01233 0.55767 0.52018 0.0
C770 C 0.99533 0.57855 0.51824 0.0
C771 C 0.98159 0.56611 0.39858 0.0
C772 C 0.97911 0.58309 0.45782 0.0
C773 C 0.01625 0.54215 0.46099 0.0
C774 C 1.00067 0.5459 0.39963 0.0
O775 O 0.04546 0.49997 0.737 0.0
O776 O 0.05621 0.54374 0.734 0.0
O777 O 0.07723 0.54388 0.60503 0.0
O778 O 0.05939 0.58021 0.56783 0.0
O779 O 0.99123 0.54341 0.77985 0.0
O780 O 0.02944 0.56489 0.74257 0.0
O781 O 0.9976 0.5291 0.59439 0.0
O782 O 0.97379 0.5292 0.6964 0.0
O783 O 0.97182 0.47721 0.81915 0.0
O784 O 0.9728 0.47068 0.70524 0.0
O785 O 0.0414 0.50799 0.59029 0.0
O786 O 1.01014 0.48042 0.64557 0.0
C787 C 0.06158 0.51962 0.75596 0.0
C788 C 1.00869 0.56325 0.78582 0.0
C789 C 0.09051 0.55893 0.4914 0.0
C790 C 0.10708 0.52686 0.40324 0.0
C791 C 0.10302 0.57383 0.37285 0.0
C792 C 0.09336 0.57943 0.44128 0.0
C793 C 0.10985 0.54779 0.3538 0.0
C794 C 0.09761 0.53286 0.472 0.0
C795 C 0.0798 0.56441 0.56349 0.0
C796 C 0.96176 0.60495 0.4575 0.0
C797 C 0.96206 0.62309 0.51477 0.0
H798 H 0.9695 0.56894 0.35107 0.0
C799 C 0.97437 0.5306 0.62646 0.0
C800 C 0.02812 0.48507 0.59528 0.0
C801 C 0.93124 0.46782 0.76126 0.0
C802 C 0.89143 0.49571 0.75846 0.0
C803 C 0.88746 0.44726 0.76524 0.0
C804 C 0.91522 0.44495 0.76506 0.0
C805 C 0.87561 0.47237 0.76292 0.0
C806 C 0.91937 0.49291 0.756 0.0
C807 C 0.96037 0.46568 0.7646 0.0
H808 H 0.10529 0.58974 0.33444 0.0
H809 H 0.0881 0.59971 0.45499 0.0
H810 H 0.11773 0.54423 0.30079 0.0
H811 H 0.09541 0.51707 0.51063 0.0
H812 H 0.87507 0.42956 0.76902 0.0
H813 H 0.92417 0.42542 0.76868 0.0
H814 H 0.85409 0.4733 0.76716 0.0
H815 H 0.9322 0.51016 0.75152 0.0
H816 H 0.1429 0.07917 0.34959 0.0
H817 H 0.16852 0.99738 0.35462 0.0
H818 H 0.13247 0.98674 0.43872 0.0
H819 H 0.09473 1.00139 0.51705 0.0
H820 H 0.07108 0.08379 0.51261 0.0
H821 H 0.10556 0.0933 0.42421 0.0
C822 C 0.14077 0.05894 0.36892 0.0
C823 C 0.15889 0.03921 0.34553 0.0
C824 C 0.1203 0.05306 0.41853 0.0
C825 C 0.155 1.01304 0.37059 0.0
C826 C 0.13446 1.00699 0.41956 0.0
C827 C 0.09712 0.02146 0.49676 0.0
C828 C 0.07993 0.04182 0.52166 0.0
C829 C 0.1172 0.02695 0.44503 0.0
C830 C 0.0834 0.0676 0.49394 0.0
C831 C 0.10326 0.07313 0.44335 0.0
H832 H 0.48709 0.13298 0.29755 0.0
H833 H 0.54766 0.18154 0.39872 0.0
H834 H 0.55618 0.14627 0.48608 0.0
H835 H 0.54457 0.10237 0.53848 0.0
H836 H 0.48485 0.05319 0.43511 0.0
H837 H 0.47823 0.08735 0.34417 0.0
C838 C 0.50269 0.13549 0.33746 0.0
C839 C 0.51717 0.15977 0.34029 0.0
C840 C 0.50746 0.11497 0.38799 0.0
C841 C 0.53674 0.1629 0.39392 0.0
C842 C 0.54141 0.14278 0.44449 0.0
C843 C 0.53011 0.09905 0.49626 0.0
C844 C 0.51507 0.07505 0.49497 0.0
C845 C 0.52658 0.11885 0.44298 0.0
C846 C 0.49683 0.07122 0.43815 0.0
C847 C 0.49293 0.0909 0.38589 0.0
H848 H 0.40115 0.4597 0.36824 0.0
H849 H 0.35901 0.53311 0.40503 0.0
H850 H 0.39441 0.54768 0.48809 0.0
H851 H 0.43637 0.53825 0.55667 0.0
H852 H 0.47515 0.46268 0.52541 0.0
H853 H 0.44184 0.45014 0.43605 0.0
C854 C 0.39936 0.47888 0.39457 0.0
C855 C 0.37679 0.49501 0.38035 0.0
C856 C 0.41926 0.48666 0.44448 0.0
C857 C 0.37591 0.52018 0.41384 0.0
C858 C 0.3961 0.5284 0.46231 0.0
C859 C 0.43746 0.51895 0.53074 0.0
C860 C 0.45878 0.50157 0.54797 0.0
C861 C 0.41765 0.51157 0.47933 0.0
C862 C 0.45963 0.47677 0.51281 0.0
C863 C 0.44037 0.46949 0.46161 0.0
H864 H 0.06614 0.41093 0.33802 0.0
H865 H 1.0086 0.35652 0.42793 0.0
H866 H 0.99622 0.39031 0.51745 0.0
H867 H 1.00448 0.43473 0.57655 0.0
H868 H 0.06217 0.48806 0.48183 0.0
H869 H 0.0717 0.45545 0.3897 0.0
C870 C 0.05056 0.40649 0.37648 0.0
C871 C 0.03837 0.38098 0.3757 0.0
C872 C 0.04394 0.42583 0.42862 0.0
C873 C 0.01815 0.37593 0.42617 0.0
C874 C 1.01133 0.39522 0.47818 0.0
C875 C 0.0192 0.43926 0.53591 0.0
C876 C 0.03301 0.4641 0.53828 0.0
C877 C 0.02456 0.42013 0.48117 0.0
C878 C 0.05163 0.4693 0.48366 0.0
C879 C 0.05704 0.45057 0.43009 0.0
H880 H 0.87627 0.02545 0.96419 0.0
H881 H 0.90721 0.95062 0.03861 0.0
H882 H 0.94538 0.95477 0.95869 0.0
H883 H 0.96728 0.97692 0.85625 0.0
H884 H 0.94091 0.05522 0.7953 0.0
H885 H 0.90377 0.05202 0.87846 0.0
C886 C 0.89189 1.01061 0.96514 0.0
C887 C 0.88854 0.98768 1.00783 0.0
C888 C 0.91434 1.01321 0.9189 0.0
C889 C 0.90911 0.96855 1.0069 0.0
C890 C 0.9309 0.97071 0.96026 0.0
C891 C 0.95402 0.99367 0.86224 0.0
C892 C 0.95705 0.01599 0.81708 0.0
C893 C 0.93334 0.99252 0.91411 0.0
C894 C 0.93893 0.03719 0.82642 0.0
C895 C 0.91767 0.03561 0.87516 0.0
H896 H 0.54439 0.86715 0.91398 0.0
H897 H 0.51718 0.9105 0.09884 0.0
H898 H 0.5104 0.95027 0.0243 0.0
H899 H 0.51402 0.97349 0.90492 0.0
H900 H 0.5413 0.92785 0.72316 0.0
H901 H 0.54658 0.88892 0.79791 0.0
C902 C 0.53695 0.88527 0.93838 0.0
C903 C 0.53157 0.88564 1.01257 0.0
C904 C 0.53339 0.90804 0.89537 0.0
C905 C 0.52141 0.90935 0.04214 0.0
C906 C 0.51777 0.93225 0.9994 0.0
C907 C 0.52129 0.95508 0.88188 0.0
C908 C 0.52739 0.95403 0.80775 0.0
C909 C 0.52406 0.93203 0.92579 0.0
C910 C 0.53639 0.92964 0.77938 0.0
C911 C 0.53943 0.90715 0.82228 0.0
H912 H 0.67272 0.54156 0.92358 0.0
H913 H 0.6274 0.52983 0.11663 0.0
H914 H 0.58644 0.52391 0.0449 0.0
H915 H 0.56277 0.5248 0.92561 0.0
H916 H 0.60989 0.53813 0.73581 0.0
H917 H 0.65018 0.54123 0.80774 0.0
C918 C 0.65392 0.53784 0.95057 0.0
C919 C 0.65346 0.53657 0.02622 0.0
C920 C 0.63039 0.53505 0.90906 0.0
C921 C 0.62873 0.53088 0.05891 0.0
C922 C 0.60515 0.52773 1.01766 0.0
C923 C 0.58185 0.52832 0.89996 0.0
C924 C 0.58282 0.53145 0.82446 0.0
C925 C 0.60557 0.53021 0.94245 0.0
C926 C 0.60802 0.53589 0.7931 0.0
C927 C 0.63132 0.53759 0.83445 0.0
H928 H 0.01676 0.66586 0.98913 0.0
H929 H 0.93626 0.64221 0.04061 0.0
H930 H 0.94053 0.60235 0.96627 0.0
H931 H 0.96514 0.57698 0.87257 0.0
H932 H 0.04734 0.59816 0.83138 0.0
H933 H 0.04407 0.63587 0.9127 0.0
C934 C 1.00052 0.65147 0.98641 0.0
C935 C 0.97628 0.6572 0.02166 0.0
C936 C 1.003 0.62838 0.94235 0.0
C937 C 0.95531 0.63835 1.01535 0.0
C938 C 0.95758 0.61563 0.97156 0.0
C939 C 0.98256 0.58939 0.88237 0.0
C940 C 1.00626 0.58465 0.8432 0.0
C941 C 0.98101 0.61083 0.93253 0.0
C942 C 0.02844 0.60142 0.85789 0.0
C943 C 0.02674 0.62307 0.90543 0.0
H944 H 0.12724 0.15777 0.25 0.0
H945 H 0.1375 0.18606 0.46715 0.0
H946 H 0.0986 0.15992 0.50369 0.0
H947 H 0.0567 0.13784 0.46784 0.0
H948 H 0.04713 0.10916 0.25085 0.0
H949 H 0.09073 0.12775 0.22005 0.0
C950 C 0.12183 0.15772 0.30605 0.0
C951 C 0.13466 0.17518 0.35495 0.0
C952 C 0.09886 0.14354 0.32604 0.0
C953 C 0.12743 0.17375 0.42756 0.0
C954 C 0.10497 0.15902 0.44839 0.0
C955 C 0.06432 0.13492 0.4142 0.0
C956 C 0.04821 0.1226 0.3613 0.0
C957 C 0.08955 0.14539 0.39697 0.0
C958 C 0.05863 0.11926 0.29211 0.0
C959 C 0.08372 0.12962 0.27463 0.0
H960 H 0.31071 0.1325 0.51802 0.0
H961 H 0.3799 0.17079 0.42628 0.0
H962 H 0.40843 0.13607 0.47532 0.0
H963 H 0.41033 0.08821 0.50566 0.0
H964 H 0.33974 0.04889 0.5862 0.0
H965 H 0.31506 0.09053 0.57964 0.0
C966 C 0.33216 0.13418 0.51122 0.0
C967 C 0.34289 0.15307 0.46346 0.0
C968 C 0.34803 0.11312 0.53494 0.0
C969 C 0.3709 0.1556 0.4596 0.0
C970 C 0.38721 0.13544 0.48659 0.0
C971 C 0.38985 0.08904 0.52432 0.0
C972 C 0.37649 0.06542 0.54391 0.0
C973 C 0.37553 0.11287 0.51807 0.0
C974 C 0.35009 0.06673 0.56875 0.0
C975 C 0.33603 0.09054 0.56523 0.0
H976 H 0.48106 0.32161 0.54396 0.0
H977 H 0.43491 0.39195 0.50093 0.0
H978 H 0.46606 0.41868 0.57355 0.0
H979 H 0.51015 0.42291 0.62982 0.0
H980 H 0.55849 0.35276 0.65948 0.0
H981 H 0.52255 0.32508 0.61199 0.0
C982 C 0.47727 0.34263 0.55259 0.0
C983 C 0.4557 0.35483 0.51762 0.0
C984 C 0.49606 0.35801 0.59032 0.0
C985 C 0.45135 0.38218 0.52774 0.0
C986 C 0.46933 0.39747 0.56834 0.0
C987 C 0.5129 0.40157 0.62648 0.0
C988 C 0.53733 0.39014 0.6478 0.0
C989 C 0.49247 0.38578 0.59666 0.0
C990 C 0.54001 0.36229 0.64425 0.0
C991 C 0.51948 0.34637 0.6165 0.0
H992 H 0.14555 0.41965 0.26674 0.0
H993 H 0.17149 0.40589 0.48401 0.0
H994 H 0.14727 0.44538 0.52324 0.0
H995 H 0.12831 0.48845 0.49043 0.0
H996 H 0.10197 0.50174 0.27295 0.0
H997 H 0.11823 0.45793 0.23874 0.0
C998 C 0.14524 0.42445 0.3233 0.0
C999 C 0.16144 0.41031 0.37185 0.0
C1000 C 0.13237 0.44781 0.3448 0.0
C1001 C 0.15995 0.41684 0.445 0.0
C1002 C 0.14638 0.43964 0.46731 0.0
C1003 C 0.12524 0.48167 0.43592 0.0
C1004 C 0.11443 0.49895 0.38408 0.0
C1005 C 0.13411 0.45618 0.41676 0.0
C1006 C 0.11113 0.48949 0.3136 0.0
C1007 C 0.12005 0.46421 0.29412 0.0
H1008 H 0.94175 0.83363 0.81391 0.0
H1009 H 0.91197 0.91064 0.87953 0.0
H1010 H 0.94971 0.93206 0.82094 0.0
H1011 H 0.99606 0.92729 0.78384 0.0
H1012 H 0.02382 0.85085 0.70665 0.0
H1013 H 0.98143 0.83077 0.74035 0.0
C1014 C 0.9425 0.85517 0.81378 0.0
C1015 C 0.92495 0.87026 0.85681 0.0
C1016 C 0.96447 0.86739 0.78096 0.0
C1017 C 0.92613 0.89823 0.85146 0.0
C1018 C 0.94783 0.91057 0.81809 0.0
C1019 C 0.99297 0.90646 0.77107 0.0
C1020 C 1.01415 0.89052 0.74558 0.0
C1021 C 0.96817 0.8951 0.78802 0.0
C1022 C 1.00879 0.86351 0.73018 0.0
C1023 C 0.98428 0.852 0.74829 0.0
H1024 H 0.66894 0.91598 0.04835 0.0
H1025 H 0.69498 0.86925 0.86774 0.0
H1026 H 0.67744 0.9032 0.78611 0.0
H1027 H 0.6596 0.94894 0.76811 0.0
H1028 H 0.64076 0.99668 0.95376 0.0
H1029 H 0.65163 0.95978 0.03186 0.0
C1030 C 0.67014 0.91256 0.99116 0.0
C1031 C 0.68317 0.88991 0.96434 0.0
C1032 C 0.66225 0.93296 0.9456 0.0
C1033 C 0.68473 0.88633 0.88978 0.0
C1034 C 0.67522 0.906 0.84329 0.0
C1035 C 0.65821 0.95124 0.82568 0.0
C1036 C 0.64925 0.97545 0.85513 0.0
C1037 C 0.665 0.92995 0.87083 0.0
C1038 C 0.64731 0.97816 0.92979 0.0
C1039 C 0.65339 0.95705 0.97449 0.0
H1040 H 0.66989 0.67332 0.9439 0.0
H1041 H 0.64918 0.74539 0.83264 0.0
H1042 H 0.61546 0.72164 0.76499 0.0
H1043 H 0.58111 0.68648 0.77405 0.0
H1044 H 0.59731 0.61637 0.89858 0.0
H1045 H 0.64211 0.63327 0.92665 0.0
C1046 C 0.65834 0.68377 0.90379 0.0
C1047 C 0.65966 0.71183 0.90074 0.0
C1048 C 0.63684 0.67052 0.87033 0.0
C1049 C 0.64722 0.72421 0.84178 0.0
C1050 C 0.62734 0.71071 0.80338 0.0
C1051 C 0.59481 0.67461 0.80555 0.0
C1052 C 0.58578 0.6508 0.83647 0.0
C1053 C 0.62007 0.68485 0.82348 0.0
C1054 C 0.60378 0.63506 0.87539 0.0
C1055 C 0.62937 0.64475 0.89155 0.0
H1056 H 0.81655 0.59078 0.82772 0.0
H1057 H 0.88982 0.6226 0.91739 0.0
H1058 H 0.91499 0.58734 0.85851 0.0
H1059 H 0.91377 0.5421 0.81187 0.0
H1060 H 0.84108 0.51133 0.71487 0.0
H1061 H 0.81794 0.55181 0.74902 0.0
C1062 C 0.83816 0.59092 0.83203 0.0
C1063 C 0.85112 0.60865 0.87972 0.0
C1064 C 0.85242 0.57015 0.79994 0.0
C1065 C 0.87921 0.60861 0.88314 0.0
C1066 C 0.8936 0.58828 0.85012 0.0
C1067 C 0.89318 0.54424 0.79511 0.0
C1068 C 0.87907 0.52271 0.76346 0.0
C1069 C 0.88007 0.56789 0.81308 0.0
C1070 C 0.85227 0.52667 0.74295 0.0
C1071 C 0.83902 0.55007 0.76146 0.0
H1072 H 0.06601 0.1763 0.88161 0.0
H1073 H 0.98826 0.17476 0.98059 0.0
H1074 H 0.97646 0.13488 0.91092 0.0
H1075 H 0.9892 0.09837 0.82595 0.0
H1076 H 0.06774 0.10006 0.73211 0.0
H1077 H 0.07839 0.14101 0.79721 0.0
C1078 C 0.04648 0.16728 0.88889 0.0
C1079 C 0.02825 0.17887 0.93777 0.0
C1080 C 0.04005 0.14383 0.84994 0.0
C1081 C 1.00279 0.16686 0.94353 0.0
C1082 C 0.99609 0.14372 0.90398 0.0
C1083 C 1.0086 0.1078 0.81952 0.0
C1084 C 0.02783 0.09564 0.77469 0.0
C1085 C 0.01467 0.13174 0.85761 0.0
C1086 C 0.05278 0.10836 0.76723 0.0
C1087 C 0.05882 0.13203 0.80415 0.0
H1088 H 0.38451 1.01123 0.97928 0.0
H1089 H 0.34698 0.07102 0.84972 0.0
H1090 H 0.38224 0.06675 0.76003 0.0
H1091 H 0.42686 0.04961 0.72454 0.0
H1092 H 0.46274 0.98731 0.84894 0.0
H1093 H 0.4256 0.98902 0.93406 0.0
C1094 C 0.38344 0.02247 0.92997 0.0
C1095 C 0.36258 0.041 0.92076 0.0
C1096 C 0.40414 0.02006 0.87849 0.0
C1097 C 0.36223 0.05609 0.85745 0.0
C1098 C 0.38274 0.05399 0.80661 0.0
C1099 C 0.42638 0.03627 0.76998 0.0
C1100 C 0.44787 0.01868 0.78102 0.0
C1101 C 0.40431 0.03668 0.81756 0.0
C1102 C 0.44662 1.00116 0.83943 0.0
C1103 C 0.42532 1.00214 0.88819 0.0
H1104 H 0.46738 0.37055 0.86882 0.0
H1105 H 0.54468 0.36899 0.97093 0.0
H1106 H 0.55856 0.40815 0.90166 0.0
H1107 H 0.54664 0.44656 0.8226 0.0
H1108 H 0.46864 0.44817 0.72474 0.0
H1109 H 0.45701 0.40591 0.78233 0.0
C1110 C 0.48743 0.37852 0.87558 0.0
C1111 C 0.50479 0.36671 0.92632 0.0
C1112 C 0.49495 0.40162 0.83714 0.0
C1113 C 0.53084 0.37729 0.93252 0.0
C1114 C 0.53866 0.40003 0.89345 0.0
C1115 C 0.5272 0.43745 0.81352 0.0
C1116 C 0.50844 0.4506 0.76942 0.0
C1117 C 0.52059 0.41297 0.84741 0.0
C1118 C 0.48337 0.43855 0.75825 0.0
C1119 C 0.47674 0.41433 0.79127 0.0
H1120 H 0.16874 0.47431 0.89086 0.0
H1121 H 0.17055 0.55149 0.99313 0.0
H1122 H 0.13022 0.56413 0.9269 0.0
H1123 H 0.09222 0.55213 0.84479 0.0
H1124 H 0.09088 0.4743 0.74656 0.0
H1125 H 0.13234 0.46292 0.80776 0.0
C1126 C 0.16039 0.49394 0.8993 0.0
C1127 C 0.17297 0.51174 0.94823 0.0
C1128 C 0.13673 0.50085 0.86228 0.0
C1129 C 0.16182 0.53729 0.9559 0.0
C1130 C 0.13844 0.54447 0.91837 0.0
C1131 C 0.10111 0.53274 0.83649 0.0
C1132 C 0.0879 0.51389 0.7918 0.0
C1133 C 0.1254 0.52627 0.87215 0.0
C1134 C 0.09997 0.48895 0.7818 0.0
C1135 C 0.12393 0.4825 0.81645 0.0
H1136 H 0.01579 0.89299 0.36304 0.0
H1137 H 0.97596 0.84611 0.52317 0.0
H1138 H 0.97888 0.88374 0.60771 0.0
H1139 H 0.99067 0.93172 0.63405 0.0
H1140 H 0.03208 0.97674 0.47224 0.0
H1141 H 0.03066 0.93862 0.39184 0.0
C1142 C 1.00834 0.89072 0.41711 0.0
C1143 C 0.99594 0.86641 0.43651 0.0
C1144 C 1.01018 0.91247 0.46555 0.0
C1145 C 0.98611 0.86419 0.50677 0.0
C1146 C 0.98763 0.8859 0.55516 0.0
C1147 C 0.99981 0.93301 0.58178 0.0
C1148 C 1.01113 0.95761 0.55955 0.0
C1149 C 0.99934 0.91039 0.53504 0.0
C1150 C 0.02262 0.95862 0.49091 0.0
C1151 C 0.02203 0.9366 0.44466 0.0
H1152 H 0.67131 0.96796 0.46238 0.0
H1153 H 0.68031 0.04896 0.39005 0.0
H1154 H 0.64 0.06139 0.45666 0.0
H1155 H 0.59931 0.04819 0.52812 0.0
H1156 H 0.58963 0.96572 0.58711 0.0
H1157 H 0.63229 0.95506 0.5321 0.0
C1158 C 0.66452 0.98838 0.46003 0.0
C1159 C 0.67908 1.00726 0.41917 0.0
C1160 C 0.64065 0.99515 0.49593 0.0
C1161 C 0.66998 0.0338 0.42051 0.0
C1162 C 0.6466 0.04089 0.45826 0.0
C1163 C 0.60665 0.02794 0.52917 0.0
C1164 C 0.59092 1.00774 0.5618 0.0
C1165 C 0.63131 0.02161 0.49501 0.0
C1166 C 0.60092 0.98164 0.56212 0.0
C1167 C 0.62548 0.9755 0.5307 0.0
H1168 H 0.51399 0.64518 0.34222 0.0
H1169 H 0.54616 0.69996 0.49846 0.0
H1170 H 0.54192 0.66585 0.5915 0.0
H1171 H 0.53315 0.61855 0.62618 0.0
H1172 H 0.49919 0.56457 0.47041 0.0
H1173 H 0.50013 0.59979 0.37995 0.0
C1174 C 0.51909 0.64998 0.39724 0.0
C1175 C 0.52977 0.67551 0.41337 0.0
C1176 C 0.51687 0.63002 0.45042 0.0
C1177 C 0.5371 0.68095 0.48469 0.0
C1178 C 0.5351 0.6612 0.53777 0.0
C1179 C 0.52564 0.61468 0.57261 0.0
C1180 C 0.51626 0.58884 0.55488 0.0
C1181 C 0.52568 0.6354 0.52099 0.0
C1182 C 0.50652 0.58419 0.48538 0.0
C1183 C 0.50706 0.60439 0.43361 0.0
H1184 H 0.88448 0.52547 0.38463 0.0
H1185 H 0.83844 0.56478 0.54711 0.0
H1186 H 0.87556 0.5604 0.63214 0.0
H1187 H 0.92311 0.54853 0.65795 0.0
H1188 H 0.96866 0.50956 0.49309 0.0
H1189 H 0.93024 0.51043 0.41294 0.0
C1190 C 0.88211 0.53196 0.43965 0.0
C1191 C 0.85812 0.54457 0.45983 0.0
C1192 C 0.90389 0.52981 0.48813 0.0
C1193 C 0.85611 0.55407 0.53061 0.0
C1194 C 0.87757 0.55183 0.57921 0.0
C1195 C 0.92446 0.5398 0.605 0.0
C1196 C 0.94919 0.52931 0.58185 0.0
C1197 C 0.90186 0.5402 0.55835 0.0
C1198 C 0.95034 0.51832 0.51245 0.0
C1199 C 0.92817 0.5186 0.46638 0.0
loop_
_geom_bond_atom_site_label_1
_geom_bond_atom_site_label_2
_geom_bond_distance
_geom_bond_site_symmetry_2
_ccdc_geom_bond_type
C0 C1 1.391 . S
C0 C4 1.391 . S
C0 H42 0.948 . S
C1 C0 1.391 . S
C1 C2 1.391 . S
C2 C1 1.391 . S
C2 H58 0.947 . S
C2 C59 1.392 . S
C3 C4 1.391 . S
C3 C7 1.397 . S
C3 C59 1.419 . S
C4 C0 1.391 . S
C4 C3 1.391 . S
C4 C5 1.399 . S
C5 C4 1.399 . S
C5 C8 1.396 . S
C5 C17 1.453 . S
C5 C18 1.684 . S
H6 C30 0.948 . S
C7 C3 1.397 . S
C7 C8 1.394 . S
C7 C26 1.723 . S
C8 C5 1.396 . S
C8 C7 1.394 . S
C8 C38 1.723 . S
H9 C32 0.947 . S
H10 C33 0.948 . S
H11 C39 0.982 . S
H12 C40 0.979 . S
H13 C40 0.980 . S
H14 C40 0.983 . S
H15 C39 0.979 . S
H16 C39 0.977 . S
C17 C5 1.453 . S
C17 H46 0.982 . S
C17 H47 0.979 . S
C17 H48 0.977 . S
C18 C5 1.684 . S
C18 H43 0.979 . S
C18 H44 0.980 . S
C18 H45 0.983 . S
C19 C20 1.391 . S
C19 C24 1.391 . S
C19 H49 0.948 . S
C20 C19 1.391 . S
C20 C21 1.391 . S
C21 C20 1.391 . S
C21 C22 1.392 . S
C21 H50 0.947 1_554 S
C22 C21 1.392 . S
C22 C23 1.419 . S
C22 H51 0.948 . S
C23 C22 1.419 . S
C23 C24 1.391 . S
C23 C27 1.397 . S
C24 C19 1.391 . S
C24 C23 1.391 . S
C24 C25 1.399 . S
C25 C24 1.399 . S
C25 C26 1.396 . S
C25 C28 1.453 . S
C25 C29 1.684 . S
C26 C7 1.723 . S
C26 C25 1.396 . S
C26 C27 1.394 . S
C27 C23 1.397 . S
C27 C26 1.394 . S
C27 C37 1.723 . S
C28 C25 1.453 . S
C28 H52 0.982 . S
C28 H53 0.979 . S
C28 H54 0.977 . S
C29 C25 1.684 . S
C29 H55 0.979 . S
C29 H56 0.980 . S
C29 H57 0.983 . S
C30 H6 0.948 . S
C30 C31 1.391 . S
C30 C35 1.391 . S
C31 C30 1.391 . S
C31 C32 1.391 . S
C32 H9 0.947 . S
C32 C31 1.391 . S
C32 C33 1.392 . S
C33 H10 0.948 . S
C33 C32 1.392 . S
C33 C34 1.419 . S
C34 C33 1.419 . S
C34 C35 1.391 . S
C34 C38 1.397 . S
C35 C30 1.391 . S
C35 C34 1.391 . S
C35 C36 1.399 . S
C36 C35 1.399 . S
C36 C37 1.396 . S
C36 C39 1.453 . S
C36 C40 1.684 . S
C37 C27 1.723 . S
C37 C36 1.396 . S
C37 C38 1.394 . S
C38 C8 1.723 . S
C38 C34 1.397 . S
C38 C37 1.394 . S
C39 H11 0.982 . S
C39 H15 0.979 . S
C39 H16 0.977 . S
C39 C36 1.453 . S
C40 H12 0.979 . S
C40 H13 0.980 . S
C40 H14 0.983 . S
C40 C36 1.684 . S
H41 C59 0.948 . S
H42 C0 0.948 . S
H43 C18 0.979 . S
H44 C18 0.980 . S
H45 C18 0.983 . S
H46 C17 0.982 . S
H47 C17 0.979 . S
H48 C17 0.977 . S
H49 C19 0.948 . S
H50 C21 0.947 1_556 S
H51 C22 0.948 . S
H52 C28 0.982 . S
H53 C28 0.979 . S
H54 C28 0.977 . S
H55 C29 0.979 . S
H56 C29 0.980 . S
H57 C29 0.983 . S
H58 C2 0.947 . S
C59 C2 1.392 . S
C59 C3 1.419 . S
C59 H41 0.948 . S
C60 C61 1.391 . S
C60 C64 1.391 . S
C60 H102 0.948 . S
C61 C60 1.391 . S
C61 C62 1.391 . S
C62 C61 1.391 . S
C62 H118 0.947 . S
C62 C119 1.392 . S
C63 C64 1.391 . S
C63 C67 1.397 . S
C63 C119 1.419 . S
C64 C60 1.391 . S
C64 C63 1.391 . S
C64 C65 1.399 . S
C65 C64 1.399 . S
C65 C68 1.396 . S
C65 C77 1.453 . S
C65 C78 1.684 . S
H66 C90 0.948 . S
C67 C63 1.397 . S
C67 C68 1.394 . S
C67 C86 1.723 . S
C68 C65 1.396 . S
C68 C67 1.394 . S
C68 C98 1.723 . S
H69 C92 0.947 . S
H70 C93 0.948 . S
H71 C99 0.982 1_455 S
H72 C100 0.979 . S
H73 C100 0.980 . S
H74 C100 0.983 . S
H75 C99 0.979 . S
H76 C99 0.977 . S
C77 C65 1.453 . S
C77 H106 0.982 1_655 S
C77 H107 0.979 . S
C77 H108 0.977 . S
C78 C65 1.684 . S
C78 H103 0.979 . S
C78 H104 0.980 . S
C78 H105 0.983 . S
C79 C80 1.391 . S
C79 C84 1.391 . S
C79 H109 0.948 . S
C80 C79 1.391 . S
C80 C81 1.391 . S
C81 C80 1.391 . S
C81 C82 1.392 . S
C81 H110 0.947 . S
C82 C81 1.392 . S
C82 C83 1.419 . S
C82 H111 0.948 . S
C83 C82 1.419 . S
C83 C84 1.391 . S
C83 C87 1.397 . S
C84 C79 1.391 . S
C84 C83 1.391 . S
C84 C85 1.399 . S
C85 C84 1.399 . S
C85 C86 1.396 . S
C85 C88 1.453 . S
C85 C89 1.684 . S
C86 C67 1.723 . S
C86 C85 1.396 . S
C86 C87 1.394 . S
C87 C83 1.397 . S
C87 C86 1.394 . S
C87 C97 1.723 . S
C88 C85 1.453 . S
C88 H112 0.982 1_655 S
C88 H113 0.979 . S
C88 H114 0.977 . S
C89 C85 1.684 . S
C89 H115 0.979 . S
C89 H116 0.980 . S
C89 H117 0.983 . S
C90 H66 0.948 . S
C90 C91 1.391 . S
C90 C95 1.391 . S
C91 C90 1.391 . S
C91 C92 1.391 . S
C92 H69 0.947 . S
C92 C91 1.391 . S
C92 C93 1.392 . S
C93 H70 0.948 . S
C93 C92 1.392 . S
C93 C94 1.419 . S
C94 C93 1.419 . S
C94 C95 1.391 . S
C94 C98 1.397 . S
C95 C90 1.391 . S
C95 C94 1.391 . S
C95 C96 1.399 . S
C96 C95 1.399 . S
C96 C97 1.396 . S
C96 C99 1.453 . S
C96 C100 1.684 . S
C97 C87 1.723 . S
C97 C96 1.396 . S
C97 C98 1.394 . S
C98 C68 1.723 . S
C98 C94 1.397 . S
C98 C97 1.394 . S
C99 H71 0.982 1_655 S
C99 H75 0.979 . S
C99 H76 0.977 . S
C99 C96 1.453 . S
C100 H72 0.979 . S
C100 H73 0.980 . S
C100 H74 0.983 . S
C100 C96 1.684 . S
H101 C119 0.948 . S
H102 C60 0.948 . S
H103 C78 0.979 . S
H104 C78 0.980 . S
H105 C78 0.983 . S
H106 C77 0.982 1_455 S
H107 C77 0.979 . S
H108 C77 0.977 . S
H109 C79 0.948 . S
H110 C81 0.947 . S
H111 C82 0.948 . S
H112 C88 0.982 1_455 S
H113 C88 0.979 . S
H114 C88 0.977 . S
H115 C89 0.979 . S
H116 C89 0.980 . S
H117 C89 0.983 . S
H118 C62 0.947 . S
C119 C62 1.392 . S
C119 C63 1.419 . S
C119 H101 0.948 . S
C120 C121 1.391 . S
C120 C124 1.391 . S
C120 H162 0.948 . S
C121 C120 1.391 . S
C121 C122 1.391 . S
C122 C121 1.391 . S
C122 H178 0.947 . S
C122 C179 1.392 . S
C123 C124 1.391 . S
C123 C127 1.397 . S
C123 C179 1.419 . S
C124 C120 1.391 . S
C124 C123 1.391 . S
C124 C125 1.399 . S
C125 C124 1.399 . S
C125 C128 1.396 . S
C125 C137 1.453 . S
C125 C138 1.684 . S
H126 C150 0.948 . S
C127 C123 1.397 . S
C127 C128 1.394 . S
C127 C146 1.723 . S
C128 C125 1.396 . S
C128 C127 1.394 . S
C128 C158 1.723 . S
H129 C152 0.947 . S
H130 C153 0.948 . S
H131 C159 0.982 1_545 S
H132 C160 0.979 . S
H133 C160 0.980 . S
H134 C160 0.983 . S
H135 C159 0.979 . S
H136 C159 0.977 . S
C137 C125 1.453 . S
C137 H166 0.982 1_565 S
C137 H167 0.979 . S
C137 H168 0.977 . S
C138 C125 1.684 . S
C138 H163 0.979 . S
C138 H164 0.980 . S
C138 H165 0.983 . S
C139 C140 1.391 . S
C139 C144 1.391 . S
C139 H169 0.948 . S
C140 C139 1.391 . S
C140 C141 1.391 . S
C141 C140 1.391 . S
C141 C142 1.392 . S
C141 H170 0.947 . S
C142 C141 1.392 . S
C142 C143 1.419 . S
C142 H171 0.948 . S
C143 C142 1.419 . S
C143 C144 1.391 . S
C143 C147 1.397 . S
C144 C139 1.391 . S
C144 C143 1.391 . S
C144 C145 1.399 . S
C145 C144 1.399 . S
C145 C146 1.396 . S
C145 C148 1.453 . S
C145 C149 1.684 . S
C146 C127 1.723 . S
C146 C145 1.396 . S
C146 C147 1.394 . S
C147 C143 1.397 . S
C147 C146 1.394 . S
C147 C157 1.723 . S
C148 C145 1.453 . S
C148 H172 0.982 1_565 S
C148 H173 0.979 . S
C148 H174 0.977 . S
C149 C145 1.684 . S
C149 H175 0.979 . S
C149 H176 0.980 . S
C149 H177 0.983 . S
C150 H126 0.948 . S
C150 C151 1.391 . S
C150 C155 1.391 . S
C151 C150 1.391 . S
C151 C152 1.391 . S
C152 H129 0.947 . S
C152 C151 1.391 . S
C152 C153 1.392 . S
C153 H130 0.948 . S
C153 C152 1.392 . S
C153 C154 1.419 . S
C154 C153 1.419 . S
C154 C155 1.391 . S
C154 C158 1.397 . S
C155 C150 1.391 . S
C155 C154 1.391 . S
C155 C156 1.399 . S
C156 C155 1.399 . S
C156 C157 1.396 . S
C156 C159 1.453 . S
C156 C160 1.684 . S
C157 C147 1.723 . S
C157 C156 1.396 . S
C157 C158 1.394 . S
C158 C128 1.723 . S
C158 C154 1.397 . S
C158 C157 1.394 . S
C159 H131 0.982 1_565 S
C159 H135 0.979 . S
C159 H136 0.977 . S
C159 C156 1.453 . S
C160 H132 0.979 . S
C160 H133 0.980 . S
C160 H134 0.983 . S
C160 C156 1.684 . S
H161 C179 0.948 . S
H162 C120 0.948 . S
H163 C138 0.979 . S
H164 C138 0.980 . S
H165 C138 0.983 . S
H166 C137 0.982 1_545 S
H167 C137 0.979 . S
H168 C137 0.977 . S
H169 C139 0.948 . S
H170 C141 0.947 . S
H171 C142 0.948 . S
H172 C148 0.982 1_545 S
H173 C148 0.979 . S
H174 C148 0.977 . S
H175 C149 0.979 . S
H176 C149 0.980 . S
H177 C149 0.983 . S
H178 C122 0.947 . S
C179 C122 1.392 . S
C179 C123 1.419 . S
C179 H161 0.948 . S
C180 C181 1.391 . S
C180 C184 1.391 . S
C180 H222 0.948 . S
C181 C180 1.391 . S
C181 C182 1.391 . S
C182 C181 1.391 . S
C182 H238 0.947 . S
C182 C239 1.392 . S
C183 C184 1.391 . S
C183 C187 1.397 . S
C183 C239 1.419 . S
C184 C180 1.391 . S
C184 C183 1.391 . S
C184 C185 1.399 . S
C185 C184 1.399 . S
C185 C188 1.396 . S
C185 C197 1.453 . S
C185 C198 1.684 . S
H186 C210 0.948 . S
C187 C183 1.397 . S
C187 C188 1.394 . S
C187 C206 1.723 . S
C188 C185 1.396 . S
C188 C187 1.394 . S
C188 C218 1.723 . S
H189 C212 0.947 . S
H190 C213 0.948 . S
H191 C219 0.982 . S
H192 C220 0.979 . S
H193 C220 0.980 . S
H194 C220 0.983 . S
H195 C219 0.979 . S
H196 C219 0.977 . S
C197 C185 1.453 . S
C197 H226 0.982 . S
C197 H227 0.979 . S
C197 H228 0.977 . S
C198 C185 1.684 . S
C198 H223 0.979 . S
C198 H224 0.980 . S
C198 H225 0.983 . S
C199 C200 1.391 . S
C199 C204 1.391 . S
C199 H229 0.948 . S
C200 C199 1.391 . S
C200 C201 1.391 . S
C201 C200 1.391 . S
C201 C202 1.392 . S
C201 H230 0.947 1_554 S
C202 C201 1.392 . S
C202 C203 1.419 . S
C202 H231 0.948 . S
C203 C202 1.419 . S
C203 C204 1.391 . S
C203 C207 1.397 . S
C204 C199 1.391 . S
C204 C203 1.391 . S
C204 C205 1.399 . S
C205 C204 1.399 . S
C205 C206 1.396 . S
C205 C208 1.453 . S
C205 C209 1.684 . S
C206 C187 1.723 . S
C206 C205 1.396 . S
C206 C207 1.394 . S
C207 C203 1.397 . S
C207 C206 1.394 . S
C207 C217 1.723 . S
C208 C205 1.453 . S
C208 H232 0.982 . S
C208 H233 0.979 . S
C208 H234 0.977 . S
C209 C205 1.684 . S
C209 H235 0.979 . S
C209 H236 0.980 . S
C209 H237 0.983 . S
C210 H186 0.948 . S
C210 C211 1.391 . S
C210 C215 1.391 . S
C211 C210 1.391 . S
C211 C212 1.391 . S
C212 H189 0.947 . S
C212 C211 1.391 . S
C212 C213 1.392 . S
C213 H190 0.948 . S
C213 C212 1.392 . S
C213 C214 1.419 . S
C214 C213 1.419 . S
C214 C215 1.391 . S
C214 C218 1.397 . S
C215 C210 1.391 . S
C215 C214 1.391 . S
C215 C216 1.399 . S
C216 C215 1.399 . S
C216 C217 1.396 . S
C216 C219 1.453 . S
C216 C220 1.684 . S
C217 C207 1.723 . S
C217 C216 1.396 . S
C217 C218 1.394 . S
C218 C188 1.723 . S
C218 C214 1.397 . S
C218 C217 1.394 . S
C219 H191 0.982 . S
C219 H195 0.979 . S
C219 H196 0.977 . S
C219 C216 1.453 . S
C220 H192 0.979 . S
C220 H193 0.980 . S
C220 H194 0.983 . S
C220 C216 1.684 . S
H221 C239 0.948 . S
H222 C180 0.948 . S
H223 C198 0.979 . S
H224 C198 0.980 . S
H225 C198 0.983 . S
H226 C197 0.982 . S
H227 C197 0.979 . S
H228 C197 0.977 . S
H229 C199 0.948 . S
H230 C201 0.947 1_556 S
H231 C202 0.948 . S
H232 C208 0.982 . S
H233 C208 0.979 . S
H234 C208 0.977 . S
H235 C209 0.979 . S
H236 C209 0.980 . S
H237 C209 0.983 . S
H238 C182 0.947 . S
C239 C182 1.392 . S
C239 C183 1.419 . S
C239 H221 0.948 . S
C240 C241 1.391 . S
C240 C244 1.391 . S
C240 H282 0.948 . S
C241 C240 1.391 . S
C241 C242 1.391 . S
C242 C241 1.391 . S
C242 H298 0.947 . S
C242 C299 1.392 . S
C243 C244 1.391 . S
C243 C247 1.397 . S
C243 C299 1.419 . S
C244 C240 1.391 . S
C244 C243 1.391 . S
C244 C245 1.399 1_554 S
C245 C244 1.399 1_556 S
C245 C248 1.397 . S
C245 C257 1.453 . S
C245 C258 1.684 . S
H246 C270 0.948 . S
C247 C243 1.397 . S
C247 C248 1.392 1_554 S
C247 C266 1.723 . S
C248 C245 1.397 . S
C248 C247 1.392 1_556 S
C248 C278 1.724 . S
H249 C272 0.947 . S
H250 C273 0.948 . S
H251 C279 0.982 . S
H252 C280 0.979 . S
H253 C280 0.980 1_554 S
H254 C280 0.983 . S
H255 C279 0.979 . S
H256 C279 0.977 1_554 S
C257 C245 1.453 . S
C257 H286 0.982 . S
C257 H287 0.979 . S
C257 H288 0.977 . S
C258 C245 1.684 . S
C258 H283 0.979 . S
C258 H284 0.980 . S
C258 H285 0.983 . S
C259 C260 1.391 . S
C259 C264 1.391 . S
C259 H289 0.948 . S
C260 C259 1.391 . S
C260 C261 1.391 . S
C261 C260 1.391 . S
C261 C262 1.392 . S
C261 H290 0.947 . S
C262 C261 1.392 . S
C262 C263 1.419 . S
C262 H291 0.948 . S
C263 C262 1.419 . S
C263 C264 1.391 . S
C263 C267 1.397 . S
C264 C259 1.391 . S
C264 C263 1.391 . S
C264 C265 1.399 . S
C265 C264 1.399 . S
C265 C266 1.396 . S
C265 C268 1.453 . S
C265 C269 1.684 . S
C266 C247 1.723 . S
C266 C265 1.396 . S
C266 C267 1.394 . S
C267 C263 1.397 . S
C267 C266 1.394 . S
C267 C277 1.723 1_554 S
C268 C265 1.453 . S
C268 H292 0.982 . S
C268 H293 0.979 . S
C268 H294 0.977 . S
C269 C265 1.684 . S
C269 H295 0.979 . S
C269 H296 0.980 . S
C269 H297 0.983 . S
C270 H246 0.948 . S
C270 C271 1.391 . S
C270 C275 1.391 . S
C271 C270 1.391 . S
C271 C272 1.391 . S
C272 H249 0.947 . S
C272 C271 1.391 . S
C272 C273 1.392 . S
C273 H250 0.948 . S
C273 C272 1.392 . S
C273 C274 1.419 . S
C274 C273 1.419 . S
C274 C275 1.391 . S
C274 C278 1.397 . S
C275 C270 1.391 . S
C275 C274 1.391 . S
C275 C276 1.399 . S
C276 C275 1.399 . S
C276 C277 1.396 . S
C276 C279 1.453 . S
C276 C280 1.684 . S
C277 C267 1.723 1_556 S
C277 C276 1.396 . S
C277 C278 1.394 . S
C278 C248 1.724 . S
C278 C274 1.397 . S
C278 C277 1.394 . S
C279 H251 0.982 . S
C279 H255 0.979 . S
C279 H256 0.977 1_556 S
C279 C276 1.453 . S
C280 H252 0.979 . S
C280 H253 0.980 1_556 S
C280 H254 0.983 . S
C280 C276 1.684 . S
H281 C299 0.948 . S
H282 C240 0.948 . S
H283 C258 0.979 . S
H284 C258 0.980 . S
H285 C258 0.983 . S
H286 C257 0.982 . S
H287 C257 0.979 . S
H288 C257 0.977 . S
H289 C259 0.948 . S
H290 C261 0.947 . S
H291 C262 0.948 . S
H292 C268 0.982 . S
H293 C268 0.979 . S
H294 C268 0.977 . S
H295 C269 0.979 . S
H296 C269 0.980 . S
H297 C269 0.983 . S
H298 C242 0.947 . S
C299 C242 1.392 . S
C299 C243 1.419 . S
C299 H281 0.948 . S
C300 C301 1.391 . S
C300 C304 1.391 . S
C300 H342 0.948 . S
C301 C300 1.391 . S
C301 C302 1.391 . S
C302 C301 1.391 . S
C302 H358 0.947 . S
C302 C359 1.392 . S
C303 C304 1.391 . S
C303 C307 1.397 . S
C303 C359 1.419 . S
C304 C300 1.391 . S
C304 C303 1.391 . S
C304 C305 1.399 . S
C305 C304 1.399 . S
C305 C308 1.396 . S
C305 C317 1.453 . S
C305 C318 1.684 . S
H306 C330 0.948 . S
C307 C303 1.397 . S
C307 C308 1.394 . S
C307 C326 1.722 . S
C308 C305 1.396 . S
C308 C307 1.394 . S
C308 C338 1.723 . S
H309 C332 0.947 . S
H310 C333 0.948 . S
H311 C339 0.982 . S
H312 C340 0.958 1_655 S
H313 C340 0.980 . S
H314 C340 0.983 . S
H315 C339 0.979 . S
H316 C339 0.977 . S
C317 C305 1.453 . S
C317 H346 0.982 . S
C317 H347 0.979 . S
C317 H348 0.977 . S
C318 C305 1.684 . S
C318 H343 0.958 1_455 S
C318 H344 0.980 . S
C318 H345 0.983 . S
C319 C320 1.391 . S
C319 C324 1.391 . S
C319 H349 0.948 . S
C320 C319 1.391 . S
C320 C321 1.391 . S
C321 C320 1.391 . S
C321 C322 1.392 . S
C321 H350 0.947 . S
C322 C321 1.392 . S
C322 C323 1.419 . S
C322 H351 0.948 . S
C323 C322 1.419 . S
C323 C324 1.391 . S
C323 C327 1.397 . S
C324 C319 1.391 . S
C324 C323 1.391 . S
C324 C325 1.399 . S
C325 C324 1.399 . S
C325 C326 1.397 1_556 S
C325 C328 1.453 . S
C325 C329 1.684 . S
C326 C307 1.722 . S
C326 C325 1.397 1_554 S
C326 C327 1.395 1_554 S
C327 C323 1.397 . S
C327 C326 1.395 1_556 S
C327 C337 1.723 1_556 S
C328 C325 1.453 . S
C328 H352 0.982 . S
C328 H353 0.979 . S
C328 H354 0.977 1_556 S
C329 C325 1.684 . S
C329 H355 0.958 1_455 S
C329 H356 0.980 1_556 S
C329 H357 0.983 . S
C330 H306 0.948 . S
C330 C331 1.391 . S
C330 C335 1.391 . S
C331 C330 1.391 . S
C331 C332 1.391 . S
C332 H309 0.947 . S
C332 C331 1.391 . S
C332 C333 1.392 . S
C333 H310 0.948 . S
C333 C332 1.392 . S
C333 C334 1.419 . S
C334 C333 1.419 . S
C334 C335 1.391 . S
C334 C338 1.397 . S
C335 C330 1.391 . S
C335 C334 1.391 . S
C335 C336 1.399 1_554 S
C336 C335 1.399 1_556 S
C336 C337 1.396 1_556 S
C336 C339 1.453 . S
C336 C340 1.684 . S
C337 C327 1.723 1_554 S
C337 C336 1.396 1_554 S
C337 C338 1.394 . S
C338 C308 1.723 . S
C338 C334 1.397 . S
C338 C337 1.394 . S
C339 H311 0.982 . S
C339 H315 0.979 . S
C339 H316 0.977 . S
C339 C336 1.453 . S
C340 H312 0.958 1_455 S
C340 H313 0.980 . S
C340 H314 0.983 . S
C340 C336 1.684 . S
H341 C359 0.948 . S
H342 C300 0.948 . S
H343 C318 0.958 1_655 S
H344 C318 0.980 . S
H345 C318 0.983 . S
H346 C317 0.982 . S
H347 C317 0.979 . S
H348 C317 0.977 . S
H349 C319 0.948 . S
H350 C321 0.947 . S
H351 C322 0.948 . S
H352 C328 0.982 . S
H353 C328 0.979 . S
H354 C328 0.977 1_554 S
H355 C329 0.958 1_655 S
H356 C329 0.980 1_554 S
H357 C329 0.983 . S
H358 C302 0.947 . S
C359 C302 1.392 . S
C359 C303 1.419 . S
C359 H341 0.948 . S
C360 C361 1.391 . S
C360 C364 1.391 . S
C360 H402 0.948 . S
C361 C360 1.391 . S
C361 C362 1.391 . S
C362 C361 1.391 . S
C362 H418 0.947 . S
C362 C419 1.392 . S
C363 C364 1.391 . S
C363 C367 1.397 . S
C363 C419 1.419 . S
C364 C360 1.391 . S
C364 C363 1.391 . S
C364 C365 1.399 . S
C365 C364 1.399 . S
C365 C368 1.396 . S
C365 C377 1.453 . S
C365 C378 1.684 . S
H366 C390 0.948 . S
C367 C363 1.397 . S
C367 C368 1.394 . S
C367 C386 1.723 1_556 S
C368 C365 1.396 . S
C368 C367 1.394 . S
C368 C398 1.723 1_556 S
H369 C392 0.947 1_556 S
H370 C393 0.948 1_556 S
H371 C399 0.982 . S
H372 C400 0.979 . S
H373 C400 0.980 . S
H374 C400 0.983 . S
H375 C399 0.979 . S
H376 C399 0.977 . S
C377 C365 1.453 . S
C377 H406 0.982 . S
C377 H407 0.979 . S
C377 H408 0.977 . S
C378 C365 1.684 . S
C378 H403 0.979 . S
C378 H404 0.980 . S
C378 H405 0.983 . S
C379 C380 1.391 . S
C379 C384 1.391 . S
C379 H409 0.948 . S
C380 C379 1.391 . S
C380 C381 1.391 . S
C381 C380 1.391 . S
C381 C382 1.392 . S
C381 H410 0.947 . S
C382 C381 1.392 . S
C382 C383 1.419 . S
C382 H411 0.948 . S
C383 C382 1.419 . S
C383 C384 1.391 . S
C383 C387 1.397 . S
C384 C379 1.391 . S
C384 C383 1.391 . S
C384 C385 1.399 . S
C385 C384 1.399 . S
C385 C386 1.396 . S
C385 C388 1.453 . S
C385 C389 1.684 . S
C386 C367 1.723 1_554 S
C386 C385 1.396 . S
C386 C387 1.394 . S
C387 C383 1.397 . S
C387 C386 1.394 . S
C387 C397 1.723 . S
C388 C385 1.453 . S
C388 H412 0.982 . S
C388 H413 0.979 . S
C388 H414 0.977 1_554 S
C389 C385 1.684 . S
C389 H415 0.979 . S
C389 H416 0.980 1_554 S
C389 H417 0.983 . S
C390 H366 0.948 . S
C390 C391 1.391 . S
C390 C395 1.391 . S
C391 C390 1.391 . S
C391 C392 1.391 . S
C392 H369 0.947 1_554 S
C392 C391 1.391 . S
C392 C393 1.392 . S
C393 H370 0.948 1_554 S
C393 C392 1.392 . S
C393 C394 1.419 . S
C394 C393 1.419 . S
C394 C395 1.391 . S
C394 C398 1.397 . S
C395 C390 1.391 . S
C395 C394 1.391 . S
C395 C396 1.399 . S
C396 C395 1.399 . S
C396 C397 1.396 . S
C396 C399 1.453 . S
C396 C400 1.684 . S
C397 C387 1.723 . S
C397 C396 1.396 . S
C397 C398 1.394 . S
C398 C368 1.723 1_554 S
C398 C394 1.397 . S
C398 C397 1.394 . S
C399 H371 0.982 . S
C399 H375 0.979 . S
C399 H376 0.977 . S
C399 C396 1.453 . S
C400 H372 0.979 . S
C400 H373 0.980 . S
C400 H374 0.983 . S
C400 C396 1.684 . S
H401 C419 0.948 . S
H402 C360 0.948 . S
H403 C378 0.979 . S
H404 C378 0.980 . S
H405 C378 0.983 . S
H406 C377 0.982 . S
H407 C377 0.979 . S
H408 C377 0.977 . S
H409 C379 0.948 . S
H410 C381 0.947 . S
H411 C382 0.948 . S
H412 C388 0.982 . S
H413 C388 0.979 . S
H414 C388 0.977 1_556 S
H415 C389 0.979 . S
H416 C389 0.980 1_556 S
H417 C389 0.983 . S
H418 C362 0.947 . S
C419 C362 1.392 . S
C419 C363 1.419 . S
C419 H401 0.948 . S
C420 C421 1.391 . S
C420 C424 1.391 . S
C420 H462 0.948 . S
C421 C420 1.391 . S
C421 C422 1.391 . S
C422 C421 1.391 . S
C422 H478 0.947 . S
C422 C479 1.392 . S
C423 C424 1.391 . S
C423 C427 1.397 . S
C423 C479 1.419 . S
C424 C420 1.391 . S
C424 C423 1.391 . S
C424 C425 1.399 . S
C425 C424 1.399 . S
C425 C428 1.396 . S
C425 C437 1.453 . S
C425 C438 1.684 . S
H426 C450 0.948 . S
C427 C423 1.397 . S
C427 C428 1.394 . S
C427 C446 1.723 1_556 S
C428 C425 1.396 . S
C428 C427 1.394 . S
C428 C458 1.723 1_556 S
H429 C452 0.947 1_556 S
H430 C453 0.948 1_556 S
H431 C459 0.982 . S
H432 C460 0.979 . S
H433 C460 0.980 . S
H434 C460 0.983 . S
H435 C459 0.979 . S
H436 C459 0.977 . S
C437 C425 1.453 . S
C437 H466 0.982 . S
C437 H467 0.979 . S
C437 H468 0.977 . S
C438 C425 1.684 . S
C438 H463 0.979 . S
C438 H464 0.980 . S
C438 H465 0.983 . S
C439 C440 1.391 . S
C439 C444 1.391 . S
C439 H469 0.948 . S
C440 C439 1.391 . S
C440 C441 1.391 . S
C441 C440 1.391 . S
C441 C442 1.392 . S
C441 H470 0.947 . S
C442 C441 1.392 . S
C442 C443 1.419 . S
C442 H471 0.948 . S
C443 C442 1.419 . S
C443 C444 1.391 . S
C443 C447 1.397 . S
C444 C439 1.391 . S
C444 C443 1.391 . S
C444 C445 1.399 . S
C445 C444 1.399 . S
C445 C446 1.396 . S
C445 C448 1.453 . S
C445 C449 1.684 . S
C446 C427 1.723 1_554 S
C446 C445 1.396 . S
C446 C447 1.394 . S
C447 C443 1.397 . S
C447 C446 1.394 . S
C447 C457 1.723 . S
C448 C445 1.453 . S
C448 H472 0.982 . S
C448 H473 0.979 . S
C448 H474 0.977 1_554 S
C449 C445 1.684 . S
C449 H475 0.979 . S
C449 H476 0.980 1_554 S
C449 H477 0.983 . S
C450 H426 0.948 . S
C450 C451 1.391 . S
C450 C455 1.391 . S
C451 C450 1.391 . S
C451 C452 1.391 . S
C452 H429 0.947 1_554 S
C452 C451 1.391 . S
C452 C453 1.392 . S
C453 H430 0.948 1_554 S
C453 C452 1.392 . S
C453 C454 1.419 . S
C454 C453 1.419 . S
C454 C455 1.391 . S
C454 C458 1.397 . S
C455 C450 1.391 . S
C455 C454 1.391 . S
C455 C456 1.399 . S
C456 C455 1.399 . S
C456 C457 1.396 . S
C456 C459 1.453 . S
C456 C460 1.684 . S
C457 C447 1.723 . S
C457 C456 1.396 . S
C457 C458 1.394 . S
C458 C428 1.723 1_554 S
C458 C454 1.397 . S
C458 C457 1.394 . S
C459 H431 0.982 . S
C459 H435 0.979 . S
C459 H436 0.977 . S
C459 C456 1.453 . S
C460 H432 0.979 . S
C460 H433 0.980 . S
C460 H434 0.983 . S
C460 C456 1.684 . S
H461 C479 0.948 . S
H462 C420 0.948 . S
H463 C438 0.979 . S
H464 C438 0.980 . S
H465 C438 0.983 . S
H466 C437 0.982 . S
H467 C437 0.979 . S
H468 C437 0.977 . S
H469 C439 0.948 . S
H470 C441 0.947 . S
H471 C442 0.948 . S
H472 C448 0.982 . S
H473 C448 0.979 . S
H474 C448 0.977 1_556 S
H475 C449 0.979 . S
H476 C449 0.980 1_556 S
H477 C449 0.983 . S
H478 C422 0.947 . S
C479 C422 1.392 . S
C479 C423 1.419 . S
C479 H461 0.948 . S
C480 C482 1.422 . S
C480 C484 1.415 . S
C480 N486 1.382 . S
C481 C482 1.421 . S
C481 C483 1.417 . S
C481 C493 1.422 . S
C482 C480 1.422 . S
C482 C481 1.421 . S
C482 N492 1.359 . S
C483 C481 1.417 . S
C483 C485 1.329 . S
C483 H502 0.930 . S
C484 C480 1.415 . S
C484 C485 1.437 . S
C484 C488 1.413 . S
C485 C483 1.329 . S
C485 C484 1.437 . S
C485 H507 0.929 . S
N486 C480 1.382 . S
N486 C487 1.335 1_545 S
N486 Gd491 2.615 1_545 S
C487 N486 1.335 1_565 S
C487 C489 1.378 1_565 S
C487 H499 0.929 . S
C488 C484 1.413 . S
C488 C489 1.348 . S
C488 H504 0.931 . S
C489 C487 1.378 1_545 S
C489 C488 1.348 . S
C489 H505 0.930 . S
Gd490 N510 2.622 . S
Gd490 N517 2.570 . S
Gd490 O524 2.353 1_655 S
Gd490 O525 2.468 . S
Gd490 O526 2.427 . S
Gd490 O528 2.388 . S
Gd490 O529 2.386 1_545 S
Gd490 O533 2.307 1_655 S
Gd490 C543 2.805 . S
Gd491 N486 2.615 1_565 S
Gd491 N492 2.570 1_565 S
Gd491 O523 2.386 1_565 S
Gd491 O527 2.297 1_465 S
Gd491 O530 2.353 . S
Gd491 O531 2.468 . S
Gd491 O532 2.427 . S
Gd491 O534 2.388 . S
Gd491 C555 2.805 . S
N492 C482 1.359 . S
N492 Gd491 2.570 1_545 S
N492 C494 1.343 . S
C493 C481 1.422 . S
C493 C495 1.321 . S
C493 H501 0.931 1_556 S
C494 N492 1.343 . S
C494 C495 1.390 . S
C494 H496 0.957 . S
C495 C493 1.321 . S
C495 C494 1.390 . S
C495 H497 0.930 . S
H496 C494 0.957 . S
H497 C495 0.930 . S
H498 C521 0.931 1_455 S
H499 C487 0.929 . S
H500 C522 0.930 1_455 S
H501 C493 0.931 1_554 S
H502 C483 0.930 . S
H503 C512 0.929 . S
H504 C488 0.931 . S
H505 C489 0.930 . S
H506 C544 0.930 . S
H507 C485 0.929 . S
H508 C513 0.931 . S
H509 C514 0.930 . S
N510 Gd490 2.622 . S
N510 C511 1.369 . S
N510 C512 1.338 . S
C511 N510 1.369 . S
C511 C515 1.415 1_545 S
C511 C518 1.421 1_545 S
C512 H503 0.929 . S
C512 N510 1.338 . S
C512 C514 1.378 . S
C513 H508 0.931 . S
C513 C514 1.348 1_565 S
C513 C515 1.413 . S
C514 H509 0.930 . S
C514 C512 1.378 . S
C514 C513 1.348 1_545 S
C515 C511 1.415 1_565 S
C515 C513 1.413 . S
C515 C545 1.437 . S
H516 C545 0.929 . S
N517 Gd490 2.570 . S
N517 C518 1.353 1_545 S
N517 C521 1.343 . S
C518 C511 1.421 1_565 S
C518 N517 1.353 1_565 S
C518 C520 1.429 . S
C519 C520 1.422 . S
C519 C522 1.321 . S
C519 H546 0.931 . S
C520 C518 1.429 . S
C520 C519 1.422 . S
C520 C544 1.417 . S
C521 H498 0.931 1_655 S
C521 N517 1.343 . S
C521 C522 1.390 1_545 S
C522 H500 0.930 1_655 S
C522 C519 1.321 . S
C522 C521 1.390 1_565 S
O523 Gd491 2.386 1_545 S
O523 C535 1.265 . S
O524 Gd490 2.353 1_455 S
O524 C535 1.242 . S
O525 Gd490 2.468 . S
O525 C543 1.263 . S
O526 Gd490 2.427 . S
O526 C543 1.252 . S
O527 Gd491 2.297 1_645 S
O527 C536 1.269 . S
O528 Gd490 2.388 . S
O528 C536 1.252 . S
O529 Gd490 2.386 1_565 S
O529 C547 1.265 . S
O530 Gd491 2.353 . S
O530 C547 1.242 1_455 S
O531 Gd491 2.468 . S
O531 C555 1.263 . S
O532 Gd491 2.427 . S
O532 C555 1.252 . S
O533 Gd490 2.307 1_455 S
O533 C548 1.261 . S
O534 Gd491 2.388 . S
O534 C548 1.252 1_565 S
C535 O523 1.265 . S
C535 O524 1.242 . S
C536 O527 1.269 . S
C536 O528 1.252 . S
C537 C540 1.394 . S
C537 C542 1.370 . S
C537 C543 1.500 . S
C538 C541 1.383 . S
C538 C542 1.395 . S
C539 C540 1.396 . S
C539 C541 1.365 . S
C539 H556 0.929 . S
C540 C537 1.394 . S
C540 C539 1.396 . S
C540 H557 0.930 . S
C541 C538 1.383 . S
C541 C539 1.365 . S
C541 H558 0.931 . S
C542 C537 1.370 . S
C542 C538 1.395 . S
C542 H559 0.930 1_655 S
C543 Gd490 2.805 . S
C543 O525 1.263 . S
C543 O526 1.252 . S
C543 C537 1.500 . S
C544 H506 0.930 . S
C544 C520 1.417 . S
C544 C545 1.329 . S
C545 C515 1.437 . S
C545 H516 0.929 . S
C545 C544 1.329 . S
H546 C519 0.931 . S
C547 O529 1.265 . S
C547 O530 1.242 1_655 S
C548 O533 1.261 . S
C548 O534 1.252 1_545 S
C549 C552 1.394 . S
C549 C554 1.370 . S
C549 C555 1.500 . S
C550 C553 1.383 . S
C550 C554 1.395 . S
C551 C552 1.396 . S
C551 C553 1.365 . S
C551 H560 0.929 . S
C552 C549 1.394 . S
C552 C551 1.396 . S
C552 H561 0.930 . S
C553 C550 1.383 . S
C553 C551 1.365 . S
C553 H562 0.931 . S
C554 C549 1.370 . S
C554 C550 1.395 . S
C554 H563 0.930 . S
C555 Gd491 2.805 . S
C555 O531 1.263 . S
C555 O532 1.252 . S
C555 C549 1.500 . S
H556 C539 0.929 . S
H557 C540 0.930 . S
H558 C541 0.931 . S
H559 C542 0.930 1_455 S
H560 C551 0.929 . S
H561 C552 0.930 . S
H562 C553 0.931 . S
H563 C554 0.930 . S
C564 C566 1.422 . S
C564 C568 1.415 . S
C564 N570 1.369 . S
C565 C566 1.421 . S
C565 C567 1.417 . S
C565 C577 1.422 . S
C566 C564 1.422 . S
C566 C565 1.421 . S
C566 N576 1.359 . S
C567 C565 1.417 . S
C567 C569 1.329 . S
C567 H586 0.930 . S
C568 C564 1.415 . S
C568 C569 1.437 . S
C568 C572 1.413 . S
C569 C567 1.329 . S
C569 C568 1.437 . S
C569 H591 0.929 . S
N570 C564 1.369 . S
N570 C571 1.338 . S
N570 Gd575 2.622 . S
C571 N570 1.338 . S
C571 C573 1.378 . S
C571 H583 0.929 . S
C572 C568 1.413 . S
C572 C573 1.348 . S
C572 H588 0.931 . S
C573 C571 1.378 . S
C573 C572 1.348 . S
C573 H589 0.930 . S
Gd574 N594 2.622 . S
Gd574 N601 2.570 . S
Gd574 O608 2.353 1_545 S
Gd574 O609 2.468 . S
Gd574 O610 2.427 . S
Gd574 O612 2.388 . S
Gd574 O613 2.386 . S
Gd574 O617 2.307 . S
Gd574 C627 2.805 . S
Gd575 N570 2.622 . S
Gd575 N576 2.570 . S
Gd575 O607 2.386 . S
Gd575 O611 2.307 1_565 S
Gd575 O614 2.353 1_565 S
Gd575 O615 2.468 . S
Gd575 O616 2.427 . S
Gd575 O618 2.388 . S
Gd575 C639 2.805 . S
N576 C566 1.359 . S
N576 Gd575 2.570 . S
N576 C578 1.343 . S
C577 C565 1.422 . S
C577 C579 1.321 . S
C577 H585 0.931 . S
C578 N576 1.343 . S
C578 C579 1.390 . S
C578 H580 0.931 . S
C579 C577 1.321 . S
C579 C578 1.390 . S
C579 H581 0.930 . S
H580 C578 0.931 . S
H581 C579 0.930 . S
H582 C605 0.931 . S
H583 C571 0.929 . S
H584 C606 0.930 . S
H585 C577 0.931 . S
H586 C567 0.930 . S
H587 C596 0.929 . S
H588 C572 0.931 . S
H589 C573 0.930 . S
H590 C628 0.930 . S
H591 C569 0.929 . S
H592 C597 0.931 . S
H593 C598 0.930 . S
N594 Gd574 2.622 . S
N594 C595 1.369 . S
N594 C596 1.338 . S
C595 N594 1.369 . S
C595 C599 1.415 . S
C595 C602 1.422 . S
C596 H587 0.929 . S
C596 N594 1.338 . S
C596 C598 1.378 . S
C597 H592 0.931 . S
C597 C598 1.348 . S
C597 C599 1.413 . S
C598 H593 0.930 . S
C598 C596 1.378 . S
C598 C597 1.348 . S
C599 C595 1.415 . S
C599 C597 1.413 . S
C599 C629 1.437 . S
H600 C629 0.929 . S
N601 Gd574 2.570 . S
N601 C602 1.359 . S
N601 C605 1.343 . S
C602 C595 1.422 . S
C602 N601 1.359 . S
C602 C604 1.421 . S
C603 C604 1.422 . S
C603 C606 1.321 . S
C603 H630 0.931 . S
C604 C602 1.421 . S
C604 C603 1.422 . S
C604 C628 1.417 . S
C605 H582 0.931 . S
C605 N601 1.343 . S
C605 C606 1.390 . S
C606 H584 0.930 . S
C606 C603 1.321 . S
C606 C605 1.390 . S
O607 Gd575 2.386 . S
O607 C619 1.265 . S
O608 Gd574 2.353 1_565 S
O608 C619 1.242 . S
O609 Gd574 2.468 . S
O609 C627 1.263 . S
O610 Gd574 2.427 . S
O610 C627 1.252 . S
O611 Gd575 2.307 1_545 S
O611 C620 1.261 . S
O612 Gd574 2.388 . S
O612 C620 1.252 . S
O613 Gd574 2.386 . S
O613 C631 1.265 . S
O614 Gd575 2.353 1_545 S
O614 C631 1.242 . S
O615 Gd575 2.468 . S
O615 C639 1.263 . S
O616 Gd575 2.427 . S
O616 C639 1.252 . S
O617 Gd574 2.307 . S
O617 C632 1.261 1_545 S
O618 Gd575 2.388 . S
O618 C632 1.252 . S
C619 O607 1.265 . S
C619 O608 1.242 . S
C620 O611 1.261 . S
C620 O612 1.252 . S
C621 C624 1.394 . S
C621 C626 1.370 . S
C621 C627 1.500 . S
C622 C625 1.383 . S
C622 C626 1.395 . S
C623 C624 1.396 1_554 S
C623 C625 1.365 1_554 S
C623 H640 0.929 . S
C624 C621 1.394 . S
C624 C623 1.396 1_556 S
C624 H641 0.930 . S
C625 C622 1.383 . S
C625 C623 1.365 1_556 S
C625 H642 0.931 1_556 S
C626 C621 1.370 . S
C626 C622 1.395 . S
C626 H643 0.930 . S
C627 Gd574 2.805 . S
C627 O609 1.263 . S
C627 O610 1.252 . S
C627 C621 1.500 . S
C628 H590 0.930 . S
C628 C604 1.417 . S
C628 C629 1.329 . S
C629 C599 1.437 . S
C629 H600 0.929 . S
C629 C628 1.329 . S
H630 C603 0.931 . S
C631 O613 1.265 . S
C631 O614 1.242 . S
C632 O617 1.261 1_565 S
C632 O618 1.252 . S
C633 C636 1.394 . S
C633 C638 1.370 . S
C633 C639 1.500 . S
C634 C637 1.383 . S
C634 C638 1.395 . S
C635 C636 1.396 . S
C635 C637 1.365 . S
C635 H644 0.929 . S
C636 C633 1.394 . S
C636 C635 1.396 . S
C636 H645 0.930 . S
C637 C634 1.383 . S
C637 C635 1.365 . S
C637 H646 0.931 . S
C638 C633 1.370 . S
C638 C634 1.395 . S
C638 H647 0.930 1_565 S
C639 Gd575 2.805 . S
C639 O615 1.263 . S
C639 O616 1.252 . S
C639 C633 1.500 . S
H640 C623 0.929 . S
H641 C624 0.930 . S
H642 C625 0.931 1_554 S
H643 C626 0.930 . S
H644 C635 0.929 . S
H645 C636 0.930 . S
H646 C637 0.931 . S
H647 C638 0.930 1_545 S
C648 C650 1.422 . S
C648 C652 1.415 . S
C648 N654 1.369 . S
C649 C650 1.421 . S
C649 C651 1.417 . S
C649 C661 1.422 . S
C650 C648 1.422 . S
C650 C649 1.421 . S
C650 N660 1.359 . S
C651 C649 1.417 . S
C651 C653 1.329 . S
C651 H670 0.930 . S
C652 C648 1.415 . S
C652 C653 1.437 . S
C652 C656 1.413 . S
C653 C651 1.329 . S
C653 C652 1.437 . S
C653 H675 0.929 . S
N654 C648 1.369 . S
N654 C655 1.338 . S
N654 Gd659 2.622 . S
C655 N654 1.338 . S
C655 C657 1.378 . S
C655 H667 0.929 . S
C656 C652 1.413 . S
C656 C657 1.348 . S
C656 H672 0.931 . S
C657 C655 1.378 . S
C657 C656 1.348 . S
C657 H673 0.930 . S
Gd658 N678 2.622 . S
Gd658 N685 2.570 . S
Gd658 O692 2.353 . S
Gd658 O693 2.468 . S
Gd658 O694 2.427 . S
Gd658 O696 2.388 . S
Gd658 O697 2.386 . S
Gd658 O701 2.307 . S
Gd658 C711 2.805 . S
Gd659 N654 2.622 . S
Gd659 N660 2.570 . S
Gd659 O691 2.386 . S
Gd659 O695 2.307 . S
Gd659 O698 2.353 . S
Gd659 O699 2.468 . S
Gd659 O700 2.427 . S
Gd659 O702 2.388 . S
Gd659 C723 2.805 . S
N660 C650 1.359 . S
N660 Gd659 2.570 . S
N660 C662 1.343 . S
C661 C649 1.422 . S
C661 C663 1.321 . S
C661 H669 0.931 1_556 S
C662 N660 1.343 . S
C662 C663 1.390 . S
C662 H664 0.931 . S
C663 C661 1.321 . S
C663 C662 1.390 . S
C663 H665 0.930 . S
H664 C662 0.931 . S
H665 C663 0.930 . S
H666 C689 0.931 . S
H667 C655 0.929 . S
H668 C690 0.930 . S
H669 C661 0.931 1_554 S
H670 C651 0.930 . S
H671 C680 0.929 . S
H672 C656 0.931 . S
H673 C657 0.930 . S
H674 C712 0.930 . S
H675 C653 0.929 . S
H676 C681 0.931 . S
H677 C682 0.930 . S
N678 Gd658 2.622 . S
N678 C679 1.369 . S
N678 C680 1.338 . S
C679 N678 1.369 . S
C679 C683 1.415 . S
C679 C686 1.422 . S
C680 H671 0.929 . S
C680 N678 1.338 . S
C680 C682 1.378 . S
C681 H676 0.931 . S
C681 C682 1.348 . S
C681 C683 1.413 . S
C682 H677 0.930 . S
C682 C680 1.378 . S
C682 C681 1.348 . S
C683 C679 1.415 . S
C683 C681 1.413 . S
C683 C713 1.437 . S
H684 C713 0.929 . S
N685 Gd658 2.570 . S
N685 C686 1.359 . S
N685 C689 1.343 . S
C686 C679 1.422 . S
C686 N685 1.359 . S
C686 C688 1.421 . S
C687 C688 1.422 . S
C687 C690 1.321 . S
C687 H714 0.931 . S
C688 C686 1.421 . S
C688 C687 1.422 . S
C688 C712 1.417 . S
C689 H666 0.931 . S
C689 N685 1.343 . S
C689 C690 1.390 . S
C690 H668 0.930 . S
C690 C687 1.321 . S
C690 C689 1.390 . S
O691 Gd659 2.386 . S
O691 C703 1.265 . S
O692 Gd658 2.353 . S
O692 C703 1.242 . S
O693 Gd658 2.468 . S
O693 C711 1.263 . S
O694 Gd658 2.427 . S
O694 C711 1.252 . S
O695 Gd659 2.307 . S
O695 C704 1.261 . S
O696 Gd658 2.388 . S
O696 C704 1.252 . S
O697 Gd658 2.386 . S
O697 C715 1.265 . S
O698 Gd659 2.353 . S
O698 C715 1.242 . S
O699 Gd659 2.468 . S
O699 C723 1.263 . S
O700 Gd659 2.427 . S
O700 C723 1.252 . S
O701 Gd658 2.307 . S
O701 C716 1.261 . S
O702 Gd659 2.388 . S
O702 C716 1.252 . S
C703 O691 1.265 . S
C703 O692 1.242 . S
C704 O695 1.261 . S
C704 O696 1.252 . S
C705 C708 1.394 . S
C705 C710 1.370 . S
C705 C711 1.500 . S
C706 C709 1.383 . S
C706 C710 1.395 . S
C707 C708 1.396 . S
C707 C709 1.365 . S
C707 H724 0.929 . S
C708 C705 1.394 . S
C708 C707 1.396 . S
C708 H725 0.930 . S
C709 C706 1.383 . S
C709 C707 1.365 . S
C709 H726 0.931 . S
C710 C705 1.370 . S
C710 C706 1.395 . S
C710 H727 0.930 . S
C711 Gd658 2.805 . S
C711 O693 1.263 . S
C711 O694 1.252 . S
C711 C705 1.500 . S
C712 H674 0.930 . S
C712 C688 1.417 . S
C712 C713 1.329 . S
C713 C683 1.437 . S
C713 H684 0.929 . S
C713 C712 1.329 . S
H714 C687 0.931 . S
C715 O697 1.265 . S
C715 O698 1.242 . S
C716 O701 1.261 . S
C716 O702 1.252 . S
C717 C720 1.394 . S
C717 C722 1.370 . S
C717 C723 1.500 . S
C718 C721 1.383 . S
C718 C722 1.395 . S
C719 C720 1.396 . S
C719 C721 1.365 . S
C719 H728 0.929 . S
C720 C717 1.394 . S
C720 C719 1.396 . S
C720 H729 0.930 . S
C721 C718 1.383 . S
C721 C719 1.365 . S
C721 H730 0.931 . S
C722 C717 1.370 . S
C722 C718 1.395 . S
C722 H731 0.930 . S
C723 Gd659 2.805 . S
C723 O699 1.263 . S
C723 O700 1.252 . S
C723 C717 1.500 . S
H724 C707 0.929 . S
H725 C708 0.930 . S
H726 C709 0.931 . S
H727 C710 0.930 . S
H728 C719 0.929 . S
H729 C720 0.930 . S
H730 C721 0.931 . S
H731 C722 0.930 . S
C732 C734 1.422 . S
C732 C736 1.415 . S
C732 N738 1.369 1_455 S
C733 C734 1.421 . S
C733 C735 1.417 . S
C733 C745 1.422 . S
C734 C732 1.422 . S
C734 C733 1.421 . S
C734 N744 1.359 . S
C735 C733 1.417 . S
C735 C737 1.329 . S
C735 H754 0.930 . S
C736 C732 1.415 . S
C736 C737 1.437 . S
C736 C740 1.413 . S
C737 C735 1.329 . S
C737 C736 1.437 . S
C737 H759 0.929 . S
N738 C732 1.369 1_655 S
N738 C739 1.338 . S
N738 Gd743 2.622 . S
C739 N738 1.338 . S
C739 C741 1.378 1_655 S
C739 H751 0.929 . S
C740 C736 1.413 . S
C740 C741 1.348 . S
C740 H756 0.931 . S
C741 C739 1.378 1_455 S
C741 C740 1.348 . S
C741 H757 0.935 . S
Gd742 N762 2.622 . S
Gd742 N769 2.570 . S
Gd742 O776 2.353 . S
Gd742 O777 2.468 . S
Gd742 O778 2.427 . S
Gd742 O780 2.388 . S
Gd742 O781 2.386 1_455 S
Gd742 O785 2.307 . S
Gd742 C795 2.805 . S
Gd743 N738 2.622 . S
Gd743 N744 2.570 1_655 S
Gd743 O775 2.386 1_655 S
Gd743 O779 2.318 . S
Gd743 O782 2.353 . S
Gd743 O783 2.468 . S
Gd743 O784 2.427 . S
Gd743 O786 2.388 . S
Gd743 C807 2.805 . S
N744 C734 1.359 . S
N744 Gd743 2.570 1_455 S
N744 C746 1.343 . S
C745 C733 1.422 . S
C745 C747 1.321 . S
C745 H753 0.931 1_556 S
C746 N744 1.343 . S
C746 C747 1.390 . S
C746 H748 0.918 1_455 S
C747 C745 1.321 . S
C747 C746 1.390 . S
C747 H749 0.930 . S
H748 C746 0.918 1_655 S
H749 C747 0.930 . S
H750 C773 0.931 . S
H751 C739 0.929 . S
H752 C774 0.930 . S
H753 C745 0.931 1_554 S
H754 C735 0.930 . S
H755 C764 0.929 . S
H756 C740 0.931 . S
H757 C741 0.935 . S
H758 C796 0.930 . S
H759 C737 0.929 . S
H760 C765 0.931 . S
H761 C766 0.930 . S
N762 Gd742 2.622 . S
N762 C763 1.369 . S
N762 C764 1.338 . S
C763 N762 1.369 . S
C763 C767 1.415 1_455 S
C763 C770 1.419 1_455 S
C764 H755 0.929 . S
C764 N762 1.338 . S
C764 C766 1.378 . S
C765 H760 0.931 . S
C765 C766 1.348 1_655 S
C765 C767 1.413 . S
C766 H761 0.930 . S
C766 C764 1.378 . S
C766 C765 1.348 1_455 S
C767 C763 1.415 1_655 S
C767 C765 1.413 . S
C767 C797 1.437 . S
H768 C797 0.929 . S
N769 Gd742 2.570 . S
N769 C770 1.344 1_455 S
N769 C773 1.343 . S
C770 C763 1.419 1_655 S
C770 N769 1.344 1_655 S
C770 C772 1.440 . S
C771 C772 1.422 . S
C771 C774 1.321 . S
C771 H798 0.931 . S
C772 C770 1.440 . S
C772 C771 1.422 . S
C772 C796 1.417 . S
C773 H750 0.931 . S
C773 N769 1.343 . S
C773 C774 1.390 1_455 S
C774 H752 0.930 . S
C774 C771 1.321 . S
C774 C773 1.390 1_655 S
O775 Gd743 2.386 1_455 S
O775 C787 1.265 . S
O776 Gd742 2.353 . S
O776 C787 1.242 . S
O777 Gd742 2.468 . S
O777 C795 1.263 . S
O778 Gd742 2.427 . S
O778 C795 1.252 . S
O779 Gd743 2.318 . S
O779 C788 1.254 1_655 S
O780 Gd742 2.388 . S
O780 C788 1.252 . S
O781 Gd742 2.386 1_655 S
O781 C799 1.265 . S
O782 Gd743 2.353 . S
O782 C799 1.242 . S
O783 Gd743 2.468 . S
O783 C807 1.263 . S
O784 Gd743 2.427 . S
O784 C807 1.252 . S
O785 Gd742 2.307 . S
O785 C800 1.261 . S
O786 Gd743 2.388 . S
O786 C800 1.252 1_655 S
C787 O775 1.265 . S
C787 O776 1.242 . S
C788 O779 1.254 1_455 S
C788 O780 1.252 . S
C789 C792 1.394 . S
C789 C794 1.370 . S
C789 C795 1.500 . S
C790 C793 1.383 . S
C790 C794 1.395 . S
C791 C792 1.396 . S
C791 C793 1.365 . S
C791 H808 0.929 . S
C792 C789 1.394 . S
C792 C791 1.396 . S
C792 H809 0.930 . S
C793 C790 1.383 . S
C793 C791 1.365 . S
C793 H810 0.931 . S
C794 C789 1.370 . S
C794 C790 1.395 . S
C794 H811 0.930 . S
C795 Gd742 2.805 . S
C795 O777 1.263 . S
C795 O778 1.252 . S
C795 C789 1.500 . S
C796 H758 0.930 . S
C796 C772 1.417 . S
C796 C797 1.329 . S
C797 C767 1.437 . S
C797 H768 0.929 . S
C797 C796 1.329 . S
H798 C771 0.931 . S
C799 O781 1.265 . S
C799 O782 1.242 . S
C800 O785 1.261 . S
C800 O786 1.252 1_455 S
C801 C804 1.394 . S
C801 C806 1.370 . S
C801 C807 1.500 . S
C802 C805 1.383 . S
C802 C806 1.395 . S
C803 C804 1.396 . S
C803 C805 1.365 . S
C803 H812 0.929 . S
C804 C801 1.394 . S
C804 C803 1.396 . S
C804 H813 0.930 . S
C805 C802 1.383 . S
C805 C803 1.365 . S
C805 H814 0.931 . S
C806 C801 1.370 . S
C806 C802 1.395 . S
C806 H815 0.930 . S
C807 Gd743 2.805 . S
C807 O783 1.263 . S
C807 O784 1.252 . S
C807 C801 1.500 . S
H808 C791 0.929 . S
H809 C792 0.930 . S
H810 C793 0.931 . S
H811 C794 0.930 . S
H812 C803 0.929 . S
H813 C804 0.930 . S
H814 C805 0.931 . S
H815 C806 0.930 . S
H816 C822 0.930 . S
H817 C825 0.930 . S
H818 C826 0.930 1_565 S
H819 C827 0.930 1_565 S
H820 C830 0.930 . S
H821 C831 0.930 . S
C822 H816 0.930 . S
C822 C823 1.355 . S
C822 C824 1.415 . S
C823 C822 1.355 . S
C823 C825 1.419 . S
C824 C822 1.415 . S
C824 C829 1.425 . S
C824 C831 1.409 . S
C825 H817 0.930 . S
C825 C823 1.419 . S
C825 C826 1.362 . S
C826 H818 0.930 1_545 S
C826 C825 1.362 . S
C826 C829 1.409 . S
C827 H819 0.930 1_545 S
C827 C828 1.355 . S
C827 C829 1.415 . S
C828 C827 1.355 . S
C828 C830 1.419 . S
C829 C824 1.425 . S
C829 C826 1.409 . S
C829 C827 1.415 . S
C830 H820 0.930 . S
C830 C828 1.419 . S
C830 C831 1.362 . S
C831 H821 0.930 . S
C831 C824 1.409 . S
C831 C830 1.362 . S
H832 C838 0.930 . S
H833 C841 0.930 . S
H834 C842 0.930 . S
H835 C843 0.930 . S
H836 C846 0.930 . S
H837 C847 0.930 . S
C838 H832 0.930 . S
C838 C839 1.355 . S
C838 C840 1.415 . S
C839 C838 1.355 . S
C839 C841 1.419 . S
C840 C838 1.415 . S
C840 C845 1.425 . S
C840 C847 1.409 . S
C841 H833 0.930 . S
C841 C839 1.419 . S
C841 C842 1.362 . S
C842 H834 0.930 . S
C842 C841 1.362 . S
C842 C845 1.409 . S
C843 H835 0.930 . S
C843 C844 1.355 . S
C843 C845 1.415 . S
C844 C843 1.355 . S
C844 C846 1.419 . S
C845 C840 1.425 . S
C845 C842 1.409 . S
C845 C843 1.415 . S
C846 H836 0.930 . S
C846 C844 1.419 . S
C846 C847 1.362 . S
C847 H837 0.930 . S
C847 C840 1.409 . S
C847 C846 1.362 . S
H848 C854 0.930 . S
H849 C857 0.930 . S
H850 C858 0.930 . S
H851 C859 0.930 . S
H852 C862 0.930 . S
H853 C863 0.930 . S
C854 H848 0.930 . S
C854 C855 1.355 . S
C854 C856 1.415 . S
C855 C854 1.355 . S
C855 C857 1.419 . S
C856 C854 1.415 . S
C856 C861 1.425 . S
C856 C863 1.409 . S
C857 H849 0.930 . S
C857 C855 1.419 . S
C857 C858 1.362 . S
C858 H850 0.930 . S
C858 C857 1.362 . S
C858 C861 1.409 . S
C859 H851 0.930 . S
C859 C860 1.355 . S
C859 C861 1.415 . S
C860 C859 1.355 . S
C860 C862 1.419 . S
C861 C856 1.425 . S
C861 C858 1.409 . S
C861 C859 1.415 . S
C862 H852 0.930 . S
C862 C860 1.419 . S
C862 C863 1.362 . S
C863 H853 0.930 . S
C863 C856 1.409 . S
C863 C862 1.362 . S
H864 C870 0.930 . S
H865 C873 0.930 . S
H866 C874 0.930 1_655 S
H867 C875 0.930 1_655 S
H868 C878 0.930 . S
H869 C879 0.930 . S
C870 H864 0.930 . S
C870 C871 1.355 . S
C870 C872 1.415 . S
C871 C870 1.355 . S
C871 C873 1.419 . S
C872 C870 1.415 . S
C872 C877 1.425 . S
C872 C879 1.409 . S
C873 H865 0.930 . S
C873 C871 1.419 . S
C873 C874 1.362 . S
C874 H866 0.930 1_455 S
C874 C873 1.362 . S
C874 C877 1.409 . S
C875 H867 0.930 1_455 S
C875 C876 1.355 . S
C875 C877 1.415 . S
C876 C875 1.355 . S
C876 C878 1.419 . S
C877 C872 1.425 . S
C877 C874 1.409 . S
C877 C875 1.415 . S
C878 H868 0.930 . S
C878 C876 1.419 . S
C878 C879 1.362 . S
C879 H869 0.930 . S
C879 C872 1.409 . S
C879 C878 1.362 . S
H880 C886 0.930 1_545 S
H881 C889 0.930 . S
H882 C890 0.930 . S
H883 C891 0.930 . S
H884 C894 0.930 . S
H885 C895 0.930 . S
C886 H880 0.930 1_565 S
C886 C887 1.355 . S
C886 C888 1.415 1_554 S
C887 C886 1.355 . S
C887 C889 1.419 . S
C888 C886 1.415 1_556 S
C888 C893 1.425 . S
C888 C895 1.409 1_565 S
C889 H881 0.930 . S
C889 C887 1.419 . S
C889 C890 1.362 1_554 S
C890 H882 0.930 . S
C890 C889 1.362 1_556 S
C890 C893 1.409 . S
C891 H883 0.930 . S
C891 C892 1.355 . S
C891 C893 1.415 . S
C892 C891 1.355 . S
C892 C894 1.419 1_565 S
C893 C888 1.425 . S
C893 C890 1.409 . S
C893 C891 1.415 . S
C894 H884 0.930 . S
C894 C892 1.419 1_545 S
C894 C895 1.362 . S
C895 H885 0.930 . S
C895 C888 1.409 1_545 S
C895 C894 1.362 . S
H896 C902 0.930 . S
H897 C905 0.930 . S
H898 C906 0.929 1_556 S
H899 C907 0.930 . S
H900 C910 0.930 . S
H901 C911 0.930 . S
C902 H896 0.930 . S
C902 C903 1.355 . S
C902 C904 1.415 1_554 S
C903 C902 1.355 . S
C903 C905 1.419 . S
C904 C902 1.415 1_556 S
C904 C909 1.425 . S
C904 C911 1.409 . S
C905 H897 0.930 . S
C905 C903 1.419 . S
C905 C906 1.362 . S
C906 H898 0.929 1_554 S
C906 C905 1.362 . S
C906 C909 1.409 1_554 S
C907 H899 0.930 . S
C907 C908 1.355 . S
C907 C909 1.415 . S
C908 C907 1.355 . S
C908 C910 1.419 . S
C909 C904 1.425 . S
C909 C906 1.409 1_556 S
C909 C907 1.415 . S
C910 H900 0.930 . S
C910 C908 1.419 . S
C910 C911 1.362 . S
C911 H901 0.930 . S
C911 C904 1.409 . S
C911 C910 1.362 . S
H912 C918 0.930 . S
H913 C921 0.930 . S
H914 C922 0.930 . S
H915 C923 0.930 . S
H916 C926 0.930 . S
H917 C927 0.930 . S
C918 H912 0.930 . S
C918 C919 1.355 . S
C918 C920 1.415 1_554 S
C919 C918 1.355 . S
C919 C921 1.419 . S
C920 C918 1.415 1_556 S
C920 C925 1.425 . S
C920 C927 1.409 . S
C921 H913 0.930 . S
C921 C919 1.419 . S
C921 C922 1.362 . S
C922 H914 0.930 . S
C922 C921 1.362 . S
C922 C925 1.409 1_554 S
C923 H915 0.930 . S
C923 C924 1.355 . S
C923 C925 1.415 . S
C924 C923 1.355 . S
C924 C926 1.419 . S
C925 C920 1.425 . S
C925 C922 1.409 1_556 S
C925 C923 1.415 . S
C926 H916 0.930 . S
C926 C924 1.419 . S
C926 C927 1.362 . S
C927 H917 0.930 . S
C927 C920 1.409 . S
C927 C926 1.362 . S
H928 C934 0.930 1_455 S
H929 C937 0.930 . S
H930 C938 0.930 1_556 S
H931 C939 0.930 . S
H932 C942 0.930 . S
H933 C943 0.930 . S
C934 H928 0.930 1_655 S
C934 C935 1.355 . S
C934 C936 1.415 1_554 S
C935 C934 1.355 . S
C935 C937 1.419 . S
C936 C934 1.415 1_556 S
C936 C941 1.425 . S
C936 C943 1.409 1_655 S
C937 H929 0.930 . S
C937 C935 1.419 . S
C937 C938 1.362 . S
C938 H930 0.930 1_554 S
C938 C937 1.362 . S
C938 C941 1.409 1_554 S
C939 H931 0.930 . S
C939 C940 1.355 . S
C939 C941 1.415 . S
C940 C939 1.355 . S
C940 C942 1.419 1_655 S
C941 C936 1.425 . S
C941 C938 1.409 1_556 S
C941 C939 1.415 . S
C942 H932 0.930 . S
C942 C940 1.419 1_455 S
C942 C943 1.362 . S
C943 H933 0.930 . S
C943 C936 1.409 1_455 S
C943 C942 1.362 . S
H944 C950 0.930 . S
H945 C953 0.930 . S
H946 C954 0.930 . S
H947 C955 0.930 . S
H948 C958 0.930 . S
H949 C959 0.930 . S
C950 H944 0.930 . S
C950 C951 1.355 . S
C950 C952 1.415 . S
C951 C950 1.355 . S
C951 C953 1.419 . S
C952 C950 1.415 . S
C952 C957 1.425 . S
C952 C959 1.409 1_455 S
C953 H945 0.930 . S
C953 C951 1.419 . S
C953 C954 1.362 . S
C954 H946 0.930 . S
C954 C953 1.362 . S
C954 C957 1.409 . S
C955 H947 0.930 . S
C955 C956 1.355 1_455 S
C955 C957 1.415 . S
C956 C955 1.355 1_655 S
C956 C958 1.419 . S
C957 C952 1.425 . S
C957 C954 1.409 . S
C957 C955 1.415 . S
C958 H948 0.930 . S
C958 C956 1.419 . S
C958 C959 1.362 . S
C959 H949 0.930 . S
C959 C952 1.409 1_655 S
C959 C958 1.362 . S
H960 C966 0.930 . S
H961 C969 0.930 . S
H962 C970 0.930 . S
H963 C971 0.930 . S
H964 C974 0.930 . S
H965 C975 0.930 . S
C966 H960 0.930 . S
C966 C967 1.355 . S
C966 C968 1.415 . S
C967 C966 1.355 . S
C967 C969 1.419 . S
C968 C966 1.415 . S
C968 C973 1.425 . S
C968 C975 1.409 1_545 S
C969 H961 0.930 . S
C969 C967 1.419 . S
C969 C970 1.362 . S
C970 H962 0.930 . S
C970 C969 1.362 . S
C970 C973 1.409 . S
C971 H963 0.930 . S
C971 C972 1.355 1_545 S
C971 C973 1.415 . S
C972 C971 1.355 1_565 S
C972 C974 1.419 . S
C973 C968 1.425 . S
C973 C970 1.409 . S
C973 C971 1.415 . S
C974 H964 0.930 . S
C974 C972 1.419 . S
C974 C975 1.362 . S
C975 H965 0.930 . S
C975 C968 1.409 1_565 S
C975 C974 1.362 . S
H976 C982 0.930 . S
H977 C985 0.930 . S
H978 C986 0.930 . S
H979 C987 0.930 . S
H980 C990 0.930 . S
H981 C991 0.930 . S
C982 H976 0.930 . S
C982 C983 1.355 . S
C982 C984 1.415 . S
C983 C982 1.355 . S
C983 C985 1.419 . S
C984 C982 1.415 . S
C984 C989 1.425 . S
C984 C991 1.409 . S
C985 H977 0.930 . S
C985 C983 1.419 . S
C985 C986 1.362 . S
C986 H978 0.930 . S
C986 C985 1.362 . S
C986 C989 1.409 . S
C987 H979 0.930 . S
C987 C988 1.355 . S
C987 C989 1.415 . S
C988 C987 1.355 . S
C988 C990 1.419 . S
C989 C984 1.425 . S
C989 C986 1.409 . S
C989 C987 1.415 . S
C990 H980 0.930 . S
C990 C988 1.419 . S
C990 C991 1.362 . S
C991 H981 0.930 . S
C991 C984 1.409 . S
C991 C990 1.362 . S
H992 C998 0.930 . S
H993 C1001 0.930 . S
H994 C1002 0.930 . S
H995 C1003 0.930 . S
H996 C1006 0.930 . S
H997 C1007 0.930 . S
C998 H992 0.930 . S
C998 C999 1.355 . S
C998 C1000 1.415 . S
C999 C998 1.355 . S
C999 C1001 1.419 . S
C1000 C998 1.415 . S
C1000 C1005 1.425 . S
C1000 C1007 1.409 . S
C1001 H993 0.930 . S
C1001 C999 1.419 . S
C1001 C1002 1.362 . S
C1002 H994 0.930 . S
C1002 C1001 1.362 . S
C1002 C1005 1.409 . S
C1003 H995 0.930 . S
C1003 C1004 1.355 . S
C1003 C1005 1.415 . S
C1004 C1003 1.355 . S
C1004 C1006 1.419 . S
C1005 C1000 1.425 . S
C1005 C1002 1.409 . S
C1005 C1003 1.415 . S
C1006 H996 0.930 . S
C1006 C1004 1.419 . S
C1006 C1007 1.362 . S
C1007 H997 0.930 . S
C1007 C1000 1.409 . S
C1007 C1006 1.362 . S
H1008 C1014 0.930 . S
H1009 C1017 0.930 . S
H1010 C1018 0.930 . S
H1011 C1019 0.930 . S
H1012 C1022 0.930 . S
H1013 C1023 0.930 . S
C1014 H1008 0.930 . S
C1014 C1015 1.355 1_556 S
C1014 C1016 1.415 . S
C1015 C1014 1.355 1_554 S
C1015 C1017 1.419 . S
C1016 C1014 1.415 . S
C1016 C1021 1.425 . S
C1016 C1023 1.409 1_655 S
C1017 H1009 0.930 . S
C1017 C1015 1.419 . S
C1017 C1018 1.362 . S
C1018 H1010 0.930 . S
C1018 C1017 1.362 . S
C1018 C1021 1.409 1_554 S
C1019 H1011 0.930 . S
C1019 C1020 1.355 1_655 S
C1019 C1021 1.415 . S
C1020 C1019 1.355 1_455 S
C1020 C1022 1.419 . S
C1021 C1016 1.425 . S
C1021 C1018 1.409 1_556 S
C1021 C1019 1.415 . S
C1022 H1012 0.930 . S
C1022 C1020 1.419 . S
C1022 C1023 1.362 . S
C1023 H1013 0.930 . S
C1023 C1016 1.409 1_455 S
C1023 C1022 1.362 . S
H1024 C1030 0.930 . S
H1025 C1033 0.930 . S
H1026 C1034 0.930 . S
H1027 C1035 0.930 . S
H1028 C1038 0.930 1_554 S
H1029 C1039 0.930 . S
C1030 H1024 0.930 . S
C1030 C1031 1.355 . S
C1030 C1032 1.415 . S
C1031 C1030 1.355 . S
C1031 C1033 1.419 1_554 S
C1032 C1030 1.415 . S
C1032 C1037 1.425 1_554 S
C1032 C1039 1.409 . S
C1033 H1025 0.930 . S
C1033 C1031 1.419 1_556 S
C1033 C1034 1.362 . S
C1034 H1026 0.930 . S
C1034 C1033 1.362 . S
C1034 C1037 1.409 . S
C1035 H1027 0.930 . S
C1035 C1036 1.355 . S
C1035 C1037 1.415 1_545 S
C1036 C1035 1.355 . S
C1036 C1038 1.419 . S
C1037 C1032 1.425 1_556 S
C1037 C1034 1.409 . S
C1037 C1035 1.415 1_565 S
C1038 H1028 0.930 1_556 S
C1038 C1036 1.419 . S
C1038 C1039 1.362 1_546 S
C1039 H1029 0.930 . S
C1039 C1032 1.409 . S
C1039 C1038 1.362 1_564 S
H1040 C1046 0.930 . S
H1041 C1049 0.930 . S
H1042 C1050 0.930 . S
H1043 C1051 0.930 . S
H1044 C1054 0.930 . S
H1045 C1055 0.930 . S
C1046 H1040 0.930 . S
C1046 C1047 1.355 . S
C1046 C1048 1.415 1_554 S
C1047 C1046 1.355 . S
C1047 C1049 1.419 1_554 S
C1048 C1046 1.415 1_556 S
C1048 C1053 1.425 . S
C1048 C1055 1.409 1_556 S
C1049 H1041 0.930 . S
C1049 C1047 1.419 1_556 S
C1049 C1050 1.362 . S
C1050 H1042 0.930 . S
C1050 C1049 1.362 . S
C1050 C1053 1.409 . S
C1051 H1043 0.930 . S
C1051 C1052 1.355 . S
C1051 C1053 1.415 . S
C1052 C1051 1.355 . S
C1052 C1054 1.419 . S
C1053 C1048 1.425 . S
C1053 C1050 1.409 . S
C1053 C1051 1.415 . S
C1054 H1044 0.930 . S
C1054 C1052 1.419 . S
C1054 C1055 1.362 1_556 S
C1055 H1045 0.930 . S
C1055 C1048 1.409 1_554 S
C1055 C1054 1.362 1_554 S
H1056 C1062 0.930 . S
H1057 C1065 0.930 . S
H1058 C1066 0.930 . S
H1059 C1067 0.930 1_554 S
H1060 C1070 0.930 . S
H1061 C1071 0.930 . S
C1062 H1056 0.930 . S
C1062 C1063 1.355 1_556 S
C1062 C1064 1.415 . S
C1063 C1062 1.355 1_554 S
C1063 C1065 1.419 . S
C1064 C1062 1.415 . S
C1064 C1069 1.424 1_556 S
C1064 C1071 1.409 . S
C1065 H1057 0.930 . S
C1065 C1063 1.419 . S
C1065 C1066 1.362 . S
C1066 H1058 0.930 . S
C1066 C1065 1.362 . S
C1066 C1069 1.411 . S
C1067 H1059 0.930 1_556 S
C1067 C1068 1.355 . S
C1067 C1069 1.414 1_556 S
C1068 C1067 1.355 . S
C1068 C1070 1.419 . S
C1069 C1064 1.424 1_554 S
C1069 C1066 1.411 . S
C1069 C1067 1.414 1_554 S
C1070 H1060 0.930 . S
C1070 C1068 1.419 . S
C1070 C1071 1.362 . S
C1071 H1061 0.930 . S
C1071 C1064 1.409 . S
C1071 C1070 1.362 . S
H1072 C1078 0.930 . S
H1073 C1081 0.930 1_655 S
H1074 C1082 0.930 1_655 S
H1075 C1083 0.930 1_655 S
H1076 C1086 0.930 . S
H1077 C1087 0.930 . S
C1078 H1072 0.930 . S
C1078 C1079 1.355 . S
C1078 C1080 1.415 . S
C1079 C1078 1.355 . S
C1079 C1081 1.419 . S
C1080 C1078 1.415 . S
C1080 C1085 1.425 . S
C1080 C1087 1.409 . S
C1081 H1073 0.930 1_455 S
C1081 C1079 1.419 . S
C1081 C1082 1.362 . S
C1082 H1074 0.930 1_455 S
C1082 C1081 1.362 . S
C1082 C1085 1.409 . S
C1083 H1075 0.930 1_455 S
C1083 C1084 1.355 . S
C1083 C1085 1.415 . S
C1084 C1083 1.355 . S
C1084 C1086 1.419 . S
C1085 C1080 1.425 . S
C1085 C1082 1.409 . S
C1085 C1083 1.415 . S
C1086 H1076 0.930 . S
C1086 C1084 1.419 . S
C1086 C1087 1.362 . S
C1087 H1077 0.930 . S
C1087 C1080 1.409 . S
C1087 C1086 1.362 . S
H1088 C1094 0.930 . S
H1089 C1097 0.930 . S
H1090 C1098 0.930 . S
H1091 C1099 0.930 . S
H1092 C1102 0.930 1_565 S
H1093 C1103 0.937 . S
C1094 H1088 0.930 . S
C1094 C1095 1.355 . S
C1094 C1096 1.415 . S
C1095 C1094 1.355 . S
C1095 C1097 1.419 . S
C1096 C1094 1.415 . S
C1096 C1101 1.425 . S
C1096 C1103 1.403 1_545 S
C1097 H1089 0.930 . S
C1097 C1095 1.419 . S
C1097 C1098 1.362 . S
C1098 H1090 0.930 . S
C1098 C1097 1.362 . S
C1098 C1101 1.409 . S
C1099 H1091 0.930 . S
C1099 C1100 1.355 . S
C1099 C1101 1.415 . S
C1100 C1099 1.355 . S
C1100 C1102 1.419 . S
C1101 C1096 1.425 . S
C1101 C1098 1.409 . S
C1101 C1099 1.415 . S
C1102 H1092 0.930 1_545 S
C1102 C1100 1.419 . S
C1102 C1103 1.362 1_545 S
C1103 H1093 0.937 . S
C1103 C1096 1.403 1_565 S
C1103 C1102 1.362 1_565 S
H1104 C1110 0.930 . S
H1105 C1113 0.930 . S
H1106 C1114 0.930 . S
H1107 C1115 0.930 . S
H1108 C1118 0.930 . S
H1109 C1119 0.930 . S
C1110 H1104 0.930 . S
C1110 C1111 1.355 . S
C1110 C1112 1.415 . S
C1111 C1110 1.355 . S
C1111 C1113 1.419 . S
C1112 C1110 1.415 . S
C1112 C1117 1.425 . S
C1112 C1119 1.409 . S
C1113 H1105 0.930 . S
C1113 C1111 1.419 . S
C1113 C1114 1.362 . S
C1114 H1106 0.930 . S
C1114 C1113 1.362 . S
C1114 C1117 1.409 . S
C1115 H1107 0.930 . S
C1115 C1116 1.355 . S
C1115 C1117 1.415 . S
C1116 C1115 1.355 . S
C1116 C1118 1.419 . S
C1117 C1112 1.425 . S
C1117 C1114 1.409 . S
C1117 C1115 1.415 . S
C1118 H1108 0.930 . S
C1118 C1116 1.419 . S
C1118 C1119 1.362 . S
C1119 H1109 0.930 . S
C1119 C1112 1.409 . S
C1119 C1118 1.362 . S
H1120 C1126 0.930 . S
H1121 C1129 0.930 . S
H1122 C1130 0.930 . S
H1123 C1131 0.930 . S
H1124 C1134 0.930 . S
H1125 C1135 0.930 . S
C1126 H1120 0.930 . S
C1126 C1127 1.355 . S
C1126 C1128 1.415 . S
C1127 C1126 1.355 . S
C1127 C1129 1.419 . S
C1128 C1126 1.415 . S
C1128 C1133 1.425 . S
C1128 C1135 1.409 . S
C1129 H1121 0.930 . S
C1129 C1127 1.419 . S
C1129 C1130 1.362 . S
C1130 H1122 0.930 . S
C1130 C1129 1.362 . S
C1130 C1133 1.409 . S
C1131 H1123 0.930 . S
C1131 C1132 1.355 . S
C1131 C1133 1.415 . S
C1132 C1131 1.355 . S
C1132 C1134 1.419 . S
C1133 C1128 1.425 . S
C1133 C1130 1.409 . S
C1133 C1131 1.415 . S
C1134 H1124 0.930 . S
C1134 C1132 1.419 . S
C1134 C1135 1.362 . S
C1135 H1125 0.930 . S
C1135 C1128 1.409 . S
C1135 C1134 1.362 . S
H1136 C1142 0.930 1_455 S
H1137 C1145 0.930 . S
H1138 C1146 0.930 . S
H1139 C1147 0.930 . S
H1140 C1150 0.930 . S
H1141 C1151 0.930 . S
C1142 H1136 0.930 1_655 S
C1142 C1143 1.355 . S
C1142 C1144 1.415 . S
C1143 C1142 1.355 . S
C1143 C1145 1.419 . S
C1144 C1142 1.415 . S
C1144 C1149 1.425 . S
C1144 C1151 1.409 1_655 S
C1145 H1137 0.930 . S
C1145 C1143 1.419 . S
C1145 C1146 1.362 . S
C1146 H1138 0.930 . S
C1146 C1145 1.362 . S
C1146 C1149 1.409 . S
C1147 H1139 0.930 . S
C1147 C1148 1.355 . S
C1147 C1149 1.415 . S
C1148 C1147 1.355 . S
C1148 C1150 1.419 1_655 S
C1149 C1144 1.425 . S
C1149 C1146 1.409 . S
C1149 C1147 1.415 . S
C1150 H1140 0.930 . S
C1150 C1148 1.419 1_455 S
C1150 C1151 1.362 . S
C1151 H1141 0.930 . S
C1151 C1144 1.409 1_455 S
C1151 C1150 1.362 . S
H1152 C1158 0.930 . S
H1153 C1161 0.930 . S
H1154 C1162 0.930 . S
H1155 C1163 0.930 . S
H1156 C1166 0.930 . S
H1157 C1167 0.930 . S
C1158 H1152 0.930 . S
C1158 C1159 1.355 . S
C1158 C1160 1.415 . S
C1159 C1158 1.355 . S
C1159 C1161 1.419 . S
C1160 C1158 1.415 . S
C1160 C1165 1.425 . S
C1160 C1167 1.409 . S
C1161 H1153 0.930 . S
C1161 C1159 1.419 . S
C1161 C1162 1.362 . S
C1162 H1154 0.930 . S
C1162 C1161 1.362 . S
C1162 C1165 1.409 . S
C1163 H1155 0.930 . S
C1163 C1164 1.355 . S
C1163 C1165 1.415 . S
C1164 C1163 1.355 . S
C1164 C1166 1.419 . S
C1165 C1160 1.425 . S
C1165 C1162 1.409 . S
C1165 C1163 1.415 . S
C1166 H1156 0.930 . S
C1166 C1164 1.419 . S
C1166 C1167 1.362 . S
C1167 H1157 0.930 . S
C1167 C1160 1.409 . S
C1167 C1166 1.362 . S
H1168 C1174 0.930 . S
H1169 C1177 0.930 . S
H1170 C1178 0.930 . S
H1171 C1179 0.930 . S
H1172 C1182 0.930 . S
H1173 C1183 0.930 . S
C1174 H1168 0.930 . S
C1174 C1175 1.355 . S
C1174 C1176 1.415 . S
C1175 C1174 1.355 . S
C1175 C1177 1.419 . S
C1176 C1174 1.415 . S
C1176 C1181 1.425 . S
C1176 C1183 1.409 . S
C1177 H1169 0.930 . S
C1177 C1175 1.419 . S
C1177 C1178 1.362 . S
C1178 H1170 0.930 . S
C1178 C1177 1.362 . S
C1178 C1181 1.409 . S
C1179 H1171 0.930 . S
C1179 C1180 1.355 . S
C1179 C1181 1.415 . S
C1180 C1179 1.355 . S
C1180 C1182 1.419 . S
C1181 C1176 1.425 . S
C1181 C1178 1.409 . S
C1181 C1179 1.415 . S
C1182 H1172 0.930 . S
C1182 C1180 1.419 . S
C1182 C1183 1.362 . S
C1183 H1173 0.930 . S
C1183 C1176 1.409 . S
C1183 C1182 1.362 . S
H1184 C1190 0.930 . S
H1185 C1193 0.930 . S
H1186 C1194 0.930 . S
H1187 C1195 0.930 . S
H1188 C1198 0.930 . S
H1189 C1199 0.930 . S
C1190 H1184 0.930 . S
C1190 C1191 1.355 . S
C1190 C1192 1.415 . S
C1191 C1190 1.355 . S
C1191 C1193 1.419 . S
C1192 C1190 1.415 . S
C1192 C1197 1.425 . S
C1192 C1199 1.409 . S
C1193 H1185 0.930 . S
C1193 C1191 1.419 . S
C1193 C1194 1.362 . S
C1194 H1186 0.930 . S
C1194 C1193 1.362 . S
C1194 C1197 1.409 . S
C1195 H1187 0.930 . S
C1195 C1196 1.355 . S
C1195 C1197 1.415 . S
C1196 C1195 1.355 . S
C1196 C1198 1.419 . S
C1197 C1192 1.425 . S
C1197 C1194 1.409 . S
C1197 C1195 1.415 . S
C1198 H1188 0.930 . S
C1198 C1196 1.419 . S
C1198 C1199 1.362 . S
C1199 H1189 0.930 . S
C1199 C1192 1.409 . S
C1199 C1198 1.362 . S
C823 C391 2.538 . S
C828 C548 2.601 . S
C844 C631 2.574 . S
C839 C451 2.517 . S
C860 C716 2.593 . S
C855 C241 2.158 . S
C876 C800 2.583 . S
C871 C331 2.172 . S
C892 C536 2.568 1_565 S
C887 C121 2.193 . S
C903 C211 2.527 . S
C908 C619 2.606 . S
C919 C31 2.519 . S
C924 C704 2.586 . S
C935 C91 2.197 . S
C940 C788 2.556 1_655 S
C956 C538 0.562 . S
C951 C301 0.759 . S
C972 C634 0.666 . S
C967 C380 0.598 . S
C988 C706 0.593 . S
C983 C440 0.620 . S
C999 C260 0.736 . S
C1004 C790 0.610 . S
C1015 C61 0.522 . S
C1020 C550 0.511 . S
C1036 C622 0.494 . S
C1031 C140 0.688 . S
C1052 C718 0.656 . S
C1047 C200 0.579 . S
C1063 C20 0.555 . S
C1068 C802 0.551 . S
C1079 C320 2.851 . S
C1084 C535 3.059 . S
C1095 C361 2.480 . S
C1100 C620 3.120 . S
C1116 C703 3.073 . S
C1111 C421 2.506 . S
C1132 C787 3.096 . S
C1127 C271 2.897 . S
C1143 C80 2.911 . S
C1148 C547 3.076 . S
C1164 C632 3.123 . S
C1159 C151 2.858 . S
C1180 C715 3.079 . S
C1175 C181 2.495 . S
C1191 C1 2.538 . S
C1196 C799 3.101 . S
