# Generated by pormake.
# Topology pyr, (3,6)-cn, num edge types: 1
# Building blocks:
#     Node 0, Type 0, BuildingBlock: BETDIP_clean_linker_0, # of connection points: 3
#     Node 1, Type 0, BuildingBlock: BETDIP_clean_linker_0, # of connection points: 3
#     Node 2, Type 0, BuildingBlock: BETDIP_clean_linker_0, # of connection points: 3
#     Node 3, Type 0, BuildingBlock: BETDIP_clean_linker_0, # of connection points: 3
#     Node 4, Type 0, BuildingBlock: BETDIP_clean_linker_0, # of connection points: 3
#     Node 5, Type 0, BuildingBlock: BETDIP_clean_linker_0, # of connection points: 3
#     Node 6, Type 0, BuildingBlock: BETDIP_clean_linker_0, # of connection points: 3
#     Node 7, Type 0, BuildingBlock: BETDIP_clean_linker_0, # of connection points: 3
#     Node 8, Type 1, BuildingBlock: GEDQOX_clean_sbu_0, # of connection points: 6
#     Node 9, Type 1, BuildingBlock: GEDQOX_clean_sbu_0, # of connection points: 6
#     Node 10, Type 1, BuildingBlock: GEDQOX_clean_sbu_0, # of connection points: 6
#     Node 11, Type 1, BuildingBlock: GEDQOX_clean_sbu_0, # of connection points: 6
#     Edge 12, Type (0, 1), BuildingBlock: KIFKEQ_clean_linker_1, # of connection points: 2
#     Edge 13, Type (0, 1), BuildingBlock: KIFKEQ_clean_linker_1, # of connection points: 2
#     Edge 14, Type (0, 1), BuildingBlock: KIFKEQ_clean_linker_1, # of connection points: 2
#     Edge 15, Type (0, 1), BuildingBlock: KIFKEQ_clean_linker_1, # of connection points: 2
#     Edge 16, Type (0, 1), BuildingBlock: KIFKEQ_clean_linker_1, # of connection points: 2
#     Edge 17, Type (0, 1), BuildingBlock: KIFKEQ_clean_linker_1, # of connection points: 2
#     Edge 18, Type (0, 1), BuildingBlock: KIFKEQ_clean_linker_1, # of connection points: 2
#     Edge 19, Type (0, 1), BuildingBlock: KIFKEQ_clean_linker_1, # of connection points: 2
#     Edge 20, Type (0, 1), BuildingBlock: KIFKEQ_clean_linker_1, # of connection points: 2
#     Edge 21, Type (0, 1), BuildingBlock: KIFKEQ_clean_linker_1, # of connection points: 2
#     Edge 22, Type (0, 1), BuildingBlock: KIFKEQ_clean_linker_1, # of connection points: 2
#     Edge 23, Type (0, 1), BuildingBlock: KIFKEQ_clean_linker_1, # of connection points: 2
#     Edge 24, Type (0, 1), BuildingBlock: KIFKEQ_clean_linker_1, # of connection points: 2
#     Edge 25, Type (0, 1), BuildingBlock: KIFKEQ_clean_linker_1, # of connection points: 2
#     Edge 26, Type (0, 1), BuildingBlock: KIFKEQ_clean_linker_1, # of connection points: 2
#     Edge 27, Type (0, 1), BuildingBlock: KIFKEQ_clean_linker_1, # of connection points: 2
#     Edge 28, Type (0, 1), BuildingBlock: KIFKEQ_clean_linker_1, # of connection points: 2
#     Edge 29, Type (0, 1), BuildingBlock: KIFKEQ_clean_linker_1, # of connection points: 2
#     Edge 30, Type (0, 1), BuildingBlock: KIFKEQ_clean_linker_1, # of connection points: 2
#     Edge 31, Type (0, 1), BuildingBlock: KIFKEQ_clean_linker_1, # of connection points: 2
#     Edge 32, Type (0, 1), BuildingBlock: KIFKEQ_clean_linker_1, # of connection points: 2
#     Edge 33, Type (0, 1), BuildingBlock: KIFKEQ_clean_linker_1, # of connection points: 2
#     Edge 34, Type (0, 1), BuildingBlock: KIFKEQ_clean_linker_1, # of connection points: 2
#     Edge 35, Type (0, 1), BuildingBlock: KIFKEQ_clean_linker_1, # of connection points: 2
# Relax obj value: 0.221
# Max RMSD: 0.190
# Mean RMSD: 0.162
data_MOF--net-pyr--node1-GEDQOX_clean_sbu_0--node2-BETDIP_clean_linker_0--edge1-KIFKEQ_clean_linker_1
_symmetry_space_group_name_H-M    P1
_symmetry_Int_Tables_number       1
_symmetry_cell_setting            triclinic
loop_
_symmetry_equiv_pos_as_xyz
'x, y, z'
_cell_length_a     39.589128
_cell_length_b     38.724037
_cell_length_c     35.425025
_cell_angle_alpha  90.34552
_cell_angle_beta   84.577995
_cell_angle_gamma 88.277926
loop_
_atom_site_label
_atom_site_type_symbol
_atom_site_fract_x
_atom_site_fract_y
_atom_site_fract_z
_atom_type_partial_charge
H0 H 0.15886 0.19787 0.25248 0.0
H1 H 0.24293 0.20219 0.16664 0.0
H2 H 0.2405 0.12214 0.25114 0.0
H3 H 0.22282 0.25717 0.15933 0.0
C4 C 0.19566 0.25786 0.16733 0.0
C5 C 0.18314 0.18748 0.23999 0.0
C6 C 0.19805 0.15838 0.25618 0.0
C7 C 0.19883 0.20353 0.2078 0.0
C8 C 0.23049 0.18995 0.1913 0.0
C9 C 0.24624 0.16052 0.20674 0.0
C10 C 0.2293 0.14485 0.239 0.0
N11 N 0.18137 0.23266 0.19289 0.0
H12 H 0.34953 0.83791 0.86957 0.0
H13 H 0.3526 0.75153 0.79285 0.0
H14 H 0.44418 0.78251 0.83822 0.0
H15 H 0.29439 0.75215 0.812 0.0
C16 C 0.29071 0.77992 0.80931 0.0
C17 C 0.36372 0.8168 0.8546 0.0
C18 C 0.39876 0.81256 0.85729 0.0
C19 C 0.34685 0.79488 0.83174 0.0
C20 C 0.36519 0.76793 0.81165 0.0
C21 C 0.40026 0.76308 0.81389 0.0
C22 C 0.4171 0.78588 0.8364 0.0
N23 N 0.31227 0.80261 0.82668 0.0
H24 H 0.79622 0.47078 0.85679 0.0
H25 H 0.70679 0.41073 0.87019 0.0
H26 H 0.77518 0.40959 0.95735 0.0
H27 H 0.72833 0.40082 0.80501 0.0
C28 C 0.7272 0.42828 0.79879 0.0
C29 C 0.78019 0.45337 0.87368 0.0
C30 C 0.78944 0.44179 0.90907 0.0
C31 C 0.7508 0.44169 0.8593 0.0
C32 C 0.72962 0.41962 0.88125 0.0
C33 C 0.73803 0.40808 0.91671 0.0
C34 C 0.7681 0.41914 0.93042 0.0
N35 N 0.74293 0.45154 0.82243 0.0
H36 H 0.78983 0.83083 0.28596 0.0
H37 H 0.85399 0.91666 0.29835 0.0
H38 H 0.8454 0.83825 0.3841 0.0
H39 H 0.78113 0.88291 0.2071 0.0
C40 C 0.80007 0.87072 0.2233 0.0
C41 C 0.80771 0.84406 0.30178 0.0
C42 C 0.81643 0.83031 0.33629 0.0
C43 C 0.82153 0.87501 0.28786 0.0
C44 C 0.84367 0.89264 0.3091 0.0
C45 C 0.85291 0.87929 0.34362 0.0
C46 C 0.83933 0.84799 0.35686 0.0
N47 N 0.81225 0.88976 0.25347 0.0
H48 H 0.82114 0.87298 0.96081 0.0
H49 H 0.90468 0.86942 0.87362 0.0
H50 H 0.82464 0.94654 0.86973 0.0
H51 H 0.93251 0.84699 0.9224 0.0
C52 C 0.9143 0.8291 0.9353 0.0
C53 C 0.83388 0.88344 0.93516 0.0
C54 C 0.81891 0.91179 0.91731 0.0
C55 C 0.86503 0.86812 0.92 0.0
C56 C 0.88112 0.88132 0.88606 0.0
C57 C 0.86695 0.90978 0.86775 0.0
C58 C 0.83585 0.9248 0.88369 0.0
N59 N 0.87902 0.83893 0.93865 0.0
H60 H 0.71559 0.24062 0.25846 0.0
H61 H 0.71046 0.32077 0.34263 0.0
H62 H 0.62153 0.29773 0.28708 0.0
H63 H 0.76723 0.32314 0.32462 0.0
C64 C 0.77299 0.29552 0.3235 0.0
C65 C 0.70123 0.2612 0.27417 0.0
C66 C 0.6666 0.26672 0.2698 0.0
C67 C 0.71736 0.28116 0.2996 0.0
C68 C 0.69857 0.3069 0.32112 0.0
C69 C 0.66411 0.31383 0.31654 0.0
C70 C 0.64809 0.29314 0.29098 0.0
N71 N 0.75179 0.27309 0.30517 0.0
H72 H 0.27956 0.59607 0.25956 0.0
H73 H 0.36727 0.65746 0.25981 0.0
H74 H 0.29157 0.68395 0.18504 0.0
H75 H 0.38627 0.59097 0.26594 0.0
C76 C 0.37057 0.5941 0.29271 0.0
C77 C 0.29331 0.61817 0.24865 0.0
C78 C 0.28097 0.63901 0.22001 0.0
C79 C 0.3244 0.62465 0.26263 0.0
C80 C 0.34365 0.65206 0.24809 0.0
C81 C 0.33215 0.6733 0.21977 0.0
C82 C 0.30058 0.66699 0.20632 0.0
N83 N 0.33583 0.60417 0.29225 0.0
H84 H 0.20962 0.14622 0.8252 0.0
H85 H 0.2744 0.23254 0.83179 0.0
H86 H 0.21301 0.22413 0.73875 0.0
H87 H 0.28168 0.18302 0.91541 0.0
C88 C 0.26398 0.19528 0.89767 0.0
C89 C 0.21928 0.1702 0.81356 0.0
C90 C 0.20873 0.18272 0.77925 0.0
C91 C 0.24186 0.18867 0.83345 0.0
C92 C 0.25514 0.21933 0.81803 0.0
C93 C 0.24437 0.23266 0.78429 0.0
C94 C 0.22105 0.21425 0.76513 0.0
N95 N 0.2517 0.17526 0.86825 0.0
Nd96 Nd 0.05416 0.99687 0.55705 0.0
Nd97 Nd 1.01332 0.06173 0.5632 0.0
C98 C 0.08957 0.93867 0.5422 0.0
C99 C 0.1054 0.91358 0.56654 0.0
C100 C 0.09206 0.90923 0.60431 0.0
C101 C 0.11003 0.88955 0.62909 0.0
C102 C 0.14182 0.8743 0.61662 0.0
C103 C 0.15445 0.87762 0.57839 0.0
C104 C 0.13633 0.89711 0.55354 0.0
C105 C 0.07335 0.04087 0.61185 0.0
C106 C 0.99669 1.00164 0.62726 0.0
C107 C 0.97675 0.11949 0.57623 0.0
C108 C 0.95873 0.14145 0.55045 0.0
C109 C 0.95539 0.17729 0.55626 0.0
C110 C 0.9393 0.19803 0.53059 0.0
C111 C 0.92659 0.18314 0.49865 0.0
C112 C 0.92989 0.14719 0.49323 0.0
C113 C 0.94583 0.12662 0.51876 0.0
C114 C 0.99428 1.01719 0.50868 0.0
C115 C 0.0717 0.05798 0.49418 0.0
O116 O 0.05636 0.9405 0.54509 0.0
O117 O 0.10311 0.96904 0.54105 0.0
O118 O 0.0723 1.00768 0.61541 0.0
O119 O 0.06587 0.04999 0.5795 0.0
O120 O 1.01419 0.97972 0.60376 0.0
O121 O 0.99665 0.0352 0.62038 0.0
O122 O 1.00987 0.11886 0.57051 0.0
O123 O 0.96461 0.08876 0.58213 0.0
O124 O 0.99592 0.05022 0.5046 0.0
O125 O 1.00146 1.0085 0.54123 0.0
O126 O 0.05414 0.07951 0.518 0.0
O127 O 0.07166 1.02431 0.50045 0.0
H128 H 0.06845 0.92223 0.61509 0.0
H129 H 0.09988 0.8878 0.65848 0.0
H130 H 0.17877 0.86591 0.56797 0.0
H131 H 0.14713 0.90045 0.52458 0.0
H132 H 0.96541 0.18921 0.58043 0.0
H133 H 0.93724 0.22569 0.53542 0.0
H134 H 0.91976 0.13479 0.46942 0.0
H135 H 0.94801 0.09902 0.51366 0.0
Nd136 Nd 0.53754 1.01759 0.08964 0.0
Nd137 Nd 0.53117 0.06527 1.03113 0.0
C138 C 0.54433 0.96155 0.13087 0.0
C139 C 0.52261 0.9319 0.13869 0.0
C140 C 0.53689 0.89997 0.14809 0.0
C141 C 0.51635 0.87145 0.15446 0.0
C142 C 0.48111 0.87448 0.15166 0.0
C143 C 0.46703 0.90666 0.142 0.0
C144 C 0.48762 0.93502 0.13534 0.0
C145 C 0.47992 0.05997 0.10458 0.0
C146 C 0.49822 0.99412 1.01617 0.0
C147 C 0.52474 0.12256 0.99194 0.0
C148 C 0.54669 0.15247 0.98826 0.0
C149 C 0.53408 0.18455 0.9769 0.0
C150 C 0.55489 0.2132 0.97502 0.0
C151 C 0.58861 0.21006 0.98443 0.0
C152 C 0.60097 0.17784 0.99606 0.0
C153 C 0.58017 0.14935 0.99807 0.0
C154 C 0.58879 1.02312 1.01561 0.0
C155 C 0.571 0.08831 0.10421 0.0
O156 O 0.55768 0.96403 0.0959 0.0
O157 O 0.5324 0.99115 0.14502 0.0
O158 O 0.50134 0.05226 0.12884 0.0
O159 O 0.4892 0.04571 0.07282 0.0
O160 O 0.51587 0.9841 1.04406 0.0
O161 O 0.49552 0.02704 1.00782 0.0
O162 O 0.50926 0.11823 1.02569 0.0
O163 O 0.53792 0.09374 0.97698 0.0
O164 O 0.56785 0.03202 0.99122 0.0
O165 O 0.57942 0.03673 1.04774 0.0
O166 O 0.55256 0.09852 0.07713 0.0
O167 O 0.57427 0.0553 0.11175 0.0
H168 H 0.56394 0.89704 0.15025 0.0
H169 H 0.52816 0.84695 0.16113 0.0
H170 H 0.44001 0.91011 0.14005 0.0
H171 H 0.4762 0.95945 0.12762 0.0
H172 H 0.50818 0.18744 0.9696 0.0
H173 H 0.54479 0.23766 0.96567 0.0
H174 H 0.62664 0.17474 1.00401 0.0
H175 H 0.59016 0.12486 1.00755 0.0
Nd176 Nd 0.50177 0.51086 0.57715 0.0
Nd177 Nd 0.55919 0.55931 0.55998 0.0
C178 C 0.44275 0.4805 0.58838 0.0
C179 C 0.4185 0.46691 0.6183 0.0
C180 C 0.38363 0.47267 0.61605 0.0
C181 C 0.35998 0.45538 0.64025 0.0
C182 C 0.37083 0.43173 0.66695 0.0
C183 C 0.40581 0.42771 0.67066 0.0
C184 C 0.42942 0.44521 0.64664 0.0
C185 C 0.55709 0.49624 0.61631 0.0
C186 C 0.50392 0.58202 0.62779 0.0
C187 C 0.61773 0.59049 0.5486 0.0
C188 C 0.64163 0.60423 0.51846 0.0
C189 C 0.67655 0.60123 0.52195 0.0
C190 C 0.69956 0.61829 0.49674 0.0
C191 C 0.68798 0.63889 0.46772 0.0
C192 C 0.65302 0.6403 0.46315 0.0
C193 C 0.63006 0.62304 0.48823 0.0
C194 C 0.50412 0.57143 0.51869 0.0
C195 C 0.55771 0.48781 0.50952 0.0
O196 O 0.44525 0.51403 0.58579 0.0
O197 O 0.47191 0.46376 0.58198 0.0
O198 O 0.53795 0.47287 0.60419 0.0
O199 O 0.54523 0.52603 0.61058 0.0
O200 O 0.48416 0.55959 0.61312 0.0
O201 O 0.53655 0.58238 0.61649 0.0
O202 O 0.61566 0.5569 0.55117 0.0
O203 O 0.58835 0.60689 0.55499 0.0
O204 O 0.52217 0.5959 0.53065 0.0
O205 O 0.51686 0.54268 0.52639 0.0
O206 O 0.57703 0.51155 0.52265 0.0
O207 O 0.52533 0.48607 0.52181 0.0
H208 H 0.3747 0.48944 0.59447 0.0
H209 H 0.33323 0.45962 0.63713 0.0
H210 H 0.41517 0.40952 0.69061 0.0
H211 H 0.45623 0.44045 0.6491 0.0
H212 H 0.68596 0.58669 0.54503 0.0
H213 H 0.72634 0.6161 0.50064 0.0
H214 H 0.64311 0.65614 0.44141 0.0
H215 H 0.60319 0.62561 0.48488 0.0
Nd216 Nd 1.01223 0.53351 0.08376 0.0
Nd217 Nd 0.06968 0.53974 1.02339 0.0
C218 C 0.95169 0.53806 0.12151 0.0
C219 C 0.93304 0.56956 0.13605 0.0
C220 C 0.898 0.57362 0.13361 0.0
C221 C 0.8814 0.60551 0.14255 0.0
C222 C 0.89972 0.63381 0.15383 0.0
C223 C 0.93463 0.62916 0.15728 0.0
C224 C 0.95113 0.59753 0.14823 0.0
C225 C 0.06819 0.56198 0.10988 0.0
C226 C 1.01746 0.60473 1.03099 0.0
C227 C 0.12907 0.53529 0.98283 0.0
C228 C 0.14802 0.50475 0.96603 0.0
C229 C 0.18262 0.49979 0.97069 0.0
C230 C 0.19951 0.46855 0.95961 0.0
C231 C 0.18202 0.44189 0.94354 0.0
C232 C 0.14763 0.4474 0.93794 0.0
C233 C 0.13075 0.4784 0.94924 0.0
C234 C 1.01252 0.51273 0.99825 0.0
C235 C 0.06576 0.46925 0.07724 0.0
O236 O 0.95607 0.53548 0.08454 0.0
O237 O 0.97923 0.5299 0.13761 0.0
O238 O 0.04787 0.54211 0.12987 0.0
O239 O 0.05742 0.56871 0.07823 0.0
O240 O 0.99812 0.5839 1.0525 0.0
O241 O 0.04936 0.59575 1.01994 0.0
O242 O 0.12595 0.53645 1.01987 0.0
O243 O 0.10083 0.54388 0.96835 0.0
O244 O 0.03204 0.53366 0.97872 0.0
O245 O 1.02448 0.50484 1.02893 0.0
O246 O 0.08433 0.48987 0.05469 0.0
O247 O 0.03404 0.47807 0.08941 0.0
H248 H 0.88374 0.55251 0.12365 0.0
H249 H 0.85452 0.60834 0.13934 0.0
H250 H 0.9494 0.65017 0.16655 0.0
H251 H 0.97832 0.59527 0.14976 0.0
H252 H 0.19627 0.51963 0.98402 0.0
H253 H 0.22607 0.46503 0.96413 0.0
H254 H 0.1333 0.42716 0.92629 0.0
H255 H 0.10386 0.48119 0.94606 0.0
H256 H 0.18569 0.08987 0.27111 0.0
H257 H 0.17179 0.19157 0.3213 0.0
H258 H 0.15542 0.06525 0.32748 0.0
H259 H 0.14308 0.16721 0.37829 0.0
H260 H 0.06396 0.1216 0.46219 0.0
H261 H 0.09396 0.14451 0.40528 0.0
H262 H 0.15403 0.04944 0.39051 0.0
H263 H 0.12246 0.02596 0.44662 0.0
C264 C 0.17654 0.10694 0.29444 0.0
C265 C 0.18099 0.14276 0.29144 0.0
C266 C 0.15922 0.0928 0.32704 0.0
C267 C 0.14624 0.11401 0.35797 0.0
C268 C 0.15158 0.14982 0.35508 0.0
C269 C 0.16837 0.16393 0.32231 0.0
C270 C 0.08358 0.10552 0.44684 0.0
C271 C 0.09073 0.07188 0.45925 0.0
C272 C 0.10115 0.11883 0.41409 0.0
C273 C 0.127 0.0992 0.39282 0.0
C274 C 0.13412 0.06544 0.40538 0.0
C275 C 0.1161 0.05193 0.4379 0.0
H276 H 0.45396 0.85164 0.83731 0.0
H277 H 0.38102 0.82876 0.93145 0.0
H278 H 0.47805 0.8959 0.87592 0.0
H279 H 0.40519 0.87257 0.97008 0.0
H280 H 0.48376 0.92803 1.03655 0.0
H281 H 0.46121 0.88304 0.99829 0.0
H282 H 0.45591 0.95467 0.906 0.0
H283 H 0.4782 0.99999 0.94446 0.0
C284 C 0.44346 0.85576 0.8664 0.0
C285 C 0.4157 0.83681 0.88147 0.0
C286 C 0.45697 0.88125 0.88833 0.0
C287 C 0.44336 0.88777 0.92593 0.0
C288 C 0.41627 0.86803 0.94127 0.0
C289 C 0.40242 0.84304 0.91918 0.0
C290 C 0.47764 0.93428 1.00816 0.0
C291 C 0.48269 0.96761 0.99354 0.0
C292 C 0.46469 0.9085 0.9863 0.0
C293 C 0.457 0.91529 0.9491 0.0
C294 C 0.46196 0.94863 0.93446 0.0
C295 C 0.4744 0.97463 0.95659 0.0
H296 H 0.68215 0.39026 0.76647 0.0
H297 H 0.72166 0.49286 0.7668 0.0
H298 H 0.64277 0.40811 0.72142 0.0
H299 H 0.68335 0.51068 0.71961 0.0
H300 H 0.58338 0.53884 0.66725 0.0
H301 H 0.62634 0.52375 0.71008 0.0
H302 H 0.63816 0.42182 0.65889 0.0
H303 H 0.59385 0.43643 0.61815 0.0
C304 C 0.68269 0.4166 0.75631 0.0
C305 C 0.70489 0.44014 0.77002 0.0
C306 C 0.66029 0.42685 0.73016 0.0
C307 C 0.65995 0.46084 0.71631 0.0
C308 C 0.68254 0.48442 0.72987 0.0
C309 C 0.70467 0.47421 0.75671 0.0
C310 C 0.59534 0.51328 0.66527 0.0
C311 C 0.58505 0.48858 0.6399 0.0
C312 C 0.62015 0.50465 0.6896 0.0
C313 C 0.63556 0.47133 0.68849 0.0
C314 C 0.62622 0.44734 0.66157 0.0
C315 C 0.60098 0.45574 0.63794 0.0
H316 H 0.86455 0.84455 0.22818 0.0
H317 H 0.76745 0.81929 0.19104 0.0
H318 H 0.88688 0.78686 0.20985 0.0
H319 H 0.78994 0.76127 0.17235 0.0
H320 H 0.83695 0.64964 0.19083 0.0
H321 H 0.81167 0.70719 0.20571 0.0
H322 H 0.89989 0.75354 0.14829 0.0
H323 H 0.92477 0.69639 0.13264 0.0
C324 C 0.84793 0.82653 0.21632 0.0
C325 C 0.81412 0.83605 0.21151 0.0
C326 C 0.86079 0.79364 0.20551 0.0
C327 C 0.8401 0.76961 0.18975 0.0
C328 C 0.80632 0.77922 0.18475 0.0
C329 C 0.79355 0.81234 0.19519 0.0
C330 C 0.85069 0.67211 0.18092 0.0
C331 C 0.88309 0.66843 0.16106 0.0
C332 C 0.83625 0.705 0.18948 0.0
C333 C 0.85404 0.73474 0.17851 0.0
C334 C 0.88592 0.73104 0.15771 0.0
C335 C 0.90019 0.69829 0.1489 0.0
H336 H 0.27296 0.15724 0.13125 0.0
H337 H 0.29821 0.13156 0.24387 0.0
H338 H 0.32874 0.13507 0.10503 0.0
H339 H 0.35261 0.10753 0.21765 0.0
H340 H 0.46127 0.09635 0.16923 0.0
H341 H 0.40613 0.12159 0.19174 0.0
H342 H 0.3653 0.08605 0.08999 0.0
H343 H 0.42155 0.0618 0.06679 0.0
C344 C 0.29025 0.14692 0.15056 0.0
C345 C 0.28053 0.14642 0.18995 0.0
C346 C 0.32229 0.13366 0.13535 0.0
C347 C 0.3458 0.11941 0.15896 0.0
C348 C 0.33588 0.11874 0.19826 0.0
C349 C 0.30408 0.13212 0.21342 0.0
C350 C 0.4406 0.094 0.15148 0.0
C351 C 0.44595 0.0768 0.11625 0.0
C352 C 0.40864 0.1083 0.16462 0.0
C353 C 0.38053 0.10558 0.14325 0.0
C354 C 0.38609 0.08901 0.1074 0.0
C355 C 0.41839 0.07492 0.09403 0.0
H356 H 0.24628 0.74337 0.77246 0.0
H357 H 0.27999 0.84708 0.78833 0.0
H358 H 0.20891 0.76472 0.72577 0.0
H359 H 0.2429 0.86824 0.7419 0.0
H360 H 0.20876 0.88379 0.6235 0.0
H361 H 0.24309 0.86014 0.67136 0.0
H362 H 0.157 0.80473 0.72083 0.0
H363 H 0.12255 0.82819 0.67244 0.0
C364 C 0.24538 0.77073 0.76625 0.0
C365 C 0.26605 0.79351 0.78388 0.0
C366 C 0.22402 0.78292 0.73965 0.0
C367 C 0.2233 0.81806 0.73 0.0
C368 C 0.24335 0.84094 0.74841 0.0
C369 C 0.26443 0.82883 0.77518 0.0
C370 C 0.19727 0.86615 0.64421 0.0
C371 C 0.16301 0.85774 0.64418 0.0
C372 C 0.21681 0.85295 0.67187 0.0
C373 C 0.2026 0.83086 0.69997 0.0
C374 C 0.16859 0.82166 0.69943 0.0
C375 C 0.14888 0.83518 0.67191 0.0
H376 H 0.80182 0.4603 0.98131 0.0
H377 H 0.85125 0.44538 0.86813 0.0
H378 H 0.85588 0.47603 1.0037 0.0
H379 H 0.90508 0.46101 0.89042 0.0
H380 H 0.98526 0.52918 0.93324 0.0
H381 H 0.93135 0.51186 0.9127 0.0
H382 H 0.91243 0.45213 1.01476 0.0
H383 H 0.96658 0.47015 1.0357 0.0
C384 C 0.82425 0.46019 0.96126 0.0
C385 C 0.82215 0.45186 0.92285 0.0
C386 C 0.85523 0.4691 0.97412 0.0
C387 C 0.8848 0.46989 0.94884 0.0
C388 C 0.88269 0.46127 0.91053 0.0
C389 C 0.85179 0.45239 0.8977 0.0
C390 C 0.96969 0.51223 0.95126 0.0
C391 C 0.98016 0.50088 0.98599 0.0
C392 C 0.93882 0.50216 0.93939 0.0
C393 C 0.91762 0.48044 0.96196 0.0
C394 C 0.92806 0.46911 0.99685 0.0
C395 C 0.95912 0.47919 1.00874 0.0
H396 H 0.75037 0.81191 0.33478 0.0
H397 H 0.84592 0.7767 0.37304 0.0
H398 H 0.72324 0.76124 0.36232 0.0
H399 H 0.81835 0.72617 0.40143 0.0
H400 H 0.74052 0.67512 0.4913 0.0
H401 H 0.77465 0.71736 0.4559 0.0
H402 H 0.72256 0.697 0.35676 0.0
H403 H 0.68866 0.65406 0.39197 0.0
C404 C 0.76577 0.79308 0.34848 0.0
C405 C 0.80037 0.79844 0.35168 0.0
C406 C 0.75017 0.76401 0.36429 0.0
C407 C 0.76868 0.7397 0.38396 0.0
C408 C 0.80339 0.74465 0.38669 0.0
C409 C 0.81911 0.77365 0.37059 0.0
C410 C 0.73691 0.67885 0.46166 0.0
C411 C 0.71163 0.66129 0.44458 0.0
C412 C 0.75647 0.70318 0.44139 0.0
C413 C 0.75109 0.71068 0.40366 0.0
C414 C 0.72689 0.6921 0.38601 0.0
C415 C 0.70745 0.66758 0.40621 0.0
H416 H 0.21856 0.31457 0.12957 0.0
H417 H 0.12574 0.26891 0.17558 0.0
H418 H 0.18639 0.36411 0.10836 0.0
H419 H 0.09302 0.3179 0.15291 0.0
H420 H 0.04619 0.42762 0.13813 0.0
H421 H 0.07629 0.37652 0.16005 0.0
H422 H 0.15164 0.3841 0.06411 0.0
H423 H 0.12249 0.43562 1.04349 0.0
C424 C 0.19114 0.31501 0.13487 0.0
C425 C 0.17486 0.28771 0.15431 0.0
C426 C 0.17249 0.34341 0.12237 0.0
C427 C 0.13672 0.34537 0.1284 0.0
C428 C 0.12041 0.31788 0.14797 0.0
C429 C 0.13921 0.28953 0.16084 0.0
C430 C 0.06908 0.4182 0.12165 0.0
C431 C 0.08192 0.43607 0.08917 0.0
C432 C 0.08641 0.38869 0.13415 0.0
C433 C 0.11694 0.37594 0.11432 0.0
C434 C 0.12893 0.3933 0.08105 0.0
C435 C 0.11191 0.42291 0.0689 0.0
H436 H 0.66883 0.40877 0.92805 0.0
H437 H 0.75821 0.34901 0.95145 0.0
H438 H 0.63325 0.36156 0.95025 0.0
H439 H 0.72246 0.30226 0.97556 0.0
H440 H 0.65421 0.21102 0.95336 0.0
H441 H 0.69064 0.26038 0.94522 0.0
H442 H 0.61066 0.32621 1.00092 0.0
H443 H 0.57392 0.27665 1.00837 0.0
C444 C 0.68081 0.38576 0.93869 0.0
C445 C 0.71636 0.38239 0.93741 0.0
C446 C 0.66038 0.35879 0.95181 0.0
C447 C 0.67499 0.32786 0.96423 0.0
C448 C 0.71043 0.32546 0.96547 0.0
C449 C 0.73091 0.35244 0.95214 0.0
C450 C 0.64457 0.23595 0.96432 0.0
C451 C 0.61116 0.24002 0.98131 0.0
C452 C 0.66553 0.26427 0.95986 0.0
C453 C 0.65365 0.29734 0.97248 0.0
C454 C 0.62047 0.30121 0.9904 0.0
C455 C 0.5994 0.27287 0.99463 0.0
H456 H 0.85114 0.94852 0.35886 0.0
H457 H 0.90596 0.8537 0.38052 0.0
H458 H 0.88752 0.98031 0.39747 0.0
H459 H 0.94277 0.88562 0.41898 0.0
H460 H 0.97421 0.95071 0.51991 0.0
H461 H 0.94149 0.91641 0.47894 0.0
H462 H 0.94462 0.99922 0.39751 0.0
H463 H 0.97634 0.03365 0.4389 0.0
C464 C 0.8713 0.93454 0.37146 0.0
C465 C 0.87574 0.89862 0.36652 0.0
C466 C 0.89221 0.95276 0.39358 0.0
C467 C 0.91823 0.93556 0.4112 0.0
C468 C 0.92274 0.89961 0.40619 0.0
C469 C 0.9017 0.88133 0.38412 0.0
C470 C 0.96805 0.96138 0.49312 0.0
C471 C 0.97744 0.99493 0.48272 0.0
C472 C 0.94946 0.94171 0.46955 0.0
C473 C 0.94009 0.95521 0.43509 0.0
C474 C 0.95073 0.98832 0.4242 0.0
C475 C 0.96911 1.00797 0.44779 0.0
H476 H 0.38252 0.69587 0.80898 0.0
H477 H 0.45931 0.76653 0.76723 0.0
H478 H 0.40861 0.65089 0.76645 0.0
H479 H 0.48517 0.72179 0.72387 0.0
H480 H 0.53866 0.62562 0.66997 0.0
H481 H 0.51569 0.66754 0.71782 0.0
H482 H 0.41402 0.63754 0.70032 0.0
H483 H 0.43711 0.59485 0.6532 0.0
C484 C 0.40512 0.7017 0.79074 0.0
C485 C 0.41879 0.73477 0.79129 0.0
C486 C 0.41995 0.67599 0.76615 0.0
C487 C 0.44877 0.68273 0.74126 0.0
C488 C 0.46319 0.7155 0.74284 0.0
C489 C 0.44842 0.74119 0.76769 0.0
C490 C 0.51139 0.62783 0.67642 0.0
C491 C 0.48972 0.60683 0.65768 0.0
C492 C 0.4982 0.65207 0.70376 0.0
C493 C 0.46297 0.65609 0.713 0.0
C494 C 0.44132 0.63485 0.69444 0.0
C495 C 0.45454 0.61045 0.66721 0.0
H496 H 0.88047 0.97724 0.84976 0.0
H497 H 0.89404 0.87363 0.8046 0.0
H498 H 0.91182 0.99942 0.79289 0.0
H499 H 0.92395 0.89561 0.74691 0.0
H500 H 1.00399 0.93868 0.66128 0.0
H501 H 0.97328 0.91734 0.71875 0.0
H502 H 0.91357 1.01285 0.72957 0.0
H503 H 0.94573 0.03469 0.67316 0.0
C504 C 0.88975 0.95922 0.82738 0.0
C505 C 0.8848 0.92361 0.83195 0.0
C506 C 0.90772 0.97195 0.79447 0.0
C507 C 0.92087 0.94953 0.76468 0.0
C508 C 0.91521 0.9139 0.76917 0.0
C509 C 0.89775 0.90117 0.80233 0.0
C510 C 0.98432 0.95516 0.67595 0.0
C511 C 0.97745 0.98847 0.66241 0.0
C512 C 0.96636 0.94278 0.709 0.0
C513 C 0.94045 0.96307 0.72937 0.0
C514 C 0.93357 0.99642 0.71553 0.0
C515 C 0.95194 1.00899 0.68281 0.0
H516 H 0.68592 0.25281 0.19531 0.0
H517 H 0.61084 0.22792 0.28659 0.0
H518 H 0.6627 0.20997 0.15451 0.0
H519 H 0.58785 0.18461 0.24592 0.0
H520 H 0.59124 0.08138 0.17561 0.0
H521 H 0.61254 0.12637 0.21525 0.0
H522 H 0.60643 0.19962 0.12463 0.0
H523 H 0.58465 0.15495 0.08521 0.0
C524 C 0.66421 0.23837 0.20644 0.0
C525 C 0.65005 0.24369 0.24399 0.0
C526 C 0.65094 0.21393 0.18314 0.0
C527 C 0.62366 0.19382 0.19717 0.0
C528 C 0.6091 0.19956 0.23454 0.0
C529 C 0.62198 0.22451 0.25763 0.0
C530 C 0.59468 0.10701 0.16407 0.0
C531 C 0.58633 0.1146 0.12728 0.0
C532 C 0.60656 0.13281 0.18687 0.0
C533 C 0.61092 0.1665 0.17306 0.0
C534 C 0.60335 0.17386 0.13596 0.0
C535 C 0.59087 0.14828 0.11344 0.0
H536 H 0.42975 0.56039 0.30168 0.0
H537 H 0.34793 0.61902 0.36379 0.0
H538 H 0.45891 0.55528 0.35937 0.0
H539 H 0.37768 0.61463 0.42149 0.0
H540 H 0.47624 0.63137 0.49219 0.0
H541 H 0.44015 0.63678 0.4395 0.0
H542 H 0.44238 0.52584 0.42681 0.0
H543 H 0.47745 0.52029 0.47948 0.0
C544 C 0.41797 0.57198 0.32777 0.0
C545 C 0.38653 0.58974 0.32846 0.0
C546 C 0.43461 0.5691 0.36067 0.0
C547 C 0.42046 0.5846 0.39472 0.0
C548 C 0.38906 0.60257 0.39548 0.0
C549 C 0.372 0.60481 0.36263 0.0
C550 C 0.46856 0.60821 0.47843 0.0
C551 C 0.47989 0.57546 0.48966 0.0
C552 C 0.44791 0.61129 0.44848 0.0
C553 C 0.43881 0.58169 0.42909 0.0
C554 C 0.44929 0.54901 0.44116 0.0
C555 C 0.46934 0.54591 0.47133 0.0
H556 H 0.20186 0.22604 0.88915 0.0
H557 H 0.30039 0.24594 0.9258 0.0
H558 H 0.18528 0.28681 0.89858 0.0
H559 H 0.28378 0.30708 0.93553 0.0
H560 H 0.22244 0.40408 0.98735 0.0
H561 H 0.24387 0.3447 0.97648 0.0
H562 H 0.19999 0.34265 0.8694 0.0
H563 H 0.17848 0.40192 0.88035 0.0
C564 C 0.22008 0.24354 0.89891 0.0
C565 C 0.25273 0.23161 0.90584 0.0
C566 C 0.21062 0.27834 0.90427 0.0
C567 C 0.23343 0.30184 0.91719 0.0
C568 C 0.26567 0.28959 0.92552 0.0
C569 C 0.27517 0.2547 0.91999 0.0
C570 C 0.21798 0.39116 0.96116 0.0
C571 C 0.1986 0.40755 0.9348 0.0
C572 C 0.23018 0.35714 0.95497 0.0
C573 C 0.22322 0.33887 0.92232 0.0
C574 C 0.2051 0.35581 0.89523 0.0
C575 C 0.19289 0.38976 0.90143 0.0
H576 H 0.79897 0.93367 0.99047 0.0
H577 H 0.76244 0.92506 0.88019 0.0
H578 H 0.74492 0.96102 1.01537 0.0
H579 H 0.70782 0.95011 0.90503 0.0
H580 H 0.62221 1.02331 0.94508 0.0
H581 H 0.67717 0.99796 0.92312 0.0
H582 H 0.68823 0.95987 1.03598 0.0
H583 H 0.63355 0.98785 0.05837 0.0
C584 C 0.77918 0.93727 0.97162 0.0
C585 C 0.78527 0.92745 0.93319 0.0
C586 C 0.74788 0.95284 0.98596 0.0
C587 C 0.72132 0.9585 0.96248 0.0
C588 C 0.72744 0.94762 0.92419 0.0
C589 C 0.7589 0.93283 0.90977 0.0
C590 C 0.6364 1.00965 0.96535 0.0
C591 C 0.62328 1.00764 1.00355 0.0
C592 C 0.6681 0.99457 0.95259 0.0
C593 C 0.68771 0.9759 0.97726 0.0
C594 C 0.67456 0.97415 1.0158 0.0
C595 C 0.64297 0.99008 1.02879 0.0
H596 H 0.80842 0.33043 0.37233 0.0
H597 H 0.79796 0.22879 0.32476 0.0
H598 H 0.84974 0.30677 0.41335 0.0
H599 H 0.83894 0.20521 0.36567 0.0
H600 H 0.93362 0.1778 0.42142 0.0
H601 H 0.89998 0.20755 0.37668 0.0
H602 H 0.84675 0.26658 0.46886 0.0
H603 H 0.88019 0.23652 0.51381 0.0
C604 C 0.81526 0.30313 0.37041 0.0
C605 C 0.79998 0.28142 0.34556 0.0
C606 C 0.8387 0.2896 0.39398 0.0
C607 C 0.84751 0.25417 0.39273 0.0
C608 C 0.83293 0.23269 0.36696 0.0
C609 C 0.80931 0.24616 0.34368 0.0
C610 C 0.9148 0.1972 0.43214 0.0
C611 C 0.90921 0.20446 0.47122 0.0
C612 C 0.8956 0.21424 0.40651 0.0
C613 C 0.87052 0.23909 0.41934 0.0
C614 C 0.8661 0.2477 0.45814 0.0
C615 C 0.88525 0.23051 0.48387 0.0
H616 H 0.26183 0.65266 0.14819 0.0
H617 H 0.22482 0.60724 0.25498 0.0
H618 H 0.20913 0.64056 0.12294 0.0
H619 H 0.1747 0.59004 0.22772 0.0
H620 H 0.07506 0.57775 0.18325 0.0
H621 H 0.12379 0.60124 0.20969 0.0
H622 H 0.1771 0.60284 0.09702 0.0
H623 H 0.12634 0.58364 0.07083 0.0
C624 C 0.24266 0.64006 0.16653 0.0
C625 C 0.24823 0.63115 0.20401 0.0
C626 C 0.21236 0.63219 0.15148 0.0
C627 C 0.18704 0.61386 0.17278 0.0
C628 C 0.19275 0.60481 0.21019 0.0
C629 C 0.22239 0.61394 0.22575 0.0
C630 C 0.09715 0.58368 0.16423 0.0
C631 C 0.09721 0.57842 0.12507 0.0
C632 C 0.12552 0.59672 0.17941 0.0
C633 C 0.1554 0.60336 0.15597 0.0
C634 C 0.15488 0.59868 0.11643 0.0
C635 C 0.12585 0.58711 0.10118 0.0
H636 H 0.2668 0.24552 0.71073 0.0
H637 H 0.2543 0.29291 0.82209 0.0
H638 H 0.29265 0.29749 0.68486 0.0
H639 H 0.28011 0.34531 0.79607 0.0
H640 H 0.37014 0.40908 0.74046 0.0
H641 H 0.33592 0.36354 0.77013 0.0
H642 H 0.28113 0.35714 0.6706 0.0
H643 H 0.31638 0.40116 0.64022 0.0
C644 C 0.26904 0.26731 0.72956 0.0
C645 C 0.25852 0.26512 0.76841 0.0
C646 C 0.2838 0.29717 0.71473 0.0
C647 C 0.28833 0.32565 0.73836 0.0
C648 C 0.27731 0.3237 0.77719 0.0
C649 C 0.26256 0.29372 0.79207 0.0
C650 C 0.35068 0.39806 0.72499 0.0
C651 C 0.34635 0.40855 0.68776 0.0
C652 C 0.3308 0.37221 0.74217 0.0
C653 C 0.30609 0.35637 0.72252 0.0
C654 C 0.30038 0.36836 0.68624 0.0
C655 C 0.32032 0.39402 0.66902 0.0
H656 H 0.98016 0.81187 0.9416 0.0
H657 H 0.87975 0.77251 0.96532 0.0
H658 H 1.00473 0.75931 0.96621 0.0
H659 H 0.90433 0.71883 0.98876 0.0
H660 H 0.9572 0.63718 0.0582 0.0
H661 H 0.93192 0.69101 1.03693 0.0
H662 H 1.01757 0.70142 0.95305 0.0
H663 H 0.0433 0.64842 0.97541 0.0
C664 C 0.96329 0.7918 0.95199 0.0
C665 C 0.92799 0.79651 0.95147 0.0
C666 C 0.97743 0.76133 0.96586 0.0
C667 C 0.95678 0.73418 0.97935 0.0
C668 C 0.92126 0.73907 0.97912 0.0
C669 C 0.90705 0.76985 0.96547 0.0
C670 C 0.97075 0.65106 1.03532 0.0
C671 C 1.00249 0.63834 1.01868 0.0
C672 C 0.95604 0.68196 1.02284 0.0
C673 C 0.97244 0.70105 0.99306 0.0
C674 C 1.00422 0.68816 0.9765 0.0
C675 C 1.01906 0.65748 0.98924 0.0
H676 H 0.31153 0.73946 0.20333 0.0
H677 H 0.40082 0.67231 0.2025 0.0
H678 H 0.34748 0.78775 0.18392 0.0
H679 H 0.43655 0.72068 0.18411 0.0
H680 H 0.48596 0.82479 0.2057 0.0
H681 H 0.44982 0.77564 0.21842 0.0
H682 H 0.38932 0.80726 0.12877 0.0
H683 H 0.42613 0.85601 0.115 0.0
C684 C 0.33871 0.73488 0.19851 0.0
C685 C 0.35333 0.70213 0.20489 0.0
C686 C 0.35927 0.76253 0.18751 0.0
C687 C 0.39477 0.75796 0.18297 0.0
C688 C 0.40928 0.72502 0.18809 0.0
C689 C 0.3888 0.69739 0.19871 0.0
C690 C 0.46534 0.82105 0.18821 0.0
C691 C 0.45908 0.84437 0.15923 0.0
C692 C 0.44456 0.79294 0.19563 0.0
C693 C 0.41685 0.78766 0.17451 0.0
C694 C 0.41036 0.81095 0.14568 0.0
C695 C 0.43139 0.83891 0.13795 0.0
H696 H 0.21222 0.1134 0.76473 0.0
H697 H 0.15389 0.20623 0.74396 0.0
H698 H 0.17693 0.08032 0.72602 0.0
H699 H 0.11822 0.17303 0.70538 0.0
H700 H 0.0911 0.10821 0.60237 0.0
H701 H 0.12174 0.14319 0.64477 0.0
H702 H 0.12078 0.05902 0.72444 0.0
H703 H 0.09111 1.02394 0.68161 0.0
C704 C 0.19148 0.12663 0.75238 0.0
C705 C 0.18585 0.16242 0.75741 0.0
C706 C 0.1712 0.10767 0.73018 0.0
C707 C 0.14468 0.124 0.71258 0.0
C708 C 0.13873 0.15974 0.71807 0.0
C709 C 0.15911 0.17874 0.74021 0.0
C710 C 0.0973 0.09737 0.62907 0.0
C711 C 0.08913 0.06329 0.63856 0.0
C712 C 0.11467 0.11742 0.65347 0.0
C713 C 0.12401 0.10379 0.68788 0.0
C714 C 0.11463 0.07008 0.69783 0.0
C715 C 0.09746 0.05004 0.6734 0.0
H716 H 0.6884 0.37586 0.33756 0.0
H717 H 0.59735 0.31648 0.34773 0.0
H718 H 0.66223 0.41743 0.38281 0.0
H719 H 0.56943 0.36053 0.38996 0.0
H720 H 0.54205 0.42079 0.49988 0.0
H721 H 0.56568 0.38053 0.45074 0.0
H722 H 0.62622 0.46209 0.39906 0.0
H723 H 0.60452 0.50113 0.45036 0.0
C724 C 0.66255 0.37178 0.34916 0.0
C725 C 0.64545 0.34207 0.33961 0.0
C726 C 0.64712 0.39627 0.37477 0.0
C727 C 0.61354 0.3926 0.39079 0.0
C728 C 0.59562 0.36399 0.37931 0.0
C729 C 0.61146 0.3389 0.35436 0.0
C730 C 0.56058 0.42989 0.47801 0.0
C731 C 0.5718 0.46387 0.47908 0.0
C732 C 0.57391 0.40692 0.44942 0.0
C733 C 0.5981 0.41766 0.42045 0.0
C734 C 0.60847 0.45222 0.42118 0.0
C735 C 0.5959 0.47483 0.4505 0.0
loop_
_geom_bond_atom_site_label_1
_geom_bond_atom_site_label_2
_geom_bond_distance
_geom_bond_site_symmetry_2
_ccdc_geom_bond_type
H0 C5 0.930 . S
H1 C8 0.930 . S
H2 C10 0.930 . S
H3 C4 1.016 . S
C4 H3 1.016 . S
C4 N11 1.286 . S
C5 H0 0.930 . S
C5 C6 1.397 . S
C5 C7 1.361 . S
C6 C5 1.397 . S
C6 C10 1.390 . S
C7 C5 1.361 . S
C7 C8 1.393 . S
C7 N11 1.413 . S
C8 H1 0.930 . S
C8 C7 1.393 . S
C8 C9 1.399 . S
C9 C8 1.399 . S
C9 C10 1.381 . S
C10 H2 0.930 . S
C10 C6 1.390 . S
C10 C9 1.381 . S
N11 C4 1.286 . S
N11 C7 1.413 . S
H12 C17 0.930 . S
H13 C20 0.930 . S
H14 C22 0.930 . S
H15 C16 1.016 . S
C16 H15 1.016 . S
C16 N23 1.286 . S
C17 H12 0.930 . S
C17 C18 1.397 . S
C17 C19 1.361 . S
C18 C17 1.397 . S
C18 C22 1.390 . S
C19 C17 1.361 . S
C19 C20 1.393 . S
C19 N23 1.413 . S
C20 H13 0.930 . S
C20 C19 1.393 . S
C20 C21 1.399 . S
C21 C20 1.399 . S
C21 C22 1.381 . S
C22 H14 0.930 . S
C22 C18 1.390 . S
C22 C21 1.381 . S
N23 C16 1.286 . S
N23 C19 1.413 . S
H24 C29 0.930 . S
H25 C32 0.930 . S
H26 C34 0.930 . S
H27 C28 1.016 . S
C28 H27 1.016 . S
C28 N35 1.286 . S
C29 H24 0.930 . S
C29 C30 1.397 . S
C29 C31 1.361 . S
C30 C29 1.397 . S
C30 C34 1.390 . S
C31 C29 1.361 . S
C31 C32 1.393 . S
C31 N35 1.413 . S
C32 H25 0.930 . S
C32 C31 1.393 . S
C32 C33 1.399 . S
C33 C32 1.399 . S
C33 C34 1.381 . S
C34 H26 0.930 . S
C34 C30 1.390 . S
C34 C33 1.381 . S
N35 C28 1.286 . S
N35 C31 1.413 . S
H36 C41 0.930 . S
H37 C44 0.930 . S
H38 C46 0.930 . S
H39 C40 1.016 . S
C40 H39 1.016 . S
C40 N47 1.286 . S
C41 H36 0.930 . S
C41 C42 1.397 . S
C41 C43 1.361 . S
C42 C41 1.397 . S
C42 C46 1.390 . S
C43 C41 1.361 . S
C43 C44 1.393 . S
C43 N47 1.413 . S
C44 H37 0.930 . S
C44 C43 1.393 . S
C44 C45 1.399 . S
C45 C44 1.399 . S
C45 C46 1.381 . S
C46 H38 0.930 . S
C46 C42 1.390 . S
C46 C45 1.381 . S
N47 C40 1.286 . S
N47 C43 1.413 . S
H48 C53 0.930 . S
H49 C56 0.930 . S
H50 C58 0.930 . S
H51 C52 1.016 . S
C52 H51 1.016 . S
C52 N59 1.286 . S
C53 H48 0.930 . S
C53 C54 1.397 . S
C53 C55 1.361 . S
C54 C53 1.397 . S
C54 C58 1.390 . S
C55 C53 1.361 . S
C55 C56 1.393 . S
C55 N59 1.413 . S
C56 H49 0.930 . S
C56 C55 1.393 . S
C56 C57 1.399 . S
C57 C56 1.399 . S
C57 C58 1.381 . S
C58 H50 0.930 . S
C58 C54 1.390 . S
C58 C57 1.381 . S
N59 C52 1.286 . S
N59 C55 1.413 . S
H60 C65 0.930 . S
H61 C68 0.930 . S
H62 C70 0.930 . S
H63 C64 1.016 . S
C64 H63 1.016 . S
C64 N71 1.286 . S
C65 H60 0.930 . S
C65 C66 1.397 . S
C65 C67 1.361 . S
C66 C65 1.397 . S
C66 C70 1.390 . S
C67 C65 1.361 . S
C67 C68 1.393 . S
C67 N71 1.413 . S
C68 H61 0.930 . S
C68 C67 1.393 . S
C68 C69 1.399 . S
C69 C68 1.399 . S
C69 C70 1.381 . S
C70 H62 0.930 . S
C70 C66 1.390 . S
C70 C69 1.381 . S
N71 C64 1.286 . S
N71 C67 1.413 . S
H72 C77 0.930 . S
H73 C80 0.930 . S
H74 C82 0.930 . S
H75 C76 1.016 . S
C76 H75 1.016 . S
C76 N83 1.286 . S
C77 H72 0.930 . S
C77 C78 1.397 . S
C77 C79 1.361 . S
C78 C77 1.397 . S
C78 C82 1.390 . S
C79 C77 1.361 . S
C79 C80 1.393 . S
C79 N83 1.413 . S
C80 H73 0.930 . S
C80 C79 1.393 . S
C80 C81 1.399 . S
C81 C80 1.399 . S
C81 C82 1.381 . S
C82 H74 0.930 . S
C82 C78 1.390 . S
C82 C81 1.381 . S
N83 C76 1.286 . S
N83 C79 1.413 . S
H84 C89 0.930 . S
H85 C92 0.930 . S
H86 C94 0.930 . S
H87 C88 1.016 . S
C88 H87 1.016 . S
C88 N95 1.286 . S
C89 H84 0.930 . S
C89 C90 1.397 . S
C89 C91 1.361 . S
C90 C89 1.397 . S
C90 C94 1.390 . S
C91 C89 1.361 . S
C91 C92 1.393 . S
C91 N95 1.413 . S
C92 H85 0.930 . S
C92 C91 1.393 . S
C92 C93 1.399 . S
C93 C92 1.399 . S
C93 C94 1.381 . S
C94 H86 0.930 . S
C94 C90 1.390 . S
C94 C93 1.381 . S
N95 C88 1.286 . S
N95 C91 1.413 . S
Nd96 C98 2.836 . S
Nd96 O116 2.500 . S
Nd96 O117 2.492 . S
Nd96 O118 2.487 1_565 S
Nd96 O119 2.682 1_565 S
Nd96 O120 2.410 . S
Nd96 O125 2.414 1_455 S
Nd96 O127 2.424 1_565 S
Nd97 C107 2.836 . S
Nd97 O119 2.414 1_655 S
Nd97 O121 2.424 1_545 S
Nd97 O122 2.500 . S
Nd97 O123 2.492 . S
Nd97 O124 2.487 1_545 S
Nd97 O125 2.682 1_545 S
Nd97 O126 2.410 . S
C98 Nd96 2.836 . S
C98 C99 1.498 . S
C98 O116 1.258 . S
C98 O117 1.239 . S
C99 C98 1.498 . S
C99 C100 1.366 . S
C99 C104 1.407 . S
C100 C99 1.366 . S
C100 C101 1.392 . S
C100 H128 0.930 . S
C101 C100 1.392 . S
C101 C102 1.398 . S
C101 H129 0.929 . S
C102 C101 1.398 . S
C102 C103 1.352 . S
C103 C102 1.352 . S
C103 C104 1.384 . S
C103 H130 0.930 . S
C104 C99 1.407 . S
C104 C103 1.384 . S
C104 H131 0.929 . S
C105 O118 1.241 . S
C105 O119 1.273 . S
C106 O120 1.251 1_655 S
C106 O121 1.268 . S
C107 Nd97 2.836 . S
C107 C108 1.498 . S
C107 O122 1.258 . S
C107 O123 1.239 . S
C108 C107 1.498 . S
C108 C109 1.366 . S
C108 C113 1.407 . S
C109 C108 1.366 . S
C109 C110 1.392 . S
C109 H132 0.930 . S
C110 C109 1.392 . S
C110 C111 1.398 . S
C110 H133 0.929 . S
C111 C110 1.398 . S
C111 C112 1.352 . S
C112 C111 1.352 . S
C112 C113 1.384 . S
C112 H134 0.930 . S
C113 C108 1.407 . S
C113 C112 1.384 . S
C113 H135 0.929 . S
C114 O124 1.241 . S
C114 O125 1.273 . S
C115 O126 1.251 1_455 S
C115 O127 1.268 . S
O116 Nd96 2.500 . S
O116 C98 1.258 . S
O117 Nd96 2.492 . S
O117 C98 1.239 . S
O118 Nd96 2.487 1_545 S
O118 C105 1.241 . S
O119 Nd96 2.682 1_545 S
O119 Nd97 2.414 1_455 S
O119 C105 1.273 . S
O120 Nd96 2.410 . S
O120 C106 1.251 1_455 S
O121 Nd97 2.424 1_565 S
O121 C106 1.268 . S
O122 Nd97 2.500 . S
O122 C107 1.258 . S
O123 Nd97 2.492 . S
O123 C107 1.239 . S
O124 Nd97 2.487 1_565 S
O124 C114 1.241 . S
O125 Nd96 2.414 1_655 S
O125 Nd97 2.682 1_565 S
O125 C114 1.273 . S
O126 Nd97 2.410 . S
O126 C115 1.251 1_655 S
O127 Nd96 2.424 1_545 S
O127 C115 1.268 . S
H128 C100 0.930 . S
H129 C101 0.929 . S
H130 C103 0.930 . S
H131 C104 0.929 . S
H132 C109 0.930 . S
H133 C110 0.929 . S
H134 C112 0.930 . S
H135 C113 0.929 . S
Nd136 C138 2.836 . S
Nd136 O156 2.500 . S
Nd136 O157 2.492 . S
Nd136 O158 2.487 1_565 S
Nd136 O159 2.682 1_565 S
Nd136 O160 2.388 1_554 S
Nd136 O165 2.414 . S
Nd136 O167 2.424 1_565 S
Nd137 C147 2.836 . S
Nd137 O159 2.414 1_556 S
Nd137 O161 2.424 1_545 S
Nd137 O162 2.500 . S
Nd137 O163 2.492 . S
Nd137 O164 2.487 . S
Nd137 O165 2.682 1_546 S
Nd137 O166 2.410 1_556 S
C138 Nd136 2.836 . S
C138 C139 1.498 . S
C138 O156 1.258 . S
C138 O157 1.239 . S
C139 C138 1.498 . S
C139 C140 1.366 . S
C139 C144 1.407 . S
C140 C139 1.366 . S
C140 C141 1.392 . S
C140 H168 0.930 . S
C141 C140 1.392 . S
C141 C142 1.398 . S
C141 H169 0.929 . S
C142 C141 1.398 . S
C142 C143 1.352 . S
C143 C142 1.352 . S
C143 C144 1.384 . S
C143 H170 0.930 . S
C144 C139 1.407 . S
C144 C143 1.384 . S
C144 H171 0.929 . S
C145 O158 1.241 . S
C145 O159 1.273 . S
C146 O160 1.278 . S
C146 O161 1.268 . S
C147 Nd137 2.836 . S
C147 C148 1.498 . S
C147 O162 1.258 . S
C147 O163 1.239 . S
C148 C147 1.498 . S
C148 C149 1.366 . S
C148 C153 1.407 . S
C149 C148 1.366 . S
C149 C150 1.392 . S
C149 H172 0.930 . S
C150 C149 1.392 . S
C150 C151 1.398 . S
C150 H173 0.929 . S
C151 C150 1.398 . S
C151 C152 1.352 . S
C152 C151 1.352 . S
C152 C153 1.384 . S
C152 H174 0.930 . S
C153 C148 1.407 . S
C153 C152 1.384 . S
C153 H175 0.929 . S
C154 O164 1.241 1_565 S
C154 O165 1.273 1_556 S
C155 O166 1.251 . S
C155 O167 1.268 . S
O156 Nd136 2.500 . S
O156 C138 1.258 . S
O157 Nd136 2.492 . S
O157 C138 1.239 . S
O158 Nd136 2.487 1_545 S
O158 C145 1.241 . S
O159 Nd136 2.682 1_545 S
O159 Nd137 2.414 1_554 S
O159 C145 1.273 . S
O160 Nd136 2.388 1_556 S
O160 C146 1.278 . S
O161 Nd137 2.424 1_565 S
O161 C146 1.268 . S
O162 Nd137 2.500 . S
O162 C147 1.258 . S
O163 Nd137 2.492 . S
O163 C147 1.239 . S
O164 Nd137 2.487 . S
O164 C154 1.241 1_545 S
O165 Nd136 2.414 . S
O165 Nd137 2.682 1_564 S
O165 C154 1.273 1_554 S
O166 Nd137 2.410 1_554 S
O166 C155 1.251 . S
O167 Nd136 2.424 1_545 S
O167 C155 1.268 . S
H168 C140 0.930 . S
H169 C141 0.929 . S
H170 C143 0.930 . S
H171 C144 0.929 . S
H172 C149 0.930 . S
H173 C150 0.929 . S
H174 C152 0.930 . S
H175 C153 0.929 . S
Nd176 C178 2.836 . S
Nd176 O196 2.500 . S
Nd176 O197 2.492 . S
Nd176 O198 2.487 . S
Nd176 O199 2.682 . S
Nd176 O200 2.410 . S
Nd176 O205 2.414 . S
Nd176 O207 2.424 . S
Nd177 C187 2.836 . S
Nd177 O199 2.414 . S
Nd177 O201 2.424 . S
Nd177 O202 2.500 . S
Nd177 O203 2.492 . S
Nd177 O204 2.487 . S
Nd177 O205 2.682 . S
Nd177 O206 2.410 . S
C178 Nd176 2.836 . S
C178 C179 1.498 . S
C178 O196 1.258 . S
C178 O197 1.239 . S
C179 C178 1.498 . S
C179 C180 1.366 . S
C179 C184 1.407 . S
C180 C179 1.366 . S
C180 C181 1.392 . S
C180 H208 0.930 . S
C181 C180 1.392 . S
C181 C182 1.398 . S
C181 H209 0.929 . S
C182 C181 1.398 . S
C182 C183 1.352 . S
C183 C182 1.352 . S
C183 C184 1.384 . S
C183 H210 0.930 . S
C184 C179 1.407 . S
C184 C183 1.384 . S
C184 H211 0.929 . S
C185 O198 1.241 . S
C185 O199 1.273 . S
C186 O200 1.251 . S
C186 O201 1.268 . S
C187 Nd177 2.836 . S
C187 C188 1.498 . S
C187 O202 1.258 . S
C187 O203 1.239 . S
C188 C187 1.498 . S
C188 C189 1.366 . S
C188 C193 1.407 . S
C189 C188 1.366 . S
C189 C190 1.392 . S
C189 H212 0.930 . S
C190 C189 1.392 . S
C190 C191 1.398 . S
C190 H213 0.929 . S
C191 C190 1.398 . S
C191 C192 1.352 . S
C192 C191 1.352 . S
C192 C193 1.384 . S
C192 H214 0.930 . S
C193 C188 1.407 . S
C193 C192 1.384 . S
C193 H215 0.929 . S
C194 O204 1.241 . S
C194 O205 1.273 . S
C195 O206 1.251 . S
C195 O207 1.268 . S
O196 Nd176 2.500 . S
O196 C178 1.258 . S
O197 Nd176 2.492 . S
O197 C178 1.239 . S
O198 Nd176 2.487 . S
O198 C185 1.241 . S
O199 Nd176 2.682 . S
O199 Nd177 2.414 . S
O199 C185 1.273 . S
O200 Nd176 2.410 . S
O200 C186 1.251 . S
O201 Nd177 2.424 . S
O201 C186 1.268 . S
O202 Nd177 2.500 . S
O202 C187 1.258 . S
O203 Nd177 2.492 . S
O203 C187 1.239 . S
O204 Nd177 2.487 . S
O204 C194 1.241 . S
O205 Nd176 2.414 . S
O205 Nd177 2.682 . S
O205 C194 1.273 . S
O206 Nd177 2.410 . S
O206 C195 1.251 . S
O207 Nd176 2.424 . S
O207 C195 1.268 . S
H208 C180 0.930 . S
H209 C181 0.929 . S
H210 C183 0.930 . S
H211 C184 0.929 . S
H212 C189 0.930 . S
H213 C190 0.929 . S
H214 C192 0.930 . S
H215 C193 0.929 . S
Nd216 C218 2.841 . S
Nd216 O236 2.507 . S
Nd216 O237 2.493 . S
Nd216 O238 2.480 1_655 S
Nd216 O239 2.675 1_655 S
Nd216 O240 2.410 1_655 S
Nd216 O245 2.417 1_554 S
Nd216 O247 2.421 1_655 S
Nd217 C227 2.836 . S
Nd217 O239 2.414 1_556 S
Nd217 O241 2.424 . S
Nd217 O242 2.500 . S
Nd217 O243 2.492 . S
Nd217 O244 2.487 1_455 S
Nd217 O245 2.682 1_455 S
Nd217 O246 2.410 . S
C218 Nd216 2.841 . S
C218 C219 1.498 . S
C218 O236 1.258 . S
C218 O237 1.239 . S
C219 C218 1.498 . S
C219 C220 1.366 . S
C219 C224 1.407 . S
C220 C219 1.366 . S
C220 C221 1.392 . S
C220 H248 0.930 . S
C221 C220 1.392 . S
C221 C222 1.398 . S
C221 H249 0.929 . S
C222 C221 1.398 . S
C222 C223 1.352 . S
C223 C222 1.352 . S
C223 C224 1.384 . S
C223 H250 0.930 . S
C224 C219 1.407 . S
C224 C223 1.384 . S
C224 H251 0.929 . S
C225 O238 1.241 . S
C225 O239 1.273 . S
C226 O240 1.251 1_556 S
C226 O241 1.268 . S
C227 Nd217 2.836 . S
C227 C228 1.498 . S
C227 O242 1.258 . S
C227 O243 1.239 . S
C228 C227 1.498 . S
C228 C229 1.366 . S
C228 C233 1.407 . S
C229 C228 1.366 . S
C229 C230 1.392 . S
C229 H252 0.930 . S
C230 C229 1.392 . S
C230 C231 1.398 . S
C230 H253 0.929 . S
C231 C230 1.398 . S
C231 C232 1.352 . S
C232 C231 1.352 . S
C232 C233 1.384 . S
C232 H254 0.930 . S
C233 C228 1.407 . S
C233 C232 1.384 . S
C233 H255 0.929 . S
C234 O244 1.241 . S
C234 O245 1.273 . S
C235 O246 1.251 1_554 S
C235 O247 1.268 . S
O236 Nd216 2.507 . S
O236 C218 1.258 . S
O237 Nd216 2.493 . S
O237 C218 1.239 . S
O238 Nd216 2.480 1_455 S
O238 C225 1.241 . S
O239 Nd216 2.675 1_455 S
O239 Nd217 2.414 1_554 S
O239 C225 1.273 . S
O240 Nd216 2.410 1_455 S
O240 C226 1.251 1_554 S
O241 Nd217 2.424 . S
O241 C226 1.268 . S
O242 Nd217 2.500 . S
O242 C227 1.258 . S
O243 Nd217 2.492 . S
O243 C227 1.239 . S
O244 Nd217 2.487 1_655 S
O244 C234 1.241 . S
O245 Nd216 2.417 1_556 S
O245 Nd217 2.682 1_655 S
O245 C234 1.273 . S
O246 Nd217 2.410 . S
O246 C235 1.251 1_556 S
O247 Nd216 2.421 1_455 S
O247 C235 1.268 . S
H248 C220 0.930 . S
H249 C221 0.929 . S
H250 C223 0.930 . S
H251 C224 0.929 . S
H252 C229 0.930 . S
H253 C230 0.929 . S
H254 C232 0.930 . S
H255 C233 0.929 . S
H256 C264 0.950 . S
H257 C269 0.950 . S
H258 C266 0.950 . S
H259 C268 0.950 . S
H260 C270 0.950 . S
H261 C272 0.950 . S
H262 C274 0.950 . S
H263 C275 0.950 . S
C264 H256 0.950 . S
C264 C265 1.386 . S
C264 C266 1.391 . S
C265 C264 1.386 . S
C265 C269 1.393 . S
C266 H258 0.950 . S
C266 C264 1.391 . S
C266 C267 1.400 . S
C267 C266 1.400 . S
C267 C268 1.398 . S
C267 C273 1.491 . S
C268 H259 0.950 . S
C268 C267 1.398 . S
C268 C269 1.391 . S
C269 H257 0.950 . S
C269 C265 1.393 . S
C269 C268 1.391 . S
C270 H260 0.950 . S
C270 C271 1.386 . S
C270 C272 1.391 . S
C271 C270 1.386 . S
C271 C275 1.393 . S
C272 H261 0.950 . S
C272 C270 1.391 . S
C272 C273 1.400 . S
C273 C267 1.491 . S
C273 C272 1.400 . S
C273 C274 1.398 . S
C274 H262 0.950 . S
C274 C273 1.398 . S
C274 C275 1.391 . S
C275 H263 0.950 . S
C275 C271 1.393 . S
C275 C274 1.391 . S
H276 C284 0.950 . S
H277 C289 0.950 . S
H278 C286 0.950 . S
H279 C288 0.950 . S
H280 C290 0.950 . S
H281 C292 0.950 . S
H282 C294 0.950 . S
H283 C295 0.950 . S
C284 H276 0.950 . S
C284 C285 1.386 . S
C284 C286 1.391 . S
C285 C284 1.386 . S
C285 C289 1.393 . S
C286 H278 0.950 . S
C286 C284 1.391 . S
C286 C287 1.400 . S
C287 C286 1.400 . S
C287 C288 1.398 . S
C287 C293 1.491 . S
C288 H279 0.950 . S
C288 C287 1.398 . S
C288 C289 1.391 . S
C289 H277 0.950 . S
C289 C285 1.393 . S
C289 C288 1.391 . S
C290 H280 0.950 . S
C290 C291 1.386 . S
C290 C292 1.391 . S
C291 C290 1.386 . S
C291 C295 1.393 . S
C292 H281 0.950 . S
C292 C290 1.391 . S
C292 C293 1.400 . S
C293 C287 1.491 . S
C293 C292 1.400 . S
C293 C294 1.398 . S
C294 H282 0.950 . S
C294 C293 1.398 . S
C294 C295 1.391 . S
C295 H283 0.950 . S
C295 C291 1.393 . S
C295 C294 1.391 . S
H296 C304 0.950 . S
H297 C309 0.950 . S
H298 C306 0.950 . S
H299 C308 0.950 . S
H300 C310 0.950 . S
H301 C312 0.950 . S
H302 C314 0.950 . S
H303 C315 0.950 . S
C304 H296 0.950 . S
C304 C305 1.386 . S
C304 C306 1.391 . S
C305 C304 1.386 . S
C305 C309 1.393 . S
C306 H298 0.950 . S
C306 C304 1.391 . S
C306 C307 1.400 . S
C307 C306 1.400 . S
C307 C308 1.398 . S
C307 C313 1.491 . S
C308 H299 0.950 . S
C308 C307 1.398 . S
C308 C309 1.391 . S
C309 H297 0.950 . S
C309 C305 1.393 . S
C309 C308 1.391 . S
C310 H300 0.950 . S
C310 C311 1.386 . S
C310 C312 1.391 . S
C311 C310 1.386 . S
C311 C315 1.393 . S
C312 H301 0.950 . S
C312 C310 1.391 . S
C312 C313 1.400 . S
C313 C307 1.491 . S
C313 C312 1.400 . S
C313 C314 1.398 . S
C314 H302 0.950 . S
C314 C313 1.398 . S
C314 C315 1.391 . S
C315 H303 0.950 . S
C315 C311 1.393 . S
C315 C314 1.391 . S
H316 C324 0.950 . S
H317 C329 0.950 . S
H318 C326 0.950 . S
H319 C328 0.950 . S
H320 C330 0.950 . S
H321 C332 0.950 . S
H322 C334 0.950 . S
H323 C335 0.950 . S
C324 H316 0.950 . S
C324 C325 1.386 . S
C324 C326 1.391 . S
C325 C324 1.386 . S
C325 C329 1.393 . S
C326 H318 0.950 . S
C326 C324 1.391 . S
C326 C327 1.400 . S
C327 C326 1.400 . S
C327 C328 1.398 . S
C327 C333 1.491 . S
C328 H319 0.950 . S
C328 C327 1.398 . S
C328 C329 1.391 . S
C329 H317 0.950 . S
C329 C325 1.393 . S
C329 C328 1.391 . S
C330 H320 0.950 . S
C330 C331 1.386 . S
C330 C332 1.391 . S
C331 C330 1.386 . S
C331 C335 1.393 . S
C332 H321 0.950 . S
C332 C330 1.391 . S
C332 C333 1.400 . S
C333 C327 1.491 . S
C333 C332 1.400 . S
C333 C334 1.398 . S
C334 H322 0.950 . S
C334 C333 1.398 . S
C334 C335 1.391 . S
C335 H323 0.950 . S
C335 C331 1.393 . S
C335 C334 1.391 . S
H336 C344 0.950 . S
H337 C349 0.950 . S
H338 C346 0.950 . S
H339 C348 0.950 . S
H340 C350 0.950 . S
H341 C352 0.950 . S
H342 C354 0.950 . S
H343 C355 0.952 . S
C344 H336 0.950 . S
C344 C345 1.386 . S
C344 C346 1.391 . S
C345 C344 1.386 . S
C345 C349 1.393 . S
C346 H338 0.950 . S
C346 C344 1.391 . S
C346 C347 1.400 . S
C347 C346 1.400 . S
C347 C348 1.398 . S
C347 C353 1.491 . S
C348 H339 0.950 . S
C348 C347 1.398 . S
C348 C349 1.391 . S
C349 H337 0.950 . S
C349 C345 1.393 . S
C349 C348 1.391 . S
C350 H340 0.950 . S
C350 C351 1.386 . S
C350 C352 1.391 . S
C351 C350 1.386 . S
C351 C355 1.393 . S
C352 H341 0.950 . S
C352 C350 1.391 . S
C352 C353 1.400 . S
C353 C347 1.491 . S
C353 C352 1.400 . S
C353 C354 1.398 . S
C354 H342 0.950 . S
C354 C353 1.398 . S
C354 C355 1.391 . S
C355 H343 0.952 . S
C355 C351 1.393 . S
C355 C354 1.391 . S
H356 C364 0.950 . S
H357 C369 0.950 . S
H358 C366 0.950 . S
H359 C368 0.950 . S
H360 C370 0.950 . S
H361 C372 0.950 . S
H362 C374 0.950 . S
H363 C375 0.950 . S
C364 H356 0.950 . S
C364 C365 1.386 . S
C364 C366 1.391 . S
C365 C364 1.386 . S
C365 C369 1.393 . S
C366 H358 0.950 . S
C366 C364 1.391 . S
C366 C367 1.400 . S
C367 C366 1.400 . S
C367 C368 1.398 . S
C367 C373 1.491 . S
C368 H359 0.950 . S
C368 C367 1.398 . S
C368 C369 1.391 . S
C369 H357 0.950 . S
C369 C365 1.393 . S
C369 C368 1.391 . S
C370 H360 0.950 . S
C370 C371 1.386 . S
C370 C372 1.391 . S
C371 C370 1.386 . S
C371 C375 1.393 . S
C372 H361 0.950 . S
C372 C370 1.391 . S
C372 C373 1.400 . S
C373 C367 1.491 . S
C373 C372 1.400 . S
C373 C374 1.398 . S
C374 H362 0.950 . S
C374 C373 1.398 . S
C374 C375 1.391 . S
C375 H363 0.950 . S
C375 C371 1.393 . S
C375 C374 1.391 . S
H376 C384 0.950 . S
H377 C389 0.950 . S
H378 C386 0.950 . S
H379 C388 0.950 . S
H380 C390 0.950 . S
H381 C392 0.950 . S
H382 C394 0.950 . S
H383 C395 0.950 . S
C384 H376 0.950 . S
C384 C385 1.386 . S
C384 C386 1.391 . S
C385 C384 1.386 . S
C385 C389 1.393 . S
C386 H378 0.950 . S
C386 C384 1.391 . S
C386 C387 1.400 . S
C387 C386 1.400 . S
C387 C388 1.398 . S
C387 C393 1.491 . S
C388 H379 0.950 . S
C388 C387 1.398 . S
C388 C389 1.391 . S
C389 H377 0.950 . S
C389 C385 1.393 . S
C389 C388 1.391 . S
C390 H380 0.950 . S
C390 C391 1.386 . S
C390 C392 1.391 . S
C391 C390 1.386 . S
C391 C395 1.393 . S
C392 H381 0.950 . S
C392 C390 1.391 . S
C392 C393 1.400 . S
C393 C387 1.491 . S
C393 C392 1.400 . S
C393 C394 1.398 . S
C394 H382 0.950 . S
C394 C393 1.398 . S
C394 C395 1.391 . S
C395 H383 0.950 . S
C395 C391 1.393 . S
C395 C394 1.391 . S
H396 C404 0.950 . S
H397 C409 0.950 . S
H398 C406 0.950 . S
H399 C408 0.950 . S
H400 C410 0.950 . S
H401 C412 0.950 . S
H402 C414 0.950 . S
H403 C415 0.950 . S
C404 H396 0.950 . S
C404 C405 1.386 . S
C404 C406 1.391 . S
C405 C404 1.386 . S
C405 C409 1.393 . S
C406 H398 0.950 . S
C406 C404 1.391 . S
C406 C407 1.400 . S
C407 C406 1.400 . S
C407 C408 1.398 . S
C407 C413 1.491 . S
C408 H399 0.950 . S
C408 C407 1.398 . S
C408 C409 1.391 . S
C409 H397 0.950 . S
C409 C405 1.393 . S
C409 C408 1.391 . S
C410 H400 0.950 . S
C410 C411 1.386 . S
C410 C412 1.391 . S
C411 C410 1.386 . S
C411 C415 1.393 . S
C412 H401 0.950 . S
C412 C410 1.391 . S
C412 C413 1.400 . S
C413 C407 1.491 . S
C413 C412 1.400 . S
C413 C414 1.398 . S
C414 H402 0.950 . S
C414 C413 1.398 . S
C414 C415 1.391 . S
C415 H403 0.950 . S
C415 C411 1.393 . S
C415 C414 1.391 . S
H416 C424 0.950 . S
H417 C429 0.950 . S
H418 C426 0.950 . S
H419 C428 0.950 . S
H420 C430 0.950 . S
H421 C432 0.950 . S
H422 C434 0.950 . S
H423 C435 0.950 . S
C424 H416 0.950 . S
C424 C425 1.386 . S
C424 C426 1.391 . S
C425 C424 1.386 . S
C425 C429 1.393 . S
C426 H418 0.950 . S
C426 C424 1.391 . S
C426 C427 1.400 . S
C427 C426 1.400 . S
C427 C428 1.398 . S
C427 C433 1.491 . S
C428 H419 0.950 . S
C428 C427 1.398 . S
C428 C429 1.391 . S
C429 H417 0.950 . S
C429 C425 1.393 . S
C429 C428 1.391 . S
C430 H420 0.950 . S
C430 C431 1.386 . S
C430 C432 1.391 . S
C431 C430 1.386 . S
C431 C435 1.393 . S
C432 H421 0.950 . S
C432 C430 1.391 . S
C432 C433 1.400 . S
C433 C427 1.491 . S
C433 C432 1.400 . S
C433 C434 1.398 . S
C434 H422 0.950 . S
C434 C433 1.398 . S
C434 C435 1.391 . S
C435 H423 0.950 . S
C435 C431 1.393 . S
C435 C434 1.391 . S
H436 C444 0.950 . S
H437 C449 0.950 . S
H438 C446 0.950 . S
H439 C448 0.950 . S
H440 C450 0.950 . S
H441 C452 0.950 . S
H442 C454 0.950 . S
H443 C455 0.950 . S
C444 H436 0.950 . S
C444 C445 1.386 . S
C444 C446 1.391 . S
C445 C444 1.386 . S
C445 C449 1.393 . S
C446 H438 0.950 . S
C446 C444 1.391 . S
C446 C447 1.400 . S
C447 C446 1.400 . S
C447 C448 1.398 . S
C447 C453 1.491 . S
C448 H439 0.950 . S
C448 C447 1.398 . S
C448 C449 1.391 . S
C449 H437 0.950 . S
C449 C445 1.393 . S
C449 C448 1.391 . S
C450 H440 0.950 . S
C450 C451 1.386 . S
C450 C452 1.391 . S
C451 C450 1.386 . S
C451 C455 1.393 . S
C452 H441 0.950 . S
C452 C450 1.391 . S
C452 C453 1.400 . S
C453 C447 1.491 . S
C453 C452 1.400 . S
C453 C454 1.398 . S
C454 H442 0.950 . S
C454 C453 1.398 . S
C454 C455 1.391 . S
C455 H443 0.950 . S
C455 C451 1.393 . S
C455 C454 1.391 . S
H456 C464 0.950 . S
H457 C469 0.950 . S
H458 C466 0.950 . S
H459 C468 0.950 . S
H460 C470 0.950 . S
H461 C472 0.950 . S
H462 C474 0.950 . S
H463 C475 0.950 . S
C464 H456 0.950 . S
C464 C465 1.386 . S
C464 C466 1.391 . S
C465 C464 1.386 . S
C465 C469 1.393 . S
C466 H458 0.950 . S
C466 C464 1.391 . S
C466 C467 1.400 . S
C467 C466 1.400 . S
C467 C468 1.398 . S
C467 C473 1.491 . S
C468 H459 0.950 . S
C468 C467 1.398 . S
C468 C469 1.391 . S
C469 H457 0.950 . S
C469 C465 1.393 . S
C469 C468 1.391 . S
C470 H460 0.950 . S
C470 C471 1.386 . S
C470 C472 1.391 . S
C471 C470 1.386 . S
C471 C475 1.393 . S
C472 H461 0.950 . S
C472 C470 1.391 . S
C472 C473 1.400 . S
C473 C467 1.491 . S
C473 C472 1.400 . S
C473 C474 1.398 . S
C474 H462 0.950 . S
C474 C473 1.398 . S
C474 C475 1.391 . S
C475 H463 0.950 . S
C475 C471 1.393 . S
C475 C474 1.391 . S
H476 C484 0.950 . S
H477 C489 0.950 . S
H478 C486 0.950 . S
H479 C488 0.950 . S
H480 C490 0.950 . S
H481 C492 0.950 . S
H482 C494 0.950 . S
H483 C495 0.950 . S
C484 H476 0.950 . S
C484 C485 1.386 . S
C484 C486 1.391 . S
C485 C484 1.386 . S
C485 C489 1.393 . S
C486 H478 0.950 . S
C486 C484 1.391 . S
C486 C487 1.400 . S
C487 C486 1.400 . S
C487 C488 1.398 . S
C487 C493 1.491 . S
C488 H479 0.950 . S
C488 C487 1.398 . S
C488 C489 1.391 . S
C489 H477 0.950 . S
C489 C485 1.393 . S
C489 C488 1.391 . S
C490 H480 0.950 . S
C490 C491 1.386 . S
C490 C492 1.391 . S
C491 C490 1.386 . S
C491 C495 1.393 . S
C492 H481 0.950 . S
C492 C490 1.391 . S
C492 C493 1.400 . S
C493 C487 1.491 . S
C493 C492 1.400 . S
C493 C494 1.398 . S
C494 H482 0.950 . S
C494 C493 1.398 . S
C494 C495 1.391 . S
C495 H483 0.950 . S
C495 C491 1.393 . S
C495 C494 1.391 . S
H496 C504 0.950 . S
H497 C509 0.950 . S
H498 C506 0.950 . S
H499 C508 0.950 . S
H500 C510 0.950 . S
H501 C512 0.950 . S
H502 C514 0.950 . S
H503 C515 0.950 . S
C504 H496 0.950 . S
C504 C505 1.386 . S
C504 C506 1.391 . S
C505 C504 1.386 . S
C505 C509 1.393 . S
C506 H498 0.950 . S
C506 C504 1.391 . S
C506 C507 1.400 . S
C507 C506 1.400 . S
C507 C508 1.398 . S
C507 C513 1.491 . S
C508 H499 0.950 . S
C508 C507 1.398 . S
C508 C509 1.391 . S
C509 H497 0.950 . S
C509 C505 1.393 . S
C509 C508 1.391 . S
C510 H500 0.950 . S
C510 C511 1.386 . S
C510 C512 1.391 . S
C511 C510 1.386 . S
C511 C515 1.393 . S
C512 H501 0.950 . S
C512 C510 1.391 . S
C512 C513 1.400 . S
C513 C507 1.491 . S
C513 C512 1.400 . S
C513 C514 1.398 . S
C514 H502 0.950 . S
C514 C513 1.398 . S
C514 C515 1.391 . S
C515 H503 0.950 . S
C515 C511 1.393 . S
C515 C514 1.391 . S
H516 C524 0.950 . S
H517 C529 0.950 . S
H518 C526 0.950 . S
H519 C528 0.950 . S
H520 C530 0.950 . S
H521 C532 0.950 . S
H522 C534 0.950 . S
H523 C535 0.950 . S
C524 H516 0.950 . S
C524 C525 1.386 . S
C524 C526 1.391 . S
C525 C524 1.386 . S
C525 C529 1.393 . S
C526 H518 0.950 . S
C526 C524 1.391 . S
C526 C527 1.400 . S
C527 C526 1.400 . S
C527 C528 1.398 . S
C527 C533 1.491 . S
C528 H519 0.950 . S
C528 C527 1.398 . S
C528 C529 1.391 . S
C529 H517 0.950 . S
C529 C525 1.393 . S
C529 C528 1.391 . S
C530 H520 0.950 . S
C530 C531 1.386 . S
C530 C532 1.391 . S
C531 C530 1.386 . S
C531 C535 1.393 . S
C532 H521 0.950 . S
C532 C530 1.391 . S
C532 C533 1.400 . S
C533 C527 1.491 . S
C533 C532 1.400 . S
C533 C534 1.398 . S
C534 H522 0.950 . S
C534 C533 1.398 . S
C534 C535 1.391 . S
C535 H523 0.950 . S
C535 C531 1.393 . S
C535 C534 1.391 . S
H536 C544 0.950 . S
H537 C549 0.950 . S
H538 C546 0.950 . S
H539 C548 0.950 . S
H540 C550 0.950 . S
H541 C552 0.950 . S
H542 C554 0.950 . S
H543 C555 0.950 . S
C544 H536 0.950 . S
C544 C545 1.386 . S
C544 C546 1.391 . S
C545 C544 1.386 . S
C545 C549 1.393 . S
C546 H538 0.950 . S
C546 C544 1.391 . S
C546 C547 1.400 . S
C547 C546 1.400 . S
C547 C548 1.398 . S
C547 C553 1.491 . S
C548 H539 0.950 . S
C548 C547 1.398 . S
C548 C549 1.391 . S
C549 H537 0.950 . S
C549 C545 1.393 . S
C549 C548 1.391 . S
C550 H540 0.950 . S
C550 C551 1.386 . S
C550 C552 1.391 . S
C551 C550 1.386 . S
C551 C555 1.393 . S
C552 H541 0.950 . S
C552 C550 1.391 . S
C552 C553 1.400 . S
C553 C547 1.491 . S
C553 C552 1.400 . S
C553 C554 1.398 . S
C554 H542 0.950 . S
C554 C553 1.398 . S
C554 C555 1.391 . S
C555 H543 0.950 . S
C555 C551 1.393 . S
C555 C554 1.391 . S
H556 C564 0.950 . S
H557 C569 0.950 . S
H558 C566 0.950 . S
H559 C568 0.950 . S
H560 C570 0.950 . S
H561 C572 0.950 . S
H562 C574 0.950 . S
H563 C575 0.950 . S
C564 H556 0.950 . S
C564 C565 1.386 . S
C564 C566 1.391 . S
C565 C564 1.386 . S
C565 C569 1.393 . S
C566 H558 0.950 . S
C566 C564 1.391 . S
C566 C567 1.400 . S
C567 C566 1.400 . S
C567 C568 1.398 . S
C567 C573 1.491 . S
C568 H559 0.950 . S
C568 C567 1.398 . S
C568 C569 1.391 . S
C569 H557 0.950 . S
C569 C565 1.393 . S
C569 C568 1.391 . S
C570 H560 0.950 . S
C570 C571 1.386 . S
C570 C572 1.391 . S
C571 C570 1.386 . S
C571 C575 1.393 . S
C572 H561 0.950 . S
C572 C570 1.391 . S
C572 C573 1.400 . S
C573 C567 1.491 . S
C573 C572 1.400 . S
C573 C574 1.398 . S
C574 H562 0.950 . S
C574 C573 1.398 . S
C574 C575 1.391 . S
C575 H563 0.950 . S
C575 C571 1.393 . S
C575 C574 1.391 . S
H576 C584 0.950 . S
H577 C589 0.950 . S
H578 C586 0.950 . S
H579 C588 0.950 . S
H580 C590 0.950 . S
H581 C592 0.950 . S
H582 C594 0.950 . S
H583 C595 0.950 1_554 S
C584 H576 0.950 . S
C584 C585 1.386 . S
C584 C586 1.391 . S
C585 C584 1.386 . S
C585 C589 1.393 . S
C586 H578 0.950 . S
C586 C584 1.391 . S
C586 C587 1.400 . S
C587 C586 1.400 . S
C587 C588 1.398 . S
C587 C593 1.491 . S
C588 H579 0.950 . S
C588 C587 1.398 . S
C588 C589 1.391 . S
C589 H577 0.950 . S
C589 C585 1.393 . S
C589 C588 1.391 . S
C590 H580 0.950 . S
C590 C591 1.386 . S
C590 C592 1.391 . S
C591 C590 1.386 . S
C591 C595 1.393 . S
C592 H581 0.950 . S
C592 C590 1.391 . S
C592 C593 1.400 . S
C593 C587 1.491 . S
C593 C592 1.400 . S
C593 C594 1.398 . S
C594 H582 0.950 . S
C594 C593 1.398 . S
C594 C595 1.391 . S
C595 H583 0.950 1_556 S
C595 C591 1.393 . S
C595 C594 1.391 . S
H596 C604 0.950 . S
H597 C609 0.950 . S
H598 C606 0.950 . S
H599 C608 0.950 . S
H600 C610 0.950 . S
H601 C612 0.950 . S
H602 C614 0.950 . S
H603 C615 0.950 . S
C604 H596 0.950 . S
C604 C605 1.386 . S
C604 C606 1.391 . S
C605 C604 1.386 . S
C605 C609 1.393 . S
C606 H598 0.950 . S
C606 C604 1.391 . S
C606 C607 1.400 . S
C607 C606 1.400 . S
C607 C608 1.398 . S
C607 C613 1.491 . S
C608 H599 0.950 . S
C608 C607 1.398 . S
C608 C609 1.391 . S
C609 H597 0.950 . S
C609 C605 1.393 . S
C609 C608 1.391 . S
C610 H600 0.950 . S
C610 C611 1.386 . S
C610 C612 1.391 . S
C611 C610 1.386 . S
C611 C615 1.393 . S
C612 H601 0.950 . S
C612 C610 1.391 . S
C612 C613 1.400 . S
C613 C607 1.491 . S
C613 C612 1.400 . S
C613 C614 1.398 . S
C614 H602 0.950 . S
C614 C613 1.398 . S
C614 C615 1.391 . S
C615 H603 0.950 . S
C615 C611 1.393 . S
C615 C614 1.391 . S
H616 C624 0.950 . S
H617 C629 0.950 . S
H618 C626 0.950 . S
H619 C628 0.950 . S
H620 C630 0.950 . S
H621 C632 0.950 . S
H622 C634 0.950 . S
H623 C635 0.950 . S
C624 H616 0.950 . S
C624 C625 1.386 . S
C624 C626 1.391 . S
C625 C624 1.386 . S
C625 C629 1.393 . S
C626 H618 0.950 . S
C626 C624 1.391 . S
C626 C627 1.400 . S
C627 C626 1.400 . S
C627 C628 1.398 . S
C627 C633 1.491 . S
C628 H619 0.950 . S
C628 C627 1.398 . S
C628 C629 1.391 . S
C629 H617 0.950 . S
C629 C625 1.393 . S
C629 C628 1.391 . S
C630 H620 0.950 . S
C630 C631 1.386 . S
C630 C632 1.391 . S
C631 C630 1.386 . S
C631 C635 1.393 . S
C632 H621 0.950 . S
C632 C630 1.391 . S
C632 C633 1.400 . S
C633 C627 1.491 . S
C633 C632 1.400 . S
C633 C634 1.398 . S
C634 H622 0.950 . S
C634 C633 1.398 . S
C634 C635 1.391 . S
C635 H623 0.950 . S
C635 C631 1.393 . S
C635 C634 1.391 . S
H636 C644 0.950 . S
H637 C649 0.950 . S
H638 C646 0.950 . S
H639 C648 0.950 . S
H640 C650 0.950 . S
H641 C652 0.950 . S
H642 C654 0.950 . S
H643 C655 0.950 . S
C644 H636 0.950 . S
C644 C645 1.386 . S
C644 C646 1.391 . S
C645 C644 1.386 . S
C645 C649 1.393 . S
C646 H638 0.950 . S
C646 C644 1.391 . S
C646 C647 1.400 . S
C647 C646 1.400 . S
C647 C648 1.398 . S
C647 C653 1.491 . S
C648 H639 0.950 . S
C648 C647 1.398 . S
C648 C649 1.391 . S
C649 H637 0.950 . S
C649 C645 1.393 . S
C649 C648 1.391 . S
C650 H640 0.950 . S
C650 C651 1.386 . S
C650 C652 1.391 . S
C651 C650 1.386 . S
C651 C655 1.393 . S
C652 H641 0.950 . S
C652 C650 1.391 . S
C652 C653 1.400 . S
C653 C647 1.491 . S
C653 C652 1.400 . S
C653 C654 1.398 . S
C654 H642 0.950 . S
C654 C653 1.398 . S
C654 C655 1.391 . S
C655 H643 0.950 . S
C655 C651 1.393 . S
C655 C654 1.391 . S
H656 C664 0.950 . S
H657 C669 0.950 . S
H658 C666 0.950 . S
H659 C668 0.950 . S
H660 C670 0.950 . S
H661 C672 0.950 . S
H662 C674 0.950 . S
H663 C675 0.950 1_455 S
C664 H656 0.950 . S
C664 C665 1.386 . S
C664 C666 1.391 . S
C665 C664 1.386 . S
C665 C669 1.393 . S
C666 H658 0.950 . S
C666 C664 1.391 . S
C666 C667 1.400 . S
C667 C666 1.400 . S
C667 C668 1.398 . S
C667 C673 1.491 . S
C668 H659 0.950 . S
C668 C667 1.398 . S
C668 C669 1.391 . S
C669 H657 0.950 . S
C669 C665 1.393 . S
C669 C668 1.391 . S
C670 H660 0.950 . S
C670 C671 1.386 . S
C670 C672 1.391 . S
C671 C670 1.386 . S
C671 C675 1.393 . S
C672 H661 0.950 . S
C672 C670 1.391 . S
C672 C673 1.400 . S
C673 C667 1.491 . S
C673 C672 1.400 . S
C673 C674 1.398 . S
C674 H662 0.950 . S
C674 C673 1.398 . S
C674 C675 1.391 . S
C675 H663 0.950 1_655 S
C675 C671 1.393 . S
C675 C674 1.391 . S
H676 C684 0.950 . S
H677 C689 0.950 . S
H678 C686 0.950 . S
H679 C688 0.950 . S
H680 C690 0.950 . S
H681 C692 0.950 . S
H682 C694 0.950 . S
H683 C695 0.950 . S
C684 H676 0.950 . S
C684 C685 1.386 . S
C684 C686 1.391 . S
C685 C684 1.386 . S
C685 C689 1.393 . S
C686 H678 0.950 . S
C686 C684 1.391 . S
C686 C687 1.400 . S
C687 C686 1.400 . S
C687 C688 1.398 . S
C687 C693 1.491 . S
C688 H679 0.950 . S
C688 C687 1.398 . S
C688 C689 1.391 . S
C689 H677 0.950 . S
C689 C685 1.393 . S
C689 C688 1.391 . S
C690 H680 0.950 . S
C690 C691 1.386 . S
C690 C692 1.391 . S
C691 C690 1.386 . S
C691 C695 1.393 . S
C692 H681 0.950 . S
C692 C690 1.391 . S
C692 C693 1.400 . S
C693 C687 1.491 . S
C693 C692 1.400 . S
C693 C694 1.398 . S
C694 H682 0.950 . S
C694 C693 1.398 . S
C694 C695 1.391 . S
C695 H683 0.950 . S
C695 C691 1.393 . S
C695 C694 1.391 . S
H696 C704 0.950 . S
H697 C709 0.950 . S
H698 C706 0.950 . S
H699 C708 0.950 . S
H700 C710 0.950 . S
H701 C712 0.950 . S
H702 C714 0.950 . S
H703 C715 0.950 . S
C704 H696 0.950 . S
C704 C705 1.386 . S
C704 C706 1.391 . S
C705 C704 1.386 . S
C705 C709 1.393 . S
C706 H698 0.950 . S
C706 C704 1.391 . S
C706 C707 1.400 . S
C707 C706 1.400 . S
C707 C708 1.398 . S
C707 C713 1.491 . S
C708 H699 0.950 . S
C708 C707 1.398 . S
C708 C709 1.391 . S
C709 H697 0.950 . S
C709 C705 1.393 . S
C709 C708 1.391 . S
C710 H700 0.950 . S
C710 C711 1.386 . S
C710 C712 1.391 . S
C711 C710 1.386 . S
C711 C715 1.393 . S
C712 H701 0.950 . S
C712 C710 1.391 . S
C712 C713 1.400 . S
C713 C707 1.491 . S
C713 C712 1.400 . S
C713 C714 1.398 . S
C714 H702 0.950 . S
C714 C713 1.398 . S
C714 C715 1.391 . S
C715 H703 0.950 . S
C715 C711 1.393 . S
C715 C714 1.391 . S
H716 C724 0.950 . S
H717 C729 0.950 . S
H718 C726 0.950 . S
H719 C728 0.950 . S
H720 C730 0.950 . S
H721 C732 0.950 . S
H722 C734 0.950 . S
H723 C735 0.950 . S
C724 H716 0.950 . S
C724 C725 1.386 . S
C724 C726 1.391 . S
C725 C724 1.386 . S
C725 C729 1.393 . S
C726 H718 0.950 . S
C726 C724 1.391 . S
C726 C727 1.400 . S
C727 C726 1.400 . S
C727 C728 1.398 . S
C727 C733 1.491 . S
C728 H719 0.950 . S
C728 C727 1.398 . S
C728 C729 1.391 . S
C729 H717 0.950 . S
C729 C725 1.393 . S
C729 C728 1.391 . S
C730 H720 0.950 . S
C730 C731 1.386 . S
C730 C732 1.391 . S
C731 C730 1.386 . S
C731 C735 1.393 . S
C732 H721 0.950 . S
C732 C730 1.391 . S
C732 C733 1.400 . S
C733 C727 1.491 . S
C733 C732 1.400 . S
C733 C734 1.398 . S
C734 H722 0.950 . S
C734 C733 1.398 . S
C734 C735 1.391 . S
C735 H723 0.950 . S
C735 C731 1.393 . S
C735 C734 1.391 . S
C265 C6 3.042 . S
C271 C115 3.009 . S
C285 C18 2.376 . S
C291 C146 2.438 . S
C311 C185 1.382 . S
C305 C28 1.372 . S
C325 C40 0.258 . S
C331 C222 0.354 . S
C351 C145 3.078 . S
C345 C9 3.176 . S
C371 C102 1.320 . S
C365 C16 1.329 . S
C391 C234 1.448 . S
C385 C30 1.490 . S
C411 C191 0.925 . S
C405 C42 0.920 . S
C425 C4 2.374 . S
C431 C235 2.369 . S
C451 C151 1.418 . S
C445 C33 1.426 . S
C465 C45 0.244 . S
C471 C114 0.496 . S
C485 C21 2.505 . S
C491 C186 2.492 . S
C511 C106 3.039 . S
C505 C57 3.083 . S
C525 C66 2.293 . S
C531 C155 2.396 . S
C545 C76 1.397 . S
C551 C194 1.388 . S
C565 C88 0.461 . S
C571 C231 0.373 . S
C585 C54 3.131 . S
C591 C154 3.032 . S
C611 C111 1.377 . S
C605 C64 1.370 . S
C631 C225 1.281 . S
C625 C78 1.333 . S
C651 C182 0.963 . S
C645 C93 0.970 . S
C665 C52 2.273 . S
C671 C226 2.289 1_655 S
C691 C142 1.425 . S
C685 C81 1.424 . S
C711 C105 0.453 . S
C705 C90 0.273 . S
C725 C69 2.534 . S
C731 C195 2.550 . S
