# Generated by pormake.
# Topology ssa, (4,4)-cn, num edge types: 1
# Building blocks:
#     Node 0, Type 0, BuildingBlock: ESEHIV_clean_sbu_0, # of connection points: 4
#     Node 1, Type 0, BuildingBlock: ESEHIV_clean_sbu_0, # of connection points: 4
#     Node 2, Type 0, BuildingBlock: ESEHIV_clean_sbu_0, # of connection points: 4
#     Node 3, Type 0, BuildingBlock: ESEHIV_clean_sbu_0, # of connection points: 4
#     Node 4, Type 0, BuildingBlock: ESEHIV_clean_sbu_0, # of connection points: 4
#     Node 5, Type 0, BuildingBlock: ESEHIV_clean_sbu_0, # of connection points: 4
#     Node 6, Type 1, BuildingBlock: MUDLON_clean_linker_0, # of connection points: 4
#     Node 7, Type 1, BuildingBlock: MUDLON_clean_linker_0, # of connection points: 4
#     Node 8, Type 1, BuildingBlock: MUDLON_clean_linker_0, # of connection points: 4
#     Node 9, Type 1, BuildingBlock: MUDLON_clean_linker_0, # of connection points: 4
#     Node 10, Type 1, BuildingBlock: MUDLON_clean_linker_0, # of connection points: 4
#     Node 11, Type 1, BuildingBlock: MUDLON_clean_linker_0, # of connection points: 4
#     Edge 12, Type (0, 1), BuildingBlock: UVAHIK_clean_linker_0, # of connection points: 2
#     Edge 13, Type (0, 1), BuildingBlock: UVAHIK_clean_linker_0, # of connection points: 2
#     Edge 14, Type (0, 1), BuildingBlock: UVAHIK_clean_linker_0, # of connection points: 2
#     Edge 15, Type (0, 1), BuildingBlock: UVAHIK_clean_linker_0, # of connection points: 2
#     Edge 16, Type (0, 1), BuildingBlock: UVAHIK_clean_linker_0, # of connection points: 2
#     Edge 17, Type (0, 1), BuildingBlock: UVAHIK_clean_linker_0, # of connection points: 2
#     Edge 18, Type (0, 1), BuildingBlock: UVAHIK_clean_linker_0, # of connection points: 2
#     Edge 19, Type (0, 1), BuildingBlock: UVAHIK_clean_linker_0, # of connection points: 2
#     Edge 20, Type (0, 1), BuildingBlock: UVAHIK_clean_linker_0, # of connection points: 2
#     Edge 21, Type (0, 1), BuildingBlock: UVAHIK_clean_linker_0, # of connection points: 2
#     Edge 22, Type (0, 1), BuildingBlock: UVAHIK_clean_linker_0, # of connection points: 2
#     Edge 23, Type (0, 1), BuildingBlock: UVAHIK_clean_linker_0, # of connection points: 2
#     Edge 24, Type (0, 1), BuildingBlock: UVAHIK_clean_linker_0, # of connection points: 2
#     Edge 25, Type (0, 1), BuildingBlock: UVAHIK_clean_linker_0, # of connection points: 2
#     Edge 26, Type (0, 1), BuildingBlock: UVAHIK_clean_linker_0, # of connection points: 2
#     Edge 27, Type (0, 1), BuildingBlock: UVAHIK_clean_linker_0, # of connection points: 2
#     Edge 28, Type (0, 1), BuildingBlock: UVAHIK_clean_linker_0, # of connection points: 2
#     Edge 29, Type (0, 1), BuildingBlock: UVAHIK_clean_linker_0, # of connection points: 2
#     Edge 30, Type (0, 1), BuildingBlock: UVAHIK_clean_linker_0, # of connection points: 2
#     Edge 31, Type (0, 1), BuildingBlock: UVAHIK_clean_linker_0, # of connection points: 2
#     Edge 32, Type (0, 1), BuildingBlock: UVAHIK_clean_linker_0, # of connection points: 2
#     Edge 33, Type (0, 1), BuildingBlock: UVAHIK_clean_linker_0, # of connection points: 2
#     Edge 34, Type (0, 1), BuildingBlock: UVAHIK_clean_linker_0, # of connection points: 2
#     Edge 35, Type (0, 1), BuildingBlock: UVAHIK_clean_linker_0, # of connection points: 2
# Relax obj value: 0.006
# Max RMSD: 0.101
# Mean RMSD: 0.066
data_MOF--net-ssa--node1-ESEHIV_clean_sbu_0--node2-MUDLON_clean_linker_0--edge1-UVAHIK_clean_linker_0
_symmetry_space_group_name_H-M    P1
_symmetry_Int_Tables_number       1
_symmetry_cell_setting            triclinic
loop_
_symmetry_equiv_pos_as_xyz
'x, y, z'
_cell_length_a     84.790096
_cell_length_b     88.468074
_cell_length_c     48.725923
_cell_angle_alpha  88.756246
_cell_angle_beta   90.620175
_cell_angle_gamma 121.51163
loop_
_atom_site_label
_atom_site_type_symbol
_atom_site_fract_x
_atom_site_fract_y
_atom_site_fract_z
_atom_type_partial_charge
Cu0 Cu 0.01417 0.48694 0.029 0.0
N1 N 1.00155 0.46378 0.01574 0.0
N2 N 0.98581 0.43969 0.99011 0.0
C3 C 0.99739 0.4575 0.98999 0.0
C4 C 0.983 0.43462 0.0168 0.0
C5 C 0.99267 0.44946 0.03246 0.0
O6 O 0.99652 0.49461 0.03374 0.0
C7 C 0.03604 0.47916 0.0601 0.0
O8 O 0.03676 0.47327 0.0359 0.0
H9 H 1.00179 0.46588 0.9717 0.0
H10 H 0.99274 0.4499 0.05463 0.0
N11 N 0.03316 0.50352 0.00617 0.0
N12 N 0.06017 0.52869 0.99833 0.0
C13 C 0.05012 0.51503 0.0159 0.0
C14 C 0.03239 0.51003 0.98129 0.0
C15 C 0.04908 0.52565 0.97642 0.0
C16 C 0.98498 0.4911 0.01432 0.0
O17 O 0.98563 0.48276 0.99285 0.0
H18 H 0.05428 0.51444 0.03677 0.0
H19 H 0.02012 0.50466 0.96864 0.0
O20 O 0.02628 0.48616 0.06282 0.0
H21 H 0.97418 0.42118 0.02451 0.0
H22 H 0.05235 0.5346 0.95899 0.0
Cu23 Cu 0.51361 0.00522 0.47518 0.0
N24 N 0.52299 1.00164 0.44317 0.0
N25 N 0.53247 0.98847 0.41482 0.0
C26 C 0.52427 0.98735 0.43897 0.0
C27 C 0.53648 0.00412 0.40333 0.0
C28 C 0.53055 0.01221 0.42086 0.0
O29 O 0.49007 0.98323 0.48159 0.0
C30 C 0.54826 0.02222 0.49869 0.0
O31 O 0.55244 0.02879 0.47357 0.0
H32 H 0.5198 0.97661 0.45386 0.0
H33 H 0.53205 0.02504 0.41785 0.0
N34 N 0.51045 0.02453 0.47186 0.0
N35 N 0.50734 0.0468 0.48558 0.0
C36 C 0.51167 0.03461 0.493 0.0
C37 C 0.5053 0.03057 0.4501 0.0
C38 C 0.50342 0.04437 0.45849 0.0
C39 C 0.47459 0.98232 0.48217 0.0
O40 O 0.47433 0.99702 0.48279 0.0
H41 H 0.5154 0.03275 0.51356 0.0
H42 H 0.50251 0.02496 0.42985 0.0
O43 O 0.53146 0.01079 0.5045 0.0
H44 H 0.54328 0.00938 0.38375 0.0
H45 H 0.49882 0.05154 0.44586 0.0
Cu46 Cu 0.51168 0.50586 0.98913 0.0
N47 N 0.49663 0.48931 0.96313 0.0
N48 N 0.48574 0.46583 0.93596 0.0
C49 C 0.49833 0.47576 0.95522 0.0
C50 C 0.47568 0.47353 0.93175 0.0
C51 C 0.48243 0.48799 0.94858 0.0
O52 O 0.53444 0.50583 0.98997 0.0
C53 C 0.48803 0.48465 0.03347 0.0
O54 O 0.48597 0.47092 0.02032 0.0
H55 H 0.50852 0.47318 0.96387 0.0
H56 H 0.4774 0.49694 0.95003 0.0
N57 N 0.51731 0.52862 0.97937 0.0
N58 N 0.52705 0.55721 0.98466 0.0
C59 C 0.52479 0.54231 0.99662 0.0
C60 C 0.51469 0.535 0.95556 0.0
C61 C 0.52063 0.55268 0.95881 0.0
C62 C 0.548 0.51426 0.00622 0.0
O63 O 0.54668 0.52311 0.02647 0.0
H64 H 0.52813 0.54122 0.01779 0.0
H65 H 0.50882 0.52734 0.93721 0.0
O66 O 0.49906 0.50021 0.02408 0.0
H67 H 0.46439 0.46922 0.91734 0.0
H68 H 0.52042 0.56153 0.94333 0.0
Cu69 Cu 0.04631 0.52556 0.55417 0.0
N70 N 0.06507 0.52097 0.56199 0.0
N71 N 0.08578 0.51316 0.55477 0.0
C72 C 0.07203 0.51475 0.54383 0.0
C73 C 0.08756 0.51858 0.58088 0.0
C74 C 0.07466 0.5233 0.58535 0.0
O75 O 0.05406 0.54084 0.52147 0.0
C76 C 0.02005 0.4908 0.56715 0.0
O77 O 0.03189 0.49443 0.58726 0.0
H78 H 0.06733 0.51182 0.52279 0.0
H79 H 0.07242 0.52802 0.60432 0.0
N80 N 0.04314 0.53731 0.58294 0.0
N81 N 0.02949 0.54641 0.61163 0.0
C82 C 0.02708 0.53553 0.59083 0.0
C83 C 0.05619 0.54974 0.59922 0.0
C84 C 0.04782 0.55533 0.61697 0.0
C85 C 0.07026 0.55462 0.5223 0.0
O86 O 0.08005 0.55759 0.5448 0.0
H87 H 0.01398 0.52672 0.58099 0.0
H88 H 0.0708 0.55456 0.59813 0.0
O89 O 0.02335 0.50287 0.54938 0.0
H90 H 0.09734 0.51894 0.59572 0.0
H91 H 0.05476 0.56516 0.63264 0.0
Cu92 Cu 0.53381 0.02373 0.03901 0.0
N93 N 0.52921 0.04181 0.0448 0.0
N94 N 0.52371 0.06329 0.03404 0.0
C95 C 0.53221 0.0547 0.02657 0.0
C96 C 0.51511 0.05557 0.05796 0.0
C97 C 0.51853 0.04231 0.06455 0.0
O98 O 0.55188 0.03138 0.00987 0.0
C99 C 0.50675 0.98694 0.02938 0.0
O100 O 0.52067 0.98458 0.02622 0.0
H101 H 0.53911 0.05671 0.00708 0.0
H102 H 0.51259 0.03289 0.08149 0.0
N103 N 0.5441 0.01957 0.07006 0.0
N104 N 0.55663 0.00756 0.09635 0.0
C105 C 0.55088 0.00882 0.07095 0.0
C106 C 0.5458 0.02556 0.09572 0.0
C107 C 0.55357 0.01818 0.11202 0.0
C108 C 0.54912 0.03156 0.98422 0.0
O109 O 0.53216 0.02459 0.97488 0.0
H110 H 0.55163 1.00208 0.05322 0.0
H111 H 0.54144 0.03443 0.10223 0.0
O112 O 0.50991 1.00253 0.0325 0.0
H113 H 0.50621 0.05868 0.06911 0.0
H114 H 0.55622 0.02006 0.13384 0.0
Cu115 Cu 0.54343 0.50488 0.4971 0.0
N116 N 0.55784 0.52268 0.47136 0.0
N117 N 0.56865 0.54678 0.44413 0.0
C118 C 0.55493 0.5353 0.46125 0.0
C119 C 0.58057 0.54099 0.44348 0.0
C120 C 0.57391 0.52621 0.46035 0.0
O121 O 0.51891 0.50135 0.49885 0.0
C122 C 0.56757 0.52565 0.54031 0.0
O123 O 0.5695 0.53932 0.52613 0.0
H124 H 0.54325 0.53629 0.46701 0.0
H125 H 0.58045 0.51869 0.46465 0.0
N126 N 0.53999 0.48331 0.4863 0.0
N127 N 0.53038 0.45453 0.4888 0.0
C128 C 0.53063 0.46817 0.5011 0.0
C129 C 0.54585 0.47919 0.4637 0.0
C130 C 0.54001 0.4614 0.46526 0.0
C131 C 0.51437 0.5122 0.50661 0.0
O132 O 0.52704 0.52761 0.51639 0.0
H133 H 0.52445 0.4673 0.52085 0.0
H134 H 0.55379 0.48841 0.44727 0.0
O135 O 0.55622 0.51006 0.53208 0.0
H136 H 0.59327 0.54697 0.43177 0.0
H137 H 0.54252 0.45408 0.4502 0.0
H138 H 0.33671 0.49059 0.31918 0.0
N139 N 0.31649 0.45809 0.29547 0.0
H140 H 0.35781 0.49781 0.35792 0.0
H141 H 0.31796 0.43527 0.32989 0.0
H142 H 0.33774 0.44201 0.37018 0.0
H143 H 0.31282 0.43299 0.26226 0.0
H144 H 0.33416 0.43611 0.22578 0.0
H145 H 0.34534 0.48939 0.27479 0.0
H146 H 0.36681 0.49249 0.23906 0.0
H147 H 0.31602 0.4874 0.27704 0.0
H148 H 0.28203 0.43406 0.30884 0.0
H149 H 0.28865 0.48985 0.27224 0.0
H150 H 0.25477 0.43655 0.30544 0.0
H151 H 0.21368 0.49593 0.31536 0.0
H152 H 0.20217 0.49985 0.35873 0.0
H153 H 0.1685 0.44296 0.36985 0.0
H154 H 0.18015 0.43921 0.32621 0.0
H155 H 0.17236 0.43987 0.26567 0.0
H156 H 0.15307 0.44445 0.23311 0.0
H157 H 0.19267 0.5009 0.23307 0.0
H158 H 0.21193 0.49603 0.26581 0.0
H159 H 0.23754 0.49294 0.29728 0.0
H160 H 0.26597 0.49218 0.29708 0.0
H161 H 0.23438 0.43723 0.2733 0.0
N162 N 0.20248 0.46458 0.29077 0.0
H163 H 0.20601 0.43797 0.27524 0.0
C164 C 0.3262 0.46241 0.32124 0.0
C165 C 0.33693 0.47996 0.33021 0.0
C166 C 0.34884 0.48402 0.35268 0.0
C167 C 0.3499 0.47055 0.36698 0.0
C168 C 0.33788 0.45284 0.35919 0.0
C169 C 0.32635 0.44889 0.33639 0.0
C170 C 0.32751 0.46085 0.27145 0.0
C171 C 0.32434 0.44606 0.25679 0.0
C172 C 0.33652 0.44785 0.23605 0.0
C173 C 0.35223 0.46451 0.22991 0.0
C174 C 0.35492 0.47946 0.24368 0.0
C175 C 0.34259 0.47769 0.26411 0.0
C176 C 0.30095 0.46039 0.29299 0.0
C177 C 0.30268 0.47623 0.28306 0.0
C178 C 0.28699 0.47764 0.2805 0.0
C179 C 0.26937 0.46332 0.28811 0.0
C180 C 0.26793 0.44769 0.2986 0.0
C181 C 0.28352 0.44626 0.30086 0.0
C182 C 0.19778 0.46724 0.31773 0.0
C183 C 0.20417 0.48432 0.32741 0.0
C184 C 0.19758 0.48654 0.35224 0.0
C185 C 0.18438 0.4717 0.36764 0.0
C186 C 0.17854 0.45463 0.3583 0.0
C187 C 0.18523 0.45245 0.33356 0.0
C188 C 0.19346 0.46757 0.26806 0.0
C189 C 0.17707 0.45316 0.25803 0.0
C190 C 0.16609 0.45584 0.23945 0.0
C191 C 0.17127 0.47307 0.23058 0.0
C192 C 0.18819 0.48749 0.23978 0.0
C193 C 0.19926 0.48475 0.25831 0.0
C194 C 0.21965 0.46536 0.28677 0.0
C195 C 0.23679 0.48078 0.29197 0.0
C196 C 0.25308 0.48034 0.29162 0.0
C197 C 0.2525 0.46453 0.2857 0.0
C198 C 0.23536 0.44949 0.27879 0.0
C199 C 0.21913 0.4499 0.27954 0.0
H200 H 0.73052 0.13307 0.76004 0.0
N201 N 0.73943 0.16348 0.73552 0.0
H202 H 0.70904 0.11841 0.79795 0.0
H203 H 0.7265 0.17926 0.76865 0.0
H204 H 0.70554 0.16508 0.80776 0.0
H205 H 0.71021 0.16729 0.72269 0.0
H206 H 0.68585 0.14977 0.68956 0.0
H207 H 0.74021 0.14295 0.69721 0.0
H208 H 0.71582 0.12524 0.66399 0.0
H209 H 0.77275 0.17529 0.75638 0.0
H210 H 0.74101 0.19271 0.71093 0.0
H211 H 0.80028 0.20483 0.75156 0.0
H212 H 0.76866 0.22194 0.70443 0.0
H213 H 0.88842 0.29147 0.72789 0.0
H214 H 0.90606 0.31124 0.76555 0.0
H215 H 0.85927 0.31601 0.78501 0.0
H216 H 0.8418 0.2962 0.74764 0.0
H217 H 0.84628 0.30795 0.69978 0.0
H218 H 0.86095 0.33137 0.66466 0.0
H219 H 0.88694 0.30501 0.63049 0.0
H220 H 0.87288 0.28215 0.66659 0.0
H221 H 0.85044 0.2508 0.7116 0.0
H222 H 0.8218 0.22227 0.71803 0.0
H223 H 0.79152 0.24915 0.72309 0.0
N224 N 0.85498 0.2827 0.71047 0.0
H225 H 0.82029 0.27756 0.7148 0.0
C226 C 0.73014 0.1572 0.7616 0.0
C227 C 0.72547 0.14027 0.77088 0.0
C228 C 0.71317 0.13194 0.79266 0.0
C229 C 0.70535 0.14046 0.80599 0.0
C230 C 0.71097 0.15794 0.7977 0.0
C231 C 0.72316 0.16621 0.77558 0.0
C232 C 0.72706 0.15639 0.7124 0.0
C233 C 0.71178 0.15849 0.70949 0.0
C234 C 0.69778 0.14834 0.69072 0.0
C235 C 0.6988 0.13595 0.67444 0.0
C236 C 0.71467 0.13474 0.67612 0.0
C237 C 0.72864 0.14485 0.69501 0.0
C238 C 0.75486 0.18157 0.73376 0.0
C239 C 0.77175 0.1855 0.74531 0.0
C240 C 0.78753 0.20239 0.7422 0.0
C241 C 0.78691 0.21579 0.727 0.0
C242 C 0.76975 0.21204 0.71632 0.0
C243 C 0.75384 0.19516 0.71985 0.0
C244 C 0.86381 0.29225 0.73505 0.0
C245 C 0.88191 0.29653 0.74069 0.0
C246 C 0.89199 0.30794 0.76199 0.0
C247 C 0.8841 0.31529 0.77813 0.0
C248 C 0.86568 0.31044 0.77312 0.0
C249 C 0.85564 0.29908 0.7517 0.0
C250 C 0.85877 0.29346 0.686 0.0
C251 C 0.85474 0.30698 0.68431 0.0
C252 C 0.86313 0.32036 0.66409 0.0
C253 C 0.87551 0.32033 0.6451 0.0
C254 C 0.8779 0.30573 0.64523 0.0
C255 C 0.86969 0.29251 0.6656 0.0
C256 C 0.83753 0.26624 0.71307 0.0
C257 C 0.83757 0.25045 0.71391 0.0
C258 C 0.82116 0.23418 0.71794 0.0
C259 C 0.80425 0.2333 0.72169 0.0
C260 C 0.8042 0.24922 0.72024 0.0
C261 C 0.82069 0.26554 0.71577 0.0
H262 H 0.56818 0.8358 0.27068 0.0
N263 N 0.60433 0.84877 0.2572 0.0
H264 H 0.5578 0.85017 0.30171 0.0
H265 H 0.62444 0.87068 0.29674 0.0
H266 H 0.61415 0.88477 0.32863 0.0
H267 H 0.63386 0.87798 0.23765 0.0
H268 H 0.63388 0.89953 0.20521 0.0
H269 H 0.57568 0.84223 0.22311 0.0
H270 H 0.57542 0.86366 0.19137 0.0
H271 H 0.57363 0.81732 0.24182 0.0
H272 H 0.63058 0.84178 0.26677 0.0
H273 H 0.57229 0.78943 0.23431 0.0
H274 H 0.62923 0.81381 0.26056 0.0
H275 H 0.56936 0.70787 0.2464 0.0
H276 H 0.56436 0.68588 0.28162 0.0
H277 H 0.62218 0.71719 0.30397 0.0
H278 H 0.62717 0.73866 0.26743 0.0
H279 H 0.62534 0.73131 0.19987 0.0
H280 H 0.6174 0.71293 0.15927 0.0
H281 H 0.56166 0.7026 0.16238 0.0
H282 H 0.57006 0.72164 0.20242 0.0
H283 H 0.57321 0.73776 0.24868 0.0
H284 H 0.57258 0.76476 0.25602 0.0
H285 H 0.62822 0.79623 0.22384 0.0
N286 N 0.60284 0.73628 0.23032 0.0
H287 H 0.62889 0.76926 0.21775 0.0
C288 C 0.59717 0.85238 0.28115 0.0
C289 C 0.57821 0.84606 0.28389 0.0
C290 C 0.57229 0.85431 0.30173 0.0
C291 C 0.58523 0.86892 0.31714 0.0
C292 C 0.6039 0.87382 0.31656 0.0
C293 C 0.60978 0.86564 0.29866 0.0
C294 C 0.60484 0.85854 0.23289 0.0
C295 C 0.62125 0.87454 0.22674 0.0
C296 C 0.62117 0.88689 0.20848 0.0
C297 C 0.60457 0.88344 0.19609 0.0
C298 C 0.58846 0.86672 0.20042 0.0
C299 C 0.58859 0.85438 0.21867 0.0
C300 C 0.60237 0.83172 0.25449 0.0
C301 C 0.58582 0.81669 0.24584 0.0
C302 C 0.58503 0.80067 0.24176 0.0
C303 C 0.60073 0.79939 0.24644 0.0
C304 C 0.61701 0.81437 0.25603 0.0
C305 C 0.61779 0.83033 0.25986 0.0
C306 C 0.59877 0.7248 0.25401 0.0
C307 C 0.58092 0.71011 0.25901 0.0
C308 C 0.57806 0.69757 0.27941 0.0
C309 C 0.59292 0.69956 0.29547 0.0
C310 C 0.61049 0.71494 0.29157 0.0
C311 C 0.61337 0.72734 0.27093 0.0
C312 C 0.5983 0.72769 0.20421 0.0
C313 C 0.61154 0.72537 0.19136 0.0
C314 C 0.6069 0.71473 0.16836 0.0
C315 C 0.58878 0.706 0.15786 0.0
C316 C 0.57575 0.70915 0.16988 0.0
C317 C 0.58048 0.71995 0.19285 0.0
C318 C 0.60127 0.75161 0.23302 0.0
C319 C 0.58524 0.75048 0.24325 0.0
C320 C 0.58487 0.76595 0.24727 0.0
C321 C 0.60046 0.78274 0.24092 0.0
C322 C 0.61614 0.78361 0.22968 0.0
C323 C 0.61653 0.76823 0.22592 0.0
H324 H 0.89751 0.59289 0.85419 0.0
N325 N 0.86757 0.57467 0.82352 0.0
H326 H 0.90694 0.58216 0.89386 0.0
H327 H 0.84612 0.5427 0.85001 0.0
H328 H 0.8551 0.5319 0.89034 0.0
H329 H 0.86271 0.54327 0.80623 0.0
H330 H 0.88093 0.53981 0.77139 0.0
H331 H 0.89093 0.59932 0.78803 0.0
H332 H 0.90877 0.59593 0.75211 0.0
H333 H 0.85643 0.59415 0.8472 0.0
H334 H 0.83779 0.55007 0.79306 0.0
H335 H 0.82697 0.59246 0.84176 0.0
H336 H 0.80879 0.54906 0.78582 0.0
H337 H 0.73076 0.58765 0.81563 0.0
H338 H 0.70971 0.58007 0.85407 0.0
H339 H 0.72193 0.54042 0.88164 0.0
H340 H 0.74157 0.54706 0.84193 0.0
H341 H 0.71868 0.53847 0.79065 0.0
H342 H 0.69635 0.53081 0.75339 0.0
H343 H 0.73117 0.58314 0.71732 0.0
H344 H 0.75281 0.59088 0.75554 0.0
H345 H 0.7822 0.59925 0.80627 0.0
H346 H 0.81095 0.5994 0.81066 0.0
H347 H 0.78024 0.54229 0.80328 0.0
N348 N 0.74826 0.5716 0.8006 0.0
H349 H 0.75173 0.54263 0.79696 0.0
C350 C 0.87118 0.56865 0.84923 0.0
C351 C 0.88807 0.57968 0.86238 0.0
C352 C 0.89337 0.57352 0.88514 0.0
C353 C 0.88182 0.55611 0.89535 0.0
C354 C 0.86446 0.54529 0.88282 0.0
C355 C 0.85921 0.55148 0.8599 0.0
C356 C 0.87568 0.57167 0.79996 0.0
C357 C 0.87257 0.55479 0.79431 0.0
C358 C 0.88294 0.55282 0.77416 0.0
C359 C 0.89653 0.56764 0.75913 0.0
C360 C 0.89872 0.5843 0.76369 0.0
C361 C 0.88843 0.58626 0.78398 0.0
C362 C 0.84955 0.57252 0.82033 0.0
C363 C 0.846 0.58419 0.83396 0.0
C364 C 0.82918 0.5833 0.83051 0.0
C365 C 0.8155 0.57086 0.81282 0.0
C366 C 0.81888 0.55879 0.79969 0.0
C367 C 0.83564 0.55947 0.80362 0.0
C368 C 0.73788 0.5681 0.82572 0.0
C369 C 0.72899 0.57744 0.83017 0.0
C370 C 0.71704 0.57314 0.85241 0.0
C371 C 0.71397 0.55956 0.87127 0.0
C372 C 0.72353 0.55068 0.86737 0.0
C373 C 0.73509 0.55468 0.84465 0.0
C374 C 0.73726 0.56538 0.776 0.0
C375 C 0.72163 0.54814 0.77442 0.0
C376 C 0.70889 0.54378 0.753 0.0
C377 C 0.7117 0.55649 0.73258 0.0
C378 C 0.72822 0.57319 0.73309 0.0
C379 C 0.74077 0.57759 0.75468 0.0
C380 C 0.7649 0.57099 0.80168 0.0
C381 C 0.78178 0.58682 0.80536 0.0
C382 C 0.79816 0.5868 0.80821 0.0
C383 C 0.79801 0.5708 0.80797 0.0
C384 C 0.78102 0.5549 0.80346 0.0
C385 C 0.76465 0.55502 0.80004 0.0
H386 H 0.20752 0.69724 0.26454 0.0
N387 N 0.19314 0.71084 0.22821 0.0
H388 H 0.19113 0.67706 0.30343 0.0
H389 H 0.15974 0.70085 0.24668 0.0
H390 H 0.1433 0.68094 0.28562 0.0
H391 H 0.17165 0.70865 0.18663 0.0
H392 H 0.16144 0.68828 0.14835 0.0
H393 H 0.2063 0.68944 0.21561 0.0
H394 H 0.19747 0.67011 0.17638 0.0
H395 H 0.2288 0.71795 0.22479 0.0
H396 H 0.19621 0.74156 0.23809 0.0
H397 H 0.25705 0.74707 0.22654 0.0
H398 H 0.22441 0.77068 0.24154 0.0
H399 H 0.33612 0.82962 0.26124 0.0
H400 H 0.3527 0.84318 0.30329 0.0
H401 H 0.31396 0.85963 0.32043 0.0
H402 H 0.29817 0.84693 0.27708 0.0
H403 H 0.31137 0.8591 0.20976 0.0
H404 H 0.33303 0.87501 0.17227 0.0
H405 H 0.35281 0.8388 0.17939 0.0
H406 H 0.32985 0.82216 0.21522 0.0
H407 H 0.30528 0.80096 0.25569 0.0
H408 H 0.27769 0.77113 0.25415 0.0
H409 H 0.24774 0.79268 0.21389 0.0
N410 N 0.30749 0.83182 0.23919 0.0
H411 H 0.27506 0.82241 0.21706 0.0
C412 C 0.18478 0.70053 0.25283 0.0
C413 C 0.1936 0.69387 0.26924 0.0
C414 C 0.18421 0.68237 0.29147 0.0
C415 C 0.16584 0.67727 0.29747 0.0
C416 C 0.15731 0.68435 0.28131 0.0
C417 C 0.16671 0.69585 0.25925 0.0
C418 C 0.18988 0.70078 0.20374 0.0
C419 C 0.17753 0.70045 0.18413 0.0
C420 C 0.17181 0.68883 0.16215 0.0
C421 C 0.17853 0.67738 0.15913 0.0
C422 C 0.19167 0.67842 0.17819 0.0
C423 C 0.19707 0.68978 0.20048 0.0
C424 C 0.21028 0.72761 0.23074 0.0
C425 C 0.22767 0.72936 0.2282 0.0
C426 C 0.24392 0.7461 0.22951 0.0
C427 C 0.24313 0.76139 0.23381 0.0
C428 C 0.22566 0.75938 0.23738 0.0
C429 C 0.20948 0.74272 0.23569 0.0
C430 C 0.31607 0.83759 0.2657 0.0
C431 C 0.33116 0.83613 0.27396 0.0
C432 C 0.34054 0.84376 0.29836 0.0
C433 C 0.33486 0.85274 0.31532 0.0
C434 C 0.31908 0.85325 0.30765 0.0
C435 C 0.30989 0.84585 0.28303 0.0
C436 C 0.3193 0.83975 0.21559 0.0
C437 C 0.32023 0.85451 0.20284 0.0
C438 C 0.33283 0.8637 0.18163 0.0
C439 C 0.34515 0.85857 0.17307 0.0
C440 C 0.34361 0.84322 0.18522 0.0
C441 C 0.33063 0.83378 0.20604 0.0
C442 C 0.29205 0.81392 0.23686 0.0
C443 C 0.29273 0.79922 0.24666 0.0
C444 C 0.27694 0.78212 0.24555 0.0
C445 C 0.26029 0.77941 0.23424 0.0
C446 C 0.26005 0.7942 0.2235 0.0
C447 C 0.2757 0.81121 0.22499 0.0
H448 H 0.44491 0.13525 0.72998 0.0
N449 N 0.46491 0.16711 0.75168 0.0
H450 H 0.4523 0.12393 0.68986 0.0
H451 H 0.4949 0.18608 0.71801 0.0
H452 H 0.50236 0.175 0.67748 0.0
H453 H 0.49936 0.17259 0.76255 0.0
H454 H 0.50872 0.16348 0.80381 0.0
H455 H 0.44574 0.15394 0.79793 0.0
H456 H 0.45545 0.146 0.84045 0.0
H457 H 0.43963 0.17189 0.72761 0.0
H458 H 0.49155 0.19978 0.77078 0.0
H459 H 0.43873 0.19893 0.72456 0.0
H460 H 0.49012 0.22661 0.76989 0.0
H461 H 0.43256 0.27511 0.70432 0.0
H462 H 0.43816 0.29154 0.66071 0.0
H463 H 0.49689 0.31346 0.67044 0.0
H464 H 0.49117 0.29699 0.71342 0.0
H465 H 0.49036 0.30318 0.75965 0.0
H466 H 0.49388 0.32562 0.79157 0.0
H467 H 0.4345 0.29715 0.80243 0.0
H468 H 0.4312 0.27541 0.76911 0.0
H469 H 0.43051 0.24317 0.74563 0.0
H470 H 0.43285 0.21691 0.75011 0.0
H471 H 0.49249 0.25023 0.74484 0.0
N472 N 0.45765 0.27653 0.73901 0.0
H473 H 0.48988 0.27638 0.74289 0.0
C474 C 0.46928 0.16142 0.72689 0.0
C475 C 0.45737 0.144 0.7184 0.0
C476 C 0.46159 0.13762 0.6954 0.0
C477 C 0.47791 0.14858 0.68039 0.0
C478 C 0.48976 0.16618 0.68873 0.0
C479 C 0.48548 0.17257 0.71175 0.0
C480 C 0.47158 0.16349 0.77686 0.0
C481 C 0.48961 0.16667 0.77932 0.0
C482 C 0.49507 0.16164 0.80326 0.0
C483 C 0.48282 0.15376 0.82561 0.0
C484 C 0.46513 0.15151 0.82351 0.0
C485 C 0.45957 0.1562 0.79933 0.0
C486 C 0.46541 0.18366 0.74973 0.0
C487 C 0.45075 0.18386 0.73667 0.0
C488 C 0.45018 0.19934 0.73529 0.0
C489 C 0.46415 0.21503 0.74751 0.0
C490 C 0.47914 0.21491 0.76009 0.0
C491 C 0.47989 0.19945 0.76089 0.0
C492 C 0.46135 0.28472 0.71211 0.0
C493 C 0.44658 0.28323 0.69668 0.0
C494 C 0.44983 0.29269 0.67193 0.0
C495 C 0.46798 0.30385 0.66216 0.0
C496 C 0.48272 0.3048 0.67718 0.0
C497 C 0.47945 0.29538 0.70195 0.0
C498 C 0.46045 0.28779 0.7617 0.0
C499 C 0.47814 0.3017 0.76908 0.0
C500 C 0.48011 0.31448 0.78757 0.0
C501 C 0.46444 0.31343 0.79929 0.0
C502 C 0.44686 0.29871 0.79327 0.0
C503 C 0.44492 0.28612 0.77453 0.0
C504 C 0.45991 0.26164 0.74331 0.0
C505 C 0.44406 0.24473 0.74575 0.0
C506 C 0.44547 0.22972 0.74793 0.0
C507 C 0.46287 0.23126 0.74714 0.0
C508 C 0.47884 0.24839 0.74557 0.0
C509 C 0.47738 0.26345 0.74402 0.0
C510 C 0.05387 0.49033 0.10431 0.0
C511 C 0.04734 0.47827 0.08266 0.0
C512 C 0.06635 0.49039 0.12357 0.0
C513 C 0.08417 0.46267 0.15083 0.0
H514 H 0.12956 0.50722 0.16516 0.0
C515 C 0.14836 0.46409 0.19206 0.0
C516 C 0.15838 0.47583 0.21328 0.0
C517 C 0.13466 0.46532 0.17789 0.0
C518 C 0.11686 0.4947 0.16165 0.0
H519 H 0.04814 0.45644 0.06481 0.0
H520 H 0.06955 0.45644 0.09819 0.0
H521 H 0.10468 0.50717 0.13907 0.0
H522 H 0.1622 0.49844 0.23565 0.0
H523 H 0.1383 0.50067 0.21066 0.0
H524 H 0.09634 0.45012 0.17285 0.0
C525 C 0.06515 0.46584 0.10049 0.0
C526 C 0.10259 0.49468 0.1468 0.0
C527 C 0.05295 0.46592 0.08122 0.0
C528 C 0.15487 0.4893 0.21922 0.0
C529 C 0.14113 0.49054 0.20498 0.0
C530 C 0.09838 0.46268 0.16559 0.0
C531 C 0.07222 0.4782 0.12168 0.0
C532 C 0.08627 0.47861 0.14069 0.0
C533 C 0.13059 0.47831 0.18455 0.0
C534 C 0.11507 0.47865 0.17062 0.0
H535 H 0.04986 0.50007 0.10579 0.0
H536 H 0.07152 0.50002 0.13977 0.0
H537 H 0.07163 0.45009 0.1469 0.0
H538 H 0.15095 0.45377 0.18663 0.0
H539 H 0.12712 0.45596 0.16178 0.0
C540 C 0.58148 0.03858 0.51195 0.0
C541 C 0.56282 0.0296 0.51995 0.0
C542 C 0.59552 0.04767 0.53112 0.0
C543 C 0.60428 0.07114 0.59518 0.0
H544 H 0.65065 0.07235 0.59373 0.0
C545 C 0.66476 0.11484 0.66836 0.0
C546 C 0.68276 0.12334 0.65749 0.0
C547 C 0.64968 0.1022 0.6532 0.0
C548 C 0.63786 0.0723 0.5942 0.0
H549 H 0.54418 0.02252 0.55447 0.0
H550 H 0.56887 0.03864 0.58818 0.0
H551 H 0.62488 0.05129 0.56534 0.0
H552 H 0.69903 0.1255 0.62199 0.0
H553 H 0.67267 0.10367 0.59523 0.0
H554 H 0.61737 0.0925 0.62337 0.0
C555 C 0.57256 0.03861 0.56698 0.0
C556 C 0.62307 0.06016 0.57807 0.0
C557 C 0.55846 0.02929 0.54777 0.0
C558 C 0.68534 0.11906 0.631 0.0
C559 C 0.67024 0.10647 0.61575 0.0
C560 C 0.61911 0.08337 0.61121 0.0
C561 C 0.59123 0.04814 0.55872 0.0
C562 C 0.6062 0.05961 0.5781 0.0
C563 C 0.65223 0.0978 0.62674 0.0
C564 C 0.63618 0.08426 0.61064 0.0
H565 H 0.58527 0.03901 0.49066 0.0
H566 H 0.60973 0.05501 0.52405 0.0
H567 H 0.59155 0.07122 0.59533 0.0
H568 H 0.66236 0.1176 0.68894 0.0
H569 H 0.63607 0.09561 0.66249 0.0
C570 C 0.5283 0.58563 0.98982 0.0
C571 C 0.53452 0.57419 0.99739 0.0
C572 C 0.53487 0.60163 0.00345 0.0
C573 C 0.57321 0.63382 0.04741 0.0
H574 H 0.53759 0.6449 0.07434 0.0
C575 C 0.58984 0.68103 0.13656 0.0
C576 C 0.58328 0.69271 0.13589 0.0
C577 C 0.58448 0.66818 0.1166 0.0
C578 C 0.54777 0.64219 0.06658 0.0
H579 H 0.55303 0.57088 0.02439 0.0
H580 H 0.56438 0.59861 0.04817 0.0
H581 H 0.52733 0.61961 0.04439 0.0
H582 H 0.56592 0.7 0.1135 0.0
H583 H 0.55646 0.67738 0.0785 0.0
H584 H 0.5936 0.65614 0.0699 0.0
C585 C 0.55445 0.59529 0.03174 0.0
C586 C 0.54188 0.62769 0.04942 0.0
C587 C 0.54779 0.57929 0.01832 0.0
C588 C 0.57113 0.69115 0.11471 0.0
C589 C 0.56572 0.6782 0.09467 0.0
C590 C 0.57909 0.6483 0.06446 0.0
C591 C 0.54797 0.60659 0.02466 0.0
C592 C 0.55448 0.62311 0.04018 0.0
C593 C 0.57236 0.66657 0.0954 0.0
C594 C 0.56638 0.65241 0.07479 0.0
H595 H 0.518 0.582 0.97388 0.0
H596 H 0.5297 0.61011 0.99743 0.0
H597 H 0.58332 0.63085 0.04019 0.0
H598 H 0.59883 0.68152 0.15294 0.0
H599 H 0.58952 0.65918 0.1182 0.0
C600 C 0.02054 0.56414 0.63869 0.0
C601 C 0.01557 0.54844 0.62492 0.0
C602 C 0.00719 0.56606 0.65193 0.0
C603 C 0.9572 0.54907 0.65448 0.0
H604 H 0.9688 0.56949 0.72691 0.0
C605 C 0.90316 0.55085 0.7245 0.0
C606 C 0.90937 0.56598 0.74057 0.0
C607 C 0.91567 0.54871 0.70905 0.0
C608 C 0.96541 0.56399 0.70654 0.0
H609 H 0.99247 0.52244 0.61438 0.0
H610 H 0.96914 0.52589 0.63735 0.0
H611 H 0.99137 0.56565 0.70271 0.0
H612 H 0.93368 0.59084 0.7525 0.0
H613 H 0.95524 0.5874 0.72497 0.0
H614 H 0.93123 0.5475 0.65832 0.0
C615 C 0.98342 0.53675 0.63765 0.0
C616 C 0.97836 0.56176 0.6927 0.0
C617 C 0.99681 0.53479 0.62447 0.0
C618 C 0.92831 0.57912 0.74015 0.0
C619 C 0.94076 0.57702 0.72466 0.0
C620 C 0.94424 0.55137 0.66832 0.0
C621 C 0.98849 0.55236 0.6517 0.0
C622 C 0.97446 0.55436 0.66646 0.0
C623 C 0.93467 0.56165 0.70931 0.0
C624 C 0.94825 0.55897 0.69447 0.0
H625 H 0.03475 0.57508 0.63904 0.0
H626 H 0.0115 0.57838 0.66216 0.0
H627 H 0.95387 0.54347 0.63418 0.0
H628 H 0.88865 0.54055 0.72409 0.0
H629 H 0.91051 0.53668 0.69756 0.0
C630 C 0.47384 0.97431 0.04361 0.0
C631 C 0.48782 0.97154 0.0346 0.0
C632 C 0.45688 0.96011 0.05281 0.0
C633 C 0.43619 0.91448 0.08156 0.0
H634 H 0.39154 0.9164 0.07906 0.0
C635 C 0.36658 0.86206 0.13426 0.0
C636 C 0.36001 0.86967 0.15258 0.0
C637 C 0.38099 0.87273 0.1159 0.0
C638 C 0.40389 0.91565 0.07978 0.0
H639 H 0.49441 0.95144 0.02656 0.0
H640 H 0.46451 0.92653 0.04176 0.0
H641 H 0.41842 0.93777 0.05212 0.0
H642 H 0.364 0.89476 0.16587 0.0
H643 H 0.38833 0.91304 0.13313 0.0
H644 H 0.4214 0.89222 0.10924 0.0
C645 C 0.46689 0.93978 0.04249 0.0
C646 C 0.41936 0.92796 0.0645 0.0
C647 C 0.48399 0.95407 0.03352 0.0
C648 C 0.36816 0.88823 0.15169 0.0
C649 C 0.38225 0.89879 0.13301 0.0
C650 C 0.42057 0.90196 0.09648 0.0
C651 C 0.45326 0.94266 0.05295 0.0
C652 C 0.43595 0.92792 0.06584 0.0
C653 C 0.38888 0.89119 0.11506 0.0
C654 C 0.40447 0.90276 0.09633 0.0
H655 H 0.47627 0.98757 0.04482 0.0
H656 H 0.44696 0.96301 0.06105 0.0
H657 H 0.4487 0.91408 0.08346 0.0
H658 H 0.36056 0.84785 0.13393 0.0
H659 H 0.38586 0.86656 0.10217 0.0
C660 C 0.52985 0.42638 0.49389 0.0
C661 C 0.52206 0.43664 0.49941 0.0
C662 C 0.52262 0.40958 0.50618 0.0
C663 C 0.48159 0.37359 0.54298 0.0
H664 H 0.5172 0.36508 0.57936 0.0
C665 C 0.46254 0.32482 0.63425 0.0
C666 C 0.47175 0.31553 0.63764 0.0
C667 C 0.4674 0.33728 0.61292 0.0
C668 C 0.50705 0.36702 0.56888 0.0
H669 H 0.49999 0.43697 0.52089 0.0
H670 H 0.4875 0.40784 0.54248 0.0
H671 H 0.52804 0.3911 0.54957 0.0
H672 H 0.49263 0.31137 0.62044 0.0
H673 H 0.50106 0.33308 0.58301 0.0
H674 H 0.4606 0.34972 0.56282 0.0
C675 C 0.49917 0.41269 0.52866 0.0
C676 C 0.51328 0.38197 0.5518 0.0
C677 C 0.50646 0.42949 0.51656 0.0
C678 C 0.48546 0.3185 0.61858 0.0
C679 C 0.4903 0.33094 0.59717 0.0
C680 C 0.47535 0.3586 0.55999 0.0
C681 C 0.50734 0.40267 0.52399 0.0
C682 C 0.50063 0.38564 0.53917 0.0
C683 C 0.48157 0.34073 0.59441 0.0
C684 C 0.48802 0.35536 0.57366 0.0
H685 H 0.54192 0.43157 0.48086 0.0
H686 H 0.52913 0.4021 0.50203 0.0
H687 H 0.47151 0.37592 0.53317 0.0
H688 H 0.45212 0.32306 0.64881 0.0
H689 H 0.46058 0.34476 0.6117 0.0
C690 C 0.5524 0.98162 0.38773 0.0
C691 C 0.53683 0.97592 0.40447 0.0
C692 C 0.55705 0.96953 0.37872 0.0
C693 C 0.5492 0.92483 0.39432 0.0
H694 H 0.56937 0.93016 0.32128 0.0
C695 C 0.563 0.8734 0.34475 0.0
C696 C 0.57982 0.88052 0.33046 0.0
C697 C 0.55738 0.88457 0.35484 0.0
C698 C 0.56389 0.92858 0.34183 0.0
H699 H 0.5136 0.95298 0.42416 0.0
H700 H 0.52152 0.93185 0.40814 0.0
H701 H 0.55997 0.95042 0.33604 0.0
H702 H 0.60386 0.90497 0.3156 0.0
H703 H 0.59419 0.92431 0.33342 0.0
H704 H 0.55302 0.90282 0.39985 0.0
C705 C 0.53042 0.94572 0.4025 0.0
C706 C 0.55854 0.94023 0.35032 0.0
C707 C 0.52585 0.95782 0.41164 0.0
C708 C 0.59098 0.89903 0.32691 0.0
C709 C 0.58532 0.91013 0.33678 0.0
C710 C 0.55446 0.91309 0.38572 0.0
C711 C 0.54615 0.95143 0.38606 0.0
C712 C 0.55128 0.93862 0.37677 0.0
C713 C 0.56835 0.90304 0.35051 0.0
C714 C 0.56204 0.91497 0.35948 0.0
H715 H 0.56128 0.99549 0.38217 0.0
H716 H 0.56943 0.97448 0.36647 0.0
H717 H 0.5439 0.92333 0.41495 0.0
H718 H 0.55411 0.8592 0.34785 0.0
H719 H 0.54419 0.87873 0.36529 0.0
C720 C 0.56792 0.50943 0.97477 0.0
C721 C 0.56584 0.51582 -0.00022 0.0
C722 C 0.58507 0.51241 0.96686 0.0
C723 C 0.6352 0.54235 0.9798 0.0
H724 H 0.63763 0.51061 0.92888 0.0
C725 C 0.69628 0.56627 0.90531 0.0
C726 C 0.70001 0.55402 0.89372 0.0
C727 C 0.68159 0.56066 0.92362 0.0
C728 C 0.63749 0.51955 0.94353 0.0
H729 H 0.58003 0.52963 0.03674 0.0
H730 H 0.61 0.53428 0.02338 0.0
H731 H 0.60891 0.50141 0.95207 0.0
H732 H 0.69159 0.5262 0.89414 0.0
H733 H 0.66719 0.51677 0.92753 0.0
H734 H 0.66401 0.56021 0.97208 0.0
C735 C 0.59842 0.5274 0.00949 0.0
C736 C 0.62077 0.51436 0.95651 0.0
C737 C 0.58121 0.52462 0.01727 0.0
C738 C 0.68939 0.53617 0.90255 0.0
C739 C 0.67502 0.53064 0.92144 0.0
C740 C 0.65208 0.54739 0.96728 0.0
C741 C 0.60064 0.52159 0.98392 0.0
C742 C 0.61918 0.52595 0.97397 0.0
C743 C 0.67045 0.54267 0.93152 0.0
C744 C 0.65332 0.53633 0.94818 0.0
H745 H 0.55642 0.50267 0.96066 0.0
H746 H 0.58617 0.50805 0.94676 0.0
H747 H 0.6346 0.5517 0.99306 0.0
H748 H 0.70442 0.58022 0.89977 0.0
H749 H 0.67858 0.57042 0.9306 0.0
C750 C 0.09668 0.58173 0.50048 0.0
C751 C 0.07855 0.56702 0.49848 0.0
C752 C 0.105 0.59346 0.47831 0.0
C753 C 0.10279 0.59738 0.40301 0.0
H754 H 0.1346 0.64759 0.41713 0.0
C755 C 0.13681 0.65078 0.31626 0.0
C756 C 0.15538 0.66433 0.32007 0.0
C757 C 0.1268 0.63874 0.33753 0.0
C758 C 0.12591 0.6336 0.41287 0.0
H759 H 0.05491 0.55316 0.47146 0.0
H760 H 0.06946 0.57388 0.43256 0.0
H761 H 0.11769 0.62706 0.45488 0.0
H762 H 0.17798 0.67579 0.34927 0.0
H763 H 0.16054 0.6547 0.3864 0.0
H764 H 0.11107 0.60402 0.36091 0.0
C765 C 0.07727 0.57618 0.45135 0.0
C766 C 0.11619 0.6218 0.43451 0.0
C767 C 0.06889 0.56436 0.47366 0.0
C768 C 0.16374 0.66546 0.34562 0.0
C769 C 0.15369 0.65348 0.36697 0.0
C770 C 0.11248 0.60921 0.3813 0.0
C771 C 0.09544 0.5909 0.45346 0.0
C772 C 0.10469 0.60351 0.42995 0.0
C773 C 0.13508 0.64001 0.3632 0.0
C774 C 0.12433 0.62744 0.38605 0.0
H775 H 0.10461 0.58418 0.51918 0.0
H776 H 0.11912 0.60442 0.48056 0.0
H777 H 0.09424 0.58336 0.3988 0.0
H778 H 0.13002 0.64939 0.29671 0.0
H779 H 0.11247 0.62861 0.334 0.0
C780 C 0.53597 0.08834 0.00083 0.0
C781 C 0.52136 0.07552 0.01716 0.0
C782 C 0.53328 0.0993 0.98277 0.0
C783 C 0.49925 0.11283 0.96393 0.0
H784 H 0.52446 0.12435 0.89373 0.0
C785 C 0.47486 0.13184 0.86478 0.0
C786 C 0.48817 0.14723 0.85043 0.0
C787 C 0.47994 0.12518 0.88718 0.0
C788 C 0.51749 0.12138 0.91337 0.0
H789 H 0.49248 0.06402 0.02744 0.0
H790 H 0.48746 0.08248 0.9953 0.0
H791 H 0.53144 0.10873 0.92893 0.0
H792 H 0.51731 0.1679 0.84936 0.0
H793 H 0.52621 0.15564 0.88764 0.0
H794 H 0.48453 0.12465 0.94738 0.0
C795 C 0.50124 0.08469 0.99699 0.0
C796 C 0.52154 0.11251 0.93369 0.0
C797 C 0.50407 0.07401 0.01541 0.0
C798 C 0.5067 0.15583 0.85939 0.0
C799 C 0.51182 0.14892 0.88145 0.0
C800 C 0.49494 0.12138 0.94338 0.0
C801 C 0.51576 0.0974 0.98018 0.0
C802 C 0.51235 0.10795 0.95921 0.0
C803 C 0.49849 0.13351 0.89545 0.0
C804 C 0.50393 0.1256 0.91788 0.0
H805 H 0.54947 0.08982 0.002 0.0
H806 H 0.54493 0.10916 0.9707 0.0
H807 H 0.49217 0.10997 0.98345 0.0
H808 H 0.46055 0.12456 0.85829 0.0
H809 H 0.46945 0.11313 0.89747 0.0
C810 C 0.49042 0.52089 0.50436 0.0
C811 C 0.49525 0.50804 0.50134 0.0
C812 C 0.47288 0.51733 0.49631 0.0
C813 C 0.42585 0.48039 0.47607 0.0
H814 H 0.42475 0.51666 0.43144 0.0
C815 C 0.37275 0.46482 0.3909 0.0
C816 C 0.36434 0.47494 0.38841 0.0
C817 C 0.3869 0.46923 0.40983 0.0
C818 C 0.42476 0.5065 0.44426 0.0
H819 H 0.48514 0.48112 0.48858 0.0
H820 H 0.45499 0.47508 0.47428 0.0
H821 H 0.45301 0.52377 0.45602 0.0
H822 H 0.36432 0.49762 0.40457 0.0
H823 H 0.38966 0.50569 0.43698 0.0
H824 H 0.39791 0.46289 0.463 0.0
C825 C 0.46451 0.48783 0.48315 0.0
C826 C 0.44094 0.51057 0.45842 0.0
C827 C 0.48194 0.49136 0.49117 0.0
C828 C 0.37056 0.48963 0.40557 0.0
C829 C 0.385 0.49422 0.42426 0.0
C830 C 0.40979 0.47629 0.46171 0.0
C831 C 0.45982 0.50083 0.48517 0.0
C832 C 0.44185 0.4974 0.47384 0.0
C833 C 0.3933 0.48405 0.42652 0.0
C834 C 0.40925 0.48917 0.44506 0.0
H835 H 0.50034 0.53387 0.51216 0.0
H836 H 0.46966 0.52759 0.49843 0.0
H837 H 0.42589 0.47003 0.48828 0.0
H838 H 0.36885 0.45375 0.37762 0.0
H839 H 0.39329 0.46135 0.41073 0.0
C840 C 0.98475 0.43212 0.94118 0.0
C841 C 0.97631 0.42854 0.96711 0.0
C842 C 0.97542 0.42096 0.91914 0.0
C843 C 0.92853 0.38791 0.89515 0.0
H844 H 0.95312 0.37025 0.85118 0.0
C845 C 0.88768 0.3281 0.8249 0.0
C846 C 0.89531 0.3286 0.79921 0.0
C847 C 0.89806 0.34101 0.84432 0.0
C848 C 0.94611 0.37524 0.863 0.0
H849 H 0.95125 0.41085 0.98999 0.0
H850 H 0.93513 0.39146 0.95185 0.0
H851 H 0.97053 0.3922 0.88628 0.0
H852 H 0.91976 0.34316 0.77364 0.0
H853 H 0.93783 0.36576 0.80744 0.0
H854 H 0.90414 0.37102 0.87206 0.0
C855 C 0.94893 0.40281 0.94845 0.0
C856 C 0.9561 0.38782 0.88308 0.0
C857 C 0.95827 0.41381 0.97042 0.0
C858 C 0.91359 0.34224 0.79343 0.0
C859 C 0.92394 0.35521 0.8128 0.0
C860 C 0.91859 0.37542 0.87503 0.0
C861 C 0.95738 0.4062 0.92259 0.0
C862 C 0.94733 0.39408 0.89965 0.0
C863 C 0.91628 0.3548 0.83844 0.0
C864 C 0.92717 0.36872 0.85898 0.0
H865 H 0.99864 0.44335 0.9381 0.0
H866 H 0.98223 0.42393 0.89937 0.0
H867 H 0.92148 0.39271 0.90731 0.0
H868 H 0.87372 0.31763 0.83008 0.0
H869 H 0.89184 0.34009 0.86406 0.0
C870 C 0.95525 0.48736 0.99858 0.0
C871 C 0.97138 0.49676 0.01438 0.0
C872 C 0.9434 0.4937 0.99471 0.0
C873 C 0.94468 0.53539 0.9901 0.0
H874 H 0.89179 0.50401 0.98023 0.0
C875 C 0.89986 0.55973 0.93881 0.0
C876 C 0.8886 0.54893 0.91737 0.0
C877 C 0.90805 0.55361 0.95745 0.0
C878 C 0.90653 0.51297 0.98296 0.0
H879 H 0.98738 0.51981 0.0396 0.0
H880 H 0.96658 0.53114 0.03259 0.0
H881 H 0.9097 0.49275 0.0023 0.0
H882 H 0.87679 0.52296 0.8994 0.0
H883 H 0.8908 0.51226 0.93199 0.0
H884 H 0.94162 0.55541 0.96975 0.0
C885 C 0.96317 0.5188 0.02322 0.0
C886 C 0.91679 0.50653 0.99564 0.0
C887 C 0.97499 0.51228 0.0274 0.0
C888 C 0.88509 0.53157 0.91585 0.0
C889 C 0.89317 0.52543 0.93457 0.0
C890 C 0.9344 0.54184 0.97745 0.0
C891 C 0.94742 0.50972 0.00637 0.0
C892 C 0.93609 0.51748 0.99844 0.0
C893 C 0.90505 0.53648 0.95525 0.0
C894 C 0.91531 0.53052 0.97286 0.0
H895 H 0.95206 0.47532 0.98837 0.0
H896 H 0.93158 0.48648 0.98133 0.0
H897 H 0.95954 0.54413 0.9917 0.0
H898 H 0.90261 0.57306 0.94091 0.0
H899 H 0.91695 0.56237 0.97336 0.0
C900 C 0.4574 0.94954 0.47396 0.0
C901 C 0.45733 0.96532 0.47613 0.0
C902 C 0.44203 0.9343 0.4634 0.0
C903 C 0.39275 0.91524 0.44093 0.0
H904 H 0.40547 0.89111 0.38816 0.0
C905 C 0.34817 0.8788 0.34684 0.0
C906 C 0.34602 0.86246 0.33984 0.0
C907 C 0.35977 0.88867 0.36839 0.0
C908 C 0.40164 0.89751 0.40314 0.0
H909 H 0.44057 0.9771 0.4705 0.0
H910 H 0.41417 0.95091 0.45148 0.0
H911 H 0.42937 0.9131 0.41782 0.0
H912 H 0.35394 0.84344 0.35117 0.0
H913 H 0.37473 0.86107 0.38815 0.0
H914 H 0.36519 0.90027 0.42485 0.0
C915 C 0.42588 0.95005 0.4583 0.0
C916 C 0.41534 0.91009 0.4203 0.0
C917 C 0.44113 0.96519 0.46912 0.0
C918 C 0.3555 0.8561 0.35551 0.0
C919 C 0.36733 0.86613 0.37683 0.0
C920 C 0.37912 0.90283 0.42349 0.0
C921 C 0.4263 0.93454 0.4545 0.0
C922 C 0.41118 0.91943 0.43903 0.0
C923 C 0.36973 0.8826 0.38327 0.0
C924 C 0.38352 0.8941 0.40406 0.0
H925 H 0.4696 0.94914 0.4794 0.0
H926 H 0.44272 0.92249 0.46143 0.0
H927 H 0.3889 0.92184 0.45548 0.0
H928 H 0.34147 0.88438 0.33502 0.0
H929 H 0.36156 0.90145 0.37263 0.0
C930 C 0.46712 0.43839 0.90917 0.0
C931 C 0.48359 0.45032 0.92289 0.0
C932 C 0.46505 0.42332 0.89681 0.0
C933 C 0.49217 0.4042 0.87174 0.0
H934 H 0.44448 0.36025 0.87363 0.0
C935 C 0.48145 0.33783 0.83364 0.0
C936 C 0.46626 0.3282 0.81604 0.0
C937 C 0.48355 0.35233 0.84798 0.0
C938 C 0.45787 0.37246 0.87285 0.0
H939 H 0.51094 0.4556 0.93375 0.0
H940 H 0.50705 0.42918 0.91327 0.0
H941 H 0.4482 0.38636 0.89585 0.0
H942 H 0.44145 0.32653 0.79972 0.0
H943 H 0.44491 0.35139 0.8252 0.0
H944 H 0.50183 0.39014 0.84897 0.0
C945 C 0.4958 0.4316 0.91164 0.0
C946 C 0.45999 0.38747 0.88546 0.0
C947 C 0.49793 0.44672 0.9238 0.0
C948 C 0.4531 0.33329 0.81354 0.0
C949 C 0.4551 0.34763 0.82806 0.0
C950 C 0.49008 0.38914 0.85936 0.0
C951 C 0.47934 0.41969 0.89796 0.0
C952 C 0.47714 0.40359 0.88491 0.0
C953 C 0.47042 0.35741 0.84525 0.0
C954 C 0.47287 0.37315 0.8596 0.0
H955 H 0.45569 0.44054 0.90813 0.0
H956 H 0.45227 0.41461 0.88612 0.0
H957 H 0.50551 0.41642 0.87047 0.0
H958 H 0.49173 0.33418 0.8364 0.0
H959 H 0.49541 0.35951 0.86132 0.0
C960 C 0.08841 0.4945 0.52051 0.0
C961 C 0.09653 0.50733 0.54095 0.0
C962 C 0.09899 0.48944 0.50605 0.0
C963 C 0.14602 0.5063 0.48294 0.0
H964 H 0.1275 0.45718 0.46592 0.0
C965 C 0.18633 0.48704 0.41149 0.0
C966 C 0.17566 0.47406 0.39208 0.0
C967 C 0.17781 0.49009 0.43329 0.0
C968 C 0.13283 0.47097 0.47031 0.0
H969 H 0.12201 0.5248 0.56251 0.0
H970 H 0.14064 0.51608 0.53691 0.0
H971 H 0.11029 0.46438 0.49741 0.0
H972 H 0.14773 0.45408 0.38034 0.0
H973 H 0.13287 0.45956 0.4179 0.0
H974 H 0.1681 0.51304 0.455 0.0
C975 C 0.12606 0.50991 0.53223 0.0
C976 C 0.12299 0.47507 0.48843 0.0
C977 C 0.11539 0.5148 0.54698 0.0
C978 C 0.15635 0.46396 0.39523 0.0
C979 C 0.14784 0.4671 0.41685 0.0
C980 C 0.15577 0.50223 0.4646 0.0
C981 C 0.11796 0.49725 0.5115 0.0
C982 C 0.12933 0.49279 0.49456 0.0
C983 C 0.15842 0.48034 0.436 0.0
C984 C 0.14911 0.48453 0.45766 0.0
H985 H 0.07387 0.4884 0.51566 0.0
H986 H 0.09241 0.47977 0.49001 0.0
H987 H 0.15112 0.5201 0.48709 0.0
H988 H 0.20126 0.4949 0.40971 0.0
H989 H 0.18641 0.5002 0.4479 0.0
C990 C 0.56337 0.04 0.93705 0.0
C991 C 0.56526 0.04157 0.96569 0.0
C992 C 0.57867 0.05023 0.91987 0.0
C993 C 0.63041 0.07893 0.9213 0.0
H994 H 0.62322 0.09613 0.85136 0.0
C995 C 0.69042 0.11764 0.8442 0.0
C996 C 0.6904 0.13053 0.82679 0.0
C997 C 0.67538 0.10689 0.8614 0.0
C998 C 0.62557 0.09169 0.871 0.0
H999 H 0.58467 0.05526 0.99873 0.0
H1000 H 0.61092 0.07343 0.96909 0.0
H1001 H 0.59667 0.07718 0.88033 0.0
H1002 H 0.67454 0.14249 0.81477 0.0
H1003 H 0.64897 0.1246 0.84592 0.0
H1004 H 0.65936 0.09419 0.91274 0.0
C1005 C 0.5979 0.06393 0.95966 0.0
C1006 C 0.61022 0.08048 0.88745 0.0
C1007 C 0.58274 0.05353 0.97675 0.0
C1008 C 0.67524 0.13288 0.82801 0.0
C1009 C 0.66032 0.12231 0.84557 0.0
C1010 C 0.64576 0.09036 0.90508 0.0
C1011 C 0.59614 0.06247 0.93096 0.0
C1012 C 0.61241 0.07395 0.91288 0.0
C1013 C 0.66 0.10892 0.86213 0.0
C1014 C 0.64359 0.09691 0.87966 0.0
H1015 H 0.55009 0.03086 0.92791 0.0
H1016 H 0.57678 0.04848 0.89792 0.0
H1017 H 0.63273 0.07398 0.94047 0.0
H1018 H 0.70195 0.11561 0.84429 0.0
H1019 H 0.67568 0.09666 0.87357 0.0
C1020 C 0.55535 0.56458 0.42775 0.0
C1021 C 0.57059 0.56238 0.43056 0.0
C1022 C 0.55735 0.57985 0.41518 0.0
C1023 C 0.59308 0.62615 0.39491 0.0
H1024 H 0.55441 0.62249 0.3471 0.0
C1025 C 0.6043 0.68096 0.31715 0.0
C1026 C 0.5904 0.68509 0.31465 0.0
C1027 C 0.6016 0.66667 0.33358 0.0
C1028 C 0.56522 0.62375 0.36068 0.0
H1029 H 0.59996 0.57484 0.42206 0.0
H1030 H 0.60321 0.60094 0.39934 0.0
H1031 H 0.55019 0.59601 0.37066 0.0
H1032 H 0.5629 0.67757 0.32831 0.0
H1033 H 0.55807 0.65231 0.35652 0.0
H1034 H 0.60831 0.65383 0.38417 0.0
C1035 C 0.58978 0.59103 0.40743 0.0
C1036 C 0.56281 0.60858 0.37423 0.0
C1037 C 0.58782 0.57584 0.42017 0.0
C1038 C 0.57381 0.67465 0.32938 0.0
C1039 C 0.57103 0.6602 0.3456 0.0
C1040 C 0.59554 0.64127 0.38116 0.0
C1041 C 0.5746 0.5933 0.40488 0.0
C1042 C 0.57679 0.60955 0.39132 0.0
C1043 C 0.58486 0.65601 0.34771 0.0
C1044 C 0.58172 0.6402 0.36372 0.0
H1045 H 0.54179 0.55451 0.43511 0.0
H1046 H 0.54537 0.58119 0.41383 0.0
H1047 H 0.60397 0.62751 0.40838 0.0
H1048 H 0.61709 0.68839 0.30569 0.0
H1049 H 0.6124 0.6636 0.33449 0.0
C1050 C 0.50724 0.07445 0.49282 0.0
C1051 C 0.50595 0.05891 0.50339 0.0
C1052 C 0.50572 0.08604 0.51021 0.0
C1053 C 0.50933 0.0981 0.58335 0.0
H1054 H 0.47902 0.11732 0.56175 0.0
C1055 C 0.50096 0.14512 0.65352 0.0
C1056 C 0.48278 0.14133 0.65686 0.0
C1057 C 0.50518 0.13708 0.63282 0.0
C1058 C 0.48752 0.11204 0.56809 0.0
H1059 H 0.50157 0.04328 0.54065 0.0
H1060 H 0.49905 0.06339 0.57072 0.0
H1061 H 0.48366 0.09909 0.52978 0.0
H1062 H 0.45499 0.12676 0.64019 0.0
H1063 H 0.46227 0.1125 0.60444 0.0
H1064 H 0.5127 0.11049 0.62195 0.0
C1065 C 0.5016 0.06683 0.54908 0.0
C1066 C 0.49033 0.10174 0.54966 0.0
C1067 C 0.50307 0.05526 0.53176 0.0
C1068 C 0.46908 0.12979 0.63841 0.0
C1069 C 0.47331 0.12177 0.6177 0.0
C1070 C 0.50655 0.1084 0.60172 0.0
C1071 C 0.50292 0.08236 0.53857 0.0
C1072 C 0.50104 0.09442 0.55725 0.0
C1073 C 0.49134 0.12509 0.61493 0.0
C1074 C 0.49541 0.11531 0.59448 0.0
H1075 H 0.50964 0.07778 0.47116 0.0
H1076 H 0.50696 0.09798 0.50149 0.0
H1077 H 0.51785 0.09285 0.58971 0.0
H1078 H 0.51182 0.15384 0.66749 0.0
H1079 H 0.51927 0.14009 0.63105 0.0
C1080 C 0.46426 0.46531 0.06896 0.0
C1081 C 0.47587 0.48215 0.05692 0.0
C1082 C 0.45166 0.46289 0.0895 0.0
C1083 C 0.43988 0.48795 0.13758 0.0
H1084 H 0.39141 0.44496 0.13709 0.0
C1085 C 0.38509 0.47492 0.21875 0.0
C1086 C 0.36646 0.46613 0.21066 0.0
C1087 C 0.39861 0.47616 0.20113 0.0
C1088 C 0.40479 0.45714 0.13736 0.0
H1089 H 0.48351 0.50971 0.05731 0.0
H1090 H 0.46133 0.50543 0.09215 0.0
H1091 H 0.41481 0.44864 0.10468 0.0
H1092 H 0.34731 0.45181 0.17782 0.0
H1093 H 0.371 0.45459 0.14641 0.0
H1094 H 0.42961 0.49693 0.16909 0.0
C1095 C 0.46217 0.49411 0.08645 0.0
C1096 C 0.41837 0.45912 0.11903 0.0
C1097 C 0.47488 0.49656 0.06625 0.0
C1098 C 0.36159 0.45861 0.18455 0.0
C1099 C 0.37517 0.4601 0.16669 0.0
C1100 C 0.42624 0.48608 0.15559 0.0
C1101 C 0.45026 0.47722 0.09822 0.0
C1102 C 0.43608 0.47461 0.11877 0.0
C1103 C 0.39389 0.46888 0.17475 0.0
C1104 C 0.40848 0.47068 0.15571 0.0
H1105 H 0.46474 0.45396 0.06231 0.0
H1106 H 0.44296 0.44975 0.09841 0.0
H1107 H 0.45341 0.49994 0.13838 0.0
H1108 H 0.38916 0.48055 0.23898 0.0
H1109 H 0.41274 0.48264 0.20841 0.0
C1110 C 0.98669 0.46972 0.55462 0.0
C1111 C 1.00348 0.47277 0.56564 0.0
C1112 C 0.97075 0.45267 0.55592 0.0
C1113 C 0.95519 0.4054 0.564 0.0
H1114 H 0.91327 0.40005 0.60415 0.0
C1115 C 0.90648 0.34216 0.62483 0.0
C1116 C 0.88765 0.33635 0.62776 0.0
C1117 C 0.91853 0.358 0.61094 0.0
C1118 C 0.92463 0.40125 0.59233 0.0
H1119 H 0.01699 0.46036 0.58552 0.0
H1120 H 0.98949 0.43074 0.58709 0.0
H1121 H 0.93838 0.42964 0.59016 0.0
H1122 H 0.86669 0.3426 0.6176 0.0
H1123 H 0.88787 0.37043 0.59317 0.0
H1124 H 0.94181 0.37717 0.56659 0.0
C1125 C 0.98851 0.44143 0.5777 0.0
C1126 C 0.93901 0.41823 0.58434 0.0
C1127 C 1.00423 0.45842 0.57695 0.0
C1128 C 0.88113 0.34672 0.61588 0.0
C1129 C 0.89327 0.36267 0.60191 0.0
C1130 C 0.94077 0.38847 0.57171 0.0
C1131 C 0.97154 0.43839 0.56759 0.0
C1132 C 0.95473 0.42048 0.57101 0.0
C1133 C 0.91218 0.36859 0.59952 0.0
C1134 C 0.92566 0.38621 0.58693 0.0
H1135 H 0.98574 0.48059 0.54592 0.0
H1136 H 0.95781 0.45065 0.54802 0.0
H1137 H 0.96705 0.40676 0.55341 0.0
H1138 H 0.91216 0.33484 0.6343 0.0
H1139 H 0.93305 0.3623 0.61019 0.0
C1140 C 0.57558 1.00088 0.12744 0.0
C1141 C 0.56348 0.99635 0.10499 0.0
C1142 C 0.58202 0.98984 0.1359 0.0
C1143 C 0.58696 0.95273 0.11269 0.0
H1144 H 0.58926 0.94456 0.1907 0.0
C1145 C 0.5923 0.89451 0.15846 0.0
C1146 C 0.60346 0.89789 0.18183 0.0
C1147 C 0.58941 0.90761 0.14743 0.0
C1148 C 0.58895 0.94688 0.16884 0.0
H1149 H 0.54841 0.97648 0.07416 0.0
H1150 H 0.55944 0.9572 0.089 0.0
H1151 H 0.58034 0.96536 0.17505 0.0
H1152 H 0.62069 0.91787 0.2115 0.0
H1153 H 0.61592 0.94072 0.19198 0.0
H1154 H 0.5952 0.9339 0.10659 0.0
C1155 C 0.56435 0.96949 0.0997 0.0
C1156 C 0.58385 0.95884 0.15986 0.0
C1157 C 0.55799 0.98055 0.0912 0.0
C1158 C 0.61221 0.91486 0.19327 0.0
C1159 C 0.60928 0.9279 0.18232 0.0
C1160 C 0.59199 0.94071 0.12169 0.0
C1161 C 0.57642 0.97396 0.12218 0.0
C1162 C 0.58267 0.96183 0.13167 0.0
C1163 C 0.59754 0.92431 0.15965 0.0
C1164 C 0.59296 0.93759 0.14987 0.0
H1165 H 0.58022 0.01306 0.13828 0.0
H1166 H 0.5915 0.99381 0.15307 0.0
H1167 H 0.58648 0.95493 0.09082 0.0
H1168 H 0.58546 0.88161 0.14908 0.0
H1169 H 0.58022 0.90441 0.13002 0.0
C1170 C 0.5813 0.51399 0.57424 0.0
C1171 C 0.58039 0.52834 0.56324 0.0
C1172 C 0.59487 0.51676 0.59351 0.0
C1173 C 0.64092 0.55219 0.61798 0.0
H1174 H 0.63206 0.51818 0.67643 0.0
C1175 C 0.69363 0.5665 0.70451 0.0
C1176 C 0.69691 0.55294 0.71222 0.0
C1177 C 0.67937 0.56323 0.68636 0.0
C1178 C 0.63478 0.5277 0.66003 0.0
H1179 H 0.59247 0.55678 0.56496 0.0
H1180 H 0.61576 0.56158 0.59915 0.0
H1181 H 0.60668 0.5132 0.64623 0.0
H1182 H 0.68765 0.52526 0.70643 0.0
H1183 H 0.6625 0.5195 0.67499 0.0
H1184 H 0.66895 0.56679 0.63208 0.0
C1185 C 0.60634 0.54821 0.5923 0.0
C1186 C 0.62023 0.52486 0.64269 0.0
C1187 C 0.59286 0.54545 0.57285 0.0
C1188 C 0.68545 0.53598 0.70123 0.0
C1189 C 0.67104 0.53267 0.6832 0.0
C1190 C 0.65539 0.55508 0.63544 0.0
C1191 C 0.60778 0.53395 0.60246 0.0
C1192 C 0.62311 0.53708 0.62143 0.0
C1193 C 0.66785 0.54627 0.67558 0.0
C1194 C 0.6525 0.54289 0.65666 0.0
H1195 H 0.57197 0.50063 0.56723 0.0
H1196 H 0.59562 0.50547 0.6006 0.0
H1197 H 0.64381 0.56169 0.60149 0.0
H1198 H 0.70177 0.57961 0.71304 0.0
H1199 H 0.67709 0.57392 0.68125 0.0
C1200 C 0.07992 0.56149 0.99806 0.0
C1201 C 0.07705 0.54478 0.00551 0.0
C1202 C 0.09413 0.57687 0.01031 0.0
C1203 C 0.11761 0.58901 0.07603 0.0
H1204 H 0.1505 0.63532 0.043 0.0
C1205 C 0.16811 0.64663 0.14334 0.0
C1206 C 0.17069 0.66345 0.13771 0.0
C1207 C 0.15918 0.63298 0.12453 0.0
C1208 C 0.14128 0.62252 0.05258 0.0
H1209 H 0.08788 0.53126 0.02932 0.0
H1210 H 0.1126 0.55801 0.05067 0.0
H1211 H 0.13064 0.61012 0.01369 0.0
H1212 H 0.16663 0.67918 0.10683 0.0
H1213 H 0.15015 0.65509 0.07475 0.0
H1214 H 0.12734 0.60118 0.1148 0.0
C1215 C 0.1037 0.55922 0.03582 0.0
C1216 C 0.12998 0.60809 0.03575 0.0
C1217 C 0.0896 0.54393 0.02358 0.0
C1218 C 0.16459 0.66634 0.11223 0.0
C1219 C 0.15536 0.65256 0.09356 0.0
C1220 C 0.12864 0.60337 0.09278 0.0
C1221 C 0.10565 0.57575 0.03019 0.0
C1222 C 0.11812 0.59118 0.04736 0.0
C1223 C 0.15219 0.63557 0.09973 0.0
C1224 C 0.14073 0.62033 0.08136 0.0
H1225 H 0.07041 0.56255 0.98433 0.0
H1226 H 0.09531 0.58945 0.00562 0.0
H1227 H 0.10827 0.57622 0.08563 0.0
H1228 H 0.17233 0.64368 0.16275 0.0
H1229 H 0.15744 0.62024 0.12979 0.0
loop_
_geom_bond_atom_site_label_1
_geom_bond_atom_site_label_2
_geom_bond_distance
_geom_bond_site_symmetry_2
_ccdc_geom_bond_type
Cu0 N1 1.999 . S
Cu0 O6 1.974 . S
Cu0 N11 1.985 1_655 S
Cu0 O20 1.959 1_655 S
N1 Cu0 1.999 . S
N1 C3 1.263 . S
N1 C5 1.389 . S
N2 C3 1.358 . S
N2 C4 1.400 . S
C3 N1 1.263 . S
C3 N2 1.358 . S
C3 H9 0.930 1_554 S
C4 N2 1.400 . S
C4 C5 1.351 . S
C4 H21 0.930 . S
C5 N1 1.389 . S
C5 C4 1.351 . S
C5 H10 0.930 . S
O6 Cu0 1.974 . S
O6 C16 1.282 . S
C7 O8 1.261 . S
C7 O20 1.251 . S
O8 C7 1.261 . S
H9 C3 0.930 1_556 S
H10 C5 0.930 . S
N11 Cu0 1.985 1_455 S
N11 C13 1.335 . S
N11 C14 1.390 . S
N12 C13 1.345 . S
N12 C15 1.336 . S
C13 N11 1.335 . S
C13 N12 1.345 . S
C13 H18 0.930 . S
C14 N11 1.390 . S
C14 C15 1.346 . S
C14 H19 0.930 . S
C15 N12 1.336 . S
C15 C14 1.346 . S
C15 H22 0.929 . S
C16 O6 1.282 . S
C16 O17 1.216 1_554 S
O17 C16 1.216 1_556 S
H18 C13 0.930 . S
H19 C14 0.930 . S
O20 Cu0 1.959 1_455 S
O20 C7 1.251 . S
H21 C4 0.930 . S
H22 C15 0.929 . S
Cu23 N24 1.999 . S
Cu23 O29 1.974 . S
Cu23 N34 1.985 1_565 S
Cu23 O43 1.959 1_565 S
N24 Cu23 1.999 . S
N24 C26 1.263 . S
N24 C28 1.389 . S
N25 C26 1.358 . S
N25 C27 1.400 . S
C26 N24 1.263 . S
C26 N25 1.358 . S
C26 H32 0.930 . S
C27 N25 1.400 . S
C27 C28 1.351 . S
C27 H44 0.930 . S
C28 N24 1.389 . S
C28 C27 1.351 . S
C28 H33 0.930 . S
O29 Cu23 1.974 . S
O29 C39 1.282 . S
C30 O31 1.261 . S
C30 O43 1.251 . S
O31 C30 1.261 . S
H32 C26 0.930 . S
H33 C28 0.930 . S
N34 Cu23 1.985 1_545 S
N34 C36 1.335 . S
N34 C37 1.390 . S
N35 C36 1.345 . S
N35 C38 1.336 . S
C36 N34 1.335 . S
C36 N35 1.345 . S
C36 H41 0.930 . S
C37 N34 1.390 . S
C37 C38 1.346 . S
C37 H42 0.930 . S
C38 N35 1.336 . S
C38 C37 1.346 . S
C38 H45 0.929 . S
C39 O29 1.282 . S
C39 O40 1.216 . S
O40 C39 1.216 . S
H41 C36 0.930 . S
H42 C37 0.930 . S
O43 Cu23 1.959 1_545 S
O43 C30 1.251 . S
H44 C27 0.930 . S
H45 C38 0.929 . S
Cu46 N47 1.999 . S
Cu46 O52 1.974 . S
Cu46 N57 1.985 1_556 S
Cu46 O66 1.959 1_556 S
N47 Cu46 1.999 . S
N47 C49 1.263 . S
N47 C51 1.389 . S
N48 C49 1.358 . S
N48 C50 1.400 . S
C49 N47 1.263 . S
C49 N48 1.358 . S
C49 H55 0.930 . S
C50 N48 1.400 . S
C50 C51 1.351 . S
C50 H67 0.930 . S
C51 N47 1.389 . S
C51 C50 1.351 . S
C51 H56 0.930 . S
O52 Cu46 1.974 . S
O52 C62 1.282 . S
C53 O54 1.261 . S
C53 O66 1.251 . S
O54 C53 1.261 . S
H55 C49 0.930 . S
H56 C51 0.930 . S
N57 Cu46 1.985 1_554 S
N57 C59 1.335 . S
N57 C60 1.390 . S
N58 C59 1.345 . S
N58 C61 1.336 . S
C59 N57 1.335 . S
C59 N58 1.345 . S
C59 H64 0.930 . S
C60 N57 1.390 . S
C60 C61 1.346 . S
C60 H65 0.930 . S
C61 N58 1.336 . S
C61 C60 1.346 . S
C61 H68 0.929 . S
C62 O52 1.282 . S
C62 O63 1.216 1_556 S
O63 C62 1.216 1_554 S
H64 C59 0.930 . S
H65 C60 0.930 . S
O66 Cu46 1.959 1_554 S
O66 C53 1.251 . S
H67 C50 0.930 . S
H68 C61 0.929 . S
Cu69 N70 1.999 . S
Cu69 O75 1.974 . S
Cu69 N80 1.985 . S
Cu69 O89 1.959 . S
N70 Cu69 1.999 . S
N70 C72 1.263 . S
N70 C74 1.389 . S
N71 C72 1.358 . S
N71 C73 1.400 . S
C72 N70 1.263 . S
C72 N71 1.358 . S
C72 H78 0.930 . S
C73 N71 1.400 . S
C73 C74 1.351 . S
C73 H90 0.930 . S
C74 N70 1.389 . S
C74 C73 1.351 . S
C74 H79 0.930 . S
O75 Cu69 1.974 . S
O75 C85 1.282 . S
C76 O77 1.261 . S
C76 O89 1.251 . S
O77 C76 1.261 . S
H78 C72 0.930 . S
H79 C74 0.930 . S
N80 Cu69 1.985 . S
N80 C82 1.335 . S
N80 C83 1.390 . S
N81 C82 1.345 . S
N81 C84 1.336 . S
C82 N80 1.335 . S
C82 N81 1.345 . S
C82 H87 0.930 . S
C83 N80 1.390 . S
C83 C84 1.346 . S
C83 H88 0.930 . S
C84 N81 1.336 . S
C84 C83 1.346 . S
C84 H91 0.929 . S
C85 O75 1.282 . S
C85 O86 1.216 . S
O86 C85 1.216 . S
H87 C82 0.930 . S
H88 C83 0.930 . S
O89 Cu69 1.959 . S
O89 C76 1.251 . S
H90 C73 0.930 . S
H91 C84 0.929 . S
Cu92 N93 1.999 . S
Cu92 O98 1.974 1_554 S
Cu92 N103 1.914 1_545 S
Cu92 O112 1.959 1_545 S
N93 Cu92 1.999 . S
N93 C95 1.263 1_554 S
N93 C97 1.389 . S
N94 C95 1.358 . S
N94 C96 1.400 1_556 S
C95 N93 1.263 1_556 S
C95 N94 1.358 . S
C95 H101 0.930 . S
C96 N94 1.400 1_554 S
C96 C97 1.351 . S
C96 H113 0.930 . S
C97 N93 1.389 . S
C97 C96 1.351 . S
C97 H102 0.930 . S
O98 Cu92 1.974 1_556 S
O98 C108 1.282 . S
C99 O100 1.294 . S
C99 O112 1.251 . S
O100 C99 1.294 . S
H101 C95 0.930 . S
H102 C97 0.930 . S
N103 Cu92 1.914 1_565 S
N103 C105 1.380 . S
N103 C106 1.431 . S
N104 C105 1.345 . S
N104 C107 1.336 . S
C105 N103 1.380 . S
C105 N104 1.345 . S
C105 H110 0.930 . S
C106 N103 1.431 . S
C106 C107 1.346 . S
C106 H111 0.917 1_564 S
C107 N104 1.336 . S
C107 C106 1.346 . S
C107 H114 0.929 . S
C108 O98 1.282 . S
C108 O109 1.216 . S
O109 C108 1.216 . S
H110 C105 0.930 . S
H111 C106 0.917 1_546 S
O112 Cu92 1.959 1_565 S
O112 C99 1.251 . S
H113 C96 0.930 . S
H114 C107 0.929 . S
Cu115 N116 1.999 . S
Cu115 O121 1.974 . S
Cu115 N126 1.985 . S
Cu115 O135 1.959 . S
N116 Cu115 1.999 . S
N116 C118 1.263 . S
N116 C120 1.389 . S
N117 C118 1.358 . S
N117 C119 1.400 . S
C118 N116 1.263 . S
C118 N117 1.358 . S
C118 H124 0.930 . S
C119 N117 1.400 . S
C119 C120 1.351 . S
C119 H136 0.930 . S
C120 N116 1.389 . S
C120 C119 1.351 . S
C120 H125 0.930 . S
O121 Cu115 1.974 . S
O121 C131 1.282 . S
C122 O123 1.261 . S
C122 O135 1.251 . S
O123 C122 1.261 . S
H124 C118 0.930 . S
H125 C120 0.930 . S
N126 Cu115 1.985 . S
N126 C128 1.335 . S
N126 C129 1.390 . S
N127 C128 1.345 . S
N127 C130 1.336 . S
C128 N126 1.335 . S
C128 N127 1.345 . S
C128 H133 0.930 . S
C129 N126 1.390 . S
C129 C130 1.346 . S
C129 H134 0.930 . S
C130 N127 1.336 . S
C130 C129 1.346 . S
C130 H137 0.929 . S
C131 O121 1.282 . S
C131 O132 1.216 . S
O132 C131 1.216 . S
H133 C128 0.930 . S
H134 C129 0.930 . S
O135 Cu115 1.959 . S
O135 C122 1.251 . S
H136 C119 0.930 . S
H137 C130 0.929 . S
H138 C165 0.929 . S
N139 C164 1.433 . S
N139 C170 1.435 . S
N139 C176 1.423 . S
H140 C166 0.930 . S
H141 C169 0.931 . S
H142 C168 0.929 . S
H143 C171 0.930 . S
H144 C172 0.932 . S
H145 C175 0.929 . S
H146 C174 0.931 . S
H147 C177 0.929 . S
H148 C181 0.932 . S
H149 C178 0.931 . S
H150 C180 0.929 . S
H151 C183 0.929 . S
H152 C184 0.930 . S
H153 C186 0.929 . S
H154 C187 0.931 . S
H155 C189 0.930 . S
H156 C190 0.932 . S
H157 C192 0.931 . S
H158 C193 0.929 . S
H159 C195 0.929 . S
H160 C196 0.931 . S
H161 C198 0.929 . S
N162 C182 1.433 . S
N162 C188 1.435 . S
N162 C194 1.423 . S
H163 C199 0.932 . S
C164 N139 1.433 . S
C164 C165 1.363 . S
C164 C169 1.370 . S
C165 H138 0.929 . S
C165 C164 1.363 . S
C165 C166 1.385 . S
C166 H140 0.930 . S
C166 C165 1.385 . S
C166 C167 1.357 . S
C167 C166 1.357 . S
C167 C168 1.406 . S
C168 H142 0.929 . S
C168 C167 1.406 . S
C168 C169 1.391 . S
C169 H141 0.931 . S
C169 C164 1.370 . S
C169 C168 1.391 . S
C170 N139 1.435 . S
C170 C171 1.358 . S
C170 C175 1.371 . S
C171 H143 0.930 . S
C171 C170 1.358 . S
C171 C172 1.405 . S
C172 H144 0.932 . S
C172 C171 1.405 . S
C172 C173 1.383 . S
C173 C172 1.383 . S
C173 C174 1.393 . S
C174 H146 0.931 . S
C174 C173 1.393 . S
C174 C175 1.382 . S
C175 H145 0.929 . S
C175 C170 1.371 . S
C175 C174 1.382 . S
C176 N139 1.423 . S
C176 C177 1.362 . S
C176 C181 1.388 . S
C177 H147 0.929 . S
C177 C176 1.362 . S
C177 C178 1.376 . S
C178 H149 0.931 . S
C178 C177 1.376 . S
C178 C179 1.396 . S
C179 C178 1.396 . S
C179 C180 1.348 . S
C179 C197 1.472 . S
C180 H150 0.929 . S
C180 C179 1.348 . S
C180 C181 1.443 . S
C181 H148 0.932 . S
C181 C176 1.388 . S
C181 C180 1.443 . S
C182 N162 1.433 . S
C182 C183 1.363 . S
C182 C187 1.370 . S
C183 H151 0.929 . S
C183 C182 1.363 . S
C183 C184 1.385 . S
C184 H152 0.930 . S
C184 C183 1.385 . S
C184 C185 1.357 . S
C185 C184 1.357 . S
C185 C186 1.406 . S
C186 H153 0.929 . S
C186 C185 1.406 . S
C186 C187 1.391 . S
C187 H154 0.931 . S
C187 C182 1.370 . S
C187 C186 1.391 . S
C188 N162 1.435 . S
C188 C189 1.358 . S
C188 C193 1.371 . S
C189 H155 0.930 . S
C189 C188 1.358 . S
C189 C190 1.405 . S
C190 H156 0.932 . S
C190 C189 1.405 . S
C190 C191 1.383 . S
C191 C190 1.383 . S
C191 C192 1.393 . S
C192 H157 0.931 . S
C192 C191 1.393 . S
C192 C193 1.382 . S
C193 H158 0.929 . S
C193 C188 1.371 . S
C193 C192 1.382 . S
C194 N162 1.423 . S
C194 C195 1.362 . S
C194 C199 1.388 . S
C195 H159 0.929 . S
C195 C194 1.362 . S
C195 C196 1.376 . S
C196 H160 0.931 . S
C196 C195 1.376 . S
C196 C197 1.396 . S
C197 C179 1.472 . S
C197 C196 1.396 . S
C197 C198 1.348 . S
C198 H161 0.929 . S
C198 C197 1.348 . S
C198 C199 1.443 . S
C199 H163 0.932 . S
C199 C194 1.388 . S
C199 C198 1.443 . S
H200 C227 0.929 . S
N201 C226 1.433 . S
N201 C232 1.435 . S
N201 C238 1.423 . S
H202 C228 0.930 . S
H203 C231 0.931 . S
H204 C230 0.929 . S
H205 C233 0.930 . S
H206 C234 0.932 . S
H207 C237 0.929 . S
H208 C236 0.931 . S
H209 C239 0.929 . S
H210 C243 0.932 . S
H211 C240 0.931 . S
H212 C242 0.929 . S
H213 C245 0.929 . S
H214 C246 0.930 . S
H215 C248 0.929 . S
H216 C249 0.931 . S
H217 C251 0.930 . S
H218 C252 0.932 . S
H219 C254 0.931 . S
H220 C255 0.929 . S
H221 C257 0.929 . S
H222 C258 0.931 . S
H223 C260 0.929 . S
N224 C244 1.433 . S
N224 C250 1.435 . S
N224 C256 1.423 . S
H225 C261 0.932 . S
C226 N201 1.433 . S
C226 C227 1.363 . S
C226 C231 1.370 . S
C227 H200 0.929 . S
C227 C226 1.363 . S
C227 C228 1.385 . S
C228 H202 0.930 . S
C228 C227 1.385 . S
C228 C229 1.357 . S
C229 C228 1.357 . S
C229 C230 1.406 . S
C230 H204 0.929 . S
C230 C229 1.406 . S
C230 C231 1.391 . S
C231 H203 0.931 . S
C231 C226 1.370 . S
C231 C230 1.391 . S
C232 N201 1.435 . S
C232 C233 1.358 . S
C232 C237 1.371 . S
C233 H205 0.930 . S
C233 C232 1.358 . S
C233 C234 1.405 . S
C234 H206 0.932 . S
C234 C233 1.405 . S
C234 C235 1.383 . S
C235 C234 1.383 . S
C235 C236 1.393 . S
C236 H208 0.931 . S
C236 C235 1.393 . S
C236 C237 1.382 . S
C237 H207 0.929 . S
C237 C232 1.371 . S
C237 C236 1.382 . S
C238 N201 1.423 . S
C238 C239 1.362 . S
C238 C243 1.388 . S
C239 H209 0.929 . S
C239 C238 1.362 . S
C239 C240 1.376 . S
C240 H211 0.931 . S
C240 C239 1.376 . S
C240 C241 1.396 . S
C241 C240 1.396 . S
C241 C242 1.348 . S
C241 C259 1.472 . S
C242 H212 0.929 . S
C242 C241 1.348 . S
C242 C243 1.443 . S
C243 H210 0.932 . S
C243 C238 1.388 . S
C243 C242 1.443 . S
C244 N224 1.433 . S
C244 C245 1.363 . S
C244 C249 1.370 . S
C245 H213 0.929 . S
C245 C244 1.363 . S
C245 C246 1.385 . S
C246 H214 0.930 . S
C246 C245 1.385 . S
C246 C247 1.357 . S
C247 C246 1.357 . S
C247 C248 1.406 . S
C248 H215 0.929 . S
C248 C247 1.406 . S
C248 C249 1.391 . S
C249 H216 0.931 . S
C249 C244 1.370 . S
C249 C248 1.391 . S
C250 N224 1.435 . S
C250 C251 1.358 . S
C250 C255 1.371 . S
C251 H217 0.930 . S
C251 C250 1.358 . S
C251 C252 1.405 . S
C252 H218 0.932 . S
C252 C251 1.405 . S
C252 C253 1.383 . S
C253 C252 1.383 . S
C253 C254 1.393 . S
C254 H219 0.931 . S
C254 C253 1.393 . S
C254 C255 1.382 . S
C255 H220 0.929 . S
C255 C250 1.371 . S
C255 C254 1.382 . S
C256 N224 1.423 . S
C256 C257 1.362 . S
C256 C261 1.388 . S
C257 H221 0.929 . S
C257 C256 1.362 . S
C257 C258 1.376 . S
C258 H222 0.931 . S
C258 C257 1.376 . S
C258 C259 1.396 . S
C259 C241 1.472 . S
C259 C258 1.396 . S
C259 C260 1.348 . S
C260 H223 0.929 . S
C260 C259 1.348 . S
C260 C261 1.443 . S
C261 H225 0.932 . S
C261 C256 1.388 . S
C261 C260 1.443 . S
H262 C289 0.929 . S
N263 C288 1.433 . S
N263 C294 1.435 . S
N263 C300 1.423 . S
H264 C290 0.930 . S
H265 C293 0.931 . S
H266 C292 0.929 . S
H267 C295 0.930 . S
H268 C296 0.932 . S
H269 C299 0.929 . S
H270 C298 0.931 . S
H271 C301 0.929 . S
H272 C305 0.932 . S
H273 C302 0.931 . S
H274 C304 0.929 . S
H275 C307 0.929 . S
H276 C308 0.930 . S
H277 C310 0.929 . S
H278 C311 0.931 . S
H279 C313 0.930 . S
H280 C314 0.932 . S
H281 C316 0.931 . S
H282 C317 0.929 . S
H283 C319 0.929 . S
H284 C320 0.931 . S
H285 C322 0.929 . S
N286 C306 1.433 . S
N286 C312 1.435 . S
N286 C318 1.423 . S
H287 C323 0.932 . S
C288 N263 1.433 . S
C288 C289 1.363 . S
C288 C293 1.370 . S
C289 H262 0.929 . S
C289 C288 1.363 . S
C289 C290 1.385 . S
C290 H264 0.930 . S
C290 C289 1.385 . S
C290 C291 1.357 . S
C291 C290 1.357 . S
C291 C292 1.406 . S
C292 H266 0.929 . S
C292 C291 1.406 . S
C292 C293 1.391 . S
C293 H265 0.931 . S
C293 C288 1.370 . S
C293 C292 1.391 . S
C294 N263 1.435 . S
C294 C295 1.358 . S
C294 C299 1.371 . S
C295 H267 0.930 . S
C295 C294 1.358 . S
C295 C296 1.405 . S
C296 H268 0.932 . S
C296 C295 1.405 . S
C296 C297 1.383 . S
C297 C296 1.383 . S
C297 C298 1.393 . S
C298 H270 0.931 . S
C298 C297 1.393 . S
C298 C299 1.382 . S
C299 H269 0.929 . S
C299 C294 1.371 . S
C299 C298 1.382 . S
C300 N263 1.423 . S
C300 C301 1.362 . S
C300 C305 1.388 . S
C301 H271 0.929 . S
C301 C300 1.362 . S
C301 C302 1.376 . S
C302 H273 0.931 . S
C302 C301 1.376 . S
C302 C303 1.396 . S
C303 C302 1.396 . S
C303 C304 1.348 . S
C303 C321 1.472 . S
C304 H274 0.929 . S
C304 C303 1.348 . S
C304 C305 1.443 . S
C305 H272 0.932 . S
C305 C300 1.388 . S
C305 C304 1.443 . S
C306 N286 1.433 . S
C306 C307 1.363 . S
C306 C311 1.370 . S
C307 H275 0.929 . S
C307 C306 1.363 . S
C307 C308 1.385 . S
C308 H276 0.930 . S
C308 C307 1.385 . S
C308 C309 1.357 . S
C309 C308 1.357 . S
C309 C310 1.406 . S
C310 H277 0.929 . S
C310 C309 1.406 . S
C310 C311 1.391 . S
C311 H278 0.931 . S
C311 C306 1.370 . S
C311 C310 1.391 . S
C312 N286 1.435 . S
C312 C313 1.358 . S
C312 C317 1.371 . S
C313 H279 0.930 . S
C313 C312 1.358 . S
C313 C314 1.405 . S
C314 H280 0.932 . S
C314 C313 1.405 . S
C314 C315 1.383 . S
C315 C314 1.383 . S
C315 C316 1.393 . S
C316 H281 0.931 . S
C316 C315 1.393 . S
C316 C317 1.382 . S
C317 H282 0.929 . S
C317 C312 1.371 . S
C317 C316 1.382 . S
C318 N286 1.423 . S
C318 C319 1.362 . S
C318 C323 1.388 . S
C319 H283 0.929 . S
C319 C318 1.362 . S
C319 C320 1.376 . S
C320 H284 0.931 . S
C320 C319 1.376 . S
C320 C321 1.396 . S
C321 C303 1.472 . S
C321 C320 1.396 . S
C321 C322 1.348 . S
C322 H285 0.929 . S
C322 C321 1.348 . S
C322 C323 1.443 . S
C323 H287 0.932 . S
C323 C318 1.388 . S
C323 C322 1.443 . S
H324 C351 0.929 . S
N325 C350 1.433 . S
N325 C356 1.435 . S
N325 C362 1.423 . S
H326 C352 0.930 . S
H327 C355 0.931 . S
H328 C354 0.929 . S
H329 C357 0.930 . S
H330 C358 0.932 . S
H331 C361 0.929 . S
H332 C360 0.931 . S
H333 C363 0.929 . S
H334 C367 0.932 . S
H335 C364 0.931 . S
H336 C366 0.929 . S
H337 C369 0.929 . S
H338 C370 0.930 . S
H339 C372 0.929 . S
H340 C373 0.931 . S
H341 C375 0.930 . S
H342 C376 0.932 . S
H343 C378 0.931 . S
H344 C379 0.929 . S
H345 C381 0.929 . S
H346 C382 0.931 . S
H347 C384 0.929 . S
N348 C368 1.433 . S
N348 C374 1.435 . S
N348 C380 1.423 . S
H349 C385 0.932 . S
C350 N325 1.433 . S
C350 C351 1.363 . S
C350 C355 1.370 . S
C351 H324 0.929 . S
C351 C350 1.363 . S
C351 C352 1.385 . S
C352 H326 0.930 . S
C352 C351 1.385 . S
C352 C353 1.357 . S
C353 C352 1.357 . S
C353 C354 1.406 . S
C354 H328 0.929 . S
C354 C353 1.406 . S
C354 C355 1.391 . S
C355 H327 0.931 . S
C355 C350 1.370 . S
C355 C354 1.391 . S
C356 N325 1.435 . S
C356 C357 1.358 . S
C356 C361 1.371 . S
C357 H329 0.930 . S
C357 C356 1.358 . S
C357 C358 1.405 . S
C358 H330 0.932 . S
C358 C357 1.405 . S
C358 C359 1.383 . S
C359 C358 1.383 . S
C359 C360 1.393 . S
C360 H332 0.931 . S
C360 C359 1.393 . S
C360 C361 1.382 . S
C361 H331 0.929 . S
C361 C356 1.371 . S
C361 C360 1.382 . S
C362 N325 1.423 . S
C362 C363 1.362 . S
C362 C367 1.388 . S
C363 H333 0.929 . S
C363 C362 1.362 . S
C363 C364 1.376 . S
C364 H335 0.931 . S
C364 C363 1.376 . S
C364 C365 1.396 . S
C365 C364 1.396 . S
C365 C366 1.348 . S
C365 C383 1.472 . S
C366 H336 0.929 . S
C366 C365 1.348 . S
C366 C367 1.443 . S
C367 H334 0.932 . S
C367 C362 1.388 . S
C367 C366 1.443 . S
C368 N348 1.433 . S
C368 C369 1.363 . S
C368 C373 1.370 . S
C369 H337 0.929 . S
C369 C368 1.363 . S
C369 C370 1.385 . S
C370 H338 0.930 . S
C370 C369 1.385 . S
C370 C371 1.357 . S
C371 C370 1.357 . S
C371 C372 1.406 . S
C372 H339 0.929 . S
C372 C371 1.406 . S
C372 C373 1.391 . S
C373 H340 0.931 . S
C373 C368 1.370 . S
C373 C372 1.391 . S
C374 N348 1.435 . S
C374 C375 1.358 . S
C374 C379 1.371 . S
C375 H341 0.930 . S
C375 C374 1.358 . S
C375 C376 1.405 . S
C376 H342 0.932 . S
C376 C375 1.405 . S
C376 C377 1.383 . S
C377 C376 1.383 . S
C377 C378 1.393 . S
C378 H343 0.931 . S
C378 C377 1.393 . S
C378 C379 1.382 . S
C379 H344 0.929 . S
C379 C374 1.371 . S
C379 C378 1.382 . S
C380 N348 1.423 . S
C380 C381 1.362 . S
C380 C385 1.388 . S
C381 H345 0.929 . S
C381 C380 1.362 . S
C381 C382 1.376 . S
C382 H346 0.931 . S
C382 C381 1.376 . S
C382 C383 1.396 . S
C383 C365 1.472 . S
C383 C382 1.396 . S
C383 C384 1.348 . S
C384 H347 0.929 . S
C384 C383 1.348 . S
C384 C385 1.443 . S
C385 H349 0.932 . S
C385 C380 1.388 . S
C385 C384 1.443 . S
H386 C413 0.929 . S
N387 C412 1.433 . S
N387 C418 1.435 . S
N387 C424 1.423 . S
H388 C414 0.930 . S
H389 C417 0.931 . S
H390 C416 0.929 . S
H391 C419 0.930 . S
H392 C420 0.932 . S
H393 C423 0.929 . S
H394 C422 0.931 . S
H395 C425 0.929 . S
H396 C429 0.932 . S
H397 C426 0.931 . S
H398 C428 0.929 . S
H399 C431 0.929 . S
H400 C432 0.930 . S
H401 C434 0.929 . S
H402 C435 0.931 . S
H403 C437 0.930 . S
H404 C438 0.932 . S
H405 C440 0.931 . S
H406 C441 0.929 . S
H407 C443 0.929 . S
H408 C444 0.931 . S
H409 C446 0.929 . S
N410 C430 1.433 . S
N410 C436 1.435 . S
N410 C442 1.423 . S
H411 C447 0.932 . S
C412 N387 1.433 . S
C412 C413 1.363 . S
C412 C417 1.370 . S
C413 H386 0.929 . S
C413 C412 1.363 . S
C413 C414 1.385 . S
C414 H388 0.930 . S
C414 C413 1.385 . S
C414 C415 1.357 . S
C415 C414 1.357 . S
C415 C416 1.406 . S
C416 H390 0.929 . S
C416 C415 1.406 . S
C416 C417 1.391 . S
C417 H389 0.931 . S
C417 C412 1.370 . S
C417 C416 1.391 . S
C418 N387 1.435 . S
C418 C419 1.358 . S
C418 C423 1.371 . S
C419 H391 0.930 . S
C419 C418 1.358 . S
C419 C420 1.405 . S
C420 H392 0.932 . S
C420 C419 1.405 . S
C420 C421 1.383 . S
C421 C420 1.383 . S
C421 C422 1.393 . S
C422 H394 0.931 . S
C422 C421 1.393 . S
C422 C423 1.382 . S
C423 H393 0.929 . S
C423 C418 1.371 . S
C423 C422 1.382 . S
C424 N387 1.423 . S
C424 C425 1.362 . S
C424 C429 1.388 . S
C425 H395 0.929 . S
C425 C424 1.362 . S
C425 C426 1.376 . S
C426 H397 0.931 . S
C426 C425 1.376 . S
C426 C427 1.396 . S
C427 C426 1.396 . S
C427 C428 1.348 . S
C427 C445 1.472 . S
C428 H398 0.929 . S
C428 C427 1.348 . S
C428 C429 1.443 . S
C429 H396 0.932 . S
C429 C424 1.388 . S
C429 C428 1.443 . S
C430 N410 1.433 . S
C430 C431 1.363 . S
C430 C435 1.370 . S
C431 H399 0.929 . S
C431 C430 1.363 . S
C431 C432 1.385 . S
C432 H400 0.930 . S
C432 C431 1.385 . S
C432 C433 1.357 . S
C433 C432 1.357 . S
C433 C434 1.406 . S
C434 H401 0.929 . S
C434 C433 1.406 . S
C434 C435 1.391 . S
C435 H402 0.931 . S
C435 C430 1.370 . S
C435 C434 1.391 . S
C436 N410 1.435 . S
C436 C437 1.358 . S
C436 C441 1.371 . S
C437 H403 0.930 . S
C437 C436 1.358 . S
C437 C438 1.405 . S
C438 H404 0.932 . S
C438 C437 1.405 . S
C438 C439 1.383 . S
C439 C438 1.383 . S
C439 C440 1.393 . S
C440 H405 0.931 . S
C440 C439 1.393 . S
C440 C441 1.382 . S
C441 H406 0.929 . S
C441 C436 1.371 . S
C441 C440 1.382 . S
C442 N410 1.423 . S
C442 C443 1.362 . S
C442 C447 1.388 . S
C443 H407 0.929 . S
C443 C442 1.362 . S
C443 C444 1.376 . S
C444 H408 0.931 . S
C444 C443 1.376 . S
C444 C445 1.396 . S
C445 C427 1.472 . S
C445 C444 1.396 . S
C445 C446 1.348 . S
C446 H409 0.929 . S
C446 C445 1.348 . S
C446 C447 1.443 . S
C447 H411 0.932 . S
C447 C442 1.388 . S
C447 C446 1.443 . S
H448 C475 0.929 . S
N449 C474 1.433 . S
N449 C480 1.435 . S
N449 C486 1.423 . S
H450 C476 0.930 . S
H451 C479 0.931 . S
H452 C478 0.929 . S
H453 C481 0.930 . S
H454 C482 0.932 . S
H455 C485 0.929 . S
H456 C484 0.931 . S
H457 C487 0.929 . S
H458 C491 0.932 . S
H459 C488 0.931 . S
H460 C490 0.929 . S
H461 C493 0.929 . S
H462 C494 0.930 . S
H463 C496 0.929 . S
H464 C497 0.931 . S
H465 C499 0.930 . S
H466 C500 0.932 . S
H467 C502 0.931 . S
H468 C503 0.929 . S
H469 C505 0.929 . S
H470 C506 0.931 . S
H471 C508 0.929 . S
N472 C492 1.433 . S
N472 C498 1.435 . S
N472 C504 1.423 . S
H473 C509 0.932 . S
C474 N449 1.433 . S
C474 C475 1.363 . S
C474 C479 1.370 . S
C475 H448 0.929 . S
C475 C474 1.363 . S
C475 C476 1.385 . S
C476 H450 0.930 . S
C476 C475 1.385 . S
C476 C477 1.357 . S
C477 C476 1.357 . S
C477 C478 1.406 . S
C478 H452 0.929 . S
C478 C477 1.406 . S
C478 C479 1.391 . S
C479 H451 0.931 . S
C479 C474 1.370 . S
C479 C478 1.391 . S
C480 N449 1.435 . S
C480 C481 1.358 . S
C480 C485 1.371 . S
C481 H453 0.930 . S
C481 C480 1.358 . S
C481 C482 1.405 . S
C482 H454 0.932 . S
C482 C481 1.405 . S
C482 C483 1.383 . S
C483 C482 1.383 . S
C483 C484 1.393 . S
C484 H456 0.931 . S
C484 C483 1.393 . S
C484 C485 1.382 . S
C485 H455 0.929 . S
C485 C480 1.371 . S
C485 C484 1.382 . S
C486 N449 1.423 . S
C486 C487 1.362 . S
C486 C491 1.388 . S
C487 H457 0.929 . S
C487 C486 1.362 . S
C487 C488 1.376 . S
C488 H459 0.931 . S
C488 C487 1.376 . S
C488 C489 1.396 . S
C489 C488 1.396 . S
C489 C490 1.348 . S
C489 C507 1.472 . S
C490 H460 0.929 . S
C490 C489 1.348 . S
C490 C491 1.443 . S
C491 H458 0.932 . S
C491 C486 1.388 . S
C491 C490 1.443 . S
C492 N472 1.433 . S
C492 C493 1.363 . S
C492 C497 1.370 . S
C493 H461 0.929 . S
C493 C492 1.363 . S
C493 C494 1.385 . S
C494 H462 0.930 . S
C494 C493 1.385 . S
C494 C495 1.357 . S
C495 C494 1.357 . S
C495 C496 1.406 . S
C496 H463 0.929 . S
C496 C495 1.406 . S
C496 C497 1.391 . S
C497 H464 0.931 . S
C497 C492 1.370 . S
C497 C496 1.391 . S
C498 N472 1.435 . S
C498 C499 1.358 . S
C498 C503 1.371 . S
C499 H465 0.930 . S
C499 C498 1.358 . S
C499 C500 1.405 . S
C500 H466 0.932 . S
C500 C499 1.405 . S
C500 C501 1.383 . S
C501 C500 1.383 . S
C501 C502 1.393 . S
C502 H467 0.931 . S
C502 C501 1.393 . S
C502 C503 1.382 . S
C503 H468 0.929 . S
C503 C498 1.371 . S
C503 C502 1.382 . S
C504 N472 1.423 . S
C504 C505 1.362 . S
C504 C509 1.388 . S
C505 H469 0.929 . S
C505 C504 1.362 . S
C505 C506 1.376 . S
C506 H470 0.931 . S
C506 C505 1.376 . S
C506 C507 1.396 . S
C507 C489 1.472 . S
C507 C506 1.396 . S
C507 C508 1.348 . S
C508 H471 0.929 . S
C508 C507 1.348 . S
C508 C509 1.443 . S
C509 H473 0.932 . S
C509 C504 1.388 . S
C509 C508 1.443 . S
C510 C511 1.349 . S
C510 C512 1.327 . S
C510 H535 0.950 . S
C511 C510 1.349 . S
C511 C527 1.349 . S
C512 C510 1.327 . S
C512 C531 1.429 . S
C512 H536 0.950 . S
C513 C530 1.574 . S
C513 C532 1.368 . S
C513 H537 0.949 . S
H514 C518 0.949 . S
C515 C516 1.349 . S
C515 C517 1.327 . S
C515 H538 0.950 . S
C516 C515 1.349 . S
C516 C528 1.349 . S
C517 C515 1.327 . S
C517 C533 1.429 . S
C517 H539 0.950 . S
C518 H514 0.949 . S
C518 C526 1.574 . S
C518 C534 1.368 . S
H519 C527 0.950 . S
H520 C525 0.950 . S
H521 C526 0.949 . S
H522 C528 0.950 . S
H523 C529 0.950 . S
H524 C530 0.949 . S
C525 H520 0.950 . S
C525 C527 1.327 . S
C525 C531 1.429 . S
C526 C518 1.574 . S
C526 H521 0.949 . S
C526 C532 1.368 . S
C527 C511 1.349 . S
C527 H519 0.950 . S
C527 C525 1.327 . S
C528 C516 1.349 . S
C528 H522 0.950 . S
C528 C529 1.327 . S
C529 H523 0.950 . S
C529 C528 1.327 . S
C529 C533 1.429 . S
C530 C513 1.574 . S
C530 H524 0.949 . S
C530 C534 1.368 . S
C531 C512 1.429 . S
C531 C525 1.429 . S
C531 C532 1.523 . S
C532 C513 1.368 . S
C532 C526 1.368 . S
C532 C531 1.523 . S
C533 C517 1.429 . S
C533 C529 1.429 . S
C533 C534 1.523 . S
C534 C518 1.368 . S
C534 C530 1.368 . S
C534 C533 1.523 . S
H535 C510 0.950 . S
H536 C512 0.950 . S
H537 C513 0.949 . S
H538 C515 0.950 . S
H539 C517 0.950 . S
C540 C541 1.349 . S
C540 C542 1.327 . S
C540 H565 0.950 . S
C541 C540 1.349 . S
C541 C557 1.349 . S
C542 C540 1.327 . S
C542 C561 1.429 . S
C542 H566 0.950 . S
C543 C560 1.574 . S
C543 C562 1.368 . S
C543 H567 0.949 . S
H544 C548 0.949 . S
C545 C546 1.349 . S
C545 C547 1.327 . S
C545 H568 0.950 . S
C546 C545 1.349 . S
C546 C558 1.349 . S
C547 C545 1.327 . S
C547 C563 1.429 . S
C547 H569 0.950 . S
C548 H544 0.949 . S
C548 C556 1.574 . S
C548 C564 1.368 . S
H549 C557 0.950 . S
H550 C555 0.950 . S
H551 C556 0.949 . S
H552 C558 0.950 . S
H553 C559 0.950 . S
H554 C560 0.949 . S
C555 H550 0.950 . S
C555 C557 1.327 . S
C555 C561 1.429 . S
C556 C548 1.574 . S
C556 H551 0.949 . S
C556 C562 1.368 . S
C557 C541 1.349 . S
C557 H549 0.950 . S
C557 C555 1.327 . S
C558 C546 1.349 . S
C558 H552 0.950 . S
C558 C559 1.327 . S
C559 H553 0.950 . S
C559 C558 1.327 . S
C559 C563 1.429 . S
C560 C543 1.574 . S
C560 H554 0.949 . S
C560 C564 1.368 . S
C561 C542 1.429 . S
C561 C555 1.429 . S
C561 C562 1.523 . S
C562 C543 1.368 . S
C562 C556 1.368 . S
C562 C561 1.523 . S
C563 C547 1.429 . S
C563 C559 1.429 . S
C563 C564 1.523 . S
C564 C548 1.368 . S
C564 C560 1.368 . S
C564 C563 1.523 . S
H565 C540 0.950 . S
H566 C542 0.950 . S
H567 C543 0.949 . S
H568 C545 0.950 . S
H569 C547 0.950 . S
C570 C571 1.349 . S
C570 C572 1.327 . S
C570 H595 0.950 . S
C571 C570 1.349 . S
C571 C587 1.349 . S
C572 C570 1.327 . S
C572 C591 1.429 . S
C572 H596 0.950 . S
C573 C590 1.574 . S
C573 C592 1.368 . S
C573 H597 0.949 . S
H574 C578 0.949 . S
C575 C576 1.349 . S
C575 C577 1.327 . S
C575 H598 0.950 . S
C576 C575 1.349 . S
C576 C588 1.349 . S
C577 C575 1.327 . S
C577 C593 1.429 . S
C577 H599 0.950 . S
C578 H574 0.949 . S
C578 C586 1.574 . S
C578 C594 1.368 . S
H579 C587 0.950 . S
H580 C585 0.950 . S
H581 C586 0.949 . S
H582 C588 0.950 . S
H583 C589 0.950 . S
H584 C590 0.949 . S
C585 H580 0.950 . S
C585 C587 1.327 . S
C585 C591 1.429 . S
C586 C578 1.574 . S
C586 H581 0.949 . S
C586 C592 1.368 . S
C587 C571 1.349 . S
C587 H579 0.950 . S
C587 C585 1.327 . S
C588 C576 1.349 . S
C588 H582 0.950 . S
C588 C589 1.327 . S
C589 H583 0.950 . S
C589 C588 1.327 . S
C589 C593 1.429 . S
C590 C573 1.574 . S
C590 H584 0.949 . S
C590 C594 1.368 . S
C591 C572 1.429 . S
C591 C585 1.429 . S
C591 C592 1.523 . S
C592 C573 1.368 . S
C592 C586 1.368 . S
C592 C591 1.523 . S
C593 C577 1.429 . S
C593 C589 1.429 . S
C593 C594 1.523 . S
C594 C578 1.368 . S
C594 C590 1.368 . S
C594 C593 1.523 . S
H595 C570 0.950 . S
H596 C572 0.950 . S
H597 C573 0.949 . S
H598 C575 0.950 . S
H599 C577 0.950 . S
C600 C601 1.349 1_455 S
C600 C602 1.327 1_455 S
C600 H625 0.950 . S
C601 C600 1.349 1_655 S
C601 C617 1.349 . S
C602 C600 1.327 1_655 S
C602 C621 1.429 . S
C602 H626 0.950 . S
C603 C620 1.574 . S
C603 C622 1.368 . S
C603 H627 0.949 . S
H604 C608 0.949 . S
C605 C606 1.349 . S
C605 C607 1.327 . S
C605 H628 0.950 . S
C606 C605 1.349 . S
C606 C618 1.349 . S
C607 C605 1.327 . S
C607 C623 1.429 . S
C607 H629 0.950 . S
C608 H604 0.949 . S
C608 C616 1.574 . S
C608 C624 1.368 . S
H609 C617 0.950 . S
H610 C615 0.950 . S
H611 C616 0.949 . S
H612 C618 0.950 . S
H613 C619 0.950 . S
H614 C620 0.949 . S
C615 H610 0.950 . S
C615 C617 1.327 . S
C615 C621 1.429 . S
C616 C608 1.574 . S
C616 H611 0.949 . S
C616 C622 1.368 . S
C617 C601 1.349 . S
C617 H609 0.950 . S
C617 C615 1.327 . S
C618 C606 1.349 . S
C618 H612 0.950 . S
C618 C619 1.327 . S
C619 H613 0.950 . S
C619 C618 1.327 . S
C619 C623 1.429 . S
C620 C603 1.574 . S
C620 H614 0.949 . S
C620 C624 1.368 . S
C621 C602 1.429 . S
C621 C615 1.429 . S
C621 C622 1.523 . S
C622 C603 1.368 . S
C622 C616 1.368 . S
C622 C621 1.523 . S
C623 C607 1.429 . S
C623 C619 1.429 . S
C623 C624 1.523 . S
C624 C608 1.368 . S
C624 C620 1.368 . S
C624 C623 1.523 . S
H625 C600 0.950 . S
H626 C602 0.950 . S
H627 C603 0.949 . S
H628 C605 0.950 . S
H629 C607 0.950 . S
C630 C631 1.349 . S
C630 C632 1.327 . S
C630 H655 0.950 . S
C631 C630 1.349 . S
C631 C647 1.349 . S
C632 C630 1.327 . S
C632 C651 1.429 . S
C632 H656 0.950 . S
C633 C650 1.574 . S
C633 C652 1.368 . S
C633 H657 0.949 . S
H634 C638 0.949 . S
C635 C636 1.349 . S
C635 C637 1.327 . S
C635 H658 0.950 . S
C636 C635 1.349 . S
C636 C648 1.349 . S
C637 C635 1.327 . S
C637 C653 1.429 . S
C637 H659 0.950 . S
C638 H634 0.949 . S
C638 C646 1.574 . S
C638 C654 1.368 . S
H639 C647 0.950 . S
H640 C645 0.950 . S
H641 C646 0.949 . S
H642 C648 0.950 . S
H643 C649 0.950 . S
H644 C650 0.949 . S
C645 H640 0.950 . S
C645 C647 1.327 . S
C645 C651 1.429 . S
C646 C638 1.574 . S
C646 H641 0.949 . S
C646 C652 1.368 . S
C647 C631 1.349 . S
C647 H639 0.950 . S
C647 C645 1.327 . S
C648 C636 1.349 . S
C648 H642 0.950 . S
C648 C649 1.327 . S
C649 H643 0.950 . S
C649 C648 1.327 . S
C649 C653 1.429 . S
C650 C633 1.574 . S
C650 H644 0.949 . S
C650 C654 1.368 . S
C651 C632 1.429 . S
C651 C645 1.429 . S
C651 C652 1.523 . S
C652 C633 1.368 . S
C652 C646 1.368 . S
C652 C651 1.523 . S
C653 C637 1.429 . S
C653 C649 1.429 . S
C653 C654 1.523 . S
C654 C638 1.368 . S
C654 C650 1.368 . S
C654 C653 1.523 . S
H655 C630 0.950 . S
H656 C632 0.950 . S
H657 C633 0.949 . S
H658 C635 0.950 . S
H659 C637 0.950 . S
C660 C661 1.349 . S
C660 C662 1.327 . S
C660 H685 0.950 . S
C661 C660 1.349 . S
C661 C677 1.349 . S
C662 C660 1.327 . S
C662 C681 1.429 . S
C662 H686 0.950 . S
C663 C680 1.574 . S
C663 C682 1.368 . S
C663 H687 0.949 . S
H664 C668 0.949 . S
C665 C666 1.349 . S
C665 C667 1.327 . S
C665 H688 0.950 . S
C666 C665 1.349 . S
C666 C678 1.349 . S
C667 C665 1.327 . S
C667 C683 1.429 . S
C667 H689 0.950 . S
C668 H664 0.949 . S
C668 C676 1.574 . S
C668 C684 1.368 . S
H669 C677 0.950 . S
H670 C675 0.950 . S
H671 C676 0.949 . S
H672 C678 0.950 . S
H673 C679 0.950 . S
H674 C680 0.949 . S
C675 H670 0.950 . S
C675 C677 1.327 . S
C675 C681 1.429 . S
C676 C668 1.574 . S
C676 H671 0.949 . S
C676 C682 1.368 . S
C677 C661 1.349 . S
C677 H669 0.950 . S
C677 C675 1.327 . S
C678 C666 1.349 . S
C678 H672 0.950 . S
C678 C679 1.327 . S
C679 H673 0.950 . S
C679 C678 1.327 . S
C679 C683 1.429 . S
C680 C663 1.574 . S
C680 H674 0.949 . S
C680 C684 1.368 . S
C681 C662 1.429 . S
C681 C675 1.429 . S
C681 C682 1.523 . S
C682 C663 1.368 . S
C682 C676 1.368 . S
C682 C681 1.523 . S
C683 C667 1.429 . S
C683 C679 1.429 . S
C683 C684 1.523 . S
C684 C668 1.368 . S
C684 C680 1.368 . S
C684 C683 1.523 . S
H685 C660 0.950 . S
H686 C662 0.950 . S
H687 C663 0.949 . S
H688 C665 0.950 . S
H689 C667 0.950 . S
C690 C691 1.349 . S
C690 C692 1.327 . S
C690 H715 0.950 . S
C691 C690 1.349 . S
C691 C707 1.349 . S
C692 C690 1.327 . S
C692 C711 1.429 . S
C692 H716 0.950 . S
C693 C710 1.574 . S
C693 C712 1.368 . S
C693 H717 0.949 . S
H694 C698 0.949 . S
C695 C696 1.349 . S
C695 C697 1.327 . S
C695 H718 0.950 . S
C696 C695 1.349 . S
C696 C708 1.349 . S
C697 C695 1.327 . S
C697 C713 1.429 . S
C697 H719 0.950 . S
C698 H694 0.949 . S
C698 C706 1.574 . S
C698 C714 1.368 . S
H699 C707 0.950 . S
H700 C705 0.950 . S
H701 C706 0.949 . S
H702 C708 0.950 . S
H703 C709 0.950 . S
H704 C710 0.949 . S
C705 H700 0.950 . S
C705 C707 1.327 . S
C705 C711 1.429 . S
C706 C698 1.574 . S
C706 H701 0.949 . S
C706 C712 1.368 . S
C707 C691 1.349 . S
C707 H699 0.950 . S
C707 C705 1.327 . S
C708 C696 1.349 . S
C708 H702 0.950 . S
C708 C709 1.327 . S
C709 H703 0.950 . S
C709 C708 1.327 . S
C709 C713 1.429 . S
C710 C693 1.574 . S
C710 H704 0.949 . S
C710 C714 1.368 . S
C711 C692 1.429 . S
C711 C705 1.429 . S
C711 C712 1.523 . S
C712 C693 1.368 . S
C712 C706 1.368 . S
C712 C711 1.523 . S
C713 C697 1.429 . S
C713 C709 1.429 . S
C713 C714 1.523 . S
C714 C698 1.368 . S
C714 C710 1.368 . S
C714 C713 1.523 . S
H715 C690 0.950 . S
H716 C692 0.950 . S
H717 C693 0.949 . S
H718 C695 0.950 . S
H719 C697 0.950 . S
C720 C721 1.349 . S
C720 C722 1.327 . S
C720 H745 0.950 . S
C721 C720 1.349 . S
C721 C737 1.349 . S
C722 C720 1.327 . S
C722 C741 1.429 . S
C722 H746 0.950 . S
C723 C740 1.574 . S
C723 C742 1.368 . S
C723 H747 0.949 . S
H724 C728 0.949 . S
C725 C726 1.349 . S
C725 C727 1.327 . S
C725 H748 0.950 . S
C726 C725 1.349 . S
C726 C738 1.349 . S
C727 C725 1.327 . S
C727 C743 1.429 . S
C727 H749 0.950 . S
C728 H724 0.949 . S
C728 C736 1.574 . S
C728 C744 1.368 . S
H729 C737 0.946 1_554 S
H730 C735 0.950 . S
H731 C736 0.949 . S
H732 C738 0.950 . S
H733 C739 0.950 . S
H734 C740 0.949 . S
C735 H730 0.950 . S
C735 C737 1.327 . S
C735 C741 1.429 . S
C736 C728 1.574 . S
C736 H731 0.949 . S
C736 C742 1.368 . S
C737 C721 1.349 . S
C737 H729 0.946 1_556 S
C737 C735 1.327 . S
C738 C726 1.349 . S
C738 H732 0.950 . S
C738 C739 1.327 . S
C739 H733 0.950 . S
C739 C738 1.327 . S
C739 C743 1.429 . S
C740 C723 1.574 . S
C740 H734 0.949 . S
C740 C744 1.368 . S
C741 C722 1.429 . S
C741 C735 1.429 . S
C741 C742 1.523 . S
C742 C723 1.368 . S
C742 C736 1.368 . S
C742 C741 1.523 . S
C743 C727 1.429 . S
C743 C739 1.429 . S
C743 C744 1.523 . S
C744 C728 1.368 . S
C744 C740 1.368 . S
C744 C743 1.523 . S
H745 C720 0.950 . S
H746 C722 0.950 . S
H747 C723 0.949 . S
H748 C725 0.950 . S
H749 C727 0.950 . S
C750 C751 1.349 . S
C750 C752 1.327 . S
C750 H775 0.950 . S
C751 C750 1.349 . S
C751 C767 1.349 . S
C752 C750 1.327 . S
C752 C771 1.429 . S
C752 H776 0.950 . S
C753 C770 1.574 . S
C753 C772 1.368 . S
C753 H777 0.949 . S
H754 C758 0.949 . S
C755 C756 1.349 . S
C755 C757 1.327 . S
C755 H778 0.950 . S
C756 C755 1.349 . S
C756 C768 1.349 . S
C757 C755 1.327 . S
C757 C773 1.429 . S
C757 H779 0.950 . S
C758 H754 0.949 . S
C758 C766 1.574 . S
C758 C774 1.368 . S
H759 C767 0.950 . S
H760 C765 0.950 . S
H761 C766 0.949 . S
H762 C768 0.950 . S
H763 C769 0.950 . S
H764 C770 0.949 . S
C765 H760 0.950 . S
C765 C767 1.327 . S
C765 C771 1.429 . S
C766 C758 1.574 . S
C766 H761 0.949 . S
C766 C772 1.368 . S
C767 C751 1.349 . S
C767 H759 0.950 . S
C767 C765 1.327 . S
C768 C756 1.349 . S
C768 H762 0.950 . S
C768 C769 1.327 . S
C769 H763 0.950 . S
C769 C768 1.327 . S
C769 C773 1.429 . S
C770 C753 1.574 . S
C770 H764 0.949 . S
C770 C774 1.368 . S
C771 C752 1.429 . S
C771 C765 1.429 . S
C771 C772 1.523 . S
C772 C753 1.368 . S
C772 C766 1.368 . S
C772 C771 1.523 . S
C773 C757 1.429 . S
C773 C769 1.429 . S
C773 C774 1.523 . S
C774 C758 1.368 . S
C774 C770 1.368 . S
C774 C773 1.523 . S
H775 C750 0.950 . S
H776 C752 0.950 . S
H777 C753 0.949 . S
H778 C755 0.950 . S
H779 C757 0.950 . S
C780 C781 1.349 . S
C780 C782 1.327 . S
C780 H805 0.950 . S
C781 C780 1.349 . S
C781 C797 1.349 . S
C782 C780 1.327 . S
C782 C801 1.429 . S
C782 H806 0.950 . S
C783 C800 1.574 . S
C783 C802 1.368 . S
C783 H807 0.949 . S
H784 C788 0.949 . S
C785 C786 1.349 . S
C785 C787 1.327 . S
C785 H808 0.950 . S
C786 C785 1.349 . S
C786 C798 1.349 . S
C787 C785 1.327 . S
C787 C803 1.429 . S
C787 H809 0.950 . S
C788 H784 0.949 . S
C788 C796 1.574 . S
C788 C804 1.368 . S
H789 C797 0.950 . S
H790 C795 0.950 . S
H791 C796 0.949 . S
H792 C798 0.950 . S
H793 C799 0.950 . S
H794 C800 0.949 . S
C795 H790 0.950 . S
C795 C797 1.327 . S
C795 C801 1.429 . S
C796 C788 1.574 . S
C796 H791 0.949 . S
C796 C802 1.368 . S
C797 C781 1.349 . S
C797 H789 0.950 . S
C797 C795 1.327 . S
C798 C786 1.349 . S
C798 H792 0.950 . S
C798 C799 1.327 . S
C799 H793 0.950 . S
C799 C798 1.327 . S
C799 C803 1.429 . S
C800 C783 1.574 . S
C800 H794 0.949 . S
C800 C804 1.368 . S
C801 C782 1.429 . S
C801 C795 1.429 . S
C801 C802 1.523 . S
C802 C783 1.368 . S
C802 C796 1.368 . S
C802 C801 1.523 . S
C803 C787 1.429 . S
C803 C799 1.429 . S
C803 C804 1.523 . S
C804 C788 1.368 . S
C804 C800 1.368 . S
C804 C803 1.523 . S
H805 C780 0.950 . S
H806 C782 0.950 . S
H807 C783 0.949 . S
H808 C785 0.950 . S
H809 C787 0.950 . S
C810 C811 1.349 . S
C810 C812 1.327 . S
C810 H835 0.950 . S
C811 C810 1.349 . S
C811 C827 1.349 . S
C812 C810 1.327 . S
C812 C831 1.429 . S
C812 H836 0.950 . S
C813 C830 1.574 . S
C813 C832 1.368 . S
C813 H837 0.949 . S
H814 C818 0.949 . S
C815 C816 1.349 . S
C815 C817 1.327 . S
C815 H838 0.950 . S
C816 C815 1.349 . S
C816 C828 1.349 . S
C817 C815 1.327 . S
C817 C833 1.429 . S
C817 H839 0.950 . S
C818 H814 0.949 . S
C818 C826 1.574 . S
C818 C834 1.368 . S
H819 C827 0.950 . S
H820 C825 0.950 . S
H821 C826 0.949 . S
H822 C828 0.950 . S
H823 C829 0.950 . S
H824 C830 0.949 . S
C825 H820 0.950 . S
C825 C827 1.327 . S
C825 C831 1.429 . S
C826 C818 1.574 . S
C826 H821 0.949 . S
C826 C832 1.368 . S
C827 C811 1.349 . S
C827 H819 0.950 . S
C827 C825 1.327 . S
C828 C816 1.349 . S
C828 H822 0.950 . S
C828 C829 1.327 . S
C829 H823 0.950 . S
C829 C828 1.327 . S
C829 C833 1.429 . S
C830 C813 1.574 . S
C830 H824 0.949 . S
C830 C834 1.368 . S
C831 C812 1.429 . S
C831 C825 1.429 . S
C831 C832 1.523 . S
C832 C813 1.368 . S
C832 C826 1.368 . S
C832 C831 1.523 . S
C833 C817 1.429 . S
C833 C829 1.429 . S
C833 C834 1.523 . S
C834 C818 1.368 . S
C834 C830 1.368 . S
C834 C833 1.523 . S
H835 C810 0.950 . S
H836 C812 0.950 . S
H837 C813 0.949 . S
H838 C815 0.950 . S
H839 C817 0.950 . S
C840 C841 1.349 . S
C840 C842 1.327 . S
C840 H865 0.950 . S
C841 C840 1.349 . S
C841 C857 1.349 . S
C842 C840 1.327 . S
C842 C861 1.429 . S
C842 H866 0.950 . S
C843 C860 1.574 . S
C843 C862 1.368 . S
C843 H867 0.949 . S
H844 C848 0.949 . S
C845 C846 1.349 . S
C845 C847 1.327 . S
C845 H868 0.950 . S
C846 C845 1.349 . S
C846 C858 1.349 . S
C847 C845 1.327 . S
C847 C863 1.429 . S
C847 H869 0.950 . S
C848 H844 0.949 . S
C848 C856 1.574 . S
C848 C864 1.368 . S
H849 C857 0.950 1_554 S
H850 C855 0.950 . S
H851 C856 0.949 . S
H852 C858 0.950 . S
H853 C859 0.950 . S
H854 C860 0.949 . S
C855 H850 0.950 . S
C855 C857 1.327 . S
C855 C861 1.429 . S
C856 C848 1.574 . S
C856 H851 0.949 . S
C856 C862 1.368 . S
C857 C841 1.349 . S
C857 H849 0.950 1_556 S
C857 C855 1.327 . S
C858 C846 1.349 . S
C858 H852 0.950 . S
C858 C859 1.327 . S
C859 H853 0.950 . S
C859 C858 1.327 . S
C859 C863 1.429 . S
C860 C843 1.574 . S
C860 H854 0.949 . S
C860 C864 1.368 . S
C861 C842 1.429 . S
C861 C855 1.429 . S
C861 C862 1.523 . S
C862 C843 1.368 . S
C862 C856 1.368 . S
C862 C861 1.523 . S
C863 C847 1.429 . S
C863 C859 1.429 . S
C863 C864 1.523 . S
C864 C848 1.368 . S
C864 C860 1.368 . S
C864 C863 1.523 . S
H865 C840 0.950 . S
H866 C842 0.950 . S
H867 C843 0.949 . S
H868 C845 0.950 . S
H869 C847 0.950 . S
C870 C871 1.349 . S
C870 C872 1.327 . S
C870 H895 0.950 . S
C871 C870 1.349 . S
C871 C887 1.349 . S
C872 C870 1.327 . S
C872 C891 1.429 . S
C872 H896 0.950 . S
C873 C890 1.574 . S
C873 C892 1.368 . S
C873 H897 0.949 . S
H874 C878 0.949 . S
C875 C876 1.349 . S
C875 C877 1.327 . S
C875 H898 0.950 . S
C876 C875 1.349 . S
C876 C888 1.349 . S
C877 C875 1.327 . S
C877 C893 1.429 . S
C877 H899 0.950 . S
C878 H874 0.949 . S
C878 C886 1.574 . S
C878 C894 1.368 . S
H879 C887 0.950 . S
H880 C885 0.950 . S
H881 C886 0.949 . S
H882 C888 0.950 . S
H883 C889 0.950 . S
H884 C890 0.949 . S
C885 H880 0.950 . S
C885 C887 1.327 . S
C885 C891 1.429 . S
C886 C878 1.574 . S
C886 H881 0.949 . S
C886 C892 1.368 . S
C887 C871 1.349 . S
C887 H879 0.950 . S
C887 C885 1.327 . S
C888 C876 1.349 . S
C888 H882 0.950 . S
C888 C889 1.327 . S
C889 H883 0.950 . S
C889 C888 1.327 . S
C889 C893 1.429 . S
C890 C873 1.574 . S
C890 H884 0.949 . S
C890 C894 1.368 . S
C891 C872 1.429 . S
C891 C885 1.429 . S
C891 C892 1.523 . S
C892 C873 1.368 . S
C892 C886 1.368 . S
C892 C891 1.523 . S
C893 C877 1.429 . S
C893 C889 1.429 . S
C893 C894 1.523 . S
C894 C878 1.368 . S
C894 C890 1.368 . S
C894 C893 1.523 . S
H895 C870 0.950 . S
H896 C872 0.950 . S
H897 C873 0.949 . S
H898 C875 0.950 . S
H899 C877 0.950 . S
C900 C901 1.349 . S
C900 C902 1.327 . S
C900 H925 0.950 . S
C901 C900 1.349 . S
C901 C917 1.349 . S
C902 C900 1.327 . S
C902 C921 1.429 . S
C902 H926 0.950 . S
C903 C920 1.574 . S
C903 C922 1.368 . S
C903 H927 0.949 . S
H904 C908 0.949 . S
C905 C906 1.349 . S
C905 C907 1.327 . S
C905 H928 0.950 . S
C906 C905 1.349 . S
C906 C918 1.349 . S
C907 C905 1.327 . S
C907 C923 1.429 . S
C907 H929 0.950 . S
C908 H904 0.949 . S
C908 C916 1.574 . S
C908 C924 1.368 . S
H909 C917 0.950 . S
H910 C915 0.950 . S
H911 C916 0.949 . S
H912 C918 0.950 . S
H913 C919 0.950 . S
H914 C920 0.949 . S
C915 H910 0.950 . S
C915 C917 1.327 . S
C915 C921 1.429 . S
C916 C908 1.574 . S
C916 H911 0.949 . S
C916 C922 1.368 . S
C917 C901 1.349 . S
C917 H909 0.950 . S
C917 C915 1.327 . S
C918 C906 1.349 . S
C918 H912 0.950 . S
C918 C919 1.327 . S
C919 H913 0.950 . S
C919 C918 1.327 . S
C919 C923 1.429 . S
C920 C903 1.574 . S
C920 H914 0.949 . S
C920 C924 1.368 . S
C921 C902 1.429 . S
C921 C915 1.429 . S
C921 C922 1.523 . S
C922 C903 1.368 . S
C922 C916 1.368 . S
C922 C921 1.523 . S
C923 C907 1.429 . S
C923 C919 1.429 . S
C923 C924 1.523 . S
C924 C908 1.368 . S
C924 C920 1.368 . S
C924 C923 1.523 . S
H925 C900 0.950 . S
H926 C902 0.950 . S
H927 C903 0.949 . S
H928 C905 0.950 . S
H929 C907 0.950 . S
C930 C931 1.349 . S
C930 C932 1.327 . S
C930 H955 0.950 . S
C931 C930 1.349 . S
C931 C947 1.349 . S
C932 C930 1.327 . S
C932 C951 1.429 . S
C932 H956 0.950 . S
C933 C950 1.574 . S
C933 C952 1.368 . S
C933 H957 0.949 . S
H934 C938 0.949 . S
C935 C936 1.349 . S
C935 C937 1.327 . S
C935 H958 0.950 . S
C936 C935 1.349 . S
C936 C948 1.349 . S
C937 C935 1.327 . S
C937 C953 1.429 . S
C937 H959 0.950 . S
C938 H934 0.949 . S
C938 C946 1.574 . S
C938 C954 1.368 . S
H939 C947 0.950 . S
H940 C945 0.950 . S
H941 C946 0.949 . S
H942 C948 0.950 . S
H943 C949 0.950 . S
H944 C950 0.949 . S
C945 H940 0.950 . S
C945 C947 1.327 . S
C945 C951 1.429 . S
C946 C938 1.574 . S
C946 H941 0.949 . S
C946 C952 1.368 . S
C947 C931 1.349 . S
C947 H939 0.950 . S
C947 C945 1.327 . S
C948 C936 1.349 . S
C948 H942 0.950 . S
C948 C949 1.327 . S
C949 H943 0.950 . S
C949 C948 1.327 . S
C949 C953 1.429 . S
C950 C933 1.574 . S
C950 H944 0.949 . S
C950 C954 1.368 . S
C951 C932 1.429 . S
C951 C945 1.429 . S
C951 C952 1.523 . S
C952 C933 1.368 . S
C952 C946 1.368 . S
C952 C951 1.523 . S
C953 C937 1.429 . S
C953 C949 1.429 . S
C953 C954 1.523 . S
C954 C938 1.368 . S
C954 C950 1.368 . S
C954 C953 1.523 . S
H955 C930 0.950 . S
H956 C932 0.950 . S
H957 C933 0.949 . S
H958 C935 0.950 . S
H959 C937 0.950 . S
C960 C961 1.349 . S
C960 C962 1.327 . S
C960 H985 0.950 . S
C961 C960 1.349 . S
C961 C977 1.349 . S
C962 C960 1.327 . S
C962 C981 1.429 . S
C962 H986 0.950 . S
C963 C980 1.574 . S
C963 C982 1.368 . S
C963 H987 0.949 . S
H964 C968 0.949 . S
C965 C966 1.349 . S
C965 C967 1.327 . S
C965 H988 0.950 . S
C966 C965 1.349 . S
C966 C978 1.349 . S
C967 C965 1.327 . S
C967 C983 1.429 . S
C967 H989 0.950 . S
C968 H964 0.949 . S
C968 C976 1.574 . S
C968 C984 1.368 . S
H969 C977 0.950 . S
H970 C975 0.950 . S
H971 C976 0.949 . S
H972 C978 0.950 . S
H973 C979 0.950 . S
H974 C980 0.949 . S
C975 H970 0.950 . S
C975 C977 1.327 . S
C975 C981 1.429 . S
C976 C968 1.574 . S
C976 H971 0.949 . S
C976 C982 1.368 . S
C977 C961 1.349 . S
C977 H969 0.950 . S
C977 C975 1.327 . S
C978 C966 1.349 . S
C978 H972 0.950 . S
C978 C979 1.327 . S
C979 H973 0.950 . S
C979 C978 1.327 . S
C979 C983 1.429 . S
C980 C963 1.574 . S
C980 H974 0.949 . S
C980 C984 1.368 . S
C981 C962 1.429 . S
C981 C975 1.429 . S
C981 C982 1.523 . S
C982 C963 1.368 . S
C982 C976 1.368 . S
C982 C981 1.523 . S
C983 C967 1.429 . S
C983 C979 1.429 . S
C983 C984 1.523 . S
C984 C968 1.368 . S
C984 C980 1.368 . S
C984 C983 1.523 . S
H985 C960 0.950 . S
H986 C962 0.950 . S
H987 C963 0.949 . S
H988 C965 0.950 . S
H989 C967 0.950 . S
C990 C991 1.349 . S
C990 C992 1.327 . S
C990 H1015 0.950 . S
C991 C990 1.349 . S
C991 C1007 1.349 . S
C992 C990 1.327 . S
C992 C1011 1.429 . S
C992 H1016 0.950 . S
C993 C1010 1.574 . S
C993 C1012 1.368 . S
C993 H1017 0.949 . S
H994 C998 0.949 . S
C995 C996 1.349 . S
C995 C997 1.327 . S
C995 H1018 0.950 . S
C996 C995 1.349 . S
C996 C1008 1.349 . S
C997 C995 1.327 . S
C997 C1013 1.429 . S
C997 H1019 0.950 . S
C998 H994 0.949 . S
C998 C1006 1.574 . S
C998 C1014 1.368 . S
H999 C1007 0.950 . S
H1000 C1005 0.950 . S
H1001 C1006 0.949 . S
H1002 C1008 0.950 . S
H1003 C1009 0.950 . S
H1004 C1010 0.949 . S
C1005 H1000 0.950 . S
C1005 C1007 1.327 . S
C1005 C1011 1.429 . S
C1006 C998 1.574 . S
C1006 H1001 0.949 . S
C1006 C1012 1.368 . S
C1007 C991 1.349 . S
C1007 H999 0.950 . S
C1007 C1005 1.327 . S
C1008 C996 1.349 . S
C1008 H1002 0.950 . S
C1008 C1009 1.327 . S
C1009 H1003 0.950 . S
C1009 C1008 1.327 . S
C1009 C1013 1.429 . S
C1010 C993 1.574 . S
C1010 H1004 0.949 . S
C1010 C1014 1.368 . S
C1011 C992 1.429 . S
C1011 C1005 1.429 . S
C1011 C1012 1.523 . S
C1012 C993 1.368 . S
C1012 C1006 1.368 . S
C1012 C1011 1.523 . S
C1013 C997 1.429 . S
C1013 C1009 1.429 . S
C1013 C1014 1.523 . S
C1014 C998 1.368 . S
C1014 C1010 1.368 . S
C1014 C1013 1.523 . S
H1015 C990 0.950 . S
H1016 C992 0.950 . S
H1017 C993 0.949 . S
H1018 C995 0.950 . S
H1019 C997 0.950 . S
C1020 C1021 1.349 . S
C1020 C1022 1.327 . S
C1020 H1045 0.950 . S
C1021 C1020 1.349 . S
C1021 C1037 1.349 . S
C1022 C1020 1.327 . S
C1022 C1041 1.429 . S
C1022 H1046 0.950 . S
C1023 C1040 1.574 . S
C1023 C1042 1.368 . S
C1023 H1047 0.949 . S
H1024 C1028 0.949 . S
C1025 C1026 1.349 . S
C1025 C1027 1.327 . S
C1025 H1048 0.950 . S
C1026 C1025 1.349 . S
C1026 C1038 1.349 . S
C1027 C1025 1.327 . S
C1027 C1043 1.429 . S
C1027 H1049 0.950 . S
C1028 H1024 0.949 . S
C1028 C1036 1.574 . S
C1028 C1044 1.368 . S
H1029 C1037 0.950 . S
H1030 C1035 0.950 . S
H1031 C1036 0.949 . S
H1032 C1038 0.950 . S
H1033 C1039 0.950 . S
H1034 C1040 0.949 . S
C1035 H1030 0.950 . S
C1035 C1037 1.327 . S
C1035 C1041 1.429 . S
C1036 C1028 1.574 . S
C1036 H1031 0.949 . S
C1036 C1042 1.368 . S
C1037 C1021 1.349 . S
C1037 H1029 0.950 . S
C1037 C1035 1.327 . S
C1038 C1026 1.349 . S
C1038 H1032 0.950 . S
C1038 C1039 1.327 . S
C1039 H1033 0.950 . S
C1039 C1038 1.327 . S
C1039 C1043 1.429 . S
C1040 C1023 1.574 . S
C1040 H1034 0.949 . S
C1040 C1044 1.368 . S
C1041 C1022 1.429 . S
C1041 C1035 1.429 . S
C1041 C1042 1.523 . S
C1042 C1023 1.368 . S
C1042 C1036 1.368 . S
C1042 C1041 1.523 . S
C1043 C1027 1.429 . S
C1043 C1039 1.429 . S
C1043 C1044 1.523 . S
C1044 C1028 1.368 . S
C1044 C1040 1.368 . S
C1044 C1043 1.523 . S
H1045 C1020 0.950 . S
H1046 C1022 0.950 . S
H1047 C1023 0.949 . S
H1048 C1025 0.950 . S
H1049 C1027 0.950 . S
C1050 C1051 1.349 . S
C1050 C1052 1.327 . S
C1050 H1075 0.950 . S
C1051 C1050 1.349 . S
C1051 C1067 1.349 . S
C1052 C1050 1.327 . S
C1052 C1071 1.429 . S
C1052 H1076 0.950 . S
C1053 C1070 1.574 . S
C1053 C1072 1.368 . S
C1053 H1077 0.949 . S
H1054 C1058 0.949 . S
C1055 C1056 1.349 . S
C1055 C1057 1.327 . S
C1055 H1078 0.950 . S
C1056 C1055 1.349 . S
C1056 C1068 1.349 . S
C1057 C1055 1.327 . S
C1057 C1073 1.429 . S
C1057 H1079 0.950 . S
C1058 H1054 0.949 . S
C1058 C1066 1.574 . S
C1058 C1074 1.368 . S
H1059 C1067 0.950 . S
H1060 C1065 0.950 . S
H1061 C1066 0.949 . S
H1062 C1068 0.950 . S
H1063 C1069 0.950 . S
H1064 C1070 0.949 . S
C1065 H1060 0.950 . S
C1065 C1067 1.327 . S
C1065 C1071 1.429 . S
C1066 C1058 1.574 . S
C1066 H1061 0.949 . S
C1066 C1072 1.368 . S
C1067 C1051 1.349 . S
C1067 H1059 0.950 . S
C1067 C1065 1.327 . S
C1068 C1056 1.349 . S
C1068 H1062 0.950 . S
C1068 C1069 1.327 . S
C1069 H1063 0.950 . S
C1069 C1068 1.327 . S
C1069 C1073 1.429 . S
C1070 C1053 1.574 . S
C1070 H1064 0.949 . S
C1070 C1074 1.368 . S
C1071 C1052 1.429 . S
C1071 C1065 1.429 . S
C1071 C1072 1.523 . S
C1072 C1053 1.368 . S
C1072 C1066 1.368 . S
C1072 C1071 1.523 . S
C1073 C1057 1.429 . S
C1073 C1069 1.429 . S
C1073 C1074 1.523 . S
C1074 C1058 1.368 . S
C1074 C1070 1.368 . S
C1074 C1073 1.523 . S
H1075 C1050 0.950 . S
H1076 C1052 0.950 . S
H1077 C1053 0.949 . S
H1078 C1055 0.950 . S
H1079 C1057 0.950 . S
C1080 C1081 1.349 . S
C1080 C1082 1.327 . S
C1080 H1105 0.950 . S
C1081 C1080 1.349 . S
C1081 C1097 1.349 . S
C1082 C1080 1.327 . S
C1082 C1101 1.429 . S
C1082 H1106 0.950 . S
C1083 C1100 1.574 . S
C1083 C1102 1.368 . S
C1083 H1107 0.949 . S
H1084 C1088 0.949 . S
C1085 C1086 1.349 . S
C1085 C1087 1.327 . S
C1085 H1108 0.950 . S
C1086 C1085 1.349 . S
C1086 C1098 1.349 . S
C1087 C1085 1.327 . S
C1087 C1103 1.429 . S
C1087 H1109 0.950 . S
C1088 H1084 0.949 . S
C1088 C1096 1.574 . S
C1088 C1104 1.368 . S
H1089 C1097 0.950 . S
H1090 C1095 0.950 . S
H1091 C1096 0.949 . S
H1092 C1098 0.950 . S
H1093 C1099 0.950 . S
H1094 C1100 0.949 . S
C1095 H1090 0.950 . S
C1095 C1097 1.327 . S
C1095 C1101 1.429 . S
C1096 C1088 1.574 . S
C1096 H1091 0.949 . S
C1096 C1102 1.368 . S
C1097 C1081 1.349 . S
C1097 H1089 0.950 . S
C1097 C1095 1.327 . S
C1098 C1086 1.349 . S
C1098 H1092 0.950 . S
C1098 C1099 1.327 . S
C1099 H1093 0.950 . S
C1099 C1098 1.327 . S
C1099 C1103 1.429 . S
C1100 C1083 1.574 . S
C1100 H1094 0.949 . S
C1100 C1104 1.368 . S
C1101 C1082 1.429 . S
C1101 C1095 1.429 . S
C1101 C1102 1.523 . S
C1102 C1083 1.368 . S
C1102 C1096 1.368 . S
C1102 C1101 1.523 . S
C1103 C1087 1.429 . S
C1103 C1099 1.429 . S
C1103 C1104 1.523 . S
C1104 C1088 1.368 . S
C1104 C1100 1.368 . S
C1104 C1103 1.523 . S
H1105 C1080 0.950 . S
H1106 C1082 0.950 . S
H1107 C1083 0.949 . S
H1108 C1085 0.950 . S
H1109 C1087 0.950 . S
C1110 C1111 1.349 . S
C1110 C1112 1.327 1_455 S
C1110 H1135 0.950 . S
C1111 C1110 1.349 . S
C1111 C1127 1.349 . S
C1112 C1110 1.327 1_655 S
C1112 C1131 1.429 . S
C1112 H1136 0.950 . S
C1113 C1130 1.574 . S
C1113 C1132 1.368 . S
C1113 H1137 0.949 . S
H1114 C1118 0.949 . S
C1115 C1116 1.349 . S
C1115 C1117 1.327 . S
C1115 H1138 0.950 . S
C1116 C1115 1.349 . S
C1116 C1128 1.349 . S
C1117 C1115 1.327 . S
C1117 C1133 1.429 . S
C1117 H1139 0.950 . S
C1118 H1114 0.949 . S
C1118 C1126 1.574 . S
C1118 C1134 1.368 . S
H1119 C1127 0.950 . S
H1120 C1125 0.950 . S
H1121 C1126 0.949 . S
H1122 C1128 0.950 . S
H1123 C1129 0.950 . S
H1124 C1130 0.949 . S
C1125 H1120 0.950 . S
C1125 C1127 1.327 1_655 S
C1125 C1131 1.429 . S
C1126 C1118 1.574 . S
C1126 H1121 0.949 . S
C1126 C1132 1.368 . S
C1127 C1111 1.349 . S
C1127 H1119 0.950 . S
C1127 C1125 1.327 1_455 S
C1128 C1116 1.349 . S
C1128 H1122 0.950 . S
C1128 C1129 1.327 . S
C1129 H1123 0.950 . S
C1129 C1128 1.327 . S
C1129 C1133 1.429 . S
C1130 C1113 1.574 . S
C1130 H1124 0.949 . S
C1130 C1134 1.368 . S
C1131 C1112 1.429 . S
C1131 C1125 1.429 . S
C1131 C1132 1.523 . S
C1132 C1113 1.368 . S
C1132 C1126 1.368 . S
C1132 C1131 1.523 . S
C1133 C1117 1.429 . S
C1133 C1129 1.429 . S
C1133 C1134 1.523 . S
C1134 C1118 1.368 . S
C1134 C1130 1.368 . S
C1134 C1133 1.523 . S
H1135 C1110 0.950 . S
H1136 C1112 0.950 . S
H1137 C1113 0.949 . S
H1138 C1115 0.950 . S
H1139 C1117 0.950 . S
C1140 C1141 1.349 . S
C1140 C1142 1.327 . S
C1140 H1165 0.950 . S
C1141 C1140 1.349 . S
C1141 C1157 1.349 . S
C1142 C1140 1.327 . S
C1142 C1161 1.429 . S
C1142 H1166 0.950 . S
C1143 C1160 1.574 . S
C1143 C1162 1.368 . S
C1143 H1167 0.949 . S
H1144 C1148 0.949 . S
C1145 C1146 1.349 . S
C1145 C1147 1.327 . S
C1145 H1168 0.950 . S
C1146 C1145 1.349 . S
C1146 C1158 1.349 . S
C1147 C1145 1.327 . S
C1147 C1163 1.429 . S
C1147 H1169 0.950 . S
C1148 H1144 0.949 . S
C1148 C1156 1.574 . S
C1148 C1164 1.368 . S
H1149 C1157 0.950 . S
H1150 C1155 0.950 . S
H1151 C1156 0.949 . S
H1152 C1158 0.950 . S
H1153 C1159 0.950 . S
H1154 C1160 0.949 . S
C1155 H1150 0.950 . S
C1155 C1157 1.327 . S
C1155 C1161 1.429 . S
C1156 C1148 1.574 . S
C1156 H1151 0.949 . S
C1156 C1162 1.368 . S
C1157 C1141 1.349 . S
C1157 H1149 0.950 . S
C1157 C1155 1.327 . S
C1158 C1146 1.349 . S
C1158 H1152 0.950 . S
C1158 C1159 1.327 . S
C1159 H1153 0.950 . S
C1159 C1158 1.327 . S
C1159 C1163 1.429 . S
C1160 C1143 1.574 . S
C1160 H1154 0.949 . S
C1160 C1164 1.368 . S
C1161 C1142 1.429 . S
C1161 C1155 1.429 . S
C1161 C1162 1.523 . S
C1162 C1143 1.368 . S
C1162 C1156 1.368 . S
C1162 C1161 1.523 . S
C1163 C1147 1.429 . S
C1163 C1159 1.429 . S
C1163 C1164 1.523 . S
C1164 C1148 1.368 . S
C1164 C1160 1.368 . S
C1164 C1163 1.523 . S
H1165 C1140 0.950 . S
H1166 C1142 0.950 . S
H1167 C1143 0.949 . S
H1168 C1145 0.950 . S
H1169 C1147 0.950 . S
C1170 C1171 1.349 . S
C1170 C1172 1.327 . S
C1170 H1195 0.950 . S
C1171 C1170 1.349 . S
C1171 C1187 1.349 . S
C1172 C1170 1.327 . S
C1172 C1191 1.429 . S
C1172 H1196 0.950 . S
C1173 C1190 1.574 . S
C1173 C1192 1.368 . S
C1173 H1197 0.949 . S
H1174 C1178 0.949 . S
C1175 C1176 1.349 . S
C1175 C1177 1.327 . S
C1175 H1198 0.950 . S
C1176 C1175 1.349 . S
C1176 C1188 1.349 . S
C1177 C1175 1.327 . S
C1177 C1193 1.429 . S
C1177 H1199 0.950 . S
C1178 H1174 0.949 . S
C1178 C1186 1.574 . S
C1178 C1194 1.368 . S
H1179 C1187 0.950 . S
H1180 C1185 0.950 . S
H1181 C1186 0.949 . S
H1182 C1188 0.950 . S
H1183 C1189 0.950 . S
H1184 C1190 0.949 . S
C1185 H1180 0.950 . S
C1185 C1187 1.327 . S
C1185 C1191 1.429 . S
C1186 C1178 1.574 . S
C1186 H1181 0.949 . S
C1186 C1192 1.368 . S
C1187 C1171 1.349 . S
C1187 H1179 0.950 . S
C1187 C1185 1.327 . S
C1188 C1176 1.349 . S
C1188 H1182 0.950 . S
C1188 C1189 1.327 . S
C1189 H1183 0.950 . S
C1189 C1188 1.327 . S
C1189 C1193 1.429 . S
C1190 C1173 1.574 . S
C1190 H1184 0.949 . S
C1190 C1194 1.368 . S
C1191 C1172 1.429 . S
C1191 C1185 1.429 . S
C1191 C1192 1.523 . S
C1192 C1173 1.368 . S
C1192 C1186 1.368 . S
C1192 C1191 1.523 . S
C1193 C1177 1.429 . S
C1193 C1189 1.429 . S
C1193 C1194 1.523 . S
C1194 C1178 1.368 . S
C1194 C1190 1.368 . S
C1194 C1193 1.523 . S
H1195 C1170 0.950 . S
H1196 C1172 0.950 . S
H1197 C1173 0.949 . S
H1198 C1175 0.950 . S
H1199 C1177 0.950 . S
C1200 C1201 1.349 . S
C1200 C1202 1.327 . S
C1200 H1225 0.950 . S
C1201 C1200 1.349 . S
C1201 C1217 1.349 . S
C1202 C1200 1.327 . S
C1202 C1221 1.429 . S
C1202 H1226 0.950 . S
C1203 C1220 1.574 . S
C1203 C1222 1.368 . S
C1203 H1227 0.949 . S
H1204 C1208 0.949 . S
C1205 C1206 1.349 . S
C1205 C1207 1.327 . S
C1205 H1228 0.950 . S
C1206 C1205 1.349 . S
C1206 C1218 1.349 . S
C1207 C1205 1.327 . S
C1207 C1223 1.429 . S
C1207 H1229 0.950 . S
C1208 H1204 0.949 . S
C1208 C1216 1.574 . S
C1208 C1224 1.368 . S
H1209 C1217 0.950 . S
H1210 C1215 0.950 . S
H1211 C1216 0.949 . S
H1212 C1218 0.950 . S
H1213 C1219 0.950 . S
H1214 C1220 0.949 . S
C1215 H1210 0.950 . S
C1215 C1217 1.327 . S
C1215 C1221 1.429 . S
C1216 C1208 1.574 . S
C1216 H1211 0.949 . S
C1216 C1222 1.368 . S
C1217 C1201 1.349 . S
C1217 H1209 0.950 . S
C1217 C1215 1.327 . S
C1218 C1206 1.349 . S
C1218 H1212 0.950 . S
C1218 C1219 1.327 . S
C1219 H1213 0.950 . S
C1219 C1218 1.327 . S
C1219 C1223 1.429 . S
C1220 C1203 1.574 . S
C1220 H1214 0.949 . S
C1220 C1224 1.368 . S
C1221 C1202 1.429 . S
C1221 C1215 1.429 . S
C1221 C1222 1.523 . S
C1222 C1203 1.368 . S
C1222 C1216 1.368 . S
C1222 C1221 1.523 . S
C1223 C1207 1.429 . S
C1223 C1219 1.429 . S
C1223 C1224 1.523 . S
C1224 C1208 1.368 . S
C1224 C1220 1.368 . S
C1224 C1223 1.523 . S
H1225 C1200 0.950 . S
H1226 C1202 0.950 . S
H1227 C1203 0.949 . S
H1228 C1205 0.950 . S
H1229 C1207 0.950 . S
C511 C7 1.788 . S
C516 C191 1.712 . S
C541 C30 1.687 . S
C546 C235 1.639 . S
C576 C315 1.576 . S
C571 N58 1.583 . S
C606 C359 1.398 . S
C601 N81 1.394 1_655 S
C636 C439 1.718 . S
C631 C99 1.784 . S
C666 C495 1.588 . S
C661 N127 1.662 . S
C691 N25 1.907 . S
C696 C291 1.767 . S
C721 C62 1.561 . S
C726 C371 1.477 . S
C756 C415 1.789 . S
C751 C85 1.951 . S
C786 C483 1.439 . S
C781 N94 1.432 . S
C811 C131 1.762 . S
C816 C167 1.641 . S
C846 C247 1.578 . S
C841 N2 1.615 1_556 S
C876 C353 1.789 . S
C871 C16 1.891 1_556 S
C901 C39 1.575 . S
C906 C433 1.437 . S
C936 C501 1.595 . S
C931 N48 1.581 . S
C961 N71 1.528 . S
C966 C185 1.464 . S
C991 C108 1.725 . S
C996 C229 1.639 . S
C1021 N117 1.708 . S
C1026 C309 1.563 . S
C1051 N35 1.879 . S
C1056 C477 1.783 . S
C1086 C173 1.567 . S
C1081 C53 1.651 . S
C1111 C76 1.810 . S
C1116 C253 1.748 . S
C1141 N104 1.352 . S
C1146 C297 1.331 . S
C1171 C122 1.781 . S
C1176 C377 1.735 . S
C1201 N12 1.414 . S
C1206 C421 1.401 . S
