# Generated by pormake.
# Topology eea, (3,6)-cn, num edge types: 1
# Building blocks:
#     Node 0, Type 0, BuildingBlock: BETDAH_clean_linker_0, # of connection points: 3
#     Node 1, Type 0, BuildingBlock: BETDAH_clean_linker_0, # of connection points: 3
#     Node 2, Type 0, BuildingBlock: BETDAH_clean_linker_0, # of connection points: 3
#     Node 3, Type 0, BuildingBlock: BETDAH_clean_linker_0, # of connection points: 3
#     Node 4, Type 0, BuildingBlock: BETDAH_clean_linker_0, # of connection points: 3
#     Node 5, Type 0, BuildingBlock: BETDAH_clean_linker_0, # of connection points: 3
#     Node 6, Type 0, BuildingBlock: BETDAH_clean_linker_0, # of connection points: 3
#     Node 7, Type 0, BuildingBlock: BETDAH_clean_linker_0, # of connection points: 3
#     Node 8, Type 0, BuildingBlock: BETDAH_clean_linker_0, # of connection points: 3
#     Node 9, Type 0, BuildingBlock: BETDAH_clean_linker_0, # of connection points: 3
#     Node 10, Type 0, BuildingBlock: BETDAH_clean_linker_0, # of connection points: 3
#     Node 11, Type 0, BuildingBlock: BETDAH_clean_linker_0, # of connection points: 3
#     Node 12, Type 0, BuildingBlock: BETDAH_clean_linker_0, # of connection points: 3
#     Node 13, Type 0, BuildingBlock: BETDAH_clean_linker_0, # of connection points: 3
#     Node 14, Type 0, BuildingBlock: BETDAH_clean_linker_0, # of connection points: 3
#     Node 15, Type 0, BuildingBlock: BETDAH_clean_linker_0, # of connection points: 3
#     Node 16, Type 0, BuildingBlock: BETDAH_clean_linker_0, # of connection points: 3
#     Node 17, Type 0, BuildingBlock: BETDAH_clean_linker_0, # of connection points: 3
#     Node 18, Type 1, BuildingBlock: KUMJIN_clean_sbu_0, # of connection points: 6
#     Node 19, Type 1, BuildingBlock: KUMJIN_clean_sbu_0, # of connection points: 6
#     Node 20, Type 1, BuildingBlock: KUMJIN_clean_sbu_0, # of connection points: 6
#     Node 21, Type 1, BuildingBlock: KUMJIN_clean_sbu_0, # of connection points: 6
#     Node 22, Type 1, BuildingBlock: KUMJIN_clean_sbu_0, # of connection points: 6
#     Node 23, Type 1, BuildingBlock: KUMJIN_clean_sbu_0, # of connection points: 6
#     Node 24, Type 1, BuildingBlock: KUMJIN_clean_sbu_0, # of connection points: 6
#     Node 25, Type 1, BuildingBlock: KUMJIN_clean_sbu_0, # of connection points: 6
#     Node 26, Type 1, BuildingBlock: KUMJIN_clean_sbu_0, # of connection points: 6
#     Edge 27, Type (0, 1), BuildingBlock: OJICUG_clean_linker_0, # of connection points: 2
#     Edge 28, Type (0, 1), BuildingBlock: OJICUG_clean_linker_0, # of connection points: 2
#     Edge 29, Type (0, 1), BuildingBlock: OJICUG_clean_linker_0, # of connection points: 2
#     Edge 30, Type (0, 1), BuildingBlock: OJICUG_clean_linker_0, # of connection points: 2
#     Edge 31, Type (0, 1), BuildingBlock: OJICUG_clean_linker_0, # of connection points: 2
#     Edge 32, Type (0, 1), BuildingBlock: OJICUG_clean_linker_0, # of connection points: 2
#     Edge 33, Type (0, 1), BuildingBlock: OJICUG_clean_linker_0, # of connection points: 2
#     Edge 34, Type (0, 1), BuildingBlock: OJICUG_clean_linker_0, # of connection points: 2
#     Edge 35, Type (0, 1), BuildingBlock: OJICUG_clean_linker_0, # of connection points: 2
#     Edge 36, Type (0, 1), BuildingBlock: OJICUG_clean_linker_0, # of connection points: 2
#     Edge 37, Type (0, 1), BuildingBlock: OJICUG_clean_linker_0, # of connection points: 2
#     Edge 38, Type (0, 1), BuildingBlock: OJICUG_clean_linker_0, # of connection points: 2
#     Edge 39, Type (0, 1), BuildingBlock: OJICUG_clean_linker_0, # of connection points: 2
#     Edge 40, Type (0, 1), BuildingBlock: OJICUG_clean_linker_0, # of connection points: 2
#     Edge 41, Type (0, 1), BuildingBlock: OJICUG_clean_linker_0, # of connection points: 2
#     Edge 42, Type (0, 1), BuildingBlock: OJICUG_clean_linker_0, # of connection points: 2
#     Edge 43, Type (0, 1), BuildingBlock: OJICUG_clean_linker_0, # of connection points: 2
#     Edge 44, Type (0, 1), BuildingBlock: OJICUG_clean_linker_0, # of connection points: 2
#     Edge 45, Type (0, 1), BuildingBlock: OJICUG_clean_linker_0, # of connection points: 2
#     Edge 46, Type (0, 1), BuildingBlock: OJICUG_clean_linker_0, # of connection points: 2
#     Edge 47, Type (0, 1), BuildingBlock: OJICUG_clean_linker_0, # of connection points: 2
#     Edge 48, Type (0, 1), BuildingBlock: OJICUG_clean_linker_0, # of connection points: 2
#     Edge 49, Type (0, 1), BuildingBlock: OJICUG_clean_linker_0, # of connection points: 2
#     Edge 50, Type (0, 1), BuildingBlock: OJICUG_clean_linker_0, # of connection points: 2
#     Edge 51, Type (0, 1), BuildingBlock: OJICUG_clean_linker_0, # of connection points: 2
#     Edge 52, Type (0, 1), BuildingBlock: OJICUG_clean_linker_0, # of connection points: 2
#     Edge 53, Type (0, 1), BuildingBlock: OJICUG_clean_linker_0, # of connection points: 2
#     Edge 54, Type (0, 1), BuildingBlock: OJICUG_clean_linker_0, # of connection points: 2
#     Edge 55, Type (0, 1), BuildingBlock: OJICUG_clean_linker_0, # of connection points: 2
#     Edge 56, Type (0, 1), BuildingBlock: OJICUG_clean_linker_0, # of connection points: 2
#     Edge 57, Type (0, 1), BuildingBlock: OJICUG_clean_linker_0, # of connection points: 2
#     Edge 58, Type (0, 1), BuildingBlock: OJICUG_clean_linker_0, # of connection points: 2
#     Edge 59, Type (0, 1), BuildingBlock: OJICUG_clean_linker_0, # of connection points: 2
#     Edge 60, Type (0, 1), BuildingBlock: OJICUG_clean_linker_0, # of connection points: 2
#     Edge 61, Type (0, 1), BuildingBlock: OJICUG_clean_linker_0, # of connection points: 2
#     Edge 62, Type (0, 1), BuildingBlock: OJICUG_clean_linker_0, # of connection points: 2
#     Edge 63, Type (0, 1), BuildingBlock: OJICUG_clean_linker_0, # of connection points: 2
#     Edge 64, Type (0, 1), BuildingBlock: OJICUG_clean_linker_0, # of connection points: 2
#     Edge 65, Type (0, 1), BuildingBlock: OJICUG_clean_linker_0, # of connection points: 2
#     Edge 66, Type (0, 1), BuildingBlock: OJICUG_clean_linker_0, # of connection points: 2
#     Edge 67, Type (0, 1), BuildingBlock: OJICUG_clean_linker_0, # of connection points: 2
#     Edge 68, Type (0, 1), BuildingBlock: OJICUG_clean_linker_0, # of connection points: 2
#     Edge 69, Type (0, 1), BuildingBlock: OJICUG_clean_linker_0, # of connection points: 2
#     Edge 70, Type (0, 1), BuildingBlock: OJICUG_clean_linker_0, # of connection points: 2
#     Edge 71, Type (0, 1), BuildingBlock: OJICUG_clean_linker_0, # of connection points: 2
#     Edge 72, Type (0, 1), BuildingBlock: OJICUG_clean_linker_0, # of connection points: 2
#     Edge 73, Type (0, 1), BuildingBlock: OJICUG_clean_linker_0, # of connection points: 2
#     Edge 74, Type (0, 1), BuildingBlock: OJICUG_clean_linker_0, # of connection points: 2
#     Edge 75, Type (0, 1), BuildingBlock: OJICUG_clean_linker_0, # of connection points: 2
#     Edge 76, Type (0, 1), BuildingBlock: OJICUG_clean_linker_0, # of connection points: 2
#     Edge 77, Type (0, 1), BuildingBlock: OJICUG_clean_linker_0, # of connection points: 2
#     Edge 78, Type (0, 1), BuildingBlock: OJICUG_clean_linker_0, # of connection points: 2
#     Edge 79, Type (0, 1), BuildingBlock: OJICUG_clean_linker_0, # of connection points: 2
#     Edge 80, Type (0, 1), BuildingBlock: OJICUG_clean_linker_0, # of connection points: 2
# Relax obj value: 0.024
# Max RMSD: 0.184
# Mean RMSD: 0.130
data_MOF--net-eea--node1-KUMJIN_clean_sbu_0--node2-BETDAH_clean_linker_0--edge1-OJICUG_clean_linker_0
_symmetry_space_group_name_H-M    P1
_symmetry_Int_Tables_number       1
_symmetry_cell_setting            triclinic
loop_
_symmetry_equiv_pos_as_xyz
'x, y, z'
_cell_length_a     39.294476
_cell_length_b     40.617605
_cell_length_c     51.534998
_cell_angle_alpha  89.839574
_cell_angle_beta   89.689793
_cell_angle_gamma 119.81806
loop_
_atom_site_label
_atom_site_type_symbol
_atom_site_fract_x
_atom_site_fract_y
_atom_site_fract_z
_atom_type_partial_charge
H0 H 0.27181 0.06233 0.44095 0.0
H1 H 0.28668 0.1732 0.42603 0.0
H2 H 0.23807 0.08785 0.36751 0.0
C3 C 0.26785 0.08158 0.4284 0.0
C4 C 0.25247 0.0698 0.40337 0.0
C5 C 0.28026 0.11878 0.4369 0.0
C6 C 0.27682 0.14431 0.42003 0.0
C7 C 0.26195 0.13288 0.39494 0.0
C8 C 0.24994 0.096 0.38684 0.0
N9 N 0.26169 0.15868 0.37659 0.0
C10 C 0.24549 0.18157 0.38144 0.0
H11 H 0.95451 0.21007 0.43916 0.0
H12 H 0.85756 0.09688 0.42732 0.0
H13 H 0.94857 0.14928 0.36967 0.0
C14 C 0.93969 0.18458 0.42759 0.0
C15 C 0.95626 0.18308 0.40362 0.0
C16 C 0.90398 0.15364 0.43651 0.0
C17 C 0.88492 0.12096 0.42086 0.0
C18 C 0.9011 0.11958 0.39672 0.0
C19 C 0.93658 0.1505 0.38842 0.0
N20 N 0.88236 0.0883 0.37965 0.0
C21 C 0.85048 0.05289 0.38553 0.0
H22 H 0.80328 0.74752 0.43869 0.0
H23 H 0.92215 0.76908 0.43194 0.0
H24 H 0.87631 0.8149 0.37534 0.0
C25 C 0.83104 0.76001 0.42831 0.0
C26 C 0.83568 0.78125 0.40566 0.0
C27 C 0.86178 0.75526 0.43813 0.0
C28 C 0.8983 0.77265 0.42481 0.0
C29 C 0.9035 0.79424 0.40202 0.0
C30 C 0.87224 0.79857 0.39292 0.0
N31 N 0.93929 0.81245 0.38746 0.0
C32 C 0.97231 0.80821 0.38995 0.0
H33 H 0.06151 0.25375 0.6027 0.0
H34 H 0.15736 0.23164 0.61274 0.0
H35 H 0.06551 0.19333 0.67017 0.0
C36 C 0.07591 0.24155 0.61379 0.0
C37 C 0.05891 0.22294 0.63748 0.0
C38 C 0.11138 0.24485 0.60442 0.0
C39 C 0.13023 0.22954 0.61955 0.0
C40 C 0.11363 0.21089 0.64329 0.0
C41 C 0.07796 0.20744 0.65181 0.0
N42 N 0.13144 0.19506 0.65933 0.0
C43 C 0.16806 0.19783 0.65579 0.0
H44 H 0.73794 0.80104 0.6029 0.0
H45 H 0.73874 0.90599 0.61771 0.0
H46 H 0.78199 0.86013 0.67497 0.0
C47 C 0.74528 0.82521 0.61519 0.0
C48 C 0.76187 0.82723 0.63974 0.0
C49 C 0.73656 0.85337 0.60689 0.0
C50 C 0.74501 0.88395 0.62359 0.0
C51 C 0.76058 0.88555 0.6483 0.0
C52 C 0.76894 0.8575 0.65608 0.0
N53 N 0.76643 0.9138 0.66657 0.0
C54 C 0.77725 0.95099 0.6604 0.0
H55 H 0.20355 0.94148 0.60399 0.0
H56 H 0.08348 0.85012 0.60379 0.0
H57 H 0.11914 0.94239 0.65695 0.0
C58 C 0.17402 0.92821 0.61183 0.0
C59 C 0.16549 0.9459 0.63229 0.0
C60 C 0.14472 0.89388 0.60107 0.0
C61 C 0.10638 0.87653 0.61169 0.0
C62 C 0.0976 0.89406 0.63221 0.0
C63 C 0.1269 0.92872 0.64186 0.0
N64 N 0.05927 0.87943 0.64275 0.0
C65 C 0.03075 0.84137 0.64493 0.0
H66 H 0.93936 0.39637 0.77266 0.0
H67 H 0.95663 0.50827 0.75845 0.0
H68 H 0.90634 0.42367 0.69954 0.0
C69 C 0.93581 0.41602 0.76026 0.0
C70 C 0.92018 0.40466 0.73522 0.0
C71 C 0.94903 0.45328 0.76896 0.0
C72 C 0.94616 0.47933 0.75229 0.0
C73 C 0.93113 0.4684 0.7272 0.0
C74 C 0.9183 0.43142 0.71888 0.0
N75 N 0.93159 0.49481 0.70907 0.0
C76 C 0.91597 0.51816 0.7141 0.0
H77 H 0.62135 0.54192 0.77266 0.0
H78 H 0.53391 0.42326 0.76984 0.0
H79 H 0.62586 0.47071 0.7126 0.0
C80 C 0.60925 0.51443 0.76348 0.0
C81 C 0.62774 0.5104 0.74114 0.0
C82 C 0.57534 0.48321 0.77414 0.0
C83 C 0.55961 0.44769 0.76179 0.0
C84 C 0.57819 0.44332 0.73973 0.0
C85 C 0.61214 0.4745 0.72978 0.0
N86 N 0.5647 0.40777 0.72747 0.0
C87 C 0.52631 0.37778 0.72795 0.0
H88 H 0.47015 0.08269 0.77276 0.0
H89 H 0.58895 0.10418 0.76552 0.0
H90 H 0.54314 0.15113 0.70975 0.0
C91 C 0.49792 0.09537 0.76238 0.0
C92 C 0.50256 0.11701 0.73994 0.0
C93 C 0.52863 0.09037 0.77195 0.0
C94 C 0.56512 0.10794 0.7586 0.0
C95 C 0.57032 0.12996 0.73603 0.0
C96 C 0.53909 0.13452 0.72718 0.0
N97 N 0.60609 0.14841 0.72145 0.0
C98 C 0.63883 0.14362 0.72338 0.0
H99 H 0.72966 0.58647 0.9361 0.0
H100 H 0.82591 0.56486 0.94554 0.0
H101 H 0.73456 0.52619 1.00336 0.0
C102 C 0.74424 0.57435 0.94708 0.0
C103 C 0.72752 0.55575 0.97081 0.0
C104 C 0.77967 0.5778 0.93752 0.0
C105 C 0.79878 0.5626 0.9525 0.0
C106 C 0.78243 0.54388 0.97625 0.0
C107 C 0.74679 0.54032 0.98498 0.0
N108 N 0.80046 0.5281 0.99213 0.0
C109 C 0.83709 0.53096 0.98839 0.0
H110 H 0.40749 0.13491 0.93594 0.0
H111 H 0.40798 0.23963 0.95116 0.0
H112 H 0.45093 0.1933 1.00829 0.0
C113 C 0.41475 0.15899 0.94831 0.0
C114 C 0.43118 0.16081 0.97288 0.0
C115 C 0.406 0.18717 0.94011 0.0
C116 C 0.41428 0.21758 0.95695 0.0
C117 C 0.42966 0.21895 0.98169 0.0
C118 C 0.43807 0.19088 0.98936 0.0
N119 N 0.43514 0.2469 1.00013 0.0
C120 C 0.44579 0.28412 0.9942 0.0
H121 H 0.86712 0.27768 0.93335 0.0
H122 H 0.75267 0.17893 0.94351 0.0
H123 H 0.79592 0.26821 0.99969 0.0
C124 C 0.83997 0.26236 0.94427 0.0
C125 C 0.83554 0.27739 0.96777 0.0
C126 C 0.81021 0.22704 0.93511 0.0
C127 C 0.77571 0.20619 0.95019 0.0
C128 C 0.77096 0.22134 0.97365 0.0
C129 C 0.80059 0.25672 0.98193 0.0
N130 N 0.73708 0.20279 0.98977 0.0
C131 C 0.70483 0.16687 0.98653 0.0
H132 H 0.59819 0.72666 0.10986 0.0
H133 H 0.61971 0.83956 0.09316 0.0
H134 H 0.57534 0.75494 0.03385 0.0
C135 C 0.59724 0.74692 0.0966 0.0
C136 C 0.58386 0.7357 0.07112 0.0
C137 C 0.6108 0.78447 0.10478 0.0
C138 C 0.60932 0.8105 0.08733 0.0
C139 C 0.5961 0.79948 0.06186 0.0
C140 C 0.58408 0.76252 0.05384 0.0
N141 N 0.59775 0.82582 0.0432 0.0
C142 C 0.58171 0.84905 0.04726 0.0
H143 H 0.28774 0.87442 0.10581 0.0
H144 H 0.20233 0.7551 0.10428 0.0
H145 H 0.29409 0.80257 0.04697 0.0
C146 C 0.27617 0.84677 0.09695 0.0
C147 C 0.29498 0.84263 0.07483 0.0
C148 C 0.24265 0.81541 0.10784 0.0
C149 C 0.22766 0.77964 0.09599 0.0
C150 C 0.24665 0.77519 0.0742 0.0
C151 C 0.28014 0.8065 0.06396 0.0
N152 N 0.23415 0.73938 0.06265 0.0
C153 C 0.19571 0.7096 0.0623 0.0
H154 H 0.13871 0.41672 0.10574 0.0
H155 H 0.25711 0.43692 0.09895 0.0
H156 H 0.212 0.48336 0.04228 0.0
C157 C 0.16648 0.42898 0.09539 0.0
C158 C 0.17132 0.45017 0.07269 0.0
C159 C 0.19698 0.42383 0.10522 0.0
C160 C 0.23346 0.44083 0.09185 0.0
C161 C 0.23885 0.4624 0.06902 0.0
C162 C 0.20783 0.46712 0.05992 0.0
N163 N 0.27454 0.48012 0.05434 0.0
C164 C 0.30733 0.47552 0.05681 0.0
H165 H 0.39515 0.92011 0.26965 0.0
H166 H 0.49256 0.90038 0.27996 0.0
H167 H 0.4013 0.86212 0.33782 0.0
C168 C 0.41007 0.90856 0.28086 0.0
C169 C 0.39359 0.8904 0.30476 0.0
C170 C 0.44572 0.9123 0.27146 0.0
C171 C 0.46526 0.89789 0.28677 0.0
C172 C 0.44922 0.87976 0.31074 0.0
C173 C 0.41335 0.87584 0.31929 0.0
N174 N 0.46789 0.8651 0.32705 0.0
C175 C 0.50441 0.86774 0.32323 0.0
H176 H 0.07729 0.46962 0.26858 0.0
H177 H 0.07349 0.57228 0.2837 0.0
H178 H 0.11798 0.52802 0.34121 0.0
C179 C 0.08356 0.49345 0.28096 0.0
C180 C 0.09981 0.4957 0.30566 0.0
C181 C 0.07365 0.5208 0.27267 0.0
C182 C 0.08068 0.55083 0.28953 0.0
C183 C 0.09582 0.55254 0.31439 0.0
C184 C 0.10535 0.52531 0.32216 0.0
N185 N 0.09972 0.57989 0.33285 0.0
C186 C 0.11108 0.61728 0.32698 0.0
H187 H 0.53113 0.61478 0.26592 0.0
H188 H 0.42663 0.50741 0.28118 0.0
H189 H 0.47063 0.59434 0.33906 0.0
C190 C 0.50689 0.59644 0.27858 0.0
C191 C 0.50392 0.60958 0.30326 0.0
C192 C 0.47942 0.55953 0.27033 0.0
C193 C 0.44797 0.53584 0.28713 0.0
C194 C 0.44475 0.54892 0.31185 0.0
C195 C 0.47289 0.58528 0.31967 0.0
N196 N 0.41494 0.52639 0.33018 0.0
C197 C 0.37984 0.49337 0.32528 0.0
Eu198 Eu 0.48421 0.97817 0.98817 0.0
C199 C 0.56287 0.11147 0.06895 0.0
C200 C 0.63176 0.13092 0.06579 0.0
C201 C 0.61207 0.17695 0.07761 0.0
C202 C 0.59191 0.10283 0.06364 0.0
C203 C 0.57251 0.14837 0.07668 0.0
C204 C 0.64167 0.16824 0.07214 0.0
C205 C 0.50355 0.12499 0.08455 0.0
N206 N 0.52512 0.08308 0.06821 0.0
C207 C 0.4956 0.08883 0.07693 0.0
C208 C 0.54216 0.15506 0.08407 0.0
Eu209 Eu 0.51286 0.02293 0.0536 0.0
N210 N 0.58117 0.06642 0.05782 0.0
C211 C 0.60894 0.05562 0.05591 0.0
C212 C 0.66036 0.1204 0.06225 0.0
C213 C 0.64884 0.08244 0.0577 0.0
H214 H 0.4657 0.06564 0.07733 0.0
H215 H 0.67068 0.07381 0.05543 0.0
H216 H 0.67211 0.19029 0.07359 0.0
H217 H 0.47993 0.12961 0.09081 0.0
H218 H 0.60075 0.02657 0.05217 0.0
H219 H 0.32641 0.92608 0.98673 0.0
H220 H 0.69128 0.14111 0.06363 0.0
H221 H 0.53288 0.93508 0.96742 0.0
H222 H 0.39645 0.97426 0.98901 0.0
H223 H 0.51896 0.87063 0.95529 0.0
H224 H 0.62009 0.20558 0.08323 0.0
H225 H 0.30654 0.85859 0.98007 0.0
H226 H 0.32637 0.80956 0.97134 0.0
H227 H 0.54831 0.183 0.09013 0.0
H228 H 0.37875 0.79447 0.96259 0.0
N229 N 0.41629 0.93445 0.98446 0.0
C230 C 0.38832 0.94499 0.98602 0.0
C231 C 0.3374 0.87965 0.98108 0.0
C232 C 0.36629 0.86939 0.97791 0.0
C233 C 0.3485 0.91772 0.98477 0.0
C234 C 0.40603 0.89787 0.97955 0.0
H235 H 0.45062 0.81717 0.95611 0.0
N236 N 0.4732 0.91779 0.97549 0.0
C237 C 0.4952 0.87545 0.96088 0.0
C238 C 0.43541 0.88929 0.97484 0.0
C239 C 0.503 0.91185 0.96768 0.0
C240 C 0.45659 0.84533 0.96143 0.0
C241 C 0.42604 0.85213 0.96808 0.0
O242 O 0.51891 0.99626 0.95228 0.0
O243 O 0.52908 0.02575 1.01169 0.0
O244 O 0.49994 0.06168 0.02877 0.0
O245 O 0.46529 0.02231 0.99381 0.0
O246 O 0.54985 0.00141 0.98535 0.0
O247 O 0.46317 0.99439 0.95368 0.0
O248 O 0.48013 0.00651 0.09045 0.0
O249 O 0.46718 0.97608 0.02992 0.0
O250 O 0.49264 0.93812 0.01427 0.0
O251 O 0.53348 0.98007 0.04588 0.0
O252 O 0.44777 0.00152 0.05616 0.0
O253 O 0.53031 -0.00086 0.0857 0.0
C254 C 0.55989 0.02831 1.00198 0.0
C255 C 0.4855 0.98574 0.91256 0.0
C256 C 0.49116 0.99568 0.86522 0.0
C257 C 0.49791 0.0104 0.89075 0.0
C258 C 0.47268 0.95602 0.86217 0.0
C259 C 0.46662 0.94646 0.90871 0.0
C260 C 0.46049 0.93178 0.88369 0.0
C261 C 0.47778 0.05354 1.00777 0.0
C262 C 0.49335 0.00098 0.93925 0.0
C263 C 0.38655 0.8233 0.96748 0.0
C264 C 0.35673 0.8319 0.97244 0.0
C265 C 0.43674 0.97472 0.03938 0.0
C266 C 0.51569 0.0104 0.12836 0.0
C267 C 0.49919 0.98589 0.15005 0.0
C268 C 0.51166 -0.00075 0.17557 0.0
C269 C 0.54043 0.03762 0.17876 0.0
C270 C 0.54435 0.04834 0.13231 0.0
C271 C 0.55652 0.0618 0.15735 0.0
C272 C 0.51792 0.9472 0.03348 0.0
C273 C 0.50317 0.99646 0.10165 0.0
H274 H 0.51214 0.04079 0.89367 0.0
H275 H 0.46768 0.94359 0.84303 0.0
H276 H 0.45683 0.9271 0.92506 0.0
H277 H 0.44619 0.90138 0.88093 0.0
H278 H 0.47719 0.95648 0.147 0.0
H279 H 0.55019 0.04924 0.19793 0.0
H280 H 0.55733 0.06756 0.11601 0.0
H281 H 0.57854 0.09121 0.1602 0.0
Eu282 Eu 0.03433 0.50402 0.98879 0.0
C283 C 0.89234 0.45037 0.06551 0.0
C284 C 0.87586 0.50025 0.06224 0.0
C285 C 0.82503 0.43583 0.07262 0.0
C286 C 0.90358 0.48786 0.06063 0.0
C287 C 0.85319 0.42415 0.07239 0.0
C288 C 0.83634 0.47383 0.06752 0.0
C289 C 0.8737 0.37826 0.08153 0.0
N290 N 0.92039 0.44025 0.06562 0.0
C291 C 0.91215 0.40543 0.07477 0.0
C292 C 0.84392 0.38745 0.07991 0.0
Eu293 Eu 0.98464 0.48693 0.05306 0.0
N294 N 0.94206 0.51265 0.05578 0.0
C295 C 0.95518 0.55071 0.05426 0.0
C296 C 0.88886 0.53895 0.05923 0.0
C297 C 0.9288 0.56435 0.05564 0.0
H298 H 0.93519 0.3983 0.07602 0.0
H299 H 0.93928 0.59444 0.05376 0.0
H300 H 0.81454 0.48273 0.06848 0.0
H301 H 0.86709 0.35032 0.08802 0.0
H302 H 0.98584 0.57078 0.05128 0.0
H303 H 0.07875 0.39578 0.9904 0.0
H304 H 0.8685 0.5496 0.06024 0.0
H305 H 0.08505 0.59193 0.96449 0.0
H306 H 0.03229 0.41967 0.99046 0.0
H307 H 0.15393 0.63973 0.95398 0.0
H308 H 0.7947 0.416 0.07754 0.0
H309 H 0.15002 0.44054 0.98652 0.0
H310 H 0.2047 0.5074 0.97933 0.0
H311 H 0.8142 0.36647 0.08534 0.0
H312 H 0.22534 0.57412 0.96952 0.0
N313 N 0.0766 0.47784 0.98729 0.0
C314 C 0.06319 0.4397 0.98859 0.0
C315 C 0.12971 0.45128 0.98649 0.0
C316 C 0.14308 0.49005 0.9834 0.0
C317 C 0.08951 0.42593 0.9886 0.0
C318 C 0.1154 0.50256 0.98364 0.0
H319 H 0.20651 0.62361 0.95948 0.0
N320 N 0.09916 0.55029 0.97695 0.0
C321 C 0.14685 0.61191 0.96104 0.0
C322 C 0.12708 0.54007 0.97841 0.0
C323 C 0.10799 0.58488 0.96697 0.0
C324 C 0.17646 0.60274 0.96427 0.0
C325 C 0.16664 0.56614 0.97243 0.0
O326 O 0.02353 0.52235 0.95131 0.0
O327 O 0.98372 0.50016 1.01111 0.0
O328 O 0.9448 0.43667 0.02798 0.0
O329 O 0.9865 0.44224 0.99344 0.0
O330 O 0.00914 0.54352 0.98414 0.0
O331 O 0.01644 0.46631 0.95529 0.0
O332 O 0.9967 0.46854 0.09014 0.0
O333 O 0.03567 0.4907 0.03092 0.0
O334 O 0.07294 0.55505 1.01304 0.0
O335 O 0.03235 0.54916 0.04838 0.0
O336 O 0.00694 0.44543 0.05639 0.0
O337 O 1.0038 0.52459 0.08663 0.0
C338 C 0.98085 0.5269 1.00075 0.0
C339 C 0.03557 0.49599 0.91413 0.0
C340 C 0.03192 0.49361 0.86677 0.0
C341 C 0.01365 0.48834 0.89124 0.0
C342 C 0.07245 0.50664 0.86564 0.0
C343 C 0.07583 0.5086 0.91254 0.0
C344 C 0.09414 0.51397 0.8884 0.0
C345 C 0.9535 0.42342 1.007 0.0
C346 C 0.01618 0.49127 0.93944 0.0
C347 C 0.19471 0.55438 0.97368 0.0
C348 C 0.18295 0.51638 0.97922 0.0
C349 C 0.03643 0.46244 0.04071 0.0
C350 C 0.98568 0.49479 0.12781 0.0
C351 C 0.008 0.50245 0.15055 0.0
C352 C 0.99018 0.49725 0.17524 0.0
C353 C 0.94954 0.4839 0.17658 0.0
C354 C 0.94546 0.48217 0.12975 0.0
C355 C 0.92752 0.47663 0.15401 0.0
C356 C 0.0645 0.56837 0.03401 0.0
C357 C 1.00448 0.49959 0.10222 0.0
H358 H 0.98254 0.47872 0.8925 0.0
H359 H 0.08728 0.5105 0.84717 0.0
H360 H 0.09308 0.51426 0.9299 0.0
H361 H 0.12524 0.5237 0.88731 0.0
H362 H 0.03923 0.51283 0.14892 0.0
H363 H 0.93452 0.47861 0.1951 0.0
H364 H 0.92791 0.47651 0.11256 0.0
H365 H 0.89635 0.46651 0.15533 0.0
Eu366 Eu 0.53251 0.504 0.05329 0.0
C367 C 0.45474 0.56414 0.97463 0.0
C368 C 0.38553 0.51767 0.97639 0.0
C369 C 0.40638 0.58352 0.96625 0.0
C370 C 0.42515 0.52729 0.9789 0.0
C371 C 0.44577 0.59258 0.96776 0.0
C372 C 0.3763 0.54612 0.97057 0.0
C373 C 0.51525 0.63607 0.96248 0.0
N374 N 0.49241 0.57182 0.97607 0.0
C375 C 0.52262 0.60684 0.96925 0.0
C376 C 0.47666 0.62904 0.96202 0.0
Eu377 Eu 0.50296 0.52164 0.989 0.0
N378 N 0.43513 0.50051 0.98438 0.0
C379 C 0.40696 0.46309 0.98581 0.0
C380 C 0.35644 0.47962 0.97923 0.0
C381 C 0.36726 0.45216 0.98361 0.0
H382 H 0.55252 0.61249 0.96975 0.0
H383 H 0.34504 0.42255 0.98542 0.0
H384 H 0.34603 0.53935 0.96882 0.0
H385 H 0.53932 0.66399 0.95767 0.0
H386 H 0.41474 0.44152 0.98933 0.0
H387 H 0.69122 0.59937 0.0555 0.0
H388 H 0.32567 0.47107 0.97755 0.0
H389 H 0.48055 0.41317 0.07258 0.0
H390 H 0.62195 0.58251 0.05235 0.0
H391 H 0.49188 0.36044 0.08452 0.0
H392 H 0.39888 0.60504 0.96122 0.0
H393 H 0.70851 0.54935 0.06325 0.0
H394 H 0.68611 0.4807 0.0723 0.0
H395 H 0.47101 0.65169 0.95669 0.0
H396 H 0.63193 0.41576 0.08032 0.0
N397 N 0.59987 0.52329 0.05762 0.0
C398 C 0.6289 0.56035 0.05584 0.0
C399 C 0.67796 0.54175 0.0619 0.0
C400 C 0.64801 0.50409 0.06509 0.0
C401 C 0.66831 0.57006 0.05759 0.0
C402 C 0.60872 0.49569 0.06298 0.0
H403 H 0.55946 0.37075 0.08522 0.0
N404 N 0.54099 0.45255 0.06609 0.0
C405 C 0.51645 0.38804 0.07966 0.0
C406 C 0.57834 0.45919 0.06739 0.0
C407 C 0.51014 0.41796 0.07296 0.0
C408 C 0.55464 0.39395 0.07998 0.0
C409 C 0.58622 0.42999 0.07415 0.0
O410 O 0.49916 0.49011 0.08963 0.0
O411 O 0.4865 0.50833 0.03074 0.0
O412 O 0.51187 0.56956 0.01569 0.0
O413 O 0.55428 0.56671 0.04595 0.0
O414 O 0.46655 0.4642 0.05701 0.0
O415 O 0.55507 0.54179 0.08682 0.0
O416 O 0.53405 0.53778 0.95166 0.0
O417 O 0.54953 0.51801 1.01146 0.0
O418 O 0.52539 0.45727 0.02663 0.0
O419 O 0.48214 0.45865 0.99642 0.0
O420 O 0.56842 0.56215 0.98528 0.0
O421 O 0.48381 0.48174 0.95669 0.0
C422 C 0.45578 0.48118 0.0406 0.0
C423 C 0.53438 0.51297 0.12844 0.0
C424 C 0.52472 0.51363 0.17549 0.0
C425 C 0.51804 0.52175 0.14995 0.0
C426 C 0.54821 0.49677 0.17899 0.0
C427 C 0.55769 0.49626 0.13252 0.0
C428 C 0.56454 0.48826 0.15767 0.0
C429 C 0.53776 0.58455 0.03463 0.0
C430 C 0.52549 0.51981 0.10188 0.0
C431 C 0.62527 0.43788 0.07538 0.0
C432 C 0.65611 0.47485 0.07082 0.0
C433 C 0.57992 0.54562 1.00153 0.0
C434 C 0.49721 0.50793 0.91423 0.0
C435 C 0.51528 0.50202 0.89242 0.0
C436 C 0.50258 0.50352 0.86707 0.0
C437 C 0.47174 0.51139 0.86405 0.0
C438 C 0.46664 0.51581 0.91065 0.0
C439 C 0.45405 0.51754 0.88567 0.0
C440 C 0.49928 0.4415 1.00799 0.0
C441 C 0.5104 0.50567 0.94056 0.0
H442 H 0.49968 0.5343 0.14674 0.0
H443 H 0.55458 0.49073 0.19827 0.0
H444 H 0.57043 0.48927 0.11628 0.0
H445 H 0.58264 0.47542 0.16068 0.0
H446 H 0.53875 0.49569 0.89524 0.0
H447 H 0.46161 0.51334 0.84491 0.0
H448 H 0.45248 0.52054 0.92714 0.0
H449 H 0.43048 0.52372 0.88304 0.0
Eu450 Eu 0.15164 0.31315 0.32211 0.0
C451 C 0.23329 0.44667 0.40284 0.0
C452 C 0.30168 0.464 0.40076 0.0
C453 C 0.28379 0.51154 0.41188 0.0
C454 C 0.2616 0.43686 0.39807 0.0
C455 C 0.24393 0.48387 0.41047 0.0
C456 C 0.31265 0.50161 0.40702 0.0
C457 C 0.17518 0.46251 0.41738 0.0
N458 N 0.19521 0.4191 0.4017 0.0
C459 C 0.16623 0.426 0.40992 0.0
C460 C 0.2142 0.49174 0.4173 0.0
Eu461 Eu 0.1813 0.35829 0.38739 0.0
N462 N 0.24985 0.4002 0.3923 0.0
C463 C 0.27671 0.38821 0.39099 0.0
C464 C 0.32943 0.45225 0.39786 0.0
C465 C 0.31681 0.41404 0.39336 0.0
H466 H 0.13602 0.40345 0.41008 0.0
H467 H 0.33796 0.40446 0.39157 0.0
H468 H 0.34329 0.52295 0.40886 0.0
H469 H 0.152 0.46803 0.42323 0.0
H470 H 0.26768 0.35895 0.3873 0.0
H471 H 0.99477 0.26532 0.31939 0.0
H472 H 0.3605 0.4722 0.39968 0.0
H473 H 0.19838 0.26771 0.30228 0.0
H474 H 0.0652 0.31196 0.32234 0.0
H475 H 0.18268 0.20277 0.29015 0.0
H476 H 0.29258 0.54038 0.41744 0.0
H477 H 0.97303 0.19748 0.31242 0.0
H478 H 0.99097 0.14708 0.30387 0.0
H479 H 0.22112 0.51995 0.42325 0.0
H480 H 0.04208 0.13004 0.29577 0.0
N481 N 0.08343 0.27092 0.31787 0.0
C482 C 0.05627 0.28252 0.31922 0.0
C483 C 1.00406 0.21785 0.31372 0.0
C484 C 0.03216 0.20651 0.31079 0.0
C485 C 0.01622 0.25613 0.31758 0.0
C486 C 0.07217 0.23414 0.31283 0.0
H487 H 0.11363 0.15073 0.29018 0.0
N488 N 0.13894 0.25214 0.30962 0.0
C489 C 0.15939 0.20843 0.2954 0.0
C490 C 0.10082 0.22445 0.30852 0.0
C491 C 0.16818 0.24513 0.30222 0.0
C492 C 0.12038 0.17912 0.29551 0.0
C493 C 0.09045 0.18703 0.30174 0.0
O494 O 0.18653 0.33036 0.28628 0.0
O495 O 0.19762 0.36023 0.34553 0.0
O496 O 0.17048 0.39803 0.36205 0.0
O497 O 0.13433 0.35839 0.3276 0.0
O498 O 0.21687 0.33428 0.31934 0.0
O499 O 0.13179 0.33046 0.28754 0.0
O500 O 0.14861 0.34306 0.42424 0.0
O501 O 0.13455 0.312 0.36382 0.0
O502 O 0.15811 0.27227 0.34865 0.0
O503 O 0.20017 0.31419 0.37981 0.0
O504 O 0.11667 0.33886 0.39001 0.0
O505 O 0.19707 0.33302 0.41945 0.0
C506 C 0.22784 0.36136 0.33591 0.0
C507 C 0.15342 0.32066 0.2465 0.0
C508 C 0.15883 0.33024 0.19912 0.0
C509 C 0.16597 0.34517 0.2246 0.0
C510 C 0.13983 0.29053 0.19621 0.0
C511 C 0.13401 0.28133 0.24278 0.0
C512 C 0.12749 0.26645 0.21781 0.0
C513 C 0.14807 0.39005 0.34119 0.0
C514 C 0.16167 0.33604 0.27316 0.0
C515 C 0.05066 0.15906 0.30069 0.0
C516 C 0.02156 0.16876 0.30528 0.0
C517 C 0.10472 0.31189 0.3733 0.0
C518 C 0.18334 0.34499 0.46213 0.0
C519 C 0.16647 0.32027 0.48367 0.0
C520 C 0.17918 0.3331 0.50925 0.0
C521 C 0.20863 0.37117 0.51264 0.0
C522 C 0.21267 0.38262 0.46628 0.0
C523 C 0.22512 0.39557 0.49137 0.0
C524 C 0.18348 0.281 0.36778 0.0
C525 C 0.17049 0.33154 0.4354 0.0
H526 H 0.18062 0.3756 0.22742 0.0
H527 H 0.13455 0.27793 0.17712 0.0
H528 H 0.1241 0.26209 0.25918 0.0
H529 H 0.11279 0.23602 0.21516 0.0
H530 H 0.14397 0.2911 0.48046 0.0
H531 H 0.21862 0.38241 0.53187 0.0
H532 H 0.22594 0.40199 0.45008 0.0
H533 H 0.24766 0.42475 0.49438 0.0
Eu534 Eu 0.69993 0.83705 0.32398 0.0
C535 C 0.55645 0.77949 0.39927 0.0
C536 C 0.53693 0.82737 0.39735 0.0
C537 C 0.48807 0.76157 0.40599 0.0
C538 C 0.56605 0.81681 0.3954 0.0
C539 C 0.5175 0.75155 0.40516 0.0
C540 C 0.49777 0.79942 0.40209 0.0
C541 C 0.54026 0.70667 0.41124 0.0
N542 N 0.58564 0.77089 0.39866 0.0
C543 C 0.57847 0.73545 0.40551 0.0
C544 C 0.50954 0.71463 0.41076 0.0
Eu545 Eu 0.64922 0.82052 0.38743 0.0
N546 N 0.60417 0.84309 0.39092 0.0
C547 C 0.61557 0.88079 0.38992 0.0
C548 C 0.54819 0.86579 0.39506 0.0
C549 C 0.58777 0.89266 0.39167 0.0
H550 H 0.60212 0.72914 0.40576 0.0
H551 H 0.59688 0.92251 0.39027 0.0
H552 H 0.47493 0.80692 0.40336 0.0
H553 H 0.53454 0.67839 0.41601 0.0
H554 H 0.64599 0.90188 0.38716 0.0
H555 H 0.75657 0.73838 0.3226 0.0
H556 H 0.5267 0.87505 0.39635 0.0
H557 H 0.74487 0.9285 0.30585 0.0
H558 H 0.70581 0.75703 0.32465 0.0
H559 H 0.81196 0.98048 0.29581 0.0
H560 H 0.4579 0.74044 0.41024 0.0
H561 H 0.82633 0.78729 0.31689 0.0
H562 H 0.87661 0.85584 0.30948 0.0
H563 H 0.47999 0.69233 0.41533 0.0
H564 H 0.89169 0.92167 0.30207 0.0
N565 N 0.74633 0.81612 0.32073 0.0
C566 C 0.73604 0.77871 0.32202 0.0
C567 C 0.80412 0.79568 0.31772 0.0
C568 C 0.81423 0.83377 0.315 0.0
C569 C 0.76478 0.76798 0.32089 0.0
C570 C 0.78421 0.84317 0.31641 0.0
H571 H 0.86773 0.96832 0.29663 0.0
N572 N 0.76282 0.88777 0.31273 0.0
C573 C 0.80697 0.95242 0.30048 0.0
C574 C 0.79273 0.88015 0.31226 0.0
C575 C 0.76905 0.92295 0.30607 0.0
C576 C 0.83839 0.94546 0.30102 0.0
C577 C 0.83143 0.90885 0.3066 0.0
O578 O 0.68684 0.8529 0.28639 0.0
O579 O 0.64937 0.83425 0.34564 0.0
O580 O 0.60929 0.77351 0.36011 0.0
O581 O 0.65516 0.77445 0.33076 0.0
O582 O 0.67532 0.87718 0.31867 0.0
O583 O 0.68274 0.79805 0.29121 0.0
O584 O 0.66159 0.8036 0.42492 0.0
O585 O 0.69977 0.82288 0.36587 0.0
O586 O 0.74043 0.88251 0.35139 0.0
O587 O 0.69545 0.88339 0.38066 0.0
O588 O 0.67198 0.77922 0.39228 0.0
O589 O 0.66777 0.85926 0.42042 0.0
C590 C 0.64691 0.8611 0.33521 0.0
C591 C 0.6994 0.8265 0.24951 0.0
C592 C 0.69464 0.82459 0.20219 0.0
C593 C 0.67694 0.81901 0.22689 0.0
C594 C 0.73517 0.83768 0.2006 0.0
C595 C 0.73968 0.83943 0.24746 0.0
C596 C 0.75742 0.84496 0.22309 0.0
C597 C 0.61965 0.75779 0.34144 0.0
C598 C 0.68063 0.82178 0.27505 0.0
C599 C 0.86169 0.89994 0.30616 0.0
C600 C 0.85311 0.86247 0.31038 0.0
C601 C 0.70089 0.79513 0.37609 0.0
C602 C 0.64985 0.83042 0.46196 0.0
C603 C 0.6719 0.83766 0.48479 0.0
C604 C 0.65389 0.83246 0.5094 0.0
C605 C 0.61337 0.81972 0.51058 0.0
C606 C 0.60969 0.81812 0.46372 0.0
C607 C 0.5916 0.81278 0.48791 0.0
C608 C 0.73085 0.8992 0.36971 0.0
C609 C 0.66882 0.83489 0.43648 0.0
H610 H 0.64586 0.80937 0.22855 0.0
H611 H 0.7496 0.84171 0.18195 0.0
H612 H 0.75739 0.84529 0.26463 0.0
H613 H 0.78853 0.85487 0.22162 0.0
H614 H 0.70305 0.84759 0.48329 0.0
H615 H 0.59824 0.81453 0.52906 0.0
H616 H 0.5923 0.81247 0.44642 0.0
H617 H 0.56048 0.80296 0.48911 0.0
Eu618 Eu 0.19707 0.83631 0.38643 0.0
C619 C 0.11884 0.89548 0.30683 0.0
C620 C 0.04986 0.84883 0.30987 0.0
C621 C 0.06988 0.91406 0.29835 0.0
C622 C 0.08965 0.85886 0.31204 0.0
C623 C 0.10938 0.92335 0.29926 0.0
C624 C 0.04014 0.87684 0.30367 0.0
C625 C 0.17841 0.96624 0.29152 0.0
N626 N 0.15656 0.90325 0.30754 0.0
C627 C 0.1862 0.93751 0.29896 0.0
C628 C 0.13986 0.95931 0.29203 0.0
Eu629 Eu 0.16838 0.85438 0.32186 0.0
N630 N 0.10017 0.83253 0.31772 0.0
C631 C 0.07227 0.79503 0.31942 0.0
C632 C 0.02111 0.81077 0.31323 0.0
C633 C 0.03242 0.78367 0.31761 0.0
H634 H 0.21605 0.94297 0.29854 0.0
H635 H 0.01046 0.75403 0.31971 0.0
H636 H 0.00975 0.86977 0.30222 0.0
H637 H 0.20213 0.99366 0.28539 0.0
H638 H 0.08034 0.77367 0.32295 0.0
H639 H 0.35465 0.93668 0.38954 0.0
H640 H 0.99023 0.80191 0.31182 0.0
H641 H 0.14825 0.74498 0.40461 0.0
H642 H 0.28462 0.91717 0.38644 0.0
H643 H 0.1624 0.69366 0.41567 0.0
H644 H 0.06201 0.93517 0.29285 0.0
H645 H 0.37474 0.88843 0.39619 0.0
H646 H 0.35516 0.82015 0.40398 0.0
H647 H 0.13384 0.98152 0.2861 0.0
H648 H 0.30293 0.75407 0.41114 0.0
N649 N 0.26497 0.85823 0.39067 0.0
C650 C 0.29282 0.89576 0.38945 0.0
C651 C 0.34387 0.87966 0.39487 0.0
C652 C 0.31508 0.84144 0.39748 0.0
C653 C 0.33265 0.90698 0.39118 0.0
C654 C 0.27532 0.83151 0.39543 0.0
H655 H 0.231 0.70674 0.41588 0.0
N656 N 0.20811 0.78609 0.39808 0.0
C657 C 0.18617 0.7218 0.41099 0.0
C658 C 0.24601 0.7943 0.39926 0.0
C659 C 0.17825 0.75085 0.4048 0.0
C660 C 0.22494 0.72928 0.41102 0.0
C661 C 0.25549 0.76601 0.40549 0.0
O662 O 0.16324 0.81891 0.42259 0.0
O663 O 0.15148 0.84134 0.36374 0.0
O664 O 0.18065 0.90491 0.34676 0.0
O665 O 0.21593 0.89874 0.38127 0.0
O666 O 0.13123 0.79615 0.38933 0.0
O667 O 0.21802 0.872 0.42107 0.0
O668 O 0.20013 0.86975 0.28473 0.0
O669 O 0.21481 0.85112 0.34479 0.0
O670 O 0.19113 0.7904 0.35935 0.0
O671 O 0.1476 0.79156 0.3294 0.0
O672 O 0.23375 0.89533 0.31867 0.0
O673 O 0.14972 0.81402 0.28984 0.0
C674 C 0.12071 0.81388 0.37336 0.0
C675 C 0.19773 0.84027 0.46185 0.0
C676 C 0.19123 0.84182 0.50918 0.0
C677 C 0.18395 0.85059 0.48397 0.0
C678 C 0.21209 0.82208 0.51165 0.0
C679 C 0.21887 0.82114 0.46498 0.0
C680 C 0.22585 0.81201 0.48974 0.0
C681 C 0.20311 0.91797 0.36756 0.0
C682 C 0.18862 0.84826 0.43564 0.0
C683 C 0.29504 0.77548 0.40663 0.0
C684 C 0.32478 0.81311 0.40258 0.0
C685 C 0.24524 0.87905 0.33515 0.0
C686 C 0.16333 0.83985 0.24735 0.0
C687 C 0.18164 0.83416 0.2256 0.0
C688 C 0.16895 0.83554 0.20024 0.0
C689 C 0.13789 0.84306 0.19712 0.0
C690 C 0.13254 0.84739 0.24369 0.0
C691 C 0.11997 0.84901 0.21869 0.0
C692 C 0.16505 0.77459 0.34072 0.0
C693 C 0.17645 0.83764 0.2737 0.0
H694 H 0.16804 0.86582 0.48148 0.0
H695 H 0.2176 0.81409 0.53056 0.0
H696 H 0.22972 0.81301 0.44831 0.0
H697 H 0.2419 0.79692 0.49198 0.0
H698 H 0.20528 0.82808 0.22847 0.0
H699 H 0.12776 0.84486 0.17794 0.0
H700 H 0.11817 0.85192 0.26015 0.0
H701 H 0.09621 0.85492 0.216 0.0
Eu702 Eu 0.81846 0.64685 0.65529 0.0
C703 C 0.89515 0.78013 0.73609 0.0
C704 C 0.96427 0.80093 0.73207 0.0
C705 C 0.94353 0.84594 0.74457 0.0
C706 C 0.9246 0.77225 0.73032 0.0
C707 C 0.90418 0.81681 0.74393 0.0
C708 C 0.97355 0.83802 0.73861 0.0
C709 C 0.83512 0.79224 0.75227 0.0
N710 N 0.85762 0.75125 0.73554 0.0
C711 C 0.82777 0.75634 0.74449 0.0
C712 C 0.87347 0.82277 0.75166 0.0
Eu713 Eu 0.84633 0.69156 0.72063 0.0
N714 N 0.91448 0.73604 0.72433 0.0
C715 C 0.9428 0.72604 0.72181 0.0
C716 C 0.99338 0.79123 0.72791 0.0
C717 C 0.98255 0.75348 0.72316 0.0
H718 H 0.79806 0.7328 0.74495 0.0
H719 H 1.00481 0.74549 0.72041 0.0
H720 H 1.00383 0.8605 0.73978 0.0
H721 H 0.81123 0.79632 0.75874 0.0
H722 H 0.93516 0.69717 0.71793 0.0
H723 H 0.66024 0.59235 0.65313 0.0
H724 H 0.02418 0.81242 0.72898 0.0
H725 H 0.86873 0.60497 0.63531 0.0
H726 H 0.72995 0.64137 0.6557 0.0
H727 H 0.85605 0.54081 0.62347 0.0
H728 H 0.95108 0.87442 0.75029 0.0
H729 H 0.64161 0.52516 0.64655 0.0
H730 H 0.66269 0.47696 0.63816 0.0
H731 H 0.87916 0.85053 0.75782 0.0
H732 H 0.71594 0.46293 0.62992 0.0
N733 N 0.75082 0.60232 0.65137 0.0
C734 C 0.72236 0.61224 0.65274 0.0
C735 C 0.67233 0.54658 0.64768 0.0
C736 C 0.70173 0.53696 0.64474 0.0
C737 C 0.68273 0.58448 0.65132 0.0
C738 C 0.74126 0.56591 0.64654 0.0
H739 H 0.7881 0.48666 0.62397 0.0
N740 N 0.80873 0.58681 0.64293 0.0
C741 C 0.83192 0.5452 0.62879 0.0
C742 C 0.77114 0.55791 0.6421 0.0
C743 C 0.83901 0.58143 0.63543 0.0
C744 C 0.79353 0.51468 0.62917 0.0
C745 C 0.76248 0.52091 0.63549 0.0
O746 O 0.85304 0.66463 0.61935 0.0
O747 O 0.86259 0.69512 0.6787 0.0
O748 O 0.83177 0.72942 0.69607 0.0
O749 O 0.79842 0.69019 0.66073 0.0
O750 O 0.88443 0.67164 0.65262 0.0
O751 O 0.79706 0.66234 0.62065 0.0
O752 O 0.814 0.67467 0.75762 0.0
O753 O 0.80097 0.64424 0.69701 0.0
O754 O 0.82696 0.60712 0.68162 0.0
O755 O 0.86814 0.64963 0.71278 0.0
O756 O 0.7811 0.66928 0.72326 0.0
O757 O 0.86461 0.66809 0.75246 0.0
C758 C 0.89385 0.69873 0.669 0.0
C759 C 0.81939 0.65322 0.57966 0.0
C760 C 0.82483 0.66236 0.53225 0.0
C761 C 0.83163 0.67752 0.55765 0.0
C762 C 0.80649 0.62267 0.52951 0.0
C763 C 0.80065 0.61388 0.57612 0.0
C764 C 0.79448 0.59878 0.55122 0.0
C765 C 0.8099 0.7211 0.6749 0.0
C766 C 0.82726 0.66891 0.60623 0.0
C767 C 0.7232 0.49164 0.6347 0.0
C768 C 0.69288 0.49964 0.63938 0.0
C769 C 0.77035 0.64253 0.70648 0.0
C770 C 0.84996 0.67851 0.79531 0.0
C771 C 0.83354 0.65365 0.81683 0.0
C772 C 0.84602 0.66659 0.84241 0.0
C773 C 0.87478 0.7049 0.84585 0.0
C774 C 0.87857 0.7164 0.79949 0.0
C775 C 0.8908 0.72945 0.82461 0.0
C776 C 0.85252 0.61655 0.70066 0.0
C777 C 0.83743 0.66489 0.76856 0.0
H778 H 0.84575 0.70795 0.56033 0.0
H779 H 0.80147 0.60992 0.51048 0.0
H780 H 0.791 0.5948 0.59261 0.0
H781 H 0.78029 0.56835 0.54871 0.0
H782 H 0.81158 0.62429 0.81359 0.0
H783 H 0.88458 0.71618 0.86509 0.0
H784 H 0.89148 0.73589 0.78331 0.0
H785 H 0.91279 0.75882 0.82765 0.0
Eu786 Eu 0.36507 0.17046 0.65678 0.0
C787 C 0.22344 0.1162 0.73441 0.0
C788 C 0.20567 0.16515 0.73074 0.0
C789 C 0.15603 0.10079 0.74235 0.0
C790 C 0.23387 0.15337 0.72901 0.0
C791 C 0.18472 0.08977 0.74202 0.0
C792 C 0.16649 0.13843 0.73667 0.0
C793 C 0.20674 0.04514 0.75162 0.0
N794 N 0.25198 0.10672 0.73437 0.0
C795 C 0.24471 0.07241 0.74394 0.0
C796 C 0.17642 0.0536 0.75018 0.0
Eu797 Eu 0.3155 0.15379 0.72096 0.0
N798 N 0.27208 0.17851 0.72368 0.0
C799 C 0.28455 0.21641 0.72182 0.0
C800 C 0.21795 0.20364 0.72728 0.0
C801 C 0.25767 0.22945 0.72322 0.0
H802 H 0.26809 0.06573 0.7449 0.0
H803 H 0.26761 0.2594 0.72104 0.0
H804 H 0.14433 0.14686 0.73775 0.0
H805 H 0.20088 0.01762 0.75855 0.0
H806 H 0.31506 0.23676 0.7185 0.0
H807 H 0.40957 0.06229 0.65839 0.0
H808 H 0.1972 0.21383 0.72836 0.0
H809 H 0.41573 0.25832 0.63238 0.0
H810 H 0.36307 0.08614 0.65842 0.0
H811 H 0.48463 0.3062 0.62198 0.0
H812 H 0.126 0.08077 0.74782 0.0
H813 H 0.48084 0.10709 0.65457 0.0
H814 H 0.5355 0.17398 0.64746 0.0
H815 H 0.14706 0.03251 0.75623 0.0
H816 H 0.55611 0.2407 0.63767 0.0
N817 N 0.40736 0.14432 0.6553 0.0
C818 C 0.39397 0.10618 0.65658 0.0
C819 C 0.46051 0.11781 0.65453 0.0
C820 C 0.47386 0.15658 0.65145 0.0
C821 C 0.42031 0.09244 0.6566 0.0
C822 C 0.44616 0.16907 0.65168 0.0
H823 H 0.53725 0.29016 0.62761 0.0
N824 N 0.42989 0.21678 0.64498 0.0
C825 C 0.47757 0.2784 0.62908 0.0
C826 C 0.45783 0.20658 0.64647 0.0
C827 C 0.43871 0.25134 0.63495 0.0
C828 C 0.5072 0.26927 0.63236 0.0
C829 C 0.49739 0.23268 0.64053 0.0
O830 O 0.3538 0.18845 0.61932 0.0
O831 O 0.31446 0.16676 0.67898 0.0
O832 O 0.27493 0.10366 0.69582 0.0
O833 O 0.31721 0.10864 0.66188 0.0
O834 O 0.33994 0.20999 0.65192 0.0
O835 O 0.34781 0.13284 0.62325 0.0
O836 O 0.32869 0.13666 0.75816 0.0
O837 O 0.36647 0.15738 0.6989 0.0
O838 O 0.40375 0.22153 0.68099 0.0
O839 O 0.36272 0.21624 0.71589 0.0
O840 O 0.3378 0.11227 0.72446 0.0
O841 O 0.3347 0.19224 0.75409 0.0
C842 C 0.31162 0.19346 0.66852 0.0
C843 C 0.36651 0.16265 0.5821 0.0
C844 C 0.3629 0.16053 0.53474 0.0
C845 C 0.34457 0.15489 0.55922 0.0
C846 C 0.40353 0.17407 0.53361 0.0
C847 C 0.40687 0.17577 0.58051 0.0
C848 C 0.42526 0.18153 0.55635 0.0
C849 C 0.28362 0.09015 0.67493 0.0
C850 C 0.34702 0.15755 0.60743 0.0
C851 C 0.52548 0.22094 0.64181 0.0
C852 C 0.51373 0.18294 0.64732 0.0
C853 C 0.36726 0.12918 0.70875 0.0
C854 C 0.31756 0.16334 0.79559 0.0
C855 C 0.33995 0.1705 0.81825 0.0
C856 C 0.32239 0.16569 0.843 0.0
C857 C 0.28194 0.15322 0.84448 0.0
C858 C 0.27755 0.15157 0.79767 0.0
C859 C 0.25986 0.14641 0.82198 0.0
C860 C 0.3951 0.23522 0.70167 0.0
C861 C 0.33609 0.16784 0.76993 0.0
H862 H 0.31337 0.14488 0.56049 0.0
H863 H 0.41842 0.17821 0.51512 0.0
H864 H 0.42415 0.18153 0.59786 0.0
H865 H 0.45644 0.19166 0.55526 0.0
H866 H 0.37103 0.18023 0.81653 0.0
H867 H 0.26712 0.14825 0.86305 0.0
H868 H 0.25997 0.14633 0.78054 0.0
H869 H 0.22884 0.13695 0.82341 0.0
Eu870 Eu 0.86258 0.1707 0.71854 0.0
C871 C 0.78481 0.22959 0.63891 0.0
C872 C 0.71581 0.18307 0.64225 0.0
C873 C 0.7359 0.24829 0.63062 0.0
C874 C 0.75558 0.19301 0.64424 0.0
C875 C 0.77538 0.25746 0.63133 0.0
C876 C 0.70614 0.21113 0.6361 0.0
C877 C 0.84434 0.30007 0.62308 0.0
N878 N 0.8225 0.23724 0.6394 0.0
C879 C 0.85209 0.27133 0.63053 0.0
C880 C 0.80584 0.2933 0.62385 0.0
Eu881 Eu 0.83423 0.18833 0.65374 0.0
N882 N 0.76605 0.16661 0.64982 0.0
C883 C 0.73812 0.12913 0.65157 0.0
C884 C 0.68701 0.14504 0.64569 0.0
C885 C 0.69827 0.11787 0.64994 0.0
H886 H 0.8819 0.27665 0.62993 0.0
H887 H 0.67627 0.08824 0.65209 0.0
H888 H 0.67576 0.20413 0.63478 0.0
H889 H 0.86802 0.32737 0.61673 0.0
H890 H 0.74618 0.10775 0.65501 0.0
H891 H 0.02026 0.27071 0.72174 0.0
H892 H 0.65614 0.13624 0.64441 0.0
H893 H 0.81336 0.07963 0.73732 0.0
H894 H 0.95032 0.25139 0.71827 0.0
H895 H 0.8272 0.02836 0.74914 0.0
H896 H 0.72805 0.26941 0.62513 0.0
H897 H 0.04006 0.22241 0.72921 0.0
H898 H 0.02018 0.15422 0.73774 0.0
H899 H 0.79984 0.31551 0.61791 0.0
H900 H 0.96773 0.08834 0.74528 0.0
N901 N 0.93042 0.19248 0.72309 0.0
C902 C 0.95838 0.22995 0.72164 0.0
C903 C 0.00922 0.21372 0.72773 0.0
C904 C 0.98032 0.17559 0.73059 0.0
C905 C 0.99816 0.24107 0.72357 0.0
C906 C 0.94061 0.16575 0.72831 0.0
H907 H 0.89572 0.04125 0.74989 0.0
N908 N 0.87333 0.12055 0.73093 0.0
C909 C 0.85107 0.0564 0.74436 0.0
C910 C 0.91117 0.12866 0.73237 0.0
C911 C 0.84333 0.08544 0.73774 0.0
C912 C 0.88979 0.06377 0.74471 0.0
C913 C 0.92047 0.10039 0.73904 0.0
O914 O 0.82813 0.15403 0.75445 0.0
O915 O 0.8171 0.17557 0.69561 0.0
O916 O 0.84674 0.23925 0.67834 0.0
O917 O 0.88175 0.23315 0.71304 0.0
O918 O 0.79681 0.13038 0.72121 0.0
O919 O 0.88346 0.2066 0.75309 0.0
O920 O 0.86633 0.20324 0.61675 0.0
O921 O 0.88041 0.18501 0.67689 0.0
O922 O 0.85667 0.12442 0.69186 0.0
O923 O 0.81367 0.12549 0.66139 0.0
O924 O 0.89966 0.22902 0.65056 0.0
O925 O 0.81476 0.14828 0.62147 0.0
C926 C 0.7863 0.14806 0.70519 0.0
C927 C 0.86162 0.17555 0.79401 0.0
C928 C 0.85199 0.17645 0.84102 0.0
C929 C 0.84654 0.1857 0.81551 0.0
C930 C 0.87294 0.15701 0.84453 0.0
C931 C 0.88259 0.15644 0.79808 0.0
C932 C 0.88817 0.14724 0.82323 0.0
C933 C 0.86909 0.2524 0.69919 0.0
C934 C 0.85354 0.18336 0.76748 0.0
C935 C 0.95997 0.10974 0.74042 0.0
C936 C 0.98984 0.14726 0.73615 0.0
C937 C 0.91094 0.21278 0.66723 0.0
C938 C 0.82923 0.17496 0.5792 0.0
C939 C 0.8464 0.16837 0.55716 0.0
C940 C 0.83434 0.1715 0.53192 0.0
C941 C 0.80512 0.18173 0.52929 0.0
C942 C 0.80011 0.18493 0.57596 0.0
C943 C 0.78822 0.18834 0.55113 0.0
C944 C 0.83083 0.10851 0.6731 0.0
C945 C 0.84196 0.17161 0.60547 0.0
H946 H 0.83004 0.20021 0.81233 0.0
H947 H 0.87822 0.14997 0.86382 0.0
H948 H 0.89442 0.14842 0.78186 0.0
H949 H 0.90441 0.13247 0.82622 0.0
H950 H 0.86869 0.16037 0.55973 0.0
H951 H 0.79564 0.18518 0.51029 0.0
H952 H 0.78658 0.19008 0.5926 0.0
H953 H 0.76586 0.19625 0.54878 0.0
C954 C 0.36221 0.87233 0.05399 0.0
C955 C 0.33023 0.87578 0.06313 0.0
H956 H 0.42104 0.90089 0.0389 0.0
C957 C 0.33245 0.91133 0.06135 0.0
H958 H 0.36168 0.84546 0.0552 0.0
C959 C 0.36641 0.94294 0.05189 0.0
C960 C 0.39881 0.93975 0.04377 0.0
H961 H 0.30815 0.91489 0.06765 0.0
H962 H 0.36786 0.97029 0.05171 0.0
C963 C 0.39621 0.90403 0.04448 0.0
C964 C 0.09992 0.42151 0.06162 0.0
C965 C 0.13769 0.45356 0.06221 0.0
H966 H 0.03888 0.39939 0.05387 0.0
C967 C 0.14248 0.48862 0.05363 0.0
H968 H 0.09518 0.39398 0.06769 0.0
C969 C 0.10995 0.49171 0.04569 0.0
C970 C 0.07216 0.45962 0.04561 0.0
H971 H 0.17111 0.51392 0.05395 0.0
H972 H 0.1142 0.5193 0.04028 0.0
C973 C 0.06767 0.42455 0.05353 0.0
C974 C 0.53921 0.67756 0.0454 0.0
C975 C 0.57149 0.69665 0.06204 0.0
H976 H 0.50312 0.62721 0.02372 0.0
C977 C 0.59253 0.67857 0.06938 0.0
H978 H 0.52209 0.69052 0.0396 0.0
C979 C 0.58157 0.64229 0.06039 0.0
C980 C 0.54943 0.62325 0.04368 0.0
H981 H 0.61796 0.69268 0.08175 0.0
H982 H 0.5986 0.62935 0.06644 0.0
C983 C 0.52833 0.64126 0.03628 0.0
C984 C 0.87397 0.32032 1.00458 0.0
C985 C 0.86702 0.31458 0.97772 0.0
H986 H 0.90681 0.35897 0.0348 0.0
C987 C 0.88975 0.34492 0.96067 0.0
H988 H 0.85794 0.29742 0.01832 0.0
C989 C 0.9182 0.38009 0.97026 0.0
C990 C 0.92415 0.3859 0.9971 0.0
H991 H 0.88501 0.34184 0.93993 0.0
H992 H 0.93492 0.40306 0.95668 0.0
C993 C 0.90197 0.35565 0.01414 0.0
C994 C 0.68549 0.58518 0.98017 0.0
C995 C 0.69045 0.55323 0.98099 0.0
H996 H 0.64719 0.60777 0.98678 0.0
C997 C 0.65948 0.51898 0.99107 0.0
H998 H 0.70883 0.61214 0.97296 0.0
C999 C 0.62386 0.51643 0.99894 0.0
C1000 C 0.61881 0.54833 0.99749 0.0
H1001 H 0.66223 0.49376 0.99193 0.0
H1002 H 0.59994 0.48926 1.00529 0.0
C1003 C 0.65026 0.58276 0.98832 0.0
C1004 C 0.43813 0.12121 1.008 0.0
C1005 C 0.44148 0.13178 0.98161 0.0
H1006 H 0.44731 0.08853 0.03693 0.0
C1007 C 0.45633 0.11559 0.96396 0.0
H1008 H 0.42568 0.13198 0.02213 0.0
C1009 C 0.46793 0.08998 0.97254 0.0
C1010 C 0.46574 0.08068 0.99899 0.0
H1011 H 0.45985 0.12327 0.94359 0.0
H1012 H 0.4794 0.07802 0.95856 0.0
C1013 C 0.45056 0.09631 0.01661 0.0
C1014 C 0.63422 0.13289 0.99589 0.0
C1015 C 0.66815 0.13178 0.98886 0.0
H1016 H 0.5731 0.10084 1.00569 0.0
C1017 C 0.66666 0.09676 0.98656 0.0
H1018 H 0.63503 0.1598 0.99807 0.0
C1019 C 0.63138 0.06304 0.99123 0.0
C1020 C 0.59743 0.06405 0.9987 0.0
H1021 H 0.69276 0.09547 0.98145 0.0
H1022 H 0.63066 0.03616 0.98925 0.0
C1023 C 0.59902 0.09926 1.00061 0.0
C1024 C 0.87227 0.49543 0.99534 0.0
C1025 C 0.87343 0.52976 0.9895 0.0
H1026 H 0.90524 0.46747 1.00348 0.0
C1027 C 0.90994 0.56298 0.98703 0.0
H1028 H 0.84439 0.46946 0.99753 0.0
C1029 C 0.9448 0.56191 0.99067 0.0
C1030 C 0.94371 0.52777 0.9974 0.0
H1031 H 0.91152 0.58983 0.9827 0.0
H1032 H 0.97266 0.58795 0.98877 0.0
C1033 C 0.90706 0.49437 0.99907 0.0
C1034 C 0.43786 0.33979 0.98546 0.0
C1035 C 0.46093 0.32441 0.99377 0.0
H1036 H 0.43221 0.38959 0.98319 0.0
C1037 C 0.49764 0.34795 1.00476 0.0
H1038 H 0.40923 0.32175 0.97714 0.0
C1039 C 0.51067 0.38637 1.00841 0.0
C1040 C 0.48708 0.40186 1.00119 0.0
H1041 H 0.51566 0.33635 1.01144 0.0
H1042 H 0.53884 0.4037 0.01753 0.0
C1043 C 0.451 0.37847 0.98899 0.0
C1044 C 0.14531 0.6704 0.03107 0.0
C1045 C 0.15858 0.67654 0.0567 0.0
H1046 H 0.10397 0.63144 1.00401 0.0
C1047 C 0.13827 0.64843 0.07557 0.0
H1048 H 0.16073 0.69183 0.01624 0.0
C1049 C 0.10585 0.61368 0.06851 0.0
C1050 C 0.09401 0.60669 0.04246 0.0
H1051 H 0.14842 0.65269 0.09544 0.0
H1052 H 0.09147 0.59161 0.08307 0.0
C1053 C 0.11324 0.63575 0.02401 0.0
C1054 C 0.3783 0.51112 0.04667 0.0
C1055 C 0.34484 0.47682 0.05379 0.0
H1056 H 0.43963 0.53959 0.03688 0.0
C1057 C 0.3478 0.44392 0.05593 0.0
H1058 H 0.37662 0.53683 0.04462 0.0
C1059 C 0.38379 0.44539 0.05117 0.0
C1060 C 0.41732 0.47965 0.04376 0.0
H1061 H 0.32229 0.41707 0.06111 0.0
H1062 H 0.38542 0.41965 0.05315 0.0
C1063 C 0.41424 0.5126 0.04188 0.0
C1064 C 0.5825 0.90869 0.05746 0.0
C1065 C 0.56341 0.87215 0.047 0.0
H1066 H 0.58274 0.96118 0.06169 0.0
C1067 C 0.5279 0.85921 0.03394 0.0
H1068 H 0.61008 0.91907 0.06753 0.0
C1069 C 0.51225 0.88314 0.03046 0.0
C1070 C 0.53211 0.92053 0.03983 0.0
H1071 H 0.51284 0.83099 0.02572 0.0
H1072 H 0.48503 0.87257 0.01995 0.0
C1073 C 0.56684 0.9327 0.05403 0.0
C1074 C 0.99926 0.2526 0.39454 0.0
C1075 C 0.99367 0.2157 0.39402 0.0
H1076 H 0.03854 0.3117 0.38738 0.0
C1077 C 0.02401 0.2102 0.38424 0.0
H1078 H 0.97624 0.25765 0.40159 0.0
C1079 C 0.05983 0.24121 0.37621 0.0
C1080 C 0.06553 0.27815 0.3772 0.0
H1081 H 0.02053 0.18203 0.38364 0.0
H1082 H 0.08338 0.23638 0.37011 0.0
C1083 C 0.03472 0.28343 0.38615 0.0
C1084 C 0.80693 0.81989 0.38684 0.0
C1085 C 0.80198 0.78477 0.39543 0.0
H1086 H 0.77894 0.85104 0.37419 0.0
C1087 C 0.76398 0.75297 0.39526 0.0
H1088 H 0.8357 0.84502 0.38684 0.0
C1089 C 0.7317 0.75638 0.38773 0.0
C1090 C 0.7364 0.79159 0.37996 0.0
H1091 H 0.75907 0.72538 0.40133 0.0
H1092 H 0.70274 0.73149 0.38852 0.0
C1093 C 0.77443 0.82334 0.37945 0.0
C1094 C 0.24453 0.02391 0.36791 0.0
C1095 C 0.23981 0.03062 0.39417 0.0
H1096 H 0.23633 0.98294 0.33895 0.0
C1097 C 0.2226 -0.0005 0.41142 0.0
H1098 H 0.25869 0.04707 0.35412 0.0
C1099 C 0.21072 0.96285 0.40267 0.0
C1100 C 0.21486 0.95644 0.37642 0.0
H1101 H 0.21784 0.00329 0.43164 0.0
H1102 H 0.19775 0.93939 0.41636 0.0
C1103 C 0.23176 0.98714 0.3591 0.0
C1104 C 0.57371 0.66316 0.3067 0.0
C1105 C 0.53363 0.64809 0.31245 0.0
H1106 H 0.6322 0.70932 0.31138 0.0
C1107 C 0.52222 0.66963 0.32782 0.0
H1108 H 0.58373 0.64721 0.29531 0.0
C1109 C 0.55011 0.705 0.33744 0.0
C1110 C 0.59014 0.71992 0.33175 0.0
H1111 H 0.49158 0.65931 0.3323 0.0
H1112 H 0.54018 0.72082 0.34906 0.0
C1113 C 0.60159 0.6987 0.31613 0.0
C1114 C 0.35107 0.91934 0.31404 0.0
C1115 C 0.35628 0.88753 0.31477 0.0
H1116 H 0.31247 0.94155 0.32074 0.0
C1117 C 0.32535 0.85308 0.32463 0.0
H1118 H 0.37436 0.9464 0.30695 0.0
C1119 C 0.28953 0.85021 0.3324 0.0
C1120 C 0.28428 0.88201 0.33117 0.0
H1121 H 0.3283 0.82797 0.3254 0.0
H1122 H 0.26565 0.82289 0.33853 0.0
C1123 C 0.31569 0.91662 0.32217 0.0
C1124 C 0.12712 0.45214 0.29715 0.0
C1125 C 0.11111 0.46749 0.31459 0.0
H1126 H 0.1514 0.4155 0.2921 0.0
C1127 C 0.1074 0.45678 0.34098 0.0
H1128 H 0.13093 0.45996 0.2768 0.0
C1129 C 0.12041 0.43243 0.34978 0.0
C1130 C 0.13655 0.41751 0.33235 0.0
H1131 H 0.09407 0.4669 0.35493 0.0
H1132 H 0.11664 0.42434 0.37005 0.0
C1133 C 0.13929 0.42705 0.30592 0.0
C1134 C 0.30856 0.46417 0.3318 0.0
C1135 C 0.34125 0.46023 0.32593 0.0
H1136 H 0.24666 0.43575 0.33969 0.0
C1137 C 0.33663 0.42391 0.32349 0.0
H1138 H 0.31175 0.49208 0.33408 0.0
C1139 C 0.29962 0.39178 0.32701 0.0
C1140 C 0.26693 0.39557 0.3335 0.0
H1141 H 0.36167 0.42038 0.31928 0.0
H1142 H 0.29661 0.3639 0.32505 0.0
C1143 C 0.27155 0.43205 0.33537 0.0
C1144 C 0.53878 0.83137 0.32967 0.0
C1145 C 0.54052 0.86608 0.32433 0.0
H1146 H 0.57086 0.80244 0.33722 0.0
C1147 C 0.57732 0.89909 0.32235 0.0
H1148 H 0.51068 0.80554 0.33147 0.0
C1149 C 0.61188 0.89739 0.32592 0.0
C1150 C 0.61017 0.8628 0.33206 0.0
H1151 H 0.57936 0.92624 0.31844 0.0
H1152 H 0.63996 0.92326 0.32436 0.0
C1153 C 0.57323 0.82968 0.33332 0.0
C1154 C 0.16339 0.68107 0.33719 0.0
C1155 C 0.12649 0.65757 0.32642 0.0
H1156 H 0.20487 0.73688 0.34977 0.0
C1157 C 0.10341 0.673 0.31826 0.0
H1158 H 0.18143 0.66942 0.34373 0.0
C1159 C 0.11668 0.71167 0.32178 0.0
C1160 C 0.1529 0.73503 0.33383 0.0
H1161 H 0.07465 0.65498 0.3101 0.0
H1162 H 0.09784 0.72281 0.31613 0.0
C1163 C 0.17657 0.71953 0.34082 0.0
C1164 C 0.83021 0.98683 0.37647 0.0
C1165 C 0.82043 0.01345 0.38564 0.0
H1166 H 0.80957 0.92975 0.36458 0.0
C1167 C 0.78121 0.00198 0.39166 0.0
H1168 H 0.86033 0.99528 0.37154 0.0
C1169 C 0.75179 0.96418 0.38769 0.0
C1170 C 0.76142 0.93782 0.37728 0.0
H1171 H 0.77318 0.0224 0.39853 0.0
H1172 H 0.72151 0.95608 0.39164 0.0
C1173 C 0.80106 0.9494 0.37233 0.0
C1174 C 0.04334 0.84394 0.37985 0.0
C1175 C 0.00989 0.80963 0.38701 0.0
H1176 H 0.10466 0.87237 0.36987 0.0
C1177 C 0.0129 0.77677 0.38922 0.0
H1178 H 0.04161 0.86962 0.37774 0.0
C1179 C 0.04888 0.77825 0.38442 0.0
C1180 C 0.08236 0.81247 0.3769 0.0
H1181 H 0.98742 0.74992 0.39444 0.0
H1182 H 0.05049 0.7525 0.38638 0.0
C1183 C 0.07929 0.84543 0.37502 0.0
C1184 C 0.19191 0.19218 0.36831 0.0
C1185 C 0.22723 0.20467 0.38153 0.0
H1186 H 0.14967 0.20628 0.35413 0.0
C1187 C 0.24647 0.24104 0.39221 0.0
H1188 H 0.17676 0.16408 0.35989 0.0
C1189 C 0.23126 0.2654 0.38877 0.0
C1190 C 0.19685 0.25376 0.3743 0.0
H1191 H 0.27391 0.25109 0.4024 0.0
H1192 H 0.24734 0.29375 0.3966 0.0
C1193 C 0.17669 0.21646 0.36482 0.0
C1194 C 0.6658 0.5792 0.72803 0.0
C1195 C 0.66328 0.54352 0.72964 0.0
H1196 H 0.70152 0.63821 0.71866 0.0
C1197 C 0.69518 0.53993 0.72049 0.0
H1198 H 0.64157 0.58288 0.73434 0.0
C1199 C 0.72944 0.57166 0.7112 0.0
C1200 C 0.7323 0.60751 0.71064 0.0
H1201 H 0.69435 0.51292 0.72153 0.0
H1202 H 0.75423 0.56844 0.70566 0.0
C1203 C 0.69992 0.61079 0.71872 0.0
C1204 C 0.43098 0.0883 0.72925 0.0
C1205 C 0.46875 0.12037 0.72977 0.0
H1206 H 0.36985 0.06613 0.72176 0.0
C1207 C 0.47339 0.15546 0.72138 0.0
H1208 H 0.42633 0.06074 0.73517 0.0
C1209 C 0.44077 0.15851 0.71364 0.0
C1210 C 0.40301 0.12639 0.71359 0.0
H1211 H 0.502 0.18079 0.72166 0.0
H1212 H 0.44494 0.18611 0.70832 0.0
C1213 C 0.39862 0.09131 0.72139 0.0
C1214 C 0.9108 0.3585 0.69951 0.0
C1215 C 0.90666 0.36532 0.72585 0.0
H1216 H 0.90187 0.31738 0.67045 0.0
C1217 C 0.8894 0.33418 0.74309 0.0
H1218 H 0.92491 0.38163 0.68569 0.0
C1219 C 0.87714 0.29747 0.73429 0.0
C1220 C 0.8809 0.29095 0.708 0.0
H1221 H 0.88499 0.338 0.76336 0.0
H1222 H 0.86427 0.27405 0.74801 0.0
C1223 C 0.89764 0.32165 0.69066 0.0
C1224 C 0.19634 0.99033 0.67004 0.0
C1225 C 0.19641 0.9826 0.6434 0.0
H1226 H 0.2234 0.02997 0.70078 0.0
C1227 C 0.22588 0.01052 0.62748 0.0
H1228 H 0.17471 0.96936 0.68311 0.0
C1229 C 0.25434 0.04505 0.63788 0.0
C1230 C 0.25382 0.05291 0.66441 0.0
H1231 H 0.22662 0.00615 0.60682 0.0
H1232 H 0.27626 0.06594 0.62491 0.0
C1233 C 0.22445 0.02515 0.68032 0.0
C1234 C 0.01683 0.25242 0.64657 0.0
C1235 C 0.02173 0.22044 0.64742 0.0
H1236 H 0.97848 0.27502 0.65295 0.0
C1237 C 0.99059 0.18613 0.65729 0.0
H1238 H 0.04029 0.27941 0.6395 0.0
C1239 C 0.95488 0.18356 0.66493 0.0
C1240 C 0.94989 0.2155 0.66348 0.0
H1241 H 0.99329 0.16089 0.65816 0.0
H1242 H 0.93084 0.15635 0.67109 0.0
C1243 C 0.9815 0.24998 0.65451 0.0
C1244 C 0.76949 0.7882 0.67501 0.0
C1245 C 0.77232 0.79834 0.64855 0.0
H1246 H 0.77956 0.75626 0.70407 0.0
C1247 C 0.78697 0.78195 0.6309 0.0
H1248 H 0.75723 0.79914 0.68916 0.0
C1249 C 0.7989 0.75662 0.63955 0.0
C1250 C 0.79726 0.74778 0.66605 0.0
H1251 H 0.79014 0.78931 0.61048 0.0
H1252 H 0.81026 0.74457 0.62556 0.0
C1253 C 0.78229 0.76361 0.68368 0.0
C1254 C 0.96277 0.80429 0.66046 0.0
C1255 C 0.99683 0.80517 0.65121 0.0
H1256 H 0.90335 0.7699 0.67342 0.0
C1257 C 0.99768 0.77123 0.64897 0.0
H1258 H 0.96172 0.83032 0.66248 0.0
C1259 C 0.96439 0.73661 0.65556 0.0
C1260 C 0.93006 0.73559 0.66472 0.0
H1261 H 0.02387 0.77146 0.64202 0.0
H1262 H 0.96533 0.71056 0.65331 0.0
C1263 C 0.92957 0.76979 0.667 0.0
C1264 C 0.2409 0.22963 0.65434 0.0
C1265 C 0.20434 0.19654 0.65707 0.0
H1266 H 0.30361 0.25444 0.65596 0.0
C1267 C 0.20307 0.16226 0.66327 0.0
H1268 H 0.24257 0.25644 0.64974 0.0
C1269 C 0.23781 0.16113 0.66707 0.0
C1270 C 0.27452 0.19441 0.6651 0.0
H1271 H 0.17515 0.13639 0.66566 0.0
H1272 H 0.23588 0.13426 0.67173 0.0
C1273 C 0.27571 0.22849 0.65806 0.0
C1274 C 0.76939 0.00656 0.65118 0.0
C1275 C 0.79249 0.99129 0.65964 0.0
H1276 H 0.76374 0.05631 0.64854 0.0
C1277 C 0.8293 0.01499 0.67044 0.0
H1278 H 0.74069 0.98839 0.64298 0.0
C1279 C 0.84239 0.05348 0.6738 0.0
C1280 C 0.81873 0.06885 0.66648 0.0
H1281 H 0.84736 0.00348 0.67721 0.0
H1282 H 0.87063 0.07097 0.6828 0.0
C1283 C 0.78258 0.04528 0.65442 0.0
C1284 C 0.46986 0.31635 0.74213 0.0
C1285 C 0.48909 0.34434 0.72299 0.0
H1286 H 0.42388 0.25933 0.75031 0.0
C1287 C 0.47468 0.33769 0.69763 0.0
H1288 H 0.48088 0.32097 0.76179 0.0
C1289 C 0.4426 0.30273 0.69108 0.0
C1290 C 0.42445 0.27383 0.70976 0.0
H1291 H 0.48925 0.35899 0.68259 0.0
H1292 H 0.43249 0.29804 0.67126 0.0
C1293 C 0.4374 0.28128 0.73558 0.0
C1294 C 0.6789 0.11167 0.72193 0.0
C1295 C 0.67615 0.14469 0.7199 0.0
H1296 H 0.71607 0.08699 0.71858 0.0
C1297 C 0.70959 0.17883 0.71247 0.0
H1298 H 0.65341 0.08494 0.72735 0.0
C1299 C 0.7453 0.18003 0.70724 0.0
C1300 C 0.74812 0.14692 0.70899 0.0
H1301 H 0.70806 0.20463 0.7105 0.0
H1302 H 0.7707 0.20686 0.70194 0.0
C1303 C 0.71464 0.11285 0.71673 0.0
C1304 C 0.8617 0.52819 0.70193 0.0
C1305 C 0.8978 0.54138 0.71427 0.0
H1306 H 0.81854 0.54146 0.68844 0.0
C1307 C 0.91764 0.57833 0.72404 0.0
H1308 H 0.84609 0.49968 0.69419 0.0
C1309 C 0.9021 0.60246 0.72063 0.0
C1310 C 0.86675 0.58997 0.70712 0.0
H1311 H 0.94573 0.58894 0.73348 0.0
H1312 H 0.91856 0.63125 0.72768 0.0
C1313 C 0.84619 0.55222 0.69846 0.0
C1314 C 0.50343 0.95695 0.24321 0.0
C1315 C 0.46282 0.93223 0.24606 0.0
H1316 H 0.55056 0.99657 0.21893 0.0
C1317 C 0.43863 0.92783 0.22468 0.0
H1318 H 0.52311 0.9614 0.25914 0.0
C1319 C 0.45444 0.94841 0.20152 0.0
C1320 C 0.4949 0.97414 0.19908 0.0
H1321 H 0.40729 0.90863 0.22588 0.0
H1322 H 0.43475 0.94506 0.18585 0.0
C1323 C 0.51918 0.97753 0.22014 0.0
C1324 C 0.02416 0.52607 0.24469 0.0
C1325 C 0.05404 0.51677 0.24714 0.0
H1326 H 0.98168 0.52838 0.22024 0.0
C1327 C 0.06391 0.50244 0.22527 0.0
H1328 H 0.01522 0.5367 0.26108 0.0
C1329 C 0.04379 0.49668 0.20184 0.0
C1330 C 0.01338 0.50531 0.19961 0.0
H1331 H 0.08712 0.49545 0.22623 0.0
H1332 H 0.05146 0.48457 0.1857 0.0
C1333 C 1.00435 0.52067 0.22127 0.0
C1334 C 0.48252 0.50968 0.24301 0.0
C1335 C 0.48566 0.54561 0.24489 0.0
H1336 H 0.49191 0.47127 0.21968 0.0
C1337 C 0.49843 0.56953 0.22287 0.0
H1338 H 0.47301 0.4906 0.25956 0.0
C1339 C 0.50955 0.55857 0.20003 0.0
C1340 C 0.50839 0.52346 0.19861 0.0
H1341 H 0.50076 0.59723 0.22351 0.0
H1342 H 0.52067 0.57834 0.18386 0.0
C1343 C 0.49382 0.4988 0.22021 0.0
C1344 C 1.00381 0.4996 0.79719 0.0
C1345 C 0.96826 0.46531 0.7947 0.0
H1346 H 0.05162 0.53551 0.8219 0.0
C1347 C 0.95261 0.44151 0.81658 0.0
H1348 H 0.01684 0.51842 0.78068 0.0
C1349 C 0.97262 0.45124 0.84019 0.0
C1350 C 0.0089 0.48486 0.8424 0.0
H1351 H 0.92511 0.41504 0.81533 0.0
H1352 H 0.96033 0.43179 0.85647 0.0
C1353 C 0.02395 0.50919 0.82074 0.0
C1354 C 0.57976 0.50909 0.81927 0.0
C1355 C 0.5567 0.48767 0.79825 0.0
H1356 H 0.58096 0.53077 0.85739 0.0
C1357 C 0.51568 0.47064 0.80043 0.0
H1358 H 0.61142 0.52222 0.81841 0.0
C1359 C 0.49824 0.47542 0.82281 0.0
C1360 C 0.52129 0.49716 0.84373 0.0
H1361 H 0.497 0.45412 0.78461 0.0
H1362 H 0.46656 0.46197 0.82374 0.0
C1363 C 0.56229 0.51364 0.84176 0.0
C1364 C 0.48545 0.03139 0.79783 0.0
C1365 C 0.52104 0.06584 0.79552 0.0
H1366 H 0.44792 0.98336 0.82136 0.0
C1367 C 0.54731 0.07727 0.81648 0.0
H1368 H 0.46457 0.02145 0.78209 0.0
C1369 C 0.5377 0.05505 0.83932 0.0
C1370 C 0.50183 0.02067 0.84155 0.0
H1371 H 0.57483 0.10378 0.81547 0.0
H1372 H 0.5585 0.06457 0.85509 0.0
C1373 C 0.47598 0.00932 0.8204 0.0
C1374 C 0.10507 0.2616 0.55782 0.0
C1375 C 0.12894 0.26515 0.57921 0.0
H1376 H 0.10186 0.27981 0.51918 0.0
C1377 C 0.16968 0.28937 0.57655 0.0
H1378 H 0.07364 0.24279 0.55887 0.0
C1379 C 0.18587 0.31027 0.55364 0.0
C1380 C 0.16191 0.30773 0.53259 0.0
H1381 H 0.18911 0.29315 0.59249 0.0
H1382 H 0.21733 0.32888 0.55257 0.0
C1383 C 0.12131 0.28251 0.53485 0.0
C1384 C 0.68787 0.86015 0.57901 0.0
C1385 C 0.71702 0.84985 0.58141 0.0
H1386 H 0.6461 0.86378 0.55456 0.0
C1387 C 0.72634 0.83513 0.5595 0.0
H1388 H 0.67943 0.87113 0.59544 0.0
C1389 C 0.70644 0.83006 0.53606 0.0
C1390 C 0.67679 0.83973 0.53385 0.0
H1391 H 0.74897 0.82736 0.56045 0.0
H1392 H 0.7137 0.81769 0.51987 0.0
C1393 C 0.66823 0.85535 0.55557 0.0
C1394 C 0.19072 0.87801 0.57723 0.0
C1395 C 0.1547 0.87753 0.57823 0.0
H1396 H 0.23075 0.86831 0.55485 0.0
C1397 C 0.13002 0.86409 0.55649 0.0
H1398 H 0.21035 0.8878 0.59365 0.0
C1399 C 0.14161 0.85241 0.53411 0.0
C1400 C 0.1781 0.8537 0.53297 0.0
H1401 H 0.10222 0.86364 0.55649 0.0
H1402 H 0.12195 0.84232 0.51772 0.0
C1403 C 0.20229 0.86644 0.55496 0.0
C1404 C 0.66555 0.83093 0.13293 0.0
C1405 C 0.62969 0.79689 0.13062 0.0
H1406 H 0.71392 0.86649 0.15732 0.0
C1407 C 0.61397 0.77339 0.15263 0.0
H1408 H 0.6787 0.84953 0.11633 0.0
C1409 C 0.63437 0.78297 0.17611 0.0
C1410 C 0.67107 0.81618 0.17808 0.0
H1411 H 0.58623 0.74714 0.15156 0.0
H1412 H 0.62208 0.7636 0.19243 0.0
C1413 C 0.68601 0.84041 0.15635 0.0
C1414 C 0.18272 0.80243 0.1339 0.0
C1415 C 0.22377 0.81995 0.13177 0.0
H1416 H 0.13333 0.79335 0.15709 0.0
C1417 C 0.24666 0.84187 0.15269 0.0
H1418 H 0.1642 0.78551 0.11814 0.0
C1419 C 0.22895 0.84638 0.17505 0.0
C1420 C 0.18791 0.82936 0.17699 0.0
H1421 H 0.27835 0.85538 0.15184 0.0
H1422 H 0.24747 0.86384 0.19063 0.0
C1423 C 0.16504 0.80719 0.15616 0.0
C1424 C 0.15326 0.36552 0.13155 0.0
C1425 C 0.18914 0.39964 0.12902 0.0
H1426 H 0.11536 0.31804 0.1554 0.0
C1427 C 0.21552 0.41103 0.14991 0.0
H1428 H 0.13228 0.35558 0.11587 0.0
C1429 C 0.20577 0.3891 0.17289 0.0
C1430 C 0.16962 0.35505 0.17535 0.0
H1431 H 0.24327 0.43729 0.14872 0.0
H1432 H 0.22668 0.39857 0.18859 0.0
C1433 C 0.14364 0.34375 0.15428 0.0
C1434 C 0.83757 0.62286 0.90958 0.0
C1435 C 0.79693 0.59818 0.9123 0.0
H1436 H 0.88481 0.66296 0.88557 0.0
C1437 C 0.77282 0.59431 0.89099 0.0
H1438 H 0.85716 0.62688 0.92547 0.0
C1439 C 0.78873 0.61535 0.86802 0.0
C1440 C 0.82921 0.64106 0.86571 0.0
H1441 H 0.74146 0.57515 0.89211 0.0
H1442 H 0.76909 0.61239 0.85241 0.0
C1443 C 0.85342 0.64394 0.88669 0.0
C1444 C 0.35729 0.19406 0.91235 0.0
C1445 C 0.3864 0.18371 0.91467 0.0
H1446 H 0.31534 0.19762 0.88807 0.0
C1447 C 0.3955 0.16884 0.89274 0.0
H1448 H 0.34899 0.20516 0.92879 0.0
C1449 C 0.37534 0.16358 0.86939 0.0
C1450 C 0.34567 0.17324 0.86729 0.0
H1451 H 0.41811 0.16104 0.8936 0.0
H1452 H 0.38239 0.15105 0.85319 0.0
C1453 C 0.33743 0.18913 0.889 0.0
C1454 C 0.80943 0.17504 0.908 0.0
C1455 C 0.81633 0.21236 0.91002 0.0
H1456 H 0.8151 0.13437 0.88465 0.0
C1457 C 0.83211 0.23672 0.88837 0.0
H1458 H 0.79745 0.15563 0.92432 0.0
C1459 C 0.84222 0.2246 0.86567 0.0
C1460 C 0.83713 0.18789 0.86407 0.0
H1461 H 0.83742 0.26554 0.8892 0.0
H1462 H 0.85553 0.24455 0.84976 0.0
C1463 C 0.81991 0.16302 0.88535 0.0
C1464 C 0.33448 0.16589 0.46514 0.0
C1465 C 0.29926 0.13128 0.46267 0.0
H1466 H 0.38202 0.20236 0.48984 0.0
C1467 C 0.28384 0.10752 0.48459 0.0
H1468 H 0.3473 0.18468 0.44859 0.0
C1469 C 0.30382 0.11758 0.50821 0.0
C1470 C 0.33982 0.15149 0.51039 0.0
H1471 H 0.2566 0.08081 0.48336 0.0
H1472 H 0.29175 0.09813 0.5245 0.0
C1473 C 0.35458 0.17582 0.4887 0.0
C1474 C 0.90942 0.17405 0.4834 0.0
C1475 C 0.88602 0.15615 0.46161 0.0
H1476 H 0.91172 0.19298 0.52252 0.0
C1477 C 0.84532 0.14171 0.46372 0.0
H1478 H 0.94079 0.18507 0.48267 0.0
C1479 C 0.82863 0.14586 0.48667 0.0
C1480 C 0.85209 0.16465 0.50823 0.0
H1481 H 0.82632 0.12805 0.44737 0.0
H1482 H 0.79719 0.13453 0.48743 0.0
C1483 C 0.89267 0.17819 0.50641 0.0
C1484 C 0.88063 0.74307 0.48288 0.0
C1485 C 0.85427 0.73122 0.46196 0.0
H1486 H 0.89204 0.73111 0.52163 0.0
C1487 C 0.81869 0.69681 0.46452 0.0
H1488 H 0.90814 0.76957 0.48167 0.0
C1489 C 0.80936 0.67516 0.48729 0.0
C1490 C 0.83532 0.68694 0.50839 0.0
H1491 H 0.79774 0.68655 0.44883 0.0
H1492 H 0.78131 0.64921 0.48844 0.0
C1493 C 0.87116 0.72129 0.5059 0.0
loop_
_geom_bond_atom_site_label_1
_geom_bond_atom_site_label_2
_geom_bond_distance
_geom_bond_site_symmetry_2
_ccdc_geom_bond_type
H0 C3 0.929 . S
H1 C6 0.929 . S
H2 C8 0.930 . S
C3 H0 0.929 . S
C3 C4 1.398 . S
C3 C5 1.396 . S
C4 C3 1.398 . S
C4 C8 1.407 . S
C5 C3 1.396 . S
C5 C6 1.394 . S
C6 H1 0.929 . S
C6 C5 1.394 . S
C6 C7 1.382 . S
C7 C6 1.382 . S
C7 C8 1.392 . S
C7 N9 1.420 . S
C8 H2 0.930 . S
C8 C4 1.407 . S
C8 C7 1.392 . S
N9 C7 1.420 . S
N9 C10 1.244 . S
C10 N9 1.244 . S
H11 C14 0.929 . S
H12 C17 0.929 . S
H13 C19 0.930 . S
C14 H11 0.929 . S
C14 C15 1.398 . S
C14 C16 1.396 . S
C15 C14 1.398 . S
C15 C19 1.407 . S
C16 C14 1.396 . S
C16 C17 1.394 . S
C17 H12 0.929 . S
C17 C16 1.394 . S
C17 C18 1.382 . S
C18 C17 1.382 . S
C18 C19 1.392 . S
C18 N20 1.420 . S
C19 H13 0.930 . S
C19 C15 1.407 . S
C19 C18 1.392 . S
N20 C18 1.420 . S
N20 C21 1.244 . S
C21 N20 1.244 . S
H22 C25 0.929 . S
H23 C28 0.929 . S
H24 C30 0.930 . S
C25 H22 0.929 . S
C25 C26 1.398 . S
C25 C27 1.396 . S
C26 C25 1.398 . S
C26 C30 1.407 . S
C27 C25 1.396 . S
C27 C28 1.394 . S
C28 H23 0.929 . S
C28 C27 1.394 . S
C28 C29 1.382 . S
C29 C28 1.382 . S
C29 C30 1.392 . S
C29 N31 1.420 . S
C30 H24 0.930 . S
C30 C26 1.407 . S
C30 C29 1.392 . S
N31 C29 1.420 . S
N31 C32 1.244 . S
C32 N31 1.244 . S
H33 C36 0.929 . S
H34 C39 0.929 . S
H35 C41 0.930 . S
C36 H33 0.929 . S
C36 C37 1.398 . S
C36 C38 1.396 . S
C37 C36 1.398 . S
C37 C41 1.407 . S
C38 C36 1.396 . S
C38 C39 1.394 . S
C39 H34 0.929 . S
C39 C38 1.394 . S
C39 C40 1.382 . S
C40 C39 1.382 . S
C40 C41 1.392 . S
C40 N42 1.420 . S
C41 H35 0.930 . S
C41 C37 1.407 . S
C41 C40 1.392 . S
N42 C40 1.420 . S
N42 C43 1.244 . S
C43 N42 1.244 . S
H44 C47 0.929 . S
H45 C50 0.929 . S
H46 C52 0.930 . S
C47 H44 0.929 . S
C47 C48 1.398 . S
C47 C49 1.396 . S
C48 C47 1.398 . S
C48 C52 1.407 . S
C49 C47 1.396 . S
C49 C50 1.394 . S
C50 H45 0.929 . S
C50 C49 1.394 . S
C50 C51 1.382 . S
C51 C50 1.382 . S
C51 C52 1.392 . S
C51 N53 1.420 . S
C52 H46 0.930 . S
C52 C48 1.407 . S
C52 C51 1.392 . S
N53 C51 1.420 . S
N53 C54 1.244 . S
C54 N53 1.244 . S
H55 C58 0.929 . S
H56 C61 0.929 . S
H57 C63 0.930 . S
C58 H55 0.929 . S
C58 C59 1.398 . S
C58 C60 1.396 . S
C59 C58 1.398 . S
C59 C63 1.407 . S
C60 C58 1.396 . S
C60 C61 1.394 . S
C61 H56 0.929 . S
C61 C60 1.394 . S
C61 C62 1.382 . S
C62 C61 1.382 . S
C62 C63 1.392 . S
C62 N64 1.420 . S
C63 H57 0.930 . S
C63 C59 1.407 . S
C63 C62 1.392 . S
N64 C62 1.420 . S
N64 C65 1.244 . S
C65 N64 1.244 . S
H66 C69 0.929 . S
H67 C72 0.929 . S
H68 C74 0.930 . S
C69 H66 0.929 . S
C69 C70 1.398 . S
C69 C71 1.396 . S
C70 C69 1.398 . S
C70 C74 1.407 . S
C71 C69 1.396 . S
C71 C72 1.394 . S
C72 H67 0.929 . S
C72 C71 1.394 . S
C72 C73 1.382 . S
C73 C72 1.382 . S
C73 C74 1.392 . S
C73 N75 1.420 . S
C74 H68 0.930 . S
C74 C70 1.407 . S
C74 C73 1.392 . S
N75 C73 1.420 . S
N75 C76 1.244 . S
C76 N75 1.244 . S
H77 C80 0.929 . S
H78 C83 0.929 . S
H79 C85 0.930 . S
C80 H77 0.929 . S
C80 C81 1.398 . S
C80 C82 1.396 . S
C81 C80 1.398 . S
C81 C85 1.407 . S
C82 C80 1.396 . S
C82 C83 1.394 . S
C83 H78 0.929 . S
C83 C82 1.394 . S
C83 C84 1.382 . S
C84 C83 1.382 . S
C84 C85 1.392 . S
C84 N86 1.420 . S
C85 H79 0.930 . S
C85 C81 1.407 . S
C85 C84 1.392 . S
N86 C84 1.420 . S
N86 C87 1.244 . S
C87 N86 1.244 . S
H88 C91 0.929 . S
H89 C94 0.929 . S
H90 C96 0.930 . S
C91 H88 0.929 . S
C91 C92 1.398 . S
C91 C93 1.396 . S
C92 C91 1.398 . S
C92 C96 1.407 . S
C93 C91 1.396 . S
C93 C94 1.394 . S
C94 H89 0.929 . S
C94 C93 1.394 . S
C94 C95 1.382 . S
C95 C94 1.382 . S
C95 C96 1.392 . S
C95 N97 1.420 . S
C96 H90 0.930 . S
C96 C92 1.407 . S
C96 C95 1.392 . S
N97 C95 1.420 . S
N97 C98 1.244 . S
C98 N97 1.244 . S
H99 C102 0.929 . S
H100 C105 0.929 . S
H101 C107 0.930 . S
C102 H99 0.929 . S
C102 C103 1.398 . S
C102 C104 1.396 . S
C103 C102 1.398 . S
C103 C107 1.407 . S
C104 C102 1.396 . S
C104 C105 1.394 . S
C105 H100 0.929 . S
C105 C104 1.394 . S
C105 C106 1.382 . S
C106 C105 1.382 . S
C106 C107 1.392 . S
C106 N108 1.420 . S
C107 H101 0.930 . S
C107 C103 1.407 . S
C107 C106 1.392 . S
N108 C106 1.420 . S
N108 C109 1.244 . S
C109 N108 1.244 . S
H110 C113 0.929 . S
H111 C116 0.929 . S
H112 C118 0.930 . S
C113 H110 0.929 . S
C113 C114 1.398 . S
C113 C115 1.396 . S
C114 C113 1.398 . S
C114 C118 1.407 . S
C115 C113 1.396 . S
C115 C116 1.394 . S
C116 H111 0.929 . S
C116 C115 1.394 . S
C116 C117 1.382 . S
C117 C116 1.382 . S
C117 C118 1.392 . S
C117 N119 1.420 . S
C118 H112 0.930 . S
C118 C114 1.407 . S
C118 C117 1.392 . S
N119 C117 1.420 . S
N119 C120 1.244 . S
C120 N119 1.244 . S
H121 C124 0.929 . S
H122 C127 0.929 . S
H123 C129 0.930 . S
C124 H121 0.929 . S
C124 C125 1.398 . S
C124 C126 1.396 . S
C125 C124 1.398 . S
C125 C129 1.407 . S
C126 C124 1.396 . S
C126 C127 1.394 . S
C127 H122 0.929 . S
C127 C126 1.394 . S
C127 C128 1.382 . S
C128 C127 1.382 . S
C128 C129 1.392 . S
C128 N130 1.420 . S
C129 H123 0.930 . S
C129 C125 1.407 . S
C129 C128 1.392 . S
N130 C128 1.420 . S
N130 C131 1.244 . S
C131 N130 1.244 . S
H132 C135 0.929 . S
H133 C138 0.929 . S
H134 C140 0.930 . S
C135 H132 0.929 . S
C135 C136 1.398 . S
C135 C137 1.396 . S
C136 C135 1.398 . S
C136 C140 1.407 . S
C137 C135 1.396 . S
C137 C138 1.394 . S
C138 H133 0.929 . S
C138 C137 1.394 . S
C138 C139 1.382 . S
C139 C138 1.382 . S
C139 C140 1.392 . S
C139 N141 1.420 . S
C140 H134 0.930 . S
C140 C136 1.407 . S
C140 C139 1.392 . S
N141 C139 1.420 . S
N141 C142 1.244 . S
C142 N141 1.244 . S
H143 C146 0.929 . S
H144 C149 0.929 . S
H145 C151 0.930 . S
C146 H143 0.929 . S
C146 C147 1.398 . S
C146 C148 1.396 . S
C147 C146 1.398 . S
C147 C151 1.407 . S
C148 C146 1.396 . S
C148 C149 1.394 . S
C149 H144 0.929 . S
C149 C148 1.394 . S
C149 C150 1.382 . S
C150 C149 1.382 . S
C150 C151 1.392 . S
C150 N152 1.420 . S
C151 H145 0.930 . S
C151 C147 1.407 . S
C151 C150 1.392 . S
N152 C150 1.420 . S
N152 C153 1.244 . S
C153 N152 1.244 . S
H154 C157 0.929 . S
H155 C160 0.929 . S
H156 C162 0.930 . S
C157 H154 0.929 . S
C157 C158 1.398 . S
C157 C159 1.396 . S
C158 C157 1.398 . S
C158 C162 1.407 . S
C159 C157 1.396 . S
C159 C160 1.394 . S
C160 H155 0.929 . S
C160 C159 1.394 . S
C160 C161 1.382 . S
C161 C160 1.382 . S
C161 C162 1.392 . S
C161 N163 1.420 . S
C162 H156 0.930 . S
C162 C158 1.407 . S
C162 C161 1.392 . S
N163 C161 1.420 . S
N163 C164 1.244 . S
C164 N163 1.244 . S
H165 C168 0.929 . S
H166 C171 0.929 . S
H167 C173 0.930 . S
C168 H165 0.929 . S
C168 C169 1.398 . S
C168 C170 1.396 . S
C169 C168 1.398 . S
C169 C173 1.407 . S
C170 C168 1.396 . S
C170 C171 1.394 . S
C171 H166 0.929 . S
C171 C170 1.394 . S
C171 C172 1.382 . S
C172 C171 1.382 . S
C172 C173 1.392 . S
C172 N174 1.420 . S
C173 H167 0.930 . S
C173 C169 1.407 . S
C173 C172 1.392 . S
N174 C172 1.420 . S
N174 C175 1.244 . S
C175 N174 1.244 . S
H176 C179 0.929 . S
H177 C182 0.929 . S
H178 C184 0.930 . S
C179 H176 0.929 . S
C179 C180 1.398 . S
C179 C181 1.396 . S
C180 C179 1.398 . S
C180 C184 1.407 . S
C181 C179 1.396 . S
C181 C182 1.394 . S
C182 H177 0.929 . S
C182 C181 1.394 . S
C182 C183 1.382 . S
C183 C182 1.382 . S
C183 C184 1.392 . S
C183 N185 1.420 . S
C184 H178 0.930 . S
C184 C180 1.407 . S
C184 C183 1.392 . S
N185 C183 1.420 . S
N185 C186 1.244 . S
C186 N185 1.244 . S
H187 C190 0.929 . S
H188 C193 0.929 . S
H189 C195 0.930 . S
C190 H187 0.929 . S
C190 C191 1.398 . S
C190 C192 1.396 . S
C191 C190 1.398 . S
C191 C195 1.407 . S
C192 C190 1.396 . S
C192 C193 1.394 . S
C193 H188 0.929 . S
C193 C192 1.394 . S
C193 C194 1.382 . S
C194 C193 1.382 . S
C194 C195 1.392 . S
C194 N196 1.420 . S
C195 H189 0.930 . S
C195 C191 1.407 . S
C195 C194 1.392 . S
N196 C194 1.420 . S
N196 C197 1.244 . S
C197 N196 1.244 . S
Eu198 N229 2.657 . S
Eu198 N236 2.609 . S
Eu198 O242 2.558 . S
Eu198 O243 2.612 1_566 S
Eu198 O245 2.339 1_565 S
Eu198 O246 2.563 1_565 S
Eu198 O247 2.419 1_565 S
Eu198 O249 2.380 1_556 S
Eu198 O250 2.432 . S
Eu198 C262 2.848 . S
C199 C202 1.429 . S
C199 C203 1.411 . S
C199 N206 1.377 . S
C200 C202 1.420 . S
C200 C204 1.423 . S
C200 C212 1.392 . S
C201 C203 1.420 . S
C201 C204 1.351 . S
C201 H224 0.931 . S
C202 C199 1.429 . S
C202 C200 1.420 . S
C202 N210 1.362 . S
C203 C199 1.411 . S
C203 C201 1.420 . S
C203 C208 1.395 . S
C204 C200 1.423 . S
C204 C201 1.351 . S
C204 H216 0.930 . S
C205 C207 1.400 . S
C205 C208 1.386 . S
C205 H217 0.930 . S
N206 C199 1.377 . S
N206 C207 1.321 . S
N206 Eu209 2.609 . S
C207 C205 1.400 . S
C207 N206 1.321 . S
C207 H214 0.930 . S
C208 C203 1.395 . S
C208 C205 1.386 . S
C208 H227 0.930 . S
Eu209 N206 2.609 . S
Eu209 N210 2.657 . S
Eu209 O243 2.380 . S
Eu209 O244 2.432 . S
Eu209 O248 2.558 . S
Eu209 O249 2.612 1_545 S
Eu209 O251 2.339 1_545 S
Eu209 O252 2.563 1_545 S
Eu209 O253 2.419 1_545 S
Eu209 C273 2.848 . S
N210 C202 1.362 . S
N210 Eu209 2.657 . S
N210 C211 1.334 . S
C211 N210 1.334 . S
C211 C213 1.413 . S
C211 H218 0.929 . S
C212 C200 1.392 . S
C212 C213 1.367 . S
C212 H220 0.930 . S
C213 C211 1.413 . S
C213 C212 1.367 . S
C213 H215 0.930 . S
H214 C207 0.930 . S
H215 C213 0.930 . S
H216 C204 0.930 . S
H217 C205 0.930 . S
H218 C211 0.929 . S
H219 C233 0.930 . S
H220 C212 0.930 . S
H221 C239 0.930 . S
H222 C230 0.929 . S
H223 C237 0.930 . S
H224 C201 0.931 . S
H225 C231 0.930 . S
H226 C264 0.930 . S
H227 C208 0.930 . S
H228 C263 0.931 . S
N229 Eu198 2.657 . S
N229 C230 1.334 . S
N229 C234 1.362 . S
C230 H222 0.929 . S
C230 N229 1.334 . S
C230 C233 1.413 . S
C231 H225 0.930 . S
C231 C232 1.392 . S
C231 C233 1.367 . S
C232 C231 1.392 . S
C232 C234 1.420 . S
C232 C264 1.423 . S
C233 H219 0.930 . S
C233 C230 1.413 . S
C233 C231 1.367 . S
C234 N229 1.362 . S
C234 C232 1.420 . S
C234 C238 1.429 . S
H235 C240 0.930 . S
N236 Eu198 2.609 . S
N236 C238 1.377 . S
N236 C239 1.321 . S
C237 H223 0.930 . S
C237 C239 1.400 . S
C237 C240 1.386 . S
C238 C234 1.429 . S
C238 N236 1.377 . S
C238 C241 1.411 . S
C239 H221 0.930 . S
C239 N236 1.321 . S
C239 C237 1.400 . S
C240 H235 0.930 . S
C240 C237 1.386 . S
C240 C241 1.395 . S
C241 C238 1.411 . S
C241 C240 1.395 . S
C241 C263 1.420 . S
O242 Eu198 2.558 . S
O242 C262 1.257 . S
O243 Eu198 2.612 1_544 S
O243 Eu209 2.380 . S
O243 C254 1.276 1_554 S
O244 Eu209 2.432 . S
O244 C261 1.264 1_554 S
O245 Eu198 2.339 1_545 S
O245 C261 1.254 . S
O246 Eu198 2.563 1_545 S
O246 C254 1.235 . S
O247 Eu198 2.419 1_545 S
O247 C262 1.249 1_545 S
O248 Eu209 2.558 . S
O248 C273 1.257 . S
O249 Eu198 2.380 1_554 S
O249 Eu209 2.612 1_565 S
O249 C265 1.276 . S
O250 Eu198 2.432 . S
O250 C272 1.264 1_556 S
O251 Eu209 2.339 1_565 S
O251 C272 1.254 . S
O252 Eu209 2.563 1_565 S
O252 C265 1.235 . S
O253 Eu209 2.419 1_565 S
O253 C273 1.249 1_565 S
C254 O243 1.276 1_556 S
C254 O246 1.235 . S
C255 C257 1.393 . S
C255 C259 1.395 1_545 S
C255 C262 1.492 1_545 S
C256 C257 1.392 . S
C256 C258 1.386 . S
C257 C255 1.393 . S
C257 C256 1.392 . S
C257 H274 0.930 . S
C258 C256 1.386 . S
C258 C260 1.395 1_545 S
C258 H275 0.930 . S
C259 C255 1.395 1_565 S
C259 C260 1.379 . S
C259 H276 0.930 . S
C260 C258 1.395 1_565 S
C260 C259 1.379 . S
C260 H277 0.930 . S
C261 O244 1.264 1_556 S
C261 O245 1.254 . S
C262 Eu198 2.848 . S
C262 O242 1.257 . S
C262 O247 1.249 1_565 S
C262 C255 1.492 1_565 S
C263 H228 0.931 . S
C263 C241 1.420 . S
C263 C264 1.351 . S
C264 H226 0.930 . S
C264 C232 1.423 . S
C264 C263 1.351 . S
C265 O249 1.276 . S
C265 O252 1.235 . S
C266 C267 1.393 1_545 S
C266 C270 1.395 . S
C266 C273 1.492 . S
C267 C266 1.393 1_565 S
C267 C268 1.392 . S
C267 H278 0.930 . S
C268 C267 1.392 . S
C268 C269 1.386 . S
C269 C268 1.386 . S
C269 C271 1.395 1_565 S
C269 H279 0.930 . S
C270 C266 1.395 . S
C270 C271 1.379 . S
C270 H280 0.930 . S
C271 C269 1.395 1_545 S
C271 C270 1.379 . S
C271 H281 0.930 . S
C272 O250 1.264 1_554 S
C272 O251 1.254 . S
C273 Eu209 2.848 . S
C273 O248 1.257 . S
C273 O253 1.249 1_545 S
C273 C266 1.492 . S
H274 C257 0.930 . S
H275 C258 0.930 . S
H276 C259 0.930 . S
H277 C260 0.930 . S
H278 C267 0.930 . S
H279 C269 0.930 . S
H280 C270 0.930 . S
H281 C271 0.930 . S
Eu282 N313 2.657 . S
Eu282 N320 2.609 . S
Eu282 O326 2.558 . S
Eu282 O327 2.612 1_456 S
Eu282 O329 2.339 1_455 S
Eu282 O330 2.563 1_455 S
Eu282 O331 2.419 1_455 S
Eu282 O333 2.380 1_556 S
Eu282 O334 2.432 . S
Eu282 C346 2.848 . S
C283 C286 1.429 . S
C283 C287 1.411 . S
C283 N290 1.377 . S
C284 C286 1.420 . S
C284 C288 1.423 . S
C284 C296 1.392 . S
C285 C287 1.420 . S
C285 C288 1.351 . S
C285 H308 0.931 . S
C286 C283 1.429 . S
C286 C284 1.420 . S
C286 N294 1.362 . S
C287 C283 1.411 . S
C287 C285 1.420 . S
C287 C292 1.395 . S
C288 C284 1.423 . S
C288 C285 1.351 . S
C288 H300 0.930 . S
C289 C291 1.400 . S
C289 C292 1.386 . S
C289 H301 0.930 . S
N290 C283 1.377 . S
N290 C291 1.321 . S
N290 Eu293 2.609 . S
C291 C289 1.400 . S
C291 N290 1.321 . S
C291 H298 0.930 . S
C292 C287 1.395 . S
C292 C289 1.386 . S
C292 H311 0.930 . S
Eu293 N290 2.609 . S
Eu293 N294 2.657 . S
Eu293 O327 2.380 . S
Eu293 O328 2.432 . S
Eu293 O332 2.558 . S
Eu293 O333 2.612 1_655 S
Eu293 O335 2.339 1_655 S
Eu293 O336 2.563 1_655 S
Eu293 O337 2.419 1_655 S
Eu293 C357 2.848 . S
N294 C286 1.362 . S
N294 Eu293 2.657 . S
N294 C295 1.334 . S
C295 N294 1.334 . S
C295 C297 1.413 . S
C295 H302 0.929 . S
C296 C284 1.392 . S
C296 C297 1.367 . S
C296 H304 0.930 . S
C297 C295 1.413 . S
C297 C296 1.367 . S
C297 H299 0.930 . S
H298 C291 0.930 . S
H299 C297 0.930 . S
H300 C288 0.930 . S
H301 C289 0.930 . S
H302 C295 0.929 . S
H303 C317 0.930 . S
H304 C296 0.930 . S
H305 C323 0.930 . S
H306 C314 0.929 . S
H307 C321 0.930 . S
H308 C285 0.931 . S
H309 C315 0.930 . S
H310 C348 0.930 . S
H311 C292 0.930 . S
H312 C347 0.931 . S
N313 Eu282 2.657 . S
N313 C314 1.334 . S
N313 C318 1.362 . S
C314 H306 0.929 . S
C314 N313 1.334 . S
C314 C317 1.413 . S
C315 H309 0.930 . S
C315 C316 1.392 . S
C315 C317 1.367 . S
C316 C315 1.392 . S
C316 C318 1.420 . S
C316 C348 1.423 . S
C317 H303 0.930 . S
C317 C314 1.413 . S
C317 C315 1.367 . S
C318 N313 1.362 . S
C318 C316 1.420 . S
C318 C322 1.429 . S
H319 C324 0.930 . S
N320 Eu282 2.609 . S
N320 C322 1.377 . S
N320 C323 1.321 . S
C321 H307 0.930 . S
C321 C323 1.400 . S
C321 C324 1.386 . S
C322 C318 1.429 . S
C322 N320 1.377 . S
C322 C325 1.411 . S
C323 H305 0.930 . S
C323 N320 1.321 . S
C323 C321 1.400 . S
C324 H319 0.930 . S
C324 C321 1.386 . S
C324 C325 1.395 . S
C325 C322 1.411 . S
C325 C324 1.395 . S
C325 C347 1.420 . S
O326 Eu282 2.558 . S
O326 C346 1.257 . S
O327 Eu282 2.612 1_654 S
O327 Eu293 2.380 . S
O327 C338 1.276 1_554 S
O328 Eu293 2.432 . S
O328 C345 1.264 1_554 S
O329 Eu282 2.339 1_655 S
O329 C345 1.254 . S
O330 Eu282 2.563 1_655 S
O330 C338 1.235 . S
O331 Eu282 2.419 1_655 S
O331 C346 1.249 1_655 S
O332 Eu293 2.558 . S
O332 C357 1.257 . S
O333 Eu282 2.380 1_554 S
O333 Eu293 2.612 1_455 S
O333 C349 1.276 . S
O334 Eu282 2.432 . S
O334 C356 1.264 1_556 S
O335 Eu293 2.339 1_455 S
O335 C356 1.254 . S
O336 Eu293 2.563 1_455 S
O336 C349 1.235 . S
O337 Eu293 2.419 1_455 S
O337 C357 1.249 1_455 S
C338 O327 1.276 1_556 S
C338 O330 1.235 . S
C339 C341 1.393 1_455 S
C339 C343 1.395 . S
C339 C346 1.492 . S
C340 C341 1.392 . S
C340 C342 1.386 . S
C341 C339 1.393 1_655 S
C341 C340 1.392 . S
C341 H358 0.930 . S
C342 C340 1.386 . S
C342 C344 1.395 1_655 S
C342 H359 0.930 . S
C343 C339 1.395 . S
C343 C344 1.379 . S
C343 H360 0.930 . S
C344 C342 1.395 1_455 S
C344 C343 1.379 . S
C344 H361 0.930 . S
C345 O328 1.264 1_556 S
C345 O329 1.254 . S
C346 Eu282 2.848 . S
C346 O326 1.257 . S
C346 O331 1.249 1_455 S
C346 C339 1.492 . S
C347 H312 0.931 . S
C347 C325 1.420 . S
C347 C348 1.351 . S
C348 H310 0.930 . S
C348 C316 1.423 . S
C348 C347 1.351 . S
C349 O333 1.276 . S
C349 O336 1.235 . S
C350 C351 1.407 . S
C350 C354 1.387 1_455 S
C350 C357 1.486 1_455 S
C351 C350 1.407 . S
C351 C352 1.392 . S
C351 H362 0.930 . S
C352 C351 1.392 . S
C352 C353 1.386 . S
C353 C352 1.386 . S
C353 C355 1.395 1_455 S
C353 H363 0.930 . S
C354 C350 1.387 1_655 S
C354 C355 1.379 . S
C354 H364 0.930 . S
C355 C353 1.395 1_655 S
C355 C354 1.379 . S
C355 H365 0.930 . S
C356 O334 1.264 1_554 S
C356 O335 1.254 . S
C357 Eu293 2.848 . S
C357 O332 1.257 . S
C357 O337 1.249 1_655 S
C357 C350 1.486 1_655 S
H358 C341 0.930 . S
H359 C342 0.930 . S
H360 C343 0.930 . S
H361 C344 0.930 . S
H362 C351 0.930 . S
H363 C353 0.930 . S
H364 C354 0.930 . S
H365 C355 0.930 . S
Eu366 N397 2.657 . S
Eu366 N404 2.609 . S
Eu366 O410 2.558 . S
Eu366 O411 2.612 . S
Eu366 O413 2.339 . S
Eu366 O414 2.563 . S
Eu366 O415 2.419 . S
Eu366 O417 2.380 . S
Eu366 O418 2.432 . S
Eu366 C430 2.848 . S
C367 C370 1.429 . S
C367 C371 1.411 . S
C367 N374 1.377 . S
C368 C370 1.420 . S
C368 C372 1.423 . S
C368 C380 1.392 . S
C369 C371 1.420 . S
C369 C372 1.351 . S
C369 H392 0.931 . S
C370 C367 1.429 . S
C370 C368 1.420 . S
C370 N378 1.362 . S
C371 C367 1.411 . S
C371 C369 1.420 . S
C371 C376 1.395 . S
C372 C368 1.423 . S
C372 C369 1.351 . S
C372 H384 0.930 . S
C373 C375 1.400 . S
C373 C376 1.386 . S
C373 H385 0.930 . S
N374 C367 1.377 . S
N374 C375 1.321 . S
N374 Eu377 2.609 . S
C375 C373 1.400 . S
C375 N374 1.321 . S
C375 H382 0.930 . S
C376 C371 1.395 . S
C376 C373 1.386 . S
C376 H395 0.930 . S
Eu377 N374 2.609 . S
Eu377 N378 2.657 . S
Eu377 O411 2.380 1_556 S
Eu377 O412 2.432 . S
Eu377 O416 2.558 . S
Eu377 O417 2.612 1_556 S
Eu377 O419 2.339 . S
Eu377 O420 2.563 . S
Eu377 O421 2.419 . S
Eu377 C441 2.848 . S
N378 C370 1.362 . S
N378 Eu377 2.657 . S
N378 C379 1.334 . S
C379 N378 1.334 . S
C379 C381 1.413 . S
C379 H386 0.929 . S
C380 C368 1.392 . S
C380 C381 1.367 . S
C380 H388 0.930 . S
C381 C379 1.413 . S
C381 C380 1.367 . S
C381 H383 0.930 . S
H382 C375 0.930 . S
H383 C381 0.930 . S
H384 C372 0.930 . S
H385 C373 0.930 . S
H386 C379 0.929 . S
H387 C401 0.930 . S
H388 C380 0.930 . S
H389 C407 0.930 . S
H390 C398 0.929 . S
H391 C405 0.930 . S
H392 C369 0.931 . S
H393 C399 0.930 . S
H394 C432 0.930 . S
H395 C376 0.930 . S
H396 C431 0.931 . S
N397 Eu366 2.657 . S
N397 C398 1.334 . S
N397 C402 1.362 . S
C398 H390 0.929 . S
C398 N397 1.334 . S
C398 C401 1.413 . S
C399 H393 0.930 . S
C399 C400 1.392 . S
C399 C401 1.367 . S
C400 C399 1.392 . S
C400 C402 1.420 . S
C400 C432 1.423 . S
C401 H387 0.930 . S
C401 C398 1.413 . S
C401 C399 1.367 . S
C402 N397 1.362 . S
C402 C400 1.420 . S
C402 C406 1.429 . S
H403 C408 0.930 . S
N404 Eu366 2.609 . S
N404 C406 1.377 . S
N404 C407 1.321 . S
C405 H391 0.930 . S
C405 C407 1.400 . S
C405 C408 1.386 . S
C406 C402 1.429 . S
C406 N404 1.377 . S
C406 C409 1.411 . S
C407 H389 0.930 . S
C407 N404 1.321 . S
C407 C405 1.400 . S
C408 H403 0.930 . S
C408 C405 1.386 . S
C408 C409 1.395 . S
C409 C406 1.411 . S
C409 C408 1.395 . S
C409 C431 1.420 . S
O410 Eu366 2.558 . S
O410 C430 1.257 . S
O411 Eu366 2.612 . S
O411 Eu377 2.380 1_554 S
O411 C422 1.276 . S
O412 Eu377 2.432 . S
O412 C429 1.264 1_556 S
O413 Eu366 2.339 . S
O413 C429 1.254 . S
O414 Eu366 2.563 . S
O414 C422 1.235 . S
O415 Eu366 2.419 . S
O415 C430 1.249 . S
O416 Eu377 2.558 . S
O416 C441 1.257 . S
O417 Eu366 2.380 . S
O417 Eu377 2.612 1_554 S
O417 C433 1.276 1_554 S
O418 Eu366 2.432 . S
O418 C440 1.264 1_554 S
O419 Eu377 2.339 . S
O419 C440 1.254 . S
O420 Eu377 2.563 . S
O420 C433 1.235 . S
O421 Eu377 2.419 . S
O421 C441 1.249 . S
C422 O411 1.276 . S
C422 O414 1.235 . S
C423 C425 1.393 . S
C423 C427 1.395 . S
C423 C430 1.492 . S
C424 C425 1.392 . S
C424 C426 1.386 . S
C425 C423 1.393 . S
C425 C424 1.392 . S
C425 H442 0.930 . S
C426 C424 1.386 . S
C426 C428 1.395 . S
C426 H443 0.930 . S
C427 C423 1.395 . S
C427 C428 1.379 . S
C427 H444 0.930 . S
C428 C426 1.395 . S
C428 C427 1.379 . S
C428 H445 0.930 . S
C429 O412 1.264 1_554 S
C429 O413 1.254 . S
C430 Eu366 2.848 . S
C430 O410 1.257 . S
C430 O415 1.249 . S
C430 C423 1.492 . S
C431 H396 0.931 . S
C431 C409 1.420 . S
C431 C432 1.351 . S
C432 H394 0.930 . S
C432 C400 1.423 . S
C432 C431 1.351 . S
C433 O417 1.276 1_556 S
C433 O420 1.235 . S
C434 C435 1.393 . S
C434 C438 1.395 . S
C434 C441 1.492 . S
C435 C434 1.393 . S
C435 C436 1.392 . S
C435 H446 0.930 . S
C436 C435 1.392 . S
C436 C437 1.386 . S
C437 C436 1.386 . S
C437 C439 1.395 . S
C437 H447 0.930 . S
C438 C434 1.395 . S
C438 C439 1.379 . S
C438 H448 0.930 . S
C439 C437 1.395 . S
C439 C438 1.379 . S
C439 H449 0.930 . S
C440 O418 1.264 1_556 S
C440 O419 1.254 . S
C441 Eu377 2.848 . S
C441 O416 1.257 . S
C441 O421 1.249 . S
C441 C434 1.492 . S
H442 C425 0.930 . S
H443 C426 0.930 . S
H444 C427 0.930 . S
H445 C428 0.930 . S
H446 C435 0.930 . S
H447 C437 0.930 . S
H448 C438 0.930 . S
H449 C439 0.930 . S
Eu450 N481 2.657 . S
Eu450 N488 2.609 . S
Eu450 O494 2.558 . S
Eu450 O495 2.612 . S
Eu450 O497 2.339 . S
Eu450 O498 2.563 . S
Eu450 O499 2.419 . S
Eu450 O501 2.380 . S
Eu450 O502 2.432 . S
Eu450 C514 2.848 . S
C451 C454 1.429 . S
C451 C455 1.411 . S
C451 N458 1.377 . S
C452 C454 1.420 . S
C452 C456 1.423 . S
C452 C464 1.392 . S
C453 C455 1.420 . S
C453 C456 1.351 . S
C453 H476 0.931 . S
C454 C451 1.429 . S
C454 C452 1.420 . S
C454 N462 1.362 . S
C455 C451 1.411 . S
C455 C453 1.420 . S
C455 C460 1.395 . S
C456 C452 1.423 . S
C456 C453 1.351 . S
C456 H468 0.930 . S
C457 C459 1.400 . S
C457 C460 1.386 . S
C457 H469 0.930 . S
N458 C451 1.377 . S
N458 C459 1.321 . S
N458 Eu461 2.609 . S
C459 C457 1.400 . S
C459 N458 1.321 . S
C459 H466 0.930 . S
C460 C455 1.395 . S
C460 C457 1.386 . S
C460 H479 0.930 . S
Eu461 N458 2.609 . S
Eu461 N462 2.657 . S
Eu461 O495 2.380 . S
Eu461 O496 2.432 . S
Eu461 O500 2.558 . S
Eu461 O501 2.612 . S
Eu461 O503 2.339 . S
Eu461 O504 2.563 . S
Eu461 O505 2.419 . S
Eu461 C525 2.848 . S
N462 C454 1.362 . S
N462 Eu461 2.657 . S
N462 C463 1.334 . S
C463 N462 1.334 . S
C463 C465 1.413 . S
C463 H470 0.929 . S
C464 C452 1.392 . S
C464 C465 1.367 . S
C464 H472 0.930 . S
C465 C463 1.413 . S
C465 C464 1.367 . S
C465 H467 0.930 . S
H466 C459 0.930 . S
H467 C465 0.930 . S
H468 C456 0.930 . S
H469 C457 0.930 . S
H470 C463 0.929 . S
H471 C485 0.930 . S
H472 C464 0.930 . S
H473 C491 0.930 . S
H474 C482 0.929 . S
H475 C489 0.930 . S
H476 C453 0.931 . S
H477 C483 0.930 . S
H478 C516 0.930 . S
H479 C460 0.930 . S
H480 C515 0.931 . S
N481 Eu450 2.657 . S
N481 C482 1.334 . S
N481 C486 1.362 . S
C482 H474 0.929 . S
C482 N481 1.334 . S
C482 C485 1.413 1_455 S
C483 H477 0.930 . S
C483 C484 1.392 . S
C483 C485 1.367 . S
C484 C483 1.392 . S
C484 C486 1.420 1_655 S
C484 C516 1.423 . S
C485 H471 0.930 . S
C485 C482 1.413 1_655 S
C485 C483 1.367 . S
C486 N481 1.362 . S
C486 C484 1.420 1_455 S
C486 C490 1.429 . S
H487 C492 0.930 . S
N488 Eu450 2.609 . S
N488 C490 1.377 . S
N488 C491 1.321 . S
C489 H475 0.930 . S
C489 C491 1.400 . S
C489 C492 1.386 . S
C490 C486 1.429 . S
C490 N488 1.377 . S
C490 C493 1.411 . S
C491 H473 0.930 . S
C491 N488 1.321 . S
C491 C489 1.400 . S
C492 H487 0.930 . S
C492 C489 1.386 . S
C492 C493 1.395 . S
C493 C490 1.411 . S
C493 C492 1.395 . S
C493 C515 1.420 1_455 S
O494 Eu450 2.558 . S
O494 C514 1.257 . S
O495 Eu450 2.612 . S
O495 Eu461 2.380 . S
O495 C506 1.276 . S
O496 Eu461 2.432 . S
O496 C513 1.264 . S
O497 Eu450 2.339 . S
O497 C513 1.254 . S
O498 Eu450 2.563 . S
O498 C506 1.235 . S
O499 Eu450 2.419 . S
O499 C514 1.249 . S
O500 Eu461 2.558 . S
O500 C525 1.257 . S
O501 Eu450 2.380 . S
O501 Eu461 2.612 . S
O501 C517 1.276 . S
O502 Eu450 2.432 . S
O502 C524 1.264 . S
O503 Eu461 2.339 . S
O503 C524 1.254 . S
O504 Eu461 2.563 . S
O504 C517 1.235 . S
O505 Eu461 2.419 . S
O505 C525 1.249 . S
C506 O495 1.276 . S
C506 O498 1.235 . S
C507 C509 1.393 . S
C507 C511 1.395 . S
C507 C514 1.492 . S
C508 C509 1.392 . S
C508 C510 1.386 . S
C509 C507 1.393 . S
C509 C508 1.392 . S
C509 H526 0.930 . S
C510 C508 1.386 . S
C510 C512 1.395 . S
C510 H527 0.930 . S
C511 C507 1.395 . S
C511 C512 1.379 . S
C511 H528 0.930 . S
C512 C510 1.395 . S
C512 C511 1.379 . S
C512 H529 0.930 . S
C513 O496 1.264 . S
C513 O497 1.254 . S
C514 Eu450 2.848 . S
C514 O494 1.257 . S
C514 O499 1.249 . S
C514 C507 1.492 . S
C515 H480 0.931 . S
C515 C493 1.420 1_655 S
C515 C516 1.351 . S
C516 H478 0.930 . S
C516 C484 1.423 . S
C516 C515 1.351 . S
C517 O501 1.276 . S
C517 O504 1.235 . S
C518 C519 1.393 . S
C518 C522 1.395 . S
C518 C525 1.492 . S
C519 C518 1.393 . S
C519 C520 1.392 . S
C519 H530 0.930 . S
C520 C519 1.392 . S
C520 C521 1.386 . S
C521 C520 1.386 . S
C521 C523 1.395 . S
C521 H531 0.930 . S
C522 C518 1.395 . S
C522 C523 1.379 . S
C522 H532 0.930 . S
C523 C521 1.395 . S
C523 C522 1.379 . S
C523 H533 0.930 . S
C524 O502 1.264 . S
C524 O503 1.254 . S
C525 Eu461 2.848 . S
C525 O500 1.257 . S
C525 O505 1.249 . S
C525 C518 1.492 . S
H526 C509 0.930 . S
H527 C510 0.930 . S
H528 C511 0.930 . S
H529 C512 0.930 . S
H530 C519 0.930 . S
H531 C521 0.930 . S
H532 C522 0.930 . S
H533 C523 0.930 . S
Eu534 N565 2.657 . S
Eu534 N572 2.609 . S
Eu534 O578 2.558 . S
Eu534 O579 2.612 . S
Eu534 O581 2.339 . S
Eu534 O582 2.563 . S
Eu534 O583 2.419 . S
Eu534 O585 2.380 . S
Eu534 O586 2.432 . S
Eu534 C598 2.848 . S
C535 C538 1.429 . S
C535 C539 1.411 . S
C535 N542 1.377 . S
C536 C538 1.420 . S
C536 C540 1.423 . S
C536 C548 1.392 . S
C537 C539 1.420 . S
C537 C540 1.351 . S
C537 H560 0.931 . S
C538 C535 1.429 . S
C538 C536 1.420 . S
C538 N546 1.362 . S
C539 C535 1.411 . S
C539 C537 1.420 . S
C539 C544 1.395 . S
C540 C536 1.423 . S
C540 C537 1.351 . S
C540 H552 0.930 . S
C541 C543 1.400 . S
C541 C544 1.386 . S
C541 H553 0.930 . S
N542 C535 1.377 . S
N542 C543 1.321 . S
N542 Eu545 2.609 . S
C543 C541 1.400 . S
C543 N542 1.321 . S
C543 H550 0.930 . S
C544 C539 1.395 . S
C544 C541 1.386 . S
C544 H563 0.930 . S
Eu545 N542 2.609 . S
Eu545 N546 2.657 . S
Eu545 O579 2.380 . S
Eu545 O580 2.432 . S
Eu545 O584 2.558 . S
Eu545 O585 2.612 . S
Eu545 O587 2.339 . S
Eu545 O588 2.563 . S
Eu545 O589 2.419 . S
Eu545 C609 2.848 . S
N546 C538 1.362 . S
N546 Eu545 2.657 . S
N546 C547 1.334 . S
C547 N546 1.334 . S
C547 C549 1.413 . S
C547 H554 0.929 . S
C548 C536 1.392 . S
C548 C549 1.367 . S
C548 H556 0.930 . S
C549 C547 1.413 . S
C549 C548 1.367 . S
C549 H551 0.930 . S
H550 C543 0.930 . S
H551 C549 0.930 . S
H552 C540 0.930 . S
H553 C541 0.930 . S
H554 C547 0.929 . S
H555 C569 0.930 . S
H556 C548 0.930 . S
H557 C575 0.930 . S
H558 C566 0.929 . S
H559 C573 0.930 . S
H560 C537 0.931 . S
H561 C567 0.930 . S
H562 C600 0.930 . S
H563 C544 0.930 . S
H564 C599 0.931 . S
N565 Eu534 2.657 . S
N565 C566 1.334 . S
N565 C570 1.362 . S
C566 H558 0.929 . S
C566 N565 1.334 . S
C566 C569 1.413 . S
C567 H561 0.930 . S
C567 C568 1.392 . S
C567 C569 1.367 . S
C568 C567 1.392 . S
C568 C570 1.420 . S
C568 C600 1.423 . S
C569 H555 0.930 . S
C569 C566 1.413 . S
C569 C567 1.367 . S
C570 N565 1.362 . S
C570 C568 1.420 . S
C570 C574 1.429 . S
H571 C576 0.930 . S
N572 Eu534 2.609 . S
N572 C574 1.377 . S
N572 C575 1.321 . S
C573 H559 0.930 . S
C573 C575 1.400 . S
C573 C576 1.386 . S
C574 C570 1.429 . S
C574 N572 1.377 . S
C574 C577 1.411 . S
C575 H557 0.930 . S
C575 N572 1.321 . S
C575 C573 1.400 . S
C576 H571 0.930 . S
C576 C573 1.386 . S
C576 C577 1.395 . S
C577 C574 1.411 . S
C577 C576 1.395 . S
C577 C599 1.420 . S
O578 Eu534 2.558 . S
O578 C598 1.257 . S
O579 Eu534 2.612 . S
O579 Eu545 2.380 . S
O579 C590 1.276 . S
O580 Eu545 2.432 . S
O580 C597 1.264 . S
O581 Eu534 2.339 . S
O581 C597 1.254 . S
O582 Eu534 2.563 . S
O582 C590 1.235 . S
O583 Eu534 2.419 . S
O583 C598 1.249 . S
O584 Eu545 2.558 . S
O584 C609 1.257 . S
O585 Eu534 2.380 . S
O585 Eu545 2.612 . S
O585 C601 1.276 . S
O586 Eu534 2.432 . S
O586 C608 1.264 . S
O587 Eu545 2.339 . S
O587 C608 1.254 . S
O588 Eu545 2.563 . S
O588 C601 1.235 . S
O589 Eu545 2.419 . S
O589 C609 1.249 . S
C590 O579 1.276 . S
C590 O582 1.235 . S
C591 C593 1.393 . S
C591 C595 1.395 . S
C591 C598 1.492 . S
C592 C593 1.392 . S
C592 C594 1.386 . S
C593 C591 1.393 . S
C593 C592 1.392 . S
C593 H610 0.930 . S
C594 C592 1.386 . S
C594 C596 1.395 . S
C594 H611 0.930 . S
C595 C591 1.395 . S
C595 C596 1.379 . S
C595 H612 0.930 . S
C596 C594 1.395 . S
C596 C595 1.379 . S
C596 H613 0.930 . S
C597 O580 1.264 . S
C597 O581 1.254 . S
C598 Eu534 2.848 . S
C598 O578 1.257 . S
C598 O583 1.249 . S
C598 C591 1.492 . S
C599 H564 0.931 . S
C599 C577 1.420 . S
C599 C600 1.351 . S
C600 H562 0.930 . S
C600 C568 1.423 . S
C600 C599 1.351 . S
C601 O585 1.276 . S
C601 O588 1.235 . S
C602 C603 1.393 . S
C602 C606 1.395 . S
C602 C609 1.492 . S
C603 C602 1.393 . S
C603 C604 1.392 . S
C603 H614 0.930 . S
C604 C603 1.392 . S
C604 C605 1.386 . S
C605 C604 1.386 . S
C605 C607 1.395 . S
C605 H615 0.930 . S
C606 C602 1.395 . S
C606 C607 1.379 . S
C606 H616 0.930 . S
C607 C605 1.395 . S
C607 C606 1.379 . S
C607 H617 0.930 . S
C608 O586 1.264 . S
C608 O587 1.254 . S
C609 Eu545 2.848 . S
C609 O584 1.257 . S
C609 O589 1.249 . S
C609 C602 1.492 . S
H610 C593 0.930 . S
H611 C594 0.930 . S
H612 C595 0.930 . S
H613 C596 0.930 . S
H614 C603 0.930 . S
H615 C605 0.930 . S
H616 C606 0.930 . S
H617 C607 0.930 . S
Eu618 N649 2.657 . S
Eu618 N656 2.609 . S
Eu618 O662 2.558 . S
Eu618 O663 2.612 . S
Eu618 O665 2.339 . S
Eu618 O666 2.563 . S
Eu618 O667 2.419 . S
Eu618 O669 2.380 . S
Eu618 O670 2.432 . S
Eu618 C682 2.848 . S
C619 C622 1.429 . S
C619 C623 1.411 . S
C619 N626 1.377 . S
C620 C622 1.420 . S
C620 C624 1.423 . S
C620 C632 1.392 . S
C621 C623 1.420 . S
C621 C624 1.351 . S
C621 H644 0.931 . S
C622 C619 1.429 . S
C622 C620 1.420 . S
C622 N630 1.362 . S
C623 C619 1.411 . S
C623 C621 1.420 . S
C623 C628 1.395 . S
C624 C620 1.423 . S
C624 C621 1.351 . S
C624 H636 0.930 . S
C625 C627 1.400 . S
C625 C628 1.386 . S
C625 H637 0.948 . S
N626 C619 1.377 . S
N626 C627 1.321 . S
N626 Eu629 2.609 . S
C627 C625 1.400 . S
C627 N626 1.321 . S
C627 H634 0.930 . S
C628 C623 1.395 . S
C628 C625 1.386 . S
C628 H647 0.930 . S
Eu629 N626 2.609 . S
Eu629 N630 2.657 . S
Eu629 O663 2.380 . S
Eu629 O664 2.432 . S
Eu629 O668 2.558 . S
Eu629 O669 2.612 . S
Eu629 O671 2.339 . S
Eu629 O672 2.563 . S
Eu629 O673 2.419 . S
Eu629 C693 2.848 . S
N630 C622 1.362 . S
N630 Eu629 2.657 . S
N630 C631 1.334 . S
C631 N630 1.334 . S
C631 C633 1.413 . S
C631 H638 0.929 . S
C632 C620 1.392 . S
C632 C633 1.367 . S
C632 H640 0.930 . S
C633 C631 1.413 . S
C633 C632 1.367 . S
C633 H635 0.930 . S
H634 C627 0.930 . S
H635 C633 0.930 . S
H636 C624 0.930 . S
H637 C625 0.948 . S
H638 C631 0.929 . S
H639 C653 0.930 . S
H640 C632 0.930 . S
H641 C659 0.930 . S
H642 C650 0.929 . S
H643 C657 0.930 . S
H644 C621 0.931 . S
H645 C651 0.930 . S
H646 C684 0.930 . S
H647 C628 0.930 . S
H648 C683 0.931 . S
N649 Eu618 2.657 . S
N649 C650 1.334 . S
N649 C654 1.362 . S
C650 H642 0.929 . S
C650 N649 1.334 . S
C650 C653 1.413 . S
C651 H645 0.930 . S
C651 C652 1.392 . S
C651 C653 1.367 . S
C652 C651 1.392 . S
C652 C654 1.420 . S
C652 C684 1.423 . S
C653 H639 0.930 . S
C653 C650 1.413 . S
C653 C651 1.367 . S
C654 N649 1.362 . S
C654 C652 1.420 . S
C654 C658 1.429 . S
H655 C660 0.930 . S
N656 Eu618 2.609 . S
N656 C658 1.377 . S
N656 C659 1.321 . S
C657 H643 0.930 . S
C657 C659 1.400 . S
C657 C660 1.386 . S
C658 C654 1.429 . S
C658 N656 1.377 . S
C658 C661 1.411 . S
C659 H641 0.930 . S
C659 N656 1.321 . S
C659 C657 1.400 . S
C660 H655 0.930 . S
C660 C657 1.386 . S
C660 C661 1.395 . S
C661 C658 1.411 . S
C661 C660 1.395 . S
C661 C683 1.420 . S
O662 Eu618 2.558 . S
O662 C682 1.257 . S
O663 Eu618 2.612 . S
O663 Eu629 2.380 . S
O663 C674 1.276 . S
O664 Eu629 2.432 . S
O664 C681 1.264 . S
O665 Eu618 2.339 . S
O665 C681 1.254 . S
O666 Eu618 2.563 . S
O666 C674 1.235 . S
O667 Eu618 2.419 . S
O667 C682 1.249 . S
O668 Eu629 2.558 . S
O668 C693 1.257 . S
O669 Eu618 2.380 . S
O669 Eu629 2.612 . S
O669 C685 1.276 . S
O670 Eu618 2.432 . S
O670 C692 1.264 . S
O671 Eu629 2.339 . S
O671 C692 1.254 . S
O672 Eu629 2.563 . S
O672 C685 1.235 . S
O673 Eu629 2.419 . S
O673 C693 1.249 . S
C674 O663 1.276 . S
C674 O666 1.235 . S
C675 C677 1.393 . S
C675 C679 1.395 . S
C675 C682 1.492 . S
C676 C677 1.392 . S
C676 C678 1.386 . S
C677 C675 1.393 . S
C677 C676 1.392 . S
C677 H694 0.930 . S
C678 C676 1.386 . S
C678 C680 1.395 . S
C678 H695 0.930 . S
C679 C675 1.395 . S
C679 C680 1.379 . S
C679 H696 0.930 . S
C680 C678 1.395 . S
C680 C679 1.379 . S
C680 H697 0.930 . S
C681 O664 1.264 . S
C681 O665 1.254 . S
C682 Eu618 2.848 . S
C682 O662 1.257 . S
C682 O667 1.249 . S
C682 C675 1.492 . S
C683 H648 0.931 . S
C683 C661 1.420 . S
C683 C684 1.351 . S
C684 H646 0.930 . S
C684 C652 1.423 . S
C684 C683 1.351 . S
C685 O669 1.276 . S
C685 O672 1.235 . S
C686 C687 1.393 . S
C686 C690 1.395 . S
C686 C693 1.492 . S
C687 C686 1.393 . S
C687 C688 1.392 . S
C687 H698 0.930 . S
C688 C687 1.392 . S
C688 C689 1.386 . S
C689 C688 1.386 . S
C689 C691 1.395 . S
C689 H699 0.930 . S
C690 C686 1.395 . S
C690 C691 1.379 . S
C690 H700 0.930 . S
C691 C689 1.395 . S
C691 C690 1.379 . S
C691 H701 0.930 . S
C692 O670 1.264 . S
C692 O671 1.254 . S
C693 Eu629 2.848 . S
C693 O668 1.257 . S
C693 O673 1.249 . S
C693 C686 1.492 . S
H694 C677 0.930 . S
H695 C678 0.930 . S
H696 C679 0.930 . S
H697 C680 0.930 . S
H698 C687 0.930 . S
H699 C689 0.930 . S
H700 C690 0.930 . S
H701 C691 0.930 . S
Eu702 N733 2.657 . S
Eu702 N740 2.609 . S
Eu702 O746 2.558 . S
Eu702 O747 2.612 . S
Eu702 O749 2.339 . S
Eu702 O750 2.563 . S
Eu702 O751 2.419 . S
Eu702 O753 2.380 . S
Eu702 O754 2.432 . S
Eu702 C766 2.848 . S
C703 C706 1.429 . S
C703 C707 1.411 . S
C703 N710 1.377 . S
C704 C706 1.420 . S
C704 C708 1.423 . S
C704 C716 1.392 . S
C705 C707 1.420 . S
C705 C708 1.351 . S
C705 H728 0.931 . S
C706 C703 1.429 . S
C706 C704 1.420 . S
C706 N714 1.362 . S
C707 C703 1.411 . S
C707 C705 1.420 . S
C707 C712 1.395 . S
C708 C704 1.423 . S
C708 C705 1.351 . S
C708 H720 0.930 . S
C709 C711 1.400 . S
C709 C712 1.386 . S
C709 H721 0.930 . S
N710 C703 1.377 . S
N710 C711 1.321 . S
N710 Eu713 2.609 . S
C711 C709 1.400 . S
C711 N710 1.321 . S
C711 H718 0.930 . S
C712 C707 1.395 . S
C712 C709 1.386 . S
C712 H731 0.930 . S
Eu713 N710 2.609 . S
Eu713 N714 2.657 . S
Eu713 O747 2.380 . S
Eu713 O748 2.432 . S
Eu713 O752 2.558 . S
Eu713 O753 2.612 . S
Eu713 O755 2.339 . S
Eu713 O756 2.563 . S
Eu713 O757 2.419 . S
Eu713 C777 2.848 . S
N714 C706 1.362 . S
N714 Eu713 2.657 . S
N714 C715 1.334 . S
C715 N714 1.334 . S
C715 C717 1.413 . S
C715 H722 0.929 . S
C716 C704 1.392 . S
C716 C717 1.367 . S
C716 H724 0.930 . S
C717 C715 1.413 . S
C717 C716 1.367 . S
C717 H719 0.930 . S
H718 C711 0.930 . S
H719 C717 0.930 . S
H720 C708 0.930 . S
H721 C709 0.930 . S
H722 C715 0.929 . S
H723 C737 0.930 . S
H724 C716 0.930 . S
H725 C743 0.930 . S
H726 C734 0.929 . S
H727 C741 0.930 . S
H728 C705 0.931 . S
H729 C735 0.930 . S
H730 C768 0.930 . S
H731 C712 0.930 . S
H732 C767 0.931 . S
N733 Eu702 2.657 . S
N733 C734 1.334 . S
N733 C738 1.362 . S
C734 H726 0.929 . S
C734 N733 1.334 . S
C734 C737 1.413 . S
C735 H729 0.930 . S
C735 C736 1.392 . S
C735 C737 1.367 . S
C736 C735 1.392 . S
C736 C738 1.420 . S
C736 C768 1.423 . S
C737 H723 0.930 . S
C737 C734 1.413 . S
C737 C735 1.367 . S
C738 N733 1.362 . S
C738 C736 1.420 . S
C738 C742 1.429 . S
H739 C744 0.930 . S
N740 Eu702 2.609 . S
N740 C742 1.377 . S
N740 C743 1.321 . S
C741 H727 0.930 . S
C741 C743 1.400 . S
C741 C744 1.386 . S
C742 C738 1.429 . S
C742 N740 1.377 . S
C742 C745 1.411 . S
C743 H725 0.930 . S
C743 N740 1.321 . S
C743 C741 1.400 . S
C744 H739 0.930 . S
C744 C741 1.386 . S
C744 C745 1.395 . S
C745 C742 1.411 . S
C745 C744 1.395 . S
C745 C767 1.420 . S
O746 Eu702 2.558 . S
O746 C766 1.257 . S
O747 Eu702 2.612 . S
O747 Eu713 2.380 . S
O747 C758 1.276 . S
O748 Eu713 2.432 . S
O748 C765 1.264 . S
O749 Eu702 2.339 . S
O749 C765 1.254 . S
O750 Eu702 2.563 . S
O750 C758 1.235 . S
O751 Eu702 2.419 . S
O751 C766 1.249 . S
O752 Eu713 2.558 . S
O752 C777 1.257 . S
O753 Eu702 2.380 . S
O753 Eu713 2.612 . S
O753 C769 1.276 . S
O754 Eu702 2.432 . S
O754 C776 1.264 . S
O755 Eu713 2.339 . S
O755 C776 1.254 . S
O756 Eu713 2.563 . S
O756 C769 1.235 . S
O757 Eu713 2.419 . S
O757 C777 1.249 . S
C758 O747 1.276 . S
C758 O750 1.235 . S
C759 C761 1.393 . S
C759 C763 1.395 . S
C759 C766 1.492 . S
C760 C761 1.392 . S
C760 C762 1.386 . S
C761 C759 1.393 . S
C761 C760 1.392 . S
C761 H778 0.930 . S
C762 C760 1.386 . S
C762 C764 1.395 . S
C762 H779 0.930 . S
C763 C759 1.395 . S
C763 C764 1.379 . S
C763 H780 0.930 . S
C764 C762 1.395 . S
C764 C763 1.379 . S
C764 H781 0.930 . S
C765 O748 1.264 . S
C765 O749 1.254 . S
C766 Eu702 2.848 . S
C766 O746 1.257 . S
C766 O751 1.249 . S
C766 C759 1.492 . S
C767 H732 0.931 . S
C767 C745 1.420 . S
C767 C768 1.351 . S
C768 H730 0.930 . S
C768 C736 1.423 . S
C768 C767 1.351 . S
C769 O753 1.276 . S
C769 O756 1.235 . S
C770 C771 1.393 . S
C770 C774 1.395 . S
C770 C777 1.492 . S
C771 C770 1.393 . S
C771 C772 1.392 . S
C771 H782 0.930 . S
C772 C771 1.392 . S
C772 C773 1.386 . S
C773 C772 1.386 . S
C773 C775 1.395 . S
C773 H783 0.930 . S
C774 C770 1.395 . S
C774 C775 1.379 . S
C774 H784 0.930 . S
C775 C773 1.395 . S
C775 C774 1.379 . S
C775 H785 0.930 . S
C776 O754 1.264 . S
C776 O755 1.254 . S
C777 Eu713 2.848 . S
C777 O752 1.257 . S
C777 O757 1.249 . S
C777 C770 1.492 . S
H778 C761 0.930 . S
H779 C762 0.930 . S
H780 C763 0.930 . S
H781 C764 0.930 . S
H782 C771 0.930 . S
H783 C773 0.930 . S
H784 C774 0.930 . S
H785 C775 0.930 . S
Eu786 N817 2.657 . S
Eu786 N824 2.609 . S
Eu786 O830 2.558 . S
Eu786 O831 2.612 . S
Eu786 O833 2.339 . S
Eu786 O834 2.563 . S
Eu786 O835 2.419 . S
Eu786 O837 2.380 . S
Eu786 O838 2.432 . S
Eu786 C850 2.848 . S
C787 C790 1.429 . S
C787 C791 1.411 . S
C787 N794 1.377 . S
C788 C790 1.420 . S
C788 C792 1.423 . S
C788 C800 1.392 . S
C789 C791 1.420 . S
C789 C792 1.351 . S
C789 H812 0.931 . S
C790 C787 1.429 . S
C790 C788 1.420 . S
C790 N798 1.362 . S
C791 C787 1.411 . S
C791 C789 1.420 . S
C791 C796 1.395 . S
C792 C788 1.423 . S
C792 C789 1.351 . S
C792 H804 0.930 . S
C793 C795 1.400 . S
C793 C796 1.386 . S
C793 H805 0.930 . S
N794 C787 1.377 . S
N794 C795 1.321 . S
N794 Eu797 2.609 . S
C795 C793 1.400 . S
C795 N794 1.321 . S
C795 H802 0.930 . S
C796 C791 1.395 . S
C796 C793 1.386 . S
C796 H815 0.930 . S
Eu797 N794 2.609 . S
Eu797 N798 2.657 . S
Eu797 O831 2.380 . S
Eu797 O832 2.432 . S
Eu797 O836 2.558 . S
Eu797 O837 2.612 . S
Eu797 O839 2.339 . S
Eu797 O840 2.563 . S
Eu797 O841 2.419 . S
Eu797 C861 2.848 . S
N798 C790 1.362 . S
N798 Eu797 2.657 . S
N798 C799 1.334 . S
C799 N798 1.334 . S
C799 C801 1.413 . S
C799 H806 0.929 . S
C800 C788 1.392 . S
C800 C801 1.367 . S
C800 H808 0.930 . S
C801 C799 1.413 . S
C801 C800 1.367 . S
C801 H803 0.930 . S
H802 C795 0.930 . S
H803 C801 0.930 . S
H804 C792 0.930 . S
H805 C793 0.930 . S
H806 C799 0.929 . S
H807 C821 0.930 . S
H808 C800 0.930 . S
H809 C827 0.930 . S
H810 C818 0.929 . S
H811 C825 0.930 . S
H812 C789 0.931 . S
H813 C819 0.930 . S
H814 C852 0.930 . S
H815 C796 0.930 . S
H816 C851 0.931 . S
N817 Eu786 2.657 . S
N817 C818 1.334 . S
N817 C822 1.362 . S
C818 H810 0.929 . S
C818 N817 1.334 . S
C818 C821 1.413 . S
C819 H813 0.930 . S
C819 C820 1.392 . S
C819 C821 1.367 . S
C820 C819 1.392 . S
C820 C822 1.420 . S
C820 C852 1.423 . S
C821 H807 0.930 . S
C821 C818 1.413 . S
C821 C819 1.367 . S
C822 N817 1.362 . S
C822 C820 1.420 . S
C822 C826 1.429 . S
H823 C828 0.930 . S
N824 Eu786 2.609 . S
N824 C826 1.377 . S
N824 C827 1.321 . S
C825 H811 0.930 . S
C825 C827 1.400 . S
C825 C828 1.386 . S
C826 C822 1.429 . S
C826 N824 1.377 . S
C826 C829 1.411 . S
C827 H809 0.930 . S
C827 N824 1.321 . S
C827 C825 1.400 . S
C828 H823 0.930 . S
C828 C825 1.386 . S
C828 C829 1.395 . S
C829 C826 1.411 . S
C829 C828 1.395 . S
C829 C851 1.420 . S
O830 Eu786 2.558 . S
O830 C850 1.257 . S
O831 Eu786 2.612 . S
O831 Eu797 2.380 . S
O831 C842 1.276 . S
O832 Eu797 2.432 . S
O832 C849 1.264 . S
O833 Eu786 2.339 . S
O833 C849 1.254 . S
O834 Eu786 2.563 . S
O834 C842 1.235 . S
O835 Eu786 2.419 . S
O835 C850 1.249 . S
O836 Eu797 2.558 . S
O836 C861 1.257 . S
O837 Eu786 2.380 . S
O837 Eu797 2.612 . S
O837 C853 1.276 . S
O838 Eu786 2.432 . S
O838 C860 1.264 . S
O839 Eu797 2.339 . S
O839 C860 1.254 . S
O840 Eu797 2.563 . S
O840 C853 1.235 . S
O841 Eu797 2.419 . S
O841 C861 1.249 . S
C842 O831 1.276 . S
C842 O834 1.235 . S
C843 C845 1.393 . S
C843 C847 1.395 . S
C843 C850 1.492 . S
C844 C845 1.392 . S
C844 C846 1.386 . S
C845 C843 1.393 . S
C845 C844 1.392 . S
C845 H862 0.930 . S
C846 C844 1.386 . S
C846 C848 1.395 . S
C846 H863 0.930 . S
C847 C843 1.395 . S
C847 C848 1.379 . S
C847 H864 0.930 . S
C848 C846 1.395 . S
C848 C847 1.379 . S
C848 H865 0.930 . S
C849 O832 1.264 . S
C849 O833 1.254 . S
C850 Eu786 2.848 . S
C850 O830 1.257 . S
C850 O835 1.249 . S
C850 C843 1.492 . S
C851 H816 0.931 . S
C851 C829 1.420 . S
C851 C852 1.351 . S
C852 H814 0.930 . S
C852 C820 1.423 . S
C852 C851 1.351 . S
C853 O837 1.276 . S
C853 O840 1.235 . S
C854 C855 1.393 . S
C854 C858 1.395 . S
C854 C861 1.492 . S
C855 C854 1.393 . S
C855 C856 1.392 . S
C855 H866 0.930 . S
C856 C855 1.392 . S
C856 C857 1.386 . S
C857 C856 1.386 . S
C857 C859 1.395 . S
C857 H867 0.930 . S
C858 C854 1.395 . S
C858 C859 1.379 . S
C858 H868 0.930 . S
C859 C857 1.395 . S
C859 C858 1.379 . S
C859 H869 0.930 . S
C860 O838 1.264 . S
C860 O839 1.254 . S
C861 Eu797 2.848 . S
C861 O836 1.257 . S
C861 O841 1.249 . S
C861 C854 1.492 . S
H862 C845 0.930 . S
H863 C846 0.930 . S
H864 C847 0.930 . S
H865 C848 0.930 . S
H866 C855 0.930 . S
H867 C857 0.930 . S
H868 C858 0.930 . S
H869 C859 0.930 . S
Eu870 N901 2.657 . S
Eu870 N908 2.609 . S
Eu870 O914 2.558 . S
Eu870 O915 2.612 . S
Eu870 O917 2.339 . S
Eu870 O918 2.563 . S
Eu870 O919 2.419 . S
Eu870 O921 2.380 . S
Eu870 O922 2.432 . S
Eu870 C934 2.848 . S
C871 C874 1.429 . S
C871 C875 1.411 . S
C871 N878 1.377 . S
C872 C874 1.420 . S
C872 C876 1.423 . S
C872 C884 1.392 . S
C873 C875 1.420 . S
C873 C876 1.351 . S
C873 H896 0.931 . S
C874 C871 1.429 . S
C874 C872 1.420 . S
C874 N882 1.362 . S
C875 C871 1.411 . S
C875 C873 1.420 . S
C875 C880 1.395 . S
C876 C872 1.423 . S
C876 C873 1.351 . S
C876 H888 0.930 . S
C877 C879 1.400 . S
C877 C880 1.386 . S
C877 H889 0.930 . S
N878 C871 1.377 . S
N878 C879 1.321 . S
N878 Eu881 2.609 . S
C879 C877 1.400 . S
C879 N878 1.321 . S
C879 H886 0.930 . S
C880 C875 1.395 . S
C880 C877 1.386 . S
C880 H899 0.930 . S
Eu881 N878 2.609 . S
Eu881 N882 2.657 . S
Eu881 O915 2.380 . S
Eu881 O916 2.432 . S
Eu881 O920 2.558 . S
Eu881 O921 2.612 . S
Eu881 O923 2.339 . S
Eu881 O924 2.563 . S
Eu881 O925 2.419 . S
Eu881 C945 2.848 . S
N882 C874 1.362 . S
N882 Eu881 2.657 . S
N882 C883 1.334 . S
C883 N882 1.334 . S
C883 C885 1.413 . S
C883 H890 0.929 . S
C884 C872 1.392 . S
C884 C885 1.367 . S
C884 H892 0.930 . S
C885 C883 1.413 . S
C885 C884 1.367 . S
C885 H887 0.930 . S
H886 C879 0.930 . S
H887 C885 0.930 . S
H888 C876 0.930 . S
H889 C877 0.930 . S
H890 C883 0.929 . S
H891 C905 0.930 . S
H892 C884 0.930 . S
H893 C911 0.930 . S
H894 C902 0.929 . S
H895 C909 0.930 . S
H896 C873 0.931 . S
H897 C903 0.930 . S
H898 C936 0.930 . S
H899 C880 0.930 . S
H900 C935 0.931 . S
N901 Eu870 2.657 . S
N901 C902 1.334 . S
N901 C906 1.362 . S
C902 H894 0.929 . S
C902 N901 1.334 . S
C902 C905 1.413 1_655 S
C903 H897 0.930 . S
C903 C904 1.392 . S
C903 C905 1.367 . S
C904 C903 1.392 . S
C904 C906 1.420 1_455 S
C904 C936 1.423 . S
C905 H891 0.930 . S
C905 C902 1.413 1_455 S
C905 C903 1.367 . S
C906 N901 1.362 . S
C906 C904 1.420 1_655 S
C906 C910 1.429 . S
H907 C912 0.930 . S
N908 Eu870 2.609 . S
N908 C910 1.377 . S
N908 C911 1.321 . S
C909 H895 0.930 . S
C909 C911 1.400 . S
C909 C912 1.386 . S
C910 C906 1.429 . S
C910 N908 1.377 . S
C910 C913 1.411 . S
C911 H893 0.930 . S
C911 N908 1.321 . S
C911 C909 1.400 . S
C912 H907 0.930 . S
C912 C909 1.386 . S
C912 C913 1.395 . S
C913 C910 1.411 . S
C913 C912 1.395 . S
C913 C935 1.420 1_655 S
O914 Eu870 2.558 . S
O914 C934 1.257 . S
O915 Eu870 2.612 . S
O915 Eu881 2.380 . S
O915 C926 1.276 . S
O916 Eu881 2.432 . S
O916 C933 1.264 . S
O917 Eu870 2.339 . S
O917 C933 1.254 . S
O918 Eu870 2.563 . S
O918 C926 1.235 . S
O919 Eu870 2.419 . S
O919 C934 1.249 . S
O920 Eu881 2.558 . S
O920 C945 1.257 . S
O921 Eu870 2.380 . S
O921 Eu881 2.612 . S
O921 C937 1.276 . S
O922 Eu870 2.432 . S
O922 C944 1.264 . S
O923 Eu881 2.339 . S
O923 C944 1.254 . S
O924 Eu881 2.563 . S
O924 C937 1.235 . S
O925 Eu881 2.419 . S
O925 C945 1.249 . S
C926 O915 1.276 . S
C926 O918 1.235 . S
C927 C929 1.393 . S
C927 C931 1.395 . S
C927 C934 1.492 . S
C928 C929 1.392 . S
C928 C930 1.386 . S
C929 C927 1.393 . S
C929 C928 1.392 . S
C929 H946 0.930 . S
C930 C928 1.386 . S
C930 C932 1.395 . S
C930 H947 0.930 . S
C931 C927 1.395 . S
C931 C932 1.379 . S
C931 H948 0.930 . S
C932 C930 1.395 . S
C932 C931 1.379 . S
C932 H949 0.930 . S
C933 O916 1.264 . S
C933 O917 1.254 . S
C934 Eu870 2.848 . S
C934 O914 1.257 . S
C934 O919 1.249 . S
C934 C927 1.492 . S
C935 H900 0.931 . S
C935 C913 1.420 1_455 S
C935 C936 1.351 . S
C936 H898 0.930 . S
C936 C904 1.423 . S
C936 C935 1.351 . S
C937 O921 1.276 . S
C937 O924 1.235 . S
C938 C939 1.393 . S
C938 C942 1.395 . S
C938 C945 1.492 . S
C939 C938 1.393 . S
C939 C940 1.392 . S
C939 H950 0.930 . S
C940 C939 1.392 . S
C940 C941 1.386 . S
C941 C940 1.386 . S
C941 C943 1.395 . S
C941 H951 0.930 . S
C942 C938 1.395 . S
C942 C943 1.379 . S
C942 H952 0.930 . S
C943 C941 1.395 . S
C943 C942 1.379 . S
C943 H953 0.930 . S
C944 O922 1.264 . S
C944 O923 1.254 . S
C945 Eu881 2.848 . S
C945 O920 1.257 . S
C945 O925 1.249 . S
C945 C938 1.492 . S
H946 C929 0.930 . S
H947 C930 0.930 . S
H948 C931 0.930 . S
H949 C932 0.930 . S
H950 C939 0.930 . S
H951 C941 0.930 . S
H952 C942 0.930 . S
H953 C943 0.930 . S
C954 C955 1.387 . S
C954 H958 0.950 . S
C954 C963 1.390 . S
C955 C954 1.387 . S
C955 C957 1.387 . S
H956 C963 0.950 . S
C957 C955 1.387 . S
C957 C959 1.390 . S
C957 H961 0.950 . S
H958 C954 0.950 . S
C959 C957 1.390 . S
C959 C960 1.387 . S
C959 H962 0.950 . S
C960 C959 1.387 . S
C960 C963 1.387 . S
H961 C957 0.950 . S
H962 C959 0.950 . S
C963 C954 1.390 . S
C963 H956 0.950 . S
C963 C960 1.387 . S
C964 C965 1.387 . S
C964 H968 0.950 . S
C964 C973 1.390 . S
C965 C964 1.387 . S
C965 C967 1.387 . S
H966 C973 0.950 . S
C967 C965 1.387 . S
C967 C969 1.390 . S
C967 H971 0.950 . S
H968 C964 0.950 . S
C969 C967 1.390 . S
C969 C970 1.387 . S
C969 H972 0.950 . S
C970 C969 1.387 . S
C970 C973 1.387 . S
H971 C967 0.950 . S
H972 C969 0.950 . S
C973 C964 1.390 . S
C973 H966 0.950 . S
C973 C970 1.387 . S
C974 C975 1.387 . S
C974 H978 0.950 . S
C974 C983 1.390 . S
C975 C974 1.387 . S
C975 C977 1.387 . S
H976 C983 0.950 . S
C977 C975 1.387 . S
C977 C979 1.390 . S
C977 H981 0.950 . S
H978 C974 0.950 . S
C979 C977 1.390 . S
C979 C980 1.387 . S
C979 H982 0.950 . S
C980 C979 1.387 . S
C980 C983 1.387 . S
H981 C977 0.950 . S
H982 C979 0.950 . S
C983 C974 1.390 . S
C983 H976 0.950 . S
C983 C980 1.387 . S
C984 C985 1.387 . S
C984 H988 0.950 . S
C984 C993 1.390 . S
C985 C984 1.387 . S
C985 C987 1.387 . S
H986 C993 0.950 1_554 S
C987 C985 1.387 . S
C987 C989 1.390 . S
C987 H991 0.950 . S
H988 C984 0.950 . S
C989 C987 1.390 . S
C989 C990 1.387 . S
C989 H992 0.950 . S
C990 C989 1.387 . S
C990 C993 1.387 . S
H991 C987 0.950 . S
H992 C989 0.950 . S
C993 C984 1.390 . S
C993 H986 0.950 1_556 S
C993 C990 1.387 . S
C994 C995 1.387 . S
C994 H998 0.950 . S
C994 C1003 1.390 . S
C995 C994 1.387 . S
C995 C997 1.387 . S
H996 C1003 0.950 . S
C997 C995 1.387 . S
C997 C999 1.390 . S
C997 H1001 0.950 . S
H998 C994 0.950 . S
C999 C997 1.390 . S
C999 C1000 1.387 . S
C999 H1002 0.950 1_556 S
C1000 C999 1.387 . S
C1000 C1003 1.387 . S
H1001 C997 0.950 . S
H1002 C999 0.950 1_554 S
C1003 C994 1.390 . S
C1003 H996 0.950 . S
C1003 C1000 1.387 . S
C1004 C1005 1.387 . S
C1004 H1008 0.950 1_556 S
C1004 C1013 1.390 1_556 S
C1005 C1004 1.387 . S
C1005 C1007 1.387 . S
H1006 C1013 0.950 . S
C1007 C1005 1.387 . S
C1007 C1009 1.390 . S
C1007 H1011 0.950 . S
H1008 C1004 0.950 1_554 S
C1009 C1007 1.390 . S
C1009 C1010 1.387 . S
C1009 H1012 0.950 . S
C1010 C1009 1.387 . S
C1010 C1013 1.387 1_556 S
H1011 C1007 0.950 . S
H1012 C1009 0.950 . S
C1013 C1004 1.390 1_554 S
C1013 H1006 0.950 . S
C1013 C1010 1.387 1_554 S
C1014 C1015 1.387 1_554 S
C1014 H1018 0.950 . S
C1014 C1023 1.390 . S
C1015 C1014 1.387 1_556 S
C1015 C1017 1.387 . S
H1016 C1023 0.950 . S
C1017 C1015 1.387 . S
C1017 C1019 1.390 . S
C1017 H1021 0.950 . S
H1018 C1014 0.950 . S
C1019 C1017 1.390 . S
C1019 C1020 1.387 . S
C1019 H1022 0.950 . S
C1020 C1019 1.387 . S
C1020 C1023 1.387 1_556 S
H1021 C1017 0.950 . S
H1022 C1019 0.950 . S
C1023 C1014 1.390 . S
C1023 H1016 0.950 . S
C1023 C1020 1.387 1_554 S
C1024 C1025 1.387 . S
C1024 H1028 0.950 . S
C1024 C1033 1.390 . S
C1025 C1024 1.387 . S
C1025 C1027 1.387 . S
H1026 C1033 0.950 . S
C1027 C1025 1.387 . S
C1027 C1029 1.390 1_556 S
C1027 H1031 0.950 1_556 S
H1028 C1024 0.950 . S
C1029 C1027 1.390 1_554 S
C1029 C1030 1.387 1_554 S
C1029 H1032 0.950 . S
C1030 C1029 1.387 1_556 S
C1030 C1033 1.387 . S
H1031 C1027 0.950 1_554 S
H1032 C1029 0.950 . S
C1033 C1024 1.390 . S
C1033 H1026 0.950 . S
C1033 C1030 1.387 . S
C1034 C1035 1.387 . S
C1034 H1038 0.950 . S
C1034 C1043 1.390 . S
C1035 C1034 1.387 . S
C1035 C1037 1.387 . S
H1036 C1043 0.950 . S
C1037 C1035 1.387 . S
C1037 C1039 1.390 . S
C1037 H1041 0.950 . S
H1038 C1034 0.950 . S
C1039 C1037 1.390 . S
C1039 C1040 1.387 . S
C1039 H1042 0.950 1_556 S
C1040 C1039 1.387 . S
C1040 C1043 1.387 . S
H1041 C1037 0.950 . S
H1042 C1039 0.950 1_554 S
C1043 C1034 1.390 . S
C1043 H1036 0.950 . S
C1043 C1040 1.387 . S
C1044 C1045 1.387 . S
C1044 H1048 0.950 . S
C1044 C1053 1.390 . S
C1045 C1044 1.387 . S
C1045 C1047 1.387 . S
H1046 C1053 0.950 1_556 S
C1047 C1045 1.387 . S
C1047 C1049 1.390 . S
C1047 H1051 0.950 . S
H1048 C1044 0.950 . S
C1049 C1047 1.390 . S
C1049 C1050 1.387 . S
C1049 H1052 0.950 . S
C1050 C1049 1.387 . S
C1050 C1053 1.387 . S
H1051 C1047 0.950 . S
H1052 C1049 0.950 . S
C1053 C1044 1.390 . S
C1053 H1046 0.950 1_554 S
C1053 C1050 1.387 . S
C1054 C1055 1.387 . S
C1054 H1058 0.950 . S
C1054 C1063 1.390 . S
C1055 C1054 1.387 . S
C1055 C1057 1.387 . S
H1056 C1063 0.950 . S
C1057 C1055 1.387 . S
C1057 C1059 1.390 . S
C1057 H1061 0.950 . S
H1058 C1054 0.950 . S
C1059 C1057 1.390 . S
C1059 C1060 1.387 . S
C1059 H1062 0.950 . S
C1060 C1059 1.387 . S
C1060 C1063 1.387 . S
H1061 C1057 0.950 . S
H1062 C1059 0.950 . S
C1063 C1054 1.390 . S
C1063 H1056 0.950 . S
C1063 C1060 1.387 . S
C1064 C1065 1.387 . S
C1064 H1068 0.950 . S
C1064 C1073 1.390 . S
C1065 C1064 1.387 . S
C1065 C1067 1.387 . S
H1066 C1073 0.950 . S
C1067 C1065 1.387 . S
C1067 C1069 1.390 . S
C1067 H1071 0.947 1_554 S
H1068 C1064 0.950 . S
C1069 C1067 1.390 . S
C1069 C1070 1.387 . S
C1069 H1072 0.950 1_554 S
C1070 C1069 1.387 . S
C1070 C1073 1.387 . S
H1071 C1067 0.947 1_556 S
H1072 C1069 0.950 1_556 S
C1073 C1064 1.390 . S
C1073 H1066 0.950 . S
C1073 C1070 1.387 . S
C1074 C1075 1.387 . S
C1074 H1078 0.950 . S
C1074 C1083 1.390 1_655 S
C1075 C1074 1.387 . S
C1075 C1077 1.387 . S
H1076 C1083 0.950 . S
C1077 C1075 1.387 . S
C1077 C1079 1.390 1_655 S
C1077 H1081 0.950 . S
H1078 C1074 0.950 . S
C1079 C1077 1.390 1_455 S
C1079 C1080 1.387 . S
C1079 H1082 0.950 . S
C1080 C1079 1.387 . S
C1080 C1083 1.387 . S
H1081 C1077 0.950 . S
H1082 C1079 0.950 . S
C1083 C1074 1.390 1_455 S
C1083 H1076 0.950 . S
C1083 C1080 1.387 . S
C1084 C1085 1.387 . S
C1084 H1088 0.950 . S
C1084 C1093 1.390 . S
C1085 C1084 1.387 . S
C1085 C1087 1.387 . S
H1086 C1093 0.950 . S
C1087 C1085 1.387 . S
C1087 C1089 1.390 . S
C1087 H1091 0.950 . S
H1088 C1084 0.950 . S
C1089 C1087 1.390 . S
C1089 C1090 1.387 . S
C1089 H1092 0.950 . S
C1090 C1089 1.387 . S
C1090 C1093 1.387 . S
H1091 C1087 0.950 . S
H1092 C1089 0.950 . S
C1093 C1084 1.390 . S
C1093 H1086 0.950 . S
C1093 C1090 1.387 . S
C1094 C1095 1.387 . S
C1094 H1098 0.950 . S
C1094 C1103 1.390 1_545 S
C1095 C1094 1.387 . S
C1095 C1097 1.387 . S
H1096 C1103 0.950 . S
C1097 C1095 1.387 . S
C1097 C1099 1.390 1_545 S
C1097 H1101 0.950 . S
H1098 C1094 0.950 . S
C1099 C1097 1.390 1_565 S
C1099 C1100 1.387 . S
C1099 H1102 0.950 . S
C1100 C1099 1.387 . S
C1100 C1103 1.387 . S
H1101 C1097 0.950 . S
H1102 C1099 0.950 . S
C1103 C1094 1.390 1_565 S
C1103 H1096 0.950 . S
C1103 C1100 1.387 . S
C1104 C1105 1.387 . S
C1104 H1108 0.950 . S
C1104 C1113 1.390 . S
C1105 C1104 1.387 . S
C1105 C1107 1.387 . S
H1106 C1113 0.950 . S
C1107 C1105 1.387 . S
C1107 C1109 1.390 . S
C1107 H1111 0.950 . S
H1108 C1104 0.950 . S
C1109 C1107 1.390 . S
C1109 C1110 1.387 . S
C1109 H1112 0.950 . S
C1110 C1109 1.387 . S
C1110 C1113 1.387 . S
H1111 C1107 0.950 . S
H1112 C1109 0.950 . S
C1113 C1104 1.390 . S
C1113 H1106 0.950 . S
C1113 C1110 1.387 . S
C1114 C1115 1.387 . S
C1114 H1118 0.950 . S
C1114 C1123 1.390 . S
C1115 C1114 1.387 . S
C1115 C1117 1.387 . S
H1116 C1123 0.950 . S
C1117 C1115 1.387 . S
C1117 C1119 1.390 . S
C1117 H1121 0.950 . S
H1118 C1114 0.950 . S
C1119 C1117 1.390 . S
C1119 C1120 1.387 . S
C1119 H1122 0.950 . S
C1120 C1119 1.387 . S
C1120 C1123 1.387 . S
H1121 C1117 0.950 . S
H1122 C1119 0.950 . S
C1123 C1114 1.390 . S
C1123 H1116 0.950 . S
C1123 C1120 1.387 . S
C1124 C1125 1.387 . S
C1124 H1128 0.950 . S
C1124 C1133 1.390 . S
C1125 C1124 1.387 . S
C1125 C1127 1.387 . S
H1126 C1133 0.950 . S
C1127 C1125 1.387 . S
C1127 C1129 1.390 . S
C1127 H1131 0.950 . S
H1128 C1124 0.950 . S
C1129 C1127 1.390 . S
C1129 C1130 1.387 . S
C1129 H1132 0.950 . S
C1130 C1129 1.387 . S
C1130 C1133 1.387 . S
H1131 C1127 0.950 . S
H1132 C1129 0.950 . S
C1133 C1124 1.390 . S
C1133 H1126 0.950 . S
C1133 C1130 1.387 . S
C1134 C1135 1.387 . S
C1134 H1138 0.950 . S
C1134 C1143 1.390 . S
C1135 C1134 1.387 . S
C1135 C1137 1.387 . S
H1136 C1143 0.950 . S
C1137 C1135 1.387 . S
C1137 C1139 1.390 . S
C1137 H1141 0.950 . S
H1138 C1134 0.950 . S
C1139 C1137 1.390 . S
C1139 C1140 1.387 . S
C1139 H1142 0.950 . S
C1140 C1139 1.387 . S
C1140 C1143 1.387 . S
H1141 C1137 0.950 . S
H1142 C1139 0.950 . S
C1143 C1134 1.390 . S
C1143 H1136 0.950 . S
C1143 C1140 1.387 . S
C1144 C1145 1.387 . S
C1144 H1148 0.950 . S
C1144 C1153 1.390 . S
C1145 C1144 1.387 . S
C1145 C1147 1.387 . S
H1146 C1153 0.950 . S
C1147 C1145 1.387 . S
C1147 C1149 1.390 . S
C1147 H1151 0.950 . S
H1148 C1144 0.950 . S
C1149 C1147 1.390 . S
C1149 C1150 1.387 . S
C1149 H1152 0.950 . S
C1150 C1149 1.387 . S
C1150 C1153 1.387 . S
H1151 C1147 0.950 . S
H1152 C1149 0.950 . S
C1153 C1144 1.390 . S
C1153 H1146 0.950 . S
C1153 C1150 1.387 . S
C1154 C1155 1.387 . S
C1154 H1158 0.950 . S
C1154 C1163 1.390 . S
C1155 C1154 1.387 . S
C1155 C1157 1.387 . S
H1156 C1163 0.950 . S
C1157 C1155 1.387 . S
C1157 C1159 1.390 . S
C1157 H1161 0.950 . S
H1158 C1154 0.950 . S
C1159 C1157 1.390 . S
C1159 C1160 1.387 . S
C1159 H1162 0.950 . S
C1160 C1159 1.387 . S
C1160 C1163 1.387 . S
H1161 C1157 0.950 . S
H1162 C1159 0.950 . S
C1163 C1154 1.390 . S
C1163 H1156 0.950 . S
C1163 C1160 1.387 . S
C1164 C1165 1.387 . S
C1164 H1168 0.950 . S
C1164 C1173 1.390 . S
C1165 C1164 1.387 . S
C1165 C1167 1.387 . S
H1166 C1173 0.950 . S
C1167 C1165 1.387 . S
C1167 C1169 1.390 . S
C1167 H1171 0.950 . S
H1168 C1164 0.950 . S
C1169 C1167 1.390 . S
C1169 C1170 1.387 . S
C1169 H1172 0.950 . S
C1170 C1169 1.387 . S
C1170 C1173 1.387 . S
H1171 C1167 0.950 . S
H1172 C1169 0.950 . S
C1173 C1164 1.390 . S
C1173 H1166 0.950 . S
C1173 C1170 1.387 . S
C1174 C1175 1.387 . S
C1174 H1178 0.950 . S
C1174 C1183 1.390 . S
C1175 C1174 1.387 . S
C1175 C1177 1.387 . S
H1176 C1183 0.950 . S
C1177 C1175 1.387 . S
C1177 C1179 1.390 . S
C1177 H1181 0.950 . S
H1178 C1174 0.950 . S
C1179 C1177 1.390 . S
C1179 C1180 1.387 . S
C1179 H1182 0.950 . S
C1180 C1179 1.387 . S
C1180 C1183 1.387 . S
H1181 C1177 0.950 . S
H1182 C1179 0.950 . S
C1183 C1174 1.390 . S
C1183 H1176 0.950 . S
C1183 C1180 1.387 . S
C1184 C1185 1.387 . S
C1184 H1188 0.950 . S
C1184 C1193 1.390 . S
C1185 C1184 1.387 . S
C1185 C1187 1.387 . S
H1186 C1193 0.950 . S
C1187 C1185 1.387 . S
C1187 C1189 1.390 . S
C1187 H1191 0.950 . S
H1188 C1184 0.950 . S
C1189 C1187 1.390 . S
C1189 C1190 1.387 . S
C1189 H1192 0.950 . S
C1190 C1189 1.387 . S
C1190 C1193 1.387 . S
H1191 C1187 0.950 . S
H1192 C1189 0.950 . S
C1193 C1184 1.390 . S
C1193 H1186 0.950 . S
C1193 C1190 1.387 . S
C1194 C1195 1.387 . S
C1194 H1198 0.950 . S
C1194 C1203 1.390 . S
C1195 C1194 1.387 . S
C1195 C1197 1.387 . S
H1196 C1203 0.950 . S
C1197 C1195 1.387 . S
C1197 C1199 1.390 . S
C1197 H1201 0.950 . S
H1198 C1194 0.950 . S
C1199 C1197 1.390 . S
C1199 C1200 1.387 . S
C1199 H1202 0.950 . S
C1200 C1199 1.387 . S
C1200 C1203 1.387 . S
H1201 C1197 0.950 . S
H1202 C1199 0.950 . S
C1203 C1194 1.390 . S
C1203 H1196 0.950 . S
C1203 C1200 1.387 . S
C1204 C1205 1.387 . S
C1204 H1208 0.950 . S
C1204 C1213 1.390 . S
C1205 C1204 1.387 . S
C1205 C1207 1.387 . S
H1206 C1213 0.950 . S
C1207 C1205 1.387 . S
C1207 C1209 1.390 . S
C1207 H1211 0.950 . S
H1208 C1204 0.950 . S
C1209 C1207 1.390 . S
C1209 C1210 1.387 . S
C1209 H1212 0.950 . S
C1210 C1209 1.387 . S
C1210 C1213 1.387 . S
H1211 C1207 0.950 . S
H1212 C1209 0.950 . S
C1213 C1204 1.390 . S
C1213 H1206 0.950 . S
C1213 C1210 1.387 . S
C1214 C1215 1.387 . S
C1214 H1218 0.950 . S
C1214 C1223 1.390 . S
C1215 C1214 1.387 . S
C1215 C1217 1.387 . S
H1216 C1223 0.950 . S
C1217 C1215 1.387 . S
C1217 C1219 1.390 . S
C1217 H1221 0.950 . S
H1218 C1214 0.950 . S
C1219 C1217 1.390 . S
C1219 C1220 1.387 . S
C1219 H1222 0.950 . S
C1220 C1219 1.387 . S
C1220 C1223 1.387 . S
H1221 C1217 0.950 . S
H1222 C1219 0.950 . S
C1223 C1214 1.390 . S
C1223 H1216 0.950 . S
C1223 C1220 1.387 . S
C1224 C1225 1.387 . S
C1224 H1228 0.950 . S
C1224 C1233 1.390 1_565 S
C1225 C1224 1.387 . S
C1225 C1227 1.387 . S
H1226 C1233 0.950 . S
C1227 C1225 1.387 . S
C1227 C1229 1.390 1_565 S
C1227 H1231 0.950 . S
H1228 C1224 0.950 . S
C1229 C1227 1.390 1_545 S
C1229 C1230 1.387 . S
C1229 H1232 0.950 . S
C1230 C1229 1.387 . S
C1230 C1233 1.387 . S
H1231 C1227 0.950 . S
H1232 C1229 0.950 . S
C1233 C1224 1.390 1_545 S
C1233 H1226 0.950 . S
C1233 C1230 1.387 . S
C1234 C1235 1.387 . S
C1234 H1238 0.950 . S
C1234 C1243 1.390 . S
C1235 C1234 1.387 . S
C1235 C1237 1.376 1_455 S
H1236 C1243 0.950 . S
C1237 C1235 1.376 1_655 S
C1237 C1239 1.413 . S
C1237 H1241 0.938 . S
H1238 C1234 0.950 . S
C1239 C1237 1.413 . S
C1239 C1240 1.387 . S
C1239 H1242 0.950 . S
C1240 C1239 1.387 . S
C1240 C1243 1.387 1_655 S
H1241 C1237 0.938 . S
H1242 C1239 0.950 . S
C1243 C1234 1.390 . S
C1243 H1236 0.950 . S
C1243 C1240 1.387 1_455 S
C1244 C1245 1.387 . S
C1244 H1248 0.950 . S
C1244 C1253 1.390 . S
C1245 C1244 1.387 . S
C1245 C1247 1.387 . S
H1246 C1253 0.950 . S
C1247 C1245 1.387 . S
C1247 C1249 1.390 . S
C1247 H1251 0.950 . S
H1248 C1244 0.950 . S
C1249 C1247 1.390 . S
C1249 C1250 1.387 . S
C1249 H1252 0.950 . S
C1250 C1249 1.387 . S
C1250 C1253 1.387 . S
H1251 C1247 0.950 . S
H1252 C1249 0.950 . S
C1253 C1244 1.390 . S
C1253 H1246 0.950 . S
C1253 C1250 1.387 . S
C1254 C1255 1.387 . S
C1254 H1258 0.950 . S
C1254 C1263 1.390 . S
C1255 C1254 1.387 . S
C1255 C1257 1.387 . S
H1256 C1263 0.950 . S
C1257 C1255 1.387 . S
C1257 C1259 1.390 . S
C1257 H1261 0.950 . S
H1258 C1254 0.950 . S
C1259 C1257 1.390 . S
C1259 C1260 1.387 . S
C1259 H1262 0.950 . S
C1260 C1259 1.387 . S
C1260 C1263 1.387 . S
H1261 C1257 0.950 . S
H1262 C1259 0.950 . S
C1263 C1254 1.390 . S
C1263 H1256 0.950 . S
C1263 C1260 1.387 . S
C1264 C1265 1.387 . S
C1264 H1268 0.950 . S
C1264 C1273 1.390 . S
C1265 C1264 1.387 . S
C1265 C1267 1.387 . S
H1266 C1273 0.950 . S
C1267 C1265 1.387 . S
C1267 C1269 1.390 . S
C1267 H1271 0.950 . S
H1268 C1264 0.950 . S
C1269 C1267 1.390 . S
C1269 C1270 1.387 . S
C1269 H1272 0.950 . S
C1270 C1269 1.387 . S
C1270 C1273 1.387 . S
H1271 C1267 0.950 . S
H1272 C1269 0.950 . S
C1273 C1264 1.390 . S
C1273 H1266 0.950 . S
C1273 C1270 1.387 . S
C1274 C1275 1.387 . S
C1274 H1278 0.950 . S
C1274 C1283 1.390 . S
C1275 C1274 1.387 . S
C1275 C1277 1.387 . S
H1276 C1283 0.950 . S
C1277 C1275 1.387 . S
C1277 C1279 1.390 . S
C1277 H1281 0.950 . S
H1278 C1274 0.950 . S
C1279 C1277 1.390 . S
C1279 C1280 1.387 . S
C1279 H1282 0.950 . S
C1280 C1279 1.387 . S
C1280 C1283 1.387 . S
H1281 C1277 0.950 . S
H1282 C1279 0.950 . S
C1283 C1274 1.390 . S
C1283 H1276 0.950 . S
C1283 C1280 1.387 . S
C1284 C1285 1.387 . S
C1284 H1288 0.950 . S
C1284 C1293 1.390 . S
C1285 C1284 1.387 . S
C1285 C1287 1.387 . S
H1286 C1293 0.950 . S
C1287 C1285 1.387 . S
C1287 C1289 1.390 . S
C1287 H1291 0.950 . S
H1288 C1284 0.950 . S
C1289 C1287 1.390 . S
C1289 C1290 1.387 . S
C1289 H1292 0.950 . S
C1290 C1289 1.387 . S
C1290 C1293 1.387 . S
H1291 C1287 0.950 . S
H1292 C1289 0.950 . S
C1293 C1284 1.390 . S
C1293 H1286 0.950 . S
C1293 C1290 1.387 . S
C1294 C1295 1.387 . S
C1294 H1298 0.950 . S
C1294 C1303 1.390 . S
C1295 C1294 1.387 . S
C1295 C1297 1.387 . S
H1296 C1303 0.950 . S
C1297 C1295 1.387 . S
C1297 C1299 1.390 . S
C1297 H1301 0.950 . S
H1298 C1294 0.950 . S
C1299 C1297 1.390 . S
C1299 C1300 1.387 . S
C1299 H1302 0.950 . S
C1300 C1299 1.387 . S
C1300 C1303 1.387 . S
H1301 C1297 0.950 . S
H1302 C1299 0.950 . S
C1303 C1294 1.390 . S
C1303 H1296 0.950 . S
C1303 C1300 1.387 . S
C1304 C1305 1.387 . S
C1304 H1308 0.950 . S
C1304 C1313 1.390 . S
C1305 C1304 1.387 . S
C1305 C1307 1.387 . S
H1306 C1313 0.950 . S
C1307 C1305 1.387 . S
C1307 C1309 1.390 . S
C1307 H1311 0.950 . S
H1308 C1304 0.950 . S
C1309 C1307 1.390 . S
C1309 C1310 1.387 . S
C1309 H1312 0.950 . S
C1310 C1309 1.387 . S
C1310 C1313 1.387 . S
H1311 C1307 0.950 . S
H1312 C1309 0.950 . S
C1313 C1304 1.390 . S
C1313 H1306 0.950 . S
C1313 C1310 1.387 . S
C1314 C1315 1.387 . S
C1314 H1318 0.950 . S
C1314 C1323 1.390 . S
C1315 C1314 1.387 . S
C1315 C1317 1.387 . S
H1316 C1323 0.950 . S
C1317 C1315 1.387 . S
C1317 C1319 1.390 . S
C1317 H1321 0.950 . S
H1318 C1314 0.950 . S
C1319 C1317 1.390 . S
C1319 C1320 1.387 . S
C1319 H1322 0.950 . S
C1320 C1319 1.387 . S
C1320 C1323 1.387 . S
H1321 C1317 0.950 . S
H1322 C1319 0.950 . S
C1323 C1314 1.390 . S
C1323 H1316 0.950 . S
C1323 C1320 1.387 . S
C1324 C1325 1.387 . S
C1324 H1328 0.950 . S
C1324 C1333 1.390 . S
C1325 C1324 1.387 . S
C1325 C1327 1.387 . S
H1326 C1333 0.950 . S
C1327 C1325 1.387 . S
C1327 C1329 1.390 . S
C1327 H1331 0.950 . S
H1328 C1324 0.950 . S
C1329 C1327 1.390 . S
C1329 C1330 1.387 . S
C1329 H1332 0.950 . S
C1330 C1329 1.387 . S
C1330 C1333 1.387 . S
H1331 C1327 0.950 . S
H1332 C1329 0.950 . S
C1333 C1324 1.390 . S
C1333 H1326 0.950 . S
C1333 C1330 1.387 . S
C1334 C1335 1.387 . S
C1334 H1338 0.950 . S
C1334 C1343 1.390 . S
C1335 C1334 1.387 . S
C1335 C1337 1.387 . S
H1336 C1343 0.950 . S
C1337 C1335 1.387 . S
C1337 C1339 1.390 . S
C1337 H1341 0.950 . S
H1338 C1334 0.950 . S
C1339 C1337 1.390 . S
C1339 C1340 1.387 . S
C1339 H1342 0.950 . S
C1340 C1339 1.387 . S
C1340 C1343 1.387 . S
H1341 C1337 0.950 . S
H1342 C1339 0.950 . S
C1343 C1334 1.390 . S
C1343 H1336 0.950 . S
C1343 C1340 1.387 . S
C1344 C1345 1.387 . S
C1344 H1348 0.950 . S
C1344 C1353 1.390 . S
C1345 C1344 1.387 . S
C1345 C1347 1.387 . S
H1346 C1353 0.950 . S
C1347 C1345 1.387 . S
C1347 C1349 1.390 . S
C1347 H1351 0.950 . S
H1348 C1344 0.950 . S
C1349 C1347 1.390 . S
C1349 C1350 1.387 . S
C1349 H1352 0.950 . S
C1350 C1349 1.387 . S
C1350 C1353 1.387 . S
H1351 C1347 0.950 . S
H1352 C1349 0.950 . S
C1353 C1344 1.390 . S
C1353 H1346 0.950 . S
C1353 C1350 1.387 . S
C1354 C1355 1.387 . S
C1354 H1358 0.950 . S
C1354 C1363 1.390 . S
C1355 C1354 1.387 . S
C1355 C1357 1.387 . S
H1356 C1363 0.950 . S
C1357 C1355 1.387 . S
C1357 C1359 1.390 . S
C1357 H1361 0.950 . S
H1358 C1354 0.950 . S
C1359 C1357 1.390 . S
C1359 C1360 1.387 . S
C1359 H1362 0.950 . S
C1360 C1359 1.387 . S
C1360 C1363 1.387 . S
H1361 C1357 0.950 . S
H1362 C1359 0.950 . S
C1363 C1354 1.390 . S
C1363 H1356 0.950 . S
C1363 C1360 1.387 . S
C1364 C1365 1.387 . S
C1364 H1368 0.950 . S
C1364 C1373 1.390 . S
C1365 C1364 1.387 . S
C1365 C1367 1.387 . S
H1366 C1373 0.950 . S
C1367 C1365 1.387 . S
C1367 C1369 1.390 . S
C1367 H1371 0.950 . S
H1368 C1364 0.950 . S
C1369 C1367 1.390 . S
C1369 C1370 1.387 . S
C1369 H1372 0.950 . S
C1370 C1369 1.387 . S
C1370 C1373 1.387 . S
H1371 C1367 0.950 . S
H1372 C1369 0.950 . S
C1373 C1364 1.390 . S
C1373 H1366 0.950 . S
C1373 C1370 1.387 . S
C1374 C1375 1.387 . S
C1374 H1378 0.950 . S
C1374 C1383 1.390 . S
C1375 C1374 1.387 . S
C1375 C1377 1.387 . S
H1376 C1383 0.950 . S
C1377 C1375 1.387 . S
C1377 C1379 1.390 . S
C1377 H1381 0.950 . S
H1378 C1374 0.950 . S
C1379 C1377 1.390 . S
C1379 C1380 1.387 . S
C1379 H1382 0.950 . S
C1380 C1379 1.387 . S
C1380 C1383 1.387 . S
H1381 C1377 0.950 . S
H1382 C1379 0.950 . S
C1383 C1374 1.390 . S
C1383 H1376 0.950 . S
C1383 C1380 1.387 . S
C1384 C1385 1.387 . S
C1384 H1388 0.950 . S
C1384 C1393 1.390 . S
C1385 C1384 1.387 . S
C1385 C1387 1.387 . S
H1386 C1393 0.950 . S
C1387 C1385 1.387 . S
C1387 C1389 1.390 . S
C1387 H1391 0.950 . S
H1388 C1384 0.950 . S
C1389 C1387 1.390 . S
C1389 C1390 1.387 . S
C1389 H1392 0.950 . S
C1390 C1389 1.387 . S
C1390 C1393 1.387 . S
H1391 C1387 0.950 . S
H1392 C1389 0.950 . S
C1393 C1384 1.390 . S
C1393 H1386 0.950 . S
C1393 C1390 1.387 . S
C1394 C1395 1.387 . S
C1394 H1398 0.950 . S
C1394 C1403 1.390 . S
C1395 C1394 1.387 . S
C1395 C1397 1.387 . S
H1396 C1403 0.950 . S
C1397 C1395 1.387 . S
C1397 C1399 1.390 . S
C1397 H1401 0.950 . S
H1398 C1394 0.950 . S
C1399 C1397 1.390 . S
C1399 C1400 1.387 . S
C1399 H1402 0.950 . S
C1400 C1399 1.387 . S
C1400 C1403 1.387 . S
H1401 C1397 0.950 . S
H1402 C1399 0.950 . S
C1403 C1394 1.390 . S
C1403 H1396 0.950 . S
C1403 C1400 1.387 . S
C1404 C1405 1.387 . S
C1404 H1408 0.950 . S
C1404 C1413 1.390 . S
C1405 C1404 1.387 . S
C1405 C1407 1.387 . S
H1406 C1413 0.950 . S
C1407 C1405 1.387 . S
C1407 C1409 1.390 . S
C1407 H1411 0.950 . S
H1408 C1404 0.950 . S
C1409 C1407 1.390 . S
C1409 C1410 1.387 . S
C1409 H1412 0.950 . S
C1410 C1409 1.387 . S
C1410 C1413 1.387 . S
H1411 C1407 0.950 . S
H1412 C1409 0.950 . S
C1413 C1404 1.390 . S
C1413 H1406 0.950 . S
C1413 C1410 1.387 . S
C1414 C1415 1.387 . S
C1414 H1418 0.950 . S
C1414 C1423 1.390 . S
C1415 C1414 1.387 . S
C1415 C1417 1.387 . S
H1416 C1423 0.950 . S
C1417 C1415 1.387 . S
C1417 C1419 1.390 . S
C1417 H1421 0.950 . S
H1418 C1414 0.950 . S
C1419 C1417 1.390 . S
C1419 C1420 1.387 . S
C1419 H1422 0.950 . S
C1420 C1419 1.387 . S
C1420 C1423 1.387 . S
H1421 C1417 0.950 . S
H1422 C1419 0.950 . S
C1423 C1414 1.390 . S
C1423 H1416 0.950 . S
C1423 C1420 1.387 . S
C1424 C1425 1.387 . S
C1424 H1428 0.950 . S
C1424 C1433 1.390 . S
C1425 C1424 1.387 . S
C1425 C1427 1.387 . S
H1426 C1433 0.950 . S
C1427 C1425 1.387 . S
C1427 C1429 1.390 . S
C1427 H1431 0.950 . S
H1428 C1424 0.950 . S
C1429 C1427 1.390 . S
C1429 C1430 1.387 . S
C1429 H1432 0.950 . S
C1430 C1429 1.387 . S
C1430 C1433 1.387 . S
H1431 C1427 0.950 . S
H1432 C1429 0.950 . S
C1433 C1424 1.390 . S
C1433 H1426 0.950 . S
C1433 C1430 1.387 . S
C1434 C1435 1.387 . S
C1434 H1438 0.950 . S
C1434 C1443 1.390 . S
C1435 C1434 1.387 . S
C1435 C1437 1.387 . S
H1436 C1443 0.950 . S
C1437 C1435 1.387 . S
C1437 C1439 1.390 . S
C1437 H1441 0.950 . S
H1438 C1434 0.950 . S
C1439 C1437 1.390 . S
C1439 C1440 1.387 . S
C1439 H1442 0.950 . S
C1440 C1439 1.387 . S
C1440 C1443 1.387 . S
H1441 C1437 0.950 . S
H1442 C1439 0.950 . S
C1443 C1434 1.390 . S
C1443 H1436 0.950 . S
C1443 C1440 1.387 . S
C1444 C1445 1.387 . S
C1444 H1448 0.950 . S
C1444 C1453 1.390 . S
C1445 C1444 1.387 . S
C1445 C1447 1.387 . S
H1446 C1453 0.950 . S
C1447 C1445 1.387 . S
C1447 C1449 1.390 . S
C1447 H1451 0.950 . S
H1448 C1444 0.950 . S
C1449 C1447 1.390 . S
C1449 C1450 1.387 . S
C1449 H1452 0.950 . S
C1450 C1449 1.387 . S
C1450 C1453 1.387 . S
H1451 C1447 0.950 . S
H1452 C1449 0.950 . S
C1453 C1444 1.390 . S
C1453 H1446 0.950 . S
C1453 C1450 1.387 . S
C1454 C1455 1.387 . S
C1454 H1458 0.950 . S
C1454 C1463 1.390 . S
C1455 C1454 1.387 . S
C1455 C1457 1.387 . S
H1456 C1463 0.950 . S
C1457 C1455 1.387 . S
C1457 C1459 1.390 . S
C1457 H1461 0.950 . S
H1458 C1454 0.950 . S
C1459 C1457 1.390 . S
C1459 C1460 1.387 . S
C1459 H1462 0.950 . S
C1460 C1459 1.387 . S
C1460 C1463 1.387 . S
H1461 C1457 0.950 . S
H1462 C1459 0.950 . S
C1463 C1454 1.390 . S
C1463 H1456 0.950 . S
C1463 C1460 1.387 . S
C1464 C1465 1.387 . S
C1464 H1468 0.950 . S
C1464 C1473 1.390 . S
C1465 C1464 1.387 . S
C1465 C1467 1.387 . S
H1466 C1473 0.950 . S
C1467 C1465 1.387 . S
C1467 C1469 1.390 . S
C1467 H1471 0.950 . S
H1468 C1464 0.950 . S
C1469 C1467 1.390 . S
C1469 C1470 1.387 . S
C1469 H1472 0.950 . S
C1470 C1469 1.387 . S
C1470 C1473 1.387 . S
H1471 C1467 0.950 . S
H1472 C1469 0.950 . S
C1473 C1464 1.390 . S
C1473 H1466 0.950 . S
C1473 C1470 1.387 . S
C1474 C1475 1.387 . S
C1474 H1478 0.950 . S
C1474 C1483 1.390 . S
C1475 C1474 1.387 . S
C1475 C1477 1.387 . S
H1476 C1483 0.950 . S
C1477 C1475 1.387 . S
C1477 C1479 1.390 . S
C1477 H1481 0.950 . S
H1478 C1474 0.950 . S
C1479 C1477 1.390 . S
C1479 C1480 1.387 . S
C1479 H1482 0.950 . S
C1480 C1479 1.387 . S
C1480 C1483 1.387 . S
H1481 C1477 0.950 . S
H1482 C1479 0.950 . S
C1483 C1474 1.390 . S
C1483 H1476 0.950 . S
C1483 C1480 1.387 . S
C1484 C1485 1.387 . S
C1484 H1488 0.950 . S
C1484 C1493 1.390 . S
C1485 C1484 1.387 . S
C1485 C1487 1.387 . S
H1486 C1493 0.950 . S
C1487 C1485 1.387 . S
C1487 C1489 1.390 . S
C1487 H1491 0.950 . S
H1488 C1484 0.950 . S
C1489 C1487 1.390 . S
C1489 C1490 1.387 . S
C1489 H1492 0.950 . S
C1490 C1489 1.387 . S
C1490 C1493 1.387 . S
H1491 C1487 0.950 . S
H1492 C1489 0.950 . S
C1493 C1484 1.390 . S
C1493 H1486 0.950 . S
C1493 C1490 1.387 . S
C955 C147 1.474 . S
C960 C265 1.421 . S
C965 C158 1.498 . S
C970 C349 1.448 . S
C975 C136 1.469 . S
C980 C429 1.469 . S
C985 C125 1.459 . S
C990 C345 1.461 . S
C1000 C433 1.408 . S
C995 C103 1.465 . S
C1005 C114 1.438 . S
C1010 C261 1.435 . S
C1020 C254 1.462 . S
C1015 C131 1.515 . S
C1030 C338 1.482 . S
C1025 C109 1.534 . S
C1035 C120 1.527 . S
C1040 C440 1.480 . S
C1045 C153 1.505 . S
C1050 C356 1.462 . S
C1055 C164 1.494 . S
C1060 C422 1.435 . S
C1070 C272 1.440 . S
C1065 C142 1.487 . S
C1080 C517 1.420 . S
C1075 C15 1.474 . S
C1085 C26 1.498 . S
C1090 C601 1.450 . S
C1095 C4 1.470 . S
C1100 C681 1.469 . S
C1105 C191 1.459 . S
C1110 C597 1.461 . S
C1115 C169 1.465 . S
C1120 C685 1.407 . S
C1125 C180 1.437 . S
C1130 C513 1.437 . S
C1135 C197 1.515 . S
C1140 C506 1.462 . S
C1145 C175 1.534 . S
C1150 C590 1.482 . S
C1160 C692 1.484 . S
C1155 C186 1.529 . S
C1165 C21 1.506 1_565 S
C1170 C608 1.461 . S
C1180 C674 1.435 . S
C1175 C32 1.494 1_455 S
C1185 C10 1.489 . S
C1190 C524 1.443 . S
C1200 C769 1.418 . S
C1195 C81 1.474 . S
C1205 C92 1.498 . S
C1210 C853 1.447 . S
C1220 C933 1.469 . S
C1215 C70 1.470 . S
C1230 C849 1.461 . S
C1225 C59 1.459 . S
C1240 C937 1.407 . S
C1235 C37 1.465 . S
C1245 C48 1.438 . S
C1250 C765 1.435 . S
C1255 C65 1.515 1_655 S
C1260 C758 1.462 . S
C1265 C43 1.533 . S
C1270 C842 1.485 . S
C1280 C944 1.481 . S
C1275 C54 1.527 1_545 S
C1285 C87 1.505 . S
C1290 C860 1.459 . S
C1295 C98 1.493 . S
C1300 C926 1.439 . S
C1305 C76 1.489 . S
C1310 C776 1.443 . S
C1315 C170 1.570 . S
C1320 C268 1.471 . S
C1330 C352 1.481 . S
C1325 C181 1.612 . S
C1335 C192 1.567 . S
C1340 C424 1.385 . S
C1345 C71 1.579 . S
C1350 C340 1.379 . S
C1355 C82 1.580 . S
C1360 C436 1.456 . S
C1370 C256 1.373 . S
C1365 C93 1.537 . S
C1375 C38 1.571 . S
C1380 C520 1.470 . S
C1385 C49 1.612 . S
C1390 C604 1.481 . S
C1395 C60 1.568 . S
C1400 C676 1.381 . S
C1405 C137 1.579 . S
C1410 C592 1.378 . S
C1420 C688 1.457 . S
C1415 C148 1.578 . S
C1425 C159 1.537 . S
C1430 C508 1.373 . S
C1435 C104 1.569 . S
C1440 C772 1.472 . S
C1445 C115 1.612 . S
C1450 C856 1.482 . S
C1460 C928 1.385 . S
C1455 C126 1.567 . S
C1465 C5 1.579 . S
C1470 C844 1.380 . S
C1475 C16 1.579 . S
C1480 C940 1.454 . S
C1485 C27 1.539 . S
C1490 C760 1.375 . S
