# Generated by pormake.
# Topology apo, (3,6)-cn, num edge types: 1
# Building blocks:
#     Node 0, Type 0, BuildingBlock: PAMTOO_clean_linker_0, # of connection points: 3
#     Node 1, Type 0, BuildingBlock: PAMTOO_clean_linker_0, # of connection points: 3
#     Node 2, Type 0, BuildingBlock: PAMTOO_clean_linker_0, # of connection points: 3
#     Node 3, Type 0, BuildingBlock: PAMTOO_clean_linker_0, # of connection points: 3
#     Node 4, Type 0, BuildingBlock: PAMTOO_clean_linker_0, # of connection points: 3
#     Node 5, Type 0, BuildingBlock: PAMTOO_clean_linker_0, # of connection points: 3
#     Node 6, Type 0, BuildingBlock: PAMTOO_clean_linker_0, # of connection points: 3
#     Node 7, Type 0, BuildingBlock: PAMTOO_clean_linker_0, # of connection points: 3
#     Node 8, Type 1, BuildingBlock: MIDCAF_clean_sbu_0, # of connection points: 6
#     Node 9, Type 1, BuildingBlock: MIDCAF_clean_sbu_0, # of connection points: 6
#     Node 10, Type 1, BuildingBlock: MIDCAF_clean_sbu_0, # of connection points: 6
#     Node 11, Type 1, BuildingBlock: MIDCAF_clean_sbu_0, # of connection points: 6
#     Edge 12, Type (0, 1), BuildingBlock: XIVTED_clean_linker_0, # of connection points: 2
#     Edge 13, Type (0, 1), BuildingBlock: XIVTED_clean_linker_0, # of connection points: 2
#     Edge 14, Type (0, 1), BuildingBlock: XIVTED_clean_linker_0, # of connection points: 2
#     Edge 15, Type (0, 1), BuildingBlock: XIVTED_clean_linker_0, # of connection points: 2
#     Edge 16, Type (0, 1), BuildingBlock: XIVTED_clean_linker_0, # of connection points: 2
#     Edge 17, Type (0, 1), BuildingBlock: XIVTED_clean_linker_0, # of connection points: 2
#     Edge 18, Type (0, 1), BuildingBlock: XIVTED_clean_linker_0, # of connection points: 2
#     Edge 19, Type (0, 1), BuildingBlock: XIVTED_clean_linker_0, # of connection points: 2
#     Edge 20, Type (0, 1), BuildingBlock: XIVTED_clean_linker_0, # of connection points: 2
#     Edge 21, Type (0, 1), BuildingBlock: XIVTED_clean_linker_0, # of connection points: 2
#     Edge 22, Type (0, 1), BuildingBlock: XIVTED_clean_linker_0, # of connection points: 2
#     Edge 23, Type (0, 1), BuildingBlock: XIVTED_clean_linker_0, # of connection points: 2
#     Edge 24, Type (0, 1), BuildingBlock: XIVTED_clean_linker_0, # of connection points: 2
#     Edge 25, Type (0, 1), BuildingBlock: XIVTED_clean_linker_0, # of connection points: 2
#     Edge 26, Type (0, 1), BuildingBlock: XIVTED_clean_linker_0, # of connection points: 2
#     Edge 27, Type (0, 1), BuildingBlock: XIVTED_clean_linker_0, # of connection points: 2
#     Edge 28, Type (0, 1), BuildingBlock: XIVTED_clean_linker_0, # of connection points: 2
#     Edge 29, Type (0, 1), BuildingBlock: XIVTED_clean_linker_0, # of connection points: 2
#     Edge 30, Type (0, 1), BuildingBlock: XIVTED_clean_linker_0, # of connection points: 2
#     Edge 31, Type (0, 1), BuildingBlock: XIVTED_clean_linker_0, # of connection points: 2
#     Edge 32, Type (0, 1), BuildingBlock: XIVTED_clean_linker_0, # of connection points: 2
#     Edge 33, Type (0, 1), BuildingBlock: XIVTED_clean_linker_0, # of connection points: 2
#     Edge 34, Type (0, 1), BuildingBlock: XIVTED_clean_linker_0, # of connection points: 2
#     Edge 35, Type (0, 1), BuildingBlock: XIVTED_clean_linker_0, # of connection points: 2
# Relax obj value: 0.013
# Max RMSD: 0.060
# Mean RMSD: 0.055
data_MOF--net-apo--node1-MIDCAF_clean_sbu_0--node2-PAMTOO_clean_linker_0--edge1-XIVTED_clean_linker_0
_symmetry_space_group_name_H-M    P1
_symmetry_Int_Tables_number       1
_symmetry_cell_setting            triclinic
loop_
_symmetry_equiv_pos_as_xyz
'x, y, z'
_cell_length_a     36.533377
_cell_length_b     42.259867
_cell_length_c     33.661725
_cell_angle_alpha  89.761489
_cell_angle_beta   90.116698
_cell_angle_gamma 90.268888
loop_
_atom_site_label
_atom_site_type_symbol
_atom_site_fract_x
_atom_site_fract_y
_atom_site_fract_z
_atom_type_partial_charge
H0 H 0.39022 0.36511 0.45761 0.0
H1 H 0.3389 0.35615 0.34269 0.0
H2 H 0.32002 0.28576 0.43288 0.0
H3 H 0.34084 0.26957 0.34126 0.0
C4 C 0.31692 0.28345 0.33045 0.0
O5 O 0.30463 0.30353 0.35973 0.0
H6 H 0.32601 0.29765 0.30436 0.0
C7 C 0.37231 0.35266 0.4372 0.0
C8 C 0.35523 0.32465 0.45002 0.0
C9 C 0.36715 0.3643 0.39839 0.0
C10 C 0.34424 0.34733 0.37239 0.0
C11 C 0.32754 0.31897 0.38468 0.0
C12 C 0.33333 0.30746 0.42337 0.0
H13 H 0.13066 0.12191 0.95471 0.0
H14 H 0.20802 0.19632 0.93057 0.0
H15 H 0.1741 0.13443 0.83653 0.0
H16 H 0.24837 0.15218 0.82614 0.0
C17 C 0.24999 0.17298 0.84623 0.0
O18 O 0.21489 0.18294 0.85469 0.0
H19 H 0.26434 0.16578 0.87401 0.0
C20 C 0.14855 0.13398 0.93389 0.0
C21 C 0.1496 0.12444 0.89389 0.0
C22 C 0.16967 0.15958 0.94751 0.0
C23 C 0.19167 0.17642 0.92055 0.0
C24 C 0.19309 0.16719 0.88057 0.0
C25 C 0.17205 0.14146 0.86735 0.0
H26 H 0.89911 0.12681 0.59473 0.0
H27 H 0.8574 0.1457 0.71199 0.0
H28 H 0.82493 0.20397 0.61344 0.0
H29 H 0.84908 0.23094 0.69952 0.0
C30 C 0.82816 0.21598 0.71478 0.0
O31 O 0.81586 0.19247 0.68966 0.0
H32 H 0.84127 0.20504 0.74128 0.0
C33 C 0.88252 0.14072 0.61473 0.0
C34 C 0.8623 0.16614 0.59926 0.0
C35 C 0.88175 0.1333 0.65552 0.0
C36 C 0.85889 0.15098 0.68052 0.0
C37 C 0.83845 0.17632 0.66537 0.0
C38 C 0.84068 0.18427 0.62492 0.0
H39 H 0.62153 0.36715 0.10142 0.0
H40 H 0.69936 0.29239 0.11951 0.0
H41 H 0.65661 0.34225 0.21987 0.0
H42 H 0.7323 0.32824 0.23251 0.0
C43 C 0.73631 0.30995 0.20927 0.0
O44 O 0.70242 0.29896 0.19707 0.0
H45 H 0.75118 0.32093 0.18383 0.0
C46 C 0.63772 0.35271 0.12144 0.0
C47 C 0.63574 0.3577 0.16272 0.0
C48 C 0.66023 0.32907 0.10551 0.0
C49 C 0.68169 0.31061 0.13127 0.0
C50 C 0.6808 0.31596 0.17238 0.0
C51 C 0.65753 0.33903 0.18799 0.0
H52 H 0.62893 0.62138 0.58697 0.0
H53 H 0.70178 0.70065 0.60219 0.0
H54 H 0.67162 0.64396 0.70303 0.0
H55 H 0.68691 0.70421 0.7301 0.0
C56 C 0.69946 0.71488 0.7031 0.0
O57 O 0.7119 0.69112 0.67864 0.0
H58 H 0.67807 0.72904 0.68758 0.0
C59 C 0.64546 0.63615 0.60627 0.0
C60 C 0.64691 0.62963 0.64729 0.0
C61 C 0.66497 0.66169 0.58966 0.0
C62 C 0.6865 0.68089 0.6145 0.0
C63 C 0.68933 0.67393 0.65518 0.0
C64 C 0.66963 0.64847 0.67141 0.0
H65 H 0.89284 0.86647 0.07913 0.0
H66 H 0.84898 0.85423 0.19716 0.0
H67 H 0.81603 0.79166 0.10346 0.0
H68 H 0.75918 0.8221 0.1594 0.0
C69 C 0.77348 0.81515 0.18731 0.0
O70 O 0.80869 0.80535 0.17913 0.0
H71 H 0.77485 0.8361 0.20718 0.0
C72 C 0.87493 0.8544 0.09992 0.0
C73 C 0.85411 0.82858 0.08639 0.0
C74 C 0.87362 0.86413 0.13985 0.0
C75 C 0.85122 0.84708 0.16641 0.0
C76 C 0.83048 0.82113 0.15328 0.0
C77 C 0.83215 0.81172 0.11339 0.0
H78 H 0.12302 0.86266 0.43535 0.0
H79 H 0.19621 0.7842 0.42088 0.0
H80 H 0.16742 0.84126 0.31995 0.0
H81 H 0.17962 0.78033 0.29559 0.0
C82 C 0.19672 0.77052 0.32003 0.0
O83 O 0.20783 0.79463 0.34489 0.0
H84 H 0.18007 0.75304 0.33711 0.0
C85 C 0.1397 0.8481 0.41618 0.0
C86 C 0.14178 0.85492 0.37528 0.0
C87 C 0.15902 0.82263 0.43288 0.0
C88 C 0.18094 0.80378 0.40837 0.0
C89 C 0.18434 0.81104 0.36784 0.0
C90 C 0.16482 0.83641 0.35144 0.0
H91 H 0.39865 0.6292 0.94083 0.0
H92 H 0.35495 0.63646 0.82199 0.0
H93 H 0.32262 0.70286 0.91148 0.0
H94 H 0.26612 0.66748 0.85642 0.0
C95 C 0.27991 0.67539 0.8286 0.0
O96 O 0.31498 0.686 0.83668 0.0
H97 H 0.28159 0.65486 0.80811 0.0
C98 C 0.38097 0.64046 0.91913 0.0
C99 C 0.36048 0.66676 0.93084 0.0
C100 C 0.37937 0.62898 0.88 0.0
C101 C 0.35727 0.64495 0.85221 0.0
C102 C 0.33676 0.67141 0.86357 0.0
C103 C 0.33854 0.68245 0.90284 0.0
Zn104 Zn 0.0403 0.12161 0.33916 0.0
Zn105 Zn 0.98611 0.1321 0.20062 0.0
Zn106 Zn 0.01333 0.12705 0.26926 0.0
C107 C 0.05016 0.16491 0.19469 0.0
C108 C 0.99339 0.06812 0.21168 0.0
O109 O 0.97575 0.15056 0.31267 0.0
O110 O 0.00749 0.14987 0.36865 0.0
C111 C 0.09441 0.15057 0.29397 0.0
O112 O 0.05324 0.15241 0.22959 0.0
O113 O 0.02051 0.16222 0.17576 0.0
O114 O 0.9881 0.08748 0.18365 0.0
O115 O 1.00217 0.07843 0.24644 0.0
O116 O 0.08986 0.13749 0.32735 0.0
O117 O 0.06825 0.15049 0.26816 0.0
O118 O 0.02085 0.07596 0.28327 0.0
O119 O 0.03532 0.07536 0.34705 0.0
C120 C 0.02883 0.06058 0.3153 0.0
O121 O 0.96011 0.15283 0.27479 0.0
O122 O 0.93731 0.14769 0.21432 0.0
C123 C 0.97926 0.15799 0.34965 0.0
C124 C 0.93378 0.15687 0.24967 0.0
Zn125 Zn 0.54672 0.36294 0.70009 0.0
Zn126 Zn 0.49074 0.35987 0.83765 0.0
Zn127 Zn 0.51931 0.36115 0.76974 0.0
C128 C 0.49826 0.42302 0.82127 0.0
C129 C 0.43981 0.33103 0.79014 0.0
O130 O 0.57465 0.33944 0.77438 0.0
O131 O 0.59677 0.35019 0.71473 0.0
C132 C 0.53342 0.42487 0.71742 0.0
O133 O 0.50751 0.41081 0.78774 0.0
O134 O 0.49254 0.40528 0.85085 0.0
O135 O 0.44218 0.34295 0.8243 0.0
O136 O 0.46674 0.33381 0.76559 0.0
O137 O 0.5399 0.40832 0.68716 0.0
O138 O 0.52615 0.41136 0.75093 0.0
O139 O 0.48262 0.33473 0.72765 0.0
O140 O 0.51554 0.3316 0.67283 0.0
C141 C 0.48677 0.3248 0.69171 0.0
O142 O 0.55876 0.33859 0.81242 0.0
O143 O 0.52467 0.33144 0.86585 0.0
C144 C 0.60125 0.33919 0.74928 0.0
C145 C 0.55474 0.32792 0.84814 0.0
Zn146 Zn 0.03668 0.85704 0.83209 0.0
Zn147 Zn 0.98212 0.86772 0.69415 0.0
Zn148 Zn 0.00899 0.86221 0.76376 0.0
C149 C 0.9954 0.92858 0.71702 0.0
C150 C 0.92723 0.84053 0.73985 0.0
O151 O 0.06178 0.83585 0.75803 0.0
O152 O 0.08549 0.84153 0.81801 0.0
C153 C 0.02933 0.92103 0.82123 0.0
O154 O 1.00243 0.9133 0.74937 0.0
O155 O 0.98907 0.91371 0.68531 0.0
O156 O 0.93196 0.85365 0.70652 0.0
O157 O 0.95361 0.83972 0.76534 0.0
O158 O 0.03456 0.90163 0.84923 0.0
O159 O 0.02061 0.91077 0.78643 0.0
O160 O 0.96904 0.83729 0.80367 0.0
O161 O 1.00228 0.82683 0.85692 0.0
C162 C 0.97235 0.82457 0.83841 0.0
O163 O 0.04591 0.83805 0.72026 0.0
O164 O 0.01342 0.83813 0.6648 0.0
C165 C 0.08843 0.83194 0.78277 0.0
C166 C 0.04181 0.83007 0.68354 0.0
Zn167 Zn 0.53776 0.62201 0.19697 0.0
Zn168 Zn 0.4742 0.63793 0.3317 0.0
Zn169 Zn 0.50613 0.62853 0.26426 0.0
C170 C 0.54139 0.66543 0.34117 0.0
C171 C 0.47897 0.57216 0.32166 0.0
O172 O 0.47171 0.65153 0.21728 0.0
O173 O 0.50704 0.65021 0.1641 0.0
C174 C 0.58837 0.65257 0.24428 0.0
O175 O 0.5446 0.65343 0.30612 0.0
O176 O 0.51111 0.66393 0.35898 0.0
O177 O 0.47005 0.59267 0.347 0.0
O178 O 0.49295 0.58087 0.28822 0.0
O179 O 0.58672 0.63798 0.21171 0.0
O180 O 0.56043 0.65273 0.26766 0.0
O181 O 0.51338 0.577 0.25292 0.0
O182 O 0.532 0.57581 0.19049 0.0
C183 C 0.52286 0.56134 0.22181 0.0
O184 O 0.45346 0.65396 0.25341 0.0
O185 O 0.42923 0.65855 0.31334 0.0
C186 C 0.47768 0.65864 0.18052 0.0
C187 C 0.42732 0.66297 0.27637 0.0
H188 H 0.16216 0.89678 0.31619 0.0
H189 H 0.05788 0.02504 0.25542 0.0
H190 H 0.07243 0.87431 0.39494 0.0
H191 H 0.01605 0.01835 0.37486 0.0
H192 H 0.08124 0.97087 0.26158 0.0
H193 H 0.12851 0.94288 0.29257 0.0
C194 C 0.1351 0.90108 0.32798 0.0
C195 C 0.1204 0.88165 0.35801 0.0
C196 C 0.06673 0.9812 0.28631 0.0
C197 C 0.08159 0.93461 0.33094 0.0
C198 C 0.05289 0.01188 0.28257 0.0
C199 C 0.03532 0.02616 0.31483 0.0
C200 C 0.06286 0.96489 0.32258 0.0
C201 C 0.02977 0.00823 0.34945 0.0
C202 C 0.11578 0.92744 0.31429 0.0
C203 C 0.08539 0.88896 0.37254 0.0
N204 N 0.04369 0.97859 0.3525 0.0
N205 N 0.0675 0.9151 0.35936 0.0
H206 H 0.39204 0.57662 0.92616 0.0
H207 H 0.47548 0.46552 0.76403 0.0
H208 H 0.41321 0.61419 0.80877 0.0
H209 H 0.50131 0.45761 0.88878 0.0
H210 H 0.45053 0.51858 0.77615 0.0
H211 H 0.42766 0.53025 0.90991 0.0
C212 C 0.40453 0.57544 0.89706 0.0
C213 C 0.40002 0.59989 0.86912 0.0
C214 C 0.46241 0.50539 0.80059 0.0
C215 C 0.44021 0.54581 0.84986 0.0
C216 C 0.47699 0.4753 0.79365 0.0
C217 C 0.49048 0.45714 0.82546 0.0
C218 C 0.46077 0.51686 0.83966 0.0
C219 C 0.49085 0.47064 0.86345 0.0
C220 C 0.42481 0.54875 0.88776 0.0
C221 C 0.41574 0.59598 0.83127 0.0
N222 N 0.47571 0.49941 0.86957 0.0
N223 N 0.43502 0.56933 0.82263 0.0
H224 H 0.66529 0.58873 0.70825 0.0
H225 H 0.51449 0.46364 0.65623 0.0
H226 H 0.5778 0.60992 0.62592 0.0
H227 H 0.5672 0.4637 0.7709 0.0
H228 H 0.5366 0.51762 0.64479 0.0
H229 H 0.63016 0.54321 0.7323 0.0
C230 C 0.63856 0.58418 0.69553 0.0
C231 C 0.62488 0.60309 0.66445 0.0
C232 C 0.54271 0.50613 0.67283 0.0
C233 C 0.58484 0.55054 0.6915 0.0
C234 C 0.53004 0.47539 0.67936 0.0
C235 C 0.53912 0.45933 0.71449 0.0
C236 C 0.56558 0.52053 0.70112 0.0
C237 C 0.55951 0.47543 0.74349 0.0
C238 C 0.61853 0.5581 0.7093 0.0
C239 C 0.59012 0.59557 0.64901 0.0
N240 N 0.57278 0.50498 0.73581 0.0
N241 N 0.57159 0.56968 0.66226 0.0
H242 H 0.90688 0.87513 0.21269 0.0
H243 H 0.99758 0.03748 0.14126 0.0
H244 H 0.88924 0.91824 0.09758 0.0
H245 H 0.96985 0.02226 0.26441 0.0
H246 H 0.97253 0.98548 0.12543 0.0
H247 H 0.94184 0.92222 0.23273 0.0
C248 C 0.91019 0.89433 0.1916 0.0
C249 C 0.89509 0.89236 0.15314 0.0
C250 C 0.97241 0.9933 0.15603 0.0
C251 C 0.93607 0.94567 0.17568 0.0
C252 C 0.98688 0.0229 0.16515 0.0
C253 C 0.98568 0.03427 0.20421 0.0
C254 C 0.95657 0.97478 0.18612 0.0
C255 C 0.97166 0.01426 0.23399 0.0
C256 C 0.9304 0.92105 0.20307 0.0
C257 C 0.90098 0.91798 0.1271 0.0
N258 N 0.95726 0.98547 0.22429 0.0
N259 N 0.92108 0.94335 0.13878 0.0
H260 H 0.95131 0.11672 0.63313 0.0
H261 H 0.96217 0.96424 0.77389 0.0
H262 H 0.86537 0.09028 0.71493 0.0
H263 H 0.01382 0.97066 0.65909 0.0
H264 H 0.93948 0.01854 0.76524 0.0
H265 H 0.9863 0.07071 0.6548 0.0
C266 C 0.93971 0.10131 0.65564 0.0
C267 C 0.90481 0.10712 0.67149 0.0
C268 C 0.95644 0.00822 0.74239 0.0
C269 C 0.9455 0.05489 0.69731 0.0
C270 C 0.96966 0.97745 0.74746 0.0
C271 C 0.98968 0.96306 0.71702 0.0
C272 C 0.96383 0.02465 0.70692 0.0
C273 C 0.99829 0.98095 0.68312 0.0
C274 C 0.95992 0.07522 0.66823 0.0
C275 C 0.89204 0.08687 0.70176 0.0
N276 N 0.98513 0.01076 0.67886 0.0
N277 N 0.91226 0.06151 0.71346 0.0
H278 H 0.56706 0.3748 0.13727 0.0
H279 H 0.55306 0.52484 0.28051 0.0
H280 H 0.64878 0.39791 0.22554 0.0
H281 H 0.50426 0.51975 0.16402 0.0
H282 H 0.57452 0.47006 0.27291 0.0
H283 H 0.53109 0.42009 0.15893 0.0
C284 C 0.57746 0.38927 0.16128 0.0
C285 C 0.61153 0.38283 0.17894 0.0
C286 C 0.55838 0.48077 0.24946 0.0
C287 C 0.56982 0.43431 0.20454 0.0
C288 C 0.54588 0.51182 0.25393 0.0
C289 C 0.52718 0.52671 0.22267 0.0
C290 C 0.55157 0.46463 0.21375 0.0
C291 C 0.51885 0.50906 0.18866 0.0
C292 C 0.5567 0.41496 0.17383 0.0
C293 C 0.62278 0.40188 0.21094 0.0
N294 N 0.53133 0.47903 0.18495 0.0
N295 N 0.60216 0.42694 0.22245 0.0
H296 H 0.3784 0.41788 0.44234 0.0
H297 H 0.46242 0.52396 0.26952 0.0
H298 H 0.39732 0.37952 0.32548 0.0
H299 H 0.4738 0.54466 0.39431 0.0
H300 H 0.43808 0.47139 0.28696 0.0
H301 H 0.4108 0.46575 0.42294 0.0
C302 C 0.38964 0.41934 0.41264 0.0
C303 C 0.38542 0.39429 0.38573 0.0
C304 C 0.4465 0.48731 0.31042 0.0
C305 C 0.4222 0.44979 0.36291 0.0
C306 C 0.46081 0.51714 0.30048 0.0
C307 C 0.47034 0.53864 0.3305 0.0
C308 C 0.44123 0.47933 0.35061 0.0
C309 C 0.46659 0.52893 0.37019 0.0
C310 C 0.40811 0.44683 0.40152 0.0
C311 C 0.39965 0.39824 0.34718 0.0
N312 N 0.45202 0.5002 0.37903 0.0
N313 N 0.41736 0.42551 0.33686 0.0
H314 H 0.11603 0.11392 0.8211 0.0
H315 H 0.02486 0.95156 0.89169 0.0
H316 H 0.13372 0.07025 0.93588 0.0
H317 H 0.05297 0.96698 0.76869 0.0
H318 H 0.04986 0.00353 0.90774 0.0
H319 H 0.0808 0.06704 0.80084 0.0
C320 C 0.11266 0.09465 0.84207 0.0
C321 C 0.12787 0.09638 0.8805 0.0
C322 C 0.05005 -0.00424 0.87711 0.0
C323 C 0.08657 0.04334 0.85772 0.0
C324 C 0.03562 0.96618 0.86787 0.0
C325 C 0.03695 0.95487 0.82879 0.0
C326 C 0.06599 0.01432 0.84712 0.0
C327 C 0.05102 0.97494 0.7991 0.0
C328 C 0.0923 0.06806 0.83049 0.0
C329 C 0.1219 0.07069 0.90639 0.0
N330 N 0.0654 0.0037 0.80892 0.0
N331 N 0.10165 0.04545 0.8946 0.0
H332 H 0.1863 0.1229 1.01156 0.0
H333 H 0.05301 0.21612 0.14575 0.0
H334 H 0.14693 0.21551 0.97967 0.0
H335 H 0.11851 0.13935 0.19062 0.0
H336 H 0.09548 0.22259 0.0904 0.0
H337 H 0.17031 0.13304 0.08086 0.0
C338 C 0.17504 0.1457 0.01947 0.0
C339 C 0.1676 0.16833 0.99001 0.0
C340 C 0.10136 0.20496 0.11292 0.0
C341 C 0.14837 0.1799 0.06903 0.0
C342 C 0.07723 0.20145 0.14474 0.0
C343 C 0.08211 0.17695 0.17246 0.0
C344 C 0.12994 0.18318 0.1082 0.0
C345 C 0.11377 0.15848 0.16976 0.0
C346 C 0.16596 0.15153 0.05902 0.0
C347 C 0.15302 0.19748 1.00161 0.0
N348 N 0.13593 0.16132 0.13744 0.0
N349 N 0.14311 0.20218 0.04012 0.0
H350 H 0.33413 0.35482 0.51718 0.0
H351 H 0.49096 0.27674 0.63867 0.0
H352 H 0.39066 0.2718 0.4768 0.0
H353 H 0.41468 0.34174 0.69106 0.0
H354 H 0.44764 0.26698 0.58475 0.0
H355 H 0.3556 0.3443 0.58483 0.0
C356 C 0.35033 0.33387 0.52293 0.0
C357 C 0.36086 0.31419 0.49158 0.0
C358 C 0.43975 0.28268 0.60856 0.0
C359 C 0.38644 0.30242 0.56859 0.0
C360 C 0.46442 0.28807 0.63952 0.0
C361 C 0.45647 0.3103 0.66906 0.0
C362 C 0.40734 0.30036 0.60652 0.0
C363 C 0.42184 0.32445 0.66878 0.0
C364 C 0.36262 0.32785 0.56151 0.0
C365 C 0.38198 0.28747 0.50031 0.0
N366 N 0.39892 0.31994 0.63731 0.0
N367 N 0.39475 0.28272 0.53789 0.0
H368 H 0.67257 0.37175 0.04582 0.0
H369 H 0.55752 0.2757 0.89518 0.0
H370 H 0.64563 0.27371 0.0666 0.0
H371 H 0.62064 0.35706 0.85885 0.0
H372 H 0.59645 0.27017 0.95386 0.0
H373 H 0.66038 0.36439 0.97491 0.0
C374 C 0.66475 0.3485 0.03522 0.0
C375 C 0.65973 0.32336 0.06203 0.0
C376 C 0.60269 0.28864 0.93249 0.0
C377 C 0.64509 0.31484 0.98108 0.0
C378 C 0.58065 0.29159 0.89877 0.0
C379 C 0.58588 0.31691 0.87231 0.0
C380 C 0.62935 0.31183 0.94044 0.0
C381 C 0.61585 0.33714 0.87853 0.0
C382 C 0.65794 0.34425 0.99473 0.0
C383 C 0.64975 0.29369 0.04684 0.0
N384 N 0.63581 0.33478 0.91264 0.0
N385 N 0.64197 0.2904 1.00749 0.0
H386 H 0.88662 0.22101 0.56491 0.0
H387 H 0.90826 0.13798 0.35341 0.0
H388 H 0.84601 0.12791 0.53657 0.0
H389 H 0.98306 0.20745 0.40055 0.0
H390 H 0.86721 0.14742 0.40989 0.0
H391 H 0.904 0.22842 0.49492 0.0
C392 C 0.88039 0.20255 0.54367 0.0
C393 C 0.86526 0.17371 0.55637 0.0
C394 C 0.89202 0.16136 0.40708 0.0
C395 C 0.88488 0.18195 0.47671 0.0
C396 C 0.91519 0.15626 0.37465 0.0
C397 C 0.9491 0.17182 0.37269 0.0
C398 C 0.90286 0.18239 0.43722 0.0
C399 C 0.95715 0.19491 0.40125 0.0
C400 C 0.89041 0.20671 0.50388 0.0
C401 C 0.85796 0.15038 0.52785 0.0
N402 N 0.93447 0.1992 0.43267 0.0
N403 N 0.86817 0.15486 0.48941 0.0
H404 H 0.87501 0.77174 0.05524 0.0
H405 H 0.90359 0.84954 0.84106 0.0
H406 H 0.83981 0.86526 0.02155 0.0
H407 H 0.96982 0.77445 0.88925 0.0
H408 H 0.86132 0.84321 0.89713 0.0
H409 H 0.8914 0.7615 0.98566 0.0
C410 C 0.86977 0.78974 0.03295 0.0
C411 C 0.85652 0.81949 0.044 0.0
C412 C 0.88447 0.82742 0.8947 0.0
C413 C 0.87506 0.80806 0.96478 0.0
C414 C 0.90833 0.83076 0.86245 0.0
C415 C 0.94045 0.81279 0.86097 0.0
C416 C 0.8928 0.8058 0.92526 0.0
C417 C 0.9455 0.78901 0.88966 0.0
C418 C 0.87922 0.78396 0.99337 0.0
C419 C 0.85039 0.84213 1.01414 0.0
N420 N 0.92232 0.78656 0.92104 0.0
N421 N 0.86008 0.83609 0.97597 0.0
H422 H 0.67661 0.62091 0.52848 0.0
H423 H 0.61127 0.64197 0.34002 0.0
H424 H 0.64436 0.71678 0.55299 0.0
H425 H 0.54374 0.71167 0.39701 0.0
H426 H 0.65533 0.64639 0.39479 0.0
H427 H 0.65936 0.62838 0.45906 0.0
C428 C 0.66674 0.64384 0.51886 0.0
C429 C 0.66161 0.66819 0.54645 0.0
C430 C 0.63112 0.66104 0.39508 0.0
C431 C 0.64185 0.67716 0.46678 0.0
C432 C 0.60632 0.65897 0.36337 0.0
C433 C 0.57348 0.67599 0.3645 0.0
C434 C 0.62273 0.68018 0.42797 0.0
C435 C 0.56846 0.69769 0.39545 0.0
C436 C 0.65721 0.64826 0.47904 0.0
C437 C 0.64875 0.69743 0.53257 0.0
N438 N 0.59246 0.69877 0.42629 0.0
N439 N 0.63848 0.70087 0.49388 0.0
H440 H 0.39379 0.71988 0.9595 0.0
H441 H 0.40455 0.64452 0.17709 0.0
H442 H 0.33544 0.63607 0.99653 0.0
H443 H 0.48739 0.70428 0.12464 0.0
H444 H 0.36411 0.65614 0.12045 0.0
H445 H 0.41273 0.72862 0.02872 0.0
C446 C 0.38391 0.70402 0.9825 0.0
C447 C 0.36319 0.67722 0.97259 0.0
C448 C 0.39073 0.66747 0.12202 0.0
C449 C 0.38499 0.68667 0.0513 0.0
C450 C 0.41362 0.6611 0.15449 0.0
C451 C 0.4494 0.67322 0.15514 0.0
C452 C 0.40377 0.68629 0.09044 0.0
C453 C 0.46006 0.69425 0.12492 0.0
C454 C 0.39488 0.70884 0.02187 0.0
C455 C 0.35148 0.65701 1.00322 0.0
N456 N 0.43756 0.69978 0.09352 0.0
N457 N 0.36292 0.6619 0.04117 0.0
H458 H 0.17539 0.86208 0.49423 0.0
H459 H 0.03745 0.77959 0.63431 0.0
H460 H 0.13348 0.76885 0.46901 0.0
H461 H 0.11238 0.85061 0.67733 0.0
H462 H 0.07798 0.77004 0.57804 0.0
H463 H 0.1586 0.85501 0.56409 0.0
C464 C 0.16331 0.83984 0.50372 0.0
C465 C 0.15548 0.81609 0.47597 0.0
C466 C 0.0863 0.787 0.60037 0.0
C467 C 0.13548 0.80802 0.55556 0.0
C468 C 0.06327 0.79226 0.63267 0.0
C469 C 0.07163 0.81597 0.66028 0.0
C470 C 0.11723 0.80639 0.59497 0.0
C471 C 0.1051 0.83204 0.65665 0.0
C472 C 0.15384 0.83574 0.54358 0.0
C473 C 0.13988 0.7877 0.4896 0.0
N474 N 0.12622 0.82765 0.62385 0.0
N475 N 0.12963 0.7847 0.52831 0.0
H476 H 0.30741 0.22087 0.34979 0.0
H477 H 0.10795 0.20566 0.25209 0.0
H478 H 0.25688 0.29677 0.28411 0.0
H479 H 0.1608 0.13286 0.32126 0.0
H480 H 0.16492 0.23701 0.25446 0.0
H481 H 0.25627 0.18625 0.3321 0.0
C482 C 0.28558 0.23011 0.33132 0.0
C483 C 0.28635 0.26156 0.31813 0.0
C484 C 0.16414 0.21394 0.26855 0.0
C485 C 0.22733 0.22227 0.29807 0.0
C486 C 0.13179 0.19595 0.26683 0.0
C487 C 0.12967 0.16682 0.28683 0.0
C488 C 0.19432 0.2025 0.29031 0.0
C489 C 0.16117 0.15541 0.30586 0.0
C490 C 0.25636 0.21038 0.32117 0.0
C491 C 0.25723 0.27253 0.29461 0.0
N492 N 0.19197 0.17336 0.30744 0.0
N493 N 0.22874 0.25295 0.28545 0.0
H494 H 0.24645 0.23732 0.8592 0.0
H495 H 0.43469 0.27478 0.74958 0.0
H496 H 0.30514 0.1676 0.79163 0.0
H497 H 0.37045 0.34349 0.81261 0.0
H498 H 0.38303 0.23737 0.7537 0.0
H499 H 0.28721 0.27827 0.83321 0.0
C500 C 0.2675 0.23075 0.83822 0.0
C501 C 0.27201 0.19911 0.82694 0.0
C502 C 0.37998 0.2609 0.76582 0.0
C503 C 0.31977 0.24579 0.79796 0.0
C504 C 0.40931 0.28232 0.76307 0.0
C505 C 0.40687 0.31202 0.78126 0.0
C506 C 0.34828 0.26945 0.78692 0.0
C507 C 0.37355 0.3206 0.79869 0.0
C508 C 0.29091 0.25413 0.82342 0.0
C509 C 0.30045 0.19182 0.80055 0.0
N510 N 0.34583 0.2993 0.8016 0.0
N511 N 0.32346 0.21493 0.78718 0.0
H512 H 0.76966 0.1982 0.76097 0.0
H513 H 0.66729 0.36288 0.72926 0.0
H514 H 0.81464 0.27859 0.6985 0.0
H515 H 0.61659 0.28353 0.78864 0.0
H516 H 0.72517 0.33467 0.72863 0.0
H517 H 0.71659 0.2304 0.77993 0.0
C518 C 0.76837 0.22271 0.75154 0.0
C519 C 0.79634 0.2358 0.72804 0.0
C520 C 0.70167 0.32343 0.74236 0.0
C521 C 0.73618 0.2727 0.74964 0.0
C522 C 0.66866 0.33966 0.74297 0.0
C523 C 0.63718 0.32534 0.75871 0.0
C524 C 0.70319 0.2923 0.75692 0.0
C525 C 0.64036 0.29533 0.77625 0.0
C526 C 0.73824 0.24106 0.76242 0.0
C527 C 0.7936 0.26759 0.71654 0.0
N528 N 0.67273 0.27945 0.77422 0.0
N529 N 0.76402 0.28486 0.72731 0.0
H530 H 0.73697 0.24706 0.18723 0.0
H531 H 0.92543 0.20965 0.29646 0.0
H532 H 0.79012 0.31325 0.26586 0.0
H533 H 0.86555 0.14342 0.22379 0.0
H534 H 0.87198 0.24487 0.29561 0.0
H535 H 0.77976 0.20628 0.2086 0.0
C536 C 0.75722 0.25282 0.20964 0.0
C537 C 0.75956 0.28341 0.22541 0.0
C538 C 0.87029 0.22229 0.28061 0.0
C539 C 0.80967 0.23704 0.24915 0.0
C540 C 0.90064 0.20209 0.28147 0.0
C541 C 0.89991 0.17387 0.25973 0.0
C542 C 0.83933 0.21402 0.25782 0.0
C543 C 0.86732 0.16524 0.24047 0.0
C544 C 0.78179 0.22954 0.22181 0.0
C545 C 0.78709 0.28977 0.25349 0.0
N546 N 0.83859 0.1854 0.23949 0.0
N547 N 0.81128 0.26687 0.26426 0.0
H548 H 0.71126 0.77752 0.6851 0.0
H549 H 0.91197 0.78534 0.7808 0.0
H550 H 0.75912 0.69927 0.7488 0.0
H551 H 0.8613 0.86074 0.71416 0.0
H552 H 0.85373 0.7558 0.77861 0.0
H553 H 0.76374 0.81038 0.70325 0.0
C554 C 0.73285 0.76735 0.70311 0.0
C555 C 0.73107 0.73568 0.71536 0.0
C556 C 0.85527 0.77904 0.76507 0.0
C557 C 0.79151 0.77304 0.73617 0.0
C558 C 0.88836 0.79599 0.76667 0.0
C559 C 0.89143 0.82532 0.74729 0.0
C560 C 0.82533 0.79172 0.74403 0.0
C561 C 0.86018 0.83799 0.72905 0.0
C562 C 0.76283 0.78609 0.71357 0.0
C563 C 0.75972 0.72363 0.73872 0.0
N564 N 0.82866 0.82103 0.72754 0.0
N565 N 0.78896 0.74226 0.74817 0.0
H566 H 0.7212 0.81995 0.24537 0.0
H567 H 0.65798 0.64002 0.22179 0.0
H568 H 0.77459 0.75131 0.17122 0.0
H569 H 0.5933 0.7099 0.28231 0.0
H570 H 0.70828 0.67789 0.2172 0.0
H571 H 0.68079 0.77805 0.27097 0.0
C572 C 0.72487 0.79591 0.23513 0.0
C573 C 0.75167 0.78895 0.20668 0.0
C574 C 0.68338 0.68489 0.2321 0.0
C575 C 0.70535 0.74107 0.23534 0.0
C576 C 0.65472 0.66319 0.23498 0.0
C577 C 0.62129 0.67202 0.25197 0.0
C578 C 0.67849 0.71589 0.24583 0.0
C579 C 0.61863 0.7022 0.26889 0.0
C580 C 0.70179 0.77206 0.24966 0.0
C581 C 0.75475 0.75761 0.19365 0.0
N582 N 0.64665 0.72335 0.2647 0.0
N583 N 0.73184 0.73489 0.20801 0.0
H584 H 0.25707 0.79849 0.28573 0.0
H585 H 0.36238 0.63443 0.26301 0.0
H586 H 0.21035 0.70695 0.312 0.0
H587 H 0.4163 0.72517 0.25956 0.0
H588 H 0.30301 0.66104 0.26244 0.0
H589 H 0.31206 0.77243 0.2601 0.0
C590 C 0.25845 0.77289 0.286 0.0
C591 C 0.22975 0.75481 0.30215 0.0
C592 C 0.32774 0.6752 0.26069 0.0
C593 C 0.29193 0.72488 0.27208 0.0
C594 C 0.36155 0.65999 0.26044 0.0
C595 C 0.39397 0.67775 0.26095 0.0
C596 C 0.32652 0.7084 0.26218 0.0
C597 C 0.39171 0.71077 0.25866 0.0
C598 C 0.28967 0.75806 0.27121 0.0
C599 C 0.2323 0.72175 0.30073 0.0
N600 N 0.35848 0.72513 0.26002 0.0
N601 N 0.263 0.70785 0.28638 0.0
H602 H 0.22693 0.67019 0.77105 0.0
H603 H 0.15761 0.84662 0.80428 0.0
H604 H 0.27956 0.73889 0.84659 0.0
H605 H 0.09485 0.77686 0.74021 0.0
H606 H 0.20961 0.81078 0.80555 0.0
H607 H 0.18479 0.71132 0.74751 0.0
C608 C 0.23007 0.69411 0.782 0.0
C609 C 0.25714 0.70131 0.81027 0.0
C610 C 0.18478 0.80338 0.79054 0.0
C611 C 0.20885 0.74828 0.78399 0.0
C612 C 0.15518 0.82396 0.78953 0.0
C613 C 0.12188 0.81447 0.7725 0.0
C614 C 0.18091 0.77277 0.77505 0.0
C615 C 0.12013 0.78498 0.75366 0.0
C616 C 0.20601 0.71752 0.76864 0.0
C617 C 0.25952 0.73245 0.82426 0.0
N618 N 0.14907 0.7648 0.75616 0.0
N619 N 0.23566 0.75471 0.81106 0.0
loop_
_geom_bond_atom_site_label_1
_geom_bond_atom_site_label_2
_geom_bond_distance
_geom_bond_site_symmetry_2
_ccdc_geom_bond_type
H0 C7 0.929 . S
H1 C10 0.930 . S
H2 C12 0.929 . S
H3 C4 0.969 . S
C4 H3 0.969 . S
C4 O5 1.550 . S
C4 H6 0.973 . S
O5 C4 1.550 . S
O5 C11 1.412 . S
H6 C4 0.973 . S
C7 H0 0.929 . S
C7 C8 1.400 . S
C7 C9 1.364 . S
C8 C7 1.400 . S
C8 C12 1.377 . S
C9 C7 1.364 . S
C9 C10 1.374 . S
C10 H1 0.930 . S
C10 C9 1.374 . S
C10 C11 1.383 . S
C11 O5 1.412 . S
C11 C10 1.383 . S
C11 C12 1.394 . S
C12 H2 0.929 . S
C12 C8 1.377 . S
C12 C11 1.394 . S
H13 C20 0.929 . S
H14 C23 0.930 . S
H15 C25 0.929 . S
H16 C17 0.969 . S
C17 H16 0.969 . S
C17 O18 1.550 . S
C17 H19 0.973 . S
O18 C17 1.550 . S
O18 C24 1.412 . S
H19 C17 0.973 . S
C20 H13 0.929 . S
C20 C21 1.400 . S
C20 C22 1.364 . S
C21 C20 1.400 . S
C21 C25 1.377 . S
C22 C20 1.364 . S
C22 C23 1.374 . S
C23 H14 0.930 . S
C23 C22 1.374 . S
C23 C24 1.383 . S
C24 O18 1.412 . S
C24 C23 1.383 . S
C24 C25 1.394 . S
C25 H15 0.929 . S
C25 C21 1.377 . S
C25 C24 1.394 . S
H26 C33 0.929 . S
H27 C36 0.930 . S
H28 C38 0.929 . S
H29 C30 0.969 . S
C30 H29 0.969 . S
C30 O31 1.550 . S
C30 H32 0.973 . S
O31 C30 1.550 . S
O31 C37 1.412 . S
H32 C30 0.973 . S
C33 H26 0.929 . S
C33 C34 1.400 . S
C33 C35 1.364 . S
C34 C33 1.400 . S
C34 C38 1.377 . S
C35 C33 1.364 . S
C35 C36 1.374 . S
C36 H27 0.930 . S
C36 C35 1.374 . S
C36 C37 1.383 . S
C37 O31 1.412 . S
C37 C36 1.383 . S
C37 C38 1.394 . S
C38 H28 0.929 . S
C38 C34 1.377 . S
C38 C37 1.394 . S
H39 C46 0.929 . S
H40 C49 0.930 . S
H41 C51 0.929 . S
H42 C43 0.969 . S
C43 H42 0.969 . S
C43 O44 1.550 . S
C43 H45 0.973 . S
O44 C43 1.550 . S
O44 C50 1.412 . S
H45 C43 0.973 . S
C46 H39 0.929 . S
C46 C47 1.400 . S
C46 C48 1.364 . S
C47 C46 1.400 . S
C47 C51 1.377 . S
C48 C46 1.364 . S
C48 C49 1.374 . S
C49 H40 0.930 . S
C49 C48 1.374 . S
C49 C50 1.383 . S
C50 O44 1.412 . S
C50 C49 1.383 . S
C50 C51 1.394 . S
C51 H41 0.929 . S
C51 C47 1.377 . S
C51 C50 1.394 . S
H52 C59 0.929 . S
H53 C62 0.930 . S
H54 C64 0.929 . S
H55 C56 0.969 . S
C56 H55 0.969 . S
C56 O57 1.550 . S
C56 H58 0.973 . S
O57 C56 1.550 . S
O57 C63 1.412 . S
H58 C56 0.973 . S
C59 H52 0.929 . S
C59 C60 1.400 . S
C59 C61 1.364 . S
C60 C59 1.400 . S
C60 C64 1.377 . S
C61 C59 1.364 . S
C61 C62 1.374 . S
C62 H53 0.930 . S
C62 C61 1.374 . S
C62 C63 1.383 . S
C63 O57 1.412 . S
C63 C62 1.383 . S
C63 C64 1.394 . S
C64 H54 0.929 . S
C64 C60 1.377 . S
C64 C63 1.394 . S
H65 C72 0.929 . S
H66 C75 0.930 . S
H67 C77 0.929 . S
H68 C69 0.969 . S
C69 H68 0.969 . S
C69 O70 1.550 . S
C69 H71 0.973 . S
O70 C69 1.550 . S
O70 C76 1.412 . S
H71 C69 0.973 . S
C72 H65 0.929 . S
C72 C73 1.400 . S
C72 C74 1.364 . S
C73 C72 1.400 . S
C73 C77 1.377 . S
C74 C72 1.364 . S
C74 C75 1.374 . S
C75 H66 0.930 . S
C75 C74 1.374 . S
C75 C76 1.383 . S
C76 O70 1.412 . S
C76 C75 1.383 . S
C76 C77 1.394 . S
C77 H67 0.929 . S
C77 C73 1.377 . S
C77 C76 1.394 . S
H78 C85 0.929 . S
H79 C88 0.930 . S
H80 C90 0.929 . S
H81 C82 0.969 . S
C82 H81 0.969 . S
C82 O83 1.550 . S
C82 H84 0.973 . S
O83 C82 1.550 . S
O83 C89 1.412 . S
H84 C82 0.973 . S
C85 H78 0.929 . S
C85 C86 1.400 . S
C85 C87 1.364 . S
C86 C85 1.400 . S
C86 C90 1.377 . S
C87 C85 1.364 . S
C87 C88 1.374 . S
C88 H79 0.930 . S
C88 C87 1.374 . S
C88 C89 1.383 . S
C89 O83 1.412 . S
C89 C88 1.383 . S
C89 C90 1.394 . S
C90 H80 0.929 . S
C90 C86 1.377 . S
C90 C89 1.394 . S
H91 C98 0.929 . S
H92 C101 0.930 . S
H93 C103 0.929 . S
H94 C95 0.969 . S
C95 H94 0.969 . S
C95 O96 1.550 . S
C95 H97 0.973 . S
O96 C95 1.550 . S
O96 C102 1.412 . S
H97 C95 0.973 . S
C98 H91 0.929 . S
C98 C99 1.400 . S
C98 C100 1.364 . S
C99 C98 1.400 . S
C99 C103 1.377 . S
C100 C98 1.364 . S
C100 C101 1.374 . S
C101 H92 0.930 . S
C101 C100 1.374 . S
C101 C102 1.383 . S
C102 O96 1.412 . S
C102 C101 1.383 . S
C102 C103 1.394 . S
C103 H93 0.929 . S
C103 C99 1.377 . S
C103 C102 1.394 . S
Zn104 O110 1.920 . S
Zn104 O116 1.898 . S
Zn104 O119 1.905 . S
Zn105 O113 1.905 1_655 S
Zn105 O114 1.898 . S
Zn105 O122 1.920 . S
Zn106 O109 2.080 1_455 S
Zn106 O112 2.114 . S
Zn106 O115 2.120 1_455 S
Zn106 O117 2.120 . S
Zn106 O118 2.114 . S
Zn106 O121 2.080 1_455 S
C107 O112 1.166 . S
C107 O113 1.182 . S
C108 O114 1.167 . S
C108 O115 1.299 . S
O109 Zn106 2.080 1_655 S
O109 C123 1.305 . S
O110 Zn104 1.920 . S
O110 C123 1.234 1_455 S
C111 O116 1.167 . S
C111 O117 1.299 . S
O112 Zn106 2.114 . S
O112 C107 1.166 . S
O113 Zn105 1.905 1_455 S
O113 C107 1.182 . S
O114 Zn105 1.898 . S
O114 C108 1.167 . S
O115 Zn106 2.120 1_655 S
O115 C108 1.299 . S
O116 Zn104 1.898 . S
O116 C111 1.167 . S
O117 Zn106 2.120 . S
O117 C111 1.299 . S
O118 Zn106 2.114 . S
O118 C120 1.166 . S
O119 Zn104 1.905 . S
O119 C120 1.182 . S
C120 O118 1.166 . S
C120 O119 1.182 . S
O121 Zn106 2.080 1_655 S
O121 C124 1.305 . S
O122 Zn105 1.920 . S
O122 C124 1.234 . S
C123 O109 1.305 . S
C123 O110 1.234 1_655 S
C124 O121 1.305 . S
C124 O122 1.234 . S
Zn125 O131 1.920 . S
Zn125 O137 1.898 . S
Zn125 O140 1.905 . S
Zn126 O134 1.905 . S
Zn126 O135 1.898 . S
Zn126 O143 1.920 . S
Zn127 O130 2.080 . S
Zn127 O133 2.114 . S
Zn127 O136 2.120 . S
Zn127 O138 2.120 . S
Zn127 O139 2.114 . S
Zn127 O142 2.080 . S
C128 O133 1.166 . S
C128 O134 1.182 . S
C129 O135 1.167 . S
C129 O136 1.299 . S
O130 Zn127 2.080 . S
O130 C144 1.305 . S
O131 Zn125 1.920 . S
O131 C144 1.234 . S
C132 O137 1.167 . S
C132 O138 1.299 . S
O133 Zn127 2.114 . S
O133 C128 1.166 . S
O134 Zn126 1.905 . S
O134 C128 1.182 . S
O135 Zn126 1.898 . S
O135 C129 1.167 . S
O136 Zn127 2.120 . S
O136 C129 1.299 . S
O137 Zn125 1.898 . S
O137 C132 1.167 . S
O138 Zn127 2.120 . S
O138 C132 1.299 . S
O139 Zn127 2.114 . S
O139 C141 1.166 . S
O140 Zn125 1.905 . S
O140 C141 1.182 . S
C141 O139 1.166 . S
C141 O140 1.182 . S
O142 Zn127 2.080 . S
O142 C145 1.305 . S
O143 Zn126 1.920 . S
O143 C145 1.234 . S
C144 O130 1.305 . S
C144 O131 1.234 . S
C145 O142 1.305 . S
C145 O143 1.234 . S
Zn146 O152 1.920 . S
Zn146 O158 1.898 . S
Zn146 O161 1.905 . S
Zn147 O155 1.905 . S
Zn147 O156 1.898 . S
Zn147 O164 1.920 1_655 S
Zn148 O151 2.080 . S
Zn148 O154 2.114 1_455 S
Zn148 O157 2.120 1_455 S
Zn148 O159 2.120 . S
Zn148 O160 2.114 1_455 S
Zn148 O163 2.080 . S
C149 O154 1.166 . S
C149 O155 1.182 . S
C150 O156 1.167 . S
C150 O157 1.299 . S
O151 Zn148 2.080 . S
O151 C165 1.305 . S
O152 Zn146 1.920 . S
O152 C165 1.234 . S
C153 O158 1.167 . S
C153 O159 1.299 . S
O154 Zn148 2.114 1_655 S
O154 C149 1.166 . S
O155 Zn147 1.905 . S
O155 C149 1.182 . S
O156 Zn147 1.898 . S
O156 C150 1.167 . S
O157 Zn148 2.120 1_655 S
O157 C150 1.299 . S
O158 Zn146 1.898 . S
O158 C153 1.167 . S
O159 Zn148 2.120 . S
O159 C153 1.299 . S
O160 Zn148 2.114 1_655 S
O160 C162 1.166 . S
O161 Zn146 1.905 . S
O161 C162 1.182 1_455 S
C162 O160 1.166 . S
C162 O161 1.182 1_655 S
O163 Zn148 2.080 . S
O163 C166 1.305 . S
O164 Zn147 1.920 1_455 S
O164 C166 1.234 . S
C165 O151 1.305 . S
C165 O152 1.234 . S
C166 O163 1.305 . S
C166 O164 1.234 . S
Zn167 O173 1.920 . S
Zn167 O179 1.898 . S
Zn167 O182 1.905 . S
Zn168 O176 1.905 . S
Zn168 O177 1.898 . S
Zn168 O185 1.920 . S
Zn169 O172 2.080 . S
Zn169 O175 2.114 . S
Zn169 O178 2.120 . S
Zn169 O180 2.120 . S
Zn169 O181 2.114 . S
Zn169 O184 2.080 . S
C170 O175 1.166 . S
C170 O176 1.182 . S
C171 O177 1.167 . S
C171 O178 1.299 . S
O172 Zn169 2.080 . S
O172 C186 1.305 . S
O173 Zn167 1.920 . S
O173 C186 1.234 . S
C174 O179 1.167 . S
C174 O180 1.299 . S
O175 Zn169 2.114 . S
O175 C170 1.166 . S
O176 Zn168 1.905 . S
O176 C170 1.182 . S
O177 Zn168 1.898 . S
O177 C171 1.167 . S
O178 Zn169 2.120 . S
O178 C171 1.299 . S
O179 Zn167 1.898 . S
O179 C174 1.167 . S
O180 Zn169 2.120 . S
O180 C174 1.299 . S
O181 Zn169 2.114 . S
O181 C183 1.166 . S
O182 Zn167 1.905 . S
O182 C183 1.182 . S
C183 O181 1.166 . S
C183 O182 1.182 . S
O184 Zn169 2.080 . S
O184 C187 1.305 . S
O185 Zn168 1.920 . S
O185 C187 1.234 . S
C186 O172 1.305 . S
C186 O173 1.234 . S
C187 O184 1.305 . S
C187 O185 1.234 . S
H188 C194 0.930 . S
H189 C198 0.930 . S
H190 C203 0.929 . S
H191 C201 0.929 . S
H192 C196 0.929 . S
H193 C202 0.929 . S
C194 H188 0.930 . S
C194 C195 1.367 . S
C194 C202 1.378 . S
C195 C194 1.367 . S
C195 C203 1.433 . S
C196 H192 0.929 . S
C196 C198 1.378 1_565 S
C196 C200 1.350 . S
C197 C200 1.463 . S
C197 C202 1.350 . S
C197 N205 1.427 . S
C198 H189 0.930 . S
C198 C196 1.378 1_545 S
C198 C199 1.367 . S
C199 C198 1.367 . S
C199 C201 1.433 . S
C200 C196 1.350 . S
C200 C197 1.463 . S
C200 N204 1.427 1_565 S
C201 H191 0.929 . S
C201 C199 1.433 . S
C201 N204 1.384 . S
C202 H193 0.929 . S
C202 C194 1.378 . S
C202 C197 1.350 . S
C203 H190 0.929 . S
C203 C195 1.433 . S
C203 N205 1.384 . S
N204 C200 1.427 1_545 S
N204 C201 1.384 . S
N205 C197 1.427 . S
N205 C203 1.384 . S
H206 C212 0.930 . S
H207 C216 0.930 . S
H208 C221 0.929 . S
H209 C219 0.929 . S
H210 C214 0.929 . S
H211 C220 0.929 . S
C212 H206 0.930 . S
C212 C213 1.367 . S
C212 C220 1.378 . S
C213 C212 1.367 . S
C213 C221 1.433 . S
C214 H210 0.929 . S
C214 C216 1.378 . S
C214 C218 1.350 . S
C215 C218 1.463 . S
C215 C220 1.350 . S
C215 N223 1.427 . S
C216 H207 0.930 . S
C216 C214 1.378 . S
C216 C217 1.367 . S
C217 C216 1.367 . S
C217 C219 1.433 . S
C218 C214 1.350 . S
C218 C215 1.463 . S
C218 N222 1.427 . S
C219 H209 0.929 . S
C219 C217 1.433 . S
C219 N222 1.384 . S
C220 H211 0.929 . S
C220 C212 1.378 . S
C220 C215 1.350 . S
C221 H208 0.929 . S
C221 C213 1.433 . S
C221 N223 1.384 . S
N222 C218 1.427 . S
N222 C219 1.384 . S
N223 C215 1.427 . S
N223 C221 1.384 . S
H224 C230 0.930 . S
H225 C234 0.930 . S
H226 C239 0.929 . S
H227 C237 0.929 . S
H228 C232 0.929 . S
H229 C238 0.929 . S
C230 H224 0.930 . S
C230 C231 1.367 . S
C230 C238 1.378 . S
C231 C230 1.367 . S
C231 C239 1.433 . S
C232 H228 0.929 . S
C232 C234 1.378 . S
C232 C236 1.350 . S
C233 C236 1.463 . S
C233 C238 1.350 . S
C233 N241 1.427 . S
C234 H225 0.930 . S
C234 C232 1.378 . S
C234 C235 1.367 . S
C235 C234 1.367 . S
C235 C237 1.433 . S
C236 C232 1.350 . S
C236 C233 1.463 . S
C236 N240 1.427 . S
C237 H227 0.929 . S
C237 C235 1.433 . S
C237 N240 1.384 . S
C238 H229 0.929 . S
C238 C230 1.378 . S
C238 C233 1.350 . S
C239 H226 0.929 . S
C239 C231 1.433 . S
C239 N241 1.384 . S
N240 C236 1.427 . S
N240 C237 1.384 . S
N241 C233 1.427 . S
N241 C239 1.384 . S
H242 C248 0.930 . S
H243 C252 0.930 . S
H244 C257 0.929 . S
H245 C255 0.929 . S
H246 C250 0.929 . S
H247 C256 0.929 . S
C248 H242 0.930 . S
C248 C249 1.367 . S
C248 C256 1.378 . S
C249 C248 1.367 . S
C249 C257 1.433 . S
C250 H246 0.929 . S
C250 C252 1.378 1_565 S
C250 C254 1.350 . S
C251 C254 1.463 . S
C251 C256 1.350 . S
C251 N259 1.427 . S
C252 H243 0.930 . S
C252 C250 1.378 1_545 S
C252 C253 1.367 . S
C253 C252 1.367 . S
C253 C255 1.433 . S
C254 C250 1.350 . S
C254 C251 1.463 . S
C254 N258 1.427 . S
C255 H245 0.929 . S
C255 C253 1.433 . S
C255 N258 1.384 1_545 S
C256 H247 0.929 . S
C256 C248 1.378 . S
C256 C251 1.350 . S
C257 H244 0.929 . S
C257 C249 1.433 . S
C257 N259 1.384 . S
N258 C254 1.427 . S
N258 C255 1.384 1_565 S
N259 C251 1.427 . S
N259 C257 1.384 . S
H260 C266 0.930 . S
H261 C270 0.930 . S
H262 C275 0.929 . S
H263 C273 0.930 . S
H264 C268 0.929 . S
H265 C274 0.929 . S
C266 H260 0.930 . S
C266 C267 1.367 . S
C266 C274 1.378 . S
C267 C266 1.367 . S
C267 C275 1.433 . S
C268 H264 0.929 . S
C268 C270 1.378 . S
C268 C272 1.350 1_565 S
C269 C272 1.463 . S
C269 C274 1.350 . S
C269 N277 1.427 . S
C270 H261 0.930 . S
C270 C268 1.378 . S
C270 C271 1.367 . S
C271 C270 1.367 . S
C271 C273 1.433 . S
C272 C268 1.350 1_545 S
C272 C269 1.463 . S
C272 N276 1.427 . S
C273 H263 0.930 . S
C273 C271 1.433 . S
C273 N276 1.384 1_565 S
C274 H265 0.929 . S
C274 C266 1.378 . S
C274 C269 1.350 . S
C275 H262 0.929 . S
C275 C267 1.433 . S
C275 N277 1.384 . S
N276 C272 1.427 . S
N276 C273 1.384 1_545 S
N277 C269 1.427 . S
N277 C275 1.384 . S
H278 C284 0.930 . S
H279 C288 0.930 . S
H280 C293 0.929 . S
H281 C291 0.929 . S
H282 C286 0.929 . S
H283 C292 0.929 . S
C284 H278 0.930 . S
C284 C285 1.367 . S
C284 C292 1.378 . S
C285 C284 1.367 . S
C285 C293 1.433 . S
C286 H282 0.929 . S
C286 C288 1.378 . S
C286 C290 1.350 . S
C287 C290 1.463 . S
C287 C292 1.350 . S
C287 N295 1.427 . S
C288 H279 0.930 . S
C288 C286 1.378 . S
C288 C289 1.367 . S
C289 C288 1.367 . S
C289 C291 1.433 . S
C290 C286 1.350 . S
C290 C287 1.463 . S
C290 N294 1.427 . S
C291 H281 0.929 . S
C291 C289 1.433 . S
C291 N294 1.384 . S
C292 H283 0.929 . S
C292 C284 1.378 . S
C292 C287 1.350 . S
C293 H280 0.929 . S
C293 C285 1.433 . S
C293 N295 1.384 . S
N294 C290 1.427 . S
N294 C291 1.384 . S
N295 C287 1.427 . S
N295 C293 1.384 . S
H296 C302 0.930 . S
H297 C306 0.930 . S
H298 C311 0.929 . S
H299 C309 0.929 . S
H300 C304 0.929 . S
H301 C310 0.929 . S
C302 H296 0.930 . S
C302 C303 1.367 . S
C302 C310 1.378 . S
C303 C302 1.367 . S
C303 C311 1.433 . S
C304 H300 0.929 . S
C304 C306 1.378 . S
C304 C308 1.350 . S
C305 C308 1.463 . S
C305 C310 1.350 . S
C305 N313 1.427 . S
C306 H297 0.930 . S
C306 C304 1.378 . S
C306 C307 1.367 . S
C307 C306 1.367 . S
C307 C309 1.433 . S
C308 C304 1.350 . S
C308 C305 1.463 . S
C308 N312 1.427 . S
C309 H299 0.929 . S
C309 C307 1.433 . S
C309 N312 1.384 . S
C310 H301 0.929 . S
C310 C302 1.378 . S
C310 C305 1.350 . S
C311 H298 0.929 . S
C311 C303 1.433 . S
C311 N313 1.384 . S
N312 C308 1.427 . S
N312 C309 1.384 . S
N313 C305 1.427 . S
N313 C311 1.384 . S
H314 C320 0.930 . S
H315 C324 0.930 . S
H316 C329 0.929 . S
H317 C327 0.929 . S
H318 C322 0.929 . S
H319 C328 0.929 . S
C320 H314 0.930 . S
C320 C321 1.367 . S
C320 C328 1.378 . S
C321 C320 1.367 . S
C321 C329 1.433 . S
C322 H318 0.929 . S
C322 C324 1.378 1_545 S
C322 C326 1.350 . S
C323 C326 1.463 . S
C323 C328 1.350 . S
C323 N331 1.427 . S
C324 H315 0.930 . S
C324 C322 1.378 1_565 S
C324 C325 1.367 . S
C325 C324 1.367 . S
C325 C327 1.433 . S
C326 C322 1.350 . S
C326 C323 1.463 . S
C326 N330 1.427 . S
C327 H317 0.929 . S
C327 C325 1.433 . S
C327 N330 1.384 1_565 S
C328 H319 0.929 . S
C328 C320 1.378 . S
C328 C323 1.350 . S
C329 H316 0.929 . S
C329 C321 1.433 . S
C329 N331 1.384 . S
N330 C326 1.427 . S
N330 C327 1.384 1_545 S
N331 C323 1.427 . S
N331 C329 1.384 . S
H332 C338 0.930 . S
H333 C342 0.930 . S
H334 C347 0.929 . S
H335 C345 0.929 . S
H336 C340 0.929 . S
H337 C346 0.929 . S
C338 H332 0.930 . S
C338 C339 1.367 . S
C338 C346 1.378 1_556 S
C339 C338 1.367 . S
C339 C347 1.433 . S
C340 H336 0.929 . S
C340 C342 1.378 . S
C340 C344 1.350 . S
C341 C344 1.463 . S
C341 C346 1.350 . S
C341 N349 1.427 . S
C342 H333 0.930 . S
C342 C340 1.378 . S
C342 C343 1.367 . S
C343 C342 1.367 . S
C343 C345 1.433 . S
C344 C340 1.350 . S
C344 C341 1.463 . S
C344 N348 1.427 . S
C345 H335 0.929 . S
C345 C343 1.433 . S
C345 N348 1.384 . S
C346 H337 0.929 . S
C346 C338 1.378 1_554 S
C346 C341 1.350 . S
C347 H334 0.929 . S
C347 C339 1.433 . S
C347 N349 1.384 1_556 S
N348 C344 1.427 . S
N348 C345 1.384 . S
N349 C341 1.427 . S
N349 C347 1.384 1_554 S
H350 C356 0.930 . S
H351 C360 0.930 . S
H352 C365 0.929 . S
H353 C363 0.929 . S
H354 C358 0.929 . S
H355 C364 0.929 . S
C356 H350 0.930 . S
C356 C357 1.367 . S
C356 C364 1.378 . S
C357 C356 1.367 . S
C357 C365 1.433 . S
C358 H354 0.929 . S
C358 C360 1.378 . S
C358 C362 1.350 . S
C359 C362 1.463 . S
C359 C364 1.350 . S
C359 N367 1.427 . S
C360 H351 0.930 . S
C360 C358 1.378 . S
C360 C361 1.367 . S
C361 C360 1.367 . S
C361 C363 1.433 . S
C362 C358 1.350 . S
C362 C359 1.463 . S
C362 N366 1.427 . S
C363 H353 0.929 . S
C363 C361 1.433 . S
C363 N366 1.384 . S
C364 H355 0.929 . S
C364 C356 1.378 . S
C364 C359 1.350 . S
C365 H352 0.929 . S
C365 C357 1.433 . S
C365 N367 1.384 . S
N366 C362 1.427 . S
N366 C363 1.384 . S
N367 C359 1.427 . S
N367 C365 1.384 . S
H368 C374 0.930 . S
H369 C378 0.930 . S
H370 C383 0.929 . S
H371 C381 0.929 . S
H372 C376 0.929 . S
H373 C382 0.929 . S
C374 H368 0.930 . S
C374 C375 1.367 . S
C374 C382 1.378 1_554 S
C375 C374 1.367 . S
C375 C383 1.433 . S
C376 H372 0.929 . S
C376 C378 1.378 . S
C376 C380 1.350 . S
C377 C380 1.463 . S
C377 C382 1.350 . S
C377 N385 1.427 1_556 S
C378 H369 0.930 . S
C378 C376 1.378 . S
C378 C379 1.367 . S
C379 C378 1.367 . S
C379 C381 1.433 . S
C380 C376 1.350 . S
C380 C377 1.463 . S
C380 N384 1.427 . S
C381 H371 0.929 . S
C381 C379 1.433 . S
C381 N384 1.384 . S
C382 H373 0.929 . S
C382 C374 1.378 1_556 S
C382 C377 1.350 . S
C383 H370 0.929 . S
C383 C375 1.433 . S
C383 N385 1.384 . S
N384 C380 1.427 . S
N384 C381 1.384 . S
N385 C377 1.427 1_554 S
N385 C383 1.384 . S
H386 C392 0.930 . S
H387 C396 0.930 . S
H388 C401 0.929 . S
H389 C399 0.929 . S
H390 C394 0.929 . S
H391 C400 0.929 . S
C392 H386 0.930 . S
C392 C393 1.367 . S
C392 C400 1.378 . S
C393 C392 1.367 . S
C393 C401 1.433 . S
C394 H390 0.929 . S
C394 C396 1.378 . S
C394 C398 1.350 . S
C395 C398 1.463 . S
C395 C400 1.350 . S
C395 N403 1.427 . S
C396 H387 0.930 . S
C396 C394 1.378 . S
C396 C397 1.367 . S
C397 C396 1.367 . S
C397 C399 1.433 . S
C398 C394 1.350 . S
C398 C395 1.463 . S
C398 N402 1.427 . S
C399 H389 0.929 . S
C399 C397 1.433 . S
C399 N402 1.384 . S
C400 H391 0.929 . S
C400 C392 1.378 . S
C400 C395 1.350 . S
C401 H388 0.929 . S
C401 C393 1.433 . S
C401 N403 1.384 . S
N402 C398 1.427 . S
N402 C399 1.384 . S
N403 C395 1.427 . S
N403 C401 1.384 . S
H404 C410 0.935 . S
H405 C414 0.930 . S
H406 C419 0.929 . S
H407 C417 0.929 . S
H408 C412 0.929 . S
H409 C418 0.929 . S
C410 H404 0.935 . S
C410 C411 1.367 1_556 S
C410 C418 1.378 . S
C411 C410 1.367 1_554 S
C411 C419 1.433 . S
C412 H408 0.929 . S
C412 C414 1.378 . S
C412 C416 1.350 . S
C413 C416 1.463 . S
C413 C418 1.350 . S
C413 N421 1.427 . S
C414 H405 0.930 . S
C414 C412 1.378 . S
C414 C415 1.367 . S
C415 C414 1.367 . S
C415 C417 1.433 . S
C416 C412 1.350 . S
C416 C413 1.463 . S
C416 N420 1.427 . S
C417 H407 0.929 . S
C417 C415 1.433 . S
C417 N420 1.384 . S
C418 H409 0.929 . S
C418 C410 1.378 . S
C418 C413 1.350 . S
C419 H406 0.929 . S
C419 C411 1.433 . S
C419 N421 1.384 1_554 S
N420 C416 1.427 . S
N420 C417 1.384 . S
N421 C413 1.427 . S
N421 C419 1.384 1_556 S
H422 C428 0.930 . S
H423 C432 0.930 . S
H424 C437 0.929 . S
H425 C435 0.929 . S
H426 C430 0.929 . S
H427 C436 0.929 . S
C428 H422 0.930 . S
C428 C429 1.367 . S
C428 C436 1.378 . S
C429 C428 1.367 . S
C429 C437 1.433 . S
C430 H426 0.929 . S
C430 C432 1.378 . S
C430 C434 1.350 . S
C431 C434 1.463 . S
C431 C436 1.350 . S
C431 N439 1.427 . S
C432 H423 0.930 . S
C432 C430 1.378 . S
C432 C433 1.367 . S
C433 C432 1.367 . S
C433 C435 1.433 . S
C434 C430 1.350 . S
C434 C431 1.463 . S
C434 N438 1.427 . S
C435 H425 0.929 . S
C435 C433 1.433 . S
C435 N438 1.384 . S
C436 H427 0.929 . S
C436 C428 1.378 . S
C436 C431 1.350 . S
C437 H424 0.929 . S
C437 C429 1.433 . S
C437 N439 1.384 . S
N438 C434 1.427 . S
N438 C435 1.384 . S
N439 C431 1.427 . S
N439 C437 1.384 . S
H440 C446 0.930 . S
H441 C450 0.930 . S
H442 C455 0.929 1_556 S
H443 C453 0.929 . S
H444 C448 0.929 . S
H445 C454 0.929 . S
C446 H440 0.930 . S
C446 C447 1.367 . S
C446 C454 1.378 1_556 S
C447 C446 1.367 . S
C447 C455 1.433 1_556 S
C448 H444 0.929 . S
C448 C450 1.378 . S
C448 C452 1.350 . S
C449 C452 1.463 . S
C449 C454 1.350 . S
C449 N457 1.427 . S
C450 H441 0.930 . S
C450 C448 1.378 . S
C450 C451 1.367 . S
C451 C450 1.367 . S
C451 C453 1.433 . S
C452 C448 1.350 . S
C452 C449 1.463 . S
C452 N456 1.427 . S
C453 H443 0.929 . S
C453 C451 1.433 . S
C453 N456 1.384 . S
C454 H445 0.929 . S
C454 C446 1.378 1_554 S
C454 C449 1.350 . S
C455 H442 0.929 1_554 S
C455 C447 1.433 1_554 S
C455 N457 1.384 . S
N456 C452 1.427 . S
N456 C453 1.384 . S
N457 C449 1.427 . S
N457 C455 1.384 . S
H458 C464 0.930 . S
H459 C468 0.930 . S
H460 C473 0.929 . S
H461 C471 0.929 . S
H462 C466 0.929 . S
H463 C472 0.929 . S
C464 H458 0.930 . S
C464 C465 1.367 . S
C464 C472 1.378 . S
C465 C464 1.367 . S
C465 C473 1.433 . S
C466 H462 0.929 . S
C466 C468 1.378 . S
C466 C470 1.350 . S
C467 C470 1.463 . S
C467 C472 1.350 . S
C467 N475 1.427 . S
C468 H459 0.930 . S
C468 C466 1.378 . S
C468 C469 1.367 . S
C469 C468 1.367 . S
C469 C471 1.433 . S
C470 C466 1.350 . S
C470 C467 1.463 . S
C470 N474 1.427 . S
C471 H461 0.929 . S
C471 C469 1.433 . S
C471 N474 1.384 . S
C472 H463 0.929 . S
C472 C464 1.378 . S
C472 C467 1.350 . S
C473 H460 0.929 . S
C473 C465 1.433 . S
C473 N475 1.384 . S
N474 C470 1.427 . S
N474 C471 1.384 . S
N475 C467 1.427 . S
N475 C473 1.384 . S
H476 C482 0.930 . S
H477 C486 0.930 . S
H478 C491 0.929 . S
H479 C489 0.929 . S
H480 C484 0.929 . S
H481 C490 0.929 . S
C482 H476 0.930 . S
C482 C483 1.367 . S
C482 C490 1.378 . S
C483 C482 1.367 . S
C483 C491 1.433 . S
C484 H480 0.929 . S
C484 C486 1.378 . S
C484 C488 1.350 . S
C485 C488 1.463 . S
C485 C490 1.350 . S
C485 N493 1.427 . S
C486 H477 0.930 . S
C486 C484 1.378 . S
C486 C487 1.367 . S
C487 C486 1.367 . S
C487 C489 1.433 . S
C488 C484 1.350 . S
C488 C485 1.463 . S
C488 N492 1.427 . S
C489 H479 0.929 . S
C489 C487 1.433 . S
C489 N492 1.384 . S
C490 H481 0.929 . S
C490 C482 1.378 . S
C490 C485 1.350 . S
C491 H478 0.929 . S
C491 C483 1.433 . S
C491 N493 1.384 . S
N492 C488 1.427 . S
N492 C489 1.384 . S
N493 C485 1.427 . S
N493 C491 1.384 . S
H494 C500 0.930 . S
H495 C504 0.930 . S
H496 C509 0.929 . S
H497 C507 0.929 . S
H498 C502 0.929 . S
H499 C508 0.929 . S
C500 H494 0.930 . S
C500 C501 1.367 . S
C500 C508 1.378 . S
C501 C500 1.367 . S
C501 C509 1.433 . S
C502 H498 0.929 . S
C502 C504 1.378 . S
C502 C506 1.350 . S
C503 C506 1.463 . S
C503 C508 1.350 . S
C503 N511 1.427 . S
C504 H495 0.930 . S
C504 C502 1.378 . S
C504 C505 1.367 . S
C505 C504 1.367 . S
C505 C507 1.433 . S
C506 C502 1.350 . S
C506 C503 1.463 . S
C506 N510 1.427 . S
C507 H497 0.929 . S
C507 C505 1.433 . S
C507 N510 1.384 . S
C508 H499 0.929 . S
C508 C500 1.378 . S
C508 C503 1.350 . S
C509 H496 0.929 . S
C509 C501 1.433 . S
C509 N511 1.384 . S
N510 C506 1.427 . S
N510 C507 1.384 . S
N511 C503 1.427 . S
N511 C509 1.384 . S
H512 C518 0.930 . S
H513 C522 0.930 . S
H514 C527 0.929 . S
H515 C525 0.929 . S
H516 C520 0.929 . S
H517 C526 0.929 . S
C518 H512 0.930 . S
C518 C519 1.367 . S
C518 C526 1.378 . S
C519 C518 1.367 . S
C519 C527 1.433 . S
C520 H516 0.929 . S
C520 C522 1.378 . S
C520 C524 1.350 . S
C521 C524 1.463 . S
C521 C526 1.350 . S
C521 N529 1.427 . S
C522 H513 0.930 . S
C522 C520 1.378 . S
C522 C523 1.367 . S
C523 C522 1.367 . S
C523 C525 1.433 . S
C524 C520 1.350 . S
C524 C521 1.463 . S
C524 N528 1.427 . S
C525 H515 0.929 . S
C525 C523 1.433 . S
C525 N528 1.384 . S
C526 H517 0.929 . S
C526 C518 1.378 . S
C526 C521 1.350 . S
C527 H514 0.929 . S
C527 C519 1.433 . S
C527 N529 1.384 . S
N528 C524 1.427 . S
N528 C525 1.384 . S
N529 C521 1.427 . S
N529 C527 1.384 . S
H530 C536 0.930 . S
H531 C540 0.930 . S
H532 C545 0.929 . S
H533 C543 0.929 . S
H534 C538 0.929 . S
H535 C544 0.929 . S
C536 H530 0.930 . S
C536 C537 1.367 . S
C536 C544 1.378 . S
C537 C536 1.367 . S
C537 C545 1.433 . S
C538 H534 0.929 . S
C538 C540 1.378 . S
C538 C542 1.350 . S
C539 C542 1.463 . S
C539 C544 1.350 . S
C539 N547 1.427 . S
C540 H531 0.930 . S
C540 C538 1.378 . S
C540 C541 1.367 . S
C541 C540 1.367 . S
C541 C543 1.433 . S
C542 C538 1.350 . S
C542 C539 1.463 . S
C542 N546 1.427 . S
C543 H533 0.929 . S
C543 C541 1.433 . S
C543 N546 1.384 . S
C544 H535 0.929 . S
C544 C536 1.378 . S
C544 C539 1.350 . S
C545 H532 0.929 . S
C545 C537 1.433 . S
C545 N547 1.384 . S
N546 C542 1.427 . S
N546 C543 1.384 . S
N547 C539 1.427 . S
N547 C545 1.384 . S
H548 C554 0.930 . S
H549 C558 0.930 . S
H550 C563 0.929 . S
H551 C561 0.929 . S
H552 C556 0.929 . S
H553 C562 0.929 . S
C554 H548 0.930 . S
C554 C555 1.367 . S
C554 C562 1.378 . S
C555 C554 1.367 . S
C555 C563 1.433 . S
C556 H552 0.929 . S
C556 C558 1.378 . S
C556 C560 1.350 . S
C557 C560 1.463 . S
C557 C562 1.350 . S
C557 N565 1.427 . S
C558 H549 0.930 . S
C558 C556 1.378 . S
C558 C559 1.367 . S
C559 C558 1.367 . S
C559 C561 1.433 . S
C560 C556 1.350 . S
C560 C557 1.463 . S
C560 N564 1.427 . S
C561 H551 0.929 . S
C561 C559 1.433 . S
C561 N564 1.384 . S
C562 H553 0.929 . S
C562 C554 1.378 . S
C562 C557 1.350 . S
C563 H550 0.929 . S
C563 C555 1.433 . S
C563 N565 1.384 . S
N564 C560 1.427 . S
N564 C561 1.384 . S
N565 C557 1.427 . S
N565 C563 1.384 . S
H566 C572 0.930 . S
H567 C576 0.930 . S
H568 C581 0.929 . S
H569 C579 0.929 . S
H570 C574 0.929 . S
H571 C580 0.929 . S
C572 H566 0.930 . S
C572 C573 1.367 . S
C572 C580 1.378 . S
C573 C572 1.367 . S
C573 C581 1.433 . S
C574 H570 0.929 . S
C574 C576 1.378 . S
C574 C578 1.350 . S
C575 C578 1.463 . S
C575 C580 1.350 . S
C575 N583 1.427 . S
C576 H567 0.930 . S
C576 C574 1.378 . S
C576 C577 1.367 . S
C577 C576 1.367 . S
C577 C579 1.433 . S
C578 C574 1.350 . S
C578 C575 1.463 . S
C578 N582 1.427 . S
C579 H569 0.929 . S
C579 C577 1.433 . S
C579 N582 1.384 . S
C580 H571 0.929 . S
C580 C572 1.378 . S
C580 C575 1.350 . S
C581 H568 0.929 . S
C581 C573 1.433 . S
C581 N583 1.384 . S
N582 C578 1.427 . S
N582 C579 1.384 . S
N583 C575 1.427 . S
N583 C581 1.384 . S
H584 C590 0.930 . S
H585 C594 0.930 . S
H586 C599 0.929 . S
H587 C597 0.929 . S
H588 C592 0.929 . S
H589 C598 0.929 . S
C590 H584 0.930 . S
C590 C591 1.367 . S
C590 C598 1.378 . S
C591 C590 1.367 . S
C591 C599 1.433 . S
C592 H588 0.929 . S
C592 C594 1.378 . S
C592 C596 1.350 . S
C593 C596 1.463 . S
C593 C598 1.350 . S
C593 N601 1.427 . S
C594 H585 0.930 . S
C594 C592 1.378 . S
C594 C595 1.367 . S
C595 C594 1.367 . S
C595 C597 1.433 . S
C596 C592 1.350 . S
C596 C593 1.463 . S
C596 N600 1.427 . S
C597 H587 0.929 . S
C597 C595 1.433 . S
C597 N600 1.384 . S
C598 H589 0.929 . S
C598 C590 1.378 . S
C598 C593 1.350 . S
C599 H586 0.929 . S
C599 C591 1.433 . S
C599 N601 1.384 . S
N600 C596 1.427 . S
N600 C597 1.384 . S
N601 C593 1.427 . S
N601 C599 1.384 . S
H602 C608 0.930 . S
H603 C612 0.930 . S
H604 C617 0.929 . S
H605 C615 0.929 . S
H606 C610 0.929 . S
H607 C616 0.929 . S
C608 H602 0.930 . S
C608 C609 1.367 . S
C608 C616 1.378 . S
C609 C608 1.367 . S
C609 C617 1.433 . S
C610 H606 0.929 . S
C610 C612 1.378 . S
C610 C614 1.350 . S
C611 C614 1.463 . S
C611 C616 1.350 . S
C611 N619 1.427 . S
C612 H603 0.930 . S
C612 C610 1.378 . S
C612 C613 1.367 . S
C613 C612 1.367 . S
C613 C615 1.433 . S
C614 C610 1.350 . S
C614 C611 1.463 . S
C614 N618 1.427 . S
C615 H605 0.929 . S
C615 C613 1.433 . S
C615 N618 1.384 . S
C616 H607 0.929 . S
C616 C608 1.378 . S
C616 C611 1.350 . S
C617 H604 0.929 . S
C617 C609 1.433 . S
C617 N619 1.384 . S
N618 C614 1.427 . S
N618 C615 1.384 . S
N619 C611 1.427 . S
N619 C617 1.384 . S
C195 C86 1.359 . S
C199 C120 1.289 . S
C217 C128 1.433 . S
C213 C100 1.473 . S
C235 C132 1.279 . S
C231 C60 1.361 . S
C249 C74 1.482 . S
C253 C108 1.405 . S
C271 C149 1.417 . S
C267 C35 1.482 . S
C289 C183 1.276 . S
C285 C47 1.358 . S
C303 C9 1.474 . S
C307 C171 1.425 . S
C321 C21 1.363 . S
C325 C153 1.263 . S
C343 C107 1.358 . S
C339 C22 1.467 . S
C361 C141 1.312 . S
C357 C8 1.456 . S
C379 C145 1.348 . S
C375 C48 1.473 . S
C397 C123 1.327 . S
C393 C34 1.456 . S
C415 C162 1.314 . S
C411 C73 1.457 . S
C429 C61 1.476 . S
C433 C170 1.349 . S
C451 C186 1.328 . S
C447 C99 1.455 . S
C465 C87 1.476 . S
C469 C166 1.346 . S
C487 C111 1.424 . S
C483 C4 1.550 . S
C505 C129 1.317 . S
C501 C17 1.433 . S
C519 C30 1.544 . S
C523 C144 1.415 . S
C541 C124 1.310 . S
C537 C43 1.427 . S
C559 C150 1.329 . S
C555 C56 1.441 . S
C573 C69 1.531 . S
C577 C174 1.426 . S
C591 C82 1.441 . S
C595 C187 1.316 . S
C609 C95 1.533 . S
C613 C165 1.431 . S
