# Generated by pormake.
# Topology zzz, (3,6)-cn, num edge types: 1
# Building blocks:
#     Node 0, Type 0, BuildingBlock: ESEHIV_clean_linker_0, # of connection points: 3
#     Node 1, Type 0, BuildingBlock: ESEHIV_clean_linker_0, # of connection points: 3
#     Node 2, Type 0, BuildingBlock: ESEHIV_clean_linker_0, # of connection points: 3
#     Node 3, Type 0, BuildingBlock: ESEHIV_clean_linker_0, # of connection points: 3
#     Node 4, Type 0, BuildingBlock: ESEHIV_clean_linker_0, # of connection points: 3
#     Node 5, Type 0, BuildingBlock: ESEHIV_clean_linker_0, # of connection points: 3
#     Node 6, Type 0, BuildingBlock: ESEHIV_clean_linker_0, # of connection points: 3
#     Node 7, Type 0, BuildingBlock: ESEHIV_clean_linker_0, # of connection points: 3
#     Node 8, Type 1, BuildingBlock: MIFKUJ_clean_sbu_0, # of connection points: 6
#     Node 9, Type 1, BuildingBlock: MIFKUJ_clean_sbu_0, # of connection points: 6
#     Node 10, Type 1, BuildingBlock: MIFKUJ_clean_sbu_0, # of connection points: 6
#     Node 11, Type 1, BuildingBlock: MIFKUJ_clean_sbu_0, # of connection points: 6
#     Edge 12, Type (0, 1), BuildingBlock: CIFDUS_clean_linker_0, # of connection points: 2
#     Edge 13, Type (0, 1), BuildingBlock: CIFDUS_clean_linker_0, # of connection points: 2
#     Edge 14, Type (0, 1), BuildingBlock: CIFDUS_clean_linker_0, # of connection points: 2
#     Edge 15, Type (0, 1), BuildingBlock: CIFDUS_clean_linker_0, # of connection points: 2
#     Edge 16, Type (0, 1), BuildingBlock: CIFDUS_clean_linker_0, # of connection points: 2
#     Edge 17, Type (0, 1), BuildingBlock: CIFDUS_clean_linker_0, # of connection points: 2
#     Edge 18, Type (0, 1), BuildingBlock: CIFDUS_clean_linker_0, # of connection points: 2
#     Edge 19, Type (0, 1), BuildingBlock: CIFDUS_clean_linker_0, # of connection points: 2
#     Edge 20, Type (0, 1), BuildingBlock: CIFDUS_clean_linker_0, # of connection points: 2
#     Edge 21, Type (0, 1), BuildingBlock: CIFDUS_clean_linker_0, # of connection points: 2
#     Edge 22, Type (0, 1), BuildingBlock: CIFDUS_clean_linker_0, # of connection points: 2
#     Edge 23, Type (0, 1), BuildingBlock: CIFDUS_clean_linker_0, # of connection points: 2
#     Edge 24, Type (0, 1), BuildingBlock: CIFDUS_clean_linker_0, # of connection points: 2
#     Edge 25, Type (0, 1), BuildingBlock: CIFDUS_clean_linker_0, # of connection points: 2
#     Edge 26, Type (0, 1), BuildingBlock: CIFDUS_clean_linker_0, # of connection points: 2
#     Edge 27, Type (0, 1), BuildingBlock: CIFDUS_clean_linker_0, # of connection points: 2
#     Edge 28, Type (0, 1), BuildingBlock: CIFDUS_clean_linker_0, # of connection points: 2
#     Edge 29, Type (0, 1), BuildingBlock: CIFDUS_clean_linker_0, # of connection points: 2
#     Edge 30, Type (0, 1), BuildingBlock: CIFDUS_clean_linker_0, # of connection points: 2
#     Edge 31, Type (0, 1), BuildingBlock: CIFDUS_clean_linker_0, # of connection points: 2
#     Edge 32, Type (0, 1), BuildingBlock: CIFDUS_clean_linker_0, # of connection points: 2
#     Edge 33, Type (0, 1), BuildingBlock: CIFDUS_clean_linker_0, # of connection points: 2
#     Edge 34, Type (0, 1), BuildingBlock: CIFDUS_clean_linker_0, # of connection points: 2
#     Edge 35, Type (0, 1), BuildingBlock: CIFDUS_clean_linker_0, # of connection points: 2
# Relax obj value: 0.332
# Max RMSD: 0.203
# Mean RMSD: 0.190
data_MOF--net-zzz--node1-MIFKUJ_clean_sbu_0--node2-ESEHIV_clean_linker_0--edge1-CIFDUS_clean_linker_0
_symmetry_space_group_name_H-M    P1
_symmetry_Int_Tables_number       1
_symmetry_cell_setting            triclinic
loop_
_symmetry_equiv_pos_as_xyz
'x, y, z'
_cell_length_a     37.78058
_cell_length_b     38.294027
_cell_length_c     14.555021
_cell_angle_alpha  89.481762
_cell_angle_beta   89.758159
_cell_angle_gamma 91.99403
loop_
_atom_site_label
_atom_site_type_symbol
_atom_site_fract_x
_atom_site_fract_y
_atom_site_fract_z
_atom_type_partial_charge
H0 H 0.8006 0.61363 0.08979 0.0
H1 H 0.72765 0.58301 0.88136 0.0
H2 H 0.6933 0.58416 0.1628 0.0
C3 C 0.77323 0.60912 0.06922 0.0
C4 C 0.7472 0.60344 0.13732 0.0
C5 C 0.7669 0.59825 0.97946 0.0
C6 C 0.73219 0.59137 0.95156 0.0
C7 C 0.70513 0.58619 0.01707 0.0
C8 C 0.71278 0.59172 0.11086 0.0
H9 H 0.98811 0.78782 0.14919 0.0
H10 H 0.98538 0.71038 0.9413 0.0
H11 H 0.98697 0.67864 0.22762 0.0
C12 C 0.9873 0.76029 0.13134 0.0
C13 C 0.98662 0.73467 0.20026 0.0
C14 C 0.98679 0.75139 0.0396 0.0
C15 C 0.98616 0.71671 0.01387 0.0
C16 C 0.98636 0.6901 0.08053 0.0
C17 C 0.98667 0.6989 0.17528 0.0
H18 H 0.71681 0.91303 0.10351 0.0
H19 H 0.80601 0.92265 0.92574 0.0
H20 H 0.8197 0.93963 0.21521 0.0
C21 C 0.74543 0.91467 0.09654 0.0
C22 C 0.76667 0.92266 0.17315 0.0
C23 C 0.75947 0.91614 0.00811 0.0
C24 C 0.79573 0.92045 0.99547 0.0
C25 C 0.81769 0.9293 0.06949 0.0
C26 C 0.80327 0.93047 0.15896 0.0
H27 H 0.45067 0.71781 0.10622 0.0
H28 H 0.49889 0.81512 0.19662 0.0
H29 H 0.44245 0.80965 0.93992 0.0
C30 C 0.45518 0.74575 0.09701 0.0
C31 C 0.44478 0.76166 0.01522 0.0
C32 C 0.474 0.7647 0.16412 0.0
C33 C 0.48259 0.80059 0.14817 0.0
C34 C 0.47071 0.81702 0.06683 0.0
C35 C 0.45039 0.79755 0.004 0.0
H36 H 0.21455 0.38393 0.09089 0.0
H37 H 0.29759 0.40524 0.28053 0.0
H38 H 0.29434 0.46456 0.0306 0.0
C39 C 0.23903 0.39803 0.10664 0.0
C40 C 0.25196 0.42492 0.04769 0.0
C41 C 0.25228 0.3953 0.1957 0.0
C42 C 0.28661 0.4084 0.21226 0.0
C43 C 0.30238 0.43312 0.15194 0.0
C44 C 0.28432 0.44248 0.07106 0.0
H45 H 0.02313 0.2241 0.04663 0.0
H46 H 0.02738 0.30692 0.2416 0.0
H47 H 0.98306 0.32384 0.9731 0.0
C48 C 0.02079 0.25158 0.06208 0.0
C49 C 0.00529 0.27311 0.99659 0.0
C50 C 0.02716 0.26292 0.15138 0.0
C51 C 0.02255 0.29798 0.17209 0.0
C52 C 0.00711 0.32036 0.10802 0.0
C53 C 0.99735 0.3076 0.02051 0.0
H54 H 0.28538 0.08674 0.0962 0.0
H55 H 0.19234 0.08534 0.26323 0.0
H56 H 0.18674 0.04719 0.98601 0.0
C57 C 0.2568 0.08367 0.10187 0.0
C58 C 0.23766 0.06955 0.02789 0.0
C59 C 0.24082 0.08794 0.18747 0.0
C60 C 0.20439 0.08245 0.19602 0.0
C61 C 0.18452 0.06774 0.12405 0.0
C62 C 0.20135 0.06056 0.03993 0.0
H63 H 0.56342 0.30128 0.0766 0.0
H64 H 0.50559 0.20769 0.99398 0.0
H65 H 0.56432 0.21061 0.24676 0.0
C66 C 0.55728 0.27352 0.08513 0.0
C67 C 0.56492 0.25791 0.16897 0.0
C68 C 0.53482 0.25635 0.02217 0.0
C69 C 0.52443 0.22088 0.03884 0.0
C70 C 0.53721 0.20348 0.11795 0.0
C71 C 0.55855 0.2222 0.18031 0.0
Zn72 Zn 0.96904 0.05554 0.58594 0.0
Zn73 Zn 0.00345 0.96224 0.58383 0.0
C74 C 0.96335 0.10135 0.7335 0.0
O75 O 0.93015 0.09836 0.70735 0.0
C76 C 0.00237 0.90333 0.47368 0.0
O77 O 0.03617 0.90959 0.48997 0.0
O78 O 0.94972 0.09454 0.51157 0.0
O79 O 0.01035 0.04154 0.50804 0.0
O80 O 0.03693 0.99119 0.50623 0.0
C81 C 0.97376 0.11859 0.51105 0.0
O82 O 0.00375 0.11348 0.55339 0.0
O83 O 0.98532 0.08 0.70166 0.0
C84 C 0.00414 0.91181 0.70239 0.0
O85 O 0.97166 0.91637 0.67389 0.0
O86 O 0.02931 0.93101 0.66931 0.0
O87 O 0.96958 0.98296 0.67801 0.0
O88 O 0.93201 0.01982 0.62027 0.0
O89 O 0.98028 0.92591 0.49862 0.0
C90 C 0.03428 0.02226 0.47735 0.0
C91 C 0.94162 0.00016 0.68528 0.0
Zn92 Zn 0.45174 0.0188 0.58356 0.0
Zn93 Zn 0.5547 0.99586 0.58936 0.0
C94 C 0.39938 0.02593 0.70772 0.0
O95 O 0.39282 0.99627 0.66533 0.0
C96 C 0.60621 0.98361 0.46604 0.0
O97 O 0.61417 0.01416 0.5024 0.0
O98 O 0.41293 0.0224 0.49268 0.0
O99 O 0.49176 0.04566 0.51654 0.0
O100 O 0.54958 0.04412 0.53551 0.0
C101 C 0.40846 0.05496 0.48109 0.0
O102 O 0.42902 0.07777 0.52401 0.0
O103 O 0.42809 0.04318 0.68901 0.0
C104 C 0.59855 0.95886 0.6884 0.0
O105 O 0.57701 0.93668 0.64627 0.0
O106 O 0.59418 0.99156 0.67862 0.0
O107 O 0.51516 0.97068 0.66034 0.0
O108 O 0.45767 0.97029 0.63562 0.0
O109 O 0.57611 0.96905 0.48469 0.0
C110 C 0.52291 0.05665 0.49579 0.0
C111 C 0.48401 0.95982 0.68076 0.0
Zn112 Zn 0.52359 0.47481 0.58384 0.0
Zn113 Zn 0.47388 0.54418 0.61639 0.0
C114 C 0.52124 0.42488 0.72661 0.0
O115 O 0.55527 0.42896 0.70922 0.0
C116 C 0.47465 0.60192 0.48857 0.0
O117 O 0.44109 0.60017 0.51258 0.0
O118 O 0.55544 0.44145 0.52211 0.0
O119 O 0.49115 0.48678 0.47753 0.0
O120 O 0.44516 0.5071 0.55017 0.0
C121 C 0.53612 0.41536 0.49817 0.0
O122 O 0.50194 0.41563 0.51522 0.0
O123 O 0.49959 0.44411 0.68443 0.0
C124 C 0.4567 0.59953 0.71368 0.0
O125 O 0.49067 0.60316 0.69486 0.0
O126 O 0.43969 0.5724 0.68694 0.0
O127 O 0.50898 0.53345 0.71827 0.0
O128 O 0.55408 0.51153 0.64477 0.0
O129 O 0.49532 0.57891 0.51943 0.0
C130 C 0.45825 0.49234 0.48079 0.0
C131 C 0.54178 0.52747 0.71329 0.0
Zn132 Zn 0.05166 0.50629 0.58554 0.0
Zn133 Zn 0.94204 0.51545 0.57338 0.0
C134 C 0.09825 0.49232 0.72056 0.0
O135 O 0.10915 0.52205 0.6825 0.0
C136 C 0.87559 0.52167 0.49233 0.0
O137 O 0.8784 0.48801 0.50756 0.0
O138 O 0.09498 0.50588 0.50557 0.0
O139 O 0.01326 0.48709 0.50594 0.0
O140 O 0.95739 0.4838 0.47101 0.0
C141 C 0.10099 0.47376 0.49224 0.0
O142 O 0.07814 0.44977 0.52328 0.0
O143 O 0.06881 0.47823 0.69489 0.0
C144 C 0.92118 0.49396 0.75028 0.0
O145 O 0.95242 0.49822 0.78847 0.0
O146 O 0.91978 0.4837 0.66794 0.0
O147 O 0.97919 0.54672 0.64566 0.0
O148 O 0.03827 0.55169 0.64024 0.0
O149 O 0.9012 0.54214 0.51632 0.0
C150 C 0.98872 0.47491 0.45538 0.0
C151 C 0.00859 0.56094 0.67257 0.0
H152 H 0.13074 0.10426 0.18912 0.0
H153 H 0.16074 0.99989 0.12427 0.0
H154 H 0.11471 0.97568 0.22795 0.0
H155 H 0.07264 0.98492 0.35539 0.0
H156 H 0.04974 0.09015 0.43356 0.0
H157 H 0.08709 0.11338 0.30917 0.0
C158 C 0.12605 0.07619 0.19491 0.0
C159 C 0.14877 0.05387 0.14896 0.0
C160 C 0.10167 0.06271 0.25991 0.0
C161 C 0.14304 0.01755 0.15759 0.0
C162 C 0.11732 0.00376 0.21866 0.0
C163 C 0.07569 0.01293 0.34478 0.0
C164 C 0.05806 0.03584 0.40323 0.0
C165 C 0.09772 0.02618 0.27352 0.0
C166 C 0.0623 0.07201 0.38846 0.0
C167 C 0.0836 0.08533 0.31713 0.0
H168 H 0.57436 0.14605 0.15002 0.0
H169 H 0.47021 0.18685 0.17603 0.0
H170 H 0.45575 0.14426 0.29774 0.0
H171 H 0.47604 0.10062 0.41185 0.0
H172 H 0.58274 0.06454 0.39232 0.0
H173 H 0.59292 0.09989 0.2546 0.0
C174 C 0.54788 0.14429 0.17922 0.0
C175 C 0.5232 0.16914 0.15274 0.0
C176 C 0.54067 0.1213 0.25336 0.0
C177 C 0.4893 0.16736 0.19301 0.0
C178 C 0.48136 0.14347 0.26446 0.0
C179 C 0.50147 0.10044 0.37763 0.0
C180 C 0.52874 0.08027 0.41441 0.0
C181 C 0.50739 0.12132 0.29803 0.0
C182 C 0.56148 0.08037 0.36784 0.0
C183 C 0.56725 0.1003 0.28803 0.0
H184 H 0.37132 0.41646 0.16627 0.0
H185 H 0.29781 0.49611 0.23111 0.0
H186 H 0.34014 0.52254 0.33908 0.0
H187 H 0.39527 0.51867 0.42821 0.0
H188 H 0.46998 0.44034 0.3586 0.0
H189 H 0.43032 0.41787 0.23929 0.0
C190 C 0.36532 0.44044 0.20132 0.0
C191 C 0.33191 0.4548 0.18969 0.0
C192 C 0.38967 0.4552 0.26415 0.0
C193 C 0.32383 0.48528 0.23724 0.0
C194 C 0.34778 0.50001 0.30011 0.0
C195 C 0.40292 0.49682 0.38652 0.0
C196 C 0.43517 0.48071 0.40383 0.0
C197 C 0.38029 0.48448 0.31644 0.0
C198 C 0.4451 0.45294 0.34773 0.0
C199 C 0.42246 0.44009 0.27921 0.0
H200 H 0.04924 0.37583 0.15325 0.0
H201 H 0.94052 0.33831 0.15066 0.0
H202 H 0.92437 0.38446 0.25688 0.0
H203 H 0.94296 0.43058 0.36556 0.0
H204 H 0.05123 0.46972 0.36244 0.0
H205 H 0.06608 0.4277 0.24457 0.0
C206 C 0.02179 0.3788 0.17313 0.0
C207 C 0.99592 0.35431 0.1431 0.0
C208 C 0.01296 0.40487 0.2357 0.0
C209 C 0.9606 0.35758 0.17103 0.0
C210 C 0.95153 0.38355 0.233 0.0
C211 C 0.96972 0.43015 0.33842 0.0
C212 C 0.99649 0.45201 0.37647 0.0
C213 C 0.97774 0.40658 0.26826 0.0
C214 C 0.03077 0.45166 0.33883 0.0
C215 C 0.03908 0.42809 0.26995 0.0
H216 H 0.8274 0.99322 0.00056 0.0
H217 H 0.88293 0.90045 0.06971 0.0
H218 H 0.93013 0.91741 0.96011 0.0
H219 H 0.94858 0.9524 0.82411 0.0
H220 H 0.88579 0.03886 0.73785 0.0
H221 H 0.84789 0.0303 0.87272 0.0
C222 C 0.8508 0.97769 0.99459 0.0
C223 C 0.85212 0.94596 0.04368 0.0
C224 C 0.87555 0.98571 0.925 0.0
C225 C 0.88183 0.92533 0.03399 0.0
C226 C 0.90828 0.93464 0.96964 0.0
C227 C 0.92678 0.96957 0.83501 0.0
C228 C 0.91983 0.99604 0.77001 0.0
C229 C 0.90427 0.96368 0.91113 0.0
C230 C 0.89159 0.01813 0.78599 0.0
C231 C 0.87 0.01336 0.86344 0.0
H232 H 0.43147 0.87272 0.02922 0.0
H233 H 0.53788 0.83654 0.01627 0.0
H234 H 0.55242 0.87913 0.89401 0.0
H235 H 0.53166 0.91997 0.77441 0.0
H236 H 0.42299 0.95114 0.77986 0.0
H237 H 0.41241 0.91714 0.91984 0.0
C238 C 0.45832 0.87545 0.00267 0.0
C239 C 0.48367 0.85184 0.03272 0.0
C240 C 0.46559 0.89809 0.92784 0.0
C241 C 0.51815 0.85497 0.99617 0.0
C242 C 0.52616 0.87871 0.92438 0.0
C243 C 0.50567 0.91932 0.80595 0.0
C244 C 0.47796 0.93757 0.76451 0.0
C245 C 0.49954 0.89917 0.8866 0.0
C246 C 0.44459 0.93667 0.80794 0.0
C247 C 0.43858 0.91751 0.88897 0.0
H248 H 0.63717 0.60841 0.00243 0.0
H249 H 0.70242 0.52007 0.95715 0.0
H250 H 0.65692 0.49295 0.8602 0.0
H251 H 0.60219 0.49816 0.77158 0.0
H252 H 0.53425 0.58389 0.82446 0.0
H253 H 0.57671 0.608 0.93524 0.0
C254 C 0.64071 0.58268 0.974 0.0
C255 C 0.67308 0.56633 0.98612 0.0
C256 C 0.61432 0.56716 0.91777 0.0
C257 C 0.67758 0.53303 0.94859 0.0
C258 C 0.65177 0.5177 0.89232 0.0
C259 C 0.59661 0.522 0.80783 0.0
C260 C 0.56572 0.53984 0.78749 0.0
C261 C 0.62068 0.5352 0.87336 0.0
C262 C 0.55825 0.57007 0.83721 0.0
C263 C 0.5825 0.58385 0.90091 0.0
H264 H 0.04244 0.65935 0.00983 0.0
H265 H 0.93043 0.64434 0.05584 0.0
H266 H 0.92679 0.60225 0.92976 0.0
H267 H 0.95466 0.57633 0.79269 0.0
H268 H 0.06597 0.59706 0.74064 0.0
H269 H 0.0706 0.63074 0.88085 0.0
C270 C 0.0176 0.64545 0.99511 0.0
C271 C 0.98694 0.65428 0.04347 0.0
C272 C 0.01532 0.62358 0.91821 0.0
C273 C 0.9546 0.63713 0.02164 0.0
C274 C 0.95239 0.61382 0.94776 0.0
C275 C 0.97975 0.58853 0.81116 0.0
C276 C 0.00963 0.58451 0.75403 0.0
C277 C 0.98233 0.60816 0.89275 0.0
C278 C 0.04224 0.59997 0.78147 0.0
C279 C 0.04509 0.61903 0.86254 0.0
H280 H 0.99064 0.26227 0.31228 0.0
H281 H 0.06328 0.20222 0.15269 0.0
H282 H 0.04502 0.14968 0.23783 0.0
H283 H 0.00722 0.12066 0.3528 0.0
H284 H 0.94302 0.18118 0.53193 0.0
H285 H 0.95835 0.2343 0.44174 0.0
C286 C 0.00377 0.23812 0.29866 0.0
C287 C 0.02777 0.23603 0.22475 0.0
C288 C 0.99373 0.20814 0.34909 0.0
C289 C 0.04435 0.20436 0.2083 0.0
C290 C 0.03372 0.17426 0.2563 0.0
C291 C 0.99641 0.14551 0.37116 0.0
C292 C 0.97347 0.14739 0.44619 0.0
C293 C 0.00781 0.17578 0.32486 0.0
C294 C 0.95966 0.17938 0.47144 0.0
C295 C 0.96914 0.20964 0.42156 0.0
H296 H 0.30063 0.12687 0.22234 0.0
H297 H 0.23215 0.04435 0.33435 0.0
H298 H 0.27851 0.02696 0.43837 0.0
H299 H 0.34142 0.02905 0.47954 0.0
H300 H 0.41022 0.11104 0.36865 0.0
H301 H 0.36139 0.13408 0.27946 0.0
C302 C 0.29566 0.10576 0.27148 0.0
C303 C 0.26332 0.08672 0.26983 0.0
C304 C 0.32294 0.09481 0.32827 0.0
C305 C 0.2568 0.05968 0.33454 0.0
C306 C 0.28354 0.04917 0.39289 0.0
C307 C 0.34553 0.05181 0.43529 0.0
C308 C 0.37922 0.0678 0.42719 0.0
C309 C 0.3172 0.06537 0.38677 0.0
C310 C 0.3844 0.09804 0.37317 0.0
C311 C 0.35652 0.11135 0.3232 0.0
H312 H 0.61074 0.30583 0.24883 0.0
H313 H 0.50482 0.26002 0.26207 0.0
H314 H 0.4872 0.30397 0.37013 0.0
H315 H 0.49979 0.35767 0.44843 0.0
H316 H 0.60476 0.40581 0.4408 0.0
H317 H 0.6254 0.35785 0.34563 0.0
C318 C 0.5843 0.30505 0.27825 0.0
C319 C 0.55926 0.27963 0.24955 0.0
C320 C 0.57415 0.3307 0.34059 0.0
C321 C 0.5247 0.27894 0.28574 0.0
C322 C 0.51448 0.30422 0.34659 0.0
C323 C 0.52732 0.35773 0.42679 0.0
C324 C 0.55054 0.38553 0.44962 0.0
C325 C 0.5387 0.3306 0.37258 0.0
C326 C 0.58624 0.38483 0.42239 0.0
C327 C 0.59801 0.3575 0.36812 0.0
H328 H 0.24954 0.44556 0.32328 0.0
H329 H 0.19338 0.35249 0.22931 0.0
H330 H 0.14068 0.36932 0.31459 0.0
H331 H 0.10932 0.41364 0.40146 0.0
H332 H 0.16512 0.50837 0.48435 0.0
H333 H 0.21974 0.48771 0.41591 0.0
C334 C 0.22639 0.428 0.32409 0.0
C335 C 0.22564 0.39748 0.27049 0.0
C336 C 0.19594 0.43875 0.3688 0.0
C337 C 0.19482 0.37583 0.27084 0.0
C338 C 0.16458 0.38574 0.31835 0.0
C339 C 0.13352 0.42969 0.40465 0.0
C340 C 0.13336 0.46259 0.44683 0.0
C341 C 0.16457 0.41774 0.36477 0.0
C342 C 0.16464 0.48327 0.45055 0.0
C343 C 0.19584 0.47128 0.41248 0.0
H344 H 0.04038 0.77964 0.93803 0.0
H345 H 0.92883 0.78557 0.99693 0.0
H346 H 0.9257 0.83842 0.90274 0.0
H347 H 0.95449 0.88249 0.80879 0.0
H348 H 0.0655 0.87761 0.7405 0.0
H349 H 0.06974 0.82482 0.83706 0.0
C350 C 0.01546 0.79237 0.92805 0.0
C351 C 0.98468 0.77914 0.97179 0.0
C352 C 0.01408 0.82285 0.87489 0.0
C353 C 0.95245 0.79556 0.96166 0.0
C354 C 0.9508 0.82572 0.90903 0.0
C355 C 0.97972 0.86992 0.81453 0.0
C356 C 0.0096 0.88343 0.76751 0.0
C357 C 0.98147 0.83961 0.86637 0.0
C358 C 0.04224 0.86747 0.77694 0.0
C359 C 0.04451 0.83724 0.83101 0.0
H360 H 0.71071 0.87704 0.91492 0.0
H361 H 0.75529 0.98139 0.94411 0.0
H362 H 0.70919 0.00466 0.84638 0.0
H363 H 0.65394 0.99565 0.76174 0.0
H364 H 0.60971 0.89095 0.72997 0.0
H365 H 0.65813 0.86741 0.818 0.0
C366 C 0.71062 0.90464 0.89743 0.0
C367 C 0.73617 0.92752 0.93462 0.0
C368 C 0.68399 0.91782 0.84176 0.0
C369 C 0.73596 0.9634 0.9138 0.0
C370 C 0.7095 0.97673 0.85901 0.0
C371 C 0.65493 0.96772 0.77423 0.0
C372 C 0.6281 0.9452 0.74101 0.0
C373 C 0.68296 0.95426 0.82423 0.0
C374 C 0.62993 0.90895 0.75604 0.0
C375 C 0.65763 0.89538 0.80614 0.0
H376 H 0.4019 0.70274 0.00303 0.0
H377 H 0.47316 0.77104 0.84549 0.0
H378 H 0.47694 0.7277 0.72685 0.0
H379 H 0.47099 0.6669 0.68513 0.0
H380 H 0.4039 0.59558 0.84349 0.0
H381 H 0.38705 0.64357 0.944 0.0
C382 C 0.41739 0.70836 0.94143 0.0
C383 C 0.43745 0.73988 0.93383 0.0
C384 C 0.42077 0.68257 0.87451 0.0
C385 C 0.45708 0.74721 0.85308 0.0
C386 C 0.45973 0.72221 0.78541 0.0
C387 C 0.45203 0.66209 0.74048 0.0
C388 C 0.4393 0.62807 0.75924 0.0
C389 C 0.44335 0.68927 0.79814 0.0
C390 C 0.4142 0.62183 0.82918 0.0
C391 C 0.40482 0.64913 0.88667 0.0
H392 H 0.81431 0.61218 0.83884 0.0
H393 H 0.77793 0.53339 0.03406 0.0
H394 H 0.82224 0.49364 0.98017 0.0
H395 H 0.87258 0.48169 0.88124 0.0
H396 H 0.90914 0.55889 0.68312 0.0
H397 H 0.86386 0.5988 0.73328 0.0
C398 C 0.8163 0.58629 0.86882 0.0
C399 C 0.79355 0.57561 0.94054 0.0
C400 C 0.84186 0.56337 0.83719 0.0
C401 C 0.79573 0.54197 0.97906 0.0
C402 C 0.82093 0.51928 0.94846 0.0
C403 C 0.87043 0.50726 0.84934 0.0
C404 C 0.89382 0.51761 0.77925 0.0
C405 C 0.84436 0.52979 0.87834 0.0
C406 C 0.89092 0.55049 0.73698 0.0
C407 C 0.86523 0.57334 0.76597 0.0
H408 H 0.04305 0.23774 0.87373 0.0
H409 H 0.93656 0.26444 0.94327 0.0
H410 H 0.91342 0.21216 0.86507 0.0
H411 H 0.92445 0.15404 0.8011 0.0
H412 H 0.03212 0.12451 0.75133 0.0
H413 H 0.05394 0.18176 0.80168 0.0
C414 C 0.01467 0.23286 0.86785 0.0
C415 C 0.99154 0.2549 0.914 0.0
C416 C 0.00195 0.20113 0.83114 0.0
C417 C 0.95487 0.24822 0.90715 0.0
C418 C 0.94174 0.21774 0.86481 0.0
C419 C 0.9527 0.16007 0.80158 0.0
C420 C 0.97659 0.13474 0.77352 0.0
C421 C 0.96518 0.1931 0.83126 0.0
C422 C 0.01311 0.14317 0.77402 0.0
C423 C 0.02563 0.17612 0.80161 0.0
H424 H 0.28668 0.1082 0.93207 0.0
H425 H 0.23767 0.00498 0.95054 0.0
H426 H 0.28436 0.98223 0.85323 0.0
H427 H 0.34186 0.99073 0.77625 0.0
H428 H 0.393 0.09328 0.76559 0.0
H429 H 0.34323 0.11716 0.84984 0.0
C430 C 0.2858 0.08089 0.91265 0.0
C431 C 0.25864 0.05833 0.94777 0.0
C432 C 0.31368 0.06774 0.86105 0.0
C433 C 0.25781 0.02299 0.9228 0.0
C434 C 0.2849 0.00988 0.86876 0.0
C435 C 0.34217 0.01835 0.7923 0.0
C436 C 0.37119 0.04022 0.76528 0.0
C437 C 0.31347 0.03183 0.84003 0.0
C438 C 0.37123 0.07586 0.78682 0.0
C439 C 0.34261 0.08955 0.834 0.0
H440 H 0.50035 0.3162 0.04543 0.0
H441 H 0.53647 0.24735 0.83489 0.0
H442 H 0.52914 0.29354 0.7189 0.0
H443 H 0.52448 0.35679 0.68475 0.0
H444 H 0.4938 0.42644 0.89935 0.0
H445 H 0.48785 0.37706 0.00752 0.0
C446 C 0.50575 0.31103 0.9736 0.0
C447 C 0.51951 0.27857 0.94879 0.0
C448 C 0.50344 0.33826 0.90892 0.0
C449 C 0.52596 0.27203 0.85567 0.0
C450 C 0.52226 0.29865 0.78975 0.0
C451 C 0.5154 0.3608 0.75457 0.0
C452 C 0.5092 0.39495 0.7844 0.0
C453 C 0.51286 0.33236 0.81653 0.0
C454 C 0.49802 0.40025 0.87492 0.0
C455 C 0.49491 0.37206 0.93669 0.0
H456 H 0.17904 0.42287 0.04475 0.0
H457 H 0.27011 0.45881 0.88407 0.0
H458 H 0.23033 0.48322 0.77002 0.0
H459 H 0.16969 0.49447 0.71698 0.0
H460 H 0.0799 0.45134 0.86899 0.0
H461 H 0.11989 0.42724 0.98362 0.0
C462 C 0.19087 0.43446 0.98338 0.0
C463 C 0.22817 0.43809 0.97345 0.0
C464 C 0.16799 0.44692 0.91618 0.0
C465 C 0.24182 0.45559 0.89486 0.0
C466 C 0.21903 0.46937 0.82905 0.0
C467 C 0.15893 0.47964 0.77516 0.0
C468 C 0.12192 0.47502 0.78567 0.0
C469 C 0.18209 0.46528 0.83936 0.0
C470 C 0.10825 0.45526 0.85992 0.0
C471 C 0.13109 0.44167 0.92541 0.0
H472 H 0.93543 0.76917 0.28592 0.0
H473 H 0.04215 0.73545 0.31845 0.0
H474 H 0.05605 0.78603 0.41491 0.0
H475 H 0.04157 0.84559 0.45953 0.0
H476 H 0.93644 0.88243 0.41234 0.0
H477 H 0.91841 0.82552 0.34918 0.0
C478 C 0.96111 0.7719 0.31871 0.0
C479 C 0.98775 0.74857 0.29496 0.0
C480 C 0.96974 0.80277 0.36655 0.0
C481 C 0.02109 0.75265 0.33648 0.0
C482 C 0.02931 0.78223 0.3893 0.0
C483 C 0.01461 0.8412 0.43584 0.0
C484 C 0.99058 0.86858 0.43862 0.0
C485 C 0.00454 0.8085 0.39936 0.0
C486 C 0.9556 0.86206 0.4096 0.0
C487 C 0.94524 0.82942 0.3741 0.0
H488 H 0.7103 0.8876 0.25267 0.0
H489 H 0.77895 0.97915 0.28427 0.0
H490 H 0.73518 0.00511 0.38356 0.0
H491 H 0.67392 0.00642 0.43734 0.0
H492 H 0.60232 0.91797 0.39162 0.0
H493 H 0.65009 0.88701 0.31707 0.0
C494 C 0.71598 0.91297 0.28288 0.0
C495 C 0.74766 0.93165 0.25919 0.0
C496 C 0.68947 0.92902 0.33345 0.0
C497 C 0.755 0.96403 0.30094 0.0
C498 C 0.72956 0.97929 0.35617 0.0
C499 C 0.66862 0.98034 0.41122 0.0
C500 C 0.63437 0.96475 0.41861 0.0
C501 C 0.69606 0.96285 0.36841 0.0
C502 C 0.62826 0.93077 0.38548 0.0
C503 C 0.65565 0.91296 0.34367 0.0
H504 H 0.51523 0.7082 0.17187 0.0
H505 H 0.45392 0.77539 0.34137 0.0
H506 H 0.45239 0.73114 0.46422 0.0
H507 H 0.45862 0.6694 0.50965 0.0
H508 H 0.51917 0.60166 0.33971 0.0
H509 H 0.53076 0.64985 0.23001 0.0
C510 C 0.50271 0.71361 0.23719 0.0
C511 C 0.48457 0.74498 0.24758 0.0
C512 C 0.50089 0.6875 0.30591 0.0
C513 C 0.46828 0.75168 0.33209 0.0
C514 C 0.46693 0.7261 0.40165 0.0
C515 C 0.47499 0.66547 0.44946 0.0
C516 C 0.48762 0.63199 0.43172 0.0
C517 C 0.48153 0.69329 0.38723 0.0
C518 C 0.50915 0.62719 0.35446 0.0
C519 C 0.51563 0.65471 0.29173 0.0
H520 H 0.74477 0.5437 0.23523 0.0
H521 H 0.78388 0.65052 0.24432 0.0
H522 H 0.82659 0.63515 0.36296 0.0
H523 H 0.85926 0.58912 0.44455 0.0
H524 H 0.82053 0.48192 0.42732 0.0
H525 H 0.7717 0.49958 0.33178 0.0
C526 C 0.7614 0.56393 0.26653 0.0
C527 C 0.76085 0.59825 0.23184 0.0
C528 C 0.787 0.55454 0.33117 0.0
C529 C 0.7834 0.62402 0.27113 0.0
C530 C 0.8083 0.61507 0.33767 0.0
C531 C 0.83984 0.56974 0.42095 0.0
C532 C 0.84407 0.53415 0.44233 0.0
C533 C 0.81149 0.58006 0.36502 0.0
C534 C 0.81839 0.50946 0.41153 0.0
C535 C 0.79023 0.51951 0.35684 0.0
loop_
_geom_bond_atom_site_label_1
_geom_bond_atom_site_label_2
_geom_bond_distance
_geom_bond_site_symmetry_2
_ccdc_geom_bond_type
H0 C3 0.931 . S
H1 C6 0.928 . S
H2 C8 0.930 . S
C3 H0 0.931 . S
C3 C4 1.413 . S
C3 C5 1.360 1_554 S
C4 C3 1.413 . S
C4 C8 1.429 . S
C5 C3 1.360 1_556 S
C5 C6 1.372 . S
C6 H1 0.928 . S
C6 C5 1.372 . S
C6 C7 1.404 1_556 S
C7 C6 1.404 1_554 S
C7 C8 1.391 . S
C8 H2 0.930 . S
C8 C4 1.429 . S
C8 C7 1.391 . S
H9 C12 0.930 . S
H10 C15 0.928 . S
H11 C17 0.929 . S
C12 H9 0.930 . S
C12 C13 1.413 . S
C12 C14 1.360 1_554 S
C13 C12 1.413 . S
C13 C17 1.429 1_655 S
C14 C12 1.360 1_556 S
C14 C15 1.372 . S
C15 H10 0.928 . S
C15 C14 1.372 . S
C15 C16 1.405 1_556 S
C16 C15 1.405 1_554 S
C16 C17 1.391 1_655 S
C17 H11 0.929 . S
C17 C13 1.429 1_455 S
C17 C16 1.391 1_455 S
H18 C21 0.931 . S
H19 C24 0.928 . S
H20 C26 0.930 . S
C21 H18 0.931 . S
C21 C22 1.413 . S
C21 C23 1.360 1_554 S
C22 C21 1.413 . S
C22 C26 1.429 . S
C23 C21 1.360 1_556 S
C23 C24 1.372 . S
C24 H19 0.928 . S
C24 C23 1.372 . S
C24 C25 1.404 1_556 S
C25 C24 1.404 1_554 S
C25 C26 1.391 . S
C26 H20 0.930 . S
C26 C22 1.429 . S
C26 C25 1.391 . S
H27 C30 0.931 . S
H28 C33 0.928 . S
H29 C35 0.930 . S
C30 H27 0.931 . S
C30 C31 1.413 1_554 S
C30 C32 1.360 . S
C31 C30 1.413 1_556 S
C31 C35 1.429 . S
C32 C30 1.360 . S
C32 C33 1.372 . S
C33 H28 0.928 . S
C33 C32 1.372 . S
C33 C34 1.404 . S
C34 C33 1.404 . S
C34 C35 1.391 1_554 S
C35 H29 0.930 . S
C35 C31 1.429 . S
C35 C34 1.391 1_556 S
H36 C39 0.931 . S
H37 C42 0.928 . S
H38 C44 0.930 . S
C39 H36 0.931 . S
C39 C40 1.413 . S
C39 C41 1.360 . S
C40 C39 1.413 . S
C40 C44 1.429 . S
C41 C39 1.360 . S
C41 C42 1.372 . S
C42 H37 0.928 . S
C42 C41 1.372 . S
C42 C43 1.404 . S
C43 C42 1.404 . S
C43 C44 1.391 . S
C44 H38 0.930 . S
C44 C40 1.429 . S
C44 C43 1.391 . S
H45 C48 0.931 . S
H46 C51 0.928 . S
H47 C53 0.930 . S
C48 H45 0.931 . S
C48 C49 1.414 . S
C48 C50 1.360 . S
C49 C48 1.414 . S
C49 C53 1.429 1_655 S
C50 C48 1.360 . S
C50 C51 1.372 . S
C51 H46 0.928 . S
C51 C50 1.372 . S
C51 C52 1.404 . S
C52 C51 1.404 . S
C52 C53 1.390 1_655 S
C53 H47 0.930 . S
C53 C49 1.429 1_455 S
C53 C52 1.390 1_455 S
H54 C57 0.931 . S
H55 C60 0.928 . S
H56 C62 0.930 . S
C57 H54 0.931 . S
C57 C58 1.413 . S
C57 C59 1.360 . S
C58 C57 1.413 . S
C58 C62 1.429 . S
C59 C57 1.360 . S
C59 C60 1.372 . S
C60 H55 0.928 . S
C60 C59 1.372 . S
C60 C61 1.404 . S
C61 C60 1.404 . S
C61 C62 1.391 . S
C62 H56 0.930 . S
C62 C58 1.429 . S
C62 C61 1.391 . S
H63 C66 0.931 . S
H64 C69 0.928 . S
H65 C71 0.930 . S
C66 H63 0.931 . S
C66 C67 1.413 . S
C66 C68 1.360 . S
C67 C66 1.413 . S
C67 C71 1.429 . S
C68 C66 1.360 . S
C68 C69 1.372 . S
C69 H64 0.928 . S
C69 C68 1.372 . S
C69 C70 1.404 . S
C70 C69 1.404 . S
C70 C71 1.391 . S
C71 H65 0.930 . S
C71 C67 1.429 . S
C71 C70 1.391 . S
Zn72 O78 1.969 . S
Zn72 O79 1.965 1_655 S
Zn72 O83 2.024 1_655 S
Zn72 O88 1.969 . S
Zn73 O80 1.969 . S
Zn73 O86 1.969 . S
Zn73 O87 1.965 1_455 S
Zn73 O89 2.024 1_455 S
C74 O75 1.229 1_455 S
C74 O83 1.058 . S
O75 C74 1.229 1_655 S
C76 O77 1.229 1_655 S
C76 O89 1.058 . S
O77 C76 1.229 1_455 S
O78 Zn72 1.969 . S
O78 C81 1.267 . S
O79 Zn72 1.965 1_455 S
O79 C90 1.260 . S
O80 Zn73 1.969 . S
O80 C90 1.258 1_565 S
C81 O78 1.267 . S
C81 O82 1.228 1_655 S
O82 C81 1.228 1_455 S
O83 Zn72 2.024 1_455 S
O83 C74 1.058 . S
C84 O85 1.228 1_455 S
C84 O86 1.267 . S
O85 C84 1.228 1_655 S
O86 Zn73 1.969 . S
O86 C84 1.267 . S
O87 Zn73 1.965 1_655 S
O87 C91 1.260 1_565 S
O88 Zn72 1.969 . S
O88 C91 1.258 . S
O89 Zn73 2.024 1_655 S
O89 C76 1.058 . S
C90 O79 1.260 . S
C90 O80 1.258 1_545 S
C91 O87 1.260 1_545 S
C91 O88 1.258 . S
Zn92 O98 1.969 1_545 S
Zn92 O99 1.965 . S
Zn92 O103 2.024 . S
Zn92 O108 1.969 1_545 S
Zn93 O100 1.969 1_565 S
Zn93 O106 1.969 1_565 S
Zn93 O107 1.965 . S
Zn93 O109 2.024 . S
C94 O95 1.229 . S
C94 O103 1.058 . S
O95 C94 1.229 . S
C96 O97 1.229 . S
C96 O109 1.058 . S
O97 C96 1.229 . S
O98 Zn92 1.969 1_565 S
O98 C101 1.267 1_565 S
O99 Zn92 1.965 . S
O99 C110 1.260 . S
O100 Zn93 1.969 1_545 S
O100 C110 1.258 . S
C101 O98 1.267 1_545 S
C101 O102 1.228 . S
O102 C101 1.228 . S
O103 Zn92 2.024 . S
O103 C94 1.058 . S
C104 O105 1.228 . S
C104 O106 1.267 1_565 S
O105 C104 1.228 . S
O106 Zn93 1.969 1_545 S
O106 C104 1.267 1_545 S
O107 Zn93 1.965 . S
O107 C111 1.260 . S
O108 Zn92 1.969 1_565 S
O108 C111 1.258 . S
O109 Zn93 2.024 . S
O109 C96 1.058 . S
C110 O99 1.260 . S
C110 O100 1.258 . S
C111 O107 1.260 . S
C111 O108 1.258 . S
Zn112 O118 1.969 . S
Zn112 O119 1.965 . S
Zn112 O123 2.024 . S
Zn112 O128 1.969 . S
Zn113 O120 1.969 . S
Zn113 O126 1.969 . S
Zn113 O127 1.965 . S
Zn113 O129 2.024 . S
C114 O115 1.229 . S
C114 O123 1.058 . S
O115 C114 1.229 . S
C116 O117 1.229 . S
C116 O129 1.058 . S
O117 C116 1.229 . S
O118 Zn112 1.969 . S
O118 C121 1.267 . S
O119 Zn112 1.965 . S
O119 C130 1.260 . S
O120 Zn113 1.969 . S
O120 C130 1.258 . S
C121 O118 1.267 . S
C121 O122 1.228 . S
O122 C121 1.228 . S
O123 Zn112 2.024 . S
O123 C114 1.058 . S
C124 O125 1.228 . S
C124 O126 1.267 . S
O125 C124 1.228 . S
O126 Zn113 1.969 . S
O126 C124 1.267 . S
O127 Zn113 1.965 . S
O127 C131 1.260 . S
O128 Zn112 1.969 . S
O128 C131 1.258 . S
O129 Zn113 2.024 . S
O129 C116 1.058 . S
C130 O119 1.260 . S
C130 O120 1.258 . S
C131 O127 1.260 . S
C131 O128 1.258 . S
Zn132 O138 1.969 . S
Zn132 O139 1.965 . S
Zn132 O143 2.024 . S
Zn132 O148 1.969 . S
Zn133 O140 1.969 . S
Zn133 O146 1.969 . S
Zn133 O147 1.965 . S
Zn133 O149 2.024 . S
C134 O135 1.229 . S
C134 O143 1.058 . S
O135 C134 1.229 . S
C136 O137 1.229 . S
C136 O149 1.058 . S
O137 C136 1.229 . S
O138 Zn132 1.969 . S
O138 C141 1.267 . S
O139 Zn132 1.965 . S
O139 C150 1.260 1_455 S
O140 Zn133 1.969 . S
O140 C150 1.258 . S
C141 O138 1.267 . S
C141 O142 1.228 . S
O142 C141 1.228 . S
O143 Zn132 2.024 . S
O143 C134 1.058 . S
C144 O145 1.228 . S
C144 O146 1.267 . S
O145 C144 1.228 . S
O146 Zn133 1.969 . S
O146 C144 1.267 . S
O147 Zn133 1.965 . S
O147 C151 1.260 1_655 S
O148 Zn132 1.969 . S
O148 C151 1.258 . S
O149 Zn133 2.024 . S
O149 C136 1.058 . S
C150 O139 1.260 1_655 S
C150 O140 1.258 . S
C151 O147 1.260 1_455 S
C151 O148 1.258 . S
H152 C158 0.930 . S
H153 C161 0.930 . S
H154 C162 0.930 . S
H155 C163 0.930 . S
H156 C166 0.930 . S
H157 C167 0.930 . S
C158 H152 0.930 . S
C158 C159 1.355 . S
C158 C160 1.415 . S
C159 C158 1.355 . S
C159 C161 1.419 . S
C160 C158 1.415 . S
C160 C165 1.425 . S
C160 C167 1.409 . S
C161 H153 0.930 . S
C161 C159 1.419 . S
C161 C162 1.362 . S
C162 H154 0.930 . S
C162 C161 1.362 . S
C162 C165 1.409 . S
C163 H155 0.930 . S
C163 C164 1.355 . S
C163 C165 1.415 . S
C164 C163 1.355 . S
C164 C166 1.419 . S
C165 C160 1.425 . S
C165 C162 1.409 . S
C165 C163 1.415 . S
C166 H156 0.930 . S
C166 C164 1.419 . S
C166 C167 1.362 . S
C167 H157 0.930 . S
C167 C160 1.409 . S
C167 C166 1.362 . S
H168 C174 0.930 . S
H169 C177 0.930 . S
H170 C178 0.930 . S
H171 C179 0.930 . S
H172 C182 0.930 . S
H173 C183 0.930 . S
C174 H168 0.930 . S
C174 C175 1.355 . S
C174 C176 1.415 . S
C175 C174 1.355 . S
C175 C177 1.419 . S
C176 C174 1.415 . S
C176 C181 1.425 . S
C176 C183 1.409 . S
C177 H169 0.930 . S
C177 C175 1.419 . S
C177 C178 1.362 . S
C178 H170 0.930 . S
C178 C177 1.362 . S
C178 C181 1.409 . S
C179 H171 0.930 . S
C179 C180 1.355 . S
C179 C181 1.415 . S
C180 C179 1.355 . S
C180 C182 1.419 . S
C181 C176 1.425 . S
C181 C178 1.409 . S
C181 C179 1.415 . S
C182 H172 0.930 . S
C182 C180 1.419 . S
C182 C183 1.362 . S
C183 H173 0.930 . S
C183 C176 1.409 . S
C183 C182 1.362 . S
H184 C190 0.930 . S
H185 C193 0.930 . S
H186 C194 0.930 . S
H187 C195 0.930 . S
H188 C198 0.930 . S
H189 C199 0.930 . S
C190 H184 0.930 . S
C190 C191 1.355 . S
C190 C192 1.415 . S
C191 C190 1.355 . S
C191 C193 1.419 . S
C192 C190 1.415 . S
C192 C197 1.425 . S
C192 C199 1.409 . S
C193 H185 0.930 . S
C193 C191 1.419 . S
C193 C194 1.362 . S
C194 H186 0.930 . S
C194 C193 1.362 . S
C194 C197 1.409 . S
C195 H187 0.930 . S
C195 C196 1.355 . S
C195 C197 1.415 . S
C196 C195 1.355 . S
C196 C198 1.419 . S
C197 C192 1.425 . S
C197 C194 1.409 . S
C197 C195 1.415 . S
C198 H188 0.930 . S
C198 C196 1.419 . S
C198 C199 1.362 . S
C199 H189 0.930 . S
C199 C192 1.409 . S
C199 C198 1.362 . S
H200 C206 0.930 . S
H201 C209 0.930 . S
H202 C210 0.930 . S
H203 C211 0.930 . S
H204 C214 0.930 . S
H205 C215 0.930 . S
C206 H200 0.930 . S
C206 C207 1.355 1_455 S
C206 C208 1.415 . S
C207 C206 1.355 1_655 S
C207 C209 1.419 . S
C208 C206 1.415 . S
C208 C213 1.425 1_455 S
C208 C215 1.409 . S
C209 H201 0.930 . S
C209 C207 1.419 . S
C209 C210 1.362 . S
C210 H202 0.930 . S
C210 C209 1.362 . S
C210 C213 1.409 . S
C211 H203 0.930 . S
C211 C212 1.355 . S
C211 C213 1.415 . S
C212 C211 1.355 . S
C212 C214 1.419 1_655 S
C213 C208 1.425 1_655 S
C213 C210 1.409 . S
C213 C211 1.415 . S
C214 H204 0.930 . S
C214 C212 1.419 1_455 S
C214 C215 1.362 . S
C215 H205 0.930 . S
C215 C208 1.409 . S
C215 C214 1.362 . S
H216 C222 0.930 . S
H217 C225 0.930 1_554 S
H218 C226 0.930 . S
H219 C227 0.930 . S
H220 C230 0.930 1_545 S
H221 C231 0.930 . S
C222 H216 0.930 . S
C222 C223 1.355 . S
C222 C224 1.415 . S
C223 C222 1.355 . S
C223 C225 1.419 . S
C224 C222 1.415 . S
C224 C229 1.425 . S
C224 C231 1.409 . S
C225 H217 0.930 1_556 S
C225 C223 1.419 . S
C225 C226 1.362 . S
C226 H218 0.930 . S
C226 C225 1.362 . S
C226 C229 1.409 . S
C227 H219 0.930 . S
C227 C228 1.355 . S
C227 C229 1.415 . S
C228 C227 1.355 . S
C228 C230 1.419 . S
C229 C224 1.425 . S
C229 C226 1.409 . S
C229 C227 1.415 . S
C230 H220 0.930 1_565 S
C230 C228 1.419 . S
C230 C231 1.362 . S
C231 H221 0.930 . S
C231 C224 1.409 . S
C231 C230 1.362 . S
H232 C238 0.930 1_554 S
H233 C241 0.930 . S
H234 C242 0.930 . S
H235 C243 0.930 . S
H236 C246 0.930 . S
H237 C247 0.930 . S
C238 H232 0.930 1_556 S
C238 C239 1.355 . S
C238 C240 1.415 . S
C239 C238 1.355 . S
C239 C241 1.419 . S
C240 C238 1.415 . S
C240 C245 1.425 . S
C240 C247 1.409 . S
C241 H233 0.930 . S
C241 C239 1.419 . S
C241 C242 1.362 . S
C242 H234 0.930 . S
C242 C241 1.362 . S
C242 C245 1.409 . S
C243 H235 0.930 . S
C243 C244 1.355 . S
C243 C245 1.415 . S
C244 C243 1.355 . S
C244 C246 1.419 . S
C245 C240 1.425 . S
C245 C242 1.409 . S
C245 C243 1.415 . S
C246 H236 0.930 . S
C246 C244 1.419 . S
C246 C247 1.362 . S
C247 H237 0.930 . S
C247 C240 1.409 . S
C247 C246 1.362 . S
H248 C254 0.930 1_554 S
H249 C257 0.930 . S
H250 C258 0.930 . S
H251 C259 0.930 . S
H252 C262 0.930 . S
H253 C263 0.930 . S
C254 H248 0.930 1_556 S
C254 C255 1.355 . S
C254 C256 1.415 . S
C255 C254 1.355 . S
C255 C257 1.419 . S
C256 C254 1.415 . S
C256 C261 1.425 . S
C256 C263 1.409 . S
C257 H249 0.930 . S
C257 C255 1.419 . S
C257 C258 1.362 . S
C258 H250 0.930 . S
C258 C257 1.362 . S
C258 C261 1.409 . S
C259 H251 0.930 . S
C259 C260 1.355 . S
C259 C261 1.415 . S
C260 C259 1.355 . S
C260 C262 1.419 . S
C261 C256 1.425 . S
C261 C258 1.409 . S
C261 C259 1.415 . S
C262 H252 0.930 . S
C262 C260 1.419 . S
C262 C263 1.362 . S
C263 H253 0.930 . S
C263 C256 1.409 . S
C263 C262 1.362 . S
H264 C270 0.930 . S
H265 C273 0.930 . S
H266 C274 0.930 . S
H267 C275 0.930 . S
H268 C278 0.930 . S
H269 C279 0.930 . S
C270 H264 0.930 . S
C270 C271 1.355 1_455 S
C270 C272 1.415 . S
C271 C270 1.355 1_655 S
C271 C273 1.419 . S
C272 C270 1.415 . S
C272 C277 1.425 1_455 S
C272 C279 1.409 . S
C273 H265 0.930 . S
C273 C271 1.419 . S
C273 C274 1.362 . S
C274 H266 0.930 . S
C274 C273 1.362 . S
C274 C277 1.409 . S
C275 H267 0.930 . S
C275 C276 1.355 1_655 S
C275 C277 1.415 . S
C276 C275 1.355 1_455 S
C276 C278 1.419 . S
C277 C272 1.425 1_655 S
C277 C274 1.409 . S
C277 C275 1.415 . S
C278 H268 0.930 . S
C278 C276 1.419 . S
C278 C279 1.362 . S
C279 H269 0.930 . S
C279 C272 1.409 . S
C279 C278 1.362 . S
H280 C286 0.930 . S
H281 C289 0.929 1_455 S
H282 C290 0.930 . S
H283 C291 0.930 . S
H284 C294 0.930 . S
H285 C295 0.930 . S
C286 H280 0.930 . S
C286 C287 1.355 1_655 S
C286 C288 1.415 . S
C287 C286 1.355 1_455 S
C287 C289 1.419 1_455 S
C288 C286 1.415 . S
C288 C293 1.425 . S
C288 C295 1.409 . S
C289 H281 0.929 1_655 S
C289 C287 1.419 1_655 S
C289 C290 1.363 . S
C290 H282 0.930 . S
C290 C289 1.363 . S
C290 C293 1.409 . S
C291 H283 0.930 . S
C291 C292 1.355 . S
C291 C293 1.415 . S
C292 C291 1.355 . S
C292 C294 1.419 . S
C293 C288 1.425 . S
C293 C290 1.409 . S
C293 C291 1.415 . S
C294 H284 0.930 . S
C294 C292 1.419 . S
C294 C295 1.362 . S
C295 H285 0.930 . S
C295 C288 1.409 . S
C295 C294 1.362 . S
H296 C302 0.930 . S
H297 C305 0.930 . S
H298 C306 0.930 1_565 S
H299 C307 0.930 1_565 S
H300 C310 0.930 . S
H301 C311 0.930 . S
C302 H296 0.930 . S
C302 C303 1.355 . S
C302 C304 1.415 . S
C303 C302 1.355 . S
C303 C305 1.419 . S
C304 C302 1.415 . S
C304 C309 1.425 . S
C304 C311 1.409 . S
C305 H297 0.930 . S
C305 C303 1.419 . S
C305 C306 1.362 . S
C306 H298 0.930 1_545 S
C306 C305 1.362 . S
C306 C309 1.409 . S
C307 H299 0.930 1_545 S
C307 C308 1.355 . S
C307 C309 1.415 . S
C308 C307 1.355 . S
C308 C310 1.419 . S
C309 C304 1.425 . S
C309 C306 1.409 . S
C309 C307 1.415 . S
C310 H300 0.930 . S
C310 C308 1.419 . S
C310 C311 1.362 . S
C311 H301 0.930 . S
C311 C304 1.409 . S
C311 C310 1.362 . S
H312 C318 0.930 . S
H313 C321 0.930 . S
H314 C322 0.930 . S
H315 C323 0.930 . S
H316 C326 0.930 . S
H317 C327 0.930 . S
C318 H312 0.930 . S
C318 C319 1.355 . S
C318 C320 1.415 . S
C319 C318 1.355 . S
C319 C321 1.419 . S
C320 C318 1.415 . S
C320 C325 1.425 . S
C320 C327 1.409 . S
C321 H313 0.930 . S
C321 C319 1.419 . S
C321 C322 1.362 . S
C322 H314 0.930 . S
C322 C321 1.362 . S
C322 C325 1.409 . S
C323 H315 0.930 . S
C323 C324 1.355 . S
C323 C325 1.415 . S
C324 C323 1.355 . S
C324 C326 1.419 . S
C325 C320 1.425 . S
C325 C322 1.409 . S
C325 C323 1.415 . S
C326 H316 0.930 . S
C326 C324 1.419 . S
C326 C327 1.362 . S
C327 H317 0.930 . S
C327 C320 1.409 . S
C327 C326 1.362 . S
H328 C334 0.930 . S
H329 C337 0.930 . S
H330 C338 0.930 . S
H331 C339 0.930 . S
H332 C342 0.930 . S
H333 C343 0.930 . S
C334 H328 0.930 . S
C334 C335 1.355 . S
C334 C336 1.415 . S
C335 C334 1.355 . S
C335 C337 1.419 . S
C336 C334 1.415 . S
C336 C341 1.425 . S
C336 C343 1.409 . S
C337 H329 0.930 . S
C337 C335 1.419 . S
C337 C338 1.362 . S
C338 H330 0.930 . S
C338 C337 1.362 . S
C338 C341 1.409 . S
C339 H331 0.930 . S
C339 C340 1.355 . S
C339 C341 1.415 . S
C340 C339 1.355 . S
C340 C342 1.419 . S
C341 C336 1.425 . S
C341 C338 1.409 . S
C341 C339 1.415 . S
C342 H332 0.930 . S
C342 C340 1.419 . S
C342 C343 1.362 . S
C343 H333 0.930 . S
C343 C336 1.409 . S
C343 C342 1.362 . S
H344 C350 0.930 . S
H345 C353 0.930 1_554 S
H346 C354 0.930 . S
H347 C355 0.924 1_655 S
H348 C358 0.930 . S
H349 C359 0.930 . S
C350 H344 0.930 . S
C350 C351 1.355 1_455 S
C350 C352 1.415 . S
C351 C350 1.355 1_655 S
C351 C353 1.419 . S
C352 C350 1.415 . S
C352 C357 1.404 1_455 S
C352 C359 1.409 . S
C353 H345 0.930 1_556 S
C353 C351 1.419 . S
C353 C354 1.362 . S
C354 H346 0.930 . S
C354 C353 1.362 . S
C354 C357 1.430 . S
C355 H347 0.924 1_455 S
C355 C356 1.360 . S
C355 C357 1.415 1_455 S
C356 C355 1.360 . S
C356 C358 1.419 . S
C357 C352 1.404 1_655 S
C357 C354 1.430 . S
C357 C355 1.415 1_655 S
C358 H348 0.930 . S
C358 C356 1.419 . S
C358 C359 1.362 . S
C359 H349 0.930 . S
C359 C352 1.409 . S
C359 C358 1.362 . S
H360 C366 0.930 . S
H361 C369 0.930 1_554 S
H362 C370 0.930 1_545 S
H363 C371 0.930 . S
H364 C374 0.930 . S
H365 C375 0.930 . S
C366 H360 0.930 . S
C366 C367 1.355 . S
C366 C368 1.415 . S
C367 C366 1.355 . S
C367 C369 1.419 . S
C368 C366 1.415 . S
C368 C373 1.425 . S
C368 C375 1.409 . S
C369 H361 0.930 1_556 S
C369 C367 1.419 . S
C369 C370 1.362 . S
C370 H362 0.930 1_565 S
C370 C369 1.362 . S
C370 C373 1.409 . S
C371 H363 0.930 . S
C371 C372 1.355 1_545 S
C371 C373 1.415 1_545 S
C372 C371 1.355 1_565 S
C372 C374 1.419 . S
C373 C368 1.425 . S
C373 C370 1.409 . S
C373 C371 1.415 1_565 S
C374 H364 0.930 . S
C374 C372 1.419 . S
C374 C375 1.362 . S
C375 H365 0.930 . S
C375 C368 1.409 . S
C375 C374 1.362 . S
H376 C382 0.930 . S
H377 C385 0.930 . S
H378 C386 0.930 . S
H379 C387 0.930 . S
H380 C390 0.930 . S
H381 C391 0.930 . S
C382 H376 0.930 . S
C382 C383 1.355 . S
C382 C384 1.415 . S
C383 C382 1.355 . S
C383 C385 1.419 . S
C384 C382 1.415 . S
C384 C389 1.425 . S
C384 C391 1.409 . S
C385 H377 0.930 . S
C385 C383 1.419 . S
C385 C386 1.362 . S
C386 H378 0.930 . S
C386 C385 1.362 . S
C386 C389 1.409 . S
C387 H379 0.930 . S
C387 C388 1.355 . S
C387 C389 1.415 . S
C388 C387 1.355 . S
C388 C390 1.419 . S
C389 C384 1.425 . S
C389 C386 1.409 . S
C389 C387 1.415 . S
C390 H380 0.930 . S
C390 C388 1.419 . S
C390 C391 1.362 . S
C391 H381 0.930 . S
C391 C384 1.409 . S
C391 C390 1.362 . S
H392 C398 0.930 . S
H393 C401 0.930 1_554 S
H394 C402 0.930 . S
H395 C403 0.930 . S
H396 C406 0.930 . S
H397 C407 0.930 . S
C398 H392 0.930 . S
C398 C399 1.355 . S
C398 C400 1.415 . S
C399 C398 1.355 . S
C399 C401 1.419 . S
C400 C398 1.415 . S
C400 C405 1.425 . S
C400 C407 1.409 . S
C401 H393 0.930 1_556 S
C401 C399 1.419 . S
C401 C402 1.362 . S
C402 H394 0.930 . S
C402 C401 1.362 . S
C402 C405 1.409 . S
C403 H395 0.930 . S
C403 C404 1.355 . S
C403 C405 1.415 . S
C404 C403 1.355 . S
C404 C406 1.419 . S
C405 C400 1.425 . S
C405 C402 1.409 . S
C405 C403 1.415 . S
C406 H396 0.930 . S
C406 C404 1.419 . S
C406 C407 1.362 . S
C407 H397 0.930 . S
C407 C400 1.409 . S
C407 C406 1.362 . S
H408 C414 0.930 . S
H409 C417 0.930 . S
H410 C418 0.930 . S
H411 C419 0.930 1_655 S
H412 C422 0.930 . S
H413 C423 0.930 . S
C414 H408 0.930 . S
C414 C415 1.350 1_455 S
C414 C416 1.415 . S
C415 C414 1.350 1_655 S
C415 C417 1.423 1_556 S
C416 C414 1.415 . S
C416 C421 1.432 . S
C416 C423 1.409 . S
C417 H409 0.930 . S
C417 C415 1.423 1_554 S
C417 C418 1.362 . S
C418 H410 0.930 . S
C418 C417 1.362 . S
C418 C421 1.401 1_654 S
C419 H411 0.930 1_455 S
C419 C420 1.355 . S
C419 C421 1.416 . S
C420 C419 1.355 . S
C420 C422 1.419 . S
C421 C416 1.432 . S
C421 C418 1.401 1_456 S
C421 C419 1.416 . S
C422 H412 0.930 . S
C422 C420 1.419 . S
C422 C423 1.362 . S
C423 H413 0.930 . S
C423 C416 1.409 . S
C423 C422 1.362 . S
H424 C430 0.930 . S
H425 C433 0.930 . S
H426 C434 0.930 . S
H427 C435 0.930 . S
H428 C438 0.930 . S
H429 C439 0.930 . S
C430 H424 0.930 . S
C430 C431 1.355 . S
C430 C432 1.415 . S
C431 C430 1.355 . S
C431 C433 1.419 1_556 S
C432 C430 1.415 . S
C432 C437 1.425 . S
C432 C439 1.409 . S
C433 H425 0.930 . S
C433 C431 1.419 1_554 S
C433 C434 1.362 . S
C434 H426 0.930 . S
C434 C433 1.362 . S
C434 C437 1.409 1_554 S
C435 H427 0.930 . S
C435 C436 1.355 . S
C435 C437 1.415 . S
C436 C435 1.355 . S
C436 C438 1.419 . S
C437 C432 1.425 . S
C437 C434 1.409 1_556 S
C437 C435 1.415 . S
C438 H428 0.930 . S
C438 C436 1.419 . S
C438 C439 1.362 . S
C439 H429 0.930 . S
C439 C432 1.409 . S
C439 C438 1.362 . S
H440 C446 0.930 1_554 S
H441 C449 0.930 . S
H442 C450 0.930 . S
H443 C451 0.930 . S
H444 C454 0.930 . S
H445 C455 0.930 . S
C446 H440 0.930 1_556 S
C446 C447 1.355 . S
C446 C448 1.415 . S
C447 C446 1.355 . S
C447 C449 1.419 . S
C448 C446 1.415 . S
C448 C453 1.425 . S
C448 C455 1.409 . S
C449 H441 0.930 . S
C449 C447 1.419 . S
C449 C450 1.362 . S
C450 H442 0.930 . S
C450 C449 1.362 . S
C450 C453 1.409 . S
C451 H443 0.930 . S
C451 C452 1.355 . S
C451 C453 1.415 . S
C452 C451 1.355 . S
C452 C454 1.419 . S
C453 C448 1.425 . S
C453 C450 1.409 . S
C453 C451 1.415 . S
C454 H444 0.930 . S
C454 C452 1.419 . S
C454 C455 1.362 . S
C455 H445 0.930 . S
C455 C448 1.409 . S
C455 C454 1.362 . S
H456 C462 0.930 . S
H457 C465 0.930 . S
H458 C466 0.930 . S
H459 C467 0.930 . S
H460 C470 0.930 . S
H461 C471 0.930 1_554 S
C462 H456 0.930 . S
C462 C463 1.355 1_554 S
C462 C464 1.415 1_554 S
C463 C462 1.355 1_556 S
C463 C465 1.419 . S
C464 C462 1.415 1_556 S
C464 C469 1.425 . S
C464 C471 1.409 . S
C465 H457 0.930 . S
C465 C463 1.419 . S
C465 C466 1.362 . S
C466 H458 0.930 . S
C466 C465 1.362 . S
C466 C469 1.409 . S
C467 H459 0.930 . S
C467 C468 1.355 . S
C467 C469 1.415 . S
C468 C467 1.355 . S
C468 C470 1.419 . S
C469 C464 1.425 . S
C469 C466 1.409 . S
C469 C467 1.415 . S
C470 H460 0.930 . S
C470 C468 1.419 . S
C470 C471 1.362 . S
C471 H461 0.930 1_556 S
C471 C464 1.409 . S
C471 C470 1.362 . S
H472 C478 0.930 . S
H473 C481 0.930 . S
H474 C482 0.930 . S
H475 C483 0.930 . S
H476 C486 0.930 . S
H477 C487 0.930 . S
C478 H472 0.930 . S
C478 C479 1.355 1_655 S
C478 C480 1.415 . S
C479 C478 1.355 1_455 S
C479 C481 1.419 . S
C480 C478 1.415 . S
C480 C485 1.425 1_655 S
C480 C487 1.409 . S
C481 H473 0.930 . S
C481 C479 1.419 . S
C481 C482 1.362 . S
C482 H474 0.930 . S
C482 C481 1.362 . S
C482 C485 1.409 . S
C483 H475 0.930 . S
C483 C484 1.355 1_455 S
C483 C485 1.415 . S
C484 C483 1.355 1_655 S
C484 C486 1.419 . S
C485 C480 1.425 1_455 S
C485 C482 1.409 . S
C485 C483 1.415 . S
C486 H476 0.930 . S
C486 C484 1.419 . S
C486 C487 1.362 . S
C487 H477 0.930 . S
C487 C480 1.409 . S
C487 C486 1.362 . S
H488 C494 0.930 . S
H489 C497 0.930 . S
H490 C498 0.930 . S
H491 C499 0.930 . S
H492 C502 0.930 . S
H493 C503 0.930 . S
C494 H488 0.930 . S
C494 C495 1.355 . S
C494 C496 1.415 . S
C495 C494 1.355 . S
C495 C497 1.419 . S
C496 C494 1.415 . S
C496 C501 1.425 . S
C496 C503 1.409 . S
C497 H489 0.930 . S
C497 C495 1.419 . S
C497 C498 1.362 . S
C498 H490 0.930 . S
C498 C497 1.362 . S
C498 C501 1.409 . S
C499 H491 0.930 . S
C499 C500 1.355 . S
C499 C501 1.415 . S
C500 C499 1.355 . S
C500 C502 1.419 . S
C501 C496 1.425 . S
C501 C498 1.409 . S
C501 C499 1.415 . S
C502 H492 0.930 . S
C502 C500 1.419 . S
C502 C503 1.362 . S
C503 H493 0.930 . S
C503 C496 1.409 . S
C503 C502 1.362 . S
H504 C510 0.930 . S
H505 C513 0.930 . S
H506 C514 0.930 . S
H507 C515 0.930 . S
H508 C518 0.930 . S
H509 C519 0.930 . S
C510 H504 0.930 . S
C510 C511 1.355 . S
C510 C512 1.415 . S
C511 C510 1.355 . S
C511 C513 1.419 . S
C512 C510 1.415 . S
C512 C517 1.425 . S
C512 C519 1.409 . S
C513 H505 0.930 . S
C513 C511 1.419 . S
C513 C514 1.362 . S
C514 H506 0.930 . S
C514 C513 1.362 . S
C514 C517 1.409 . S
C515 H507 0.930 . S
C515 C516 1.355 . S
C515 C517 1.415 . S
C516 C515 1.355 . S
C516 C518 1.419 . S
C517 C512 1.425 . S
C517 C514 1.409 . S
C517 C515 1.415 . S
C518 H508 0.930 . S
C518 C516 1.419 . S
C518 C519 1.362 . S
C519 H509 0.930 . S
C519 C512 1.409 . S
C519 C518 1.362 . S
H520 C526 0.930 . S
H521 C529 0.930 . S
H522 C530 0.930 . S
H523 C531 0.930 . S
H524 C534 0.930 . S
H525 C535 0.930 . S
C526 H520 0.930 . S
C526 C527 1.355 . S
C526 C528 1.415 . S
C527 C526 1.355 . S
C527 C529 1.419 . S
C528 C526 1.415 . S
C528 C533 1.425 . S
C528 C535 1.409 . S
C529 H521 0.930 . S
C529 C527 1.419 . S
C529 C530 1.362 . S
C530 H522 0.930 . S
C530 C529 1.362 . S
C530 C533 1.409 . S
C531 H523 0.930 . S
C531 C532 1.355 . S
C531 C533 1.415 . S
C532 C531 1.355 . S
C532 C534 1.419 . S
C533 C528 1.425 . S
C533 C530 1.409 . S
C533 C531 1.415 . S
C534 H524 0.930 . S
C534 C532 1.419 . S
C534 C535 1.362 . S
C535 H525 0.930 . S
C535 C528 1.409 . S
C535 C534 1.362 . S
C159 C61 1.483 . S
C164 C90 1.528 . S
C180 C110 1.368 . S
C175 C70 1.383 . S
C196 C130 1.514 . S
C191 C43 1.475 . S
C212 C150 1.394 . S
C207 C52 1.383 . S
C228 C91 1.577 1_565 S
C223 C25 1.574 1_556 S
C239 C34 1.381 1_556 S
C244 C111 1.370 . S
C255 C7 1.480 1_556 S
C260 C131 1.516 . S
C271 C16 1.382 1_556 S
C276 C151 1.379 . S
C292 C81 0.796 . S
C287 C50 0.800 1_455 S
C308 C101 0.770 . S
C303 C59 0.811 . S
C324 C121 0.800 . S
C319 C67 0.800 . S
C335 C41 0.847 . S
C340 C141 0.831 . S
C351 C14 0.810 . S
C356 C84 0.814 . S
C372 C104 0.772 . S
C367 C23 0.822 . S
C388 C124 0.868 . S
C383 C31 0.829 . S
C399 C5 0.799 . S
C404 C144 0.750 . S
C415 C49 1.532 1_556 S
C420 C74 1.520 . S
C431 C58 1.552 1_556 S
C436 C94 1.541 . S
C452 C114 1.482 . S
C447 C68 1.540 1_556 S
C468 C134 1.646 . S
C463 C40 1.676 1_556 S
C479 C13 1.558 1_455 S
C484 C76 1.552 . S
C500 C96 1.598 . S
C495 C22 1.614 . S
C516 C116 1.536 . S
C511 C32 1.569 . S
C527 C4 1.611 . S
C532 C136 1.558 . S
